
#######################################################################
#
#                 Cambridge Crystallographic Data Centre
#                                CCDC 
#
#######################################################################
#
# If this CIF has been generated from an entry in the Cambridge 
# Structural Database, then it will include bibliographic, chemical, 
# crystal, experimental, refinement or atomic coordinate data resulting 
# from the CCDC's data processing and validation procedures.
#
#######################################################################

data_FIHPIX
_chemical_formula_moiety         'C6 H13 N3 O1'
_chemical_name_systematic        5-Isopropyl-1,3,5-triazinan-2-one
_symmetry_cell_setting           monoclinic
_symmetry_space_group_name_H-M   'P 21/c'
_symmetry_Int_Tables_number      14
_space_group_name_Hall           '-P 2ybc'
loop_
_symmetry_equiv_pos_site_id
_symmetry_equiv_pos_as_xyz
1 x,y,z
2 -x,1/2+y,1/2-z
3 -x,-y,-z
4 x,1/2-y,1/2+z
_cell_length_a                   10.0590(10)
_cell_length_b                   5.7200(10)
_cell_length_c                   27.581(2)
_cell_angle_alpha                90
_cell_angle_beta                 98.1250(10)
_cell_angle_gamma                90
_cell_volume                     1571.01
_exptl_crystal_colour            colorless
_exptl_crystal_description       rod
_cell_formula_units_Z            8
loop_
_atom_site_label
_atom_site_type_symbol
_atom_site_fract_x
_atom_site_fract_y
_atom_site_fract_z
O1 O 0.14612(9) 0.16864(16) 0.00615(3)
N1 N 0.15477(11) 0.4751(2) 0.05852(4)
H1 H 0.2219(18) 0.524(3) 0.0443(6)
N2 N -0.02604(10) 0.2243(2) 0.05007(4)
H2 H -0.0700(17) 0.108(3) 0.0335(6)
N3 N 0.00088(11) 0.4950(2) 0.11762(4)
C1 C 0.09216(11) 0.2863(2) 0.03641(4)
C2 C -0.09445(13) 0.3764(3) 0.08148(5)
H3 H -0.1486 0.4938 0.0610
H4 H -0.1563 0.2815 0.0984
C3 C 0.08773(14) 0.6282(2) 0.09011(5)
H5 H 0.1561 0.7116 0.1131
H6 H 0.0338 0.7465 0.0698
C4 C 0.07417(18) 0.3380(3) 0.15491(5)
H7 H 0.1269 0.2240 0.1378
C5 C -0.0214(3) 0.2028(6) 0.18133(11)
H8 H -0.0836 0.3111 0.1941
H9 H 0.0293 0.1164 0.2086
H10 H -0.0722 0.0927 0.1586
C6 C 0.1707(3) 0.4743(6) 0.19082(9)
H11 H 0.2392 0.5464 0.1737
H12 H 0.2140 0.3689 0.2163
H13 H 0.1219 0.5965 0.2059
O2 O 0.35886(8) 0.66821(16) 0.00627(3)
N4 N 0.56581(10) 0.72530(19) 0.04957(4)
H14 H 0.5970(16) 0.609(3) 0.0331(6)
N5 N 0.39128(11) 0.9752(2) 0.05844(4)
H15 H 0.3157(18) 1.023(3) 0.0449(6)
N6 N 0.59255(11) 0.99668(19) 0.11696(4)
C7 C 0.43656(11) 0.7864(2) 0.03630(4)
C8 C 0.48193(13) 1.1283(2) 0.09052(5)
H16 H 0.5178 1.2509 0.0706
H17 H 0.4312 1.2063 0.1142
C9 C 0.65852(12) 0.8810(2) 0.08002(5)
H18 H 0.7357 0.7893 0.0962
H19 H 0.6933 1.0001 0.0590
C10 C 0.55027(16) 0.8382(3) 0.15461(5)
H20 H 0.4716 0.7439 0.1393
C11 C 0.5081(3) 0.9833(5) 0.19593(7)
H21 H 0.5825 1.0851 0.2095
H22 H 0.4846 0.8793 0.2216
H23 H 0.4301 1.0791 0.1833
C12 C 0.6622(2) 0.6733(4) 0.17492(7)
H24 H 0.6761 0.5575 0.1499
H25 H 0.6379 0.5934 0.2038
H26 H 0.7452 0.7624 0.1841
loop_
_geom_bond_atom_site_label_1
_geom_bond_atom_site_label_2
_geom_bond_site_symmetry_1
_geom_bond_site_symmetry_2
O1 C1 1_555 1_555
N1 H1 1_555 1_555
N2 H2 1_555 1_555
N3 C2 1_555 1_555
C1 N1 1_555 1_555
C2 N2 1_555 1_555
H3 C2 1_555 1_555
H4 C2 1_555 1_555
C3 N1 1_555 1_555
H5 C3 1_555 1_555
H6 C3 1_555 1_555
C4 N3 1_555 1_555
H7 C4 1_555 1_555
C5 C4 1_555 1_555
H8 C5 1_555 1_555
H9 C5 1_555 1_555
H10 C5 1_555 1_555
C6 C4 1_555 1_555
H11 C6 1_555 1_555
H12 C6 1_555 1_555
H13 C6 1_555 1_555
O2 C7 1_555 1_555
N4 H14 1_555 1_555
N5 H15 1_555 1_555
N6 C8 1_555 1_555
C7 N4 1_555 1_555
C8 N5 1_555 1_555
H16 C8 1_555 1_555
H17 C8 1_555 1_555
C9 N4 1_555 1_555
H18 C9 1_555 1_555
H19 C9 1_555 1_555
C10 N6 1_555 1_555
H20 C10 1_555 1_555
C11 C10 1_555 1_555
H21 C11 1_555 1_555
H22 C11 1_555 1_555
H23 C11 1_555 1_555
C12 C10 1_555 1_555
H24 C12 1_555 1_555
H25 C12 1_555 1_555
H26 C12 1_555 1_555
N2 C1 1_555 1_555
N3 C3 1_555 1_555
N5 C7 1_555 1_555
N6 C9 1_555 1_555

#END
