
#######################################################################
#
#                 Cambridge Crystallographic Data Centre
#                                CCDC 
#
#######################################################################
#
# If this CIF has been generated from an entry in the Cambridge 
# Structural Database, then it will include bibliographic, chemical, 
# crystal, experimental, refinement or atomic coordinate data resulting 
# from the CCDC's data processing and validation procedures.
#
#######################################################################

data_FIHPUJ
_chemical_formula_moiety         'C4 H9 N3 O1'
_chemical_name_systematic        5-Methyl-1,3,5-triazinan-2-one
_symmetry_cell_setting           monoclinic
_symmetry_space_group_name_H-M   'P 21/m'
_symmetry_Int_Tables_number      11
_space_group_name_Hall           '-P 2yb'
loop_
_symmetry_equiv_pos_site_id
_symmetry_equiv_pos_as_xyz
1 x,y,z
2 -x,1/2+y,-z
3 -x,-y,-z
4 x,1/2-y,z
_cell_length_a                   5.0390(10)
_cell_length_b                   7.1650(10)
_cell_length_c                   7.6350(10)
_cell_angle_alpha                90
_cell_angle_beta                 97.479(4)
_cell_angle_gamma                90
_cell_volume                     273.312
_exptl_crystal_colour            colorless
_exptl_crystal_description       block
_cell_formula_units_Z            2
loop_
_atom_site_label
_atom_site_type_symbol
_atom_site_fract_x
_atom_site_fract_y
_atom_site_fract_z
O1 O -0.0182(2) 0.7500 0.52672(14)
N1 N 0.23388(19) 0.58875(13) 0.35152(12)
H1 H 0.168(3) 0.488(2) 0.3918(19)
N2 N 0.3969(3) 0.7500 0.10812(16)
C1 C 0.1461(3) 0.7500 0.41549(19)
C2 C 0.4254(2) 0.58574(15) 0.22144(14)
H2 H 0.6099 0.5806 0.2842
H3 H 0.3955 0.4721 0.1477
C3 C 0.1425(3) 0.7500 -0.0122(2)
N1C N 0.23388(19) 0.91125(13) 0.35152(12)
H1C H 0.168(3) 1.012(2) 0.3918(19)
C2C C 0.4254(2) 0.91426(15) 0.22144(14)
H2C H 0.6099 0.9194 0.2842
H3C H 0.3955 1.0279 0.1477
H4? H 0.1230 0.6313 -0.0764
H5? H 0.1428 0.8530 -0.0966
H6? H -0.0073 0.7656 0.0565
loop_
_geom_bond_atom_site_label_1
_geom_bond_atom_site_label_2
_geom_bond_site_symmetry_1
_geom_bond_site_symmetry_2
O1 C1 1_555 1_555
N1 H1 1_555 1_555
N2 C2 1_555 1_555
C1 N1 1_555 1_555
C2 N1 1_555 1_555
H2 C2 1_555 1_555
H3 C2 1_555 1_555
C3 N2 1_555 1_555
N1C C1 1_555 1_555
H1C N1C 1_555 1_555
C2C N2 1_555 1_555
H2C C2C 1_555 1_555
H3C C2C 1_555 1_555
N1C C2C 1_555 1_555

#END
