
#######################################################################
#
#                 Cambridge Crystallographic Data Centre
#                                CCDC 
#
#######################################################################
#
# If this CIF has been generated from an entry in the Cambridge 
# Structural Database, then it will include bibliographic, chemical, 
# crystal, experimental, refinement or atomic coordinate data resulting 
# from the CCDC's data processing and validation procedures.
#
#######################################################################

data_FIHPET
_chemical_formula_moiety         'C7 H15 N3 O1'
_chemical_name_systematic        5-t-Butyl-1,3,5-triazinan-2-one
_symmetry_cell_setting           monoclinic
_symmetry_space_group_name_H-M   'P 21/c'
_symmetry_Int_Tables_number      14
_space_group_name_Hall           '-P 2ybc'
loop_
_symmetry_equiv_pos_site_id
_symmetry_equiv_pos_as_xyz
1 x,y,z
2 -x,1/2+y,1/2-z
3 -x,-y,-z
4 x,1/2-y,1/2+z
_cell_length_a                   5.9120(10)
_cell_length_b                   10.2710(10)
_cell_length_c                   27.3280(10)
_cell_angle_alpha                90
_cell_angle_beta                 91.796(2)
_cell_angle_gamma                90
_cell_volume                     1658.6
_exptl_crystal_colour            colorless
_exptl_crystal_description       block
_cell_formula_units_Z            8
loop_
_atom_site_label
_atom_site_type_symbol
_atom_site_fract_x
_atom_site_fract_y
_atom_site_fract_z
O1 O 0.41268(11) 0.53880(7) 0.25803(2)
N1 N 0.46697(13) 0.35121(8) 0.30141(3)
H1 H 0.352(2) 0.3183(13) 0.2851(5)
N2 N 0.73048(13) 0.51677(8) 0.30573(3)
H2 H 0.780(2) 0.5903(14) 0.2932(5)
N3 N 0.75844(13) 0.34129(7) 0.36507(3)
C1 C 0.53292(15) 0.47079(9) 0.28669(3)
C2 C 0.88002(15) 0.44131(10) 0.33935(3)
H3 H 1.0010 0.4002 0.3205
H4 H 0.9527 0.5011 0.3635
C3 C 0.62862(16) 0.26790(9) 0.32867(3)
H5 H 0.5454 0.1974 0.3450
H6 H 0.7330 0.2272 0.3055
C4 C 0.64681(16) 0.38383(9) 0.41078(3)
C5 C 0.51473(19) 0.51240(11) 0.40618(4)
H7 H 0.6171 0.5821 0.3964
H8 H 0.4506 0.5342 0.4378
H9 H 0.3923 0.5029 0.3814
C6 C 0.83527(19) 0.39945(12) 0.45022(4)
H10 H 0.9182 0.3172 0.4540
H11 H 0.7686 0.4228 0.4814
H12 H 0.9395 0.4683 0.4405
C7 C 0.4852(2) 0.27742(12) 0.42706(4)
H13 H 0.3555 0.2724 0.4039
H14 H 0.4320 0.2980 0.4598
H15 H 0.5644 0.1936 0.4280
O2 O 0.08736(12) 0.24831(7) 0.24311(2)
N4 N -0.23287(14) 0.27195(8) 0.19628(3)
H16 H -0.282(2) 0.1960(14) 0.2084(5)
N5 N 0.02914(13) 0.43791(8) 0.20116(3)
H17 H 0.145(2) 0.4685(13) 0.2162(5)
N6 N -0.26088(13) 0.44827(7) 0.13738(3)
C8 C -0.03477(15) 0.31760(9) 0.21516(3)
C9 C -0.13343(16) 0.52145(9) 0.17428(3)
H18 H -0.2391 0.5605 0.1975
H19 H -0.0513 0.5931 0.1584
C10 C -0.38229(15) 0.34723(9) 0.16260(3)
H20 H -0.4532 0.2875 0.1382
H21 H -0.5046 0.3874 0.1814
C11 C -0.14613(16) 0.40667(9) 0.09195(3)
C12 C -0.01564(19) 0.27751(11) 0.09626(4)
H22 H 0.1042 0.2854 0.1217
H23 H 0.0518 0.2572 0.0649
H24 H -0.1197 0.2076 0.1050
C13 C 0.0187(2) 0.51264(12) 0.07676(4)
H25 H -0.0596 0.5967 0.0755
H26 H 0.0758 0.4921 0.0444
H27 H 0.1455 0.5171 0.1007
C14 C -0.3314(2) 0.39276(12) 0.05188(4)
H28 H -0.4407 0.3267 0.0616
H29 H -0.2632 0.3663 0.0212
H30 H -0.4089 0.4764 0.0472
loop_
_geom_bond_atom_site_label_1
_geom_bond_atom_site_label_2
_geom_bond_site_symmetry_1
_geom_bond_site_symmetry_2
O1 C1 1_555 1_555
N1 H1 1_555 1_555
N2 H2 1_555 1_555
N3 C2 1_555 1_555
C1 N1 1_555 1_555
C2 N2 1_555 1_555
H3 C2 1_555 1_555
H4 C2 1_555 1_555
C3 N1 1_555 1_555
H5 C3 1_555 1_555
H6 C3 1_555 1_555
C4 N3 1_555 1_555
C5 C4 1_555 1_555
H7 C5 1_555 1_555
H8 C5 1_555 1_555
H9 C5 1_555 1_555
C6 C4 1_555 1_555
H10 C6 1_555 1_555
H11 C6 1_555 1_555
H12 C6 1_555 1_555
C7 C4 1_555 1_555
H13 C7 1_555 1_555
H14 C7 1_555 1_555
H15 C7 1_555 1_555
O2 C8 1_555 1_555
N4 H16 1_555 1_555
N5 H17 1_555 1_555
N6 C9 1_555 1_555
C8 N4 1_555 1_555
C9 N5 1_555 1_555
H18 C9 1_555 1_555
H19 C9 1_555 1_555
C10 N4 1_555 1_555
H20 C10 1_555 1_555
H21 C10 1_555 1_555
C11 N6 1_555 1_555
C12 C11 1_555 1_555
H22 C12 1_555 1_555
H23 C12 1_555 1_555
H24 C12 1_555 1_555
C13 C11 1_555 1_555
H25 C13 1_555 1_555
H26 C13 1_555 1_555
H27 C13 1_555 1_555
C14 C11 1_555 1_555
H28 C14 1_555 1_555
H29 C14 1_555 1_555
H30 C14 1_555 1_555
N2 C1 1_555 1_555
N3 C3 1_555 1_555
N5 C8 1_555 1_555
N6 C10 1_555 1_555

#END
