
#######################################################################
#
#                 Cambridge Crystallographic Data Centre
#                                CCDC 
#
#######################################################################
#
# If this CIF has been generated from an entry in the Cambridge 
# Structural Database, then it will include bibliographic, chemical, 
# crystal, experimental, refinement or atomic coordinate data resulting 
# from the CCDC's data processing and validation procedures.
#
#######################################################################

data_FIHSOF
_chemical_formula_moiety         'C4 Br4,2(C12 H8 N2)'
_chemical_name_systematic        'Tetrabromobutatriene bis(phenazine)'
_symmetry_cell_setting           triclinic
_symmetry_space_group_name_H-M   'P -1'
_symmetry_Int_Tables_number      2
_space_group_name_Hall           '-P 1'
loop_
_symmetry_equiv_pos_site_id
_symmetry_equiv_pos_as_xyz
1 x,y,z
2 -x,-y,-z
_cell_length_a                   5.9234(10)
_cell_length_b                   10.5590(18)
_cell_length_c                   11.2497(19)
_cell_angle_alpha                67.095(3)
_cell_angle_beta                 85.570(3)
_cell_angle_gamma                79.756(3)
_cell_volume                     637.779
_cell_formula_units_Z            1
loop_
_atom_site_label
_atom_site_type_symbol
_atom_site_fract_x
_atom_site_fract_y
_atom_site_fract_z
Br1 Br 0.9790(1) 0.6686(1) 0.1785(1)
Br2 Br 0.6173(1) 0.4660(1) 0.3185(1)
C13 C 0.9574(10) 0.5149(6) 0.4454(6)
C14 C 0.8665(9) 0.5479(6) 0.3340(5)
Br1A Br 1.0210(1) 0.3314(1) 0.8215(1)
Br2A Br 1.3827(1) 0.5340(1) 0.6815(1)
C13A C 1.0426(10) 0.4851(6) 0.5546(6)
C14A C 1.1335(9) 0.4521(6) 0.6660(5)
C1 C 0.5891(11) 0.8272(7) 0.6743(7)
N1 N 0.1263(9) 0.8503(5) 0.9083(4)
C2 C -0.0195(10) 0.9554(6) 0.8288(5)
C3 C 0.0328(11) 1.0198(6) 0.6936(5)
C4 C 0.4862(12) 0.6993(7) 0.9368(6)
C5 C -0.2302(11) 1.0046(7) 0.8753(6)
N2 N 0.2286(9) 0.9785(5) 0.6433(4)
C6 C 0.3230(10) 0.8081(6) 0.8583(5)
C7 C -0.3836(13) 1.1078(8) 0.7956(7)
C8 C 0.6852(12) 0.6581(7) 0.8870(7)
C9 C 0.3742(10) 0.8752(6) 0.7222(5)
C10 C -0.3324(12) 1.1709(7) 0.6607(7)
C11 C -0.1302(12) 1.1286(7) 0.6125(6)
C12 C 0.7377(12) 0.7225(7) 0.7558(7)
H1 H 0.6266 0.8679 0.5873
H2 H 0.4556 0.6555 1.0244
H3 H -0.2648 0.9652 0.9629
H4 H -0.5225 1.1379 0.8284
H5 H 0.7901 0.5854 0.9404
H6 H -0.4388 1.2412 0.6060
H7 H -0.0975 1.1714 0.5251
H8 H 0.8778 0.6926 0.7240
loop_
_geom_bond_atom_site_label_1
_geom_bond_atom_site_label_2
_geom_bond_site_symmetry_1
_geom_bond_site_symmetry_2
Br1 C14 1_555 1_555
Br2 C14 1_555 1_555
C1 C9 1_555 1_555
N1 C2 1_555 1_555
C2 C3 1_555 1_555
C3 N2 1_555 1_555
C4 C6 1_555 1_555
C5 C2 1_555 1_555
N2 C9 1_555 1_555
C6 N1 1_555 1_555
C7 C5 1_555 1_555
C8 C4 1_555 1_555
C9 C6 1_555 1_555
C10 C7 1_555 1_555
C11 C3 1_555 1_555
C12 C1 1_555 1_555
C13 C14 1_555 1_555
H1 C1 1_555 1_555
H2 C4 1_555 1_555
H3 C5 1_555 1_555
H4 C7 1_555 1_555
H5 C8 1_555 1_555
H6 C10 1_555 1_555
H7 C11 1_555 1_555
H8 C12 1_555 1_555
Br1A C14A 1_555 1_555
Br2A C14A 1_555 1_555
C13A C13 1_555 1_555
C14A C13A 1_555 1_555
C8 C12 1_555 1_555
C10 C11 1_555 1_555

#END
