
#######################################################################
#
#                 Cambridge Crystallographic Data Centre
#                                CCDC 
#
#######################################################################
#
# If this CIF has been generated from an entry in the Cambridge 
# Structural Database, then it will include bibliographic, chemical, 
# crystal, experimental, refinement or atomic coordinate data resulting 
# from the CCDC's data processing and validation procedures.
#
#######################################################################

data_FIHSIB
_chemical_formula_moiety         'C31 H23 Cl2 N3 Si1'
_chemical_name_systematic        
3-{6,7-dichloro-3-[(trimethylsilyl)ethynyl]quinoxalin-2-yl}-9-phenyl-9H-carbazole
_symmetry_cell_setting           monoclinic
_symmetry_space_group_name_H-M   'P 21/n'
_symmetry_Int_Tables_number      14
_space_group_name_Hall           '-P 2yn'
loop_
_symmetry_equiv_pos_site_id
_symmetry_equiv_pos_as_xyz
1 x,y,z
2 1/2-x,1/2+y,1/2-z
3 -x,-y,-z
4 1/2+x,1/2-y,1/2+z
_cell_length_a                   15.6374(12)
_cell_length_b                   7.2061(5)
_cell_length_c                   24.1966(18)
_cell_angle_alpha                90
_cell_angle_beta                 102.423(4)
_cell_angle_gamma                90
_cell_volume                     2662.75
_exptl_crystal_colour            yellow
_exptl_crystal_description       needle
_cell_formula_units_Z            4
_exptl_crystal_preparation       Luminescent
loop_
_atom_site_label
_atom_site_type_symbol
_atom_site_fract_x
_atom_site_fract_y
_atom_site_fract_z
Cl1 Cl 0.94696(3) 0.69094(8) 0.58059(2)
Cl2 Cl 0.76253(3) 0.59586(8) 0.60407(2)
Si1 Si 0.42941(4) 0.33076(9) 0.21728(2)
N1 N 0.83051(10) 0.5166(2) 0.37581(7)
N2 N 0.66275(10) 0.4432(2) 0.39525(7)
N3 N 0.87051(10) 0.4265(2) 0.12578(7)
C1 C 0.76590(12) 0.4670(3) 0.33353(8)
C2 C 0.67939(13) 0.4332(3) 0.34380(8)
C3 C 0.72996(12) 0.4931(3) 0.43839(8)
C4 C 0.81351(13) 0.5324(3) 0.42851(8)
C5 C 0.71498(13) 0.5092(3) 0.49367(8)
H1 H 0.6592 0.4799 0.5010
C6 C 0.78118(13) 0.5670(3) 0.53651(8)
C7 C 0.86465(13) 0.6099(3) 0.52616(8)
C8 C 0.88076(13) 0.5918(3) 0.47332(8)
H2 H 0.9372 0.6191 0.4668
C9 C 0.79054(13) 0.4447(3) 0.27830(8)
C10 C 0.73351(13) 0.4765(3) 0.22639(8)
H3 H 0.6738 0.5055 0.2248
C11 C 0.76508(13) 0.4654(3) 0.17692(8)
C12 C 0.72653(12) 0.5018(3) 0.11801(8)
C13 C 0.64311(13) 0.5527(3) 0.08817(9)
H4 H 0.5968 0.5689 0.1075
C14 C 0.62864(13) 0.5793(3) 0.03048(9)
H5 H 0.5721 0.6150 0.0101
C15 C 0.69608(13) 0.5544(3) 0.00168(9)
H6 H 0.6845 0.5729 -0.0381
C16 C 0.77937(13) 0.5033(3) 0.02973(8)
H7 H 0.8250 0.4855 0.0099
C17 C 0.79372(13) 0.4789(3) 0.08794(8)
C18 C 0.85342(13) 0.4194(3) 0.17977(8)
C19 C 0.91039(13) 0.3815(3) 0.23102(9)
H8 H 0.9694 0.3463 0.2325
C20 C 0.87833(13) 0.3968(3) 0.27939(9)
H9 H 0.9167 0.3742 0.3149
C21 C 0.95601(13) 0.4191(3) 0.11394(8)
C22 C 0.98939(14) 0.5741(3) 0.09215(9)
H10 H 0.9551 0.6836 0.0840
C23 C 1.07341(15) 0.5675(4) 0.08232(10)
H11 H 1.0965 0.6722 0.0667
C24 C 1.12373(15) 0.4099(4) 0.09514(10)
H12 H 1.1817 0.4073 0.0889
C25 C 1.09016(15) 0.2559(4) 0.11699(10)
H13 H 1.1250 0.1475 0.1258
C26 C 1.00543(14) 0.2593(3) 0.12602(9)
H14 H 0.9817 0.1529 0.1404
C27 C 0.60415(13) 0.3884(3) 0.30023(8)
C28 C 0.53615(13) 0.3599(3) 0.26714(9)
C29 C 0.36785(15) 0.1421(4) 0.24376(10)
H15 H 0.3069 0.1428 0.2226
H16 H 0.3695 0.1616 0.2841
H17 H 0.3947 0.0222 0.2386
C30 C 0.36986(15) 0.5545(3) 0.21586(10)
H18 H 0.4020 0.6519 0.2007
H19 H 0.3650 0.5874 0.2544
H20 H 0.3111 0.5420 0.1918
C31 C 0.45050(15) 0.2775(3) 0.14638(9)
H21 H 0.3963 0.2344 0.1214
H22 H 0.4952 0.1804 0.1499
H23 H 0.4712 0.3897 0.1304
loop_
_geom_bond_atom_site_label_1
_geom_bond_atom_site_label_2
_geom_bond_site_symmetry_1
_geom_bond_site_symmetry_2
Cl1 C7 1_555 1_555
Cl2 C6 1_555 1_555
Si1 C28 1_555 1_555
N1 C1 1_555 1_555
N2 C2 1_555 1_555
N3 C17 1_555 1_555
C1 C2 1_555 1_555
C2 C27 1_555 1_555
C3 N2 1_555 1_555
C4 N1 1_555 1_555
C5 C3 1_555 1_555
H1 C5 1_555 1_555
C6 C5 1_555 1_555
C7 C6 1_555 1_555
C8 C4 1_555 1_555
H2 C8 1_555 1_555
C9 C1 1_555 1_555
C10 C9 1_555 1_555
H3 C10 1_555 1_555
C11 C10 1_555 1_555
C12 C11 1_555 1_555
C13 C12 1_555 1_555
H4 C13 1_555 1_555
C14 C13 1_555 1_555
H5 C14 1_555 1_555
C15 C14 1_555 1_555
H6 C15 1_555 1_555
C16 C15 1_555 1_555
H7 C16 1_555 1_555
C17 C12 1_555 1_555
C18 N3 1_555 1_555
C19 C18 1_555 1_555
H8 C19 1_555 1_555
C20 C9 1_555 1_555
H9 C20 1_555 1_555
C21 N3 1_555 1_555
C22 C21 1_555 1_555
H10 C22 1_555 1_555
C23 C22 1_555 1_555
H11 C23 1_555 1_555
C24 C23 1_555 1_555
H12 C24 1_555 1_555
C25 C24 1_555 1_555
H13 C25 1_555 1_555
C26 C21 1_555 1_555
H14 C26 1_555 1_555
C27 C28 1_555 1_555
C29 Si1 1_555 1_555
H15 C29 1_555 1_555
H16 C29 1_555 1_555
H17 C29 1_555 1_555
C30 Si1 1_555 1_555
H18 C30 1_555 1_555
H19 C30 1_555 1_555
H20 C30 1_555 1_555
C31 Si1 1_555 1_555
H21 C31 1_555 1_555
H22 C31 1_555 1_555
H23 C31 1_555 1_555
C3 C4 1_555 1_555
C7 C8 1_555 1_555
C11 C18 1_555 1_555
C16 C17 1_555 1_555
C19 C20 1_555 1_555
C25 C26 1_555 1_555

#END
