
#######################################################################
#
#                 Cambridge Crystallographic Data Centre
#                                CCDC 
#
#######################################################################
#
# If this CIF has been generated from an entry in the Cambridge 
# Structural Database, then it will include bibliographic, chemical, 
# crystal, experimental, refinement or atomic coordinate data resulting 
# from the CCDC's data processing and validation procedures.
#
#######################################################################

data_FIHSUL
_chemical_formula_moiety         'C15 H12 Br4 O2,C12 H8 N2'
_chemical_name_systematic        
"5,6-bis(Dibromomethylene)-3-(4'-methoxyphenyl)-cyclohexen-4-ol phenazine"
_symmetry_cell_setting           triclinic
_symmetry_space_group_name_H-M   'P -1'
_symmetry_Int_Tables_number      2
_space_group_name_Hall           '-P 1'
loop_
_symmetry_equiv_pos_site_id
_symmetry_equiv_pos_as_xyz
1 x,y,z
2 -x,-y,-z
_cell_length_a                   8.6234(10)
_cell_length_b                   12.8660(15)
_cell_length_c                   13.3868(16)
_cell_angle_alpha                71.469(2)
_cell_angle_beta                 74.489(2)
_cell_angle_gamma                71.885(2)
_cell_volume                     1314.8
_exptl_crystal_description       needle
_cell_formula_units_Z            2
loop_
_atom_site_label
_atom_site_type_symbol
_atom_site_fract_x
_atom_site_fract_y
_atom_site_fract_z
Br1 Br 0.27419(14) 0.71018(8) 0.46493(7)
Br2 Br 0.36516(15) 0.92320(9) 0.47613(8)
Br3 Br 0.00689(15) 1.00086(8) 0.66909(9)
Br4 Br 0.2275(2) 1.00054(9) 0.82240(10)
O1 O 0.0925(8) 0.6551(5) 0.8096(5)
H1 H 0.1176 0.6794 0.8512
C1 C 0.2258(11) 0.6444(7) 0.7215(6)
H2 H 0.199(12) 0.610(7) 0.674(7)
C4 C 0.4464(12) 0.6351(8) 0.8139(8)
H4 H 0.5211 0.5934 0.8596
C5 C 0.3991(13) 0.7464(8) 0.7999(7)
H5 H 0.4455 0.7799 0.8329
C6 C 0.3862(12) 0.5719(7) 0.7599(7)
H6 H 0.469(13) 0.564(7) 0.695(8)
O2 O 0.3326(12) 0.1244(6) 0.9749(7)
C8 C 0.2753(13) 0.8179(7) 0.7335(7)
C10 C 0.2549(11) 0.7594(7) 0.6596(7)
C11 C 0.3467(14) 0.2354(8) 0.9298(8)
C12 C 0.3413(13) 0.4202(8) 0.9313(7)
H7 H 0.3257 0.4724 0.9701
C14 C 0.3260(14) 0.3127(8) 0.9868(8)
H9 H 0.3022 0.2925 1.0614
C17 C 0.3854(15) 0.2656(9) 0.8191(9)
H12 H 0.4030 0.2132 0.7803
C18 C 0.1871(14) 0.9197(8) 0.7405(8)
C20 C 0.3783(11) 0.4540(7) 0.8223(7)
C21 C 0.2914(12) 0.7925(7) 0.5526(7)
C22 C 0.3976(14) 0.3739(8) 0.7676(8)
H13 H 0.4196 0.3949 0.6931
C23 C 0.301(2) 0.0877(11) 1.0884(11)
H14 H 0.3969 0.0830 1.1148
H15 H 0.2780 0.0146 1.1104
H16 H 0.2074 0.1407 1.1169
C2 C 0.1930(11) 0.4677(8) 0.3924(8)
C3 C 0.0878(14) 0.7149(11) 0.0440(9)
H3 H 0.0652 0.7485 -0.0248
N1 N 0.2022(11) 0.5728(7) 0.3473(6)
C7 C 0.1642(13) 0.6186(8) 0.2475(8)
C9 C 0.1136(11) 0.5560(8) 0.1971(7)
C13 C 0.0718(14) 0.6088(11) 0.0937(10)
H8 H 0.0338 0.5703 0.0607
N2 N 0.1086(11) 0.4501(7) 0.2438(8)
C15 C 0.1768(16) 0.7287(8) 0.1926(8)
H10 H 0.2123 0.7698 0.2242
C16 C 0.1384(17) 0.7752(10) 0.0954(9)
H11 H 0.1452 0.8493 0.0608
C19 C 0.1493(12) 0.4015(8) 0.3407(10)
C24 C 0.2337(16) 0.4165(10) 0.4994(9)
H17 H 0.2595 0.4591 0.5344
C25 C 0.1535(16) 0.2873(10) 0.3955(14)
H18 H 0.1265 0.2429 0.3630
C26 C 0.2336(18) 0.3099(11) 0.5459(12)
H19 H 0.2586 0.2772 0.6142
C27 C 0.1938(17) 0.2418(11) 0.4900(14)
H20 H 0.1975 0.1658 0.5225
loop_
_geom_bond_atom_site_label_1
_geom_bond_atom_site_label_2
_geom_bond_site_symmetry_1
_geom_bond_site_symmetry_2
Br1 C21 1_555 1_555
Br2 C21 1_555 1_555
Br3 C18 1_555 1_555
Br4 C18 1_555 1_555
O1 H1 1_555 1_555
C1 O1 1_555 1_555
H2 C1 1_555 1_555
C2 N1 1_555 1_555
C3 H3 1_555 1_555
C4 H4 1_555 1_555
C5 C4 1_555 1_555
H5 C5 1_555 1_555
C6 C1 1_555 1_555
H6 C6 1_555 1_555
O2 C11 1_555 1_555
N1 C7 1_555 1_555
C7 C9 1_555 1_555
C8 C5 1_555 1_555
C9 C13 1_555 1_555
C10 C1 1_555 1_555
C11 C14 1_555 1_555
C12 H7 1_555 1_555
C13 C3 1_555 1_555
H8 C13 1_555 1_555
C14 C12 1_555 1_555
H9 C14 1_555 1_555
N2 C9 1_555 1_555
C15 C7 1_555 1_555
H10 C15 1_555 1_555
C16 C3 1_555 1_555
H11 C16 1_555 1_555
C17 C11 1_555 1_555
H12 C17 1_555 1_555
C18 C8 1_555 1_555
C19 C2 1_555 1_555
C20 C6 1_555 1_555
C21 C10 1_555 1_555
C22 C17 1_555 1_555
H13 C22 1_555 1_555
C23 O2 1_555 1_555
H14 C23 1_555 1_555
H15 C23 1_555 1_555
H16 C23 1_555 1_555
C24 C2 1_555 1_555
H17 C24 1_555 1_555
C25 C19 1_555 1_555
H18 C25 1_555 1_555
C26 C24 1_555 1_555
H19 C26 1_555 1_555
C27 C25 1_555 1_555
H20 C27 1_555 1_555
C4 C6 1_555 1_555
C8 C10 1_555 1_555
C12 C20 1_555 1_555
N2 C19 1_555 1_555
C15 C16 1_555 1_555
C20 C22 1_555 1_555
C26 C27 1_555 1_555

#END
