
#######################################################################
#
#                 Cambridge Crystallographic Data Centre
#                                CCDC 
#
#######################################################################
#
# If this CIF has been generated from an entry in the Cambridge 
# Structural Database, then it will include bibliographic, chemical, 
# crystal, experimental, refinement or atomic coordinate data resulting 
# from the CCDC's data processing and validation procedures.
#
#######################################################################

data_FIHTEY
_chemical_formula_moiety         
'C27 H32 N6 O8,C4 H12 N1 1+,C2 H3 O2 1-,0.5(H2 O1)'
_chemical_name_systematic        
'tetramethylammonium ethyl 2,7-bis{[(4-nitrophenyl)carbamoyl]amino}octahydronaphthalene-4a(2H)-carboxylate acetate hemihydrate'
_symmetry_cell_setting           triclinic
_symmetry_space_group_name_H-M   'P -1'
_symmetry_Int_Tables_number      2
_space_group_name_Hall           '-P 1'
loop_
_symmetry_equiv_pos_site_id
_symmetry_equiv_pos_as_xyz
1 x,y,z
2 -x,-y,-z
_cell_length_a                   10.6379(7)
_cell_length_b                   11.5474(7)
_cell_length_c                   16.0836(7)
_cell_angle_alpha                78.225(4)
_cell_angle_beta                 88.215(4)
_cell_angle_gamma                65.449(6)
_cell_volume                     1756.08
_exptl_crystal_colour            yellow
_exptl_crystal_description       block
_cell_formula_units_Z            2
loop_
_atom_site_label
_atom_site_type_symbol
_atom_site_fract_x
_atom_site_fract_y
_atom_site_fract_z
O1 O 0.2120(2) 1.2850(2) 0.10611(14)
O2 O 0.3307(2) 1.1722(2) 0.01559(12)
O3 O 0.7257(2) 0.6041(2) 0.30811(11)
O4 O 0.5926(2) 0.5583(2) 0.91855(12)
O5 O 0.0921(2) 1.0746(2) 1.06635(13)
O6 O 0.0109(3) 1.2064(2) 0.94412(15)
O7 O 0.8199(3) 0.1015(3) 0.6730(2)
O8 O 0.9866(4) 0.1706(3) 0.6724(2)
N1 N 0.4449(2) 0.7250(2) 0.81514(13)
H1 H 0.4226 0.7441 0.7615
N2 N 0.6416(4) 0.5697(4) 0.7792(2)
H2 H 0.6217 0.6189 0.7292
N3 N 0.0889(3) 1.1001(3) 0.98795(16)
N4 N 0.7120(4) 0.5894(4) 0.4515(2)
H3 H 0.6670 0.6282 0.4905
N5 N 0.5962(2) 0.7826(2) 0.36436(13)
H4 H 0.5813 0.8074 0.4121
N6 N 0.3047(2) 1.1860(2) 0.08940(15)
C1 C 0.1759(3) 1.0275(3) 0.85677(18)
H5 H 0.1138 1.1075 0.8258
C2 C 0.2643(3) 0.9331(3) 0.81610(17)
H6 H 0.2612 0.9499 0.7570
C3 C 0.3588(3) 0.8124(3) 0.86219(16)
C4 C 0.3607(3) 0.7864(3) 0.95139(16)
H7 H 0.4209 0.7059 0.9830
C5 C 0.2722(3) 0.8815(3) 0.99166(17)
H8 H 0.2735 0.8654 1.0508
C6 C 0.1818(3) 1.0004(3) 0.94464(17)
C7 C 0.5624(3) 0.6106(3) 0.84356(16)
C8 C 0.7602(4) 0.4433(4) 0.7931(2)
H9 H 0.8101 0.4305 0.8467
C9 C 0.7127(4) 0.3330(4) 0.7997(2)
H10 H 0.6468 0.3390 0.8435
H11 H 0.7916 0.2494 0.8155
C10 C 0.6442(3) 0.3431(3) 0.71298(16)
H12 H 0.6116 0.2751 0.7182
H13 H 0.5649 0.4265 0.6976
C11 C 0.8614(3) 0.4354(3) 0.72040(16)
H14 H 0.8879 0.5074 0.7140
H15 H 0.9445 0.3550 0.7354
C12 C 0.7952(3) 0.4400(3) 0.63561(18)
H16 H 0.7128 0.5227 0.6217
C13 C 0.7469(4) 0.3297(4) 0.6430(2)
C14 C 0.6720(3) 0.3524(3) 0.55488(16)
H17 H 0.6403 0.2845 0.5563
H18 H 0.5913 0.4351 0.5455
C15 C 0.8942(3) 0.4387(3) 0.56248(16)
H19 H 0.9233 0.5085 0.5600
H20 H 0.9759 0.3568 0.5733
C16 C 0.7642(4) 0.3524(4) 0.4819(2)
H21 H 0.7124 0.3684 0.4290
H22 H 0.8413 0.2673 0.4888
C17 C 0.8203(4) 0.4564(3) 0.47660(19)
H23 H 0.8890 0.4436 0.4333
C18 C 0.6808(3) 0.6527(3) 0.36976(16)
C19 C 0.5318(3) 0.8792(3) 0.29303(16)
C20 C 0.4420(3) 1.0021(3) 0.30763(17)
H24 H 0.4324 1.0156 0.3630
C21 C 0.3687(3) 1.1022(3) 0.24159(18)
H25 H 0.3088 1.1830 0.2518
C22 C 0.3851(3) 1.0812(3) 0.15912(17)
C23 C 0.4769(3) 0.9630(3) 0.14252(16)
H26 H 0.4888 0.9517 0.0867
C24 C 0.5509(3) 0.8616(3) 0.20909(16)
H27 H 0.6131 0.7821 0.1982
C25 C 0.8670(5) 0.1945(5) 0.6634(2)
C26 C 0.9267(13) -0.0325(5) 0.7015(5)
H28 H 0.8851 -0.0886 0.7311
H29 H 0.9960 -0.0336 0.7398
C27 C 0.9917(7) -0.0789(6) 0.6235(4)
H30 H 1.0517 -0.1701 0.6386
H31 H 1.0445 -0.0314 0.5997
H32 H 0.9206 -0.0650 0.5825
O11 O 0.5620(3) 0.7951(2) 0.53575(13)
O12 O 0.4451(3) 0.7428(2) 0.64248(13)
C37 C 0.4563(4) 0.8172(3) 0.57795(17)
C38 C 0.3308(4) 0.9457(3) 0.5467(2)
H55 H 0.3611 1.0136 0.5267
H56 H 0.2713 0.9669 0.5926
H57 H 0.2809 0.9376 0.5011
O13 O 0.8232(8) 0.7422(6) 0.6149(5)
H58 H 0.7439 0.7562 0.5919
H59 H 0.8649 0.7659 0.5735
N9 N 0.1792(2) 0.5307(2) 0.87366(13)
C39 C 0.3327(3) 0.4549(3) 0.87950(17)
H60 H 0.3619 0.4287 0.8266
H61 H 0.3583 0.3790 0.9246
H62 H 0.3766 0.5081 0.8911
C40 C 0.1370(3) 0.6390(3) 0.79697(19)
H63 H 0.0382 0.6870 0.7932
H64 H 0.1654 0.6037 0.7469
H65 H 0.1801 0.6960 0.8014
C41 C 0.1364(3) 0.5854(3) 0.95169(18)
H66 H 0.1676 0.5159 1.0011
H67 H 0.0374 0.6304 0.9496
H68 H 0.1768 0.6451 0.9545
C42 C 0.1101(3) 0.4438(3) 0.86667(17)
H69 H 0.1343 0.3756 0.9168
H70 H 0.1400 0.4064 0.8175
H71 H 0.0115 0.4935 0.8612
O9? O 0.8666(15) 0.1290(15) 0.6761(10)
O10? O 1.0656(14) 0.1445(11) 0.6717(8)
N7? N 0.5965(17) 0.5407(13) 0.7731(10)
H33? H 0.5714 0.5862 0.7222
N8? N 0.6757(19) 0.5617(14) 0.4490(10)
H34? H 0.6300 0.5987 0.4884
C28? C 0.6714(19) 0.3968(15) 0.7839(10)
H35? H 0.6382 0.3586 0.8351
C29? C 0.8202(18) 0.353(2) 0.7999(9)
H36? H 0.8692 0.2601 0.8019
H37? H 0.8403 0.3711 0.8529
H38? H 0.5454 0.3739 0.7015
H39? H 0.6850 0.2487 0.7278
H40? H 0.9512 0.4346 0.7304
H41? H 0.7922 0.5245 0.7050
C30? C 0.8644(16) 0.3494(14) 0.6477(8)
C31? C 0.7149(19) 0.394(2) 0.6286(9)
H42? H 0.6729 0.4897 0.6168
H43? H 0.5720 0.3862 0.5478
H44? H 0.7113 0.2582 0.5633
H45? H 0.9843 0.4395 0.5683
H46? H 0.8237 0.5276 0.5520
C32? C 0.7371(19) 0.4178(14) 0.4701(9)
H47? H 0.7178 0.3890 0.4207
C33? C 0.8882(17) 0.3642(18) 0.4839(9)
H48? H 0.9316 0.3896 0.4338
H49? H 0.9295 0.2702 0.5023
C34? C 0.941(2) 0.2012(17) 0.665(2)
C35? C 0.927(6) -0.013(2) 0.687(2)
H50? H 0.8851 -0.0414 0.7371
H51? H 1.0233 -0.0398 0.7059
C36? C 0.935(3) -0.105(3) 0.6271(16)
H52? H 0.9975 -0.1923 0.6525
H53? H 0.9680 -0.0774 0.5737
H54? H 0.8447 -0.1009 0.6179
loop_
_geom_bond_atom_site_label_1
_geom_bond_atom_site_label_2
_geom_bond_site_symmetry_1
_geom_bond_site_symmetry_2
O1 N6 1_555 1_555
O2 N6 1_555 1_555
O3 C18 1_555 1_555
O4 C7 1_555 1_555
O5 N3 1_555 1_555
O6 N3 1_555 1_555
O7 C25 1_555 1_555
O8 C25 1_555 1_555
N1 H1 1_555 1_555
N2 H2 1_555 1_555
N3 C6 1_555 1_555
N4 H3 1_555 1_555
N5 H4 1_555 1_555
N6 C22 1_555 1_555
C1 H5 1_555 1_555
C2 C1 1_555 1_555
H6 C2 1_555 1_555
C3 N1 1_555 1_555
C4 C3 1_555 1_555
H7 C4 1_555 1_555
C5 C4 1_555 1_555
H8 C5 1_555 1_555
C6 C1 1_555 1_555
C7 N1 1_555 1_555
C8 N2 1_555 1_555
H9 C8 1_555 1_555
C9 C8 1_555 1_555
H10 C9 1_555 1_555
H11 C9 1_555 1_555
C10 C9 1_555 1_555
H12 C10 1_555 1_555
H13 C10 1_555 1_555
C11 C8 1_555 1_555
H14 C11 1_555 1_555
H15 C11 1_555 1_555
C12 C11 1_555 1_555
H16 C12 1_555 1_555
C13 C10 1_555 1_555
C14 C13 1_555 1_555
H17 C14 1_555 1_555
H18 C14 1_555 1_555
C15 C12 1_555 1_555
H19 C15 1_555 1_555
H20 C15 1_555 1_555
C16 C14 1_555 1_555
H21 C16 1_555 1_555
H22 C16 1_555 1_555
C17 N4 1_555 1_555
H23 C17 1_555 1_555
C18 N4 1_555 1_555
C19 N5 1_555 1_555
C20 C19 1_555 1_555
H24 C20 1_555 1_555
C21 C20 1_555 1_555
H25 C21 1_555 1_555
C22 C21 1_555 1_555
C23 C22 1_555 1_555
H26 C23 1_555 1_555
C24 C19 1_555 1_555
H27 C24 1_555 1_555
C25 C13 1_555 1_555
C26 O7 1_555 1_555
H28 C26 1_555 1_555
H29 C26 1_555 1_555
C27 C26 1_555 1_555
H30 C27 1_555 1_555
H31 C27 1_555 1_555
H32 C27 1_555 1_555
O11 C37 1_555 1_555
O12 C37 1_555 1_555
C37 C38 1_555 1_555
C38 H55 1_555 1_555
H56 C38 1_555 1_555
H57 C38 1_555 1_555
O13 H58 1_555 1_555
H59 O13 1_555 1_555
N9 C39 1_555 1_555
C39 H60 1_555 1_555
H61 C39 1_555 1_555
H62 C39 1_555 1_555
C40 N9 1_555 1_555
H63 C40 1_555 1_555
H64 C40 1_555 1_555
H65 C40 1_555 1_555
C41 N9 1_555 1_555
H66 C41 1_555 1_555
H67 C41 1_555 1_555
H68 C41 1_555 1_555
C42 N9 1_555 1_555
H69 C42 1_555 1_555
H70 C42 1_555 1_555
H71 C42 1_555 1_555
N2 C7 1_555 1_555
N5 C18 1_555 1_555
C2 C3 1_555 1_555
C5 C6 1_555 1_555
C12 C13 1_555 1_555
C15 C17 1_555 1_555
C16 C17 1_555 1_555
C23 C24 1_555 1_555

#END
