
#######################################################################
#
#                 Cambridge Crystallographic Data Centre
#                                CCDC 
#
#######################################################################
#
# If this CIF has been generated from an entry in the Cambridge 
# Structural Database, then it will include bibliographic, chemical, 
# crystal, experimental, refinement or atomic coordinate data resulting 
# from the CCDC's data processing and validation procedures.
#
#######################################################################

data_FIHTAU
_chemical_formula_moiety         'C27 H32 N6 O8,3(C2 H6 O1 S1)'
_chemical_name_systematic        
'ethyl 2,7-bis{[(4-nitrophenyl)carbamoyl]amino}octahydronaphthalene-4a(2H)-carboxylate dimethyl sulfoxide solvate'
_symmetry_cell_setting           triclinic
_symmetry_space_group_name_H-M   'P -1'
_symmetry_Int_Tables_number      2
_space_group_name_Hall           '-P 1'
loop_
_symmetry_equiv_pos_site_id
_symmetry_equiv_pos_as_xyz
1 x,y,z
2 -x,-y,-z
_cell_length_a                   12.421(3)
_cell_length_b                   13.419(3)
_cell_length_c                   14.700(3)
_cell_angle_alpha                100.87(3)
_cell_angle_beta                 103.69(3)
_cell_angle_gamma                117.12(3)
_cell_volume                     1990.41
_exptl_crystal_colour            yellow
_exptl_crystal_description       block
_cell_formula_units_Z            2
loop_
_atom_site_label
_atom_site_type_symbol
_atom_site_fract_x
_atom_site_fract_y
_atom_site_fract_z
S1 S 0.37574(13) 0.65434(15) 0.12577(9)
O1 O 0.4282(4) 0.6638(4) 0.2315(2)
C1 C 0.4100(6) 0.5578(5) 0.0552(4)
H1 H 0.4994 0.5790 0.0897
H2 H 0.4004 0.5656 -0.0107
H3 H 0.3492 0.4753 0.0477
C2 C 0.4872(7) 0.7866(6) 0.1135(5)
H4 H 0.4805 0.8527 0.1473
H5 H 0.4674 0.7771 0.0427
H6 H 0.5757 0.8037 0.1437
S2 S 0.37035(16) 0.93707(18) 0.32905(11)
O2 O 0.3354(3) 0.8848(4) 0.2204(2)
C3 C 0.3008(7) 1.0225(6) 0.3425(5)
H7 H 0.3214 1.0591 0.4135
H8 H 0.3356 1.0851 0.3137
H9 H 0.2062 0.9718 0.3080
C4 C 0.5332(7) 1.0529(8) 0.3748(6)
H10 H 0.5623 1.0913 0.4468
H11 H 0.5869 1.0207 0.3614
H12 H 0.5419 1.1116 0.3417
S3 S 0.51330(14) 0.33577(13) 0.22761(11)
O3 O 0.5266(4) 0.3316(4) 0.1300(3)
C5 C 0.6283(6) 0.4804(5) 0.3111(4)
H13 H 0.7158 0.4935 0.3253
H14 H 0.6118 0.4906 0.3732
H15 H 0.6218 0.5380 0.2817
C6 C 0.3714(6) 0.3394(7) 0.2213(4)
H16 H 0.3792 0.4097 0.2056
H17 H 0.3608 0.3434 0.2856
H18 H 0.2955 0.2672 0.1691
O4 O 1.1867(4) 0.9344(4) 0.5045(3)
O5 O 1.1933(4) 0.9594(4) 0.6558(3)
O6 O 0.5311(3) 0.6714(4) 0.5532(3)
O7 O -0.1027(10) 0.4367(10) 0.3505(9)
O8 O -0.1412(6) 0.2871(6) 0.2263(5)
O9 O -0.1007(3) 0.6972(3) 0.0105(2)
O10 O 0.2338(4) 1.2197(4) -0.1494(3)
O11 O 0.0263(4) 1.1064(3) -0.2266(2)
N1 N 1.1328(4) 0.9221(4) 0.5649(4)
N2 N 0.5949(4) 0.7269(3) 0.4273(2)
H19 H 0.5643 0.7274 0.3671
N3 N 0.3877(6) 0.6701(6) 0.4250(4)
H20 H 0.3799 0.6992 0.3766
N4 N 0.0481(9) 0.6955(7) 0.1327(5)
H21 H 0.1303 0.7172 0.1588
N5 N 0.1167(3) 0.8324(3) 0.0567(2)
H22 H 0.1943 0.8509 0.0942
N6 N 0.1291(5) 1.1333(4) -0.1643(3)
C7 C 0.9913(4) 0.8651(4) 0.5296(3)
C8 C 0.9252(5) 0.8459(4) 0.4320(3)
H23 H 0.9699 0.8652 0.3877
C9 C 0.7934(4) 0.7984(4) 0.4008(3)
H24 H 0.7465 0.7849 0.3340
C10 C 0.7266(4) 0.7695(4) 0.4649(3)
C11 C 0.7967(5) 0.7878(4) 0.5625(3)
H25 H 0.7529 0.7672 0.6071
C12 C 0.9280(5) 0.8353(4) 0.5937(3)
H26 H 0.9754 0.8476 0.6600
C13 C 0.5045(5) 0.6834(5) 0.4716(4)
C14 C 0.2072(7) 0.4743(6) 0.4029(5)
H27 H 0.1378 0.4326 0.4280
H28 H 0.2710 0.4494 0.4194
C15 C 0.2743(6) 0.6092(6) 0.4521(5)
H29 H 0.3066 0.6283 0.5259
C16 C 0.1734(5) 0.6468(4) 0.4255(3)
H30 H 0.2164 0.7342 0.4565
H31 H 0.1044 0.6078 0.4517
C17 C 0.1477(5) 0.4411(4) 0.2886(3)
H32 H 0.2180 0.4843 0.2648
H33 H 0.1095 0.3546 0.2563
C18 C 0.0414(7) 0.4712(7) 0.2564(6)
C19 C 0.1119(7) 0.6093(6) 0.3097(5)
H34 H 0.1821 0.6510 0.2844
C20 C 0.0103(5) 0.6485(4) 0.2844(3)
H35 H 0.0529 0.7353 0.3185
H36 H -0.0609 0.6064 0.3077
C21 C -0.0463(7) 0.6171(7) 0.1683(6)
H37 H -0.1204 0.6307 0.1535
C22 C -0.1016(7) 0.4878(8) 0.1143(6)
H38 H -0.1314 0.4714 0.0415
H39 H -0.1776 0.4383 0.1303
C23 C 0.0007(5) 0.4558(5) 0.1447(3)
H40 H 0.0779 0.5075 0.1309
H41 H -0.0345 0.3721 0.1046
C24 C 0.0115(4) 0.7352(4) 0.0606(3)
C25 C 0.1134(4) 0.9036(4) 0.0005(3)
C26 C 0.0033(4) 0.8739(4) -0.0782(3)
H42 H -0.0758 0.8007 -0.0955
C27 C 0.0079(5) 0.9493(4) -0.1310(3)
H43 H -0.0677 0.9291 -0.1839
C28 C 0.1239(5) 1.0548(4) -0.1061(3)
C29 C 0.2344(4) 1.0878(4) -0.0284(3)
H44 H 0.3133 1.1610 -0.0116
C30 C 0.2274(4) 1.0126(4) 0.0237(3)
H45 H 0.3029 1.0351 0.0778
C31 C -0.3274(18) 0.1270(18) 0.1581(12)
H46 H -0.3197 0.1734 0.1133
H47 H -0.4194 0.0765 0.1478
H48 H -0.2915 0.0769 0.1438
C32 C -0.2554(16) 0.2197(17) 0.2374(10)
H49 H -0.2304 0.1681 0.2647
H50 H -0.3024 0.2388 0.2767
C33 C -0.0749(10) 0.4003(9) 0.2864(7)
S4? S 0.4124(17) 1.0187(15) 0.2959(12)
H51? H 0.2219 0.9992 0.2876
H52? H 0.2792 0.9672 0.3795
H53? H 0.3370 1.1035 0.3873
H54? H 0.5744 1.1358 0.4177
H55? H 0.5133 1.0008 0.4147
H56? H 0.5926 1.0450 0.3446
N7? N 0.3814(19) 0.6233(15) 0.3853(15)
H57? H 0.3702 0.6467 0.3359
N8? N 0.049(3) 0.664(3) 0.1032(19)
H58? H 0.1328 0.6903 0.1261
C34? C 0.264(2) 0.529(2) 0.3921(18)
H59? H 0.2921 0.4771 0.4174
C35? C 0.212(2) 0.562(2) 0.4634(15)
H60? H 0.2781 0.6043 0.5318
H61? H 0.1346 0.4917 0.4628
H62? H 0.2458 0.7069 0.4122
H63? H 0.1546 0.6890 0.4765
H64? H 0.0772 0.3720 0.2959
H65? H 0.1780 0.4126 0.2388
H66? H 0.0852 0.7082 0.2730
H67? H -0.0088 0.6917 0.3344
C36? C -0.110(2) 0.578(2) 0.1856(15)
H68? H -0.1425 0.6276 0.1647
H69? H -0.1809 0.5061 0.1896
C37? C -0.0428(19) 0.543(2) 0.1137(16)
H70? H -0.1143 0.4948 0.0467
H71? H 0.0435 0.4363 0.1014
H72? H -0.0752 0.3809 0.1397
C38? C -0.362(2) 0.137(4) 0.125(3)
H73? H -0.3209 0.1117 0.0840
H74? H -0.3928 0.1838 0.0957
H75? H -0.4352 0.0674 0.1269
O12? O -0.120(2) 0.459(3) 0.3940(17)
O13? O -0.112(3) 0.352(2) 0.265(3)
C39? C 0.104(2) 0.531(2) 0.2613(17)
H76? H 0.1810 0.6038 0.2633
C40? C 0.0458(19) 0.5665(19) 0.3245(14)
C41? C -0.248(6) 0.217(6) 0.273(4)
H77? H -0.2196 0.1827 0.3207
H78? H -0.2874 0.2600 0.2976
C42? C -0.068(4) 0.458(3) 0.334(3)
loop_
_geom_bond_atom_site_label_1
_geom_bond_atom_site_label_2
_geom_bond_site_symmetry_1
_geom_bond_site_symmetry_2
S1 O1 1_555 1_555
C1 S1 1_555 1_555
H1 C1 1_555 1_555
H2 C1 1_555 1_555
H3 C1 1_555 1_555
C2 S1 1_555 1_555
H4 C2 1_555 1_555
H5 C2 1_555 1_555
H6 C2 1_555 1_555
S2 O2 1_555 1_555
C3 S2 1_555 1_555
H7 C3 1_555 1_555
H8 C3 1_555 1_555
H9 C3 1_555 1_555
C4 S2 1_555 1_555
H10 C4 1_555 1_555
H11 C4 1_555 1_555
H12 C4 1_555 1_555
S3 O3 1_555 1_555
C5 S3 1_555 1_555
H13 C5 1_555 1_555
H14 C5 1_555 1_555
H15 C5 1_555 1_555
C6 S3 1_555 1_555
H16 C6 1_555 1_555
H17 C6 1_555 1_555
H18 C6 1_555 1_555
O4 N1 1_555 1_555
O5 N1 1_555 1_555
O6 C13 1_555 1_555
O7 C33 1_555 1_555
O8 C32 1_555 1_555
O9 C24 1_555 1_555
O10 N6 1_555 1_555
O11 N6 1_555 1_555
N1 C7 1_555 1_555
N2 H19 1_555 1_555
N3 H20 1_555 1_555
N4 H21 1_555 1_555
N5 H22 1_555 1_555
N6 C28 1_555 1_555
C7 C8 1_555 1_555
C8 H23 1_555 1_555
C9 C8 1_555 1_555
H24 C9 1_555 1_555
C10 N2 1_555 1_555
C11 C10 1_555 1_555
H25 C11 1_555 1_555
C12 C7 1_555 1_555
H26 C12 1_555 1_555
C13 N2 1_555 1_555
C14 H27 1_555 1_555
H28 C14 1_555 1_555
C15 N3 1_555 1_555
H29 C15 1_555 1_555
C16 C15 1_555 1_555
H30 C16 1_555 1_555
H31 C16 1_555 1_555
C17 C14 1_555 1_555
H32 C17 1_555 1_555
H33 C17 1_555 1_555
C18 C17 1_555 1_555
C19 C16 1_555 1_555
H34 C19 1_555 1_555
C20 C19 1_555 1_555
H35 C20 1_555 1_555
H36 C20 1_555 1_555
C21 N4 1_555 1_555
H37 C21 1_555 1_555
C22 C21 1_555 1_555
H38 C22 1_555 1_555
H39 C22 1_555 1_555
C23 C18 1_555 1_555
H40 C23 1_555 1_555
H41 C23 1_555 1_555
C24 N4 1_555 1_555
C25 N5 1_555 1_555
C26 C25 1_555 1_555
H42 C26 1_555 1_555
C27 C26 1_555 1_555
H43 C27 1_555 1_555
C28 C27 1_555 1_555
C29 C28 1_555 1_555
H44 C29 1_555 1_555
C30 C25 1_555 1_555
H45 C30 1_555 1_555
C31 H46 1_555 1_555
H47 C31 1_555 1_555
H48 C31 1_555 1_555
C32 C31 1_555 1_555
H49 C32 1_555 1_555
H50 C32 1_555 1_555
C33 O8 1_555 1_555
N3 C13 1_555 1_555
N5 C24 1_555 1_555
C9 C10 1_555 1_555
C11 C12 1_555 1_555
C14 C15 1_555 1_555
C18 C19 1_555 1_555
C18 C33 1_555 1_555
C20 C21 1_555 1_555
C22 C23 1_555 1_555
C29 C30 1_555 1_555

#END
