
#######################################################################
#
#                 Cambridge Crystallographic Data Centre
#                                CCDC 
#
#######################################################################
#
# If this CIF has been generated from an entry in the Cambridge 
# Structural Database, then it will include bibliographic, chemical, 
# crystal, experimental, refinement or atomic coordinate data resulting 
# from the CCDC's data processing and validation procedures.
#
#######################################################################

data_FIHZOO
_chemical_formula_moiety         'C24 H17 N3 S2'
_chemical_name_systematic        
2-(1,3-benzothiazol-2-yl)-3-(10-ethyl-10H-phenothiazin-3-yl)prop-2-enenitrile
_symmetry_cell_setting           monoclinic
_symmetry_space_group_name_H-M   'P 21/n'
_symmetry_Int_Tables_number      14
_space_group_name_Hall           '-P 2yn'
loop_
_symmetry_equiv_pos_site_id
_symmetry_equiv_pos_as_xyz
1 x,y,z
2 1/2-x,1/2+y,1/2-z
3 -x,-y,-z
4 1/2+x,1/2-y,1/2+z
_cell_length_a                   4.269(5)
_cell_length_b                   29.906(5)
_cell_length_c                   14.752(5)
_cell_angle_alpha                90
_cell_angle_beta                 92.620(5)
_cell_angle_gamma                90
_cell_volume                     1881.4
_exptl_crystal_colour            red
_cell_formula_units_Z            4
loop_
_atom_site_label
_atom_site_type_symbol
_atom_site_fract_x
_atom_site_fract_y
_atom_site_fract_z
S1 S 0.22227(19) 0.97437(3) 0.41456(5)
S2 S 1.2092(2) 0.74665(3) 0.54556(5)
C1 C 0.9238(7) 0.83116(11) 0.3454(2)
C2 C 1.2501(8) 0.59892(11) 0.4820(2)
H1 H 1.2756 0.5685 0.4716
N1 N 0.3086(6) 0.93727(9) 0.25839(17)
C3 C 0.9603(7) 0.80844(11) 0.4291(2)
H2 H 0.8672 0.8199 0.4799
C4 C 0.7396(8) 0.87056(11) 0.3281(2)
H3 H 0.7316 0.8796 0.2677
C5 C 1.3231(7) 0.67576(11) 0.43311(19)
C6 C 1.1314(8) 0.76963(11) 0.43647(19)
C7 C 1.0881(8) 0.65849(12) 0.5761(2)
H4 H 0.9936 0.6683 0.6280
C8 C 1.0744(8) 0.81204(11) 0.2719(2)
H5 H 1.0630 0.8269 0.2164
C9 C 0.5743(7) 0.89726(11) 0.3832(2)
C10 C 0.1198(7) 0.97398(11) 0.2421(2)
C11 C 0.3799(7) 0.93349(11) 0.3450(2)
C12 C 1.3481(7) 0.62981(11) 0.41866(19)
H6 H 1.4321 0.6196 0.3654
N2 N 0.5488(9) 0.88896(12) 0.5568(2)
C13 C 1.2638(7) 0.74882(11) 0.3612(2)
C14 C 1.1987(7) 0.68974(11) 0.5157(2)
C15 C 0.0441(8) 0.99909(11) 0.3191(2)
C16 C -0.2638(8) 1.04899(12) 0.2278(3)
H7 H -0.3924 1.0740 0.2217
C17 C 1.5938(7) 0.69162(11) 0.29225(19)
H8 H 1.7478 0.6703 0.3159
H9 H 1.7077 0.7167 0.2683
C18 C 1.1150(8) 0.61318(12) 0.5606(2)
H10 H 1.0438 0.5926 0.6022
C19 C -0.0012(8) 0.98739(12) 0.1564(2)
H11 H 0.0470 0.9716 0.1045
C20 C -0.1463(8) 1.03668(12) 0.3128(2)
H12 H -0.1929 1.0530 0.3641
C21 C 0.5671(8) 0.89164(12) 0.4794(2)
C22 C 1.4062(8) 0.66958(11) 0.2136(2)
H13 H 1.2927 0.6444 0.2358
H14 H 1.5470 0.6596 0.1688
H15 H 1.2613 0.6908 0.1867
C23 C -0.1929(8) 1.02441(12) 0.1505(2)
H16 H -0.2769 1.0333 0.0940
N3 N 1.4132(6) 0.70781(9) 0.36858(16)
C24 C 1.2375(7) 0.77252(11) 0.2782(2)
H17 H 1.3318 0.7612 0.2275
loop_
_geom_bond_atom_site_label_1
_geom_bond_atom_site_label_2
_geom_bond_site_symmetry_1
_geom_bond_site_symmetry_2
S1 C11 1_555 1_555
S2 C6 1_555 1_555
C1 C3 1_555 1_555
C2 H1 1_555 1_555
N1 C10 1_555 1_555
C3 H2 1_555 1_555
C4 C1 1_555 1_555
H3 C4 1_555 1_555
C5 C12 1_555 1_555
C6 C3 1_555 1_555
C7 H4 1_555 1_555
C8 C1 1_555 1_555
H5 C8 1_555 1_555
C9 C4 1_555 1_555
C10 C15 1_555 1_555
C11 N1 1_555 1_555
C12 C2 1_555 1_555
H6 C12 1_555 1_555
N2 C21 1_555 1_555
C13 C6 1_555 1_555
C14 S2 1_555 1_555
C15 S1 1_555 1_555
C16 H7 1_555 1_555
C17 H8 1_555 1_555
H9 C17 1_555 1_555
C18 C2 1_555 1_555
H10 C18 1_555 1_555
C19 C10 1_555 1_555
H11 C19 1_555 1_555
C20 C15 1_555 1_555
H12 C20 1_555 1_555
C21 C9 1_555 1_555
C22 C17 1_555 1_555
H13 C22 1_555 1_555
H14 C22 1_555 1_555
H15 C22 1_555 1_555
C23 C16 1_555 1_555
H16 C23 1_555 1_555
N3 C5 1_555 1_555
C24 C8 1_555 1_555
H17 C24 1_555 1_555
C5 C14 1_555 1_555
C7 C14 1_555 1_555
C7 C18 1_555 1_555
C9 C11 1_555 1_555
C13 N3 1_555 1_555
C13 C24 1_555 1_555
C16 C20 1_555 1_555
C17 N3 1_555 1_555
C19 C23 1_555 1_555

#END
