
#######################################################################
#
#                 Cambridge Crystallographic Data Centre
#                                CCDC 
#
#######################################################################
#
# If this CIF has been generated from an entry in the Cambridge 
# Structural Database, then it will include bibliographic, chemical, 
# crystal, experimental, refinement or atomic coordinate data resulting 
# from the CCDC's data processing and validation procedures.
#
#######################################################################

data_FIJMIW
_chemical_formula_moiety         'C52 H78 O5 Sr1'
_chemical_name_systematic        
bis(\h^5^-1-(((1-Adamantyl)carbonyl)oxy)-2,3,4,5-tetraethylcyclopentadienyl-O)-tetrahydrofuran-strontium(ii)
_symmetry_cell_setting           monoclinic
_symmetry_space_group_name_H-M   'P 21/c'
_symmetry_Int_Tables_number      14
_space_group_name_Hall           '-P 2ybc'
loop_
_symmetry_equiv_pos_site_id
_symmetry_equiv_pos_as_xyz
1 x,y,z
2 -x,1/2+y,1/2-z
3 -x,-y,-z
4 x,1/2-y,1/2+z
_cell_length_a                   10.7420(19)
_cell_length_b                   18.575(3)
_cell_length_c                   24.851(4)
_cell_angle_alpha                90
_cell_angle_beta                 104.740(2)
_cell_angle_gamma                90
_cell_volume                     4795.4
_exptl_crystal_colour            colorless
_exptl_crystal_description       block
_cell_formula_units_Z            4
loop_
_atom_site_label
_atom_site_type_symbol
_atom_site_fract_x
_atom_site_fract_y
_atom_site_fract_z
Sr1 Sr 0.52488(3) 0.259021(16) 0.375471(13)
O1 O 0.6666(3) 0.37391(12) 0.38557(11)
O2 O 0.5124(2) 0.45295(12) 0.34536(10)
O3 O 0.3893(3) 0.14364(13) 0.35596(10)
O4 O 0.4648(2) 0.08844(13) 0.43813(10)
O5 O 0.6229(3) 0.21074(15) 0.29841(11)
C1 C 0.4201(3) 0.39623(17) 0.33619(14)
C2 C 0.3517(3) 0.37788(18) 0.37471(14)
C3 C 0.2683(3) 0.32016(18) 0.34966(15)
C4 C 0.2912(3) 0.30515(18) 0.29714(14)
C5 C 0.3874(4) 0.35333(18) 0.28839(14)
C6 C 0.6327(4) 0.43572(18) 0.37277(14)
C7 C 0.7197(3) 0.50081(17) 0.38541(13)
C8 C 0.7281(4) 0.53487(18) 0.33005(14)
H1 H 0.7621 0.4991 0.3079
H2 H 0.6411 0.5494 0.3084
C9 C 0.8165(4) 0.60061(19) 0.34106(15)
H3 H 0.8219 0.6223 0.3049
C10 C 0.7621(4) 0.65609(18) 0.37470(16)
H4 H 0.8187 0.6989 0.3819
H5 H 0.6755 0.6716 0.3532
C11 C 0.7533(4) 0.62299(18) 0.42964(16)
H6 H 0.7175 0.6594 0.4513
C12 C 0.8874(4) 0.6003(2) 0.46314(16)
H7 H 0.9447 0.6429 0.4709
H8 H 0.8823 0.5794 0.4992
C13 C 0.9423(4) 0.54476(19) 0.43007(16)
H9 H 1.0302 0.5300 0.4518
C14 C 0.8541(3) 0.47872(18) 0.41877(15)
H10 H 0.8900 0.4424 0.3977
H11 H 0.8491 0.4568 0.4545
C15 C 0.9503(4) 0.5777(2) 0.37427(16)
H12 H 1.0083 0.6200 0.3811
H13 H 0.9861 0.5419 0.3528
C16 C 0.6642(4) 0.55723(18) 0.41829(15)
H14 H 0.5773 0.5719 0.3966
H15 H 0.6566 0.5363 0.4539
C17 C 0.3572(4) 0.41674(19) 0.42815(15)
H16 H 0.4480 0.4200 0.4500
H17 H 0.3094 0.3886 0.4502
C18 C 0.3001(4) 0.49294(19) 0.41885(17)
H18 H 0.3465 0.5210 0.3968
H19 H 0.3085 0.5165 0.4549
H20 H 0.2089 0.4900 0.3990
C19 C 0.1629(4) 0.2890(2) 0.37209(17)
H21 H 0.1963 0.2802 0.4125
H22 H 0.1363 0.2421 0.3539
C20 C 0.0465(4) 0.3381(2) 0.36268(19)
H23 H 0.0131 0.3470 0.3227
H24 H 0.0716 0.3839 0.3820
H25 H -0.0203 0.3151 0.3772
C21 C 0.2217(4) 0.24990(18) 0.25610(16)
H26 H 0.2049 0.2071 0.2769
H27 H 0.2789 0.2347 0.2326
C22 C 0.0953(4) 0.2755(2) 0.21855(18)
H28 H 0.0553 0.2361 0.1939
H29 H 0.1113 0.3162 0.1961
H30 H 0.0377 0.2906 0.2413
C23 C 0.4374(4) 0.3614(2) 0.23723(15)
H31 H 0.4322 0.3141 0.2183
H32 H 0.5293 0.3754 0.2488
C24 C 0.3649(5) 0.4163(3) 0.1963(2)
H33 H 0.4022 0.4190 0.1642
H34 H 0.3711 0.4636 0.2144
H35 H 0.2742 0.4022 0.1837
C25 C 0.5587(3) 0.14403(17) 0.45396(14)
C26 C 0.5416(4) 0.20484(19) 0.48478(14)
C27 C 0.6563(4) 0.24576(17) 0.49076(14)
C28 C 0.7391(4) 0.20903(18) 0.46373(14)
C29 C 0.6769(3) 0.14476(18) 0.44003(14)
C30 C 0.3843(4) 0.09377(18) 0.38742(14)
C31 C 0.2876(3) 0.03340(18) 0.37265(14)
C32 C 0.3125(4) -0.0273(2) 0.41609(16)
H36 H 0.3085 -0.0079 0.4527
H37 H 0.3995 -0.0476 0.4199
C33 C 0.2105(4) -0.0867(2) 0.39777(17)
H38 H 0.2266 -0.1263 0.4260
C34 C 0.0773(4) -0.0548(2) 0.39265(18)
H39 H 0.0723 -0.0351 0.4291
H40 H 0.0113 -0.0929 0.3818
C35 C 0.1912(5) -0.0568(2) 0.29784(17)
H41 H 0.1956 -0.0770 0.2611
C36 C 0.0591(5) -0.0241(2) 0.29291(18)
H42 H -0.0080 -0.0612 0.2801
H43 H 0.0439 0.0152 0.2651
C37 C 0.0507(4) 0.0053(2) 0.34893(19)
H44 H -0.0370 0.0258 0.3457
C38 C 0.1530(4) 0.0646(2) 0.36777(18)
H45 H 0.1365 0.1045 0.3404
H46 H 0.1478 0.0841 0.4042
C39 C 0.2935(4) 0.0031(2) 0.31575(16)
H47 H 0.3803 -0.0168 0.3182
H48 H 0.2772 0.0421 0.2877
C40 C 0.2188(5) -0.1163(2) 0.34177(18)
H49 H 0.1557 -0.1557 0.3303
H50 H 0.3059 -0.1362 0.3450
C41 C 0.4257(4) 0.2219(2) 0.50595(17)
H51 H 0.3474 0.2118 0.4759
H52 H 0.4263 0.2741 0.5142
C42 C 0.4166(5) 0.1808(3) 0.55743(19)
H53 H 0.4165 0.1290 0.5500
H54 H 0.3369 0.1940 0.5673
H55 H 0.4906 0.1928 0.5883
C43 C 0.6881(4) 0.31398(19) 0.52453(15)
H56 H 0.6098 0.3442 0.5178
H57 H 0.7538 0.3411 0.5112
C44 C 0.7379(5) 0.3020(2) 0.58676(16)
H58 H 0.8192 0.2752 0.5942
H59 H 0.6745 0.2743 0.6004
H60 H 0.7522 0.3486 0.6058
C45 C 0.8723(4) 0.2316(2) 0.46114(17)
H61 H 0.8774 0.2848 0.4629
H62 H 0.8855 0.2167 0.4247
C46 C 0.9811(4) 0.2008(3) 0.5071(2)
H63 H 1.0638 0.2184 0.5025
H64 H 0.9792 0.1481 0.5049
H65 H 0.9704 0.2160 0.5434
C47 C 0.7246(4) 0.08816(19) 0.40662(15)
H66 H 0.7931 0.1095 0.3915
H67 H 0.6528 0.0743 0.3746
C48 C 0.7771(5) 0.0206(2) 0.43907(18)
H68 H 0.8083 -0.0127 0.4148
H69 H 0.7086 -0.0027 0.4524
H70 H 0.8482 0.0335 0.4709
C49 C 0.7414(5) 0.2331(3) 0.2866(2)
H71 H 0.8135 0.2279 0.3203
H72 H 0.7356 0.2843 0.2751
C50 C 0.7826(18) 0.1683(8) 0.2592(7)
H73 H 0.8193 0.1302 0.2865
H74 H 0.8449 0.1810 0.2375
C51 C 0.6398(13) 0.1450(10) 0.2184(6)
H75 H 0.6109 0.1778 0.1862
H76 H 0.6382 0.0946 0.2053
C52 C 0.5670(5) 0.1547(3) 0.25996(18)
H77 H 0.5046 0.1745 0.2269
H78 H 0.5233 0.1183 0.2778
C53? C 0.7643(19) 0.1873(9) 0.2412(6)
H79? H 0.8565 0.1748 0.2478
H80? H 0.7351 0.2115 0.2047
C54? C 0.6850(15) 0.1225(6) 0.2444(7)
H81? H 0.7316 0.0886 0.2732
H82? H 0.6598 0.0973 0.2081
loop_
_geom_bond_atom_site_label_1
_geom_bond_atom_site_label_2
_geom_bond_site_symmetry_1
_geom_bond_site_symmetry_2
Sr1 O1 1_555 1_555
O1 C6 1_555 1_555
O2 C1 1_555 1_555
O3 Sr1 1_555 1_555
O4 C25 1_555 1_555
O5 Sr1 1_555 1_555
C1 Sr1 1_555 1_555
C2 Sr1 1_555 1_555
C3 Sr1 1_555 1_555
C4 Sr1 1_555 1_555
C5 Sr1 1_555 1_555
C6 O2 1_555 1_555
C7 C6 1_555 1_555
C8 C7 1_555 1_555
H1 C8 1_555 1_555
H2 C8 1_555 1_555
C9 C8 1_555 1_555
H3 C9 1_555 1_555
C10 C9 1_555 1_555
H4 C10 1_555 1_555
H5 C10 1_555 1_555
C11 C10 1_555 1_555
H6 C11 1_555 1_555
C12 C11 1_555 1_555
H7 C12 1_555 1_555
H8 C12 1_555 1_555
C13 C12 1_555 1_555
H9 C13 1_555 1_555
C14 C7 1_555 1_555
H10 C14 1_555 1_555
H11 C14 1_555 1_555
C15 C9 1_555 1_555
H12 C15 1_555 1_555
H13 C15 1_555 1_555
C16 C7 1_555 1_555
H14 C16 1_555 1_555
H15 C16 1_555 1_555
C17 C2 1_555 1_555
H16 C17 1_555 1_555
H17 C17 1_555 1_555
C18 C17 1_555 1_555
H18 C18 1_555 1_555
H19 C18 1_555 1_555
H20 C18 1_555 1_555
C19 C3 1_555 1_555
H21 C19 1_555 1_555
H22 C19 1_555 1_555
C20 C19 1_555 1_555
H23 C20 1_555 1_555
H24 C20 1_555 1_555
H25 C20 1_555 1_555
C21 C4 1_555 1_555
H26 C21 1_555 1_555
H27 C21 1_555 1_555
C22 C21 1_555 1_555
H28 C22 1_555 1_555
H29 C22 1_555 1_555
H30 C22 1_555 1_555
C23 C5 1_555 1_555
H31 C23 1_555 1_555
H32 C23 1_555 1_555
C24 C23 1_555 1_555
H33 C24 1_555 1_555
H34 C24 1_555 1_555
H35 C24 1_555 1_555
C25 Sr1 1_555 1_555
C26 Sr1 1_555 1_555
C27 Sr1 1_555 1_555
C28 Sr1 1_555 1_555
C29 Sr1 1_555 1_555
C30 O3 1_555 1_555
C31 C30 1_555 1_555
C32 C31 1_555 1_555
H36 C32 1_555 1_555
H37 C32 1_555 1_555
C33 C32 1_555 1_555
H38 C33 1_555 1_555
C34 C33 1_555 1_555
H39 C34 1_555 1_555
H40 C34 1_555 1_555
C35 H41 1_555 1_555
C36 C35 1_555 1_555
H42 C36 1_555 1_555
H43 C36 1_555 1_555
C37 C34 1_555 1_555
H44 C37 1_555 1_555
C38 C31 1_555 1_555
H45 C38 1_555 1_555
H46 C38 1_555 1_555
C39 C31 1_555 1_555
H47 C39 1_555 1_555
H48 C39 1_555 1_555
C40 C33 1_555 1_555
H49 C40 1_555 1_555
H50 C40 1_555 1_555
C41 C26 1_555 1_555
H51 C41 1_555 1_555
H52 C41 1_555 1_555
C42 C41 1_555 1_555
H53 C42 1_555 1_555
H54 C42 1_555 1_555
H55 C42 1_555 1_555
C43 C27 1_555 1_555
H56 C43 1_555 1_555
H57 C43 1_555 1_555
C44 C43 1_555 1_555
H58 C44 1_555 1_555
H59 C44 1_555 1_555
H60 C44 1_555 1_555
C45 C28 1_555 1_555
H61 C45 1_555 1_555
H62 C45 1_555 1_555
C46 C45 1_555 1_555
H63 C46 1_555 1_555
H64 C46 1_555 1_555
H65 C46 1_555 1_555
C47 C29 1_555 1_555
H66 C47 1_555 1_555
H67 C47 1_555 1_555
C48 C47 1_555 1_555
H68 C48 1_555 1_555
H69 C48 1_555 1_555
H70 C48 1_555 1_555
C49 O5 1_555 1_555
H71 C49 1_555 1_555
H72 C49 1_555 1_555
C50 C49 1_555 1_555
H73 C50 1_555 1_555
H74 C50 1_555 1_555
C51 C50 1_555 1_555
H75 C51 1_555 1_555
H76 C51 1_555 1_555
C52 O5 1_555 1_555
H77 C52 1_555 1_555
H78 C52 1_555 1_555
O4 C30 1_555 1_555
C1 C2 1_555 1_555
C1 C5 1_555 1_555
C2 C3 1_555 1_555
C3 C4 1_555 1_555
C4 C5 1_555 1_555
C11 C16 1_555 1_555
C13 C14 1_555 1_555
C13 C15 1_555 1_555
C25 C26 1_555 1_555
C25 C29 1_555 1_555
C26 C27 1_555 1_555
C27 C28 1_555 1_555
C28 C29 1_555 1_555
C35 C39 1_555 1_555
C35 C40 1_555 1_555
C36 C37 1_555 1_555
C37 C38 1_555 1_555
C51 C52 1_555 1_555

#END
