
#######################################################################
#
#                 Cambridge Crystallographic Data Centre
#                                CCDC 
#
#######################################################################
#
# If this CIF has been generated from an entry in the Cambridge 
# Structural Database, then it will include bibliographic, chemical, 
# crystal, experimental, refinement or atomic coordinate data resulting 
# from the CCDC's data processing and validation procedures.
#
#######################################################################

data_FIJMES
_chemical_formula_moiety         'C52 H80 Ba1 O5'
_chemical_name_systematic        
'bis(\h^5^-1-(((1-Adamantyl)carbonyl)oxy)-2,3,4,5-tetraethylcyclopentadienyl-O)-(diethyl ether)-barium(ii)'
_symmetry_cell_setting           monoclinic
_symmetry_space_group_name_H-M   'P 21/n'
_symmetry_Int_Tables_number      14
_space_group_name_Hall           '-P 2yn'
loop_
_symmetry_equiv_pos_site_id
_symmetry_equiv_pos_as_xyz
1 x,y,z
2 1/2-x,1/2+y,1/2-z
3 -x,-y,-z
4 1/2+x,1/2-y,1/2+z
_cell_length_a                   13.978(2)
_cell_length_b                   33.104(6)
_cell_length_c                   21.271(4)
_cell_angle_alpha                90
_cell_angle_beta                 97.686(2)
_cell_angle_gamma                90
_cell_volume                     9754.25
_cell_formula_units_Z            8
loop_
_atom_site_label
_atom_site_type_symbol
_atom_site_fract_x
_atom_site_fract_y
_atom_site_fract_z
Ba1 Ba 0.78837(2) 0.207118(12) 0.774219(16)
O1 O 0.5957(3) 0.20492(15) 0.7279(2)
O2 O 0.6024(3) 0.22854(13) 0.62990(19)
O3 O 0.9744(3) 0.23254(13) 0.91637(19)
O4 O 0.9815(3) 0.20513(16) 0.8209(2)
O5 O 0.7590(4) 0.12375(16) 0.7813(3)
C1 C 0.7056(4) 0.2310(2) 0.6422(3)
C2 C 0.7656(4) 0.1992(2) 0.6305(3)
C3 C 0.8616(4) 0.2145(2) 0.6461(3)
C4 C 0.8564(4) 0.2546(2) 0.6672(3)
C5 C 0.7575(5) 0.2652(2) 0.6650(3)
C6 C 0.7331(5) 0.1583(2) 0.6052(3)
H1 H 0.6874 0.1468 0.6321
H2 H 0.7898 0.1401 0.6079
C7 C 0.6839(5) 0.1597(2) 0.5358(3)
H3 H 0.6649 0.1323 0.5217
H4 H 0.7290 0.1707 0.5087
H5 H 0.6264 0.1769 0.5330
C8 C 0.9528(5) 0.1914(3) 0.6370(4)
H6 H 0.9440 0.1626 0.6473
H7 H 1.0072 0.2020 0.6670
C9 C 0.9783(5) 0.1945(2) 0.5696(3)
H8 H 1.0377 0.1794 0.5666
H9 H 0.9880 0.2230 0.5593
H10 H 0.9256 0.1833 0.5397
C10 C 0.9402(5) 0.2831(3) 0.6855(3)
H11 H 0.9962 0.2673 0.7057
H12 H 0.9222 0.3025 0.7173
C11 C 0.9702(6) 0.3066(2) 0.6299(3)
H13 H 1.0241 0.3245 0.6451
H14 H 0.9155 0.3227 0.6100
H15 H 0.9903 0.2877 0.5987
C12 C 0.7171(6) 0.3054(2) 0.6838(3)
H16 H 0.7031 0.3030 0.7280
H17 H 0.7682 0.3260 0.6834
C13 C 0.6283(5) 0.3206(3) 0.6441(5)
H18 H 0.6092 0.3465 0.6611
H19 H 0.5759 0.3010 0.6448
H20 H 0.6413 0.3243 0.6003
C14 C 0.5544(4) 0.21396(17) 0.6761(3)
C15 C 0.4496(4) 0.21018(19) 0.6535(3)
C16 C 0.3068(7) 0.1588(2) 0.6353(4)
H21 H 0.2879 0.1304 0.6363
C17 C 0.2665(6) 0.1822(3) 0.6851(4)
H22 H 0.2994 0.1737 0.7255
H23 H 0.1993 0.1759 0.6843
C18 C 0.2766(6) 0.2261(3) 0.6802(4)
H24 H 0.2395 0.2408 0.7089
C19 C 0.2606(7) 0.2430(3) 0.6163(4)
H25 H 0.2886 0.2695 0.6176
H26 H 0.1923 0.2460 0.6042
C20 C 0.3017(6) 0.2201(3) 0.5652(4)
H27 H 0.2802 0.2307 0.5227
C21 C 0.2899(6) 0.1758(3) 0.5705(4)
H28 H 0.2259 0.1688 0.5515
H29 H 0.3346 0.1630 0.5462
C22 C 0.4236(6) 0.1648(3) 0.6549(4)
H30 H 0.4434 0.1539 0.6980
H31 H 0.4587 0.1498 0.6249
C23 C 0.3933(6) 0.2316(3) 0.7004(4)
H32 H 0.4099 0.2601 0.7014
H33 H 0.4114 0.2207 0.7426
C24 C 0.4142(6) 0.2255(3) 0.5879(4)
H34 H 0.4489 0.2115 0.5579
H35 H 0.4294 0.2540 0.5859
C25 C 0.8721(4) 0.2350(2) 0.9043(3)
C26 C 0.8110(4) 0.20388(19) 0.9178(3)
C27 C 0.7152(4) 0.2192(2) 0.9016(3)
C28 C 0.7214(4) 0.2588(2) 0.8779(3)
C29 C 0.8214(4) 0.2691(2) 0.8792(3)
C30 C 0.8419(5) 0.1630(2) 0.9450(3)
H36 H 0.8895 0.1511 0.9197
H37 H 0.7850 0.1449 0.9412
C31 C 0.8868(5) 0.1650(2) 1.0148(3)
H38 H 0.9060 0.1378 1.0298
H39 H 0.8393 0.1759 1.0403
H40 H 0.9436 0.1826 1.0188
C32 C 0.6253(4) 0.1973(2) 0.9134(3)
H41 H 0.6328 0.1683 0.9036
H42 H 0.5703 0.2078 0.8837
C33 C 0.6014(5) 0.2012(2) 0.9810(3)
H43 H 0.5426 0.1859 0.9851
H44 H 0.5914 0.2297 0.9906
H45 H 0.6550 0.1904 1.0107
C34 C 0.6381(5) 0.2873(2) 0.8598(3)
H46 H 0.5818 0.2716 0.8398
H47 H 0.6560 0.3067 0.8279
C35 C 0.6094(6) 0.3106(2) 0.9153(4)
H48 H 0.5550 0.3284 0.9007
H49 H 0.6642 0.3268 0.9347
H50 H 0.5904 0.2916 0.9468
C36 C 0.8659(5) 0.3074(2) 0.8590(3)
H51 H 0.8139 0.3251 0.8383
H52 H 0.9088 0.3008 0.8270
C37 C 0.9238(5) 0.3308(2) 0.9126(3)
H53 H 0.9497 0.3554 0.8957
H54 H 0.9771 0.3139 0.9324
H55 H 0.8819 0.3380 0.9443
C38 C 1.0219(4) 0.21629(18) 0.8718(3)
C39 C 1.1277(4) 0.2142(2) 0.8936(3)
C40 C 1.2933(6) 0.1882(3) 0.8687(4)
H56 H 1.3273 0.1730 0.8390
C41 C 1.3027(7) 0.1683(3) 0.9315(4)
H57 H 1.3692 0.1622 0.9454
H58 H 1.2682 0.1432 0.9262
C42 C 1.2621(5) 0.1926(3) 0.9819(4)
H59 H 1.2767 0.1798 1.0236
C43 C 1.2949(6) 0.2355(3) 0.9839(4)
H60 H 1.3611 0.2367 1.0030
H61 H 1.2572 0.2504 1.0105
C44 C 1.2841(6) 0.2551(3) 0.9201(4)
H62 H 1.3121 0.2830 0.9231
C45 C 1.3245(6) 0.2312(3) 0.8709(4)
H63 H 1.3035 0.2435 0.8306
H64 H 1.3937 0.2325 0.8780
C46 C 1.1785(5) 0.1893(3) 0.8456(4)
H65 H 1.1658 0.2018 0.8030
H66 H 1.1526 0.1614 0.8427
C47 C 1.1701(6) 0.2567(2) 0.8978(4)
H67 H 1.1386 0.2729 0.9283
H68 H 1.1574 0.2700 0.8558
C48 C 1.1499(6) 0.1943(3) 0.9603(4)
H69 H 1.1232 0.1665 0.9588
H70 H 1.1186 0.2100 0.9914
C49 C 0.8250(7) 0.0914(3) 0.7779(5)
H71 H 0.7935 0.0696 0.7506
H72 H 0.8445 0.0801 0.8208
C50 C 0.9115(6) 0.1063(3) 0.7513(4)
H73 H 0.9575 0.0841 0.7499
H74 H 0.9419 0.1280 0.7782
H75 H 0.8921 0.1166 0.7083
C51 C 0.6665(6) 0.1111(3) 0.7989(4)
H76 H 0.6320 0.1351 0.8119
H77 H 0.6783 0.0928 0.8360
C52 C 0.6038(6) 0.0901(3) 0.7474(4)
H78 H 0.5429 0.0826 0.7624
H79 H 0.6365 0.0657 0.7351
H80 H 0.5907 0.1081 0.7107
Ba2 Ba 0.24976(3) 0.457286(12) 0.749770(17)
O6 O 0.0656(3) 0.48114(13) 0.60516(19)
O7 O 0.0558(3) 0.45440(16) 0.7012(2)
O8 O 0.4448(3) 0.45597(16) 0.7947(2)
O9 O 0.4372(3) 0.47989(13) 0.89300(19)
O10 O 0.2764(4) 0.37372(16) 0.7446(3)
C53 C 0.1677(4) 0.48410(19) 0.6194(3)
C54 C 0.2189(4) 0.5185(2) 0.6428(3)
C55 C 0.3182(5) 0.5077(2) 0.6452(3)
C56 C 0.3242(4) 0.4678(2) 0.6228(3)
C57 C 0.2296(4) 0.4522(2) 0.6066(3)
C58 C 0.1786(6) 0.5581(2) 0.6634(4)
H81 H 0.1624 0.5546 0.7070
H82 H 0.2304 0.5787 0.6655
C59 C 0.0920(6) 0.5745(2) 0.6233(4)
H83 H 0.0723 0.5998 0.6417
H84 H 0.0392 0.5549 0.6214
H85 H 0.1075 0.5796 0.5804
C60 C 0.4016(5) 0.5363(2) 0.6637(3)
H86 H 0.4589 0.5203 0.6813
H87 H 0.3851 0.5544 0.6976
C61 C 0.4280(7) 0.5621(3) 0.6086(4)
H88 H 0.4830 0.5795 0.6238
H89 H 0.3726 0.5789 0.5919
H90 H 0.4452 0.5445 0.5749
C62 C 0.4140(5) 0.4456(3) 0.6109(3)
H91 H 0.4052 0.4166 0.6192
H92 H 0.4686 0.4553 0.6417
C63 C 0.4413(5) 0.4503(2) 0.5445(3)
H93 H 0.4997 0.4345 0.5409
H94 H 0.4534 0.4788 0.5363
H95 H 0.3883 0.4405 0.5134
C64 C 0.1970(5) 0.4124(2) 0.5785(3)
H96 H 0.1481 0.4010 0.6031
H97 H 0.2528 0.3937 0.5831
C65 C 0.1543(5) 0.4140(2) 0.5089(3)
H98 H 0.1354 0.3867 0.4942
H99 H 0.2024 0.4247 0.4838
H100 H 0.0974 0.4316 0.5039
C66 C 0.0187(5) 0.4645(2) 0.6482(3)
C67 C -0.0898(4) 0.4598(2) 0.6265(3)
C68 C -0.1030(7) 0.4395(4) 0.5612(5)
H101 H -0.0705 0.4129 0.5635
H102 H -0.0748 0.4565 0.5300
C69 C -0.1361(8) 0.4331(4) 0.6741(6)
H103 H -0.1245 0.4453 0.7170
H104 H -0.1063 0.4059 0.6762
C70 C -0.1345(7) 0.5010(3) 0.6218(5)
H105 H -0.1042 0.5177 0.5913
H106 H -0.1241 0.5145 0.6637
C71 C -0.2583(8) 0.4961(3) 0.5963(4)
H107 H -0.2935 0.5218 0.5921
C72 C -0.2490(6) 0.4764(3) 0.5369(4)
H108 H -0.2007 0.4905 0.5172
H109 H -0.3092 0.4796 0.5098
C73 C -0.2257(7) 0.4337(3) 0.5387(4)
H110 H -0.2421 0.4204 0.4975
C74 C -0.2459(8) 0.4098(3) 0.5907(5)
H111 H -0.1951 0.3902 0.5985
H112 H -0.3046 0.3953 0.5773
C75 C -0.2553(7) 0.4292(3) 0.6506(4)
H113 H -0.2911 0.4133 0.6785
C76 C -0.2776(7) 0.4722(3) 0.6489(4)
H114 H -0.3446 0.4751 0.6533
H115 H -0.2414 0.4837 0.6861
C77 C 0.3348(4) 0.48222(18) 0.8808(3)
C78 C 0.2734(4) 0.45062(19) 0.8933(3)
C79 C 0.1773(4) 0.4659(2) 0.8777(3)
C80 C 0.1843(4) 0.5060(2) 0.8560(3)
C81 C 0.2837(4) 0.51656(19) 0.8571(3)
C82 C 0.3052(5) 0.4102(2) 0.9198(3)
H116 H 0.3488 0.3979 0.8921
H117 H 0.2479 0.3926 0.9188
C83 C 0.3577(5) 0.4117(2) 0.9881(3)
H118 H 0.3759 0.3843 1.0023
H119 H 0.3147 0.4234 1.0161
H120 H 0.4158 0.4284 0.9894
C84 C 0.0881(5) 0.4438(3) 0.8885(3)
H121 H 0.0953 0.4151 0.8768
H122 H 0.0330 0.4550 0.8596
C85 C 0.0635(5) 0.4456(2) 0.9563(3)
H123 H 0.0039 0.4305 0.9588
H124 H 0.0547 0.4738 0.9682
H125 H 0.1163 0.4336 0.9853
C86 C 0.1006(5) 0.5345(2) 0.8379(3)
H126 H 0.0464 0.5191 0.8145
H127 H 0.1204 0.5553 0.8088
C87 C 0.0653(5) 0.5553(2) 0.8942(3)
H128 H 0.0115 0.5734 0.8792
H129 H 0.1182 0.5711 0.9172
H130 H 0.0436 0.5350 0.9227
C88 C 0.3284(5) 0.5552(2) 0.8392(3)
H131 H 0.2766 0.5728 0.8179
H132 H 0.3728 0.5490 0.8079
C89 C 0.3838(6) 0.5787(2) 0.8934(4)
H133 H 0.4100 0.6034 0.8769
H134 H 0.4368 0.5620 0.9141
H135 H 0.3403 0.5858 0.9242
C90 C 0.4843(5) 0.4662(2) 0.8476(3)
C91 C 0.5945(4) 0.4645(2) 0.8668(3)
C92 C 0.6283(9) 0.5059(4) 0.8767(8)
H136 H 0.5976 0.5189 0.9109
H137 H 0.6126 0.5219 0.8373
C93 C 0.6132(9) 0.4388(4) 0.9242(7)
H138 H 0.5849 0.4116 0.9153
H139 H 0.5830 0.4509 0.9593
C94 C 0.6398(10) 0.4439(5) 0.8112(7)
H140 H 0.6270 0.4604 0.7721
H141 H 0.6114 0.4167 0.8024
C95 C 0.7531(10) 0.4169(3) 0.8886(5)
H142 H 0.8050 0.3978 0.8945
H143 H 0.6947 0.4018 0.8771
C96 C 0.7651(7) 0.4400(4) 0.8353(5)
H144 H 0.8026 0.4271 0.8050
C97 C 0.7707(8) 0.4832(4) 0.8395(4)
H145 H 0.7208 0.4938 0.8084
H146 H 0.8314 0.4910 0.8267
C98 C 0.7630(10) 0.5028(4) 0.8997(5)
H147 H 0.7975 0.5284 0.9077
C99 C 0.7494(7) 0.4784(3) 0.9535(4)
H148 H 0.6911 0.4872 0.9685
H149 H 0.8017 0.4847 0.9861
C100 C 0.7428(8) 0.4347(3) 0.9467(5)
H150 H 0.7645 0.4187 0.9848
C101 C 0.3668(7) 0.3607(3) 0.7258(5)
H151 H 0.3998 0.3843 0.7099
H152 H 0.3536 0.3411 0.6905
C102 C 0.4313(7) 0.3420(3) 0.7772(5)
H153 H 0.4918 0.3343 0.7618
H154 H 0.4004 0.3178 0.7921
H155 H 0.4450 0.3612 0.8123
C103 C 0.2115(7) 0.3411(3) 0.7494(5)
H156 H 0.2422 0.3207 0.7796
H157 H 0.1956 0.3279 0.7074
C104 C 0.1236(7) 0.3561(3) 0.7710(5)
H158 H 0.0788 0.3336 0.7739
H159 H 0.0933 0.3761 0.7408
H160 H 0.1395 0.3686 0.8129
H161? H 0.2785 0.1324 0.6345
H162? H 0.3750 0.1556 0.6472
H163? H 0.2238 0.1701 0.7128
H164? H 0.3408 0.2334 0.6987
H165? H 0.2325 0.2390 0.7048
H166? H 0.2177 0.2653 0.6059
H167? H 0.3693 0.2261 0.5673
H168? H 0.2705 0.2292 0.5247
H169? H 0.2643 0.1593 0.5338
C105? C 0.3995(17) 0.1924(8) 0.7118(12)
H170? H 0.4064 0.2121 0.7472
H171? H 0.4321 0.1670 0.7273
C106? C 0.4026(18) 0.2527(8) 0.6428(13)
H172? H 0.4314 0.2672 0.6110
H173? H 0.4134 0.2677 0.6818
C107? C 0.4272(15) 0.1833(7) 0.5951(10)
H174? H 0.4581 0.1566 0.6040
H175? H 0.4554 0.1956 0.5593
H176? H 1.2275 0.1867 0.8491
H177? H 1.3321 0.1738 0.8422
H178? H 1.3380 0.1429 0.9404
H179? H 1.2827 0.1805 1.0224
H180? H 1.1928 0.1917 0.9746
H181? H 1.3270 0.2483 1.0226
H182? H 1.3178 0.2805 0.9246
H183? H 1.2173 0.2609 0.9065
H184? H 1.3738 0.2418 0.8466
C108? C 1.1550(19) 0.1717(11) 0.9075(13)
H185? H 1.1346 0.1547 0.8698
H186? H 1.1224 0.1616 0.9430
C109? C 1.1848(19) 0.2343(10) 0.8403(14)
H187? H 1.1649 0.2629 0.8333
H188? H 1.1700 0.2196 0.7996
C110? C 1.156(2) 0.2380(12) 0.9531(16)
H189? H 1.1191 0.2284 0.9858
H190? H 1.1386 0.2660 0.9438
C111? C -0.1175(11) 0.4815(5) 0.5590(7)
H191? H -0.0829 0.4685 0.5267
H192? H -0.0991 0.5104 0.5620
C112? C -0.1083(12) 0.4162(5) 0.6216(8)
H193? H -0.0924 0.4032 0.6636
H194? H -0.0686 0.4037 0.5917
C113? C -0.1439(11) 0.4799(6) 0.6743(8)
H195? H -0.1288 0.5092 0.6765
H196? H -0.1248 0.4680 0.7168
H197? H -0.3087 0.5159 0.5887
H198? H -0.1992 0.5105 0.6090
H199? H -0.2805 0.4883 0.4972
H200? H -0.1575 0.4318 0.5374
H201? H -0.2570 0.4217 0.5003
H202? H -0.2722 0.3826 0.5823
H203? H -0.1956 0.4253 0.6780
H204? H -0.3046 0.4153 0.6695
H205? H -0.3229 0.4823 0.6766
C114? C 0.6438(9) 0.4853(5) 0.8183(7)
H206? H 0.6226 0.5138 0.8146
H207? H 0.6259 0.4722 0.7766
C115? C 0.6232(9) 0.4822(5) 0.9359(6)
H208? H 0.5914 0.4666 0.9670
H209? H 0.6027 0.5108 0.9375
C116? C 0.6196(10) 0.4193(5) 0.8690(8)
H210? H 0.5985 0.4064 0.8274
H211? H 0.5879 0.4054 0.9018
H212? H 0.7803 0.3896 0.8894
H213? H 0.7138 0.4334 0.8022
H214? H 0.8238 0.4307 0.8214
H215? H 0.8111 0.4964 0.8113
H216? H 0.7087 0.5207 0.8926
H217? H 0.8195 0.5192 0.9104
H218? H 0.7780 0.4890 0.9948
H219? H 0.7936 0.4235 0.9766
H220? H 0.6828 0.4263 0.9601
loop_
_geom_bond_atom_site_label_1
_geom_bond_atom_site_label_2
_geom_bond_site_symmetry_1
_geom_bond_site_symmetry_2
Ba1 O1 1_555 1_555
O1 C14 1_555 1_555
O2 C1 1_555 1_555
O3 C25 1_555 1_555
O4 Ba1 1_555 1_555
O5 Ba1 1_555 1_555
C1 Ba1 1_555 1_555
C2 Ba1 1_555 1_555
C3 Ba1 1_555 1_555
C4 Ba1 1_555 1_555
C5 Ba1 1_555 1_555
C6 C2 1_555 1_555
H1 C6 1_555 1_555
H2 C6 1_555 1_555
C7 C6 1_555 1_555
H3 C7 1_555 1_555
H4 C7 1_555 1_555
H5 C7 1_555 1_555
C8 C3 1_555 1_555
H6 C8 1_555 1_555
H7 C8 1_555 1_555
C9 C8 1_555 1_555
H8 C9 1_555 1_555
H9 C9 1_555 1_555
H10 C9 1_555 1_555
C10 C4 1_555 1_555
H11 C10 1_555 1_555
H12 C10 1_555 1_555
C11 C10 1_555 1_555
H13 C11 1_555 1_555
H14 C11 1_555 1_555
H15 C11 1_555 1_555
C12 C5 1_555 1_555
H16 C12 1_555 1_555
H17 C12 1_555 1_555
C13 C12 1_555 1_555
H18 C13 1_555 1_555
H19 C13 1_555 1_555
H20 C13 1_555 1_555
C14 O2 1_555 1_555
C15 C14 1_555 1_555
C16 H21 1_555 1_555
C17 C16 1_555 1_555
H22 C17 1_555 1_555
H23 C17 1_555 1_555
C18 C17 1_555 1_555
H24 C18 1_555 1_555
C19 C18 1_555 1_555
H25 C19 1_555 1_555
H26 C19 1_555 1_555
C20 C19 1_555 1_555
H27 C20 1_555 1_555
C21 C16 1_555 1_555
H28 C21 1_555 1_555
H29 C21 1_555 1_555
C22 C15 1_555 1_555
H30 C22 1_555 1_555
H31 C22 1_555 1_555
C23 C15 1_555 1_555
H32 C23 1_555 1_555
H33 C23 1_555 1_555
C24 C15 1_555 1_555
H34 C24 1_555 1_555
H35 C24 1_555 1_555
C25 Ba1 1_555 1_555
C26 Ba1 1_555 1_555
C27 Ba1 1_555 1_555
C28 Ba1 1_555 1_555
C29 Ba1 1_555 1_555
C30 C26 1_555 1_555
H36 C30 1_555 1_555
H37 C30 1_555 1_555
C31 C30 1_555 1_555
H38 C31 1_555 1_555
H39 C31 1_555 1_555
H40 C31 1_555 1_555
C32 C27 1_555 1_555
H41 C32 1_555 1_555
H42 C32 1_555 1_555
C33 C32 1_555 1_555
H43 C33 1_555 1_555
H44 C33 1_555 1_555
H45 C33 1_555 1_555
C34 C28 1_555 1_555
H46 C34 1_555 1_555
H47 C34 1_555 1_555
C35 C34 1_555 1_555
H48 C35 1_555 1_555
H49 C35 1_555 1_555
H50 C35 1_555 1_555
C36 C29 1_555 1_555
H51 C36 1_555 1_555
H52 C36 1_555 1_555
C37 C36 1_555 1_555
H53 C37 1_555 1_555
H54 C37 1_555 1_555
H55 C37 1_555 1_555
C38 O3 1_555 1_555
C39 C38 1_555 1_555
C40 H56 1_555 1_555
C41 C40 1_555 1_555
H57 C41 1_555 1_555
H58 C41 1_555 1_555
C42 C41 1_555 1_555
H59 C42 1_555 1_555
C43 C42 1_555 1_555
H60 C43 1_555 1_555
H61 C43 1_555 1_555
C44 C43 1_555 1_555
H62 C44 1_555 1_555
C45 C40 1_555 1_555
H63 C45 1_555 1_555
H64 C45 1_555 1_555
C46 C39 1_555 1_555
H65 C46 1_555 1_555
H66 C46 1_555 1_555
C47 C39 1_555 1_555
H67 C47 1_555 1_555
H68 C47 1_555 1_555
C48 C39 1_555 1_555
H69 C48 1_555 1_555
H70 C48 1_555 1_555
C49 O5 1_555 1_555
H71 C49 1_555 1_555
H72 C49 1_555 1_555
C50 C49 1_555 1_555
H73 C50 1_555 1_555
H74 C50 1_555 1_555
H75 C50 1_555 1_555
C51 O5 1_555 1_555
H76 C51 1_555 1_555
H77 C51 1_555 1_555
C52 C51 1_555 1_555
H78 C52 1_555 1_555
H79 C52 1_555 1_555
H80 C52 1_555 1_555
Ba2 O7 1_555 1_555
O6 C53 1_555 1_555
O7 C66 1_555 1_555
O8 Ba2 1_555 1_555
O9 C77 1_555 1_555
O10 Ba2 1_555 1_555
C53 Ba2 1_555 1_555
C54 Ba2 1_555 1_555
C55 Ba2 1_555 1_555
C56 Ba2 1_555 1_555
C57 Ba2 1_555 1_555
C58 C54 1_555 1_555
H81 C58 1_555 1_555
H82 C58 1_555 1_555
C59 C58 1_555 1_555
H83 C59 1_555 1_555
H84 C59 1_555 1_555
H85 C59 1_555 1_555
C60 C55 1_555 1_555
H86 C60 1_555 1_555
H87 C60 1_555 1_555
C61 C60 1_555 1_555
H88 C61 1_555 1_555
H89 C61 1_555 1_555
H90 C61 1_555 1_555
C62 C56 1_555 1_555
H91 C62 1_555 1_555
H92 C62 1_555 1_555
C63 C62 1_555 1_555
H93 C63 1_555 1_555
H94 C63 1_555 1_555
H95 C63 1_555 1_555
C64 C57 1_555 1_555
H96 C64 1_555 1_555
H97 C64 1_555 1_555
C65 C64 1_555 1_555
H98 C65 1_555 1_555
H99 C65 1_555 1_555
H100 C65 1_555 1_555
C66 O6 1_555 1_555
C67 C66 1_555 1_555
C68 C67 1_555 1_555
H101 C68 1_555 1_555
H102 C68 1_555 1_555
C69 C67 1_555 1_555
H103 C69 1_555 1_555
H104 C69 1_555 1_555
C70 C67 1_555 1_555
H105 C70 1_555 1_555
H106 C70 1_555 1_555
C71 C70 1_555 1_555
H107 C71 1_555 1_555
C72 C71 1_555 1_555
H108 C72 1_555 1_555
H109 C72 1_555 1_555
C73 C68 1_555 1_555
H110 C73 1_555 1_555
C74 C73 1_555 1_555
H111 C74 1_555 1_555
H112 C74 1_555 1_555
C75 C69 1_555 1_555
H113 C75 1_555 1_555
C76 C71 1_555 1_555
H114 C76 1_555 1_555
H115 C76 1_555 1_555
C77 Ba2 1_555 1_555
C78 Ba2 1_555 1_555
C79 Ba2 1_555 1_555
C80 Ba2 1_555 1_555
C81 Ba2 1_555 1_555
C82 C78 1_555 1_555
H116 C82 1_555 1_555
H117 C82 1_555 1_555
C83 C82 1_555 1_555
H118 C83 1_555 1_555
H119 C83 1_555 1_555
H120 C83 1_555 1_555
C84 C79 1_555 1_555
H121 C84 1_555 1_555
H122 C84 1_555 1_555
C85 C84 1_555 1_555
H123 C85 1_555 1_555
H124 C85 1_555 1_555
H125 C85 1_555 1_555
C86 C80 1_555 1_555
H126 C86 1_555 1_555
H127 C86 1_555 1_555
C87 C86 1_555 1_555
H128 C87 1_555 1_555
H129 C87 1_555 1_555
H130 C87 1_555 1_555
C88 C81 1_555 1_555
H131 C88 1_555 1_555
H132 C88 1_555 1_555
C89 C88 1_555 1_555
H133 C89 1_555 1_555
H134 C89 1_555 1_555
H135 C89 1_555 1_555
C90 O8 1_555 1_555
C91 C90 1_555 1_555
C92 C91 1_555 1_555
H136 C92 1_555 1_555
H137 C92 1_555 1_555
C93 C91 1_555 1_555
H138 C93 1_555 1_555
H139 C93 1_555 1_555
C94 C91 1_555 1_555
H140 C94 1_555 1_555
H141 C94 1_555 1_555
C95 H142 1_555 1_555
H143 C95 1_555 1_555
C96 C94 1_555 1_555
H144 C96 1_555 1_555
C97 C96 1_555 1_555
H145 C97 1_555 1_555
H146 C97 1_555 1_555
C98 C92 1_555 1_555
H147 C98 1_555 1_555
C99 C98 1_555 1_555
H148 C99 1_555 1_555
H149 C99 1_555 1_555
C100 C93 1_555 1_555
H150 C100 1_555 1_555
C101 O10 1_555 1_555
H151 C101 1_555 1_555
H152 C101 1_555 1_555
C102 C101 1_555 1_555
H153 C102 1_555 1_555
H154 C102 1_555 1_555
H155 C102 1_555 1_555
C103 O10 1_555 1_555
H156 C103 1_555 1_555
H157 C103 1_555 1_555
C104 C103 1_555 1_555
H158 C104 1_555 1_555
H159 C104 1_555 1_555
H160 C104 1_555 1_555
O4 C38 1_555 1_555
C1 C2 1_555 1_555
C1 C5 1_555 1_555
C2 C3 1_555 1_555
C3 C4 1_555 1_555
C4 C5 1_555 1_555
C16 C22 1_555 1_555
C18 C23 1_555 1_555
C20 C21 1_555 1_555
C20 C24 1_555 1_555
C25 C26 1_555 1_555
C25 C29 1_555 1_555
C26 C27 1_555 1_555
C27 C28 1_555 1_555
C28 C29 1_555 1_555
C40 C46 1_555 1_555
C42 C48 1_555 1_555
C44 C45 1_555 1_555
C44 C47 1_555 1_555
O9 C90 1_555 1_555
C53 C54 1_555 1_555
C53 C57 1_555 1_555
C54 C55 1_555 1_555
C55 C56 1_555 1_555
C56 C57 1_555 1_555
C72 C73 1_555 1_555
C74 C75 1_555 1_555
C75 C76 1_555 1_555
C77 C78 1_555 1_555
C77 C81 1_555 1_555
C78 C79 1_555 1_555
C79 C80 1_555 1_555
C80 C81 1_555 1_555
C95 C96 1_555 1_555
C95 C100 1_555 1_555
C97 C98 1_555 1_555
C99 C100 1_555 1_555

#END
