
#######################################################################
#
#                 Cambridge Crystallographic Data Centre
#                                CCDC 
#
#######################################################################
#
# If this CIF has been generated from an entry in the Cambridge 
# Structural Database, then it will include bibliographic, chemical, 
# crystal, experimental, refinement or atomic coordinate data resulting 
# from the CCDC's data processing and validation procedures.
#
#######################################################################

data_FIJNIX
_chemical_formula_moiety         'C30 H21 N1 O1'
_chemical_name_systematic        
(2-Methyl-11-phenyl-5H-benzo[b]carbazol-6-yl)(phenyl)methanone
_symmetry_cell_setting           monoclinic
_symmetry_space_group_name_H-M   'P 21/c'
_symmetry_Int_Tables_number      14
_space_group_name_Hall           '-P 2ybc'
loop_
_symmetry_equiv_pos_site_id
_symmetry_equiv_pos_as_xyz
1 x,y,z
2 -x,1/2+y,1/2-z
3 -x,-y,-z
4 x,1/2-y,1/2+z
_cell_length_a                   11.0796(7)
_cell_length_b                   28.777(2)
_cell_length_c                   6.8378(5)
_cell_angle_alpha                90
_cell_angle_beta                 91.267(6)
_cell_angle_gamma                90
_cell_volume                     2179.62
_exptl_crystal_colour            yellow
_exptl_crystal_description       block
_cell_formula_units_Z            4
loop_
_atom_site_label
_atom_site_type_symbol
_atom_site_fract_x
_atom_site_fract_y
_atom_site_fract_z
O1 O 0.39533(12) 0.24806(4) 0.4054(2)
N1 N 0.55273(13) 0.19113(5) 0.6884(2)
H1 H 0.5146 0.2160 0.7187
C1 C 0.22073(15) 0.20268(5) 0.4222(2)
C2 C 0.14374(17) 0.24050(6) 0.3977(2)
H2 H 0.1745 0.2690 0.3587
C3 C 0.02142(18) 0.23585(8) 0.4312(3)
H3 H -0.0299 0.2611 0.4121
C4 C -0.02410(18) 0.19432(8) 0.4920(3)
H4 H -0.1058 0.1916 0.5183
C5 C 0.05056(18) 0.15667(7) 0.5144(3)
H5 H 0.0191 0.1284 0.5545
C6 C 0.17218(16) 0.16049(6) 0.4778(2)
H6 H 0.2218 0.1346 0.4905
C7 C 0.35264(16) 0.20892(5) 0.4012(2)
C8 C 0.43507(14) 0.16804(5) 0.3906(2)
C9 C 0.42749(14) 0.13439(5) 0.2383(2)
C10 C 0.34291(16) 0.13854(6) 0.0806(2)
H7 H 0.2910 0.1639 0.0763
C11 C 0.33597(18) 0.10642(7) -0.0639(3)
H8 H 0.2788 0.1098 -0.1646
C12 C 0.41405(18) 0.06824(7) -0.0629(3)
H9 H 0.4088 0.0463 -0.1628
C13 C 0.49741(16) 0.06314(6) 0.0838(2)
H10 H 0.5486 0.0375 0.0825
C14 C 0.50883(14) 0.09554(5) 0.2386(2)
C15 C 0.59802(14) 0.09060(5) 0.3918(2)
C16 C 0.60796(14) 0.12482(5) 0.5324(2)
C17 C 0.69052(14) 0.13252(6) 0.6989(2)
C18 C 0.79563(15) 0.11086(6) 0.7700(2)
H11 H 0.8235 0.0841 0.7094
C19 C 0.85822(17) 0.12890(7) 0.9294(3)
C20 C 0.81226(19) 0.16802(8) 1.0223(3)
H12 H 0.8526 0.1793 1.1331
C21 C 0.70959(19) 0.19062(7) 0.9565(3)
H13 H 0.6807 0.2167 1.0205
C22 C 0.65091(16) 0.17295(6) 0.7912(2)
C23 C 0.52574(14) 0.16323(5) 0.5307(2)
C24 C 0.97661(18) 0.10791(9) 0.9992(3)
H14 H 0.9855 0.0776 0.9430
H15 H 0.9774 0.1055 1.1392
H16 H 1.0421 0.1274 0.9597
C25 C 0.67780(14) 0.04900(6) 0.4058(2)
C26 C 0.66428(17) 0.01707(6) 0.5541(3)
H17 H 0.6013 0.0206 0.6405
C27 C 0.7423(2) -0.01989(7) 0.5766(3)
H18 H 0.7312 -0.0412 0.6770
C28 C 0.8355(2) -0.02538(7) 0.4524(4)
H19 H 0.8897 -0.0498 0.4698
C29 C 0.8486(2) 0.00519(8) 0.3022(4)
H20 H 0.9111 0.0011 0.2151
C30 C 0.77054(18) 0.04210(7) 0.2776(3)
H21 H 0.7804 0.0625 0.1738
loop_
_geom_bond_atom_site_label_1
_geom_bond_atom_site_label_2
_geom_bond_site_symmetry_1
_geom_bond_site_symmetry_2
O1 C7 1_555 1_555
N1 H1 1_555 1_555
C1 C2 1_555 1_555
C2 H2 1_555 1_555
C3 C2 1_555 1_555
H3 C3 1_555 1_555
C4 C3 1_555 1_555
H4 C4 1_555 1_555
C5 C4 1_555 1_555
H5 C5 1_555 1_555
C6 C1 1_555 1_555
H6 C6 1_555 1_555
C7 C1 1_555 1_555
C8 C7 1_555 1_555
C9 C8 1_555 1_555
C10 C9 1_555 1_555
H7 C10 1_555 1_555
C11 C10 1_555 1_555
H8 C11 1_555 1_555
C12 C11 1_555 1_555
H9 C12 1_555 1_555
C13 C12 1_555 1_555
H10 C13 1_555 1_555
C14 C9 1_555 1_555
C15 C14 1_555 1_555
C16 C15 1_555 1_555
C17 C16 1_555 1_555
C18 C17 1_555 1_555
H11 C18 1_555 1_555
C19 C18 1_555 1_555
C20 C19 1_555 1_555
H12 C20 1_555 1_555
C21 C20 1_555 1_555
H13 C21 1_555 1_555
C22 N1 1_555 1_555
C23 N1 1_555 1_555
C24 C19 1_555 1_555
H14 C24 1_555 1_555
H15 C24 1_555 1_555
H16 C24 1_555 1_555
C25 C15 1_555 1_555
C26 C25 1_555 1_555
H17 C26 1_555 1_555
C27 C26 1_555 1_555
H18 C27 1_555 1_555
C28 C27 1_555 1_555
H19 C28 1_555 1_555
C29 C28 1_555 1_555
H20 C29 1_555 1_555
C30 C25 1_555 1_555
H21 C30 1_555 1_555
C5 C6 1_555 1_555
C8 C23 1_555 1_555
C13 C14 1_555 1_555
C16 C23 1_555 1_555
C17 C22 1_555 1_555
C21 C22 1_555 1_555
C29 C30 1_555 1_555

#END
