
#######################################################################
#
#                 Cambridge Crystallographic Data Centre
#                                CCDC 
#
#######################################################################
#
# If this CIF has been generated from an entry in the Cambridge 
# Structural Database, then it will include bibliographic, chemical, 
# crystal, experimental, refinement or atomic coordinate data resulting 
# from the CCDC's data processing and validation procedures.
#
#######################################################################

data_FIJPOG01
_chemical_name_common            
(Z)-2-((E)-(4-methoxybenzylidene)hydrazono)-1,2-diphenylethanone
_chemical_formula_moiety         'C22 H18 N2 O2'
_chemical_name_systematic        
2-{[(4-methoxyphenyl)methylidene]hydrazinylidene}-1,2-diphenylethan-1-one
_symmetry_cell_setting           monoclinic
_symmetry_space_group_name_H-M   'P 21/c'
_symmetry_Int_Tables_number      14
_space_group_name_Hall           '-P 2ybc'
loop_
_symmetry_equiv_pos_site_id
_symmetry_equiv_pos_as_xyz
1 x,y,z
2 -x,1/2+y,1/2-z
3 -x,-y,-z
4 x,1/2-y,1/2+z
_cell_length_a                   10.2458(4)
_cell_length_b                   8.0070(2)
_cell_length_c                   23.3695(8)
_cell_angle_alpha                90
_cell_angle_beta                 102.461(3)
_cell_angle_gamma                90
_cell_volume                     1872.03
_exptl_crystal_colour            yellow
_exptl_crystal_description       block
_chemical_melting_point          '419.4 K'
_cell_formula_units_Z            4
loop_
_atom_site_label
_atom_site_type_symbol
_atom_site_fract_x
_atom_site_fract_y
_atom_site_fract_z
C1 C 0.2667(3) 0.8242(4) 0.08193(14)
H1 H 0.345996 0.873547 0.077333
C2 C 0.1484(10) 0.8363(12) 0.0418(5)
H2 H 0.140898 0.912459 0.011173
C3 C 0.0368(3) 0.7355(3) 0.04563(14)
C4 C 0.0274(6) 0.6454(10) 0.0938(3)
H3 H -0.049503 0.588086 0.097177
C5 C 0.1428(3) 0.6466(5) 0.13735(17)
H4 H 0.144716 0.589781 0.172219
C6 C 0.2550(7) 0.7312(11) 0.1297(3)
C7 C 0.3788(3) 0.7068(4) 0.18251(14)
H5 H 0.371520 0.643838 0.215115
C8 C 0.7014(5) 0.8008(5) 0.2169(2)
C9 C 0.8268(3) 0.7773(3) 0.25842(14)
C10 C 0.8336(13) 0.7099(10) 0.3131(5)
H6 H 0.752570 0.687545 0.323311
C11 C 0.9482(4) 0.6717(5) 0.35458(17)
H7 H 0.948844 0.601277 0.386267
C12 C 1.0625(3) 0.7496(4) 0.34404(15)
H8 H 1.138739 0.753257 0.373986
C13 C 1.0665(4) 0.8206(5) 0.29137(16)
H9 H 1.146739 0.856723 0.283148
C14 C 0.9476(4) 0.8371(7) 0.25066(18)
H10 H 0.949281 0.892123 0.215781
C15 C 0.70901(19) 0.8714(3) 0.15667(8)
C16 C 0.68233(17) 1.0520(2) 0.14622(8)
C17 C 0.6870(3) 1.1219(3) 0.09227(11)
H11 H 0.704771 1.053523 0.062690
C18 C 0.6660(3) 1.2898(3) 0.08155(15)
H12 H 0.668654 1.336485 0.045377
C19 C 0.6410(3) 1.3848(4) 0.12667(13)
H13 H 0.630402 1.499207 0.120572
C20 C 0.6309(3) 1.3246(3) 0.17900(13)
H14 H 0.610870 1.395612 0.207418
C21 C 0.6507(2) 1.1530(3) 0.19055(10)
H15 H 0.643197 1.107804 0.226354
C22 C -0.1863(3) 0.6681(5) -0.00851(16)
H16 H -0.247145 0.742035 0.004931
H17 H -0.171947 0.570646 0.015963
H18 H -0.223517 0.635604 -0.048222
N1 N 0.4888(9) 0.7757(10) 0.1792(3)
N2 N 0.5886(2) 0.7454(3) 0.22696(9)
O1 O -0.0590(6) 0.7535(8) -0.0058(2)
O2 O 0.7413(2) 0.7809(2) 0.12045(8)
C23? C 0.1564(9) 0.7994(11) 0.0357(5)
H19? H 0.239638 0.833193 0.030198
C24? C 0.0459(3) 0.8233(5) -0.00874(14)
H20? H 0.049991 0.890242 -0.040832
C25? C -0.0739(6) 0.7428(9) -0.00401(19)
C26? C -0.0819(4) 0.6603(5) 0.04770(15)
H21? H -0.161280 0.610521 0.051896
C27? C 0.0304(4) 0.6539(7) 0.0925(2)
H22? H 0.026336 0.597973 0.126907
C28? C 0.1478(3) 0.7282(4) 0.08732(16)
C29? C 0.2712(7) 0.7129(12) 0.1416(3)
H23? H 0.267350 0.656965 0.176116
C30? C 0.5900(3) 0.8039(3) 0.17264(12)
C31? C 0.7230(6) 0.7626(5) 0.2174(3)
C32? C 0.7148(4) 0.6834(4) 0.26985(15)
H24? H 0.633909 0.643966 0.276459
C33? C 0.8334(13) 0.6663(10) 0.3117(5)
H25? H 0.833056 0.610855 0.346671
C34? C 0.9514(3) 0.7309(4) 0.30194(16)
H26? H 1.031314 0.710620 0.328596
C35? C 0.9508(5) 0.8257(10) 0.2524(3)
H27? H 1.027789 0.883007 0.249144
C36? C 0.8387(3) 0.8370(5) 0.20792(19)
H28? H 0.840427 0.892087 0.173060
C37? C 0.5988(2) 0.8735(2) 0.11400(9)
C38? C 0.56805(18) 1.0528(2) 0.10388(8)
C39? C 0.5756(2) 1.1229(3) 0.04989(10)
H29? H 0.598065 1.055702 0.021009
C40? C 0.5513(4) 1.2824(4) 0.03942(16)
H30? H 0.552992 1.324153 0.002456
C41? C 0.5229(3) 1.3924(4) 0.08224(14)
H31? H 0.510226 1.505878 0.074499
C42? C 0.5142(3) 1.3256(3) 0.13708(13)
H32? H 0.493299 1.392766 0.166310
C43? C 0.5383(2) 1.1536(3) 0.14599(10)
H33? H 0.533620 1.107279 0.181995
C44? C -0.2943(3) 0.6661(4) -0.05293(14)
H34? H -0.369032 0.741265 -0.059852
H35? H -0.289133 0.609713 -0.016259
H36? H -0.305455 0.585470 -0.084001
N3? N 0.3714(2) 0.7823(2) 0.13333(10)
N4? N 0.4822(4) 0.7548(6) 0.17997(14)
O3? O -0.1764(3) 0.7564(3) -0.05098(13)
O4? O 0.6309(2) 0.7825(2) 0.07815(9)
loop_
_geom_bond_atom_site_label_1
_geom_bond_atom_site_label_2
_geom_bond_site_symmetry_1
_geom_bond_site_symmetry_2
C1 H1 1_555 1_555
C2 C1 1_555 1_555
H2 C2 1_555 1_555
C3 C2 1_555 1_555
C4 C3 1_555 1_555
H3 C4 1_555 1_555
C5 C4 1_555 1_555
H4 C5 1_555 1_555
C6 C1 1_555 1_555
C7 C6 1_555 1_555
H5 C7 1_555 1_555
C8 C9 1_555 1_555
C9 C10 1_555 1_555
C10 H6 1_555 1_555
C11 C10 1_555 1_555
H7 C11 1_555 1_555
C12 C11 1_555 1_555
H8 C12 1_555 1_555
C13 C12 1_555 1_555
H9 C13 1_555 1_555
C14 C9 1_555 1_555
H10 C14 1_555 1_555
C15 C8 1_555 1_555
C16 C15 1_555 1_555
C17 C16 1_555 1_555
H11 C17 1_555 1_555
C18 C17 1_555 1_555
H12 C18 1_555 1_555
C19 C18 1_555 1_555
H13 C19 1_555 1_555
C20 C19 1_555 1_555
H14 C20 1_555 1_555
C21 C16 1_555 1_555
H15 C21 1_555 1_555
C22 H16 1_555 1_555
H17 C22 1_555 1_555
H18 C22 1_555 1_555
N1 C7 1_555 1_555
N2 C8 1_555 1_555
O1 C3 1_555 1_555
O2 C15 1_555 1_555
C5 C6 1_555 1_555
C13 C14 1_555 1_555
C20 C21 1_555 1_555
C22 O1 1_555 1_555
N1 N2 1_555 1_555

#END
