
#######################################################################
#
#                 Cambridge Crystallographic Data Centre
#                                CCDC 
#
#######################################################################
#
# If this CIF has been generated from an entry in the Cambridge 
# Structural Database, then it will include bibliographic, chemical, 
# crystal, experimental, refinement or atomic coordinate data resulting 
# from the CCDC's data processing and validation procedures.
#
#######################################################################

data_FIJPOG
_chemical_name_common            
(Z)-2-((E)-(4-methoxybenzylidene)hydrazono)-1,2-diphenylethanone
_chemical_formula_moiety         'C22 H18 N2 O2'
_chemical_name_systematic        
2-{[(4-methoxyphenyl)methylidene]hydrazinylidene}-1,2-diphenylethan-1-one
_symmetry_cell_setting           monoclinic
_symmetry_space_group_name_H-M   'P 21/c'
_symmetry_Int_Tables_number      14
_space_group_name_Hall           '-P 2ybc'
loop_
_symmetry_equiv_pos_site_id
_symmetry_equiv_pos_as_xyz
1 x,y,z
2 -x,1/2+y,1/2-z
3 -x,-y,-z
4 x,1/2-y,1/2+z
_cell_length_a                   10.2650(6)
_cell_length_b                   8.0342(5)
_cell_length_c                   23.4156(13)
_cell_angle_alpha                90
_cell_angle_beta                 102.512(6)
_cell_angle_gamma                90
_cell_volume                     1885.25
_exptl_crystal_colour            yellow
_exptl_crystal_description       block
_chemical_melting_point          '419.4 K'
_cell_formula_units_Z            4
loop_
_atom_site_label
_atom_site_type_symbol
_atom_site_fract_x
_atom_site_fract_y
_atom_site_fract_z
C1 C 0.29248(15) 0.6837(2) 0.43897(7)
C2 C 0.40120(17) 0.6784(3) 0.48403(8)
C3 C 0.51822(15) 0.7607(2) 0.48022(7)
C4 C 0.52559(16) 0.8467(2) 0.43041(7)
C5 C 0.41464(15) 0.8525(2) 0.38465(7)
C6 C 0.29655(14) 0.77307(18) 0.38818(6)
C7 C 0.17926(15) 0.7869(2) 0.34088(6)
C8 C -0.14713(13) 0.70224(17) 0.30534(5)
C9 C -0.27222(14) 0.72320(17) 0.26105(6)
C10 C -0.27329(18) 0.8065(2) 0.20879(7)
C11 C -0.3914(2) 0.8235(3) 0.16739(8)
C12 C -0.5081(2) 0.7576(3) 0.17737(9)
C13 C -0.50850(19) 0.6764(3) 0.22852(9)
C14 C -0.39152(16) 0.6597(2) 0.27028(8)
C15 C -0.15335(13) 0.62706(18) 0.36447(5)
C16 C -0.12561(11) 0.44760(16) 0.37484(5)
C17 C -0.09552(15) 0.34514(19) 0.33190(7)
C18 C -0.07578(19) 0.1767(2) 0.34192(9)
C19 C -0.0837(2) 0.1104(2) 0.39488(10)
C20 C -0.1102(2) 0.2108(3) 0.43833(10)
C21 C -0.13144(16) 0.3790(2) 0.42878(7)
C22 C 0.7400(2) 0.8338(4) 0.52974(11)
N1 N 0.06922(12) 0.72182(16) 0.34438(5)
N2 N -0.03509(12) 0.75292(15) 0.29555(5)
O1 O 0.61916(12) 0.74650(19) 0.52825(5)
O2 O -0.18530(13) 0.71734(14) 0.40079(5)
H1 H 0.2098(16) 0.624(2) 0.4419(7)
H2 H 0.4010(18) 0.613(3) 0.5184(8)
H3 H 0.6030(17) 0.906(2) 0.4256(7)
H4 H 0.4160(16) 0.914(2) 0.3492(7)
H5 H 0.1869(15) 0.857(2) 0.3076(7)
H6 H -0.1906(17) 0.851(2) 0.2028(7)
H7 H -0.389(2) 0.881(3) 0.1313(9)
H8 H -0.593(2) 0.762(2) 0.1488(9)
H9 H -0.590(2) 0.630(3) 0.2360(8)
H10 H -0.3914(17) 0.602(2) 0.3054(8)
H11 H -0.0885(15) 0.394(2) 0.2933(7)
H12 H -0.060(2) 0.105(3) 0.3109(9)
H13 H -0.071(2) -0.004(3) 0.4040(9)
H14 H -0.110(2) 0.169(3) 0.4744(9)
H15 H -0.1472(16) 0.453(2) 0.4576(7)
H16 H 0.790(3) 0.805(3) 0.5676(12)
H17 H 0.726(3) 0.965(5) 0.5259(14)
H18 H 0.787(2) 0.794(3) 0.5006(10)
loop_
_geom_bond_atom_site_label_1
_geom_bond_atom_site_label_2
_geom_bond_site_symmetry_1
_geom_bond_site_symmetry_2
C1 C2 1_555 1_555
C2 C3 1_555 1_555
C3 C4 1_555 1_555
C4 C5 1_555 1_555
C5 C6 1_555 1_555
C6 C1 1_555 1_555
C7 C6 1_555 1_555
C8 C9 1_555 1_555
C9 C10 1_555 1_555
C10 C11 1_555 1_555
C11 C12 1_555 1_555
C12 C13 1_555 1_555
C13 C14 1_555 1_555
C14 C9 1_555 1_555
C15 C8 1_555 1_555
C16 C15 1_555 1_555
C17 C16 1_555 1_555
C18 C17 1_555 1_555
C19 C18 1_555 1_555
C20 C19 1_555 1_555
C21 C16 1_555 1_555
C22 O1 1_555 1_555
N1 C7 1_555 1_555
N2 C8 1_555 1_555
O1 C3 1_555 1_555
O2 C15 1_555 1_555
H1 C1 1_555 1_555
H2 C2 1_555 1_555
H3 C4 1_555 1_555
H4 C5 1_555 1_555
H5 C7 1_555 1_555
H6 C10 1_555 1_555
H7 C11 1_555 1_555
H8 C12 1_555 1_555
H9 C13 1_555 1_555
H10 C14 1_555 1_555
H11 C17 1_555 1_555
H12 C18 1_555 1_555
H13 C19 1_555 1_555
H14 C20 1_555 1_555
H15 C21 1_555 1_555
H16 C22 1_555 1_555
H17 C22 1_555 1_555
H18 C22 1_555 1_555
C20 C21 1_555 1_555
N1 N2 1_555 1_555

#END
