
#######################################################################
#
#                 Cambridge Crystallographic Data Centre
#                                CCDC 
#
#######################################################################
#
# If this CIF has been generated from an entry in the Cambridge 
# Structural Database, then it will include bibliographic, chemical, 
# crystal, experimental, refinement or atomic coordinate data resulting 
# from the CCDC's data processing and validation procedures.
#
#######################################################################

data_FIJWUS
_chemical_formula_moiety         'C23 H24 N2 O2'
_chemical_name_systematic        
1,5,5,11b-Tetramethyl-3-phenyl-3,5a,6,11b-tetrahydro-5H-chromeno[4',3':4,5]pyrano[2,3-c]pyrazole
_symmetry_cell_setting           monoclinic
_symmetry_space_group_name_H-M   'P 21/n'
_symmetry_Int_Tables_number      14
_space_group_name_Hall           '-P 2yn'
loop_
_symmetry_equiv_pos_site_id
_symmetry_equiv_pos_as_xyz
1 x,y,z
2 1/2-x,1/2+y,1/2-z
3 -x,-y,-z
4 1/2+x,1/2-y,1/2+z
_cell_length_a                   13.4695(4)
_cell_length_b                   10.3715(3)
_cell_length_c                   13.8111(4)
_cell_angle_alpha                90
_cell_angle_beta                 95.724(3)
_cell_angle_gamma                90
_cell_volume                     1919.78
_exptl_crystal_colour            white
_exptl_crystal_description       rectangular
_chemical_melting_point          '443-445 K'
_cell_formula_units_Z            4
loop_
_atom_site_label
_atom_site_type_symbol
_atom_site_fract_x
_atom_site_fract_y
_atom_site_fract_z
C1 C 0.71464(14) 0.53713(17) -0.04974(13)
N1 N 0.71932(11) 0.62835(14) 0.01806(11)
N2 N 0.79547(10) 0.59188(12) 0.08660(9)
C2 C 0.83605(11) 0.47970(14) 0.05828(11)
O1 O 0.91694(8) 0.42913(9) 0.10949(7)
C3 C 0.94101(11) 0.29621(14) 0.07971(11)
C4 C 0.92762(12) 0.28965(15) -0.03291(11)
C5 C 0.96188(14) 0.16233(17) -0.07334(14)
O2 O 0.89540(9) 0.05709(11) -0.06241(10)
C6 C 0.79544(13) 0.08150(16) -0.07271(11)
C7 C 0.73510(16) -0.0269(2) -0.07170(13)
C8 C 0.63429(18) -0.0144(2) -0.07809(14)
C9 C 0.59091(17) 0.1059(3) -0.08557(16)
C10 C 0.65168(15) 0.2151(2) -0.08543(14)
C11 C 0.75478(12) 0.20516(16) -0.07921(11)
C12 C 0.82214(12) 0.32372(15) -0.08117(11)
C13 C 0.78702(12) 0.43926(15) -0.02721(11)
C14 C 0.6405(2) 0.5554(2) -0.13741(18)
H1 H 0.6021 0.6319 -0.1294
H2 H 0.5967 0.4822 -0.1444
H3 H 0.6753 0.5637 -0.1945
C15 C 0.82289(11) 0.67569(14) 0.16656(12)
C16 C 1.04935(13) 0.2824(2) 0.11892(16)
C17 C 0.87607(14) 0.20615(17) 0.13226(13)
C18 C 0.8296(2) 0.3609(2) -0.18881(13)
C19 C 0.78834(16) 0.80217(17) 0.16173(15)
C20 C 0.81339(17) 0.88502(19) 0.23813(17)
C21 C 0.87073(15) 0.8447(2) 0.31927(19)
C22 C 0.90393(15) 0.7199(2) 0.32424(17)
C23 C 0.88082(13) 0.63447(19) 0.24794(14)
H4 H 0.9735(11) 0.3551(15) -0.0522(11)
H5 H 1.0281(15) 0.1332(18) -0.0378(14)
H6 H 0.9689(13) 0.1722(17) -0.1436(14)
H7 H 0.7670(14) -0.115(2) -0.0643(14)
H8 H 0.5898(17) -0.094(2) -0.0732(16)
H9 H 0.5224(17) 0.124(2) -0.0921(15)
H10 H 0.6219(12) 0.2982(18) -0.0907(12)
H11 H 1.0580(14) 0.3072(19) 0.1886(15)
H12 H 1.0926(15) 0.338(2) 0.0820(14)
H13 H 1.0690(14) 0.195(2) 0.1168(13)
H14 H 0.8892(12) 0.2197(16) 0.2014(13)
H15 H 0.8921(13) 0.115(2) 0.1204(13)
H16 H 0.8030(14) 0.2194(17) 0.1129(12)
H17 H 0.8707(15) 0.439(2) -0.1913(14)
H18 H 0.7636(18) 0.381(2) -0.2247(17)
H19 H 0.8597(16) 0.289(2) -0.2240(16)
H20 H 0.7461(13) 0.8285(18) 0.1061(13)
H21 H 0.7876(15) 0.973(2) 0.2333(15)
H22 H 0.8868(16) 0.903(2) 0.3762(16)
H23 H 0.9427(17) 0.685(2) 0.3820(17)
H24 H 0.9026(13) 0.5502(19) 0.2531(13)
loop_
_geom_bond_atom_site_label_1
_geom_bond_atom_site_label_2
_geom_bond_site_symmetry_1
_geom_bond_site_symmetry_2
C1 N1 1_555 1_555
N1 N2 1_555 1_555
N2 C2 1_555 1_555
C2 O1 1_555 1_555
O1 C3 1_555 1_555
C3 C4 1_555 1_555
C4 C5 1_555 1_555
C5 O2 1_555 1_555
O2 C6 1_555 1_555
C6 C7 1_555 1_555
C7 C8 1_555 1_555
C8 C9 1_555 1_555
C9 C10 1_555 1_555
C10 C11 1_555 1_555
C11 C6 1_555 1_555
C12 C4 1_555 1_555
C13 C1 1_555 1_555
C14 C1 1_555 1_555
H1 C14 1_555 1_555
H2 C14 1_555 1_555
H3 C14 1_555 1_555
C15 N2 1_555 1_555
C16 C3 1_555 1_555
C17 C3 1_555 1_555
C18 C12 1_555 1_555
C19 C15 1_555 1_555
C20 C19 1_555 1_555
C21 C20 1_555 1_555
C22 C21 1_555 1_555
C23 C15 1_555 1_555
H4 C4 1_555 1_555
H5 C5 1_555 1_555
H6 C5 1_555 1_555
H7 C7 1_555 1_555
H8 C8 1_555 1_555
H9 C9 1_555 1_555
H10 C10 1_555 1_555
H11 C16 1_555 1_555
H12 C16 1_555 1_555
H13 C16 1_555 1_555
H14 C17 1_555 1_555
H15 C17 1_555 1_555
H16 C17 1_555 1_555
H17 C18 1_555 1_555
H18 C18 1_555 1_555
H19 C18 1_555 1_555
H20 C19 1_555 1_555
H21 C20 1_555 1_555
H22 C21 1_555 1_555
H23 C22 1_555 1_555
H24 C23 1_555 1_555
C2 C13 1_555 1_555
C11 C12 1_555 1_555
C12 C13 1_555 1_555
C22 C23 1_555 1_555

#END
