
#######################################################################
#
#                 Cambridge Crystallographic Data Centre
#                                CCDC 
#
#######################################################################
#
# If this CIF has been generated from an entry in the Cambridge 
# Structural Database, then it will include bibliographic, chemical, 
# crystal, experimental, refinement or atomic coordinate data resulting 
# from the CCDC's data processing and validation procedures.
#
#######################################################################

data_FIKCIO
_chemical_formula_moiety         'C26 H24 Br1 O2 P1'
_chemical_name_systematic        
6-bromo-1-{2-[t-butyl(phenyl)phosphoryl]phenyl}naphthalen-2-ol
_symmetry_cell_setting           hexagonal
_symmetry_space_group_name_H-M   'P 65'
_symmetry_Int_Tables_number      170
_space_group_name_Hall           'P 65'
loop_
_symmetry_equiv_pos_site_id
_symmetry_equiv_pos_as_xyz
1 x,y,z
2 -y,x-y,2/3+z
3 -x+y,-x,1/3+z
4 -x,-y,1/2+z
5 y,-x+y,1/6+z
6 x-y,x,5/6+z
_cell_length_a                   21.3302(17)
_cell_length_b                   21.3302(17)
_cell_length_c                   9.8445(13)
_cell_angle_alpha                90
_cell_angle_beta                 90
_cell_angle_gamma                120
_cell_volume                     3878.95
_exptl_crystal_colour            orange
_exptl_crystal_description       prism
_cell_formula_units_Z            6
loop_
_atom_site_label
_atom_site_type_symbol
_atom_site_fract_x
_atom_site_fract_y
_atom_site_fract_z
Br1 Br 0.76570(2) 0.53585(2) 0.277439
P1 P 0.36297(6) 0.35923(5) 0.55551(12)
O1 O 0.33803(15) 0.41158(16) 0.5183(3)
O2 O 0.39999(17) 0.17429(17) 0.5559(4)
H1 H 0.404(3) 0.146(3) 0.587(7)
C1 C 0.4556(2) 0.4107(2) 0.6138(5)
C2 C 0.4876(2) 0.3861(2) 0.7068(4)
H2 H 0.460965 0.338056 0.740976
C3 C 0.5579(2) 0.4312(3) 0.7498(5)
H3 H 0.579349 0.413789 0.812953
C4 C 0.5973(2) 0.5010(3) 0.7019(5)
H4 H 0.645347 0.531857 0.732989
C5 C 0.5663(2) 0.5264(3) 0.6073(6)
H5 H 0.593788 0.574255 0.572655
C6 C 0.4957(2) 0.4821(2) 0.5639(5)
H6 H 0.474461 0.499772 0.500888
C7 C 0.3035(2) 0.2978(2) 0.6905(5)
C8 C 0.3207(3) 0.3392(3) 0.8261(5)
H7 H 0.368952 0.350640 0.857238
H8 H 0.284590 0.309146 0.894186
H9 H 0.319621 0.384198 0.813167
C9 C 0.2250(2) 0.2756(3) 0.6488(5)
H10 H 0.220686 0.319019 0.639912
H11 H 0.191294 0.243743 0.718369
H12 H 0.213543 0.249988 0.561616
C10 C 0.3080(3) 0.2285(2) 0.7070(5)
H13 H 0.293784 0.201132 0.621775
H14 H 0.275240 0.198801 0.779855
H15 H 0.357689 0.241417 0.730038
C11 C 0.3551(2) 0.3037(2) 0.4081(4)
C12 C 0.3987(2) 0.2733(2) 0.3725(4)
C13 C 0.3797(2) 0.2280(2) 0.2593(5)
H16 H 0.407620 0.205918 0.237418
C14 C 0.3207(3) 0.2143(3) 0.1775(6)
H17 H 0.308925 0.183366 0.100841
C15 C 0.2795(3) 0.2458(3) 0.2083(6)
H18 H 0.239861 0.237305 0.151847
C16 C 0.2961(2) 0.2903(3) 0.3224(5)
H19 H 0.267581 0.311800 0.342937
C17 C 0.46609(19) 0.2869(2) 0.4456(4)
C18 C 0.4648(2) 0.2357(2) 0.5352(4)
C19 C 0.5282(2) 0.2460(2) 0.5999(4)
H20 H 0.525694 0.211311 0.663405
C20 C 0.5936(2) 0.3061(2) 0.5712(4)
H21 H 0.635837 0.313118 0.616927
C21 C 0.5992(2) 0.3574(2) 0.4756(4)
C22 C 0.6676(2) 0.4159(2) 0.4368(4)
H22 H 0.710203 0.423332 0.481903
C23 C 0.6724(2) 0.4613(2) 0.3350(4)
C24 C 0.6101(2) 0.4536(2) 0.2678(4)
H23 H 0.614513 0.485838 0.197041
C25 C 0.5429(2) 0.3984(2) 0.3072(4)
H24 H 0.500836 0.393866 0.264797
C26 C 0.53519(19) 0.34791(19) 0.4104(4)
loop_
_geom_bond_atom_site_label_1
_geom_bond_atom_site_label_2
_geom_bond_site_symmetry_1
_geom_bond_site_symmetry_2
Br1 C23 1_555 1_555
P1 O1 1_555 1_555
O2 H1 1_555 1_555
C1 P1 1_555 1_555
C2 C1 1_555 1_555
H2 C2 1_555 1_555
C3 C2 1_555 1_555
H3 C3 1_555 1_555
C4 C3 1_555 1_555
H4 C4 1_555 1_555
C5 C4 1_555 1_555
H5 C5 1_555 1_555
C6 C1 1_555 1_555
H6 C6 1_555 1_555
C7 P1 1_555 1_555
C8 C7 1_555 1_555
H7 C8 1_555 1_555
H8 C8 1_555 1_555
H9 C8 1_555 1_555
C9 C7 1_555 1_555
H10 C9 1_555 1_555
H11 C9 1_555 1_555
H12 C9 1_555 1_555
C10 C7 1_555 1_555
H13 C10 1_555 1_555
H14 C10 1_555 1_555
H15 C10 1_555 1_555
C11 P1 1_555 1_555
C12 C11 1_555 1_555
C13 C12 1_555 1_555
H16 C13 1_555 1_555
C14 C13 1_555 1_555
H17 C14 1_555 1_555
C15 C14 1_555 1_555
H18 C15 1_555 1_555
C16 C11 1_555 1_555
H19 C16 1_555 1_555
C17 C12 1_555 1_555
C18 O2 1_555 1_555
C19 C18 1_555 1_555
H20 C19 1_555 1_555
C20 C19 1_555 1_555
H21 C20 1_555 1_555
C21 C20 1_555 1_555
C22 C21 1_555 1_555
H22 C22 1_555 1_555
C23 C22 1_555 1_555
C24 C23 1_555 1_555
H23 C24 1_555 1_555
C25 C24 1_555 1_555
H24 C25 1_555 1_555
C26 C17 1_555 1_555
C5 C6 1_555 1_555
C15 C16 1_555 1_555
C17 C18 1_555 1_555
C21 C26 1_555 1_555
C25 C26 1_555 1_555

#END
