
#######################################################################
#
#                 Cambridge Crystallographic Data Centre
#                                CCDC 
#
#######################################################################
#
# If this CIF has been generated from an entry in the Cambridge 
# Structural Database, then it will include bibliographic, chemical, 
# crystal, experimental, refinement or atomic coordinate data resulting 
# from the CCDC's data processing and validation procedures.
#
#######################################################################

data_FIKHUC
_chemical_formula_moiety         'C7 H4 N4'
_chemical_name_systematic        1,1,3,3-Tetracyanopropane
_symmetry_cell_setting           orthorhombic
_symmetry_space_group_name_H-M   'P b c n'
_symmetry_Int_Tables_number      60
_space_group_name_Hall           '-P 2n 2ab'
loop_
_symmetry_equiv_pos_site_id
_symmetry_equiv_pos_as_xyz
1 x,y,z
2 1/2-x,1/2-y,1/2+z
3 1/2+x,1/2-y,-z
4 -x,y,1/2-z
5 -x,-y,-z
6 1/2+x,1/2+y,1/2-z
7 1/2-x,1/2+y,z
8 x,-y,1/2+z
_cell_length_a                   7.158(2)
_cell_length_b                   10.510(3)
_cell_length_c                   9.733(2)
_cell_angle_alpha                90
_cell_angle_beta                 90
_cell_angle_gamma                90
_cell_volume                     732.219
_exptl_crystal_colour            white
_chemical_melting_point          132-135deg.C
_cell_formula_units_Z            4
loop_
_atom_site_label
_atom_site_type_symbol
_atom_site_fract_x
_atom_site_fract_y
_atom_site_fract_z
C1 C 0.5000 0.2802(3) 0.2500
C2 C 0.3409(3) 0.3619(2) 0.1889(2)
C3 C 0.2560(3) 0.4459(2) 0.2935(2)
C4 C 0.1972(3) 0.2760(2) 0.1293(2)
N1 N 0.1996(3) 0.5105(2) 0.3767(2)
N2 N 0.0912(3) 0.2076(2) 0.0847(2)
H1 H 0.446(3) 0.223(2) 0.326(2)
H2 H 0.390(3) 0.418(2) 0.109(2)
C2C C 0.6591(3) 0.3619(2) 0.3111(2)
H1C H 0.554(3) 0.223(2) 0.174(2)
C3C C 0.7440(3) 0.4459(2) 0.2065(2)
C4C C 0.8028(3) 0.2760(2) 0.3707(2)
H2C H 0.610(3) 0.418(2) 0.391(2)
N1C N 0.8004(3) 0.5105(2) 0.1233(2)
N2C N 0.9088(3) 0.2076(2) 0.4153(2)
loop_
_geom_bond_atom_site_label_1
_geom_bond_atom_site_label_2
_geom_bond_site_symmetry_1
_geom_bond_site_symmetry_2
C1 C2 1_555 1_555
C2 C3 1_555 1_555
C3 N1 1_555 1_555
C4 C2 1_555 1_555
N2 C4 1_555 1_555
H1 C1 1_555 1_555
H2 C2 1_555 1_555
C2C C1 1_555 1_555
H1C C1 1_555 1_555
C3C C2C 1_555 1_555
C4C C2C 1_555 1_555
H2C C2C 1_555 1_555
N1C C3C 1_555 1_555
N2C C4C 1_555 1_555

#END
