
#######################################################################
#
#                 Cambridge Crystallographic Data Centre
#                                CCDC 
#
#######################################################################
#
# If this CIF has been generated from an entry in the Cambridge 
# Structural Database, then it will include bibliographic, chemical, 
# crystal, experimental, refinement or atomic coordinate data resulting 
# from the CCDC's data processing and validation procedures.
#
#######################################################################

data_FIKJUH
_chemical_formula_moiety         'C20 H24 N4 Na1 O4 1+,C24 H20 B1 1-'
_chemical_name_systematic        
'bis(2,3,5,6-tetramethyl-1H,7H-pyrazolo[1,2-a]pyrazole-1,7-dione)-sodium tetraphenylborate'
_symmetry_cell_setting           monoclinic
_symmetry_space_group_name_H-M   'C 2/c'
_symmetry_Int_Tables_number      15
_space_group_name_Hall           '-C 2yn'
loop_
_symmetry_equiv_pos_site_id
_symmetry_equiv_pos_as_xyz
1 x,y,z
2 -x,y,1/2-z
3 1/2+x,1/2+y,z
4 1/2-x,1/2+y,1/2-z
5 -x,-y,-z
6 x,-y,1/2+z
7 1/2-x,1/2-y,-z
8 1/2+x,1/2-y,1/2+z
_cell_length_a                   17.48020(10)
_cell_length_b                   11.88610(10)
_cell_length_c                   19.0909(2)
_cell_angle_alpha                90
_cell_angle_beta                 110.4060(10)
_cell_angle_gamma                90
_cell_volume                     3717.62
_exptl_crystal_colour            'light green'
_exptl_crystal_description       prism
_cell_formula_units_Z            4
loop_
_atom_site_label
_atom_site_type_symbol
_atom_site_fract_x
_atom_site_fract_y
_atom_site_fract_z
Na1 Na 0.5000 0.91330(8) 0.7500
O1 O 0.55977(5) 0.86118(8) 0.66561(5)
O2 O 0.40616(5) 1.01340(8) 0.65432(5)
N1 N 0.45322(6) 0.93418(8) 0.56601(5)
N2 N 0.42284(6) 0.91859(8) 0.49010(5)
C1 C 0.52166(7) 0.86464(10) 0.59818(6)
C2 C 0.53323(7) 0.80857(10) 0.53543(7)
C3 C 0.47199(7) 0.84007(10) 0.47190(7)
C4 C 0.34559(7) 0.96712(10) 0.46222(7)
C5 C 0.32883(7) 1.01508(10) 0.52011(7)
C6 C 0.39586(7) 0.99186(10) 0.58893(7)
C7 C 0.60130(8) 0.72750(11) 0.54447(8)
H1 H 0.6526 0.7597 0.5780
H2 H 0.6059 0.7126 0.4956
H3 H 0.5901 0.6570 0.5657
C8 C 0.45463(8) 0.80422(11) 0.39351(7)
H4 H 0.4064 0.7555 0.3776
H5 H 0.5016 0.7628 0.3899
H6 H 0.4444 0.8707 0.3611
C9 C 0.29701(8) 0.96510(11) 0.38105(7)
H7 H 0.3259 1.0071 0.3538
H8 H 0.2436 0.9998 0.3724
H9 H 0.2894 0.8870 0.3634
C10 C 0.25723(8) 1.08438(11) 0.51894(8)
H10 H 0.2757 1.1601 0.5375
H11 H 0.2306 1.0493 0.5509
H12 H 0.2184 1.0893 0.4676
O1A O 0.44023(5) 0.86118(8) 0.83439(5)
O2A O 0.59384(5) 1.01340(8) 0.84568(5)
N1A N 0.54678(6) 0.93418(8) 0.93399(5)
N2A N 0.57716(6) 0.91859(8) 1.00990(5)
C1A C 0.47834(7) 0.86464(10) 0.90182(6)
C2A C 0.46677(7) 0.80857(10) 0.96457(7)
C3A C 0.52801(7) 0.84007(10) 1.02810(7)
C4A C 0.65441(7) 0.96712(10) 1.03778(7)
C5A C 0.67117(7) 1.01508(10) 0.97989(7)
C6A C 0.60414(7) 0.99186(10) 0.91107(7)
C7A C 0.39870(8) 0.72750(11) 0.95553(8)
H1A H 0.3474 0.7597 0.9220
H2A H 0.3941 0.7126 1.0044
H3A H 0.4099 0.6570 0.9343
C8A C 0.54537(8) 0.80422(11) 1.10649(7)
H4A H 0.5936 0.7555 1.1224
H5A H 0.4984 0.7628 1.1101
H6A H 0.5556 0.8707 1.1389
C9A C 0.70299(8) 0.96510(11) 1.11895(7)
H7A H 0.6741 1.0071 1.1462
H8A H 0.7564 0.9998 1.1276
H9A H 0.7106 0.8870 1.1366
C10A C 0.74277(8) 1.08438(11) 0.98106(8)
H10A H 0.7243 1.1601 0.9625
H11A H 0.7694 1.0493 0.9491
H12A H 0.7816 1.0893 1.0324
C11 C 0.45502(7) 0.57294(10) 0.67545(7)
C12 C 0.40810(8) 0.66726(11) 0.67951(8)
H13 H 0.4104 0.6934 0.7272
C13 C 0.35824(8) 0.72388(12) 0.61586(9)
H14 H 0.3265 0.7862 0.6208
C14 C 0.35496(8) 0.68954(12) 0.54552(8)
H15 H 0.3208 0.7275 0.5021
C15 C 0.40218(8) 0.59893(12) 0.53941(8)
H16 H 0.4017 0.5759 0.4916
C16 C 0.45036(8) 0.54145(11) 0.60330(7)
H17 H 0.4812 0.4785 0.5977
C17 C 0.42323(7) 0.42082(10) 0.75625(6)
C18 C 0.36996(7) 0.46367(11) 0.79072(7)
H18 H 0.3832 0.5332 0.8167
C19 C 0.29889(8) 0.40863(11) 0.78837(7)
H19 H 0.2650 0.4406 0.8127
C20 C 0.27719(7) 0.30688(11) 0.75057(7)
H20 H 0.2286 0.2691 0.7486
C21 C 0.32809(8) 0.26164(11) 0.71581(7)
H21 H 0.3143 0.1922 0.6898
C22 C 0.39925(7) 0.31780(11) 0.71902(6)
H22 H 0.4330 0.2849 0.6949
B1 B 0.5000 0.49562(17) 0.7500
C11A C 0.54498(7) 0.57294(10) 0.82455(7)
C12A C 0.59190(8) 0.66726(11) 0.82049(8)
H13A H 0.5896 0.6934 0.7728
C13A C 0.64176(8) 0.72388(12) 0.88414(9)
H14A H 0.6735 0.7862 0.8792
C14A C 0.64504(8) 0.68954(12) 0.95448(8)
H15A H 0.6792 0.7275 0.9979
C15A C 0.59782(8) 0.59893(12) 0.96059(8)
H16A H 0.5983 0.5759 1.0084
C16A C 0.54964(8) 0.54145(11) 0.89670(7)
H17A H 0.5188 0.4785 0.9023
C17A C 0.57677(7) 0.42082(10) 0.74375(6)
C18A C 0.63004(7) 0.46367(11) 0.70928(7)
H18A H 0.6168 0.5332 0.6833
C19A C 0.70111(8) 0.40863(11) 0.71163(7)
H19A H 0.7350 0.4406 0.6873
C20A C 0.72281(7) 0.30688(11) 0.74943(7)
H20A H 0.7714 0.2691 0.7514
C21A C 0.67191(8) 0.26164(11) 0.78419(7)
H21A H 0.6857 0.1922 0.8102
C22A C 0.60075(7) 0.31780(11) 0.78098(6)
H22A H 0.5670 0.2849 0.8051
loop_
_geom_bond_atom_site_label_1
_geom_bond_atom_site_label_2
_geom_bond_site_symmetry_1
_geom_bond_site_symmetry_2
Na1 O1 1_555 1_555
O1 C1 1_555 1_555
O2 Na1 1_555 1_555
N1 N2 1_555 1_555
N2 C3 1_555 1_555
C1 N1 1_555 1_555
C2 C1 1_555 1_555
C3 C2 1_555 1_555
C4 N2 1_555 1_555
C5 C4 1_555 1_555
C6 O2 1_555 1_555
C7 C2 1_555 1_555
H1 C7 1_555 1_555
H2 C7 1_555 1_555
H3 C7 1_555 1_555
C8 C3 1_555 1_555
H4 C8 1_555 1_555
H5 C8 1_555 1_555
H6 C8 1_555 1_555
C9 C4 1_555 1_555
H7 C9 1_555 1_555
H8 C9 1_555 1_555
H9 C9 1_555 1_555
C10 C5 1_555 1_555
H10 C10 1_555 1_555
H11 C10 1_555 1_555
H12 C10 1_555 1_555
C11 C12 1_555 1_555
C12 H13 1_555 1_555
C13 C12 1_555 1_555
H14 C13 1_555 1_555
C14 C13 1_555 1_555
H15 C14 1_555 1_555
C15 C14 1_555 1_555
H16 C15 1_555 1_555
C16 C11 1_555 1_555
H17 C16 1_555 1_555
C17 C18 1_555 1_555
C18 H18 1_555 1_555
C19 C18 1_555 1_555
H19 C19 1_555 1_555
C20 C19 1_555 1_555
H20 C20 1_555 1_555
C21 C20 1_555 1_555
H21 C21 1_555 1_555
C22 C17 1_555 1_555
H22 C22 1_555 1_555
B1 C11 1_555 1_555
O1A Na1 1_555 1_555
O2A Na1 1_555 1_555
N1A N2A 1_555 1_555
N2A C3A 1_555 1_555
C1A O1A 1_555 1_555
C2A C1A 1_555 1_555
C3A C2A 1_555 1_555
C4A N2A 1_555 1_555
C5A C4A 1_555 1_555
C6A O2A 1_555 1_555
C7A C2A 1_555 1_555
H1A C7A 1_555 1_555
H2A C7A 1_555 1_555
H3A C7A 1_555 1_555
C8A C3A 1_555 1_555
H4A C8A 1_555 1_555
H5A C8A 1_555 1_555
H6A C8A 1_555 1_555
C9A C4A 1_555 1_555
H7A C9A 1_555 1_555
H8A C9A 1_555 1_555
H9A C9A 1_555 1_555
C10A C5A 1_555 1_555
H10A C10A 1_555 1_555
H11A C10A 1_555 1_555
H12A C10A 1_555 1_555
C11A B1 1_555 1_555
C12A C11A 1_555 1_555
H13A C12A 1_555 1_555
C13A C12A 1_555 1_555
H14A C13A 1_555 1_555
C14A C13A 1_555 1_555
H15A C14A 1_555 1_555
C15A C14A 1_555 1_555
H16A C15A 1_555 1_555
C16A C11A 1_555 1_555
H17A C16A 1_555 1_555
C17A B1 1_555 1_555
C18A C17A 1_555 1_555
H18A C18A 1_555 1_555
C19A C18A 1_555 1_555
H19A C19A 1_555 1_555
C20A C19A 1_555 1_555
H20A C20A 1_555 1_555
C21A C20A 1_555 1_555
H21A C21A 1_555 1_555
C22A C17A 1_555 1_555
H22A C22A 1_555 1_555
N1 C6 1_555 1_555
C5 C6 1_555 1_555
C15 C16 1_555 1_555
C17 B1 1_555 1_555
C21 C22 1_555 1_555
N1A C1A 1_555 1_555
N1A C6A 1_555 1_555
C5A C6A 1_555 1_555
C15A C16A 1_555 1_555
C21A C22A 1_555 1_555

#END
