
#######################################################################
#
#                 Cambridge Crystallographic Data Centre
#                                CCDC 
#
#######################################################################
#
# If this CIF has been generated from an entry in the Cambridge 
# Structural Database, then it will include bibliographic, chemical, 
# crystal, experimental, refinement or atomic coordinate data resulting 
# from the CCDC's data processing and validation procedures.
#
#######################################################################

data_FIKJUH01
_chemical_formula_moiety         'C20 H24 N4 Na1 O4 1+,C24 H20 B1 1-'
_chemical_name_systematic        
'bis(2,3,5,6-tetramethyl-1H,7H-pyrazolo[1,2-a]pyrazole-1,7-dione)-sodium tetraphenylborate'
_symmetry_cell_setting           monoclinic
_symmetry_space_group_name_H-M   'C 2/c'
_symmetry_Int_Tables_number      15
_space_group_name_Hall           '-C 2yn'
loop_
_symmetry_equiv_pos_site_id
_symmetry_equiv_pos_as_xyz
1 x,y,z
2 -x,y,1/2-z
3 1/2+x,1/2+y,z
4 1/2-x,1/2+y,1/2-z
5 -x,-y,-z
6 x,-y,1/2+z
7 1/2-x,1/2-y,-z
8 1/2+x,1/2-y,1/2+z
_cell_length_a                   17.4616(3)
_cell_length_b                   11.90830(10)
_cell_length_c                   20.9140(3)
_cell_angle_alpha                90
_cell_angle_beta                 121.268(2)
_cell_angle_gamma                90
_cell_volume                     3717.14
_exptl_crystal_colour            yellow
_exptl_crystal_description       chunk
_cell_formula_units_Z            4
loop_
_atom_site_label
_atom_site_type_symbol
_atom_site_fract_x
_atom_site_fract_y
_atom_site_fract_z
Na1 Na 0.5000 0.66467(8) 0.7500
O1 O 0.49837(6) 0.76420(8) 0.65435(5)
O2 O 0.35572(6) 0.61215(8) 0.66543(5)
N1 N 0.36288(6) 0.68454(9) 0.56593(5)
N2 N 0.31730(7) 0.66874(9) 0.48987(5)
C1 C 0.44327(8) 0.74219(10) 0.58874(7)
C2 C 0.44150(8) 0.76530(10) 0.52009(7)
C3 C 0.36678(8) 0.71701(10) 0.46212(7)
C4 C 0.24985(8) 0.59037(10) 0.47165(7)
C5 C 0.25229(8) 0.55899(10) 0.53528(7)
C6 C 0.32666(8) 0.61550(10) 0.59803(6)
C7 C 0.51211(9) 0.83448(11) 0.51901(8)
H1 H 0.5123 0.9101 0.5376
H2 H 0.4996 0.8394 0.4677
H3 H 0.5708 0.7994 0.5510
C8 C 0.33430(9) 0.71480(12) 0.38098(7)
H4 H 0.3245 0.6368 0.3635
H5 H 0.3791 0.7496 0.3724
H6 H 0.2778 0.7565 0.3535
C9 C 0.18887(9) 0.55434(12) 0.39331(7)
H7 H 0.1667 0.6205 0.3608
H8 H 0.1382 0.5131 0.3897
H9 H 0.2214 0.5055 0.3776
C10 C 0.19317(9) 0.47801(12) 0.54429(8)
H10 H 0.2253 0.4071 0.5646
H11 H 0.1390 0.4642 0.4955
H12 H 0.1764 0.5096 0.5786
O1A O 0.50163(6) 0.76420(8) 0.84565(5)
O2A O 0.64428(6) 0.61215(8) 0.83457(5)
N1A N 0.63712(6) 0.68454(9) 0.93407(5)
N2A N 0.68270(7) 0.66874(9) 1.01013(5)
C1A C 0.55673(8) 0.74219(10) 0.91126(7)
C2A C 0.55850(8) 0.76530(10) 0.97991(7)
C3A C 0.63322(8) 0.71701(10) 1.03788(7)
C4A C 0.75015(8) 0.59037(10) 1.02835(7)
C5A C 0.74771(8) 0.55899(10) 0.96472(7)
C6A C 0.67334(8) 0.61550(10) 0.90197(6)
C7A C 0.48789(9) 0.83448(11) 0.98099(8)
H1A H 0.4877 0.9101 0.9624
H2A H 0.5004 0.8394 1.0323
H3A H 0.4292 0.7994 0.9490
C8A C 0.66570(9) 0.71480(12) 1.11902(7)
H4A H 0.6755 0.6368 1.1365
H5A H 0.6209 0.7496 1.1276
H6A H 0.7222 0.7565 1.1465
C9A C 0.81113(9) 0.55434(12) 1.10669(7)
H7A H 0.8333 0.6205 1.1392
H8A H 0.8618 0.5131 1.1103
H9A H 0.7786 0.5055 1.1224
C10A C 0.80683(9) 0.47801(12) 0.95571(8)
H10A H 0.7747 0.4071 0.9354
H11A H 0.8610 0.4642 1.0045
H12A H 0.8236 0.5096 0.9214
C11 C 0.47046(8) 0.32349(11) 0.67555(7)
C12 C 0.52114(9) 0.41778(11) 0.67941(8)
H13 H 0.5665 0.4441 0.7272
C13 C 0.50752(10) 0.47414(12) 0.61590(9)
H14 H 0.5443 0.5364 0.6209
C14 C 0.44037(10) 0.43956(13) 0.54537(9)
H15 H 0.4310 0.4774 0.5019
C15 C 0.38716(10) 0.34905(13) 0.53923(8)
H16 H 0.3398 0.3259 0.4914
C16 C 0.40289(9) 0.29180(12) 0.60317(7)
H17 H 0.3664 0.2289 0.5975
C17 C 0.41678(8) 0.17149(10) 0.74363(6)
C18 C 0.32901(8) 0.21420(11) 0.70900(7)
H18 H 0.3162 0.2835 0.6829
C19 C 0.26007(8) 0.15914(12) 0.71134(7)
H19 H 0.2017 0.1910 0.6870
C20 C 0.27642(9) 0.05776(12) 0.74924(7)
H20 H 0.2298 0.0200 0.7512
C21 C 0.36216(9) 0.01269(11) 0.78415(7)
H21 H 0.3745 -0.0566 0.8102
C22 C 0.43022(8) 0.06889(11) 0.78105(7)
H22 H 0.4883 0.0363 0.8053
B1 B 0.5000 0.24617(17) 0.7500
C11A C 0.52954(8) 0.32349(11) 0.82445(7)
C12A C 0.47886(9) 0.41778(11) 0.82059(8)
H13A H 0.4335 0.4441 0.7728
C13A C 0.49248(10) 0.47414(12) 0.88410(9)
H14A H 0.4557 0.5364 0.8791
C14A C 0.55963(10) 0.43956(13) 0.95463(9)
H15A H 0.5690 0.4774 0.9981
C15A C 0.61284(10) 0.34905(13) 0.96077(8)
H16A H 0.6602 0.3259 1.0086
C16A C 0.59711(9) 0.29180(12) 0.89683(7)
H17A H 0.6336 0.2289 0.9025
C17A C 0.58322(8) 0.17149(10) 0.75637(6)
C18A C 0.67099(8) 0.21420(11) 0.79100(7)
H18A H 0.6838 0.2835 0.8171
C19A C 0.73993(8) 0.15914(12) 0.78866(7)
H19A H 0.7983 0.1910 0.8130
C20A C 0.72358(9) 0.05776(12) 0.75076(7)
H20A H 0.7702 0.0200 0.7488
C21A C 0.63784(9) 0.01269(11) 0.71585(7)
H21A H 0.6255 -0.0566 0.6898
C22A C 0.56978(8) 0.06889(11) 0.71895(7)
H22A H 0.5117 0.0363 0.6947
loop_
_geom_bond_atom_site_label_1
_geom_bond_atom_site_label_2
_geom_bond_site_symmetry_1
_geom_bond_site_symmetry_2
Na1 O1 1_555 1_555
O1 C1 1_555 1_555
O2 Na1 1_555 1_555
N1 N2 1_555 1_555
N2 C3 1_555 1_555
C1 N1 1_555 1_555
C2 C1 1_555 1_555
C3 C2 1_555 1_555
C4 N2 1_555 1_555
C5 C4 1_555 1_555
C6 O2 1_555 1_555
C7 C2 1_555 1_555
H1 C7 1_555 1_555
H2 C7 1_555 1_555
H3 C7 1_555 1_555
C8 C3 1_555 1_555
H4 C8 1_555 1_555
H5 C8 1_555 1_555
H6 C8 1_555 1_555
C9 C4 1_555 1_555
H7 C9 1_555 1_555
H8 C9 1_555 1_555
H9 C9 1_555 1_555
C10 C5 1_555 1_555
H10 C10 1_555 1_555
H11 C10 1_555 1_555
H12 C10 1_555 1_555
C11 C12 1_555 1_555
C12 H13 1_555 1_555
C13 C12 1_555 1_555
H14 C13 1_555 1_555
C14 C13 1_555 1_555
H15 C14 1_555 1_555
C15 C14 1_555 1_555
H16 C15 1_555 1_555
C16 C11 1_555 1_555
H17 C16 1_555 1_555
C17 C18 1_555 1_555
C18 H18 1_555 1_555
C19 C18 1_555 1_555
H19 C19 1_555 1_555
C20 C19 1_555 1_555
H20 C20 1_555 1_555
C21 C20 1_555 1_555
H21 C21 1_555 1_555
C22 C17 1_555 1_555
H22 C22 1_555 1_555
B1 C11 1_555 1_555
O1A Na1 1_555 1_555
O2A Na1 1_555 1_555
N1A N2A 1_555 1_555
N2A C3A 1_555 1_555
C1A O1A 1_555 1_555
C2A C1A 1_555 1_555
C3A C2A 1_555 1_555
C4A N2A 1_555 1_555
C5A C4A 1_555 1_555
C6A O2A 1_555 1_555
C7A C2A 1_555 1_555
H1A C7A 1_555 1_555
H2A C7A 1_555 1_555
H3A C7A 1_555 1_555
C8A C3A 1_555 1_555
H4A C8A 1_555 1_555
H5A C8A 1_555 1_555
H6A C8A 1_555 1_555
C9A C4A 1_555 1_555
H7A C9A 1_555 1_555
H8A C9A 1_555 1_555
H9A C9A 1_555 1_555
C10A C5A 1_555 1_555
H10A C10A 1_555 1_555
H11A C10A 1_555 1_555
H12A C10A 1_555 1_555
C11A B1 1_555 1_555
C12A C11A 1_555 1_555
H13A C12A 1_555 1_555
C13A C12A 1_555 1_555
H14A C13A 1_555 1_555
C14A C13A 1_555 1_555
H15A C14A 1_555 1_555
C15A C14A 1_555 1_555
H16A C15A 1_555 1_555
C16A C11A 1_555 1_555
H17A C16A 1_555 1_555
C17A B1 1_555 1_555
C18A C17A 1_555 1_555
H18A C18A 1_555 1_555
C19A C18A 1_555 1_555
H19A C19A 1_555 1_555
C20A C19A 1_555 1_555
H20A C20A 1_555 1_555
C21A C20A 1_555 1_555
H21A C21A 1_555 1_555
C22A C17A 1_555 1_555
H22A C22A 1_555 1_555
N1 C6 1_555 1_555
C5 C6 1_555 1_555
C15 C16 1_555 1_555
C17 B1 1_555 1_555
C21 C22 1_555 1_555
N1A C1A 1_555 1_555
N1A C6A 1_555 1_555
C5A C6A 1_555 1_555
C15A C16A 1_555 1_555
C21A C22A 1_555 1_555

#END
