
#######################################################################
#
#                 Cambridge Crystallographic Data Centre
#                                CCDC 
#
#######################################################################
#
# If this CIF has been generated from an entry in the Cambridge 
# Structural Database, then it will include bibliographic, chemical, 
# crystal, experimental, refinement or atomic coordinate data resulting 
# from the CCDC's data processing and validation procedures.
#
#######################################################################

data_FIKKIW
_chemical_formula_moiety         'C60 H72 N12 Na2 O12 2+,2(C24 H20 B1 1-)'
_chemical_name_systematic        
'tetrakis(\m-2,3,5,6-tetramethyl-1H,7H-pyrazolo[1,2-a]pyrazole-1,7-dione)-bis(2,3,5,6-tetramethyl-1H,7H-pyrazolo[1,2-a]pyrazole-1,7-dione)-di-sodium bis(tetraphenylborate)'
_symmetry_cell_setting           monoclinic
_symmetry_space_group_name_H-M   'P 21/n'
_symmetry_Int_Tables_number      14
_space_group_name_Hall           '-P 2yn'
loop_
_symmetry_equiv_pos_site_id
_symmetry_equiv_pos_as_xyz
1 x,y,z
2 1/2-x,1/2+y,1/2-z
3 -x,-y,-z
4 1/2+x,1/2-y,1/2+z
_cell_length_a                   15.2728(2)
_cell_length_b                   10.34190(10)
_cell_length_c                   30.0963(3)
_cell_angle_alpha                90
_cell_angle_beta                 98.5130(10)
_cell_angle_gamma                90
_cell_volume                     4701.33
_exptl_crystal_colour            'light yellow'
_exptl_crystal_description       plate
_cell_formula_units_Z            2
loop_
_atom_site_label
_atom_site_type_symbol
_atom_site_fract_x
_atom_site_fract_y
_atom_site_fract_z
Na1 Na 0.40032(4) 0.48021(6) -0.02127(2)
O1 O 0.45075(7) 0.56246(11) 0.05767(3)
O2 O 0.64772(7) 0.47525(11) 0.09680(3)
O3 O 0.49460(7) 0.67436(10) -0.02416(3)
O4 O 0.67564(7) 0.72200(11) 0.04229(4)
O5 O 0.25464(7) 0.54274(11) -0.01374(4)
O6 O 0.21355(8) 0.29321(12) 0.04317(4)
N1 N 0.52532(8) 0.53485(14) 0.12989(4)
N2 N 0.50143(9) 0.52008(14) 0.17226(4)
N3 N 0.58958(9) 0.84837(13) -0.01073(4)
N4 N 0.59411(9) 0.97144(13) -0.02725(4)
N5 N 0.14173(16) 0.3862(3) -0.02351(10)
N6 N 0.05781(16) 0.3793(3) -0.04818(9)
C1 C 0.44873(10) 0.54831(14) 0.09793(5)
C2 C 0.37597(10) 0.54551(15) 0.12402(5)
C3 C 0.40947(10) 0.52478(15) 0.16791(5)
C4 C 0.56901(10) 0.45350(15) 0.19905(5)
C5 C 0.63608(10) 0.43136(15) 0.17505(5)
C6 C 0.60977(10) 0.47818(15) 0.12963(5)
C7 C 0.28167(11) 0.56310(19) 0.10404(6)
H1 H 0.2720 0.6531 0.0972
H2 H 0.2439 0.5362 0.1251
H3 H 0.2684 0.5133 0.0770
C8 C 0.36275(11) 0.51612(18) 0.20782(5)
H4 H 0.3670 0.4276 0.2195
H5 H 0.3003 0.5392 0.1991
H6 H 0.3902 0.5758 0.2311
C9 C 0.56186(11) 0.42398(17) 0.24646(5)
H7 H 0.5472 0.5031 0.2617
H8 H 0.6184 0.3897 0.2615
H9 H 0.5152 0.3595 0.2476
C10 C 0.72465(10) 0.37177(17) 0.18955(5)
H10 H 0.7318 0.2963 0.1707
H11 H 0.7293 0.3447 0.2210
H12 H 0.7711 0.4351 0.1865
C11 C 0.51469(9) 0.78550(14) -0.03313(5)
C12 C 0.47352(10) 0.87928(15) -0.06517(5)
C13 C 0.52324(10) 0.98957(15) -0.06094(5)
C14 C 0.67035(10) 1.02949(15) -0.00552(5)
C15 C 0.71350(10) 0.94388(15) 0.02443(5)
C16 C 0.66320(10) 0.82338(15) 0.02195(5)
C17 C 0.39306(11) 0.85180(17) -0.09810(5)
H13 H 0.4106 0.8184 -0.1259
H14 H 0.3589 0.9316 -0.1045
H15 H 0.3566 0.7873 -0.0855
C18 C 0.51040(11) 1.11239(16) -0.08665(5)
H16 H 0.5124 1.1853 -0.0657
H17 H 0.4528 1.1109 -0.1060
H18 H 0.5575 1.1221 -0.1052
C19 C 0.69266(11) 1.16443(16) -0.01608(6)
H19 H 0.7037 1.1695 -0.0473
H20 H 0.7458 1.1916 0.0041
H21 H 0.6432 1.2214 -0.0120
C20 C 0.79777(11) 0.96059(17) 0.05615(6)
H22 H 0.7851 0.9598 0.0871
H23 H 0.8252 1.0432 0.0501
H24 H 0.8384 0.8897 0.0520
C21 C 0.18008(10) 0.51059(16) -0.03032(5)
C22 C 0.11866(10) 0.56371(15) -0.06683(5)
C23 C 0.04169(10) 0.49777(16) -0.07094(6)
C24 C 0.00700(10) 0.29994(17) -0.02303(6)
C25 C 0.06170(10) 0.24379(15) 0.01080(5)
C26 C 0.14603(11) 0.31136(17) 0.01738(6)
C27 C 0.14242(13) 0.6735(2) -0.09389(7)
H25 H 0.1234 0.7545 -0.0813
H26 H 0.1130 0.6640 -0.1249
H27 H 0.2067 0.6752 -0.0934
C28 C -0.04214(10) 0.51761(17) -0.10241(5)
H28 H -0.0344 0.5884 -0.1231
H29 H -0.0899 0.5393 -0.0853
H30 H -0.0573 0.4381 -0.1196
C29 C -0.08519(10) 0.26697(18) -0.04306(6)
H31 H -0.1244 0.3396 -0.0389
H32 H -0.1046 0.1900 -0.0282
H33 H -0.0873 0.2497 -0.0752
C30 C 0.04536(15) 0.1327(2) 0.04014(7)
H34 H 0.0516 0.1617 0.0715
H35 H 0.0884 0.0641 0.0373
H36 H -0.0147 0.0995 0.0309
Na1B Na 0.59968(4) 0.51979(6) 0.02127(2)
O1B O 0.54925(7) 0.43754(11) -0.05767(3)
O2B O 0.35228(7) 0.52475(11) -0.09680(3)
O3B O 0.50540(7) 0.32564(10) 0.02416(3)
O4B O 0.32436(7) 0.27800(11) -0.04229(4)
O5B O 0.74536(7) 0.45726(11) 0.01374(4)
O6B O 0.78645(8) 0.70679(12) -0.04317(4)
N1B N 0.47468(8) 0.46515(14) -0.12989(4)
N2B N 0.49857(9) 0.47992(14) -0.17226(4)
N3B N 0.41042(9) 0.15163(13) 0.01073(4)
N4B N 0.40589(9) 0.02856(13) 0.02725(4)
N5B N 0.85827(16) 0.6138(3) 0.02351(10)
N6B N 0.94219(16) 0.6207(3) 0.04818(9)
C1B C 0.55127(10) 0.45169(14) -0.09793(5)
C2B C 0.62403(10) 0.45449(15) -0.12402(5)
C3B C 0.59053(10) 0.47522(15) -0.16791(5)
C4B C 0.43099(10) 0.54650(15) -0.19905(5)
C5B C 0.36392(10) 0.56864(15) -0.17505(5)
C6B C 0.39023(10) 0.52182(15) -0.12963(5)
C7B C 0.71833(11) 0.43690(19) -0.10404(6)
H1B H 0.7280 0.3469 -0.0972
H2B H 0.7561 0.4638 -0.1251
H3B H 0.7316 0.4867 -0.0770
C8B C 0.63725(11) 0.48388(18) -0.20782(5)
H4B H 0.6330 0.5724 -0.2195
H5B H 0.6997 0.4608 -0.1991
H6B H 0.6098 0.4242 -0.2311
C9B C 0.43814(11) 0.57602(17) -0.24646(5)
H7B H 0.4528 0.4969 -0.2617
H8B H 0.3816 0.6103 -0.2615
H9B H 0.4848 0.6405 -0.2476
C10B C 0.27535(10) 0.62823(17) -0.18955(5)
H10B H 0.2682 0.7037 -0.1707
H11B H 0.2707 0.6553 -0.2210
H12B H 0.2289 0.5649 -0.1865
C11B C 0.48531(9) 0.21450(14) 0.03313(5)
C12B C 0.52648(10) 0.12072(15) 0.06517(5)
C13B C 0.47676(10) 0.01043(15) 0.06094(5)
C14B C 0.32965(10) -0.02949(15) 0.00552(5)
C15B C 0.28650(10) 0.05612(15) -0.02443(5)
C16B C 0.33680(10) 0.17662(15) -0.02195(5)
C17B C 0.60694(11) 0.14820(17) 0.09810(5)
H13B H 0.5894 0.1816 0.1259
H14B H 0.6411 0.0684 0.1045
H15B H 0.6434 0.2127 0.0855
C18B C 0.48960(11) -0.11239(16) 0.08665(5)
H16B H 0.4876 -0.1853 0.0657
H17B H 0.5472 -0.1109 0.1060
H18B H 0.4425 -0.1221 0.1052
C19B C 0.30734(11) -0.16443(16) 0.01608(6)
H19B H 0.2963 -0.1695 0.0473
H20B H 0.2542 -0.1916 -0.0041
H21B H 0.3568 -0.2214 0.0120
C20B C 0.20223(11) 0.03941(17) -0.05615(6)
H22B H 0.2149 0.0402 -0.0871
H23B H 0.1748 -0.0432 -0.0501
H24B H 0.1616 0.1103 -0.0520
C21B C 0.81992(10) 0.48941(16) 0.03032(5)
C22B C 0.88134(10) 0.43629(15) 0.06683(5)
C23B C 0.95831(10) 0.50223(16) 0.07094(6)
C24B C 0.99300(10) 0.70006(17) 0.02303(6)
C25B C 0.93830(10) 0.75621(15) -0.01080(5)
C26B C 0.85397(11) 0.68864(17) -0.01738(6)
C27B C 0.85758(13) 0.3265(2) 0.09389(7)
H25B H 0.8766 0.2455 0.0813
H26B H 0.8870 0.3360 0.1249
H27B H 0.7933 0.3248 0.0934
C28B C 1.04214(10) 0.48239(17) 0.10241(5)
H28B H 1.0344 0.4116 0.1231
H29B H 1.0899 0.4607 0.0853
H30B H 1.0573 0.5619 0.1196
C29B C 1.08519(10) 0.73303(18) 0.04306(6)
H31B H 1.1244 0.6604 0.0389
H32B H 1.1046 0.8100 0.0282
H33B H 1.0873 0.7503 0.0752
C30B C 0.95464(15) 0.8673(2) -0.04014(7)
H34B H 0.9484 0.8383 -0.0715
H35B H 0.9116 0.9359 -0.0373
H36B H 1.0147 0.9005 -0.0309
C31 C 0.05200(10) 0.35577(15) 0.22768(5)
C32 C -0.00799(10) 0.26497(15) 0.20625(5)
H37 H -0.0682 0.2698 0.2106
C33 C 0.01750(11) 0.16766(16) 0.17868(5)
H38 H -0.0253 0.1081 0.1647
C34 C 0.10448(11) 0.15731(17) 0.17151(5)
H39 H 0.1221 0.0902 0.1532
C35 C 0.16574(11) 0.24657(18) 0.19157(5)
H40 H 0.2257 0.2415 0.1867
C36 C 0.13949(10) 0.34342(17) 0.21881(5)
H41 H 0.1825 0.4039 0.2320
C37 C 0.09360(10) 0.50763(15) 0.30262(5)
C38 C 0.15752(10) 0.42022(17) 0.32260(5)
H42 H 0.1633 0.3392 0.3084
C39 C 0.21321(10) 0.44783(18) 0.36266(5)
H43 H 0.2560 0.3860 0.3751
C40 C 0.20649(11) 0.56446(18) 0.38437(5)
H44 H 0.2448 0.5837 0.4114
C41 C 0.14295(11) 0.65280(17) 0.36607(5)
H45 H 0.1369 0.7328 0.3808
C42 C 0.08810(10) 0.62436(16) 0.32617(5)
H46 H 0.0450 0.6864 0.3143
C43 C 0.01843(10) 0.60070(15) 0.22154(5)
C44 C -0.05576(11) 0.62402(16) 0.18897(5)
H47 H -0.1064 0.5705 0.1887
C45 C -0.05854(12) 0.72195(17) 0.15705(5)
H48 H -0.1105 0.7350 0.1359
C46 C 0.01498(13) 0.80059(17) 0.15619(6)
H49 H 0.0135 0.8684 0.1348
C47 C 0.09064(12) 0.77891(17) 0.18695(6)
H50 H 0.1417 0.8309 0.1863
C48 C 0.09177(11) 0.68080(16) 0.21882(5)
H51 H 0.1443 0.6676 0.2395
C49 C -0.07135(10) 0.45165(15) 0.27603(5)
C50 C -0.08586(10) 0.33258(16) 0.29599(5)
H52 H -0.0427 0.2665 0.2959
C51 C -0.16072(11) 0.30663(17) 0.31593(5)
H53 H -0.1678 0.2244 0.3290
C52 C -0.22489(10) 0.40119(18) 0.31655(5)
H54 H -0.2762 0.3845 0.3300
C53 C -0.21306(10) 0.52008(17) 0.29736(5)
H55 H -0.2567 0.5855 0.2975
C54 C -0.13725(10) 0.54481(16) 0.27779(5)
H56 H -0.1302 0.6278 0.2652
B1 B 0.02265(11) 0.47863(17) 0.25689(6)
N7? N 0.12639(18) 0.4345(3) -0.00467(10)
N8? N 0.04167(18) 0.4270(3) -0.02897(10)
loop_
_geom_bond_atom_site_label_1
_geom_bond_atom_site_label_2
_geom_bond_site_symmetry_1
_geom_bond_site_symmetry_2
Na1 O1 1_555 1_555
O1 C1 1_555 1_555
O2 C6 1_555 1_555
O3 Na1 1_555 1_555
O4 C16 1_555 1_555
O5 Na1 1_555 1_555
O6 C26 1_555 1_555
N1 N2 1_555 1_555
N2 C3 1_555 1_555
N3 N4 1_555 1_555
N4 C13 1_555 1_555
N5 N6 1_555 1_555
N6 C23 1_555 1_555
C1 N1 1_555 1_555
C2 C1 1_555 1_555
C3 C2 1_555 1_555
C4 N2 1_555 1_555
C5 C4 1_555 1_555
C6 N1 1_555 1_555
C7 C2 1_555 1_555
H1 C7 1_555 1_555
H2 C7 1_555 1_555
H3 C7 1_555 1_555
C8 C3 1_555 1_555
H4 C8 1_555 1_555
H5 C8 1_555 1_555
H6 C8 1_555 1_555
C9 C4 1_555 1_555
H7 C9 1_555 1_555
H8 C9 1_555 1_555
H9 C9 1_555 1_555
C10 C5 1_555 1_555
H10 C10 1_555 1_555
H11 C10 1_555 1_555
H12 C10 1_555 1_555
C11 O3 1_555 1_555
C12 C11 1_555 1_555
C13 C12 1_555 1_555
C14 N4 1_555 1_555
C15 C14 1_555 1_555
C16 N3 1_555 1_555
C17 C12 1_555 1_555
H13 C17 1_555 1_555
H14 C17 1_555 1_555
H15 C17 1_555 1_555
C18 C13 1_555 1_555
H16 C18 1_555 1_555
H17 C18 1_555 1_555
H18 C18 1_555 1_555
C19 C14 1_555 1_555
H19 C19 1_555 1_555
H20 C19 1_555 1_555
H21 C19 1_555 1_555
C20 C15 1_555 1_555
H22 C20 1_555 1_555
H23 C20 1_555 1_555
H24 C20 1_555 1_555
C21 O5 1_555 1_555
C22 C21 1_555 1_555
C23 C22 1_555 1_555
C24 N6 1_555 1_555
C25 C24 1_555 1_555
C26 N5 1_555 1_555
C27 C22 1_555 1_555
H25 C27 1_555 1_555
H26 C27 1_555 1_555
H27 C27 1_555 1_555
C28 C23 1_555 1_555
H28 C28 1_555 1_555
H29 C28 1_555 1_555
H30 C28 1_555 1_555
C29 C24 1_555 1_555
H31 C29 1_555 1_555
H32 C29 1_555 1_555
H33 C29 1_555 1_555
C30 C25 1_555 1_555
H34 C30 1_555 1_555
H35 C30 1_555 1_555
H36 C30 1_555 1_555
C31 C32 1_555 1_555
C32 H37 1_555 1_555
C33 C32 1_555 1_555
H38 C33 1_555 1_555
C34 C33 1_555 1_555
H39 C34 1_555 1_555
C35 C34 1_555 1_555
H40 C35 1_555 1_555
C36 C31 1_555 1_555
H41 C36 1_555 1_555
C37 C38 1_555 1_555
C38 H42 1_555 1_555
C39 C38 1_555 1_555
H43 C39 1_555 1_555
C40 C39 1_555 1_555
H44 C40 1_555 1_555
C41 C40 1_555 1_555
H45 C41 1_555 1_555
C42 C37 1_555 1_555
H46 C42 1_555 1_555
C43 C44 1_555 1_555
C44 H47 1_555 1_555
C45 C44 1_555 1_555
H48 C45 1_555 1_555
C46 C45 1_555 1_555
H49 C46 1_555 1_555
C47 C46 1_555 1_555
H50 C47 1_555 1_555
C48 C43 1_555 1_555
H51 C48 1_555 1_555
C49 C50 1_555 1_555
C50 H52 1_555 1_555
C51 C50 1_555 1_555
H53 C51 1_555 1_555
C52 C51 1_555 1_555
H54 C52 1_555 1_555
C53 C52 1_555 1_555
H55 C53 1_555 1_555
C54 C49 1_555 1_555
H56 C54 1_555 1_555
B1 C31 1_555 1_555
Na1B O1 1_555 1_555
O1B Na1 1_555 1_555
O2B Na1 1_555 1_555
O3B Na1 1_555 1_555
O4B Na1 1_555 1_555
O5B Na1B 1_555 1_555
O6B C26B 1_555 1_555
N1B N2B 1_555 1_555
N2B C3B 1_555 1_555
N3B N4B 1_555 1_555
N4B C13B 1_555 1_555
N5B N6B 1_555 1_555
N6B C23B 1_555 1_555
C1B O1B 1_555 1_555
C2B C1B 1_555 1_555
C3B C2B 1_555 1_555
C4B N2B 1_555 1_555
C5B C4B 1_555 1_555
C6B O2B 1_555 1_555
C7B C2B 1_555 1_555
H1B C7B 1_555 1_555
H2B C7B 1_555 1_555
H3B C7B 1_555 1_555
C8B C3B 1_555 1_555
H4B C8B 1_555 1_555
H5B C8B 1_555 1_555
H6B C8B 1_555 1_555
C9B C4B 1_555 1_555
H7B C9B 1_555 1_555
H8B C9B 1_555 1_555
H9B C9B 1_555 1_555
C10B C5B 1_555 1_555
H10B C10B 1_555 1_555
H11B C10B 1_555 1_555
H12B C10B 1_555 1_555
C11B O3B 1_555 1_555
C12B C11B 1_555 1_555
C13B C12B 1_555 1_555
C14B N4B 1_555 1_555
C15B C14B 1_555 1_555
C16B O4B 1_555 1_555
C17B C12B 1_555 1_555
H13B C17B 1_555 1_555
H14B C17B 1_555 1_555
H15B C17B 1_555 1_555
C18B C13B 1_555 1_555
H16B C18B 1_555 1_555
H17B C18B 1_555 1_555
H18B C18B 1_555 1_555
C19B C14B 1_555 1_555
H19B C19B 1_555 1_555
H20B C19B 1_555 1_555
H21B C19B 1_555 1_555
C20B C15B 1_555 1_555
H22B C20B 1_555 1_555
H23B C20B 1_555 1_555
H24B C20B 1_555 1_555
C21B O5B 1_555 1_555
C22B C21B 1_555 1_555
C23B C22B 1_555 1_555
C24B N6B 1_555 1_555
C25B C24B 1_555 1_555
C26B N5B 1_555 1_555
C27B C22B 1_555 1_555
H25B C27B 1_555 1_555
H26B C27B 1_555 1_555
H27B C27B 1_555 1_555
C28B C23B 1_555 1_555
H28B C28B 1_555 1_555
H29B C28B 1_555 1_555
H30B C28B 1_555 1_555
C29B C24B 1_555 1_555
H31B C29B 1_555 1_555
H32B C29B 1_555 1_555
H33B C29B 1_555 1_555
C30B C25B 1_555 1_555
H34B C30B 1_555 1_555
H35B C30B 1_555 1_555
H36B C30B 1_555 1_555
O2 Na1B 1_555 1_555
O3 Na1B 1_555 1_555
O4 Na1B 1_555 1_555
N3 C11 1_555 1_555
N5 C21 1_555 1_555
C5 C6 1_555 1_555
C15 C16 1_555 1_555
C25 C26 1_555 1_555
C35 C36 1_555 1_555
C37 B1 1_555 1_555
C41 C42 1_555 1_555
C43 B1 1_555 1_555
C47 C48 1_555 1_555
C49 B1 1_555 1_555
C53 C54 1_555 1_555
Na1B O1B 1_555 1_555
Na1B O3B 1_555 1_555
N1B C1B 1_555 1_555
N1B C6B 1_555 1_555
N3B C11B 1_555 1_555
N3B C16B 1_555 1_555
N5B C21B 1_555 1_555
C5B C6B 1_555 1_555
C15B C16B 1_555 1_555
C25B C26B 1_555 1_555

#END
