
#######################################################################
#
#                 Cambridge Crystallographic Data Centre
#                                CCDC 
#
#######################################################################
#
# If this CIF has been generated from an entry in the Cambridge 
# Structural Database, then it will include bibliographic, chemical, 
# crystal, experimental, refinement or atomic coordinate data resulting 
# from the CCDC's data processing and validation procedures.
#
#######################################################################

data_FIKKES
_chemical_formula_moiety         
'C44 H54 N10 Na2 O8 2+,2(C24 H20 B1 1-),2(C2 H3 N1)'
_chemical_name_systematic        
'bis(\m-2,3,5,6-tetramethyl-1H,7H-pyrazolo[1,2-a]pyrazole-1,7-dione)-bis(acetonitrile)-bis(2,3,5,6-tetramethyl-1H,7H-pyrazolo[1,2-a]pyrazole-1,7-dione)-di-sodium bis(tetraphenylborate) acetonitrile solvate'
_symmetry_cell_setting           monoclinic
_symmetry_space_group_name_H-M   'P c'
_symmetry_Int_Tables_number      7
_space_group_name_Hall           'P -2yc'
loop_
_symmetry_equiv_pos_site_id
_symmetry_equiv_pos_as_xyz
1 x,y,z
2 x,-y,1/2+z
_cell_length_a                   14.8036(3)
_cell_length_b                   10.3215(2)
_cell_length_c                   28.7105(6)
_cell_angle_alpha                90
_cell_angle_beta                 91.843(2)
_cell_angle_gamma                90
_cell_volume                     4384.56
_exptl_crystal_colour            yellow
_exptl_crystal_description       needle
_cell_formula_units_Z            2
loop_
_atom_site_label
_atom_site_type_symbol
_atom_site_fract_x
_atom_site_fract_y
_atom_site_fract_z
Na1 Na 0.3892(2) 0.7914(3) 0.57440(12)
Na2 Na 0.6208(2) 0.7115(3) 0.58141(9)
O1 O 0.6786(4) 0.5021(6) 0.5604(2)
O2 O 0.4773(4) 0.6027(5) 0.5568(2)
O3 O 0.5325(4) 0.8985(6) 0.5969(2)
O4 O 0.3296(4) 0.9949(6) 0.5953(2)
O5 O 0.5736(4) 0.6555(6) 0.65756(18)
O6 O 0.7626(4) 0.7284(5) 0.62232(19)
O7 O 0.4378(4) 0.8411(6) 0.4985(2)
O8 O 0.2429(4) 0.7791(7) 0.5332(2)
N1 N 0.5451(9) 0.4182(15) 0.5324(7)
N2 N 0.5188(10) 0.3060(15) 0.5138(8)
N3 N 0.4696(9) 1.0952(11) 0.6066(6)
N4 N 0.4944(9) 1.2243(13) 0.6256(6)
N5 N 0.7163(7) 0.6409(11) 0.6907(3)
N6 N 0.7505(5) 0.6341(7) 0.7348(3)
N7 N 0.2935(4) 0.8570(6) 0.4637(2)
N8 N 0.2593(5) 0.8594(7) 0.4172(2)
N9 N 0.7005(7) 0.8057(8) 0.5181(3)
N10 N 0.3065(6) 0.6959(9) 0.6383(3)
C1 C 0.6366(7) 0.4095(9) 0.5441(3)
C2 C 0.6616(6) 0.2832(9) 0.5277(3)
C3 C 0.5928(7) 0.2182(10) 0.5139(4)
C4 C 0.4248(7) 0.2995(10) 0.5131(4)
C5 C 0.3937(6) 0.4153(9) 0.5253(3)
C6 C 0.4688(6) 0.4910(9) 0.5420(3)
C7 C 0.7630(7) 0.2418(12) 0.5285(4)
H1 H 0.8010 0.3184 0.5242
H2 H 0.7728 0.1799 0.5033
H3 H 0.7789 0.2012 0.5585
C8 C 0.5821(9) 0.0841(9) 0.4924(4)
H4 H 0.6416 0.0503 0.4847
H5 H 0.5437 0.0898 0.4641
H6 H 0.5540 0.0259 0.5147
C9 C 0.3736(6) 0.1850(9) 0.4916(4)
H7 H 0.3088 0.2044 0.4901
H8 H 0.3844 0.1077 0.5108
H9 H 0.3946 0.1694 0.4601
C10 C 0.2999(7) 0.4736(12) 0.5212(4)
H10 H 0.2929 0.5203 0.4916
H11 H 0.2913 0.5338 0.5471
H12 H 0.2547 0.4043 0.5223
C11 C 0.5384(7) 1.0080(8) 0.6123(3)
C12 C 0.6144(6) 1.0831(9) 0.6305(3)
C13 C 0.5854(7) 1.2042(9) 0.6436(3)
C14 C 0.4193(7) 1.2821(8) 0.6418(3)
C15 C 0.3400(7) 1.2117(9) 0.6283(3)
C16 C 0.3714(6) 1.0885(8) 0.6104(3)
C17 C 0.7077(6) 1.0369(9) 0.6345(4)
H13 H 0.7135 0.9743 0.6600
H14 H 0.7482 1.1104 0.6408
H15 H 0.7239 0.9952 0.6052
C18 C 0.6358(8) 1.3121(9) 0.6634(3)
H16 H 0.6138 1.3931 0.6492
H17 H 0.7001 1.3014 0.6571
H18 H 0.6278 1.3150 0.6971
C19 C 0.4256(7) 1.4100(9) 0.6632(3)
H19 H 0.4561 1.4028 0.6939
H20 H 0.3647 1.4453 0.6668
H21 H 0.4602 1.4678 0.6434
C20 C 0.2483(7) 1.2520(9) 0.6295(4)
H22 H 0.2190 1.2098 0.6556
H23 H 0.2168 1.2278 0.6002
H24 H 0.2457 1.3463 0.6334
C21 C 0.6184(6) 0.6513(8) 0.6927(3)
C22 C 0.5957(5) 0.6364(7) 0.7407(2)
C23 C 0.6725(7) 0.6354(9) 0.7677(3)
C24 C 0.8347(6) 0.6976(9) 0.7383(3)
C25 C 0.8566(6) 0.7303(8) 0.6946(3)
C26 C 0.7739(6) 0.7105(8) 0.6630(4)
C27 C 0.5037(7) 0.6290(11) 0.7580(3)
H25 H 0.5002 0.5583 0.7806
H26 H 0.4611 0.6127 0.7318
H27 H 0.4885 0.7110 0.7730
C28 C 0.6927(6) 0.6176(9) 0.8184(3)
H28 H 0.6378 0.5899 0.8338
H29 H 0.7139 0.6998 0.8320
H30 H 0.7397 0.5515 0.8229
C29 C 0.8868(7) 0.7055(9) 0.7834(4)
H31 H 0.8661 0.7803 0.8012
H32 H 0.9513 0.7152 0.7774
H33 H 0.8774 0.6261 0.8014
C30 C 0.9424(6) 0.7740(12) 0.6773(4)
H34 H 0.9760 0.8202 0.7022
H35 H 0.9316 0.8322 0.6508
H36 H 0.9776 0.6990 0.6675
C31 C 0.3889(6) 0.8510(7) 0.4624(3)
C32 C 0.4083(5) 0.8608(8) 0.4137(3)
C33 C 0.3297(5) 0.8606(6) 0.3889(3)
C34 C 0.1735(5) 0.8038(7) 0.4170(3)
C35 C 0.1542(5) 0.7727(8) 0.4610(3)
C36 C 0.2282(5) 0.7981(7) 0.4916(2)
C37 C 0.5035(6) 0.8715(11) 0.3980(4)
H37 H 0.5189 0.9630 0.3938
H38 H 0.5091 0.8254 0.3684
H39 H 0.5446 0.8330 0.4216
C38 C 0.3193(7) 0.8694(8) 0.3382(3)
H40 H 0.2917 0.7895 0.3260
H41 H 0.3787 0.8814 0.3247
H42 H 0.2804 0.9433 0.3299
C39 C 0.1175(6) 0.7963(9) 0.3738(3)
H43 H 0.1134 0.8823 0.3594
H44 H 0.0568 0.7661 0.3811
H45 H 0.1449 0.7356 0.3522
C40 C 0.0681(6) 0.7126(8) 0.4800(3)
H46 H 0.0836 0.6331 0.4972
H47 H 0.0259 0.6921 0.4541
H48 H 0.0398 0.7743 0.5010
C41 C 0.7633(6) 0.8287(8) 0.4946(3)
C42 C 0.8377(6) 0.8647(9) 0.4674(3)
H49 H 0.8180 0.9295 0.4442
H50 H 0.8607 0.7882 0.4514
H51 H 0.8856 0.9015 0.4877
C43 C 0.2489(7) 0.6691(10) 0.6598(3)
C44 C 0.1724(6) 0.6399(9) 0.6894(4)
H52 H 0.1308 0.5806 0.6729
H53 H 0.1406 0.7203 0.6967
H54 H 0.1948 0.5993 0.7184
N17 N -0.0365(11) 0.9916(15) 0.5587(5)
C45 C 0.0327(9) 0.9618(10) 0.5786(4)
C46 C 0.1103(8) 0.9269(13) 0.6020(4)
H55 H 0.1560 0.9945 0.5983
H56 H 0.1324 0.8451 0.5893
H57 H 0.0984 0.9159 0.6351
N18 N 1.0356(9) 0.4945(12) 0.5967(4)
C47 C 0.9764(8) 0.5283(13) 0.5773(4)
C48 C 0.8964(8) 0.5892(13) 0.5508(4)
H58 H 0.8997 0.5685 0.5176
H59 H 0.8980 0.6834 0.5550
H60 H 0.8400 0.5549 0.5629
C49 C 0.1764(5) 0.3000(8) 0.3923(3)
C50 C 0.1254(6) 0.3907(10) 0.4151(4)
H61 H 0.1216 0.4761 0.4028
C51 C 0.0781(6) 0.3612(10) 0.4564(3)
H62 H 0.0419 0.4262 0.4700
C52 C 0.0837(6) 0.2429(9) 0.4765(3)
H63 H 0.0521 0.2239 0.5039
C53 C 0.1361(6) 0.1514(10) 0.4561(3)
H64 H 0.1416 0.0673 0.4694
C54 C 0.1822(5) 0.1826(8) 0.4150(3)
H65 H 0.2198 0.1179 0.4023
C55 C 0.2242(5) 0.2095(7) 0.3085(3)
C56 C 0.1421(6) 0.1362(8) 0.3046(3)
H66 H 0.0964 0.1527 0.3263
C57 C 0.1257(6) 0.0408(9) 0.2701(3)
H67 H 0.0709 -0.0071 0.2695
C58 C 0.1895(8) 0.0177(9) 0.2376(3)
H68 H 0.1797 -0.0469 0.2144
C59 C 0.2712(6) 0.0921(8) 0.2389(3)
H69 H 0.3162 0.0792 0.2165
C60 C 0.2822(7) 0.1803(8) 0.2728(3)
H70 H 0.3365 0.2294 0.2723
C61 C 0.2018(5) 0.4503(8) 0.3150(3)
C62 C 0.1078(6) 0.4769(9) 0.3043(3)
H71 H 0.0638 0.4261 0.3193
C63 C 0.0777(6) 0.5723(9) 0.2735(3)
H72 H 0.0150 0.5811 0.2662
C64 C 0.1373(7) 0.6524(10) 0.2538(3)
H73 H 0.1160 0.7203 0.2341
C65 C 0.2311(7) 0.6365(8) 0.2623(3)
H74 H 0.2735 0.6918 0.2481
C66 C 0.2596(6) 0.5366(8) 0.2922(3)
H75 H 0.3228 0.5260 0.2976
C67 C 0.3406(5) 0.3412(8) 0.3649(3)
C68 C 0.4050(6) 0.2464(9) 0.3645(3)
H76 H 0.3897 0.1661 0.3501
C69 C 0.4922(6) 0.2611(10) 0.3840(3)
H77 H 0.5341 0.1915 0.3829
C70 C 0.5174(5) 0.3765(10) 0.4050(3)
H78 H 0.5773 0.3896 0.4169
C71 C 0.4523(8) 0.4732(9) 0.4080(4)
H79 H 0.4670 0.5516 0.4239
C72 C 0.3662(6) 0.4571(9) 0.3883(3)
H80 H 0.3234 0.5253 0.3905
B1 B 0.2348(7) 0.3279(9) 0.3458(3)
C73 C 0.6703(5) 0.8439(7) 0.2910(3)
C74 C 0.6415(6) 0.9582(8) 0.2690(3)
H81 H 0.6832 1.0278 0.2679
C75 C 0.5561(5) 0.9770(9) 0.2488(3)
H82 H 0.5405 1.0571 0.2344
C76 C 0.4941(7) 0.8765(10) 0.2500(3)
H83 H 0.4358 0.8863 0.2356
C77 C 0.5175(7) 0.7621(10) 0.2722(3)
H84 H 0.4738 0.6952 0.2744
C78 C 0.6036(6) 0.7433(8) 0.2913(3)
H85 H 0.6187 0.6620 0.3049
C79 C 0.8330(5) 0.8010(7) 0.2656(3)
C80 C 0.8853(5) 0.8956(7) 0.2427(3)
H86 H 0.8912 0.9791 0.2564
C81 C 0.9266(7) 0.8730(9) 0.2028(3)
H87 H 0.9589 0.9406 0.1883
C82 C 0.9225(7) 0.7490(10) 0.1822(3)
H88 H 0.9529 0.7314 0.1542
C83 C 0.8726(6) 0.6531(8) 0.2038(3)
H89 H 0.8677 0.5696 0.1900
C84 C 0.8310(6) 0.6768(8) 0.2441(2)
H90 H 0.7995 0.6083 0.2586
C85 C 0.8077(5) 0.9571(7) 0.3419(2)
C86 C 0.7469(5) 1.0368(7) 0.3646(3)
H91 H 0.6838 1.0260 0.3591
C87 C 0.7787(6) 1.1327(8) 0.3956(3)
H92 H 0.7361 1.1852 0.4109
C88 C 0.8672(6) 1.1532(8) 0.4045(3)
H93 H 0.8875 1.2186 0.4256
C89 C 0.9294(6) 1.0730(8) 0.3810(3)
H94 H 0.9926 1.0857 0.3858
C90 C 0.8981(5) 0.9771(7) 0.3513(3)
H95 H 0.9406 0.9228 0.3367
C91 C 0.7906(5) 0.7059(7) 0.3505(2)
C92 C 0.7228(5) 0.6838(7) 0.3839(3)
H96 H 0.6679 0.7317 0.3830
C93 C 0.7404(7) 0.5870(8) 0.4185(3)
H97 H 0.6962 0.5711 0.4411
C94 C 0.8168(5) 0.5179(7) 0.4204(3)
H98 H 0.8261 0.4529 0.4434
C95 C 0.8820(7) 0.5428(8) 0.3881(3)
H99 H 0.9372 0.4961 0.3898
C96 C 0.8683(6) 0.6333(8) 0.3540(3)
H100 H 0.9140 0.6466 0.3320
B2 B 0.7735(6) 0.8252(8) 0.3122(3)
N11? N 0.5409(12) 0.3826(19) 0.5537(8)
N12? N 0.5048(14) 0.2802(19) 0.5350(9)
N13? N 0.4609(14) 1.075(2) 0.6297(9)
N14? N 0.4873(16) 1.200(2) 0.6479(11)
N15? N 0.7038(10) 0.7243(17) 0.7013(5)
N16? N 0.7337(10) 0.7179(16) 0.7463(5)
loop_
_geom_bond_atom_site_label_1
_geom_bond_atom_site_label_2
_geom_bond_site_symmetry_1
_geom_bond_site_symmetry_2
Na1 O2 1_555 1_555
Na2 O1 1_555 1_555
O1 C1 1_555 1_555
O2 Na2 1_555 1_555
O3 Na1 1_555 1_555
O4 Na1 1_555 1_555
O5 Na2 1_555 1_555
O6 Na2 1_555 1_555
O7 Na1 1_555 1_555
O8 Na1 1_555 1_555
N1 N2 1_555 1_555
N2 C3 1_555 1_555
N3 N4 1_555 1_555
N4 C13 1_555 1_555
N5 N6 1_555 1_555
N6 C23 1_555 1_555
N7 N8 1_555 1_555
N8 C33 1_555 1_555
N9 Na2 1_555 1_555
N10 Na1 1_555 1_555
C1 N1 1_555 1_555
C2 C1 1_555 1_555
C3 C2 1_555 1_555
C4 N2 1_555 1_555
C5 C4 1_555 1_555
C6 O2 1_555 1_555
C7 C2 1_555 1_555
H1 C7 1_555 1_555
H2 C7 1_555 1_555
H3 C7 1_555 1_555
C8 C3 1_555 1_555
H4 C8 1_555 1_555
H5 C8 1_555 1_555
H6 C8 1_555 1_555
C9 C4 1_555 1_555
H7 C9 1_555 1_555
H8 C9 1_555 1_555
H9 C9 1_555 1_555
C10 C5 1_555 1_555
H10 C10 1_555 1_555
H11 C10 1_555 1_555
H12 C10 1_555 1_555
C11 O3 1_555 1_555
C12 C11 1_555 1_555
C13 C12 1_555 1_555
C14 N4 1_555 1_555
C15 C14 1_555 1_555
C16 O4 1_555 1_555
C17 C12 1_555 1_555
H13 C17 1_555 1_555
H14 C17 1_555 1_555
H15 C17 1_555 1_555
C18 C13 1_555 1_555
H16 C18 1_555 1_555
H17 C18 1_555 1_555
H18 C18 1_555 1_555
C19 C14 1_555 1_555
H19 C19 1_555 1_555
H20 C19 1_555 1_555
H21 C19 1_555 1_555
C20 C15 1_555 1_555
H22 C20 1_555 1_555
H23 C20 1_555 1_555
H24 C20 1_555 1_555
C21 O5 1_555 1_555
C22 C21 1_555 1_555
C23 C22 1_555 1_555
C24 N6 1_555 1_555
C25 C24 1_555 1_555
C26 O6 1_555 1_555
C27 C22 1_555 1_555
H25 C27 1_555 1_555
H26 C27 1_555 1_555
H27 C27 1_555 1_555
C28 C23 1_555 1_555
H28 C28 1_555 1_555
H29 C28 1_555 1_555
H30 C28 1_555 1_555
C29 C24 1_555 1_555
H31 C29 1_555 1_555
H32 C29 1_555 1_555
H33 C29 1_555 1_555
C30 C25 1_555 1_555
H34 C30 1_555 1_555
H35 C30 1_555 1_555
H36 C30 1_555 1_555
C31 O7 1_555 1_555
C32 C31 1_555 1_555
C33 C32 1_555 1_555
C34 N8 1_555 1_555
C35 C34 1_555 1_555
C36 O8 1_555 1_555
C37 C32 1_555 1_555
H37 C37 1_555 1_555
H38 C37 1_555 1_555
H39 C37 1_555 1_555
C38 C33 1_555 1_555
H40 C38 1_555 1_555
H41 C38 1_555 1_555
H42 C38 1_555 1_555
C39 C34 1_555 1_555
H43 C39 1_555 1_555
H44 C39 1_555 1_555
H45 C39 1_555 1_555
C40 C35 1_555 1_555
H46 C40 1_555 1_555
H47 C40 1_555 1_555
H48 C40 1_555 1_555
C41 N9 1_555 1_555
C42 C41 1_555 1_555
H49 C42 1_555 1_555
H50 C42 1_555 1_555
H51 C42 1_555 1_555
C43 N10 1_555 1_555
C44 C43 1_555 1_555
H52 C44 1_555 1_555
H53 C44 1_555 1_555
H54 C44 1_555 1_555
N17 C45 1_555 1_555
C45 C46 1_555 1_555
C46 H55 1_555 1_555
H56 C46 1_555 1_555
H57 C46 1_555 1_555
N18 C47 1_555 1_555
C47 C48 1_555 1_555
C48 H58 1_555 1_555
H59 C48 1_555 1_555
H60 C48 1_555 1_555
C49 C50 1_555 1_555
C50 H61 1_555 1_555
C51 C50 1_555 1_555
H62 C51 1_555 1_555
C52 C51 1_555 1_555
H63 C52 1_555 1_555
C53 C52 1_555 1_555
H64 C53 1_555 1_555
C54 C49 1_555 1_555
H65 C54 1_555 1_555
C55 C56 1_555 1_555
C56 H66 1_555 1_555
C57 C56 1_555 1_555
H67 C57 1_555 1_555
C58 C57 1_555 1_555
H68 C58 1_555 1_555
C59 C58 1_555 1_555
H69 C59 1_555 1_555
C60 C55 1_555 1_555
H70 C60 1_555 1_555
C61 C62 1_555 1_555
C62 H71 1_555 1_555
C63 C62 1_555 1_555
H72 C63 1_555 1_555
C64 C63 1_555 1_555
H73 C64 1_555 1_555
C65 C64 1_555 1_555
H74 C65 1_555 1_555
C66 C61 1_555 1_555
H75 C66 1_555 1_555
C67 C68 1_555 1_555
C68 H76 1_555 1_555
C69 C68 1_555 1_555
H77 C69 1_555 1_555
C70 C69 1_555 1_555
H78 C70 1_555 1_555
C71 C70 1_555 1_555
H79 C71 1_555 1_555
C72 C67 1_555 1_555
H80 C72 1_555 1_555
B1 C49 1_555 1_555
C73 C74 1_555 1_555
C74 H81 1_555 1_555
C75 C74 1_555 1_555
H82 C75 1_555 1_555
C76 C75 1_555 1_555
H83 C76 1_555 1_555
C77 C76 1_555 1_555
H84 C77 1_555 1_555
C78 C73 1_555 1_555
H85 C78 1_555 1_555
C79 C80 1_555 1_555
C80 H86 1_555 1_555
C81 C80 1_555 1_555
H87 C81 1_555 1_555
C82 C81 1_555 1_555
H88 C82 1_555 1_555
C83 C82 1_555 1_555
H89 C83 1_555 1_555
C84 C79 1_555 1_555
H90 C84 1_555 1_555
C85 C86 1_555 1_555
C86 H91 1_555 1_555
C87 C86 1_555 1_555
H92 C87 1_555 1_555
C88 C87 1_555 1_555
H93 C88 1_555 1_555
C89 C88 1_555 1_555
H94 C89 1_555 1_555
C90 C85 1_555 1_555
H95 C90 1_555 1_555
C91 C92 1_555 1_555
C92 H96 1_555 1_555
C93 C92 1_555 1_555
H97 C93 1_555 1_555
C94 C93 1_555 1_555
H98 C94 1_555 1_555
C95 C94 1_555 1_555
H99 C95 1_555 1_555
C96 C91 1_555 1_555
H100 C96 1_555 1_555
B2 C73 1_555 1_555
Na2 O3 1_555 1_555
N1 C6 1_555 1_555
N3 C11 1_555 1_555
N3 C16 1_555 1_555
N5 C21 1_555 1_555
N5 C26 1_555 1_555
N7 C31 1_555 1_555
N7 C36 1_555 1_555
C5 C6 1_555 1_555
C15 C16 1_555 1_555
C25 C26 1_555 1_555
C35 C36 1_555 1_555
C53 C54 1_555 1_555
C55 B1 1_555 1_555
C59 C60 1_555 1_555
C61 B1 1_555 1_555
C65 C66 1_555 1_555
C67 B1 1_555 1_555
C71 C72 1_555 1_555
C77 C78 1_555 1_555
C79 B2 1_555 1_555
C83 C84 1_555 1_555
C85 B2 1_555 1_555
C89 C90 1_555 1_555
C91 B2 1_555 1_555
C95 C96 1_555 1_555

#END
