
#######################################################################
#
#                 Cambridge Crystallographic Data Centre
#                                CCDC 
#
#######################################################################
#
# If this CIF has been generated from an entry in the Cambridge 
# Structural Database, then it will include bibliographic, chemical, 
# crystal, experimental, refinement or atomic coordinate data resulting 
# from the CCDC's data processing and validation procedures.
#
#######################################################################

data_FIKPIA
_chemical_formula_moiety         'C18 H23 Cl1 N2 O2'
_chemical_name_systematic        
N-(4-Chlorophenyl)-6-isobutyl-5-oxo-6-azaspiro[3.4]octane-7-carboxamide
_symmetry_cell_setting           monoclinic
_symmetry_space_group_name_H-M   'P 21/c'
_symmetry_Int_Tables_number      14
_space_group_name_Hall           '-P 2ybc'
loop_
_symmetry_equiv_pos_site_id
_symmetry_equiv_pos_as_xyz
1 x,y,z
2 -x,1/2+y,1/2-z
3 -x,-y,-z
4 x,1/2-y,1/2+z
_cell_length_a                   14.0887(9)
_cell_length_b                   11.3599(7)
_cell_length_c                   10.9088(7)
_cell_angle_alpha                90
_cell_angle_beta                 101.4250(10)
_cell_angle_gamma                90
_cell_volume                     1711.32
_exptl_crystal_colour            colorless
_exptl_crystal_description       prism
_cell_formula_units_Z            4
loop_
_atom_site_label
_atom_site_type_symbol
_atom_site_fract_x
_atom_site_fract_y
_atom_site_fract_z
Cl1 Cl 0.53261(4) 0.16419(5) 0.78582(6)
O1 O 0.10740(13) 0.90436(16) 0.21048(17)
O2 O 0.28956(14) 0.57901(19) 0.37942(18)
N1 N 0.17982(15) 0.78348(18) 0.37087(19)
N2 N 0.24675(13) 0.52641(16) 0.56480(17)
H1 H 0.2040 0.5375 0.6109
C1 C 0.02165(17) 0.7341(2) 0.2747(2)
C2 C 0.10680(17) 0.8170(2) 0.2789(2)
C3 C 0.15856(17) 0.6826(2) 0.4427(2)
H2 H 0.1464 0.7082 0.5260
C4 C 0.06427(18) 0.6327(2) 0.3603(3)
H3 H 0.0791 0.5647 0.3105
H4 H 0.0183 0.6071 0.4129
C5 C -0.03522(19) 0.7038(2) 0.1417(2)
H5 H 0.0015 0.7192 0.0748
H6 H -0.0627 0.6233 0.1344
C6 C -0.10985(19) 0.8003(3) 0.1536(3)
H7 H -0.1780 0.7737 0.1304
H8 H -0.1000 0.8747 0.1104
C7 C -0.06976(17) 0.8033(2) 0.2971(2)
H9 H -0.1098 0.7591 0.3465
H10 H -0.0552 0.8835 0.3312
C8 C 0.27071(17) 0.8495(2) 0.4080(2)
H11 H 0.2702 0.9170 0.3505
H12 H 0.3255 0.7978 0.3989
C9 C 0.28727(19) 0.8951(2) 0.5418(2)
H13 H 0.2889 0.8264 0.5995
C10 C 0.2077(2) 0.9785(3) 0.5627(3)
H14 H 0.1446 0.9404 0.5361
H15 H 0.2100 1.0504 0.5138
H16 H 0.2172 0.9984 0.6517
C11 C 0.3855(2) 0.9572(3) 0.5719(3)
H17 H 0.4000 0.9795 0.6604
H18 H 0.3836 1.0280 0.5201
H19 H 0.4360 0.9040 0.5545
C12 C 0.23995(16) 0.5915(2) 0.4590(2)
C13 C 0.31446(15) 0.43606(18) 0.6077(2)
C14 C 0.39531(16) 0.4130(2) 0.5559(2)
H20 H 0.4048 0.4545 0.4837
C15 C 0.46221(16) 0.3283(2) 0.6110(2)
H21 H 0.5179 0.3127 0.5768
C16 C 0.44739(16) 0.26721(19) 0.7152(2)
C17 C 0.36592(17) 0.2871(2) 0.7661(2)
H22 H 0.3556 0.2436 0.8366
C18 C 0.29979(16) 0.3720(2) 0.7116(2)
H23 H 0.2438 0.3866 0.7455
loop_
_geom_bond_atom_site_label_1
_geom_bond_atom_site_label_2
_geom_bond_site_symmetry_1
_geom_bond_site_symmetry_2
Cl1 C16 1_555 1_555
O1 C2 1_555 1_555
O2 C12 1_555 1_555
N1 C2 1_555 1_555
N2 H1 1_555 1_555
C1 C2 1_555 1_555
C3 N1 1_555 1_555
H2 C3 1_555 1_555
C4 C1 1_555 1_555
H3 C4 1_555 1_555
H4 C4 1_555 1_555
C5 C1 1_555 1_555
H5 C5 1_555 1_555
H6 C5 1_555 1_555
C6 C5 1_555 1_555
H7 C6 1_555 1_555
H8 C6 1_555 1_555
C7 C1 1_555 1_555
H9 C7 1_555 1_555
H10 C7 1_555 1_555
C8 N1 1_555 1_555
H11 C8 1_555 1_555
H12 C8 1_555 1_555
C9 C8 1_555 1_555
H13 C9 1_555 1_555
C10 C9 1_555 1_555
H14 C10 1_555 1_555
H15 C10 1_555 1_555
H16 C10 1_555 1_555
C11 C9 1_555 1_555
H17 C11 1_555 1_555
H18 C11 1_555 1_555
H19 C11 1_555 1_555
C12 N2 1_555 1_555
C13 N2 1_555 1_555
C14 C13 1_555 1_555
H20 C14 1_555 1_555
C15 C14 1_555 1_555
H21 C15 1_555 1_555
C16 C15 1_555 1_555
C17 C16 1_555 1_555
H22 C17 1_555 1_555
C18 C13 1_555 1_555
H23 C18 1_555 1_555
C3 C4 1_555 1_555
C3 C12 1_555 1_555
C6 C7 1_555 1_555
C17 C18 1_555 1_555

#END
