
#######################################################################
#
#                 Cambridge Crystallographic Data Centre
#                                CCDC 
#
#######################################################################
#
# If this CIF has been generated from an entry in the Cambridge 
# Structural Database, then it will include bibliographic, chemical, 
# crystal, experimental, refinement or atomic coordinate data resulting 
# from the CCDC's data processing and validation procedures.
#
#######################################################################

data_FIKXOM
_chemical_formula_moiety         'C24 H37 Br1 O8'
_chemical_name_systematic        
16-Bromo-6,17-epoxymethano-13-hydroxy-6,10,14-trimethyl-7,8-bis(methoxymethoxy)-2-oxatetracyclo(7.7.1.0^5,17^.0^10,15^)heptadecan-3-one
_symmetry_cell_setting           monoclinic
_symmetry_space_group_name_H-M   'P 21/a'
_symmetry_Int_Tables_number      14
_space_group_name_Hall           '-P 2yab'
loop_
_symmetry_equiv_pos_site_id
_symmetry_equiv_pos_as_xyz
1 x,y,z
2 1/2-x,1/2+y,-z
3 -x,-y,-z
4 1/2+x,1/2-y,z
_cell_length_a                   14.241(5)
_cell_length_b                   24.648(13)
_cell_length_c                   6.924(2)
_cell_angle_alpha                90
_cell_angle_beta                 100.60(2)
_cell_angle_gamma                90
_cell_volume                     2388.93
_exptl_crystal_colour            colorless
_chemical_melting_point          192-194deg.C
_cell_formula_units_Z            4
loop_
_atom_site_label
_atom_site_type_symbol
_atom_site_fract_x
_atom_site_fract_y
_atom_site_fract_z
C1 C 0.8814(7) 0.1867(5) 0.7977(19)
C2 C 0.9277(7) 0.2366(4) 0.9030(19)
C3 C 0.8539(7) 0.2781(4) 0.9428(18)
C4 C 0.7807(7) 0.2916(4) 0.7629(18)
C5 C 0.7358(7) 0.2389(4) 0.6685(16)
C6 C 0.6469(7) 0.2470(4) 0.5232(16)
C7 C 0.5995(7) 0.1946(4) 0.4398(17)
C8 C 0.6637(6) 0.1524(4) 0.3743(17)
C9 C 0.7589(7) 0.1443(4) 0.5308(17)
C10 C 0.8116(7) 0.1987(4) 0.6070(17)
C11 C 0.8227(7) 0.0994(4) 0.4717(17)
C12 C 0.7639(8) 0.0495(5) 0.3811(21)
C13 C 0.6711(7) 0.0645(4) 0.2486(17)
C14 C 0.6083(7) 0.0989(4) 0.3501(17)
C15 C 0.5773(7) 0.0802(5) 0.5424(18)
C16 C 0.5333(7) 0.1239(5) 0.6341(18)
O1 O 0.5548(4) 0.1762(3) 0.6059(11)
C17 C 0.7052(8) 0.3317(4) 0.8111(17)
C18 C 0.8686(7) 0.2263(4) 0.4651(16)
C19 C 0.6810(8) 0.1567(5) 0.1647(19)
C20 C 0.6239(8) 0.0154(5) 0.1394(19)
O2 O 0.6926(5) 0.1019(3) 0.0991(12)
O3 O 0.9014(5) 0.3252(3) 1.0354(12)
Br1 Br 0.6644(1) 0.29274(4) 0.2953(2)
O4 O 0.8774(5) 0.1202(3) 0.3275(12)
C21 C 0.9642(8) 0.0926(6) 0.3290(23)
O5 O 0.9544(5) 0.0426(3) 0.2345(12)
C22 C 0.9161(9) 0.0471(5) 0.0297(20)
O6 O 0.7441(5) 0.0166(3) 0.5389(12)
C23 C 0.8052(8) -0.0296(5) 0.5777(22)
O7 O 0.7809(5) -0.0594(3) 0.7271(12)
C24 C 0.6890(9) -0.0820(5) 0.6839(23)
O8 O 0.4852(5) 0.1161(3) 0.7646(13)
H1 H 0.919(8) 0.165(5) 0.761(19)
H2 H 0.852(6) 0.170(3) 0.905(13)
H3 H 0.962(6) 0.259(4) 0.805(13)
H4 H 0.969(8) 0.223(4) 1.016(18)
H5 H 0.823(5) 0.261(3) 1.065(12)
H6 H 0.816(5) 0.316(3) 0.675(12)
H7 H 0.717(7) 0.224(4) 0.785(17)
H8 H 0.605(6) 0.273(4) 0.617(14)
H9 H 0.544(6) 0.198(4) 0.317(14)
H10 H 0.737(6) 0.135(3) 0.637(13)
H11 H 0.876(6) 0.088(4) 0.610(15)
H12 H 0.809(6) 0.028(3) 0.326(13)
H13 H 0.568(6) 0.105(4) 0.324(13)
H14 H 0.534(7) 0.056(4) 0.505(15)
H15 H 0.634(6) 0.062(3) 0.641(13)
H16 H 0.729(8) 0.368(5) 0.832(18)
H17 H 0.661(8) 0.338(5) 0.718(18)
H18 H 0.673(9) 0.315(5) 0.891(21)
H19 H 0.919(6) 0.205(4) 0.452(12)
H20 H 0.843(9) 0.226(5) 0.373(21)
H21 H 0.880(7) 0.268(5) 0.477(17)
H22 H 0.621(7) 0.175(4) 0.075(16)
H23 H 0.750(8) 0.173(5) 0.206(17)
H24 H 0.581(8) 0.022(5) 0.088(20)
H25 H 0.677(9) -0.008(5) 0.090(20)
H26 H 0.592(6) -0.007(4) 0.217(14)
H27 H 0.932(6) 0.345(4) 0.995(14)
H28 H 0.999(8) 0.117(5) 0.273(18)
H29 H 1.008(7) 0.079(4) 0.501(17)
H30 H 0.853(12) 0.066(7) -0.004(27)
H31 H 0.969(7) 0.071(4) -0.006(17)
H32 H 0.895(8) 0.004(5) -0.051(19)
H33 H 0.799(6) -0.042(4) 0.448(16)
H34 H 0.874(8) -0.023(4) 0.612(17)
H35 H 0.635(8) -0.049(5) 0.646(18)
H36 H 0.675(11) -0.100(7) 0.557(27)
H37 H 0.677(8) -0.104(5) 0.795(19)
loop_
_geom_bond_atom_site_label_1
_geom_bond_atom_site_label_2
_geom_bond_site_symmetry_1
_geom_bond_site_symmetry_2
C1 C2 1_555 1_555
C2 C3 1_555 1_555
C3 C4 1_555 1_555
C4 C5 1_555 1_555
C5 C6 1_555 1_555
C6 C7 1_555 1_555
C7 C8 1_555 1_555
C8 C9 1_555 1_555
C9 C10 1_555 1_555
C10 C1 1_555 1_555
C11 C9 1_555 1_555
C12 C11 1_555 1_555
C13 C12 1_555 1_555
C14 C8 1_555 1_555
C15 C14 1_555 1_555
C16 C15 1_555 1_555
O1 C7 1_555 1_555
C17 C4 1_555 1_555
C18 C10 1_555 1_555
C19 C8 1_555 1_555
C20 C13 1_555 1_555
O2 C13 1_555 1_555
O3 C3 1_555 1_555
Br1 C6 1_555 1_555
O4 C11 1_555 1_555
C21 O4 1_555 1_555
O5 C21 1_555 1_555
C22 O5 1_555 1_555
O6 C12 1_555 1_555
C23 O6 1_555 1_555
O7 C23 1_555 1_555
C24 O7 1_555 1_555
O8 C16 1_555 1_555
H1 C1 1_555 1_555
H2 C1 1_555 1_555
H3 C2 1_555 1_555
H4 C2 1_555 1_555
H5 C3 1_555 1_555
H6 C4 1_555 1_555
H7 C5 1_555 1_555
H8 C6 1_555 1_555
H9 C7 1_555 1_555
H10 C9 1_555 1_555
H11 C11 1_555 1_555
H12 C12 1_555 1_555
H13 C14 1_555 1_555
H14 C15 1_555 1_555
H15 C15 1_555 1_555
H16 C17 1_555 1_555
H17 C17 1_555 1_555
H18 C17 1_555 1_555
H19 C18 1_555 1_555
H20 C18 1_555 1_555
H21 C18 1_555 1_555
H22 C19 1_555 1_555
H23 C19 1_555 1_555
H24 C20 1_555 1_555
H25 C20 1_555 1_555
H26 C20 1_555 1_555
H27 O3 1_555 1_555
H28 C21 1_555 1_555
H29 C21 1_555 1_555
H30 C22 1_555 1_555
H31 C22 1_555 1_555
H32 C22 1_555 1_555
H33 C23 1_555 1_555
H34 C23 1_555 1_555
H35 C24 1_555 1_555
H36 C24 1_555 1_555
H37 C24 1_555 1_555
C5 C10 1_555 1_555
C13 C14 1_555 1_555
C16 O1 1_555 1_555
C19 O2 1_555 1_555

#END
