
#######################################################################
#
#                 Cambridge Crystallographic Data Centre
#                                CCDC 
#
#######################################################################
#
# If this CIF has been generated from an entry in the Cambridge 
# Structural Database, then it will include bibliographic, chemical, 
# crystal, experimental, refinement or atomic coordinate data resulting 
# from the CCDC's data processing and validation procedures.
#
#######################################################################

data_FIKXUV
_chemical_formula_moiety         'C46 H45 B1 N4'
_chemical_name_systematic        
1-(8-{4-[bis(2,4,6-trimethylphenyl)boranyl]phenyl}quinolin-2-yl)-N,N-bis[(pyridin-2-yl)methyl]methanamine
_symmetry_cell_setting           monoclinic
_symmetry_space_group_name_H-M   'P 21/c'
_symmetry_Int_Tables_number      14
_space_group_name_Hall           '-P 2ybc'
loop_
_symmetry_equiv_pos_site_id
_symmetry_equiv_pos_as_xyz
1 x,y,z
2 -x,1/2+y,1/2-z
3 -x,-y,-z
4 x,1/2-y,1/2+z
_cell_length_a                   21.2634(13)
_cell_length_b                   8.3244(5)
_cell_length_c                   23.6310(15)
_cell_angle_alpha                90
_cell_angle_beta                 115.421(2)
_cell_angle_gamma                90
_cell_volume                     3777.82
_exptl_crystal_colour            yellow
_exptl_crystal_description       block
_cell_formula_units_Z            4
loop_
_atom_site_label
_atom_site_type_symbol
_atom_site_fract_x
_atom_site_fract_y
_atom_site_fract_z
B1 B 0.14546(13) -0.1492(3) 0.13394(11)
C1 C 0.07297(11) -0.2385(3) 0.10750(10)
C2 C 0.03010(12) -0.2484(3) 0.04277(11)
C3 C -0.03435(13) -0.3229(3) 0.02095(13)
H1 H -0.0626 -0.3241 -0.0219
C4 C -0.05794(13) -0.3948(3) 0.06046(14)
C5 C -0.01472(13) -0.3918(3) 0.12393(14)
H2 H -0.0285 -0.4456 0.1512
C6 C 0.04871(12) -0.3110(3) 0.14834(11)
C7 C 0.05139(14) -0.1747(3) -0.00461(11)
H3 H 0.0219 -0.2150 -0.0456
H4 H 0.0989 -0.2021 0.0057
H5 H 0.0469 -0.0600 -0.0042
C8 C -0.12988(14) -0.4693(4) 0.03686(17)
H6 H -0.1635 -0.3869 0.0317
H7 H -0.1304 -0.5471 0.0666
H8 H -0.1412 -0.5210 -0.0026
C9 C 0.08969(14) -0.3072(4) 0.21916(12)
H9 H 0.0763 -0.2147 0.2356
H10 H 0.1386 -0.3018 0.2298
H11 H 0.0801 -0.4028 0.2368
C10 C 0.20574(11) -0.2044(3) 0.11652(9)
C11 C 0.23026(12) -0.3652(3) 0.12558(10)
C12 C 0.28451(12) -0.4083(3) 0.11094(11)
H12 H 0.3006 -0.5136 0.1184
C13 C 0.31569(12) -0.3030(3) 0.08598(12)
C14 C 0.29033(12) -0.1479(3) 0.07512(11)
H13 H 0.3094 -0.0751 0.0570
C15 C 0.23731(11) -0.0968(3) 0.09026(10)
C16 C 0.21296(14) 0.0758(3) 0.07564(13)
H14 H 0.2308 0.1214 0.0482
H15 H 0.2296 0.1366 0.1138
H16 H 0.1630 0.0787 0.0556
C17 C 0.19967(14) -0.4928(3) 0.15196(12)
H17 H 0.2232 -0.5929 0.1547
H18 H 0.1510 -0.5053 0.1249
H19 H 0.2053 -0.4612 0.1929
C18 C 0.37614(14) -0.3526(4) 0.07194(15)
H20 H 0.3855 -0.2692 0.0485
H21 H 0.3645 -0.4500 0.0478
H22 H 0.4167 -0.3701 0.1105
C19 C 0.15570(11) -0.0047(3) 0.17942(10)
C20 C 0.09875(11) 0.0810(3) 0.17868(11)
H23 H 0.0544 0.0563 0.1483
C21 C 0.10601(11) 0.2000(3) 0.22116(11)
H24 H 0.0667 0.2554 0.2182
C22 C 0.17072(11) 0.2401(2) 0.26868(10)
C23 C 0.22822(11) 0.1603(3) 0.26888(10)
H25 H 0.2725 0.1865 0.2989
C24 C 0.22074(11) 0.0430(3) 0.22532(10)
H26 H 0.2605 -0.0065 0.2265
C25 C 0.17384(11) 0.3565(3) 0.31785(10)
C26 C 0.12573(13) 0.3414(3) 0.34187(12)
H27 H 0.0940 0.2572 0.3277
C27 C 0.12207(14) 0.4463(3) 0.38654(12)
H28 H 0.0893 0.4299 0.4023
C28 C 0.16659(14) 0.5718(3) 0.40669(12)
H29 H 0.1640 0.6427 0.4360
C29 C 0.21664(12) 0.5958(3) 0.38375(10)
C30 C 0.22217(11) 0.4866(3) 0.33982(9)
C31 C 0.26204(14) 0.7289(3) 0.40116(12)
H30 H 0.2598 0.8039 0.4294
C32 C 0.30867(13) 0.7480(3) 0.37716(13)
H31 H 0.3385 0.8359 0.3885
C33 C 0.31167(11) 0.6330(3) 0.33456(11)
C34 C 0.36205(11) 0.6557(3) 0.30602(11)
H32 H 0.3689 0.5538 0.2895
H33 H 0.3424 0.7306 0.2713
C35 C 0.46966(13) 0.5912(3) 0.39612(12)
H34 H 0.4878 0.5159 0.3755
H35 H 0.4394 0.5326 0.4100
C36 C 0.52902(13) 0.6627(3) 0.45190(11)
C37 C 0.51675(16) 0.7637(3) 0.49206(14)
H36 H 0.4713 0.7884 0.4850
C38 C 0.5718(2) 0.8279(4) 0.54272(13)
H37 H 0.5644 0.8964 0.5703
C39 C 0.63715(19) 0.7891(4) 0.55150(13)
H38 H 0.6756 0.8311 0.5852
C40 C 0.64569(16) 0.6881(4) 0.51033(14)
H39 H 0.6909 0.6618 0.5171
C41 C 0.46885(12) 0.7846(3) 0.31946(12)
H40 H 0.4701 0.7076 0.2892
H41 H 0.5164 0.8036 0.3500
C42 C 0.43854(11) 0.9383(3) 0.28670(11)
C43 C 0.41945(12) 0.9578(3) 0.22349(11)
H42 H 0.4239 0.8734 0.1997
C44 C 0.39340(13) 1.1054(4) 0.19584(13)
H43 H 0.3802 1.1213 0.1533
C45 C 0.38754(14) 1.2254(4) 0.23185(14)
H44 H 0.3710 1.3259 0.2148
C46 C 0.40634(15) 1.1960(3) 0.29340(14)
H45 H 0.4011 1.2786 0.3175
N1 N 0.27064(9) 0.5057(2) 0.31670(8)
N2 N 0.42921(9) 0.7163(2) 0.35131(9)
N3 N 0.43182(11) 1.0563(3) 0.32164(9)
N4 N 0.59309(12) 0.6237(3) 0.46051(10)
loop_
_geom_bond_atom_site_label_1
_geom_bond_atom_site_label_2
_geom_bond_site_symmetry_1
_geom_bond_site_symmetry_2
B1 C1 1_555 1_555
C1 C2 1_555 1_555
C2 C3 1_555 1_555
C3 H1 1_555 1_555
C4 C3 1_555 1_555
C5 C4 1_555 1_555
H2 C5 1_555 1_555
C6 C1 1_555 1_555
C7 C2 1_555 1_555
H3 C7 1_555 1_555
H4 C7 1_555 1_555
H5 C7 1_555 1_555
C8 C4 1_555 1_555
H6 C8 1_555 1_555
H7 C8 1_555 1_555
H8 C8 1_555 1_555
C9 C6 1_555 1_555
H9 C9 1_555 1_555
H10 C9 1_555 1_555
H11 C9 1_555 1_555
C10 B1 1_555 1_555
C11 C10 1_555 1_555
C12 C11 1_555 1_555
H12 C12 1_555 1_555
C13 C12 1_555 1_555
C14 C13 1_555 1_555
H13 C14 1_555 1_555
C15 C10 1_555 1_555
C16 C15 1_555 1_555
H14 C16 1_555 1_555
H15 C16 1_555 1_555
H16 C16 1_555 1_555
C17 C11 1_555 1_555
H17 C17 1_555 1_555
H18 C17 1_555 1_555
H19 C17 1_555 1_555
C18 C13 1_555 1_555
H20 C18 1_555 1_555
H21 C18 1_555 1_555
H22 C18 1_555 1_555
C19 B1 1_555 1_555
C20 C19 1_555 1_555
H23 C20 1_555 1_555
C21 C20 1_555 1_555
H24 C21 1_555 1_555
C22 C21 1_555 1_555
C23 C22 1_555 1_555
H25 C23 1_555 1_555
C24 C19 1_555 1_555
H26 C24 1_555 1_555
C25 C22 1_555 1_555
C26 C25 1_555 1_555
H27 C26 1_555 1_555
C27 C26 1_555 1_555
H28 C27 1_555 1_555
C28 C27 1_555 1_555
H29 C28 1_555 1_555
C29 C28 1_555 1_555
C30 C25 1_555 1_555
C31 C29 1_555 1_555
H30 C31 1_555 1_555
C32 C31 1_555 1_555
H31 C32 1_555 1_555
C33 C32 1_555 1_555
C34 C33 1_555 1_555
H32 C34 1_555 1_555
H33 C34 1_555 1_555
C35 H34 1_555 1_555
H35 C35 1_555 1_555
C36 C35 1_555 1_555
C37 C36 1_555 1_555
H36 C37 1_555 1_555
C38 C37 1_555 1_555
H37 C38 1_555 1_555
C39 C38 1_555 1_555
H38 C39 1_555 1_555
C40 C39 1_555 1_555
H39 C40 1_555 1_555
C41 H40 1_555 1_555
H41 C41 1_555 1_555
C42 C41 1_555 1_555
C43 C42 1_555 1_555
H42 C43 1_555 1_555
C44 C43 1_555 1_555
H43 C44 1_555 1_555
C45 C44 1_555 1_555
H44 C45 1_555 1_555
C46 C45 1_555 1_555
H45 C46 1_555 1_555
N1 C30 1_555 1_555
N2 C34 1_555 1_555
N3 C42 1_555 1_555
N4 C36 1_555 1_555
C5 C6 1_555 1_555
C14 C15 1_555 1_555
C23 C24 1_555 1_555
C29 C30 1_555 1_555
C33 N1 1_555 1_555
C35 N2 1_555 1_555
C40 N4 1_555 1_555
C41 N2 1_555 1_555
C46 N3 1_555 1_555

#END
