
#######################################################################
#
#                 Cambridge Crystallographic Data Centre
#                                CCDC 
#
#######################################################################
#
# If this CIF has been generated from an entry in the Cambridge 
# Structural Database, then it will include bibliographic, chemical, 
# crystal, experimental, refinement or atomic coordinate data resulting 
# from the CCDC's data processing and validation procedures.
#
#######################################################################

data_FILDUC
_chemical_formula_moiety         'C18 H17 F1 O2'
_chemical_name_systematic        
4-(1-fluoroprop-2-en-1-yl)-2,2-diphenyl-1,3-dioxolane
_symmetry_cell_setting           monoclinic
_symmetry_space_group_name_H-M   'P 21'
_symmetry_Int_Tables_number      4
_space_group_name_Hall           'P 2yb'
loop_
_symmetry_equiv_pos_site_id
_symmetry_equiv_pos_as_xyz
1 x,y,z
2 -x,1/2+y,-z
_cell_length_a                   5.7745(4)
_cell_length_b                   15.6042(12)
_cell_length_c                   16.0104(12)
_cell_angle_alpha                90
_cell_angle_beta                 94.4580(10)
_cell_angle_gamma                90
_cell_volume                     1438.28
_exptl_crystal_colour            colorless
_exptl_crystal_description       plate
_cell_formula_units_Z            4
loop_
_atom_site_label
_atom_site_type_symbol
_atom_site_fract_x
_atom_site_fract_y
_atom_site_fract_z
C1 C -0.2094(3) 0.34066(12) 0.38974(10)
H1 H -0.3334 0.3838 0.3780
H2 H -0.2530 0.2872 0.3591
O1 O -0.17082(19) 0.32498(8) 0.47765(7)
C2 C 0.0650(3) 0.29886(9) 0.48996(9)
O2 O 0.18700(19) 0.34982(7) 0.43399(6)
C3 C 0.0254(3) 0.37445(10) 0.36525(9)
H3 H 0.0198 0.4383 0.3607
C4 C 0.0926(3) 0.33629(11) 0.28334(9)
H4 H 0.1042 0.2726 0.2896
F1 F 0.31038(18) 0.36857(9) 0.26721(7)
C5 C -0.0812(3) 0.35663(12) 0.21179(10)
H5 H -0.2331 0.3337 0.2137
C6 C -0.0399(4) 0.40357(13) 0.14687(11)
H6 H 0.1099 0.4276 0.1427
H7 H -0.1597 0.4136 0.1039
C7 C 0.1497(3) 0.31907(10) 0.57974(9)
C8 C 0.0073(3) 0.30062(12) 0.64350(10)
H8 H -0.1379 0.2731 0.6308
C9 C 0.0769(4) 0.32234(14) 0.72580(10)
H9 H -0.0220 0.3101 0.7690
C10 C 0.2892(4) 0.36160(13) 0.74533(10)
H10 H 0.3355 0.3770 0.8016
C11 C 0.4331(3) 0.37825(14) 0.68204(11)
H11 H 0.5798 0.4045 0.6952
C12 C 0.3648(3) 0.35682(12) 0.59918(10)
H12 H 0.4651 0.3680 0.5562
C13 C 0.0885(3) 0.20358(9) 0.46972(8)
C14 C 0.2844(3) 0.17283(10) 0.43365(10)
H13 H 0.4035 0.2114 0.4204
C15 C 0.3059(3) 0.08586(11) 0.41695(11)
H14 H 0.4394 0.0654 0.3921
C16 C 0.1339(3) 0.02884(10) 0.43624(11)
H15 H 0.1486 -0.0304 0.4242
C17 C -0.0594(3) 0.05888(11) 0.47312(11)
H16 H -0.1764 0.0199 0.4874
C18 C -0.0831(3) 0.14591(10) 0.48940(10)
H17 H -0.2171 0.1661 0.5141
C19 C 0.7280(3) 0.64823(12) 0.11114(10)
H18 H 0.8414 0.6841 0.1450
H19 H 0.7860 0.5885 0.1110
O3 O 0.69171(19) 0.68046(7) 0.02791(7)
C20 C 0.4501(2) 0.70099(9) 0.01302(8)
O4 O 0.33545(18) 0.65076(7) 0.07091(6)
C21 C 0.4891(3) 0.65232(10) 0.14576(8)
H20 H 0.4712 0.7075 0.1765
C22 C 0.4368(3) 0.57743(10) 0.20107(9)
H21 H 0.4456 0.5231 0.1684
F2 F 0.21242(19) 0.58760(9) 0.22531(7)
C23 C 0.6067(3) 0.57347(12) 0.27638(10)
H22 H 0.7647 0.5624 0.2676
C24 C 0.5528(5) 0.5842(2) 0.35347(13)
H23 H 0.3964 0.5955 0.3646
H24 H 0.6700 0.5809 0.3984
C25 C 0.4140(2) 0.79659(9) 0.02867(8)
C26 C 0.5795(3) 0.85591(9) 0.00710(9)
H25 H 0.7156 0.8371 -0.0172
C27 C 0.5449(3) 0.94288(10) 0.02116(10)
H26 H 0.6570 0.9833 0.0058
C28 C 0.3479(3) 0.97078(10) 0.05741(10)
H27 H 0.3263 1.0301 0.0678
C29 C 0.1824(3) 0.91169(10) 0.07849(10)
H28 H 0.0471 0.9306 0.1032
C30 C 0.2145(3) 0.82462(9) 0.06341(10)
H29 H 0.0996 0.7844 0.0769
C31 C 0.3692(3) 0.67497(9) -0.07531(8)
C32 C 0.5149(3) 0.68861(10) -0.13963(9)
H30 H 0.6603 0.7163 -0.1280
C33 C 0.4475(3) 0.66169(11) -0.22066(10)
H31 H 0.5482 0.6703 -0.2641
C34 C 0.2340(3) 0.62237(11) -0.23844(10)
H32 H 0.1890 0.6035 -0.2937
C35 C 0.0866(3) 0.61081(12) -0.17505(10)
H33 H -0.0605 0.5846 -0.1872
C36 C 0.1528(3) 0.63744(10) -0.09356(9)
H34 H 0.0502 0.6299 -0.0505
loop_
_geom_bond_atom_site_label_1
_geom_bond_atom_site_label_2
_geom_bond_site_symmetry_1
_geom_bond_site_symmetry_2
C1 H1 1_555 1_555
H2 C1 1_555 1_555
O1 C1 1_555 1_555
C2 O1 1_555 1_555
O2 C2 1_555 1_555
C3 C1 1_555 1_555
H3 C3 1_555 1_555
C4 C3 1_555 1_555
H4 C4 1_555 1_555
F1 C4 1_555 1_555
C5 C4 1_555 1_555
H5 C5 1_555 1_555
C6 C5 1_555 1_555
H6 C6 1_555 1_555
H7 C6 1_555 1_555
C7 C2 1_555 1_555
C8 C7 1_555 1_555
H8 C8 1_555 1_555
C9 C8 1_555 1_555
H9 C9 1_555 1_555
C10 C9 1_555 1_555
H10 C10 1_555 1_555
C11 C10 1_555 1_555
H11 C11 1_555 1_555
C12 C7 1_555 1_555
H12 C12 1_555 1_555
C13 C2 1_555 1_555
C14 C13 1_555 1_555
H13 C14 1_555 1_555
C15 C14 1_555 1_555
H14 C15 1_555 1_555
C16 C15 1_555 1_555
H15 C16 1_555 1_555
C17 C16 1_555 1_555
H16 C17 1_555 1_555
C18 C13 1_555 1_555
H17 C18 1_555 1_555
C19 H18 1_555 1_555
H19 C19 1_555 1_555
O3 C19 1_555 1_555
C20 O3 1_555 1_555
O4 C20 1_555 1_555
C21 C19 1_555 1_555
H20 C21 1_555 1_555
C22 C21 1_555 1_555
H21 C22 1_555 1_555
F2 C22 1_555 1_555
C23 C22 1_555 1_555
H22 C23 1_555 1_555
C24 C23 1_555 1_555
H23 C24 1_555 1_555
H24 C24 1_555 1_555
C25 C20 1_555 1_555
C26 C25 1_555 1_555
H25 C26 1_555 1_555
C27 C26 1_555 1_555
H26 C27 1_555 1_555
C28 C27 1_555 1_555
H27 C28 1_555 1_555
C29 C28 1_555 1_555
H28 C29 1_555 1_555
C30 C25 1_555 1_555
H29 C30 1_555 1_555
C31 C20 1_555 1_555
C32 C31 1_555 1_555
H30 C32 1_555 1_555
C33 C32 1_555 1_555
H31 C33 1_555 1_555
C34 C33 1_555 1_555
H32 C34 1_555 1_555
C35 C34 1_555 1_555
H33 C35 1_555 1_555
C36 C31 1_555 1_555
H34 C36 1_555 1_555
O2 C3 1_555 1_555
C11 C12 1_555 1_555
C17 C18 1_555 1_555
O4 C21 1_555 1_555
C29 C30 1_555 1_555
C35 C36 1_555 1_555

#END
