
#######################################################################
#
#                 Cambridge Crystallographic Data Centre
#                                CCDC 
#
#######################################################################
#
# If this CIF has been generated from an entry in the Cambridge 
# Structural Database, then it will include bibliographic, chemical, 
# crystal, experimental, refinement or atomic coordinate data resulting 
# from the CCDC's data processing and validation procedures.
#
#######################################################################

data_FILFAK
_chemical_formula_moiety         'C14 H18 F1 N1 O2 S1'
_chemical_name_systematic        
2-(1-fluoroprop-2-en-1-yl)-1-[(4-methylphenyl)sulfonyl]pyrrolidine
_symmetry_cell_setting           monoclinic
_symmetry_space_group_name_H-M   'P 21'
_symmetry_Int_Tables_number      4
_space_group_name_Hall           'P 2yb'
loop_
_symmetry_equiv_pos_site_id
_symmetry_equiv_pos_as_xyz
1 x,y,z
2 -x,1/2+y,-z
_cell_length_a                   6.1963(6)
_cell_length_b                   13.8442(13)
_cell_length_c                   8.5199(9)
_cell_angle_alpha                90
_cell_angle_beta                 101.713(5)
_cell_angle_gamma                90
_cell_volume                     715.642
_exptl_crystal_colour            colorless
_exptl_crystal_description       prism
_cell_formula_units_Z            2
loop_
_atom_site_label
_atom_site_type_symbol
_atom_site_fract_x
_atom_site_fract_y
_atom_site_fract_z
S1 S 0.43616(8) 0.57510(4) 0.72067(6)
O1 O 0.5272(3) 0.66968(12) 0.7563(2)
O2 O 0.2088(3) 0.55750(13) 0.7215(2)
N1 N 0.4710(3) 0.54907(13) 0.5416(2)
C1 C 0.382(2) 0.4561(7) 0.469(2)
H1 H 0.2781 0.4668 0.3655
H2 H 0.3061 0.4197 0.5417
C2 C 0.5888(9) 0.4034(3) 0.4442(9)
H3 H 0.6662 0.3723 0.5445
H4 H 0.5531 0.3539 0.3590
C3 C 0.7254(14) 0.4850(7) 0.3945(18)
H5 H 0.6740 0.5011 0.2797
H6 H 0.8832 0.4670 0.4131
C4 C 0.6895(3) 0.5698(2) 0.5008(2)
H7 H 0.8065 0.5697 0.6007
C5 C 0.6880(5) 0.6662(2) 0.4167(3)
H8 H 0.6474 0.7177 0.4877
F1 F 0.5296(3) 0.66360(17) 0.2757(2)
C6 C 0.9074(5) 0.6899(2) 0.3801(4)
H9 H 1.0289 0.6934 0.4681
C7 C 0.9468(6) 0.7063(3) 0.2387(4)
H10 H 0.8302 0.7036 0.1472
H11 H 1.0923 0.7210 0.2266
C8 C 0.5943(4) 0.49336(16) 0.8554(3)
C9 C 0.5006(4) 0.40726(18) 0.8927(3)
H12 H 0.3501 0.3935 0.8493
C10 C 0.6286(4) 0.34199(16) 0.9934(3)
H13 H 0.5648 0.2833 1.0195
C11 C 0.8501(4) 0.36087(17) 1.0574(3)
C12 C 0.9393(4) 0.44697(18) 1.0178(3)
H14 H 1.0900 0.4606 1.0603
C13 C 0.8141(4) 0.51328(17) 0.9181(3)
H15 H 0.8779 0.5721 0.8926
C14 C 0.9867(5) 0.2902(2) 1.1707(4)
H16 H 0.9286 0.2248 1.1472
H17 H 0.9803 0.3071 1.2813
H18 H 1.1400 0.2927 1.1573
C15? C 0.394(6) 0.4523(19) 0.478(5)
H19? H 0.2333 0.4524 0.4345
H20? H 0.4287 0.4023 0.5622
C16? C 0.522(2) 0.4349(11) 0.345(2)
H21? H 0.5342 0.3650 0.3241
H22? H 0.4511 0.4678 0.2450
C17? C 0.746(3) 0.4788(19) 0.415(5)
H23? H 0.8261 0.4952 0.3298
H24? H 0.8365 0.4338 0.4920
H25? H 0.8891 0.2470 1.2152
H26? H 1.0815 0.3256 1.2580
H27? H 1.0784 0.2521 1.1126
loop_
_geom_bond_atom_site_label_1
_geom_bond_atom_site_label_2
_geom_bond_site_symmetry_1
_geom_bond_site_symmetry_2
S1 O1 1_555 1_555
O2 S1 1_555 1_555
N1 S1 1_555 1_555
C1 N1 1_555 1_555
H1 C1 1_555 1_555
H2 C1 1_555 1_555
C2 C1 1_555 1_555
H3 C2 1_555 1_555
H4 C2 1_555 1_555
C3 C2 1_555 1_555
H5 C3 1_555 1_555
H6 C3 1_555 1_555
C4 N1 1_555 1_555
H7 C4 1_555 1_555
C5 C4 1_555 1_555
H8 C5 1_555 1_555
F1 C5 1_555 1_555
C6 C5 1_555 1_555
H9 C6 1_555 1_555
C7 C6 1_555 1_555
H10 C7 1_555 1_555
H11 C7 1_555 1_555
C8 S1 1_555 1_555
C9 C8 1_555 1_555
H12 C9 1_555 1_555
C10 C9 1_555 1_555
H13 C10 1_555 1_555
C11 C10 1_555 1_555
C12 C11 1_555 1_555
H14 C12 1_555 1_555
C13 C8 1_555 1_555
H15 C13 1_555 1_555
C14 C11 1_555 1_555
H16 C14 1_555 1_555
H17 C14 1_555 1_555
H18 C14 1_555 1_555
C3 C4 1_555 1_555
C12 C13 1_555 1_555

#END
