
#######################################################################
#
#                 Cambridge Crystallographic Data Centre
#                                CCDC 
#
#######################################################################
#
# If this CIF has been generated from an entry in the Cambridge 
# Structural Database, then it will include bibliographic, chemical, 
# crystal, experimental, refinement or atomic coordinate data resulting 
# from the CCDC's data processing and validation procedures.
#
#######################################################################

data_FILFEO
_chemical_formula_moiety         'C22 H27 F1 O2'
_chemical_name_systematic        
3-[(2-fluorobut-3-en-1-yl)oxy]estra-1,3,5(10)-trien-17-one
_symmetry_cell_setting           orthorhombic
_symmetry_space_group_name_H-M   'P 21 21 21'
_symmetry_Int_Tables_number      19
_space_group_name_Hall           'P 2ac 2ab'
loop_
_symmetry_equiv_pos_site_id
_symmetry_equiv_pos_as_xyz
1 x,y,z
2 1/2-x,-y,1/2+z
3 -x,1/2+y,1/2-z
4 1/2+x,1/2-y,-z
_cell_length_a                   5.9526(5)
_cell_length_b                   9.1966(7)
_cell_length_c                   33.092(3)
_cell_angle_alpha                90
_cell_angle_beta                 90
_cell_angle_gamma                90
_cell_volume                     1811.58
_exptl_crystal_colour            colorless
_exptl_crystal_description       rod
_cell_formula_units_Z            4
loop_
_atom_site_label
_atom_site_type_symbol
_atom_site_fract_x
_atom_site_fract_y
_atom_site_fract_z
C1 C 0.53472(17) 0.67292(12) 0.73008(3)
H1 H 0.3999 0.6255 0.7380
C2 C 0.5935(2) 0.67478(13) 0.68922(3)
H2 H 0.4994 0.6299 0.6697
O1 O 0.86643(17) 0.75320(11) 0.63837(2)
C3 C 0.79112(19) 0.74308(12) 0.67752(3)
C4 C 0.92628(18) 0.80887(12) 0.70655(3)
H3 H 1.0621 0.8547 0.6985
C5 C 0.86586(15) 0.80877(11) 0.74729(3)
C6 C 1.02158(18) 0.88366(13) 0.77685(3)
H4 H 1.0612 0.9806 0.7660
H5 H 1.1620 0.8265 0.7789
C7 C 0.92375(18) 0.90286(12) 0.81904(3)
H6 H 0.8202 0.9871 0.8191
H7 H 1.0467 0.9235 0.8383
C8 C 0.79707(16) 0.76739(11) 0.83271(3)
H8 H 0.9013 0.6822 0.8316
C9 C 0.59680(15) 0.73884(11) 0.80404(3)
H9 H 0.4920 0.8230 0.8074
C10 C 0.66770(15) 0.73862(10) 0.75985(3)
C11 C 0.46431(18) 0.60241(13) 0.81654(3)
H10 H 0.5600 0.5156 0.8125
H11 H 0.3311 0.5925 0.7988
C12 C 0.38652(18) 0.60742(14) 0.86092(3)
H12 H 0.2707 0.6838 0.8641
H13 H 0.3181 0.5130 0.8683
C13 C 0.58299(18) 0.63918(12) 0.88906(3)
C14 C 0.70195(17) 0.77977(11) 0.87541(3)
H14 H 0.5818 0.8556 0.8739
C15 C 0.8489(2) 0.82164(16) 0.91181(3)
H15 H 0.8919 0.9256 0.9109
H16 H 0.9863 0.7612 0.9131
C16 C 0.6912(3) 0.79012(17) 0.94767(4)
H17 H 0.7770 0.7508 0.9708
H18 H 0.6137 0.8801 0.9564
C17 C 0.5218(2) 0.67843(16) 0.93246(3)
O2 O 0.36383(19) 0.62942(17) 0.95139(3)
C18 C 0.7433(2) 0.50817(14) 0.89265(4)
H19 H 0.7899 0.4770 0.8656
H20 H 0.6660 0.4279 0.9063
H21 H 0.8760 0.5363 0.9083
C19 C 0.7330(2) 0.68666(13) 0.60790(3)
H22 H 0.5749 0.7187 0.6104
H23 H 0.7379 0.5796 0.6108
C20 C 0.8263(3) 0.73102(14) 0.56718(4)
H24 H 0.8269 0.8395 0.5652
F1 F 1.04651(18) 0.67991(11) 0.56407(3)
C21 C 0.6830(3) 0.67033(19) 0.53404(4)
H25 H 0.5380 0.7115 0.5304
C22 C 0.7428(4) 0.5644(2) 0.50967(5)
H26 H 0.8864 0.5205 0.5124
H27 H 0.6423 0.5317 0.4893
loop_
_geom_bond_atom_site_label_1
_geom_bond_atom_site_label_2
_geom_bond_site_symmetry_1
_geom_bond_site_symmetry_2
C1 H1 1_555 1_555
C2 C1 1_555 1_555
H2 C2 1_555 1_555
O1 C3 1_555 1_555
C3 C2 1_555 1_555
C4 C3 1_555 1_555
H3 C4 1_555 1_555
C5 C4 1_555 1_555
C6 C5 1_555 1_555
H4 C6 1_555 1_555
H5 C6 1_555 1_555
C7 C6 1_555 1_555
H6 C7 1_555 1_555
H7 C7 1_555 1_555
C8 C7 1_555 1_555
H8 C8 1_555 1_555
C9 C8 1_555 1_555
H9 C9 1_555 1_555
C10 C1 1_555 1_555
C11 C9 1_555 1_555
H10 C11 1_555 1_555
H11 C11 1_555 1_555
C12 C11 1_555 1_555
H12 C12 1_555 1_555
H13 C12 1_555 1_555
C13 C12 1_555 1_555
C14 C8 1_555 1_555
H14 C14 1_555 1_555
C15 C14 1_555 1_555
H15 C15 1_555 1_555
H16 C15 1_555 1_555
C16 C15 1_555 1_555
H17 C16 1_555 1_555
H18 C16 1_555 1_555
C17 C13 1_555 1_555
O2 C17 1_555 1_555
C18 C13 1_555 1_555
H19 C18 1_555 1_555
H20 C18 1_555 1_555
H21 C18 1_555 1_555
C19 O1 1_555 1_555
H22 C19 1_555 1_555
H23 C19 1_555 1_555
C20 C19 1_555 1_555
H24 C20 1_555 1_555
F1 C20 1_555 1_555
C21 C20 1_555 1_555
H25 C21 1_555 1_555
C22 C21 1_555 1_555
H26 C22 1_555 1_555
H27 C22 1_555 1_555
C5 C10 1_555 1_555
C9 C10 1_555 1_555
C13 C14 1_555 1_555
C16 C17 1_555 1_555

#END
