
#######################################################################
#
#                 Cambridge Crystallographic Data Centre
#                                CCDC 
#
#######################################################################
#
# If this CIF has been generated from an entry in the Cambridge 
# Structural Database, then it will include bibliographic, chemical, 
# crystal, experimental, refinement or atomic coordinate data resulting 
# from the CCDC's data processing and validation procedures.
#
#######################################################################

data_FILJAN
_chemical_formula_moiety         'C17 H16 N1 1+,B1 F4 1-'
_chemical_name_systematic        
'3-Ethyl-4-phenylquinolizinium tetrafluoroborate'
_symmetry_cell_setting           triclinic
_symmetry_space_group_name_H-M   'P -1'
_symmetry_Int_Tables_number      2
_space_group_name_Hall           '-P 1'
loop_
_symmetry_equiv_pos_site_id
_symmetry_equiv_pos_as_xyz
1 x,y,z
2 -x,-y,-z
_cell_length_a                   7.2675(3)
_cell_length_b                   7.9484(4)
_cell_length_c                   27.5441(13)
_cell_angle_alpha                82.921(2)
_cell_angle_beta                 83.610(2)
_cell_angle_gamma                74.824(2)
_cell_volume                     1518.69
_cell_formula_units_Z            4
loop_
_atom_site_label
_atom_site_type_symbol
_atom_site_fract_x
_atom_site_fract_y
_atom_site_fract_z
F1 F 0.13562(14) 0.35908(13) 0.42354(4)
F2 F 0.06241(19) 0.23874(17) 0.36031(4)
F3 F 0.13450(15) 0.07207(13) 0.43128(4)
F4 F 0.36723(15) 0.16408(15) 0.38282(4)
B1 B 0.1745(3) 0.2096(3) 0.39873(7)
F5 F 0.34946(19) 0.93585(16) 0.07575(5)
F6 F 0.41262(15) 0.64727(14) 0.10157(4)
F7 F 0.10749(15) 0.80773(18) 0.09779(4)
F8 F 0.28703(19) 0.84548(16) 0.15569(4)
B2 B 0.2888(3) 0.8095(3) 0.10803(7)
N1 N 1.00672(18) 0.30107(16) 0.07322(5)
C1 C 1.2689(2) 0.3385(2) -0.00698(6)
H1 H 1.3615 0.3476 -0.0337
C2 C 1.1228(2) 0.2654(2) -0.01134(6)
H2 H 1.1108 0.2272 -0.0419
C3 C 0.9886(2) 0.2453(2) 0.02871(6)
C4 C 0.8786(2) 0.2795(2) 0.11414(6)
C5 C 0.9120(2) 0.3357(2) 0.16112(6)
C6 C 0.7962(2) 0.4899(2) 0.17803(6)
H3 H 0.7001 0.5629 0.1587
C7 C 0.8222(3) 0.5363(2) 0.22327(6)
H4 H 0.7436 0.6415 0.2349
C8 C 0.9616(2) 0.4303(2) 0.25157(6)
H5 H 0.9772 0.4618 0.2827
C9 C 0.7314(2) 0.2056(2) 0.10983(6)
C10 C 0.7112(2) 0.1508(2) 0.06430(6)
H6 H 0.6097 0.0990 0.0613
C11 C 0.8357(2) 0.1716(2) 0.02483(6)
H7 H 0.8192 0.1359 -0.0057
C12 C 0.5978(2) 0.1703(2) 0.15345(6)
H8 H 0.4685 0.1852 0.1427
H9 H 0.5886 0.2559 0.1774
C13 C 0.6677(3) -0.0133(3) 0.17784(7)
H10 H 0.6746 -0.0982 0.1543
H11 H 0.5788 -0.0332 0.2061
H12 H 0.7950 -0.0276 0.1889
C14 C 1.0782(2) 0.2786(2) 0.23450(6)
H13 H 1.1752 0.2069 0.2538
C15 C 1.0546(2) 0.2305(2) 0.18936(6)
H14 H 1.1352 0.1263 0.1777
C16 C 1.1516(2) 0.3819(2) 0.07665(6)
H15 H 1.1610 0.4252 0.1067
C17 C 1.2795(2) 0.4002(2) 0.03820(6)
H16 H 1.3780 0.4555 0.0416
N2 N 0.46178(17) 0.72625(16) 0.43499(5)
C18 C 0.2771(2) 0.6885(2) 0.52842(6)
H17 H 0.2133 0.6754 0.5602
C19 C 0.4402(2) 0.7452(2) 0.52220(6)
H18 H 0.4910 0.7704 0.5500
C20 C 0.5352(2) 0.7671(2) 0.47516(6)
C21 C 0.5552(2) 0.7425(2) 0.38769(6)
C22 C 0.4685(2) 0.6976(2) 0.34609(6)
C23 C 0.3716(2) 0.8314(2) 0.31381(6)
H19 H 0.3517 0.9502 0.3199
C24 C 0.3041(2) 0.7912(2) 0.27266(6)
H20 H 0.2397 0.8828 0.2503
C25 C 0.3298(2) 0.6190(2) 0.26388(6)
H21 H 0.2852 0.5922 0.2353
C26 C 0.2050(2) 0.6500(2) 0.48717(6)
H22 H 0.0912 0.6104 0.4910
C27 C 0.2960(2) 0.6685(2) 0.44187(6)
H23 H 0.2450 0.6414 0.4144
C28 C 0.7005(2) 0.8289(2) 0.46784(6)
H24 H 0.7511 0.8586 0.4950
C29 C 0.7892(2) 0.8469(2) 0.42210(6)
H25 H 0.9002 0.8908 0.4175
C30 C 0.7181(2) 0.8011(2) 0.38143(6)
C31 C 0.8232(2) 0.8222(2) 0.33162(6)
H26 H 0.7799 0.7568 0.3087
H27 H 0.9619 0.7712 0.3342
C32 C 0.7902(3) 1.0133(3) 0.31104(7)
H28 H 0.6533 1.0638 0.3079
H29 H 0.8606 1.0212 0.2787
H30 H 0.8356 1.0781 0.3333
C33 C 0.4925(3) 0.5242(2) 0.33740(6)
H31 H 0.5584 0.4320 0.3593
C34 C 0.4205(3) 0.4859(2) 0.29674(7)
H32 H 0.4336 0.3673 0.2915
loop_
_geom_bond_atom_site_label_1
_geom_bond_atom_site_label_2
_geom_bond_site_symmetry_1
_geom_bond_site_symmetry_2
F1 B1 1_555 1_555
F2 B1 1_555 1_555
F3 B1 1_555 1_555
F4 B1 1_555 1_555
F5 B2 1_555 1_555
F6 B2 1_555 1_555
F7 B2 1_555 1_555
F8 B2 1_555 1_555
N1 C3 1_555 1_555
C1 H1 1_555 1_555
C2 C1 1_555 1_555
H2 C2 1_555 1_555
C3 C2 1_555 1_555
C4 N1 1_555 1_555
C5 C4 1_555 1_555
C6 C5 1_555 1_555
H3 C6 1_555 1_555
C7 C6 1_555 1_555
H4 C7 1_555 1_555
C8 C7 1_555 1_555
H5 C8 1_555 1_555
C9 C4 1_555 1_555
C10 C9 1_555 1_555
H6 C10 1_555 1_555
C11 C3 1_555 1_555
H7 C11 1_555 1_555
C12 C9 1_555 1_555
H8 C12 1_555 1_555
H9 C12 1_555 1_555
C13 C12 1_555 1_555
H10 C13 1_555 1_555
H11 C13 1_555 1_555
H12 C13 1_555 1_555
C14 C8 1_555 1_555
H13 C14 1_555 1_555
C15 C5 1_555 1_555
H14 C15 1_555 1_555
C16 N1 1_555 1_555
H15 C16 1_555 1_555
C17 C1 1_555 1_555
H16 C17 1_555 1_555
N2 C20 1_555 1_555
C18 H17 1_555 1_555
C19 C18 1_555 1_555
H18 C19 1_555 1_555
C20 C19 1_555 1_555
C21 N2 1_555 1_555
C22 C21 1_555 1_555
C23 C22 1_555 1_555
H19 C23 1_555 1_555
C24 C23 1_555 1_555
H20 C24 1_555 1_555
C25 C24 1_555 1_555
H21 C25 1_555 1_555
C26 C18 1_555 1_555
H22 C26 1_555 1_555
C27 N2 1_555 1_555
H23 C27 1_555 1_555
C28 C20 1_555 1_555
H24 C28 1_555 1_555
C29 C28 1_555 1_555
H25 C29 1_555 1_555
C30 C21 1_555 1_555
C31 C30 1_555 1_555
H26 C31 1_555 1_555
H27 C31 1_555 1_555
C32 C31 1_555 1_555
H28 C32 1_555 1_555
H29 C32 1_555 1_555
H30 C32 1_555 1_555
C33 C22 1_555 1_555
H31 C33 1_555 1_555
C34 C25 1_555 1_555
H32 C34 1_555 1_555
C10 C11 1_555 1_555
C14 C15 1_555 1_555
C16 C17 1_555 1_555
C26 C27 1_555 1_555
C29 C30 1_555 1_555
C33 C34 1_555 1_555

#END
