
#######################################################################
#
#                 Cambridge Crystallographic Data Centre
#                                CCDC 
#
#######################################################################
#
# If this CIF has been generated from an entry in the Cambridge 
# Structural Database, then it will include bibliographic, chemical, 
# crystal, experimental, refinement or atomic coordinate data resulting 
# from the CCDC's data processing and validation procedures.
#
#######################################################################

data_FILQOI
_chemical_formula_moiety         'C19 H17 F1 N2 O3'
_chemical_name_systematic        
6-Fluoro-2,4-dimethyl-8,8-diphenyl-7-oxa-2,4-diazabicyclo[4.2.0]octane-3,5-dione
_symmetry_cell_setting           monoclinic
_symmetry_space_group_name_H-M   'P 21/c'
_symmetry_Int_Tables_number      14
_space_group_name_Hall           '-P 2ybc'
loop_
_symmetry_equiv_pos_site_id
_symmetry_equiv_pos_as_xyz
1 x,y,z
2 -x,1/2+y,1/2-z
3 -x,-y,-z
4 x,1/2-y,1/2+z
_cell_length_a                   12.5372(18)
_cell_length_b                   8.6128(16)
_cell_length_c                   16.238(2)
_cell_angle_alpha                90
_cell_angle_beta                 106.972(2)
_cell_angle_gamma                90
_cell_volume                     1677.02
_exptl_crystal_colour            colorless
_exptl_crystal_description       needle
_cell_formula_units_Z            4
loop_
_atom_site_label
_atom_site_type_symbol
_atom_site_fract_x
_atom_site_fract_y
_atom_site_fract_z
F1 F 0.83020(11) 0.31664(14) 0.01406(8)
N1 N 0.89837(14) 0.7036(2) 0.00581(10)
N2 N 0.93887(12) 0.61933(17) 0.14994(9)
O1 O 0.69669(10) 0.48320(14) 0.02983(7)
O2 O 0.81083(16) 0.5477(2) -0.10555(9)
O3 O 1.01233(12) 0.84127(17) 0.11635(9)
C1 C 0.80974(16) 0.4655(2) 0.03374(12)
C2 C 0.85031(14) 0.5084(2) 0.12712(11)
H1 H 0.8699 0.4153 0.1630
C3 C 0.72619(14) 0.5572(2) 0.11635(10)
C4 C 0.84165(17) 0.5729(3) -0.02900(13)
C5 C 0.95319(15) 0.7286(2) 0.09435(12)
C6 C 0.9087(2) 0.8290(3) -0.05275(15)
H2 H 0.9819 0.8265 -0.0602
H3 H 0.8972 0.9273 -0.0288
H4 H 0.8538 0.8151 -0.1075
C7 C 1.00080(18) 0.6389(3) 0.24052(12)
H5 H 1.0772 0.6628 0.2454
H6 H 0.9973 0.5446 0.2711
H7 H 0.9686 0.7222 0.2646
C8 C 0.66689(15) 0.47722(19) 0.17320(11)
C9 C 0.72325(17) 0.4190(2) 0.25307(12)
H8 H 0.8006 0.4261 0.2727
C10 C 0.6658(2) 0.3501(3) 0.30435(14)
H9 H 0.7046 0.3110 0.3581
C11 C 0.5518(2) 0.3394(3) 0.27602(16)
H10 H 0.5132 0.2929 0.3104
C12 C 0.49486(19) 0.3976(3) 0.19671(15)
H11 H 0.4175 0.3904 0.1774
C13 C 0.55157(16) 0.4665(2) 0.14557(13)
H12 H 0.5122 0.5061 0.0920
C14 C 0.70379(14) 0.7302(2) 0.10920(11)
C15 C 0.66065(17) 0.8030(2) 0.03092(13)
H13 H 0.6432 0.7453 -0.0197
C16 C 0.6433(2) 0.9624(3) 0.02752(17)
H14 H 0.6146 1.0110 -0.0255
C17 C 0.6681(2) 1.0485(3) 0.10158(17)
H15 H 0.6567 1.1553 0.0989
C18 C 0.70965(18) 0.9772(2) 0.17930(15)
H16 H 0.7261 1.0354 0.2297
C19 C 0.72726(16) 0.8192(2) 0.18338(12)
H17 H 0.7553 0.7716 0.2367
loop_
_geom_bond_atom_site_label_1
_geom_bond_atom_site_label_2
_geom_bond_site_symmetry_1
_geom_bond_site_symmetry_2
F1 C1 1_555 1_555
N1 C4 1_555 1_555
N2 C2 1_555 1_555
O1 C1 1_555 1_555
O2 C4 1_555 1_555
O3 C5 1_555 1_555
C1 C2 1_555 1_555
C2 H1 1_555 1_555
C3 O1 1_555 1_555
C4 C1 1_555 1_555
C5 N1 1_555 1_555
C6 N1 1_555 1_555
H2 C6 1_555 1_555
H3 C6 1_555 1_555
H4 C6 1_555 1_555
C7 N2 1_555 1_555
H5 C7 1_555 1_555
H6 C7 1_555 1_555
H7 C7 1_555 1_555
C8 C3 1_555 1_555
C9 C8 1_555 1_555
H8 C9 1_555 1_555
C10 C9 1_555 1_555
H9 C10 1_555 1_555
C11 C10 1_555 1_555
H10 C11 1_555 1_555
C12 C11 1_555 1_555
H11 C12 1_555 1_555
C13 C8 1_555 1_555
H12 C13 1_555 1_555
C14 C3 1_555 1_555
C15 C14 1_555 1_555
H13 C15 1_555 1_555
C16 C15 1_555 1_555
H14 C16 1_555 1_555
C17 C16 1_555 1_555
H15 C17 1_555 1_555
C18 C17 1_555 1_555
H16 C18 1_555 1_555
C19 C14 1_555 1_555
H17 C19 1_555 1_555
N2 C5 1_555 1_555
C2 C3 1_555 1_555
C12 C13 1_555 1_555
C18 C19 1_555 1_555

#END
