
#######################################################################
#
#                 Cambridge Crystallographic Data Centre
#                                CCDC 
#
#######################################################################
#
# If this CIF has been generated from an entry in the Cambridge 
# Structural Database, then it will include bibliographic, chemical, 
# crystal, experimental, refinement or atomic coordinate data resulting 
# from the CCDC's data processing and validation procedures.
#
#######################################################################

data_FILWUU
_chemical_formula_moiety         'C12 H22 F2'
_chemical_name_systematic        1,2-Difluorocyclododecane
_symmetry_cell_setting           orthorhombic
_symmetry_space_group_name_H-M   'P 21 21 21'
_symmetry_Int_Tables_number      19
_space_group_name_Hall           'P 2ac 2ab'
loop_
_symmetry_equiv_pos_site_id
_symmetry_equiv_pos_as_xyz
1 x,y,z
2 1/2+x,1/2-y,-z
3 -x,1/2+y,1/2-z
4 1/2-x,-y,1/2+z
_cell_length_a                   5.746(5)
_cell_length_b                   8.286(6)
_cell_length_c                   24.284(18)
_cell_angle_alpha                90
_cell_angle_beta                 90
_cell_angle_gamma                90
_cell_volume                     1156.19
_exptl_crystal_colour            colorless
_exptl_crystal_description       prism
_cell_formula_units_Z            4
loop_
_atom_site_label
_atom_site_type_symbol
_atom_site_fract_x
_atom_site_fract_y
_atom_site_fract_z
F1 F 0.1786(11) 0.8232(8) 0.9244(3)
F2 F 0.0707(10) 0.5330(8) 0.9625(3)
C1 C 0.3616(16) 0.7199(14) 0.9407(4)
C2 C 0.2813(16) 0.5476(14) 0.9367(5)
C3 C 0.438(2) 0.4228(16) 0.9586(4)
C4 C 0.397(3) 0.2496(13) 0.9357(5)
C5 C 0.464(2) 0.2332(15) 0.8759(6)
C6 C 0.7178(18) 0.2278(14) 0.8645(5)
C7 C 0.783(3) 0.2715(13) 0.8042(5)
C8 C 0.734(3) 0.4384(18) 0.7873(6)
C9 C 0.8621(19) 0.5702(14) 0.8152(4)
C10 C 0.7562(17) 0.7357(12) 0.8111(4)
C11 C 0.539(2) 0.7641(14) 0.8464(4)
C12 C 0.5706(18) 0.7674(12) 0.9063(4)
H1 H 0.3986 0.7433 0.9802
H2 H 0.2562 0.5234 0.8968
H3 H 0.4212 0.4198 0.9992
H4 H 0.6005 0.4547 0.9504
H5 H 0.4886 0.1718 0.9578
H6 H 0.2304 0.2216 0.9399
H7 H 0.3930 0.1333 0.8612
H8 H 0.3969 0.3251 0.8553
H9 H 0.7760 0.1179 0.8727
H10 H 0.7979 0.3036 0.8897
H11 H 0.9511 0.2509 0.7990
H12 H 0.6975 0.1978 0.7792
H13 H 0.5653 0.4580 0.7926
H14 H 0.7650 0.4469 0.7473
H15 H 1.0211 0.5749 0.7995
H16 H 0.8772 0.5422 0.8546
H17 H 0.7151 0.7561 0.7721
H18 H 0.8756 0.8159 0.8217
H19 H 0.4696 0.8682 0.8351
H20 H 0.4252 0.6785 0.8376
H21 H 0.6178 0.8779 0.9170
H22 H 0.7009 0.6943 0.9157
loop_
_geom_bond_atom_site_label_1
_geom_bond_atom_site_label_2
_geom_bond_site_symmetry_1
_geom_bond_site_symmetry_2
F1 C1 1_555 1_555
F2 C2 1_555 1_555
C1 C2 1_555 1_555
C2 C3 1_555 1_555
C3 C4 1_555 1_555
C4 C5 1_555 1_555
C5 C6 1_555 1_555
C6 C7 1_555 1_555
C7 C8 1_555 1_555
C8 C9 1_555 1_555
C9 C10 1_555 1_555
C10 C11 1_555 1_555
C11 C12 1_555 1_555
C12 C1 1_555 1_555
H1 C1 1_555 1_555
H2 C2 1_555 1_555
H3 C3 1_555 1_555
H4 C3 1_555 1_555
H5 C4 1_555 1_555
H6 C4 1_555 1_555
H7 C5 1_555 1_555
H8 C5 1_555 1_555
H9 C6 1_555 1_555
H10 C6 1_555 1_555
H11 C7 1_555 1_555
H12 C7 1_555 1_555
H13 C8 1_555 1_555
H14 C8 1_555 1_555
H15 C9 1_555 1_555
H16 C9 1_555 1_555
H17 C10 1_555 1_555
H18 C10 1_555 1_555
H19 C11 1_555 1_555
H20 C11 1_555 1_555
H21 C12 1_555 1_555
H22 C12 1_555 1_555

#END
