
#######################################################################
#
#                 Cambridge Crystallographic Data Centre
#                                CCDC 
#
#######################################################################
#
# If this CIF has been generated from an entry in the Cambridge 
# Structural Database, then it will include bibliographic, chemical, 
# crystal, experimental, refinement or atomic coordinate data resulting 
# from the CCDC's data processing and validation procedures.
#
#######################################################################

data_FILYAA
_chemical_formula_moiety         'C24 H18 Cl1 N3 O1,0.6(C3 H6 O1)'
_chemical_name_systematic        
'(R)-7-Chloro-1,3-dihydro-3-(1H-indol-3-yl-methyl)-5-phenyl-2H-1,4-benzodiazepin-2-one acetone solvate'
_chemical_properties_biological  
'antagonist agent of peptide hormone cholecystokinin'
_symmetry_cell_setting           orthorhombic
_symmetry_space_group_name_H-M   'P 21 21 21'
_symmetry_Int_Tables_number      19
_space_group_name_Hall           'P 2ac 2ab'
loop_
_symmetry_equiv_pos_site_id
_symmetry_equiv_pos_as_xyz
1 x,y,z
2 1/2+x,1/2-y,-z
3 -x,1/2+y,1/2-z
4 1/2-x,-y,1/2+z
_cell_length_a                   8.758(1)
_cell_length_b                   10.034(2)
_cell_length_c                   28.237(2)
_cell_angle_alpha                90
_cell_angle_beta                 90
_cell_angle_gamma                90
_cell_volume                     2481.4
_exptl_crystal_colour            white
_chemical_melting_point          '130-155 deg.C'
_cell_formula_units_Z            4
_exptl_crystal_preparation       
'metling point reported as indistinct due to foam'
loop_
_atom_site_label
_atom_site_type_symbol
_atom_site_fract_x
_atom_site_fract_y
_atom_site_fract_z
N1 N 1.0919(6) 0.6779(5) 0.0725(1)
C1 C 1.1229(7) 0.5471(6) 0.0678(2)
C2 C 1.1186(7) 0.4674(5) 0.1140(2)
N2 N 1.2584(5) 0.5042(4) 0.1391(1)
C3 C 1.2639(6) 0.6201(5) 0.1592(2)
C4 C 1.1413(6) 0.7194(5) 0.1567(2)
C5 C 1.10852(6) 0.7958(5) 0.1973(2)
C6 C 1.0001(6) 0.8969(5) 0.1943(2)
C7 C 0.9285(7) 0.9273(5) 0.1527(2)
C8 C 0.9586(7) 0.8538(6) 0.1129(2)
C9 C 1.0645(7) 0.7479(5) 0.1146(2)
O1 O 1.1517(5) 0.5002(4) 0.0292(1)
C10 C 1.1204(7) 0.3165(6) 0.1054(2)
C11 C 0.9739(8) 0.2613(5) 0.0866(2)
C12 C 0.9527(9) 0.2117(7) 0.0420(2)
N3 N 0.8072(7) 0.1627(6) 0.0384(2)
C13 C 0.7348(8) 0.1773(6) 0.0814(2)
C14 C 0.5880(8) 0.1386(7) 0.0950(2)
C15 C 0.5490(8) 0.1647(6) 0.1409(3)
C16 C 0.6488(9) 0.2257(6) 0.1724(2)
C17 C 0.7905(8) 0.2637(5) 0.1590(2)
C18 C 0.8372(7) 0.2404(5) 0.1113(2)
C19 C 1.4077(6) 0.6528(5) 0.1846(2)
C20 C 1.4639(6) 0.7811(5) 0.1876(2)
C21 C 1.6003(7) 0.8085(6) 0.2104(2)
C22 C 1.6800(7) 0.7095(7) 0.2302(2)
C23 C 1.6263(7) 0.5781(6) 0.2277(2)
C24 C 1.4906(7) 0.5515(5) 0.2053(2)
Cl1 Cl 0.9590(2) 0.9882(1) 0.2452(1)
H1 H 1.081(6) 0.7427(5) 0.043(2)
H2 H 1.020(5) 0.487(4) 0.131(1)
H3 H 1.162(5) 0.776(4) 0.227(1)
H4 H 0.845(5) 0.984(5) 0.153(1)
H5 H 0.904(5) 0.866(5) 0.087(1)
H6 H 1.135(6) 0.263(5) 0.136(2)
H7 H 1.193(6) 0.294(5) 0.085(2)
H8 H 1.034(6) 0.199(5) 0.015(2)
H9 H 0.775(6) 0.112(6) 0.015(2)
H10 H 0.517(6) 0.086(5) 0.070(2)
H11 H 0.453(6) 0.146(5) 0.153(2)
H12 H 0.616(6) 0.244(6) 0.205(2)
H13 H 0.872(6) 0.309(5) 0.180(2)
H14 H 1.411(5) 0.842(5) 0.176(1)
H15 H 1.638(6) 0.899(5) 0.210(1)
H16 H 1.759(6) 0.746(5) 0.246(2)
H17 H 1.698(5) 0.518(5) 0.241(1)
H18 H 1.444(5) 0.458(5) 0.201(1)
O2 O 1.1056(14) 0.8700(7) -0.0025(2)
C25 C 1.1058(10) 0.8702(9) -0.0395(2)
C26 C 1.1454(14) 0.9605(10) -0.0765(3)
C27 C 1.0323(17) 0.7305(12) -0.0603(4)
loop_
_geom_bond_atom_site_label_1
_geom_bond_atom_site_label_2
_geom_bond_site_symmetry_1
_geom_bond_site_symmetry_2
N1 C1 1_555 1_555
C1 C2 1_555 1_555
C2 N2 1_555 1_555
N2 C3 1_555 1_555
C3 C4 1_555 1_555
C4 C5 1_555 1_555
C5 C6 1_555 1_555
C6 C7 1_555 1_555
C7 C8 1_555 1_555
C8 C9 1_555 1_555
C9 N1 1_555 1_555
O1 C1 1_555 1_555
C10 C2 1_555 1_555
C11 C10 1_555 1_555
C12 C11 1_555 1_555
N3 C12 1_555 1_555
C13 N3 1_555 1_555
C14 C13 1_555 1_555
C15 C14 1_555 1_555
C16 C15 1_555 1_555
C17 C16 1_555 1_555
C18 C11 1_555 1_555
C19 C3 1_555 1_555
C20 C19 1_555 1_555
C21 C20 1_555 1_555
C22 C21 1_555 1_555
C23 C22 1_555 1_555
C24 C19 1_555 1_555
Cl1 C6 1_555 1_555
H1 N1 1_555 1_555
H2 C2 1_555 1_555
H3 C5 1_555 1_555
H4 C7 1_555 1_555
H5 C8 1_555 1_555
H6 C10 1_555 1_555
H7 C10 1_555 1_555
H8 C12 1_555 1_555
H9 N3 1_555 1_555
H10 C14 1_555 1_555
H11 C15 1_555 1_555
H12 C16 1_555 1_555
H13 C17 1_555 1_555
H14 C20 1_555 1_555
H15 C21 1_555 1_555
H16 C22 1_555 1_555
H17 C23 1_555 1_555
H18 C24 1_555 1_555
O2 C25 1_555 1_555
C25 C26 1_555 1_555
C27 C25 1_555 1_555
C4 C9 1_555 1_555
C13 C18 1_555 1_555
C17 C18 1_555 1_555
C23 C24 1_555 1_555

#END
