
#######################################################################
#
#                 Cambridge Crystallographic Data Centre
#                                CCDC 
#
#######################################################################
#
# If this CIF has been generated from an entry in the Cambridge 
# Structural Database, then it will include bibliographic, chemical, 
# crystal, experimental, refinement or atomic coordinate data resulting 
# from the CCDC's data processing and validation procedures.
#
#######################################################################

data_FILYIL
_chemical_formula_moiety         'C42 H43 O1 P1 Si1'
_chemical_name_systematic        
1-(2'-{[t-butyl(diphenyl)silyl]oxy}[1,1'-binaphthalen]-2-yl)-2,5-dimethylphospholane
_symmetry_cell_setting           orthorhombic
_symmetry_space_group_name_H-M   'P 21 21 21'
_symmetry_Int_Tables_number      19
_space_group_name_Hall           'P 2ac 2ab'
loop_
_symmetry_equiv_pos_site_id
_symmetry_equiv_pos_as_xyz
1 x,y,z
2 1/2-x,-y,1/2+z
3 -x,1/2+y,1/2-z
4 1/2+x,1/2-y,-z
_cell_length_a                   10.36420(16)
_cell_length_b                   10.71104(15)
_cell_length_c                   30.9626(4)
_cell_angle_alpha                90
_cell_angle_beta                 90
_cell_angle_gamma                90
_cell_volume                     3437.2
_exptl_crystal_colour            colorless
_exptl_crystal_description       irregular
_cell_formula_units_Z            4
loop_
_atom_site_label
_atom_site_type_symbol
_atom_site_fract_x
_atom_site_fract_y
_atom_site_fract_z
P1 P 0.43988(4) 0.36825(4) 0.66364(2)
Si1 Si 0.76934(4) 0.67995(4) 0.59806(2)
O1 O 0.78080(12) 0.53324(11) 0.61452(4)
C1 C 0.32112(17) 0.24095(17) 0.67721(6)
H1 H 0.327(2) 0.179(2) 0.6543(7)
C2 C 0.18827(18) 0.30392(18) 0.67481(6)
H2 H 0.176(2) 0.354(3) 0.7010(9)
H3 H 0.118(3) 0.247(3) 0.6749(9)
C3 C 0.18765(18) 0.38719(19) 0.63491(7)
H4 H 0.191(2) 0.336(2) 0.6077(8)
H5 H 0.106(3) 0.437(3) 0.6332(9)
C4 C 0.31170(17) 0.46573(17) 0.63598(6)
H6 H 0.300(2) 0.532(2) 0.6570(7)
C5 C 0.3475(2) 0.1802(2) 0.72076(7)
H7 H 0.432(3) 0.139(2) 0.7212(8)
H8 H 0.278(3) 0.117(3) 0.7266(9)
H9 H 0.338(3) 0.243(3) 0.7441(9)
C6 C 0.34722(19) 0.52442(18) 0.59280(6)
H10 H 0.422(3) 0.581(2) 0.5955(8)
H11 H 0.272(3) 0.574(2) 0.5814(8)
H12 H 0.363(2) 0.460(2) 0.5695(8)
C7 C 0.53186(16) 0.29692(15) 0.61880(5)
C8 C 0.46917(17) 0.23687(16) 0.58344(6)
H13 H 0.374(2) 0.235(2) 0.5825(7)
C9 C 0.53727(17) 0.18230(17) 0.55074(5)
H14 H 0.489(2) 0.146(2) 0.5277(8)
C10 C 0.67390(17) 0.18328(16) 0.55103(5)
C11 C 0.74717(19) 0.12502(17) 0.51793(5)
H15 H 0.702(2) 0.084(2) 0.4942(7)
C12 C 0.87947(19) 0.12423(18) 0.51959(6)
H16 H 0.929(2) 0.082(2) 0.4968(8)
C13 C 0.94400(19) 0.18418(18) 0.55375(6)
H17 H 1.039(3) 0.184(2) 0.5548(8)
C14 C 0.87631(17) 0.24214(16) 0.58599(6)
H18 H 0.922(2) 0.2789(19) 0.6108(7)
C15 C 0.73928(17) 0.24289(15) 0.58579(5)
C16 C 0.66553(17) 0.29953(15) 0.61972(5)
C17 C 0.73992(16) 0.35491(15) 0.65654(5)
C18 C 0.79497(16) 0.47150(16) 0.65290(5)
C19 C 0.86870(17) 0.52382(16) 0.68683(6)
H19 H 0.904(2) 0.609(2) 0.6847(7)
C20 C 0.89172(17) 0.45600(17) 0.72343(6)
H20 H 0.945(2) 0.489(2) 0.7462(7)
C21 C 0.84364(16) 0.33278(16) 0.72773(5)
C22 C 0.87374(17) 0.25795(18) 0.76430(6)
H21 H 0.924(2) 0.291(2) 0.7865(8)
C23 C 0.82927(18) 0.13770(18) 0.76732(6)
H22 H 0.849(2) 0.090(2) 0.7931(8)
C24 C 0.75138(18) 0.08743(17) 0.73426(6)
H23 H 0.720(2) 0.005(2) 0.7371(8)
C25 C 0.72043(17) 0.15728(16) 0.69858(6)
H24 H 0.669(2) 0.123(2) 0.6762(7)
C26 C 0.76615(16) 0.28171(15) 0.69414(5)
C27 C 0.62490(16) 0.75179(16) 0.62438(6)
C28 C 0.56982(17) 0.69443(17) 0.66065(6)
H25 H 0.598(2) 0.612(2) 0.6693(8)
C29 C 0.47205(18) 0.75197(19) 0.68407(6)
H26 H 0.434(3) 0.714(2) 0.7087(9)
C30 C 0.42751(19) 0.86895(19) 0.67198(7)
H27 H 0.365(3) 0.911(3) 0.6889(9)
C31 C 0.4792(2) 0.92673(19) 0.63587(7)
H28 H 0.448(3) 1.008(3) 0.6255(9)
C32 C 0.57648(18) 0.86888(18) 0.61226(6)
H29 H 0.611(3) 0.913(3) 0.5879(9)
C33 C 0.91209(17) 0.77810(16) 0.61394(5)
C34 C 0.89428(19) 0.89443(17) 0.63339(7)
H30 H 0.805(3) 0.921(2) 0.6422(9)
C35 C 0.9973(2) 0.97338(18) 0.64241(7)
H31 H 0.981(3) 1.056(3) 0.6537(9)
C36 C 1.1214(2) 0.93694(19) 0.63184(7)
H32 H 1.199(3) 0.990(3) 0.6396(9)
C37 C 1.1429(2) 0.8203(2) 0.61372(7)
H33 H 1.230(3) 0.793(3) 0.6094(10)
C38 C 1.03916(18) 0.74224(18) 0.60491(6)
H34 H 1.060(2) 0.661(2) 0.5924(8)
C39 C 0.75918(18) 0.66046(15) 0.53735(5)
C40 C 0.6349(2) 0.5913(2) 0.52560(6)
H35 H 0.554(3) 0.636(3) 0.5355(9)
H36 H 0.626(3) 0.579(2) 0.4942(9)
H37 H 0.631(3) 0.507(3) 0.5405(10)
C41 C 0.7601(2) 0.78747(19) 0.51464(6)
H38 H 0.685(3) 0.838(3) 0.5225(9)
H39 H 0.760(3) 0.778(2) 0.4810(8)
H40 H 0.838(3) 0.835(3) 0.5219(9)
C42 C 0.8742(2) 0.5836(2) 0.52086(6)
H41 H 0.961(3) 0.631(3) 0.5259(10)
H42 H 0.863(3) 0.573(3) 0.4885(9)
H43 H 0.881(3) 0.505(3) 0.5346(9)
loop_
_geom_bond_atom_site_label_1
_geom_bond_atom_site_label_2
_geom_bond_site_symmetry_1
_geom_bond_site_symmetry_2
P1 C1 1_555 1_555
Si1 O1 1_555 1_555
O1 C18 1_555 1_555
C1 H1 1_555 1_555
C2 C1 1_555 1_555
H2 C2 1_555 1_555
H3 C2 1_555 1_555
C3 C2 1_555 1_555
H4 C3 1_555 1_555
H5 C3 1_555 1_555
C4 P1 1_555 1_555
H6 C4 1_555 1_555
C5 C1 1_555 1_555
H7 C5 1_555 1_555
H8 C5 1_555 1_555
H9 C5 1_555 1_555
C6 C4 1_555 1_555
H10 C6 1_555 1_555
H11 C6 1_555 1_555
H12 C6 1_555 1_555
C7 P1 1_555 1_555
C8 C7 1_555 1_555
H13 C8 1_555 1_555
C9 C8 1_555 1_555
H14 C9 1_555 1_555
C10 C9 1_555 1_555
C11 C10 1_555 1_555
H15 C11 1_555 1_555
C12 C11 1_555 1_555
H16 C12 1_555 1_555
C13 C12 1_555 1_555
H17 C13 1_555 1_555
C14 C13 1_555 1_555
H18 C14 1_555 1_555
C15 C10 1_555 1_555
C16 C7 1_555 1_555
C17 C16 1_555 1_555
C18 C17 1_555 1_555
C19 C18 1_555 1_555
H19 C19 1_555 1_555
C20 C19 1_555 1_555
H20 C20 1_555 1_555
C21 C20 1_555 1_555
C22 C21 1_555 1_555
H21 C22 1_555 1_555
C23 C22 1_555 1_555
H22 C23 1_555 1_555
C24 C23 1_555 1_555
H23 C24 1_555 1_555
C25 C24 1_555 1_555
H24 C25 1_555 1_555
C26 C17 1_555 1_555
C27 Si1 1_555 1_555
C28 C27 1_555 1_555
H25 C28 1_555 1_555
C29 C28 1_555 1_555
H26 C29 1_555 1_555
C30 C29 1_555 1_555
H27 C30 1_555 1_555
C31 C30 1_555 1_555
H28 C31 1_555 1_555
C32 C27 1_555 1_555
H29 C32 1_555 1_555
C33 Si1 1_555 1_555
C34 C33 1_555 1_555
H30 C34 1_555 1_555
C35 C34 1_555 1_555
H31 C35 1_555 1_555
C36 C35 1_555 1_555
H32 C36 1_555 1_555
C37 C36 1_555 1_555
H33 C37 1_555 1_555
C38 C33 1_555 1_555
H34 C38 1_555 1_555
C39 Si1 1_555 1_555
C40 C39 1_555 1_555
H35 C40 1_555 1_555
H36 C40 1_555 1_555
H37 C40 1_555 1_555
C41 C39 1_555 1_555
H38 C41 1_555 1_555
H39 C41 1_555 1_555
H40 C41 1_555 1_555
C42 C39 1_555 1_555
H41 C42 1_555 1_555
H42 C42 1_555 1_555
H43 C42 1_555 1_555
C3 C4 1_555 1_555
C14 C15 1_555 1_555
C15 C16 1_555 1_555
C21 C26 1_555 1_555
C25 C26 1_555 1_555
C31 C32 1_555 1_555
C37 C38 1_555 1_555

#END
