
#######################################################################
#
#                 Cambridge Crystallographic Data Centre
#                                CCDC 
#
#######################################################################
#
# If this CIF has been generated from an entry in the Cambridge 
# Structural Database, then it will include bibliographic, chemical, 
# crystal, experimental, refinement or atomic coordinate data resulting 
# from the CCDC's data processing and validation procedures.
#
#######################################################################

data_FIMJUG
_chemical_formula_moiety         'C13 H13 N3 O1'
_chemical_name_systematic        
5-Phenyl-3,4,5-triazatricyclo(5.2.1.0^2,6^)dec-3-en-9-one
_symmetry_cell_setting           triclinic
_symmetry_space_group_name_H-M   'P -1'
_symmetry_Int_Tables_number      2
_space_group_name_Hall           '-P 1'
loop_
_symmetry_equiv_pos_site_id
_symmetry_equiv_pos_as_xyz
1 x,y,z
2 -x,-y,-z
_cell_length_a                   12.027(2)
_cell_length_b                   18.606(2)
_cell_length_c                   10.859(3)
_cell_angle_alpha                107.26(2)
_cell_angle_beta                 90.44(2)
_cell_angle_gamma                100.66(2)
_cell_volume                     2275.42
_exptl_crystal_colour            colorless
_chemical_melting_point          141-145deg.C
_cell_formula_units_Z            8
loop_
_atom_site_label
_atom_site_type_symbol
_atom_site_fract_x
_atom_site_fract_y
_atom_site_fract_z
C1 C 0.0587(2) 0.3676(1) 0.1784(2)
C2 C 0.0897(2) 0.4533(1) 0.2570(2)
N1 N 0.0118(1) 0.4976(1) 0.2195(2)
N2 N 0.0639(1) 0.5421(1) 0.1619(2)
N3 N 0.1750(1) 0.5370(1) 0.1514(2)
C3 C 0.2057(2) 0.4813(1) 0.2100(2)
C4 C 0.2300(2) 0.4083(1) 0.1118(2)
C5 C 0.2554(2) 0.3554(1) 0.1887(2)
C6 C 0.1406(2) 0.3310(1) 0.2357(2)
C7 C 0.1106(2) 0.3679(1) 0.0503(2)
C8 C 0.2472(2) 0.5848(1) 0.0945(2)
C9 C 0.2036(2) 0.6273(1) 0.0274(2)
C10 C 0.2757(2) 0.6733(1) -0.0285(2)
C11 C 0.3909(2) 0.6782(1) -0.0191(2)
C12 C 0.4340(2) 0.6363(1) 0.0486(3)
C13 C 0.3631(2) 0.5892(1) 0.1049(2)
O1 O 0.1181(1) 0.2916(1) 0.3063(2)
H1 H -0.0200 0.3444 0.1748
H2 H 0.0874 0.4598 0.3480
H3 H 0.2710 0.5038 0.2697
H4 H 0.2883 0.4184 0.0558
H5 H 0.3101 0.3826 0.2597
H6 H 0.2823 0.3121 0.1344
H7 H 0.1085 0.3173 -0.0073
H8 H 0.0767 0.3972 0.0065
H9 H 0.1232 0.6247 0.0200
H10 H 0.2448 0.7024 -0.0752
H11 H 0.4405 0.7103 -0.0587
H12 H 0.5146 0.6398 0.0568
H13 H 0.3943 0.5598 0.1509
C14 C -0.1314(2) -0.1187(1) -0.3027(2)
C15 C -0.1197(2) -0.0341(1) -0.2993(2)
N4 N -0.0164(2) 0.0137(1) -0.2206(2)
N5 N -0.0426(1) 0.0591(1) -0.1188(2)
N6 N -0.1565(1) 0.0522(1) -0.1115(2)
C16 C -0.2196(2) -0.0083(1) -0.2216(2)
C17 C -0.2768(2) -0.0803(1) -0.1874(2)
C18 C -0.3361(2) -0.1382(1) -0.3123(2)
C19 C -0.2360(2) -0.1589(1) -0.3904(2)
C20 C -0.1745(2) -0.1158(1) -0.1695(2)
C21 C -0.2017(2) 0.0963(1) -0.0027(2)
C22 C -0.1323(2) 0.1420(1) 0.1057(2)
C23 C -0.1794(2) 0.1833(1) 0.2119(2)
C24 C -0.2952(2) 0.1804(1) 0.2126(2)
C25 C -0.3631(2) 0.1365(1) 0.1049(2)
C26 C -0.3175(2) 0.0941(1) -0.0029(2)
O2 O -0.2404(2) -0.1977(1) -0.5021(2)
H14 H -0.0653 -0.1406 -0.3253
H15 H -0.1175 -0.0292 -0.3849
H16 H -0.2769 0.0097 -0.2598
H17 H -0.3259 -0.0695 -0.1178
H18 H -0.3832 -0.1154 -0.3552
H19 H -0.3809 -0.1824 -0.2959
H20 H -0.1960 -0.1657 -0.1583
H21 H -0.1216 -0.0834 -0.0998
H22 H -0.0517 0.1447 0.1063
H23 H -0.1313 0.2147 0.2868
H24 H -0.3276 0.2088 0.2878
H25 H -0.4434 0.1352 0.1042
H26 H -0.3661 0.0633 -0.0778
C27 C 0.4329(2) 0.1246(1) -0.1908(2)
C28 C 0.4046(2) 0.0383(1) -0.2035(2)
N7 N 0.4833(2) -0.0041(1) -0.2867(2)
N8 N 0.4307(2) -0.0484(1) -0.3904(2)
N9 N 0.3190(1) -0.0450(1) -0.3956(2)
C29 C 0.2885(2) 0.0099(1) -0.2795(2)
C30 C 0.2621(2) 0.0829(1) -0.3023(2)
C31 C 0.2355(2) 0.1338(1) -0.1710(2)
C32 C 0.3500(2) 0.1584(1) -0.0975(2)
C33 C 0.3803(2) 0.1254(1) -0.3191(2)
C34 C 0.2462(2) -0.0926(1) -0.5014(2)
C35 C 0.2885(2) -0.1328(1) -0.6141(2)
C36 C 0.2151(3) -0.1787(2) -0.7167(2)
C37 C 0.1001(3) -0.1854(2) -0.7101(2)
C38 C 0.0581(2) -0.1454(2) -0.5989(3)
C39 C 0.1300(2) -0.0989(1) -0.4947(2)
O3 O 0.3711(1) 0.1961(1) 0.0150(2)
H27 H 0.5112 0.1487 -0.1689
H28 H 0.4081 0.0307 -0.1199
H29 H 0.2241 -0.0133 -0.2433
H30 H 0.2041 0.0728 -0.3699
H31 H 0.1815 0.1053 -0.1297
H32 H 0.2073 0.1772 -0.1796
H33 H 0.3806 0.1763 -0.3220
H34 H 0.4149 0.0977 -0.3929
H35 H 0.3690 -0.1285 -0.6205
H36 H 0.2450 -0.2066 -0.7942
H37 H 0.0496 -0.2177 -0.7822
H38 H -0.0225 -0.1499 -0.5935
H39 H 0.0995 -0.0708 -0.4177
C40 C 0.3703(2) 0.3827(1) -0.3203(2)
C41 C 0.3846(2) 0.4679(1) -0.2397(2)
N10 N 0.4872(2) 0.5149(1) -0.2721(2)
N11 N 0.4594(1) 0.5594(1) -0.3292(2)
N12 N 0.3454(1) 0.5529(1) -0.3425(2)
C42 C 0.2837(2) 0.4937(1) -0.2913(2)
C43 C 0.2238(2) 0.4210(1) -0.3961(2)
C44 C 0.1661(2) 0.3645(1) -0.3274(2)
C45 C 0.2665(2) 0.3443(1) -0.2699(2)
C46 C 0.3238(2) 0.3843(1) -0.4507(2)
C47 C 0.2978(2) 0.5954(1) -0.4090(2)
C48 C 0.3647(2) 0.6385(1) -0.4753(2)
C49 C 0.3143(2) 0.6783(1) -0.5418(2)
C50 C 0.1993(2) 0.6762(1) -0.5427(2)
C51 C 0.1341(2) 0.6340(1) -0.4759(2)
C52 C 0.1824(2) 0.5935(1) -0.4085(2)
O4 O 0.2653(2) 0.3078(1) -0.1944(2)
H40 H 0.4361 0.3601 -0.3205
H41 H 0.3891 0.4738 -0.1488
H42 H 0.2279 0.5129 -0.2345
H43 H 0.1732 0.4313 -0.4549
H44 H 0.1202 0.3199 -0.3876
H45 H 0.1203 0.3883 -0.2614
H46 H 0.3758 0.4158 -0.4892
H47 H 0.3006 0.3340 -0.5113
H48 H 0.4452 0.6408 -0.4750
H49 H 0.3604 0.7080 -0.5883
H50 H 0.1652 0.7039 -0.5896
H51 H 0.0538 0.6325 -0.4757
H52 H 0.1358 0.5644 -0.3617
loop_
_geom_bond_atom_site_label_1
_geom_bond_atom_site_label_2
_geom_bond_site_symmetry_1
_geom_bond_site_symmetry_2
C1 C2 1_555 1_555
C2 N1 1_555 1_555
N1 N2 1_555 1_555
N2 N3 1_555 1_555
N3 C3 1_555 1_555
C3 C2 1_555 1_555
C4 C3 1_555 1_555
C5 C4 1_555 1_555
C6 C1 1_555 1_555
C7 C1 1_555 1_555
C8 N3 1_555 1_555
C9 C8 1_555 1_555
C10 C9 1_555 1_555
C11 C10 1_555 1_555
C12 C11 1_555 1_555
C13 C8 1_555 1_555
O1 C6 1_555 1_555
H1 C1 1_555 1_555
H2 C2 1_555 1_555
H3 C3 1_555 1_555
H4 C4 1_555 1_555
H5 C5 1_555 1_555
H6 C5 1_555 1_555
H7 C7 1_555 1_555
H8 C7 1_555 1_555
H9 C9 1_555 1_555
H10 C10 1_555 1_555
H11 C11 1_555 1_555
H12 C12 1_555 1_555
H13 C13 1_555 1_555
C14 C15 1_555 1_555
C15 N4 1_555 1_555
N4 N5 1_555 1_555
N5 N6 1_555 1_555
N6 C16 1_555 1_555
C16 C15 1_555 1_555
C17 C16 1_555 1_555
C18 C17 1_555 1_555
C19 C14 1_555 1_555
C20 C14 1_555 1_555
C21 N6 1_555 1_555
C22 C21 1_555 1_555
C23 C22 1_555 1_555
C24 C23 1_555 1_555
C25 C24 1_555 1_555
C26 C21 1_555 1_555
O2 C19 1_555 1_555
H14 C14 1_555 1_555
H15 C15 1_555 1_555
H16 C16 1_555 1_555
H17 C17 1_555 1_555
H18 C18 1_555 1_555
H19 C18 1_555 1_555
H20 C20 1_555 1_555
H21 C20 1_555 1_555
H22 C22 1_555 1_555
H23 C23 1_555 1_555
H24 C24 1_555 1_555
H25 C25 1_555 1_555
H26 C26 1_555 1_555
C27 C28 1_555 1_555
C28 N7 1_555 1_555
N7 N8 1_555 1_555
N8 N9 1_555 1_555
N9 C29 1_555 1_555
C29 C28 1_555 1_555
C30 C29 1_555 1_555
C31 C30 1_555 1_555
C32 C27 1_555 1_555
C33 C27 1_555 1_555
C34 N9 1_555 1_555
C35 C34 1_555 1_555
C36 C35 1_555 1_555
C37 C36 1_555 1_555
C38 C37 1_555 1_555
C39 C34 1_555 1_555
O3 C32 1_555 1_555
H27 C27 1_555 1_555
H28 C28 1_555 1_555
H29 C29 1_555 1_555
H30 C30 1_555 1_555
H31 C31 1_555 1_555
H32 C31 1_555 1_555
H33 C33 1_555 1_555
H34 C33 1_555 1_555
H35 C35 1_555 1_555
H36 C36 1_555 1_555
H37 C37 1_555 1_555
H38 C38 1_555 1_555
H39 C39 1_555 1_555
C40 C41 1_555 1_555
C41 N10 1_555 1_555
N10 N11 1_555 1_555
N11 N12 1_555 1_555
N12 C42 1_555 1_555
C42 C41 1_555 1_555
C43 C42 1_555 1_555
C44 C43 1_555 1_555
C45 C40 1_555 1_555
C46 C40 1_555 1_555
C47 N12 1_555 1_555
C48 C47 1_555 1_555
C49 C48 1_555 1_555
C50 C49 1_555 1_555
C51 C50 1_555 1_555
C52 C47 1_555 1_555
O4 C45 1_555 1_555
H40 C40 1_555 1_555
H41 C41 1_555 1_555
H42 C42 1_555 1_555
H43 C43 1_555 1_555
H44 C44 1_555 1_555
H45 C44 1_555 1_555
H46 C46 1_555 1_555
H47 C46 1_555 1_555
H48 C48 1_555 1_555
H49 C49 1_555 1_555
H50 C50 1_555 1_555
H51 C51 1_555 1_555
H52 C52 1_555 1_555
C4 C7 1_555 1_555
C5 C6 1_555 1_555
C12 C13 1_555 1_555
C17 C20 1_555 1_555
C18 C19 1_555 1_555
C25 C26 1_555 1_555
C30 C33 1_555 1_555
C31 C32 1_555 1_555
C38 C39 1_555 1_555
C43 C46 1_555 1_555
C44 C45 1_555 1_555
C51 C52 1_555 1_555

#END
