
#######################################################################
#
#                 Cambridge Crystallographic Data Centre
#                                CCDC 
#
#######################################################################
#
# If this CIF has been generated from an entry in the Cambridge 
# Structural Database, then it will include bibliographic, chemical, 
# crystal, experimental, refinement or atomic coordinate data resulting 
# from the CCDC's data processing and validation procedures.
#
#######################################################################

data_FIMJOA
_chemical_formula_moiety         'C15 H17 Cl1 O2 S1'
_chemical_name_systematic        
6-endo-Chloro-5-exo-p-tolylsulfoxylbicyclo(2.2.2)octan-2-one
_symmetry_cell_setting           monoclinic
_symmetry_space_group_name_H-M   'P 21/a'
_symmetry_Int_Tables_number      14
_space_group_name_Hall           '-P 2yab'
loop_
_symmetry_equiv_pos_site_id
_symmetry_equiv_pos_as_xyz
1 x,y,z
2 1/2-x,1/2+y,-z
3 -x,-y,-z
4 1/2+x,1/2-y,z
_cell_length_a                   19.172(8)
_cell_length_b                   10.345(8)
_cell_length_c                   7.162(4)
_cell_angle_alpha                90
_cell_angle_beta                 94.65(4)
_cell_angle_gamma                90
_cell_volume                     1415.8
_exptl_crystal_colour            colorless
_chemical_melting_point          198-199deg.C
_cell_formula_units_Z            4
loop_
_atom_site_label
_atom_site_type_symbol
_atom_site_fract_x
_atom_site_fract_y
_atom_site_fract_z
S1 S 0.2470(1) 0.0530(2) 0.5456(2)
Cl1 Cl 0.2604(1) -0.0901(2) 1.0712(2)
O1 O 0.2406(2) 0.1841(4) 0.4653(5)
C1 C 0.1306(3) -0.1096(5) 0.8880(7)
C2 C 0.1031(3) -0.0132(5) 1.0187(7)
O2 O 0.0734(2) -0.0435(4) 1.1568(5)
C3 C 0.1127(3) 0.1227(5) 0.9570(7)
C4 C 0.1381(3) 0.1226(5) 0.7598(7)
C5 C 0.2116(2) 0.0594(5) 0.7769(6)
C6 C 0.2080(3) -0.0740(5) 0.8572(7)
C7 C 0.0879(3) -0.0956(6) 0.7018(8)
C8 C 0.0885(3) 0.0447(6) 0.6337(7)
C9 C 0.3380(2) 0.0328(5) 0.6301(6)
C10 C 0.3663(3) -0.0900(5) 0.6380(7)
C11 C 0.4369(3) -0.1029(5) 0.6914(7)
C12 C 0.4786(3) 0.0033(5) 0.7325(6)
C13 C 0.4480(3) 0.1258(6) 0.7247(7)
C14 C 0.3773(3) 0.1409(5) 0.6727(7)
C15 C 0.5563(3) -0.0137(7) 0.7890(7)
H1 H 0.1257 -0.1973 0.9354
H2 H 0.0678 0.1686 0.9538
H3 H 0.1453 0.1679 1.0422
H4 H 0.1405 0.2121 0.7094
H5 H 0.2418 0.1141 0.8635
H6 H 0.2258 -0.1346 0.7633
H7 H 0.1079 -0.1512 0.6085
H8 H 0.0404 -0.1238 0.7119
H9 H 0.0421 0.0800 0.6343
H10 H 0.1030 0.0480 0.5083
H11 H 0.3359 -0.1651 0.6074
H12 H 0.4589 -0.1895 0.6972
H13 H 0.4777 0.2005 0.7519
H14 H 0.3560 0.2256 0.6709
H15 H 0.5794 0.0696 0.8162
H16 H 0.5804 -0.0544 0.6907
H17 H 0.5645 -0.0662 0.9014
loop_
_geom_bond_atom_site_label_1
_geom_bond_atom_site_label_2
_geom_bond_site_symmetry_1
_geom_bond_site_symmetry_2
S1 O1 1_555 1_555
Cl1 C6 1_555 1_555
C1 C2 1_555 1_555
C2 O2 1_555 1_555
C3 C2 1_555 1_555
C4 C3 1_555 1_555
C5 S1 1_555 1_555
C6 C1 1_555 1_555
C7 C1 1_555 1_555
C8 C4 1_555 1_555
C9 S1 1_555 1_555
C10 C9 1_555 1_555
C11 C10 1_555 1_555
C12 C11 1_555 1_555
C13 C12 1_555 1_555
C14 C9 1_555 1_555
C15 C12 1_555 1_555
H1 C1 1_555 1_555
H2 C3 1_555 1_555
H3 C3 1_555 1_555
H4 C4 1_555 1_555
H5 C5 1_555 1_555
H6 C6 1_555 1_555
H7 C7 1_555 1_555
H8 C7 1_555 1_555
H9 C8 1_555 1_555
H10 C8 1_555 1_555
H11 C10 1_555 1_555
H12 C11 1_555 1_555
H13 C13 1_555 1_555
H14 C14 1_555 1_555
H15 C15 1_555 1_555
H16 C15 1_555 1_555
H17 C15 1_555 1_555
C4 C5 1_555 1_555
C5 C6 1_555 1_555
C7 C8 1_555 1_555
C13 C14 1_555 1_555

#END
