
#######################################################################
#
#                 Cambridge Crystallographic Data Centre
#                                CCDC 
#
#######################################################################
#
# If this CIF has been generated from an entry in the Cambridge 
# Structural Database, then it will include bibliographic, chemical, 
# crystal, experimental, refinement or atomic coordinate data resulting 
# from the CCDC's data processing and validation procedures.
#
#######################################################################

data_FIMKER
_chemical_formula_moiety         'C16 H17 N1 O1'
_chemical_name_systematic        
5'-Phenylspiro(cyclopropane-1,9'-(3-oxa-4-azatricyclo(5.2.1.0^2,6^)dec-4-ene))
_symmetry_cell_setting           triclinic
_symmetry_space_group_name_H-M   'P -1'
_symmetry_Int_Tables_number      2
_space_group_name_Hall           '-P 1'
loop_
_symmetry_equiv_pos_site_id
_symmetry_equiv_pos_as_xyz
1 x,y,z
2 -x,-y,-z
_cell_length_a                   9.860(7)
_cell_length_b                   11.016(20)
_cell_length_c                   6.597(9)
_cell_angle_alpha                95.20(12)
_cell_angle_beta                 82.39(9)
_cell_angle_gamma                116.07(11)
_cell_volume                     637.555
_exptl_crystal_colour            colorless
_cell_formula_units_Z            2
loop_
_atom_site_label
_atom_site_type_symbol
_atom_site_fract_x
_atom_site_fract_y
_atom_site_fract_z
C1 C 0.0282(2) 0.3793(2) 0.7107(3)
C2 C 0.1573(2) 0.3355(2) 0.6479(3)
C3 C 0.2434(2) 0.3852(2) 0.4432(3)
N1 N 0.2195(2) 0.2940(2) 0.3019(2)
O1 O 0.1160(2) 0.1667(1) 0.3808(2)
C4 C 0.0718(2) 0.1836(2) 0.5971(3)
C5 C -0.0953(2) 0.1564(2) 0.6366(3)
C6 C -0.1293(2) 0.1691(2) 0.8665(3)
C7 C -0.0473(2) 0.3206(2) 0.9207(3)
C8 C -0.0902(2) 0.2878(2) 0.5685(3)
C9 C 0.3483(2) 0.5283(2) 0.4021(3)
C10 C 0.4014(2) 0.5697(2) 0.2019(3)
C11 C 0.5011(2) 0.7036(2) 0.1649(4)
C12 C 0.5460(2) 0.7962(2) 0.3240(4)
C13 C 0.4951(2) 0.7570(2) 0.5225(4)
C14 C 0.3951(2) 0.6226(2) 0.5608(3)
C15 C -0.1495(2) 0.0613(2) 1.0064(3)
C16 C -0.2833(2) 0.0848(2) 0.9722(3)
H1 H 0.0622 0.4761 0.7090
H2 H 0.2266 0.3667 0.7549
H3 H 0.0919 0.1239 0.6762
H4 H -0.1639 0.0714 0.5726
H5 H 0.0266 0.3408 1.0162
H6 H -0.1180 0.3575 0.9790
H7 H -0.0554 0.3042 0.4256
H8 H -0.1857 0.2930 0.5979
H9 H 0.3680 0.5041 0.0873
H10 H 0.5409 0.7327 0.0254
H11 H 0.6164 0.8893 0.2974
H12 H 0.5277 0.8254 0.6340
H13 H 0.3574 0.5939 0.7022
H14 H -0.1408 -0.0199 0.9524
H15 H -0.1079 0.0855 1.1372
H16 H -0.3306 0.1244 1.0792
H17 H -0.3636 0.0189 0.8944
loop_
_geom_bond_atom_site_label_1
_geom_bond_atom_site_label_2
_geom_bond_site_symmetry_1
_geom_bond_site_symmetry_2
C1 C2 1_555 1_555
C2 C3 1_555 1_555
C3 N1 1_555 1_555
N1 O1 1_555 1_555
O1 C4 1_555 1_555
C4 C2 1_555 1_555
C5 C4 1_555 1_555
C6 C5 1_555 1_555
C7 C1 1_555 1_555
C8 C1 1_555 1_555
C9 C3 1_555 1_555
C10 C9 1_555 1_555
C11 C10 1_555 1_555
C12 C11 1_555 1_555
C13 C12 1_555 1_555
C14 C9 1_555 1_555
C15 C6 1_555 1_555
C16 C6 1_555 1_555
H1 C1 1_555 1_555
H2 C2 1_555 1_555
H3 C4 1_555 1_555
H4 C5 1_555 1_555
H5 C7 1_555 1_555
H6 C7 1_555 1_555
H7 C8 1_555 1_555
H8 C8 1_555 1_555
H9 C10 1_555 1_555
H10 C11 1_555 1_555
H11 C12 1_555 1_555
H12 C13 1_555 1_555
H13 C14 1_555 1_555
H14 C15 1_555 1_555
H15 C15 1_555 1_555
H16 C16 1_555 1_555
H17 C16 1_555 1_555
C5 C8 1_555 1_555
C6 C7 1_555 1_555
C13 C14 1_555 1_555
C15 C16 1_555 1_555

#END
