
#######################################################################
#
#                 Cambridge Crystallographic Data Centre
#                                CCDC 
#
#######################################################################
#
# If this CIF has been generated from an entry in the Cambridge 
# Structural Database, then it will include bibliographic, chemical, 
# crystal, experimental, refinement or atomic coordinate data resulting 
# from the CCDC's data processing and validation procedures.
#
#######################################################################

data_FIMKUK
_chemical_formula_moiety         'C28 H18 N4,2(C12 H4 N4)'
_chemical_name_systematic        
"bis(2,2'-(cyclohexa-2,5-diene-1,4-diylidene)dipropanedinitrile) 9,9'-(pyrazine-2,5-diyl)bis(9H-carbazole)"
_symmetry_cell_setting           monoclinic
_symmetry_space_group_name_H-M   'P 21/n'
_symmetry_Int_Tables_number      14
_space_group_name_Hall           '-P 2yn'
loop_
_symmetry_equiv_pos_site_id
_symmetry_equiv_pos_as_xyz
1 x,y,z
2 1/2-x,1/2+y,1/2-z
3 -x,-y,-z
4 1/2+x,1/2-y,1/2+z
_cell_length_a                   7.311(6)
_cell_length_b                   9.744(7)
_cell_length_c                   28.77(2)
_cell_angle_alpha                90
_cell_angle_beta                 91.900(10)
_cell_angle_gamma                90
_cell_volume                     2048.4
_exptl_crystal_colour            'dark black'
_exptl_crystal_description       needle
_cell_formula_units_Z            2
loop_
_atom_site_label
_atom_site_type_symbol
_atom_site_fract_x
_atom_site_fract_y
_atom_site_fract_z
N1 N 0.8962(3) 0.4801(2) 0.45908(6)
N2 N 1.0721(3) 0.6422(2) 0.42071(6)
C1 C 1.0335(3) 0.5701(2) 0.46158(7)
C2 C 0.8635(3) 0.4105(2) 0.49759(7)
H1 H 0.7687 0.3468 0.4972
C3 C 1.1301(3) 0.7795(3) 0.41802(8)
C4 C 1.0663(3) 0.5866(3) 0.37576(8)
C5 C 1.1629(3) 0.8099(3) 0.37135(8)
C6 C 1.1226(3) 0.6887(3) 0.34474(8)
C7 C 1.1492(4) 0.8775(3) 0.45273(10)
H2 H 1.1236 0.8572 0.4834
C8 C 1.0197(4) 0.4559(3) 0.36076(8)
H3 H 0.9838 0.3886 0.3815
C9 C 1.2214(4) 0.9433(4) 0.36009(11)
H4 H 1.2447 0.9662 0.3295
C10 C 1.1298(4) 0.6580(4) 0.29732(9)
H5 H 1.1665 0.7241 0.2762
C11 C 1.0822(4) 0.5304(4) 0.28267(9)
H6 H 1.0853 0.5100 0.2511
C12 C 1.2072(4) 1.0059(3) 0.44006(12)
H7 H 1.2225 1.0729 0.4629
C13 C 1.0288(4) 0.4293(3) 0.31342(9)
H8 H 0.9987 0.3424 0.3022
C14 C 1.2434(4) 1.0384(4) 0.39469(14)
H9 H 1.2833 1.1262 0.3875
N1B N 1.1038(3) 0.5199(2) 0.54092(6)
N2B N 0.9279(3) 0.3578(2) 0.57929(6)
C1B C 0.9665(3) 0.4299(2) 0.53842(7)
C2B C 1.1365(3) 0.5895(2) 0.50241(7)
H1B H 1.2313 0.6532 0.5028
C3B C 0.8699(3) 0.2205(3) 0.58198(8)
C4B C 0.9337(3) 0.4134(3) 0.62424(8)
C5B C 0.8371(3) 0.1901(3) 0.62865(8)
C6B C 0.8774(3) 0.3113(3) 0.65526(8)
C7B C 0.8508(4) 0.1225(3) 0.54727(10)
H2B H 0.8764 0.1428 0.5166
C8B C 0.9803(4) 0.5441(3) 0.63924(8)
H3B H 1.0162 0.6114 0.6185
C9B C 0.7786(4) 0.0567(4) 0.63991(11)
H4B H 0.7553 0.0338 0.6705
C10B C 0.8702(4) 0.3420(4) 0.70268(9)
H5B H 0.8335 0.2759 0.7238
C11B C 0.9178(4) 0.4696(4) 0.71733(9)
H6B H 0.9147 0.4900 0.7489
C12B C 0.7928(4) -0.0059(3) 0.55994(12)
H7B H 0.7775 -0.0729 0.5371
C13B C 0.9712(4) 0.5707(3) 0.68658(9)
H8B H 1.0013 0.6576 0.6978
C14B C 0.7566(4) -0.0384(4) 0.60531(14)
H9B H 0.7167 -0.1262 0.6125
C15 C 0.3142(3) 0.1518(3) 0.63660(7)
C16 C 0.4389(3) 0.4227(3) 0.62321(7)
C17 C 0.3676(3) 0.1988(3) 0.59139(7)
H10 H 0.3617 0.1388 0.5663
N3 N 0.6000(3) 0.6453(2) 0.53810(7)
C18 C 0.4252(3) 0.3273(3) 0.58518(7)
H11 H 0.4572 0.3556 0.5557
C19 C 0.2510(3) 0.0212(3) 0.64245(8)
C20 C 0.4966(3) 0.5544(3) 0.61719(7)
C21 C 0.3888(3) 0.3746(3) 0.66831(7)
H12 H 0.3984 0.4339 0.6936
C22 C 0.3288(3) 0.2469(3) 0.67468(7)
H13 H 0.2960 0.2190 0.7042
C23 C 0.5524(3) 0.6050(3) 0.57306(9)
N4 N 0.2369(4) -0.1544(3) 0.57573(8)
N5 N 0.5097(4) 0.7315(3) 0.68307(8)
C24 C 0.2425(4) -0.0768(3) 0.60535(9)
C25 C 0.5039(4) 0.6517(3) 0.65403(9)
N6 N 0.1318(4) -0.0632(3) 0.72043(8)
C26 C 0.1864(4) -0.0265(3) 0.68588(9)
loop_
_geom_bond_atom_site_label_1
_geom_bond_atom_site_label_2
_geom_bond_site_symmetry_1
_geom_bond_site_symmetry_2
N1 C1 1_555 1_555
N2 C1 1_555 1_555
C1 C2B 1_555 1_555
C2 N1 1_555 1_555
H1 C2 1_555 1_555
C3 N2 1_555 1_555
C4 N2 1_555 1_555
C5 C3 1_555 1_555
C6 C4 1_555 1_555
C7 C3 1_555 1_555
H2 C7 1_555 1_555
C8 C4 1_555 1_555
H3 C8 1_555 1_555
C9 C5 1_555 1_555
H4 C9 1_555 1_555
C10 C6 1_555 1_555
H5 C10 1_555 1_555
C11 C10 1_555 1_555
H6 C11 1_555 1_555
C12 C7 1_555 1_555
H7 C12 1_555 1_555
C13 C8 1_555 1_555
H8 C13 1_555 1_555
C14 C9 1_555 1_555
H9 C14 1_555 1_555
C15 C17 1_555 1_555
C16 C18 1_555 1_555
C17 H10 1_555 1_555
N3 C23 1_555 1_555
C18 C17 1_555 1_555
H11 C18 1_555 1_555
C19 C15 1_555 1_555
C20 C16 1_555 1_555
C21 C16 1_555 1_555
H12 C21 1_555 1_555
C22 C15 1_555 1_555
H13 C22 1_555 1_555
C23 C20 1_555 1_555
N4 C24 1_555 1_555
N5 C25 1_555 1_555
C24 C19 1_555 1_555
C25 C20 1_555 1_555
N6 C26 1_555 1_555
C26 C19 1_555 1_555
N1B C1B 1_555 1_555
N2B C1B 1_555 1_555
C1B C2 1_555 1_555
C2B N1B 1_555 1_555
H1B C2B 1_555 1_555
C3B N2B 1_555 1_555
C4B N2B 1_555 1_555
C5B C3B 1_555 1_555
C6B C4B 1_555 1_555
C7B C3B 1_555 1_555
H2B C7B 1_555 1_555
C8B C4B 1_555 1_555
H3B C8B 1_555 1_555
C9B C5B 1_555 1_555
H4B C9B 1_555 1_555
C10B C6B 1_555 1_555
H5B C10B 1_555 1_555
C11B C10B 1_555 1_555
H6B C11B 1_555 1_555
C12B C7B 1_555 1_555
H7B C12B 1_555 1_555
C13B C8B 1_555 1_555
H8B C13B 1_555 1_555
C14B C9B 1_555 1_555
H9B C14B 1_555 1_555
C5 C6 1_555 1_555
C11 C13 1_555 1_555
C12 C14 1_555 1_555
C21 C22 1_555 1_555
C5B C6B 1_555 1_555
C11B C13B 1_555 1_555
C12B C14B 1_555 1_555

#END
