
#######################################################################
#
#                 Cambridge Crystallographic Data Centre
#                                CCDC 
#
#######################################################################
#
# If this CIF has been generated from an entry in the Cambridge 
# Structural Database, then it will include bibliographic, chemical, 
# crystal, experimental, refinement or atomic coordinate data resulting 
# from the CCDC's data processing and validation procedures.
#
#######################################################################

data_FIMLAR
_chemical_formula_moiety         '2(C28 H18 N4),5(C12 H4 N4)'
_chemical_name_systematic        
"pentakis(2,2'-(cyclohexa-2,5-diene-1,4-diylidene)dipropanedinitrile) bis(9,9'-(pyridazine-3,6-diyl)bis(9H-carbazole))"
_symmetry_cell_setting           triclinic
_symmetry_space_group_name_H-M   'P -1'
_symmetry_Int_Tables_number      2
_space_group_name_Hall           '-P 1'
loop_
_symmetry_equiv_pos_site_id
_symmetry_equiv_pos_as_xyz
1 x,y,z
2 -x,-y,-z
_cell_length_a                   11.4988(18)
_cell_length_b                   13.379(2)
_cell_length_c                   16.457(3)
_cell_angle_alpha                95.196(5)
_cell_angle_beta                 102.730(4)
_cell_angle_gamma                111.433(5)
_cell_volume                     2257.59
_exptl_crystal_colour            'blackish black'
_exptl_crystal_description       block
_cell_formula_units_Z            1
loop_
_atom_site_label
_atom_site_type_symbol
_atom_site_fract_x
_atom_site_fract_y
_atom_site_fract_z
N1 N -0.0921(4) 0.2051(4) 0.3259(3)
N2 N 0.0511(4) 0.2865(4) 0.6719(3)
N3 N 0.0730(4) 0.3316(4) 0.5416(3)
N4 N 0.0364(4) 0.3118(4) 0.4560(3)
C1 C 0.1823(5) 0.3322(4) 0.7213(3)
C2 C -0.0025(5) 0.2267(4) 0.2771(3)
C3 C -0.0616(5) 0.2203(4) 0.4150(3)
C4 C -0.2181(5) 0.1598(4) 0.2689(4)
C5 C 0.0062(5) 0.2602(4) 0.5825(3)
C6 C -0.2072(5) 0.1522(4) 0.1857(3)
C7 C -0.0712(5) 0.1933(4) 0.1910(3)
C8 C -0.0272(5) 0.2695(4) 0.7282(4)
C9 C -0.1328(5) 0.1429(4) 0.4559(3)
H1 H -0.2027 0.0796 0.4251
C10 C 0.1843(5) 0.3407(4) 0.8068(3)
C11 C 0.0524(5) 0.3009(4) 0.8115(3)
C12 C -0.3375(5) 0.1310(5) 0.2860(4)
H2 H -0.3443 0.1394 0.3413
C13 C 0.3026(5) 0.3801(5) 0.8694(4)
H3 H 0.3052 0.3860 0.9266
C14 C -0.0971(5) 0.1628(4) 0.5413(4)
H4 H -0.1401 0.1130 0.5716
C15 C -0.1616(5) 0.2306(4) 0.7114(4)
H5 H -0.2145 0.2111 0.6560
C16 C -0.3180(6) 0.1116(4) 0.1185(4)
H6 H -0.3118 0.1052 0.0630
C17 C 0.2939(5) 0.3619(5) 0.6952(4)
H7 H 0.2922 0.3564 0.6382
C18 C -0.0040(6) 0.2915(5) 0.8787(4)
H8 H 0.0479 0.3123 0.9343
C19 C -0.0051(5) 0.2038(4) 0.1288(4)
H9 H -0.0504 0.1824 0.0716
C20 C 0.1314(5) 0.2684(5) 0.3016(4)
H10 H 0.1778 0.2895 0.3586
C21 C 0.1280(6) 0.2462(5) 0.1534(4)
H11 H 0.1738 0.2539 0.1127
C22 C -0.4379(6) 0.0804(5) 0.1344(4)
H12 H -0.5131 0.0534 0.0896
C23 C -0.1369(6) 0.2511(5) 0.8622(4)
H13 H -0.1753 0.2435 0.9067
C24 C 0.4147(6) 0.4096(5) 0.8447(4)
H14 H 0.4946 0.4359 0.8853
C25 C -0.2136(6) 0.2219(5) 0.7791(4)
H15 H -0.3033 0.1954 0.7689
C26 C 0.4096(6) 0.4005(5) 0.7596(4)
H16 H 0.4873 0.4213 0.7445
C27 C 0.1940(6) 0.2777(5) 0.2385(4)
H17 H 0.2843 0.3064 0.2539
C28 C -0.4456(6) 0.0894(5) 0.2176(4)
H18 H -0.5272 0.0665 0.2274
C29 C -0.1532(5) -0.0720(4) 0.2828(3)
H19 H -0.1737 -0.0741 0.3344
C30 C -0.2550(5) -0.1103(4) 0.2053(4)
C31 C -0.0282(5) -0.0331(4) 0.2815(3)
H20 H 0.0369 -0.0067 0.3325
C32 C -0.3830(5) -0.1460(5) 0.2056(4)
C33 C 0.0067(5) -0.0315(4) 0.2031(4)
C34 C 0.1352(5) 0.0051(5) 0.2029(4)
C35 C -0.2202(6) -0.1086(5) 0.1263(4)
H21 H -0.2852 -0.1342 0.0754
C36 C -0.0958(5) -0.0706(5) 0.1254(4)
H22 H -0.0753 -0.0695 0.0738
N5 N 0.3198(6) 0.0683(5) 0.3400(4)
C37 C 0.1741(6) 0.0074(5) 0.1251(5)
N6 N -0.5758(6) -0.2149(5) 0.0726(4)
C38 C -0.4183(6) -0.1433(5) 0.2845(4)
N7 N -0.4483(6) -0.1411(6) 0.3456(4)
N8 N 0.2072(6) 0.0104(5) 0.0650(4)
C39 C 0.2382(6) 0.0416(5) 0.2797(4)
C40 C -0.4887(6) -0.1850(5) 0.1306(5)
C41 C 0.0036(5) 0.4640(4) 0.1950(4)
C42 C -0.0972(5) 0.4255(4) 0.1160(3)
H23 H -0.0752 0.4246 0.0650
C43 C 0.1316(5) 0.5015(5) 0.1948(3)
C44 C -0.0336(5) 0.4624(5) 0.2716(4)
H24 H 0.0302 0.4866 0.3231
C45 C -0.2222(5) 0.3912(4) 0.1156(4)
H25 H -0.2859 0.3686 0.0640
C46 C -0.1586(5) 0.4268(4) 0.2714(3)
H26 H -0.1804 0.4268 0.3226
C47 C -0.3876(5) 0.3519(5) 0.1924(3)
N9 N 0.3219(5) 0.5826(5) 0.3290(4)
C48 C 0.2365(6) 0.5454(5) 0.2704(4)
C49 C -0.4295(5) 0.3448(5) 0.2676(4)
N10 N -0.4679(6) 0.3358(5) 0.3261(4)
C50 C -0.2596(5) 0.3886(4) 0.1926(4)
N11 N 0.2090(6) 0.4974(5) 0.0601(4)
N12 N -0.5774(6) 0.2918(5) 0.0572(4)
C51 C 0.1737(6) 0.5003(5) 0.1189(4)
C52 C -0.4909(6) 0.3184(5) 0.1157(4)
C53 C 0.5986(5) 0.4621(5) 0.4996(3)
H27 H 0.6633 0.4363 0.4990
C54 C 0.4708(5) 0.3864(5) 0.4993(3)
C55 C 0.4439(5) 0.2783(5) 0.4980(4)
C56 C 0.6260(5) 0.5687(5) 0.5008(3)
H28 H 0.7095 0.6150 0.5016
N13 N 0.2147(5) 0.1464(5) 0.4974(4)
N14 N 0.6196(6) 0.2039(5) 0.4980(4)
C57 C 0.5404(6) 0.2352(5) 0.4978(4)
C58 C 0.3163(6) 0.2036(5) 0.4986(4)
C53A C 0.4014(5) 0.5379(5) 0.5004(3)
H27A H 0.3367 0.5637 0.5010
C54A C 0.5292(5) 0.6136(5) 0.5007(3)
C55A C 0.5561(5) 0.7217(5) 0.5020(4)
C56A C 0.3740(5) 0.4313(5) 0.4992(3)
H28A H 0.2905 0.3850 0.4984
N13A N 0.7853(5) 0.8536(5) 0.5026(4)
N14A N 0.3804(6) 0.7961(5) 0.5020(4)
C57A C 0.4596(6) 0.7648(5) 0.5022(4)
C58A C 0.6837(6) 0.7964(5) 0.5014(4)
loop_
_geom_bond_atom_site_label_1
_geom_bond_atom_site_label_2
_geom_bond_site_symmetry_1
_geom_bond_site_symmetry_2
N1 C2 1_555 1_555
N2 C1 1_555 1_555
N3 N4 1_555 1_555
N4 C3 1_555 1_555
C1 C10 1_555 1_555
C2 C7 1_555 1_555
C3 N1 1_555 1_555
C4 N1 1_555 1_555
C5 N2 1_555 1_555
C6 C4 1_555 1_555
C7 C6 1_555 1_555
C8 N2 1_555 1_555
C9 C3 1_555 1_555
H1 C9 1_555 1_555
C10 C11 1_555 1_555
C11 C8 1_555 1_555
C12 C4 1_555 1_555
H2 C12 1_555 1_555
C13 C10 1_555 1_555
H3 C13 1_555 1_555
C14 C5 1_555 1_555
H4 C14 1_555 1_555
C15 C8 1_555 1_555
H5 C15 1_555 1_555
C16 C6 1_555 1_555
H6 C16 1_555 1_555
C17 C1 1_555 1_555
H7 C17 1_555 1_555
C18 C11 1_555 1_555
H8 C18 1_555 1_555
C19 C7 1_555 1_555
H9 C19 1_555 1_555
C20 C2 1_555 1_555
H10 C20 1_555 1_555
C21 C19 1_555 1_555
H11 C21 1_555 1_555
C22 C16 1_555 1_555
H12 C22 1_555 1_555
C23 C18 1_555 1_555
H13 C23 1_555 1_555
C24 C13 1_555 1_555
H14 C24 1_555 1_555
C25 C15 1_555 1_555
H15 C25 1_555 1_555
C26 C17 1_555 1_555
H16 C26 1_555 1_555
C27 C20 1_555 1_555
H17 C27 1_555 1_555
C28 C12 1_555 1_555
H18 C28 1_555 1_555
C29 H19 1_555 1_555
C30 C29 1_555 1_555
C31 C29 1_555 1_555
H20 C31 1_555 1_555
C32 C30 1_555 1_555
C33 C31 1_555 1_555
C34 C33 1_555 1_555
C35 C30 1_555 1_555
H21 C35 1_555 1_555
C36 C33 1_555 1_555
H22 C36 1_555 1_555
N5 C39 1_555 1_555
C37 C34 1_555 1_555
N6 C40 1_555 1_555
C38 C32 1_555 1_555
N7 C38 1_555 1_555
N8 C37 1_555 1_555
C39 C34 1_555 1_555
C40 C32 1_555 1_555
C41 C42 1_555 1_555
C42 H23 1_555 1_555
C43 C41 1_555 1_555
C44 C41 1_555 1_555
H24 C44 1_555 1_555
C45 C42 1_555 1_555
H25 C45 1_555 1_555
C46 C44 1_555 1_555
H26 C46 1_555 1_555
C47 C49 1_555 1_555
N9 C48 1_555 1_555
C48 C43 1_555 1_555
C49 N10 1_555 1_555
C50 C45 1_555 1_555
N11 C51 1_555 1_555
N12 C52 1_555 1_555
C51 C43 1_555 1_555
C52 C47 1_555 1_555
C53 H27 1_555 1_555
C54 C53 1_555 1_555
C55 C54 1_555 1_555
C56 C53 1_555 1_555
H28 C56 1_555 1_555
N13 C58 1_555 1_555
N14 C57 1_555 1_555
C57 C55 1_555 1_555
C58 C55 1_555 1_555
C53A H27A 1_555 1_555
C54A C56 1_555 1_555
C55A C54A 1_555 1_555
C56A C54 1_555 1_555
H28A C56A 1_555 1_555
N13A C58A 1_555 1_555
N14A C57A 1_555 1_555
C57A C55A 1_555 1_555
C58A C55A 1_555 1_555
N3 C5 1_555 1_555
C9 C14 1_555 1_555
C21 C27 1_555 1_555
C22 C28 1_555 1_555
C23 C25 1_555 1_555
C24 C26 1_555 1_555
C35 C36 1_555 1_555
C46 C50 1_555 1_555
C47 C50 1_555 1_555
C53A C54A 1_555 1_555
C53A C56A 1_555 1_555

#END
