
#######################################################################
#
#                 Cambridge Crystallographic Data Centre
#                                CCDC 
#
#######################################################################
#
# If this CIF has been generated from an entry in the Cambridge 
# Structural Database, then it will include bibliographic, chemical, 
# crystal, experimental, refinement or atomic coordinate data resulting 
# from the CCDC's data processing and validation procedures.
#
#######################################################################

data_FIMMIZ
_chemical_formula_moiety         'C80 H30,2(C2 H2 Cl4)'
_chemical_name_systematic        
'Nanographene 1,1,2,2-tetrachloroethane solvate'
_symmetry_cell_setting           triclinic
_symmetry_space_group_name_H-M   'P -1'
_symmetry_Int_Tables_number      2
_space_group_name_Hall           '-P 1'
loop_
_symmetry_equiv_pos_site_id
_symmetry_equiv_pos_as_xyz
1 x,y,z
2 -x,-y,-z
_cell_length_a                   10.181(2)
_cell_length_b                   16.443(3)
_cell_length_c                   18.458(5)
_cell_angle_alpha                72.977(17)
_cell_angle_beta                 83.516(18)
_cell_angle_gamma                72.387(15)
_cell_volume                     2815.09
_exptl_crystal_colour            red
_exptl_crystal_description       Block
_cell_formula_units_Z            2
loop_
_atom_site_label
_atom_site_type_symbol
_atom_site_fract_x
_atom_site_fract_y
_atom_site_fract_z
C1 C 0.4679(7) 0.4815(5) 0.2243(5)
C2 C 0.5907(7) 0.4225(5) 0.2602(4)
C3 C 0.6202(7) 0.4540(5) 0.3173(5)
C4 C 0.5240(7) 0.5399(5) 0.3110(5)
C5 C 0.4294(7) 0.5528(5) 0.2575(5)
C6 C 0.3903(7) 0.4634(5) 0.1809(4)
C7 C 0.4679(7) 0.3908(5) 0.1487(5)
C8 C 0.5957(7) 0.3333(5) 0.1810(4)
C9 C 0.6503(7) 0.3415(5) 0.2479(4)
C10 C 0.7433(7) 0.2820(5) 0.3093(4)
C11 C 0.7624(7) 0.3109(6) 0.3734(5)
C12 C 0.7039(7) 0.4047(5) 0.3769(4)
C13 C 0.7020(8) 0.4589(6) 0.4299(5)
C14 C 0.6163(7) 0.5498(5) 0.4187(5)
C15 C 0.5152(7) 0.5922(5) 0.3572(5)
C16 C 0.4069(8) 0.6789(6) 0.3299(5)
C17 C 0.3027(7) 0.6897(5) 0.2782(5)
C18 C 0.3050(7) 0.6156(5) 0.2470(4)
C19 C 0.2058(7) 0.5964(5) 0.2058(5)
C20 C 0.2489(7) 0.5204(5) 0.1742(4)
C21 C 0.4306(7) 0.3891(5) 0.0764(5)
C22 C 0.2938(8) 0.4192(5) 0.0533(5)
C23 C 0.2665(9) 0.4281(6) -0.0209(5)
H1 H 0.1738 0.4481 -0.0367
C24 C 0.3709(9) 0.4084(6) -0.0714(5)
H2 H 0.3503 0.4200 -0.1230
C25 C 0.5062(8) 0.3719(6) -0.0494(5)
H3 H 0.5766 0.3544 -0.0848
C26 C 0.5400(7) 0.3606(5) 0.0259(5)
C27 C 0.6937(8) 0.2841(5) 0.1338(5)
C28 C 0.6758(8) 0.3119(5) 0.0543(5)
C29 C 0.7891(8) 0.2839(6) 0.0067(5)
H4 H 0.7803 0.3044 -0.0467
C30 C 0.9118(9) 0.2273(6) 0.0370(5)
H5 H 0.9906 0.2144 0.0049
C31 C 0.9198(8) 0.1887(6) 0.1156(5)
H6 H 1.0007 0.1440 0.1361
C32 C 0.8091(8) 0.2159(5) 0.1638(5)
C33 C 0.7920(8) 0.1890(6) 0.3102(5)
C34 C 0.8117(8) 0.1595(6) 0.2436(5)
C35 C 0.8395(8) 0.0692(6) 0.2500(6)
H7 H 0.8534 0.0500 0.2052
C36 C 0.8473(9) 0.0084(6) 0.3180(6)
H8 H 0.8591 -0.0520 0.3207
C37 C 0.8380(9) 0.0341(6) 0.3835(5)
H9 H 0.8489 -0.0092 0.4312
C38 C 0.8125(7) 0.1239(6) 0.3801(5)
C39 C 0.8171(7) 0.2405(6) 0.4412(5)
C40 C 0.8183(8) 0.1501(6) 0.4484(5)
C41 C 0.8307(8) 0.0898(6) 0.5200(5)
H10 H 0.8257 0.0316 0.5251
C42 C 0.8492(9) 0.1110(7) 0.5814(6)
H11 H 0.8472 0.0709 0.6302
C43 C 0.8719(9) 0.1931(7) 0.5737(6)
H12 H 0.8968 0.2053 0.6166
C44 C 0.8585(8) 0.2565(7) 0.5047(5)
C45 C 0.8030(8) 0.4224(6) 0.4916(5)
C46 C 0.8951(8) 0.3360(7) 0.5081(5)
C47 C 1.0143(9) 0.3187(8) 0.5466(5)
H13 H 1.0834 0.2639 0.5504
C48 C 1.0358(10) 0.3806(8) 0.5805(5)
H14 H 1.1220 0.3719 0.6011
C49 C 0.9289(10) 0.4520(8) 0.5823(5)
H15 H 0.9321 0.4876 0.6140
C50 C 0.8114(9) 0.4752(6) 0.5380(5)
C51 C 0.6221(7) 0.5966(6) 0.4735(5)
C52 C 0.7022(9) 0.5558(6) 0.5365(5)
C53 C 0.6841(9) 0.5931(7) 0.5989(6)
H16 H 0.7378 0.5624 0.6428
C54 C 0.5911(10) 0.6716(8) 0.5953(6)
H17 H 0.5682 0.6922 0.6394
C55 C 0.5275(8) 0.7235(7) 0.5272(6)
H18 H 0.4698 0.7819 0.5237
C56 C 0.5486(8) 0.6894(6) 0.4633(5)
C57 C 0.4322(8) 0.7598(6) 0.3347(6)
C58 C 0.5148(7) 0.7588(6) 0.3906(5)
C59 C 0.5692(9) 0.8300(7) 0.3805(7)
H19 H 0.6304 0.8280 0.4167
C60 C 0.5350(10) 0.9029(7) 0.3188(7)
H20 H 0.5769 0.9493 0.3109
C61 C 0.4413(9) 0.9088(6) 0.2691(6)
H21 H 0.4155 0.9605 0.2279
C62 C 0.3822(8) 0.8396(6) 0.2777(6)
C63 C 0.2185(8) 0.7765(6) 0.2389(5)
C64 C 0.2700(8) 0.8497(6) 0.2313(5)
C65 C 0.2078(10) 0.9316(7) 0.1807(5)
H22 H 0.2441 0.9803 0.1740
C66 C 0.0916(10) 0.9424(7) 0.1397(6)
H23 H 0.0528 0.9966 0.1030
C67 C 0.0356(8) 0.8715(6) 0.1547(5)
H24 H -0.0462 0.8795 0.1300
C68 C 0.0941(8) 0.7902(6) 0.2037(5)
C69 C 0.0600(7) 0.6398(5) 0.2123(4)
C70 C 0.0110(7) 0.7262(6) 0.2209(5)
C71 C -0.1270(8) 0.7597(6) 0.2376(5)
H25 H -0.1604 0.8184 0.2428
C72 C -0.2189(9) 0.7079(7) 0.2470(5)
H26 H -0.3120 0.7295 0.2625
C73 C -0.1721(8) 0.6248(6) 0.2332(5)
H27 H -0.2347 0.5910 0.2370
C74 C -0.0346(7) 0.5912(6) 0.2142(5)
C75 C 0.1423(7) 0.4905(5) 0.1535(4)
C76 C 0.0087(7) 0.5140(6) 0.1856(5)
C77 C -0.0793(8) 0.4617(6) 0.1867(5)
H28 H -0.1640 0.4703 0.2150
C78 C -0.0446(8) 0.3993(6) 0.1478(5)
H29 H -0.1045 0.3642 0.1495
C79 C 0.0775(8) 0.3867(6) 0.1058(5)
H30 H 0.0969 0.3464 0.0756
C80 C 0.1716(7) 0.4313(5) 0.1068(4)
Cl5 Cl 0.3229(8) 0.1959(5) -0.0622(4)
Cl6 Cl 0.2690(5) 0.1548(4) 0.0986(3)
C83 C 0.3881(15) 0.1810(16) 0.0274(9)
H33 H 0.4042 0.2377 0.0285
C84 C 0.5252(14) 0.1075(15) 0.0405(8)
H34 H 0.5066 0.0514 0.0398
Cl7 Cl 0.6427(7) 0.1305(4) -0.0330(4)
Cl8 Cl 0.5849(7) 0.0911(5) 0.1315(4)
C86 C 0.3338(9) 0.1060(9) 0.3774(5)
H36 H 0.3306 0.0430 0.3924
Cl11 Cl 0.2839(6) 0.2512(4) 0.2615(3)
Cl12 Cl 0.1446(10) 0.1335(6) 0.2732(6)
C87 C 0.2961(14) 0.1382(10) 0.2948(7)
H37 H 0.3707 0.1052 0.2653
Cl13 Cl 0.2257(5) 0.1502(3) 0.4412(3)
Cl14 Cl 0.5066(5) 0.0959(4) 0.3847(3)
Cl1? Cl 0.3069(7) 0.1044(5) 0.0194(5)
C81? C 0.4215(16) 0.1692(14) -0.0038(8)
H31? H 0.3683 0.2309 -0.0027
Cl2? Cl 0.4906(9) 0.1737(5) -0.0964(4)
C82? C 0.5369(17) 0.1365(11) 0.0527(9)
H32? H 0.6036 0.1727 0.0354
Cl3? Cl 0.4585(15) 0.1499(6) 0.1434(6)
Cl4? Cl 0.6262(10) 0.0214(6) 0.0651(7)
Cl9? Cl 0.1373(8) 0.2773(6) 0.3193(7)
Cl10? Cl 0.1585(11) 0.0972(7) 0.3019(6)
C85? C 0.1774(14) 0.1649(10) 0.3526(10)
H35? H 0.1187 0.1531 0.3996
H38? H 0.3452 0.0476 0.3673
Cl15? Cl 0.4514(6) 0.1517(4) 0.3164(4)
Cl16? Cl 0.3422(10) 0.0839(7) 0.4694(5)
loop_
_geom_bond_atom_site_label_1
_geom_bond_atom_site_label_2
_geom_bond_site_symmetry_1
_geom_bond_site_symmetry_2
C1 C2 1_555 1_555
C2 C3 1_555 1_555
C3 C4 1_555 1_555
C4 C5 1_555 1_555
C5 C1 1_555 1_555
C6 C1 1_555 1_555
C7 C6 1_555 1_555
C8 C7 1_555 1_555
C9 C2 1_555 1_555
C10 C9 1_555 1_555
C11 C10 1_555 1_555
C12 C3 1_555 1_555
C13 C12 1_555 1_555
C14 C13 1_555 1_555
C15 C4 1_555 1_555
C16 C15 1_555 1_555
C17 C16 1_555 1_555
C18 C5 1_555 1_555
C19 C18 1_555 1_555
C20 C6 1_555 1_555
C21 C7 1_555 1_555
C22 C21 1_555 1_555
C23 C22 1_555 1_555
H1 C23 1_555 1_555
C24 C23 1_555 1_555
H2 C24 1_555 1_555
C25 C24 1_555 1_555
H3 C25 1_555 1_555
C26 C21 1_555 1_555
C27 C8 1_555 1_555
C28 C26 1_555 1_555
C29 C28 1_555 1_555
H4 C29 1_555 1_555
C30 C29 1_555 1_555
H5 C30 1_555 1_555
C31 C30 1_555 1_555
H6 C31 1_555 1_555
C32 C27 1_555 1_555
C33 C10 1_555 1_555
C34 C32 1_555 1_555
C35 C34 1_555 1_555
H7 C35 1_555 1_555
C36 C35 1_555 1_555
H8 C36 1_555 1_555
C37 C36 1_555 1_555
H9 C37 1_555 1_555
C38 C33 1_555 1_555
C39 C11 1_555 1_555
C40 C38 1_555 1_555
C41 C40 1_555 1_555
H10 C41 1_555 1_555
C42 C41 1_555 1_555
H11 C42 1_555 1_555
C43 C42 1_555 1_555
H12 C43 1_555 1_555
C44 C39 1_555 1_555
C45 C13 1_555 1_555
C46 C44 1_555 1_555
C47 C46 1_555 1_555
H13 C47 1_555 1_555
C48 C47 1_555 1_555
H14 C48 1_555 1_555
C49 C48 1_555 1_555
H15 C49 1_555 1_555
C50 C45 1_555 1_555
C51 C14 1_555 1_555
C52 C50 1_555 1_555
C53 C52 1_555 1_555
H16 C53 1_555 1_555
C54 C53 1_555 1_555
H17 C54 1_555 1_555
C55 C54 1_555 1_555
H18 C55 1_555 1_555
C56 C51 1_555 1_555
C57 C16 1_555 1_555
C58 C56 1_555 1_555
C59 C58 1_555 1_555
H19 C59 1_555 1_555
C60 C59 1_555 1_555
H20 C60 1_555 1_555
C61 C60 1_555 1_555
H21 C61 1_555 1_555
C62 C57 1_555 1_555
C63 C17 1_555 1_555
C64 C62 1_555 1_555
C65 C64 1_555 1_555
H22 C65 1_555 1_555
C66 C65 1_555 1_555
H23 C66 1_555 1_555
C67 C66 1_555 1_555
H24 C67 1_555 1_555
C68 C63 1_555 1_555
C69 C19 1_555 1_555
C70 C68 1_555 1_555
C71 C70 1_555 1_555
H25 C71 1_555 1_555
C72 C71 1_555 1_555
H26 C72 1_555 1_555
C73 C72 1_555 1_555
H27 C73 1_555 1_555
C74 C69 1_555 1_555
C75 C20 1_555 1_555
C76 C74 1_555 1_555
C77 C76 1_555 1_555
H28 C77 1_555 1_555
C78 C77 1_555 1_555
H29 C78 1_555 1_555
C79 C78 1_555 1_555
H30 C79 1_555 1_555
C80 C22 1_555 1_555
Cl5 C83 1_555 1_555
Cl6 C83 1_555 1_555
C83 H33 1_555 1_555
C84 C83 1_555 1_555
H34 C84 1_555 1_555
Cl7 C84 1_555 1_555
Cl8 C84 1_555 1_555
C86 H36 1_555 1_555
Cl11 C87 1_555 1_555
Cl12 C87 1_555 1_555
C87 C86 1_555 1_555
H37 C87 1_555 1_555
Cl13 C86 1_555 1_555
Cl14 C86 1_555 1_555
C8 C9 1_555 1_555
C11 C12 1_555 1_555
C14 C15 1_555 1_555
C17 C18 1_555 1_555
C19 C20 1_555 1_555
C25 C26 1_555 1_555
C27 C28 1_555 1_555
C31 C32 1_555 1_555
C33 C34 1_555 1_555
C37 C38 1_555 1_555
C39 C40 1_555 1_555
C43 C44 1_555 1_555
C45 C46 1_555 1_555
C49 C50 1_555 1_555
C51 C52 1_555 1_555
C55 C56 1_555 1_555
C57 C58 1_555 1_555
C61 C62 1_555 1_555
C63 C64 1_555 1_555
C67 C68 1_555 1_555
C69 C70 1_555 1_555
C73 C74 1_555 1_555
C75 C76 1_555 1_555
C75 C80 1_555 1_555
C79 C80 1_555 1_555

#END
