
#######################################################################
#
#                 Cambridge Crystallographic Data Centre
#                                CCDC 
#
#######################################################################
#
# If this CIF has been generated from an entry in the Cambridge 
# Structural Database, then it will include bibliographic, chemical, 
# crystal, experimental, refinement or atomic coordinate data resulting 
# from the CCDC's data processing and validation procedures.
#
#######################################################################

data_FIMPUP
_chemical_formula_moiety         'C20 H15 N3'
_chemical_name_systematic        2-(4-phenylquinazolin-2-yl)aniline
_symmetry_cell_setting           orthorhombic
_symmetry_space_group_name_H-M   'I b a 2'
_symmetry_Int_Tables_number      45
_space_group_name_Hall           'I 2 -2c'
loop_
_symmetry_equiv_pos_site_id
_symmetry_equiv_pos_as_xyz
1 x,y,z
2 -x,-y,z
3 1/2+x,1/2-y,z
4 1/2-x,1/2+y,z
5 1/2+x,1/2+y,1/2+z
6 1/2-x,1/2-y,1/2+z
7 x,-y,1/2+z
8 -x,y,1/2+z
_cell_length_a                   15.5099(6)
_cell_length_b                   28.2566(11)
_cell_length_c                   6.9886(3)
_cell_angle_alpha                90
_cell_angle_beta                 90
_cell_angle_gamma                90
_cell_volume                     3062.8
_exptl_crystal_colour            yellow
_exptl_crystal_description       prismatic
_cell_formula_units_Z            8
loop_
_atom_site_label
_atom_site_type_symbol
_atom_site_fract_x
_atom_site_fract_y
_atom_site_fract_z
N1 N 0.2765(2) 0.51766(9) 0.7262(4)
N2 N 0.39037(12) 0.57955(6) 0.5576(3)
N3 N 0.32374(11) 0.65314(6) 0.4774(3)
C1 C 0.21453(17) 0.54420(8) 0.6368(4)
C2 C 0.12741(19) 0.53050(9) 0.6484(4)
H1 H 0.1122 0.5043 0.7264
C3 C 0.06429(18) 0.55389(10) 0.5506(5)
H2 H 0.0061 0.5437 0.5616
C4 C 0.08412(16) 0.59215(9) 0.4357(5)
H3 H 0.0405 0.6076 0.3635
C5 C 0.16843(15) 0.60761(8) 0.4278(4)
H4 H 0.1819 0.6345 0.3519
C6 C 0.23458(15) 0.58503(7) 0.5277(4)
C7 C 0.32240(14) 0.60577(7) 0.5202(3)
C8 C 0.39883(14) 0.67471(7) 0.4690(3)
C9 C 0.47804(14) 0.64932(7) 0.4923(3)
C10 C 0.46916(14) 0.60083(8) 0.5414(3)
C11 C 0.54404(16) 0.57350(8) 0.5724(3)
H5 H 0.5388 0.5412 0.6089
C12 C 0.62360(16) 0.59290(9) 0.5503(4)
H6 H 0.6735 0.5743 0.5735
C13 C 0.63257(15) 0.64039(9) 0.4934(3)
H7 H 0.6885 0.6533 0.4742
C14 C 0.56151(14) 0.66802(8) 0.4656(3)
H8 H 0.5683 0.7001 0.4281
C15 C 0.39405(14) 0.72672(7) 0.4357(3)
C16 C 0.44465(14) 0.75848(8) 0.5378(4)
H9 H 0.4855 0.7471 0.6279
C17 C 0.43571(16) 0.80702(8) 0.5083(4)
H10 H 0.4694 0.8286 0.5808
C18 C 0.37797(16) 0.82384(8) 0.3739(4)
H11 H 0.3731 0.8569 0.3515
C19 C 0.32742(15) 0.79244(8) 0.2723(4)
H12 H 0.2878 0.8039 0.1797
C20 C 0.33424(14) 0.74422(8) 0.3049(4)
H13 H 0.2978 0.7229 0.2376
H14 H 0.332(2) 0.5292(12) 0.727(6)
H15 H 0.257(2) 0.4987(14) 0.816(6)
loop_
_geom_bond_atom_site_label_1
_geom_bond_atom_site_label_2
_geom_bond_site_symmetry_1
_geom_bond_site_symmetry_2
N1 C1 1_555 1_555
N2 C7 1_555 1_555
N3 C7 1_555 1_555
C1 C2 1_555 1_555
C2 H1 1_555 1_555
C3 C2 1_555 1_555
H2 C3 1_555 1_555
C4 C3 1_555 1_555
H3 C4 1_555 1_555
C5 C4 1_555 1_555
H4 C5 1_555 1_555
C6 C1 1_555 1_555
C7 C6 1_555 1_555
C8 N3 1_555 1_555
C9 C8 1_555 1_555
C10 N2 1_555 1_555
C11 C10 1_555 1_555
H5 C11 1_555 1_555
C12 C11 1_555 1_555
H6 C12 1_555 1_555
C13 C12 1_555 1_555
H7 C13 1_555 1_555
C14 C9 1_555 1_555
H8 C14 1_555 1_555
C15 C8 1_555 1_555
C16 C15 1_555 1_555
H9 C16 1_555 1_555
C17 C16 1_555 1_555
H10 C17 1_555 1_555
C18 C17 1_555 1_555
H11 C18 1_555 1_555
C19 C18 1_555 1_555
H12 C19 1_555 1_555
C20 C15 1_555 1_555
H13 C20 1_555 1_555
H14 N1 1_555 1_555
H15 N1 1_555 1_555
C5 C6 1_555 1_555
C9 C10 1_555 1_555
C13 C14 1_555 1_555
C19 C20 1_555 1_555

#END
