
#######################################################################
#
#                 Cambridge Crystallographic Data Centre
#                                CCDC 
#
#######################################################################
#
# If this CIF has been generated from an entry in the Cambridge 
# Structural Database, then it will include bibliographic, chemical, 
# crystal, experimental, refinement or atomic coordinate data resulting 
# from the CCDC's data processing and validation procedures.
#
#######################################################################

data_FIMQUQ
_chemical_formula_moiety         'C11 H12 N4 O1'
_chemical_name_systematic        1-[(1H-benzotriazol-1-yl)imino]pentan-2-one
_symmetry_cell_setting           orthorhombic
_symmetry_space_group_name_H-M   'P n a 21'
_symmetry_Int_Tables_number      33
_space_group_name_Hall           'P 2c -2n'
loop_
_symmetry_equiv_pos_site_id
_symmetry_equiv_pos_as_xyz
1 x,y,z
2 -x,-y,1/2+z
3 1/2-x,1/2+y,1/2+z
4 1/2+x,1/2-y,z
_cell_length_a                   15.6318(14)
_cell_length_b                   11.9276(19)
_cell_length_c                   5.9745(5)
_cell_angle_alpha                90
_cell_angle_beta                 90
_cell_angle_gamma                90
_cell_volume                     1113.94
_exptl_crystal_description       block
_cell_formula_units_Z            4
loop_
_atom_site_label
_atom_site_type_symbol
_atom_site_fract_x
_atom_site_fract_y
_atom_site_fract_z
C1 C 0.3484(3) 0.8313(5) 0.0934(9)
C2 C 0.3973(4) 0.8863(5) -0.0640(11)
H1 H 0.3727 0.9201 -0.1888
C3 C 0.4833(4) 0.8887(5) -0.0276(10)
H2 H 0.5186 0.9252 -0.1297
C4 C 0.5197(4) 0.8372(5) 0.1605(10)
H3 H 0.5788 0.8398 0.1778
C5 C 0.4725(3) 0.7836(5) 0.3190(9)
H4 H 0.4972 0.7510 0.4448
C6 C 0.3846(3) 0.7810(5) 0.2797(8)
C7 C 0.2539(3) 0.6320(5) 0.6603(10)
H5 H 0.2016 0.6490 0.5942
C8 C 0.2585(3) 0.5591(5) 0.8625(9)
C9 C 0.3438(3) 0.5247(5) 0.9521(9)
H6 H 0.3774 0.5915 0.9817
H7 H 0.3736 0.4815 0.8386
C10 C 0.3386(3) 0.4557(5) 1.1644(9)
H8 H 0.3000 0.4924 1.2684
H9 H 0.3146 0.3828 1.1289
C11 C 0.4240(4) 0.4396(6) 1.2761(11)
H10 H 0.4635 0.4073 1.1713
H11 H 0.4176 0.3904 1.4021
H12 H 0.4454 0.5108 1.3259
N1 N 0.2605(3) 0.8135(4) 0.1000(8)
N2 N 0.2419(3) 0.7568(4) 0.2787(7)
N3 N 0.3167(3) 0.7352(4) 0.3906(7)
N4 N 0.3234(3) 0.6702(4) 0.5808(6)
O1 O 0.1908(2) 0.5293(3) 0.9434(7)
loop_
_geom_bond_atom_site_label_1
_geom_bond_atom_site_label_2
_geom_bond_site_symmetry_1
_geom_bond_site_symmetry_2
C1 C2 1_555 1_555
C2 H1 1_555 1_555
C3 C2 1_555 1_555
H2 C3 1_555 1_555
C4 C3 1_555 1_555
H3 C4 1_555 1_555
C5 C4 1_555 1_555
H4 C5 1_555 1_555
C6 C1 1_555 1_555
C7 H5 1_555 1_555
C8 C7 1_555 1_555
C9 C8 1_555 1_555
H6 C9 1_555 1_555
H7 C9 1_555 1_555
C10 C9 1_555 1_555
H8 C10 1_555 1_555
H9 C10 1_555 1_555
C11 C10 1_555 1_555
H10 C11 1_555 1_555
H11 C11 1_555 1_555
H12 C11 1_555 1_555
N1 C1 1_555 1_555
N2 N1 1_555 1_555
N3 C6 1_555 1_555
N4 C7 1_555 1_555
O1 C8 1_555 1_555
C5 C6 1_555 1_555
N2 N3 1_555 1_555
N3 N4 1_555 1_555

#END
