
#######################################################################
#
#                 Cambridge Crystallographic Data Centre
#                                CCDC 
#
#######################################################################
#
# If this CIF has been generated from an entry in the Cambridge 
# Structural Database, then it will include bibliographic, chemical, 
# crystal, experimental, refinement or atomic coordinate data resulting 
# from the CCDC's data processing and validation procedures.
#
#######################################################################

data_FIMRAX
_chemical_formula_moiety         'C10 H10 N4 O1'
_chemical_name_systematic        3-[(1H-benzotriazol-1-yl)imino]butan-2-one
_symmetry_cell_setting           monoclinic
_symmetry_space_group_name_H-M   'C 2/c'
_symmetry_Int_Tables_number      15
_space_group_name_Hall           '-C 2yn'
loop_
_symmetry_equiv_pos_site_id
_symmetry_equiv_pos_as_xyz
1 x,y,z
2 -x,y,1/2-z
3 1/2+x,1/2+y,z
4 1/2-x,1/2+y,1/2-z
5 -x,-y,-z
6 x,-y,1/2+z
7 1/2-x,1/2-y,-z
8 1/2+x,1/2-y,1/2+z
_cell_length_a                   21.051(10)
_cell_length_b                   7.149(3)
_cell_length_c                   13.870(6)
_cell_angle_alpha                90
_cell_angle_beta                 104.382(9)
_cell_angle_gamma                90
_cell_volume                     2021.93
_exptl_crystal_description       block
_cell_formula_units_Z            8
loop_
_atom_site_label
_atom_site_type_symbol
_atom_site_fract_x
_atom_site_fract_y
_atom_site_fract_z
C1 C 0.59566(14) -0.0259(4) 0.38788(19)
C2 C 0.66102(15) 0.0193(5) 0.3954(2)
H1 H 0.6930 -0.0728 0.4019
C3 C 0.67607(15) 0.2031(5) 0.3928(2)
H2 H 0.7194 0.2375 0.3977
C4 C 0.62862(15) 0.3421(4) 0.3830(2)
H3 H 0.6410 0.4665 0.3808
C5 C 0.56428(14) 0.3009(4) 0.37647(19)
H4 H 0.5325 0.3935 0.3706
C6 C 0.54940(12) 0.1140(4) 0.37909(17)
C7 C 0.38001(13) 0.0237(4) 0.35700(18)
C8 C 0.36517(14) -0.1786(4) 0.3439(2)
H5 H 0.3894 -0.2316 0.3004
H6 H 0.3191 -0.1954 0.3154
H7 H 0.3774 -0.2400 0.4074
C9 C 0.32432(14) 0.1552(4) 0.3581(2)
C10 C 0.33758(15) 0.3576(4) 0.3710(2)
H8 H 0.3637 0.3811 0.4371
H9 H 0.2969 0.4242 0.3608
H10 H 0.3608 0.3991 0.3234
N1 N 0.56594(13) -0.1978(3) 0.38856(18)
N2 N 0.50374(13) -0.1730(3) 0.38019(17)
N3 N 0.49205(10) 0.0178(3) 0.37364(14)
N4 N 0.43454(10) 0.1104(3) 0.36902(15)
O1 O 0.26996(10) 0.0910(3) 0.34749(17)
loop_
_geom_bond_atom_site_label_1
_geom_bond_atom_site_label_2
_geom_bond_site_symmetry_1
_geom_bond_site_symmetry_2
C1 C2 1_555 1_555
C2 H1 1_555 1_555
C3 C2 1_555 1_555
H2 C3 1_555 1_555
C4 C3 1_555 1_555
H3 C4 1_555 1_555
C5 C4 1_555 1_555
H4 C5 1_555 1_555
C6 C1 1_555 1_555
C7 C8 1_555 1_555
C8 H5 1_555 1_555
H6 C8 1_555 1_555
H7 C8 1_555 1_555
C9 C7 1_555 1_555
C10 C9 1_555 1_555
H8 C10 1_555 1_555
H9 C10 1_555 1_555
H10 C10 1_555 1_555
N1 C1 1_555 1_555
N2 N1 1_555 1_555
N3 C6 1_555 1_555
N4 C7 1_555 1_555
O1 C9 1_555 1_555
C5 C6 1_555 1_555
N2 N3 1_555 1_555
N3 N4 1_555 1_555

#END
