
#######################################################################
#
#                 Cambridge Crystallographic Data Centre
#                                CCDC 
#
#######################################################################
#
# If this CIF has been generated from an entry in the Cambridge 
# Structural Database, then it will include bibliographic, chemical, 
# crystal, experimental, refinement or atomic coordinate data resulting 
# from the CCDC's data processing and validation procedures.
#
#######################################################################

data_FIMREB
_chemical_formula_moiety         'C19 H22 O3'
_chemical_name_systematic        't-butyl hydroxy(2-methylphenyl)phenylacetate'
_symmetry_cell_setting           monoclinic
_symmetry_space_group_name_H-M   'P 21'
_symmetry_Int_Tables_number      4
_space_group_name_Hall           'P 2yb'
loop_
_symmetry_equiv_pos_site_id
_symmetry_equiv_pos_as_xyz
1 x,y,z
2 -x,1/2+y,-z
_cell_length_a                   8.841(2)
_cell_length_b                   11.693(3)
_cell_length_c                   9.098(2)
_cell_angle_alpha                90
_cell_angle_beta                 116.760(9)
_cell_angle_gamma                90
_cell_volume                     839.801
_exptl_crystal_colour            red
_exptl_crystal_description       prism
_cell_formula_units_Z            2
loop_
_atom_site_label
_atom_site_type_symbol
_atom_site_fract_x
_atom_site_fract_y
_atom_site_fract_z
C1 C 0.0397(3) 0.8181(2) 0.7535(3)
C2 C -0.1291(3) 0.8699(2) 0.6274(3)
C3 C -0.1343(4) 0.9546(3) 0.5174(3)
H1 H -0.0307 0.9853 0.5269
C4 C -0.2852(4) 0.9953(3) 0.3950(4)
H2 H -0.2849 1.0526 0.3210
C5 C -0.4371(4) 0.9518(3) 0.3810(4)
H3 H -0.5418 0.9792 0.2976
C6 C -0.4346(3) 0.8684(3) 0.4894(3)
H4 H -0.5389 0.8388 0.4792
C7 C -0.2834(3) 0.8260(3) 0.6135(3)
C8 C -0.2946(4) 0.7322(3) 0.7224(4)
H5 H -0.1802 0.7105 0.8038
H6 H -0.3517 0.6656 0.6548
H7 H -0.3590 0.7596 0.7792
C9 C 0.0632(3) 0.8240(3) 0.9307(3)
C10 C 0.0175(4) 0.9215(3) 0.9886(3)
H8 H -0.0266 0.9858 0.9182
C11 C 0.0356(4) 0.9259(3) 1.1488(3)
H9 H 0.0045 0.9930 1.1876
C12 C 0.0994(4) 0.8314(3) 1.2517(3)
H10 H 0.1089 0.8329 1.3599
C13 C 0.1487(4) 0.7361(3) 1.1962(4)
H11 H 0.1950 0.6725 1.2675
C14 C 0.1315(3) 0.7319(3) 1.0373(3)
H12 H 0.1667 0.6655 1.0008
C15 C 0.1933(3) 0.8765(3) 0.7454(3)
C16 C 0.3729(4) 1.0476(3) 0.8203(4)
C17 C 0.3709(5) 1.1490(3) 0.9195(6)
H13 H 0.2653 1.1916 0.8593
H14 H 0.4675 1.1986 0.9391
H15 H 0.3787 1.1231 1.0251
C18 C 0.5360(4) 0.9782(4) 0.9120(4)
H16 H 0.5343 0.9119 0.8454
H17 H 0.5440 0.9520 1.0176
H18 H 0.6341 1.0263 0.9316
C19 C 0.3440(5) 1.0786(3) 0.6492(4)
H19 H 0.3490 1.0093 0.5909
H20 H 0.4318 1.1323 0.6554
H21 H 0.2324 1.1143 0.5897
O1 O 0.0445(2) 0.70092(16) 0.7103(2)
H22 H 0.1046 0.6964 0.6573
O2 O 0.2694(2) 0.82659(19) 0.6815(2)
O3 O 0.2260(2) 0.97843(17) 0.8110(2)
loop_
_geom_bond_atom_site_label_1
_geom_bond_atom_site_label_2
_geom_bond_site_symmetry_1
_geom_bond_site_symmetry_2
C1 C2 1_555 1_555
C2 C3 1_555 1_555
C3 H1 1_555 1_555
C4 C3 1_555 1_555
H2 C4 1_555 1_555
C5 C4 1_555 1_555
H3 C5 1_555 1_555
C6 C5 1_555 1_555
H4 C6 1_555 1_555
C7 C2 1_555 1_555
C8 C7 1_555 1_555
H5 C8 1_555 1_555
H6 C8 1_555 1_555
H7 C8 1_555 1_555
C9 C1 1_555 1_555
C10 C9 1_555 1_555
H8 C10 1_555 1_555
C11 C10 1_555 1_555
H9 C11 1_555 1_555
C12 C11 1_555 1_555
H10 C12 1_555 1_555
C13 C12 1_555 1_555
H11 C13 1_555 1_555
C14 C9 1_555 1_555
H12 C14 1_555 1_555
C15 C1 1_555 1_555
C16 C17 1_555 1_555
C17 H13 1_555 1_555
H14 C17 1_555 1_555
H15 C17 1_555 1_555
C18 C16 1_555 1_555
H16 C18 1_555 1_555
H17 C18 1_555 1_555
H18 C18 1_555 1_555
C19 C16 1_555 1_555
H19 C19 1_555 1_555
H20 C19 1_555 1_555
H21 C19 1_555 1_555
O1 C1 1_555 1_555
H22 O1 1_555 1_555
O2 C15 1_555 1_555
O3 C15 1_555 1_555
C6 C7 1_555 1_555
C13 C14 1_555 1_555
C16 O3 1_555 1_555

#END
