
#######################################################################
#
#                 Cambridge Crystallographic Data Centre
#                                CCDC 
#
#######################################################################
#
# If this CIF has been generated from an entry in the Cambridge 
# Structural Database, then it will include bibliographic, chemical, 
# crystal, experimental, refinement or atomic coordinate data resulting 
# from the CCDC's data processing and validation procedures.
#
#######################################################################

data_FIMSAW
_chemical_formula_moiety         'C26 H20 N6,2(C1 H2 Cl2)'
_chemical_name_systematic        
'1,1,4,4-Tetracyano-2-(4-(dimethylamino)phenyl)-3-((4-(dimethylamino)phenyl)ethynyl)buta-1,3-diene dichloromethane solvate'
_symmetry_cell_setting           triclinic
_symmetry_space_group_name_H-M   'P -1'
_symmetry_Int_Tables_number      2
_space_group_name_Hall           '-P 1'
loop_
_symmetry_equiv_pos_site_id
_symmetry_equiv_pos_as_xyz
1 x,y,z
2 -x,-y,-z
_cell_length_a                   7.3661(1)
_cell_length_b                   9.5653(2)
_cell_length_c                   20.8690(4)
_cell_angle_alpha                91.580(8)
_cell_angle_beta                 95.014(7)
_cell_angle_gamma                92.986(9)
_cell_volume                     1462.03
_exptl_crystal_colour            colorless
_cell_formula_units_Z            2
_exptl_crystal_recrystallization_method hexane/dichloromethane
loop_
_atom_site_label
_atom_site_type_symbol
_atom_site_fract_x
_atom_site_fract_y
_atom_site_fract_z
C1 C 0.0329(9) 0.1493(9) 0.2648(3)
C2 C 0.0866(10) 0.2225(9) 0.2120(4)
C3 C 0.1242(10) 0.2775(9) 0.1647(4)
C4 C 0.1659(10) 0.3452(10) 0.1071(3)
C5 C 0.2223(10) 0.4860(10) 0.1050(4)
H1 H 0.2368 0.5399 0.1430
C6 C 0.2567(10) 0.5470(10) 0.0490(4)
H2 H 0.2923 0.6417 0.0490
C7 C 0.2385(10) 0.4671(10) -0.0092(4)
C8 C 0.1810(10) 0.3231(9) -0.0080(4)
H3 H 0.1674 0.2685 -0.0459
C9 C 0.1463(9) 0.2660(9) 0.0483(4)
H4 H 0.1084 0.1717 0.0486
N1 N 0.2726(8) 0.5284(8) -0.0658(3)
C10 C 0.3295(11) 0.6758(10) -0.0682(4)
H5 H 0.2454 0.7312 -0.0474
H6 H 0.3312 0.7017 -0.1123
H7 H 0.4495 0.6918 -0.0466
C11 C 0.2558(12) 0.4475(11) -0.1271(4)
H8 H 0.3195 0.3629 -0.1219
H9 H 0.3078 0.5023 -0.1595
H10 H 0.1293 0.4245 -0.1400
C12 C 0.0364(10) 0.2308(8) 0.3282(3)
C13 C 0.1939(10) 0.2236(8) 0.3730(3)
C14 C 0.2213(11) 0.2953(10) 0.4324(4)
H11 H 0.1332 0.3551 0.4439
C15 C 0.3698(11) 0.2819(10) 0.4737(4)
H12 H 0.3808 0.3334 0.5125
C16 C 0.5081(10) 0.1932(10) 0.4605(4)
C17 C 0.4857(10) 0.1208(9) 0.4012(4)
H13 H 0.5748 0.0619 0.3896
C18 C 0.3343(10) 0.1355(9) 0.3599(4)
H14 H 0.3232 0.0846 0.3210
N2 N 0.6550(9) 0.1798(8) 0.5017(3)
C19 C 0.6863(15) 0.2647(13) 0.5625(4)
H15 H 0.6813 0.3622 0.5533
H16 H 0.8041 0.2475 0.5833
H17 H 0.5937 0.2393 0.5904
C20 C 0.7994(11) 0.0860(12) 0.4889(4)
H18 H 0.7459 -0.0001 0.4693
H19 H 0.8681 0.0669 0.5287
H20 H 0.8790 0.1298 0.4605
C21 C -0.1155(11) 0.3052(9) 0.3336(3)
C22 C -0.2605(13) 0.2955(9) 0.2828(4)
N3 N -0.3787(11) 0.2878(9) 0.2426(4)
C23 C -0.1488(11) 0.3959(12) 0.3868(4)
N4 N -0.1820(11) 0.4643(11) 0.4282(4)
C24 C -0.0232(10) 0.0124(10) 0.2604(4)
C25 C -0.0791(11) -0.0623(10) 0.3162(5)
N5 N -0.1242(12) -0.1166(9) 0.3604(4)
C26 C -0.0309(12) -0.0673(11) 0.2005(5)
N6 N -0.0326(14) -0.1229(12) 0.1523(4)
C27 C 0.456(2) 0.0137(15) 0.1538(9)
H21 H 0.5467 0.0904 0.1634
H22 H 0.3370 0.0525 0.1532
Cl1 Cl 0.4744(5) -0.0929(5) 0.21064(18)
Cl2 Cl 0.4826(9) -0.0551(5) 0.07476(19)
C28 C 0.3683(14) 0.5242(13) 0.2909(6)
H23 H 0.3668 0.4641 0.3276
H24 H 0.3759 0.4645 0.2530
Cl3 Cl 0.5606(4) 0.6331(4) 0.30114(19)
Cl4 Cl 0.1639(4) 0.6056(3) 0.28258(14)
loop_
_geom_bond_atom_site_label_1
_geom_bond_atom_site_label_2
_geom_bond_site_symmetry_1
_geom_bond_site_symmetry_2
C1 C2 1_555 1_555
C2 C3 1_555 1_555
C3 C4 1_555 1_555
C4 C5 1_555 1_555
C5 H1 1_555 1_555
C6 C5 1_555 1_555
H2 C6 1_555 1_555
C7 C6 1_555 1_555
C8 C7 1_555 1_555
H3 C8 1_555 1_555
C9 C4 1_555 1_555
H4 C9 1_555 1_555
N1 C7 1_555 1_555
C10 N1 1_555 1_555
H5 C10 1_555 1_555
H6 C10 1_555 1_555
H7 C10 1_555 1_555
C11 N1 1_555 1_555
H8 C11 1_555 1_555
H9 C11 1_555 1_555
H10 C11 1_555 1_555
C12 C1 1_555 1_555
C13 C12 1_555 1_555
C14 C13 1_555 1_555
H11 C14 1_555 1_555
C15 C14 1_555 1_555
H12 C15 1_555 1_555
C16 C15 1_555 1_555
C17 C16 1_555 1_555
H13 C17 1_555 1_555
C18 C13 1_555 1_555
H14 C18 1_555 1_555
N2 C16 1_555 1_555
C19 N2 1_555 1_555
H15 C19 1_555 1_555
H16 C19 1_555 1_555
H17 C19 1_555 1_555
C20 N2 1_555 1_555
H18 C20 1_555 1_555
H19 C20 1_555 1_555
H20 C20 1_555 1_555
C21 C12 1_555 1_555
C22 C21 1_555 1_555
N3 C22 1_555 1_555
C23 C21 1_555 1_555
N4 C23 1_555 1_555
C24 C1 1_555 1_555
C25 C24 1_555 1_555
N5 C25 1_555 1_555
C26 C24 1_555 1_555
N6 C26 1_555 1_555
C27 H21 1_555 1_555
H22 C27 1_555 1_555
Cl1 C27 1_555 1_555
Cl2 C27 1_555 1_555
C28 H23 1_555 1_555
H24 C28 1_555 1_555
Cl3 C28 1_555 1_555
Cl4 C28 1_555 1_555
C8 C9 1_555 1_555
C17 C18 1_555 1_555

#END
