
#######################################################################
#
#                 Cambridge Crystallographic Data Centre
#                                CCDC 
#
#######################################################################
#
# If this CIF has been generated from an entry in the Cambridge 
# Structural Database, then it will include bibliographic, chemical, 
# crystal, experimental, refinement or atomic coordinate data resulting 
# from the CCDC's data processing and validation procedures.
#
#######################################################################

data_FIMSEA
_chemical_formula_moiety         'C24 H20 N6'
_chemical_name_systematic        
1,1,4,4-Tetracyano-2,3-bis(4-(dimethylamino)phenyl)buta-1,3-diene
_symmetry_cell_setting           orthorhombic
_symmetry_space_group_name_H-M   'P b c a'
_symmetry_Int_Tables_number      61
_space_group_name_Hall           '-P 2ac 2ab'
loop_
_symmetry_equiv_pos_site_id
_symmetry_equiv_pos_as_xyz
1 x,y,z
2 1/2-x,-y,1/2+z
3 -x,1/2+y,1/2-z
4 1/2+x,1/2-y,-z
5 -x,-y,-z
6 1/2+x,y,1/2-z
7 x,1/2-y,1/2+z
8 1/2-x,1/2+y,z
_cell_length_a                   15.0448(7)
_cell_length_b                   15.9323(8)
_cell_length_c                   17.1300(8)
_cell_angle_alpha                90
_cell_angle_beta                 90
_cell_angle_gamma                90
_cell_volume                     4106.03
_exptl_crystal_colour            colorless
_chemical_melting_point          '273.5-274.6 deg.C'
_cell_formula_units_Z            8
_exptl_crystal_recrystallization_method hexane/dichloromethane
loop_
_atom_site_label
_atom_site_type_symbol
_atom_site_fract_x
_atom_site_fract_y
_atom_site_fract_z
C1 C 0.21297(12) -0.12634(10) 0.42292(9)
C2 C 0.28107(12) -0.08844(10) 0.47006(10)
C3 C 0.36420(12) -0.12627(11) 0.48612(11)
H1 H 0.3789 -0.1770 0.4612
C4 C 0.42363(13) -0.09129(11) 0.53673(11)
H2 H 0.4781 -0.1184 0.5459
C5 C 0.40465(12) -0.01443(11) 0.57587(10)
C6 C 0.32409(13) 0.02597(11) 0.55616(10)
H3 H 0.3109 0.0785 0.5782
C7 C 0.26512(12) -0.00999(11) 0.50569(10)
H4 H 0.2120 0.0185 0.4943
N1 N 0.46161(11) 0.01864(10) 0.62902(9)
C8 C 0.44575(16) 0.10100(13) 0.66277(13)
H5 H 0.4442 0.1427 0.6216
H6 H 0.4931 0.1144 0.6991
H7 H 0.3893 0.1008 0.6901
C9 C 0.54202(14) -0.02516(14) 0.65193(13)
H8 H 0.5280 -0.0832 0.6638
H9 H 0.5671 0.0015 0.6978
H10 H 0.5847 -0.0231 0.6095
C10 C 0.20873(12) -0.21045(11) 0.40218(10)
C11 C 0.26119(14) -0.27436(11) 0.43829(11)
N2 N 0.30039(13) -0.32577(11) 0.47036(11)
C12 C 0.14245(14) -0.24020(12) 0.34863(11)
N3 N 0.08919(13) -0.26367(11) 0.30589(11)
C13 C 0.13599(12) -0.07256(10) 0.39691(10)
C14 C 0.15298(12) -0.00448(10) 0.34318(9)
C15 C 0.22948(12) -0.00588(11) 0.29547(10)
H11 H 0.2687 -0.0516 0.2993
C16 C 0.24837(13) 0.05703(11) 0.24397(10)
H12 H 0.2994 0.0531 0.2125
C17 C 0.19229(13) 0.12822(11) 0.23715(10)
C18 C 0.11553(13) 0.13023(11) 0.28525(11)
H13 H 0.0765 0.1762 0.2821
C19 C 0.09739(13) 0.06636(11) 0.33615(10)
H14 H 0.0462 0.0698 0.3675
N4 N 0.21216(12) 0.19152(10) 0.18746(9)
C20 C 0.29303(15) 0.19068(14) 0.14134(12)
H15 H 0.3441 0.1933 0.1758
H16 H 0.2935 0.2387 0.1066
H17 H 0.2955 0.1394 0.1108
C21 C 0.15574(18) 0.26525(14) 0.18107(15)
H18 H 0.0956 0.2480 0.1684
H19 H 0.1783 0.3016 0.1402
H20 H 0.1557 0.2953 0.2303
C22 C 0.05360(12) -0.09335(11) 0.42644(10)
C23 C -0.02799(14) -0.05970(12) 0.39728(11)
N5 N -0.09412(13) -0.03587(13) 0.37216(12)
C24 C 0.04159(13) -0.15669(12) 0.48520(10)
N6 N 0.02955(12) -0.20754(12) 0.53159(11)
loop_
_geom_bond_atom_site_label_1
_geom_bond_atom_site_label_2
_geom_bond_site_symmetry_1
_geom_bond_site_symmetry_2
C1 C2 1_555 1_555
C2 C3 1_555 1_555
C3 H1 1_555 1_555
C4 C3 1_555 1_555
H2 C4 1_555 1_555
C5 C4 1_555 1_555
C6 C5 1_555 1_555
H3 C6 1_555 1_555
C7 C2 1_555 1_555
H4 C7 1_555 1_555
N1 C5 1_555 1_555
C8 N1 1_555 1_555
H5 C8 1_555 1_555
H6 C8 1_555 1_555
H7 C8 1_555 1_555
C9 N1 1_555 1_555
H8 C9 1_555 1_555
H9 C9 1_555 1_555
H10 C9 1_555 1_555
C10 C1 1_555 1_555
C11 C10 1_555 1_555
N2 C11 1_555 1_555
C12 C10 1_555 1_555
N3 C12 1_555 1_555
C13 C1 1_555 1_555
C14 C13 1_555 1_555
C15 C14 1_555 1_555
H11 C15 1_555 1_555
C16 C15 1_555 1_555
H12 C16 1_555 1_555
C17 C16 1_555 1_555
C18 C17 1_555 1_555
H13 C18 1_555 1_555
C19 C14 1_555 1_555
H14 C19 1_555 1_555
N4 C17 1_555 1_555
C20 N4 1_555 1_555
H15 C20 1_555 1_555
H16 C20 1_555 1_555
H17 C20 1_555 1_555
C21 N4 1_555 1_555
H18 C21 1_555 1_555
H19 C21 1_555 1_555
H20 C21 1_555 1_555
C22 C13 1_555 1_555
C23 C22 1_555 1_555
N5 C23 1_555 1_555
C24 C22 1_555 1_555
N6 C24 1_555 1_555
C6 C7 1_555 1_555
C18 C19 1_555 1_555

#END
