
#######################################################################
#
#                 Cambridge Crystallographic Data Centre
#                                CCDC 
#
#######################################################################
#
# If this CIF has been generated from an entry in the Cambridge 
# Structural Database, then it will include bibliographic, chemical, 
# crystal, experimental, refinement or atomic coordinate data resulting 
# from the CCDC's data processing and validation procedures.
#
#######################################################################

data_FIMWUV
_chemical_formula_moiety         'C11 H20 N4 O1'
_chemical_name_systematic        
1,3-Diisopropyl-4,5-dimethyl-N-nitroso-1,3-dihydro-2H-imidazol-2-imine
_symmetry_cell_setting           monoclinic
_symmetry_space_group_name_H-M   'P 21/c'
_symmetry_Int_Tables_number      14
_space_group_name_Hall           '-P 2ybc'
loop_
_symmetry_equiv_pos_site_id
_symmetry_equiv_pos_as_xyz
1 x,y,z
2 -x,1/2+y,1/2-z
3 -x,-y,-z
4 x,1/2-y,1/2+z
_cell_length_a                   10.048(1)
_cell_length_b                   11.294(3)
_cell_length_c                   11.321(2)
_cell_angle_alpha                90
_cell_angle_beta                 104.25(2)
_cell_angle_gamma                90
_cell_volume                     1245.2
_exptl_crystal_colour            white
_exptl_crystal_description       bloc
_cell_formula_units_Z            4
loop_
_atom_site_label
_atom_site_type_symbol
_atom_site_fract_x
_atom_site_fract_y
_atom_site_fract_z
N1 N 0.14116(16) 0.22344(14) 0.19823(12)
N2 N 0.32600(16) 0.22712(16) 0.34384(13)
C1 C 0.2323(2) 0.1565(2) 0.27503(16)
C2 C 0.17915(19) 0.34194(18) 0.21687(15)
C3 C 0.2954(2) 0.34375(19) 0.30896(15)
C4 C 0.0218(2) 0.1720(2) 0.10842(17)
H1 H 0.021(3) 0.082(2) 0.134(2)
C5 C 0.0412(3) 0.1824(2) -0.01933(17)
H2 H 0.0492 0.2653 -0.0391
H3 H -0.0371 0.1479 -0.0766
H4 H 0.1241 0.1408 -0.0243
C6 C -0.1119(2) 0.2187(2) 0.1234(2)
H5 H -0.1216 0.1999 0.2045
H6 H -0.1864 0.1826 0.0631
H7 H -0.1146 0.3039 0.1123
C7 C 0.1068(3) 0.4429(2) 0.14560(19)
H8 H 0.1554 0.5157 0.1739
H9 H 0.0140 0.4476 0.1561
H10 H 0.1036 0.4315 0.0600
C8 C 0.3764(2) 0.4472(2) 0.36704(19)
H11 H 0.3419 0.5184 0.3219
H12 H 0.4721 0.4360 0.3670
H13 H 0.3683 0.4549 0.4503
C9 C 0.4401(6) 0.1636(6) 0.4349(5)
H14 H 0.4180 0.0788 0.4414
C10 C 0.5700(7) 0.1792(7) 0.3870(6)
H15 H 0.5922 0.2627 0.3859
H16 H 0.5534 0.1474 0.3050
H17 H 0.6460 0.1373 0.4399
C11 C 0.4646(5) 0.2258(6) 0.5596(4)
H18 H 0.5049 0.3031 0.5547
H19 H 0.5265 0.1785 0.6208
H20 H 0.3778 0.2349 0.5816
O1 O 0.3017(4) 0.0013(4) 0.1479(4)
N3 N 0.2106(6) 0.0255(5) 0.2962(6)
N4 N 0.2554(4) -0.0446(6) 0.2298(4)
C12? C 0.4623(9) 0.2190(14) 0.4392(7)
H21? H 0.5042 0.2988 0.4527
C13? C 0.5588(10) 0.1357(8) 0.3920(9)
H22? H 0.5120 0.0616 0.3660
H23? H 0.6403 0.1206 0.4566
H24? H 0.5849 0.1724 0.3236
C14? C 0.4284(10) 0.1780(10) 0.5527(8)
H25? H 0.3733 0.1066 0.5361
H26? H 0.3771 0.2391 0.5825
H27? H 0.5125 0.1614 0.6139
O2? O 0.2833(6) -0.1137(6) 0.1926(6)
N5? N 0.2756(13) -0.0017(11) 0.1931(12)
N6? N 0.2515(12) 0.0509(11) 0.2959(11)
loop_
_geom_bond_atom_site_label_1
_geom_bond_atom_site_label_2
_geom_bond_site_symmetry_1
_geom_bond_site_symmetry_2
N1 C1 1_555 1_555
N2 C1 1_555 1_555
C1 N3 1_555 1_555
C2 N1 1_555 1_555
C3 N2 1_555 1_555
C4 N1 1_555 1_555
H1 C4 1_555 1_555
C5 C4 1_555 1_555
H2 C5 1_555 1_555
H3 C5 1_555 1_555
H4 C5 1_555 1_555
C6 C4 1_555 1_555
H5 C6 1_555 1_555
H6 C6 1_555 1_555
H7 C6 1_555 1_555
C7 C2 1_555 1_555
H8 C7 1_555 1_555
H9 C7 1_555 1_555
H10 C7 1_555 1_555
C8 C3 1_555 1_555
H11 C8 1_555 1_555
H12 C8 1_555 1_555
H13 C8 1_555 1_555
C9 N2 1_555 1_555
H14 C9 1_555 1_555
C10 C9 1_555 1_555
H15 C10 1_555 1_555
H16 C10 1_555 1_555
H17 C10 1_555 1_555
C11 C9 1_555 1_555
H18 C11 1_555 1_555
H19 C11 1_555 1_555
H20 C11 1_555 1_555
O1 N4 1_555 1_555
N3 N4 1_555 1_555
C2 C3 1_555 1_555

#END
