
#######################################################################
#
#                 Cambridge Crystallographic Data Centre
#                                CCDC 
#
#######################################################################
#
# If this CIF has been generated from an entry in the Cambridge 
# Structural Database, then it will include bibliographic, chemical, 
# crystal, experimental, refinement or atomic coordinate data resulting 
# from the CCDC's data processing and validation procedures.
#
#######################################################################

data_FIMYOS
_chemical_formula_moiety         'C56 H50 B1 N3 S1'
_chemical_name_systematic        
5'-butyl-2'-(9-butyl-7,7-diphenyl-7H-6,7-benzo[c][1,2,5]thiadiazolo[4,3,2-ij][1,2]benzazaborinin-3-yl)-N,N-diphenyl[1,1'-biphenyl]-4-amine
_symmetry_cell_setting           triclinic
_symmetry_space_group_name_H-M   'P -1'
_symmetry_Int_Tables_number      2
_space_group_name_Hall           '-P 1'
loop_
_symmetry_equiv_pos_site_id
_symmetry_equiv_pos_as_xyz
1 x,y,z
2 -x,-y,-z
_cell_length_a                   11.4572(5)
_cell_length_b                   16.0336(12)
_cell_length_c                   25.0170(18)
_cell_angle_alpha                81.684(6)
_cell_angle_beta                 82.092(5)
_cell_angle_gamma                78.143(5)
_cell_volume                     4422.59
_exptl_crystal_colour            'light red'
_exptl_crystal_description       block
_cell_formula_units_Z            4
loop_
_atom_site_label
_atom_site_type_symbol
_atom_site_fract_x
_atom_site_fract_y
_atom_site_fract_z
S1 S 0.78458(10) 0.20599(8) 0.81498(6)
N1 N 0.6464(3) 0.2630(2) 0.81712(16)
N2 N 0.7519(3) 0.1179(2) 0.84420(17)
N3 N 0.7405(4) 0.2219(2) 1.06321(16)
C1 C 0.5709(4) 0.2116(3) 0.84183(18)
C2 C 0.6318(4) 0.1266(3) 0.85768(19)
C3 C 0.5660(4) 0.0617(3) 0.88181(19)
C4 C 0.4437(4) 0.0878(3) 0.88765(19)
H1 H 0.3957 0.0462 0.9018
C5 C 0.3855(4) 0.1731(3) 0.87385(19)
H2 H 0.3005 0.1860 0.8804
C6 C 0.4439(4) 0.2385(3) 0.85155(18)
C7 C 0.3921(4) 0.3286(3) 0.83635(18)
C8 C 0.2678(4) 0.3593(3) 0.8513(2)
H3 H 0.2204 0.3213 0.8721
C9 C 0.2158(4) 0.4421(3) 0.8365(2)
H4 H 0.1323 0.4603 0.8464
C10 C 0.2820(4) 0.5011(3) 0.8070(2)
C11 C 0.4047(4) 0.4714(3) 0.7945(2)
H5 H 0.4518 0.5112 0.7759
C12 C 0.4625(4) 0.3867(3) 0.80779(19)
C13 C 0.7000(4) -0.0446(3) 0.94167(19)
C14 C 0.7533(4) -0.1295(3) 0.9570(2)
H6 H 0.8003 -0.1411 0.9866
C15 C 0.7412(4) -0.1985(3) 0.9309(2)
C16 C 0.6702(4) -0.1796(3) 0.8881(2)
H7 H 0.6597 -0.2245 0.8693
C17 C 0.6152(4) -0.0962(3) 0.8727(2)
H8 H 0.5671 -0.0851 0.8435
C18 C 0.6279(4) -0.0274(3) 0.89871(19)
C19 C 0.7328(4) 0.1554(3) 1.03307(19)
C20 C 0.6204(4) 0.1408(3) 1.02554(19)
H9 H 0.5498 0.1755 1.0408
C21 C 0.6108(4) 0.0767(3) 0.99629(19)
H10 H 0.5333 0.0679 0.9919
C22 C 0.7114(4) 0.0246(3) 0.97302(18)
C23 C 0.8249(4) 0.0398(3) 0.98035(19)
H11 H 0.8956 0.0054 0.9648
C24 C 0.8343(4) 0.1038(3) 1.0098(2)
H12 H 0.9115 0.1129 1.0143
C25 C 0.6746(4) 0.2214(3) 1.11586(19)
C26 C 0.6852(4) 0.1456(3) 1.1507(2)
H13 H 0.7361 0.0952 1.1392
C27 C 0.6226(4) 0.1423(3) 1.2021(2)
H14 H 0.6292 0.0896 1.2253
C28 C 0.5505(4) 0.2154(3) 1.2197(2)
H15 H 0.5091 0.2137 1.2553
C29 C 0.5391(4) 0.2903(4) 1.1854(2)
H16 H 0.4888 0.3405 1.1975
C30 C 0.5997(4) 0.2945(3) 1.1332(2)
H17 H 0.5899 0.3469 1.1097
C31 C 0.7870(4) 0.2935(3) 1.0364(2)
C32 C 0.8296(5) 0.3462(3) 1.0658(2)
H18 H 0.8281 0.3332 1.1042
C33 C 0.8742(5) 0.4177(4) 1.0398(3)
H19 H 0.9008 0.4539 1.0606
C34 C 0.8802(6) 0.4362(4) 0.9845(3)
H20 H 0.9115 0.4848 0.9667
C35 C 0.8404(5) 0.3840(3) 0.9550(2)
H21 H 0.8447 0.3964 0.9166
C36 C 0.7940(4) 0.3133(3) 0.9806(2)
H22 H 0.7667 0.2780 0.9595
C37 C 0.7996(5) -0.2883(3) 0.9509(2)
H23 H 0.8802 -0.2870 0.9604
H24 H 0.8105 -0.3241 0.9208
C38 C 0.7291(6) -0.3310(4) 1.0005(3)
H25 H 0.7841 -0.3797 1.0183
H26 H 0.6992 -0.2890 1.0269
C39 C 0.6241(5) -0.3635(4) 0.9859(3)
H27 H 0.6549 -0.4099 0.9626
H28 H 0.5738 -0.3162 0.9646
C40 C 0.5463(8) -0.3975(6) 1.0354(3)
H29 H 0.4791 -0.4164 1.0234
H30 H 0.5152 -0.3519 1.0587
H31 H 0.5945 -0.4461 1.0559
C41 C 0.6928(4) 0.4182(3) 0.79475(19)
C42 C 0.8081(4) 0.4120(3) 0.7656(2)
H32 H 0.8312 0.3731 0.7391
C43 C 0.8891(4) 0.4611(3) 0.7745(2)
H33 H 0.9671 0.4536 0.7550
C44 C 0.8572(5) 0.5203(3) 0.8111(2)
H34 H 0.9119 0.5546 0.8166
C45 C 0.7429(5) 0.5292(3) 0.8401(2)
H35 H 0.7186 0.5705 0.8651
C46 C 0.6652(4) 0.4775(3) 0.83214(19)
H36 H 0.5891 0.4829 0.8533
C47 C 0.6073(4) 0.3432(3) 0.7210(2)
C48 C 0.5984(4) 0.4137(3) 0.6812(2)
H37 H 0.5980 0.4686 0.6914
C49 C 0.5900(5) 0.4071(4) 0.6274(2)
H38 H 0.5837 0.4568 0.6014
C50 C 0.5908(4) 0.3288(4) 0.6117(2)
H39 H 0.5849 0.3238 0.5748
C51 C 0.6003(4) 0.2567(3) 0.6500(2)
H40 H 0.6006 0.2020 0.6395
C52 C 0.6093(4) 0.2648(3) 0.7035(2)
H41 H 0.6171 0.2147 0.7292
C53 C 0.2208(4) 0.5903(3) 0.7878(2)
H42 H 0.2783 0.6296 0.7847
H43 H 0.1532 0.6093 0.8152
C54 C 0.1735(4) 0.5963(3) 0.7331(2)
H44 H 0.1180 0.6520 0.7269
H45 H 0.1268 0.5503 0.7346
C55 C 0.2713(4) 0.5886(3) 0.6849(2)
H46 H 0.3350 0.5385 0.6939
H47 H 0.2363 0.5778 0.6530
C56 C 0.3269(6) 0.6678(4) 0.6698(3)
H48 H 0.3774 0.6638 0.6350
H49 H 0.3761 0.6720 0.6980
H50 H 0.2633 0.7189 0.6667
B1 B 0.6022(5) 0.3573(3) 0.7847(2)
S2 S 0.29754(10) 0.30314(8) 0.68846(6)
N4 N 0.1946(3) 0.2440(2) 0.68878(16)
N5 N 0.2291(3) 0.3893(2) 0.65745(17)
N6 N 0.4062(4) 0.2788(3) 0.43441(17)
C57 C 0.1034(4) 0.2931(3) 0.66378(18)
C58 C 0.1235(4) 0.3769(3) 0.64602(19)
C59 C 0.0345(4) 0.4408(3) 0.62061(19)
C60 C -0.0692(4) 0.4120(3) 0.6167(2)
H51 H -0.1334 0.4521 0.6019
C61 C -0.0863(4) 0.3272(3) 0.6331(2)
H52 H -0.1604 0.3133 0.6279
C62 C -0.0019(4) 0.2629(3) 0.65644(19)
C63 C -0.0064(4) 0.1713(3) 0.6701(2)
C64 C -0.0992(4) 0.1375(3) 0.6556(2)
H53 H -0.1619 0.1749 0.6380
C65 C -0.1014(5) 0.0514(4) 0.6663(2)
H54 H -0.1658 0.0303 0.6561
C66 C -0.0108(5) -0.0058(3) 0.6919(2)
C67 C 0.0815(5) 0.0294(3) 0.7056(2)
H55 H 0.1446 -0.0086 0.7226
C68 C 0.0872(4) 0.1162(3) 0.6962(2)
C69 C 0.1449(4) 0.5446(3) 0.55797(19)
C70 C 0.1639(4) 0.6272(3) 0.5432(2)
H56 H 0.2233 0.6371 0.5138
C71 C 0.1007(4) 0.6973(3) 0.5690(2)
C72 C 0.0139(4) 0.6793(3) 0.6113(2)
H57 H -0.0315 0.7250 0.6300
C73 C -0.0086(4) 0.5983(3) 0.6269(2)
H58 H -0.0694 0.5894 0.6559
C74 C 0.0563(4) 0.5280(3) 0.60104(19)
C75 C 0.3443(4) 0.3437(3) 0.46646(19)
C76 C 0.4033(4) 0.3932(3) 0.49020(19)
H59 H 0.4885 0.3832 0.4857
C77 C 0.3405(4) 0.4570(3) 0.5204(2)
H60 H 0.3830 0.4901 0.5365
C78 C 0.2137(4) 0.4734(3) 0.52770(18)
C79 C 0.1563(4) 0.4226(3) 0.50408(19)
H61 H 0.0711 0.4318 0.5089
C80 C 0.2188(4) 0.3589(3) 0.4737(2)
H62 H 0.1766 0.3255 0.4577
C81 C 0.3627(4) 0.2777(3) 0.3839(2)
C82 C 0.3511(4) 0.3519(3) 0.3478(2)
H63 H 0.3766 0.4007 0.3564
C83 C 0.3034(5) 0.3569(4) 0.2994(2)
H64 H 0.2963 0.4085 0.2751
C84 C 0.2660(4) 0.2867(4) 0.2867(2)
H65 H 0.2335 0.2896 0.2533
C85 C 0.2757(5) 0.2127(4) 0.3219(2)
H66 H 0.2489 0.1646 0.3130
C86 C 0.3247(4) 0.2068(3) 0.3712(2)
H67 H 0.3318 0.1551 0.3954
C87 C 0.4886(4) 0.2085(3) 0.4574(2)
C88 C 0.4883(5) 0.1892(3) 0.5129(2)
H68 H 0.4311 0.2220 0.5367
C89 C 0.5732(7) 0.1211(4) 0.5338(3)
H69 H 0.5755 0.1093 0.5720
C90 C 0.6531(7) 0.0709(4) 0.5003(3)
H70 H 0.7073 0.0230 0.5154
C91 C 0.6551(5) 0.0895(4) 0.4453(3)
H71 H 0.7127 0.0560 0.4220
C92 C 0.5716(4) 0.1587(3) 0.4230(2)
H72 H 0.5718 0.1713 0.3847
C93 C 0.1204(5) 0.7862(3) 0.5490(3)
H73 H 0.2076 0.7853 0.5408
H74 H 0.0893 0.8235 0.5781
C94 C 0.0568(9) 0.8254(7) 0.4966(4)
H75 H 0.0899 0.8762 0.4788
H76 H 0.0719 0.7825 0.4705
C95 C -0.0780(8) 0.8516(6) 0.5123(4)
H77 H -0.1078 0.8042 0.5366
H78 H -0.0938 0.9024 0.5324
C96 C -0.1442(7) 0.8727(5) 0.4618(3)
H79 H -0.1163 0.9208 0.4384
H80 H -0.2306 0.8883 0.4726
H81 H -0.1281 0.8224 0.4419
C97 C 0.1433(4) 0.1626(3) 0.7837(2)
C98 C 0.1485(5) 0.0903(4) 0.8234(2)
H82 H 0.1858 0.0355 0.8129
C99 C 0.1016(6) 0.0961(4) 0.8768(2)
H83 H 0.1068 0.0460 0.9024
C100 C 0.0474(5) 0.1742(4) 0.8926(3)
H84 H 0.0142 0.1784 0.9293
C101 C 0.0411(4) 0.2465(4) 0.8555(2)
H85 H 0.0038 0.3009 0.8665
C102 C 0.0888(4) 0.2400(3) 0.8026(2)
H86 H 0.0842 0.2909 0.7776
C103 C 0.3244(4) 0.0937(3) 0.71129(19)
C104 C 0.3607(4) 0.0478(3) 0.6677(2)
H87 H 0.3043 0.0472 0.6434
C105 C 0.4773(5) 0.0023(4) 0.6579(3)
H88 H 0.4995 -0.0294 0.6276
C106 C 0.5610(5) 0.0038(3) 0.6930(3)
H89 H 0.6408 -0.0270 0.6868
C107 C 0.5286(5) 0.0491(3) 0.7356(2)
H90 H 0.5860 0.0508 0.7593
C108 C 0.4119(4) 0.0932(3) 0.7452(2)
H91 H 0.3907 0.1242 0.7759
C109 C -0.0237(8) -0.0988(5) 0.7109(4)
H92 H 0.0562 -0.1330 0.7180
H93 H -0.0506 -0.1222 0.6811
C110 C -0.1116(7) -0.1100(5) 0.7620(2)
H94 H -0.1876 -0.0687 0.7571
H95 H -0.1296 -0.1686 0.7662
C111 C -0.0649(6) -0.0965(4) 0.8138(3)
H96 H -0.1335 -0.0832 0.8419
H97 H -0.0237 -0.0469 0.8061
C112 C 0.0221(9) -0.1759(6) 0.8354(5)
H98 H 0.0915 -0.1880 0.8081
H99 H -0.0185 -0.2251 0.8430
H100 H 0.0492 -0.1654 0.8689
B2 B 0.1902(5) 0.1498(4) 0.7210(2)
H101? H 0.8566 -0.2896 0.9774
H102? H 0.8396 -0.3215 0.9208
C113? C 0.683(2) -0.317(2) 0.978(2)
H103? H 0.6452 -0.2812 1.0065
H104? H 0.6264 -0.3103 0.9500
C114? C 0.710(4) -0.412(2) 1.002(2)
H105? H 0.7339 -0.4471 0.9716
H106? H 0.7812 -0.4197 1.0221
C115? C 0.612(5) -0.449(4) 1.040(2)
H107? H 0.6157 -0.5082 1.0345
H108? H 0.5332 -0.4146 1.0327
H109? H 0.6238 -0.4464 1.0781
H110? H 0.1811 0.7844 0.5167
H111? H 0.1525 0.8088 0.5776
H112? H -0.1711 0.8416 0.4363
H113? H -0.1321 0.9292 0.4437
H114? H -0.2050 0.8799 0.4932
C116? C 0.0049(14) 0.8472(10) 0.5338(7)
H115? H 0.0166 0.9074 0.5280
H116? H -0.0616 0.8418 0.5631
C117? C -0.0235(15) 0.8206(13) 0.4812(6)
H117? H -0.0273 0.7588 0.4870
H118? H 0.0426 0.8288 0.4521
C118? C 0.015(3) -0.1012(10) 0.6881(11)
H119? H 0.1026 -0.1235 0.6819
H120? H -0.0244 -0.1150 0.6586
C119? C -0.038(2) -0.1379(18) 0.7438(8)
H121? H -0.0383 -0.1995 0.7434
H122? H -0.1220 -0.1080 0.7511
C120? C 0.0327(19) -0.1283(19) 0.7894(7)
H123? H 0.1125 -0.1660 0.7844
H124? H 0.0460 -0.0685 0.7844
C121? C -0.021(3) -0.148(3) 0.8481(9)
H125? H -0.0484 -0.2029 0.8524
H126? H -0.0887 -0.1023 0.8570
H127? H 0.0406 -0.1520 0.8725
H128? H 0.2564 0.4375 0.6491
H129? H 0.8043 0.0702 0.8507
loop_
_geom_bond_atom_site_label_1
_geom_bond_atom_site_label_2
_geom_bond_site_symmetry_1
_geom_bond_site_symmetry_2
S1 N1 1_555 1_555
N1 C1 1_555 1_555
N2 S1 1_555 1_555
N3 C19 1_555 1_555
C1 C2 1_555 1_555
C2 N2 1_555 1_555
C3 C2 1_555 1_555
C4 C3 1_555 1_555
H1 C4 1_555 1_555
C5 C4 1_555 1_555
H2 C5 1_555 1_555
C6 C1 1_555 1_555
C7 C6 1_555 1_555
C8 C7 1_555 1_555
H3 C8 1_555 1_555
C9 C8 1_555 1_555
H4 C9 1_555 1_555
C10 C9 1_555 1_555
C11 C10 1_555 1_555
H5 C11 1_555 1_555
C12 C7 1_555 1_555
C13 C14 1_555 1_555
C14 H6 1_555 1_555
C15 C14 1_555 1_555
C16 C15 1_555 1_555
H7 C16 1_555 1_555
C17 C16 1_555 1_555
H8 C17 1_555 1_555
C18 C3 1_555 1_555
C19 C20 1_555 1_555
C20 H9 1_555 1_555
C21 C20 1_555 1_555
H10 C21 1_555 1_555
C22 C13 1_555 1_555
C23 C22 1_555 1_555
H11 C23 1_555 1_555
C24 C19 1_555 1_555
H12 C24 1_555 1_555
C25 N3 1_555 1_555
C26 C25 1_555 1_555
H13 C26 1_555 1_555
C27 C26 1_555 1_555
H14 C27 1_555 1_555
C28 C27 1_555 1_555
H15 C28 1_555 1_555
C29 C28 1_555 1_555
H16 C29 1_555 1_555
C30 C25 1_555 1_555
H17 C30 1_555 1_555
C31 N3 1_555 1_555
C32 C31 1_555 1_555
H18 C32 1_555 1_555
C33 C32 1_555 1_555
H19 C33 1_555 1_555
C34 C33 1_555 1_555
H20 C34 1_555 1_555
C35 C34 1_555 1_555
H21 C35 1_555 1_555
C36 C31 1_555 1_555
H22 C36 1_555 1_555
C37 C15 1_555 1_555
H23 C37 1_555 1_555
H24 C37 1_555 1_555
C38 C37 1_555 1_555
H25 C38 1_555 1_555
H26 C38 1_555 1_555
C39 C38 1_555 1_555
H27 C39 1_555 1_555
H28 C39 1_555 1_555
C40 C39 1_555 1_555
H29 C40 1_555 1_555
H30 C40 1_555 1_555
H31 C40 1_555 1_555
C41 C42 1_555 1_555
C42 H32 1_555 1_555
C43 C42 1_555 1_555
H33 C43 1_555 1_555
C44 C43 1_555 1_555
H34 C44 1_555 1_555
C45 C44 1_555 1_555
H35 C45 1_555 1_555
C46 C41 1_555 1_555
H36 C46 1_555 1_555
C47 C48 1_555 1_555
C48 H37 1_555 1_555
C49 C48 1_555 1_555
H38 C49 1_555 1_555
C50 C49 1_555 1_555
H39 C50 1_555 1_555
C51 C50 1_555 1_555
H40 C51 1_555 1_555
C52 C47 1_555 1_555
H41 C52 1_555 1_555
C53 C10 1_555 1_555
H42 C53 1_555 1_555
H43 C53 1_555 1_555
C54 C53 1_555 1_555
H44 C54 1_555 1_555
H45 C54 1_555 1_555
C55 C54 1_555 1_555
H46 C55 1_555 1_555
H47 C55 1_555 1_555
C56 C55 1_555 1_555
H48 C56 1_555 1_555
H49 C56 1_555 1_555
H50 C56 1_555 1_555
B1 N1 1_555 1_555
S2 N4 1_555 1_555
N4 C57 1_555 1_555
N5 S2 1_555 1_555
N6 C75 1_555 1_555
C57 C58 1_555 1_555
C58 N5 1_555 1_555
C59 C58 1_555 1_555
C60 C59 1_555 1_555
H51 C60 1_555 1_555
C61 C60 1_555 1_555
H52 C61 1_555 1_555
C62 C57 1_555 1_555
C63 C62 1_555 1_555
C64 C63 1_555 1_555
H53 C64 1_555 1_555
C65 C64 1_555 1_555
H54 C65 1_555 1_555
C66 C65 1_555 1_555
C67 C66 1_555 1_555
H55 C67 1_555 1_555
C68 C63 1_555 1_555
C69 C70 1_555 1_555
C70 H56 1_555 1_555
C71 C70 1_555 1_555
C72 C71 1_555 1_555
H57 C72 1_555 1_555
C73 C72 1_555 1_555
H58 C73 1_555 1_555
C74 C59 1_555 1_555
C75 C76 1_555 1_555
C76 H59 1_555 1_555
C77 C76 1_555 1_555
H60 C77 1_555 1_555
C78 C69 1_555 1_555
C79 C78 1_555 1_555
H61 C79 1_555 1_555
C80 C75 1_555 1_555
H62 C80 1_555 1_555
C81 N6 1_555 1_555
C82 C81 1_555 1_555
H63 C82 1_555 1_555
C83 C82 1_555 1_555
H64 C83 1_555 1_555
C84 C83 1_555 1_555
H65 C84 1_555 1_555
C85 C84 1_555 1_555
H66 C85 1_555 1_555
C86 C81 1_555 1_555
H67 C86 1_555 1_555
C87 N6 1_555 1_555
C88 C87 1_555 1_555
H68 C88 1_555 1_555
C89 C88 1_555 1_555
H69 C89 1_555 1_555
C90 C89 1_555 1_555
H70 C90 1_555 1_555
C91 C90 1_555 1_555
H71 C91 1_555 1_555
C92 C87 1_555 1_555
H72 C92 1_555 1_555
C93 C71 1_555 1_555
H73 C93 1_555 1_555
H74 C93 1_555 1_555
C94 C93 1_555 1_555
H75 C94 1_555 1_555
H76 C94 1_555 1_555
C95 C94 1_555 1_555
H77 C95 1_555 1_555
H78 C95 1_555 1_555
C96 C95 1_555 1_555
H79 C96 1_555 1_555
H80 C96 1_555 1_555
H81 C96 1_555 1_555
C97 C98 1_555 1_555
C98 H82 1_555 1_555
C99 C98 1_555 1_555
H83 C99 1_555 1_555
C100 C99 1_555 1_555
H84 C100 1_555 1_555
C101 C100 1_555 1_555
H85 C101 1_555 1_555
C102 C97 1_555 1_555
H86 C102 1_555 1_555
C103 C104 1_555 1_555
C104 H87 1_555 1_555
C105 C104 1_555 1_555
H88 C105 1_555 1_555
C106 C105 1_555 1_555
H89 C106 1_555 1_555
C107 C106 1_555 1_555
H90 C107 1_555 1_555
C108 C103 1_555 1_555
H91 C108 1_555 1_555
C109 C66 1_555 1_555
H92 C109 1_555 1_555
H93 C109 1_555 1_555
C110 C109 1_555 1_555
H94 C110 1_555 1_555
H95 C110 1_555 1_555
C111 C110 1_555 1_555
H96 C111 1_555 1_555
H97 C111 1_555 1_555
C112 C111 1_555 1_555
H98 C112 1_555 1_555
H99 C112 1_555 1_555
H100 C112 1_555 1_555
B2 N4 1_555 1_555
C5 C6 1_555 1_555
C11 C12 1_555 1_555
C12 B1 1_555 1_555
C13 C18 1_555 1_555
C17 C18 1_555 1_555
C21 C22 1_555 1_555
C23 C24 1_555 1_555
C29 C30 1_555 1_555
C35 C36 1_555 1_555
C41 B1 1_555 1_555
C45 C46 1_555 1_555
C47 B1 1_555 1_555
C51 C52 1_555 1_555
C61 C62 1_555 1_555
C67 C68 1_555 1_555
C68 B2 1_555 1_555
C69 C74 1_555 1_555
C73 C74 1_555 1_555
C77 C78 1_555 1_555
C79 C80 1_555 1_555
C85 C86 1_555 1_555
C91 C92 1_555 1_555
C97 B2 1_555 1_555
C101 C102 1_555 1_555
C103 B2 1_555 1_555
C107 C108 1_555 1_555

#END
