
#######################################################################
#
#                 Cambridge Crystallographic Data Centre
#                                CCDC 
#
#######################################################################
#
# If this CIF has been generated from an entry in the Cambridge 
# Structural Database, then it will include bibliographic, chemical, 
# crystal, experimental, refinement or atomic coordinate data resulting 
# from the CCDC's data processing and validation procedures.
#
#######################################################################

data_FIMYEI
_chemical_formula_moiety         'C10 H5 F3 N2 O4'
_chemical_name_systematic        
1-methyl-6-nitro-5-(trifluoromethyl)-1H-indole-2,3-dione
_symmetry_cell_setting           triclinic
_symmetry_space_group_name_H-M   'P -1'
_symmetry_Int_Tables_number      2
_space_group_name_Hall           '-P 1'
loop_
_symmetry_equiv_pos_site_id
_symmetry_equiv_pos_as_xyz
1 x,y,z
2 -x,-y,-z
_cell_length_a                   12.7349(9)
_cell_length_b                   13.1303(9)
_cell_length_c                   13.8473(10)
_cell_angle_alpha                101.794(2)
_cell_angle_beta                 101.652(2)
_cell_angle_gamma                97.896(2)
_cell_volume                     2180.97
_exptl_crystal_colour            orange
_exptl_crystal_description       Block
_cell_formula_units_Z            8
loop_
_atom_site_label
_atom_site_type_symbol
_atom_site_fract_x
_atom_site_fract_y
_atom_site_fract_z
C1 C 0.25993(19) 1.1162(2) 0.01154(18)
O1 O 0.17631(14) 1.05847(16) 0.00788(16)
N1 N 0.37350(14) 1.25614(15) -0.01672(13)
F1 F 0.67748(13) 0.97600(13) 0.17854(12)
C2 C 0.26695(18) 1.2075(2) -0.04295(17)
O2 O 0.19261(13) 1.22944(16) -0.10009(13)
N2 N 0.71297(16) 1.18537(16) 0.17496(16)
F2 F 0.60981(16) 1.02384(14) 0.30503(11)
C3 C 0.43701(17) 1.20332(18) 0.04412(15)
O3 O 0.76870(15) 1.1954(2) 0.11469(16)
F3 F 0.51892(15) 0.89879(13) 0.17850(14)
C4 C 0.54897(17) 1.22630(18) 0.08108(16)
H1 H 0.5921 1.2840 0.0702
O4 O 0.74781(15) 1.19841(16) 0.26568(14)
C5 C 0.59326(18) 1.15837(18) 0.13532(16)
C6 C 0.53305(19) 1.07025(18) 0.15302(16)
C7 C 0.4203(2) 1.05067(19) 0.11591(18)
H2 H 0.3769 0.9931 0.1268
C8 C 0.37367(18) 1.11799(19) 0.06256(17)
C9 C 0.4150(2) 1.3443(2) -0.05621(19)
H3 H 0.3550 1.3663 -0.0957
H4 H 0.4631 1.3224 -0.0982
H5 H 0.4541 1.4024 -0.0007
C10 C 0.5836(2) 0.9933(2) 0.20545(19)
N3 N 0.06830(17) 0.49969(15) 0.21211(15)
N4 N -0.26122(18) 0.3804(2) -0.06371(19)
F4 F -0.21095(15) 0.25208(18) -0.22538(13)
O5 O 0.22951(14) 0.31464(15) 0.14829(13)
F5 F -0.08193(15) 0.16805(16) -0.19977(14)
O6 O 0.23794(16) 0.50254(15) 0.31064(13)
F6 F -0.22579(18) 0.12826(18) -0.14806(16)
O7 O -0.33334(17) 0.3026(2) -0.0869(2)
O8 O -0.2737(2) 0.4675(3) -0.0754(3)
C11 C 0.15885(19) 0.36631(19) 0.15166(17)
C12 C 0.1642(2) 0.46493(19) 0.23683(17)
C13 C 0.00118(19) 0.43476(18) 0.12244(17)
C14 C -0.1019(2) 0.4435(2) 0.07393(19)
H6 H -0.1363 0.4972 0.1001
C15 C -0.15129(18) 0.3691(2) -0.01503(19)
C16 C -0.10434(18) 0.2868(2) -0.05783(18)
C17 C -0.00038(18) 0.28025(19) -0.00716(17)
H7 H 0.0341 0.2266 -0.0334
C18 C 0.05129(17) 0.35337(18) 0.08180(16)
C19 C 0.0317(3) 0.5811(2) 0.2788(2)
H8 H 0.0908 0.6162 0.3360
H9 H -0.0277 0.5489 0.3022
H10 H 0.0077 0.6317 0.2423
C20 C -0.1569(2) 0.2081(2) -0.1568(2)
N5 N 0.71765(16) 0.51045(15) 0.38867(15)
N6 N 0.5801(2) 0.72504(17) 0.65229(16)
F7 F 0.44982(17) 0.83988(15) 0.55469(17)
F8 F 0.3476(2) 0.7679(2) 0.40881(17)
O9 O 0.51890(18) 0.49143(17) 0.16985(13)
F9 F 0.32809(19) 0.7058(2) 0.5334(2)
O10 O 0.73180(16) 0.42957(15) 0.22873(15)
O11 O 0.5111(2) 0.69506(18) 0.69377(16)
O12 O 0.6600(2) 0.79360(18) 0.69285(15)
C21 C 0.5738(2) 0.51097(19) 0.25514(18)
C22 C 0.6842(2) 0.47661(18) 0.28567(19)
C23 C 0.64350(18) 0.56673(16) 0.42771(17)
C24 C 0.6511(2) 0.61621(18) 0.52748(17)
H11 H 0.7081 0.6128 0.5799
C25 C 0.5691(2) 0.67118(17) 0.54493(17)
C26 C 0.4827(2) 0.67969(19) 0.46976(19)
C27 C 0.4763(2) 0.62712(19) 0.37003(18)
H12 H 0.4191 0.6302 0.3176
C28 C 0.55578(18) 0.57070(18) 0.35050(16)
C29 C 0.8190(2) 0.4958(2) 0.4488(2)
H13 H 0.8556 0.4544 0.4055
H14 H 0.8038 0.4596 0.4995
H15 H 0.8648 0.5635 0.4812
C30 C 0.4016(3) 0.7489(3) 0.4911(2)
N7 N 0.00854(15) -0.12834(14) 0.72120(14)
N8 N 0.18286(19) 0.20539(16) 0.66494(15)
F10 F 0.19488(13) 0.17293(12) 0.46875(12)
F11 F 0.20760(16) 0.02030(14) 0.38754(12)
F12 F 0.33545(12) 0.10690(15) 0.51530(13)
O13 O 0.04634(15) -0.31454(13) 0.51892(13)
O14 O -0.05038(15) -0.30787(13) 0.69615(13)
O15 O 0.27964(17) 0.24071(15) 0.68968(15)
O16 O 0.1114(2) 0.25801(16) 0.66568(19)
C31 C 0.04479(18) -0.23551(17) 0.57954(17)
C32 C -0.00596(18) -0.23252(17) 0.67292(17)
C33 C 0.06235(16) -0.06377(17) 0.67076(15)
C34 C 0.09288(17) 0.04509(17) 0.69679(16)
H16 H 0.0774 0.0866 0.7533
C35 C 0.14780(17) 0.08918(17) 0.63404(17)
C36 C 0.17149(17) 0.03163(18) 0.54778(17)
C37 C 0.13875(18) -0.07798(17) 0.52295(17)
H17 H 0.1526 -0.1193 0.4655
C38 C 0.08566(17) -0.12416(17) 0.58479(16)
C39 C -0.0298(2) -0.0909(2) 0.81185(19)
H18 H -0.0641 -0.1504 0.8319
H19 H -0.0816 -0.0461 0.7977
H20 H 0.0309 -0.0516 0.8658
C40 C 0.2287(2) 0.0824(2) 0.48005(19)
loop_
_geom_bond_atom_site_label_1
_geom_bond_atom_site_label_2
_geom_bond_site_symmetry_1
_geom_bond_site_symmetry_2
C1 O1 1_555 1_555
N1 C2 1_555 1_555
F1 C10 1_555 1_555
C2 C1 1_555 1_555
O2 C2 1_555 1_555
N2 O3 1_555 1_555
F2 C10 1_555 1_555
C3 N1 1_555 1_555
F3 C10 1_555 1_555
C4 C3 1_555 1_555
H1 C4 1_555 1_555
O4 N2 1_555 1_555
C5 N2 1_555 1_555
C6 C5 1_555 1_555
C7 C6 1_555 1_555
H2 C7 1_555 1_555
C8 C1 1_555 1_555
C9 N1 1_555 1_555
H3 C9 1_555 1_555
H4 C9 1_555 1_555
H5 C9 1_555 1_555
C10 C6 1_555 1_555
N3 C12 1_555 1_555
N4 O7 1_555 1_555
F4 C20 1_555 1_555
O5 C11 1_555 1_555
F5 C20 1_555 1_555
O6 C12 1_555 1_555
F6 C20 1_555 1_555
O8 N4 1_555 1_555
C11 C12 1_555 1_555
C13 N3 1_555 1_555
C14 C13 1_555 1_555
H6 C14 1_555 1_555
C15 N4 1_555 1_555
C16 C15 1_555 1_555
C17 C16 1_555 1_555
H7 C17 1_555 1_555
C18 C11 1_555 1_555
C19 N3 1_555 1_555
H8 C19 1_555 1_555
H9 C19 1_555 1_555
H10 C19 1_555 1_555
C20 C16 1_555 1_555
N5 C22 1_555 1_555
N6 O11 1_555 1_555
F7 C30 1_555 1_555
F8 C30 1_555 1_555
O9 C21 1_555 1_555
F9 C30 1_555 1_555
O10 C22 1_555 1_555
O12 N6 1_555 1_555
C21 C22 1_555 1_555
C23 N5 1_555 1_555
C24 C23 1_555 1_555
H11 C24 1_555 1_555
C25 N6 1_555 1_555
C26 C25 1_555 1_555
C27 C26 1_555 1_555
H12 C27 1_555 1_555
C28 C21 1_555 1_555
C29 N5 1_555 1_555
H13 C29 1_555 1_555
H14 C29 1_555 1_555
H15 C29 1_555 1_555
C30 C26 1_555 1_555
N7 C32 1_555 1_555
N8 O15 1_555 1_555
F10 C40 1_555 1_555
F11 C40 1_555 1_555
F12 C40 1_555 1_555
O13 C31 1_555 1_555
O14 C32 1_555 1_555
O16 N8 1_555 1_555
C31 C32 1_555 1_555
C33 N7 1_555 1_555
C34 C33 1_555 1_555
H16 C34 1_555 1_555
C35 N8 1_555 1_555
C36 C35 1_555 1_555
C37 C36 1_555 1_555
H17 C37 1_555 1_555
C38 C31 1_555 1_555
C39 N7 1_555 1_555
H18 C39 1_555 1_555
H19 C39 1_555 1_555
H20 C39 1_555 1_555
C40 C36 1_555 1_555
C3 C8 1_555 1_555
C4 C5 1_555 1_555
C7 C8 1_555 1_555
C13 C18 1_555 1_555
C14 C15 1_555 1_555
C17 C18 1_555 1_555
C23 C28 1_555 1_555
C24 C25 1_555 1_555
C27 C28 1_555 1_555
C33 C38 1_555 1_555
C34 C35 1_555 1_555
C37 C38 1_555 1_555

#END
