
#######################################################################
#
#                 Cambridge Crystallographic Data Centre
#                                CCDC 
#
#######################################################################
#
# If this CIF has been generated from an entry in the Cambridge 
# Structural Database, then it will include bibliographic, chemical, 
# crystal, experimental, refinement or atomic coordinate data resulting 
# from the CCDC's data processing and validation procedures.
#
#######################################################################

data_FINDUE
_chemical_formula_moiety         'C17 H19 N3 O3'
_chemical_name_systematic        
N-[4-(hydroxymethyl)-2-(morpholin-4-yl)phenyl]pyridine-2-carboxamide
_symmetry_cell_setting           triclinic
_symmetry_space_group_name_H-M   'P -1'
_symmetry_Int_Tables_number      2
_space_group_name_Hall           '-P 1'
loop_
_symmetry_equiv_pos_site_id
_symmetry_equiv_pos_as_xyz
1 x,y,z
2 -x,-y,-z
_cell_length_a                   11.0414(2)
_cell_length_b                   11.7274(2)
_cell_length_c                   14.0159(3)
_cell_angle_alpha                86.4210(10)
_cell_angle_beta                 80.8950(10)
_cell_angle_gamma                62.7930(10)
_cell_volume                     1593.64
_exptl_crystal_colour            colorless
_exptl_crystal_description       block
_cell_formula_units_Z            4
loop_
_atom_site_label
_atom_site_type_symbol
_atom_site_fract_x
_atom_site_fract_y
_atom_site_fract_z
O1 O 1.15558(14) 0.35947(15) 0.68259(11)
O2 O 0.64948(15) 0.13539(15) 0.85123(11)
O3 O 0.61095(15) 0.60020(17) 0.39935(10)
H1 H 0.677202 0.613021 0.378092
N1 N 1.08258(16) 0.20042(17) 0.88971(12)
N2 N 0.96188(15) 0.34160(15) 0.74373(11)
H2 H 0.929911 0.306611 0.789957
N3 N 0.72778(14) 0.31822(15) 0.75821(11)
C1 C 1.1449(2) 0.1228(2) 0.95899(16)
H3 H 1.091232 0.101200 1.007462
C2 C 1.2833(2) 0.0726(2) 0.96352(17)
H4 H 1.321789 0.018814 1.013587
C3 C 1.3630(2) 0.1038(2) 0.89251(17)
H5 H 1.457316 0.069927 0.892550
C4 C 1.3013(2) 0.1861(2) 0.82099(16)
H6 H 1.352910 0.210633 0.772938
C5 C 1.16166(18) 0.23159(18) 0.82177(13)
C6 C 1.09296(19) 0.31745(19) 0.74278(14)
C7 C 0.86881(18) 0.41575(18) 0.68026(13)
C8 C 0.8908(2) 0.50011(19) 0.61441(14)
H7 H 0.971606 0.508010 0.609218
C9 C 0.7922(2) 0.57242(19) 0.55650(14)
H8 H 0.808006 0.628547 0.512448
C10 C 0.67077(19) 0.56323(18) 0.56256(14)
C11 C 0.64925(18) 0.47872(18) 0.62901(13)
H9 H 0.567880 0.471765 0.634078
C12 C 0.74625(18) 0.40469(18) 0.68782(13)
C13 C 0.7938(2) 0.18484(19) 0.72401(15)
H10 H 0.888958 0.159698 0.696798
H11 H 0.746931 0.176335 0.673922
C14 C 0.7874(2) 0.0994(2) 0.80744(17)
H12 H 0.829366 0.011336 0.784593
H13 H 0.839547 0.104201 0.855266
C15 C 0.5842(2) 0.2653(2) 0.88202(15)
H14 H 0.631313 0.275544 0.931218
H15 H 0.489900 0.288728 0.910590
C16 C 0.58501(18) 0.3533(2) 0.79950(14)
H16 H 0.535982 0.345500 0.750645
H17 H 0.539431 0.441542 0.822390
C17 C 0.5658(2) 0.6413(2) 0.49760(14)
H18 H 0.481206 0.635289 0.520050
H19 H 0.545774 0.730582 0.501949
O4 O 0.35039(15) 0.10688(16) 0.29743(12)
O5 O 0.85471(15) 0.34089(15) 0.13233(11)
O6 O 0.88375(15) -0.08509(17) 0.60331(10)
H20 H 0.813584 -0.089327 0.628290
N4 N 0.38409(16) 0.34540(16) 0.14385(12)
N5 N 0.51611(15) 0.17455(15) 0.27124(11)
H21 H 0.535806 0.230535 0.239514
N6 N 0.74033(14) 0.21083(14) 0.26437(11)
C18 C 0.3185(2) 0.4316(2) 0.08041(15)
H22 H 0.359765 0.480608 0.050087
C19 C 0.1938(2) 0.4535(2) 0.05649(16)
H23 H 0.152511 0.514534 0.010905
C20 C 0.1322(2) 0.3827(2) 0.10184(18)
H24 H 0.047637 0.394903 0.087680
C21 C 0.1967(2) 0.2934(2) 0.16848(17)
H25 H 0.156320 0.244554 0.200408
C22 C 0.32235(18) 0.27730(18) 0.18726(13)
C23 C 0.39633(19) 0.17837(19) 0.25785(14)
C24 C 0.61382(18) 0.09324(18) 0.32902(13)
C25 C 0.6010(2) -0.0022(2) 0.38636(15)
H26 H 0.525013 -0.016940 0.387018
C26 C 0.7013(2) -0.0755(2) 0.44261(15)
H27 H 0.691669 -0.139378 0.480890
C27 C 0.81583(19) -0.05609(19) 0.44335(14)
C28 C 0.82929(19) 0.03864(18) 0.38449(14)
H28 H 0.905973 0.052371 0.383845
C29 C 0.73074(18) 0.11302(17) 0.32674(13)
C30 C 0.7975(2) 0.1656(2) 0.16452(14)
H29 H 0.747793 0.124820 0.142285
H30 H 0.893415 0.102862 0.161259
C31 C 0.7859(2) 0.2771(2) 0.10101(15)
H31 H 0.825072 0.246639 0.035124
H32 H 0.689481 0.336950 0.101566
C32 C 0.7996(2) 0.3848(2) 0.22952(16)
H33 H 0.703178 0.446143 0.232695
H34 H 0.847697 0.428229 0.250258
C33 C 0.8129(2) 0.2759(2) 0.29655(15)
H35 H 0.909309 0.216066 0.296134
H36 H 0.773580 0.308395 0.361979
C34 C 0.9214(2) -0.1346(2) 0.50755(16)
H37 H 0.933249 -0.221859 0.509033
H38 H 1.008925 -0.136849 0.480504
loop_
_geom_bond_atom_site_label_1
_geom_bond_atom_site_label_2
_geom_bond_site_symmetry_1
_geom_bond_site_symmetry_2
O1 C6 1_555 1_555
O2 C14 1_555 1_555
O3 H1 1_555 1_555
N1 C1 1_555 1_555
N2 H2 1_555 1_555
N3 C12 1_555 1_555
C1 H3 1_555 1_555
C2 C1 1_555 1_555
H4 C2 1_555 1_555
C3 C2 1_555 1_555
H5 C3 1_555 1_555
C4 C3 1_555 1_555
H6 C4 1_555 1_555
C5 N1 1_555 1_555
C6 N2 1_555 1_555
C7 N2 1_555 1_555
C8 C7 1_555 1_555
H7 C8 1_555 1_555
C9 C8 1_555 1_555
H8 C9 1_555 1_555
C10 C9 1_555 1_555
C11 C10 1_555 1_555
H9 C11 1_555 1_555
C12 C7 1_555 1_555
C13 N3 1_555 1_555
H10 C13 1_555 1_555
H11 C13 1_555 1_555
C14 C13 1_555 1_555
H12 C14 1_555 1_555
H13 C14 1_555 1_555
C15 O2 1_555 1_555
H14 C15 1_555 1_555
H15 C15 1_555 1_555
C16 N3 1_555 1_555
H16 C16 1_555 1_555
H17 C16 1_555 1_555
C17 O3 1_555 1_555
H18 C17 1_555 1_555
H19 C17 1_555 1_555
O4 C23 1_555 1_555
O5 C31 1_555 1_555
O6 H20 1_555 1_555
N4 C18 1_555 1_555
N5 H21 1_555 1_555
N6 C29 1_555 1_555
C18 H22 1_555 1_555
C19 C18 1_555 1_555
H23 C19 1_555 1_555
C20 C19 1_555 1_555
H24 C20 1_555 1_555
C21 C20 1_555 1_555
H25 C21 1_555 1_555
C22 N4 1_555 1_555
C23 N5 1_555 1_555
C24 N5 1_555 1_555
C25 C24 1_555 1_555
H26 C25 1_555 1_555
C26 C25 1_555 1_555
H27 C26 1_555 1_555
C27 C26 1_555 1_555
C28 C27 1_555 1_555
H28 C28 1_555 1_555
C29 C24 1_555 1_555
C30 N6 1_555 1_555
H29 C30 1_555 1_555
H30 C30 1_555 1_555
C31 C30 1_555 1_555
H31 C31 1_555 1_555
H32 C31 1_555 1_555
C32 O5 1_555 1_555
H33 C32 1_555 1_555
H34 C32 1_555 1_555
C33 N6 1_555 1_555
H35 C33 1_555 1_555
H36 C33 1_555 1_555
C34 O6 1_555 1_555
H37 C34 1_555 1_555
H38 C34 1_555 1_555
C4 C5 1_555 1_555
C5 C6 1_555 1_555
C10 C17 1_555 1_555
C11 C12 1_555 1_555
C15 C16 1_555 1_555
C21 C22 1_555 1_555
C22 C23 1_555 1_555
C27 C34 1_555 1_555
C28 C29 1_555 1_555
C32 C33 1_555 1_555

#END
