
#######################################################################
#
#                 Cambridge Crystallographic Data Centre
#                                CCDC 
#
#######################################################################
#
# If this CIF has been generated from an entry in the Cambridge 
# Structural Database, then it will include bibliographic, chemical, 
# crystal, experimental, refinement or atomic coordinate data resulting 
# from the CCDC's data processing and validation procedures.
#
#######################################################################

data_FINFAM
_chemical_formula_moiety         'C23 H22 Br1 N1 O4'
_chemical_name_systematic        
3-[(4-bromophenyl)amino]-2-hydroxy-1,2-bis(4-methoxyphenyl)propan-1-one
_symmetry_cell_setting           orthorhombic
_symmetry_space_group_name_H-M   'P 21 21 21'
_symmetry_Int_Tables_number      19
_space_group_name_Hall           'P 2ac 2ab'
loop_
_symmetry_equiv_pos_site_id
_symmetry_equiv_pos_as_xyz
1 x,y,z
2 1/2-x,-y,1/2+z
3 1/2+x,1/2-y,-z
4 -x,1/2+y,1/2-z
_cell_length_a                   8.3737(3)
_cell_length_b                   10.0127(4)
_cell_length_c                   24.6580(8)
_cell_angle_alpha                90
_cell_angle_beta                 90
_cell_angle_gamma                90
_cell_volume                     2067.41
_exptl_crystal_colour            colorless
_exptl_crystal_description       prism
_cell_formula_units_Z            4
loop_
_atom_site_label
_atom_site_type_symbol
_atom_site_fract_x
_atom_site_fract_y
_atom_site_fract_z
Br1 Br 0.44470(8) 0.33115(8) 0.19041(2)
C1 C 0.2667(7) 0.2055(5) 0.3381(2)
H1 H 0.2559 0.1241 0.3559
C2 C 0.3359(7) 0.2087(5) 0.2873(2)
H2 H 0.3725 0.1303 0.2713
C3 C 0.3502(6) 0.3267(6) 0.26078(18)
C4 C 0.2988(7) 0.4439(6) 0.2840(2)
H3 H 0.3100 0.5242 0.2654
C5 C 0.2299(6) 0.4418(5) 0.3353(2)
H4 H 0.1953 0.5212 0.3510
C6 C 0.2122(5) 0.3228(5) 0.36335(17)
C7 C 0.0487(6) 0.4147(4) 0.43938(17)
H5 H -0.0614 0.3895 0.4328
H6 H 0.0674 0.5003 0.4221
C8 C 0.0771(5) 0.4278(4) 0.50076(17)
C9 C 0.0533(5) 0.2892(4) 0.52829(17)
C10 C 0.1246(5) 0.2531(5) 0.58085(19)
C11 C 0.2125(6) 0.3380(6) 0.61412(19)
H7 H 0.2280 0.4266 0.6040
C12 C 0.2776(7) 0.2911(7) 0.6626(2)
H8 H 0.3372 0.3477 0.6846
C13 C 0.2525(7) 0.1584(7) 0.6779(2)
C14 C 0.1642(7) 0.0745(7) 0.6458(3)
H9 H 0.1476 -0.0135 0.6565
C15 C 0.1003(7) 0.1198(5) 0.5982(2)
H10 H 0.0399 0.0622 0.5768
C16 C 0.3971(10) 0.1811(12) 0.7604(3)
H11 H 0.4423 0.1256 0.7882
H12 H 0.3261 0.2450 0.7765
H13 H 0.4812 0.2272 0.7417
C17 C -0.0485(5) 0.5206(4) 0.52527(15)
C18 C -0.2088(5) 0.4846(4) 0.5232(2)
H14 H -0.2371 0.4048 0.5064
C19 C -0.3273(5) 0.5636(5) 0.5452(2)
H15 H -0.4334 0.5367 0.5432
C20 C -0.2882(5) 0.6825(5) 0.57006(16)
C21 C -0.1275(5) 0.7222(4) 0.57078(19)
H16 H -0.0999 0.8036 0.5863
C22 C -0.0102(5) 0.6425(4) 0.54889(18)
H17 H 0.0956 0.6705 0.5499
C23 C -0.5577(6) 0.7282(6) 0.5942(3)
H18 H -0.6191 0.7940 0.6134
H19 H -0.5707 0.6428 0.6114
H20 H -0.5941 0.7229 0.5574
N1 N 0.1549(5) 0.3145(4) 0.41586(15)
H21 H 0.132(7) 0.228(7) 0.425(3)
O1 O 0.2307(3) 0.4823(3) 0.51035(13)
H22 H 0.2990 0.4297 0.4998
O2 O -0.0292(4) 0.2086(3) 0.50359(14)
O3 O 0.3133(7) 0.1025(7) 0.7241(2)
O4 O -0.3932(4) 0.7649(3) 0.59499(16)
loop_
_geom_bond_atom_site_label_1
_geom_bond_atom_site_label_2
_geom_bond_site_symmetry_1
_geom_bond_site_symmetry_2
Br1 C3 1_555 1_555
C1 H1 1_555 1_555
C2 C1 1_555 1_555
H2 C2 1_555 1_555
C3 C2 1_555 1_555
C4 C3 1_555 1_555
H3 C4 1_555 1_555
C5 C4 1_555 1_555
H4 C5 1_555 1_555
C6 C1 1_555 1_555
C7 H5 1_555 1_555
H6 C7 1_555 1_555
C8 C7 1_555 1_555
C9 C8 1_555 1_555
C10 C9 1_555 1_555
C11 C10 1_555 1_555
H7 C11 1_555 1_555
C12 C11 1_555 1_555
H8 C12 1_555 1_555
C13 C12 1_555 1_555
C14 C13 1_555 1_555
H9 C14 1_555 1_555
C15 C10 1_555 1_555
H10 C15 1_555 1_555
C16 H11 1_555 1_555
H12 C16 1_555 1_555
H13 C16 1_555 1_555
C17 C8 1_555 1_555
C18 C17 1_555 1_555
H14 C18 1_555 1_555
C19 C18 1_555 1_555
H15 C19 1_555 1_555
C20 C19 1_555 1_555
C21 C20 1_555 1_555
H16 C21 1_555 1_555
C22 C17 1_555 1_555
H17 C22 1_555 1_555
C23 H18 1_555 1_555
H19 C23 1_555 1_555
H20 C23 1_555 1_555
N1 C6 1_555 1_555
H21 N1 1_555 1_555
O1 C8 1_555 1_555
H22 O1 1_555 1_555
O2 C9 1_555 1_555
O3 C13 1_555 1_555
O4 C20 1_555 1_555
C5 C6 1_555 1_555
C7 N1 1_555 1_555
C14 C15 1_555 1_555
C16 O3 1_555 1_555
C21 C22 1_555 1_555
C23 O4 1_555 1_555

#END
