
#######################################################################
#
#                 Cambridge Crystallographic Data Centre
#                                CCDC 
#
#######################################################################
#
# If this CIF has been generated from an entry in the Cambridge 
# Structural Database, then it will include bibliographic, chemical, 
# crystal, experimental, refinement or atomic coordinate data resulting 
# from the CCDC's data processing and validation procedures.
#
#######################################################################

data_FINJIW
_chemical_formula_moiety         'C25 H24 N4 O3'
_chemical_name_systematic        
3,7,7-trimethyl-4-(3-nitrophenyl)-1-phenyl-4,5,6,7,8,9-hexahydro-1H-pyrazolo(3,4-b)quinoline-5(6H)-one
_symmetry_cell_setting           orthorhombic
_symmetry_space_group_name_H-M   'P b c a'
_symmetry_Int_Tables_number      61
_space_group_name_Hall           '-P 2ac 2ab'
loop_
_symmetry_equiv_pos_site_id
_symmetry_equiv_pos_as_xyz
1 x,y,z
2 1/2+x,1/2-y,-z
3 -x,1/2+y,1/2-z
4 1/2-x,-y,1/2+z
5 -x,-y,-z
6 1/2-x,1/2+y,z
7 x,1/2-y,1/2+z
8 1/2+x,y,1/2-z
_cell_length_a                   16.3331(10)
_cell_length_b                   13.8329(9)
_cell_length_c                   19.4163(12)
_cell_angle_alpha                90
_cell_angle_beta                 90
_cell_angle_gamma                90
_cell_volume                     4386.81
_exptl_crystal_colour            yellow
_exptl_crystal_description       block
_cell_formula_units_Z            8
loop_
_atom_site_label
_atom_site_type_symbol
_atom_site_fract_x
_atom_site_fract_y
_atom_site_fract_z
O1 O 0.19776(8) 0.53629(8) 0.04852(7)
O2 O 0.56566(9) 0.46889(12) 0.05719(8)
O3 O 0.58458(11) 0.62324(13) 0.05462(9)
N1 N 0.31200(10) 0.22895(11) 0.09691(7)
N2 N 0.36203(10) 0.24905(11) 0.27653(7)
N3 N 0.36221(9) 0.20023(10) 0.21436(7)
N4 N 0.54465(10) 0.55177(14) 0.07076(9)
C1 C 0.32851(10) 0.25612(12) 0.16422(9)
C2 C 0.30764(10) 0.34299(12) 0.19248(9)
C3 C 0.27576(10) 0.42521(12) 0.14957(8)
H1 H 0.2249 0.4509 0.1716
C4 C 0.25412(10) 0.38628(12) 0.07817(8)
C5 C 0.27043(11) 0.29425(12) 0.05680(9)
C6 C 0.32915(11) 0.33485(12) 0.26251(9)
C7 C 0.21446(11) 0.45237(12) 0.03137(9)
C8 C 0.19485(12) 0.41902(13) -0.04059(9)
H2 H 0.2423 0.4328 -0.0707
H3 H 0.1477 0.4567 -0.0581
C9 C 0.17444(11) 0.31117(13) -0.04531(9)
C10 C 0.24572(12) 0.25605(13) -0.01277(9)
H4 H 0.2302 0.1872 -0.0080
H5 H 0.2935 0.2594 -0.0441
C11 C 0.39634(11) 0.10594(12) 0.21071(9)
C12 C 0.43937(12) 0.07764(14) 0.15285(11)
H6 H 0.4462 0.1209 0.1153
C13 C 0.47248(13) -0.01482(15) 0.15027(12)
H7 H 0.5010 -0.0355 0.1102
C14 C 0.46419(13) -0.07669(15) 0.20549(13)
H8 H 0.4877 -0.1395 0.2038
C15 C 0.42168(13) -0.04726(14) 0.26316(12)
H9 H 0.4163 -0.0899 0.3013
C16 C 0.38695(12) 0.04364(13) 0.26598(10)
H10 H 0.3569 0.0633 0.3055
C17 C 0.33924(11) 0.50596(12) 0.14669(9)
C18 C 0.41087(11) 0.49349(13) 0.10959(9)
H11 H 0.4204 0.4353 0.0849
C19 C 0.46816(11) 0.56669(14) 0.10895(9)
C20 C 0.45843(12) 0.65251(13) 0.14432(10)
H12 H 0.4989 0.7017 0.1427
C21 C 0.38751(12) 0.66401(13) 0.18219(10)
H13 H 0.3788 0.7218 0.2076
C22 C 0.32901(11) 0.59148(12) 0.18322(9)
H14 H 0.2806 0.6005 0.2096
C23 C 0.31851(13) 0.40779(14) 0.31846(9)
H15 H 0.3387 0.3810 0.3620
H16 H 0.2603 0.4239 0.3231
H17 H 0.3495 0.4663 0.3070
C24 C 0.09456(13) 0.29005(16) -0.00726(11)
H18 H 0.0819 0.2210 -0.0108
H19 H 0.0501 0.3277 -0.0279
H20 H 0.1005 0.3079 0.0413
C25 C 0.16537(14) 0.28187(15) -0.12086(10)
H21 H 0.1530 0.2127 -0.1237
H22 H 0.2166 0.2953 -0.1454
H23 H 0.1207 0.3189 -0.1419
H24 H 0.3100(13) 0.1670(16) 0.0843(11)
loop_
_geom_bond_atom_site_label_1
_geom_bond_atom_site_label_2
_geom_bond_site_symmetry_1
_geom_bond_site_symmetry_2
O1 C7 1_555 1_555
O2 N4 1_555 1_555
O3 N4 1_555 1_555
N1 C1 1_555 1_555
N2 N3 1_555 1_555
N3 C1 1_555 1_555
N4 C19 1_555 1_555
C1 C2 1_555 1_555
C2 C3 1_555 1_555
C3 H1 1_555 1_555
C4 C3 1_555 1_555
C5 N1 1_555 1_555
C6 N2 1_555 1_555
C7 C4 1_555 1_555
C8 C7 1_555 1_555
H2 C8 1_555 1_555
H3 C8 1_555 1_555
C9 C8 1_555 1_555
C10 C5 1_555 1_555
H4 C10 1_555 1_555
H5 C10 1_555 1_555
C11 N3 1_555 1_555
C12 C11 1_555 1_555
H6 C12 1_555 1_555
C13 C12 1_555 1_555
H7 C13 1_555 1_555
C14 C13 1_555 1_555
H8 C14 1_555 1_555
C15 C14 1_555 1_555
H9 C15 1_555 1_555
C16 C11 1_555 1_555
H10 C16 1_555 1_555
C17 C3 1_555 1_555
C18 C17 1_555 1_555
H11 C18 1_555 1_555
C19 C18 1_555 1_555
C20 C19 1_555 1_555
H12 C20 1_555 1_555
C21 C20 1_555 1_555
H13 C21 1_555 1_555
C22 C17 1_555 1_555
H14 C22 1_555 1_555
C23 C6 1_555 1_555
H15 C23 1_555 1_555
H16 C23 1_555 1_555
H17 C23 1_555 1_555
C24 C9 1_555 1_555
H18 C24 1_555 1_555
H19 C24 1_555 1_555
H20 C24 1_555 1_555
C25 C9 1_555 1_555
H21 C25 1_555 1_555
H22 C25 1_555 1_555
H23 C25 1_555 1_555
H24 N1 1_555 1_555
C2 C6 1_555 1_555
C4 C5 1_555 1_555
C9 C10 1_555 1_555
C15 C16 1_555 1_555
C21 C22 1_555 1_555

#END
