
#######################################################################
#
#                 Cambridge Crystallographic Data Centre
#                                CCDC 
#
#######################################################################
#
# If this CIF has been generated from an entry in the Cambridge 
# Structural Database, then it will include bibliographic, chemical, 
# crystal, experimental, refinement or atomic coordinate data resulting 
# from the CCDC's data processing and validation procedures.
#
#######################################################################

data_FINNIC
_chemical_formula_moiety         'C9 H17 B1 N2 Se1'
_chemical_name_systematic        
t-butyl(1,3-dimethyl-1H-imidazol-3-ium-2-yl)selanylideneborate
_symmetry_cell_setting           monoclinic
_symmetry_space_group_name_H-M   'P 21/n'
_symmetry_Int_Tables_number      14
_space_group_name_Hall           '-P 2yn'
loop_
_symmetry_equiv_pos_site_id
_symmetry_equiv_pos_as_xyz
1 x,y,z
2 1/2-x,1/2+y,1/2-z
3 -x,-y,-z
4 1/2+x,1/2-y,1/2+z
_cell_length_a                   12.404(7)
_cell_length_b                   7.679(4)
_cell_length_c                   12.800(7)
_cell_angle_alpha                90
_cell_angle_beta                 108.23(4)
_cell_angle_gamma                90
_cell_volume                     1158.01
_exptl_crystal_colour            colorless
_exptl_crystal_description       needle
_cell_formula_units_Z            4
loop_
_atom_site_label
_atom_site_type_symbol
_atom_site_fract_x
_atom_site_fract_y
_atom_site_fract_z
Se1 Se 0.60496(3) 0.90994(4) 0.68703(3)
B1 B 0.4827(3) 0.7963(4) 0.7145(3)
C1 C 0.4184(3) 0.8489(4) 0.7991(3)
C2 C 0.4568(3) 1.0267(4) 0.8521(3)
H1 H 0.438024 1.117103 0.795264
H2 H 0.538997 1.025071 0.888703
H3 H 0.417899 1.051477 0.906374
C3 C 0.2894(3) 0.8568(4) 0.7416(3)
H4 H 0.272719 0.943337 0.682404
H5 H 0.251241 0.889737 0.795084
H6 H 0.262197 0.742259 0.710640
C4 C 0.4402(3) 0.7099(4) 0.8906(3)
H7 H 0.414571 0.595971 0.857634
H8 H 0.398406 0.740641 0.941493
H9 H 0.521634 0.704796 0.930837
C5 C 0.4424(3) 0.6224(4) 0.6434(3)
N1 N 0.3628(2) 0.6092(3) 0.5446(2)
C6 C 0.3583(3) 0.4408(4) 0.5044(3)
H10 H 0.309617 0.398899 0.436093
N2 N 0.4874(2) 0.4613(3) 0.6666(2)
C7 C 0.4361(3) 0.3483(4) 0.5810(3)
H11 H 0.452867 0.228135 0.577206
C8 C 0.2965(3) 0.7545(4) 0.4829(3)
H12 H 0.266324 0.723090 0.404925
H13 H 0.345195 0.857365 0.491078
H14 H 0.233497 0.780354 0.511327
C9 C 0.5834(3) 0.4171(4) 0.7626(3)
H15 H 0.610050 0.299490 0.753785
H16 H 0.559655 0.421228 0.828766
H17 H 0.644987 0.500690 0.769839
loop_
_geom_bond_atom_site_label_1
_geom_bond_atom_site_label_2
_geom_bond_site_symmetry_1
_geom_bond_site_symmetry_2
Se1 B1 1_555 1_555
B1 C1 1_555 1_555
C1 C2 1_555 1_555
C2 H1 1_555 1_555
H2 C2 1_555 1_555
H3 C2 1_555 1_555
C3 C1 1_555 1_555
H4 C3 1_555 1_555
H5 C3 1_555 1_555
H6 C3 1_555 1_555
C4 C1 1_555 1_555
H7 C4 1_555 1_555
H8 C4 1_555 1_555
H9 C4 1_555 1_555
C5 B1 1_555 1_555
N1 C5 1_555 1_555
C6 N1 1_555 1_555
H10 C6 1_555 1_555
N2 C5 1_555 1_555
C7 C6 1_555 1_555
H11 C7 1_555 1_555
C8 N1 1_555 1_555
H12 C8 1_555 1_555
H13 C8 1_555 1_555
H14 C8 1_555 1_555
C9 N2 1_555 1_555
H15 C9 1_555 1_555
H16 C9 1_555 1_555
H17 C9 1_555 1_555
N2 C7 1_555 1_555

#END
