
#######################################################################
#
#                 Cambridge Crystallographic Data Centre
#                                CCDC 
#
#######################################################################
#
# If this CIF has been generated from an entry in the Cambridge 
# Structural Database, then it will include bibliographic, chemical, 
# crystal, experimental, refinement or atomic coordinate data resulting 
# from the CCDC's data processing and validation procedures.
#
#######################################################################

data_FINTAZ02
_chemical_name_common            'PDB Chemical Component code: TLA'
_chemical_formula_moiety         'C6 H12 N2 O2,C4 H6 O6'
_chemical_name_systematic        
"1,4-Diazabicyclo(2.2.2)octane-N,N'-dioxide L-tartaric acid"
_symmetry_cell_setting           tetragonal
_symmetry_space_group_name_H-M   'P 41'
_symmetry_Int_Tables_number      76
_space_group_name_Hall           'P 4w'
loop_
_symmetry_equiv_pos_site_id
_symmetry_equiv_pos_as_xyz
1 x,y,z
2 -x,-y,1/2+z
3 -y,x,1/4+z
4 y,-x,3/4+z
_cell_length_a                   7.7160(19)
_cell_length_b                   7.7160(19)
_cell_length_c                   21.102(7)
_cell_angle_alpha                90
_cell_angle_beta                 90
_cell_angle_gamma                90
_cell_volume                     1256.34
_exptl_crystal_colour            colorless
_exptl_crystal_description       block
_cell_formula_units_Z            4
loop_
_atom_site_label
_atom_site_type_symbol
_atom_site_fract_x
_atom_site_fract_y
_atom_site_fract_z
C1 C 0.8704(3) 0.4132(3) 1.04743(12)
H1 H 0.9017 0.4043 1.0916
H2 H 0.8814 0.5333 1.0348
C2 C 0.6355(3) 0.3888(3) 0.97042(10)
H3 H 0.6284 0.5120 0.9623
H4 H 0.5222 0.3388 0.9633
C3 C 0.6741(3) 0.1640(3) 1.04983(11)
H5 H 0.5540 0.1284 1.0483
H6 H 0.7188 0.1381 1.0915
C4 C 0.9925(3) 0.2974(3) 1.00874(12)
H7 H 1.0705 0.3703 0.9847
H8 H 1.0612 0.2239 1.0361
C5 C 0.7714(3) 0.3094(3) 0.92593(11)
H9 H 0.7119 0.2403 0.8946
H10 H 0.8361 0.3988 0.9042
C6 C 0.7756(3) 0.0657(3) 0.99833(10)
H11 H 0.7031 0.0133 0.9658
N1 N 0.6876(2) 0.3555(2) 1.03744(8)
N2 N 0.8869(2) 0.1929(2) 0.96287(7)
O1 O 0.58144(18) 0.44769(19) 1.07866(7)
O2 O 0.99947(18) 0.10769(17) 0.92185(7)
H12 H 0.8579 -0.0127 1.0159
C7 C 0.8408(3) 0.7649(2) 0.84402(10)
C8 C 0.7563(2) 0.6775(3) 0.78769(9)
H13 H 0.6335 0.7087 0.7874
C9 C 0.8374(2) 0.7393(3) 0.72556(10)
H14 H 0.8243 0.8651 0.7234
C10 C 0.7443(3) 0.6587(2) 0.66940(9)
O3 O 0.8899(2) 0.6905(2) 0.89113(7)
O4 O 0.8499(2) 0.93548(18) 0.83635(7)
H15 H 0.892(5) 0.973(5) 0.8649(18)
O5 O 0.76825(18) 0.49493(19) 0.79153(7)
H16 H 0.669(5) 0.464(4) 0.8026(17)
O6 O 1.01668(19) 0.6969(2) 0.72511(7)
H17 H 1.055(4) 0.772(4) 0.7035(15)
O7 O 0.57874(19) 0.70165(19) 0.66847(7)
H18 H 0.538(4) 0.650(4) 0.6373(16)
O8 O 0.8140(2) 0.5699(2) 0.62942(8)
loop_
_geom_bond_atom_site_label_1
_geom_bond_atom_site_label_2
_geom_bond_site_symmetry_1
_geom_bond_site_symmetry_2
C1 H1 1_555 1_555
H2 C1 1_555 1_555
C2 H3 1_555 1_555
H4 C2 1_555 1_555
C3 H5 1_555 1_555
H6 C3 1_555 1_555
C4 C1 1_555 1_555
H7 C4 1_555 1_555
H8 C4 1_555 1_555
C5 C2 1_555 1_555
H9 C5 1_555 1_555
H10 C5 1_555 1_555
C6 C3 1_555 1_555
H11 C6 1_555 1_555
N1 C1 1_555 1_555
N2 C4 1_555 1_555
O1 N1 1_555 1_555
O2 N2 1_555 1_555
H12 C6 1_555 1_555
C7 C8 1_555 1_555
C8 H13 1_555 1_555
C9 C8 1_555 1_555
H14 C9 1_555 1_555
C10 C9 1_555 1_555
O3 C7 1_555 1_555
O4 C7 1_555 1_555
H15 O4 1_555 1_555
O5 C8 1_555 1_555
H16 O5 1_555 1_555
O6 C9 1_555 1_555
H17 O6 1_555 1_555
O7 C10 1_555 1_555
H18 O7 1_555 1_555
O8 C10 1_555 1_555
C2 N1 1_555 1_555
C3 N1 1_555 1_555
C5 N2 1_555 1_555
C6 N2 1_555 1_555

#END
