
#######################################################################
#
#                 Cambridge Crystallographic Data Centre
#                                CCDC 
#
#######################################################################
#
# If this CIF has been generated from an entry in the Cambridge 
# Structural Database, then it will include bibliographic, chemical, 
# crystal, experimental, refinement or atomic coordinate data resulting 
# from the CCDC's data processing and validation procedures.
#
#######################################################################

data_FINTAZ
_chemical_formula_moiety         'C6 H12 N2 O2,C4 H2 D4 O6'
_chemical_name_systematic        
"1,4-Diazabicyclo(2.2.2)octane-N,N'-dioxide tetradeutero-L-tartaric acid"
_symmetry_cell_setting           tetragonal
_symmetry_space_group_name_H-M   'P 41'
_symmetry_Int_Tables_number      76
_space_group_name_Hall           'P 4w'
loop_
_symmetry_equiv_pos_site_id
_symmetry_equiv_pos_as_xyz
1 x,y,z
2 -x,-y,1/2+z
3 -y,x,1/4+z
4 y,-x,3/4+z
_cell_length_a                   7.7424(11)
_cell_length_b                   7.7424(11)
_cell_length_c                   21.222(4)
_cell_angle_alpha                90
_cell_angle_beta                 90
_cell_angle_gamma                90
_cell_volume                     1272.15
_exptl_crystal_colour            colorless
_exptl_crystal_description       prism
_cell_formula_units_Z            4
loop_
_atom_site_label
_atom_site_type_symbol
_atom_site_fract_x
_atom_site_fract_y
_atom_site_fract_z
C1 C 0.8701(3) 0.4144(4) 1.04660(14)
H1 H 0.9014(3) 0.4055(4) 1.09078(14)
H2 H 0.8810(3) 0.5344(4) 1.03399(14)
C2 C 0.6344(3) 0.3875(4) 0.97068(11)
H3 H 0.6273(3) 0.5107(4) 0.96258(11)
H4 H 0.5211(3) 0.3374(4) 0.96361(11)
C3 C 0.6747(4) 0.1649(3) 1.05007(12)
H5 H 0.5545(4) 0.1292(3) 1.04852(12)
H6 H 0.7194(4) 0.1389(3) 1.09176(12)
C4 C 0.9914(3) 0.3011(4) 1.00705(15)
H7 H 1.0694(3) 0.3740(4) 0.98304(15)
H8 H 1.0601(3) 0.2276(4) 1.03437(15)
C5 C 0.7664(4) 0.3043(3) 0.92629(11)
H9 H 0.7069(4) 0.2353(3) 0.89491(11)
H10 H 0.8311(4) 0.3938(3) 0.90459(11)
C6 C 0.7784(4) 0.0658(3) 0.99985(11)
H11 H 0.7059(4) 0.0135(3) 0.96732(11)
N1 N 0.6889(2) 0.3564(2) 1.03791(8)
N2 N 0.8859(2) 0.1925(2) 0.96303(7)
O1 O 0.5836(2) 0.4491(2) 1.07894(7)
O2 O 0.9970(2) 0.10693(19) 0.92192(7)
H12 H 0.8590(2) -0.0096(3) 1.01564(8)
C7 C 0.8392(3) 0.7622(3) 0.84411(10)
C8 C 0.7548(3) 0.6758(3) 0.78722(9)
H13 H 0.6321(3) 0.7070(3) 0.78688(9)
C9 C 0.8364(3) 0.7401(3) 0.72569(9)
H14 H 0.8233(3) 0.8660(3) 0.72356(9)
C10 C 0.7439(3) 0.6595(3) 0.66927(9)
O3 O 0.8896(3) 0.6863(2) 0.89022(8)
O4 O 0.8458(3) 0.9323(2) 0.83705(7)
D1 D 0.878(11) 0.975(13) 0.854(4)
O5 O 0.7682(2) 0.4938(2) 0.79064(7)
D2 D 0.674(5) 0.465(3) 0.7998(15)
O6 O 1.0150(2) 0.6998(2) 0.72541(8)
D3 D 1.053(4) 0.777(5) 0.7078(18)
O7 O 0.5782(2) 0.6999(2) 0.66847(7)
D4 D 0.532(6) 0.634(6) 0.634(2)
O8 O 0.8152(2) 0.5729(3) 0.62915(8)
loop_
_geom_bond_atom_site_label_1
_geom_bond_atom_site_label_2
_geom_bond_site_symmetry_1
_geom_bond_site_symmetry_2
C1 H1 1_555 1_555
H2 C1 1_555 1_555
C2 H3 1_555 1_555
H4 C2 1_555 1_555
C3 H5 1_555 1_555
H6 C3 1_555 1_555
C4 C1 1_555 1_555
H7 C4 1_555 1_555
H8 C4 1_555 1_555
C5 C2 1_555 1_555
H9 C5 1_555 1_555
H10 C5 1_555 1_555
C6 C3 1_555 1_555
H11 C6 1_555 1_555
N1 C1 1_555 1_555
N2 C4 1_555 1_555
O1 N1 1_555 1_555
O2 N2 1_555 1_555
H12 C6 1_555 1_555
C7 C8 1_555 1_555
C8 H13 1_555 1_555
C9 C8 1_555 1_555
H14 C9 1_555 1_555
C10 C9 1_555 1_555
O3 C7 1_555 1_555
O4 C7 1_555 1_555
D1 O4 1_555 1_555
O5 C8 1_555 1_555
D2 O5 1_555 1_555
O6 C9 1_555 1_555
D3 O6 1_555 1_555
O7 C10 1_555 1_555
D4 O7 1_555 1_555
O8 C10 1_555 1_555
C2 N1 1_555 1_555
C3 N1 1_555 1_555
C5 N2 1_555 1_555
C6 N2 1_555 1_555

#END
