
#######################################################################
#
#                 Cambridge Crystallographic Data Centre
#                                CCDC 
#
#######################################################################
#
# If this CIF has been generated from an entry in the Cambridge 
# Structural Database, then it will include bibliographic, chemical, 
# crystal, experimental, refinement or atomic coordinate data resulting 
# from the CCDC's data processing and validation procedures.
#
#######################################################################

data_FINTAZ01
_chemical_formula_moiety         'C6 H12 N2 O2,C4 H2 D4 O6'
_chemical_name_systematic        
"1,4-Diazabicyclo(2.2.2)octane-N,N'-dioxide tetradeutero-L-tartaric acid"
_symmetry_cell_setting           tetragonal
_symmetry_space_group_name_H-M   'P 41 21 2'
_symmetry_Int_Tables_number      92
_space_group_name_Hall           'P 4abw 2nw'
loop_
_symmetry_equiv_pos_site_id
_symmetry_equiv_pos_as_xyz
1 x,y,z
2 -x,-y,1/2+z
3 1/2-y,1/2+x,1/4+z
4 1/2+y,1/2-x,3/4+z
5 1/2-x,1/2+y,1/4-z
6 1/2+x,1/2-y,3/4-z
7 y,x,-z
8 -y,-x,1/2-z
_cell_length_a                   7.7858(11)
_cell_length_b                   7.7858(11)
_cell_length_c                   21.316(4)
_cell_angle_alpha                90
_cell_angle_beta                 90
_cell_angle_gamma                90
_cell_volume                     1292.15
_exptl_crystal_colour            colorless
_exptl_crystal_description       prism
_cell_formula_units_Z            4
loop_
_atom_site_label
_atom_site_type_symbol
_atom_site_fract_x
_atom_site_fract_y
_atom_site_fract_z
C1 C -0.6239(10) 0.8758(11) 0.2804(2)
H1 H -0.6143(10) 0.9935(11) 0.2933(2)
H2 H -0.5126(10) 0.8553(11) 0.2789(2)
C2 C -0.8646(9) 0.9271(12) 0.2159(5)
H3 H -0.9137(9) 0.9245(12) 0.1746(5)
H4 H -0.8637(9) 1.0448(12) 0.2294(5)
C3 C -0.6868(13) 0.6769(8) 0.1989(4)
H5 H -0.5699(13) 0.6396(8) 0.2035(4)
H6 H -0.7143(13) 0.6647(8) 0.1522(4)
N1 N -0.6912(2) 0.8697(2) 0.21228(7)
O1 O -0.5960(2) 0.9710(2) 0.17110(7)
C1G C -0.8758(11) 0.6239(10) 0.2196(2)
H1G H -0.9935(11) 0.6143(10) 0.2067(2)
H2G H -0.8553(11) 0.5126(10) 0.2211(2)
C2G C -0.9271(12) 0.8646(9) 0.2841(5)
H3G H -0.9245(12) 0.9137(9) 0.3254(5)
H4G H -1.0448(12) 0.8637(9) 0.2706(5)
C3G C -0.6769(8) 0.6868(13) 0.3011(4)
H5G H -0.6396(8) 0.5699(13) 0.2965(4)
H6G H -0.6647(8) 0.7143(13) 0.3478(4)
N1G N -0.8697(2) 0.6912(2) 0.28772(7)
O1G O -0.9710(2) 0.5960(2) 0.32890(7)
C7 C -0.2547(3) 0.8342(3) 0.08762(8)
C8 C -0.1707(2) 0.7544(2) 0.03013(8)
H13 H -0.1939(2) 0.6306(2) 0.03050(8)
O2 O -0.1786(2) 0.8980(3) 0.13068(8)
O3 O -0.4238(2) 0.8194(2) 0.08544(7)
O4 O 0.00904(19) 0.7784(2) 0.03100(7)
D1 D 0.050(4) 0.680(4) 0.0464(13)
D2 D -0.473(6) 0.877(4) 0.119(2)
C7F C -0.1658(3) 0.7453(3) -0.08762(8)
C8F C -0.2456(2) 0.8293(2) -0.03013(8)
H13F H -0.3694(2) 0.8061(2) -0.03050(8)
O2F O -0.1020(3) 0.8214(2) -0.13068(8)
O3F O -0.1806(2) 0.5762(2) -0.08544(7)
O4F O -0.2216(2) 1.00904(19) -0.03100(7)
D1F D -0.320(4) 1.050(4) -0.0464(13)
D2F D -0.123(4) 0.527(6) -0.119(2)
C4? C -0.5727(8) 0.7894(11) 0.2526(3)
H7? H -0.4958(8) 0.8613(11) 0.2690(3)
H8? H -0.5029(8) 0.6998(11) 0.2257(3)
C5? C -0.8144(14) 0.9837(9) 0.2429(5)
H9? H -0.8866(14) 1.0291(9) 0.2104(5)
H10? H -0.7631(14) 1.0772(9) 0.2655(5)
C6? C -0.7858(9) 0.7429(10) 0.1740(2)
H11? H -0.7128(9) 0.6869(10) 0.1462(2)
H12? H -0.8754(9) 0.8042(10) 0.1484(2)
loop_
_geom_bond_atom_site_label_1
_geom_bond_atom_site_label_2
_geom_bond_site_symmetry_1
_geom_bond_site_symmetry_2
C1 H1 1_555 1_555
H2 C1 1_555 1_555
C2 H3 1_555 1_555
H4 C2 1_555 1_555
C3 H5 1_555 1_555
H6 C3 1_555 1_555
N1 C1 1_555 1_555
O1 N1 1_555 1_555
C7 C8 1_555 1_555
C8 H13 1_555 1_555
O2 C7 1_555 1_555
O3 C7 1_555 1_555
O4 C8 1_555 1_555
D1 O4 1_555 1_555
D2 O3 1_555 1_555
C1G C3 1_555 1_555
H1G C1G 1_555 1_555
H2G C1G 1_555 1_555
C2G C2 1_555 1_555
H3G C2G 1_555 1_555
H4G C2G 1_555 1_555
C3G C1 1_555 1_555
H5G C3G 1_555 1_555
H6G C3G 1_555 1_555
N1G C1G 1_555 1_555
O1G N1G 1_555 1_555
C7F C8F 1_555 1_555
C8F C8 1_555 1_555
H13F C8F 1_555 1_555
O2F C7F 1_555 1_555
O3F C7F 1_555 1_555
O4F C8F 1_555 1_555
D1F O4F 1_555 1_555
D2F O3F 1_555 1_555
C2 N1 1_555 1_555
C3 N1 1_555 1_555
C2G N1G 1_555 1_555
C3G N1G 1_555 1_555

#END
