
#######################################################################
#
#                 Cambridge Crystallographic Data Centre
#                                CCDC 
#
#######################################################################
#
# If this CIF has been generated from an entry in the Cambridge 
# Structural Database, then it will include bibliographic, chemical, 
# crystal, experimental, refinement or atomic coordinate data resulting 
# from the CCDC's data processing and validation procedures.
#
#######################################################################

data_FINTAZ04
_chemical_formula_moiety         'C6 H12 N2 O2,C4 H6 O6'
_chemical_name_systematic        
"1,4-Diazabicyclo(2.2.2)octane-N,N'-dioxide L-tartaric acid"
_symmetry_cell_setting           tetragonal
_symmetry_space_group_name_H-M   'P 41 21 2'
_symmetry_Int_Tables_number      92
_space_group_name_Hall           'P 4abw 2nw'
loop_
_symmetry_equiv_pos_site_id
_symmetry_equiv_pos_as_xyz
1 x,y,z
2 -x,-y,1/2+z
3 1/2-y,1/2+x,1/4+z
4 1/2+y,1/2-x,3/4+z
5 1/2-x,1/2+y,1/4-z
6 1/2+x,1/2-y,3/4-z
7 y,x,-z
8 -y,-x,1/2-z
_cell_length_a                   7.7810(11)
_cell_length_b                   7.7810(11)
_cell_length_c                   21.320(4)
_cell_angle_alpha                90
_cell_angle_beta                 90
_cell_angle_gamma                90
_cell_volume                     1290.8
_exptl_crystal_colour            colorless
_exptl_crystal_description       block
_cell_formula_units_Z            4
loop_
_atom_site_label
_atom_site_type_symbol
_atom_site_fract_x
_atom_site_fract_y
_atom_site_fract_z
C1 C -0.6221(9) 0.8740(11) 0.2804(2)
H1 H -0.6125 0.9918 0.2933
H2 H -0.5107 0.8536 0.2788
C2 C -0.8644(9) 0.9292(12) 0.2167(5)
H3 H -0.9135 0.9266 0.1754
H4 H -0.8635 1.0469 0.2302
C3 C -0.6871(12) 0.6763(8) 0.1985(3)
H5 H -0.5702 0.6389 0.2032
H6 H -0.7147 0.6640 0.1519
N1 N -0.6908(2) 0.8691(2) 0.21223(7)
O1 O -0.59571(19) 0.9705(2) 0.17096(6)
C1G C -0.8740(11) 0.6221(9) 0.2196(2)
H1G H -0.9918 0.6125 0.2067
H2G H -0.8536 0.5107 0.2212
C2G C -0.9292(12) 0.8644(9) 0.2833(5)
H3G H -0.9266 0.9135 0.3246
H4G H -1.0469 0.8635 0.2698
C3G C -0.6763(8) 0.6871(12) 0.3015(3)
H5G H -0.6389 0.5702 0.2968
H6G H -0.6640 0.7147 0.3481
N1G N -0.8691(2) 0.6908(2) 0.28777(7)
O1G O -0.9705(2) 0.59571(19) 0.32904(6)
C7 C -0.2545(2) 0.8335(3) 0.08769(8)
C8 C -0.1705(2) 0.7541(2) 0.03009(8)
H13 H -0.1937 0.6303 0.0305
O2 O -0.1778(2) 0.8965(3) 0.13094(8)
O3 O -0.42362(19) 0.8193(2) 0.08561(6)
O4 O 0.00948(18) 0.7783(2) 0.03089(7)
H14 H 0.050(4) 0.680(4) 0.0471(13)
H15 H -0.476(6) 0.879(4) 0.1186(19)
C7F C -0.1665(3) 0.7455(2) -0.08769(8)
C8F C -0.2459(2) 0.8295(2) -0.03009(8)
H13F H -0.3697 0.8063 -0.0305
O2F O -0.1035(3) 0.8222(2) -0.13094(8)
O3F O -0.1807(2) 0.57638(19) -0.08561(6)
O4F O -0.2217(2) 1.00948(18) -0.03089(7)
H14F H -0.320(4) 1.050(4) -0.0471(13)
H15F H -0.121(4) 0.524(6) -0.1186(19)
C4? C -0.5726(8) 0.7915(11) 0.2530(3)
H7? H -0.4958 0.8635 0.2694
H8? H -0.5028 0.7020 0.2261
C5? C -0.8165(14) 0.9824(9) 0.2420(5)
H9? H -0.8887 1.0278 0.2095
H10? H -0.7651 1.0759 0.2646
C6? C -0.7841(9) 0.7410(9) 0.1740(2)
H11? H -0.7111 0.6849 0.1462
H12? H -0.8737 0.8022 0.1485
loop_
_geom_bond_atom_site_label_1
_geom_bond_atom_site_label_2
_geom_bond_site_symmetry_1
_geom_bond_site_symmetry_2
C1 H1 1_555 1_555
H2 C1 1_555 1_555
C2 H3 1_555 1_555
H4 C2 1_555 1_555
C3 H5 1_555 1_555
H6 C3 1_555 1_555
N1 C1 1_555 1_555
O1 N1 1_555 1_555
C7 C8 1_555 1_555
C8 H13 1_555 1_555
O2 C7 1_555 1_555
O3 C7 1_555 1_555
O4 C8 1_555 1_555
H14 O4 1_555 1_555
H15 O3 1_555 1_555
C1G C3 1_555 1_555
H1G C1G 1_555 1_555
H2G C1G 1_555 1_555
C2G C2 1_555 1_555
H3G C2G 1_555 1_555
H4G C2G 1_555 1_555
C3G C1 1_555 1_555
H5G C3G 1_555 1_555
H6G C3G 1_555 1_555
N1G C1G 1_555 1_555
O1G N1G 1_555 1_555
C7F C8F 1_555 1_555
C8F C8 1_555 1_555
H13F C8F 1_555 1_555
O2F C7F 1_555 1_555
O3F C7F 1_555 1_555
O4F C8F 1_555 1_555
H14F O4F 1_555 1_555
H15F O3F 1_555 1_555
C2 N1 1_555 1_555
C3 N1 1_555 1_555
C2G N1G 1_555 1_555
C3G N1G 1_555 1_555

#END
