
#######################################################################
#
#                 Cambridge Crystallographic Data Centre
#                                CCDC 
#
#######################################################################
#
# If this CIF has been generated from an entry in the Cambridge 
# Structural Database, then it will include bibliographic, chemical, 
# crystal, experimental, refinement or atomic coordinate data resulting 
# from the CCDC's data processing and validation procedures.
#
#######################################################################

data_FINTAZ03
_chemical_formula_moiety         'C6 H12 N2 O2,C4 H6 O6'
_chemical_name_systematic        
"1,4-Diazabicyclo(2.2.2)octane-N,N'-dioxide L-tartaric acid"
_symmetry_cell_setting           tetragonal
_symmetry_space_group_name_H-M   'P 41'
_symmetry_Int_Tables_number      76
_space_group_name_Hall           'P 4w'
loop_
_symmetry_equiv_pos_site_id
_symmetry_equiv_pos_as_xyz
1 x,y,z
2 -x,-y,1/2+z
3 -y,x,1/4+z
4 y,-x,3/4+z
_cell_length_a                   7.7364(11)
_cell_length_b                   7.7364(11)
_cell_length_c                   21.205(4)
_cell_angle_alpha                90
_cell_angle_beta                 90
_cell_angle_gamma                90
_cell_volume                     1269.16
_exptl_crystal_colour            colorless
_exptl_crystal_description       Block
_cell_formula_units_Z            4
loop_
_atom_site_label
_atom_site_type_symbol
_atom_site_fract_x
_atom_site_fract_y
_atom_site_fract_z
C1 C 0.8696(3) 0.4139(4) 1.04655(14)
H1 H 0.9009 0.4050 1.0907
H2 H 0.8805 0.5339 1.0339
C2 C 0.6335(3) 0.3867(3) 0.97084(11)
H3 H 0.6264 0.5099 0.9627
H4 H 0.5202 0.3366 0.9638
C3 C 0.6747(3) 0.1642(3) 1.05022(12)
H5 H 0.5545 0.1286 1.0487
H6 H 0.7194 0.1383 1.0919
C4 C 0.9910(3) 0.3017(4) 1.00672(14)
H7 H 1.0689 0.3746 0.9827
H8 H 1.0597 0.2282 1.0340
C5 C 0.7656(3) 0.3035(3) 0.92616(10)
H9 H 0.7060 0.2344 0.8948
H10 H 0.8302 0.3930 0.9045
C6 C 0.7789(3) 0.0654(3) 0.99996(11)
H11 H 0.7064 0.0131 0.9674
N1 N 0.6881(2) 0.3555(2) 1.03755(8)
N2 N 0.8856(2) 0.1922(2) 0.96283(7)
O1 O 0.5826(2) 0.4481(2) 1.07891(7)
O2 O 0.99680(19) 0.10657(19) 0.92183(7)
H12 H 0.8594 -0.0090 1.0156
C7 C 0.8389(3) 0.7619(3) 0.84428(10)
C8 C 0.7548(3) 0.6761(3) 0.78725(9)
H13 H 0.6320 0.7073 0.7869
C9 C 0.8360(3) 0.7402(3) 0.72581(10)
H14 H 0.8230 0.8661 0.7237
C10 C 0.7445(3) 0.6604(3) 0.66918(9)
O3 O 0.8880(3) 0.6862(2) 0.89056(8)
O4 O 0.8466(2) 0.9325(2) 0.83722(7)
H15 H 0.889(7) 0.974(8) 0.864(3)
O5 O 0.76761(19) 0.4936(2) 0.79072(7)
H16 H 0.670(5) 0.459(4) 0.7983(16)
O6 O 1.0153(2) 0.6997(2) 0.72549(7)
H17 H 1.061(4) 0.783(5) 0.7050(16)
O7 O 0.5786(2) 0.7006(2) 0.66835(7)
H18 H 0.532(6) 0.643(7) 0.636(2)
O8 O 0.8156(2) 0.5735(3) 0.62909(8)
loop_
_geom_bond_atom_site_label_1
_geom_bond_atom_site_label_2
_geom_bond_site_symmetry_1
_geom_bond_site_symmetry_2
C1 H1 1_555 1_555
H2 C1 1_555 1_555
C2 H3 1_555 1_555
H4 C2 1_555 1_555
C3 H5 1_555 1_555
H6 C3 1_555 1_555
C4 C1 1_555 1_555
H7 C4 1_555 1_555
H8 C4 1_555 1_555
C5 C2 1_555 1_555
H9 C5 1_555 1_555
H10 C5 1_555 1_555
C6 C3 1_555 1_555
H11 C6 1_555 1_555
N1 C1 1_555 1_555
N2 C4 1_555 1_555
O1 N1 1_555 1_555
O2 N2 1_555 1_555
H12 C6 1_555 1_555
C7 C8 1_555 1_555
C8 H13 1_555 1_555
C9 C8 1_555 1_555
H14 C9 1_555 1_555
C10 C9 1_555 1_555
O3 C7 1_555 1_555
O4 C7 1_555 1_555
H15 O4 1_555 1_555
O5 C8 1_555 1_555
H16 O5 1_555 1_555
O6 C9 1_555 1_555
H17 O6 1_555 1_555
O7 C10 1_555 1_555
H18 O7 1_555 1_555
O8 C10 1_555 1_555
C2 N1 1_555 1_555
C3 N1 1_555 1_555
C5 N2 1_555 1_555
C6 N2 1_555 1_555

#END
