
#######################################################################
#
#                 Cambridge Crystallographic Data Centre
#                                CCDC 
#
#######################################################################
#
# If this CIF has been generated from an entry in the Cambridge 
# Structural Database, then it will include bibliographic, chemical, 
# crystal, experimental, refinement or atomic coordinate data resulting 
# from the CCDC's data processing and validation procedures.
#
#######################################################################

data_FIPCUE
_chemical_formula_moiety         'C40 H33 N1 O4 S1'
_chemical_name_systematic        
4-Methyl-N-(3-(1-oxo-3-phenyl-1,4a,9,9a-tetrahydroindeno[2,1-c]pyran-9-yl)-1,3-diphenylprop-1-en-1-yl)benzenesulfonamide
_symmetry_cell_setting           triclinic
_symmetry_space_group_name_H-M   'P -1'
_symmetry_Int_Tables_number      2
_space_group_name_Hall           '-P 1'
loop_
_symmetry_equiv_pos_site_id
_symmetry_equiv_pos_as_xyz
1 x,y,z
2 -x,-y,-z
_cell_length_a                   9.9933(6)
_cell_length_b                   11.4155(10)
_cell_length_c                   15.1910(14)
_cell_angle_alpha                76.246(7)
_cell_angle_beta                 83.320(8)
_cell_angle_gamma                69.724(6)
_cell_volume                     1577.87
_exptl_crystal_colour            colorless
_exptl_crystal_description       prism
_cell_formula_units_Z            2
loop_
_atom_site_label
_atom_site_type_symbol
_atom_site_fract_x
_atom_site_fract_y
_atom_site_fract_z
S1 S 0.14680(3) 0.40648(3) 0.39159(2)
O1 O -0.02996(9) 0.84597(10) 0.04241(6)
O2 O 0.19797(9) 0.81767(9) 0.04281(6)
O3 O 0.18568(10) 0.32545(9) 0.32804(6)
O4 O 0.13929(9) 0.35305(8) 0.48723(6)
N1 N -0.01358(11) 0.50734(10) 0.36935(7)
C1 C 0.06247(13) 0.86247(12) 0.07735(8)
C2 C 0.03830(13) 0.92461(11) 0.15689(8)
H1 H -0.0609 0.9872 0.1548
C3 C 0.14281(13) 0.99658(12) 0.16010(8)
H2 H 0.1045 1.0877 0.1272
C4 C 0.28753(13) 0.93121(12) 0.12181(8)
H3 H 0.3667 0.9504 0.1361
C5 C 0.31085(13) 0.84818(12) 0.06918(8)
C6 C 0.44732(13) 0.78115(12) 0.02659(8)
C7 C 0.45831(14) 0.68477(12) -0.01828(8)
H4 H 0.3784 0.6577 -0.0181
C8 C 0.58494(15) 0.62790(13) -0.06320(9)
H5 H 0.5908 0.5625 -0.0936
C9 C 0.70206(15) 0.66556(14) -0.06403(10)
H6 H 0.7875 0.6281 -0.0964
C10 C 0.69460(14) 0.75844(13) -0.01738(9)
H7 H 0.7761 0.7827 -0.0161
C11 C 0.56899(14) 0.81583(13) 0.02720(9)
H8 H 0.5648 0.8797 0.0587
C12 C 0.05283(12) 0.82600(11) 0.24958(8)
H9 H 0.1353 0.7478 0.2429
C13 C 0.09688(12) 0.89251(11) 0.31101(8)
C14 C 0.14736(13) 0.98786(12) 0.26065(8)
C15 C 0.19935(14) 1.05844(13) 0.30193(9)
H10 H 0.2323 1.1245 0.2668
C16 C 0.20211(15) 1.03047(14) 0.39555(9)
H11 H 0.2389 1.0769 0.4250
C17 C 0.15170(14) 0.93536(13) 0.44693(9)
H12 H 0.1542 0.9174 0.5112
C18 C 0.09748(13) 0.86602(12) 0.40499(8)
H13 H 0.0616 0.8018 0.4401
C19 C -0.07862(12) 0.78298(11) 0.28667(8)
H14 H -0.0596 0.7398 0.3516
C20 C -0.09465(12) 0.68411(11) 0.24217(8)
H15 H -0.1308 0.7131 0.1829
C21 C -0.06265(12) 0.55931(11) 0.27847(8)
C22 C -0.21664(12) 0.89538(11) 0.28816(8)
C23 C -0.26390(13) 0.93812(12) 0.36852(8)
H16 H -0.2112 0.8954 0.4217
C24 C -0.38735(14) 1.04263(13) 0.37207(9)
H17 H -0.4174 1.0713 0.4272
C25 C -0.46607(14) 1.10467(13) 0.29538(9)
H18 H -0.5499 1.1763 0.2975
C26 C -0.42197(13) 1.06171(12) 0.21546(9)
H19 H -0.4765 1.1033 0.1629
C27 C -0.29835(13) 0.95813(12) 0.21174(8)
H20 H -0.2691 0.9297 0.1565
C28 C -0.09308(13) 0.46688(11) 0.23564(8)
C29 C -0.13393(15) 0.36627(13) 0.28916(10)
H21 H -0.1389 0.3552 0.3533
C30 C -0.16737(16) 0.28219(14) 0.25004(10)
H22 H -0.1961 0.2148 0.2872
C31 C -0.15876(15) 0.29679(14) 0.15680(11)
H23 H -0.1809 0.2390 0.1298
C32 C -0.11797(16) 0.39517(14) 0.10298(10)
H24 H -0.1116 0.4047 0.0389
C33 C -0.08606(14) 0.48054(12) 0.14194(9)
H25 H -0.0593 0.5487 0.1042
C34 C 0.26749(13) 0.49167(12) 0.37482(9)
C35 C 0.28605(15) 0.54547(14) 0.44281(11)
H26 H 0.2362 0.5348 0.4997
C36 C 0.37897(16) 0.61562(15) 0.42658(14)
H27 H 0.3924 0.6528 0.4731
C37 C 0.45240(16) 0.63239(16) 0.34399(16)
C38 C 0.43507(18) 0.57440(18) 0.27827(14)
H28 H 0.4874 0.5829 0.2221
C39 C 0.34320(16) 0.50409(16) 0.29214(11)
H29 H 0.3320 0.4650 0.2461
C40 C 0.5477(2) 0.71402(19) 0.32733(18)
H30 H 0.6047 0.7033 0.2710
H31 H 0.6114 0.6877 0.3780
H32 H 0.4888 0.8039 0.3222
H33 H -0.0495(15) 0.5541(14) 0.4119(9)
loop_
_geom_bond_atom_site_label_1
_geom_bond_atom_site_label_2
_geom_bond_site_symmetry_1
_geom_bond_site_symmetry_2
S1 O3 1_555 1_555
O1 C1 1_555 1_555
O2 C1 1_555 1_555
O4 S1 1_555 1_555
N1 S1 1_555 1_555
C1 C2 1_555 1_555
C2 H1 1_555 1_555
C3 C2 1_555 1_555
H2 C3 1_555 1_555
C4 C3 1_555 1_555
H3 C4 1_555 1_555
C5 O2 1_555 1_555
C6 C5 1_555 1_555
C7 C6 1_555 1_555
H4 C7 1_555 1_555
C8 C7 1_555 1_555
H5 C8 1_555 1_555
C9 C8 1_555 1_555
H6 C9 1_555 1_555
C10 C9 1_555 1_555
H7 C10 1_555 1_555
C11 C6 1_555 1_555
H8 C11 1_555 1_555
C12 C2 1_555 1_555
H9 C12 1_555 1_555
C13 C12 1_555 1_555
C14 C3 1_555 1_555
C15 C14 1_555 1_555
H10 C15 1_555 1_555
C16 C15 1_555 1_555
H11 C16 1_555 1_555
C17 C16 1_555 1_555
H12 C17 1_555 1_555
C18 C13 1_555 1_555
H13 C18 1_555 1_555
C19 C12 1_555 1_555
H14 C19 1_555 1_555
C20 C19 1_555 1_555
H15 C20 1_555 1_555
C21 N1 1_555 1_555
C22 C19 1_555 1_555
C23 C22 1_555 1_555
H16 C23 1_555 1_555
C24 C23 1_555 1_555
H17 C24 1_555 1_555
C25 C24 1_555 1_555
H18 C25 1_555 1_555
C26 C25 1_555 1_555
H19 C26 1_555 1_555
C27 C22 1_555 1_555
H20 C27 1_555 1_555
C28 C21 1_555 1_555
C29 C28 1_555 1_555
H21 C29 1_555 1_555
C30 C29 1_555 1_555
H22 C30 1_555 1_555
C31 C30 1_555 1_555
H23 C31 1_555 1_555
C32 C31 1_555 1_555
H24 C32 1_555 1_555
C33 C28 1_555 1_555
H25 C33 1_555 1_555
C34 S1 1_555 1_555
C35 C34 1_555 1_555
H26 C35 1_555 1_555
C36 C35 1_555 1_555
H27 C36 1_555 1_555
C37 C36 1_555 1_555
C38 C37 1_555 1_555
H28 C38 1_555 1_555
C39 C34 1_555 1_555
H29 C39 1_555 1_555
C40 C37 1_555 1_555
H30 C40 1_555 1_555
H31 C40 1_555 1_555
H32 C40 1_555 1_555
H33 N1 1_555 1_555
C4 C5 1_555 1_555
C10 C11 1_555 1_555
C13 C14 1_555 1_555
C17 C18 1_555 1_555
C20 C21 1_555 1_555
C26 C27 1_555 1_555
C32 C33 1_555 1_555
C38 C39 1_555 1_555

#END
