
#######################################################################
#
#                 Cambridge Crystallographic Data Centre
#                                CCDC 
#
#######################################################################
#
# If this CIF has been generated from an entry in the Cambridge 
# Structural Database, then it will include bibliographic, chemical, 
# crystal, experimental, refinement or atomic coordinate data resulting 
# from the CCDC's data processing and validation procedures.
#
#######################################################################

data_FIPDAJ
_chemical_name_common            
anti-3,4:8,9-bis(1,4-Butanediyl)-1,6-diboracyclodecane
_chemical_formula_moiety         'C16 H30 B2'
_chemical_name_systematic        
anti-3,12-Diboratetracyclo(12.4.0.0^3,12^.0^5,10^)octadecane
_symmetry_cell_setting           monoclinic
_symmetry_space_group_name_H-M   'P 21/n'
_symmetry_Int_Tables_number      14
_space_group_name_Hall           '-P 2yn'
loop_
_symmetry_equiv_pos_site_id
_symmetry_equiv_pos_as_xyz
1 x,y,z
2 1/2-x,1/2+y,1/2-z
3 -x,-y,-z
4 1/2+x,1/2-y,1/2+z
_cell_length_a                   5.409(1)
_cell_length_b                   11.525(3)
_cell_length_c                   24.278(5)
_cell_angle_alpha                90
_cell_angle_beta                 90.44(2)
_cell_angle_gamma                90
_cell_volume                     1513.41
_exptl_crystal_colour            colorless
_chemical_melting_point          121-122deg.C
_cell_formula_units_Z            4
loop_
_atom_site_label
_atom_site_type_symbol
_atom_site_fract_x
_atom_site_fract_y
_atom_site_fract_z
C1 C 0.2486(3) 0.5763(1) 0.2128(1)
C2 C 0.2841(3) 0.6278(1) 0.1549(1)
C3 C 0.4963(3) 0.5719(1) 0.1234(1)
C4 C 0.5032(4) 0.6133(2) 0.0636(1)
C5 C 0.5103(2) 0.7448(2) 0.0596(1)
C6 C 0.3074(3) 0.8014(2) 0.0931(1)
C7 C 0.3091(3) 0.7609(1) 0.1534(1)
C8 C 0.5345(3) 0.8102(1) 0.1849(1)
C9 C 0.7564(3) 0.8079(1) 0.2908(1)
C10 C 0.7165(3) 0.7579(1) 0.3490(1)
C11 C 0.5014(3) 0.8156(1) 0.3789(1)
C12 C 0.4904(4) 0.7763(2) 0.4388(1)
C13 C 0.4814(4) 0.6451(2) 0.4441(1)
C14 C 0.6863(4) 0.5868(2) 0.4120(1)
C15 C 0.6912(3) 0.6252(1) 0.3515(1)
C16 C 0.4685(3) 0.5747(1) 0.3189(1)
B1 B 0.4228(3) 0.6256(2) 0.2597(1)
B2 B 0.5818(3) 0.7585(2) 0.2440(1)
H1 H 0.3752(25) 0.7309(12) 0.2635(5)
H2 H 0.6219(24) 0.6537(11) 0.2401(5)
H3 H 0.0813 0.5906 0.2238
H4 H 0.2749 0.4943 0.2094
H5 H 0.1404 0.6115 0.1327
H6 H 0.6511 0.5912 0.1408
H7 H 0.4744 0.4892 0.1238
H8 H 0.3567 0.5850 0.0455
H9 H 0.6466 0.5819 0.0460
H10 H 0.6688 0.7704 0.0730
H11 H 0.4903 0.7674 0.0218
H12 H 0.3249 0.8842 0.0910
H13 H 0.1516 0.7790 0.0771
H14 H 0.1652 0.7931 0.1705
H15 H 0.6819 0.7951 0.1643
H16 H 0.5109 0.8925 0.1882
H17 H 0.7337 0.8904 0.2925
H18 H 0.9241 0.7909 0.2809
H19 H 0.8596 0.7765 0.3710
H20 H 0.3499 0.7933 0.3609
H21 H 0.5185 0.8984 0.3776
H22 H 0.3430 0.8098 0.4539
H23 H 0.6323 0.8058 0.4583
H24 H 0.4998 0.6261 0.4824
H25 H 0.3231 0.6187 0.4310
H26 H 0.8446 0.6070 0.4273
H27 H 0.6645 0.5042 0.4137
H28 H 0.8345 0.5917 0.3346
H29 H 0.5027 0.4933 0.3154
H30 H 0.3187 0.5853 0.3393
loop_
_geom_bond_atom_site_label_1
_geom_bond_atom_site_label_2
_geom_bond_site_symmetry_1
_geom_bond_site_symmetry_2
C1 C2 1_555 1_555
C2 C3 1_555 1_555
C3 C4 1_555 1_555
C4 C5 1_555 1_555
C5 C6 1_555 1_555
C6 C7 1_555 1_555
C7 C2 1_555 1_555
C8 C7 1_555 1_555
C9 C10 1_555 1_555
C10 C11 1_555 1_555
C11 C12 1_555 1_555
C12 C13 1_555 1_555
C13 C14 1_555 1_555
C14 C15 1_555 1_555
C15 C10 1_555 1_555
C16 C15 1_555 1_555
B1 C1 1_555 1_555
B2 C8 1_555 1_555
H1 B1 1_555 1_555
H2 B1 1_555 1_555
H3 C1 1_555 1_555
H4 C1 1_555 1_555
H5 C2 1_555 1_555
H6 C3 1_555 1_555
H7 C3 1_555 1_555
H8 C4 1_555 1_555
H9 C4 1_555 1_555
H10 C5 1_555 1_555
H11 C5 1_555 1_555
H12 C6 1_555 1_555
H13 C6 1_555 1_555
H14 C7 1_555 1_555
H15 C8 1_555 1_555
H16 C8 1_555 1_555
H17 C9 1_555 1_555
H18 C9 1_555 1_555
H19 C10 1_555 1_555
H20 C11 1_555 1_555
H21 C11 1_555 1_555
H22 C12 1_555 1_555
H23 C12 1_555 1_555
H24 C13 1_555 1_555
H25 C13 1_555 1_555
H26 C14 1_555 1_555
H27 C14 1_555 1_555
H28 C15 1_555 1_555
H29 C16 1_555 1_555
H30 C16 1_555 1_555
C9 B2 1_555 1_555
C16 B1 1_555 1_555
B1 B2 1_555 1_555
B2 H1 1_555 1_555
B2 H2 1_555 1_555

#END
