
#######################################################################
#
#                 Cambridge Crystallographic Data Centre
#                                CCDC 
#
#######################################################################
#
# If this CIF has been generated from an entry in the Cambridge 
# Structural Database, then it will include bibliographic, chemical, 
# crystal, experimental, refinement or atomic coordinate data resulting 
# from the CCDC's data processing and validation procedures.
#
#######################################################################

data_FIPLIC
_chemical_formula_moiety         'C3 H8 N6 O1 2+,2(Cl1 O4 1-),3(H2 O1)'
_chemical_name_systematic        
'2-(5-iminio-4,5-dihydro-1H-1,2,4-triazole-3-carbonyl)hydrazinium bis(perchlorate) trihydrate'
_symmetry_cell_setting           monoclinic
_symmetry_space_group_name_H-M   'P 21/n'
_symmetry_Int_Tables_number      14
_space_group_name_Hall           '-P 2yn'
loop_
_symmetry_equiv_pos_site_id
_symmetry_equiv_pos_as_xyz
1 x,y,z
2 1/2-x,1/2+y,1/2-z
3 -x,-y,-z
4 1/2+x,1/2-y,1/2+z
_cell_length_a                   14.953(4)
_cell_length_b                   4.8569(12)
_cell_length_c                   19.280(5)
_cell_angle_alpha                90
_cell_angle_beta                 93.743(6)
_cell_angle_gamma                90
_cell_volume                     1397.23
_exptl_crystal_colour            colorless
_exptl_crystal_description       block
_cell_formula_units_Z            4
loop_
_atom_site_label
_atom_site_type_symbol
_atom_site_fract_x
_atom_site_fract_y
_atom_site_fract_z
Cl1 Cl 0.04750(6) 0.52590(18) 0.36499(4)
O1 O 0.04364(17) 0.7954(5) 0.33340(12)
O2 O 0.12221(17) 0.3737(5) 0.33808(12)
O3 O 0.06480(19) 0.5561(5) 0.43916(12)
O4 O -0.03433(18) 0.3817(6) 0.34988(14)
Cl2 Cl 0.56559(6) 0.86210(19) 0.33985(4)
O5 O 0.48000(18) 0.9759(5) 0.31392(13)
O6 O 0.56114(19) 0.5667(6) 0.33239(15)
O7 O 0.63604(19) 0.9690(6) 0.30175(15)
O8 O 0.58095(19) 0.9331(6) 0.41254(13)
O9 O 0.27016(17) 0.8920(5) 0.30757(12)
N1 N 0.2060(2) 1.0051(6) 0.43904(14)
H1 H 0.185485 1.129780 0.408956
N2 N 0.3480(2) 0.5237(6) 0.35203(14)
H2 H 0.363376 0.417285 0.387781
N3 N 0.2357(2) 0.7723(6) 0.53243(14)
H3 H 0.236476 0.718704 0.576065
N4 N 0.3782(2) 0.4747(6) 0.28456(14)
H4 H 0.421938 0.344240 0.287279
H5 H 0.400346 0.633550 0.267484
H6 H 0.331478 0.414929 0.255825
N5 N 0.2842(2) 0.6473(6) 0.48279(14)
N6 N 0.1331(2) 1.1427(7) 0.54002(15)
H7 H 0.125744 1.112800 0.584312
H8 H 0.104075 1.278071 0.518135
C1 C 0.2948(2) 0.7423(7) 0.35723(17)
C2 C 0.2631(3) 0.7940(7) 0.42690(17)
C3 C 0.1874(3) 0.9845(7) 0.50644(17)
O10 O 0.23783(18) 0.5883(5) 0.66546(12)
H9 H 0.219050 0.421923 0.672753
H10 H 0.293682 0.587172 0.681232
O11 O 0.34612(18) 0.5859(5) 0.81049(14)
H11 H 0.401287 0.585270 0.798701
H12 H 0.328036 0.417022 0.804085
O12 O 0.4235(3) 0.2050(11) 0.4474(2)
H13 H 0.407505 0.184978 0.490372
H14 H 0.474194 0.110316 0.446865
O13? O 0.4654(4) 0.3700(11) 0.4600(3)
H15? H 0.438045 0.306775 0.496995
H16? H 0.504832 0.209446 0.455187
loop_
_geom_bond_atom_site_label_1
_geom_bond_atom_site_label_2
_geom_bond_site_symmetry_1
_geom_bond_site_symmetry_2
Cl1 O1 1_555 1_555
O2 Cl1 1_555 1_555
O3 Cl1 1_555 1_555
O4 Cl1 1_555 1_555
Cl2 O5 1_555 1_555
O6 Cl2 1_555 1_555
O7 Cl2 1_555 1_555
O8 Cl2 1_555 1_555
O9 C1 1_555 1_555
N1 H1 1_555 1_555
N2 H2 1_555 1_555
N3 H3 1_555 1_555
N4 N2 1_555 1_555
H4 N4 1_555 1_555
H5 N4 1_555 1_555
H6 N4 1_555 1_555
N5 N3 1_555 1_555
N6 H7 1_555 1_555
H8 N6 1_555 1_555
C1 N2 1_555 1_555
C2 N1 1_555 1_555
C3 N1 1_555 1_555
O10 H9 1_555 1_555
H10 O10 1_555 1_555
O11 H11 1_555 1_555
H12 O11 1_555 1_555
O12 H13 1_555 1_555
H14 O12 1_555 1_555
N3 C3 1_555 1_555
N5 C2 1_555 1_555
N6 C3 1_555 1_555
C1 C2 1_555 1_555

#END
