
#######################################################################
#
#                 Cambridge Crystallographic Data Centre
#                                CCDC 
#
#######################################################################
#
# If this CIF has been generated from an entry in the Cambridge 
# Structural Database, then it will include bibliographic, chemical, 
# crystal, experimental, refinement or atomic coordinate data resulting 
# from the CCDC's data processing and validation procedures.
#
#######################################################################

data_FIPLAU
_chemical_formula_moiety         'C3 H6 N6 O1'
_chemical_name_systematic        5-amino-1H-1,2,4-triazole-3-carbohydrazide
_symmetry_cell_setting           monoclinic
_symmetry_space_group_name_H-M   'P 21/n'
_symmetry_Int_Tables_number      14
_space_group_name_Hall           '-P 2yn'
loop_
_symmetry_equiv_pos_site_id
_symmetry_equiv_pos_as_xyz
1 x,y,z
2 1/2-x,1/2+y,1/2-z
3 -x,-y,-z
4 1/2+x,1/2-y,1/2+z
_cell_length_a                   5.2108(2)
_cell_length_b                   8.5731(3)
_cell_length_c                   13.2997(4)
_cell_angle_alpha                90
_cell_angle_beta                 98.5020(10)
_cell_angle_gamma                90
_cell_volume                     587.605
_exptl_crystal_colour            colorless
_exptl_crystal_description       prismatic
_cell_formula_units_Z            4
loop_
_atom_site_label
_atom_site_type_symbol
_atom_site_fract_x
_atom_site_fract_y
_atom_site_fract_z
N1 N 0.7066(2) 0.44278(12) 0.39113(8)
N2 N 0.3725(2) 0.40110(13) 0.27310(9)
N3 N 0.3397(2) 0.54973(12) 0.30512(8)
N4 N 0.7884(2) 0.72838(13) 0.50115(9)
N5 N 0.8431(2) 0.86918(14) 0.55559(10)
N6 N 0.6666(3) 0.19307(16) 0.30938(12)
O1 O 0.4369(2) 0.83028(12) 0.40711(8)
C1 C 0.5890(2) 0.33947(15) 0.32451(9)
C2 C 0.5441(2) 0.56775(14) 0.37529(9)
C3 C 0.5852(3) 0.71914(14) 0.42882(9)
H1 H 0.270(3) 0.360(2) 0.2218(14)
H2 H 0.899(3) 0.653(2) 0.5134(13)
H3 H 0.569(4) 0.135(2) 0.2679(16)
H4 H 0.817(4) 0.152(2) 0.3479(16)
H5 H 0.808(6) 0.949(4) 0.518(3)
H6 H 0.721(8) 0.883(5) 0.598(3)
loop_
_geom_bond_atom_site_label_1
_geom_bond_atom_site_label_2
_geom_bond_site_symmetry_1
_geom_bond_site_symmetry_2
N1 C1 1_555 1_555
N2 N3 1_555 1_555
N3 C2 1_555 1_555
N4 N5 1_555 1_555
N5 H5 1_555 1_555
N6 C1 1_555 1_555
O1 C3 1_555 1_555
C1 N2 1_555 1_555
C2 N1 1_555 1_555
C3 N4 1_555 1_555
H1 N2 1_555 1_555
H2 N4 1_555 1_555
H3 N6 1_555 1_555
H4 N6 1_555 1_555
H6 N5 1_555 1_555
C2 C3 1_555 1_555

#END
