
#######################################################################
#
#                 Cambridge Crystallographic Data Centre
#                                CCDC 
#
#######################################################################
#
# If this CIF has been generated from an entry in the Cambridge 
# Structural Database, then it will include bibliographic, chemical, 
# crystal, experimental, refinement or atomic coordinate data resulting 
# from the CCDC's data processing and validation procedures.
#
#######################################################################

data_FIPLUN
_chemical_formula_moiety         'C2 H8 N8 2+,2(Cl1 O4 1-)'
_chemical_name_systematic        
"2,2'-(1,2,4,5-Tetrazine-3,6-diyl)dihydrazinium diperchlorate"
_symmetry_cell_setting           orthorhombic
_symmetry_space_group_name_H-M   'P 21 21 2'
_symmetry_Int_Tables_number      18
_space_group_name_Hall           'P 2 2ab'
loop_
_symmetry_equiv_pos_site_id
_symmetry_equiv_pos_as_xyz
1 x,y,z
2 -x,-y,z
3 1/2-x,1/2+y,-z
4 1/2+x,1/2-y,-z
_cell_length_a                   9.804(4)
_cell_length_b                   10.747(4)
_cell_length_c                   5.325(2)
_cell_angle_alpha                90
_cell_angle_beta                 90
_cell_angle_gamma                90
_cell_volume                     561.061
_exptl_crystal_colour            yellow
_exptl_crystal_description       Platelet
_cell_formula_units_Z            2
loop_
_atom_site_label
_atom_site_type_symbol
_atom_site_fract_x
_atom_site_fract_y
_atom_site_fract_z
Cl1 Cl 0.16352(5) 0.39303(4) 0.48657(12)
O1 O 0.27388(15) 0.30537(13) 0.4869(5)
O2 O 0.21657(16) 0.51903(13) 0.4917(4)
O3 O 0.0784(2) 0.3747(2) 0.7016(4)
O4 O 0.0836(2) 0.3795(2) 0.2590(3)
N1 N 0.36775(16) 0.46050(15) 0.9931(5)
N2 N 0.46620(16) 0.37688(15) 0.9956(5)
N3 N 0.69434(17) 0.33160(17) 1.0099(6)
N4 N 0.83117(18) 0.36800(18) 0.9799(6)
C1 C 0.59532(19) 0.41927(18) 0.9982(6)
H1 H 0.677(3) 0.263(2) 1.029(8)
H2 H 0.884(3) 0.302(3) 1.003(8)
H3 H 0.850(3) 0.414(3) 1.093(5)
H4 H 0.841(5) 0.404(4) 0.830(8)
N1A N 0.63225(16) 0.53950(15) 0.9931(5)
N2A N 0.53380(16) 0.62312(15) 0.9956(5)
N3A N 0.30566(17) 0.66840(17) 1.0099(6)
N4A N 0.16883(18) 0.63200(18) 0.9799(6)
C1A C 0.40468(19) 0.58073(18) 0.9982(6)
H1A H 0.323(3) 0.737(2) 1.029(8)
H2A H 0.116(3) 0.698(3) 1.003(8)
H3A H 0.150(3) 0.586(3) 1.093(5)
H4A H 0.159(5) 0.596(4) 0.830(8)
loop_
_geom_bond_atom_site_label_1
_geom_bond_atom_site_label_2
_geom_bond_site_symmetry_1
_geom_bond_site_symmetry_2
Cl1 O1 1_555 1_555
O2 Cl1 1_555 1_555
O3 Cl1 1_555 1_555
O4 Cl1 1_555 1_555
N1 N2 1_555 1_555
N2 C1 1_555 1_555
N3 N4 1_555 1_555
N4 H2 1_555 1_555
C1 N3 1_555 1_555
H1 N3 1_555 1_555
H3 N4 1_555 1_555
H4 N4 1_555 1_555
N1A C1 1_555 1_555
N2A N1A 1_555 1_555
N3A N4A 1_555 1_555
N4A H2A 1_555 1_555
C1A N1 1_555 1_555
H1A N3A 1_555 1_555
H3A N4A 1_555 1_555
H4A N4A 1_555 1_555
N2A C1A 1_555 1_555
N3A C1A 1_555 1_555

#END
