
#######################################################################
#
#                 Cambridge Crystallographic Data Centre
#                                CCDC 
#
#######################################################################
#
# If this CIF has been generated from an entry in the Cambridge 
# Structural Database, then it will include bibliographic, chemical, 
# crystal, experimental, refinement or atomic coordinate data resulting 
# from the CCDC's data processing and validation procedures.
#
#######################################################################

data_FIPLOI
_chemical_formula_moiety         'C3 H8 N6 O1 2+,O4 S1 2-'
_chemical_name_systematic        
'2-(5-iminio-4,5-dihydro-1H-1,2,4-triazole-3-carbonyl)hydrazinium sulfate'
_symmetry_cell_setting           monoclinic
_symmetry_space_group_name_H-M   'P 21/c'
_symmetry_Int_Tables_number      14
_space_group_name_Hall           '-P 2ybc'
loop_
_symmetry_equiv_pos_site_id
_symmetry_equiv_pos_as_xyz
1 x,y,z
2 -x,1/2+y,1/2-z
3 -x,-y,-z
4 x,1/2-y,1/2+z
_cell_length_a                   5.6170(2)
_cell_length_b                   18.6083(6)
_cell_length_c                   8.1288(3)
_cell_angle_alpha                90
_cell_angle_beta                 91.1320(10)
_cell_angle_gamma                90
_cell_volume                     849.479
_exptl_crystal_colour            colorless
_exptl_crystal_description       prismatic
_cell_formula_units_Z            4
loop_
_atom_site_label
_atom_site_type_symbol
_atom_site_fract_x
_atom_site_fract_y
_atom_site_fract_z
S1 S 0.75071(9) 0.59760(3) 0.16315(7)
O1 O 0.7778(3) 0.55095(9) 0.30892(19)
O2 O 0.5132(3) 0.58730(8) 0.0856(2)
O3 O 0.7745(3) 0.67419(8) 0.2134(2)
O4 O 0.9350(3) 0.58006(9) 0.04504(19)
N1 N 0.5165(3) 0.26982(10) 0.4629(2)
N2 N 0.8136(4) 0.31049(10) 0.6056(3)
N3 N 0.7040(3) 0.37012(10) 0.5365(2)
N4 N 0.3958(4) 0.45162(10) 0.3233(2)
N5 N 0.2285(4) 0.49062(11) 0.2267(2)
N6 N 0.7547(4) 0.18404(11) 0.6060(3)
O5 O 0.1640(3) 0.35205(9) 0.3082(2)
C1 C 0.7023(4) 0.25035(13) 0.5606(3)
C2 C 0.5267(4) 0.34333(12) 0.4528(3)
C3 C 0.3444(4) 0.38273(12) 0.3549(3)
H1 H 0.935(5) 0.3114(14) 0.660(3)
H2 H 0.881(6) 0.1773(16) 0.650(4)
H3 H 0.531(6) 0.4730(15) 0.344(3)
H4 H 0.178(5) 0.4623(16) 0.147(4)
H5 H 0.109(5) 0.5060(15) 0.282(3)
H6 H 0.315(6) 0.5319(18) 0.186(4)
H7 H 0.698(6) 0.1548(17) 0.551(4)
H8 H 0.397(6) 0.2368(19) 0.409(4)
loop_
_geom_bond_atom_site_label_1
_geom_bond_atom_site_label_2
_geom_bond_site_symmetry_1
_geom_bond_site_symmetry_2
S1 O1 1_555 1_555
O2 S1 1_555 1_555
O3 S1 1_555 1_555
O4 S1 1_555 1_555
N1 C1 1_555 1_555
N2 N3 1_555 1_555
N3 C2 1_555 1_555
N4 N5 1_555 1_555
N5 H4 1_555 1_555
N6 C1 1_555 1_555
O5 C3 1_555 1_555
C1 N2 1_555 1_555
C2 N1 1_555 1_555
C3 N4 1_555 1_555
H1 N2 1_555 1_555
H2 N6 1_555 1_555
H3 N4 1_555 1_555
H5 N5 1_555 1_555
H6 N5 1_555 1_555
H7 N6 1_555 1_555
H8 N1 1_555 1_555
C2 C3 1_555 1_555

#END
