
#######################################################################
#
#                 Cambridge Crystallographic Data Centre
#                                CCDC 
#
#######################################################################
#
# If this CIF has been generated from an entry in the Cambridge 
# Structural Database, then it will include bibliographic, chemical, 
# crystal, experimental, refinement or atomic coordinate data resulting 
# from the CCDC's data processing and validation procedures.
#
#######################################################################

data_FIPPOL
_chemical_formula_moiety         'C16 H17 N1 O3 S1'
_chemical_name_systematic        
'Ethyl 4-((ethylsulfanyl)carbonyl)-5-phenyl-1H-pyrrole-2-carboxylate'
_symmetry_cell_setting           triclinic
_symmetry_space_group_name_H-M   'P -1'
_symmetry_Int_Tables_number      2
_space_group_name_Hall           '-P 1'
loop_
_symmetry_equiv_pos_site_id
_symmetry_equiv_pos_as_xyz
1 x,y,z
2 -x,-y,-z
_cell_length_a                   8.094(2)
_cell_length_b                   9.747(3)
_cell_length_c                   10.514(3)
_cell_angle_alpha                76.657(5)
_cell_angle_beta                 81.203(6)
_cell_angle_gamma                78.138(5)
_cell_volume                     784.985
_exptl_crystal_colour            colorless
_exptl_crystal_description       needle
_cell_formula_units_Z            2
loop_
_atom_site_label
_atom_site_type_symbol
_atom_site_fract_x
_atom_site_fract_y
_atom_site_fract_z
C1 C 0.9060(3) 0.3219(3) -0.2307(3)
C2 C 0.8779(4) 0.1997(3) -0.1387(3)
H1 H 0.8562 0.2036 -0.0500
C3 C 0.8817(4) 0.0729(3) -0.1760(4)
H2 H 0.8633 -0.0082 -0.1127
C4 C 0.9126(5) 0.0657(4) -0.3063(4)
H3 H 0.9152 -0.0200 -0.3319
C5 C 0.9396(5) 0.1861(4) -0.3988(4)
H4 H 0.9596 0.1818 -0.4874
C6 C 0.9375(5) 0.3131(4) -0.3618(3)
H5 H 0.9575 0.3935 -0.4255
C7 C 0.8964(3) 0.4569(3) -0.1867(3)
C8 C 1.0058(3) 0.5566(3) -0.2078(3)
C9 C 0.9310(3) 0.6585(3) -0.1311(3)
H6 H 0.9758 0.7370 -0.1250
C10 C 0.7812(3) 0.6223(3) -0.0673(3)
C11 C 0.6521(4) 0.6853(3) 0.0249(3)
C12 C 0.5794(5) 0.8515(4) 0.1643(4)
H7 H 0.4670 0.8831 0.1356
H8 H 0.5722 0.7783 0.2440
C13 C 0.6387(6) 0.9704(5) 0.1905(5)
H9 H 0.5611 1.0097 0.2572
H10 H 0.6453 1.0427 0.1115
H11 H 0.7491 0.9384 0.2204
C14 C 1.1716(4) 0.5491(3) -0.2863(3)
C15 C 1.4764(5) 0.6376(4) -0.3853(4)
H12 H 1.5393 0.5450 -0.3470
H13 H 1.4436 0.6303 -0.4681
C16 C 1.5858(6) 0.7452(5) -0.4099(5)
H14 H 1.6838 0.7189 -0.4691
H15 H 1.6213 0.7506 -0.3285
H16 H 1.5242 0.8368 -0.4484
N1 N 0.7632(3) 0.4995(2) -0.1023(2)
O1 O 0.5188(3) 0.6442(2) 0.0646(2)
O2 O 0.6967(3) 0.7924(2) 0.0623(2)
O3 O 1.2309(3) 0.4620(2) -0.3540(2)
S1 S 1.28632(11) 0.68205(10) -0.27495(10)
H17 H 0.678(4) 0.458(4) -0.077(3)
loop_
_geom_bond_atom_site_label_1
_geom_bond_atom_site_label_2
_geom_bond_site_symmetry_1
_geom_bond_site_symmetry_2
C1 C2 1_555 1_555
C2 H1 1_555 1_555
C3 C2 1_555 1_555
H2 C3 1_555 1_555
C4 C3 1_555 1_555
H3 C4 1_555 1_555
C5 C4 1_555 1_555
H4 C5 1_555 1_555
C6 C1 1_555 1_555
H5 C6 1_555 1_555
C7 C1 1_555 1_555
C8 C7 1_555 1_555
C9 C8 1_555 1_555
H6 C9 1_555 1_555
C10 C9 1_555 1_555
C11 C10 1_555 1_555
C12 H7 1_555 1_555
H8 C12 1_555 1_555
C13 C12 1_555 1_555
H9 C13 1_555 1_555
H10 C13 1_555 1_555
H11 C13 1_555 1_555
C14 C8 1_555 1_555
C15 H12 1_555 1_555
H13 C15 1_555 1_555
C16 C15 1_555 1_555
H14 C16 1_555 1_555
H15 C16 1_555 1_555
H16 C16 1_555 1_555
N1 C7 1_555 1_555
O1 C11 1_555 1_555
O2 C11 1_555 1_555
O3 C14 1_555 1_555
S1 C14 1_555 1_555
H17 N1 1_555 1_555
C5 C6 1_555 1_555
C10 N1 1_555 1_555
C12 O2 1_555 1_555
C15 S1 1_555 1_555

#END
