
#######################################################################
#
#                 Cambridge Crystallographic Data Centre
#                                CCDC 
#
#######################################################################
#
# If this CIF has been generated from an entry in the Cambridge 
# Structural Database, then it will include bibliographic, chemical, 
# crystal, experimental, refinement or atomic coordinate data resulting 
# from the CCDC's data processing and validation procedures.
#
#######################################################################

data_FIPQUS
_chemical_formula_moiety         'C19 H16 O4 S2'
_chemical_name_systematic        
(4-((4-methylphenyl)sulfonyl)-2-(methylsulfanyl)-3-furyl)(phenyl)methanone
_symmetry_cell_setting           monoclinic
_symmetry_space_group_name_H-M   'P 21/c'
_symmetry_Int_Tables_number      14
_space_group_name_Hall           '-P 2ybc'
loop_
_symmetry_equiv_pos_site_id
_symmetry_equiv_pos_as_xyz
1 x,y,z
2 -x,1/2+y,1/2-z
3 -x,-y,-z
4 x,1/2-y,1/2+z
_cell_length_a                   13.510(4)
_cell_length_b                   8.068(3)
_cell_length_c                   17.081(5)
_cell_angle_alpha                90
_cell_angle_beta                 107.751(6)
_cell_angle_gamma                90
_cell_volume                     1773.17
_exptl_crystal_colour            colorless
_exptl_crystal_description       needle
_cell_formula_units_Z            4
loop_
_atom_site_label
_atom_site_type_symbol
_atom_site_fract_x
_atom_site_fract_y
_atom_site_fract_z
S1 S 0.44721(9) 0.72001(14) 0.32173(8)
O1 O 0.2780(2) 0.6944(4) 0.0913(2)
C1 C 0.2069(4) 1.1757(6) 0.1921(4)
H1 H 0.2467 1.1301 0.1617
C2 C 0.2050(3) 0.9000(6) 0.2594(3)
C3 C 0.1142(4) 1.1464(7) 0.2897(4)
H2 H 0.0898 1.0808 0.3246
C4 C 0.3525(3) 0.7316(5) 0.2252(3)
O2 O 0.4468(3) 0.8744(4) 0.3634(2)
O3 O 0.1946(3) 0.8241(5) 0.3167(3)
C5 C 0.1265(4) 1.4106(7) 0.2305(5)
H3 H 0.1123 1.5236 0.2266
C6 C 0.1817(4) 1.3428(7) 0.1844(4)
H4 H 0.2027 1.4083 0.1476
O4 O 0.5406(2) 0.6677(5) 0.3064(2)
C7 C 0.2532(3) 0.8156(5) 0.2031(3)
C8 C 0.0913(4) 1.3147(7) 0.2827(4)
H5 H 0.0523 1.3620 0.3133
C9 C 0.1729(3) 1.0765(6) 0.2452(3)
C10 C 0.2128(4) 0.7877(6) 0.1207(3)
C11 C 0.4120(3) 0.3997(6) 0.3492(3)
H6 H 0.4369 0.3770 0.3051
C12 C 0.3425(4) 0.3035(6) 0.4547(3)
C13 C 0.3050(5) 0.1654(8) 0.4976(4)
H7 H 0.3126 0.0615 0.4727
H8 H 0.2331 0.1829 0.4929
H9 H 0.3453 0.1637 0.5546
C14 C 0.3393(4) 0.4658(7) 0.4797(3)
H10 H 0.3157 0.4883 0.5243
C15 C 0.4062(3) 0.5602(6) 0.3744(3)
C16 C 0.3804(4) 0.2723(6) 0.3902(4)
H11 H 0.3849 0.1634 0.3738
C17 C 0.3702(4) 0.5945(6) 0.4399(3)
H12 H 0.3669 0.7033 0.4570
S2 S 0.09387(13) 0.8471(3) 0.05360(11)
C18 C 0.3631(3) 0.6625(6) 0.1574(3)
H13 H 0.4204 0.6010 0.1552
C19 C 0.0865(6) 0.7599(16) -0.0354(6)
H14 H 0.0214 0.7884 -0.0751
H15 H 0.0912 0.6417 -0.0289
H16 H 0.1426 0.7990 -0.0541
loop_
_geom_bond_atom_site_label_1
_geom_bond_atom_site_label_2
_geom_bond_site_symmetry_1
_geom_bond_site_symmetry_2
S1 C4 1_555 1_555
O1 C10 1_555 1_555
C1 H1 1_555 1_555
C2 O3 1_555 1_555
C3 H2 1_555 1_555
C4 C7 1_555 1_555
O2 S1 1_555 1_555
C5 H3 1_555 1_555
C6 C1 1_555 1_555
H4 C6 1_555 1_555
O4 S1 1_555 1_555
C7 C2 1_555 1_555
C8 C3 1_555 1_555
H5 C8 1_555 1_555
C9 C1 1_555 1_555
C10 C7 1_555 1_555
C11 H6 1_555 1_555
C12 C13 1_555 1_555
C13 H7 1_555 1_555
H8 C13 1_555 1_555
H9 C13 1_555 1_555
C14 C12 1_555 1_555
H10 C14 1_555 1_555
C15 S1 1_555 1_555
C16 C11 1_555 1_555
H11 C16 1_555 1_555
C17 C14 1_555 1_555
H12 C17 1_555 1_555
S2 C10 1_555 1_555
C18 O1 1_555 1_555
H13 C18 1_555 1_555
C19 S2 1_555 1_555
H14 C19 1_555 1_555
H15 C19 1_555 1_555
H16 C19 1_555 1_555
C2 C9 1_555 1_555
C3 C9 1_555 1_555
C4 C18 1_555 1_555
C5 C6 1_555 1_555
C5 C8 1_555 1_555
C11 C15 1_555 1_555
C12 C16 1_555 1_555
C15 C17 1_555 1_555

#END
