
#######################################################################
#
#                 Cambridge Crystallographic Data Centre
#                                CCDC 
#
#######################################################################
#
# If this CIF has been generated from an entry in the Cambridge 
# Structural Database, then it will include bibliographic, chemical, 
# crystal, experimental, refinement or atomic coordinate data resulting 
# from the CCDC's data processing and validation procedures.
#
#######################################################################

data_FIQDEP
_chemical_formula_moiety         'C18 H22 O2 S2'
_chemical_name_systematic        (R,S)-1,4-bis(Benzylsulfinyl)butane
_symmetry_cell_setting           monoclinic
_symmetry_space_group_name_H-M   'P 21/c'
_symmetry_Int_Tables_number      14
_space_group_name_Hall           '-P 2ybc'
loop_
_symmetry_equiv_pos_site_id
_symmetry_equiv_pos_as_xyz
1 x,y,z
2 -x,1/2+y,1/2-z
3 -x,-y,-z
4 x,1/2-y,1/2+z
_cell_length_a                   19.382(8)
_cell_length_b                   5.303(2)
_cell_length_c                   8.492(3)
_cell_angle_alpha                90
_cell_angle_beta                 93.126(6)
_cell_angle_gamma                90
_cell_volume                     871.532
_exptl_crystal_colour            colorless
_exptl_crystal_description       block
_chemical_melting_point          '442-444 K'
_cell_formula_units_Z            2
_exptl_crystal_recrystallization_method chloroform/methanol
loop_
_atom_site_label
_atom_site_type_symbol
_atom_site_fract_x
_atom_site_fract_y
_atom_site_fract_z
S1 S 0.16745(6) 0.43098(19) 0.92288(12)
O1 O 0.16020(16) 0.1574(5) 0.8835(4)
C1 C 0.3282(3) 0.7042(8) 0.8690(5)
H1 H 0.3088 0.8396 0.9204
C2 C 0.3984(3) 0.6675(11) 0.8842(6)
H2 H 0.4259 0.7781 0.9449
C3 C 0.4278(3) 0.4692(11) 0.8104(6)
H3 H 0.4753 0.4438 0.8209
C4 C 0.3869(3) 0.3080(10) 0.7207(6)
H4 H 0.4068 0.1737 0.6693
C5 C 0.3161(2) 0.3431(8) 0.7059(5)
H5 H 0.2888 0.2303 0.6464
C6 C 0.2856(2) 0.5449(8) 0.7791(4)
C7 C 0.2088(2) 0.5861(8) 0.7638(4)
H6 H 0.1906 0.5197 0.6636
H7 H 0.1990 0.7653 0.7662
C8 C 0.0842(2) 0.5624(8) 0.8892(6)
H8 H 0.0861 0.7436 0.9045
H9 H 0.0673 0.5295 0.7815
C9 C 0.0350(2) 0.4437(9) 1.0051(6)
H10 H 0.0312 0.2644 0.9838
H11 H 0.0547 0.4639 1.1117
S1B S -0.16745(6) 0.56902(19) 1.07712(12)
O1B O -0.16020(16) 0.8426(5) 1.1165(4)
C1B C -0.3282(3) 0.2958(8) 1.1310(5)
H1B H -0.3088 0.1604 1.0796
C2B C -0.3984(3) 0.3325(11) 1.1158(6)
H2B H -0.4259 0.2219 1.0551
C3B C -0.4278(3) 0.5308(11) 1.1896(6)
H3B H -0.4753 0.5562 1.1791
C4B C -0.3869(3) 0.6920(10) 1.2793(6)
H4B H -0.4068 0.8263 1.3307
C5B C -0.3161(2) 0.6569(8) 1.2941(5)
H5B H -0.2888 0.7697 1.3536
C6B C -0.2856(2) 0.4551(8) 1.2209(4)
C7B C -0.2088(2) 0.4139(8) 1.2362(4)
H6B H -0.1906 0.4803 1.3364
H7B H -0.1990 0.2347 1.2338
C8B C -0.0842(2) 0.4376(8) 1.1108(6)
H8B H -0.0861 0.2564 1.0955
H9B H -0.0673 0.4705 1.2185
C9B C -0.0350(2) 0.5563(9) 0.9949(6)
H10B H -0.0312 0.7356 1.0162
H11B H -0.0547 0.5361 0.8883
loop_
_geom_bond_atom_site_label_1
_geom_bond_atom_site_label_2
_geom_bond_site_symmetry_1
_geom_bond_site_symmetry_2
S1 O1 1_555 1_555
C1 H1 1_555 1_555
C2 C1 1_555 1_555
H2 C2 1_555 1_555
C3 C2 1_555 1_555
H3 C3 1_555 1_555
C4 C3 1_555 1_555
H4 C4 1_555 1_555
C5 C4 1_555 1_555
H5 C5 1_555 1_555
C6 C1 1_555 1_555
C7 S1 1_555 1_555
H6 C7 1_555 1_555
H7 C7 1_555 1_555
C8 S1 1_555 1_555
H8 C8 1_555 1_555
H9 C8 1_555 1_555
C9 C8 1_555 1_555
H10 C9 1_555 1_555
H11 C9 1_555 1_555
S1B O1B 1_555 1_555
C1B H1B 1_555 1_555
C2B C1B 1_555 1_555
H2B C2B 1_555 1_555
C3B C2B 1_555 1_555
H3B C3B 1_555 1_555
C4B C3B 1_555 1_555
H4B C4B 1_555 1_555
C5B C4B 1_555 1_555
H5B C5B 1_555 1_555
C6B C1B 1_555 1_555
C7B S1B 1_555 1_555
H6B C7B 1_555 1_555
H7B C7B 1_555 1_555
C8B S1B 1_555 1_555
H8B C8B 1_555 1_555
H9B C8B 1_555 1_555
C9B C9 1_555 1_555
H10B C9B 1_555 1_555
H11B C9B 1_555 1_555
C5 C6 1_555 1_555
C6 C7 1_555 1_555
C5B C6B 1_555 1_555
C6B C7B 1_555 1_555
C8B C9B 1_555 1_555

#END
