
#######################################################################
#
#                 Cambridge Crystallographic Data Centre
#                                CCDC 
#
#######################################################################
#
# If this CIF has been generated from an entry in the Cambridge 
# Structural Database, then it will include bibliographic, chemical, 
# crystal, experimental, refinement or atomic coordinate data resulting 
# from the CCDC's data processing and validation procedures.
#
#######################################################################

data_FIQMID
_chemical_formula_moiety         'C24 H22 F6 N4 O4'
_chemical_name_systematic        
'Dipropyl 3,6-bis(4-(trifluoromethyl)phenyl)-1,2,4,5-tetrazine-1,2-dicarboxylate'
_symmetry_cell_setting           triclinic
_symmetry_space_group_name_H-M   'P -1'
_symmetry_Int_Tables_number      2
_space_group_name_Hall           '-P 1'
loop_
_symmetry_equiv_pos_site_id
_symmetry_equiv_pos_as_xyz
1 x,y,z
2 -x,-y,-z
_cell_length_a                   8.210(2)
_cell_length_b                   12.151(2)
_cell_length_c                   14.469(3)
_cell_angle_alpha                107.860(14)
_cell_angle_beta                 100.640(19)
_cell_angle_gamma                99.570(19)
_cell_volume                     1311.36
_exptl_crystal_colour            colorless
_exptl_crystal_description       prismatic
_chemical_melting_point          '147-149 deg.C'
_cell_formula_units_Z            2
loop_
_atom_site_label
_atom_site_type_symbol
_atom_site_fract_x
_atom_site_fract_y
_atom_site_fract_z
F1 F 0.6773(12) 0.4595(4) 1.4059(5)
F2 F 0.7643(11) 0.3067(8) 1.3881(6)
F3 F 0.5075(12) 0.3006(12) 1.3929(5)
F4 F 0.0384(16) -0.0866(10) 0.2715(10)
F5 F 0.2324(14) 0.0422(17) 0.2637(9)
F6 F 0.0050(16) 0.0834(12) 0.2902(9)
O1 O 0.1712(3) 0.3657(2) 0.83883(19)
O2 O 0.1661(3) 0.28109(19) 0.95668(17)
O3 O 0.6597(3) 0.4301(2) 0.8864(2)
O4 O 0.6455(3) 0.3130(2) 0.7295(2)
N1 N 0.3826(3) 0.2795(2) 0.88613(19)
N2 N 0.4354(3) 0.2706(2) 0.79856(19)
N3 N 0.4639(4) 0.1027(2) 0.8765(2)
N4 N 0.3972(4) 0.0677(2) 0.7728(2)
C1 C 0.5487(4) 0.3580(3) 1.0990(3)
H1 H 0.5569 0.4149 1.0683
C2 C 0.5951(5) 0.3929(3) 1.2010(3)
H2 H 0.6361 0.4733 1.2393
C3 C 0.5816(5) 0.3095(3) 1.2475(3)
C4 C 0.5250(5) 0.1908(4) 1.1909(3)
H3 H 0.5176 0.1344 1.2221
C5 C 0.4790(4) 0.1551(3) 1.0879(3)
H4 H 0.4408 0.0745 1.0497
C6 C 0.4895(4) 0.2390(3) 1.0410(2)
C7 C 0.4422(4) 0.2019(3) 0.9321(2)
C8 C 0.3903(4) 0.1482(3) 0.7336(3)
C9 C 0.3231(4) 0.1180(3) 0.6257(3)
C10 C 0.2623(5) 0.1983(4) 0.5882(3)
H5 H 0.2649 0.2737 0.6311
C11 C 0.1966(6) 0.1658(5) 0.4851(3)
H6 H 0.1551 0.2200 0.4594
C12 C 0.1924(6) 0.0560(5) 0.4217(3)
C13 C 0.2522(7) -0.0235(5) 0.4595(4)
H7 H 0.2487 -0.0989 0.4162
C14 C 0.3180(7) 0.0068(4) 0.5614(3)
H8 H 0.3589 -0.0480 0.5864
C15 C 0.6264(9) 0.3449(6) 1.3586(4)
C16 C 0.1270(9) 0.0211(7) 0.3112(4)
C17 C 0.2282(4) 0.3137(3) 0.8890(3)
C18 C 0.0137(5) 0.3162(4) 0.9765(4)
H9 H -0.0792 0.2820 0.9162
H10 H 0.0325 0.4022 0.9987
C19 C -0.0285(7) 0.2725(7) 1.0556(5)
H11 H 0.0679 0.3063 1.1140
H12 H -0.1244 0.3023 1.0746
C20 C -0.0694(9) 0.1482(7) 1.0308(7)
H13 H -0.1524 0.1120 0.9674
H14 H -0.1153 0.1286 1.0817
H15 H 0.0317 0.1190 1.0263
C21 C 0.5910(4) 0.3477(3) 0.8127(3)
C22 C 0.7957(5) 0.3899(5) 0.7235(4)
H16 H 0.8517 0.4473 0.7900
H17 H 0.8745 0.3420 0.7024
C23 C 0.7638(9) 0.4477(8) 0.6618(5)
H18 H 0.6880 0.4973 0.6850
H19 H 0.7023 0.3898 0.5965
C24 C 0.9128(10) 0.5249(8) 0.6482(5)
H20 H 0.9803 0.5795 0.7125
H21 H 0.8725 0.5687 0.6073
H22 H 0.9812 0.4761 0.6161
F7? F 0.752(5) 0.444(3) 1.399(2)
F8? F 0.678(5) 0.273(2) 1.3991(15)
F9? F 0.499(4) 0.379(4) 1.3986(18)
F10? F -0.017(2) -0.056(2) 0.2685(16)
F11? F 0.240(2) -0.028(2) 0.2669(14)
F12? F 0.117(3) 0.1137(13) 0.2833(12)
loop_
_geom_bond_atom_site_label_1
_geom_bond_atom_site_label_2
_geom_bond_site_symmetry_1
_geom_bond_site_symmetry_2
F1 C15 1_555 1_555
F2 C15 1_555 1_555
F3 C15 1_555 1_555
F4 C16 1_555 1_555
F5 C16 1_555 1_555
F6 C16 1_555 1_555
O1 C17 1_555 1_555
O2 C17 1_555 1_555
O3 C21 1_555 1_555
O4 C21 1_555 1_555
N1 N2 1_555 1_555
N2 C8 1_555 1_555
N3 N4 1_555 1_555
N4 C8 1_555 1_555
C1 H1 1_555 1_555
C2 C1 1_555 1_555
H2 C2 1_555 1_555
C3 C2 1_555 1_555
C4 C3 1_555 1_555
H3 C4 1_555 1_555
C5 C4 1_555 1_555
H4 C5 1_555 1_555
C6 C1 1_555 1_555
C7 N1 1_555 1_555
C8 C9 1_555 1_555
C9 C10 1_555 1_555
C10 H5 1_555 1_555
C11 C10 1_555 1_555
H6 C11 1_555 1_555
C12 C11 1_555 1_555
C13 C12 1_555 1_555
H7 C13 1_555 1_555
C14 C9 1_555 1_555
H8 C14 1_555 1_555
C15 C3 1_555 1_555
C16 C12 1_555 1_555
C17 N1 1_555 1_555
C18 O2 1_555 1_555
H9 C18 1_555 1_555
H10 C18 1_555 1_555
C19 C18 1_555 1_555
H11 C19 1_555 1_555
H12 C19 1_555 1_555
C20 C19 1_555 1_555
H13 C20 1_555 1_555
H14 C20 1_555 1_555
H15 C20 1_555 1_555
C21 N2 1_555 1_555
C22 O4 1_555 1_555
H16 C22 1_555 1_555
H17 C22 1_555 1_555
C23 C22 1_555 1_555
H18 C23 1_555 1_555
H19 C23 1_555 1_555
C24 C23 1_555 1_555
H20 C24 1_555 1_555
H21 C24 1_555 1_555
H22 C24 1_555 1_555
N3 C7 1_555 1_555
C5 C6 1_555 1_555
C6 C7 1_555 1_555
C13 C14 1_555 1_555

#END
