
#######################################################################
#
#                 Cambridge Crystallographic Data Centre
#                                CCDC 
#
#######################################################################
#
# If this CIF has been generated from an entry in the Cambridge 
# Structural Database, then it will include bibliographic, chemical, 
# crystal, experimental, refinement or atomic coordinate data resulting 
# from the CCDC's data processing and validation procedures.
#
#######################################################################

data_FIQMOJ
_chemical_formula_moiety         'C18 H12 F6 N4 O2'
_chemical_name_systematic        
'Methyl 3,6-bis(4-(trifluoromethyl)phenyl)-1,2,4,5-tetrazine-1(4H)-carboxylate'
_symmetry_cell_setting           monoclinic
_symmetry_space_group_name_H-M   'P 21/c'
_symmetry_Int_Tables_number      14
_space_group_name_Hall           '-P 2ybc'
loop_
_symmetry_equiv_pos_site_id
_symmetry_equiv_pos_as_xyz
1 x,y,z
2 -x,1/2+y,1/2-z
3 -x,-y,-z
4 x,1/2-y,1/2+z
_cell_length_a                   9.177(3)
_cell_length_b                   12.159(2)
_cell_length_c                   16.896(2)
_cell_angle_alpha                90
_cell_angle_beta                 104.540(16)
_cell_angle_gamma                90
_cell_volume                     1824.93
_exptl_crystal_colour            yellow
_exptl_crystal_description       prismatic
_chemical_melting_point          '198-199 deg.C'
_cell_formula_units_Z            4
loop_
_atom_site_label
_atom_site_type_symbol
_atom_site_fract_x
_atom_site_fract_y
_atom_site_fract_z
F1 F 0.1074(4) -0.7374(5) -0.0111(4)
F2 F 0.3304(5) -0.7943(3) 0.0147(3)
F3 F 0.2377(5) -0.7105(4) -0.09232(19)
F4 F 1.0202(5) 0.2990(4) 0.2658(3)
F5 F 0.8248(5) 0.3771(4) 0.1961(4)
F6 F 0.9749(5) 0.3033(4) 0.13821(19)
O1 O 0.33228(14) 0.04214(10) 0.18940(7)
O2 O 0.16953(13) -0.06040(11) 0.09663(8)
N1 N 0.37166(16) -0.20532(11) 0.08625(8)
N2 N 0.41214(15) -0.10691(11) 0.13266(9)
N3 N 0.61425(16) -0.19096(11) 0.22322(8)
N4 N 0.51567(17) -0.28036(12) 0.20735(9)
C1 C 0.4748(2) -0.49135(14) 0.11622(10)
H1 H 0.5673 -0.4840 0.1540
C2 C 0.4293(2) -0.59284(15) 0.08257(11)
H2 H 0.4905 -0.6540 0.0984
C3 C 0.2932(2) -0.60385(14) 0.02548(10)
C4 C 0.2029(2) -0.51296(15) 0.00147(11)
H3 H 0.1122 -0.5202 -0.0379
C5 C 0.24657(19) -0.41160(15) 0.03564(10)
H4 H 0.1848 -0.3507 0.0198
C6 C 0.38273(18) -0.40017(13) 0.09378(9)
C7 C 0.42343(18) -0.28990(13) 0.13003(10)
C8 C 0.56016(18) -0.10432(13) 0.18447(9)
C9 C 0.65321(18) -0.00474(13) 0.18756(10)
C10 C 0.6285(2) 0.06676(15) 0.12170(11)
H5 H 0.5528 0.0518 0.0749
C11 C 0.7155(2) 0.15986(15) 0.12505(11)
H6 H 0.7002 0.2065 0.0801
C12 C 0.82570(19) 0.18396(14) 0.19534(10)
C13 C 0.85196(19) 0.11201(15) 0.26092(10)
H7 H 0.9268 0.1275 0.3079
C14 C 0.76774(18) 0.01766(14) 0.25676(10)
H8 H 0.7875 -0.0313 0.3004
C15 C 0.2425(2) -0.71309(17) -0.01221(14)
C16 C 0.30432(19) -0.03528(14) 0.14317(10)
C17 C 0.0478(2) 0.00840(19) 0.10759(13)
H9 H 0.0525 0.0145 0.1648
H10 H -0.0467 -0.0238 0.0797
H11 H 0.0566 0.0801 0.0855
C18 C 0.9125(2) 0.28840(17) 0.19979(13)
H12 H 0.555(2) -0.3392(15) 0.2324(11)
F7? F 0.0971(10) -0.7242(12) -0.0365(9)
F8? F 0.3015(16) -0.7462(11) -0.0644(10)
F9? F 0.2678(16) -0.7911(7) 0.0497(5)
F10? F 0.9939(16) 0.3097(11) 0.2737(7)
F11? F 0.8275(16) 0.3715(9) 0.1756(10)
F12? F 1.0057(16) 0.2803(12) 0.1524(8)
loop_
_geom_bond_atom_site_label_1
_geom_bond_atom_site_label_2
_geom_bond_site_symmetry_1
_geom_bond_site_symmetry_2
F1 C15 1_555 1_555
F2 C15 1_555 1_555
F3 C15 1_555 1_555
F4 C18 1_555 1_555
F5 C18 1_555 1_555
F6 C18 1_555 1_555
O1 C16 1_555 1_555
O2 C16 1_555 1_555
N1 N2 1_555 1_555
N2 C8 1_555 1_555
N3 N4 1_555 1_555
N4 C7 1_555 1_555
C1 H1 1_555 1_555
C2 C1 1_555 1_555
H2 C2 1_555 1_555
C3 C2 1_555 1_555
C4 C3 1_555 1_555
H3 C4 1_555 1_555
C5 C4 1_555 1_555
H4 C5 1_555 1_555
C6 C1 1_555 1_555
C7 N1 1_555 1_555
C8 N3 1_555 1_555
C9 C8 1_555 1_555
C10 C9 1_555 1_555
H5 C10 1_555 1_555
C11 C10 1_555 1_555
H6 C11 1_555 1_555
C12 C11 1_555 1_555
C13 C12 1_555 1_555
H7 C13 1_555 1_555
C14 C9 1_555 1_555
H8 C14 1_555 1_555
C15 C3 1_555 1_555
C16 N2 1_555 1_555
C17 O2 1_555 1_555
H9 C17 1_555 1_555
H10 C17 1_555 1_555
H11 C17 1_555 1_555
C18 C12 1_555 1_555
H12 N4 1_555 1_555
C5 C6 1_555 1_555
C6 C7 1_555 1_555
C13 C14 1_555 1_555

#END
