
#######################################################################
#
#                 Cambridge Crystallographic Data Centre
#                                CCDC 
#
#######################################################################
#
# If this CIF has been generated from an entry in the Cambridge 
# Structural Database, then it will include bibliographic, chemical, 
# crystal, experimental, refinement or atomic coordinate data resulting 
# from the CCDC's data processing and validation procedures.
#
#######################################################################

data_FIQSIK
_chemical_formula_moiety         'C12 H10 S4'
_chemical_name_systematic        
2,6-bis(methylsulfanyl)benzo[1,2-b:4,5-b']dithiophene
_symmetry_cell_setting           triclinic
_symmetry_space_group_name_H-M   'P -1'
_symmetry_Int_Tables_number      2
_space_group_name_Hall           '-P 1'
loop_
_symmetry_equiv_pos_site_id
_symmetry_equiv_pos_as_xyz
1 x,y,z
2 -x,-y,-z
_cell_length_a                   5.82323(18)
_cell_length_b                   7.7052(3)
_cell_length_c                   14.0680(5)
_cell_angle_alpha                78.199(2)
_cell_angle_beta                 84.6910(18)
_cell_angle_gamma                88.4900(19)
_cell_volume                     615.209
_exptl_crystal_colour            colorless
_exptl_crystal_description       platelet
_cell_formula_units_Z            2
loop_
_atom_site_label
_atom_site_type_symbol
_atom_site_fract_x
_atom_site_fract_y
_atom_site_fract_z
S1 S 1.2611(3) -0.4340(3) 1.17109(14)
S2 S 1.0350(4) -0.5664(3) 1.37609(14)
C1 C 0.8488(11) -0.6141(7) 1.2068(4)
H1 H 0.7175 -0.6744 1.2378
C2 C 0.7851(11) -0.5910(8) 1.0251(5)
H2 H 0.6439 -0.6482 1.0405
C3 C 1.1273(10) -0.4652(8) 1.0712(5)
C4 C 1.0434(11) -0.5487(9) 1.2523(5)
C5 C 0.9161(10) -0.5590(7) 1.0985(5)
C6 C 1.3252(18) -0.5408(15) 1.3953(6)
H3 H 1.3384 -0.5488 1.4636
H4 H 1.4169 -0.6325 1.3731
H5 H 1.3786 -0.4271 1.3597
S1A S 0.7389(3) -0.5660(3) 0.82891(14)
S2A S 0.9650(4) -0.4336(3) 0.62391(14)
C1A C 1.1512(11) -0.3859(7) 0.7932(4)
H1A H 1.2825 -0.3256 0.7622
C2A C 1.2149(11) -0.4090(8) 0.9749(5)
H2A H 1.3561 -0.3518 0.9595
C3A C 0.8727(10) -0.5348(8) 0.9288(5)
C4A C 0.9566(11) -0.4513(9) 0.7477(5)
C5A C 1.0839(10) -0.4410(7) 0.9015(5)
C6A C 0.6748(18) -0.4592(15) 0.6047(6)
H3A H 0.6616 -0.4512 0.5364
H4A H 0.5831 -0.3675 0.6269
H5A H 0.6214 -0.5729 0.6403
S3 S 0.7572(3) -0.1219(3) 1.18527(15)
S4 S 0.5325(4) -0.0414(3) 1.37458(15)
C7 C 0.3425(11) 0.0548(7) 1.1973(4)
H6 H 0.2107 0.1082 1.2214
C8 C 0.7182(11) -0.0885(9) 0.9881(5)
H7 H 0.8593 -0.1460 0.9809
C9 C 0.4129(11) 0.0282(8) 1.0915(5)
C10 C 0.6273(10) -0.0581(8) 1.0774(5)
C11 C 0.5381(12) -0.0264(9) 1.2488(5)
C12 C 0.8262(17) -0.0598(15) 1.3977(6)
H8 H 0.8386 -0.0688 1.4661
H9 H 0.8922 -0.1638 1.3780
H10 H 0.9073 0.0432 1.3616
S3A S 0.2428(3) 0.1219(3) 0.81473(15)
S4A S 0.4675(4) 0.0414(3) 0.62542(15)
C7A C 0.6575(11) -0.0548(7) 0.8027(4)
H6A H 0.7893 -0.1082 0.7786
C8A C 0.2818(11) 0.0885(9) 1.0119(5)
H7A H 0.1407 0.1460 1.0191
C9A C 0.5871(11) -0.0282(8) 0.9085(5)
C10A C 0.3727(10) 0.0581(8) 0.9226(5)
C11A C 0.4619(12) 0.0264(9) 0.7512(5)
C12A C 0.1738(17) 0.0598(15) 0.6023(6)
H8A H 0.1614 0.0688 0.5339
H9A H 0.1078 0.1638 0.6220
H10A H 0.0927 -0.0432 0.6384
loop_
_geom_bond_atom_site_label_1
_geom_bond_atom_site_label_2
_geom_bond_site_symmetry_1
_geom_bond_site_symmetry_2
S1 C3 1_555 1_555
S2 C4 1_555 1_555
C1 H1 1_555 1_555
C2 H2 1_555 1_555
C3 C5 1_555 1_555
C4 S1 1_555 1_555
C5 C1 1_555 1_555
C6 S2 1_555 1_555
H3 C6 1_555 1_555
H4 C6 1_555 1_555
H5 C6 1_555 1_555
S3 C10 1_555 1_555
S4 C11 1_555 1_555
C7 H6 1_555 1_555
C8 H7 1_555 1_555
C9 C7 1_555 1_555
C10 C8 1_555 1_555
C11 S3 1_555 1_555
C12 S4 1_555 1_555
H8 C12 1_555 1_555
H9 C12 1_555 1_555
H10 C12 1_555 1_555
S1A C3A 1_555 1_555
S2A C4A 1_555 1_555
C1A H1A 1_555 1_555
C2A C3 1_555 1_555
H2A C2A 1_555 1_555
C3A C2 1_555 1_555
C4A S1A 1_555 1_555
C5A C1A 1_555 1_555
C6A S2A 1_555 1_555
H3A C6A 1_555 1_555
H4A C6A 1_555 1_555
H5A C6A 1_555 1_555
S3A C10A 1_555 1_555
S4A C11A 1_555 1_555
C7A H6A 1_555 1_555
C8A C9 1_555 1_555
H7A C8A 1_555 1_555
C9A C8 1_555 1_555
C10A C8A 1_555 1_555
C11A S3A 1_555 1_555
C12A S4A 1_555 1_555
H8A C12A 1_555 1_555
H9A C12A 1_555 1_555
H10A C12A 1_555 1_555
C1 C4 1_555 1_555
C2 C5 1_555 1_555
C7 C11 1_555 1_555
C9 C10 1_555 1_555
C1A C4A 1_555 1_555
C2A C5A 1_555 1_555
C3A C5A 1_555 1_555
C7A C9A 1_555 1_555
C7A C11A 1_555 1_555
C9A C10A 1_555 1_555

#END
