
#######################################################################
#
#                 Cambridge Crystallographic Data Centre
#                                CCDC 
#
#######################################################################
#
# If this CIF has been generated from an entry in the Cambridge 
# Structural Database, then it will include bibliographic, chemical, 
# crystal, experimental, refinement or atomic coordinate data resulting 
# from the CCDC's data processing and validation procedures.
#
#######################################################################

data_FIQSOQ
_chemical_formula_moiety         'C12 H10 S4'
_chemical_name_systematic        
3,7-bis(methylsulfanyl)benzo[1,2-b:4,5-b']dithiophene
_symmetry_cell_setting           monoclinic
_symmetry_space_group_name_H-M   'P 21/c'
_symmetry_Int_Tables_number      14
_space_group_name_Hall           '-P 2ybc'
loop_
_symmetry_equiv_pos_site_id
_symmetry_equiv_pos_as_xyz
1 x,y,z
2 -x,1/2+y,1/2-z
3 -x,-y,-z
4 x,1/2-y,1/2+z
_cell_length_a                   8.37267(18)
_cell_length_b                   13.9725(3)
_cell_length_c                   5.34146(12)
_cell_angle_alpha                90
_cell_angle_beta                 99.3620(13)
_cell_angle_gamma                90
_cell_volume                     616.559
_exptl_crystal_colour            yellow
_exptl_crystal_description       block
_cell_formula_units_Z            2
loop_
_atom_site_label
_atom_site_type_symbol
_atom_site_fract_x
_atom_site_fract_y
_atom_site_fract_z
S1 S -0.12182(5) 0.15738(3) 0.10276(9)
S2 S 0.37898(5) 0.07712(3) 0.14680(9)
C1 C 0.16576(19) -0.02690(12) 0.5154(3)
H1 H 0.2759 -0.0453 0.5259
C2 C -0.0665(2) 0.06953(11) 0.3321(3)
C3 C 0.1756(2) 0.09804(12) 0.1668(3)
C4 C 0.4105(2) 0.15621(14) -0.1061(4)
H2 H 0.5227 0.1507 -0.1354
H3 H 0.3368 0.1388 -0.2612
H4 H 0.3892 0.2223 -0.0595
C5 C 0.09852(19) 0.04382(11) 0.3465(3)
C6 C 0.0721(2) 0.15994(12) 0.0284(4)
H5 H 0.1029 0.2009 -0.0974
S1B S 0.12182(5) -0.15738(3) 0.89724(9)
S2B S -0.37898(5) -0.07712(3) 0.85320(9)
C1B C -0.16576(19) 0.02690(12) 0.4846(3)
H1B H -0.2759 0.0453 0.4741
C2B C 0.0665(2) -0.06953(11) 0.6679(3)
C3B C -0.1756(2) -0.09804(12) 0.8332(3)
C4B C -0.4105(2) -0.15621(14) 1.1061(4)
H2B H -0.5227 -0.1507 1.1354
H3B H -0.3368 -0.1388 1.2612
H4B H -0.3892 -0.2223 1.0595
C5B C -0.09852(19) -0.04382(11) 0.6535(3)
C6B C -0.0721(2) -0.15994(12) 0.9716(4)
H5B H -0.1029 -0.2009 1.0974
loop_
_geom_bond_atom_site_label_1
_geom_bond_atom_site_label_2
_geom_bond_site_symmetry_1
_geom_bond_site_symmetry_2
S1 C2 1_555 1_555
S2 C3 1_555 1_555
C1 H1 1_555 1_555
C2 C5 1_555 1_555
C3 C5 1_555 1_555
C4 S2 1_555 1_555
H2 C4 1_555 1_555
H3 C4 1_555 1_555
H4 C4 1_555 1_555
C5 C1 1_555 1_555
C6 S1 1_555 1_555
H5 C6 1_555 1_555
S1B C2B 1_555 1_555
S2B C3B 1_555 1_555
C1B C2 1_555 1_555
H1B C1B 1_555 1_555
C2B C1 1_555 1_555
C3B C5B 1_555 1_555
C4B S2B 1_555 1_555
H2B C4B 1_555 1_555
H3B C4B 1_555 1_555
H4B C4B 1_555 1_555
C5B C1B 1_555 1_555
C6B S1B 1_555 1_555
H5B C6B 1_555 1_555
C3 C6 1_555 1_555
C2B C5B 1_555 1_555
C3B C6B 1_555 1_555

#END
