
#######################################################################
#
#                 Cambridge Crystallographic Data Centre
#                                CCDC 
#
#######################################################################
#
# If this CIF has been generated from an entry in the Cambridge 
# Structural Database, then it will include bibliographic, chemical, 
# crystal, experimental, refinement or atomic coordinate data resulting 
# from the CCDC's data processing and validation procedures.
#
#######################################################################

data_FIQSUV
_chemical_formula_moiety         'C36 H43 N1 O4'
_chemical_name_systematic        
'Methyl 19-isopropyl-5,9-dimethyl-15-(2-methyl-1-naphthyl)-14,16-dioxo-15-azapentacyclo[10.5.2.0^1,10^.0^4,9^.0^13,17^]nonadec-18-ene-5-carboxylate'
_symmetry_cell_setting           orthorhombic
_symmetry_space_group_name_H-M   'P 21 21 21'
_symmetry_Int_Tables_number      19
_space_group_name_Hall           'P 2ac 2ab'
loop_
_symmetry_equiv_pos_site_id
_symmetry_equiv_pos_as_xyz
1 x,y,z
2 1/2+x,1/2-y,-z
3 -x,1/2+y,1/2-z
4 1/2-x,-y,1/2+z
_cell_length_a                   11.4955(11)
_cell_length_b                   15.5426(15)
_cell_length_c                   17.0679(16)
_cell_angle_alpha                90
_cell_angle_beta                 90
_cell_angle_gamma                90
_cell_volume                     3049.52
_exptl_crystal_colour            colorless
_exptl_crystal_description       block
_cell_formula_units_Z            4
loop_
_atom_site_label
_atom_site_type_symbol
_atom_site_fract_x
_atom_site_fract_y
_atom_site_fract_z
O1 O 0.6852(6) 0.3828(4) 0.2901(4)
O2 O 0.5380(7) 0.2208(4) 0.4886(4)
O3 O 1.0560(6) 0.7611(4) 0.3776(4)
O4 O 1.1636(7) 0.6435(5) 0.3831(4)
N1 N 0.5958(6) 0.2941(4) 0.3779(4)
C1 C 0.6822(8) 0.3519(6) 0.3548(5)
C2 C 0.7659(7) 0.3638(5) 0.4217(4)
C3 C 0.7699(7) 0.4599(5) 0.4518(4)
C4 C 0.8628(7) 0.4558(5) 0.5203(4)
C5 C 0.8119(8) 0.3978(5) 0.5876(5)
C6 C 0.6949(7) 0.3581(5) 0.5634(4)
C7 C 0.7189(8) 0.3056(5) 0.4871(5)
C8 C 0.6110(8) 0.2656(6) 0.4561(5)
C9 C 0.6119(8) 0.4309(5) 0.5415(5)
C10 C 0.6520(7) 0.4832(5) 0.4846(4)
C11 C 0.4979(9) 0.4391(7) 0.5880(6)
C12 C 0.4280(12) 0.5186(9) 0.5643(8)
C13 C 0.5275(12) 0.4466(8) 0.6780(8)
C14 C 0.8136(7) 0.5188(5) 0.3851(5)
C15 C 0.8603(7) 0.6060(5) 0.4140(5)
C16 C 0.9564(7) 0.5908(5) 0.4758(4)
C17 C 1.0317(8) 0.6719(5) 0.4907(5)
C18 C 1.1325(9) 0.6460(6) 0.5496(6)
C19 C 1.0820(9) 0.6061(7) 0.6272(6)
C20 C 1.0095(8) 0.5258(6) 0.6062(5)
C21 C 0.9073(8) 0.5455(5) 0.5503(5)
C22 C 0.9662(9) 0.7531(6) 0.5193(5)
C23 C 1.0919(8) 0.6898(6) 0.4132(5)
C24 C 1.1067(10) 0.7794(7) 0.3004(6)
C25 C 0.8135(8) 0.5983(5) 0.5932(5)
C26 C 0.5056(8) 0.2631(6) 0.3245(5)
C27 C 0.4013(9) 0.3084(7) 0.3260(6)
C28 C 0.3794(10) 0.3826(7) 0.3720(7)
C29 C 0.2736(13) 0.4255(9) 0.3681(8)
C30 C 0.1810(14) 0.3887(10) 0.3166(9)
C31 C 0.2020(13) 0.3176(9) 0.2740(8)
C32 C 0.3089(10) 0.2734(7) 0.2727(7)
C33 C 0.3375(11) 0.2016(8) 0.2272(7)
C34 C 0.4380(11) 0.1619(8) 0.2280(7)
C35 C 0.5327(10) 0.1916(7) 0.2788(6)
C36 C 0.6462(11) 0.1448(8) 0.2804(7)
loop_
_geom_bond_atom_site_label_1
_geom_bond_atom_site_label_2
_geom_bond_site_symmetry_1
_geom_bond_site_symmetry_2
O1 C1 1_555 1_555
O2 C8 1_555 1_555
O3 C23 1_555 1_555
O4 C23 1_555 1_555
N1 C1 1_555 1_555
C1 C2 1_555 1_555
C2 C3 1_555 1_555
C3 C4 1_555 1_555
C4 C5 1_555 1_555
C5 C6 1_555 1_555
C6 C7 1_555 1_555
C7 C2 1_555 1_555
C8 N1 1_555 1_555
C9 C6 1_555 1_555
C10 C3 1_555 1_555
C11 C9 1_555 1_555
C12 C11 1_555 1_555
C13 C11 1_555 1_555
C14 C3 1_555 1_555
C15 C14 1_555 1_555
C16 C15 1_555 1_555
C17 C16 1_555 1_555
C18 C17 1_555 1_555
C19 C18 1_555 1_555
C20 C19 1_555 1_555
C21 C4 1_555 1_555
C22 C17 1_555 1_555
C23 C17 1_555 1_555
C24 O3 1_555 1_555
C25 C21 1_555 1_555
C26 N1 1_555 1_555
C27 C26 1_555 1_555
C28 C27 1_555 1_555
C29 C28 1_555 1_555
C30 C29 1_555 1_555
C31 C30 1_555 1_555
C32 C27 1_555 1_555
C33 C32 1_555 1_555
C34 C33 1_555 1_555
C35 C26 1_555 1_555
C36 C35 1_555 1_555
C7 C8 1_555 1_555
C9 C10 1_555 1_555
C16 C21 1_555 1_555
C20 C21 1_555 1_555
C31 C32 1_555 1_555
C34 C35 1_555 1_555

#END
