
#######################################################################
#
#                 Cambridge Crystallographic Data Centre
#                                CCDC 
#
#######################################################################
#
# If this CIF has been generated from an entry in the Cambridge 
# Structural Database, then it will include bibliographic, chemical, 
# crystal, experimental, refinement or atomic coordinate data resulting 
# from the CCDC's data processing and validation procedures.
#
#######################################################################

data_FIQYOT02
_chemical_formula_moiety         'C23 H14 O1'
_chemical_name_systematic        5-phenyl-11H-benzo[b]fluoren-11-one
_symmetry_cell_setting           triclinic
_symmetry_space_group_name_H-M   'P -1'
_symmetry_Int_Tables_number      2
_space_group_name_Hall           '-P 1'
loop_
_symmetry_equiv_pos_site_id
_symmetry_equiv_pos_as_xyz
1 x,y,z
2 -x,-y,-z
_cell_length_a                   9.2794(6)
_cell_length_b                   9.3581(8)
_cell_length_c                   10.3916(7)
_cell_angle_alpha                70.052(2)
_cell_angle_beta                 68.8690(10)
_cell_angle_gamma                75.433(3)
_cell_volume                     782.658
_exptl_crystal_colour            yellow
_exptl_crystal_description       platelet
_cell_formula_units_Z            2
loop_
_atom_site_label
_atom_site_type_symbol
_atom_site_fract_x
_atom_site_fract_y
_atom_site_fract_z
C1 C 0.1651(4) 0.3618(5) -0.1705(4)
H1 H 0.1658 0.4129 -0.2647
C2 C 0.1262(4) 0.2165(6) -0.1073(4)
H2 H 0.1001 0.1686 -0.1593
C3 C 0.1252(4) 0.1404(5) 0.0326(4)
H3 H 0.0998 0.0413 0.0732
C4 C 0.1610(3) 0.2087(4) 0.1125(3)
H4 H 0.1585 0.1570 0.2070
C5 C 0.2007(3) 0.3545(3) 0.0515(3)
C6 C 0.2504(3) 0.4603(3) 0.1054(3)
C7 C 0.2650(3) 0.4450(3) 0.2344(3)
C8 C 0.3221(3) 0.5666(3) 0.2497(3)
C9 C 0.3411(3) 0.5581(3) 0.3798(3)
H5 H 0.3160 0.4730 0.4581
C10 C 0.3959(4) 0.6727(4) 0.3940(4)
H6 H 0.4077 0.6648 0.4814
C11 C 0.4340(4) 0.8009(4) 0.2788(5)
H7 H 0.4715 0.8784 0.2892
C12 C 0.4170(4) 0.8129(4) 0.1530(5)
H8 H 0.4434 0.8992 0.0766
C13 C 0.3602(3) 0.6989(3) 0.1330(3)
C14 C 0.3400(4) 0.7112(4) 0.0012(3)
H9 H 0.3626 0.7977 -0.0761
C15 C 0.2871(3) 0.5953(3) -0.0117(3)
C16 C 0.2570(4) 0.5821(4) -0.1362(3)
C17 C 0.2034(3) 0.4307(4) -0.0911(3)
C18 C 0.2211(3) 0.3070(3) 0.3601(3)
C19 C 0.0672(3) 0.2950(3) 0.4386(3)
H10 H -0.0106 0.3736 0.4140
C20 C 0.0264(3) 0.1680(4) 0.5533(3)
H11 H -0.0781 0.1622 0.6056
C21 C 0.1384(3) 0.0519(3) 0.5900(3)
H12 H 0.1111 -0.0337 0.6669
C22 C 0.2911(3) 0.0618(3) 0.5132(3)
H13 H 0.3680 -0.0180 0.5377
C23 C 0.3332(3) 0.1893(3) 0.3988(3)
H14 H 0.4381 0.1951 0.3481
O1 O 0.2733(3) 0.6764(3) -0.2550(2)
loop_
_geom_bond_atom_site_label_1
_geom_bond_atom_site_label_2
_geom_bond_site_symmetry_1
_geom_bond_site_symmetry_2
C1 H1 1_555 1_555
C2 C1 1_555 1_555
H2 C2 1_555 1_555
C3 C2 1_555 1_555
H3 C3 1_555 1_555
C4 C3 1_555 1_555
H4 C4 1_555 1_555
C5 C4 1_555 1_555
C6 C5 1_555 1_555
C7 C6 1_555 1_555
C8 C7 1_555 1_555
C9 C8 1_555 1_555
H5 C9 1_555 1_555
C10 C9 1_555 1_555
H6 C10 1_555 1_555
C11 C10 1_555 1_555
H7 C11 1_555 1_555
C12 C11 1_555 1_555
H8 C12 1_555 1_555
C13 C8 1_555 1_555
C14 C13 1_555 1_555
H9 C14 1_555 1_555
C15 C6 1_555 1_555
C16 C15 1_555 1_555
C17 C1 1_555 1_555
C18 C7 1_555 1_555
C19 C18 1_555 1_555
H10 C19 1_555 1_555
C20 C19 1_555 1_555
H11 C20 1_555 1_555
C21 C20 1_555 1_555
H12 C21 1_555 1_555
C22 C21 1_555 1_555
H13 C22 1_555 1_555
C23 C18 1_555 1_555
H14 C23 1_555 1_555
O1 C16 1_555 1_555
C5 C17 1_555 1_555
C12 C13 1_555 1_555
C14 C15 1_555 1_555
C16 C17 1_555 1_555
C22 C23 1_555 1_555

#END
