
#######################################################################
#
#                 Cambridge Crystallographic Data Centre
#                                CCDC 
#
#######################################################################
#
# If this CIF has been generated from an entry in the Cambridge 
# Structural Database, then it will include bibliographic, chemical, 
# crystal, experimental, refinement or atomic coordinate data resulting 
# from the CCDC's data processing and validation procedures.
#
#######################################################################

data_FIRKAT
_chemical_formula_moiety         'C22 H20 N2 O2'
_chemical_name_systematic        
2-amino-3-cyano-4-(4-methylphenyl)-6-methoxy-1,4,9,10-tetrahydrobenzo(f)chromene
_symmetry_cell_setting           triclinic
_symmetry_space_group_name_H-M   'P -1'
_symmetry_Int_Tables_number      2
_space_group_name_Hall           '-P 1'
loop_
_symmetry_equiv_pos_site_id
_symmetry_equiv_pos_as_xyz
1 x,y,z
2 -x,-y,-z
_cell_length_a                   10.120(1)
_cell_length_b                   13.127(1)
_cell_length_c                   15.203(2)
_cell_angle_alpha                67.841(9)
_cell_angle_beta                 80.81(1)
_cell_angle_gamma                77.58(1)
_cell_volume                     1819.79
_exptl_crystal_colour            'pale yellow'
_exptl_crystal_description       Block
_chemical_melting_point          '455-457 K'
_cell_formula_units_Z            4
_exptl_crystal_recrystallization_method '95% ethanol'
loop_
_atom_site_label
_atom_site_type_symbol
_atom_site_fract_x
_atom_site_fract_y
_atom_site_fract_z
O1 O 1.03938(11) 0.75192(9) 0.34767(7)
O2 O 0.61694(13) 0.35411(10) 0.65087(8)
N1 N 1.10946(14) 0.88351(12) 0.37855(10)
H1 H 1.1139 0.9220 0.4126
H2 H 1.1548 0.8962 0.3237
N2 N 0.95432(19) 0.87321(17) 0.61100(13)
C1 C 0.80178(15) 0.54717(12) 0.46026(11)
C2 C 0.73960(16) 0.48963(13) 0.54806(11)
H3 H 0.7441 0.5089 0.6003
C3 C 0.67107(17) 0.40421(13) 0.55984(11)
C4 C 0.66217(18) 0.37451(14) 0.48406(12)
H4 H 0.6151 0.3179 0.4913
C5 C 0.72502(19) 0.43085(14) 0.39638(12)
H5 H 0.7202 0.4105 0.3448
C6 C 0.79455(17) 0.51595(13) 0.38258(11)
C7 C 0.85354(18) 0.58153(14) 0.28534(11)
H6 H 0.7845 0.6429 0.2537
H7 H 0.8790 0.5338 0.2477
C8 C 0.97622(18) 0.62748(14) 0.28889(11)
H8 H 1.0552 0.5689 0.2980
H9 H 0.9929 0.6866 0.2286
C9 C 0.95641(16) 0.67210(12) 0.36769(11)
C10 C 0.87588(16) 0.63828(12) 0.44729(11)
C11 C 0.86618(16) 0.68453(13) 0.52573(11)
H10 H 0.9025 0.6236 0.5818
C12 C 0.95494(17) 0.77340(13) 0.49506(11)
C13 C 1.03157(16) 0.80331(13) 0.41118(12)
C14 C 0.72193(17) 0.73097(14) 0.55514(12)
C15 C 0.6703(2) 0.69747(16) 0.64955(13)
H11 H 0.7235 0.6443 0.6961
C16 C 0.5400(3) 0.7425(2) 0.67526(17)
H12 H 0.5074 0.7184 0.7392
C17 C 0.4583(2) 0.8206(2) 0.6103(2)
C18 C 0.5102(2) 0.85528(17) 0.51600(17)
H13 H 0.4572 0.9096 0.4700
C19 C 0.64049(18) 0.81040(15) 0.48880(13)
H14 H 0.6730 0.8345 0.4248
C20 C 0.95557(19) 0.82999(16) 0.55778(14)
C21 C 0.53530(19) 0.27291(15) 0.66697(13)
H15 H 0.4588 0.3060 0.6296
H16 H 0.5039 0.2451 0.7333
H17 H 0.5878 0.2125 0.6490
C22 C 0.3142(2) 0.8694(2) 0.6376(2)
H18 H 0.2741 0.9230 0.5815
H19 H 0.3163 0.9055 0.6817
H20 H 0.2613 0.8107 0.6669
O3 O 0.07179(12) 0.86934(10) -0.16338(8)
O4 O 0.29113(14) 1.00116(10) 0.20345(9)
N3 N -0.01072(15) 0.72073(13) -0.14975(11)
H24 H -0.0310 0.6550 -0.1210
H25 H -0.0289 0.7576 -0.2079
N4 N 0.04524(17) 0.52431(14) 0.09316(11)
C23 C 0.22779(16) 0.97112(13) -0.01308(12)
C24 C 0.23867(17) 0.95290(14) 0.08177(12)
H26 H 0.2126 0.8893 0.1291
C25 C 0.28753(19) 1.02754(15) 0.10714(13)
C26 C 0.3280(2) 1.12146(16) 0.03770(15)
H27 H 0.3612 1.1721 0.0541
C27 C 0.3185(2) 1.13915(16) -0.05716(15)
H28 H 0.3466 1.2021 -0.1041
C28 C 0.26892(18) 1.06688(14) -0.08402(13)
C29 C 0.2628(2) 1.08333(15) -0.18692(12)
H29 H 0.3443 1.0421 -0.2088
H30 H 0.2591 1.1618 -0.2255
C30 C 0.1396(2) 1.04398(14) -0.19954(13)
H31 H 0.0581 1.0953 -0.1914
H32 H 0.1461 1.0424 -0.2634
C31 C 0.13109(18) 0.93064(14) -0.12830(12)
C32 C 0.17274(16) 0.89377(13) -0.04175(12)
C33 C 0.16604(16) 0.77623(12) 0.02665(11)
H33 H 0.1174 0.7804 0.0867
C34 C 0.08551(16) 0.72165(14) -0.01374(12)
C35 C 0.04931(17) 0.76577(15) -0.10388(13)
C36 C 0.30634(16) 0.70769(12) 0.04787(11)
C37 C 0.34287(18) 0.65120(14) 0.13969(12)
H34 H 0.2812 0.6573 0.1906
C38 C 0.4689(2) 0.58595(15) 0.15764(13)
H35 H 0.4905 0.5489 0.2204
C39 C 0.56323(18) 0.57453(15) 0.08473(14)
C40 C 0.52717(19) 0.63080(15) -0.00729(14)
H36 H 0.5889 0.6240 -0.0580
C41 C 0.40152(18) 0.69687(14) -0.02575(12)
H37 H 0.3805 0.7347 -0.0885
C42 C 0.06142(18) 0.61295(17) 0.04415(12)
C43 C 0.3393(2) 1.07597(16) 0.23293(15)
H38 H 0.4317 1.0812 0.2071
H39 H 0.3350 1.0490 0.3013
H40 H 0.2839 1.1484 0.2103
C44 C 0.7000(2) 0.50239(19) 0.10419(16)
H41 H 0.7516 0.5047 0.0449
H42 H 0.6886 0.4269 0.1415
H43 H 0.7473 0.5294 0.1386
H21? H 0.2937 0.8365 0.7052
H22? H 0.2515 0.8540 0.6050
H23? H 0.3065 0.9487 0.6198
H44? H 0.7067 0.4693 0.1718
H45? H 0.7698 0.5471 0.0752
H46? H 0.7110 0.4446 0.0781
loop_
_geom_bond_atom_site_label_1
_geom_bond_atom_site_label_2
_geom_bond_site_symmetry_1
_geom_bond_site_symmetry_2
O1 C9 1_555 1_555
O2 C3 1_555 1_555
N1 H1 1_555 1_555
H2 N1 1_555 1_555
N2 C20 1_555 1_555
C1 C2 1_555 1_555
C2 H3 1_555 1_555
C3 C2 1_555 1_555
C4 C3 1_555 1_555
H4 C4 1_555 1_555
C5 C4 1_555 1_555
H5 C5 1_555 1_555
C6 C1 1_555 1_555
C7 C6 1_555 1_555
H6 C7 1_555 1_555
H7 C7 1_555 1_555
C8 C7 1_555 1_555
H8 C8 1_555 1_555
H9 C8 1_555 1_555
C9 C8 1_555 1_555
C10 C1 1_555 1_555
C11 C10 1_555 1_555
H10 C11 1_555 1_555
C12 C11 1_555 1_555
C13 O1 1_555 1_555
C14 C11 1_555 1_555
C15 C14 1_555 1_555
H11 C15 1_555 1_555
C16 C15 1_555 1_555
H12 C16 1_555 1_555
C17 C16 1_555 1_555
C18 C17 1_555 1_555
H13 C18 1_555 1_555
C19 C14 1_555 1_555
H14 C19 1_555 1_555
C20 C12 1_555 1_555
C21 O2 1_555 1_555
H15 C21 1_555 1_555
H16 C21 1_555 1_555
H17 C21 1_555 1_555
C22 C17 1_555 1_555
H18 C22 1_555 1_555
H19 C22 1_555 1_555
H20 C22 1_555 1_555
O3 C31 1_555 1_555
O4 C25 1_555 1_555
N3 H24 1_555 1_555
H25 N3 1_555 1_555
N4 C42 1_555 1_555
C23 C24 1_555 1_555
C24 H26 1_555 1_555
C25 C24 1_555 1_555
C26 C25 1_555 1_555
H27 C26 1_555 1_555
C27 C26 1_555 1_555
H28 C27 1_555 1_555
C28 C23 1_555 1_555
C29 C28 1_555 1_555
H29 C29 1_555 1_555
H30 C29 1_555 1_555
C30 C29 1_555 1_555
H31 C30 1_555 1_555
H32 C30 1_555 1_555
C31 C30 1_555 1_555
C32 C23 1_555 1_555
C33 C32 1_555 1_555
H33 C33 1_555 1_555
C34 C33 1_555 1_555
C35 O3 1_555 1_555
C36 C33 1_555 1_555
C37 C36 1_555 1_555
H34 C37 1_555 1_555
C38 C37 1_555 1_555
H35 C38 1_555 1_555
C39 C38 1_555 1_555
C40 C39 1_555 1_555
H36 C40 1_555 1_555
C41 C36 1_555 1_555
H37 C41 1_555 1_555
C42 C34 1_555 1_555
C43 O4 1_555 1_555
H38 C43 1_555 1_555
H39 C43 1_555 1_555
H40 C43 1_555 1_555
C44 C39 1_555 1_555
H41 C44 1_555 1_555
H42 C44 1_555 1_555
H43 C44 1_555 1_555
N1 C13 1_555 1_555
C5 C6 1_555 1_555
C9 C10 1_555 1_555
C12 C13 1_555 1_555
C18 C19 1_555 1_555
N3 C35 1_555 1_555
C27 C28 1_555 1_555
C31 C32 1_555 1_555
C34 C35 1_555 1_555
C40 C41 1_555 1_555

#END
