
#######################################################################
#
#                 Cambridge Crystallographic Data Centre
#                                CCDC 
#
#######################################################################
#
# If this CIF has been generated from an entry in the Cambridge 
# Structural Database, then it will include bibliographic, chemical, 
# crystal, experimental, refinement or atomic coordinate data resulting 
# from the CCDC's data processing and validation procedures.
#
#######################################################################

data_FIRPOL
_chemical_formula_moiety         'C16 H17 N2 O7 P1'
_chemical_name_systematic        
"trans-Thymidine-3',5'-cyclic phenyl monophosphate"
_symmetry_cell_setting           orthorhombic
_symmetry_space_group_name_H-M   'P 21 21 21'
_symmetry_Int_Tables_number      19
_space_group_name_Hall           'P 2ac 2ab'
loop_
_symmetry_equiv_pos_site_id
_symmetry_equiv_pos_as_xyz
1 x,y,z
2 1/2+x,1/2-y,-z
3 -x,1/2+y,1/2-z
4 1/2-x,-y,1/2+z
_cell_length_a                   10.241(2)
_cell_length_b                   12.375(3)
_cell_length_c                   13.725(4)
_cell_angle_alpha                90
_cell_angle_beta                 90
_cell_angle_gamma                90
_cell_volume                     1739.4
_chemical_melting_point          194-197deg.C
_cell_formula_units_Z            4
loop_
_atom_site_label
_atom_site_type_symbol
_atom_site_fract_x
_atom_site_fract_y
_atom_site_fract_z
P1 P 0.1289(1) -0.1830(1) 0.0440(1)
O1 O 0.0949(3) -0.1584(3) 0.1525(2)
C1 C 0.1741(4) -0.1099(4) 0.2279(3)
C2 C 0.2681(3) -0.0358(3) 0.1757(3)
O2 O 0.3677(3) 0.0034(3) 0.2372(2)
C3 C 0.4742(3) 0.0359(3) 0.1754(3)
C4 C 0.4506(4) -0.0167(3) 0.0752(3)
C5 C 0.3425(4) -0.0947(3) 0.0980(3)
O3 O 0.2558(3) -0.1171(2) 0.0176(2)
N1 N 0.5938(3) 0.0066(2) 0.2240(2)
C6 C 0.6586(4) 0.0855(3) 0.2759(3)
O4 O 0.6254(3) 0.1798(2) 0.2751(2)
N2 N 0.7647(3) 0.0493(3) 0.3252(3)
C7 C 0.8142(4) -0.0550(3) 0.3292(3)
O5 O 0.9134(3) -0.0749(3) 0.3764(3)
C8 C 0.7412(4) -0.1333(3) 0.2741(3)
C9 C 0.6352(4) -0.1001(3) 0.2263(3)
C10 C 0.7881(5) -0.2481(4) 0.2723(4)
O6 O 0.0186(3) -0.1255(3) -0.0168(2)
C11 C 0.0635(5) 0.0625(4) -0.0428(3)
C12 C 0.0280(6) 0.1692(4) -0.0273(4)
C13 C -0.0784(7) 0.1952(4) 0.0252(4)
C14 C -0.1521(7) 0.1161(5) 0.0618(5)
C15 C -0.1212(6) 0.0095(4) 0.0491(5)
C16 C -0.0124(4) -0.0160(3) -0.0020(3)
O7 O 0.1335(4) -0.2975(3) 0.0234(3)
H1 H 0.1210(4) -0.0698(4) 0.2717(3)
H2 H 0.2204(4) -0.1640(4) 0.2629(3)
H3 H 0.2142(3) 0.0203(3) 0.1511(3)
H4 H 0.5264(4) -0.0532(3) 0.0525(3)
H5 H 0.4240(4) 0.0352(3) 0.0282(3)
H6 H 0.3767(4) -0.1634(3) 0.1154(3)
H7 H 0.8111(3) 0.1021(3) 0.3617(3)
H8 H 0.5853(4) -0.1523(3) 0.1919(3)
H9 H 0.8647(5) -0.2544(4) 0.3110(4)
H10 H 0.8073(6) -0.2684(4) 0.2071(4)
H11 H 0.7221(5) -0.2941(4) 0.2977(4)
H12 H 0.1382(5) 0.0447(4) -0.0805(3)
H13 H 0.0801(6) 0.2252(4) -0.0543(4)
H14 H -0.1008(7) 0.2688(4) 0.0360(4)
H15 H -0.2282(7) 0.1343(5) 0.0978(5)
H16 H -0.1751(6) -0.0456(4) 0.0756(5)
loop_
_geom_bond_atom_site_label_1
_geom_bond_atom_site_label_2
_geom_bond_site_symmetry_1
_geom_bond_site_symmetry_2
P1 O1 1_555 1_555
O1 C1 1_555 1_555
C1 C2 1_555 1_555
C2 O2 1_555 1_555
O2 C3 1_555 1_555
C3 C4 1_555 1_555
C4 C5 1_555 1_555
C5 C2 1_555 1_555
O3 P1 1_555 1_555
N1 C3 1_555 1_555
C6 N1 1_555 1_555
O4 C6 1_555 1_555
N2 C6 1_555 1_555
C7 N2 1_555 1_555
O5 C7 1_555 1_555
C8 C7 1_555 1_555
C9 N1 1_555 1_555
C10 C8 1_555 1_555
O6 P1 1_555 1_555
C11 C12 1_555 1_555
C12 C13 1_555 1_555
C13 C14 1_555 1_555
C14 C15 1_555 1_555
C15 C16 1_555 1_555
C16 O6 1_555 1_555
O7 P1 1_555 1_555
H1 C1 1_555 1_555
H2 C1 1_555 1_555
H3 C2 1_555 1_555
H4 C4 1_555 1_555
H5 C4 1_555 1_555
H6 C5 1_555 1_555
H7 N2 1_555 1_555
H8 C9 1_555 1_555
H9 C10 1_555 1_555
H10 C10 1_555 1_555
H11 C10 1_555 1_555
H12 C11 1_555 1_555
H13 C12 1_555 1_555
H14 C13 1_555 1_555
H15 C14 1_555 1_555
H16 C15 1_555 1_555
C5 O3 1_555 1_555
C8 C9 1_555 1_555
C11 C16 1_555 1_555

#END
