
#######################################################################
#
#                 Cambridge Crystallographic Data Centre
#                                CCDC 
#
#######################################################################
#
# If this CIF has been generated from an entry in the Cambridge 
# Structural Database, then it will include bibliographic, chemical, 
# crystal, experimental, refinement or atomic coordinate data resulting 
# from the CCDC's data processing and validation procedures.
#
#######################################################################

data_FIRXUC
_chemical_formula_moiety         'C39 H24 N2'
_chemical_name_systematic        
4-[10-(9-phenyl-9H-carbazol-3-yl)anthracen-9-yl]benzonitrile
_symmetry_cell_setting           monoclinic
_symmetry_space_group_name_H-M   'P 21/c'
_symmetry_Int_Tables_number      14
_space_group_name_Hall           '-P 2ybc'
loop_
_symmetry_equiv_pos_site_id
_symmetry_equiv_pos_as_xyz
1 x,y,z
2 -x,1/2+y,1/2-z
3 -x,-y,-z
4 x,1/2-y,1/2+z
_cell_length_a                   33.7852(9)
_cell_length_b                   9.1188(2)
_cell_length_c                   8.6590(3)
_cell_angle_alpha                90
_cell_angle_beta                 95.866(3)
_cell_angle_gamma                90
_cell_volume                     2653.7
_cell_formula_units_Z            4
loop_
_atom_site_label
_atom_site_type_symbol
_atom_site_fract_x
_atom_site_fract_y
_atom_site_fract_z
N1 N 0.87826(4) 0.37772(16) 0.68747(16)
C1 C 0.84536(5) 0.58733(19) 0.74278(19)
C2 C 0.81940(5) 0.49892(19) 0.63644(19)
C3 C 0.84062(5) 0.37151(19) 0.60460(19)
C4 C 0.68520(5) 0.55287(19) 0.13963(19)
C5 C 0.72493(5) 0.45123(19) 0.3696(2)
C6 C 0.69012(5) 0.43569(19) 0.4433(2)
C7 C 0.65207(5) 0.47581(19) 0.3636(2)
C8 C 0.90969(5) 0.2734(2) 0.68574(19)
C9 C 0.78140(5) 0.52303(19) 0.56127(19)
H1 H 0.767310 0.607204 0.581818
C10 C 0.61125(5) 0.5844(2) 0.13167(19)
C11 C 0.88129(5) 0.50836(19) 0.77093(19)
C12 C 0.76482(5) 0.41972(19) 0.4552(2)
C13 C 0.65035(5) 0.53649(19) 0.2133(2)
C14 C 0.69074(5) 0.37849(19) 0.5977(2)
H2 H 0.714967 0.353089 0.651842
C15 C 0.72288(5) 0.50696(18) 0.21674(19)
C16 C 0.84183(5) 0.7241(2) 0.81108(19)
H3 H 0.818568 0.778423 0.791568
C17 C 0.75739(5) 0.5228(2) 0.1366(2)
H4 H 0.781888 0.492272 0.184523
C18 C 0.61713(5) 0.4510(2) 0.4394(2)
H5 H 0.592361 0.472874 0.387575
C19 C 0.82423(5) 0.26594(19) 0.5001(2)
H6 H 0.838063 0.180932 0.480324
N2 N 0.47479(5) 0.7732(2) -0.1777(2)
C20 C 0.68479(5) 0.6171(2) -0.0117(2)
H7 H 0.660801 0.649880 -0.062172
C21 C 0.91299(5) 0.5615(2) 0.8714(2)
H8 H 0.936374 0.507939 0.891696
C22 C 0.90837(5) 0.6961(2) 0.9392(2)
H9 H 0.928985 0.733506 1.007282
C23 C 0.53949(5) 0.6782(2) -0.0234(2)
C24 C 0.78649(5) 0.29299(19) 0.4269(2)
H10 H 0.775102 0.224427 0.356255
C25 C 0.90502(5) 0.1317(2) 0.7380(2)
H11 H 0.880848 0.101801 0.770120
C26 C 0.87345(5) 0.7779(2) 0.9084(2)
H12 H 0.871496 0.869603 0.953969
C27 C 0.75537(6) 0.5819(2) -0.0090(2)
H13 H 0.778266 0.589803 -0.059628
C28 C 0.59612(5) 0.7225(2) 0.1600(2)
H14 H 0.610128 0.783915 0.231876
C29 C 0.65677(5) 0.3606(2) 0.6668(2)
H15 H 0.658070 0.324923 0.767808
C30 C 0.61933(5) 0.3957(2) 0.5863(2)
H16 H 0.596177 0.380997 0.633814
C31 C 0.58969(5) 0.4931(2) 0.0249(2)
H17 H 0.599408 0.400333 0.005164
C32 C 0.94569(5) 0.3174(2) 0.6359(2)
H18 H 0.948585 0.412059 0.598739
C33 C 0.55390(5) 0.5393(2) -0.0521(2)
H19 H 0.539595 0.477523 -0.122766
C34 C 0.97278(6) 0.0787(2) 0.6959(2)
H20 H 0.994054 0.013575 0.701028
C35 C 0.71838(6) 0.6311(2) -0.0830(2)
H21 H 0.717213 0.673277 -0.181092
C36 C 0.93678(6) 0.0347(2) 0.7422(2)
H22 H 0.933739 -0.060931 0.776446
C37 C 0.56051(5) 0.7701(2) 0.0828(2)
H23 H 0.550779 0.862992 0.102099
C38 C 0.97725(5) 0.2197(2) 0.6418(2)
H24 H 1.001433 0.249080 0.609391
C39 C 0.50326(5) 0.7303(2) -0.1082(2)
loop_
_geom_bond_atom_site_label_1
_geom_bond_atom_site_label_2
_geom_bond_site_symmetry_1
_geom_bond_site_symmetry_2
N1 C3 1_555 1_555
C1 C2 1_555 1_555
C2 C3 1_555 1_555
C3 C19 1_555 1_555
C4 C13 1_555 1_555
C5 C6 1_555 1_555
C6 C7 1_555 1_555
C7 C13 1_555 1_555
C8 N1 1_555 1_555
C9 C2 1_555 1_555
H1 C9 1_555 1_555
C10 C13 1_555 1_555
C11 N1 1_555 1_555
C12 C5 1_555 1_555
C14 C6 1_555 1_555
H2 C14 1_555 1_555
C15 C4 1_555 1_555
C16 C1 1_555 1_555
H3 C16 1_555 1_555
C17 C15 1_555 1_555
H4 C17 1_555 1_555
C18 C7 1_555 1_555
H5 C18 1_555 1_555
C19 H6 1_555 1_555
N2 C39 1_555 1_555
C20 C4 1_555 1_555
H7 C20 1_555 1_555
C21 C11 1_555 1_555
H8 C21 1_555 1_555
C22 C21 1_555 1_555
H9 C22 1_555 1_555
C23 C33 1_555 1_555
C24 C12 1_555 1_555
H10 C24 1_555 1_555
C25 C8 1_555 1_555
H11 C25 1_555 1_555
C26 C16 1_555 1_555
H12 C26 1_555 1_555
C27 C17 1_555 1_555
H13 C27 1_555 1_555
C28 C10 1_555 1_555
H14 C28 1_555 1_555
C29 C14 1_555 1_555
H15 C29 1_555 1_555
C30 C18 1_555 1_555
H16 C30 1_555 1_555
C31 C10 1_555 1_555
H17 C31 1_555 1_555
C32 C8 1_555 1_555
H18 C32 1_555 1_555
C33 C31 1_555 1_555
H19 C33 1_555 1_555
C34 H20 1_555 1_555
C35 C20 1_555 1_555
H21 C35 1_555 1_555
C36 C25 1_555 1_555
H22 C36 1_555 1_555
C37 C23 1_555 1_555
H23 C37 1_555 1_555
C38 C32 1_555 1_555
H24 C38 1_555 1_555
C39 C23 1_555 1_555
C1 C11 1_555 1_555
C5 C15 1_555 1_555
C9 C12 1_555 1_555
C19 C24 1_555 1_555
C22 C26 1_555 1_555
C27 C35 1_555 1_555
C28 C37 1_555 1_555
C29 C30 1_555 1_555
C34 C36 1_555 1_555
C34 C38 1_555 1_555

#END
