
#######################################################################
#
#                 Cambridge Crystallographic Data Centre
#                                CCDC 
#
#######################################################################
#
# If this CIF has been generated from an entry in the Cambridge 
# Structural Database, then it will include bibliographic, chemical, 
# crystal, experimental, refinement or atomic coordinate data resulting 
# from the CCDC's data processing and validation procedures.
#
#######################################################################

data_FISBUF
_chemical_formula_moiety         'C22 H16 N4 O4 2+,2(Cl1 O4 1-)'
_chemical_name_systematic        
"N,N'-bis(3-Pyridiniomethyl)pyromellitic di-imide diperchlorate"
_symmetry_cell_setting           monoclinic
_symmetry_space_group_name_H-M   'C 2/c'
_symmetry_Int_Tables_number      15
_space_group_name_Hall           '-C 2yn'
loop_
_symmetry_equiv_pos_site_id
_symmetry_equiv_pos_as_xyz
1 x,y,z
2 1/2+x,1/2+y,z
3 -x,y,1/2-z
4 1/2-x,1/2+y,1/2-z
5 -x,-y,-z
6 1/2-x,1/2-y,-z
7 x,-y,1/2+z
8 1/2+x,1/2-y,1/2+z
_cell_length_a                   13.418(6)
_cell_length_b                   19.244(6)
_cell_length_c                   10.064(4)
_cell_angle_alpha                90.00
_cell_angle_beta                 110.266(8)
_cell_angle_gamma                90.00
_cell_volume                     2437.81
_cell_formula_units_Z            4
loop_
_atom_site_label
_atom_site_type_symbol
_atom_site_fract_x
_atom_site_fract_y
_atom_site_fract_z
Cl1 Cl 0.17783(8) 0.08493(4) 0.72175(11)
O3 O 0.1321(4) 0.1488(2) 0.7313(5)
O4 O 0.2864(4) 0.0909(3) 0.7482(6)
O5 O 0.1723(6) 0.0422(2) 0.8365(5)
O6 O 0.1251(4) 0.04824(18) 0.5941(4)
O1 O 0.1545(3) -0.37546(15) 0.3552(3)
O2 O -0.0902(3) -0.32009(14) 0.5557(3)
C1 C -0.0316(3) -0.35575(18) 0.5187(4)
C2 C -0.0232(3) -0.43313(17) 0.5164(4)
C3 C 0.0944(3) -0.38379(18) 0.4185(4)
N1 N 0.0455(3) -0.33001(14) 0.4660(3)
C4 C 0.0514(3) -0.44946(17) 0.4549(4)
C5 C 0.0958(3) -0.21196(17) 0.5700(4)
C6 C 0.0914(3) -0.14133(19) 0.5486(4)
H1 H 0.0670 -0.1237 0.4568
C7 C -0.0780(3) -0.48283(17) 0.5631(4)
H2 H -0.1287 -0.4715 0.6034
C8 C 0.1639(4) -0.1894(2) 0.8182(4)
H3 H 0.1881 -0.2056 0.9110
C9 C 0.1341(4) -0.23555(19) 0.7073(4)
H4 H 0.1398 -0.2831 0.7253
C10 C 0.1580(4) -0.1198(2) 0.7920(5)
H5 H 0.1789 -0.0881 0.8663
C11 C 0.0574(4) -0.25713(19) 0.4399(4)
H6 H -0.0106 -0.2395 0.3783
H7 H 0.1070 -0.2529 0.3894
N2 N 0.1218(3) -0.09801(15) 0.6582(4)
H8 H 0.1179 -0.0540 0.6420
O1D O -0.1545(3) -0.62454(15) 0.6448(3)
O2D O 0.0902(3) -0.67991(14) 0.4443(3)
C1D C 0.0316(3) -0.64425(18) 0.4813(4)
C2D C 0.0232(3) -0.56687(17) 0.4836(4)
C3D C -0.0944(3) -0.61621(18) 0.5815(4)
N1D N -0.0455(3) -0.66999(14) 0.5340(3)
C4D C -0.0514(3) -0.55054(17) 0.5451(4)
C5D C -0.0958(3) -0.78804(17) 0.4300(4)
C6D C -0.0914(3) -0.85867(19) 0.4514(4)
H1D H -0.0670 -0.8763 0.5432
C7D C 0.0780(3) -0.51717(17) 0.4369(4)
H2D H 0.1287 -0.5285 0.3966
C8D C -0.1639(4) -0.8106(2) 0.1818(4)
H3D H -0.1881 -0.7944 0.0890
C9D C -0.1341(4) -0.76445(19) 0.2927(4)
H4D H -0.1398 -0.7169 0.2747
C10D C -0.1580(4) -0.8802(2) 0.2080(5)
H5D H -0.1789 -0.9119 0.1337
C11D C -0.0574(4) -0.74287(19) 0.5601(4)
H6D H 0.0106 -0.7605 0.6217
H7D H -0.1070 -0.7471 0.6106
N2D N -0.1218(3) -0.90199(15) 0.3418(4)
H8D H -0.1179 -0.9460 0.3580
loop_
_geom_bond_atom_site_label_1
_geom_bond_atom_site_label_2
_geom_bond_site_symmetry_1
_geom_bond_site_symmetry_2
Cl1 O3 1_555 1_555
O1 C3 1_555 1_555
O2 C1 1_555 1_555
C1 C2 1_555 1_555
C2 C4 1_555 1_555
C3 N1 1_555 1_555
N1 C1 1_555 1_555
C4 C3 1_555 1_555
C5 C6 1_555 1_555
C6 H1 1_555 1_555
C7 C2 1_555 1_555
H2 C7 1_555 1_555
C8 H3 1_555 1_555
C9 C5 1_555 1_555
H4 C9 1_555 1_555
C10 C8 1_555 1_555
H5 C10 1_555 1_555
C11 N1 1_555 1_555
H6 C11 1_555 1_555
H7 C11 1_555 1_555
O4 Cl1 1_555 1_555
O5 Cl1 1_555 1_555
O6 Cl1 1_555 1_555
N2 C6 1_555 1_555
H8 N2 1_555 1_555
O1D C3D 1_555 1_555
O2D C1D 1_555 1_555
C1D C2D 1_555 1_555
C2D C4D 1_555 1_555
C3D N1D 1_555 1_555
N1D C1D 1_555 1_555
C4D C7 1_555 1_555
C5D C6D 1_555 1_555
C6D H1D 1_555 1_555
C7D C4 1_555 1_555
H2D C7D 1_555 1_555
C8D H3D 1_555 1_555
C9D C5D 1_555 1_555
H4D C9D 1_555 1_555
C10D C8D 1_555 1_555
H5D C10D 1_555 1_555
C11D N1D 1_555 1_555
H6D C11D 1_555 1_555
H7D C11D 1_555 1_555
N2D C6D 1_555 1_555
H8D N2D 1_555 1_555
C5 C11 1_555 1_555
C8 C9 1_555 1_555
C10 N2 1_555 1_555
C2D C7D 1_555 1_555
C3D C4D 1_555 1_555
C5D C11D 1_555 1_555
C8D C9D 1_555 1_555
C10D N2D 1_555 1_555

#END
