
#######################################################################
#
#                 Cambridge Crystallographic Data Centre
#                                CCDC 
#
#######################################################################
#
# If this CIF has been generated from an entry in the Cambridge 
# Structural Database, then it will include bibliographic, chemical, 
# crystal, experimental, refinement or atomic coordinate data resulting 
# from the CCDC's data processing and validation procedures.
#
#######################################################################

data_FISHEU10
_chemical_formula_moiety         'C16 H24 O5'
_chemical_name_systematic        
3-Oxo-pyrano(3,2-b)oxepin-2-spiro-2'-(pyrano(3',2'-b)pyran)
_symmetry_cell_setting           monoclinic
_symmetry_space_group_name_H-M   'P 21'
_symmetry_Int_Tables_number      4
_space_group_name_Hall           'P 2yb'
loop_
_symmetry_equiv_pos_site_id
_symmetry_equiv_pos_as_xyz
1 x,y,z
2 -x,1/2+y,-z
_cell_length_a                   10.051(3)
_cell_length_b                   7.190(1)
_cell_length_c                   10.695(1)
_cell_angle_alpha                90
_cell_angle_beta                 99.47(2)
_cell_angle_gamma                90
_cell_volume                     762.359
_exptl_crystal_colour            colorless
_chemical_melting_point          104-105deg.C
_cell_formula_units_Z            2
loop_
_atom_site_label
_atom_site_type_symbol
_atom_site_fract_x
_atom_site_fract_y
_atom_site_fract_z
C1 C 0.8355(7) 0.2090 -0.1541(6)
C2 C 0.9023(6) 0.376(1) -0.0879(5)
C3 C 0.8047(5) 0.470(1) -0.0141(5)
C4 C 0.7572(5) 0.3330(8) 0.0725(4)
C5 C 0.7003(5) 0.158(1) 0.0058(4)
C6 C 0.6726(7) 0.003(1) 0.0914(6)
C7 C 0.5890(5) 0.0615(9) 0.1919(5)
C8 C 0.6701(5) 0.1884(8) 0.2892(5)
C9 C 0.6596(4) 0.3986(8) 0.2589(4)
C10 C 0.5329(5) 0.4782(9) 0.2984(4)
C11 C 0.5476(5) 0.5034(9) 0.4419(5)
C12 C 0.6696(5) 0.6245(8) 0.4825(4)
C13 C 0.7951(4) 0.5340(8) 0.4496(4)
C14 C 0.9136(5) 0.6639(8) 0.4832(5)
C15 C 0.9306(5) 0.7068(9) 0.6209(5)
C16 C 0.7979(5) 0.7747(9) 0.6596(4)
O1 O 0.6895(3) 0.6465(6) 0.6178(3)
O2 O 0.6501(3) 0.4201(6) 0.1283(3)
O3 O 0.7787(3) 0.4984(5) 0.3128(3)
O4 O 0.7958(4) 0.0807(8) -0.0684(3)
O5 O 0.7367(4) 0.1289(6) 0.3862(3)
H1 H 0.8332 0.2938 0.1341
H2 H 0.6187 0.1992 -0.0500
H3 H 0.6570 0.7395 0.4374
H4 H 0.8114 0.4193 0.4997
H5 H 0.7594 0.2504 -0.2120
H6 H 0.8976 0.1508 -0.2025
H7 H 0.9795 0.3314 -0.0267
H8 H 0.9345 0.4555 -0.1448
H9 H 0.8460 0.5736 0.0293
H10 H 0.7290 0.5131 -0.0760
H11 H 0.6270 -0.0988 0.0422
H12 H 0.7557 -0.0438 0.1358
H13 H 0.5069 0.1294 0.1497
H14 H 0.5526 -0.0450 0.2309
H15 H 0.5110 0.5915 0.2583
H16 H 0.4597 0.3905 0.2733
H17 H 0.4691 0.5626 0.4609
H18 H 0.5586 0.3860 0.4822
H19 H 0.9946 0.6031 0.4638
H20 H 0.8987 0.7723 0.4349
H21 H 0.9595 0.5936 0.6673
H22 H 0.9986 0.7968 0.6405
H23 H 0.8088 0.7853 0.7516
H24 H 0.7739 0.8928 0.6247
loop_
_geom_bond_atom_site_label_1
_geom_bond_atom_site_label_2
_geom_bond_site_symmetry_1
_geom_bond_site_symmetry_2
C1 C2 1_555 1_555
C2 C3 1_555 1_555
C3 C4 1_555 1_555
C4 C5 1_555 1_555
C5 C6 1_555 1_555
C6 C7 1_555 1_555
C7 C8 1_555 1_555
C8 C9 1_555 1_555
C9 C10 1_555 1_555
C10 C11 1_555 1_555
C11 C12 1_555 1_555
C12 C13 1_555 1_555
C13 C14 1_555 1_555
C14 C15 1_555 1_555
C15 C16 1_555 1_555
C16 O1 1_555 1_555
O1 C12 1_555 1_555
O2 C4 1_555 1_555
O3 C9 1_555 1_555
O4 C1 1_555 1_555
O5 C8 1_555 1_555
H1 C4 1_555 1_555
H2 C5 1_555 1_555
H3 C12 1_555 1_555
H4 C13 1_555 1_555
H5 C1 1_555 1_555
H6 C1 1_555 1_555
H7 C2 1_555 1_555
H8 C2 1_555 1_555
H9 C3 1_555 1_555
H10 C3 1_555 1_555
H11 C6 1_555 1_555
H12 C6 1_555 1_555
H13 C7 1_555 1_555
H14 C7 1_555 1_555
H15 C10 1_555 1_555
H16 C10 1_555 1_555
H17 C11 1_555 1_555
H18 C11 1_555 1_555
H19 C14 1_555 1_555
H20 C14 1_555 1_555
H21 C15 1_555 1_555
H22 C15 1_555 1_555
H23 C16 1_555 1_555
H24 C16 1_555 1_555
C5 O4 1_555 1_555
C9 O2 1_555 1_555
C13 O3 1_555 1_555

#END
