
#######################################################################
#
#                 Cambridge Crystallographic Data Centre
#                                CCDC 
#
#######################################################################
#
# If this CIF has been generated from an entry in the Cambridge 
# Structural Database, then it will include bibliographic, chemical, 
# crystal, experimental, refinement or atomic coordinate data resulting 
# from the CCDC's data processing and validation procedures.
#
#######################################################################

data_FISMOM
_chemical_formula_moiety         'C34 H40 O4'
_chemical_name_systematic        
'ethyl 2-[4-(3,5-di-t-butyl-4-hydroxyphenyl)-3,4-dihydro-2H-1-benzopyran-2-ylidene]-3-phenylpropanoate'
_symmetry_cell_setting           triclinic
_symmetry_space_group_name_H-M   'P -1'
_symmetry_Int_Tables_number      2
_space_group_name_Hall           '-P 1'
loop_
_symmetry_equiv_pos_site_id
_symmetry_equiv_pos_as_xyz
1 x,y,z
2 -x,-y,-z
_cell_length_a                   12.090(3)
_cell_length_b                   12.294(3)
_cell_length_c                   12.543(3)
_cell_angle_alpha                63.859(3)
_cell_angle_beta                 70.176(3)
_cell_angle_gamma                61.173(3)
_cell_volume                     1447.08
_exptl_crystal_colour            colorless
_exptl_crystal_description       block
_cell_formula_units_Z            2
loop_
_atom_site_label
_atom_site_type_symbol
_atom_site_fract_x
_atom_site_fract_y
_atom_site_fract_z
O1 O 0.55218(17) 0.66971(18) 0.30797(18)
O2 O 0.11490(18) 0.30319(18) 0.31122(19)
H1 H 0.150376 0.222524 0.333761
O3 O 0.1896(2) 1.0390(2) 0.3480(3)
O4 O 0.18656(18) 0.95087(19) 0.23002(19)
C1 C 0.6078(2) 0.5371(3) 0.3194(2)
C2 C 0.7397(3) 0.4802(3) 0.3062(3)
H2 H 0.786100 0.530898 0.285050
C3 C 0.8009(3) 0.3474(3) 0.3250(3)
H3 H 0.889593 0.307401 0.317934
C4 C 0.7324(3) 0.2729(3) 0.3541(3)
H4 H 0.774326 0.182764 0.367573
C5 C 0.6010(3) 0.3328(3) 0.3633(2)
H5 H 0.555176 0.282375 0.381362
C6 C 0.5359(2) 0.4660(3) 0.3462(2)
C7 C 0.3921(2) 0.5390(3) 0.3574(2)
H6 H 0.360796 0.543687 0.438875
C8 C 0.3631(3) 0.6799(3) 0.2709(3)
H7 H 0.394838 0.679745 0.188769
H8 H 0.271264 0.730008 0.278721
C9 C 0.4245(2) 0.7430(3) 0.2975(2)
C10 C 0.3754(3) 0.8599(3) 0.3128(2)
C11 C 0.4525(3) 0.9005(3) 0.3495(2)
H9 H 0.519855 0.821675 0.389407
H10 H 0.397317 0.944710 0.407555
C12 C 0.5128(2) 0.9906(3) 0.2471(2)
C13 C 0.5690(3) 0.9693(3) 0.1385(3)
H11 H 0.563912 0.903238 0.125190
C14 C 0.6330(4) 1.0453(4) 0.0491(3)
H12 H 0.670630 1.030570 -0.024084
C15 C 0.6406(4) 1.1426(4) 0.0690(3)
H13 H 0.685299 1.192396 0.009762
C16 C 0.5836(3) 1.1664(3) 0.1740(3)
H14 H 0.587733 1.233434 0.186429
C17 C 0.5192(3) 1.0911(3) 0.2627(3)
H15 H 0.479374 1.108674 0.334363
C18 C 0.2439(3) 0.9565(3) 0.2998(3)
C19 C 0.0571(3) 1.0483(3) 0.2152(4)
H16 H 0.054643 1.136208 0.189129
H17 H -0.000219 1.033626 0.291076
C20 C 0.0171(4) 1.0353(5) 0.1245(4)
H18 H 0.070578 1.056238 0.048341
H19 H -0.070286 1.094852 0.117341
H20 H 0.025022 0.946500 0.148669
C21 C 0.3230(2) 0.4717(3) 0.3431(2)
C22 C 0.2683(2) 0.3960(2) 0.4440(2)
H21 H 0.278735 0.384054 0.519011
C23 C 0.1984(2) 0.3365(2) 0.4390(2)
C24 C 0.1877(2) 0.3548(2) 0.3237(2)
C25 C 0.2421(3) 0.4306(3) 0.2177(2)
C26 C 0.3098(2) 0.4870(3) 0.2314(2)
H22 H 0.347750 0.536928 0.162845
C27 C 0.2217(3) 0.4583(3) 0.0921(3)
C28 C 0.0792(3) 0.5427(4) 0.0820(3)
H23 H 0.029005 0.494273 0.140299
H24 H 0.066143 0.563873 0.002652
H25 H 0.053674 0.622541 0.096667
C29 C 0.2623(3) 0.3316(3) 0.0666(3)
H26 H 0.350535 0.277421 0.075040
H27 H 0.251461 0.354045 -0.013850
H28 H 0.210354 0.284183 0.122744
C30 C 0.2987(4) 0.5352(4) -0.0075(3)
H29 H 0.268446 0.620367 -0.001086
H30 H 0.288425 0.545736 -0.084558
H31 H 0.387513 0.487768 0.000588
C31 C 0.1376(2) 0.2556(3) 0.5560(2)
C32 C 0.2113(3) 0.1096(3) 0.5731(3)
H32 H 0.198272 0.090789 0.512732
H33 H 0.181362 0.058957 0.651431
H34 H 0.300797 0.086898 0.565847
C33 C -0.0037(3) 0.2965(4) 0.5576(3)
H35 H -0.045884 0.390888 0.532919
H36 H -0.042305 0.258682 0.637580
H37 H -0.011668 0.265828 0.503354
C34 C 0.1442(4) 0.2742(4) 0.6663(3)
H38 H 0.232071 0.244067 0.672364
H39 H 0.103878 0.224341 0.737503
H40 H 0.100844 0.365919 0.658260
loop_
_geom_bond_atom_site_label_1
_geom_bond_atom_site_label_2
_geom_bond_site_symmetry_1
_geom_bond_site_symmetry_2
O1 C1 1_555 1_555
O2 H1 1_555 1_555
O3 C18 1_555 1_555
O4 C18 1_555 1_555
C1 C2 1_555 1_555
C2 H2 1_555 1_555
C3 C2 1_555 1_555
H3 C3 1_555 1_555
C4 C3 1_555 1_555
H4 C4 1_555 1_555
C5 C4 1_555 1_555
H5 C5 1_555 1_555
C6 C1 1_555 1_555
C7 C6 1_555 1_555
H6 C7 1_555 1_555
C8 C7 1_555 1_555
H7 C8 1_555 1_555
H8 C8 1_555 1_555
C9 O1 1_555 1_555
C10 C9 1_555 1_555
C11 C10 1_555 1_555
H9 C11 1_555 1_555
H10 C11 1_555 1_555
C12 C11 1_555 1_555
C13 C12 1_555 1_555
H11 C13 1_555 1_555
C14 C13 1_555 1_555
H12 C14 1_555 1_555
C15 C14 1_555 1_555
H13 C15 1_555 1_555
C16 C15 1_555 1_555
H14 C16 1_555 1_555
C17 C12 1_555 1_555
H15 C17 1_555 1_555
C18 C10 1_555 1_555
C19 O4 1_555 1_555
H16 C19 1_555 1_555
H17 C19 1_555 1_555
C20 C19 1_555 1_555
H18 C20 1_555 1_555
H19 C20 1_555 1_555
H20 C20 1_555 1_555
C21 C7 1_555 1_555
C22 C21 1_555 1_555
H21 C22 1_555 1_555
C23 C22 1_555 1_555
C24 O2 1_555 1_555
C25 C24 1_555 1_555
C26 C21 1_555 1_555
H22 C26 1_555 1_555
C27 C25 1_555 1_555
C28 C27 1_555 1_555
H23 C28 1_555 1_555
H24 C28 1_555 1_555
H25 C28 1_555 1_555
C29 C27 1_555 1_555
H26 C29 1_555 1_555
H27 C29 1_555 1_555
H28 C29 1_555 1_555
C30 C27 1_555 1_555
H29 C30 1_555 1_555
H30 C30 1_555 1_555
H31 C30 1_555 1_555
C31 C23 1_555 1_555
C32 C31 1_555 1_555
H32 C32 1_555 1_555
H33 C32 1_555 1_555
H34 C32 1_555 1_555
C33 C31 1_555 1_555
H35 C33 1_555 1_555
H36 C33 1_555 1_555
H37 C33 1_555 1_555
C34 C31 1_555 1_555
H38 C34 1_555 1_555
H39 C34 1_555 1_555
H40 C34 1_555 1_555
C5 C6 1_555 1_555
C8 C9 1_555 1_555
C16 C17 1_555 1_555
C23 C24 1_555 1_555
C25 C26 1_555 1_555

#END
