
#######################################################################
#
#                 Cambridge Crystallographic Data Centre
#                                CCDC 
#
#######################################################################
#
# If this CIF has been generated from an entry in the Cambridge 
# Structural Database, then it will include bibliographic, chemical, 
# crystal, experimental, refinement or atomic coordinate data resulting 
# from the CCDC's data processing and validation procedures.
#
#######################################################################

data_FISPAB
_chemical_name_common            
N-(1-hydroxy-3-phenylpropan-2-yl)-3,4-dihydro-1,4-epoxynaphthalene-1(2H)-carboxamide
_chemical_formula_moiety         'C20 H21 N1 O3'
_chemical_name_systematic        
(1S,2S,3R,4R)-N-((S)-1-Hydroxy-3-phenylpropan-2-yl)-3,4-dihydro-1,4-epoxynaphthalene-2,3-d2-1(2H)-carboxamide
_symmetry_cell_setting           monoclinic
_symmetry_space_group_name_H-M   'P 21'
_symmetry_Int_Tables_number      4
_space_group_name_Hall           'P 2yb'
loop_
_symmetry_equiv_pos_site_id
_symmetry_equiv_pos_as_xyz
1 x,y,z
2 -x,1/2+y,-z
_cell_length_a                   11.0031(2)
_cell_length_b                   5.1867(1)
_cell_length_c                   29.2704(7)
_cell_angle_alpha                90
_cell_angle_beta                 94.0801(12)
_cell_angle_gamma                90
_cell_volume                     1666.22
_exptl_crystal_colour            colorless
_exptl_crystal_description       prism
_chemical_melting_point          '423 K'
_cell_formula_units_Z            4
loop_
_atom_site_label
_atom_site_type_symbol
_atom_site_fract_x
_atom_site_fract_y
_atom_site_fract_z
O1 O 0.7443(3) 0.5491(6) 0.81549(10)
O2 O 0.6096(3) 0.0270(5) 0.87423(10)
O3 O 0.8862(3) -0.0536(6) 0.69883(9)
H1 H 0.891(4) 0.108(12) 0.6921(18)
N1 N 0.7588(3) 0.1132(6) 0.80921(10)
H2 H 0.729(4) -0.043(11) 0.8192(17)
C1 C 0.7175(3) 0.3307(7) 0.82688(12)
C2 C 0.6315(4) 0.2956(7) 0.86476(12)
C3 C 0.5000(4) 0.3991(9) 0.85542(14)
H3 H 0.495086 0.585847 0.862010
H4 H 0.468439 0.366334 0.823426
C4 C 0.4313(4) 0.2372(11) 0.88984(17)
H5 H 0.394056 0.348399 0.912529
H6 H 0.367192 0.129323 0.873943
C5 C 0.5348(4) 0.0701(9) 0.91263(15)
H7 H 0.507443 -0.089990 0.927931
C6 C 0.6162(4) 0.2428(9) 0.94235(14)
C7 C 0.6327(5) 0.2874(10) 0.98934(15)
H8 H 0.590113 0.188814 1.010396
C8 C 0.7130(5) 0.4792(11) 1.00437(14)
H9 H 0.726089 0.511651 1.036284
C9 C 0.7748(5) 0.6254(11) 0.97378(16)
H10 H 0.829678 0.755465 0.985143
C10 C 0.7577(4) 0.5847(9) 0.92658(15)
H11 H 0.798989 0.685983 0.905517
C11 C 0.6787(3) 0.3921(8) 0.91192(12)
C12 C 0.8511(3) 0.1105(7) 0.77560(12)
H12 H 0.864029 0.290716 0.764800
C13 C 0.8056(3) -0.0540(8) 0.73502(11)
H13 H 0.794895 -0.233509 0.745527
H14 H 0.724834 0.010575 0.723023
C14 C 0.9721(3) 0.0070(8) 0.79828(13)
H15 H 0.957782 -0.166928 0.810755
H16 H 1.031251 -0.011004 0.774525
C15 C 1.028(2) 0.175(4) 0.8364(3)
C16 C 0.9960(12) 0.138(2) 0.8809(2)
H17 H 0.943676 -0.000518 0.887491
C17 C 1.0392(10) 0.300(2) 0.9160(3)
H18 H 1.015535 0.275387 0.946262
C18 C 1.1176(10) 0.4975(18) 0.9061(3)
H19 H 1.148123 0.608278 0.930115
C19 C 1.1526(9) 0.5380(18) 0.8622(4)
H20 H 1.205891 0.675324 0.855707
C20 C 1.1077(13) 0.372(2) 0.8279(3)
H21 H 1.132672 0.394373 0.797720
O4 O 0.5031(3) 0.9947(6) 0.60158(10)
O5 O 0.3416(2) 0.4551(5) 0.54959(9)
O6 O 0.8328(2) 0.4452(6) 0.66658(9)
H29 H 0.858(4) 0.603(10) 0.6706(15)
N2 N 0.5247(3) 0.5610(7) 0.60971(11)
H30 H 0.493(4) 0.418(10) 0.6037(14)
C27 C 0.4712(3) 0.7743(7) 0.59210(12)
C28 C 0.3636(3) 0.7270(7) 0.55767(13)
C29 C 0.3748(3) 0.8279(8) 0.50823(13)
H31 H 0.457770 0.800869 0.498059
H32 H 0.353384 1.012924 0.505484
C30 C 0.2794(4) 0.6553(9) 0.48112(13)
H33 H 0.213357 0.760002 0.465704
H34 H 0.317790 0.548947 0.458034
C31 C 0.2314(3) 0.4864(8) 0.51948(13)
H35 H 0.191328 0.321899 0.508837
C32 C 0.1557(3) 0.6565(8) 0.54807(13)
C33 C 0.0323(4) 0.6835(9) 0.55199(16)
H36 H -0.024849 0.576020 0.535233
C34 C -0.0059(4) 0.8741(10) 0.58139(16)
H37 H -0.090376 0.894444 0.585293
C35 C 0.0773(4) 1.0335(10) 0.60490(16)
H38 H 0.048787 1.163857 0.624285
C36 C 0.2023(4) 1.0077(8) 0.60086(14)
H39 H 0.259410 1.118185 0.616926
C37 C 0.2395(3) 0.8137(8) 0.57234(13)
C38 C 0.6180(3) 0.5686(7) 0.64785(12)
H40 H 0.636103 0.753155 0.655541
C39 C 0.7333(3) 0.4443(8) 0.63225(12)
H41 H 0.714925 0.263921 0.623128
H42 H 0.758333 0.537045 0.604890
C40 C 0.5712(3) 0.4363(8) 0.69049(13)
H43 H 0.546702 0.257463 0.682424
H44 H 0.638532 0.427542 0.714737
C41 C 0.4644(5) 0.574(3) 0.7091(5)
C42 C 0.3468(5) 0.5607(18) 0.6893(2)
H45 H 0.330745 0.458536 0.662564
C43 C 0.2515(6) 0.6925(19) 0.7073(3)
H46 H 0.170325 0.675527 0.694315
C44 C 0.2784(6) 0.8497(19) 0.7450(3)
H47 H 0.215325 0.950548 0.756466
C45 C 0.3946(6) 0.8641(18) 0.7663(3)
H48 H 0.410504 0.965409 0.793078
C46 C 0.4869(6) 0.7279(16) 0.7477(3)
H49 H 0.567485 0.739498 0.761481
H22? H 0.955766 -0.155149 0.814604
H23? H 1.027415 -0.034256 0.774060
C21? C 1.035(3) 0.193(5) 0.8316(3)
C22? C 1.0088(14) 0.201(3) 0.8771(3)
H24? H 0.951827 0.082252 0.887904
C23? C 1.0637(11) 0.379(2) 0.9073(3)
H25? H 1.046557 0.380758 0.938650
C24? C 1.1442(10) 0.555(2) 0.8906(4)
H26? H 1.180191 0.681942 0.910661
C25? C 1.1737(11) 0.551(2) 0.8454(4)
H27? H 1.232355 0.666629 0.834764
C26? C 1.1158(15) 0.373(3) 0.8160(4)
H28? H 1.131341 0.375031 0.784506
H50? H 0.555436 0.252131 0.683469
H51? H 0.635518 0.445036 0.715868
C47? C 0.4565(5) 0.557(4) 0.7060(8)
C48? C 0.3459(6) 0.443(2) 0.6919(4)
H52? H 0.345070 0.279759 0.677339
C49? C 0.2369(6) 0.565(2) 0.6988(4)
H53? H 0.161514 0.491219 0.687515
C50? C 0.2401(7) 0.796(2) 0.7225(5)
H54? H 0.165905 0.884924 0.726116
C51? C 0.3483(8) 0.901(2) 0.7411(5)
H55? H 0.348528 1.050105 0.759980
C52? C 0.4561(7) 0.7819(17) 0.7313(4)
H56? H 0.531496 0.856520 0.742235
loop_
_geom_bond_atom_site_label_1
_geom_bond_atom_site_label_2
_geom_bond_site_symmetry_1
_geom_bond_site_symmetry_2
O1 C1 1_555 1_555
O2 C2 1_555 1_555
O3 H1 1_555 1_555
N1 H2 1_555 1_555
C1 N1 1_555 1_555
C2 C1 1_555 1_555
C3 C2 1_555 1_555
H3 C3 1_555 1_555
H4 C3 1_555 1_555
C4 C3 1_555 1_555
H5 C4 1_555 1_555
H6 C4 1_555 1_555
C5 O2 1_555 1_555
H7 C5 1_555 1_555
C6 C5 1_555 1_555
C7 C6 1_555 1_555
H8 C7 1_555 1_555
C8 C7 1_555 1_555
H9 C8 1_555 1_555
C9 C8 1_555 1_555
H10 C9 1_555 1_555
C10 C9 1_555 1_555
H11 C10 1_555 1_555
C11 C2 1_555 1_555
C12 N1 1_555 1_555
H12 C12 1_555 1_555
C13 O3 1_555 1_555
H13 C13 1_555 1_555
H14 C13 1_555 1_555
C14 C12 1_555 1_555
H15 C14 1_555 1_555
H16 C14 1_555 1_555
C15 C14 1_555 1_555
C16 C15 1_555 1_555
H17 C16 1_555 1_555
C17 C16 1_555 1_555
H18 C17 1_555 1_555
C18 C17 1_555 1_555
H19 C18 1_555 1_555
C19 C18 1_555 1_555
H20 C19 1_555 1_555
C20 C15 1_555 1_555
H21 C20 1_555 1_555
O4 C27 1_555 1_555
O5 C28 1_555 1_555
O6 H29 1_555 1_555
N2 H30 1_555 1_555
C27 N2 1_555 1_555
C28 C27 1_555 1_555
C29 C28 1_555 1_555
H31 C29 1_555 1_555
H32 C29 1_555 1_555
C30 C29 1_555 1_555
H33 C30 1_555 1_555
H34 C30 1_555 1_555
C31 O5 1_555 1_555
H35 C31 1_555 1_555
C32 C31 1_555 1_555
C33 C32 1_555 1_555
H36 C33 1_555 1_555
C34 C33 1_555 1_555
H37 C34 1_555 1_555
C35 C34 1_555 1_555
H38 C35 1_555 1_555
C36 C35 1_555 1_555
H39 C36 1_555 1_555
C37 C28 1_555 1_555
C38 N2 1_555 1_555
H40 C38 1_555 1_555
C39 O6 1_555 1_555
H41 C39 1_555 1_555
H42 C39 1_555 1_555
C40 C38 1_555 1_555
H43 C40 1_555 1_555
H44 C40 1_555 1_555
C41 C40 1_555 1_555
C42 C41 1_555 1_555
H45 C42 1_555 1_555
C43 C42 1_555 1_555
H46 C43 1_555 1_555
C44 C43 1_555 1_555
H47 C44 1_555 1_555
C45 C44 1_555 1_555
H48 C45 1_555 1_555
C46 C41 1_555 1_555
H49 C46 1_555 1_555
C4 C5 1_555 1_555
C6 C11 1_555 1_555
C10 C11 1_555 1_555
C12 C13 1_555 1_555
C19 C20 1_555 1_555
C30 C31 1_555 1_555
C32 C37 1_555 1_555
C36 C37 1_555 1_555
C38 C39 1_555 1_555
C45 C46 1_555 1_555

#END
