
#######################################################################
#
#                 Cambridge Crystallographic Data Centre
#                                CCDC 
#
#######################################################################
#
# If this CIF has been generated from an entry in the Cambridge 
# Structural Database, then it will include bibliographic, chemical, 
# crystal, experimental, refinement or atomic coordinate data resulting 
# from the CCDC's data processing and validation procedures.
#
#######################################################################

data_FITBIW
_chemical_formula_moiety         'C13 H11 Cl1 N2 O2,C3 H7 N1 O1'
_chemical_name_systematic        
'2-(2-Methyl-3-chloroanilino)nicotinic acid N,N-dimethylformamide solvate'
_symmetry_cell_setting           triclinic
_symmetry_space_group_name_H-M   'P -1'
_symmetry_Int_Tables_number      2
_space_group_name_Hall           '-P 1'
loop_
_symmetry_equiv_pos_site_id
_symmetry_equiv_pos_as_xyz
1 x,y,z
2 -x,-y,-z
_cell_length_a                   8.4308(2)
_cell_length_b                   9.1449(2)
_cell_length_c                   11.1425(2)
_cell_angle_alpha                103.6358(8)
_cell_angle_beta                 93.1393(8)
_cell_angle_gamma                107.8451(9)
_cell_volume                     787.167
_exptl_crystal_colour            colorless
_exptl_crystal_description       block
_cell_formula_units_Z            2
loop_
_atom_site_label
_atom_site_type_symbol
_atom_site_fract_x
_atom_site_fract_y
_atom_site_fract_z
Cl1 Cl 0.13628(6) 0.26455(5) 1.30306(4)
N1 N 0.31625(16) 0.44951(16) 0.88387(12)
C1 C 0.19012(19) 0.33424(19) 0.80238(14)
C2 C 0.11805(19) 0.36059(19) 0.69394(14)
C3 C 0.1831(2) 0.51002(19) 0.67325(15)
H1 H 0.137580 0.531651 0.602060
C4 C 0.3138(2) 0.62770(19) 0.75578(15)
H2 H 0.360256 0.730167 0.742212
C5 C 0.3748(2) 0.5909(2) 0.85898(15)
H3 H 0.464303 0.671768 0.915870
C6 C -0.0234(2) 0.23344(19) 0.60882(14)
O1 O -0.07821(15) 0.09761(14) 0.61985(11)
O2 O -0.09017(14) 0.27874(13) 0.51904(10)
H4 H -0.169542 0.201079 0.474351
N2 N 0.13453(17) 0.19014(16) 0.82800(12)
H5 H 0.062633 0.111150 0.770111
C7 C 0.18212(19) 0.15561(18) 0.93991(14)
C8 C 0.14382(19) 0.23129(18) 1.05450(15)
C9 C 0.18658(19) 0.18301(19) 1.15756(14)
C10 C 0.26143(19) 0.06608(19) 1.15116(15)
H6 H 0.289711 0.037471 1.224071
C11 C 0.2939(2) -0.0079(2) 1.03612(15)
H7 H 0.343472 -0.089355 1.029425
C12 C 0.25440(19) 0.03664(19) 0.93085(15)
H8 H 0.276829 -0.014454 0.852129
C13 C 0.0552(2) 0.3528(2) 1.06335(16)
H9 H -0.016022 0.346709 1.129858
H10 H -0.014780 0.331109 0.983837
H11 H 0.138693 0.459685 1.082111
C14 C 0.3754(2) 0.0801(2) 0.58329(15)
H12 H 0.316510 0.072807 0.505785
N3 N 0.49063(17) 0.21868(16) 0.64099(12)
C15 C 0.5855(2) 0.2442(2) 0.76160(16)
H13 H 0.546620 0.147426 0.790382
H14 H 0.568308 0.333094 0.822009
H15 H 0.705420 0.269098 0.753569
C16 C 0.5297(2) 0.3516(2) 0.58457(17)
H16 H 0.454736 0.321549 0.506050
H17 H 0.646773 0.378606 0.568099
H18 H 0.513980 0.443983 0.641581
O3 O 0.33817(15) -0.04130(14) 0.62238(11)
loop_
_geom_bond_atom_site_label_1
_geom_bond_atom_site_label_2
_geom_bond_site_symmetry_1
_geom_bond_site_symmetry_2
Cl1 C9 1_555 1_555
N1 C1 1_555 1_555
C1 C2 1_555 1_555
C2 C3 1_555 1_555
C3 H1 1_555 1_555
C4 C3 1_555 1_555
H2 C4 1_555 1_555
C5 N1 1_555 1_555
H3 C5 1_555 1_555
C6 C2 1_555 1_555
O1 C6 1_555 1_555
O2 C6 1_555 1_555
H4 O2 1_555 1_555
N2 C1 1_555 1_555
H5 N2 1_555 1_555
C7 N2 1_555 1_555
C8 C7 1_555 1_555
C9 C8 1_555 1_555
C10 C9 1_555 1_555
H6 C10 1_555 1_555
C11 C10 1_555 1_555
H7 C11 1_555 1_555
C12 C7 1_555 1_555
H8 C12 1_555 1_555
C13 C8 1_555 1_555
H9 C13 1_555 1_555
H10 C13 1_555 1_555
H11 C13 1_555 1_555
C14 H12 1_555 1_555
N3 C14 1_555 1_555
C15 N3 1_555 1_555
H13 C15 1_555 1_555
H14 C15 1_555 1_555
H15 C15 1_555 1_555
C16 N3 1_555 1_555
H16 C16 1_555 1_555
H17 C16 1_555 1_555
H18 C16 1_555 1_555
O3 C14 1_555 1_555
C4 C5 1_555 1_555
C11 C12 1_555 1_555

#END
