
#######################################################################
#
#                 Cambridge Crystallographic Data Centre
#                                CCDC 
#
#######################################################################
#
# If this CIF has been generated from an entry in the Cambridge 
# Structural Database, then it will include bibliographic, chemical, 
# crystal, experimental, refinement or atomic coordinate data resulting 
# from the CCDC's data processing and validation procedures.
#
#######################################################################

data_FITMAY
_chemical_formula_moiety         'C34 H40 O6'
_chemical_name_systematic        
"1-(6-Hydroxy-6'-(2-(4-hydroxyphenyl)vinyl)-4,4',4',7-tetramethyl-3,3',4,4',4a,5,6,8a-octahydrospiro[chromene-2,2'-pyran]-5'-yl)-3-(4-hydroxyphenyl)propan-1-one unknown solvate"
_symmetry_cell_setting           monoclinic
_symmetry_space_group_name_H-M   'P 21'
_symmetry_Int_Tables_number      4
_space_group_name_Hall           'P 2yb'
loop_
_symmetry_equiv_pos_site_id
_symmetry_equiv_pos_as_xyz
1 x,y,z
2 -x,1/2+y,-z
_cell_length_a                   9.3544(2)
_cell_length_b                   28.8050(7)
_cell_length_c                   11.3634(3)
_cell_angle_alpha                90
_cell_angle_beta                 92.382(2)
_cell_angle_gamma                90
_cell_volume                     3059.26
_cell_formula_units_Z            4
loop_
_atom_site_label
_atom_site_type_symbol
_atom_site_fract_x
_atom_site_fract_y
_atom_site_fract_z
C1 C 0.5392(3) 0.21085(10) 0.7370(3)
C2 C 0.4768(3) 0.21124(11) 0.6270(3)
C3 C 0.3597(3) 0.17685(12) 0.5875(3)
C4 C 0.3369(3) 0.14258(11) 0.6868(3)
H1 H 0.2389 0.1297 0.6768
H2 H 0.4047 0.1165 0.6789
C5 C 0.3555(3) 0.16198(11) 0.8104(3)
C6 C 0.3457(3) 0.12455(12) 0.9038(3)
H3 H 0.4298 0.1039 0.8994
H4 H 0.2592 0.1056 0.8859
C7 C 0.3392(3) 0.14308(12) 1.0291(3)
H5 H 0.4325 0.1583 1.0514
C8 C 0.2201(3) 0.17937(12) 1.0334(3)
H6 H 0.1266 0.1631 1.0189
C9 C 0.2139(4) 0.20505(15) 1.1514(3)
H7 H 0.1321 0.2268 1.1478
H8 H 0.1974 0.1823 1.2146
C10 C 0.3487(4) 0.23161(16) 1.1816(3)
H9 H 0.4254 0.2091 1.2068
C11 C 0.3992(4) 0.25926(14) 1.0786(3)
C12 C 0.3485(4) 0.25127(12) 0.9690(3)
H10 H 0.3871 0.2687 0.9069
C13 C 0.2336(3) 0.21620(11) 0.9379(2)
H11 H 0.1410 0.2336 0.9337
C14 C 0.2218(3) 0.20345(15) 0.5535(3)
H12 H 0.1453 0.1813 0.5327
H13 H 0.2383 0.2236 0.4859
H14 H 0.1937 0.2224 0.6203
C15 C 0.4037(4) 0.14808(14) 0.4791(3)
H15 H 0.4996 0.1352 0.4944
H16 H 0.4040 0.1682 0.4096
H17 H 0.3352 0.1227 0.4651
C16 C 0.3140(4) 0.10327(14) 1.1152(3)
H18 H 0.3249 0.1148 1.1962
H19 H 0.3840 0.0786 1.1032
H20 H 0.2171 0.0910 1.1014
C17 C 0.5119(5) 0.2955(2) 1.1081(5)
H21 H 0.5365 0.3119 1.0360
H22 H 0.5975 0.2805 1.1428
H23 H 0.4747 0.3178 1.1644
C18 C 0.6637(3) 0.23922(12) 0.7704(3)
H24 H 0.7093 0.2550 0.7088
C19 C 0.7191(3) 0.24505(12) 0.8787(3)
H25 H 0.6753 0.2284 0.9398
C20 C 0.8395(4) 0.27421(13) 0.9129(3)
C21 C 0.9231(4) 0.29729(16) 0.8340(3)
H26 H 0.9053 0.2926 0.7520
C22 C 1.0330(5) 0.32727(16) 0.8718(4)
H27 H 1.0882 0.3428 0.8156
C23 C 1.0615(4) 0.33436(14) 0.9896(3)
C24 C 0.9807(4) 0.31156(14) 1.0711(3)
H28 H 0.9996 0.3164 1.1530
C25 C 0.8725(3) 0.28173(13) 1.0331(3)
H29 H 0.8190 0.2659 1.0898
C26 C 0.5144(3) 0.24763(12) 0.5415(3)
C27 C 0.4977(3) 0.29849(11) 0.5755(3)
H30 H 0.3944 0.3054 0.5802
H31 H 0.5424 0.3031 0.6552
C28 C 0.5626(4) 0.33337(12) 0.4922(3)
H32 H 0.5341 0.3245 0.4104
H33 H 0.5204 0.3642 0.5071
C29 C 0.7233(4) 0.33797(12) 0.5009(3)
C30 C 0.8122(4) 0.30645(14) 0.4474(4)
H34 H 0.7709 0.2804 0.4076
C31 C 0.9601(4) 0.31194(17) 0.4503(4)
H35 H 1.0189 0.2895 0.4148
C32 C 1.0211(4) 0.35070(16) 0.5057(4)
C33 C 0.9340(4) 0.38278(15) 0.5582(4)
H36 H 0.9747 0.4094 0.5959
C34 C 0.7874(4) 0.37600(14) 0.5555(3)
H37 H 0.7289 0.3982 0.5924
O1 O 0.4978(2) 0.18181(8) 0.82494(17)
O2 O 0.2513(2) 0.19672(8) 0.82247(17)
O3 O 0.3214(3) 0.26181(12) 1.2785(2)
H38 H 0.3890 0.2598 1.3293
O4 O 1.1681(3) 0.36407(12) 1.0245(3)
H39 H 1.2164 0.3711 0.9664
O5 O 0.5409(3) 0.23798(9) 0.43933(19)
O6 O 1.1673(3) 0.35627(13) 0.4999(3)
H40 H 1.1967 0.3744 0.5534
C35 C 0.9642(3) 0.56700(11) 0.4203(3)
C36 C 1.0305(3) 0.56664(12) 0.3161(3)
C37 C 1.1417(3) 0.60321(13) 0.2849(3)
C38 C 1.1594(3) 0.63801(12) 0.3875(3)
H41 H 1.2556 0.6522 0.3853
H42 H 1.0881 0.6631 0.3753
C39 C 1.1418(3) 0.61709(11) 0.5085(3)
C40 C 1.1494(3) 0.65361(12) 0.6049(3)
H43 H 1.0637 0.6737 0.5965
H44 H 1.2344 0.6734 0.5939
C41 C 1.1582(3) 0.63374(12) 0.7290(3)
H45 H 1.0673 0.6168 0.7434
C42 C 1.2842(3) 0.59877(12) 0.7376(3)
H46 H 1.3750 0.6163 0.7268
C43 C 1.2980(3) 0.57270(14) 0.8551(3)
H47 H 1.3815 0.5516 0.8541
H48 H 1.3153 0.5953 0.9197
C44 C 1.1650(4) 0.54465(14) 0.8788(3)
H49 H 1.0884 0.5665 0.9025
C45 C 1.1100(3) 0.51770(12) 0.7731(3)
C46 C 1.1555(3) 0.52729(11) 0.6656(3)
H50 H 1.1134 0.5106 0.6010
C47 C 1.2684(3) 0.56255(12) 0.6397(2)
H51 H 1.3612 0.5453 0.6395
C48 C 1.0921(4) 0.63171(15) 0.1755(3)
H52 H 1.0845 0.6113 0.1065
H53 H 1.1618 0.6563 0.1617
H54 H 0.9985 0.6456 0.1887
C49 C 1.2853(3) 0.57951(15) 0.2608(3)
H55 H 1.3194 0.5625 0.3311
H56 H 1.3559 0.6031 0.2412
H57 H 1.2719 0.5579 0.1947
C50 C 1.1768(4) 0.67273(15) 0.8194(4)
H58 H 1.2685 0.6883 0.8092
H59 H 1.1750 0.6597 0.8990
H60 H 1.0987 0.6952 0.8081
C51 C 0.9997(4) 0.48110(14) 0.7956(3)
H61 H 0.9505 0.4724 0.7210
H62 H 0.9299 0.4933 0.8496
H63 H 1.0467 0.4537 0.8308
C52 C 0.8380(3) 0.53894(11) 0.4426(3)
H64 H 0.7949 0.5224 0.3780
C53 C 0.7782(3) 0.53473(11) 0.5481(3)
H65 H 0.8218 0.5511 0.6128
C54 C 0.6518(3) 0.50701(11) 0.5703(3)
C55 C 0.5575(3) 0.49000(12) 0.4810(3)
H66 H 0.5729 0.4980 0.4014
C56 C 0.4431(3) 0.46193(12) 0.5062(3)
H67 H 0.3809 0.4510 0.4440
C57 C 0.4180(3) 0.44947(12) 0.6228(3)
C58 C 0.5080(3) 0.46699(12) 0.7126(3)
H68 H 0.4915 0.4593 0.7923
C59 C 0.6223(3) 0.49572(12) 0.6865(3)
H69 H 0.6815 0.5079 0.7490
C60 C 1.0017(3) 0.52985(13) 0.2283(3)
C61 C 1.0124(3) 0.47926(13) 0.2661(3)
H70 H 0.9672 0.4758 0.3428
H71 H 1.1147 0.4710 0.2779
C62 C 0.9417(4) 0.44472(14) 0.1780(3)
H72 H 0.9790 0.4505 0.0991
H73 H 0.9697 0.4128 0.2017
C63 C 0.7797(4) 0.44770(12) 0.1696(3)
C64 C 0.7079(4) 0.48040(16) 0.1014(4)
H74 H 0.7622 0.5024 0.0598
C65 C 0.5605(5) 0.48252(19) 0.0908(5)
H75 H 0.5154 0.5058 0.0432
C66 C 0.4799(5) 0.45133(17) 0.1484(5)
C67 C 0.5482(5) 0.41879(19) 0.2223(4)
H76 H 0.4925 0.3979 0.2662
C68 C 0.6977(5) 0.41651(14) 0.2326(3)
H77 H 0.7432 0.3939 0.2821
O7 O 1.0007(2) 0.59628(8) 0.51142(17)
O8 O 1.2479(2) 0.58274(8) 0.52456(17)
O9 O 1.1980(3) 0.51394(12) 0.9755(2)
H78 H 1.2696 0.4977 0.9603
O10 O 0.3087(3) 0.42016(10) 0.6440(2)
H79 H 0.3231 0.4076 0.7101
O11 O 0.9883(3) 0.53881(11) 0.1235(2)
O12 O 0.3340(3) 0.45139(16) 0.1414(5)
loop_
_geom_bond_atom_site_label_1
_geom_bond_atom_site_label_2
_geom_bond_site_symmetry_1
_geom_bond_site_symmetry_2
C1 C2 1_555 1_555
C2 C3 1_555 1_555
C3 C4 1_555 1_555
C4 H1 1_555 1_555
H2 C4 1_555 1_555
C5 C4 1_555 1_555
C6 C5 1_555 1_555
H3 C6 1_555 1_555
H4 C6 1_555 1_555
C7 C6 1_555 1_555
H5 C7 1_555 1_555
C8 C7 1_555 1_555
H6 C8 1_555 1_555
C9 C8 1_555 1_555
H7 C9 1_555 1_555
H8 C9 1_555 1_555
C10 C9 1_555 1_555
H9 C10 1_555 1_555
C11 C10 1_555 1_555
C12 C11 1_555 1_555
H10 C12 1_555 1_555
C13 C8 1_555 1_555
H11 C13 1_555 1_555
C14 C3 1_555 1_555
H12 C14 1_555 1_555
H13 C14 1_555 1_555
H14 C14 1_555 1_555
C15 C3 1_555 1_555
H15 C15 1_555 1_555
H16 C15 1_555 1_555
H17 C15 1_555 1_555
C16 C7 1_555 1_555
H18 C16 1_555 1_555
H19 C16 1_555 1_555
H20 C16 1_555 1_555
C17 C11 1_555 1_555
H21 C17 1_555 1_555
H22 C17 1_555 1_555
H23 C17 1_555 1_555
C18 C1 1_555 1_555
H24 C18 1_555 1_555
C19 C18 1_555 1_555
H25 C19 1_555 1_555
C20 C19 1_555 1_555
C21 C20 1_555 1_555
H26 C21 1_555 1_555
C22 C21 1_555 1_555
H27 C22 1_555 1_555
C23 C22 1_555 1_555
C24 C23 1_555 1_555
H28 C24 1_555 1_555
C25 C20 1_555 1_555
H29 C25 1_555 1_555
C26 C2 1_555 1_555
C27 C26 1_555 1_555
H30 C27 1_555 1_555
H31 C27 1_555 1_555
C28 C27 1_555 1_555
H32 C28 1_555 1_555
H33 C28 1_555 1_555
C29 C28 1_555 1_555
C30 C29 1_555 1_555
H34 C30 1_555 1_555
C31 C30 1_555 1_555
H35 C31 1_555 1_555
C32 C31 1_555 1_555
C33 C32 1_555 1_555
H36 C33 1_555 1_555
C34 C29 1_555 1_555
H37 C34 1_555 1_555
O1 C1 1_555 1_555
O2 C5 1_555 1_555
O3 C10 1_555 1_555
H38 O3 1_555 1_555
O4 C23 1_555 1_555
H39 O4 1_555 1_555
O5 C26 1_555 1_555
O6 C32 1_555 1_555
H40 O6 1_555 1_555
C35 C36 1_555 1_555
C36 C37 1_555 1_555
C37 C38 1_555 1_555
C38 H41 1_555 1_555
H42 C38 1_555 1_555
C39 C38 1_555 1_555
C40 C39 1_555 1_555
H43 C40 1_555 1_555
H44 C40 1_555 1_555
C41 C40 1_555 1_555
H45 C41 1_555 1_555
C42 C41 1_555 1_555
H46 C42 1_555 1_555
C43 C42 1_555 1_555
H47 C43 1_555 1_555
H48 C43 1_555 1_555
C44 C43 1_555 1_555
H49 C44 1_555 1_555
C45 C44 1_555 1_555
C46 C45 1_555 1_555
H50 C46 1_555 1_555
C47 C42 1_555 1_555
H51 C47 1_555 1_555
C48 C37 1_555 1_555
H52 C48 1_555 1_555
H53 C48 1_555 1_555
H54 C48 1_555 1_555
C49 C37 1_555 1_555
H55 C49 1_555 1_555
H56 C49 1_555 1_555
H57 C49 1_555 1_555
C50 C41 1_555 1_555
H58 C50 1_555 1_555
H59 C50 1_555 1_555
H60 C50 1_555 1_555
C51 C45 1_555 1_555
H61 C51 1_555 1_555
H62 C51 1_555 1_555
H63 C51 1_555 1_555
C52 C35 1_555 1_555
H64 C52 1_555 1_555
C53 C52 1_555 1_555
H65 C53 1_555 1_555
C54 C53 1_555 1_555
C55 C54 1_555 1_555
H66 C55 1_555 1_555
C56 C55 1_555 1_555
H67 C56 1_555 1_555
C57 C56 1_555 1_555
C58 C57 1_555 1_555
H68 C58 1_555 1_555
C59 C54 1_555 1_555
H69 C59 1_555 1_555
C60 C36 1_555 1_555
C61 C60 1_555 1_555
H70 C61 1_555 1_555
H71 C61 1_555 1_555
C62 C61 1_555 1_555
H72 C62 1_555 1_555
H73 C62 1_555 1_555
C63 C62 1_555 1_555
C64 C63 1_555 1_555
H74 C64 1_555 1_555
C65 C64 1_555 1_555
H75 C65 1_555 1_555
C66 C65 1_555 1_555
C67 C66 1_555 1_555
H76 C67 1_555 1_555
C68 C63 1_555 1_555
H77 C68 1_555 1_555
O7 C35 1_555 1_555
O8 C39 1_555 1_555
O9 C44 1_555 1_555
H78 O9 1_555 1_555
O10 C57 1_555 1_555
H79 O10 1_555 1_555
O11 C60 1_555 1_555
O12 C66 1_555 1_555
C5 O1 1_555 1_555
C12 C13 1_555 1_555
C13 O2 1_555 1_555
C24 C25 1_555 1_555
C33 C34 1_555 1_555
C39 O7 1_555 1_555
C46 C47 1_555 1_555
C47 O8 1_555 1_555
C58 C59 1_555 1_555
C67 C68 1_555 1_555

#END
