
#######################################################################
#
#                 Cambridge Crystallographic Data Centre
#                                CCDC 
#
#######################################################################
#
# If this CIF has been generated from an entry in the Cambridge 
# Structural Database, then it will include bibliographic, chemical, 
# crystal, experimental, refinement or atomic coordinate data resulting 
# from the CCDC's data processing and validation procedures.
#
#######################################################################

data_FITMUT
_chemical_formula_moiety         'C30 H25 N1 O2'
_chemical_name_systematic        
3'-(4-methylphenyl)-2',3-diphenylspiro[2-benzopyran-1,5'-[1,2]oxazolidine]
_symmetry_cell_setting           monoclinic
_symmetry_space_group_name_H-M   'P 21/c'
_symmetry_Int_Tables_number      14
_space_group_name_Hall           '-P 2ybc'
loop_
_symmetry_equiv_pos_site_id
_symmetry_equiv_pos_as_xyz
1 x,y,z
2 -x,1/2+y,1/2-z
3 -x,-y,-z
4 x,1/2-y,1/2+z
_cell_length_a                   5.7768(5)
_cell_length_b                   26.401(2)
_cell_length_c                   15.2336(14)
_cell_angle_alpha                90
_cell_angle_beta                 95.248(2)
_cell_angle_gamma                90
_cell_volume                     2313.59
_exptl_crystal_colour            yellow
_exptl_crystal_description       block
_cell_formula_units_Z            4
loop_
_atom_site_label
_atom_site_type_symbol
_atom_site_fract_x
_atom_site_fract_y
_atom_site_fract_z
N1 N -0.0779(5) 0.72411(8) 0.84659(15)
O1 O -0.2324(4) 0.70281(6) 0.90651(11)
O2 O 0.0289(4) 0.63851(7) 0.95428(11)
C1 C 0.1412(6) 0.73858(10) 0.89960(17)
H1 H 0.2712 0.7191 0.8799
C2 C 0.0990(6) 0.72293(9) 0.99394(16)
H2 H 0.2393 0.7092 1.0249
H3 H 0.0464 0.7515 1.0269
C3 C -0.0863(6) 0.68325(10) 0.98083(19)
C4 C -0.2430(6) 0.67262(11) 1.05161(18)
C5 C -0.2807(6) 0.70705(11) 1.1178(2)
H4 H -0.2027 0.7379 1.1208
C6 C -0.4337(7) 0.69543(13) 1.1791(2)
H5 H -0.4565 0.7182 1.2240
C7 C -0.5531(7) 0.65016(14) 1.1740(2)
H6 H -0.6596 0.6429 1.2145
C8 C -0.5150(7) 0.61567(12) 1.1091(2)
H7 H -0.5957 0.5851 1.1060
C9 C -0.3563(6) 0.62619(11) 1.04805(19)
C10 C -0.2920(6) 0.58900(11) 0.98432(19)
H8 H -0.3850 0.5606 0.9726
C11 C -0.1035(7) 0.59506(11) 0.94289(19)
C12 C 0.0083(7) 0.55825(11) 0.88681(18)
C13 C 0.1942(7) 0.57140(12) 0.8423(2)
H9 H 0.2514 0.6043 0.8467
C14 C 0.2987(7) 0.53665(14) 0.7908(2)
H10 H 0.4251 0.5461 0.7610
C15 C 0.2152(8) 0.48816(14) 0.7841(2)
H11 H 0.2845 0.4648 0.7491
C16 C 0.0326(9) 0.47412(13) 0.8280(2)
H12 H -0.0223 0.4410 0.8235
C17 C -0.0728(7) 0.50868(13) 0.8796(2)
H13 H -0.1985 0.4988 0.9096
C18 C -0.0574(7) 0.69160(10) 0.77343(19)
C19 C -0.2330(6) 0.65785(11) 0.74609(19)
H14 H -0.3621 0.6546 0.7779
C20 C -0.2153(8) 0.62903(12) 0.6711(2)
H15 H -0.3321 0.6060 0.6532
C21 C -0.0272(9) 0.63408(14) 0.6230(2)
H16 H -0.0162 0.6143 0.5731
C22 C 0.1447(7) 0.66828(13) 0.6484(2)
H17 H 0.2726 0.6718 0.6160
C23 C 0.1261(6) 0.69748(11) 0.7227(2)
H18 H 0.2397 0.7216 0.7386
C24 C 0.1926(6) 0.79438(11) 0.89437(17)
C25 C 0.4074(6) 0.81223(12) 0.92642(18)
H19 H 0.5239 0.7894 0.9454
C26 C 0.4528(7) 0.86356(14) 0.93088(19)
H20 H 0.5990 0.8747 0.9534
C27 C 0.2857(8) 0.89834(12) 0.9026(2)
C28 C 0.0729(7) 0.88042(12) 0.86931(19)
H21 H -0.0424 0.9033 0.8492
C29 C 0.0256(6) 0.82904(11) 0.86486(17)
H22 H -0.1202 0.8179 0.8418
C30 C 0.3386(7) 0.95480(11) 0.9090(2)
H23 H 0.4608 0.9606 0.9550
H24 H 0.2016 0.9728 0.9222
H25 H 0.3867 0.9666 0.8539
loop_
_geom_bond_atom_site_label_1
_geom_bond_atom_site_label_2
_geom_bond_site_symmetry_1
_geom_bond_site_symmetry_2
N1 O1 1_555 1_555
O1 C3 1_555 1_555
O2 C3 1_555 1_555
C1 N1 1_555 1_555
H1 C1 1_555 1_555
C2 C1 1_555 1_555
H2 C2 1_555 1_555
H3 C2 1_555 1_555
C3 C2 1_555 1_555
C4 C3 1_555 1_555
C5 C4 1_555 1_555
H4 C5 1_555 1_555
C6 C5 1_555 1_555
H5 C6 1_555 1_555
C7 C6 1_555 1_555
H6 C7 1_555 1_555
C8 C7 1_555 1_555
H7 C8 1_555 1_555
C9 C4 1_555 1_555
C10 C9 1_555 1_555
H8 C10 1_555 1_555
C11 O2 1_555 1_555
C12 C11 1_555 1_555
C13 C12 1_555 1_555
H9 C13 1_555 1_555
C14 C13 1_555 1_555
H10 C14 1_555 1_555
C15 C14 1_555 1_555
H11 C15 1_555 1_555
C16 C15 1_555 1_555
H12 C16 1_555 1_555
C17 C12 1_555 1_555
H13 C17 1_555 1_555
C18 N1 1_555 1_555
C19 C18 1_555 1_555
H14 C19 1_555 1_555
C20 C19 1_555 1_555
H15 C20 1_555 1_555
C21 C20 1_555 1_555
H16 C21 1_555 1_555
C22 C21 1_555 1_555
H17 C22 1_555 1_555
C23 C18 1_555 1_555
H18 C23 1_555 1_555
C24 C1 1_555 1_555
C25 C24 1_555 1_555
H19 C25 1_555 1_555
C26 C25 1_555 1_555
H20 C26 1_555 1_555
C27 C26 1_555 1_555
C28 C27 1_555 1_555
H21 C28 1_555 1_555
C29 C24 1_555 1_555
H22 C29 1_555 1_555
C30 C27 1_555 1_555
H23 C30 1_555 1_555
H24 C30 1_555 1_555
H25 C30 1_555 1_555
C8 C9 1_555 1_555
C10 C11 1_555 1_555
C16 C17 1_555 1_555
C22 C23 1_555 1_555
C28 C29 1_555 1_555

#END
