
#######################################################################
#
#                 Cambridge Crystallographic Data Centre
#                                CCDC 
#
#######################################################################
#
# If this CIF has been generated from an entry in the Cambridge 
# Structural Database, then it will include bibliographic, chemical, 
# crystal, experimental, refinement or atomic coordinate data resulting 
# from the CCDC's data processing and validation procedures.
#
#######################################################################

data_FITPUT
_chemical_formula_moiety         'C42 H40 O6,C9 H12 N1 O2 1+,Cl1 O4 1-,H2 O1'
_chemical_name_systematic        
"(R)-4,5,7,8,10,11,13,14,16,17-Decahydro-2,19-diphenyldinaphtho(2,1-q:1',2'-s)(1,4,7,10,13,16)hexaoxa(2,5,8,11,14,17,19)cycloicosaheptene D-2-phenylglycinium methyl ester perchlorate clathrate monohydrate"
_symmetry_cell_setting           orthorhombic
_symmetry_space_group_name_H-M   'P 21 21 21'
_symmetry_Int_Tables_number      19
_space_group_name_Hall           'P 2ac 2ab'
loop_
_symmetry_equiv_pos_site_id
_symmetry_equiv_pos_as_xyz
1 x,y,z
2 1/2+x,1/2-y,-z
3 -x,1/2+y,1/2-z
4 1/2-x,-y,1/2+z
_cell_length_a                   23.048(7)
_cell_length_b                   34.383(6)
_cell_length_c                   11.992(6)
_cell_angle_alpha                90
_cell_angle_beta                 90
_cell_angle_gamma                90
_cell_volume                     9503.17
_exptl_crystal_colour            colorless
_exptl_crystal_description       'cut needle'
_chemical_melting_point          420K
_cell_formula_units_Z            8
_exptl_crystal_recrystallization_method methanol
loop_
_atom_site_label
_atom_site_type_symbol
_atom_site_fract_x
_atom_site_fract_y
_atom_site_fract_z
C1 C 0.7311(3) 0.2966(2) 0.4886(7)
H1 H 0.7506 0.3168 0.5242
C2 C 0.7375(4) 0.2920(2) 0.3761(7)
H2 H 0.7603 0.3094 0.3358
C3 C 0.7098(4) 0.2612(2) 0.3214(7)
H3 H 0.7148 0.2575 0.2452
C4 C 0.6750(4) 0.2365(2) 0.3824(6)
H4 H 0.6556 0.2163 0.3466
C5 C 0.6687(3) 0.2413(2) 0.4955(6)
H5 H 0.6457 0.2239 0.5354
C6 C 0.6961(3) 0.2717(2) 0.5517(7)
C7 C 0.6888(3) 0.2789(2) 0.6732(6)
C8 C 0.6822(3) 0.3165(2) 0.7095(6)
H6 H 0.6820 0.3366 0.6577
C9 C 0.6756(3) 0.3254(2) 0.8241(6)
C10 C 0.6714(3) 0.3643(2) 0.8611(7)
H7 H 0.6730 0.3844 0.8093
C11 C 0.6650(4) 0.3730(2) 0.9717(6)
H8 H 0.6625 0.3988 0.9947
C12 C 0.6621(3) 0.3428(2) 1.0505(7)
H9 H 0.6573 0.3486 1.1256
C13 C 0.6662(3) 0.3046(2) 1.0173(6)
H10 H 0.6641 0.2849 1.0702
C14 C 0.6735(3) 0.2951(2) 0.9037(5)
C15 C 0.6816(3) 0.2560(2) 0.8658(6)
C16 C 0.6884(3) 0.2486(2) 0.7567(6)
O1 O 0.6970(2) 0.21010(12) 0.7224(4)
C17 C 0.7562(3) 0.2017(2) 0.6933(7)
H11 H 0.7825 0.2124 0.7484
H12 H 0.7656 0.2126 0.6210
C18 C 0.7606(3) 0.1579(2) 0.6906(7)
H13 H 0.7989 0.1506 0.6644
H14 H 0.7562 0.1479 0.7658
O2 O 0.7181(2) 0.14019(13) 0.6206(4)
C19 C 0.7290(3) 0.1451(2) 0.5038(6)
H15 H 0.7645 0.1319 0.4827
H16 H 0.7330 0.1725 0.4860
C20 C 0.6787(3) 0.1282(2) 0.4427(6)
H17 H 0.6861 0.1288 0.3631
H18 H 0.6732 0.1013 0.4650
O3 O 0.6276(2) 0.15005(14) 0.4673(4)
C21 C 0.5774(3) 0.1364(2) 0.4099(6)
H19 H 0.5668 0.1108 0.4372
H20 H 0.5855 0.1344 0.3307
C22 C 0.5292(3) 0.1642(2) 0.4290(7)
H21 H 0.5399 0.1897 0.4013
H22 H 0.4949 0.1556 0.3892
O4 O 0.5171(2) 0.16630(14) 0.5462(4)
C23 C 0.4698(3) 0.1926(2) 0.5691(7)
H23 H 0.4352 0.1842 0.5299
H24 H 0.4797 0.2186 0.5439
C24 C 0.4588(3) 0.1929(2) 0.6927(7)
H25 H 0.4255 0.2091 0.7093
H26 H 0.4506 0.1667 0.7182
O5 O 0.5096(2) 0.20781(14) 0.7497(5)
C25 C 0.4997(3) 0.2131(2) 0.8643(6)
H27 H 0.4863 0.1889 0.8974
H28 H 0.4701 0.2327 0.8757
C26 C 0.5557(3) 0.2256(2) 0.9180(6)
H29 H 0.5709 0.2484 0.8801
H30 H 0.5489 0.2324 0.9955
O6 O 0.5964(2) 0.19441(12) 0.9111(4)
C27 C 0.6470(3) 0.1972(2) 0.9747(5)
C28 C 0.6887(3) 0.2246(2) 0.9516(6)
C29 C 0.7424(3) 0.2234(2) 1.0115(6)
C30 C 0.7874(3) 0.2511(2) 0.9957(7)
H31 H 0.7829 0.2708 0.9432
C31 C 0.8375(3) 0.2491(2) 1.0573(7)
H32 H 0.8662 0.2677 1.0470
C32 C 0.8461(3) 0.2195(2) 1.1353(6)
H33 H 0.8803 0.2185 1.1765
C33 C 0.8040(3) 0.1919(2) 1.1508(6)
H34 H 0.8105 0.1717 1.2009
C34 C 0.7511(3) 0.1935(2) 1.0925(6)
C35 C 0.7066(3) 0.1666(2) 1.1132(6)
H35 H 0.7127 0.1472 1.1658
C36 C 0.6544(3) 0.1680(2) 1.0585(6)
C37 C 0.6090(3) 0.1388(2) 1.0876(6)
C38 C 0.5507(3) 0.1493(2) 1.1095(6)
H36 H 0.5394 0.1752 1.1022
C39 C 0.5106(3) 0.1221(2) 1.1413(6)
H37 H 0.4722 0.1293 1.1531
C40 C 0.5274(3) 0.0834(2) 1.1560(6)
H38 H 0.5006 0.0650 1.1801
C41 C 0.5836(4) 0.0726(2) 1.1349(7)
H39 H 0.5943 0.0467 1.1414
C42 C 0.6246(3) 0.1003(2) 1.1037(6)
H40 H 0.6630 0.0928 1.0935
C43 C 0.5014(3) 0.0779(2) 0.6655(7)
H41 H 0.5155 0.0711 0.5956
C44 C 0.4435(3) 0.0700(2) 0.6948(8)
H42 H 0.4191 0.0581 0.6434
C45 C 0.4222(3) 0.0798(2) 0.7986(8)
H43 H 0.3838 0.0743 0.8170
C46 C 0.4585(3) 0.0980(2) 0.8763(7)
H44 H 0.4447 0.1046 0.9467
C47 C 0.5160(3) 0.1060(2) 0.8459(7)
H45 H 0.5402 0.1184 0.8967
C48 C 0.5372(3) 0.0961(2) 0.7430(6)
C49 C 0.5989(3) 0.1063(2) 0.7106(6)
H46 H 0.6071 0.0951 0.6371
N1 N 0.6066(2) 0.1496(2) 0.7042(5)
H47 H 0.6412(9) 0.1550(2) 0.6753(39)
H48 H 0.6042(21) 0.1597(2) 0.7724(7)
H49 H 0.5790(13) 0.1598(2) 0.6613(34)
C50 C 0.6429(3) 0.0907(2) 0.7937(7)
O7 O 0.6726(2) 0.11054(14) 0.8516(4)
O8 O 0.6442(2) 0.05208(15) 0.7893(6)
C51 C 0.6847(4) 0.0328(2) 0.8657(9)
H50 H 0.6797(20) 0.0052(2) 0.8608(41)
H51 H 0.6770(19) 0.0412(15) 0.9406(10)
H52 H 0.7237(4) 0.0395(15) 0.8457(34)
C52 C 1.1974(3) 0.0186(2) 0.2335(7)
H53 H 1.2302 0.0110 0.2729
C53 C 1.1913(3) 0.0075(2) 0.1237(7)
H54 H 1.2202 -0.0070 0.0894
C54 C 1.1424(3) 0.0180(2) 0.0647(7)
H55 H 1.1382 0.0104 -0.0093
C55 C 1.0997(3) 0.0396(2) 0.1160(6)
H56 H 1.0667 0.0466 0.0762
C56 C 1.1055(3) 0.0509(2) 0.2259(6)
H57 H 1.0759 0.0651 0.2595
C57 C 1.1549(3) 0.0415(2) 0.2876(7)
C58 C 1.1656(3) 0.0544(2) 0.4030(6)
C59 C 1.2181(3) 0.0705(2) 0.4299(7)
H58 H 1.2450 0.0743 0.3733
C60 C 1.2333(3) 0.0814(2) 0.5384(7)
C61 C 1.2874(3) 0.1007(2) 0.5618(7)
H59 H 1.3130 0.1065 0.5042
C62 C 1.3009(3) 0.1103(2) 0.6691(7)
H60 H 1.3359 0.1228 0.6840
C63 C 1.2633(3) 0.1019(2) 0.7568(8)
H61 H 1.2738 0.1085 0.8292
C64 C 1.2106(3) 0.0837(2) 0.7379(7)
H62 H 1.1865 0.0774 0.7974
C65 C 1.1934(3) 0.0746(2) 0.6257(7)
C66 C 1.1374(3) 0.0594(2) 0.5984(6)
C67 C 1.1242(3) 0.0513(2) 0.4908(6)
O9 O 1.0665(2) 0.04193(12) 0.4669(4)
C68 C 1.0535(3) 0.0017(2) 0.4456(8)
H63 H 1.0723 -0.0148 0.5002
H64 H 1.0667 -0.0057 0.3719
C69 C 0.9885(3) -0.0020(2) 0.4540(9)
H65 H 0.9773 -0.0283 0.4348
H66 H 0.9767 0.0028 0.5304
O10 O 0.9586(2) 0.02497(13) 0.3811(5)
C70 C 0.9595(3) 0.0149(2) 0.2651(7)
H67 H 0.9382 -0.0091 0.2530
H68 H 0.9991 0.0111 0.2402
C71 C 0.9317(3) 0.0476(2) 0.2011(7)
H69 H 0.9282 0.0407 0.1230
H70 H 0.8932 0.0528 0.2301
O11 O 0.9668(2) 0.08071(14) 0.2125(4)
C72 C 0.9457(3) 0.1133(2) 0.1526(6)
H71 H 0.9081 0.1209 0.1816
H72 H 0.9411 0.1065 0.0745
C73 C 0.9870(4) 0.1461(2) 0.1632(6)
H73 H 1.0251 0.1382 0.1373
H74 H 0.9740 0.1678 0.1178
O12 O 0.9901(2) 0.15769(14) 0.2778(4)
C74 C 1.0264(3) 0.1909(2) 0.2914(7)
H75 H 1.0102 0.2128 0.2510
H76 H 1.0646 0.1855 0.2613
C75 C 1.0313(3) 0.2008(2) 0.4126(7)
H77 H 1.0554 0.2237 0.4221
H78 H 0.9932 0.2064 0.4429
O13 O 1.0564(2) 0.16852(13) 0.4696(4)
C76 C 1.0689(3) 0.1780(2) 0.5848(6)
H79 H 1.0338 0.1866 0.6220
H80 H 1.0972 0.1988 0.5883
C77 C 1.0922(3) 0.1427(2) 0.6411(7)
H81 H 1.1238 0.1317 0.5979
H82 H 1.1067 0.1493 0.7146
O14 O 1.0456(2) 0.11497(13) 0.6502(4)
C78 C 1.0529(3) 0.0812(2) 0.7134(6)
C79 C 1.0937(3) 0.0535(2) 0.6904(5)
C80 C 1.0922(3) 0.0169(2) 0.7468(6)
C81 C 1.1309(3) -0.0141(2) 0.7230(7)
H83 H 1.1602 -0.0106 0.6707
C82 C 1.1257(4) -0.0490(2) 0.7762(7)
H84 H 1.1514 -0.0690 0.7589
C83 C 1.0827(4) -0.0554(2) 0.8556(8)
H85 H 1.0804 -0.0793 0.8917
C84 C 1.0444(3) -0.0268(2) 0.8804(7)
H86 H 1.0152 -0.0316 0.9323
C85 C 1.0478(3) 0.0105(2) 0.8285(6)
C86 C 1.0095(3) 0.0405(2) 0.8533(6)
H87 H 0.9812 0.0362 0.9073
C87 C 1.0112(3) 0.0762(2) 0.8022(6)
C88 C 0.9692(4) 0.1067(3) 0.8332(7)
C89 C 0.9877(5) 0.1448(3) 0.8550(7)
H88 H 1.0267 0.1513 0.8495
C90 C 0.9461(5) 0.1734(3) 0.8856(7)
H89 H 0.9565 0.1994 0.8954
C91 C 0.8873(5) 0.1606(4) 0.9006(8)
H90 H 0.8597 0.1786 0.9237
C92 C 0.8699(4) 0.1233(3) 0.8828(8)
H91 H 0.8313 0.1160 0.8915
C93 C 0.9111(4) 0.0973(3) 0.8519(7)
H92 H 0.8999 0.0715 0.8425
C94 C 0.9155(3) 0.1664(2) 0.5960(6)
H93 H 0.9337 0.1507 0.6486
C95 C 0.9043(3) 0.2056(2) 0.6199(6)
H94 H 0.9159 0.2162 0.6878
C96 C 0.8759(3) 0.2287(2) 0.5420(6)
H95 H 0.8687 0.2548 0.5575
C97 C 0.8588(3) 0.2131(2) 0.4426(7)
H96 H 0.8390 0.2285 0.3915
C98 C 0.8705(3) 0.1743(2) 0.4168(6)
H97 H 0.8592 0.1640 0.3485
C99 C 0.8994(3) 0.1513(2) 0.4944(6)
C100 C 0.9118(3) 0.1094(2) 0.4668(6)
H98 H 0.8920 0.1034 0.3966
N2 N 0.9752(2) 0.1025(2) 0.4493(5)
H99 H 0.9806(3) 0.0789(6) 0.4207(38)
H100 H 0.9937(4) 0.1043(14) 0.5143(8)
H101 H 0.9892(5) 0.1203(9) 0.4024(32)
C101 C 0.8908(3) 0.0807(2) 0.5530(7)
O15 O 0.9218(2) 0.06103(15) 0.6092(5)
O16 O 0.8327(2) 0.0810(2) 0.5589(5)
C102 C 0.8062(4) 0.0559(3) 0.6419(8)
H102 H 0.7649(5) 0.0593(15) 0.6405(39)
H103 H 0.8207(22) 0.0626(13) 0.7145(11)
H104 H 0.8155(24) 0.0293(3) 0.6258(33)
Cl1 Cl 0.66440(9) 0.01254(5) 0.4372(2)
O17 O 0.7178(9) 0.0287(6) 0.4802(18)
O18 O 0.6168(4) 0.0333(2) 0.4805(10)
O19 O 0.6683(5) -0.0254(2) 0.4733(11)
O20 O 0.6608(6) 0.0099(4) 0.3164(9)
O21 O 0.7958(3) 0.0915(2) 0.2974(7)
O22 O 0.7432(4) 0.0455(2) 0.1498(8)
O23 O 1.3175(14) 0.1045(9) 1.0344(27)
Cl2 Cl 0.8483(2) 0.33241(10) 0.7379(3)
O24 O 0.8241(2) 0.29351(12) 0.7383(6)
O25 O 0.8040(3) 0.3601(2) 0.7057(8)
O26 O 0.8960(3) 0.3342(2) 0.6593(8)
O27 O 0.8694(5) 0.3419(2) 0.8487(5)
O28? O 0.7168(6) 0.0354(4) 0.4325(13)
Cl3? Cl 0.9087(4) 0.2968(2) 0.8110(7)
O29? O 0.9591(5) 0.2726(4) 0.8314(15)
O30? O 0.8586(5) 0.2723(5) 0.7904(17)
O31? O 0.8979(9) 0.3211(5) 0.9077(13)
O32? O 0.9192(8) 0.3212(5) 0.7145(13)
Cl4? Cl 0.8784(2) 0.3129(2) 0.7637(5)
O33? O 0.9261(3) 0.2859(4) 0.7486(18)
O34? O 0.8774(6) 0.3263(6) 0.8783(8)
O35? O 0.8859(6) 0.3458(4) 0.6896(15)
loop_
_geom_bond_atom_site_label_1
_geom_bond_atom_site_label_2
_geom_bond_site_symmetry_1
_geom_bond_site_symmetry_2
C1 H1 1_555 1_555
C2 C1 1_555 1_555
H2 C2 1_555 1_555
C3 C2 1_555 1_555
H3 C3 1_555 1_555
C4 C3 1_555 1_555
H4 C4 1_555 1_555
C5 C4 1_555 1_555
H5 C5 1_555 1_555
C6 C1 1_555 1_555
C7 C6 1_555 1_555
C8 C7 1_555 1_555
H6 C8 1_555 1_555
C9 C8 1_555 1_555
C10 C9 1_555 1_555
H7 C10 1_555 1_555
C11 C10 1_555 1_555
H8 C11 1_555 1_555
C12 C11 1_555 1_555
H9 C12 1_555 1_555
C13 C12 1_555 1_555
H10 C13 1_555 1_555
C14 C9 1_555 1_555
C15 C14 1_555 1_555
C16 C7 1_555 1_555
O1 C16 1_555 1_555
C17 O1 1_555 1_555
H11 C17 1_555 1_555
H12 C17 1_555 1_555
C18 C17 1_555 1_555
H13 C18 1_555 1_555
H14 C18 1_555 1_555
O2 C18 1_555 1_555
C19 O2 1_555 1_555
H15 C19 1_555 1_555
H16 C19 1_555 1_555
C20 C19 1_555 1_555
H17 C20 1_555 1_555
H18 C20 1_555 1_555
O3 C20 1_555 1_555
C21 O3 1_555 1_555
H19 C21 1_555 1_555
H20 C21 1_555 1_555
C22 C21 1_555 1_555
H21 C22 1_555 1_555
H22 C22 1_555 1_555
O4 C22 1_555 1_555
C23 O4 1_555 1_555
H23 C23 1_555 1_555
H24 C23 1_555 1_555
C24 C23 1_555 1_555
H25 C24 1_555 1_555
H26 C24 1_555 1_555
O5 C24 1_555 1_555
C25 O5 1_555 1_555
H27 C25 1_555 1_555
H28 C25 1_555 1_555
C26 C25 1_555 1_555
H29 C26 1_555 1_555
H30 C26 1_555 1_555
O6 C26 1_555 1_555
C27 O6 1_555 1_555
C28 C15 1_555 1_555
C29 C28 1_555 1_555
C30 C29 1_555 1_555
H31 C30 1_555 1_555
C31 C30 1_555 1_555
H32 C31 1_555 1_555
C32 C31 1_555 1_555
H33 C32 1_555 1_555
C33 C32 1_555 1_555
H34 C33 1_555 1_555
C34 C29 1_555 1_555
C35 C34 1_555 1_555
H35 C35 1_555 1_555
C36 C27 1_555 1_555
C37 C36 1_555 1_555
C38 C37 1_555 1_555
H36 C38 1_555 1_555
C39 C38 1_555 1_555
H37 C39 1_555 1_555
C40 C39 1_555 1_555
H38 C40 1_555 1_555
C41 C40 1_555 1_555
H39 C41 1_555 1_555
C42 C37 1_555 1_555
H40 C42 1_555 1_555
C43 H41 1_555 1_555
C44 C43 1_555 1_555
H42 C44 1_555 1_555
C45 C44 1_555 1_555
H43 C45 1_555 1_555
C46 C45 1_555 1_555
H44 C46 1_555 1_555
C47 C46 1_555 1_555
H45 C47 1_555 1_555
C48 C43 1_555 1_555
C49 C48 1_555 1_555
H46 C49 1_555 1_555
N1 C49 1_555 1_555
H47 N1 1_555 1_555
H48 N1 1_555 1_555
H49 N1 1_555 1_555
C50 C49 1_555 1_555
O7 C50 1_555 1_555
O8 C50 1_555 1_555
C51 O8 1_555 1_555
H50 C51 1_555 1_555
H51 C51 1_555 1_555
H52 C51 1_555 1_555
C52 H53 1_555 1_555
C53 C52 1_555 1_555
H54 C53 1_555 1_555
C54 C53 1_555 1_555
H55 C54 1_555 1_555
C55 C54 1_555 1_555
H56 C55 1_555 1_555
C56 C55 1_555 1_555
H57 C56 1_555 1_555
C57 C52 1_555 1_555
C58 C57 1_555 1_555
C59 C58 1_555 1_555
H58 C59 1_555 1_555
C60 C59 1_555 1_555
C61 C60 1_555 1_555
H59 C61 1_555 1_555
C62 C61 1_555 1_555
H60 C62 1_555 1_555
C63 C62 1_555 1_555
H61 C63 1_555 1_555
C64 C63 1_555 1_555
H62 C64 1_555 1_555
C65 C60 1_555 1_555
C66 C65 1_555 1_555
C67 C58 1_555 1_555
O9 C67 1_555 1_555
C68 O9 1_555 1_555
H63 C68 1_555 1_555
H64 C68 1_555 1_555
C69 C68 1_555 1_555
H65 C69 1_555 1_555
H66 C69 1_555 1_555
O10 C69 1_555 1_555
C70 O10 1_555 1_555
H67 C70 1_555 1_555
H68 C70 1_555 1_555
C71 C70 1_555 1_555
H69 C71 1_555 1_555
H70 C71 1_555 1_555
O11 C71 1_555 1_555
C72 O11 1_555 1_555
H71 C72 1_555 1_555
H72 C72 1_555 1_555
C73 C72 1_555 1_555
H73 C73 1_555 1_555
H74 C73 1_555 1_555
O12 C73 1_555 1_555
C74 O12 1_555 1_555
H75 C74 1_555 1_555
H76 C74 1_555 1_555
C75 C74 1_555 1_555
H77 C75 1_555 1_555
H78 C75 1_555 1_555
O13 C75 1_555 1_555
C76 O13 1_555 1_555
H79 C76 1_555 1_555
H80 C76 1_555 1_555
C77 C76 1_555 1_555
H81 C77 1_555 1_555
H82 C77 1_555 1_555
O14 C77 1_555 1_555
C78 O14 1_555 1_555
C79 C66 1_555 1_555
C80 C79 1_555 1_555
C81 C80 1_555 1_555
H83 C81 1_555 1_555
C82 C81 1_555 1_555
H84 C82 1_555 1_555
C83 C82 1_555 1_555
H85 C83 1_555 1_555
C84 C83 1_555 1_555
H86 C84 1_555 1_555
C85 C80 1_555 1_555
C86 C85 1_555 1_555
H87 C86 1_555 1_555
C87 C78 1_555 1_555
C88 C87 1_555 1_555
C89 C88 1_555 1_555
H88 C89 1_555 1_555
C90 C89 1_555 1_555
H89 C90 1_555 1_555
C91 C90 1_555 1_555
H90 C91 1_555 1_555
C92 C91 1_555 1_555
H91 C92 1_555 1_555
C93 C88 1_555 1_555
H92 C93 1_555 1_555
C94 H93 1_555 1_555
C95 C94 1_555 1_555
H94 C95 1_555 1_555
C96 C95 1_555 1_555
H95 C96 1_555 1_555
C97 C96 1_555 1_555
H96 C97 1_555 1_555
C98 C97 1_555 1_555
H97 C98 1_555 1_555
C99 C94 1_555 1_555
C100 C99 1_555 1_555
H98 C100 1_555 1_555
N2 C100 1_555 1_555
H99 N2 1_555 1_555
H100 N2 1_555 1_555
H101 N2 1_555 1_555
C101 C100 1_555 1_555
O15 C101 1_555 1_555
O16 C101 1_555 1_555
C102 O16 1_555 1_555
H102 C102 1_555 1_555
H103 C102 1_555 1_555
H104 C102 1_555 1_555
Cl1 O17 1_555 1_555
O18 Cl1 1_555 1_555
O19 Cl1 1_555 1_555
O20 Cl1 1_555 1_555
Cl2 O24 1_555 1_555
O25 Cl2 1_555 1_555
O26 Cl2 1_555 1_555
O27 Cl2 1_555 1_555
C5 C6 1_555 1_555
C13 C14 1_555 1_555
C15 C16 1_555 1_555
C27 C28 1_555 1_555
C33 C34 1_555 1_555
C35 C36 1_555 1_555
C41 C42 1_555 1_555
C47 C48 1_555 1_555
C56 C57 1_555 1_555
C64 C65 1_555 1_555
C66 C67 1_555 1_555
C78 C79 1_555 1_555
C84 C85 1_555 1_555
C86 C87 1_555 1_555
C92 C93 1_555 1_555
C98 C99 1_555 1_555

#END
