
#######################################################################
#
#                 Cambridge Crystallographic Data Centre
#                                CCDC 
#
#######################################################################
#
# If this CIF has been generated from an entry in the Cambridge 
# Structural Database, then it will include bibliographic, chemical, 
# crystal, experimental, refinement or atomic coordinate data resulting 
# from the CCDC's data processing and validation procedures.
#
#######################################################################

data_FITTUX
_chemical_formula_moiety         'C27 H23 N3'
_chemical_name_systematic        
1,2,3,3a-Tetrahydro-3a,7-diphenyl-5-(p-tolyl)pyrazolo(1,5-a)pyridine-3-carbonitrile
_symmetry_cell_setting           monoclinic
_symmetry_space_group_name_H-M   'P 21'
_symmetry_Int_Tables_number      4
_space_group_name_Hall           'P 2yb'
loop_
_symmetry_equiv_pos_site_id
_symmetry_equiv_pos_as_xyz
1 x,y,z
2 -x,1/2+y,-z
_cell_length_a                   8.783(1)
_cell_length_b                   11.988(2)
_cell_length_c                   10.961(1)
_cell_angle_alpha                90
_cell_angle_beta                 111.26(1)
_cell_angle_gamma                90
_cell_volume                     1075.55
_exptl_crystal_colour            'pale green'
_cell_formula_units_Z            2
loop_
_atom_site_label
_atom_site_type_symbol
_atom_site_fract_x
_atom_site_fract_y
_atom_site_fract_z
N1 N 0.2954(3) 0.3748(3) 0.3204(2)
N2 N 0.3544(2) 0.2762(3) 0.3953(2)
N3 N 0.3240(4) 0.4706(4) 0.7406(3)
C1 C 0.2740(4) 0.4520(3) 0.4144(3)
C2 C 0.4140(3) 0.4306(3) 0.5434(2)
C3 C 0.4600(2) 0.3045(2) 0.5312(2)
C4 C 0.4317(3) 0.2277(3) 0.6288(2)
C5 C 0.3439(2) 0.1334(3) 0.5953(2)
C6 C 0.2570(3) 0.1098(3) 0.4580(2)
C7 C 0.2563(2) 0.1819(3) 0.3635(2)
C8 C 0.3652(3) 0.4523(4) 0.6558(3)
C9 C 0.6409(3) 0.2939(3) 0.5493(2)
C10 C 0.7595(3) 0.3323(3) 0.6640(3)
C11 C 0.9247(3) 0.3167(4) 0.6866(3)
C12 C 0.9708(4) 0.2625(4) 0.5949(4)
C13 C 0.8555(4) 0.2252(4) 0.4819(4)
C14 C 0.6905(3) 0.2398(3) 0.4586(3)
C15 C 0.3362(3) 0.0534(3) 0.6962(2)
C16 C 0.4681(3) 0.0383(1) 0.8118(2)
C17 C 0.4617(4) -0.0364(4) 0.9055(2)
C18 C 0.3235(4) -0.0999(4) 0.8866(2)
C19 C 0.1910(4) -0.0846(3) 0.7720(2)
C20 C 0.1970(3) -0.0105(3) 0.6780(2)
C21 C 0.3165(6) -0.1811(6) 0.9890(4)
C22 C 0.1719(3) 0.1564(3) 0.2231(2)
C23 C 0.2388(4) 0.1815(4) 0.1299(2)
C24 C 0.1624(5) 0.1490(5) 0.0004(3)
C25 C 0.0184(5) 0.0924(5) -0.0371(3)
C26 C -0.0510(4) 0.0669(4) 0.0530(4)
C27 C 0.0236(3) 0.0993(4) 0.1816(2)
H1 H 0.3835 0.3972 0.2937
H2 H 0.2779 0.5274 0.3863
H3 H 0.1711 0.4389 0.4241
H4 H 0.5059 0.4791 0.5585
H5 H 0.4787 0.2469 0.7198
H6 H 0.1980 0.0409 0.4336
H7 H 0.7274 0.3699 0.7282
H8 H 1.0060 0.3437 0.7659
H9 H 1.0845 0.2510 0.6106
H10 H 0.8884 0.1883 0.4177
H11 H 0.6103 0.2121 0.3791
H12 H 0.5659 0.0806 0.8270
H13 H 0.5547 -0.0443 0.9852
H14 H 0.0928 -0.1264 0.7576
H15 H 0.1037 -0.0026 0.5984
H16 H 0.4177 -0.1820 1.0627
H17 H 0.2874 -0.2554 0.9570
H18 H 0.2313 -0.1509 1.0157
H19 H 0.3397 0.2221 0.1551
H20 H 0.2112 0.1664 -0.0627
H21 H -0.0334 0.0702 -0.1268
H22 H -0.1521 0.0264 0.0263
H23 H -0.0272 0.0822 0.2435
loop_
_geom_bond_atom_site_label_1
_geom_bond_atom_site_label_2
_geom_bond_site_symmetry_1
_geom_bond_site_symmetry_2
N1 N2 1_555 1_555
N2 C3 1_555 1_555
N3 C8 1_555 1_555
C1 N1 1_555 1_555
C2 C1 1_555 1_555
C3 C2 1_555 1_555
C4 C3 1_555 1_555
C5 C4 1_555 1_555
C6 C5 1_555 1_555
C7 N2 1_555 1_555
C8 C2 1_555 1_555
C9 C3 1_555 1_555
C10 C9 1_555 1_555
C11 C10 1_555 1_555
C12 C11 1_555 1_555
C13 C12 1_555 1_555
C14 C9 1_555 1_555
C15 C5 1_555 1_555
C16 C15 1_555 1_555
C17 C16 1_555 1_555
C18 C17 1_555 1_555
C19 C18 1_555 1_555
C20 C15 1_555 1_555
C21 C18 1_555 1_555
C22 C7 1_555 1_555
C23 C22 1_555 1_555
C24 C23 1_555 1_555
C25 C24 1_555 1_555
C26 C25 1_555 1_555
C27 C22 1_555 1_555
H1 N1 1_555 1_555
H2 C1 1_555 1_555
H3 C1 1_555 1_555
H4 C2 1_555 1_555
H5 C4 1_555 1_555
H6 C6 1_555 1_555
H7 C10 1_555 1_555
H8 C11 1_555 1_555
H9 C12 1_555 1_555
H10 C13 1_555 1_555
H11 C14 1_555 1_555
H12 C16 1_555 1_555
H13 C17 1_555 1_555
H14 C19 1_555 1_555
H15 C20 1_555 1_555
H16 C21 1_555 1_555
H17 C21 1_555 1_555
H18 C21 1_555 1_555
H19 C23 1_555 1_555
H20 C24 1_555 1_555
H21 C25 1_555 1_555
H22 C26 1_555 1_555
H23 C27 1_555 1_555
C6 C7 1_555 1_555
C13 C14 1_555 1_555
C19 C20 1_555 1_555
C26 C27 1_555 1_555

#END
