
#######################################################################
#
#                 Cambridge Crystallographic Data Centre
#                                CCDC 
#
#######################################################################
#
# If this CIF has been generated from an entry in the Cambridge 
# Structural Database, then it will include bibliographic, chemical, 
# crystal, experimental, refinement or atomic coordinate data resulting 
# from the CCDC's data processing and validation procedures.
#
#######################################################################

data_FITWUD
_chemical_formula_moiety         'C29 H29 N1 O4'
_chemical_name_systematic        
'diethyl 2,3-dimethyl-1-phenyl-7-(2-phenylethenyl)-1H-pyrrolizine-5,6-dicarboxylate'
_symmetry_cell_setting           monoclinic
_symmetry_space_group_name_H-M   'P 21/c'
_symmetry_Int_Tables_number      14
_space_group_name_Hall           '-P 2ybc'
loop_
_symmetry_equiv_pos_site_id
_symmetry_equiv_pos_as_xyz
1 x,y,z
2 -x,1/2+y,1/2-z
3 -x,-y,-z
4 x,1/2-y,1/2+z
_cell_length_a                   8.5597(7)
_cell_length_b                   13.0377(10)
_cell_length_c                   22.4807(17)
_cell_angle_alpha                90
_cell_angle_beta                 98.797(7)
_cell_angle_gamma                90
_cell_volume                     2479.31
_exptl_crystal_colour            'light colorless'
_exptl_crystal_description       block
_cell_formula_units_Z            4
loop_
_atom_site_label
_atom_site_type_symbol
_atom_site_fract_x
_atom_site_fract_y
_atom_site_fract_z
O1 O 0.4998(4) 0.6685(2) 0.30575(16)
N1 N 0.7969(3) 0.9408(2) 0.38375(12)
O2 O 0.9961(4) 0.7143(3) 0.38465(14)
O3 O 0.9725(4) 0.7876(3) 0.47064(14)
O4 O 0.6772(4) 0.6357(2) 0.38524(14)
C1 C 0.6541(4) 0.9766(3) 0.35510(15)
C2 C 0.1403(4) 0.9766(3) 0.26746(15)
C3 C 0.5491(5) 1.1460(3) 0.38927(17)
C4 C 0.5601(4) 0.8930(3) 0.33605(14)
C5 C 0.3976(4) 0.8943(3) 0.30704(15)
H1 H 0.3502 0.8307 0.2989
C6 C 0.6620(5) 1.0908(3) 0.35369(17)
H2 H 0.6421 1.1140 0.3118
C7 C 0.3082(5) 0.9751(3) 0.29073(16)
H3 H 0.3587 1.0385 0.2946
C8 C 0.8006(4) 0.8369(3) 0.38365(15)
C9 C 0.6541(5) 0.8043(3) 0.35446(15)
C10 C 0.9071(5) 1.0241(3) 0.39695(16)
C11 C 0.8330(5) 1.1119(3) 0.37939(16)
C12 C 0.6006(5) 0.6981(3) 0.34489(19)
C13 C 0.9324(5) 0.7784(3) 0.4181(2)
C14 C 0.0464(5) 0.8896(3) 0.26047(17)
H4 H 0.0933 0.8259 0.2693
C15 C 0.0652(5) 1.0692(3) 0.25284(17)
H5 H 0.1237 1.1295 0.2562
C16 C -0.1844(5) 0.9863(4) 0.22707(17)
H6 H -0.2924 0.9900 0.2135
C17 C 0.5399(5) 1.1171(3) 0.44718(19)
H7 H 0.5990 1.0616 0.4641
C18 C 0.4589(5) 1.2273(3) 0.36545(19)
H8 H 0.4635 1.2477 0.3261
C19 C -0.1137(5) 0.8940(3) 0.24091(17)
H9 H -0.1735 0.8341 0.2371
C20 C 0.8999(5) 1.2169(3) 0.3833(2)
H10 H 0.8794 1.2489 0.3444
H11 H 1.0120 1.2133 0.3963
H12 H 0.8518 1.2563 0.4117
C21 C -0.0948(6) 1.0730(4) 0.23343(19)
H13 H -0.1429 1.1362 0.2244
C22 C 0.3545(6) 1.2516(4) 0.4564(3)
H14 H 0.2903 1.2873 0.4791
C23 C 1.0752(5) 1.0043(4) 0.42373(18)
H15 H 1.0784 0.9689 0.4613
H16 H 1.1304 1.0684 0.4304
H17 H 1.1248 0.9629 0.3966
C24 C 0.3615(6) 1.2795(4) 0.3986(2)
H18 H 0.3006 1.3340 0.3813
C25 C 0.4437(6) 1.1697(4) 0.4808(2)
H19 H 0.4392 1.1497 0.5202
C26 C 0.6400(8) 0.5262(4) 0.3793(3)
H20 H 0.5270 0.5170 0.3676
H21 H 0.6932 0.4962 0.3484
C27 C 1.1099(9) 0.6362(7) 0.4184(3)
H22 H 1.0810 0.6199 0.4574
H23 H 1.1133 0.5736 0.3954
C28 C 0.6890(11) 0.4783(5) 0.4338(4)
H24 H 0.6596 0.4073 0.4308
H25 H 0.6397 0.5105 0.4646
H26 H 0.8018 0.4840 0.4439
C29 C 1.2506(12) 0.6872(9) 0.4243(4)
H27 H 1.2794 0.6984 0.3851
H28 H 1.3308 0.6470 0.4481
H29 H 1.2405 0.7520 0.4436
loop_
_geom_bond_atom_site_label_1
_geom_bond_atom_site_label_2
_geom_bond_site_symmetry_1
_geom_bond_site_symmetry_2
O1 C12 1_555 1_555
N1 C1 1_555 1_555
O2 C13 1_555 1_555
O3 C13 1_555 1_555
O4 C12 1_555 1_555
C1 C4 1_555 1_555
C2 C7 1_555 1_555
C3 C6 1_555 1_555
C4 C5 1_555 1_555
C5 H1 1_555 1_555
C6 C1 1_555 1_555
H2 C6 1_555 1_555
C7 C5 1_555 1_555
H3 C7 1_555 1_555
C8 N1 1_555 1_555
C9 C4 1_555 1_555
C10 N1 1_555 1_555
C11 C6 1_555 1_555
C12 C9 1_555 1_555
C13 C8 1_555 1_555
C14 C2 1_555 1_555
H4 C14 1_555 1_555
C15 C2 1_555 1_555
H5 C15 1_555 1_555
C16 H6 1_555 1_555
C17 C3 1_555 1_555
H7 C17 1_555 1_555
C18 C3 1_555 1_555
H8 C18 1_555 1_555
C19 C14 1_555 1_555
H9 C19 1_555 1_555
C20 C11 1_555 1_555
H10 C20 1_555 1_555
H11 C20 1_555 1_555
H12 C20 1_555 1_555
C21 C15 1_555 1_555
H13 C21 1_555 1_555
C22 H14 1_555 1_555
C23 C10 1_555 1_555
H15 C23 1_555 1_555
H16 C23 1_555 1_555
H17 C23 1_555 1_555
C24 C18 1_555 1_555
H18 C24 1_555 1_555
C25 C17 1_555 1_555
H19 C25 1_555 1_555
C26 O4 1_555 1_555
H20 C26 1_555 1_555
H21 C26 1_555 1_555
C27 O2 1_555 1_555
H22 C27 1_555 1_555
H23 C27 1_555 1_555
C28 C26 1_555 1_555
H24 C28 1_555 1_555
H25 C28 1_555 1_555
H26 C28 1_555 1_555
C29 C27 1_555 1_555
H27 C29 1_555 1_555
H28 C29 1_555 1_555
H29 C29 1_555 1_555
C8 C9 1_555 1_555
C10 C11 1_555 1_555
C16 C19 1_555 1_555
C16 C21 1_555 1_555
C22 C24 1_555 1_555
C22 C25 1_555 1_555

#END
