
#######################################################################
#
#                 Cambridge Crystallographic Data Centre
#                                CCDC 
#
#######################################################################
#
# If this CIF has been generated from an entry in the Cambridge 
# Structural Database, then it will include bibliographic, chemical, 
# crystal, experimental, refinement or atomic coordinate data resulting 
# from the CCDC's data processing and validation procedures.
#
#######################################################################

data_FITWEN
_chemical_formula_moiety         'C26 H28 N2 O3 S1'
_chemical_name_systematic        
10-(4-methoxyphenyl)-5-[(4-methylphenyl)sulfonyl]-6,6a,7,8,9,10-hexahydro-5H-pyrido[1,2-a]quinoxaline
_symmetry_cell_setting           orthorhombic
_symmetry_space_group_name_H-M   'P 21 21 21'
_symmetry_Int_Tables_number      19
_space_group_name_Hall           'P 2ac 2ab'
loop_
_symmetry_equiv_pos_site_id
_symmetry_equiv_pos_as_xyz
1 x,y,z
2 1/2-x,-y,1/2+z
3 -x,1/2+y,1/2-z
4 1/2+x,1/2-y,-z
_cell_length_a                   8.5401(4)
_cell_length_b                   12.6625(5)
_cell_length_c                   21.1303(9)
_cell_angle_alpha                90
_cell_angle_beta                 90
_cell_angle_gamma                90
_cell_volume                     2285.01
_exptl_crystal_colour            colorless
_exptl_crystal_description       block
_cell_formula_units_Z            4
loop_
_atom_site_label
_atom_site_type_symbol
_atom_site_fract_x
_atom_site_fract_y
_atom_site_fract_z
S1 S 0.31492(11) 0.77222(7) 0.30674(4)
O1 O 0.1711(3) 0.82700(19) 0.31855(12)
O2 O 0.4471(3) 0.8291(2) 0.28158(12)
O3 O 0.7305(3) 0.30397(19) 0.67450(11)
N1 N 0.3766(3) 0.7233(2) 0.37576(13)
N2 N 0.4547(3) 0.5142(2) 0.41865(13)
C1 C 0.5463(4) 0.5632(3) 0.36778(16)
H1 H 0.499400 0.544106 0.325952
C2 C 0.4777(5) 0.4009(3) 0.43090(17)
H2 H 0.373126 0.365943 0.427268
C3 C 0.5835(5) 0.3529(3) 0.38013(19)
H3 H 0.601541 0.277379 0.389967
H4 H 0.530075 0.356866 0.338630
C4 C 0.7391(5) 0.4087(4) 0.3758(2)
H5 H 0.797772 0.381605 0.338791
H6 H 0.801310 0.393442 0.414256
C5 C 0.7172(5) 0.5289(3) 0.3692(2)
H7 H 0.770082 0.564330 0.405068
H8 H 0.768744 0.552694 0.329727
C6 C 0.5384(4) 0.6815(3) 0.37666(18)
H9 H 0.587809 0.700089 0.417554
H10 H 0.599413 0.716085 0.342621
C7 C 0.2710(4) 0.6641(3) 0.41572(15)
C8 C 0.1332(4) 0.7109(3) 0.43732(16)
H11 H 0.110085 0.781460 0.425330
C9 C 0.0297(5) 0.6572(4) 0.47561(18)
H12 H -0.065457 0.689298 0.488697
C10 C 0.0667(5) 0.5558(4) 0.49467(17)
H13 H -0.004857 0.517628 0.520402
C11 C 0.2066(4) 0.5090(3) 0.47681(16)
H14 H 0.231449 0.440600 0.492272
C12 C 0.3135(4) 0.5610(3) 0.43598(14)
C13 C 0.2732(4) 0.6651(3) 0.25606(15)
C14 C 0.3877(4) 0.6287(3) 0.21520(16)
H15 H 0.487793 0.661363 0.214171
C15 C 0.3547(4) 0.5436(3) 0.17558(16)
H16 H 0.433702 0.518066 0.147850
C16 C 0.2088(4) 0.4953(2) 0.17580(15)
C17 C 0.0954(4) 0.5329(3) 0.21827(17)
H17 H -0.004626 0.500126 0.219583
C18 C 0.1270(4) 0.6172(3) 0.25853(17)
H18 H 0.049644 0.641747 0.287294
C19 C 0.1725(4) 0.4060(3) 0.13119(16)
H19 H 0.102990 0.431385 0.097543
H20 H 0.120833 0.348879 0.154460
H21 H 0.269962 0.379720 0.112488
C20 C 0.5403(4) 0.3779(3) 0.49725(16)
C21 C 0.6305(4) 0.4499(3) 0.53152(16)
H22 H 0.650151 0.518054 0.514448
C22 C 0.6923(4) 0.4231(3) 0.59065(16)
H23 H 0.753701 0.472771 0.613409
C23 C 0.6640(4) 0.3237(3) 0.61620(15)
C24 C 0.5738(4) 0.2517(3) 0.58306(17)
H24 H 0.553917 0.183805 0.600370
C25 C 0.5125(4) 0.2790(3) 0.52440(18)
H25 H 0.450057 0.229206 0.502192
C26 C 0.6945(5) 0.2046(3) 0.70366(17)
H26 H 0.726715 0.146911 0.675590
H27 H 0.581541 0.200053 0.711356
H28 H 0.750667 0.198823 0.743961
loop_
_geom_bond_atom_site_label_1
_geom_bond_atom_site_label_2
_geom_bond_site_symmetry_1
_geom_bond_site_symmetry_2
S1 O1 1_555 1_555
O2 S1 1_555 1_555
O3 C23 1_555 1_555
N1 S1 1_555 1_555
N2 C1 1_555 1_555
C1 H1 1_555 1_555
C2 N2 1_555 1_555
H2 C2 1_555 1_555
C3 C2 1_555 1_555
H3 C3 1_555 1_555
H4 C3 1_555 1_555
C4 C3 1_555 1_555
H5 C4 1_555 1_555
H6 C4 1_555 1_555
C5 C1 1_555 1_555
H7 C5 1_555 1_555
H8 C5 1_555 1_555
C6 N1 1_555 1_555
H9 C6 1_555 1_555
H10 C6 1_555 1_555
C7 N1 1_555 1_555
C8 C7 1_555 1_555
H11 C8 1_555 1_555
C9 C8 1_555 1_555
H12 C9 1_555 1_555
C10 C9 1_555 1_555
H13 C10 1_555 1_555
C11 C10 1_555 1_555
H14 C11 1_555 1_555
C12 N2 1_555 1_555
C13 S1 1_555 1_555
C14 C13 1_555 1_555
H15 C14 1_555 1_555
C15 C14 1_555 1_555
H16 C15 1_555 1_555
C16 C15 1_555 1_555
C17 C16 1_555 1_555
H17 C17 1_555 1_555
C18 C13 1_555 1_555
H18 C18 1_555 1_555
C19 C16 1_555 1_555
H19 C19 1_555 1_555
H20 C19 1_555 1_555
H21 C19 1_555 1_555
C20 C2 1_555 1_555
C21 C20 1_555 1_555
H22 C21 1_555 1_555
C22 C21 1_555 1_555
H23 C22 1_555 1_555
C23 C22 1_555 1_555
C24 C23 1_555 1_555
H24 C24 1_555 1_555
C25 C20 1_555 1_555
H25 C25 1_555 1_555
C26 O3 1_555 1_555
H26 C26 1_555 1_555
H27 C26 1_555 1_555
H28 C26 1_555 1_555
C1 C6 1_555 1_555
C4 C5 1_555 1_555
C7 C12 1_555 1_555
C11 C12 1_555 1_555
C17 C18 1_555 1_555
C24 C25 1_555 1_555

#END
