
#######################################################################
#
#                 Cambridge Crystallographic Data Centre
#                                CCDC 
#
#######################################################################
#
# If this CIF has been generated from an entry in the Cambridge 
# Structural Database, then it will include bibliographic, chemical, 
# crystal, experimental, refinement or atomic coordinate data resulting 
# from the CCDC's data processing and validation procedures.
#
#######################################################################

data_FITWEM
_chemical_formula_moiety         'C17 H14 N5 1+,F6 P1 1-'
_chemical_name_systematic        
'1-allyl-9-(1H-1,2,4-triazol-1-yl)-1,10-phenanthrolin-1-ium hexafluorophosphate'
_symmetry_cell_setting           monoclinic
_symmetry_space_group_name_H-M   'P 21/n'
_symmetry_Int_Tables_number      14
_space_group_name_Hall           '-P 2yn'
loop_
_symmetry_equiv_pos_site_id
_symmetry_equiv_pos_as_xyz
1 x,y,z
2 1/2-x,1/2+y,1/2-z
3 -x,-y,-z
4 1/2+x,1/2-y,1/2+z
_cell_length_a                   9.3475(8)
_cell_length_b                   15.5518(10)
_cell_length_c                   12.4730(9)
_cell_angle_alpha                90
_cell_angle_beta                 91.797(7)
_cell_angle_gamma                90
_cell_volume                     1812.31
_cell_formula_units_Z            4
loop_
_atom_site_label
_atom_site_type_symbol
_atom_site_fract_x
_atom_site_fract_y
_atom_site_fract_z
C1 C 1.0747(4) 0.1887(2) 1.1396(3)
H1 H 0.9796 0.2065 1.1384
C2 C 1.2880(4) 0.1689(3) 1.1812(3)
H2 H 1.3749 0.1718 1.2195
C3 C 1.0700(3) 0.10368(17) 0.9700(2)
C4 C 1.1527(3) 0.0524(2) 0.9045(3)
H3 H 1.2478 0.0401 0.9227
C5 C 1.0898(4) 0.0212(2) 0.8138(3)
H4 H 1.1426 -0.0123 0.7676
C6 C 0.9448(4) 0.03878(19) 0.7885(2)
C7 C 0.8768(5) 0.0068(2) 0.6928(3)
H5 H 0.9285 -0.0269 0.6461
C8 C 0.7405(5) 0.0246(2) 0.6696(3)
H6 H 0.6988 0.0040 0.6060
C9 C 0.6567(4) 0.07457(19) 0.7399(2)
C10 C 0.5147(4) 0.0935(2) 0.7122(3)
H7 H 0.4745 0.0724 0.6483
C11 C 0.4344(4) 0.1424(2) 0.7770(3)
H8 H 0.3410 0.1573 0.7570
C12 C 0.4943(3) 0.1695(2) 0.8730(3)
H9 H 0.4390 0.2024 0.9182
C13 C 0.7181(3) 0.10581(18) 0.8378(2)
C14 C 0.8684(3) 0.08894(17) 0.8617(2)
C15 C 0.6690(3) 0.1829(2) 1.0150(2)
H10 H 0.5868 0.1793 1.0604
H11 H 0.7443 0.1470 1.0462
C16 C 0.7187(4) 0.2727(2) 1.0102(3)
H12 H 0.7997 0.2851 0.9717
C17 C 0.6535(6) 0.3354(3) 1.0577(4)
H13 H 0.5722 0.3243 1.0966
H14 H 0.6882 0.3913 1.0527
N1 N 1.1690(3) 0.20894(19) 1.2149(2)
N2 N 1.2734(3) 0.1257(2) 1.0916(2)
N3 N 1.1324(2) 0.13904(15) 1.06435(19)
N4 N 0.9344(2) 0.12166(14) 0.95175(18)
N5 N 0.6285(3) 0.15070(15) 0.90408(18)
F1 F 0.6126(3) 0.09732(15) 0.26346(17)
F2 F 0.6072(3) 0.23105(15) 0.3302(2)
F3 F 0.7380(3) 0.18782(18) 0.4721(2)
F4 F 0.7403(3) 0.05394(14) 0.40492(16)
F5 F 0.8147(3) 0.16331(16) 0.3060(2)
F6 F 0.5344(3) 0.1221(2) 0.4283(2)
P1 P 0.67438(9) 0.14326(5) 0.36897(7)
loop_
_geom_bond_atom_site_label_1
_geom_bond_atom_site_label_2
_geom_bond_site_symmetry_1
_geom_bond_site_symmetry_2
C1 H1 1_555 1_555
C2 H2 1_555 1_555
C3 C4 1_555 1_555
C4 H3 1_555 1_555
C5 C4 1_555 1_555
H4 C5 1_555 1_555
C6 C5 1_555 1_555
C7 C6 1_555 1_555
H5 C7 1_555 1_555
C8 C7 1_555 1_555
H6 C8 1_555 1_555
C9 C8 1_555 1_555
C10 C9 1_555 1_555
H7 C10 1_555 1_555
C11 C10 1_555 1_555
H8 C11 1_555 1_555
C12 C11 1_555 1_555
H9 C12 1_555 1_555
C13 C9 1_555 1_555
C14 C6 1_555 1_555
C15 H10 1_555 1_555
H11 C15 1_555 1_555
C16 C15 1_555 1_555
H12 C16 1_555 1_555
C17 C16 1_555 1_555
H13 C17 1_555 1_555
H14 C17 1_555 1_555
N1 C1 1_555 1_555
N2 C2 1_555 1_555
N3 C1 1_555 1_555
N4 C3 1_555 1_555
N5 C12 1_555 1_555
F1 P1 1_555 1_555
F2 P1 1_555 1_555
F3 P1 1_555 1_555
F4 P1 1_555 1_555
F5 P1 1_555 1_555
F6 P1 1_555 1_555
C2 N1 1_555 1_555
C3 N3 1_555 1_555
C13 C14 1_555 1_555
C13 N5 1_555 1_555
C14 N4 1_555 1_555
C15 N5 1_555 1_555
N2 N3 1_555 1_555

#END
