
#######################################################################
#
#                 Cambridge Crystallographic Data Centre
#                                CCDC 
#
#######################################################################
#
# If this CIF has been generated from an entry in the Cambridge 
# Structural Database, then it will include bibliographic, chemical, 
# crystal, experimental, refinement or atomic coordinate data resulting 
# from the CCDC's data processing and validation procedures.
#
#######################################################################

data_FITWAJ
_chemical_formula_moiety         'C24 H24 N2 O2 S1'
_chemical_name_systematic        
5-[(4-methylphenyl)sulfonyl]-1-phenyl-1,2,3,3a,4,5-hexahydropyrrolo[1,2-a]quinoxaline
_symmetry_cell_setting           orthorhombic
_symmetry_space_group_name_H-M   'P 21 21 21'
_symmetry_Int_Tables_number      19
_space_group_name_Hall           'P 2ac 2ab'
loop_
_symmetry_equiv_pos_site_id
_symmetry_equiv_pos_as_xyz
1 x,y,z
2 1/2-x,-y,1/2+z
3 -x,1/2+y,1/2-z
4 1/2+x,1/2-y,-z
_cell_length_a                   8.3147(5)
_cell_length_b                   12.0598(7)
_cell_length_c                   20.7719(14)
_cell_angle_alpha                90
_cell_angle_beta                 90
_cell_angle_gamma                90
_cell_volume                     2082.87
_exptl_crystal_colour            colorless
_exptl_crystal_description       block
_cell_formula_units_Z            4
loop_
_atom_site_label
_atom_site_type_symbol
_atom_site_fract_x
_atom_site_fract_y
_atom_site_fract_z
S1 S 0.56913(8) 0.73416(5) 0.70580(3)
O1 O 0.6765(2) 0.82481(16) 0.69466(9)
O2 O 0.4228(2) 0.75331(16) 0.74059(9)
N1 N 0.5306(3) 0.46935(19) 0.58121(11)
N2 N 0.5137(3) 0.68494(19) 0.63412(11)
C1 C 0.4515(3) 0.3532(2) 0.48629(13)
C2 C 0.3613(4) 0.4378(2) 0.45883(15)
H1 H 0.3429 0.5027 0.4819
C3 C 0.2983(4) 0.4266(3) 0.39717(15)
H2 H 0.2374 0.4837 0.3795
C4 C 0.3258(4) 0.3313(3) 0.36210(14)
H3 H 0.2842 0.3241 0.3207
C5 C 0.4155(4) 0.2467(3) 0.38893(14)
H4 H 0.4338 0.1820 0.3657
C6 C 0.4783(3) 0.2581(3) 0.45044(14)
H5 H 0.5393 0.2009 0.4679
C7 C 0.5151(3) 0.3577(2) 0.55466(13)
H6 H 0.6191 0.3198 0.5569
C8 C 0.3969(4) 0.3040(2) 0.60304(14)
H7 H 0.3279 0.2507 0.5817
H8 H 0.4548 0.2669 0.6374
C9 C 0.2993(4) 0.4008(2) 0.62917(15)
H9 H 0.2161 0.4233 0.5991
H10 H 0.2505 0.3828 0.6703
C10 C 0.4275(3) 0.4897(2) 0.63630(12)
H11 H 0.4884 0.4768 0.6760
C11 C 0.3731(3) 0.6090(2) 0.63408(14)
H12 H 0.3096 0.6213 0.5955
H13 H 0.3057 0.6246 0.6711
C12 C 0.6379(3) 0.6555(2) 0.58867(12)
C13 C 0.7474(4) 0.7346(3) 0.56758(12)
H14 H 0.7392 0.8071 0.5826
C14 C 0.8687(4) 0.7075(3) 0.52451(14)
H15 H 0.9448 0.7600 0.5125
C15 C 0.8749(4) 0.6013(3) 0.49975(15)
H16 H 0.9557 0.5828 0.4707
C16 C 0.7628(4) 0.5220(3) 0.51740(14)
H17 H 0.7669 0.4517 0.4991
C17 C 0.6432(3) 0.5470(2) 0.56272(12)
C18 C 0.6767(3) 0.6287(2) 0.74546(12)
C19 C 0.8326(3) 0.6037(3) 0.72729(14)
H18 H 0.8837 0.6443 0.6952
C20 C 0.9116(4) 0.5166(3) 0.75782(16)
H19 H 1.0161 0.4989 0.7457
C21 C 0.8373(4) 0.4556(2) 0.80616(15)
C22 C 0.6804(4) 0.4828(2) 0.82317(13)
H20 H 0.6290 0.4427 0.8554
C23 C 0.6000(3) 0.5680(2) 0.79308(13)
H21 H 0.4948 0.5848 0.8047
C24 C 0.9207(4) 0.3606(3) 0.8386(2)
H22 H 0.8729 0.2921 0.8248
H23 H 0.9099 0.3677 0.8844
H24 H 1.0326 0.3611 0.8272
loop_
_geom_bond_atom_site_label_1
_geom_bond_atom_site_label_2
_geom_bond_site_symmetry_1
_geom_bond_site_symmetry_2
S1 O1 1_555 1_555
O2 S1 1_555 1_555
N1 C7 1_555 1_555
N2 S1 1_555 1_555
C1 C2 1_555 1_555
C2 H1 1_555 1_555
C3 C2 1_555 1_555
H2 C3 1_555 1_555
C4 C3 1_555 1_555
H3 C4 1_555 1_555
C5 C4 1_555 1_555
H4 C5 1_555 1_555
C6 C1 1_555 1_555
H5 C6 1_555 1_555
C7 C1 1_555 1_555
H6 C7 1_555 1_555
C8 C7 1_555 1_555
H7 C8 1_555 1_555
H8 C8 1_555 1_555
C9 C8 1_555 1_555
H9 C9 1_555 1_555
H10 C9 1_555 1_555
C10 N1 1_555 1_555
H11 C10 1_555 1_555
C11 N2 1_555 1_555
H12 C11 1_555 1_555
H13 C11 1_555 1_555
C12 N2 1_555 1_555
C13 C12 1_555 1_555
H14 C13 1_555 1_555
C14 C13 1_555 1_555
H15 C14 1_555 1_555
C15 C14 1_555 1_555
H16 C15 1_555 1_555
C16 C15 1_555 1_555
H17 C16 1_555 1_555
C17 N1 1_555 1_555
C18 S1 1_555 1_555
C19 C18 1_555 1_555
H18 C19 1_555 1_555
C20 C19 1_555 1_555
H19 C20 1_555 1_555
C21 C20 1_555 1_555
C22 C21 1_555 1_555
H20 C22 1_555 1_555
C23 C18 1_555 1_555
H21 C23 1_555 1_555
C24 C21 1_555 1_555
H22 C24 1_555 1_555
H23 C24 1_555 1_555
H24 C24 1_555 1_555
C5 C6 1_555 1_555
C9 C10 1_555 1_555
C10 C11 1_555 1_555
C12 C17 1_555 1_555
C16 C17 1_555 1_555
C22 C23 1_555 1_555

#END
