
#######################################################################
#
#                 Cambridge Crystallographic Data Centre
#                                CCDC 
#
#######################################################################
#
# If this CIF has been generated from an entry in the Cambridge 
# Structural Database, then it will include bibliographic, chemical, 
# crystal, experimental, refinement or atomic coordinate data resulting 
# from the CCDC's data processing and validation procedures.
#
#######################################################################

data_FITXIS
_chemical_formula_moiety         'C21 H18 Br1 N1 O3 S1'
_chemical_name_systematic        
5-(4-bromophenyl)-6-[(4-methylphenyl)sulfonyl]-2,3-dihydro-1H-pyrrolizine-7-carbaldehyde
_symmetry_cell_setting           monoclinic
_symmetry_space_group_name_H-M   'P 21/n'
_symmetry_Int_Tables_number      14
_space_group_name_Hall           '-P 2yn'
loop_
_symmetry_equiv_pos_site_id
_symmetry_equiv_pos_as_xyz
1 x,y,z
2 1/2-x,1/2+y,1/2-z
3 -x,-y,-z
4 1/2+x,1/2-y,1/2+z
_cell_length_a                   8.6549(5)
_cell_length_b                   18.2100(11)
_cell_length_c                   11.9124(6)
_cell_angle_alpha                90
_cell_angle_beta                 94.769(5)
_cell_angle_gamma                90
_cell_volume                     1870.96
_exptl_crystal_colour            colorless
_exptl_crystal_description       block
_cell_formula_units_Z            4
loop_
_atom_site_label
_atom_site_type_symbol
_atom_site_fract_x
_atom_site_fract_y
_atom_site_fract_z
Br1 Br 0.22852(6) 0.22111(3) -0.06594(4)
S1 S 0.22105(11) 0.19206(7) 0.55615(8)
O1 O 0.1151(3) 0.19286(19) 0.4561(3)
O2 O 0.1707(4) 0.1604(2) 0.6579(3)
N1 N 0.5753(4) 0.0947(2) 0.4383(3)
O3 O 0.5955(5) 0.0737(2) 0.7907(3)
C1 C 0.4962(5) 0.1100(3) 0.6098(4)
C2 C 0.3866(4) 0.1578(2) 0.3061(3)
C3 C 0.6100(5) 0.0807(2) 0.5486(3)
C4 C 0.4415(4) 0.1351(3) 0.4205(3)
C5 C 0.3299(5) 0.1236(3) 0.1100(4)
H1 H 0.322083 0.087989 0.053846
C6 C 0.2839(5) 0.2832(2) 0.5856(4)
C7 C 0.2961(5) 0.1965(3) 0.0845(4)
C8 C 0.3751(5) 0.1047(3) 0.2195(3)
H2 H 0.398640 0.055985 0.236949
C9 C 0.3996(5) 0.2978(3) 0.6711(4)
H3 H 0.441810 0.259582 0.715463
C10 C 0.3888(4) 0.1460(3) 0.5267(3)
C11 C 0.6928(5) 0.0709(3) 0.3652(4)
H4 H 0.721456 0.110357 0.316350
H5 H 0.656981 0.029207 0.319347
C12 C 0.3540(5) 0.2310(3) 0.2768(4)
H6 H 0.363057 0.266968 0.332274
C13 C 0.2187(5) 0.3408(3) 0.5205(3)
H7 H 0.141524 0.331760 0.463099
C14 C 0.3089(5) 0.2506(3) 0.1679(4)
H8 H 0.287079 0.299349 0.149672
C15 C 0.3884(5) 0.4263(3) 0.6269(4)
C16 C 0.7623(5) 0.0412(3) 0.5656(4)
H9 H 0.747622 -0.010070 0.584157
H10 H 0.829648 0.063956 0.624839
C17 C 0.4514(5) 0.3681(3) 0.6902(4)
H11 H 0.530212 0.376948 0.746517
C18 C 0.4956(6) 0.1065(3) 0.7312(4)
H12 H 0.416529 0.130011 0.765423
C19 C 0.2702(5) 0.4109(3) 0.5425(4)
H13 H 0.225310 0.449447 0.500207
C20 C 0.4430(7) 0.5047(3) 0.6491(4)
H14 H 0.395170 0.523993 0.712680
H15 H 0.414723 0.534321 0.583981
H16 H 0.553639 0.505160 0.664588
C21 C 0.8286(5) 0.0494(3) 0.4499(4)
H17 H 0.907990 0.087151 0.453192
H18 H 0.874193 0.003516 0.427887
loop_
_geom_bond_atom_site_label_1
_geom_bond_atom_site_label_2
_geom_bond_site_symmetry_1
_geom_bond_site_symmetry_2
Br1 C7 1_555 1_555
S1 O1 1_555 1_555
O2 S1 1_555 1_555
N1 C3 1_555 1_555
O3 C18 1_555 1_555
C1 C3 1_555 1_555
C2 C4 1_555 1_555
C3 C16 1_555 1_555
C4 N1 1_555 1_555
C5 H1 1_555 1_555
C6 S1 1_555 1_555
C7 C5 1_555 1_555
C8 C2 1_555 1_555
H2 C8 1_555 1_555
C9 C6 1_555 1_555
H3 C9 1_555 1_555
C10 S1 1_555 1_555
C11 N1 1_555 1_555
H4 C11 1_555 1_555
H5 C11 1_555 1_555
C12 C2 1_555 1_555
H6 C12 1_555 1_555
C13 C6 1_555 1_555
H7 C13 1_555 1_555
C14 C7 1_555 1_555
H8 C14 1_555 1_555
C15 C17 1_555 1_555
C16 H9 1_555 1_555
H10 C16 1_555 1_555
C17 C9 1_555 1_555
H11 C17 1_555 1_555
C18 C1 1_555 1_555
H12 C18 1_555 1_555
C19 C13 1_555 1_555
H13 C19 1_555 1_555
C20 C15 1_555 1_555
H14 C20 1_555 1_555
H15 C20 1_555 1_555
H16 C20 1_555 1_555
C21 C11 1_555 1_555
H17 C21 1_555 1_555
H18 C21 1_555 1_555
C1 C10 1_555 1_555
C4 C10 1_555 1_555
C5 C8 1_555 1_555
C12 C14 1_555 1_555
C15 C19 1_555 1_555
C16 C21 1_555 1_555

#END
