
#######################################################################
#
#                 Cambridge Crystallographic Data Centre
#                                CCDC 
#
#######################################################################
#
# If this CIF has been generated from an entry in the Cambridge 
# Structural Database, then it will include bibliographic, chemical, 
# crystal, experimental, refinement or atomic coordinate data resulting 
# from the CCDC's data processing and validation procedures.
#
#######################################################################

data_FIVFIA
_chemical_formula_moiety         'C32 H26 N4 O2'
_chemical_name_systematic        
3,3'-bis(3-(2-Hydroxyphenyl)pyrazol-1-ylmethyl)biphenyl
_symmetry_cell_setting           monoclinic
_symmetry_space_group_name_H-M   'P 21'
_symmetry_Int_Tables_number      4
_space_group_name_Hall           'P 2yb'
loop_
_symmetry_equiv_pos_site_id
_symmetry_equiv_pos_as_xyz
1 x,y,z
2 -x,1/2+y,-z
_cell_length_a                   9.905(11)
_cell_length_b                   20.84(2)
_cell_length_c                   12.811(16)
_cell_angle_alpha                90
_cell_angle_beta                 105.22(3)
_cell_angle_gamma                90
_cell_volume                     2551.69
_exptl_crystal_colour            colorless
_exptl_crystal_description       plate
_cell_formula_units_Z            4
_exptl_crystal_recrystallization_method dichloromethane/methanol
loop_
_atom_site_label
_atom_site_type_symbol
_atom_site_fract_x
_atom_site_fract_y
_atom_site_fract_z
N1 N 1.2049(3) 0.50333(14) 1.2481(2)
N2 N 1.0880(3) 0.48023(14) 1.2707(2)
N3 N 0.3603(3) 0.38495(13) 0.4682(2)
N4 N 0.2692(3) 0.34042(14) 0.4867(2)
O1 O 1.4012(3) 0.53226(13) 1.15975(18)
H1 H 1.316(4) 0.5162(15) 1.1641(16)
O2 O 0.1234(2) 0.26360(11) 0.57390(17)
H2 H 0.173(3) 0.3031(16) 0.5663(8)
C1 C 0.7934(3) 0.45834(16) 0.9001(3)
C2 C 0.8617(3) 0.43097(17) 0.9997(2)
H5 H 0.8652 0.3856 1.0066
C3 C 0.9247(3) 0.46875(17) 1.0888(3)
C4 C 0.9184(3) 0.53416(17) 1.0786(3)
H6 H 0.9601 0.5604 1.1391
C5 C 0.8514(4) 0.56238(19) 0.9804(3)
H7 H 0.8477 0.6078 0.9740
C6 C 0.7905(3) 0.52481(17) 0.8927(3)
H8 H 0.7455 0.5446 0.8258
C7 C 0.9977(3) 0.43646(17) 1.1942(2)
H9 H 0.9265 0.4185 1.2277
H10 H 1.0547 0.4004 1.1790
C8 C 1.0668(3) 0.50697(19) 1.3599(3)
H11 H 0.9909 0.4984 1.3904
C9 C 1.1753(3) 0.54921(17) 1.3997(3)
H12 H 1.1899 0.5751 1.4627
C10 C 1.2589(3) 0.54579(16) 1.3275(2)
C11 C 1.3864(3) 0.58083(17) 1.3271(3)
C12 C 1.4467(4) 0.62294(18) 1.4099(3)
H13 H 1.4038 0.6293 1.4673
C13 C 1.5689(4) 0.6562(2) 1.4106(3)
H14 H 1.6082 0.6853 1.4675
C14 C 1.6324(4) 0.64676(19) 1.3283(3)
H15 H 1.7164 0.6689 1.3290
C15 C 1.5744(4) 0.60519(19) 1.2449(3)
H16 H 1.6183 0.5988 1.1881
C16 C 1.4521(3) 0.57280(18) 1.2440(3)
C17 C 0.7284(3) 0.41782(16) 0.8049(3)
C18 C 0.6117(3) 0.43931(16) 0.7256(2)
H17 H 0.5736 0.4802 0.7340
C19 C 0.5496(3) 0.40293(16) 0.6351(2)
C20 C 0.6029(3) 0.34306(18) 0.6250(3)
H18 H 0.5612 0.3171 0.5641
C21 C 0.7174(4) 0.32056(18) 0.7036(3)
H19 H 0.7535 0.2791 0.6961
C22 C 0.7794(3) 0.35729(17) 0.7921(3)
H20 H 0.8580 0.3411 0.8450
C23 C 0.4243(3) 0.43011(16) 0.5525(2)
H21 H 0.3536 0.4439 0.5900
H22 H 0.4540 0.4685 0.5189
C24 C 0.3885(3) 0.37477(17) 0.3739(3)
H23 H 0.4502 0.3996 0.3446
C25 C 0.3145(3) 0.32287(17) 0.3264(3)
H24 H 0.3133 0.3045 0.2583
C26 C 0.2404(3) 0.30231(16) 0.3993(3)
C27 C 0.1425(3) 0.24876(15) 0.3911(3)
C28 C 0.1013(3) 0.21260(17) 0.2963(3)
H25 H 0.1368 0.2232 0.2365
C29 C 0.0098(4) 0.16177(17) 0.2879(3)
H26 H -0.0173 0.1377 0.2228
C30 C -0.0419(4) 0.14620(17) 0.3744(3)
H27 H -0.1050 0.1113 0.3687
C31 C -0.0032(3) 0.18060(17) 0.4687(3)
H28 H -0.0393 0.1695 0.5280
C32 C 0.0889(3) 0.23164(16) 0.4773(3)
N5 N 1.2425(3) 0.49776(13) 0.7392(2)
N6 N 1.1497(3) 0.45540(13) 0.7600(2)
N7 N 0.4183(3) 0.36308(14) -0.0404(2)
N8 N 0.3050(3) 0.33865(14) -0.0139(2)
O3 O 1.3881(2) 0.57577(12) 0.64859(17)
H3 H 1.324(4) 0.5447(17) 0.6518(7)
O4 O 0.1155(2) 0.30775(12) 0.08128(18)
H4 H 0.187(3) 0.3369(15) 0.0621(13)
C33 C 0.7822(3) 0.41989(16) 0.4224(2)
C34 C 0.9003(3) 0.40029(16) 0.5025(3)
H29 H 0.9453 0.3613 0.4928
C35 C 0.9536(3) 0.43563(16) 0.5950(3)
C36 C 0.8901(3) 0.49223(18) 0.6105(3)
H30 H 0.9255 0.5167 0.6744
C37 C 0.7736(3) 0.51315(18) 0.5319(3)
H31 H 0.7297 0.5524 0.5417
C38 C 0.7216(3) 0.47754(17) 0.4402(3)
H32 H 0.6418 0.4927 0.3873
C39 C 1.0804(3) 0.40944(16) 0.6783(3)
H33 H 1.0506 0.3722 0.7148
H34 H 1.1488 0.3937 0.6401
C40 C 1.1282(3) 0.46563(17) 0.8576(3)
H35 H 1.0661 0.4423 0.8887
C41 C 1.2114(3) 0.51571(17) 0.9043(3)
H36 H 1.2196 0.5338 0.9738
C42 C 1.2814(3) 0.53451(15) 0.8284(3)
C43 C 1.3881(3) 0.58476(17) 0.8361(3)
C44 C 1.4443(4) 0.61506(17) 0.9352(3)
H37 H 1.4127 0.6030 0.9963
C45 C 1.5451(4) 0.66218(18) 0.9462(3)
H38 H 1.5821 0.6823 1.0142
C46 C 1.5915(4) 0.67989(18) 0.8579(3)
H39 H 1.6613 0.7121 0.8652
C47 C 1.5370(4) 0.65100(17) 0.7590(3)
H40 H 1.5685 0.6638 0.6982
C48 C 1.4363(3) 0.60334(16) 0.7478(3)
C49 C 0.7275(3) 0.38177(17) 0.3226(3)
C50 C 0.6484(3) 0.40973(17) 0.2269(3)
H41 H 0.6288 0.4544 0.2260
C51 C 0.5977(3) 0.37443(17) 0.1336(3)
C52 C 0.6287(4) 0.31024(19) 0.1344(3)
H42 H 0.5967 0.2858 0.0701
C53 C 0.7062(4) 0.28066(19) 0.2280(3)
H43 H 0.7260 0.2361 0.2279
C54 C 0.7541(3) 0.31590(18) 0.3207(3)
H44 H 0.8062 0.2953 0.3847
C55 C 0.5117(3) 0.40695(17) 0.0326(2)
H45 H 0.4556 0.4416 0.0536
H46 H 0.5755 0.4269 -0.0059
C56 C 0.4325(3) 0.33737(18) -0.1329(2)
H47 H 0.5051 0.3467 -0.1666
C57 C 0.3245(3) 0.29552(17) -0.1702(3)
H48 H 0.3063 0.2706 -0.2345
C58 C 0.2464(3) 0.29723(16) -0.0936(3)
C59 C 0.1195(3) 0.26195(16) -0.0904(3)
C60 C 0.0529(4) 0.22171(18) -0.1759(3)
H49 H 0.0906 0.2173 -0.2364
C61 C -0.0655(4) 0.18851(18) -0.1737(3)
H50 H -0.1090 0.1615 -0.2326
C62 C -0.1216(4) 0.19385(18) -0.0880(3)
H51 H -0.2035 0.1704 -0.0870
C63 C -0.0591(4) 0.23361(18) -0.0019(3)
H52 H -0.0982 0.2375 0.0581
C64 C 0.0601(3) 0.26752(17) -0.0038(3)
loop_
_geom_bond_atom_site_label_1
_geom_bond_atom_site_label_2
_geom_bond_site_symmetry_1
_geom_bond_site_symmetry_2
N1 N2 1_555 1_555
N2 C7 1_555 1_555
N3 N4 1_555 1_555
N4 C26 1_555 1_555
N5 N6 1_555 1_555
N6 C39 1_555 1_555
N7 N8 1_555 1_555
N8 C58 1_555 1_555
O1 H1 1_555 1_555
O2 H2 1_555 1_555
O3 H3 1_555 1_555
O4 H4 1_555 1_555
C1 C2 1_555 1_555
C2 H5 1_555 1_555
C3 C2 1_555 1_555
C4 C3 1_555 1_555
H6 C4 1_555 1_555
C5 C4 1_555 1_555
H7 C5 1_555 1_555
C6 C1 1_555 1_555
H8 C6 1_555 1_555
C7 C3 1_555 1_555
H9 C7 1_555 1_555
H10 C7 1_555 1_555
C8 N2 1_555 1_555
H11 C8 1_555 1_555
C9 C8 1_555 1_555
H12 C9 1_555 1_555
C10 N1 1_555 1_555
C11 C10 1_555 1_555
C12 C11 1_555 1_555
H13 C12 1_555 1_555
C13 C12 1_555 1_555
H14 C13 1_555 1_555
C14 C13 1_555 1_555
H15 C14 1_555 1_555
C15 C14 1_555 1_555
H16 C15 1_555 1_555
C16 O1 1_555 1_555
C17 C1 1_555 1_555
C18 C17 1_555 1_555
H17 C18 1_555 1_555
C19 C18 1_555 1_555
C20 C19 1_555 1_555
H18 C20 1_555 1_555
C21 C20 1_555 1_555
H19 C21 1_555 1_555
C22 C17 1_555 1_555
H20 C22 1_555 1_555
C23 N3 1_555 1_555
H21 C23 1_555 1_555
H22 C23 1_555 1_555
C24 N3 1_555 1_555
H23 C24 1_555 1_555
C25 C24 1_555 1_555
H24 C25 1_555 1_555
C26 C25 1_555 1_555
C27 C26 1_555 1_555
C28 C27 1_555 1_555
H25 C28 1_555 1_555
C29 C28 1_555 1_555
H26 C29 1_555 1_555
C30 C29 1_555 1_555
H27 C30 1_555 1_555
C31 C30 1_555 1_555
H28 C31 1_555 1_555
C32 O2 1_555 1_555
C33 C34 1_555 1_555
C34 H29 1_555 1_555
C35 C34 1_555 1_555
C36 C35 1_555 1_555
H30 C36 1_555 1_555
C37 C36 1_555 1_555
H31 C37 1_555 1_555
C38 C33 1_555 1_555
H32 C38 1_555 1_555
C39 C35 1_555 1_555
H33 C39 1_555 1_555
H34 C39 1_555 1_555
C40 N6 1_555 1_555
H35 C40 1_555 1_555
C41 C40 1_555 1_555
H36 C41 1_555 1_555
C42 N5 1_555 1_555
C43 C42 1_555 1_555
C44 C43 1_555 1_555
H37 C44 1_555 1_555
C45 C44 1_555 1_555
H38 C45 1_555 1_555
C46 C45 1_555 1_555
H39 C46 1_555 1_555
C47 C46 1_555 1_555
H40 C47 1_555 1_555
C48 O3 1_555 1_555
C49 C33 1_555 1_555
C50 C49 1_555 1_555
H41 C50 1_555 1_555
C51 C50 1_555 1_555
C52 C51 1_555 1_555
H42 C52 1_555 1_555
C53 C52 1_555 1_555
H43 C53 1_555 1_555
C54 C49 1_555 1_555
H44 C54 1_555 1_555
C55 N7 1_555 1_555
H45 C55 1_555 1_555
H46 C55 1_555 1_555
C56 N7 1_555 1_555
H47 C56 1_555 1_555
C57 C56 1_555 1_555
H48 C57 1_555 1_555
C58 C57 1_555 1_555
C59 C58 1_555 1_555
C60 C59 1_555 1_555
H49 C60 1_555 1_555
C61 C60 1_555 1_555
H50 C61 1_555 1_555
C62 C61 1_555 1_555
H51 C62 1_555 1_555
C63 C62 1_555 1_555
H52 C63 1_555 1_555
C64 O4 1_555 1_555
C5 C6 1_555 1_555
C9 C10 1_555 1_555
C11 C16 1_555 1_555
C15 C16 1_555 1_555
C19 C23 1_555 1_555
C21 C22 1_555 1_555
C27 C32 1_555 1_555
C31 C32 1_555 1_555
C37 C38 1_555 1_555
C41 C42 1_555 1_555
C43 C48 1_555 1_555
C47 C48 1_555 1_555
C51 C55 1_555 1_555
C53 C54 1_555 1_555
C59 C64 1_555 1_555
C63 C64 1_555 1_555

#END
