
#######################################################################
#
#                 Cambridge Crystallographic Data Centre
#                                CCDC 
#
#######################################################################
#
# If this CIF has been generated from an entry in the Cambridge 
# Structural Database, then it will include bibliographic, chemical, 
# crystal, experimental, refinement or atomic coordinate data resulting 
# from the CCDC's data processing and validation procedures.
#
#######################################################################

data_FIVGOG
_chemical_formula_moiety         'C21 H32 O4'
_chemical_name_systematic        
'13,14-Didehydro-11-deoxy-11-methyl-15-oxoprostaglandin E~1~'
_chemical_properties_biological  'cytoprotective activity'
_symmetry_cell_setting           triclinic
_symmetry_space_group_name_H-M   'P -1'
_symmetry_Int_Tables_number      2
_space_group_name_Hall           '-P 1'
loop_
_symmetry_equiv_pos_site_id
_symmetry_equiv_pos_as_xyz
1 x,y,z
2 -x,-y,-z
_cell_length_a                   5.602(1)
_cell_length_b                   8.668(2)
_cell_length_c                   21.685(3)
_cell_angle_alpha                89.41(1)
_cell_angle_beta                 89.76(2)
_cell_angle_gamma                76.64(10)
_cell_volume                     1024.43
_exptl_crystal_colour            white
_chemical_melting_point          30.5-31.0deg.C
_cell_formula_units_Z            2
loop_
_atom_site_label
_atom_site_type_symbol
_atom_site_fract_x
_atom_site_fract_y
_atom_site_fract_z
O1 O 1.8204(4) 0.2068(2) 0.5019(1)
O2 O 1.7729(3) -0.0195(2) 0.5443(1)
O3 O 0.2670(3) 0.0670(2) 0.8346(1)
O4 O 0.7938(4) 0.8083(2) 0.8913(1)
C1 C 1.7039(5) 0.1233(4) 0.5375(1)
C2 C 1.4820(5) 0.2213(3) 0.5688(1)
C3 C 1.3518(5) 0.1273(3) 0.6113(1)
C4 C 1.1496(5) 0.2309(3) 0.6496(1)
C5 C 1.0124(5) 0.1369(3) 0.6904(1)
C6 C 0.8386(5) 0.2376(3) 0.7360(1)
C7 C 0.7042(5) 0.1411(3) 0.7764(1)
C8 C 0.5640(4) 0.2298(3) 0.8303(1)
C9 C 0.3963(4) 0.1379(3) 0.8620(1)
C10 C 0.4196(5) 0.1462(3) 0.9306(1)
C11 C 0.5520(5) 0.2790(3) 0.9419(1)
C12 C 0.7190(4) 0.2688(3) 0.8844(1)
C13 C 0.8094(4) 0.4143(3) 0.8763(1)
C14 C 0.8682(5) 0.5387(3) 0.8726(1)
C15 C 0.9302(5) 0.6931(3) 0.8686(1)
C16 C 1.1634(5) 0.7014(3) 0.8360(1)
C17 C 1.1486(5) 0.6778(3) 0.7665(1)
C18 C 1.3854(5) 0.6856(3) 0.7335(1)
C19 C 1.3756(6) 0.6669(4) 0.6644(1)
C20 C 1.6196(6) 0.6627(4) 0.6321(2)
C21 C 0.6899(6) 0.2671(4) 1.0022(1)
H1 H 1.5386(45) 0.3035(28) 0.5915(11)
H2 H 1.3743(50) 0.2710(32) 0.5365(13)
H3 H 1.2889(41) 0.0504(25) 0.5867(10)
H4 H 1.4718(50) 0.0628(31) 0.6405(12)
H5 H 1.0308(42) 0.3012(26) 0.6224(11)
H6 H 1.2274(43) 0.3053(28) 0.6740(11)
H7 H 1.1327(44) 0.0566(28) 0.7132(11)
H8 H 0.9216(47) 0.0777(29) 0.6633(12)
H9 H 0.7200(43) 0.3128(27) 0.7125(11)
H10 H 0.9419(49) 0.2931(31) 0.7632(12)
H11 H 0.5897(40) 0.0969(26) 0.7522(10)
H12 H 0.8226(39) 0.0513(24) 0.7944(10)
H13 H 0.4555(39) 0.3311(25) 0.8145(10)
H14 H 0.2573(44) 0.1635(27) 0.9519(11)
H15 H 0.5237(42) 0.0444(27) 0.9443(11)
H16 H 0.4286(41) 0.3826(27) 0.9403(10)
H17 H 0.8695(38) 0.1770(24) 0.8899(9)
H18 H 1.2985(43) 0.6164(28) 0.8539(11)
H19 H 1.2034(45) 0.8078(29) 0.8439(11)
H20 H 1.0070(45) 0.7612(30) 0.7493(11)
H21 H 1.1054(42) 0.5750(28) 0.7585(10)
H22 H 1.5220(45) 0.6078(29) 0.7511(11)
H23 H 1.4273(47) 0.7861(32) 0.7427(12)
H24 H 1.3334(50) 0.5615(31) 0.6567(12)
H25 H 1.2343(48) 0.7530(31) 0.6438(12)
H26 H 1.7582(50) 0.5787(34) 0.6512(13)
H27 H 1.6741(54) 0.7602(36) 0.6385(14)
H28 H 1.5979(62) 0.6523(41) 0.5871(16)
H29 H 0.7785(48) 0.3526(13) 1.0069(12)
H30 H 0.5762(49) 0.2749(31) 1.0375(13)
H31 H 0.8152(47) 0.1635(30) 1.0066(11)
H32 H 1.9629(61) 0.1414(38) 0.4831(15)
loop_
_geom_bond_atom_site_label_1
_geom_bond_atom_site_label_2
_geom_bond_site_symmetry_1
_geom_bond_site_symmetry_2
O1 C1 1_555 1_555
O2 C1 1_555 1_555
O3 C9 1_555 1_555
O4 C15 1_555 1_555
C1 C2 1_555 1_555
C2 C3 1_555 1_555
C3 C4 1_555 1_555
C4 C5 1_555 1_555
C5 C6 1_555 1_555
C6 C7 1_555 1_555
C7 C8 1_555 1_555
C8 C9 1_555 1_555
C9 C10 1_555 1_555
C10 C11 1_555 1_555
C11 C12 1_555 1_555
C12 C8 1_555 1_555
C13 C12 1_555 1_555
C14 C13 1_555 1_555
C15 C14 1_555 1_555
C16 C15 1_555 1_555
C17 C16 1_555 1_555
C18 C17 1_555 1_555
C19 C18 1_555 1_555
C20 C19 1_555 1_555
C21 C11 1_555 1_555
H1 C2 1_555 1_555
H2 C2 1_555 1_555
H3 C3 1_555 1_555
H4 C3 1_555 1_555
H5 C4 1_555 1_555
H6 C4 1_555 1_555
H7 C5 1_555 1_555
H8 C5 1_555 1_555
H9 C6 1_555 1_555
H10 C6 1_555 1_555
H11 C7 1_555 1_555
H12 C7 1_555 1_555
H13 C8 1_555 1_555
H14 C10 1_555 1_555
H15 C10 1_555 1_555
H16 C11 1_555 1_555
H17 C12 1_555 1_555
H18 C16 1_555 1_555
H19 C16 1_555 1_555
H20 C17 1_555 1_555
H21 C17 1_555 1_555
H22 C18 1_555 1_555
H23 C18 1_555 1_555
H24 C19 1_555 1_555
H25 C19 1_555 1_555
H26 C20 1_555 1_555
H27 C20 1_555 1_555
H28 C20 1_555 1_555
H29 C21 1_555 1_555
H30 C21 1_555 1_555
H31 C21 1_555 1_555
H32 O1 1_555 1_555

#END
