
#######################################################################
#
#                 Cambridge Crystallographic Data Centre
#                                CCDC 
#
#######################################################################
#
# If this CIF has been generated from an entry in the Cambridge 
# Structural Database, then it will include bibliographic, chemical, 
# crystal, experimental, refinement or atomic coordinate data resulting 
# from the CCDC's data processing and validation procedures.
#
#######################################################################

data_FIVMIG10
_chemical_formula_moiety         'C25 H42 O5,C1 H4 O1'
_chemical_name_systematic        'Methyl cholate methanol clathrate'
_symmetry_cell_setting           monoclinic
_symmetry_space_group_name_H-M   'C 2'
_symmetry_Int_Tables_number      5
_space_group_name_Hall           'C 2y'
loop_
_symmetry_equiv_pos_site_id
_symmetry_equiv_pos_as_xyz
1 x,y,z
2 1/2+x,1/2+y,z
3 -x,y,-z
4 1/2-x,1/2+y,-z
_cell_length_a                   25.184(3)
_cell_length_b                   7.797(1)
_cell_length_c                   15.174(3)
_cell_angle_alpha                90
_cell_angle_beta                 121.05(1)
_cell_angle_gamma                90
_cell_volume                     2552.64
_exptl_crystal_colour            colorless
_cell_formula_units_Z            4
loop_
_atom_site_label
_atom_site_type_symbol
_atom_site_fract_x
_atom_site_fract_y
_atom_site_fract_z
C1 C 0.15133(13) -0.2027(5) 0.0974(2)
C2 C 0.08558(12) -0.1907(4) 0.0034(2)
C3 C 0.07802(12) -0.0202(5) -0.0491(2)
C4 C 0.08991(12) 0.1257(4) 0.0240(2)
C5 C 0.15493(12) 0.1164(5) 0.1216(2)
C6 C 0.16517(13) 0.2697(5) 0.1924(2)
C7 C 0.13431(13) 0.2523(4) 0.2562(2)
C8 C 0.14931(12) 0.0794(4) 0.3112(2)
C9 C 0.13271(11) -0.0710(4) 0.2350(2)
C10 C 0.16916(11) -0.0584(4) 0.1774(2)
C11 C 0.13781(13) -0.2472(4) 0.2855(2)
C12 C 0.10885(12) -0.2556(4) 0.3532(2)
C13 C 0.13406(11) -0.1121(4) 0.4342(2)
C14 C 0.11896(11) 0.0593(4) 0.3756(2)
C15 C 0.13303(14) 0.1938(4) 0.4571(3)
C16 C 0.11507(14) 0.1077(5) 0.5296(3)
C17 C 0.10208(11) -0.0845(4) 0.4975(2)
C18 C 0.20424(12) -0.1374(5) 0.5076(2)
C19 C 0.23986(13) -0.0747(6) 0.2534(3)
C20 C 0.12063(11) -0.2036(5) 0.5908(2)
C21 C 0.10747(15) -0.3921(5) 0.5596(3)
C22 C 0.08747(14) -0.1517(5) 0.6481(3)
C23 C 0.12224(15) -0.2136(5) 0.7600(3)
C24 C 0.17669(15) -0.1032(5) 0.8285(3)
O1 O 0.01661(9) 0.0043(4) -0.1358(2)
O2 O 0.04214(8) -0.2394(3) 0.2901(2)
O3 O 0.18351(16) 0.0437(5) 0.8142(2)
O4 O 0.21803(11) -0.1866(4) 0.9135(2)
O5 O 0.06824(9) 0.2827(3) 0.1946(2)
C25 C 0.27111(17) -0.0906(6) 0.9889(3)
H1 H 0.180(2) -0.200(5) 0.075(3)
H2 H 0.154(2) -0.321(5) 0.124(3)
H3 H 0.054(2) -0.196(5) 0.029(3)
H4 H 0.081(2) -0.287(5) -0.041(3)
H5 H 0.108(2) -0.011(5) -0.078(2)
H6 H 0.055(2) 0.111(5) 0.043(3)
H7 H 0.088(2) 0.235(5) -0.012(3)
H8 H 0.185(2) 0.130(4) 0.095(2)
H9 H 0.149(2) 0.375(5) 0.150(3)
H10 H 0.209(2) 0.283(6) 0.237(3)
H11 H 0.150(2) 0.353(5) 0.305(3)
H12 H 0.195(2) 0.084(4) 0.359(2)
H13 H 0.088(2) -0.059(4) 0.181(2)
H14 H 0.182(2) -0.289(4) 0.332(2)
H15 H 0.116(2) -0.346(5) 0.225(3)
H16 H 0.120(2) -0.380(5) 0.390(2)
H17 H 0.075(2) 0.064(5) 0.327(3)
H18 H 0.111(2) 0.303(6) 0.425(3)
H19 H 0.178(2) 0.225(5) 0.493(3)
H20 H 0.074(2) 0.161(5) 0.520(3)
H21 H 0.151(2) 0.110(6) 0.607(3)
H22 H 0.058(2) -0.095(5) 0.449(2)
H23 H 0.220(2) -0.051(5) 0.566(3)
H24 H 0.228(2) -0.118(5) 0.478(3)
H25 H 0.213(2) -0.256(5) 0.539(3)
H26 H 0.250(2) -0.186(6) 0.287(3)
H27 H 0.257(2) 0.022(6) 0.310(3)
H28 H 0.263(2) -0.053(5) 0.214(3)
H29 H 0.166(2) -0.191(5) 0.640(2)
H30 H 0.139(2) -0.440(6) 0.539(3)
H31 H 0.066(2) -0.403(6) 0.503(3)
H32 H 0.115(2) -0.456(5) 0.616(3)
H33 H 0.045(2) -0.200(6) 0.613(3)
H34 H 0.081(2) -0.022(6) 0.644(3)
H35 H 0.139(2) -0.341(6) 0.765(3)
H36 H 0.093(2) -0.218(6) 0.787(3)
H37 H 0.003(2) -0.076(6) -0.183(3)
H38 H 0.027(2) -0.339(6) 0.273(3)
H39 H 0.045(2) 0.180(6) 0.173(3)
H40 H 0.299(2) -0.156(7) 1.047(3)
H41 H 0.260(2) 0.017(7) 1.006(4)
H42 H 0.303(2) -0.054(7) 0.962(3)
C26 C 0.04113(22) 0.3370(7) 0.7284(5)
O6 O 0.00860(15) 0.4452(4) 0.7533(3)
H43 H 0.043(3) 0.212(8) 0.739(4)
H44 H 0.090(3) 0.351(8) 0.772(4)
H45 H 0.037(3) 0.361(8) 0.671(4)
H46 H -0.004(3) 0.414(8) 0.794(4)
loop_
_geom_bond_atom_site_label_1
_geom_bond_atom_site_label_2
_geom_bond_site_symmetry_1
_geom_bond_site_symmetry_2
C1 C2 1_555 1_555
C2 C3 1_555 1_555
C3 C4 1_555 1_555
C4 C5 1_555 1_555
C5 C6 1_555 1_555
C6 C7 1_555 1_555
C7 C8 1_555 1_555
C8 C9 1_555 1_555
C9 C10 1_555 1_555
C10 C1 1_555 1_555
C11 C9 1_555 1_555
C12 C11 1_555 1_555
C13 C12 1_555 1_555
C14 C8 1_555 1_555
C15 C14 1_555 1_555
C16 C15 1_555 1_555
C17 C13 1_555 1_555
C18 C13 1_555 1_555
C19 C10 1_555 1_555
C20 C17 1_555 1_555
C21 C20 1_555 1_555
C22 C20 1_555 1_555
C23 C22 1_555 1_555
C24 C23 1_555 1_555
O1 C3 1_555 1_555
O2 C12 1_555 1_555
O3 C24 1_555 1_555
O4 C24 1_555 1_555
O5 C7 1_555 1_555
C25 O4 1_555 1_555
H1 C1 1_555 1_555
H2 C1 1_555 1_555
H3 C2 1_555 1_555
H4 C2 1_555 1_555
H5 C3 1_555 1_555
H6 C4 1_555 1_555
H7 C4 1_555 1_555
H8 C5 1_555 1_555
H9 C6 1_555 1_555
H10 C6 1_555 1_555
H11 C7 1_555 1_555
H12 C8 1_555 1_555
H13 C9 1_555 1_555
H14 C11 1_555 1_555
H15 C11 1_555 1_555
H16 C12 1_555 1_555
H17 C14 1_555 1_555
H18 C15 1_555 1_555
H19 C15 1_555 1_555
H20 C16 1_555 1_555
H21 C16 1_555 1_555
H22 C17 1_555 1_555
H23 C18 1_555 1_555
H24 C18 1_555 1_555
H25 C18 1_555 1_555
H26 C19 1_555 1_555
H27 C19 1_555 1_555
H28 C19 1_555 1_555
H29 C20 1_555 1_555
H30 C21 1_555 1_555
H31 C21 1_555 1_555
H32 C21 1_555 1_555
H33 C22 1_555 1_555
H34 C22 1_555 1_555
H35 C23 1_555 1_555
H36 C23 1_555 1_555
H37 O1 1_555 1_555
H38 O2 1_555 1_555
H39 O5 1_555 1_555
H40 C25 1_555 1_555
H41 C25 1_555 1_555
H42 C25 1_555 1_555
C26 O6 1_555 1_555
O6 H46 1_555 1_555
H43 C26 1_555 1_555
H44 C26 1_555 1_555
H45 C26 1_555 1_555
C5 C10 1_555 1_555
C13 C14 1_555 1_555
C16 C17 1_555 1_555

#END
