
#######################################################################
#
#                 Cambridge Crystallographic Data Centre
#                                CCDC 
#
#######################################################################
#
# If this CIF has been generated from an entry in the Cambridge 
# Structural Database, then it will include bibliographic, chemical, 
# crystal, experimental, refinement or atomic coordinate data resulting 
# from the CCDC's data processing and validation procedures.
#
#######################################################################

data_FIVNIK
_chemical_formula_moiety         'C38 H41 B1 F2 N2 O3,0.5(C4 H10 O1)'
_chemical_name_systematic        
"1,7,7-trimethylbicyclo[2.2.1]heptan-2-yl 4-{2-[5,5-difluoro-10-(4-methoxyphenyl)-1,7,9-trimethyl-5H-6\l^5^,5\l^5^-dipyrrolo[1,2-c:2',1'-f][1,3,2]diazaborinin-3-yl]ethenyl}benzoate diethyl ether solvate"
_symmetry_cell_setting           monoclinic
_symmetry_space_group_name_H-M   'C 2'
_symmetry_Int_Tables_number      5
_space_group_name_Hall           'C 2y'
loop_
_symmetry_equiv_pos_site_id
_symmetry_equiv_pos_as_xyz
1 x,y,z
2 -x,y,-z
3 1/2+x,1/2+y,z
4 1/2-x,1/2+y,-z
_cell_length_a                   28.463(6)
_cell_length_b                   10.633(2)
_cell_length_c                   23.873(5)
_cell_angle_alpha                90
_cell_angle_beta                 90.42(3)
_cell_angle_gamma                90
_cell_volume                     7224.9
_exptl_crystal_description       block
_cell_formula_units_Z            8
loop_
_atom_site_label
_atom_site_type_symbol
_atom_site_fract_x
_atom_site_fract_y
_atom_site_fract_z
O1 O 0.28817(18) 1.7826(6) 0.9594(2)
O2 O 0.59922(14) 0.8227(5) 0.52866(16)
O3 O 0.65249(17) 0.7847(5) 0.59454(18)
C1 C 0.2926(3) 1.9135(9) 0.9539(4)
H1 H 0.2822 1.9536 0.9876
H2 H 0.3249 1.9346 0.9473
H3 H 0.2737 1.9419 0.9229
C2 C 0.3016(2) 1.7094(8) 0.9143(3)
C3 C 0.3161(3) 1.7547(7) 0.8640(3)
H4 H 0.3174 1.8411 0.8582
C4 C 0.3287(3) 1.6744(6) 0.8217(3)
H5 H 0.3390 1.7074 0.7879
C5 C 0.32660(19) 1.5472(6) 0.8283(2)
C6 C 0.3125(2) 1.5005(7) 0.8801(3)
H6 H 0.3116 1.4143 0.8863
C7 C 0.2998(2) 1.5826(8) 0.9219(3)
H7 H 0.2898 1.5508 0.9561
C8 C 0.2809(2) 1.2371(8) 0.6171(3)
H8 H 0.2500 1.2349 0.6008
H9 H 0.3026 1.2722 0.5908
H10 H 0.2906 1.1532 0.6267
C9 C 0.2803(2) 1.3159(7) 0.6685(3)
C10 C 0.2428(2) 1.3828(7) 0.6908(3)
H11 H 0.2124 1.3838 0.6766
C11 C 0.2276(2) 1.5334(8) 0.7721(3)
H12 H 0.2459 1.5678 0.8024
H13 H 0.2159 1.6006 0.7491
H14 H 0.2017 1.4866 0.7870
C12 C 0.2582(2) 1.4469(7) 0.7372(3)
C13 C 0.30642(18) 1.4181(6) 0.7439(2)
C14 C 0.34011(19) 1.4579(6) 0.7824(2)
C15 C 0.38671(18) 1.4157(6) 0.7799(2)
C16 C 0.4271(2) 1.4446(6) 0.8128(3)
C17 C 0.4328(2) 1.5310(8) 0.8620(3)
H15 H 0.4030 1.5684 0.8706
H16 H 0.4439 1.4841 0.8937
H17 H 0.4549 1.5958 0.8530
C18 C 0.4633(2) 1.3762(8) 0.7898(3)
H18 H 0.4942 1.3763 0.8027
C19 C 0.44647(19) 1.3065(7) 0.7442(2)
C20 C 0.47059(18) 1.2195(7) 0.7081(2)
H19 H 0.4557 1.1955 0.6751
C21 C 0.5125(2) 1.1717(7) 0.7190(2)
H20 H 0.5274 1.1969 0.7520
C22 C 0.53752(18) 1.0819(6) 0.6832(2)
C23 C 0.57695(19) 1.0180(6) 0.7041(2)
H21 H 0.5871 1.0318 0.7407
C24 C 0.60059(19) 0.9349(7) 0.6704(2)
H22 H 0.6260 0.8907 0.6851
C25 C 0.58762(18) 0.9155(6) 0.6154(2)
C26 C 0.5488(2) 0.9778(8) 0.5956(3)
H23 H 0.5387 0.9641 0.5589
C27 C 0.5247(2) 1.0599(8) 0.6288(2)
H24 H 0.4988 1.1020 0.6139
C28 C 0.6164(2) 0.8340(6) 0.5796(2)
C29 C 0.6252(2) 0.7486(8) 0.4882(3)
H25 H 0.6367 0.6717 0.5063
C30 C 0.5711(4) 0.8277(12) 0.4175(4)
H26 H 0.5570 0.8768 0.4472
H27 H 0.5472 0.8061 0.3899
C31 C 0.6311(3) 0.6855(9) 0.3942(3)
C32 C 0.6537(6) 0.8116(17) 0.4000(6)
H28 H 0.6804 0.8268 0.3752
C33 C 0.6651(3) 0.8174(13) 0.4640(5)
H29 H 0.6947 0.7764 0.4727
H30 H 0.6662 0.9036 0.4774
C34 C 0.6122(9) 0.8964(12) 0.3909(6)
H31 H 0.6065 0.9099 0.3513
H32 H 0.6173 0.9772 0.4089
C35 C 0.59487(19) 0.7148(6) 0.4395(2)
C36 C 0.5611(5) 0.6102(15) 0.4514(5)
H33 H 0.5780 0.5388 0.4656
H34 H 0.5387 0.6376 0.4787
H35 H 0.5450 0.5872 0.4175
C37 C 0.6636(4) 0.5772(13) 0.4083(4)
H36 H 0.6470 0.4992 0.4037
H37 H 0.6901 0.5786 0.3837
H38 H 0.6742 0.5849 0.4464
C38 C 0.6111(3) 0.6571(13) 0.3366(3)
H39 H 0.5973 0.5747 0.3366
H40 H 0.5875 0.7183 0.3273
H41 H 0.6357 0.6604 0.3094
N1 N 0.31872(15) 1.3360(5) 0.70036(19)
N2 N 0.40003(14) 1.3322(5) 0.73769(17)
B1 B 0.3674(3) 1.2758(9) 0.6928(3)
F1 F 0.36355(13) 1.1461(4) 0.70011(17)
F2 F 0.38415(12) 1.2998(5) 0.64032(13)
B2 B 1.1297(2) 0.2075(8) 0.8066(3)
C39 C 1.2088(3) -0.4232(10) 0.5455(4)
H42 H 1.2203 -0.4620 0.5120
H43 H 1.2271 -0.4515 0.5771
H44 H 1.1765 -0.4458 0.5508
C40 C 1.1978(2) -0.2202(8) 0.5848(3)
C41 C 1.1833(3) -0.2696(7) 0.6352(3)
H45 H 1.1826 -0.3560 0.6410
C42 C 1.1698(3) -0.1863(7) 0.6770(3)
H46 H 1.1597 -0.2184 0.7111
C43 C 1.1709(2) -0.0579(6) 0.6695(2)
C44 C 1.1855(2) -0.0119(7) 0.6187(3)
H47 H 1.1864 0.0745 0.6127
C45 C 1.1989(2) -0.0925(7) 0.5768(3)
H48 H 1.2088 -0.0603 0.5426
C46 C 1.2151(2) 0.2455(8) 0.8834(3)
H49 H 1.2459 0.2464 0.9002
H50 H 1.2059 0.3299 0.8742
H51 H 1.1931 0.2103 0.9093
C47 C 1.2159(2) 0.1678(6) 0.8315(2)
C48 C 1.2537(2) 0.1001(7) 0.8095(3)
H52 H 1.2839 0.0988 0.8246
C49 C 1.2695(2) -0.0472(8) 0.7285(3)
H53 H 1.2515 -0.0806 0.6978
H54 H 1.2956 -0.0003 0.7143
H55 H 1.2809 -0.1150 0.7514
C50 C 1.2396(2) 0.0362(7) 0.7624(3)
C51 C 1.19057(19) 0.0666(6) 0.7548(2)
C52 C 1.15756(19) 0.0301(6) 0.7154(2)
C53 C 1.11091(19) 0.0727(6) 0.7177(2)
C54 C 1.0707(2) 0.0500(7) 0.6829(3)
C55 C 1.0673(2) -0.0346(8) 0.6325(3)
H56 H 1.0975 -0.0714 0.6254
H57 H 1.0448 -0.1000 0.6395
H58 H 1.0574 0.0136 0.6005
C56 C 1.0349(2) 0.1176(8) 0.7052(3)
H59 H 1.0042 0.1198 0.6915
C57 C 1.05142(18) 0.1829(6) 0.7517(2)
C58 C 1.02648(19) 0.2690(6) 0.7884(2)
H60 H 1.0409 0.2901 0.8221
C59 C 0.98524(18) 0.3194(6) 0.7776(2)
H61 H 0.9713 0.2993 0.7434
C60 C 0.95912(18) 0.4043(6) 0.8144(2)
C61 C 0.9717(2) 0.4215(7) 0.8697(2)
H62 H 0.9974 0.3775 0.8840
C62 C 0.9476(2) 0.5014(7) 0.9040(2)
H63 H 0.9570 0.5112 0.9412
C63 C 0.90938(17) 0.5673(6) 0.8837(2)
C64 C 0.89688(19) 0.5527(7) 0.8282(2)
H64 H 0.8716 0.5979 0.8137
C65 C 0.9213(2) 0.4723(7) 0.7944(3)
H65 H 0.9122 0.4634 0.7571
C66 C 0.88143(19) 0.6513(6) 0.9198(2)
C67 C 0.8746(2) 0.7321(7) 1.0128(2)
H66 H 0.8407 0.7340 1.0052
C68 C 0.8948(4) 0.8667(7) 1.0131(3)
H67 H 0.9196 0.8761 0.9859
H68 H 0.8705 0.9288 1.0057
C69 C 0.9140(4) 0.8779(8) 1.0736(3)
H69 H 0.9203 0.9636 1.0868
C70 C 0.9557(3) 0.7834(15) 1.0786(4)
H70 H 0.9775 0.7951 1.0481
H71 H 0.9724 0.7953 1.1138
C71 C 0.9351(3) 0.6607(13) 1.0763(3)
H72 H 0.9422 0.6136 1.1101
H73 H 0.9466 0.6142 1.0442
C72 C 0.8841(2) 0.6841(6) 1.0710(2)
C73 C 0.8755(2) 0.8048(7) 1.1060(3)
C74 C 0.8534(4) 0.5696(9) 1.0850(4)
H74 H 0.8209 0.5917 1.0807
H75 H 0.8608 0.5018 1.0600
H76 H 0.8593 0.5439 1.1229
C75 C 0.8267(3) 0.8530(12) 1.1042(4)
H77 H 0.8167 0.8614 1.0659
H78 H 0.8064 0.7953 1.1233
H79 H 0.8255 0.9336 1.1223
C76 C 0.8886(3) 0.7943(12) 1.1682(3)
H80 H 0.9201 0.7632 1.1718
H81 H 0.8865 0.8757 1.1854
H82 H 0.8674 0.7375 1.1864
N3 N 1.09729(15) 0.1563(5) 0.75976(17)
N4 N 1.17817(15) 0.1485(5) 0.79862(18)
O4 O 1.21257(18) -0.2915(6) 0.5408(2)
O5 O 0.89807(14) 0.6547(5) 0.97208(16)
O6 O 0.84605(17) 0.7050(5) 0.90557(17)
F3 F 1.13181(13) 0.3359(4) 0.80331(17)
F4 F 1.11132(12) 0.1731(5) 0.85830(13)
O7 O 1.0000 0.2632(10) 1.0000
C77 C 1.0396(5) 0.1934(14) 0.9905(7)
H83 H 1.0413 0.1284 1.0189
H84 H 1.0357 0.1514 0.9546
C78 C 1.0817(5) 0.2549(17) 0.9899(6)
H85 H 1.1065 0.1958 0.9829
H86 H 1.0813 0.3176 0.9610
H87 H 1.0870 0.2945 1.0255
C77A C 0.9604(5) 0.1934(14) 1.0095(7)
H83A H 0.9587 0.1284 0.9811
H84A H 0.9643 0.1514 1.0454
C78A C 0.9183(5) 0.2549(17) 1.0101(6)
H85A H 0.8935 0.1958 1.0171
H86A H 0.9187 0.3176 1.0390
H87A H 0.9130 0.2945 0.9745
O8 O 0.5000 1.2036(12) 0.5000
C79 C 0.4170(5) 1.2122(17) 0.5089(6)
H88 H 0.3924 1.2734 0.5126
H89 H 0.4117 1.1636 0.4755
H90 H 0.4170 1.1574 0.5409
C80 C 0.4596(5) 1.2723(17) 0.5055(7)
H91 H 0.4579 1.3296 0.4740
H92 H 0.4631 1.3234 0.5389
C79A C 0.5830(5) 1.2122(17) 0.4911(6)
H88A H 0.6076 1.2734 0.4874
H89A H 0.5883 1.1636 0.5245
H90A H 0.5830 1.1574 0.4591
C80A C 0.5404(5) 1.2723(17) 0.4945(7)
H91A H 0.5421 1.3296 0.5260
H92A H 0.5369 1.3234 0.4611
loop_
_geom_bond_atom_site_label_1
_geom_bond_atom_site_label_2
_geom_bond_site_symmetry_1
_geom_bond_site_symmetry_2
O1 C1 1_555 1_555
O2 C28 1_555 1_555
O3 C28 1_555 1_555
C1 H1 1_555 1_555
H2 C1 1_555 1_555
H3 C1 1_555 1_555
C2 O1 1_555 1_555
C3 C2 1_555 1_555
H4 C3 1_555 1_555
C4 C3 1_555 1_555
H5 C4 1_555 1_555
C5 C4 1_555 1_555
C6 C5 1_555 1_555
H6 C6 1_555 1_555
C7 C2 1_555 1_555
H7 C7 1_555 1_555
C8 H8 1_555 1_555
H9 C8 1_555 1_555
H10 C8 1_555 1_555
C9 C8 1_555 1_555
C10 C9 1_555 1_555
H11 C10 1_555 1_555
C11 H12 1_555 1_555
H13 C11 1_555 1_555
H14 C11 1_555 1_555
C12 C10 1_555 1_555
C13 C12 1_555 1_555
C14 C5 1_555 1_555
C15 C14 1_555 1_555
C16 C15 1_555 1_555
C17 C16 1_555 1_555
H15 C17 1_555 1_555
H16 C17 1_555 1_555
H17 C17 1_555 1_555
C18 C16 1_555 1_555
H18 C18 1_555 1_555
C19 C18 1_555 1_555
C20 C19 1_555 1_555
H19 C20 1_555 1_555
C21 C20 1_555 1_555
H20 C21 1_555 1_555
C22 C21 1_555 1_555
C23 C22 1_555 1_555
H21 C23 1_555 1_555
C24 C23 1_555 1_555
H22 C24 1_555 1_555
C25 C24 1_555 1_555
C26 C25 1_555 1_555
H23 C26 1_555 1_555
C27 C22 1_555 1_555
H24 C27 1_555 1_555
C28 C25 1_555 1_555
C29 O2 1_555 1_555
H25 C29 1_555 1_555
C30 H26 1_555 1_555
H27 C30 1_555 1_555
C31 C32 1_555 1_555
C32 H28 1_555 1_555
C33 C29 1_555 1_555
H29 C33 1_555 1_555
H30 C33 1_555 1_555
C34 C30 1_555 1_555
H31 C34 1_555 1_555
H32 C34 1_555 1_555
C35 C29 1_555 1_555
C36 C35 1_555 1_555
H33 C36 1_555 1_555
H34 C36 1_555 1_555
H35 C36 1_555 1_555
C37 C31 1_555 1_555
H36 C37 1_555 1_555
H37 C37 1_555 1_555
H38 C37 1_555 1_555
C38 C31 1_555 1_555
H39 C38 1_555 1_555
H40 C38 1_555 1_555
H41 C38 1_555 1_555
N1 C9 1_555 1_555
N2 C15 1_555 1_555
B1 N1 1_555 1_555
F1 B1 1_555 1_555
F2 B1 1_555 1_555
B2 N3 1_555 1_555
C39 H42 1_555 1_555
H43 C39 1_555 1_555
H44 C39 1_555 1_555
C40 C41 1_555 1_555
C41 H45 1_555 1_555
C42 C41 1_555 1_555
H46 C42 1_555 1_555
C43 C42 1_555 1_555
C44 C43 1_555 1_555
H47 C44 1_555 1_555
C45 C40 1_555 1_555
H48 C45 1_555 1_555
C46 H49 1_555 1_555
H50 C46 1_555 1_555
H51 C46 1_555 1_555
C47 C46 1_555 1_555
C48 C47 1_555 1_555
H52 C48 1_555 1_555
C49 H53 1_555 1_555
H54 C49 1_555 1_555
H55 C49 1_555 1_555
C50 C48 1_555 1_555
C51 C50 1_555 1_555
C52 C43 1_555 1_555
C53 C52 1_555 1_555
C54 C53 1_555 1_555
C55 C54 1_555 1_555
H56 C55 1_555 1_555
H57 C55 1_555 1_555
H58 C55 1_555 1_555
C56 C54 1_555 1_555
H59 C56 1_555 1_555
C57 C56 1_555 1_555
C58 C57 1_555 1_555
H60 C58 1_555 1_555
C59 C58 1_555 1_555
H61 C59 1_555 1_555
C60 C59 1_555 1_555
C61 C60 1_555 1_555
H62 C61 1_555 1_555
C62 C61 1_555 1_555
H63 C62 1_555 1_555
C63 C62 1_555 1_555
C64 C63 1_555 1_555
H64 C64 1_555 1_555
C65 C60 1_555 1_555
H65 C65 1_555 1_555
C66 C63 1_555 1_555
C67 H66 1_555 1_555
C68 C67 1_555 1_555
H67 C68 1_555 1_555
H68 C68 1_555 1_555
C69 C68 1_555 1_555
H69 C69 1_555 1_555
C70 C69 1_555 1_555
H70 C70 1_555 1_555
H71 C70 1_555 1_555
C71 C70 1_555 1_555
H72 C71 1_555 1_555
H73 C71 1_555 1_555
C72 C67 1_555 1_555
C73 C69 1_555 1_555
C74 C72 1_555 1_555
H74 C74 1_555 1_555
H75 C74 1_555 1_555
H76 C74 1_555 1_555
C75 C73 1_555 1_555
H77 C75 1_555 1_555
H78 C75 1_555 1_555
H79 C75 1_555 1_555
C76 C73 1_555 1_555
H80 C76 1_555 1_555
H81 C76 1_555 1_555
H82 C76 1_555 1_555
N3 C53 1_555 1_555
N4 B2 1_555 1_555
O4 C39 1_555 1_555
O5 C66 1_555 1_555
O6 C66 1_555 1_555
F3 B2 1_555 1_555
F4 B2 1_555 1_555
O7 C77 1_555 1_555
C77 H83 1_555 1_555
H84 C77 1_555 1_555
C78 C77 1_555 1_555
H85 C78 1_555 1_555
H86 C78 1_555 1_555
H87 C78 1_555 1_555
O8 C80 1_555 1_555
C79 H88 1_555 1_555
H89 C79 1_555 1_555
H90 C79 1_555 1_555
C80 C79 1_555 1_555
H91 C80 1_555 1_555
H92 C80 1_555 1_555
C77A O7 1_555 1_555
H83A C77A 1_555 1_555
H84A C77A 1_555 1_555
C78A C77A 1_555 1_555
H85A C78A 1_555 1_555
H86A C78A 1_555 1_555
H87A C78A 1_555 1_555
C79A H88A 1_555 1_555
H89A C79A 1_555 1_555
H90A C79A 1_555 1_555
C80A O8 1_555 1_555
H91A C80A 1_555 1_555
H92A C80A 1_555 1_555
C6 C7 1_555 1_555
C11 C12 1_555 1_555
C13 C14 1_555 1_555
C13 N1 1_555 1_555
C19 N2 1_555 1_555
C26 C27 1_555 1_555
C30 C35 1_555 1_555
C31 C35 1_555 1_555
C32 C33 1_555 1_555
C32 C34 1_555 1_555
N2 B1 1_555 1_555
C40 O4 1_555 1_555
C44 C45 1_555 1_555
C47 N4 1_555 1_555
C49 C50 1_555 1_555
C51 C52 1_555 1_555
C51 N4 1_555 1_555
C57 N3 1_555 1_555
C64 C65 1_555 1_555
C67 O5 1_555 1_555
C71 C72 1_555 1_555
C72 C73 1_555 1_555
C79A C80A 1_555 1_555

#END
