
#######################################################################
#
#                 Cambridge Crystallographic Data Centre
#                                CCDC 
#
#######################################################################
#
# If this CIF has been generated from an entry in the Cambridge 
# Structural Database, then it will include bibliographic, chemical, 
# crystal, experimental, refinement or atomic coordinate data resulting 
# from the CCDC's data processing and validation procedures.
#
#######################################################################

data_FIVPOS
_chemical_formula_moiety         'C27 H18 N2 O2'
_chemical_name_systematic        
2-(benzenecarbonyl)-1-hydroxy-9-methyl-3-phenyl-9H-carbazole-4-carbonitrile
_symmetry_cell_setting           monoclinic
_symmetry_space_group_name_H-M   'C 2/c'
_symmetry_Int_Tables_number      15
_space_group_name_Hall           '-C 2yn'
loop_
_symmetry_equiv_pos_site_id
_symmetry_equiv_pos_as_xyz
1 x,y,z
2 -x,y,1/2-z
3 1/2+x,1/2+y,z
4 1/2-x,1/2+y,1/2-z
5 -x,-y,-z
6 x,-y,1/2+z
7 1/2-x,1/2-y,-z
8 1/2+x,1/2-y,1/2+z
_cell_length_a                   16.4009(8)
_cell_length_b                   7.8236(4)
_cell_length_c                   31.4855(17)
_cell_angle_alpha                90
_cell_angle_beta                 102.498(3)
_cell_angle_gamma                90
_cell_volume                     3944.3
_exptl_crystal_colour            colorless
_exptl_crystal_description       prismatic
_cell_formula_units_Z            8
loop_
_atom_site_label
_atom_site_type_symbol
_atom_site_fract_x
_atom_site_fract_y
_atom_site_fract_z
N1 N 0.63709(8) 0.60976(18) 0.48378(4)
N2 N 0.92470(9) 0.3303(2) 0.59289(5)
O1 O 0.54019(7) 0.68432(16) 0.54954(4)
H1 H 0.5245 0.7167 0.5719
O2 O 0.59420(7) 0.75030(14) 0.64862(4)
C1 C 0.70195(10) 0.5580(2) 0.46506(5)
C2 C 0.70819(11) 0.5712(2) 0.42161(5)
H2 H 0.6637 0.6160 0.4000
C3 C 0.78153(12) 0.5164(2) 0.41134(6)
H3 H 0.7882 0.5266 0.3822
C4 C 0.84635(12) 0.4461(2) 0.44284(6)
H4 H 0.8958 0.4089 0.4346
C5 C 0.83988(11) 0.4299(2) 0.48546(6)
H5 H 0.8837 0.3799 0.5065
C6 C 0.76676(10) 0.4889(2) 0.49720(5)
C7 C 0.73946(9) 0.50258(19) 0.53753(5)
C8 C 0.65993(9) 0.5785(2) 0.52788(5)
C9 C 0.61753(9) 0.61432(19) 0.56116(5)
C10 C 0.65561(9) 0.57166(19) 0.60372(5)
C11 C 0.73627(9) 0.49739(19) 0.61455(5)
C12 C 0.77727(9) 0.4623(2) 0.58107(5)
C13 C 0.85941(10) 0.3891(2) 0.58930(5)
C14 C 0.56198(11) 0.6949(2) 0.45980(6)
H6 H 0.5156 0.6724 0.4741
H7 H 0.5480 0.6513 0.4299
H8 H 0.5719 0.8183 0.4593
C15 C 0.60573(9) 0.6043(2) 0.63796(5)
C16 C 0.56538(9) 0.4564(2) 0.65476(5)
C17 C 0.58130(10) 0.2893(2) 0.64403(5)
H9 H 0.6212 0.2678 0.6269
C18 C 0.53969(10) 0.1540(2) 0.65807(6)
H10 H 0.5509 0.0401 0.6506
C19 C 0.48153(11) 0.1856(2) 0.68312(6)
H11 H 0.4529 0.0932 0.6929
C20 C 0.46521(12) 0.3515(3) 0.69382(7)
H12 H 0.4250 0.3725 0.7109
C21 C 0.50662(11) 0.4872(2) 0.68000(6)
H13 H 0.4952 0.6009 0.6876
C22 C 0.77569(9) 0.4637(2) 0.66099(5)
C23 C 0.81106(10) 0.3043(2) 0.67440(5)
H14 H 0.8105 0.2159 0.6536
C24 C 0.84676(11) 0.2753(2) 0.71782(6)
H15 H 0.8703 0.1666 0.7266
C25 C 0.84870(11) 0.4023(3) 0.74858(6)
H16 H 0.8736 0.3813 0.7783
C26 C 0.81384(10) 0.5609(2) 0.73566(5)
H17 H 0.8145 0.6486 0.7566
C27 C 0.77810(9) 0.5911(2) 0.69235(5)
H18 H 0.7548 0.7002 0.6838
loop_
_geom_bond_atom_site_label_1
_geom_bond_atom_site_label_2
_geom_bond_site_symmetry_1
_geom_bond_site_symmetry_2
N1 C1 1_555 1_555
N2 C13 1_555 1_555
O1 H1 1_555 1_555
O2 C15 1_555 1_555
C1 C2 1_555 1_555
C2 H2 1_555 1_555
C3 C2 1_555 1_555
H3 C3 1_555 1_555
C4 C3 1_555 1_555
H4 C4 1_555 1_555
C5 C4 1_555 1_555
H5 C5 1_555 1_555
C6 C1 1_555 1_555
C7 C6 1_555 1_555
C8 N1 1_555 1_555
C9 O1 1_555 1_555
C10 C9 1_555 1_555
C11 C10 1_555 1_555
C12 C7 1_555 1_555
C13 C12 1_555 1_555
C14 N1 1_555 1_555
H6 C14 1_555 1_555
H7 C14 1_555 1_555
H8 C14 1_555 1_555
C15 C10 1_555 1_555
C16 C15 1_555 1_555
C17 C16 1_555 1_555
H9 C17 1_555 1_555
C18 C17 1_555 1_555
H10 C18 1_555 1_555
C19 C18 1_555 1_555
H11 C19 1_555 1_555
C20 C19 1_555 1_555
H12 C20 1_555 1_555
C21 C16 1_555 1_555
H13 C21 1_555 1_555
C22 C11 1_555 1_555
C23 C22 1_555 1_555
H14 C23 1_555 1_555
C24 C23 1_555 1_555
H15 C24 1_555 1_555
C25 C24 1_555 1_555
H16 C25 1_555 1_555
C26 C25 1_555 1_555
H17 C26 1_555 1_555
C27 C22 1_555 1_555
H18 C27 1_555 1_555
C5 C6 1_555 1_555
C7 C8 1_555 1_555
C8 C9 1_555 1_555
C11 C12 1_555 1_555
C20 C21 1_555 1_555
C26 C27 1_555 1_555

#END
