
#######################################################################
#
#                 Cambridge Crystallographic Data Centre
#                                CCDC 
#
#######################################################################
#
# If this CIF has been generated from an entry in the Cambridge 
# Structural Database, then it will include bibliographic, chemical, 
# crystal, experimental, refinement or atomic coordinate data resulting 
# from the CCDC's data processing and validation procedures.
#
#######################################################################

data_FIVPEI
_chemical_formula_moiety         'C27 H20 N2 O2'
_chemical_name_systematic        
5-hydroxy-4-(1-methyl-1H-indole-2-carbonyl)-3,5-diphenylpenta-2,4-dienenitrile
_symmetry_cell_setting           monoclinic
_symmetry_space_group_name_H-M   'P 21/n'
_symmetry_Int_Tables_number      14
_space_group_name_Hall           '-P 2yn'
loop_
_symmetry_equiv_pos_site_id
_symmetry_equiv_pos_as_xyz
1 x,y,z
2 1/2-x,1/2+y,1/2-z
3 -x,-y,-z
4 1/2+x,1/2-y,1/2+z
_cell_length_a                   10.2176(5)
_cell_length_b                   22.5674(12)
_cell_length_c                   10.3343(5)
_cell_angle_alpha                90
_cell_angle_beta                 117.4990(10)
_cell_angle_gamma                90
_cell_volume                     2113.7
_exptl_crystal_colour            yellow
_exptl_crystal_description       prismatic
_cell_formula_units_Z            4
loop_
_atom_site_label
_atom_site_type_symbol
_atom_site_fract_x
_atom_site_fract_y
_atom_site_fract_z
O1 O 0.26049(15) 0.52564(5) 0.82209(17)
O2 O 0.31792(15) 0.62926(5) 0.88868(16)
H1 H 0.2801 0.5965 0.8803
N1 N 0.28441(14) 0.42183(6) 0.67849(16)
N2 N 0.21171(17) 0.54847(8) 0.39947(18)
C1 C 0.35161(17) 0.36987(7) 0.67161(17)
C2 C 0.2897(2) 0.31468(8) 0.6143(2)
H2 H 0.1884 0.3085 0.5725
C3 C 0.3840(2) 0.27014(8) 0.6221(2)
H3 H 0.3456 0.2330 0.5851
C4 C 0.5359(2) 0.27902(8) 0.6838(2)
H4 H 0.5968 0.2478 0.6869
C5 C 0.5967(2) 0.33283(7) 0.7399(2)
H5 H 0.6983 0.3383 0.7813
C6 C 0.50457(17) 0.37972(6) 0.73448(16)
C7 C 0.52777(17) 0.44003(7) 0.77730(16)
H6 H 0.6183 0.4594 0.8215
C8 C 0.39323(16) 0.46466(6) 0.74205(17)
C9 C 0.36015(18) 0.52350(7) 0.78034(18)
C10 C 0.43938(16) 0.57559(6) 0.77982(16)
C11 C 0.54096(16) 0.57576(6) 0.71283(16)
C12 C 0.48714(16) 0.56519(6) 0.56937(16)
H7 H 0.5523 0.5637 0.5297
C13 C 0.33400(18) 0.55615(7) 0.47580(17)
C14 C 0.70144(16) 0.58564(6) 0.80390(16)
C15 C 0.78795(19) 0.60791(8) 0.7432(2)
H8 H 0.7432 0.6200 0.6462
C16 C 0.9385(2) 0.61228(10) 0.8245(3)
H9 H 0.9949 0.6272 0.7825
C17 C 1.0055(2) 0.59461(10) 0.9674(3)
H10 H 1.1076 0.5967 1.0217
C18 C 0.9228(2) 0.57397(10) 1.0302(2)
H11 H 0.9687 0.5624 1.1275
C19 C 0.77032(19) 0.57018(8) 0.94958(18)
H12 H 0.7144 0.5572 0.9940
C20 C 0.41217(17) 0.62762(7) 0.83682(17)
C21 C 0.48496(16) 0.68519(7) 0.84478(17)
C22 C 0.4903(2) 0.71002(7) 0.7249(2)
H13 H 0.4543 0.6891 0.6376
C23 C 0.5493(2) 0.76583(8) 0.7353(3)
H14 H 0.5503 0.7830 0.6540
C24 C 0.6062(2) 0.79619(9) 0.8645(3)
H15 H 0.6472 0.8336 0.8711
C25 C 0.6029(2) 0.77159(9) 0.9842(3)
H16 H 0.6427 0.7921 1.0721
C26 C 0.54073(19) 0.71662(8) 0.9747(2)
H17 H 0.5362 0.7006 1.0554
C27 C 0.1254(2) 0.43056(9) 0.6052(3)
H18 H 0.0888 0.4263 0.5018
H19 H 0.1028 0.4696 0.6262
H20 H 0.0796 0.4016 0.6392
loop_
_geom_bond_atom_site_label_1
_geom_bond_atom_site_label_2
_geom_bond_site_symmetry_1
_geom_bond_site_symmetry_2
O1 C9 1_555 1_555
O2 H1 1_555 1_555
N1 C1 1_555 1_555
N2 C13 1_555 1_555
C1 C2 1_555 1_555
C2 H2 1_555 1_555
C3 C2 1_555 1_555
H3 C3 1_555 1_555
C4 C3 1_555 1_555
H4 C4 1_555 1_555
C5 C4 1_555 1_555
H5 C5 1_555 1_555
C6 C1 1_555 1_555
C7 C6 1_555 1_555
H6 C7 1_555 1_555
C8 N1 1_555 1_555
C9 C8 1_555 1_555
C10 C9 1_555 1_555
C11 C10 1_555 1_555
C12 C11 1_555 1_555
H7 C12 1_555 1_555
C13 C12 1_555 1_555
C14 C11 1_555 1_555
C15 C14 1_555 1_555
H8 C15 1_555 1_555
C16 C15 1_555 1_555
H9 C16 1_555 1_555
C17 C16 1_555 1_555
H10 C17 1_555 1_555
C18 C17 1_555 1_555
H11 C18 1_555 1_555
C19 C14 1_555 1_555
H12 C19 1_555 1_555
C20 O2 1_555 1_555
C21 C20 1_555 1_555
C22 C21 1_555 1_555
H13 C22 1_555 1_555
C23 C22 1_555 1_555
H14 C23 1_555 1_555
C24 C23 1_555 1_555
H15 C24 1_555 1_555
C25 C24 1_555 1_555
H16 C25 1_555 1_555
C26 C21 1_555 1_555
H17 C26 1_555 1_555
C27 N1 1_555 1_555
H18 C27 1_555 1_555
H19 C27 1_555 1_555
H20 C27 1_555 1_555
C5 C6 1_555 1_555
C7 C8 1_555 1_555
C10 C20 1_555 1_555
C18 C19 1_555 1_555
C25 C26 1_555 1_555

#END
