
#######################################################################
#
#                 Cambridge Crystallographic Data Centre
#                                CCDC 
#
#######################################################################
#
# If this CIF has been generated from an entry in the Cambridge 
# Structural Database, then it will include bibliographic, chemical, 
# crystal, experimental, refinement or atomic coordinate data resulting 
# from the CCDC's data processing and validation procedures.
#
#######################################################################

data_FIVPIM
_chemical_formula_moiety         'C27 H18 N2 O2'
_chemical_name_systematic        
3-(benzenecarbonyl)-4-hydroxy-9-methyl-2-phenyl-9H-carbazole-1-carbonitrile
_symmetry_cell_setting           orthorhombic
_symmetry_space_group_name_H-M   'P b c a'
_symmetry_Int_Tables_number      61
_space_group_name_Hall           '-P 2ac 2ab'
loop_
_symmetry_equiv_pos_site_id
_symmetry_equiv_pos_as_xyz
1 x,y,z
2 1/2-x,-y,1/2+z
3 -x,1/2+y,1/2-z
4 1/2+x,1/2-y,-z
5 -x,-y,-z
6 1/2+x,y,1/2-z
7 x,1/2-y,1/2+z
8 1/2-x,1/2+y,z
_cell_length_a                   6.9632(9)
_cell_length_b                   20.434(3)
_cell_length_c                   28.769(3)
_cell_angle_alpha                90
_cell_angle_beta                 90
_cell_angle_gamma                90
_cell_volume                     4093.43
_exptl_crystal_colour            green
_exptl_crystal_description       prismatic
_cell_formula_units_Z            8
loop_
_atom_site_label
_atom_site_type_symbol
_atom_site_fract_x
_atom_site_fract_y
_atom_site_fract_z
N1 N 0.54827(19) 0.14348(6) 0.71483(5)
N2 N 0.5960(3) 0.13467(8) 0.58134(6)
O1 O 0.6840(2) 0.35677(6) 0.75256(4)
H1 H 0.7173 0.3921 0.7417
O2 O 0.7393(3) 0.44169(7) 0.68678(6)
C1 C 0.5928(2) 0.21745(8) 0.77330(6)
C2 C 0.6046(2) 0.23791(10) 0.81940(6)
H2 H 0.6304 0.2814 0.8267
C3 C 0.5770(3) 0.19217(12) 0.85390(7)
H3 H 0.5837 0.2049 0.8849
C4 C 0.5395(3) 0.12752(13) 0.84311(8)
H4 H 0.5219 0.0977 0.8672
C5 C 0.5273(3) 0.10564(10) 0.79775(8)
H5 H 0.5021 0.0620 0.7909
C6 C 0.5544(2) 0.15181(8) 0.76280(6)
C7 C 0.5800(2) 0.20315(7) 0.69429(6)
C8 C 0.6082(2) 0.25017(7) 0.72931(5)
C9 C 0.6469(2) 0.31456(8) 0.71765(6)
C10 C 0.6396(2) 0.33434(7) 0.67074(6)
C11 C 0.6167(2) 0.28673(7) 0.63546(6)
C12 C 0.5907(2) 0.22068(7) 0.64687(5)
C13 C 0.5915(3) 0.17273(8) 0.61029(6)
C14 C 0.5201(3) 0.08042(8) 0.69207(8)
H6 H 0.4412 0.0861 0.6650
H7 H 0.4584 0.0508 0.7132
H8 H 0.6424 0.0628 0.6830
C15 C 0.6473(3) 0.40500(8) 0.66112(7)
C16 C 0.5270(3) 0.43505(7) 0.62439(6)
C17 C 0.6031(3) 0.47969(8) 0.59336(6)
H9 H 0.7337 0.4892 0.5941
C18 C 0.4865(4) 0.51004(9) 0.56137(7)
H10 H 0.5394 0.5389 0.5399
C19 C 0.2947(5) 0.49813(11) 0.56096(9)
H11 H 0.2167 0.5190 0.5393
C20 C 0.2158(4) 0.45551(12) 0.59230(11)
H12 H 0.0839 0.4484 0.5924
C21 C 0.3322(3) 0.42299(10) 0.62385(9)
H13 H 0.2791 0.3931 0.6446
C22 C 0.6414(3) 0.30491(8) 0.58563(6)
C23 C 0.8172(3) 0.32741(8) 0.57025(6)
H14 H 0.9183 0.3315 0.5912
C24 C 0.8450(4) 0.34404(10) 0.52405(7)
H15 H 0.9643 0.3589 0.5140
C25 C 0.6961(4) 0.33856(10) 0.49328(7)
H16 H 0.7142 0.3500 0.4623
C26 C 0.5203(4) 0.31631(10) 0.50782(7)
H17 H 0.4194 0.3129 0.4867
C27 C 0.4927(3) 0.29887(9) 0.55377(7)
H18 H 0.3740 0.2830 0.5634
loop_
_geom_bond_atom_site_label_1
_geom_bond_atom_site_label_2
_geom_bond_site_symmetry_1
_geom_bond_site_symmetry_2
N1 C6 1_555 1_555
N2 C13 1_555 1_555
O1 H1 1_555 1_555
O2 C15 1_555 1_555
C1 C2 1_555 1_555
C2 H2 1_555 1_555
C3 C2 1_555 1_555
H3 C3 1_555 1_555
C4 C3 1_555 1_555
H4 C4 1_555 1_555
C5 C4 1_555 1_555
H5 C5 1_555 1_555
C6 C1 1_555 1_555
C7 N1 1_555 1_555
C8 C1 1_555 1_555
C9 O1 1_555 1_555
C10 C9 1_555 1_555
C11 C10 1_555 1_555
C12 C7 1_555 1_555
C13 C12 1_555 1_555
C14 N1 1_555 1_555
H6 C14 1_555 1_555
H7 C14 1_555 1_555
H8 C14 1_555 1_555
C15 C10 1_555 1_555
C16 C15 1_555 1_555
C17 C16 1_555 1_555
H9 C17 1_555 1_555
C18 C17 1_555 1_555
H10 C18 1_555 1_555
C19 C18 1_555 1_555
H11 C19 1_555 1_555
C20 C19 1_555 1_555
H12 C20 1_555 1_555
C21 C16 1_555 1_555
H13 C21 1_555 1_555
C22 C11 1_555 1_555
C23 C22 1_555 1_555
H14 C23 1_555 1_555
C24 C23 1_555 1_555
H15 C24 1_555 1_555
C25 C24 1_555 1_555
H16 C25 1_555 1_555
C26 C25 1_555 1_555
H17 C26 1_555 1_555
C27 C22 1_555 1_555
H18 C27 1_555 1_555
C5 C6 1_555 1_555
C7 C8 1_555 1_555
C8 C9 1_555 1_555
C11 C12 1_555 1_555
C20 C21 1_555 1_555
C26 C27 1_555 1_555

#END
