
#######################################################################
#
#                 Cambridge Crystallographic Data Centre
#                                CCDC 
#
#######################################################################
#
# If this CIF has been generated from an entry in the Cambridge 
# Structural Database, then it will include bibliographic, chemical, 
# crystal, experimental, refinement or atomic coordinate data resulting 
# from the CCDC's data processing and validation procedures.
#
#######################################################################

data_FIVROS
_chemical_formula_moiety         'C36 H48 N2'
_chemical_name_systematic        
5,11-Di-n-octyl-6,12-dimethylindolo(3,2-b)carbazole
_symmetry_cell_setting           triclinic
_symmetry_space_group_name_H-M   'P -1'
_symmetry_Int_Tables_number      2
_space_group_name_Hall           '-P 1'
loop_
_symmetry_equiv_pos_site_id
_symmetry_equiv_pos_as_xyz
1 x,y,z
2 -x,-y,-z
_cell_length_a                   5.3266(4)
_cell_length_b                   9.5576(6)
_cell_length_c                   15.3294(9)
_cell_angle_alpha                96.841(4)
_cell_angle_beta                 92.152(4)
_cell_angle_gamma                102.594(4)
_cell_volume                     754.586
_exptl_crystal_colour            'pale yellow'
_exptl_crystal_description       plate
_chemical_melting_point          151deg.C
_cell_formula_units_Z            1
loop_
_atom_site_label
_atom_site_type_symbol
_atom_site_fract_x
_atom_site_fract_y
_atom_site_fract_z
N1 N 0.3099(4) 0.4078(3) 0.37463(13)
C1 C 0.2972(6) 0.1567(4) 0.3064(2)
H1 H 0.4401 0.1830 0.2729
C2 C 0.1682(7) 0.0146(4) 0.3023(2)
H2 H 0.2235 -0.0575 0.2658
C3 C -0.0452(7) -0.0232(4) 0.3522(2)
H3 H -0.1337 -0.1205 0.3481
C4 C -0.1265(6) 0.0796(4) 0.4066(2)
H4 H -0.2715 0.0525 0.4391
C5 C 0.0036(5) 0.2242(3) 0.41447(17)
C6 C 0.2116(5) 0.2601(4) 0.36108(17)
C7 C 0.1693(4) 0.4710(3) 0.43747(15)
C8 C -0.0217(5) 0.3567(3) 0.46486(16)
C9 C 0.1918(4) 0.6154(3) 0.47029(16)
C10 C 0.3740(5) 0.7420(3) 0.43949(18)
H5 H 0.4215 0.7139 0.3806
H6 H 0.2898 0.8222 0.4390
H7 H 0.5277 0.7711 0.4792
C11 C 0.5496(5) 0.4727(3) 0.33651(16)
H8 H 0.6612 0.4034 0.3326
H9 H 0.6392 0.5584 0.3763
C12 C 0.5106(5) 0.5163(3) 0.24578(16)
H10 H 0.4107 0.5914 0.2499
H11 H 0.4116 0.4325 0.2064
C13 C 0.7657(5) 0.5730(3) 0.20705(16)
H12 H 0.8697 0.6508 0.2494
H13 H 0.8586 0.4949 0.1993
C14 C 0.7427(5) 0.6298(3) 0.11965(16)
H14 H 0.6406 0.5517 0.0770
H15 H 0.6481 0.7072 0.1272
C15 C 0.9955(5) 0.6872(3) 0.08221(16)
H16 H 1.0894 0.6096 0.0746
H17 H 1.0978 0.7647 0.1252
C16 C 0.9761(5) 0.7452(3) -0.00494(18)
H18 H 0.8853 0.6659 -0.0491
H19 H 0.8715 0.8180 0.0014
C17 C 1.2297(6) 0.8119(4) -0.0384(2)
H20 H 1.3318 0.7381 -0.0468
H21 H 1.3234 0.8887 0.0068
C18 C 1.2101(7) 0.8743(4) -0.1231(2)
H22 H 1.1314 0.7976 -0.1697
H23 H 1.3811 0.9201 -0.1382
H24 H 1.1051 0.9455 -0.1162
N1A N -0.3099(4) 0.5922(3) 0.62537(13)
C1A C -0.2972(6) 0.8433(4) 0.6936(2)
H1A H -0.4401 0.8170 0.7271
C2A C -0.1682(7) 0.9854(4) 0.6977(2)
H2A H -0.2235 1.0575 0.7342
C3A C 0.0452(7) 1.0232(4) 0.6478(2)
H3A H 0.1337 1.1205 0.6519
C4A C 0.1265(6) 0.9204(4) 0.5934(2)
H4A H 0.2715 0.9475 0.5609
C5A C -0.0036(5) 0.7758(3) 0.58553(17)
C6A C -0.2116(5) 0.7399(4) 0.63892(17)
C7A C -0.1693(4) 0.5290(3) 0.56253(15)
C8A C 0.0217(5) 0.6433(3) 0.53514(16)
C9A C -0.1918(4) 0.3846(3) 0.52971(16)
C10A C -0.3740(5) 0.2580(3) 0.56051(18)
H5A H -0.4215 0.2861 0.6194
H6A H -0.2898 0.1778 0.5610
H7A H -0.5277 0.2289 0.5208
C11A C -0.5496(5) 0.5273(3) 0.66349(16)
H8A H -0.6612 0.5966 0.6674
H9A H -0.6392 0.4416 0.6237
C12A C -0.5106(5) 0.4837(3) 0.75422(16)
H10A H -0.4107 0.4086 0.7501
H11A H -0.4116 0.5675 0.7936
C13A C -0.7657(5) 0.4270(3) 0.79295(16)
H12A H -0.8697 0.3492 0.7506
H13A H -0.8586 0.5051 0.8007
C14A C -0.7427(5) 0.3702(3) 0.88035(16)
H14A H -0.6406 0.4483 0.9230
H15A H -0.6481 0.2928 0.8728
C15A C -0.9955(5) 0.3128(3) 0.91779(16)
H16A H -1.0894 0.3904 0.9254
H17A H -1.0978 0.2353 0.8748
C16A C -0.9761(5) 0.2548(3) 1.00494(18)
H18A H -0.8853 0.3341 1.0491
H19A H -0.8715 0.1820 0.9986
C17A C -1.2297(6) 0.1881(4) 1.0384(2)
H20A H -1.3318 0.2619 1.0468
H21A H -1.3234 0.1113 0.9932
C18A C -1.2101(7) 0.1257(4) 1.1231(2)
H22A H -1.1314 0.2024 1.1697
H23A H -1.3811 0.0799 1.1382
H24A H -1.1051 0.0545 1.1162
loop_
_geom_bond_atom_site_label_1
_geom_bond_atom_site_label_2
_geom_bond_site_symmetry_1
_geom_bond_site_symmetry_2
N1 C6 1_555 1_555
C1 H1 1_555 1_555
C2 C1 1_555 1_555
H2 C2 1_555 1_555
C3 C2 1_555 1_555
H3 C3 1_555 1_555
C4 C3 1_555 1_555
H4 C4 1_555 1_555
C5 C4 1_555 1_555
C6 C1 1_555 1_555
C7 N1 1_555 1_555
C8 C5 1_555 1_555
C9 C7 1_555 1_555
C10 C9 1_555 1_555
H5 C10 1_555 1_555
H6 C10 1_555 1_555
H7 C10 1_555 1_555
C11 N1 1_555 1_555
H8 C11 1_555 1_555
H9 C11 1_555 1_555
C12 C11 1_555 1_555
H10 C12 1_555 1_555
H11 C12 1_555 1_555
C13 C12 1_555 1_555
H12 C13 1_555 1_555
H13 C13 1_555 1_555
C14 C13 1_555 1_555
H14 C14 1_555 1_555
H15 C14 1_555 1_555
C15 C14 1_555 1_555
H16 C15 1_555 1_555
H17 C15 1_555 1_555
C16 C15 1_555 1_555
H18 C16 1_555 1_555
H19 C16 1_555 1_555
C17 C16 1_555 1_555
H20 C17 1_555 1_555
H21 C17 1_555 1_555
C18 C17 1_555 1_555
H22 C18 1_555 1_555
H23 C18 1_555 1_555
H24 C18 1_555 1_555
N1A C6A 1_555 1_555
C1A H1A 1_555 1_555
C2A C1A 1_555 1_555
H2A C2A 1_555 1_555
C3A C2A 1_555 1_555
H3A C3A 1_555 1_555
C4A C3A 1_555 1_555
H4A C4A 1_555 1_555
C5A C4A 1_555 1_555
C6A C1A 1_555 1_555
C7A N1A 1_555 1_555
C8A C9 1_555 1_555
C9A C8 1_555 1_555
C10A C9A 1_555 1_555
H5A C10A 1_555 1_555
H6A C10A 1_555 1_555
H7A C10A 1_555 1_555
C11A N1A 1_555 1_555
H8A C11A 1_555 1_555
H9A C11A 1_555 1_555
C12A C11A 1_555 1_555
H10A C12A 1_555 1_555
H11A C12A 1_555 1_555
C13A C12A 1_555 1_555
H12A C13A 1_555 1_555
H13A C13A 1_555 1_555
C14A C13A 1_555 1_555
H14A C14A 1_555 1_555
H15A C14A 1_555 1_555
C15A C14A 1_555 1_555
H16A C15A 1_555 1_555
H17A C15A 1_555 1_555
C16A C15A 1_555 1_555
H18A C16A 1_555 1_555
H19A C16A 1_555 1_555
C17A C16A 1_555 1_555
H20A C17A 1_555 1_555
H21A C17A 1_555 1_555
C18A C17A 1_555 1_555
H22A C18A 1_555 1_555
H23A C18A 1_555 1_555
H24A C18A 1_555 1_555
C5 C6 1_555 1_555
C7 C8 1_555 1_555
C5A C6A 1_555 1_555
C5A C8A 1_555 1_555
C7A C8A 1_555 1_555
C7A C9A 1_555 1_555

#END
