
#######################################################################
#
#                 Cambridge Crystallographic Data Centre
#                                CCDC 
#
#######################################################################
#
# If this CIF has been generated from an entry in the Cambridge 
# Structural Database, then it will include bibliographic, chemical, 
# crystal, experimental, refinement or atomic coordinate data resulting 
# from the CCDC's data processing and validation procedures.
#
#######################################################################

data_FIVWIT
_chemical_formula_moiety         'C27 H30 O4 S1'
_chemical_name_systematic        
'9-(4-(octyloxy)phenyl)-9H-thioxanthen-9-ol 10,10-dioxide'
_symmetry_cell_setting           triclinic
_symmetry_space_group_name_H-M   'P -1'
_symmetry_Int_Tables_number      2
_space_group_name_Hall           '-P 1'
loop_
_symmetry_equiv_pos_site_id
_symmetry_equiv_pos_as_xyz
1 x,y,z
2 -x,-y,-z
_cell_length_a                   6.9603(7)
_cell_length_b                   8.3336(8)
_cell_length_c                   20.822(2)
_cell_angle_alpha                87.146(2)
_cell_angle_beta                 85.920(2)
_cell_angle_gamma                69.099(2)
_cell_volume                     1125.05
_exptl_crystal_colour            colorless
_exptl_crystal_description       flake
_cell_formula_units_Z            2
loop_
_atom_site_label
_atom_site_type_symbol
_atom_site_fract_x
_atom_site_fract_y
_atom_site_fract_z
C1 C -0.1996(2) -0.31939(16) 0.37667(6)
C2 C -0.1186(2) -0.49781(17) 0.38585(6)
H1 H -0.0163 -0.5485 0.4160
C3 C -0.1890(2) -0.59947(18) 0.35054(7)
H2 H -0.1330 -0.7211 0.3554
C4 C -0.4270(2) -0.34509(18) 0.30118(7)
H3 H -0.5347 -0.2949 0.2727
C5 C -0.3570(2) -0.23895(17) 0.33532(6)
C6 C -0.3421(2) -0.52279(19) 0.30797(7)
H4 H -0.3894 -0.5925 0.2832
C7 C -0.45974(19) -0.04384(17) 0.32580(6)
C8 C -0.4406(2) 0.05740(16) 0.38302(6)
C9 C -0.5852(2) 0.22301(17) 0.39149(7)
H5 H -0.6880 0.2701 0.3612
C10 C -0.5810(2) 0.31961(18) 0.44341(7)
H6 H -0.6796 0.4324 0.4479
C11 C -0.4347(2) 0.25345(18) 0.48874(7)
H7 H -0.4342 0.3197 0.5245
C12 C -0.2891(2) 0.08988(18) 0.48163(7)
H8 H -0.1888 0.0425 0.5126
C13 C -0.2916(2) -0.00421(16) 0.42846(6)
C14 C -0.3708(2) 0.01574(19) 0.26320(7)
C15 C -0.5031(5) 0.1146(5) 0.21781(14)
H9 H -0.6468 0.1375 0.2243
C16 C -0.4292(5) 0.1804(6) 0.16316(15)
H10 H -0.5214 0.2412 0.1314
C17 C -0.2229(4) 0.1586(5) 0.15437(13)
C18 C 0.0467(7) 0.2059(5) 0.0872(2)
H11 H 0.1341 0.0826 0.0882
H12 H 0.0881 0.2635 0.1213
C19 C 0.0739(5) 0.2863(6) 0.02194(14)
H13 H -0.0177 0.4085 0.0213
H14 H 0.0315 0.2276 -0.0116
C20 C 0.2942(9) 0.2757(6) 0.0057(3)
H15 H 0.3389 0.3281 0.0407
H16 H 0.3842 0.1532 0.0041
C21 C 0.3248(5) 0.3638(6) -0.05768(15)
H17 H 0.2751 0.3145 -0.0925
H18 H 0.2390 0.4873 -0.0555
C22 C 0.5450(11) 0.3473(11) -0.0750(3)
H19 H 0.6299 0.2237 -0.0776
H20 H 0.5951 0.3944 -0.0396
C23 C 0.5796(6) 0.4364(6) -0.13732(15)
H21 H 0.4951 0.5601 -0.1346
H22 H 0.5296 0.3894 -0.1727
C24 C 0.8015(9) 0.4190(8) -0.1544(3)
H23 H 0.8875 0.2954 -0.1543
H24 H 0.8488 0.4728 -0.1204
C25 C 0.8381(8) 0.4992(8) -0.2193(2)
H25 H 0.7978 0.4437 -0.2536
H26 H 0.9845 0.4835 -0.2261
H27 H 0.7557 0.6223 -0.2198
O1 O -0.1639(3) 0.2249(4) 0.09789(10)
C26 C -0.0973(2) 0.0782(2) 0.20043(7)
H28 H 0.0467 0.0548 0.1946
C27 C -0.1814(3) 0.0291(3) 0.25743(8)
H29 H -0.1017 0.0035 0.2943
O2 O -0.03440(15) -0.28293(13) 0.48144(5)
O3 O 0.07607(15) -0.17488(13) 0.37940(5)
O4 O -0.67332(14) -0.00390(13) 0.31666(5)
H30 H -0.7217 -0.0586 0.3442
S1 S -0.08962(5) -0.20185(4) 0.41941(2)
C28? C -0.4515(5) -0.0078(5) 0.20302(15)
H31? H -0.5648 -0.0462 0.2040
C29? C -0.3632(5) 0.0257(5) 0.14433(15)
H32? H -0.4211 0.0166 0.1053
C30? C -0.1894(5) 0.0727(6) 0.14277(16)
C31? C 0.0665(8) 0.1463(8) 0.0776(2)
H33? H 0.1806 0.0557 0.0986
H34? H 0.0382 0.2555 0.0998
C32? C 0.1259(5) 0.1663(6) 0.00713(16)
H35? H 0.0086 0.2531 -0.0139
H36? H 0.1578 0.0557 -0.0143
C33? C 0.3130(10) 0.2218(9) -0.0008(3)
H37? H 0.2811 0.3298 0.0225
H38? H 0.4295 0.1331 0.0199
C34? C 0.3808(5) 0.2499(6) -0.07011(15)
H39? H 0.2657 0.3395 -0.0910
H40? H 0.4136 0.1422 -0.0937
C35? C 0.5696(13) 0.3045(14) -0.0750(4)
H41? H 0.5359 0.4134 -0.0521
H42? H 0.6838 0.2159 -0.0533
C36? C 0.6407(6) 0.3296(6) -0.14475(14)
H43? H 0.5302 0.4246 -0.1653
H44? H 0.6632 0.2238 -0.1685
C37? C 0.8393(10) 0.3704(10) -0.1506(4)
H45? H 0.9536 0.2707 -0.1340
H46? H 0.8219 0.4699 -0.1237
C38? C 0.8951(7) 0.4115(6) -0.2205(2)
H47? H 0.9155 0.3122 -0.2471
H48? H 1.0222 0.4372 -0.2224
H49? H 0.7831 0.5112 -0.2368
O5? O -0.1137(4) 0.1007(4) 0.08190(11)
loop_
_geom_bond_atom_site_label_1
_geom_bond_atom_site_label_2
_geom_bond_site_symmetry_1
_geom_bond_site_symmetry_2
C1 C2 1_555 1_555
C2 H1 1_555 1_555
C3 C2 1_555 1_555
H2 C3 1_555 1_555
C4 H3 1_555 1_555
C5 C1 1_555 1_555
C6 C3 1_555 1_555
H4 C6 1_555 1_555
C7 C5 1_555 1_555
C8 C7 1_555 1_555
C9 C8 1_555 1_555
H5 C9 1_555 1_555
C10 C9 1_555 1_555
H6 C10 1_555 1_555
C11 C10 1_555 1_555
H7 C11 1_555 1_555
C12 C11 1_555 1_555
H8 C12 1_555 1_555
C13 C8 1_555 1_555
C14 C7 1_555 1_555
C15 C14 1_555 1_555
H9 C15 1_555 1_555
C16 C15 1_555 1_555
H10 C16 1_555 1_555
C17 C16 1_555 1_555
C18 H11 1_555 1_555
H12 C18 1_555 1_555
C19 C18 1_555 1_555
H13 C19 1_555 1_555
H14 C19 1_555 1_555
C20 C19 1_555 1_555
H15 C20 1_555 1_555
H16 C20 1_555 1_555
C21 C20 1_555 1_555
H17 C21 1_555 1_555
H18 C21 1_555 1_555
C22 C21 1_555 1_555
H19 C22 1_555 1_555
H20 C22 1_555 1_555
C23 C22 1_555 1_555
H21 C23 1_555 1_555
H22 C23 1_555 1_555
C24 C23 1_555 1_555
H23 C24 1_555 1_555
H24 C24 1_555 1_555
C25 C24 1_555 1_555
H25 C25 1_555 1_555
H26 C25 1_555 1_555
H27 C25 1_555 1_555
O1 C17 1_555 1_555
C26 C17 1_555 1_555
H28 C26 1_555 1_555
C27 C14 1_555 1_555
H29 C27 1_555 1_555
O2 S1 1_555 1_555
O3 S1 1_555 1_555
O4 C7 1_555 1_555
H30 O4 1_555 1_555
S1 C1 1_555 1_555
C4 C5 1_555 1_555
C4 C6 1_555 1_555
C12 C13 1_555 1_555
C13 S1 1_555 1_555
C18 O1 1_555 1_555
C26 C27 1_555 1_555

#END
