
#######################################################################
#
#                 Cambridge Crystallographic Data Centre
#                                CCDC 
#
#######################################################################
#
# If this CIF has been generated from an entry in the Cambridge 
# Structural Database, then it will include bibliographic, chemical, 
# crystal, experimental, refinement or atomic coordinate data resulting 
# from the CCDC's data processing and validation procedures.
#
#######################################################################

data_FIVXAM
_chemical_formula_moiety         'C49 H32 N2 O2 S1'
_chemical_name_systematic        
9-(3-(9H-carbazol-9-yl)phenyl)-3-(10,10-dioxido-9-phenyl-9H-thioxanthen-9-yl)-9H-carbazole
_symmetry_cell_setting           monoclinic
_symmetry_space_group_name_H-M   'P 21/c'
_symmetry_Int_Tables_number      14
_space_group_name_Hall           '-P 2ybc'
loop_
_symmetry_equiv_pos_site_id
_symmetry_equiv_pos_as_xyz
1 x,y,z
2 -x,1/2+y,1/2-z
3 -x,-y,-z
4 x,1/2-y,1/2+z
_cell_length_a                   31.447(4)
_cell_length_b                   8.9228(11)
_cell_length_c                   26.898(3)
_cell_angle_alpha                90
_cell_angle_beta                 115.031(3)
_cell_angle_gamma                90
_cell_volume                     6838.59
_exptl_crystal_colour            colorless
_exptl_crystal_description       block
_cell_formula_units_Z            8
_exptl_crystal_recrystallization_method 'Re-crystallisation from solvent'
_exptl_crystal_preparation       Luminescent
loop_
_atom_site_label
_atom_site_type_symbol
_atom_site_fract_x
_atom_site_fract_y
_atom_site_fract_z
S1 S 0.57854(5) 0.65789(18) 0.35130(6)
O1 O 0.58446(18) 0.7585(5) 0.3133(2)
O2 O 0.61841(15) 0.6374(5) 0.40360(19)
N1 N 0.6481(2) 0.2376(6) 0.5859(2)
N2 N 0.7046(2) 0.2239(7) 0.7830(2)
C1 C 0.6858(2) -0.1584(7) 0.5793(3)
H1 H 0.7065 -0.2349 0.6005
C2 C 0.5688(2) 0.2477(7) 0.4429(3)
H2 H 0.5589 0.1792 0.4131
C3 C 0.6251(2) 0.0634(7) 0.5156(3)
C4 C 0.5509(2) 0.3912(7) 0.4348(3)
C5 C 0.5208(2) 0.8644(8) 0.3621(3)
H3 H 0.5385 0.9341 0.3519
C6 C 0.6880(2) 0.1645(8) 0.8554(3)
C7 C 0.4667(2) 0.6629(8) 0.3884(3)
H4 H 0.4468 0.5957 0.3960
C8 C 0.5228(2) 0.2496(7) 0.3110(3)
H5 H 0.5028 0.1837 0.3190
C9 C 0.6569(2) -0.1851(8) 0.5240(3)
H6 H 0.6580 -0.2789 0.5079
C10 C 0.5607(2) 0.4814(7) 0.3204(3)
C11 C 0.6542(2) 0.0896(8) 0.5719(3)
C12 C 0.4603(2) 0.8148(8) 0.3898(3)
H7 H 0.4370 0.8512 0.4005
C13 C 0.5983(2) 0.4519(7) 0.5309(3)
H8 H 0.6082 0.5212 0.5605
C14 C 0.5030(2) 0.6063(8) 0.3757(3)
C15 C 0.5318(2) 0.3885(7) 0.3350(3)
C16 C 0.5419(2) 0.2003(8) 0.2753(3)
H9 H 0.5360 0.1016 0.2607
C17 C 0.6013(2) 0.2032(8) 0.4947(3)
C18 C 0.6265(2) -0.0746(7) 0.4928(3)
H10 H 0.6065 -0.0934 0.4553
C19 C 0.4314(2) 0.3529(8) 0.3110(3)
H11 H 0.4373 0.4012 0.2830
C20 C 0.5131(2) 0.4363(8) 0.3774(3)
C21 C 0.7208(2) 0.5044(8) 0.6917(3)
H12 H 0.7359 0.5981 0.6942
C22 C 0.4138(2) 0.2201(8) 0.3929(3)
H13 H 0.4071 0.1792 0.4213
C23 C 0.6750(2) 0.2367(8) 0.6835(3)
H14 H 0.6584 0.1459 0.6805
C24 C 0.7018(2) 0.2982(8) 0.7357(3)
C25 C 0.6880(2) 0.2762(8) 0.8201(3)
C26 C 0.7038(2) 0.0285(8) 0.8378(3)
C27 C 0.4663(2) 0.3528(7) 0.3653(3)
C28 C 0.5658(2) 0.4918(8) 0.4790(3)
H15 H 0.5532 0.5903 0.4732
C29 C 0.6727(2) 0.3054(8) 0.6374(3)
C30 C 0.6623(3) 0.3376(9) 0.9036(3)
H16 H 0.6549 0.3608 0.9335
C31 C 0.6160(2) 0.3076(7) 0.5381(3)
C32 C 0.5298(2) 0.7148(8) 0.3625(3)
C33 C 0.6608(2) 0.4528(9) 0.8678(3)
H17 H 0.6515 0.5508 0.8728
C34 C 0.5697(2) 0.2987(8) 0.2615(3)
H18 H 0.5825 0.2674 0.2369
C35 C 0.6740(2) 0.1919(9) 0.8978(3)
H19 H 0.6727 0.1140 0.9211
C36 C 0.4863(2) 0.9141(8) 0.3763(3)
H20 H 0.4805 1.0186 0.3767
C37 C 0.6849(2) -0.0206(7) 0.6042(3)
H21 H 0.7046 -0.0032 0.6419
C38 C 0.7351(2) -0.0298(8) 0.7711(3)
H22 H 0.7429 0.0006 0.7421
C39 C 0.7438(2) -0.1742(8) 0.7916(3)
H23 H 0.7589 -0.2426 0.7773
C40 C 0.3799(2) 0.2153(8) 0.3390(3)
H24 H 0.3510 0.1657 0.3304
C41 C 0.3884(2) 0.2826(8) 0.2980(3)
H25 H 0.3651 0.2813 0.2612
C42 C 0.7309(2) -0.2219(9) 0.8326(3)
H26 H 0.7355 -0.3235 0.8443
C43 C 0.5785(2) 0.4389(8) 0.2830(3)
H27 H 0.5965 0.5072 0.2727
C44 C 0.6952(2) 0.4415(8) 0.6411(3)
H28 H 0.6929 0.4910 0.6087
C45 C 0.7145(2) 0.0692(8) 0.7943(3)
C46 C 0.7110(2) -0.1184(8) 0.8570(3)
H29 H 0.7029 -0.1488 0.8857
C47 C 0.4569(2) 0.2831(8) 0.4054(3)
H30 H 0.4805 0.2789 0.4420
C48 C 0.7248(2) 0.4321(8) 0.7393(3)
H31 H 0.7433 0.4750 0.7742
C49 C 0.6732(2) 0.4227(8) 0.8241(3)
H32 H 0.6716 0.4982 0.7984
S2 S 0.07742(6) 0.65092(19) 0.72382(7)
O3 O 0.08181(19) 0.7528(5) 0.7665(2)
O4 O 0.11719(17) 0.6312(6) 0.7104(2)
N3 N 0.1505(2) 0.2383(6) 0.5625(3)
N4 N 0.2015(2) 0.2220(7) 0.4153(3)
C50 C 0.0681(3) 0.2438(7) 0.6217(3)
H33 H 0.0576 0.1726 0.6403
C51 C 0.1921(2) -0.1520(8) 0.6080(3)
H34 H 0.2143 -0.2255 0.6090
C52 C -0.0345(2) 0.6533(8) 0.5784(3)
H35 H -0.0541 0.5846 0.5514
C53 C 0.0016(2) 0.5986(8) 0.6267(3)
C54 C 0.0221(3) 0.2432(7) 0.7099(3)
H36 H 0.0021 0.1773 0.6821
C55 C 0.0592(2) 0.4748(8) 0.7373(3)
C56 C 0.1867(3) 0.1633(8) 0.3262(3)
C57 C -0.0872(2) 0.2092(8) 0.5205(3)
H37 H -0.0937 0.1657 0.4858
C58 C 0.2271(3) -0.2198(9) 0.3879(3)
H38 H 0.2318 -0.3205 0.3799
C59 C 0.1278(2) 0.0641(8) 0.6078(3)
C60 C 0.0410(2) 0.1938(8) 0.7639(3)
H39 H 0.0350 0.0948 0.7723
C61 C 0.1017(2) 0.2017(8) 0.6034(3)
C62 C -0.0344(2) 0.3454(8) 0.6013(3)
C63 C -0.0697(2) 0.3428(8) 0.6195(3)
H40 H -0.0649 0.3939 0.6524
C64 C 0.0123(2) 0.4295(8) 0.6337(3)
C65 C 0.1286(2) -0.0756(8) 0.6326(3)
H41 H 0.1078 -0.0968 0.6490
C66 C 0.1708(3) 0.1963(9) 0.2699(3)
H42 H 0.1690 0.1196 0.2446
C67 C 0.0287(2) 0.7046(8) 0.6634(3)
C68 C 0.2011(3) 0.0281(9) 0.3589(3)
C69 C 0.0499(2) 0.3862(8) 0.6133(3)
C70 C 0.1580(2) 0.0912(8) 0.5821(3)
C71 C 0.1999(2) 0.2973(9) 0.4609(3)
C72 C 0.1568(3) 0.4522(9) 0.2870(3)
H43 H 0.1460 0.5491 0.2725
C73 C -0.0422(2) 0.8065(8) 0.5694(3)
H44 H -0.0666 0.8418 0.5363
C74 C 0.0985(2) 0.4484(8) 0.5654(3)
H45 H 0.1087 0.5189 0.5462
C75 C 0.1906(2) -0.0150(8) 0.5826(3)
H46 H 0.2113 0.0055 0.5660
C76 C 0.1863(3) 0.2783(9) 0.3619(3)
C77 C 0.0205(2) 0.8553(8) 0.6556(3)
H47 H 0.0392 0.9243 0.6831
C78 C 0.1736(2) 0.3057(8) 0.5321(3)
C79 C 0.1763(3) 0.2336(8) 0.4880(3)
H48 H 0.1616 0.1390 0.4765
C80 C -0.1207(2) 0.2045(8) 0.5411(3)
H49 H -0.1500 0.1571 0.5207
C81 C 0.0309(2) 0.3815(8) 0.6948(3)
C82 C 0.0649(2) 0.4866(8) 0.5840(3)
H50 H 0.0517 0.5843 0.5766
C83 C 0.0769(2) 0.4327(8) 0.7921(3)
H51 H 0.0947 0.5012 0.8203
C84 C 0.1583(3) 0.3365(9) 0.2527(3)
H52 H 0.1501 0.3589 0.2152
C85 C 0.2400(3) -0.1755(9) 0.4428(3)
H53 H 0.2541 -0.2470 0.4712
C86 C 0.2116(3) 0.0684(9) 0.4134(3)
C87 C 0.0681(2) 0.2881(8) 0.8050(3)
H54 H 0.0810 0.2555 0.8421
C88 C -0.0441(2) 0.2773(8) 0.5503(3)
H55 H -0.0210 0.2781 0.5363
C89 C 0.1167(2) 0.3059(8) 0.5755(3)
C90 C 0.1615(2) -0.1831(8) 0.6322(3)
H56 H 0.1628 -0.2783 0.6486
C91 C 0.2145(3) 0.5159(9) 0.5170(3)
H57 H 0.2262 0.6151 0.5259
C92 C -0.0148(2) 0.9060(8) 0.6082(3)
H58 H -0.0202 1.0106 0.6022
C93 C -0.1114(3) 0.2690(8) 0.5914(3)
H59 H -0.1338 0.2622 0.6065
C94 C 0.2328(3) -0.0320(8) 0.4562(3)
H60 H 0.2420 -0.0029 0.4933
C95 C 0.1714(3) 0.4228(9) 0.3434(3)
H61 H 0.1710 0.4991 0.3678
C96 C 0.2082(3) -0.1195(9) 0.3468(3)
H62 H 0.1996 -0.1492 0.3099
C97 C 0.1924(3) 0.4489(8) 0.5461(3)
H63 H 0.1901 0.5007 0.5757
C98 C 0.2196(3) 0.4383(9) 0.4744(3)
H64 H 0.2362 0.4814 0.4554
loop_
_geom_bond_atom_site_label_1
_geom_bond_atom_site_label_2
_geom_bond_site_symmetry_1
_geom_bond_site_symmetry_2
S1 O1 1_555 1_555
O2 S1 1_555 1_555
N1 C11 1_555 1_555
N2 C24 1_555 1_555
C1 H1 1_555 1_555
C2 H2 1_555 1_555
C3 C11 1_555 1_555
C4 C2 1_555 1_555
C5 H3 1_555 1_555
C6 C25 1_555 1_555
C7 H4 1_555 1_555
C8 H5 1_555 1_555
C9 C1 1_555 1_555
H6 C9 1_555 1_555
C10 S1 1_555 1_555
C11 C37 1_555 1_555
C12 C7 1_555 1_555
H7 C12 1_555 1_555
C13 H8 1_555 1_555
C14 C7 1_555 1_555
C15 C8 1_555 1_555
C16 C8 1_555 1_555
H9 C16 1_555 1_555
C17 C2 1_555 1_555
C18 C3 1_555 1_555
H10 C18 1_555 1_555
C19 H11 1_555 1_555
C20 C4 1_555 1_555
C21 H12 1_555 1_555
C22 H13 1_555 1_555
C23 H14 1_555 1_555
C24 C23 1_555 1_555
C25 N2 1_555 1_555
C26 C6 1_555 1_555
C27 C19 1_555 1_555
C28 C4 1_555 1_555
H15 C28 1_555 1_555
C29 N1 1_555 1_555
C30 H16 1_555 1_555
C31 N1 1_555 1_555
C32 S1 1_555 1_555
C33 C30 1_555 1_555
H17 C33 1_555 1_555
C34 C16 1_555 1_555
H18 C34 1_555 1_555
C35 C6 1_555 1_555
H19 C35 1_555 1_555
C36 C5 1_555 1_555
H20 C36 1_555 1_555
C37 C1 1_555 1_555
H21 C37 1_555 1_555
C38 H22 1_555 1_555
C39 C38 1_555 1_555
H23 C39 1_555 1_555
C40 C22 1_555 1_555
H24 C40 1_555 1_555
C41 C19 1_555 1_555
H25 C41 1_555 1_555
C42 C39 1_555 1_555
H26 C42 1_555 1_555
C43 C10 1_555 1_555
H27 C43 1_555 1_555
C44 C21 1_555 1_555
H28 C44 1_555 1_555
C45 N2 1_555 1_555
C46 C26 1_555 1_555
H29 C46 1_555 1_555
C47 C22 1_555 1_555
H30 C47 1_555 1_555
C48 C21 1_555 1_555
H31 C48 1_555 1_555
C49 C25 1_555 1_555
H32 C49 1_555 1_555
S2 O3 1_555 1_555
O4 S2 1_555 1_555
N3 C70 1_555 1_555
N4 C71 1_555 1_555
C50 H33 1_555 1_555
C51 H34 1_555 1_555
C52 H35 1_555 1_555
C53 C52 1_555 1_555
C54 H36 1_555 1_555
C55 S2 1_555 1_555
C56 C66 1_555 1_555
C57 H37 1_555 1_555
C58 H38 1_555 1_555
C59 C61 1_555 1_555
C60 C54 1_555 1_555
H39 C60 1_555 1_555
C61 C50 1_555 1_555
C62 C63 1_555 1_555
C63 H40 1_555 1_555
C64 C53 1_555 1_555
C65 C59 1_555 1_555
H41 C65 1_555 1_555
C66 H42 1_555 1_555
C67 S2 1_555 1_555
C68 C56 1_555 1_555
C69 C50 1_555 1_555
C70 C59 1_555 1_555
C71 C79 1_555 1_555
C72 H43 1_555 1_555
C73 C52 1_555 1_555
H44 C73 1_555 1_555
C74 H45 1_555 1_555
C75 C51 1_555 1_555
H46 C75 1_555 1_555
C76 N4 1_555 1_555
C77 C67 1_555 1_555
H47 C77 1_555 1_555
C78 N3 1_555 1_555
C79 C78 1_555 1_555
H48 C79 1_555 1_555
C80 C57 1_555 1_555
H49 C80 1_555 1_555
C81 C54 1_555 1_555
C82 C69 1_555 1_555
H50 C82 1_555 1_555
C83 C55 1_555 1_555
H51 C83 1_555 1_555
C84 C66 1_555 1_555
H52 C84 1_555 1_555
C85 C58 1_555 1_555
H53 C85 1_555 1_555
C86 N4 1_555 1_555
C87 C60 1_555 1_555
H54 C87 1_555 1_555
C88 C57 1_555 1_555
H55 C88 1_555 1_555
C89 N3 1_555 1_555
C90 C51 1_555 1_555
H56 C90 1_555 1_555
C91 H57 1_555 1_555
C92 C73 1_555 1_555
H58 C92 1_555 1_555
C93 C63 1_555 1_555
H59 C93 1_555 1_555
C94 C85 1_555 1_555
H60 C94 1_555 1_555
C95 C72 1_555 1_555
H61 C95 1_555 1_555
C96 C58 1_555 1_555
H62 C96 1_555 1_555
C97 C78 1_555 1_555
H63 C97 1_555 1_555
C98 C71 1_555 1_555
H64 C98 1_555 1_555
C3 C17 1_555 1_555
C5 C32 1_555 1_555
C9 C18 1_555 1_555
C10 C15 1_555 1_555
C12 C36 1_555 1_555
C13 C28 1_555 1_555
C13 C31 1_555 1_555
C14 C20 1_555 1_555
C14 C32 1_555 1_555
C15 C20 1_555 1_555
C17 C31 1_555 1_555
C20 C27 1_555 1_555
C23 C29 1_555 1_555
C24 C48 1_555 1_555
C26 C45 1_555 1_555
C27 C47 1_555 1_555
C29 C44 1_555 1_555
C30 C35 1_555 1_555
C33 C49 1_555 1_555
C34 C43 1_555 1_555
C38 C45 1_555 1_555
C40 C41 1_555 1_555
C42 C46 1_555 1_555
C53 C67 1_555 1_555
C55 C81 1_555 1_555
C56 C76 1_555 1_555
C61 C89 1_555 1_555
C62 C64 1_555 1_555
C62 C88 1_555 1_555
C64 C69 1_555 1_555
C64 C81 1_555 1_555
C65 C90 1_555 1_555
C68 C86 1_555 1_555
C68 C96 1_555 1_555
C70 C75 1_555 1_555
C72 C84 1_555 1_555
C74 C82 1_555 1_555
C74 C89 1_555 1_555
C76 C95 1_555 1_555
C77 C92 1_555 1_555
C80 C93 1_555 1_555
C83 C87 1_555 1_555
C86 C94 1_555 1_555
C91 C97 1_555 1_555
C91 C98 1_555 1_555

#END
