
#######################################################################
#
#                 Cambridge Crystallographic Data Centre
#                                CCDC 
#
#######################################################################
#
# If this CIF has been generated from an entry in the Cambridge 
# Structural Database, then it will include bibliographic, chemical, 
# crystal, experimental, refinement or atomic coordinate data resulting 
# from the CCDC's data processing and validation procedures.
#
#######################################################################

data_FIVYIV
_chemical_name_common            PETHOF-1
_chemical_formula_moiety         'C62 H38 O12'
_chemical_name_systematic        
'4-[5,11,12,17,18-pentakis(4-carboxyphenyl)pentacyclo[6.6.6.0^2,7^.0^9,14^.0^15,20^]icosa-2,4,6,9,11,13,15,17,19-nonaen-4-yl]benzoic acid unknown solvate'
_symmetry_cell_setting           orthorhombic
_symmetry_space_group_name_H-M   'P c c n'
_symmetry_Int_Tables_number      56
_space_group_name_Hall           '-P 2ab 2ac'
loop_
_symmetry_equiv_pos_site_id
_symmetry_equiv_pos_as_xyz
1 x,y,z
2 1/2-x,1/2-y,z
3 1/2+x,-y,1/2-z
4 -x,1/2+y,1/2-z
5 -x,-y,-z
6 1/2+x,1/2+y,-z
7 1/2-x,y,1/2+z
8 x,1/2-y,1/2+z
_cell_length_a                   37.6405(13)
_cell_length_b                   56.7495(19)
_cell_length_c                   18.7844(6)
_cell_angle_alpha                90
_cell_angle_beta                 90
_cell_angle_gamma                90
_cell_volume                     40125
_exptl_crystal_colour            colorless
_exptl_crystal_description       tabular
_cell_formula_units_Z            8
loop_
_atom_site_label
_atom_site_type_symbol
_atom_site_fract_x
_atom_site_fract_y
_atom_site_fract_z
O1 O 0.82240(4) 0.53374(4) 0.32326(10)
H1 H 0.8445 0.5323 0.3282
O2 O 0.81869(5) 0.49728(4) 0.37011(11)
O3 O 0.80920(4) 0.52529(3) 0.73447(9)
O4 O 0.77835(4) 0.49346(4) 0.77263(10)
H2 H 0.7932 0.4834 0.7589
O5 O 0.37509(5) 0.51749(4) 0.19250(11)
H3 H 0.3528 0.5177 0.1957
O6 O 0.37832(4) 0.48187(3) 0.24346(8)
O7 O 0.36319(4) 0.48911(3) 0.69552(9)
H4 H 0.3459 0.4888 0.7237
O8 O 0.33119(4) 0.51796(3) 0.64510(9)
O9 O 0.60503(11) 0.72803(5) 0.2791(2)
O10 O 0.55422(12) 0.73899(5) 0.3346(2)
H5 H 0.5468 0.7446 0.2960
O11 O 0.60459(11) 0.73239(5) 0.7140(3)
H6 H 0.6000 0.7453 0.7339
O12 O 0.55337(11) 0.72149(5) 0.7667(2)
C1 C 0.57327(4) 0.56790(3) 0.56867(9)
H7 H 0.5701 0.5669 0.6214
C2 C 0.58148(4) 0.57050(3) 0.43112(9)
H8 H 0.5847 0.5715 0.3784
C3 C 0.61218(4) 0.55806(3) 0.46918(9)
C4 C 0.64326(4) 0.55055(3) 0.43746(9)
H9 H 0.6460 0.5516 0.3873
C5 C 0.67074(4) 0.54145(3) 0.47945(9)
C6 C 0.66607(4) 0.53987(3) 0.55371(10)
C7 C 0.63411(4) 0.54727(3) 0.58400(9)
H10 H 0.6307 0.5458 0.6339
C8 C 0.60759(4) 0.55657(3) 0.54269(9)
C9 C 0.70485(4) 0.53464(4) 0.44580(10)
C10 C 0.72243(5) 0.55059(4) 0.40075(11)
H11 H 0.7117 0.5653 0.3898
C11 C 0.75559(5) 0.54503(4) 0.37184(11)
H12 H 0.7673 0.5559 0.3413
C12 C 0.77121(5) 0.52364(5) 0.38799(12)
C13 C 0.75351(6) 0.50731(4) 0.43103(12)
H13 H 0.7641 0.4925 0.4408
C14 C 0.72049(5) 0.51270(4) 0.45957(11)
H14 H 0.7085 0.5015 0.4884
C15 C 0.80635(6) 0.51749(5) 0.35967(13)
C16 C 0.69535(5) 0.53238(4) 0.60171(10)
C17 C 0.72666(5) 0.54550(4) 0.60382(12)
H15 H 0.7289 0.5591 0.5748
C18 C 0.75458(5) 0.53894(4) 0.64756(12)
H16 H 0.7759 0.5479 0.6483
C19 C 0.75116(5) 0.51930(4) 0.68982(11)
C20 C 0.72061(5) 0.50621(5) 0.68909(12)
H17 H 0.7186 0.4926 0.7182
C21 C 0.69215(5) 0.51307(4) 0.64485(11)
H18 H 0.6707 0.5042 0.6450
C22 C 0.78160(6) 0.51211(5) 0.73539(12)
C23 C 0.54732(4) 0.55805(3) 0.45296(9)
C24 C 0.52128(4) 0.54993(3) 0.40840(9)
H19 H 0.5244 0.5510 0.3583
C25 C 0.48999(4) 0.54006(3) 0.43621(10)
C26 C 0.48577(4) 0.53875(3) 0.51071(10)
C27 C 0.51254(4) 0.54701(3) 0.55538(9)
H20 H 0.5097 0.5460 0.6055
C28 C 0.54309(4) 0.55664(3) 0.52724(9)
C29 C 0.46338(4) 0.53065(3) 0.38574(10)
C30 C 0.45223(5) 0.54399(4) 0.32743(12)
H21 H 0.4617 0.5593 0.3203
C31 C 0.42752(5) 0.53504(4) 0.27990(12)
H22 H 0.4197 0.5444 0.2410
C32 C 0.41429(5) 0.51269(4) 0.28867(12)
C33 C 0.42564(5) 0.49892(4) 0.34568(11)
H23 H 0.4170 0.4833 0.3512
C34 C 0.44937(4) 0.50798(3) 0.39377(11)
H24 H 0.4564 0.4987 0.4334
C35 C 0.38789(6) 0.50298(5) 0.23829(13)
C36 C 0.45247(4) 0.52989(3) 0.54474(10)
C37 C 0.41960(5) 0.53964(4) 0.52951(11)
H25 H 0.4180 0.5519 0.4952
C38 C 0.38936(5) 0.53197(4) 0.56286(12)
H26 H 0.3669 0.5386 0.5511
C39 C 0.39198(5) 0.51444(4) 0.61414(11)
C40 C 0.42415(5) 0.50429(3) 0.62971(12)
H27 H 0.4256 0.4919 0.6637
C41 C 0.45448(5) 0.51223(3) 0.59521(12)
H28 H 0.4769 0.5055 0.6064
C42 C 0.35994(5) 0.50645(4) 0.65380(11)
C43 C 0.57941(4) 0.59446(3) 0.46738(10)
C44 C 0.58111(5) 0.61589(3) 0.43362(11)
H29 H 0.5837 0.6167 0.3834
C45 C 0.57893(6) 0.63660(4) 0.47446(14)
C46 C 0.57553(6) 0.63532(3) 0.54839(14)
C47 C 0.57336(5) 0.61349(3) 0.58091(12)
H30 H 0.5706 0.6125 0.6311
C48 C 0.57521(4) 0.59309(3) 0.54104(10)
C49 C 0.57922(7) 0.65963(4) 0.43469(17)
C50 C 0.60542(9) 0.66443(4) 0.38477(19)
H31 H 0.6235 0.6531 0.3761
C51 C 0.60575(10) 0.68527(5) 0.3476(2)
H32 H 0.6235 0.6882 0.3129
C52 C 0.57991(11) 0.70182(5) 0.3615(3)
C53 C 0.55224(10) 0.69717(5) 0.4097(2)
H33 H 0.5338 0.7084 0.4168
C54 C 0.55204(9) 0.67609(4) 0.4469(2)
H34 H 0.5337 0.6728 0.4803
C55 C 0.57919(15) 0.72421(7) 0.3221(3)
C56 C 0.57613(7) 0.65670(4) 0.59378(16)
C57 C 0.60386(9) 0.67282(4) 0.5875(2)
H35 H 0.6223 0.6702 0.5539
C58 C 0.60448(10) 0.69256(5) 0.6300(2)
H36 H 0.6232 0.7037 0.6254
C59 C 0.57765(12) 0.69615(5) 0.6795(3)
C60 C 0.55097(11) 0.68054(5) 0.6867(2)
H37 H 0.5325 0.6833 0.7201
C61 C 0.55074(9) 0.66032(4) 0.64470(18)
H38 H 0.5327 0.6489 0.6515
C62 C 0.57899(15) 0.71854(6) 0.7223(3)
H39? H 0.8384 0.4960 0.3493
H40? H 0.3655 0.4783 0.2085
H41? H 0.3158 0.5131 0.6739
H42? H 0.5370 0.7292 0.7471
loop_
_geom_bond_atom_site_label_1
_geom_bond_atom_site_label_2
_geom_bond_site_symmetry_1
_geom_bond_site_symmetry_2
O1 H1 1_555 1_555
O2 C15 1_555 1_555
O3 C22 1_555 1_555
O4 H2 1_555 1_555
O5 H3 1_555 1_555
O6 C35 1_555 1_555
O7 H4 1_555 1_555
O8 C42 1_555 1_555
O9 C55 1_555 1_555
O10 H5 1_555 1_555
O11 H6 1_555 1_555
O12 C62 1_555 1_555
C1 H7 1_555 1_555
C2 H8 1_555 1_555
C3 C2 1_555 1_555
C4 C3 1_555 1_555
H9 C4 1_555 1_555
C5 C4 1_555 1_555
C6 C5 1_555 1_555
C7 C6 1_555 1_555
H10 C7 1_555 1_555
C8 C1 1_555 1_555
C9 C5 1_555 1_555
C10 C9 1_555 1_555
H11 C10 1_555 1_555
C11 C10 1_555 1_555
H12 C11 1_555 1_555
C12 C11 1_555 1_555
C13 C12 1_555 1_555
H13 C13 1_555 1_555
C14 C9 1_555 1_555
H14 C14 1_555 1_555
C15 O1 1_555 1_555
C16 C6 1_555 1_555
C17 C16 1_555 1_555
H15 C17 1_555 1_555
C18 C17 1_555 1_555
H16 C18 1_555 1_555
C19 C18 1_555 1_555
C20 C19 1_555 1_555
H17 C20 1_555 1_555
C21 C16 1_555 1_555
H18 C21 1_555 1_555
C22 O4 1_555 1_555
C23 C2 1_555 1_555
C24 C23 1_555 1_555
H19 C24 1_555 1_555
C25 C24 1_555 1_555
C26 C25 1_555 1_555
C27 C26 1_555 1_555
H20 C27 1_555 1_555
C28 C1 1_555 1_555
C29 C25 1_555 1_555
C30 C29 1_555 1_555
H21 C30 1_555 1_555
C31 C30 1_555 1_555
H22 C31 1_555 1_555
C32 C31 1_555 1_555
C33 C32 1_555 1_555
H23 C33 1_555 1_555
C34 C29 1_555 1_555
H24 C34 1_555 1_555
C35 O5 1_555 1_555
C36 C26 1_555 1_555
C37 C36 1_555 1_555
H25 C37 1_555 1_555
C38 C37 1_555 1_555
H26 C38 1_555 1_555
C39 C38 1_555 1_555
C40 C39 1_555 1_555
H27 C40 1_555 1_555
C41 C36 1_555 1_555
H28 C41 1_555 1_555
C42 O7 1_555 1_555
C43 C2 1_555 1_555
C44 C43 1_555 1_555
H29 C44 1_555 1_555
C45 C44 1_555 1_555
C46 C45 1_555 1_555
C47 C46 1_555 1_555
H30 C47 1_555 1_555
C48 C1 1_555 1_555
C49 C45 1_555 1_555
C50 C49 1_555 1_555
H31 C50 1_555 1_555
C51 C50 1_555 1_555
H32 C51 1_555 1_555
C52 C51 1_555 1_555
C53 C52 1_555 1_555
H33 C53 1_555 1_555
C54 C49 1_555 1_555
H34 C54 1_555 1_555
C55 O10 1_555 1_555
C56 C46 1_555 1_555
C57 C56 1_555 1_555
H35 C57 1_555 1_555
C58 C57 1_555 1_555
H36 C58 1_555 1_555
C59 C58 1_555 1_555
C60 C59 1_555 1_555
H37 C60 1_555 1_555
C61 C56 1_555 1_555
H38 C61 1_555 1_555
C62 O11 1_555 1_555
C3 C8 1_555 1_555
C7 C8 1_555 1_555
C12 C15 1_555 1_555
C13 C14 1_555 1_555
C19 C22 1_555 1_555
C20 C21 1_555 1_555
C23 C28 1_555 1_555
C27 C28 1_555 1_555
C32 C35 1_555 1_555
C33 C34 1_555 1_555
C39 C42 1_555 1_555
C40 C41 1_555 1_555
C43 C48 1_555 1_555
C47 C48 1_555 1_555
C52 C55 1_555 1_555
C53 C54 1_555 1_555
C59 C62 1_555 1_555
C60 C61 1_555 1_555

#END
