
#######################################################################
#
#                 Cambridge Crystallographic Data Centre
#                                CCDC 
#
#######################################################################
#
# If this CIF has been generated from an entry in the Cambridge 
# Structural Database, then it will include bibliographic, chemical, 
# crystal, experimental, refinement or atomic coordinate data resulting 
# from the CCDC's data processing and validation procedures.
#
#######################################################################

data_FIWHEZ
_chemical_formula_moiety         'C19 H11 Cl2 F3 N4'
_chemical_name_systematic        
1-(2,6-Dichloro-4-(trifluoromethyl)phenyl)-5-((4-methylbenzylidene)amino)-1H-pyrazole-3-carbonitrile
_symmetry_cell_setting           triclinic
_symmetry_space_group_name_H-M   'P -1'
_symmetry_Int_Tables_number      2
_space_group_name_Hall           '-P 1'
loop_
_symmetry_equiv_pos_site_id
_symmetry_equiv_pos_as_xyz
1 x,y,z
2 -x,-y,-z
_cell_length_a                   8.3045(7)
_cell_length_b                   10.5134(10)
_cell_length_c                   11.8019(11)
_cell_angle_alpha                76.1060(10)
_cell_angle_beta                 87.116(2)
_cell_angle_gamma                72.072(2)
_cell_volume                     951.379
_exptl_crystal_colour            colorless
_exptl_crystal_description       block
_chemical_melting_point          '460-462 K'
_cell_formula_units_Z            2
_exptl_crystal_recrystallization_method 'ethyl acetate/petroleum ether'
loop_
_atom_site_label
_atom_site_type_symbol
_atom_site_fract_x
_atom_site_fract_y
_atom_site_fract_z
Cl1 Cl 0.40507(13) 0.46063(11) 0.69555(8)
Cl2 Cl 0.75992(14) 0.04151(11) 0.50851(11)
F1 F 0.2268(6) 0.4226(7) 0.2322(3)
F2 F 0.1375(8) 0.2702(4) 0.3182(6)
F3 F 0.0523(4) 0.4656(5) 0.3425(4)
N1 N 0.5790(4) 0.0271(3) 0.7897(2)
N2 N 0.8126(4) 0.2611(3) 0.6874(3)
N3 N 0.6886(3) 0.2036(3) 0.6882(2)
N4 N 1.1640(5) 0.2368(4) 0.8489(4)
C1 C 0.1281(6) -0.3968(5) 0.9398(4)
H1 H 0.1617 -0.4695 1.0090
H2 H 0.1362 -0.4356 0.8731
H3 H 0.0134 -0.3421 0.9464
C2 C 0.2429(5) -0.3078(4) 0.9253(3)
C3 C 0.3735(5) -0.3353(4) 1.0055(3)
H4 H 0.3888 -0.4091 1.0702
C4 C 0.4803(5) -0.2561(4) 0.9916(3)
H5 H 0.5667 -0.2769 1.0465
C5 C 0.4605(4) -0.1453(3) 0.8962(3)
C6 C 0.3267(5) -0.1141(4) 0.8174(3)
H6 H 0.3086 -0.0381 0.7545
C7 C 0.2218(5) -0.1946(4) 0.8318(3)
H7 H 0.1342 -0.1729 0.7776
C8 C 0.5796(4) -0.0662(3) 0.8805(3)
H8 H 0.6595 -0.0850 0.9396
C9 C 0.7005(4) 0.0948(3) 0.7816(3)
C10 C 0.8398(5) 0.0817(4) 0.8453(3)
H9 H 0.8828 0.0174 0.9144
C11 C 0.9035(5) 0.1857(4) 0.7840(3)
C12 C 1.0486(5) 0.2170(4) 0.8171(4)
C13 C 0.5653(4) 0.2509(3) 0.5960(3)
C14 C 0.4252(4) 0.3650(3) 0.5924(3)
C15 C 0.3006(4) 0.4051(4) 0.5066(3)
H10 H 0.2082 0.4832 0.5035
C16 C 0.3158(5) 0.3268(4) 0.4254(3)
C17 C 0.4555(5) 0.2149(4) 0.4252(3)
H11 H 0.4654 0.1645 0.3689
C18 C 0.5805(4) 0.1787(4) 0.5098(3)
C19 C 0.1813(6) 0.3640(5) 0.3336(4)
loop_
_geom_bond_atom_site_label_1
_geom_bond_atom_site_label_2
_geom_bond_site_symmetry_1
_geom_bond_site_symmetry_2
Cl1 C14 1_555 1_555
Cl2 C18 1_555 1_555
F1 C19 1_555 1_555
F2 C19 1_555 1_555
F3 C19 1_555 1_555
N1 C8 1_555 1_555
N2 N3 1_555 1_555
N3 C9 1_555 1_555
N4 C12 1_555 1_555
C1 H1 1_555 1_555
H2 C1 1_555 1_555
H3 C1 1_555 1_555
C2 C1 1_555 1_555
C3 C2 1_555 1_555
H4 C3 1_555 1_555
C4 C3 1_555 1_555
H5 C4 1_555 1_555
C5 C4 1_555 1_555
C6 C5 1_555 1_555
H6 C6 1_555 1_555
C7 C2 1_555 1_555
H7 C7 1_555 1_555
C8 C5 1_555 1_555
H8 C8 1_555 1_555
C9 N1 1_555 1_555
C10 C9 1_555 1_555
H9 C10 1_555 1_555
C11 N2 1_555 1_555
C12 C11 1_555 1_555
C13 N3 1_555 1_555
C14 C13 1_555 1_555
C15 C14 1_555 1_555
H10 C15 1_555 1_555
C16 C15 1_555 1_555
C17 C16 1_555 1_555
H11 C17 1_555 1_555
C18 C13 1_555 1_555
C19 C16 1_555 1_555
C6 C7 1_555 1_555
C10 C11 1_555 1_555
C17 C18 1_555 1_555

#END
