
#######################################################################
#
#                 Cambridge Crystallographic Data Centre
#                                CCDC 
#
#######################################################################
#
# If this CIF has been generated from an entry in the Cambridge 
# Structural Database, then it will include bibliographic, chemical, 
# crystal, experimental, refinement or atomic coordinate data resulting 
# from the CCDC's data processing and validation procedures.
#
#######################################################################

data_FIWKAZ
_chemical_formula_moiety         'C16 H11 Br1 N2 O1'
_chemical_name_systematic        
11-bromo-3-methyl-1H-benzo[c]pyrazolo[1,2-a]cinnolin-1-one
_symmetry_cell_setting           orthorhombic
_symmetry_space_group_name_H-M   'P c a 21'
_symmetry_Int_Tables_number      29
_space_group_name_Hall           'P 2c -2ac'
loop_
_symmetry_equiv_pos_site_id
_symmetry_equiv_pos_as_xyz
1 x,y,z
2 -x,-y,1/2+z
3 1/2-x,y,1/2+z
4 1/2+x,-y,z
_cell_length_a                   7.4355(4)
_cell_length_b                   20.5015(12)
_cell_length_c                   16.7167(9)
_cell_angle_alpha                90
_cell_angle_beta                 90
_cell_angle_gamma                90
_cell_volume                     2548.28
_exptl_crystal_description       needle
_cell_formula_units_Z            8
loop_
_atom_site_label
_atom_site_type_symbol
_atom_site_fract_x
_atom_site_fract_y
_atom_site_fract_z
Br1 Br 0.98340(10) 0.23900(3) 0.44215(6)
O1 O 0.7399(7) 0.3968(2) 0.2434(3)
N1 N 0.8421(6) 0.4740(2) 0.3361(3)
N2 N 0.8541(6) 0.5423(2) 0.3380(3)
C1 C 0.9738(9) 0.3311(3) 0.4549(6)
C2 C 0.9112(10) 0.3683(3) 0.3918(5)
H1 H 0.8730 0.3483 0.3448
C3 C 0.9058(9) 0.4352(3) 0.3991(4)
C4 C 0.9195(9) 0.5743(3) 0.4063(5)
C5 C 0.9311(10) 0.6418(3) 0.4089(5)
H2 H 0.8966 0.6666 0.3649
C6 C 0.9956(11) 0.6725(4) 0.4786(5)
H3 H 1.0025 0.7177 0.4807
C7 C 0.7854(10) 0.5638(4) 0.2666(5)
C8 C 0.7673(12) 0.6333(3) 0.2411(5)
H4 H 0.7169 0.6350 0.1883
H5 H 0.8837 0.6536 0.2410
H6 H 0.6898 0.6559 0.2777
C9 C 0.7281(10) 0.5133(3) 0.2224(5)
H7 H 0.6732 0.5167 0.1726
C10 C 0.7636(10) 0.4536(4) 0.2631(5)
C11 C 1.0485(10) 0.6363(4) 0.5436(5)
H8 H 1.0892 0.6569 0.5897
C12 C 1.0409(9) 0.5703(4) 0.5400(5)
H9 H 1.0801 0.5460 0.5837
C13 C 0.9747(8) 0.5370(3) 0.4715(4)
C14 C 0.9693(8) 0.4659(3) 0.4682(4)
C15 C 1.0277(10) 0.4259(4) 0.5310(5)
H10 H 1.0680 0.4452 0.5781
C16 C 1.0274(10) 0.3594(4) 0.5254(4)
H11 H 1.0628 0.3338 0.5685
Br2 Br 0.74982(19) 1.24780(3) 0.20661(6)
C17 C 0.9977(10) 0.8582(3) 0.4155(5)
H12 H 0.8822 0.8393 0.4266
H13 H 1.0704 0.8569 0.4630
H14 H 1.0557 0.8339 0.3738
N3 N 0.9067(7) 1.0165(2) 0.3187(4)
O2 O 1.0081(7) 1.0963(2) 0.4076(3)
C18 C 0.7625(15) 1.1555(3) 0.1975(6)
C19 C 0.7010(11) 1.1254(4) 0.1295(5)
H15 H 0.6565 1.1499 0.0870
C20 C 0.7060(10) 1.0596(4) 0.1251(5)
H16 H 0.6622 1.0397 0.0790
C21 C 0.7728(12) 1.0202(3) 0.1856(4)
C22 C 0.7751(12) 0.9485(3) 0.1858(4)
C23 C 0.7192(11) 0.9128(4) 0.1177(5)
H17 H 0.6894 0.9349 0.0710
C24 C 0.7082(12) 0.8451(4) 0.1199(5)
H18 H 0.6706 0.8223 0.0748
C25 C 0.7519(17) 0.8124(3) 0.1871(6)
H19 H 0.7459 0.7671 0.1880
C26 C 0.8059(12) 0.8461(4) 0.2552(5)
H20 H 0.8298 0.8236 0.3023
C27 C 0.8239(10) 0.9132(4) 0.2528(4)
N4 N 0.8959(7) 0.9483(2) 0.3198(3)
C28 C 0.8376(10) 1.0532(3) 0.2546(5)
C29 C 0.8328(10) 1.1213(4) 0.2609(5)
H21 H 0.8755 1.1426 0.3062
C30 C 0.9855(9) 1.0389(4) 0.3920(4)
C31 C 1.0244(8) 0.9803(3) 0.4322(5)
H22 H 1.0785 0.9784 0.4823
C32 C 0.9742(9) 0.9267(4) 0.3896(4)
loop_
_geom_bond_atom_site_label_1
_geom_bond_atom_site_label_2
_geom_bond_site_symmetry_1
_geom_bond_site_symmetry_2
Br1 C1 1_555 1_555
O1 C10 1_555 1_555
N1 N2 1_555 1_555
N2 C4 1_555 1_555
C1 C2 1_555 1_555
C2 H1 1_555 1_555
C3 N1 1_555 1_555
C4 C5 1_555 1_555
C5 H2 1_555 1_555
C6 C5 1_555 1_555
H3 C6 1_555 1_555
C7 N2 1_555 1_555
C8 C7 1_555 1_555
H4 C8 1_555 1_555
H5 C8 1_555 1_555
H6 C8 1_555 1_555
C9 C7 1_555 1_555
H7 C9 1_555 1_555
C10 N1 1_555 1_555
C11 C6 1_555 1_555
H8 C11 1_555 1_555
C12 C11 1_555 1_555
H9 C12 1_555 1_555
C13 C4 1_555 1_555
C14 C3 1_555 1_555
C15 C14 1_555 1_555
H10 C15 1_555 1_555
C16 C1 1_555 1_555
H11 C16 1_555 1_555
Br2 C18 1_555 1_555
C17 H12 1_555 1_555
H13 C17 1_555 1_555
H14 C17 1_555 1_555
N3 N4 1_555 1_555
O2 C30 1_555 1_555
C18 C19 1_555 1_555
C19 H15 1_555 1_555
C20 C19 1_555 1_555
H16 C20 1_555 1_555
C21 C20 1_555 1_555
C22 C21 1_555 1_555
C23 C22 1_555 1_555
H17 C23 1_555 1_555
C24 C23 1_555 1_555
H18 C24 1_555 1_555
C25 C24 1_555 1_555
H19 C25 1_555 1_555
C26 C25 1_555 1_555
H20 C26 1_555 1_555
C27 C22 1_555 1_555
N4 C27 1_555 1_555
C28 N3 1_555 1_555
C29 C18 1_555 1_555
H21 C29 1_555 1_555
C30 N3 1_555 1_555
C31 C30 1_555 1_555
H22 C31 1_555 1_555
C32 C17 1_555 1_555
C2 C3 1_555 1_555
C9 C10 1_555 1_555
C12 C13 1_555 1_555
C13 C14 1_555 1_555
C15 C16 1_555 1_555
C21 C28 1_555 1_555
C26 C27 1_555 1_555
N4 C32 1_555 1_555
C28 C29 1_555 1_555
C31 C32 1_555 1_555

#END
