
#######################################################################
#
#                 Cambridge Crystallographic Data Centre
#                                CCDC 
#
#######################################################################
#
# If this CIF has been generated from an entry in the Cambridge 
# Structural Database, then it will include bibliographic, chemical, 
# crystal, experimental, refinement or atomic coordinate data resulting 
# from the CCDC's data processing and validation procedures.
#
#######################################################################

data_FIWMIJ
_chemical_formula_moiety         'C45 H50 O10,C4 H8 O2'
_chemical_name_systematic        
'4,9,14,19,24,26,28,30,32,34-Decamethoxyhexacyclo[21.2.2.2^3,6^.2^8,11^.2^13,16^.2^18,21^]pentatriaconta-1(25),3,5,8,10,13,15,18,20,23,26,28,30,32,34-pentadecaene ethyl acetate solvate'
_symmetry_cell_setting           tetragonal
_symmetry_space_group_name_H-M   'I 41/a'
_symmetry_Int_Tables_number      88
_space_group_name_Hall           '-I 4ad'
loop_
_symmetry_equiv_pos_site_id
_symmetry_equiv_pos_as_xyz
1 x,y,z
2 1/2-x,-y,1/2+z
3 3/4-y,1/4+x,1/4+z
4 3/4+y,3/4-x,3/4+z
5 1/2+x,1/2+y,1/2+z
6 -x,1/2-y,z
7 1/4-y,3/4+x,3/4+z
8 1/4+y,1/4-x,1/4+z
9 -x,-y,-z
10 1/2+x,y,1/2-z
11 1/4+y,3/4-x,3/4-z
12 1/4-y,1/4+x,1/4-z
13 1/2-x,1/2-y,1/2-z
14 x,1/2+y,-z
15 3/4+y,1/4-x,1/4-z
16 3/4-y,3/4+x,3/4-z
_cell_length_a                   15.030(2)
_cell_length_b                   15.030(2)
_cell_length_c                   40.076(8)
_cell_angle_alpha                90
_cell_angle_beta                 90
_cell_angle_gamma                90
_cell_volume                     9053.2
_exptl_crystal_colour            colorless
_exptl_crystal_description       block
_cell_formula_units_Z            8
_chemical_properties_physical    Air-sensitive
loop_
_atom_site_label
_atom_site_type_symbol
_atom_site_fract_x
_atom_site_fract_y
_atom_site_fract_z
C1 C 1.08954(17) 0.72768(15) 0.01429(5)
C2 C 1.02486(17) 0.66193(15) 0.01366(5)
H1 H 1.0421 0.6025 0.0131
C3 C 0.93495(17) 0.68287(14) 0.01386(5)
C4 C 0.86596(18) 0.60946(16) 0.01466(6)
H2 H 0.8902 0.5565 0.0042
H3 H 0.8141 0.6278 0.0020
C5 C 0.83834(16) 0.58778(14) 0.05009(6)
C6 C 0.88118(16) 0.52311(16) 0.06902(6)
C7 C 0.85611(16) 0.50745(16) 0.10200(6)
H4 H 0.8842 0.4625 0.1140
C8 C 0.79023(16) 0.55738(16) 0.11736(6)
C9 C 0.74804(17) 0.62248(16) 0.09850(7)
C10 C 0.77123(16) 0.63593(16) 0.06534(7)
H5 H 0.7407 0.6786 0.0530
C11 C 0.76689(18) 0.54175(19) 0.15370(7)
H6 H 0.7053 0.5585 0.1573
H7 H 0.7724 0.4788 0.1586
C12 C 0.82539(17) 0.59355(17) 0.17759(6)
C13 C 0.90700(18) 0.56064(17) 0.18793(6)
C14 C 0.96131(18) 0.60998(19) 0.20858(6)
H8 H 1.0155 0.5862 0.2153
C15 C 0.93717(17) 0.69473(18) 0.21969(6)
C16 C 0.85439(18) 0.72720(18) 0.20990(7)
C17 C 0.79974(18) 0.67691(19) 0.18940(7)
H9 H 0.7444 0.6994 0.1833
C18 C 1.0000 0.7500 0.24059(9)
H10 H 1.0344 0.7108 0.2548
C19 C 1.2075(2) 0.62041(18) 0.01637(8)
H11 H 1.1826 0.5928 0.0358
H12 H 1.2712 0.6179 0.0175
H13 H 1.1874 0.5895 -0.0032
C20 C 1.0083(2) 0.4271(2) 0.07176(7)
H14 H 1.0365 0.4652 0.0878
H15 H 1.0525 0.4021 0.0572
H16 H 0.9776 0.3800 0.0832
C21 C 0.6453(3) 0.7429(3) 0.09646(12)
H17 H 0.6917 0.7804 0.0879
H18 H 0.6075 0.7768 0.1110
H19 H 0.6108 0.7199 0.0782
C22 C 1.0159(3) 0.4462(2) 0.17957(9)
H20 H 1.0565 0.4919 0.1727
H21 H 1.0243 0.3944 0.1659
H22 H 1.0268 0.4311 0.2025
C23 C 0.7484(3) 0.8465(3) 0.21323(11)
H23 H 0.7477 0.8598 0.1898
H24 H 0.7383 0.9000 0.2257
H25 H 0.7026 0.8041 0.2182
O1 O 1.17987(12) 0.71003(11) 0.01483(4)
O2 O 0.94753(15) 0.47638(14) 0.05297(4)
O3 O 0.68324(14) 0.67182(14) 0.11436(6)
O4 O 0.92840(15) 0.47677(13) 0.17608(5)
O5 O 0.83239(14) 0.81031(14) 0.22199(6)
C1E C 0.91046(17) 0.77232(15) 0.01429(5)
C2E C 0.97514(17) 0.83807(15) 0.01366(5)
H1E H 0.9579 0.8975 0.0131
C3E C 1.06505(17) 0.81713(14) 0.01386(5)
C4E C 1.13404(18) 0.89054(16) 0.01466(6)
H2E H 1.1098 0.9435 0.0042
H3E H 1.1859 0.8722 0.0020
C5E C 1.16166(16) 0.91222(14) 0.05009(6)
C6E C 1.11882(16) 0.97689(16) 0.06902(6)
C7E C 1.14389(16) 0.99255(16) 0.10200(6)
H4E H 1.1158 1.0375 0.1140
C8E C 1.20977(16) 0.94262(16) 0.11736(6)
C9E C 1.25196(17) 0.87752(16) 0.09850(7)
C10E C 1.22877(16) 0.86407(16) 0.06534(7)
H5E H 1.2593 0.8214 0.0530
C11E C 1.23311(18) 0.95825(19) 0.15370(7)
H6E H 1.2947 0.9415 0.1573
H7E H 1.2276 1.0212 0.1586
C12E C 1.17461(17) 0.90645(17) 0.17759(6)
C13E C 1.09300(18) 0.93936(17) 0.18793(6)
C14E C 1.03869(18) 0.89002(19) 0.20858(6)
H8E H 0.9845 0.9138 0.2153
C15E C 1.06283(17) 0.80527(18) 0.21969(6)
C16E C 1.14561(18) 0.77280(18) 0.20990(7)
C17E C 1.20026(18) 0.82309(19) 0.18940(7)
H9E H 1.2556 0.8006 0.1833
H10E H 0.9656 0.7892 0.2548
C19E C 0.7925(2) 0.87959(18) 0.01637(8)
H11E H 0.8174 0.9072 0.0358
H12E H 0.7288 0.8821 0.0175
H13E H 0.8126 0.9105 -0.0032
C20E C 0.9917(2) 1.0729(2) 0.07176(7)
H14E H 0.9635 1.0348 0.0878
H15E H 0.9475 1.0979 0.0572
H16E H 1.0224 1.1200 0.0832
C21E C 1.3547(3) 0.7571(3) 0.09646(12)
H17E H 1.3083 0.7196 0.0879
H18E H 1.3925 0.7232 0.1110
H19E H 1.3892 0.7801 0.0782
C22E C 0.9841(3) 1.0538(2) 0.17957(9)
H20E H 0.9435 1.0081 0.1727
H21E H 0.9757 1.1056 0.1659
H22E H 0.9732 1.0689 0.2025
C23E C 1.2516(3) 0.6535(3) 0.21323(11)
H23E H 1.2523 0.6402 0.1898
H24E H 1.2617 0.6000 0.2257
H25E H 1.2974 0.6959 0.2182
O1E O 0.82013(12) 0.78997(11) 0.01483(4)
O2E O 1.05247(15) 1.02362(14) 0.05297(4)
O3E O 1.31676(14) 0.82818(14) 0.11436(6)
O4E O 1.07160(15) 1.02323(13) 0.17608(5)
O5E O 1.16761(14) 0.68969(14) 0.22199(6)
H26? H 1.0344 0.7108 0.2548
C24? C 0.8540(9) 0.8614(9) 0.1403(3)
H27? H 0.8463 0.9245 0.1379
H28? H 0.8752 0.8486 0.1624
H29? H 0.7981 0.8320 0.1368
C25? C 0.9157(4) 0.8313(3) 0.11696(11)
O6? O 0.9127(10) 0.8649(9) 0.0939(3)
O7? O 0.9666(3) 0.7644(4) 0.11752(16)
H30? H 0.9425 0.8792 0.1292
H31? H 0.8597 0.8161 0.1270
H32? H 0.9061 0.8494 0.0943
C26? C 0.9666(3) 0.7644(4) 0.11752(16)
H33? H 0.9428 0.7348 0.1371
H34? H 0.9414 0.7314 0.0990
loop_
_geom_bond_atom_site_label_1
_geom_bond_atom_site_label_2
_geom_bond_site_symmetry_1
_geom_bond_site_symmetry_2
C1 C2 1_555 1_555
C2 H1 1_555 1_555
C3 C2 1_555 1_555
C4 C3 1_555 1_555
H2 C4 1_555 1_555
H3 C4 1_555 1_555
C5 C4 1_555 1_555
C6 C5 1_555 1_555
C7 C6 1_555 1_555
H4 C7 1_555 1_555
C8 C7 1_555 1_555
C9 C8 1_555 1_555
C10 C5 1_555 1_555
H5 C10 1_555 1_555
C11 C8 1_555 1_555
H6 C11 1_555 1_555
H7 C11 1_555 1_555
C12 C11 1_555 1_555
C13 C12 1_555 1_555
C14 C13 1_555 1_555
H8 C14 1_555 1_555
C15 C14 1_555 1_555
C16 C15 1_555 1_555
C17 C12 1_555 1_555
H9 C17 1_555 1_555
C18 C15 1_555 1_555
H10 C18 1_555 1_555
C19 H11 1_555 1_555
H12 C19 1_555 1_555
H13 C19 1_555 1_555
C20 H14 1_555 1_555
H15 C20 1_555 1_555
H16 C20 1_555 1_555
C21 H17 1_555 1_555
H18 C21 1_555 1_555
H19 C21 1_555 1_555
C22 H20 1_555 1_555
H21 C22 1_555 1_555
H22 C22 1_555 1_555
C23 H23 1_555 1_555
H24 C23 1_555 1_555
H25 C23 1_555 1_555
O1 C1 1_555 1_555
O2 C6 1_555 1_555
O3 C9 1_555 1_555
O4 C13 1_555 1_555
O5 C16 1_555 1_555
C1E C3 1_555 1_555
C2E C1E 1_555 1_555
H1E C2E 1_555 1_555
C3E C1 1_555 1_555
C4E C3E 1_555 1_555
H2E C4E 1_555 1_555
H3E C4E 1_555 1_555
C5E C4E 1_555 1_555
C6E C5E 1_555 1_555
C7E C6E 1_555 1_555
H4E C7E 1_555 1_555
C8E C7E 1_555 1_555
C9E C8E 1_555 1_555
C10E C5E 1_555 1_555
H5E C10E 1_555 1_555
C11E C8E 1_555 1_555
H6E C11E 1_555 1_555
H7E C11E 1_555 1_555
C12E C11E 1_555 1_555
C13E C12E 1_555 1_555
C14E C13E 1_555 1_555
H8E C14E 1_555 1_555
C15E C18 1_555 1_555
C16E C15E 1_555 1_555
C17E C12E 1_555 1_555
H9E C17E 1_555 1_555
H10E C18 1_555 1_555
C19E H11E 1_555 1_555
H12E C19E 1_555 1_555
H13E C19E 1_555 1_555
C20E H14E 1_555 1_555
H15E C20E 1_555 1_555
H16E C20E 1_555 1_555
C21E H17E 1_555 1_555
H18E C21E 1_555 1_555
H19E C21E 1_555 1_555
C22E H20E 1_555 1_555
H21E C22E 1_555 1_555
H22E C22E 1_555 1_555
C23E H23E 1_555 1_555
H24E C23E 1_555 1_555
H25E C23E 1_555 1_555
O1E C1E 1_555 1_555
O2E C6E 1_555 1_555
O3E C9E 1_555 1_555
O4E C13E 1_555 1_555
O5E C16E 1_555 1_555
C9 C10 1_555 1_555
C16 C17 1_555 1_555
C19 O1 1_555 1_555
C20 O2 1_555 1_555
C21 O3 1_555 1_555
C22 O4 1_555 1_555
C23 O5 1_555 1_555
C2E C3E 1_555 1_555
C9E C10E 1_555 1_555
C14E C15E 1_555 1_555
C16E C17E 1_555 1_555
C19E O1E 1_555 1_555
C20E O2E 1_555 1_555
C21E O3E 1_555 1_555
C22E O4E 1_555 1_555
C23E O5E 1_555 1_555

#END
