
#######################################################################
#
#                 Cambridge Crystallographic Data Centre
#                                CCDC 
#
#######################################################################
#
# If this CIF has been generated from an entry in the Cambridge 
# Structural Database, then it will include bibliographic, chemical, 
# crystal, experimental, refinement or atomic coordinate data resulting 
# from the CCDC's data processing and validation procedures.
#
#######################################################################

data_FIWMEF
_chemical_formula_moiety         'C45 H50 O10,C1 H2 Cl2'
_chemical_name_systematic        
'4,9,14,19,24,26,28,30,32,34-Decamethoxyhexacyclo[21.2.2.2^3,6^.2^8,11^.2^13,16^.2^18,21^]pentatriaconta-1(25),3,5,8,10,13,15,18,20,23,26,28,30,32,34-pentadecaene dichloromethane solvate'
_symmetry_cell_setting           tetragonal
_symmetry_space_group_name_H-M   'I 41/a'
_symmetry_Int_Tables_number      88
_space_group_name_Hall           '-I 4ad'
loop_
_symmetry_equiv_pos_site_id
_symmetry_equiv_pos_as_xyz
1 x,y,z
2 1/2-x,-y,1/2+z
3 3/4-y,1/4+x,1/4+z
4 3/4+y,3/4-x,3/4+z
5 1/2+x,1/2+y,1/2+z
6 -x,1/2-y,z
7 1/4-y,3/4+x,3/4+z
8 1/4+y,1/4-x,1/4+z
9 -x,-y,-z
10 1/2+x,y,1/2-z
11 1/4+y,3/4-x,3/4-z
12 1/4-y,1/4+x,1/4-z
13 1/2-x,1/2-y,1/2-z
14 x,1/2+y,-z
15 3/4+y,1/4-x,1/4-z
16 3/4-y,3/4+x,3/4-z
_cell_length_a                   14.928(4)
_cell_length_b                   14.928(4)
_cell_length_c                   39.286(10)
_cell_angle_alpha                90
_cell_angle_beta                 90
_cell_angle_gamma                90
_cell_volume                     8754.7
_exptl_crystal_colour            colorless
_exptl_crystal_description       block
_cell_formula_units_Z            8
_chemical_properties_physical    Air-sensitive
loop_
_atom_site_label
_atom_site_type_symbol
_atom_site_fract_x
_atom_site_fract_y
_atom_site_fract_z
Cl1 Cl 0.09237(6) 0.66083(5) 0.11672(2)
C1 C 0.0000 0.7500 0.24457(3)
H1 H 0.0361 0.7104 0.2594
C2 C 0.06215(5) 0.80672(5) 0.222969(18)
C3 C 0.03661(5) 0.89149(5) 0.211865(18)
H2 H -0.0193 0.9153 0.2191
C4 C 0.09055(5) 0.94199(5) 0.190638(18)
C5 C 0.17377(5) 0.91045(5) 0.180406(18)
C6 C 0.20064(5) 0.82603(5) 0.19195(2)
H3 H 0.2578 0.8036 0.1856
C7 C 0.14545(5) 0.77423(5) 0.212528(19)
C8 C 0.23246(5) 0.96411(5) 0.15631(2)
H4 H 0.2255 1.0287 0.1614
H5 H 0.2960 0.9479 0.1602
C9 C 0.20909(5) 0.94759(4) 0.119353(19)
C10 C 0.14364(5) 0.99830(5) 0.103128(18)
H6 H 0.1153 1.0456 0.1152
C11 C 0.11873(5) 0.98133(4) 0.069672(18)
C12 C 0.16134(4) 0.91471(4) 0.050907(18)
C13 C 0.22754(5) 0.86508(5) 0.06691(2)
H7 H 0.2583 0.8201 0.0544
C14 C 0.24998(5) 0.87969(5) 0.10077(2)
C15 C 0.13445(5) 0.89219(5) 0.014736(18)
H8 H 0.1881 0.8733 0.0017
H9 H 0.1094 0.9462 0.0036
C16 C 0.06535(5) 0.81775(4) 0.014044(16)
C17 C 0.09013(5) 0.72804(4) 0.014455(16)
C18 C -0.02525(5) 0.83874(4) 0.014018(16)
H10 H -0.0432 0.8998 0.0137
C19 C -0.02452(6) 1.04825(6) 0.17765(2)
H11 H -0.0581 0.9986 0.1675
H12 H -0.0329 1.1023 0.1639
H13 H -0.0463 1.0592 0.2008
C20 C 0.24569(6) 0.64916(6) 0.21046(3)
H14 H 0.2387 0.6427 0.1858
H15 H 0.2539 0.5900 0.2208
H16 H 0.2982 0.6865 0.2153
C21 C -0.01196(5) 1.07364(6) 0.07244(2)
H17 H -0.0384 1.0323 0.0890
H18 H -0.0590 1.0968 0.0574
H19 H 0.0166 1.1235 0.0845
C22 C 0.34193(8) 0.74951(7) 0.10237(4)
H20 H 0.2899 0.7120 0.0971
H21 H 0.3818 0.7172 0.1179
H22 H 0.3742 0.7637 0.0813
C23 C 0.20911(6) 0.62032(5) 0.01826(2)
H23 H 0.1829 0.5944 0.0389
H24 H 0.2746 0.6179 0.0198
H25 H 0.1891 0.5862 -0.0016
O1 O 0.06737(4) 1.02618(4) 0.178737(15)
O2 O 0.16816(4) 0.69012(4) 0.224242(16)
O3 O 0.05223(4) 1.02836(4) 0.053015(13)
O4 O 0.31302(4) 0.82921(4) 0.117857(17)
O5 O 0.18124(3) 0.71056(3) 0.014995(14)
H1E H -0.0361 0.7896 0.2594
C2E C -0.06215(5) 0.69328(5) 0.222969(18)
C3E C -0.03661(5) 0.60851(5) 0.211865(18)
H2E H 0.0193 0.5847 0.2191
C4E C -0.09055(5) 0.55801(5) 0.190638(18)
C5E C -0.17377(5) 0.58955(5) 0.180406(18)
C6E C -0.20064(5) 0.67397(5) 0.19195(2)
H3E H -0.2578 0.6964 0.1856
C7E C -0.14545(5) 0.72577(5) 0.212528(19)
C8E C -0.23246(5) 0.53589(5) 0.15631(2)
H4E H -0.2255 0.4713 0.1614
H5E H -0.2960 0.5521 0.1602
C9E C -0.20909(5) 0.55241(4) 0.119353(19)
C10E C -0.14364(5) 0.50170(5) 0.103128(18)
H6E H -0.1153 0.4544 0.1152
C11E C -0.11873(5) 0.51867(4) 0.069672(18)
C12E C -0.16134(4) 0.58529(4) 0.050907(18)
C13E C -0.22754(5) 0.63492(5) 0.06691(2)
H7E H -0.2583 0.6799 0.0544
C14E C -0.24998(5) 0.62031(5) 0.10077(2)
C15E C -0.13445(5) 0.60781(5) 0.014736(18)
H8E H -0.1881 0.6267 0.0017
H9E H -0.1094 0.5538 0.0036
C16E C -0.06535(5) 0.68225(4) 0.014044(16)
C17E C -0.09013(5) 0.77196(4) 0.014455(16)
C18E C 0.02525(5) 0.66126(4) 0.014018(16)
H10E H 0.0432 0.6002 0.0137
C19E C 0.02452(6) 0.45175(6) 0.17765(2)
H11E H 0.0581 0.5014 0.1675
H12E H 0.0329 0.3977 0.1639
H13E H 0.0463 0.4408 0.2008
C20E C -0.24569(6) 0.85084(6) 0.21046(3)
H14E H -0.2387 0.8573 0.1858
H15E H -0.2539 0.9100 0.2208
H16E H -0.2982 0.8135 0.2153
C21E C 0.01196(5) 0.42636(6) 0.07244(2)
H17E H 0.0384 0.4677 0.0890
H18E H 0.0590 0.4032 0.0574
H19E H -0.0166 0.3765 0.0845
C22E C -0.34193(8) 0.75049(7) 0.10237(4)
H20E H -0.2899 0.7880 0.0971
H21E H -0.3818 0.7828 0.1179
H22E H -0.3742 0.7363 0.0813
C23E C -0.20911(6) 0.87968(5) 0.01826(2)
H23E H -0.1829 0.9056 0.0389
H24E H -0.2746 0.8821 0.0198
H25E H -0.1891 0.9138 -0.0016
O1E O -0.06737(4) 0.47382(4) 0.178737(15)
O2E O -0.16816(4) 0.80988(4) 0.224242(16)
O3E O -0.05223(4) 0.47164(4) 0.053015(13)
O4E O -0.31302(4) 0.67079(4) 0.117857(17)
O5E O -0.18124(3) 0.78944(3) 0.014995(14)
H26? H 0.0361 0.7104 0.2594
H27? H -0.0552 0.6890 0.0941
H28? H 0.0491 0.6966 0.0850
Cl2? Cl -0.01793(16) 0.80911(9) 0.12421(6)
Cl3? Cl -0.05645(9) 0.76963(15) 0.11072(6)
C24? C 0.03580(12) 0.74608(15) 0.13424(6)
H29? H 0.0543 0.7478 0.1584
C25? C 0.00256(15) 0.71499(12) 0.10155(6)
Cl4? Cl 0.09237(6) 0.66083(5) 0.11672(2)
H30? H -0.0601 0.6988 0.1237
loop_
_geom_bond_atom_site_label_1
_geom_bond_atom_site_label_2
_geom_bond_site_symmetry_1
_geom_bond_site_symmetry_2
C1 H1 1_555 1_555
C2 C1 1_555 1_555
C3 C2 1_555 1_555
H2 C3 1_555 1_555
C4 C3 1_555 1_555
C5 C4 1_555 1_555
C6 C5 1_555 1_555
H3 C6 1_555 1_555
C7 C2 1_555 1_555
C8 C5 1_555 1_555
H4 C8 1_555 1_555
H5 C8 1_555 1_555
C9 C8 1_555 1_555
C10 C9 1_555 1_555
H6 C10 1_555 1_555
C11 C10 1_555 1_555
C12 C11 1_555 1_555
C13 C12 1_555 1_555
H7 C13 1_555 1_555
C14 C9 1_555 1_555
C15 C12 1_555 1_555
H8 C15 1_555 1_555
H9 C15 1_555 1_555
C16 C15 1_555 1_555
C17 C16 1_555 1_555
C18 C16 1_555 1_555
H10 C18 1_555 1_555
C19 H11 1_555 1_555
H12 C19 1_555 1_555
H13 C19 1_555 1_555
C20 H14 1_555 1_555
H15 C20 1_555 1_555
H16 C20 1_555 1_555
C21 H17 1_555 1_555
H18 C21 1_555 1_555
H19 C21 1_555 1_555
C22 H20 1_555 1_555
H21 C22 1_555 1_555
H22 C22 1_555 1_555
C23 H23 1_555 1_555
H24 C23 1_555 1_555
H25 C23 1_555 1_555
O1 C4 1_555 1_555
O2 C7 1_555 1_555
O3 C11 1_555 1_555
O4 C14 1_555 1_555
O5 C17 1_555 1_555
H1E C1 1_555 1_555
C2E C1 1_555 1_555
C3E C2E 1_555 1_555
H2E C3E 1_555 1_555
C4E C3E 1_555 1_555
C5E C4E 1_555 1_555
C6E C5E 1_555 1_555
H3E C6E 1_555 1_555
C7E C2E 1_555 1_555
C8E C5E 1_555 1_555
H4E C8E 1_555 1_555
H5E C8E 1_555 1_555
C9E C8E 1_555 1_555
C10E C9E 1_555 1_555
H6E C10E 1_555 1_555
C11E C10E 1_555 1_555
C12E C11E 1_555 1_555
C13E C12E 1_555 1_555
H7E C13E 1_555 1_555
C14E C9E 1_555 1_555
C15E C12E 1_555 1_555
H8E C15E 1_555 1_555
H9E C15E 1_555 1_555
C16E C15E 1_555 1_555
C17E C18 1_555 1_555
C18E C17 1_555 1_555
H10E C18E 1_555 1_555
C19E H11E 1_555 1_555
H12E C19E 1_555 1_555
H13E C19E 1_555 1_555
C20E H14E 1_555 1_555
H15E C20E 1_555 1_555
H16E C20E 1_555 1_555
C21E H17E 1_555 1_555
H18E C21E 1_555 1_555
H19E C21E 1_555 1_555
C22E H20E 1_555 1_555
H21E C22E 1_555 1_555
H22E C22E 1_555 1_555
C23E H23E 1_555 1_555
H24E C23E 1_555 1_555
H25E C23E 1_555 1_555
O1E C4E 1_555 1_555
O2E C7E 1_555 1_555
O3E C11E 1_555 1_555
O4E C14E 1_555 1_555
O5E C17E 1_555 1_555
C6 C7 1_555 1_555
C13 C14 1_555 1_555
C19 O1 1_555 1_555
C20 O2 1_555 1_555
C21 O3 1_555 1_555
C22 O4 1_555 1_555
C23 O5 1_555 1_555
C6E C7E 1_555 1_555
C13E C14E 1_555 1_555
C16E C17E 1_555 1_555
C16E C18E 1_555 1_555
C19E O1E 1_555 1_555
C20E O2E 1_555 1_555
C21E O3E 1_555 1_555
C22E O4E 1_555 1_555
C23E O5E 1_555 1_555

#END
