
#######################################################################
#
#                 Cambridge Crystallographic Data Centre
#                                CCDC 
#
#######################################################################
#
# If this CIF has been generated from an entry in the Cambridge 
# Structural Database, then it will include bibliographic, chemical, 
# crystal, experimental, refinement or atomic coordinate data resulting 
# from the CCDC's data processing and validation procedures.
#
#######################################################################

data_FIWSAI
_chemical_formula_moiety         'C17 H21 Br1 N3 O4 P1'
_chemical_name_systematic        
'dimethyl (4-(3-bromophenyl)-5-cyano-5-(2,2-dimethylpropanoyl)-4,5-dihydro-1H-pyrazol-3-yl)phosphonate'
_symmetry_cell_setting           orthorhombic
_symmetry_space_group_name_H-M   'P 21 21 21'
_symmetry_Int_Tables_number      19
_space_group_name_Hall           'P 2ac 2ab'
loop_
_symmetry_equiv_pos_site_id
_symmetry_equiv_pos_as_xyz
1 x,y,z
2 1/2-x,-y,1/2+z
3 1/2+x,1/2-y,-z
4 -x,1/2+y,1/2-z
_cell_length_a                   7.2078(2)
_cell_length_b                   13.6652(5)
_cell_length_c                   19.4644(5)
_cell_angle_alpha                90
_cell_angle_beta                 90
_cell_angle_gamma                90
_cell_volume                     1917.17
_exptl_crystal_colour            colorless
_exptl_crystal_description       block
_cell_formula_units_Z            4
loop_
_atom_site_label
_atom_site_type_symbol
_atom_site_fract_x
_atom_site_fract_y
_atom_site_fract_z
Br1 Br 0.52028(13) 0.58758(7) 0.33675(4)
C1 C 0.4263(11) 0.6240(6) 0.4243(4)
C2 C 0.4266(11) 0.5570(5) 0.4763(3)
H1 H 0.4747 0.4947 0.4689
C3 C 0.3545(10) 0.5821(6) 0.5405(4)
C4 C 0.2859(11) 0.6781(6) 0.5502(4)
H2 H 0.2369 0.6962 0.5925
C5 C 0.2913(11) 0.7448(6) 0.4971(4)
H3 H 0.2486 0.8082 0.5044
C6 C 0.3589(11) 0.7191(6) 0.4334(4)
H4 H 0.3597 0.7638 0.3974
C7 C 0.3358(10) 0.5066(5) 0.5966(4)
H5 H 0.4279 0.4547 0.5900
C8 C 0.1372(11) 0.4610(5) 0.6023(4)
C9 C 0.3544(10) 0.5498(5) 0.6680(4)
C10 C 0.5049(13) 0.5267(7) 0.8341(4)
H6 H 0.3740 0.5215 0.8258
H7 H 0.5311 0.5878 0.8564
H8 H 0.5443 0.4737 0.8630
C11 C 0.5057(14) 0.7830(6) 0.7104(4)
H9 H 0.5581 0.7767 0.6652
H10 H 0.5732 0.8316 0.7357
H11 H 0.3781 0.8024 0.7067
C12 C 0.0176(11) 0.4827(6) 0.5436(4)
C13 C 0.1500(11) 0.3466(6) 0.6165(4)
C14 C -0.0238(11) 0.2817(5) 0.6193(4)
C15 C -0.0389(15) 0.2349(7) 0.5480(5)
H12 H -0.0554 0.2851 0.5141
H13 H -0.1432 0.1912 0.5470
H14 H 0.0725 0.1990 0.5383
C16 C -0.2034(12) 0.3367(7) 0.6373(5)
H15 H -0.1919 0.3652 0.6821
H16 H -0.3058 0.2917 0.6369
H17 H -0.2246 0.3873 0.6040
C17 C 0.0109(15) 0.2018(7) 0.6733(5)
H18 H -0.0988 0.1626 0.6784
H19 H 0.0410 0.2317 0.7165
H20 H 0.1122 0.1611 0.6588
N1 N -0.0745(12) 0.4992(6) 0.4978(3)
N2 N 0.0639(9) 0.5027(5) 0.6672(3)
H21 H -0.0486 0.4964 0.6812
N3 N 0.1996(10) 0.5525(5) 0.7017(3)
O1 O 0.7149(8) 0.5938(4) 0.6573(3)
O2 O 0.5173(9) 0.6909(4) 0.7454(3)
O3 O 0.6044(8) 0.5222(4) 0.7688(3)
O4 O 0.3022(9) 0.3120(4) 0.6241(4)
P1 P 0.5627(2) 0.59223(14) 0.70768(8)
loop_
_geom_bond_atom_site_label_1
_geom_bond_atom_site_label_2
_geom_bond_site_symmetry_1
_geom_bond_site_symmetry_2
Br1 C1 1_555 1_555
C1 C2 1_555 1_555
C2 H1 1_555 1_555
C3 C2 1_555 1_555
C4 C3 1_555 1_555
H2 C4 1_555 1_555
C5 C4 1_555 1_555
H3 C5 1_555 1_555
C6 C1 1_555 1_555
H4 C6 1_555 1_555
C7 C3 1_555 1_555
H5 C7 1_555 1_555
C8 C7 1_555 1_555
C9 C7 1_555 1_555
C10 H6 1_555 1_555
H7 C10 1_555 1_555
H8 C10 1_555 1_555
C11 H9 1_555 1_555
H10 C11 1_555 1_555
H11 C11 1_555 1_555
C12 C8 1_555 1_555
C13 C8 1_555 1_555
C14 C13 1_555 1_555
C15 C14 1_555 1_555
H12 C15 1_555 1_555
H13 C15 1_555 1_555
H14 C15 1_555 1_555
C16 C14 1_555 1_555
H15 C16 1_555 1_555
H16 C16 1_555 1_555
H17 C16 1_555 1_555
C17 C14 1_555 1_555
H18 C17 1_555 1_555
H19 C17 1_555 1_555
H20 C17 1_555 1_555
N1 C12 1_555 1_555
N2 C8 1_555 1_555
H21 N2 1_555 1_555
N3 C9 1_555 1_555
O1 P1 1_555 1_555
O2 C11 1_555 1_555
O3 C10 1_555 1_555
O4 C13 1_555 1_555
P1 C9 1_555 1_555
C5 C6 1_555 1_555
N2 N3 1_555 1_555
O2 P1 1_555 1_555
O3 P1 1_555 1_555

#END
