
#######################################################################
#
#                 Cambridge Crystallographic Data Centre
#                                CCDC 
#
#######################################################################
#
# If this CIF has been generated from an entry in the Cambridge 
# Structural Database, then it will include bibliographic, chemical, 
# crystal, experimental, refinement or atomic coordinate data resulting 
# from the CCDC's data processing and validation procedures.
#
#######################################################################

data_FIWYAO
_chemical_formula_moiety         'C51 H48 N4 O7,C1 H2 Cl2'
_chemical_name_systematic        
'[4-(11,12,14,15,17,18,20,21,33,34,36,37-dodecahydro-5H,27H,35H-1,23:9,31-dimethanotetrabenzo[n,q,z,c~1~][1,4,7,10,13,19,25,22]heptaoxazacyclotriacontin-35-yl)phenyl]-ethene-1,1,2-tricarbonitrile dichloromethane solvate'
_symmetry_cell_setting           monoclinic
_symmetry_space_group_name_H-M   'P 21/n'
_symmetry_Int_Tables_number      14
_space_group_name_Hall           '-P 2yn'
loop_
_symmetry_equiv_pos_site_id
_symmetry_equiv_pos_as_xyz
1 x,y,z
2 1/2-x,1/2+y,1/2-z
3 -x,-y,-z
4 1/2+x,1/2-y,1/2+z
_cell_length_a                   13.702(3)
_cell_length_b                   11.349(2)
_cell_length_c                   28.538(6)
_cell_angle_alpha                90
_cell_angle_beta                 92.999(5)
_cell_angle_gamma                90
_cell_volume                     4431.7
_exptl_crystal_colour            brown
_exptl_crystal_description       rod
_cell_formula_units_Z            4
_exptl_crystal_recrystallization_method dichloromethane/hexane
loop_
_atom_site_label
_atom_site_type_symbol
_atom_site_fract_x
_atom_site_fract_y
_atom_site_fract_z
O1 O 0.48433(15) 0.88386(18) 0.59186(7)
C1 C 0.4540(3) 1.0024(3) 0.59431(17)
H1 H 0.473168 1.044717 0.565901
H2 H 0.487356 1.040464 0.621933
C2 C 0.3478(2) 1.0116(3) 0.59798(13)
H3 H 0.313920 0.993538 0.567324
H4 H 0.325545 0.954656 0.621429
O2 O 0.32579(15) 1.1271(2) 0.61171(8)
C3 C 0.2253(2) 1.1481(3) 0.61839(12)
H5 H 0.186147 1.082751 0.604179
H6 H 0.205065 1.221792 0.602063
C4 C 0.2046(3) 1.1583(3) 0.66927(13)
H7 H 0.249526 1.217130 0.684260
H8 H 0.137001 1.187194 0.671953
O3 O 0.21570(16) 1.0492(2) 0.69382(8)
C5 C 0.3041(2) 1.0355(3) 0.72114(12)
H9 H 0.314182 1.103893 0.742378
H10 H 0.359717 1.031509 0.700428
C6 C 0.2991(3) 0.9252(3) 0.74911(12)
H11 H 0.360848 0.916718 0.768412
H12 H 0.245433 0.932876 0.770841
O4 O 0.28367(15) 0.8206(2) 0.72218(8)
C7 C 0.3642(2) 0.7856(3) 0.69579(12)
H13 H 0.418948 0.841749 0.701204
H14 H 0.344795 0.785831 0.661891
C8 C 0.3964(2) 0.6637(3) 0.71071(11)
H15 H 0.422500 0.663818 0.743731
H16 H 0.341166 0.607599 0.707593
O5 O 0.47082(14) 0.63263(17) 0.67990(7)
C9 C 0.5168(2) 0.5262(3) 0.68895(11)
C10 C 0.5995(2) 0.5230(3) 0.71971(11)
C11 C 0.6485(2) 0.4168(3) 0.72554(12)
H17 H 0.704841 0.412996 0.746347
C12 C 0.6175(3) 0.3167(3) 0.70188(13)
H18 H 0.652466 0.244907 0.706233
C13 C 0.5350(3) 0.3215(3) 0.67164(12)
H19 H 0.513104 0.252020 0.655775
C14 C 0.4838(2) 0.4258(3) 0.66415(11)
C15 C 0.3929(2) 0.4231(3) 0.63127(12)
H20 H 0.400438 0.357074 0.609100
H21 H 0.336773 0.403617 0.650334
C16 C 0.3653(2) 0.5309(3) 0.60265(11)
C17 C 0.2755(2) 0.5848(3) 0.60848(12)
H22 H 0.232445 0.553066 0.630289
C18 C 0.2481(2) 0.6841(3) 0.58281(13)
H23 H 0.186598 0.720249 0.586805
C19 C 0.3106(2) 0.7296(3) 0.55168(12)
H24 H 0.291156 0.797981 0.534397
C20 C 0.4012(2) 0.6802(3) 0.54421(11)
C21 C 0.4262(2) 0.5775(3) 0.56946(11)
C22 C 0.4635(2) 0.7392(3) 0.50822(12)
H25 H 0.481295 0.678155 0.485417
H26 H 0.421683 0.797356 0.490817
C23 C 0.5566(2) 0.8016(3) 0.52496(11)
C24 C 0.6381(3) 0.7916(3) 0.49817(12)
H27 H 0.631938 0.751756 0.468884
C25 C 0.7273(3) 0.8375(3) 0.51283(13)
H28 H 0.781211 0.832802 0.493324
C26 C 0.7373(2) 0.8907(3) 0.55636(12)
H29 H 0.799809 0.918470 0.567360
C27 C 0.6584(2) 0.9045(3) 0.58440(11)
C28 C 0.5666(2) 0.8654(3) 0.56683(11)
C29 C 0.6756(2) 0.9639(3) 0.63151(11)
H30 H 0.647900 1.044262 0.628491
H31 H 0.747179 0.973149 0.636870
C30 C 0.6379(2) 0.9109(3) 0.67575(11)
C31 C 0.5974(2) 0.9863(3) 0.70836(12)
H32 H 0.587314 1.066635 0.700125
C32 C 0.5719(2) 0.9489(3) 0.75157(12)
H33 H 0.545425 1.002849 0.772989
C33 C 0.5848(2) 0.8328(3) 0.76368(11)
H34 H 0.567962 0.806936 0.793866
C34 C 0.6221(2) 0.7523(3) 0.73269(10)
C35 C 0.6484(2) 0.7930(3) 0.68874(10)
C36 C 0.6384(2) 0.6270(3) 0.74840(11)
H35 H 0.611514 0.619968 0.779808
H36 H 0.709973 0.615904 0.752866
O6 O 0.68096(14) 0.71007(18) 0.65733(7)
C37 C 0.7835(2) 0.6905(3) 0.65861(12)
H37 H 0.811706 0.702400 0.690905
H38 H 0.814652 0.747182 0.637656
C38 C 0.8027(2) 0.5656(3) 0.64274(10)
H39 H 0.873586 0.549893 0.647623
H40 H 0.768337 0.511117 0.663383
O7 O 0.50936(15) 0.5116(2) 0.56247(8)
C39 C 0.6018(2) 0.5671(3) 0.57037(12)
H41 H 0.597538 0.627658 0.595153
H42 H 0.620390 0.606875 0.541266
C40 C 0.6792(2) 0.4773(3) 0.58519(12)
H43 H 0.660371 0.436594 0.614037
H44 H 0.684668 0.417613 0.560179
N1 N 0.77344(16) 0.5368(2) 0.59395(9)
C41 C 0.8290(2) 0.5708(3) 0.55829(11)
C42 C 0.8062(2) 0.5400(3) 0.51092(11)
H45 H 0.749996 0.493443 0.503321
C43 C 0.8635(2) 0.5758(3) 0.47610(11)
H46 H 0.846697 0.552081 0.444783
C44 C 0.9465(2) 0.6468(3) 0.48481(11)
C45 C 0.9705(2) 0.6758(3) 0.53215(12)
H47 H 1.026732 0.722454 0.539582
C46 C 0.9146(2) 0.6382(3) 0.56743(11)
H48 H 0.933765 0.657866 0.598942
C47 C 1.0029(2) 0.6855(3) 0.44635(13)
C48 C 1.0719(3) 0.7676(4) 0.44522(15)
C49 C 0.9802(3) 0.6254(3) 0.39965(14)
N2 N 0.9600(2) 0.5804(3) 0.36530(11)
C50 C 1.0944(3) 0.8462(4) 0.48242(14)
N3 N 1.1150(3) 0.9158(4) 0.51017(14)
C51 C 1.1282(3) 0.7804(4) 0.40333(15)
N4 N 1.1761(3) 0.7938(3) 0.37277(12)
C52 C 1.0527(3) 0.8561(4) 0.69144(15)
H49 H 1.024202 0.871798 0.721997
H50 H 1.121211 0.884192 0.693487
Cl1 Cl 1.05144(7) 0.70456(9) 0.68090(4)
Cl2 Cl 0.98752(10) 0.93430(12) 0.64778(6)
loop_
_geom_bond_atom_site_label_1
_geom_bond_atom_site_label_2
_geom_bond_site_symmetry_1
_geom_bond_site_symmetry_2
O1 C1 1_555 1_555
C1 H1 1_555 1_555
H2 C1 1_555 1_555
C2 C1 1_555 1_555
H3 C2 1_555 1_555
H4 C2 1_555 1_555
O2 C2 1_555 1_555
C3 O2 1_555 1_555
H5 C3 1_555 1_555
H6 C3 1_555 1_555
C4 C3 1_555 1_555
H7 C4 1_555 1_555
H8 C4 1_555 1_555
O3 C4 1_555 1_555
C5 O3 1_555 1_555
H9 C5 1_555 1_555
H10 C5 1_555 1_555
C6 C5 1_555 1_555
H11 C6 1_555 1_555
H12 C6 1_555 1_555
O4 C6 1_555 1_555
C7 O4 1_555 1_555
H13 C7 1_555 1_555
H14 C7 1_555 1_555
C8 C7 1_555 1_555
H15 C8 1_555 1_555
H16 C8 1_555 1_555
O5 C8 1_555 1_555
C9 O5 1_555 1_555
C10 C9 1_555 1_555
C11 C10 1_555 1_555
H17 C11 1_555 1_555
C12 C11 1_555 1_555
H18 C12 1_555 1_555
C13 C12 1_555 1_555
H19 C13 1_555 1_555
C14 C9 1_555 1_555
C15 C14 1_555 1_555
H20 C15 1_555 1_555
H21 C15 1_555 1_555
C16 C15 1_555 1_555
C17 C16 1_555 1_555
H22 C17 1_555 1_555
C18 C17 1_555 1_555
H23 C18 1_555 1_555
C19 C18 1_555 1_555
H24 C19 1_555 1_555
C20 C19 1_555 1_555
C21 C16 1_555 1_555
C22 C20 1_555 1_555
H25 C22 1_555 1_555
H26 C22 1_555 1_555
C23 C22 1_555 1_555
C24 C23 1_555 1_555
H27 C24 1_555 1_555
C25 C24 1_555 1_555
H28 C25 1_555 1_555
C26 C25 1_555 1_555
H29 C26 1_555 1_555
C27 C26 1_555 1_555
C28 O1 1_555 1_555
C29 C27 1_555 1_555
H30 C29 1_555 1_555
H31 C29 1_555 1_555
C30 C29 1_555 1_555
C31 C30 1_555 1_555
H32 C31 1_555 1_555
C32 C31 1_555 1_555
H33 C32 1_555 1_555
C33 C32 1_555 1_555
H34 C33 1_555 1_555
C34 C33 1_555 1_555
C35 C30 1_555 1_555
C36 C10 1_555 1_555
H35 C36 1_555 1_555
H36 C36 1_555 1_555
O6 C35 1_555 1_555
C37 O6 1_555 1_555
H37 C37 1_555 1_555
H38 C37 1_555 1_555
C38 C37 1_555 1_555
H39 C38 1_555 1_555
H40 C38 1_555 1_555
O7 C21 1_555 1_555
C39 O7 1_555 1_555
H41 C39 1_555 1_555
H42 C39 1_555 1_555
C40 C39 1_555 1_555
H43 C40 1_555 1_555
H44 C40 1_555 1_555
N1 C38 1_555 1_555
C41 N1 1_555 1_555
C42 C41 1_555 1_555
H45 C42 1_555 1_555
C43 C42 1_555 1_555
H46 C43 1_555 1_555
C44 C43 1_555 1_555
C45 C44 1_555 1_555
H47 C45 1_555 1_555
C46 C41 1_555 1_555
H48 C46 1_555 1_555
C47 C44 1_555 1_555
C48 C47 1_555 1_555
C49 C47 1_555 1_555
N2 C49 1_555 1_555
C50 C48 1_555 1_555
N3 C50 1_555 1_555
C51 C48 1_555 1_555
N4 C51 1_555 1_555
C52 H49 1_555 1_555
H50 C52 1_555 1_555
Cl1 C52 1_555 1_555
Cl2 C52 1_555 1_555
C13 C14 1_555 1_555
C20 C21 1_555 1_555
C23 C28 1_555 1_555
C27 C28 1_555 1_555
C34 C35 1_555 1_555
C34 C36 1_555 1_555
C40 N1 1_555 1_555
C45 C46 1_555 1_555

#END
