
#######################################################################
#
#                 Cambridge Crystallographic Data Centre
#                                CCDC 
#
#######################################################################
#
# If this CIF has been generated from an entry in the Cambridge 
# Structural Database, then it will include bibliographic, chemical, 
# crystal, experimental, refinement or atomic coordinate data resulting 
# from the CCDC's data processing and validation procedures.
#
#######################################################################

data_FIWZOB01
_chemical_formula_moiety         'C11 H15 N1 O5'
_chemical_name_systematic        
2,2-Dimethylhexahydro-3bH-(1,3)dioxolo(4,5-c)(1,3)oxazolo(3,4-a)oxireno(e)azepin-7-one
_symmetry_cell_setting           orthorhombic
_symmetry_space_group_name_H-M   'P 21 21 21'
_symmetry_Int_Tables_number      19
_space_group_name_Hall           'P 2ac 2ab'
loop_
_symmetry_equiv_pos_site_id
_symmetry_equiv_pos_as_xyz
1 x,y,z
2 1/2+x,1/2-y,-z
3 -x,1/2+y,1/2-z
4 1/2-x,-y,1/2+z
_cell_length_a                   6.0153(5)
_cell_length_b                   12.4888(9)
_cell_length_c                   15.2629(10)
_cell_angle_alpha                90
_cell_angle_beta                 90
_cell_angle_gamma                90
_cell_volume                     1146.61
_exptl_crystal_colour            colorless
_exptl_crystal_description       parallelepiped
_chemical_melting_point          175-176deg.C
_cell_formula_units_Z            4
loop_
_atom_site_label
_atom_site_type_symbol
_atom_site_fract_x
_atom_site_fract_y
_atom_site_fract_z
O1 O 0.4522(6) 0.2819(2) 0.5947(2)
O2 O 0.3973(6) 0.0473(2) 0.52182(14)
O3 O 0.5496(5) -0.0355(2) 0.64158(14)
O4 O 0.0027(5) 0.0249(2) 0.78801(19)
O5 O -0.1290(5) 0.1923(2) 0.7892(2)
N1 N 0.2439(5) 0.1572(2) 0.77652(19)
C1 C 0.2638(8) 0.2903(3) 0.6531(3)
C2 C 0.2665(8) 0.2123(3) 0.5829(2)
C3 C 0.3020(6) 0.0950(3) 0.5984(2)
C4 C 0.4730(5) 0.0673(2) 0.66798(19)
C5 C 0.3823(6) 0.0634(3) 0.76130(19)
C6 C 0.2186(7) -0.0255(3) 0.7814(3)
C7 C 0.3076(7) 0.2654(3) 0.7482(3)
C8 C 0.0271(7) 0.1327(3) 0.7841(2)
C9 C 0.5242(6) -0.0431(3) 0.5482(2)
C10 C 0.4018(9) -0.1463(4) 0.5293(3)
C11 C 0.7473(7) -0.0370(3) 0.5043(3)
H1 H 0.1657 0.3537 0.6426
H2 H 0.1693 0.2301 0.5318
H3 H 0.1570 0.0597 0.6125
H4 H 0.5989 0.1196 0.6650
H5 H 0.5077 0.0619 0.8043
H6 H 0.2581 -0.0611 0.8381
H7 H 0.2189 -0.0798 0.7333
H8 H 0.2226 0.3180 0.7846
H9 H 0.4703 0.2744 0.7593
H10 H 0.3814 -0.1543 0.4647
H11 H 0.4907 -0.2081 0.5522
H12 H 0.2536 -0.1449 0.5588
H13 H 0.7275 -0.0424 0.4393
H14 H 0.8428 -0.0974 0.5251
H15 H 0.8198 0.0327 0.5190
loop_
_geom_bond_atom_site_label_1
_geom_bond_atom_site_label_2
_geom_bond_site_symmetry_1
_geom_bond_site_symmetry_2
O1 C1 1_555 1_555
O2 C3 1_555 1_555
O3 C4 1_555 1_555
O4 C6 1_555 1_555
O5 C8 1_555 1_555
N1 C5 1_555 1_555
C1 C2 1_555 1_555
C2 O1 1_555 1_555
C3 C2 1_555 1_555
C4 C3 1_555 1_555
C5 C4 1_555 1_555
C6 C5 1_555 1_555
C7 N1 1_555 1_555
C8 O4 1_555 1_555
C9 O2 1_555 1_555
C10 C9 1_555 1_555
C11 C9 1_555 1_555
H1 C1 1_555 1_555
H2 C2 1_555 1_555
H3 C3 1_555 1_555
H4 C4 1_555 1_555
H5 C5 1_555 1_555
H6 C6 1_555 1_555
H7 C6 1_555 1_555
H8 C7 1_555 1_555
H9 C7 1_555 1_555
H10 C10 1_555 1_555
H11 C10 1_555 1_555
H12 C10 1_555 1_555
H13 C11 1_555 1_555
H14 C11 1_555 1_555
H15 C11 1_555 1_555
O3 C9 1_555 1_555
N1 C8 1_555 1_555
C1 C7 1_555 1_555

#END
