
#######################################################################
#
#                 Cambridge Crystallographic Data Centre
#                                CCDC 
#
#######################################################################
#
# If this CIF has been generated from an entry in the Cambridge 
# Structural Database, then it will include bibliographic, chemical, 
# crystal, experimental, refinement or atomic coordinate data resulting 
# from the CCDC's data processing and validation procedures.
#
#######################################################################

data_FIXCIY10
_chemical_formula_moiety         'C30 H20 N6 O2'
_chemical_name_systematic        
2-(N-(p-(Dimethylamino)phenyl)carbamoyloxymethyl)-11,11,12,12-tetracyanoanthraquinodimethane
_symmetry_cell_setting           triclinic
_symmetry_space_group_name_H-M   'P -1'
_symmetry_Int_Tables_number      2
_space_group_name_Hall           '-P 1'
loop_
_symmetry_equiv_pos_site_id
_symmetry_equiv_pos_as_xyz
1 x,y,z
2 -x,-y,-z
_cell_length_a                   8.748(4)
_cell_length_b                   10.989(3)
_cell_length_c                   13.541(8)
_cell_angle_alpha                90.67(4)
_cell_angle_beta                 99.15(4)
_cell_angle_gamma                98.62(4)
_cell_volume                     1269.8
_exptl_crystal_colour            black
_cell_formula_units_Z            2
loop_
_atom_site_label
_atom_site_type_symbol
_atom_site_fract_x
_atom_site_fract_y
_atom_site_fract_z
C1 C 0.858(2) -0.091(1) 0.575(1)
C2 C 0.958(2) -0.067(1) 0.665(1)
C3 C 0.938(1) 0.022(1) 0.731(1)
C4 C 1.047(1) 0.057(1) 0.827(1)
C5 C 1.068(1) 0.188(1) 0.858(1)
C6 C 1.206(1) 0.245(1) 0.906(1)
C7 C 1.227(2) 0.370(1) 0.936(1)
C8 C 1.102(2) 0.433(1) 0.911(1)
C9 C 0.958(1) 0.372(1) 0.860(1)
C10 C 0.941(1) 0.251(1) 0.835(1)
C11 C 0.794(1) 0.185(1) 0.782(1)
C12 C 0.809(1) 0.089(1) 0.709(1)
C13 C 0.709(2) 0.063(1) 0.619(1)
C14 C 0.735(2) -0.027(1) 0.552(1)
C15 C 0.654(1) 0.204(1) 0.802(1)
C16 C 0.634(2) 0.287(1) 0.877(1)
N1 N 0.612(1) 0.349(1) 0.942(1)
C17 C 0.508(2) 0.130(1) 0.756(1)
N2 N 0.391(2) 0.075(1) 0.724(1)
C18 C 1.113(2) -0.028(1) 0.886(1)
C19 C 1.209(2) -0.002(1) 0.978(1)
N3 N 1.283(2) 0.015(1) 1.055(1)
C20 C 1.074(2) -0.162(1) 0.862(1)
N4 N 1.044(2) -0.266(1) 0.848(1)
C21 C 0.866(2) -0.192(1) 0.498(1)
O1 O 1.020(1) -0.227(1) 0.523(1)
C22 C 1.043(2) -0.312(1) 0.452(1)
O2 O 0.949(1) -0.355(1) 0.384(1)
N5 N 1.198(2) -0.334(1) 0.480(1)
C23 C 1.268(2) -0.411(1) 0.423(1)
C24 C 1.188(2) -0.514(1) 0.370(1)
C25 C 1.272(2) -0.588(1) 0.321(1)
C26 C 1.432(2) -0.556(1) 0.322(1)
C27 C 1.511(2) -0.451(1) 0.374(1)
C28 C 1.431(2) -0.377(1) 0.423(1)
N6 N 1.513(2) -0.637(1) 0.272(1)
C29 C 1.665(2) -0.579(2) 0.246(2)
C30 C 1.414(3) -0.731(3) 0.200(2)
H1 H 1.053(2) -0.117(1) 0.681(1)
H2 H 1.303(2) 0.194(1) 0.922(1)
H3 H 1.336(2) 0.416(1) 0.976(1)
H4 H 1.116(2) 0.529(1) 0.930(1)
H5 H 0.861(1) 0.424(1) 0.842(1)
H6 H 0.612(2) 0.114(1) 0.600(1)
H7 H 0.656(2) -0.046(1) 0.482(1)
H8 H 0.848(2) -0.157(1) 0.424(1)
H9 H 0.777(2) -0.271(1) 0.503(1)
H10 H 1.246(2) -0.287(1) 0.5447(9)
H11 H 1.062(2) -0.538(1) 0.365(1)
H12 H 1.211(2) -0.671(1) 0.281(1)
H13 H 1.635(2) -0.426(1) 0.375(1)
H14 H 1.494(2) -0.294(1) 0.462(1)
H15 H 1.723(2) -0.510(2) 0.302(2)
H16 H 1.645(2) -0.535(2) 0.175(2)
H17 H 1.737(2) -0.648(2) 0.240(2)
H18 H 1.491(3) -0.785(3) 0.169(2)
H19 H 1.347(3) -0.688(3) 0.139(2)
H20 H 1.335(3) -0.791(3) 0.237(2)
loop_
_geom_bond_atom_site_label_1
_geom_bond_atom_site_label_2
_geom_bond_site_symmetry_1
_geom_bond_site_symmetry_2
C1 C2 1_555 1_555
C2 C3 1_555 1_555
C3 C4 1_555 1_555
C4 C5 1_555 1_555
C5 C6 1_555 1_555
C6 C7 1_555 1_555
C7 C8 1_555 1_555
C8 C9 1_555 1_555
C9 C10 1_555 1_555
C10 C5 1_555 1_555
C11 C10 1_555 1_555
C12 C3 1_555 1_555
C13 C12 1_555 1_555
C14 C1 1_555 1_555
C15 C11 1_555 1_555
C16 C15 1_555 1_555
N1 C16 1_555 1_555
C17 C15 1_555 1_555
N2 C17 1_555 1_555
C18 C4 1_555 1_555
C19 C18 1_555 1_555
N3 C19 1_555 1_555
C20 C18 1_555 1_555
N4 C20 1_555 1_555
C21 C1 1_555 1_555
O1 C21 1_555 1_555
C22 O1 1_555 1_555
O2 C22 1_555 1_555
N5 C22 1_555 1_555
C23 N5 1_555 1_555
C24 C23 1_555 1_555
C25 C24 1_555 1_555
C26 C25 1_555 1_555
C27 C26 1_555 1_555
C28 C23 1_555 1_555
N6 C26 1_555 1_555
C29 N6 1_555 1_555
C30 N6 1_555 1_555
H1 C2 1_555 1_555
H2 C6 1_555 1_555
H3 C7 1_555 1_555
H4 C8 1_555 1_555
H5 C9 1_555 1_555
H6 C13 1_555 1_555
H7 C14 1_555 1_555
H8 C21 1_555 1_555
H9 C21 1_555 1_555
H10 N5 1_555 1_555
H11 C24 1_555 1_555
H12 C25 1_555 1_555
H13 C27 1_555 1_555
H14 C28 1_555 1_555
H15 C29 1_555 1_555
H16 C29 1_555 1_555
H17 C29 1_555 1_555
H18 C30 1_555 1_555
H19 C30 1_555 1_555
H20 C30 1_555 1_555
C11 C12 1_555 1_555
C13 C14 1_555 1_555
C27 C28 1_555 1_555

#END
