
#######################################################################
#
#                 Cambridge Crystallographic Data Centre
#                                CCDC 
#
#######################################################################
#
# If this CIF has been generated from an entry in the Cambridge 
# Structural Database, then it will include bibliographic, chemical, 
# crystal, experimental, refinement or atomic coordinate data resulting 
# from the CCDC's data processing and validation procedures.
#
#######################################################################

data_FIXCEV
_chemical_compound_source        'microfungus Xylaria sp. (FRR 5657)'
_chemical_formula_moiety         'C8 H8 Cl1 N1 O2'
_chemical_name_systematic        (3-Chloro-4-hydroxyphenyl)acetamide
_chemical_properties_biological  
'no cytotoxicity against SHS5Y (human neuroblastoma), HEK293T (SV40T antigen transformed human embryonal kidney cells) and A549 (human non-small cell lung carcinoma) cell lines'
_symmetry_cell_setting           triclinic
_symmetry_space_group_name_H-M   'P -1'
_symmetry_Int_Tables_number      2
_space_group_name_Hall           '-P 1'
loop_
_symmetry_equiv_pos_site_id
_symmetry_equiv_pos_as_xyz
1 x,y,z
2 -x,-y,-z
_cell_length_a                   5.985(2)
_cell_length_b                   7.590(3)
_cell_length_c                   9.395(3)
_cell_angle_alpha                106.0(3)
_cell_angle_beta                 93.18(3)
_cell_angle_gamma                93.47(3)
_cell_volume                     408.334
_exptl_crystal_colour            colorless
_exptl_crystal_description       prismatic
_chemical_melting_point          '160-162 deg.C'
_cell_formula_units_Z            2
loop_
_atom_site_label
_atom_site_type_symbol
_atom_site_fract_x
_atom_site_fract_y
_atom_site_fract_z
Cl1 Cl 0.37688(8) 0.43018(7) 0.74180(5)
O1 O -0.0496(2) 0.25768(19) 0.78993(13)
O2 O 0.3226(2) 0.01368(18) 0.15791(14)
N1 N 0.3224(3) 0.1925(2) 0.00473(18)
C1 C 0.0254(3) 0.2415(2) 0.34766(18)
C2 C 0.1940(3) 0.3226(2) 0.45797(18)
C3 C 0.1652(3) 0.3262(2) 0.60444(18)
C4 C -0.0299(3) 0.2489(2) 0.64408(18)
C5 C -0.1974(3) 0.1687(2) 0.53363(19)
C6 C -0.1703(3) 0.1652(2) 0.38703(19)
C7 C 0.0530(3) 0.2443(3) 0.18927(18)
C8 C 0.2442(3) 0.1404(2) 0.11682(17)
H1 H 0.32910 0.37560 0.43330
H2 H -0.15360 0.16910 0.79530
H3 H -0.33230 0.11540 0.55830
H4 H -0.28720 0.10990 0.31260
H5 H -0.08250 0.19170 0.13170
H6 H 0.07810 0.36880 0.18860
H7 H 0.26630 0.27990 -0.02180
H8 H 0.42900 0.13880 -0.04120
loop_
_geom_bond_atom_site_label_1
_geom_bond_atom_site_label_2
_geom_bond_site_symmetry_1
_geom_bond_site_symmetry_2
Cl1 C3 1_555 1_555
O1 C4 1_555 1_555
O2 C8 1_555 1_555
N1 C8 1_555 1_555
C1 C2 1_555 1_555
C2 C3 1_555 1_555
C3 C4 1_555 1_555
C4 C5 1_555 1_555
C5 C6 1_555 1_555
C6 C1 1_555 1_555
C7 C1 1_555 1_555
C8 C7 1_555 1_555
H1 C2 1_555 1_555
H2 O1 1_555 1_555
H3 C5 1_555 1_555
H4 C6 1_555 1_555
H5 C7 1_555 1_555
H6 C7 1_555 1_555
H7 N1 1_555 1_555
H8 N1 1_555 1_555

#END
