
#######################################################################
#
#                 Cambridge Crystallographic Data Centre
#                                CCDC 
#
#######################################################################
#
# If this CIF has been generated from an entry in the Cambridge 
# Structural Database, then it will include bibliographic, chemical, 
# crystal, experimental, refinement or atomic coordinate data resulting 
# from the CCDC's data processing and validation procedures.
#
#######################################################################

data_FIXFID
_chemical_formula_moiety         'C10 H7 N2 P1 S2'
_chemical_name_systematic        3,5-bis(2-thienyl)-1H-1,2,4-diazaphosphole
_symmetry_cell_setting           monoclinic
_symmetry_space_group_name_H-M   'C 2/c'
_symmetry_Int_Tables_number      15
_space_group_name_Hall           '-C 2yn'
loop_
_symmetry_equiv_pos_site_id
_symmetry_equiv_pos_as_xyz
1 x,y,z
2 -x,y,1/2-z
3 1/2+x,1/2+y,z
4 1/2-x,1/2+y,1/2-z
5 -x,-y,-z
6 x,-y,1/2+z
7 1/2-x,1/2-y,-z
8 1/2+x,1/2-y,1/2+z
_cell_length_a                   26.914(5)
_cell_length_b                   9.9285(19)
_cell_length_c                   20.764(4)
_cell_angle_alpha                90
_cell_angle_beta                 126.155(2)
_cell_angle_gamma                90
_cell_volume                     4479.96
_exptl_crystal_colour            colorless
_exptl_crystal_description       block
_cell_formula_units_Z            16
loop_
_atom_site_label
_atom_site_type_symbol
_atom_site_fract_x
_atom_site_fract_y
_atom_site_fract_z
C1 C 0.1605(3) 1.2003(6) 0.4774(3)
H1 H 0.1876 1.2770 0.5213
C2 C 0.1008(3) 1.2042(5) 0.4398(3)
H2 H 0.0758 1.2577 0.4591
C3 C 0.11971(17) 1.0488(4) 0.3687(2)
C4 C 0.11360(15) 0.9523(4) 0.3121(2)
C5 C 0.11533(15) 0.7960(3) 0.2252(2)
C6 C 0.12284(17) 0.7035(4) 0.1769(2)
C7 C 0.1660(3) 0.5679(6) 0.1267(3)
H3 H 0.1953 0.5223 0.1182
C8 C 0.1067(3) 0.5442(5) 0.0806(4)
H4 H 0.0902 0.4721 0.0384
C9 C 0.1731(6) 1.095(3) 0.4377(14)
H5 H 0.2123 1.0645 0.4570
C10 C 0.1774(5) 0.6491(16) 0.1943(8)
H6 H 0.2160 0.6620 0.2422
N1 N 0.06032(12) 0.8090(3) 0.20967(18)
H7 H 0.0220 0.7616 0.1735
N2 N 0.05926(12) 0.8963(3) 0.25865(18)
P1 P 0.17136(4) 0.89603(13) 0.30424(7)
S1 S 0.06098(13) 1.1084(4) 0.3666(2)
S2 S 0.0659(2) 0.6232(9) 0.0964(5)
C13 C 0.1619(3) 0.3148(7) 0.2634(4)
H11 H 0.1957 0.2633 0.2575
C14 C 0.1025(4) 0.2966(6) 0.2164(4)
H12 H 0.0876 0.2186 0.1682
C15 C 0.12155(18) 0.4559(4) 0.3142(2)
C16 C 0.11398(15) 0.5516(4) 0.3608(2)
C17 C 0.11259(15) 0.7072(3) 0.4479(2)
C18 C 0.11889(17) 0.7996(4) 0.5063(2)
C19 C 0.1607(3) 0.9388(6) 0.6181(3)
H13 H 0.1890 1.0062 0.6631
C20 C 0.1013(3) 0.9563(5) 0.5805(3)
H14 H 0.0810 1.0103 0.6010
C21 C 0.1725(5) 0.8609(18) 0.5678(7)
H15 H 0.2105 0.8542 0.5762
C22 C 0.1752(5) 0.3856(16) 0.3356(8)
H16 H 0.2125 0.3838 0.3861
N3 N 0.05813(12) 0.5958(3) 0.33222(18)
H17 H 0.0200 0.5857 0.2780
N4 N 0.05745(13) 0.6828(3) 0.38126(18)
P2 P 0.17131(5) 0.61815(13) 0.45416(6)
S5 S 0.05732(8) 0.8619(2) 0.50158(11)
S6 S 0.06677(16) 0.3715(3) 0.2399(2)
C11? C 0.0750(6) 1.125(2) 0.3648(10)
H8? H 0.0339 1.1271 0.3209
C12? C 0.0798(8) 0.621(3) 0.1152(17)
H9? H 0.0391 0.6133 0.0973
H10? H 0.0196 0.9079 0.2488
S3? S 0.19067(14) 0.6841(4) 0.1924(2)
S4? S 0.1859(2) 1.1161(10) 0.4401(5)
C23? C 0.0773(7) 0.891(2) 0.5008(8)
H18? H 0.0391 0.9095 0.4536
C24? C 0.0770(6) 0.4052(17) 0.2381(9)
H19? H 0.0366 0.4357 0.2052
H20? H 0.0174 0.7280 0.3605
S7? S 0.18644(15) 0.4257(5) 0.3277(2)
S8? S 0.1851(5) 0.8264(15) 0.5911(6)
loop_
_geom_bond_atom_site_label_1
_geom_bond_atom_site_label_2
_geom_bond_site_symmetry_1
_geom_bond_site_symmetry_2
C1 H1 1_555 1_555
C2 C1 1_555 1_555
H2 C2 1_555 1_555
C3 C4 1_555 1_555
C4 N2 1_555 1_555
C5 C6 1_555 1_555
C6 C10 1_555 1_555
C7 H3 1_555 1_555
C8 C7 1_555 1_555
H4 C8 1_555 1_555
C9 C1 1_555 1_555
H5 C9 1_555 1_555
C10 C7 1_555 1_555
H6 C10 1_555 1_555
N1 C5 1_555 1_555
H7 N1 1_555 1_555
N2 N1 1_555 1_555
P1 C4 1_555 1_555
S1 C2 1_555 1_555
S2 C6 1_555 1_555
C13 H11 1_555 1_555
C14 C13 1_555 1_555
H12 C14 1_555 1_555
C15 C16 1_555 1_555
C16 N3 1_555 1_555
C17 C18 1_555 1_555
C18 C21 1_555 1_555
C19 H13 1_555 1_555
C20 C19 1_555 1_555
H14 C20 1_555 1_555
C21 C19 1_555 1_555
H15 C21 1_555 1_555
C22 C13 1_555 1_555
H16 C22 1_555 1_555
N3 H17 1_555 1_555
N4 C17 1_555 1_555
P2 C16 1_555 1_555
S5 C18 1_555 1_555
S6 C14 1_555 1_555
C3 C9 1_555 1_555
C3 S1 1_555 1_555
C5 P1 1_555 1_555
C8 S2 1_555 1_555
C15 C22 1_555 1_555
C15 S6 1_555 1_555
C17 P2 1_555 1_555
C20 S5 1_555 1_555
N3 N4 1_555 1_555

#END
