
#######################################################################
#
#                 Cambridge Crystallographic Data Centre
#                                CCDC 
#
#######################################################################
#
# If this CIF has been generated from an entry in the Cambridge 
# Structural Database, then it will include bibliographic, chemical, 
# crystal, experimental, refinement or atomic coordinate data resulting 
# from the CCDC's data processing and validation procedures.
#
#######################################################################

data_FIXFAV
_chemical_formula_moiety         'C22 H15 N2 P1'
_chemical_name_systematic        3,5-bis(1-naphthyl)-1H-1,2,4-diazaphosphole
_symmetry_cell_setting           monoclinic
_symmetry_space_group_name_H-M   'P 21/c'
_symmetry_Int_Tables_number      14
_space_group_name_Hall           '-P 2ybc'
loop_
_symmetry_equiv_pos_site_id
_symmetry_equiv_pos_as_xyz
1 x,y,z
2 -x,1/2+y,1/2-z
3 -x,-y,-z
4 x,1/2-y,1/2+z
_cell_length_a                   8.670(2)
_cell_length_b                   8.036(2)
_cell_length_c                   24.936(7)
_cell_angle_alpha                90
_cell_angle_beta                 97.589(3)
_cell_angle_gamma                90
_cell_volume                     1722.13
_exptl_crystal_colour            colorless
_exptl_crystal_description       prism
_cell_formula_units_Z            4
loop_
_atom_site_label
_atom_site_type_symbol
_atom_site_fract_x
_atom_site_fract_y
_atom_site_fract_z
C1 C -0.0222(2) 0.2551(3) -0.01297(9)
H1 H -0.0620 0.1937 0.0137
C2 C -0.1244(3) 0.3323(3) -0.05391(13)
H2 H -0.2314 0.3228 -0.0540
C3 C -0.0680(4) 0.4202(3) -0.09306(12)
H3 H -0.1370 0.4679 -0.1205
C4 C 0.0920(3) 0.4413(3) -0.09341(9)
C5 C 0.1534(5) 0.5348(4) -0.13382(10)
H4 H 0.0854 0.5806 -0.1619
C6 C 0.3075(5) 0.5591(4) -0.13265(12)
H5 H 0.3448 0.6196 -0.1600
C7 C 0.4105(4) 0.4943(3) -0.09076(11)
H6 H 0.5166 0.5140 -0.0896
C8 C 0.3573(3) 0.4019(3) -0.05128(9)
H7 H 0.4282 0.3597 -0.0234
C9 C 0.1980(3) 0.3685(2) -0.05160(7)
C10 C 0.1355(2) 0.2694(2) -0.01195(7)
C11 C 0.2359(2) 0.1759(2) 0.02987(7)
C12 C 0.3745(2) 0.0153(2) 0.10226(7)
C13 C 0.4363(2) -0.0831(2) 0.15031(7)
C14 C 0.3308(2) -0.1658(2) 0.17692(7)
H8 H 0.2253 -0.1578 0.1641
C15 C 0.3783(3) -0.2619(3) 0.22287(8)
H9 H 0.3048 -0.3178 0.2401
C16 C 0.5304(3) -0.2737(3) 0.24217(8)
H10 H 0.5609 -0.3389 0.2725
C17 C 0.6441(2) -0.1893(3) 0.21738(7)
C18 C 0.8029(3) -0.1969(3) 0.23848(9)
H11 H 0.8334 -0.2611 0.2691
C19 C 0.9116(3) -0.1132(4) 0.21538(10)
H12 H 1.0159 -0.1199 0.2299
C20 C 0.8667(3) -0.0166(4) 0.16952(10)
H13 H 0.9418 0.0413 0.1536
C21 C 0.7147(2) -0.0057(3) 0.14766(8)
H14 H 0.6875 0.0602 0.1172
C22 C 0.5978(2) -0.0925(2) 0.17034(7)
N1 N 0.35609(19) 0.0905(2) 0.01639(6)
H15 H 0.3895 0.0784 -0.0158
N2 N 0.43509(19) 0.0001(2) 0.05642(6)
P1 P 0.21432(6) 0.14930(7) 0.09777(2)
H16? H 0.5124 -0.0594 0.0465
loop_
_geom_bond_atom_site_label_1
_geom_bond_atom_site_label_2
_geom_bond_site_symmetry_1
_geom_bond_site_symmetry_2
C1 H1 1_555 1_555
C2 C1 1_555 1_555
H2 C2 1_555 1_555
C3 C2 1_555 1_555
H3 C3 1_555 1_555
C4 C3 1_555 1_555
C5 C4 1_555 1_555
H4 C5 1_555 1_555
C6 C5 1_555 1_555
H5 C6 1_555 1_555
C7 C6 1_555 1_555
H6 C7 1_555 1_555
C8 C7 1_555 1_555
H7 C8 1_555 1_555
C9 C4 1_555 1_555
C10 C1 1_555 1_555
C11 C10 1_555 1_555
C12 C13 1_555 1_555
C13 C14 1_555 1_555
C14 H8 1_555 1_555
C15 C14 1_555 1_555
H9 C15 1_555 1_555
C16 C15 1_555 1_555
H10 C16 1_555 1_555
C17 C16 1_555 1_555
C18 C17 1_555 1_555
H11 C18 1_555 1_555
C19 C18 1_555 1_555
H12 C19 1_555 1_555
C20 C19 1_555 1_555
H13 C20 1_555 1_555
C21 C20 1_555 1_555
H14 C21 1_555 1_555
C22 C13 1_555 1_555
N1 C11 1_555 1_555
H15 N1 1_555 1_555
N2 C12 1_555 1_555
P1 C11 1_555 1_555
C8 C9 1_555 1_555
C9 C10 1_555 1_555
C12 P1 1_555 1_555
C17 C22 1_555 1_555
C21 C22 1_555 1_555
N1 N2 1_555 1_555

#END
