
#######################################################################
#
#                 Cambridge Crystallographic Data Centre
#                                CCDC 
#
#######################################################################
#
# If this CIF has been generated from an entry in the Cambridge 
# Structural Database, then it will include bibliographic, chemical, 
# crystal, experimental, refinement or atomic coordinate data resulting 
# from the CCDC's data processing and validation procedures.
#
#######################################################################

data_FIXFOJ
_chemical_formula_moiety         'C8 H15 N2 P1'
_chemical_name_systematic        3,5-Diisopropyl-1H-1,2,4-diazaphosphole
_symmetry_cell_setting           monoclinic
_symmetry_space_group_name_H-M   'P 2/c'
_symmetry_Int_Tables_number      13
_space_group_name_Hall           '-P 2yc'
loop_
_symmetry_equiv_pos_site_id
_symmetry_equiv_pos_as_xyz
1 x,y,z
2 -x,y,1/2-z
3 -x,-y,-z
4 x,-y,1/2+z
_cell_length_a                   19.7027(18)
_cell_length_b                   10.7761(10)
_cell_length_c                   27.0431(18)
_cell_angle_alpha                90
_cell_angle_beta                 132.144(4)
_cell_angle_gamma                90
_cell_volume                     4257.28
_cell_formula_units_Z            16
loop_
_atom_site_label
_atom_site_type_symbol
_atom_site_fract_x
_atom_site_fract_y
_atom_site_fract_z
N1 N 0.4132(3) 0.6501(4) 0.2613(3)
P1 P 0.42743(11) 0.83030(14) 0.32830(8)
N2 N 0.4787(3) 0.6114(4) 0.3249(3)
C1 C 0.3785(3) 0.7628(5) 0.2531(3)
C2 C 0.3097(4) 0.8145(5) 0.1842(3)
H1 H 0.2761 0.7439 0.1530
C3 C 0.3567(4) 0.8835(6) 0.1656(3)
H2 H 0.3894 0.9543 0.1949
H3 H 0.3113 0.9120 0.1198
H4 H 0.3995 0.8285 0.1701
C4 C 0.2409(4) 0.8967(6) 0.1757(3)
H5 H 0.2048 0.8478 0.1810
H6 H 0.2009 0.9334 0.1315
H7 H 0.2725 0.9619 0.2090
C5 C 0.5661(4) 0.6717(6) 0.4400(3)
H8 H 0.5540 0.5877 0.4475
C6 C 0.4937(3) 0.6970(5) 0.3660(3)
C7 C 0.6600(4) 0.6694(8) 0.4642(3)
H9 H 0.6618 0.6105 0.4380
H10 H 0.7037 0.6448 0.5108
H11 H 0.6755 0.7514 0.4596
C8 C 0.5602(5) 0.7603(7) 0.4798(3)
H12 H 0.5693 0.8444 0.4725
H13 H 0.6071 0.7401 0.5268
H14 H 0.5003 0.7536 0.4659
H15 H 0.392(4) 0.597(6) 0.223(3)
P2 P 0.15461(12) 0.63738(16) 0.24393(9)
N3 N 0.1263(4) 0.4196(4) 0.2678(3)
N4 N 0.0495(4) 0.4550(5) 0.2065(3)
C9 C 0.1883(4) 0.5072(5) 0.2940(3)
C10 C 0.2809(4) 0.4845(6) 0.3624(3)
H16 H 0.2726 0.4213 0.3846
C11 C 0.3465(4) 0.4311(7) 0.3568(3)
H17 H 0.3539 0.4893 0.3333
H18 H 0.3223 0.3535 0.3324
H19 H 0.4054 0.4164 0.4011
C12 C 0.3189(5) 0.5991(8) 0.4052(3)
H20 H 0.3763 0.5791 0.4494
H21 H 0.2757 0.6297 0.4083
H22 H 0.3293 0.6623 0.3853
C13 C 0.0506(4) 0.5653(5) 0.1853(3)
C14 C -0.0348(5) 0.6101(6) 0.1165(3)
H23 H -0.0531 0.5428 0.0847
C15 C -0.0162(5) 0.7216(6) 0.0947(3)
H24 H -0.0711 0.7438 0.0497
H25 H 0.0328 0.7034 0.0955
H26 H 0.0018 0.7902 0.1246
C16 C -0.1089(5) 0.6280(10) 0.1135(5)
H27 H -0.0943 0.6949 0.1434
H28 H -0.1195 0.5523 0.1269
H29 H -0.1636 0.6492 0.0683
H30 H 0.007(3) 0.400(5) 0.186(2)
P3 P 0.28830(11) 0.24153(15) 0.10578(9)
N5 N 0.3531(3) 0.4545(4) 0.1660(2)
N6 N 0.4052(3) 0.4131(4) 0.1539(2)
C17 C 0.2871(4) 0.3722(5) 0.1426(3)
C18 C 0.2207(4) 0.4025(6) 0.1517(4)
H31 H 0.2477 0.4709 0.1845
C19 C 0.1325(5) 0.4476(8) 0.0881(4)
H32 H 0.1433 0.5203 0.0731
H33 H 0.0916 0.4691 0.0951
H34 H 0.1048 0.3829 0.0546
C20 C 0.2078(4) 0.2946(7) 0.1793(4)
H35 H 0.1705 0.3196 0.1890
H36 H 0.2669 0.2662 0.2199
H37 H 0.1774 0.2278 0.1468
C21 C 0.3833(3) 0.3050(5) 0.1233(3)
C22 C 0.4415(5) 0.2539(6) 0.1106(4)
H38 H 0.4600 0.3254 0.0989
C23 C 0.5271(4) 0.2003(7) 0.1734(4)
H39 H 0.5567 0.2613 0.2088
H40 H 0.5681 0.1775 0.1667
H41 H 0.5124 0.1272 0.1855
C24 C 0.3937(5) 0.1682(8) 0.0551(4)
H42 H 0.3783 0.0937 0.0658
H43 H 0.4328 0.1467 0.0465
H44 H 0.3382 0.2069 0.0158
H45 H 0.452(4) 0.474(5) 0.163(3)
P4 P 0.15306(12) 0.03499(15) 0.40803(9)
N7 N 0.0835(3) 0.2535(4) 0.3608(2)
N8 N 0.1238(3) 0.2191(4) 0.3376(2)
C25 C 0.0925(3) 0.1647(5) 0.3980(3)
C26 C 0.0521(4) 0.1879(6) 0.4294(3)
H46 H -0.0028 0.2402 0.3974
C27 C 0.0196(5) 0.0714(7) 0.4378(4)
H47 H 0.0705 0.0143 0.4663
H48 H -0.0275 0.0333 0.3945
H49 H -0.0053 0.0909 0.4579
C28 C 0.1140(5) 0.2597(8) 0.4912(3)
H50 H 0.1702 0.2135 0.5237
H51 H 0.0849 0.2747 0.5087
H52 H 0.1278 0.3383 0.4823
C29 C 0.1637(4) 0.1083(5) 0.3573(3)
C30 C 0.2100(6) 0.0669(6) 0.3320(4)
H53 H 0.2425 0.1407 0.3350
C31 C 0.2788(6) -0.0248(9) 0.3744(4)
H54 H 0.2499 -0.1041 0.3668
H55 H 0.3156 -0.0006 0.4206
H56 H 0.3177 -0.0320 0.3644
C32 C 0.1428(6) 0.0358(9) 0.2627(4)
H57 H 0.1725 0.0220 0.2457
H58 H 0.0993 0.1034 0.2384
H59 H 0.1108 -0.0390 0.2571
H60 H 0.121(4) 0.288(6) 0.310(3)
loop_
_geom_bond_atom_site_label_1
_geom_bond_atom_site_label_2
_geom_bond_site_symmetry_1
_geom_bond_site_symmetry_2
N1 N2 1_555 1_555
P1 C1 1_555 1_555
N2 C6 1_555 1_555
C1 N1 1_555 1_555
C2 C1 1_555 1_555
H1 C2 1_555 1_555
C3 C2 1_555 1_555
H2 C3 1_555 1_555
H3 C3 1_555 1_555
H4 C3 1_555 1_555
C4 C2 1_555 1_555
H5 C4 1_555 1_555
H6 C4 1_555 1_555
H7 C4 1_555 1_555
C5 H8 1_555 1_555
C6 P1 1_555 1_555
C7 C5 1_555 1_555
H9 C7 1_555 1_555
H10 C7 1_555 1_555
H11 C7 1_555 1_555
C8 C5 1_555 1_555
H12 C8 1_555 1_555
H13 C8 1_555 1_555
H14 C8 1_555 1_555
H15 N1 1_555 1_555
P2 C9 1_555 1_555
N3 N4 1_555 1_555
N4 C13 1_555 1_555
C9 N3 1_555 1_555
C10 C9 1_555 1_555
H16 C10 1_555 1_555
C11 C10 1_555 1_555
H17 C11 1_555 1_555
H18 C11 1_555 1_555
H19 C11 1_555 1_555
C12 C10 1_555 1_555
H20 C12 1_555 1_555
H21 C12 1_555 1_555
H22 C12 1_555 1_555
C13 P2 1_555 1_555
C14 C13 1_555 1_555
H23 C14 1_555 1_555
C15 C14 1_555 1_555
H24 C15 1_555 1_555
H25 C15 1_555 1_555
H26 C15 1_555 1_555
C16 C14 1_555 1_555
H27 C16 1_555 1_555
H28 C16 1_555 1_555
H29 C16 1_555 1_555
H30 N4 1_555 1_555
P3 C17 1_555 1_555
N5 N6 1_555 1_555
N6 C21 1_555 1_555
C17 N5 1_555 1_555
C18 C17 1_555 1_555
H31 C18 1_555 1_555
C19 C18 1_555 1_555
H32 C19 1_555 1_555
H33 C19 1_555 1_555
H34 C19 1_555 1_555
C20 C18 1_555 1_555
H35 C20 1_555 1_555
H36 C20 1_555 1_555
H37 C20 1_555 1_555
C21 P3 1_555 1_555
C22 C21 1_555 1_555
H38 C22 1_555 1_555
C23 C22 1_555 1_555
H39 C23 1_555 1_555
H40 C23 1_555 1_555
H41 C23 1_555 1_555
C24 C22 1_555 1_555
H42 C24 1_555 1_555
H43 C24 1_555 1_555
H44 C24 1_555 1_555
H45 N6 1_555 1_555
P4 C25 1_555 1_555
N7 N8 1_555 1_555
N8 C29 1_555 1_555
C25 N7 1_555 1_555
C26 C25 1_555 1_555
H46 C26 1_555 1_555
C27 C26 1_555 1_555
H47 C27 1_555 1_555
H48 C27 1_555 1_555
H49 C27 1_555 1_555
C28 C26 1_555 1_555
H50 C28 1_555 1_555
H51 C28 1_555 1_555
H52 C28 1_555 1_555
C29 P4 1_555 1_555
C30 C29 1_555 1_555
H53 C30 1_555 1_555
C31 C30 1_555 1_555
H54 C31 1_555 1_555
H55 C31 1_555 1_555
H56 C31 1_555 1_555
C32 C30 1_555 1_555
H57 C32 1_555 1_555
H58 C32 1_555 1_555
H59 C32 1_555 1_555
H60 N8 1_555 1_555
C5 C6 1_555 1_555

#END
