
#######################################################################
#
#                 Cambridge Crystallographic Data Centre
#                                CCDC 
#
#######################################################################
#
# If this CIF has been generated from an entry in the Cambridge 
# Structural Database, then it will include bibliographic, chemical, 
# crystal, experimental, refinement or atomic coordinate data resulting 
# from the CCDC's data processing and validation procedures.
#
#######################################################################

data_FIXGAU04
_chemical_name_common            Zidovudine
_chemical_formula_moiety         'C10 H13 N5 O4'
_chemical_name_systematic        3'-Azido-3'-deoxythymidine
_chemical_properties_biological  
'antiviral agent active exclusively against retroviruses'
_symmetry_cell_setting           monoclinic
_symmetry_space_group_name_H-M   'P 21'
_symmetry_Int_Tables_number      4
_space_group_name_Hall           'P 2yb'
loop_
_symmetry_equiv_pos_site_id
_symmetry_equiv_pos_as_xyz
1 x,y,z
2 -x,1/2+y,-z
_cell_length_a                   5.713(1)
_cell_length_b                   11.996(1)
_cell_length_c                   17.658(2)
_cell_angle_alpha                90
_cell_angle_beta                 94.31(1)
_cell_angle_gamma                90
_cell_volume                     1206.74
_cell_formula_units_Z            4
loop_
_atom_site_label
_atom_site_type_symbol
_atom_site_fract_x
_atom_site_fract_y
_atom_site_fract_z
N1 N 0.4466(4) 0.695 0.3889(1)
C1 C 0.5983(4) 0.7262(2) 0.3366(1)
N2 N 0.5468(4) 0.6846(2) 0.2646(1)
C2 C 0.3677(4) 0.6118(2) 0.2412(1)
C3 C 0.2153(4) 0.5804(2) 0.3000(1)
C4 C 0.2621(4) 0.6231(2) 0.3695(1)
O1 O 0.7676(3) 0.7877(2) 0.3515(1)
O2 O 0.3452(4) 0.5799(2) 0.1751(1)
C5 C 0.0169(5) 0.5020(3) 0.2812(2)
C6 C 0.4816(4) 0.7341(3) 0.4677(1)
C7 C 0.2825(5) 0.8069(3) 0.4917(2)
C8 C 0.2767(5) 0.7789(3) 0.5755(1)
C9 C 0.3526(5) 0.6568(3) 0.5804(1)
O3 O 0.4900(3) 0.6389(2) 0.51587(9)
N3 N 0.4476(6) 0.8540(3) 0.6179(2)
N4 N 0.4529(4) 0.8453(2) 0.6872(1)
N5 N 0.4694(5) 0.8467(3) 0.7509(1)
C10 C 0.1530(5) 0.5734(3) 0.5798(2)
O4 O -0.0161(4) 0.5949(3) 0.5182(1)
N6 N 0.1616(4) 0.8390(2) 0.1143(1)
C11 C 0.0259(4) 0.8097(2) 0.1722(1)
N7 N 0.0828(4) 0.8606(2) 0.2404(1)
C12 C 0.2621(5) 0.9376(3) 0.2572(2)
C13 C 0.3962(5) 0.9646(2) 0.1927(2)
C14 C 0.3418(4) 0.9142(2) 0.1259(2)
O5 O -0.1348(3) 0.7422(2) 0.1620(1)
O6 O 0.2953(4) 0.9749(2) 0.3210(1)
C15 C 0.5923(6) 1.0476(3) 0.2035(2)
C16 C 0.1118(4) 0.7773(2) 0.0410(1)
C17 C -0.1284(5) 0.8072(3) 0.0015(2)
C18 C -0.0740(5) 0.8258(3) -0.0804(2)
C19 C 0.1781(5) 0.8685(3) -0.0718(1)
O7 O 0.2839(3) 0.8060(2) -0.00845(9)
N8 N -0.0903(6) 0.7157(3) -0.1191(2)
N9 N -0.0647(4) 0.7174(2) -0.1875(1)
N10 N -0.0464(6) 0.7081(3) -0.2499(2)
C20 C 0.1980(6) 0.9935(3) -0.0579(2)
O8 O 0.4329(5) 1.0273(2) -0.0419(1)
loop_
_geom_bond_atom_site_label_1
_geom_bond_atom_site_label_2
_geom_bond_site_symmetry_1
_geom_bond_site_symmetry_2
N1 C1 1_555 1_555
C1 N2 1_555 1_555
N2 C2 1_555 1_555
C2 C3 1_555 1_555
C3 C4 1_555 1_555
C4 N1 1_555 1_555
O1 C1 1_555 1_555
O2 C2 1_555 1_555
C5 C3 1_555 1_555
C6 N1 1_555 1_555
C7 C6 1_555 1_555
C8 C7 1_555 1_555
C9 C8 1_555 1_555
O3 C6 1_555 1_555
N3 C8 1_555 1_555
N4 N3 1_555 1_555
N5 N4 1_555 1_555
C10 C9 1_555 1_555
O4 C10 1_555 1_555
N6 C11 1_555 1_555
C11 N7 1_555 1_555
N7 C12 1_555 1_555
C12 C13 1_555 1_555
C13 C14 1_555 1_555
C14 N6 1_555 1_555
O5 C11 1_555 1_555
O6 C12 1_555 1_555
C15 C13 1_555 1_555
C16 N6 1_555 1_555
C17 C16 1_555 1_555
C18 C17 1_555 1_555
C19 C18 1_555 1_555
O7 C16 1_555 1_555
N8 C18 1_555 1_555
N9 N8 1_555 1_555
N10 N9 1_555 1_555
C20 C19 1_555 1_555
O8 C20 1_555 1_555
C9 O3 1_555 1_555
C19 O7 1_555 1_555

#END
