
#######################################################################
#
#                 Cambridge Crystallographic Data Centre
#                                CCDC 
#
#######################################################################
#
# If this CIF has been generated from an entry in the Cambridge 
# Structural Database, then it will include bibliographic, chemical, 
# crystal, experimental, refinement or atomic coordinate data resulting 
# from the CCDC's data processing and validation procedures.
#
#######################################################################

data_FIXJOM
_chemical_formula_moiety         'C30 H40 N2 Na2 O10 S2'
_chemical_name_systematic        
bis((\m~2~-Isothiocyanato-N,N)-(2,3-benzo-1,4,7,10,13-pentaoxacyclopentadec-2-ene)-sodium(i))
_symmetry_cell_setting           monoclinic
_symmetry_space_group_name_H-M   'C 2/c'
_symmetry_Int_Tables_number      15
_space_group_name_Hall           '-C 2yn'
loop_
_symmetry_equiv_pos_site_id
_symmetry_equiv_pos_as_xyz
1 x,y,z
2 1/2+x,1/2+y,z
3 -x,y,1/2-z
4 1/2-x,1/2+y,1/2-z
5 -x,-y,-z
6 1/2-x,1/2-y,-z
7 x,-y,1/2+z
8 1/2+x,1/2-y,1/2+z
_cell_length_a                   17.708(5)
_cell_length_b                   11.236(3)
_cell_length_c                   17.821(5)
_cell_angle_alpha                90
_cell_angle_beta                 106.816(4)
_cell_angle_gamma                90
_cell_volume                     3394.17
_exptl_crystal_colour            colorless
_exptl_crystal_description       rod
_chemical_melting_point          '99-100 deg.C'
_cell_formula_units_Z            4
loop_
_atom_site_label
_atom_site_type_symbol
_atom_site_fract_x
_atom_site_fract_y
_atom_site_fract_z
Na1 Na 0.25822(5) -0.08803(7) 0.99121(5)
N1 N 0.18775(12) -0.22760(17) 1.05674(13)
O1 O 0.28939(8) 0.00718(12) 0.87694(8)
O2 O 0.38400(8) 0.03782(12) 1.01638(8)
O3 O 0.29898(9) 0.02153(14) 1.12002(9)
O4 O 0.16449(8) 0.07639(12) 0.99679(9)
O5 O 0.14242(9) -0.07854(13) 0.87396(9)
S1 S 0.10625(4) -0.22470(7) 1.16871(4)
C1 C 0.35510(12) 0.07376(18) 0.88177(13)
C2 C 0.37325(16) 0.1258(2) 0.81878(15)
C3 C 0.44204(17) 0.1900(2) 0.82980(19)
C4 C 0.49253(16) 0.2031(2) 0.90278(19)
C5 C 0.47524(14) 0.1531(2) 0.96653(17)
C6 C 0.40673(12) 0.08890(18) 0.95676(13)
C7 C 0.41912(17) 0.0870(3) 1.09276(15)
C8 C 0.38283(16) 0.0285(3) 1.14810(17)
C9 C 0.25728(18) 0.1300(3) 1.11483(18)
C10 C 0.17274(17) 0.1038(3) 1.07699(17)
C11 C 0.08764(16) 0.0393(3) 0.95328(19)
C12 C 0.08843(17) 0.0167(3) 0.87161(19)
C13 C 0.17003(18) -0.0864(3) 0.80707(18)
C14 C 0.23006(17) 0.0056(3) 0.80340(16)
C15 C 0.15449(13) -0.22642(19) 1.10328(14)
H1 H 0.3386(10) 0.1143(16) 0.7696(11)
H2 H 0.4523(11) 0.2222(17) 0.7850(12)
H3 H 0.5388(12) 0.2510(17) 0.9099(12)
H4 H 0.5085(11) 0.1615(17) 1.0156(12)
H5 H 0.4775(12) 0.0724(18) 1.1094(12)
H6 H 0.4047(13) -0.062(2) 1.1530(13)
H7 H 0.2778(13) 0.188(2) 1.0849(13)
H8 H 0.1387(11) 0.1673(19) 1.0782(12)
H9 H 0.0523(11) 0.0973(17) 0.9562(11)
H10 H 0.0334(12) -0.0112(18) 0.8384(12)
H11 H 0.1265(12) -0.0809(17) 0.7575(12)
H12 H 0.2560(12) -0.0202(19) 0.7635(13)
H13 H 0.3947(13) 0.168(2) 1.0960(13)
H14 H 0.3969(14) 0.077(2) 1.1990(15)
H15 H 0.2668(11) 0.1633(17) 1.1678(12)
H16 H 0.1555(11) 0.0356(17) 1.1038(11)
H17 H 0.0710(12) -0.0340(19) 0.9775(12)
H18 H 0.1085(12) 0.0809(19) 0.8489(13)
H19 H 0.1921(11) -0.1639(18) 0.8088(12)
H20 H 0.2065(12) 0.084(2) 0.7948(12)
Na1E Na 0.24178(5) -0.41197(7) 1.00879(5)
N1E N 0.31225(12) -0.27240(17) 0.94326(13)
O1E O 0.21061(8) -0.50718(12) 1.12306(8)
O2E O 0.11600(8) -0.53782(12) 0.98362(8)
O3E O 0.20102(9) -0.52153(14) 0.87998(9)
O4E O 0.33551(8) -0.57639(12) 1.00321(9)
O5E O 0.35758(9) -0.42146(13) 1.12604(9)
S1E S 0.39375(4) -0.27530(7) 0.83129(4)
C1E C 0.14490(12) -0.57376(18) 1.11823(13)
C2E C 0.12675(16) -0.6258(2) 1.18122(15)
C3E C 0.05796(17) -0.6900(2) 1.17020(19)
C4E C 0.00747(16) -0.7031(2) 1.09722(19)
C5E C 0.02476(14) -0.6531(2) 1.03347(17)
C6E C 0.09327(12) -0.58890(18) 1.04324(13)
C7E C 0.08088(17) -0.5870(3) 0.90724(15)
C8E C 0.11717(16) -0.5285(3) 0.85190(17)
C9E C 0.24272(18) -0.6300(3) 0.88517(18)
C10E C 0.32726(17) -0.6038(3) 0.92301(17)
C11E C 0.41236(16) -0.5393(3) 1.04672(19)
C12E C 0.41157(17) -0.5167(3) 1.12839(19)
C13E C 0.32997(18) -0.4136(3) 1.19293(18)
C14E C 0.26994(17) -0.5056(3) 1.19660(16)
C15E C 0.34551(13) -0.27358(19) 0.89672(14)
H1E H 0.1614(10) -0.6143(16) 1.2304(11)
H2E H 0.0477(11) -0.7222(17) 1.2150(12)
H3E H -0.0388(12) -0.7510(17) 1.0901(12)
H4E H -0.0085(11) -0.6615(17) 0.9844(12)
H5E H 0.0225(12) -0.5724(18) 0.8906(12)
H6E H 0.0953(13) -0.438(2) 0.8470(13)
H7E H 0.2222(13) -0.688(2) 0.9151(13)
H8E H 0.3613(11) -0.6673(19) 0.9218(12)
H9E H 0.4477(11) -0.5973(17) 1.0438(11)
H10E H 0.4666(12) -0.4888(18) 1.1616(12)
H11E H 0.3735(12) -0.4191(17) 1.2425(12)
H12E H 0.2440(12) -0.4798(19) 1.2365(13)
H13E H 0.1053(13) -0.668(2) 0.9040(13)
H14E H 0.1031(14) -0.577(2) 0.8010(15)
H15E H 0.2332(11) -0.6633(17) 0.8322(12)
H16E H 0.3445(11) -0.5356(17) 0.8962(11)
H17E H 0.4290(12) -0.4660(19) 1.0225(12)
H18E H 0.3915(12) -0.5809(19) 1.1511(13)
H19E H 0.3079(11) -0.3361(18) 1.1912(12)
H20E H 0.2935(12) -0.584(2) 1.2052(12)
loop_
_geom_bond_atom_site_label_1
_geom_bond_atom_site_label_2
_geom_bond_site_symmetry_1
_geom_bond_site_symmetry_2
Na1 N1 1_555 1_555
N1 C15 1_555 1_555
O1 Na1 1_555 1_555
O2 Na1 1_555 1_555
O3 Na1 1_555 1_555
O4 Na1 1_555 1_555
O5 Na1 1_555 1_555
S1 C15 1_555 1_555
C1 O1 1_555 1_555
C2 C1 1_555 1_555
C3 C2 1_555 1_555
C4 C3 1_555 1_555
C5 C4 1_555 1_555
C6 O2 1_555 1_555
C7 O2 1_555 1_555
C8 O3 1_555 1_555
C9 O3 1_555 1_555
C10 O4 1_555 1_555
C11 O4 1_555 1_555
C12 O5 1_555 1_555
C13 O5 1_555 1_555
C14 O1 1_555 1_555
H1 C2 1_555 1_555
H2 C3 1_555 1_555
H3 C4 1_555 1_555
H4 C5 1_555 1_555
H5 C7 1_555 1_555
H6 C8 1_555 1_555
H7 C9 1_555 1_555
H8 C10 1_555 1_555
H9 C11 1_555 1_555
H10 C12 1_555 1_555
H11 C13 1_555 1_555
H12 C14 1_555 1_555
H13 C7 1_555 1_555
H14 C8 1_555 1_555
H15 C9 1_555 1_555
H16 C10 1_555 1_555
H17 C11 1_555 1_555
H18 C12 1_555 1_555
H19 C13 1_555 1_555
H20 C14 1_555 1_555
Na1E N1 1_555 1_555
N1E Na1 1_555 1_555
O1E Na1E 1_555 1_555
O2E Na1E 1_555 1_555
O3E Na1E 1_555 1_555
O4E Na1E 1_555 1_555
O5E Na1E 1_555 1_555
S1E C15E 1_555 1_555
C1E O1E 1_555 1_555
C2E C1E 1_555 1_555
C3E C2E 1_555 1_555
C4E C3E 1_555 1_555
C5E C4E 1_555 1_555
C6E O2E 1_555 1_555
C7E O2E 1_555 1_555
C8E O3E 1_555 1_555
C9E O3E 1_555 1_555
C10E O4E 1_555 1_555
C11E O4E 1_555 1_555
C12E O5E 1_555 1_555
C13E O5E 1_555 1_555
C14E O1E 1_555 1_555
C15E N1E 1_555 1_555
H1E C2E 1_555 1_555
H2E C3E 1_555 1_555
H3E C4E 1_555 1_555
H4E C5E 1_555 1_555
H5E C7E 1_555 1_555
H6E C8E 1_555 1_555
H7E C9E 1_555 1_555
H8E C10E 1_555 1_555
H9E C11E 1_555 1_555
H10E C12E 1_555 1_555
H11E C13E 1_555 1_555
H12E C14E 1_555 1_555
H13E C7E 1_555 1_555
H14E C8E 1_555 1_555
H15E C9E 1_555 1_555
H16E C10E 1_555 1_555
H17E C11E 1_555 1_555
H18E C12E 1_555 1_555
H19E C13E 1_555 1_555
H20E C14E 1_555 1_555
C1 C6 1_555 1_555
C5 C6 1_555 1_555
C7 C8 1_555 1_555
C9 C10 1_555 1_555
C11 C12 1_555 1_555
C13 C14 1_555 1_555
Na1E N1E 1_555 1_555
C1E C6E 1_555 1_555
C5E C6E 1_555 1_555
C7E C8E 1_555 1_555
C9E C10E 1_555 1_555
C11E C12E 1_555 1_555
C13E C14E 1_555 1_555

#END
