
#######################################################################
#
#                 Cambridge Crystallographic Data Centre
#                                CCDC 
#
#######################################################################
#
# If this CIF has been generated from an entry in the Cambridge 
# Structural Database, then it will include bibliographic, chemical, 
# crystal, experimental, refinement or atomic coordinate data resulting 
# from the CCDC's data processing and validation procedures.
#
#######################################################################

data_FIXJIG
_chemical_formula_moiety         'C28 H24 N6 O4'
_chemical_name_systematic        
"1,4-bis(2'-Formylphenyl)-1,4-dioxabutane bis(isonicotinoylhydrazone)"
_symmetry_cell_setting           triclinic
_symmetry_space_group_name_H-M   'P -1'
_symmetry_Int_Tables_number      2
_space_group_name_Hall           '-P 1'
loop_
_symmetry_equiv_pos_site_id
_symmetry_equiv_pos_as_xyz
1 x,y,z
2 -x,-y,-z
_cell_length_a                   9.5120(12)
_cell_length_b                   11.6710(15)
_cell_length_c                   12.5310(15)
_cell_angle_alpha                106.68(3)
_cell_angle_beta                 96.69(3)
_cell_angle_gamma                104.28(2)
_cell_volume                     1264.86
_exptl_crystal_description       block
_cell_formula_units_Z            2
_exptl_crystal_recrystallization_method methanol
loop_
_atom_site_label
_atom_site_type_symbol
_atom_site_fract_x
_atom_site_fract_y
_atom_site_fract_z
C1 C -0.59782(16) 0.54876(14) 0.79494(12)
H1 H -0.6345 0.6076 0.8410
C2 C -0.49654(16) 0.50445(14) 0.85034(12)
H2 H -0.4718 0.5299 0.9293
C3 C -0.43598(15) 0.42299(14) 0.78425(12)
C4 C -0.47890(15) 0.39086(14) 0.67064(12)
H3 H -0.4408 0.3347 0.6226
C5 C -0.58109(15) 0.44174(14) 0.62404(12)
H4 H -0.6048 0.4220 0.5455
C6 C -0.32242(15) 0.37874(14) 0.84424(13)
C7 C -0.03453(15) 0.27018(13) 0.74801(12)
H5 H -0.0575 0.2715 0.6743
C8 C 0.09565(15) 0.23191(13) 0.78333(12)
C9 C 0.14340(15) 0.24582(14) 0.89362(12)
H6 H 0.0956 0.2821 0.9488
C10 C 0.26588(15) 0.20549(14) 0.92553(12)
H7 H 0.2980 0.2146 1.0013
C11 C 0.33515(16) 0.15409(14) 0.84562(12)
H8 H 0.4162 0.1284 0.8666
C12 C 0.28998(15) 0.13956(14) 0.73810(12)
H9 H 0.3393 0.1029 0.6843
C13 C 0.16765(15) 0.17844(13) 0.70174(12)
C14 C 0.18591(15) 0.11278(14) 0.50548(11)
H10 H 0.1867 0.0292 0.5034
H11 H 0.2875 0.1643 0.5187
C15 C 0.10247(16) 0.10830(13) 0.39809(11)
H12 H 0.1347 0.0584 0.3348
H13 H -0.0023 0.0699 0.3918
C16 C 0.05412(15) 0.24803(13) 0.30239(12)
C17 C -0.01579(15) 0.15225(14) 0.19802(12)
H14 H -0.0166 0.0700 0.1883
C18 C -0.08253(15) 0.18260(14) 0.11133(12)
H15 H -0.1289 0.1197 0.0425
C19 C -0.08297(15) 0.29921(14) 0.12266(12)
H16 H -0.1288 0.3174 0.0625
C20 C -0.01403(15) 0.39431(14) 0.22581(11)
H17 H -0.0150 0.4758 0.2339
C21 C 0.05340(15) 0.37022(13) 0.31327(11)
C22 C 0.12856(15) 0.46796(14) 0.42547(11)
H18 H 0.1403 0.4457 0.4908
C23 C 0.32390(15) 0.78315(14) 0.55182(12)
C24 C 0.49245(16) 0.89299(14) 0.86682(12)
H19 H 0.4728 0.8708 0.9303
C25 C 0.39595(16) 0.82733(14) 0.76034(12)
H20 H 0.3134 0.7626 0.7562
C26 C 0.41573(15) 0.85171(13) 0.67048(12)
C27 C 0.53674(15) 0.94760(14) 0.68157(12)
H21 H 0.5594 0.9727 0.6200
C28 C 0.62648(16) 1.00744(14) 0.79119(13)
H22 H 0.7093 1.0727 0.7969
N1 N -0.64416(13) 0.51686(11) 0.68895(10)
N2 N -0.23051(12) 0.33881(11) 0.77375(10)
H23 H -0.2439 0.3371 0.7042
N3 N -0.11490(12) 0.30124(11) 0.81886(10)
N4 N 0.17647(12) 0.58188(11) 0.43122(9)
N5 N 0.25167(12) 0.65786(11) 0.54195(9)
H24 H 0.2537 0.6307 0.5989
N6 N 0.61222(13) 0.98715(11) 0.87670(11)
O1 O -0.30749(10) 0.38978(10) 0.93770(9)
O2 O 0.11450(10) 0.16544(9) 0.59499(8)
O3 O 0.12649(10) 0.23045(9) 0.39490(7)
O4 O 0.30920(10) 0.82384(9) 0.47973(8)
loop_
_geom_bond_atom_site_label_1
_geom_bond_atom_site_label_2
_geom_bond_site_symmetry_1
_geom_bond_site_symmetry_2
C1 H1 1_555 1_555
C2 C1 1_555 1_555
H2 C2 1_555 1_555
C3 C2 1_555 1_555
C4 C3 1_555 1_555
H3 C4 1_555 1_555
C5 C4 1_555 1_555
H4 C5 1_555 1_555
C6 C3 1_555 1_555
C7 H5 1_555 1_555
C8 C7 1_555 1_555
C9 C8 1_555 1_555
H6 C9 1_555 1_555
C10 C9 1_555 1_555
H7 C10 1_555 1_555
C11 C10 1_555 1_555
H8 C11 1_555 1_555
C12 C11 1_555 1_555
H9 C12 1_555 1_555
C13 C8 1_555 1_555
C14 H10 1_555 1_555
H11 C14 1_555 1_555
C15 C14 1_555 1_555
H12 C15 1_555 1_555
H13 C15 1_555 1_555
C16 C17 1_555 1_555
C17 H14 1_555 1_555
C18 C17 1_555 1_555
H15 C18 1_555 1_555
C19 C18 1_555 1_555
H16 C19 1_555 1_555
C20 C19 1_555 1_555
H17 C20 1_555 1_555
C21 C16 1_555 1_555
C22 C21 1_555 1_555
H18 C22 1_555 1_555
C23 C26 1_555 1_555
C24 H19 1_555 1_555
C25 C24 1_555 1_555
H20 C25 1_555 1_555
C26 C25 1_555 1_555
C27 C26 1_555 1_555
H21 C27 1_555 1_555
C28 C27 1_555 1_555
H22 C28 1_555 1_555
N1 C1 1_555 1_555
N2 C6 1_555 1_555
H23 N2 1_555 1_555
N3 C7 1_555 1_555
N4 C22 1_555 1_555
N5 C23 1_555 1_555
H24 N5 1_555 1_555
N6 C24 1_555 1_555
O1 C6 1_555 1_555
O2 C13 1_555 1_555
O3 C15 1_555 1_555
O4 C23 1_555 1_555
C5 N1 1_555 1_555
C12 C13 1_555 1_555
C14 O2 1_555 1_555
C16 O3 1_555 1_555
C20 C21 1_555 1_555
C28 N6 1_555 1_555
N2 N3 1_555 1_555
N4 N5 1_555 1_555

#END
