
#######################################################################
#
#                 Cambridge Crystallographic Data Centre
#                                CCDC 
#
#######################################################################
#
# If this CIF has been generated from an entry in the Cambridge 
# Structural Database, then it will include bibliographic, chemical, 
# crystal, experimental, refinement or atomic coordinate data resulting 
# from the CCDC's data processing and validation procedures.
#
#######################################################################

data_FIXKAZ
_chemical_formula_moiety         'C16 H16 O4'
_chemical_name_systematic        
5-Hydroxy-2,3,8,8-tetramethyl-4H,8H-benzo(1,2-b:5,4-b')dipyran-4-one
_symmetry_cell_setting           monoclinic
_symmetry_space_group_name_H-M   'P 21/c'
_symmetry_Int_Tables_number      14
_space_group_name_Hall           '-P 2ybc'
loop_
_symmetry_equiv_pos_site_id
_symmetry_equiv_pos_as_xyz
1 x,y,z
2 -x,1/2+y,1/2-z
3 -x,-y,-z
4 x,1/2-y,1/2+z
_cell_length_a                   9.149(2)
_cell_length_b                   13.029(3)
_cell_length_c                   11.608(2)
_cell_angle_alpha                90
_cell_angle_beta                 99.90(3)
_cell_angle_gamma                90
_cell_volume                     1363.1
_exptl_crystal_colour            colorless
_exptl_crystal_description       block
_cell_formula_units_Z            4
_exptl_crystal_recrystallization_method 'ethyl acetate/hexane'
loop_
_atom_site_label
_atom_site_type_symbol
_atom_site_fract_x
_atom_site_fract_y
_atom_site_fract_z
C1 C 0.8776(3) 0.40278(18) 0.0139(2)
C2 C 0.9610(3) 0.36985(19) 0.1254(2)
C3 C 0.9412(3) 0.4183(2) 0.2236(2)
C4 C 0.7616(3) 0.53244(18) 0.12231(19)
C5 C 0.6669(3) 0.61348(18) 0.1308(2)
H1 H 0.6605 0.6432 0.2027
C6 C 0.5822(3) 0.64873(17) 0.02887(19)
C7 C 0.4462(3) 0.79588(18) -0.0607(2)
C8 C 0.4237(3) 0.73652(19) -0.1733(2)
H2 H 0.3594 0.7619 -0.2378
C9 C 0.4935(3) 0.64911(19) -0.1826(2)
H3 H 0.4815 0.6152 -0.2541
C10 C 0.5892(3) 0.60565(17) -0.08113(19)
C11 C 0.6867(3) 0.52512(17) -0.08551(19)
C12 C 0.7755(2) 0.48640(17) 0.01681(19)
C13 C 1.0686(3) 0.2812(2) 0.1289(3)
H4 H 1.1568 0.2960 0.1842
H5 H 1.0940 0.2717 0.0528
H6 H 1.0233 0.2198 0.1520
C14 C 1.0175(3) 0.3943(2) 0.3451(2)
H7 H 0.9862 0.3280 0.3677
H8 H 0.9923 0.4454 0.3980
H9 H 1.1229 0.3940 0.3477
C15 C 0.5738(3) 0.87179(19) -0.0558(2)
H10 H 0.5893 0.9065 0.0182
H11 H 0.5500 0.9211 -0.1176
H12 H 0.6624 0.8356 -0.0650
C16 C 0.3065(3) 0.8491(2) -0.0386(2)
H13 H 0.2296 0.7991 -0.0375
H14 H 0.2751 0.8981 -0.0996
H15 H 0.3262 0.8838 0.0354
O1 O 0.8933(2) 0.36023(13) -0.08079(16)
O2 O 0.84501(19) 0.49864(13) 0.22549(13)
O3 O 0.48384(18) 0.72592(12) 0.03852(13)
O4 O 0.6979(2) 0.48303(14) -0.19055(14)
H16 H 0.775(4) 0.429(3) -0.170(3)
loop_
_geom_bond_atom_site_label_1
_geom_bond_atom_site_label_2
_geom_bond_site_symmetry_1
_geom_bond_site_symmetry_2
C1 C2 1_555 1_555
C2 C3 1_555 1_555
C3 C14 1_555 1_555
C4 C5 1_555 1_555
C5 H1 1_555 1_555
C6 C5 1_555 1_555
C7 C8 1_555 1_555
C8 H2 1_555 1_555
C9 C8 1_555 1_555
H3 C9 1_555 1_555
C10 C6 1_555 1_555
C11 C10 1_555 1_555
C12 C1 1_555 1_555
C13 C2 1_555 1_555
H4 C13 1_555 1_555
H5 C13 1_555 1_555
H6 C13 1_555 1_555
C14 H7 1_555 1_555
H8 C14 1_555 1_555
H9 C14 1_555 1_555
C15 C7 1_555 1_555
H10 C15 1_555 1_555
H11 C15 1_555 1_555
H12 C15 1_555 1_555
C16 C7 1_555 1_555
H13 C16 1_555 1_555
H14 C16 1_555 1_555
H15 C16 1_555 1_555
O1 C1 1_555 1_555
O2 C3 1_555 1_555
O3 C6 1_555 1_555
O4 C11 1_555 1_555
H16 O4 1_555 1_555
C4 C12 1_555 1_555
C4 O2 1_555 1_555
C7 O3 1_555 1_555
C9 C10 1_555 1_555
C11 C12 1_555 1_555

#END
