
#######################################################################
#
#                 Cambridge Crystallographic Data Centre
#                                CCDC 
#
#######################################################################
#
# If this CIF has been generated from an entry in the Cambridge 
# Structural Database, then it will include bibliographic, chemical, 
# crystal, experimental, refinement or atomic coordinate data resulting 
# from the CCDC's data processing and validation procedures.
#
#######################################################################

data_FIXMUV
_chemical_formula_moiety         'C10 H12 N2'
_chemical_name_systematic        2-Propyl-1H-pyrrolo(2,3-b)pyridine
_symmetry_cell_setting           triclinic
_symmetry_space_group_name_H-M   'P -1'
_symmetry_Int_Tables_number      2
_space_group_name_Hall           '-P 1'
loop_
_symmetry_equiv_pos_site_id
_symmetry_equiv_pos_as_xyz
1 x,y,z
2 -x,-y,-z
_cell_length_a                   5.5503(7)
_cell_length_b                   7.9255(10)
_cell_length_c                   9.9922(13)
_cell_angle_alpha                76.891(2)
_cell_angle_beta                 89.395(2)
_cell_angle_gamma                82.459(2)
_cell_volume                     424.305
_exptl_crystal_colour            'pale yellow'
_exptl_crystal_description       plate
_cell_formula_units_Z            2
_exptl_crystal_recrystallization_method '95% ethanol'
loop_
_atom_site_label
_atom_site_type_symbol
_atom_site_fract_x
_atom_site_fract_y
_atom_site_fract_z
N1 N 0.08667(15) 0.92870(11) 0.69638(9)
N2 N 0.27911(15) 0.85279(11) 0.49849(9)
H1 H 0.1642 0.9029 0.4369
C1 C 0.11815(19) 0.90864(13) 0.83188(11)
H2 H -0.0095 0.9582 0.8808
C2 C 0.3261(2) 0.81965(13) 0.90595(10)
H3 H 0.3371 0.8108 1.0022
C3 C 0.51664(19) 0.74417(13) 0.83937(10)
H4 H 0.6604 0.6845 0.8881
C4 C 0.49060(18) 0.75862(12) 0.69872(11)
C5 C 0.27095(18) 0.85312(12) 0.63459(10)
C6 C 0.63060(18) 0.70142(13) 0.59261(10)
H5 H 0.7871 0.6345 0.6033
C7 C 0.49783(17) 0.76064(12) 0.47286(10)
C8 C 0.55240(18) 0.73840(13) 0.33155(10)
H6 H 0.5468 0.8552 0.2688
H7 H 0.4248 0.6788 0.3006
C9 C 0.79986(18) 0.63344(13) 0.32113(10)
H8 H 0.9275 0.6905 0.3551
H9 H 0.8036 0.5148 0.3808
C10 C 0.8555(2) 0.61827(14) 0.17499(11)
H10 H 1.0156 0.5500 0.1732
H11 H 0.8553 0.7353 0.1159
H12 H 0.7315 0.5597 0.1415
loop_
_geom_bond_atom_site_label_1
_geom_bond_atom_site_label_2
_geom_bond_site_symmetry_1
_geom_bond_site_symmetry_2
N1 C1 1_555 1_555
N2 H1 1_555 1_555
C1 H2 1_555 1_555
C2 C1 1_555 1_555
H3 C2 1_555 1_555
C3 C2 1_555 1_555
H4 C3 1_555 1_555
C4 C3 1_555 1_555
C5 N1 1_555 1_555
C6 C4 1_555 1_555
H5 C6 1_555 1_555
C7 N2 1_555 1_555
C8 C7 1_555 1_555
H6 C8 1_555 1_555
H7 C8 1_555 1_555
C9 C8 1_555 1_555
H8 C9 1_555 1_555
H9 C9 1_555 1_555
C10 C9 1_555 1_555
H10 C10 1_555 1_555
H11 C10 1_555 1_555
H12 C10 1_555 1_555
N2 C5 1_555 1_555
C4 C5 1_555 1_555
C6 C7 1_555 1_555

#END
