
#######################################################################
#
#                 Cambridge Crystallographic Data Centre
#                                CCDC 
#
#######################################################################
#
# If this CIF has been generated from an entry in the Cambridge 
# Structural Database, then it will include bibliographic, chemical, 
# crystal, experimental, refinement or atomic coordinate data resulting 
# from the CCDC's data processing and validation procedures.
#
#######################################################################

data_FIXNUY
_chemical_formula_moiety         'C17 H31 N5 O2'
_chemical_name_systematic        
N-butyl-N'-[4-(dibutylamino)-6-hydroxypyrimidin-2-yl]urea
_symmetry_cell_setting           triclinic
_symmetry_space_group_name_H-M   'P -1'
_symmetry_Int_Tables_number      2
_space_group_name_Hall           '-P 1'
loop_
_symmetry_equiv_pos_site_id
_symmetry_equiv_pos_as_xyz
1 x,y,z
2 -x,-y,-z
_cell_length_a                   5.1924(6)
_cell_length_b                   11.8545(15)
_cell_length_c                   15.3976(10)
_cell_angle_alpha                97.911(8)
_cell_angle_beta                 93.859(7)
_cell_angle_gamma                102.021(10)
_cell_volume                     913.652
_exptl_crystal_colour            colorless
_exptl_crystal_description       needle
_cell_formula_units_Z            2
loop_
_atom_site_label
_atom_site_type_symbol
_atom_site_fract_x
_atom_site_fract_y
_atom_site_fract_z
O1 O 0.4210(3) 0.73906(14) 0.40907(10)
H1 H 0.302(7) 0.749(3) 0.443(3)
N1 N 0.2606(3) 0.54967(16) 0.42880(10)
C1 C 0.4297(4) 0.6272(2) 0.39272(12)
O2 O -0.0851(3) 0.19193(14) 0.49159(10)
N2 N 0.4362(3) 0.39695(17) 0.35123(10)
C2 C 0.6118(4) 0.5967(2) 0.33724(13)
H2 H 0.7305 0.6528 0.3147
N3 N 0.7706(3) 0.43578(17) 0.26052(11)
C3 C 0.6090(4) 0.4777(2) 0.31666(12)
N4 N 0.1006(4) 0.35975(16) 0.44440(11)
H3 H -0.010(6) 0.385(3) 0.477(2)
C4 C 0.2775(4) 0.43812(19) 0.40626(12)
N5 N 0.2383(4) 0.18638(17) 0.40094(12)
H4 H 0.357(5) 0.238(2) 0.3762(17)
C5 C 0.9559(4) 0.5151(2) 0.21746(13)
H5 H 1.0988 0.4779 0.2009
H6 H 1.0320 0.5849 0.2595
C6 C 0.8326(4) 0.5513(2) 0.13520(13)
H7 H 0.7632 0.4824 0.0916
H8 H 0.6862 0.5867 0.1507
C7 C 1.0345(5) 0.6375(2) 0.09565(15)
H9 H 1.1746 0.6001 0.0765
H10 H 1.1131 0.7037 0.1407
C8 C 0.9110(6) 0.6812(2) 0.01754(16)
H11 H 0.8353 0.6161 -0.0276
H12 H 1.0448 0.7347 -0.0054
H13 H 0.7752 0.7201 0.0365
C9 C 0.7518(4) 0.3104(2) 0.23742(13)
H14 H 0.7261 0.2745 0.2900
H15 H 0.9182 0.2981 0.2172
C10 C 0.5284(4) 0.2490(2) 0.16638(14)
H16 H 0.3598 0.2546 0.1882
H17 H 0.5450 0.2880 0.1150
C11 C 0.5330(5) 0.1208(2) 0.13976(14)
H18 H 0.6925 0.1159 0.1114
H19 H 0.5400 0.0846 0.1924
C12 C 0.2942(5) 0.0532(2) 0.07762(16)
H20 H 0.2933 0.0848 0.0235
H21 H 0.1351 0.0595 0.1045
H22 H 0.3032 -0.0274 0.0657
C13 C 0.0812(4) 0.2423(2) 0.44691(13)
C14 C 0.2626(5) 0.0680(2) 0.41028(14)
H23 H 0.1750 0.0454 0.4609
H24 H 0.4484 0.0676 0.4216
C15 C 0.1447(5) -0.0218(2) 0.32967(15)
H25 H 0.2224 0.0040 0.2783
H26 H 0.1920 -0.0952 0.3368
C16 C -0.1540(5) -0.0426(2) 0.31330(15)
H27 H -0.2034 0.0318 0.3120
H28 H -0.2333 -0.0764 0.3617
C17 C -0.2640(5) -0.1237(2) 0.22674(16)
H29 H -0.1973 -0.0877 0.1782
H30 H -0.4538 -0.1379 0.2210
H31 H -0.2100 -0.1964 0.2267
loop_
_geom_bond_atom_site_label_1
_geom_bond_atom_site_label_2
_geom_bond_site_symmetry_1
_geom_bond_site_symmetry_2
O1 H1 1_555 1_555
N1 C1 1_555 1_555
C1 O1 1_555 1_555
O2 C13 1_555 1_555
N2 C3 1_555 1_555
C2 C1 1_555 1_555
H2 C2 1_555 1_555
N3 C3 1_555 1_555
C3 C2 1_555 1_555
N4 H3 1_555 1_555
C4 N1 1_555 1_555
N5 H4 1_555 1_555
C5 N3 1_555 1_555
H5 C5 1_555 1_555
H6 C5 1_555 1_555
C6 C5 1_555 1_555
H7 C6 1_555 1_555
H8 C6 1_555 1_555
C7 C6 1_555 1_555
H9 C7 1_555 1_555
H10 C7 1_555 1_555
C8 C7 1_555 1_555
H11 C8 1_555 1_555
H12 C8 1_555 1_555
H13 C8 1_555 1_555
C9 N3 1_555 1_555
H14 C9 1_555 1_555
H15 C9 1_555 1_555
C10 C9 1_555 1_555
H16 C10 1_555 1_555
H17 C10 1_555 1_555
C11 C10 1_555 1_555
H18 C11 1_555 1_555
H19 C11 1_555 1_555
C12 C11 1_555 1_555
H20 C12 1_555 1_555
H21 C12 1_555 1_555
H22 C12 1_555 1_555
C13 N4 1_555 1_555
C14 N5 1_555 1_555
H23 C14 1_555 1_555
H24 C14 1_555 1_555
C15 C14 1_555 1_555
H25 C15 1_555 1_555
H26 C15 1_555 1_555
C16 C15 1_555 1_555
H27 C16 1_555 1_555
H28 C16 1_555 1_555
C17 C16 1_555 1_555
H29 C17 1_555 1_555
H30 C17 1_555 1_555
H31 C17 1_555 1_555
N2 C4 1_555 1_555
N4 C4 1_555 1_555
N5 C13 1_555 1_555

#END
