
#######################################################################
#
#                 Cambridge Crystallographic Data Centre
#                                CCDC 
#
#######################################################################
#
# If this CIF has been generated from an entry in the Cambridge 
# Structural Database, then it will include bibliographic, chemical, 
# crystal, experimental, refinement or atomic coordinate data resulting 
# from the CCDC's data processing and validation procedures.
#
#######################################################################

data_FIXNOS
_chemical_formula_moiety         'C17 H31 N5 O2,C16 H20 N4 O2'
_chemical_name_systematic        
"N,N'-(1,8-naphthyridine-2,7-diyl)bis(2-methylpropanamide) N-butyl-N'-[4-(dibutylamino)-6-oxo-1,6-dihydropyrimidin-2-yl]urea"
_symmetry_cell_setting           monoclinic
_symmetry_space_group_name_H-M   'P 21/n'
_symmetry_Int_Tables_number      14
_space_group_name_Hall           '-P 2yn'
loop_
_symmetry_equiv_pos_site_id
_symmetry_equiv_pos_as_xyz
1 x,y,z
2 1/2-x,1/2+y,1/2-z
3 -x,-y,-z
4 1/2+x,1/2-y,1/2+z
_cell_length_a                   9.52157(15)
_cell_length_b                   15.8558(3)
_cell_length_c                   22.3751(3)
_cell_angle_alpha                90
_cell_angle_beta                 92.0659(13)
_cell_angle_gamma                90
_cell_volume                     3375.82
_exptl_crystal_colour            colorless
_exptl_crystal_description       needle
_cell_formula_units_Z            4
loop_
_atom_site_label
_atom_site_type_symbol
_atom_site_fract_x
_atom_site_fract_y
_atom_site_fract_z
O1 O 1.02853(12) 0.69383(7) 0.21935(5)
O2 O 1.24301(12) 1.30674(7) 0.13318(5)
N1 N 1.08899(13) 1.20700(8) 0.09501(5)
N2 N 1.03190(12) 1.07190(8) 0.12289(5)
N3 N 0.97252(12) 0.93378(8) 0.14584(5)
N4 N 0.91129(13) 0.79524(8) 0.16371(5)
C1 C 1.2330(2) 1.40591(12) 0.03320(9)
H1 H 1.2318 1.4422 0.0675
H2 H 1.2120 1.4382 -0.0023
H3 H 1.3243 1.3808 0.0306
C2 C 0.97597(17) 1.37490(11) 0.04400(8)
H4 H 0.9563 1.4112 0.0104
H5 H 0.9717 1.4069 0.0803
H6 H 0.9077 1.3304 0.0443
C3 C 1.12329(15) 1.33692(10) 0.03920(7)
H7 H 1.1242 1.3009 0.0036
C4 C 1.15977(15) 1.28323(9) 0.09405(7)
C5 C 1.10173(14) 1.14265(9) 0.13717(6)
C6 C 1.18396(15) 1.15347(10) 0.19103(6)
H8 H 1.2313 1.2038 0.1990
C7 C 1.19137(15) 1.08832(10) 0.23038(6)
H9 H 1.2443 1.0938 0.2659
C8 C 1.11933(14) 1.01249(9) 0.21766(6)
C9 C 1.04119(14) 1.00636(9) 0.16250(6)
C10 C 1.12357(15) 0.94177(10) 0.25572(6)
H10 H 1.1719 0.9447 0.2925
C11 C 1.05724(16) 0.86920(10) 0.23890(6)
H11 H 1.0603 0.8219 0.2635
C12 C 0.98306(14) 0.86754(9) 0.18256(6)
C13 C 0.93419(16) 0.71426(10) 0.18383(6)
C14 C 0.82919(17) 0.64918(10) 0.15945(7)
H12 H 0.7735 0.6741 0.1263
C15 C 0.7316(2) 0.62430(14) 0.20891(9)
H13 H 0.6803 0.6730 0.2214
H14 H 0.7861 0.6022 0.2423
H15 H 0.6669 0.5820 0.1942
C16 C 0.9072(2) 0.57286(12) 0.13682(9)
H16 H 0.9638 0.5490 0.1689
H17 H 0.9665 0.5897 0.1051
H18 H 0.8408 0.5316 0.1221
H19 H 0.854(2) 0.8000(13) 0.1307(9)
H20 H 1.033(2) 1.1952(12) 0.0630(9)
O3 O 0.92851(11) 1.18843(7) -0.00985(5)
O4 O 0.72949(11) 0.79169(7) 0.06618(4)
N5 N 0.74693(14) 1.14490(8) -0.06999(6)
N6 N 0.83843(13) 1.05942(8) 0.00759(5)
N7 N 0.78505(12) 0.92293(8) 0.03342(5)
N8 N 0.65935(12) 0.98884(8) -0.04585(5)
N9 N 0.49992(12) 0.91434(8) -0.10500(5)
C17 C 0.52629(19) 1.43028(11) -0.08001(9)
H21 H 0.5218 1.4815 -0.1029
H22 H 0.5603 1.4426 -0.0400
H23 H 0.4342 1.4058 -0.0788
C18 C 0.62537(17) 1.36861(10) -0.10890(7)
H24 H 0.5922 1.3577 -0.1497
H25 H 0.7180 1.3938 -0.1104
C19 C 0.63602(16) 1.28578(10) -0.07494(7)
H26 H 0.5436 1.2602 -0.0740
H27 H 0.6676 1.2969 -0.0340
C20 C 0.73726(16) 1.22396(10) -0.10304(7)
H28 H 0.7056 1.2125 -0.1439
H29 H 0.8298 1.2494 -0.1040
C21 C 0.84028(15) 1.13495(9) -0.02489(6)
C22 C 0.75625(14) 0.98941(9) -0.00298(6)
C23 C 0.70878(14) 0.84762(9) 0.02778(6)
C24 C 0.61347(14) 0.84295(9) -0.02146(6)
H30 H 0.5660 0.7929 -0.0302
C25 C 0.59077(14) 0.91390(9) -0.05710(6)
C26 C 0.44243(15) 0.99309(9) -0.12962(6)
H31 H 0.4447 1.0352 -0.0981
H32 H 0.3447 0.9838 -0.1415
C27 C 0.51750(15) 1.02865(10) -0.18288(6)
H33 H 0.5176 0.9869 -0.2146
H34 H 0.6144 1.0411 -0.1712
C28 C 0.44519(16) 1.10900(11) -0.20595(7)
H35 H 0.3504 1.0954 -0.2201
H36 H 0.4385 1.1487 -0.1732
C29 C 0.52320(18) 1.15033(12) -0.25636(8)
H37 H 0.5240 1.1128 -0.2900
H38 H 0.6180 1.1624 -0.2430
H39 H 0.4768 1.2019 -0.2679
C30 C 0.45643(14) 0.83559(9) -0.13416(6)
H40 H 0.5277 0.7932 -0.1255
H41 H 0.4525 0.8445 -0.1771
C31 C 0.31463(15) 0.80132(10) -0.11564(7)
H42 H 0.2417 0.8422 -0.1256
H43 H 0.3166 0.7928 -0.0727
C32 C 0.28036(16) 0.71795(10) -0.14717(7)
H44 H 0.1813 0.7058 -0.1432
H45 H 0.2971 0.7242 -0.1895
C33 C 0.36597(18) 0.64355(11) -0.12283(8)
H46 H 0.3395 0.5934 -0.1445
H47 H 0.3482 0.6359 -0.0812
H48 H 0.4642 0.6544 -0.1274
H49 H 0.8475(18) 0.9271(11) 0.0638(8)
H50 H 0.691(2) 1.1025(13) -0.0772(8)
H51 H 0.897(2) 1.0577(13) 0.0386(9)
loop_
_geom_bond_atom_site_label_1
_geom_bond_atom_site_label_2
_geom_bond_site_symmetry_1
_geom_bond_site_symmetry_2
O1 C13 1_555 1_555
O2 C4 1_555 1_555
N1 C4 1_555 1_555
N2 C5 1_555 1_555
N3 C9 1_555 1_555
N4 C12 1_555 1_555
C1 H1 1_555 1_555
H2 C1 1_555 1_555
H3 C1 1_555 1_555
C2 H4 1_555 1_555
H5 C2 1_555 1_555
H6 C2 1_555 1_555
C3 C1 1_555 1_555
H7 C3 1_555 1_555
C4 C3 1_555 1_555
C5 N1 1_555 1_555
C6 C5 1_555 1_555
H8 C6 1_555 1_555
C7 C6 1_555 1_555
H9 C7 1_555 1_555
C8 C7 1_555 1_555
C9 N2 1_555 1_555
C10 C8 1_555 1_555
H10 C10 1_555 1_555
C11 C10 1_555 1_555
H11 C11 1_555 1_555
C12 N3 1_555 1_555
C13 N4 1_555 1_555
C14 C13 1_555 1_555
H12 C14 1_555 1_555
C15 C14 1_555 1_555
H13 C15 1_555 1_555
H14 C15 1_555 1_555
H15 C15 1_555 1_555
C16 C14 1_555 1_555
H16 C16 1_555 1_555
H17 C16 1_555 1_555
H18 C16 1_555 1_555
H19 N4 1_555 1_555
H20 N1 1_555 1_555
O3 C21 1_555 1_555
O4 C23 1_555 1_555
N5 C20 1_555 1_555
N6 C21 1_555 1_555
N7 C22 1_555 1_555
N8 C22 1_555 1_555
N9 C25 1_555 1_555
C17 H21 1_555 1_555
H22 C17 1_555 1_555
H23 C17 1_555 1_555
C18 C17 1_555 1_555
H24 C18 1_555 1_555
H25 C18 1_555 1_555
C19 C18 1_555 1_555
H26 C19 1_555 1_555
H27 C19 1_555 1_555
C20 C19 1_555 1_555
H28 C20 1_555 1_555
H29 C20 1_555 1_555
C21 N5 1_555 1_555
C22 N6 1_555 1_555
C23 N7 1_555 1_555
C24 C23 1_555 1_555
H30 C24 1_555 1_555
C25 N8 1_555 1_555
C26 N9 1_555 1_555
H31 C26 1_555 1_555
H32 C26 1_555 1_555
C27 C26 1_555 1_555
H33 C27 1_555 1_555
H34 C27 1_555 1_555
C28 C27 1_555 1_555
H35 C28 1_555 1_555
H36 C28 1_555 1_555
C29 C28 1_555 1_555
H37 C29 1_555 1_555
H38 C29 1_555 1_555
H39 C29 1_555 1_555
C30 N9 1_555 1_555
H40 C30 1_555 1_555
H41 C30 1_555 1_555
C31 C30 1_555 1_555
H42 C31 1_555 1_555
H43 C31 1_555 1_555
C32 C31 1_555 1_555
H44 C32 1_555 1_555
H45 C32 1_555 1_555
C33 C32 1_555 1_555
H46 C33 1_555 1_555
H47 C33 1_555 1_555
H48 C33 1_555 1_555
H49 N7 1_555 1_555
H50 N5 1_555 1_555
H51 N6 1_555 1_555
C2 C3 1_555 1_555
C8 C9 1_555 1_555
C11 C12 1_555 1_555
C24 C25 1_555 1_555

#END
