
#######################################################################
#
#                 Cambridge Crystallographic Data Centre
#                                CCDC 
#
#######################################################################
#
# If this CIF has been generated from an entry in the Cambridge 
# Structural Database, then it will include bibliographic, chemical, 
# crystal, experimental, refinement or atomic coordinate data resulting 
# from the CCDC's data processing and validation procedures.
#
#######################################################################

data_FIXPIL
_chemical_formula_moiety         'C11 H10 N2 O3'
_chemical_name_systematic        4-Acetyl-3-(p-tolyl)sydnone
_symmetry_cell_setting           orthorhombic
_symmetry_space_group_name_H-M   'P 21 21 21'
_symmetry_Int_Tables_number      19
_space_group_name_Hall           'P 2ac 2ab'
loop_
_symmetry_equiv_pos_site_id
_symmetry_equiv_pos_as_xyz
1 x,y,z
2 1/2+x,1/2-y,-z
3 -x,1/2+y,1/2-z
4 1/2-x,-y,1/2+z
_cell_length_a                   10.995(4)
_cell_length_b                   15.158(2)
_cell_length_c                   6.530(3)
_cell_angle_alpha                90
_cell_angle_beta                 90
_cell_angle_gamma                90
_cell_volume                     1088.3
_cell_formula_units_Z            4
loop_
_atom_site_label
_atom_site_type_symbol
_atom_site_fract_x
_atom_site_fract_y
_atom_site_fract_z
C1 C 0.4584(2) 0.0797(2) 0.0954(5)
C2 C 0.3923(3) 0.0647(2) 0.2696(5)
C3 C 0.2690(3) 0.0897(2) 0.2695(6)
C4 C 0.2194(2) 0.1285(2) 0.0975(5)
C5 C 0.2903(3) 0.1425(2) -0.0738(5)
C6 C 0.4124(2) 0.1180(2) -0.0751(5)
C7 C 0.6418(2) -0.0228(2) 0.1042(5)
C8 C 0.7682(3) -0.0059(2) 0.1028(5)
C9 C 0.5782(3) -0.1069(2) 0.0989(5)
C10 C 0.0869(2) 0.1570(2) 0.1017(6)
C11 C 0.6572(3) -0.1879(2) 0.0982(7)
N1 N 0.5881(2) 0.0572(1) 0.0999(4)
N2 N 0.6607(2) 0.1245(2) 0.0953(5)
O1 O 0.7753(2) 0.0875(2) 0.0988(4)
O2 O 0.8603(2) -0.0481(2) 0.1040(4)
O3 O 0.4680(2) -0.1114(1) 0.0936(4)
H1 H 0.425(2) 0.041(2) 0.408(4)
H2 H 0.226(2) 0.083(2) 0.400(4)
H3 H 0.259(2) 0.163(2) -0.207(4)
H4 H 0.459(2) 0.127(1) -0.198(3)
H5 H 0.028(2) 0.106(2) 0.113(4)
H6 H 0.075(2) 0.199(2) 0.236(5)
H7 H 0.064(2) 0.183(2) -0.026(4)
H8 H 0.673(3) -0.200(2) 0.232(5)
H9 H 0.747(3) -0.170(2) 0.047(6)
H10 H 0.613(2) -0.234(2) 0.066(4)
loop_
_geom_bond_atom_site_label_1
_geom_bond_atom_site_label_2
_geom_bond_site_symmetry_1
_geom_bond_site_symmetry_2
C1 C2 1_555 1_555
C2 C3 1_555 1_555
C3 C4 1_555 1_555
C4 C5 1_555 1_555
C5 C6 1_555 1_555
C6 C1 1_555 1_555
C7 C8 1_555 1_555
C8 O1 1_555 1_555
C9 C7 1_555 1_555
C10 C4 1_555 1_555
C11 C9 1_555 1_555
N1 C1 1_555 1_555
N2 N1 1_555 1_555
O1 N2 1_555 1_555
O2 C8 1_555 1_555
O3 C9 1_555 1_555
H1 C2 1_555 1_555
H2 C3 1_555 1_555
H3 C5 1_555 1_555
H4 C6 1_555 1_555
H5 C10 1_555 1_555
H6 C10 1_555 1_555
H7 C10 1_555 1_555
H8 C11 1_555 1_555
H9 C11 1_555 1_555
H10 C11 1_555 1_555
C7 N1 1_555 1_555

#END
