
#######################################################################
#
#                 Cambridge Crystallographic Data Centre
#                                CCDC 
#
#######################################################################
#
# If this CIF has been generated from an entry in the Cambridge 
# Structural Database, then it will include bibliographic, chemical, 
# crystal, experimental, refinement or atomic coordinate data resulting 
# from the CCDC's data processing and validation procedures.
#
#######################################################################

data_FIXSOW
_chemical_formula_moiety         'C4 H7 N2 P1'
_chemical_name_systematic        3,5-Dimethyl-1H-1,2,4-diazaphosphole
_symmetry_cell_setting           triclinic
_symmetry_space_group_name_H-M   'P -1'
_symmetry_Int_Tables_number      2
_space_group_name_Hall           '-P 1'
loop_
_symmetry_equiv_pos_site_id
_symmetry_equiv_pos_as_xyz
1 x,y,z
2 -x,-y,-z
_cell_length_a                   8.6220(5)
_cell_length_b                   9.8843(6)
_cell_length_c                   15.4697(10)
_cell_angle_alpha                80.166(4)
_cell_angle_beta                 89.008(4)
_cell_angle_gamma                75.641(4)
_cell_volume                     1257.98
_exptl_crystal_colour            colorless
_exptl_crystal_description       rod
_cell_formula_units_Z            8
loop_
_atom_site_label
_atom_site_type_symbol
_atom_site_fract_x
_atom_site_fract_y
_atom_site_fract_z
P1 P 0.9306(3) 0.6679(2) 0.63083(16)
N1 N 0.8411(7) 0.4437(6) 0.6138(4)
N2 N 0.9233(7) 0.4129(6) 0.6913(4)
H1 H 0.9388 0.3314 0.7246
C1 C 0.7479(11) 0.6238(10) 0.4864(6)
H2 H 0.7069 0.5492 0.4707
H3 H 0.8214 0.6491 0.4430
H4 H 0.6610 0.7049 0.4895
C2 C 0.8326(8) 0.5742(7) 0.5735(5)
C3 C 0.9779(8) 0.5168(7) 0.7119(4)
C4 C 1.0668(11) 0.4937(9) 0.7953(5)
H5 H 1.0542 0.4080 0.8312
H6 H 1.0260 0.5722 0.8252
H7 H 1.1782 0.4858 0.7840
P2 P 0.5580(2) 0.0077(2) 0.64848(13)
N3 N 0.6653(7) 0.2293(6) 0.6227(4)
H8 H 0.7139 0.2925 0.5998
N4 N 0.5801(7) 0.2400(6) 0.6956(4)
C5 C 0.7622(10) 0.0905(9) 0.5081(5)
H9 H 0.8137 0.1662 0.4907
H10 H 0.6911 0.0880 0.4616
H11 H 0.8417 0.0020 0.5200
C6 C 0.6692(7) 0.1142(7) 0.5886(4)
C7 C 0.5148(8) 0.1301(6) 0.7182(4)
C8 C 0.4213(10) 0.1255(8) 0.8007(5)
H12 H 0.4521 0.1846 0.8370
H13 H 0.4431 0.0298 0.8318
H14 H 0.3090 0.1593 0.7862
P3 P 0.9408(3) -0.1207(2) 0.85958(17)
N5 N 0.9283(7) 0.1410(5) 0.8038(3)
N6 N 0.8461(6) 0.1371(5) 0.8782(3)
H15 H 0.8006 0.2121 0.8990
C9 C 1.0776(10) 0.0015(10) 0.7025(6)
H16 H 1.0535 0.0914 0.6639
H17 H 1.0479 -0.0678 0.6741
H18 H 1.1903 -0.0275 0.7167
C10 C 0.9870(8) 0.0144(7) 0.7839(4)
C11 C 0.8411(8) 0.0089(7) 0.9167(4)
C12 C 0.7494(10) -0.0099(11) 1.0001(5)
H19 H 0.8004 0.0186 1.0461
H20 H 0.7480 -0.1078 1.0165
H21 H 0.6416 0.0473 0.9906
P4 P 0.5470(3) 0.6965(2) 0.85019(16)
N7 N 0.5822(7) 0.4587(5) 0.7994(4)
H22 H 0.5756 0.3960 0.7682
N8 N 0.6632(7) 0.4257(6) 0.8768(4)
C13 C 0.4281(11) 0.6422(9) 0.6874(6)
H23 H 0.4503 0.5653 0.6549
H24 H 0.4643 0.7203 0.6555
H25 H 0.3149 0.6715 0.6958
C14 C 0.5138(8) 0.5943(6) 0.7752(5)
C15 C 0.6562(9) 0.5392(8) 0.9126(5)
C16 C 0.7414(13) 0.5198(12) 0.9996(6)
H26 H 0.7853 0.4205 1.0205
H27 H 0.6670 0.5589 1.0412
H28 H 0.8263 0.5675 0.9927
loop_
_geom_bond_atom_site_label_1
_geom_bond_atom_site_label_2
_geom_bond_site_symmetry_1
_geom_bond_site_symmetry_2
P1 C2 1_555 1_555
N1 N2 1_555 1_555
N2 H1 1_555 1_555
C1 H2 1_555 1_555
H3 C1 1_555 1_555
H4 C1 1_555 1_555
C2 N1 1_555 1_555
C3 P1 1_555 1_555
C4 C3 1_555 1_555
H5 C4 1_555 1_555
H6 C4 1_555 1_555
H7 C4 1_555 1_555
P2 C6 1_555 1_555
N3 H8 1_555 1_555
N4 N3 1_555 1_555
C5 H9 1_555 1_555
H10 C5 1_555 1_555
H11 C5 1_555 1_555
C6 N3 1_555 1_555
C7 P2 1_555 1_555
C8 C7 1_555 1_555
H12 C8 1_555 1_555
H13 C8 1_555 1_555
H14 C8 1_555 1_555
P3 C10 1_555 1_555
N5 N6 1_555 1_555
N6 H15 1_555 1_555
C9 H16 1_555 1_555
H17 C9 1_555 1_555
H18 C9 1_555 1_555
C10 N5 1_555 1_555
C11 P3 1_555 1_555
C12 C11 1_555 1_555
H19 C12 1_555 1_555
H20 C12 1_555 1_555
H21 C12 1_555 1_555
P4 C14 1_555 1_555
N7 H22 1_555 1_555
N8 N7 1_555 1_555
C13 H23 1_555 1_555
H24 C13 1_555 1_555
H25 C13 1_555 1_555
C14 N7 1_555 1_555
C15 P4 1_555 1_555
C16 C15 1_555 1_555
H26 C16 1_555 1_555
H27 C16 1_555 1_555
H28 C16 1_555 1_555
N2 C3 1_555 1_555
C1 C2 1_555 1_555
N4 C7 1_555 1_555
C5 C6 1_555 1_555
N6 C11 1_555 1_555
C9 C10 1_555 1_555
N8 C15 1_555 1_555
C13 C14 1_555 1_555

#END
