
#######################################################################
#
#                 Cambridge Crystallographic Data Centre
#                                CCDC 
#
#######################################################################
#
# If this CIF has been generated from an entry in the Cambridge 
# Structural Database, then it will include bibliographic, chemical, 
# crystal, experimental, refinement or atomic coordinate data resulting 
# from the CCDC's data processing and validation procedures.
#
#######################################################################

data_FIXSUB
_chemical_formula_moiety         'C26 H33 N1 O4'
_chemical_name_systematic        
3,3,6,6,10-Pentamethyl-9-(3,4-dimethoxyphenyl)-1,8-dioxo-1,2,3,4,5,6,7,8,9,10-decahydroacridine
_symmetry_cell_setting           monoclinic
_symmetry_space_group_name_H-M   'P 21/c'
_symmetry_Int_Tables_number      14
_space_group_name_Hall           '-P 2ybc'
loop_
_symmetry_equiv_pos_site_id
_symmetry_equiv_pos_as_xyz
1 x,y,z
2 -x,1/2+y,1/2-z
3 -x,-y,-z
4 x,1/2-y,1/2+z
_cell_length_a                   7.519(2)
_cell_length_b                   28.933(5)
_cell_length_c                   10.654(2)
_cell_angle_alpha                90
_cell_angle_beta                 91.78(2)
_cell_angle_gamma                90
_cell_volume                     2316.63
_exptl_crystal_colour            yellow
_exptl_crystal_description       flakes
_chemical_melting_point          '197.7-198.9 deg.C'
_cell_formula_units_Z            4
_exptl_crystal_recrystallization_method '95% ethanol'
_exptl_crystal_preparation       'irradiated product'
loop_
_atom_site_label
_atom_site_type_symbol
_atom_site_fract_x
_atom_site_fract_y
_atom_site_fract_z
O1 O 0.7726(2) 0.48598(6) 0.75724(16)
O2 O 0.7479(2) 0.33394(5) 0.99084(14)
O3 O 0.6121(2) 0.30163(5) 0.39254(14)
O4 O 0.3359(2) 0.35032(5) 0.43780(14)
N1 N 0.2342(8) 0.42697(15) 0.9182(7)
C1 C 0.3403(3) 0.46025(7) 0.85881(18)
C2 C 0.2453(3) 0.50531(7) 0.8339(2)
H1 H 0.2445 0.5229 0.9114
H2 H 0.1226 0.4987 0.8093
C3 C 0.3268(3) 0.53492(7) 0.7328(2)
C4 C 0.5257(3) 0.53714(8) 0.7603(2)
H3 H 0.5811 0.5529 0.6913
H4 H 0.5469 0.5556 0.8352
C5 C 0.6149(3) 0.49091(8) 0.7791(2)
C6 C 0.5100(3) 0.45285(7) 0.82799(18)
C7 C 0.5973(3) 0.40610(6) 0.84425(18)
H5 H 0.7183 0.4109 0.8786
C8 C 0.4968(3) 0.37821(7) 0.93753(17)
C9 C 0.5870(3) 0.33942(7) 1.00027(19)
C10 C 0.4794(3) 0.30779(8) 1.0799(2)
H6 H 0.4921 0.3177 1.1667
H7 H 0.5280 0.2768 1.0746
C11 C 0.2834(3) 0.30608(7) 1.0434(2)
C12 C 0.2152(3) 0.35568(8) 1.04086(19)
H8 H 0.0937 0.3559 1.0075
H9 H 0.2142 0.3674 1.1261
C13 C 0.3259(3) 0.38703(7) 0.96312(18)
C14 C 0.6102(3) 0.37939(7) 0.72177(18)
C15 C 0.7568(3) 0.35339(7) 0.6944(2)
H10 H 0.8553 0.3538 0.7494
C16 C 0.7613(3) 0.32665(7) 0.5871(2)
H11 H 0.8614 0.3088 0.5721
C17 C 0.6206(3) 0.32604(7) 0.50242(19)
C18 C 0.4695(3) 0.35249(7) 0.52757(19)
C19 C 0.4659(3) 0.37807(7) 0.63565(19)
H12 H 0.3644 0.3951 0.6523
C20 C 0.7662(4) 0.27589(11) 0.3606(3)
H13 H 0.7432 0.2597 0.2831
H14 H 0.7944 0.2540 0.4261
H15 H 0.8647 0.2966 0.3512
C21 C 0.1796(3) 0.37515(12) 0.4595(3)
H16 H 0.0958 0.3703 0.3910
H17 H 0.2069 0.4075 0.4662
H18 H 0.1292 0.3647 0.5362
C22 C 0.0694(5) 0.43824(12) 0.9690(4)
H19 H 0.0131 0.4106 0.9979
H20 H -0.0053 0.4526 0.9055
H21 H 0.0878 0.4592 1.0380
C23 C 0.2440(3) 0.58321(7) 0.7373(2)
H22 H 0.2700 0.5969 0.8179
H23 H 0.1175 0.5809 0.7241
H24 H 0.2927 0.6021 0.6728
C24 C 0.2873(4) 0.51387(9) 0.6029(2)
H25 H 0.3300 0.5342 0.5394
H26 H 0.1613 0.5097 0.5909
H27 H 0.3460 0.4845 0.5971
C25 C 0.1815(4) 0.27865(9) 1.1403(2)
H28 H 0.2187 0.2469 1.1388
H29 H 0.0562 0.2805 1.1206
H30 H 0.2054 0.2913 1.2223
C26 C 0.2531(3) 0.28382(8) 0.9143(2)
H31 H 0.3192 0.3004 0.8532
H32 H 0.1287 0.2848 0.8914
H33 H 0.2925 0.2523 0.9173
O5? O 0.2495(10) 0.4266(3) 0.9186(15)
loop_
_geom_bond_atom_site_label_1
_geom_bond_atom_site_label_2
_geom_bond_site_symmetry_1
_geom_bond_site_symmetry_2
O1 C5 1_555 1_555
O2 C9 1_555 1_555
O3 C17 1_555 1_555
O4 C18 1_555 1_555
N1 C1 1_555 1_555
C1 C2 1_555 1_555
C2 H1 1_555 1_555
H2 C2 1_555 1_555
C3 C2 1_555 1_555
C4 C3 1_555 1_555
H3 C4 1_555 1_555
H4 C4 1_555 1_555
C5 C4 1_555 1_555
C6 C1 1_555 1_555
C7 C6 1_555 1_555
H5 C7 1_555 1_555
C8 C7 1_555 1_555
C9 C8 1_555 1_555
C10 C9 1_555 1_555
H6 C10 1_555 1_555
H7 C10 1_555 1_555
C11 C10 1_555 1_555
C12 C11 1_555 1_555
H8 C12 1_555 1_555
H9 C12 1_555 1_555
C13 N1 1_555 1_555
C14 C7 1_555 1_555
C15 C14 1_555 1_555
H10 C15 1_555 1_555
C16 C15 1_555 1_555
H11 C16 1_555 1_555
C17 C16 1_555 1_555
C18 C17 1_555 1_555
C19 C14 1_555 1_555
H12 C19 1_555 1_555
C20 O3 1_555 1_555
H13 C20 1_555 1_555
H14 C20 1_555 1_555
H15 C20 1_555 1_555
C21 O4 1_555 1_555
H16 C21 1_555 1_555
H17 C21 1_555 1_555
H18 C21 1_555 1_555
C22 N1 1_555 1_555
H19 C22 1_555 1_555
H20 C22 1_555 1_555
H21 C22 1_555 1_555
C23 C3 1_555 1_555
H22 C23 1_555 1_555
H23 C23 1_555 1_555
H24 C23 1_555 1_555
C24 C3 1_555 1_555
H25 C24 1_555 1_555
H26 C24 1_555 1_555
H27 C24 1_555 1_555
C25 C11 1_555 1_555
H28 C25 1_555 1_555
H29 C25 1_555 1_555
H30 C25 1_555 1_555
C26 C11 1_555 1_555
H31 C26 1_555 1_555
H32 C26 1_555 1_555
H33 C26 1_555 1_555
C5 C6 1_555 1_555
C8 C13 1_555 1_555
C12 C13 1_555 1_555
C18 C19 1_555 1_555

#END
