
#######################################################################
#
#                 Cambridge Crystallographic Data Centre
#                                CCDC 
#
#######################################################################
#
# If this CIF has been generated from an entry in the Cambridge 
# Structural Database, then it will include bibliographic, chemical, 
# crystal, experimental, refinement or atomic coordinate data resulting 
# from the CCDC's data processing and validation procedures.
#
#######################################################################

data_FIXTOX
_chemical_formula_moiety         'C32 H24 F6 N2'
_chemical_name_systematic        
8,9-Diethyl-7,10-diphenyl-6,11-bis(trifluoromethyl)dibenzo[b,f][1,4]diazocine
_symmetry_cell_setting           triclinic
_symmetry_space_group_name_H-M   'P -1'
_symmetry_Int_Tables_number      2
_space_group_name_Hall           '-P 1'
loop_
_symmetry_equiv_pos_site_id
_symmetry_equiv_pos_as_xyz
1 x,y,z
2 -x,-y,-z
_cell_length_a                   10.4678(10)
_cell_length_b                   11.7231(11)
_cell_length_c                   11.8283(12)
_cell_angle_alpha                69.655(2)
_cell_angle_beta                 86.031(2)
_cell_angle_gamma                80.188(2)
_cell_volume                     1340.97
_exptl_crystal_colour            colorless
_exptl_crystal_description       prismatic
_cell_formula_units_Z            2
loop_
_atom_site_label
_atom_site_type_symbol
_atom_site_fract_x
_atom_site_fract_y
_atom_site_fract_z
N1 N 0.84030(14) 0.07483(13) 0.36687(13)
N2 N 0.88800(15) 0.26257(14) 0.45401(12)
C1 C 0.76596(14) 0.36976(14) 0.26637(14)
C2 C 0.76758(15) 0.49115(14) 0.18950(14)
C3 C 0.75680(14) 0.52045(14) 0.06483(14)
C4 C 0.74342(14) 0.42856(14) 0.01750(14)
C5 C 0.73885(14) 0.30750(14) 0.09565(14)
C6 C 0.75098(14) 0.27892(14) 0.21995(14)
C7 C 0.74704(16) 0.15102(15) 0.30774(14)
C8 C 0.96492(16) 0.10932(16) 0.35651(14)
C9 C 0.98641(17) 0.20486(17) 0.39402(14)
C10 C 0.78985(17) 0.33287(16) 0.39884(15)
C11 C 1.06993(19) 0.03745(18) 0.32242(17)
H1 H 1.0572 -0.0301 0.3029
C12 C 1.1928(2) 0.0666(2) 0.31765(19)
H2 H 1.2625 0.0198 0.2930
C13 C 1.21289(19) 0.1642(2) 0.34906(19)
H3 H 1.2957 0.1847 0.3431
C14 C 1.11171(18) 0.2318(2) 0.38928(17)
H4 H 1.1268 0.2958 0.4134
C15 C 0.72806(16) 0.20678(15) 0.04811(15)
C16 C 0.82900(18) 0.10915(17) 0.06352(18)
H5 H 0.9040 0.1075 0.1022
C17 C 0.8190(2) 0.0142(2) 0.0218(2)
H6 H 0.8869 -0.0510 0.0328
C18 C 0.7088(3) 0.0165(2) -0.0358(2)
H7 H 0.7023 -0.0472 -0.0640
C19 C 0.6081(3) 0.1121(2) -0.0522(2)
H8 H 0.5339 0.1136 -0.0918
C20 C 0.6170(2) 0.20641(18) -0.00981(19)
H9 H 0.5479 0.2704 -0.0201
C21 C 0.78690(18) 0.58669(15) 0.24077(15)
C22 C 0.6839(2) 0.67466(19) 0.2507(2)
H10 H 0.6016 0.6723 0.2273
C23 C 0.7015(3) 0.7653(2) 0.2944(2)
H11 H 0.6313 0.8233 0.3009
C24 C 0.8213(3) 0.7703(2) 0.3283(2)
H12 H 0.8332 0.8326 0.3563
C25 C 0.9244(3) 0.6839(3) 0.3213(2)
H13 H 1.0059 0.6871 0.3456
C26 C 0.9080(2) 0.5907(2) 0.27777(18)
H14 H 0.9782 0.5318 0.2737
C27 C 0.74004(18) 0.45950(17) -0.11800(15)
H15 H 0.7673 0.3843 -0.1361
H16 H 0.8024 0.5144 -0.1553
C28 C 0.6076(2) 0.5199(2) -0.1748(2)
H17 H 0.5474 0.4626 -0.1459
H18 H 0.6155 0.5436 -0.2609
H19 H 0.5769 0.5916 -0.1531
C29 C 0.76998(17) 0.65028(15) -0.01792(16)
H20 H 0.7284 0.7085 0.0200
H21 H 0.7254 0.6678 -0.0927
C30 C 0.9109(2) 0.66809(19) -0.04613(19)
H22 H 0.9548 0.6538 0.0273
H23 H 0.9143 0.7508 -0.0994
H24 H 0.9524 0.6110 -0.0841
C31 C 0.61473(19) 0.11128(17) 0.33983(18)
C32 C 0.6893(2) 0.3773(2) 0.47990(18)
F1 F 0.66025(17) 0.28434(15) 0.57424(14)
F2 F 0.57998(13) 0.43565(15) 0.42253(13)
F3 F 0.73080(16) 0.45419(16) 0.52366(14)
F4 F 0.61812(17) -0.00480(15) 0.4031(2)
F5 F 0.5387(2) 0.1380(4) 0.24710(19)
F6 F 0.55018(19) 0.1726(2) 0.4079(3)
F7? F 0.6044(12) 0.0283(12) 0.2874(16)
F8? F 0.5300(8) 0.1929(9) 0.2901(13)
F9? F 0.5985(11) 0.0686(16) 0.4506(9)
loop_
_geom_bond_atom_site_label_1
_geom_bond_atom_site_label_2
_geom_bond_site_symmetry_1
_geom_bond_site_symmetry_2
N1 C7 1_555 1_555
N2 C9 1_555 1_555
C1 C2 1_555 1_555
C2 C3 1_555 1_555
C3 C4 1_555 1_555
C4 C5 1_555 1_555
C5 C6 1_555 1_555
C6 C1 1_555 1_555
C7 C6 1_555 1_555
C8 N1 1_555 1_555
C9 C8 1_555 1_555
C10 N2 1_555 1_555
C11 C8 1_555 1_555
H1 C11 1_555 1_555
C12 C11 1_555 1_555
H2 C12 1_555 1_555
C13 C12 1_555 1_555
H3 C13 1_555 1_555
C14 C9 1_555 1_555
H4 C14 1_555 1_555
C15 C5 1_555 1_555
C16 C15 1_555 1_555
H5 C16 1_555 1_555
C17 C16 1_555 1_555
H6 C17 1_555 1_555
C18 C17 1_555 1_555
H7 C18 1_555 1_555
C19 C18 1_555 1_555
H8 C19 1_555 1_555
C20 C15 1_555 1_555
H9 C20 1_555 1_555
C21 C2 1_555 1_555
C22 C21 1_555 1_555
H10 C22 1_555 1_555
C23 C22 1_555 1_555
H11 C23 1_555 1_555
C24 C23 1_555 1_555
H12 C24 1_555 1_555
C25 C24 1_555 1_555
H13 C25 1_555 1_555
C26 C21 1_555 1_555
H14 C26 1_555 1_555
C27 C4 1_555 1_555
H15 C27 1_555 1_555
H16 C27 1_555 1_555
C28 C27 1_555 1_555
H17 C28 1_555 1_555
H18 C28 1_555 1_555
H19 C28 1_555 1_555
C29 C3 1_555 1_555
H20 C29 1_555 1_555
H21 C29 1_555 1_555
C30 C29 1_555 1_555
H22 C30 1_555 1_555
H23 C30 1_555 1_555
H24 C30 1_555 1_555
C31 C7 1_555 1_555
C32 C10 1_555 1_555
F1 C32 1_555 1_555
F2 C32 1_555 1_555
F3 C32 1_555 1_555
F4 C31 1_555 1_555
F5 C31 1_555 1_555
F6 C31 1_555 1_555
C1 C10 1_555 1_555
C13 C14 1_555 1_555
C19 C20 1_555 1_555
C25 C26 1_555 1_555

#END
