
#######################################################################
#
#                 Cambridge Crystallographic Data Centre
#                                CCDC 
#
#######################################################################
#
# If this CIF has been generated from an entry in the Cambridge 
# Structural Database, then it will include bibliographic, chemical, 
# crystal, experimental, refinement or atomic coordinate data resulting 
# from the CCDC's data processing and validation procedures.
#
#######################################################################

data_FIXTIQ
_chemical_formula_moiety         'C29 H39 Br1 Cl1 O10 P1'
_chemical_name_systematic        
1(S)-Bromo-3'(R)-(\a-diethylphosphonyl-4-chlorobenzyloxy)-4(R)-hydroxy-4'(R)-((1R,2S,5R)-menthyloxy)-2-oxo-spiro(3-oxabicyclo(3.2.0)hexane-6,2'-butyrolactone)
_symmetry_cell_setting           monoclinic
_symmetry_space_group_name_H-M   'P 21'
_symmetry_Int_Tables_number      4
_space_group_name_Hall           'P 2yb'
loop_
_symmetry_equiv_pos_site_id
_symmetry_equiv_pos_as_xyz
1 x,y,z
2 -x,1/2+y,-z
_cell_length_a                   11.067(3)
_cell_length_b                   12.484(2)
_cell_length_c                   12.356(2)
_cell_angle_alpha                90
_cell_angle_beta                 101.95(3)
_cell_angle_gamma                90
_cell_volume                     1670.11
_exptl_crystal_colour            white
_chemical_melting_point          '140-142 deg.C'
_cell_formula_units_Z            2
_exptl_crystal_recrystallization_method 'light petroleum ether'
loop_
_atom_site_label
_atom_site_type_symbol
_atom_site_fract_x
_atom_site_fract_y
_atom_site_fract_z
Br1 Br 0.87517(8) 0.5041(5) 0.72424(8)
Cl1 Cl 0.6457(3) 0.1217(6) 1.3864(2)
P1 P 0.6185(2) -0.0552(5) 0.8611(2)
O1 O 0.9869(5) 0.4341(7) 0.9727(5)
O2 O 0.8020(6) 0.3842(7) 0.9979(5)
O3 O 0.6211(4) 0.4809(7) 0.9631(4)
H1 H 0.5883 0.4715 1.0161
O4 O 0.7839(6) 0.1835(8) 0.6398(5)
O5 O 0.6806(6) 0.3352(7) 0.5875(5)
O6 O 0.9703(4) 0.1461(6) 0.7636(4)
O7 O 0.6891(4) 0.1474(7) 0.8589(5)
O8 O 0.6403(4) -0.0581(8) 0.7395(5)
O9 O 0.6744(5) -0.1605(7) 0.9238(5)
O10 O 0.4874(4) -0.0395(7) 0.8649(4)
C1 C 0.8133(8) 0.4095(8) 0.8196(7)
C2 C 0.7562(7) 0.2998(9) 0.7786(7)
C3 C 0.6843(7) 0.3875(7) 0.8200(7)
H2 H 0.6208 0.4251 0.7663
C4 C 0.6748(9) 0.3889(8) 0.9400(7)
H3 H 0.6288 0.3265 0.9578
C5 C 0.8893(10) 0.4118(9) 0.9403(8)
C6 C 0.7359(8) 0.2792(12) 0.6608(7)
C7 C 0.8409(7) 0.1400(8) 0.7440(9)
H4 H 0.8167 0.0647 0.7465
C8 C 0.7967(7) 0.1998(8) 0.8338(6)
H5 H 0.8622 0.2101 0.8996
C9 C 1.0296(7) 0.0749(8) 0.6947(6)
H6 H 0.9970 0.0901 0.6163
C10 C 1.1694(7) 0.1030(8) 0.7248(7)
H7 H 1.1996 0.0835 0.8025
C11 C 1.2299(7) 0.0259(9) 0.6539(7)
H8 H 1.1957 0.0401 0.5764
H9 H 1.3177 0.0411 0.6670
C12 C 1.2131(8) -0.0889(10) 0.6756(8)
H10 H 1.2507 -0.1061 0.7517
H11 H 1.2514 -0.1327 0.6273
C13 C 1.0741(8) -0.1103(9) 0.6539(8)
H12 H 1.0410 -0.0956 0.5754
C14 C 1.0057(7) -0.0411(8) 0.7189(7)
H13 H 1.0334 -0.0554 0.7973
H14 H 0.9180 -0.0562 0.6986
C15 C 1.1991(7) 0.2227(9) 0.7125(6)
H15 H 1.1519 0.2611 0.7592
C16 C 1.1571(8) 0.2695(9) 0.5975(7)
H16 H 1.0706 0.2555 0.5717
H17 H 1.2029 0.2371 0.5481
H18 H 1.1711 0.3454 0.6000
C17 C 1.3341(7) 0.2472(8) 0.7619(8)
H19 H 1.3549 0.2199 0.8361
H20 H 1.3469 0.3232 0.7628
H21 H 1.3855 0.2137 0.7179
C18 C 1.0461(10) -0.2342(10) 0.6753(9)
H22 H 0.9585 -0.2461 0.6585
H23 H 1.0787 -0.2517 0.7514
H24 H 1.0845 -0.2787 0.6286
C19 C 0.7163(7) 0.0544(9) 0.9246(8)
H25 H 0.8025 0.0347 0.9266
C20 C 0.7013(8) 0.0725(8) 1.0434(8)
C21 C 0.6043(7) 0.1325(7) 1.0646(8)
H26 H 0.5488 0.1627 1.0056
C22 C 0.5883(8) 0.1481(9) 1.1645(10)
H27 H 0.5225 0.1907 1.1744
C23 C 0.6604(10) 0.1065(10) 1.2523(9)
C24 C 0.7608(9) 0.0406(9) 1.2407(8)
H28 H 0.8129 0.0107 1.3020
C25 C 0.7795(8) 0.0215(10) 1.1300(9)
H29 H 0.8420 -0.0236 1.1173
C26 C 0.5581 -0.0809 0.6458
H30 H 0.5179 -0.0152 0.6157
H31 H 0.4952 -0.1280 0.6633
C27 C 0.6167 -0.1343 0.5577
H32 H 0.6063 -0.2105 0.5606
H33 H 0.7032 -0.1175 0.5714
H34 H 0.5774 -0.1084 0.4859
C28 C 0.7790 -0.2143 0.8979
H35 H 0.8434 -0.1621 0.8957
H36 H 0.7554 -0.2461 0.8250
C29 C 0.8306 -0.3019 0.9815
H37 H 0.8172 -0.3707 0.9464
H38 H 0.7894 -0.2992 1.0426
H39 H 0.9175 -0.2908 1.0079
loop_
_geom_bond_atom_site_label_1
_geom_bond_atom_site_label_2
_geom_bond_site_symmetry_1
_geom_bond_site_symmetry_2
Br1 C1 1_555 1_555
Cl1 C23 1_555 1_555
P1 O8 1_555 1_555
O1 C5 1_555 1_555
O2 C4 1_555 1_555
O3 H1 1_555 1_555
O4 C6 1_555 1_555
O5 C6 1_555 1_555
O6 C7 1_555 1_555
O7 C8 1_555 1_555
O8 C26 1_555 1_555
O9 P1 1_555 1_555
O10 P1 1_555 1_555
C1 C2 1_555 1_555
C2 C3 1_555 1_555
C3 C1 1_555 1_555
H2 C3 1_555 1_555
C4 O3 1_555 1_555
H3 C4 1_555 1_555
C5 O2 1_555 1_555
C6 C2 1_555 1_555
C7 O4 1_555 1_555
H4 C7 1_555 1_555
C8 C2 1_555 1_555
H5 C8 1_555 1_555
C9 O6 1_555 1_555
H6 C9 1_555 1_555
C10 C9 1_555 1_555
H7 C10 1_555 1_555
C11 C10 1_555 1_555
H8 C11 1_555 1_555
H9 C11 1_555 1_555
C12 C11 1_555 1_555
H10 C12 1_555 1_555
H11 C12 1_555 1_555
C13 C12 1_555 1_555
H12 C13 1_555 1_555
C14 C9 1_555 1_555
H13 C14 1_555 1_555
H14 C14 1_555 1_555
C15 C10 1_555 1_555
H15 C15 1_555 1_555
C16 C15 1_555 1_555
H16 C16 1_555 1_555
H17 C16 1_555 1_555
H18 C16 1_555 1_555
C17 C15 1_555 1_555
H19 C17 1_555 1_555
H20 C17 1_555 1_555
H21 C17 1_555 1_555
C18 C13 1_555 1_555
H22 C18 1_555 1_555
H23 C18 1_555 1_555
H24 C18 1_555 1_555
C19 P1 1_555 1_555
H25 C19 1_555 1_555
C20 C19 1_555 1_555
C21 C20 1_555 1_555
H26 C21 1_555 1_555
C22 C21 1_555 1_555
H27 C22 1_555 1_555
C23 C22 1_555 1_555
C24 C23 1_555 1_555
H28 C24 1_555 1_555
C25 C20 1_555 1_555
H29 C25 1_555 1_555
C26 H30 1_555 1_555
H31 C26 1_555 1_555
C27 C26 1_555 1_555
H32 C27 1_555 1_555
H33 C27 1_555 1_555
H34 C27 1_555 1_555
C28 O9 1_555 1_555
H35 C28 1_555 1_555
H36 C28 1_555 1_555
C29 C28 1_555 1_555
H37 C29 1_555 1_555
H38 C29 1_555 1_555
H39 C29 1_555 1_555
O7 C19 1_555 1_555
C1 C5 1_555 1_555
C3 C4 1_555 1_555
C7 C8 1_555 1_555
C13 C14 1_555 1_555
C24 C25 1_555 1_555

#END
