
#######################################################################
#
#                 Cambridge Crystallographic Data Centre
#                                CCDC 
#
#######################################################################
#
# If this CIF has been generated from an entry in the Cambridge 
# Structural Database, then it will include bibliographic, chemical, 
# crystal, experimental, refinement or atomic coordinate data resulting 
# from the CCDC's data processing and validation procedures.
#
#######################################################################

data_FIXTAI
_chemical_formula_moiety         
'C16 H36 N1 1+,C7 H5 O3 1-,C1 H4 N2 S1,0.5(H2 O1)'
_chemical_name_systematic        
'Tetra-n-butylammonium salicylate thiourea hemihydrate clathrate'
_symmetry_cell_setting           triclinic
_symmetry_space_group_name_H-M   'P -1'
_symmetry_Int_Tables_number      2
_space_group_name_Hall           '-P 1'
loop_
_symmetry_equiv_pos_site_id
_symmetry_equiv_pos_as_xyz
1 x,y,z
2 -x,-y,-z
_cell_length_a                   13.505(5)
_cell_length_b                   13.645(5)
_cell_length_c                   30.720(10)
_cell_angle_alpha                92.872(7)
_cell_angle_beta                 92.329(7)
_cell_angle_gamma                92.538(7)
_cell_volume                     5643.08
_exptl_crystal_colour            colorless
_exptl_crystal_description       block
_cell_formula_units_Z            8
loop_
_atom_site_label
_atom_site_type_symbol
_atom_site_fract_x
_atom_site_fract_y
_atom_site_fract_z
S1 S 0.70002(7) 0.27432(6) 0.00998(3)
C1 C 0.7301(2) 0.15657(18) 0.01272(7)
N1 N 0.66823(17) 0.08672(16) 0.02378(7)
H1 H 0.6869 0.0274 0.0245
H2 H 0.6088 0.1001 0.0303
N2 N 0.82058(16) 0.12919(16) 0.00309(6)
H3 H 0.8351 0.0686 0.0044
H4 H 0.8644 0.1721 -0.0044
S2 S 0.21992(6) 0.29498(7) 0.49106(3)
C2 C 0.3399(2) 0.26377(19) 0.48637(8)
N3 N 0.36627(17) 0.17473(16) 0.49501(6)
H5 H 0.4273 0.1599 0.4935
H6 H 0.3224 0.1315 0.5021
N4 N 0.41009(17) 0.32727(16) 0.47561(7)
H7 H 0.4704 0.3099 0.4744
H8 H 0.3955 0.3860 0.4698
S3 S 0.59677(9) 0.88596(11) 0.23466(4)
C3 C 0.4795(3) 0.9085(3) 0.24707(10)
N5 N 0.4052(2) 0.8383(2) 0.24375(8)
H9 H 0.3453 0.8535 0.2485
H10 H 0.4179 0.7784 0.2369
N6 N 0.4511(2) 0.9984(2) 0.25782(9)
H11 H 0.3897 1.0080 0.2621
H12 H 0.4943 1.0468 0.2605
S4 S 0.41684(9) 0.58829(11) 0.22702(4)
C4 C 0.5357(3) 0.5685(3) 0.24326(10)
N7 N 0.5608(2) 0.4836(3) 0.25867(9)
H13 H 0.6206 0.4765 0.2684
H14 H 0.5174 0.4357 0.2590
N8 N 0.6077(2) 0.6382(2) 0.24410(8)
H15 H 0.6661 0.6267 0.2542
H16 H 0.5958 0.6949 0.2345
C5 C 0.2131(2) 0.1397(2) -0.00309(8)
C6 C 0.19228(19) 0.24781(19) -0.00317(7)
C7 C 0.2601(2) 0.3233(2) 0.00768(9)
H17 H 0.3247 0.3084 0.0155
C8 C 0.2370(3) 0.4196(2) 0.00752(9)
H18 H 0.2844 0.4698 0.0151
C9 C 0.1394(3) 0.4401(2) -0.00439(9)
H19 H 0.1223 0.5053 -0.0050
C10 C 0.0707(2) 0.3705(2) -0.01473(9)
H20 H 0.0061 0.3864 -0.0220
C11 C 0.0958(2) 0.2732(2) -0.01459(8)
O1 O 0.02281(15) 0.20405(16) -0.02542(6)
H21 H 0.0415 0.1499 -0.0192
O2 O 0.14453(14) 0.07724(14) -0.01238(6)
O3 O 0.30160(15) 0.12024(14) 0.00724(6)
C12 C 0.8165(3) 0.5159(3) 0.27407(10)
C13 C 0.9221(3) 0.5114(3) 0.26137(9)
C14 C 0.9827(3) 0.5982(3) 0.26019(11)
H22 H 0.9614 0.6605 0.2677
C15 C 1.0787(3) 0.5804(3) 0.24645(11)
H23 H 1.1221 0.6345 0.2439
C16 C 1.1143(3) 0.4861(3) 0.23620(10)
H24 H 1.1799 0.4802 0.2287
C17 C 1.0543(3) 0.4055(3) 0.23719(10)
H25 H 1.0759 0.3434 0.2297
C18 C 0.9600(3) 0.4192(3) 0.24979(9)
O4 O 0.8953(2) 0.33876(18) 0.25072(7)
H26 H 0.8433 0.3555 0.2611
O5 O 0.7633(2) 0.43880(19) 0.27529(7)
O6 O 0.7899(2) 0.6015(2) 0.28045(8)
C19 C 0.1922(3) 0.9630(3) 0.26521(9)
C20 C 0.0866(3) 0.9734(2) 0.25641(9)
C21 C 0.0449(3) 1.0614(2) 0.24627(9)
C22 C -0.0550(3) 1.0737(3) 0.23750(10)
H27 H -0.0783 1.1339 0.2298
C23 C -0.1171(3) 0.9941(3) 0.24061(10)
H28 H -0.1854 0.9982 0.2364
C24 C -0.0746(4) 0.9043(3) 0.25053(11)
H29 H -0.1188 0.8502 0.2510
C25 C 0.0225(3) 0.8870(4) 0.25943(12)
H30 H 0.0449 0.8262 0.2667
O7 O 0.1128(2) 1.13802(18) 0.24509(7)
H31 H 0.1680 1.1168 0.2417
O8 O 0.24964(19) 1.03972(19) 0.26664(7)
O9 O 0.2213(2) 0.8784(2) 0.26968(8)
C26 C 0.3591(2) 0.7837(2) 0.50402(8)
C27 C 0.2516(2) 0.80708(19) 0.50292(7)
C28 C 0.2257(2) 0.9026(2) 0.51445(8)
C29 C 0.1250(2) 0.9254(2) 0.51405(9)
H32 H 0.1063 0.9879 0.5227
C30 C 0.0553(2) 0.8532(3) 0.50058(9)
H33 H -0.0112 0.8683 0.4993
C31 C 0.0793(2) 0.7614(3) 0.48912(9)
H34 H 0.0297 0.7141 0.4805
C32 C 0.1782(2) 0.7368(2) 0.49005(8)
H35 H 0.1949 0.6732 0.4820
O10 O 0.29240(17) 0.97441(14) 0.52737(6)
H36 H 0.3481 0.9528 0.5277
O11 O 0.42211(15) 0.85334(15) 0.51424(6)
O12 O 0.38140(15) 0.69817(14) 0.49428(6)
O13 O 0.48085(15) 0.18495(18) 0.04832(7)
H37 H 0.4280 0.1662 0.0355
H38 H 0.5377 0.2084 0.0386
O14 O 0.31651(19) 0.51444(15) 0.45703(7)
H39 H 0.3368 0.5717 0.4685
H40 H 0.2931 0.4613 0.4656
N9 N 0.74375(15) 0.02059(14) 0.87388(6)
C33 C 0.83209(19) -0.01054(19) 0.90127(7)
H41 H 0.8535 0.0440 0.9214
H42 H 0.8097 -0.0641 0.9186
C34 C 0.9208(2) -0.0426(2) 0.87725(8)
H43 H 0.9441 0.0101 0.8597
H44 H 0.9013 -0.0989 0.8577
C35 C 1.0041(2) -0.0696(2) 0.90793(8)
H45 H 1.0229 -0.0131 0.9274
H46 H 0.9802 -0.1219 0.9256
C36 C 1.0936(2) -0.1019(2) 0.88557(9)
H47 H 1.1428 -0.1191 0.9069
H48 H 1.1197 -0.0495 0.8691
H49 H 1.0759 -0.1580 0.8663
C37 C 0.7086(2) -0.05934(18) 0.84088(8)
H50 H 0.6524 -0.0366 0.8242
H51 H 0.7611 -0.0703 0.8208
C38 C 0.6785(2) -0.1556(2) 0.85899(9)
H52 H 0.6193 -0.1487 0.8755
H53 H 0.7310 -0.1764 0.8784
C39 C 0.6584(3) -0.2322(2) 0.82117(13)
H54 H 0.6067 -0.2106 0.8015
H55 H 0.7180 -0.2393 0.8049
C40 C 0.6288(3) -0.3234(3) 0.83744(15)
H56 H 0.6157 -0.3709 0.8136
H57 H 0.5697 -0.3161 0.8534
H58 H 0.6807 -0.3451 0.8564
C41 C 0.7737(2) 0.10984(18) 0.84941(7)
H59 H 0.8250 0.0916 0.8298
H60 H 0.7169 0.1273 0.8316
C42 C 0.8112(2) 0.1999(2) 0.87656(9)
H61 H 0.7613 0.2194 0.8966
H62 H 0.8704 0.1851 0.8935
C43 C 0.8346(3) 0.2817(2) 0.84780(10)
H63 H 0.7750 0.2974 0.8314
H64 H 0.8832 0.2613 0.8272
C44 C 0.8748(3) 0.3714(2) 0.87418(11)
H65 H 0.8892 0.4232 0.8550
H66 H 0.9344 0.3562 0.8900
H67 H 0.8264 0.3921 0.8943
C45 C 0.66259(19) 0.0444(2) 0.90473(8)
H68 H 0.6458 -0.0142 0.9200
H69 H 0.6889 0.0941 0.9263
C46 C 0.5683(2) 0.0804(2) 0.88420(9)
H70 H 0.5838 0.1370 0.8675
H71 H 0.5374 0.0292 0.8644
C47 C 0.4977(2) 0.1078(3) 0.91886(9)
H72 H 0.4821 0.0505 0.9352
H73 H 0.5301 0.1574 0.9390
C48 C 0.4030(2) 0.1464(3) 0.90098(11)
H74 H 0.3607 0.1617 0.9245
H75 H 0.3701 0.0975 0.8812
H76 H 0.4175 0.2047 0.8857
N10 N 0.47713(16) 0.25618(15) 0.62410(6)
C49 C 0.56092(18) 0.29244(19) 0.65488(7)
H77 H 0.5746 0.2417 0.6750
H78 H 0.5403 0.3493 0.6718
C50 C 0.6565(2) 0.3206(2) 0.63273(8)
H79 H 0.6741 0.2660 0.6136
H80 H 0.6449 0.3759 0.6149
C51 C 0.7409(2) 0.3470(2) 0.66425(9)
H81 H 0.7546 0.2909 0.6813
H82 H 0.7227 0.4000 0.6841
C52 C 0.8333(2) 0.3785(2) 0.64157(10)
H83 H 0.8860 0.3949 0.6629
H84 H 0.8203 0.4349 0.6251
H85 H 0.8522 0.3257 0.6223
C53 C 0.5040(2) 0.16563(18) 0.59656(7)
H86 H 0.4472 0.1442 0.5775
H87 H 0.5578 0.1841 0.5782
C54 C 0.5349(2) 0.07968(18) 0.62286(8)
H88 H 0.5909 0.1007 0.6424
H89 H 0.4806 0.0589 0.6405
C55 C 0.5632(2) -0.0057(2) 0.59371(9)
H90 H 0.5069 -0.0258 0.5742
H91 H 0.6169 0.0160 0.5760
C56 C 0.5948(3) -0.0929(2) 0.61753(10)
H92 H 0.6125 -0.1436 0.5969
H93 H 0.5411 -0.1169 0.6342
H94 H 0.6510 -0.0741 0.6368
C57 C 0.38839(19) 0.2302(2) 0.65112(7)
H95 H 0.4086 0.1832 0.6720
H96 H 0.3711 0.2891 0.6676
C58 C 0.2960(2) 0.1880(2) 0.62598(9)
H97 H 0.2759 0.2337 0.6045
H98 H 0.3115 0.1272 0.6105
C59 C 0.2124(2) 0.1684(3) 0.65462(10)
H99 H 0.1966 0.2294 0.6698
H100 H 0.2332 0.1237 0.6764
C60 C 0.1199(3) 0.1248(3) 0.63049(12)
H101 H 0.0688 0.1142 0.6508
H102 H 0.1343 0.0634 0.6161
H103 H 0.0979 0.1692 0.6092
C61 C 0.4492(2) 0.33287(18) 0.59245(8)
H104 H 0.5047 0.3448 0.5741
H105 H 0.3939 0.3061 0.5737
C62 C 0.4208(2) 0.4303(2) 0.61280(8)
H106 H 0.3668 0.4189 0.6321
H107 H 0.4769 0.4595 0.6303
C63 C 0.3899(2) 0.4998(2) 0.58013(9)
H108 H 0.3340 0.4700 0.5627
H109 H 0.4440 0.5102 0.5608
C64 C 0.3610(3) 0.5989(2) 0.59895(10)
H110 H 0.3430 0.6397 0.5756
H111 H 0.4161 0.6297 0.6159
H112 H 0.3057 0.5899 0.6172
N11 N 0.02533(16) 0.25176(16) 0.36993(6)
C65 C 0.0615(2) 0.16931(18) 0.39725(7)
H113 H 0.0081 0.1491 0.4155
H114 H 0.1159 0.1959 0.4165
C66 C 0.0963(2) 0.07769(19) 0.37283(7)
H115 H 0.0428 0.0484 0.3537
H116 H 0.1516 0.0951 0.3551
C67 C 0.1272(2) 0.00679(19) 0.40529(8)
H117 H 0.0716 -0.0087 0.4232
H118 H 0.1802 0.0372 0.4243
C68 C 0.1625(2) -0.0878(2) 0.38424(10)
H119 H 0.1822 -0.1307 0.4065
H120 H 0.2180 -0.0730 0.3667
H121 H 0.1096 -0.1194 0.3661
C69 C -0.0652(2) 0.2168(2) 0.34229(8)
H122 H -0.0828 0.2687 0.3234
H123 H -0.0479 0.1610 0.3238
C70 C -0.1551(2) 0.1873(2) 0.36663(9)
H124 H -0.1744 0.2415 0.3856
H125 H -0.1418 0.1319 0.3842
C71 C -0.2422(3) 0.1577(4) 0.32970(14)
H126 H -0.2604 0.2144 0.3139
H127 H -0.2212 0.1072 0.3091
C72 C -0.3122(4) 0.1266(3) 0.35074(15)
H128 H -0.3670 0.1058 0.3311
H129 H -0.3321 0.1779 0.3706
H130 H -0.2918 0.0719 0.3669
C73 C 0.0021(2) 0.33487(19) 0.40211(8)
H131 H -0.0453 0.3096 0.4221
H132 H 0.0624 0.3549 0.4191
C74 C -0.0391(2) 0.4248(2) 0.38263(8)
H133 H -0.0986 0.4060 0.3649
H134 H 0.0092 0.4536 0.3639
C75 C -0.0635(3) 0.5003(2) 0.41820(10)
H135 H -0.0037 0.5196 0.4357
H136 H -0.1111 0.4711 0.4371
C76 C -0.1068(3) 0.5922(3) 0.39869(11)
H137 H -0.1202 0.6390 0.4218
H138 H -0.1672 0.5736 0.3822
H139 H -0.0598 0.6210 0.3799
C77 C 0.1037(2) 0.2838(2) 0.33914(8)
H140 H 0.1133 0.2295 0.3184
H141 H 0.0787 0.3372 0.3229
C78 C 0.2033(2) 0.3169(2) 0.35991(9)
H142 H 0.2287 0.2658 0.3775
H143 H 0.1969 0.3754 0.3787
C79 C 0.2737(2) 0.3385(3) 0.32408(11)
H144 H 0.2755 0.2808 0.3044
H145 H 0.2486 0.3915 0.3075
C80 C 0.3699(3) 0.3649(4) 0.34006(16)
H146 H 0.4112 0.3779 0.3161
H147 H 0.3958 0.3121 0.3559
H148 H 0.3688 0.4228 0.3591
N12 N 0.74273(15) 0.46699(15) 0.13065(6)
C81 C 0.7122(2) 0.39233(18) 0.16314(8)
H149 H 0.7676 0.3862 0.1838
H150 H 0.6581 0.4181 0.1793
C82 C 0.6801(2) 0.2909(2) 0.14451(9)
H151 H 0.7298 0.2669 0.1252
H152 H 0.6181 0.2938 0.1276
C83 C 0.6666(3) 0.2214(2) 0.18094(11)
H153 H 0.7289 0.2175 0.1975
H154 H 0.6179 0.2461 0.2006
C84 C 0.6342(3) 0.1256(3) 0.16320(13)
H155 H 0.6245 0.0824 0.1865
H156 H 0.6835 0.1004 0.1445
H157 H 0.5728 0.1298 0.1466
C85 C 0.65684(19) 0.4833(2) 0.09885(8)
H158 H 0.6801 0.5278 0.0774
H159 H 0.6376 0.4211 0.0835
C86 C 0.5661(2) 0.5244(2) 0.11855(9)
H160 H 0.5835 0.5858 0.1349
H161 H 0.5375 0.4785 0.1382
C87 C 0.4903(2) 0.5415(3) 0.07998(12)
H162 H 0.5206 0.5842 0.0595
H163 H 0.4705 0.4794 0.0647
C88 C 0.4028(3) 0.5871(4) 0.09814(14)
H164 H 0.3552 0.5974 0.0749
H165 H 0.4228 0.6490 0.1128
H166 H 0.3735 0.5446 0.1185
C89 C 0.7751(2) 0.56067(18) 0.15718(7)
H167 H 0.7206 0.5801 0.1748
H168 H 0.8299 0.5465 0.1769
C90 C 0.8065(2) 0.64571(19) 0.13106(8)
H169 H 0.8622 0.6278 0.1138
H170 H 0.7523 0.6605 0.1111
C91 C 0.8354(2) 0.7346(2) 0.15948(9)
H171 H 0.8863 0.7176 0.1806
H172 H 0.7782 0.7535 0.1755
C92 C 0.8734(3) 0.8216(2) 0.13620(9)
H173 H 0.8903 0.8751 0.1570
H174 H 0.8229 0.8408 0.1158
H175 H 0.9312 0.8046 0.1208
C93 C 0.82641(19) 0.43151(19) 0.10356(7)
H176 H 0.8012 0.3752 0.0853
H177 H 0.8450 0.4829 0.0844
C94 C 0.91897(19) 0.4029(2) 0.12814(8)
H178 H 0.9458 0.4579 0.1469
H179 H 0.9034 0.3485 0.1463
C95 C 0.9938(2) 0.3733(2) 0.09535(9)
H180 H 1.0082 0.4284 0.0775
H181 H 0.9648 0.3199 0.0763
C96 C 1.0924(2) 0.3405(2) 0.11630(9)
H182 H 1.1365 0.3229 0.0938
H183 H 1.0792 0.2848 0.1334
H184 H 1.1225 0.3935 0.1347
loop_
_geom_bond_atom_site_label_1
_geom_bond_atom_site_label_2
_geom_bond_site_symmetry_1
_geom_bond_site_symmetry_2
S1 C1 1_555 1_555
C1 N1 1_555 1_555
N1 H1 1_555 1_555
H2 N1 1_555 1_555
N2 C1 1_555 1_555
H3 N2 1_555 1_555
H4 N2 1_555 1_555
S2 C2 1_555 1_555
C2 N3 1_555 1_555
N3 H5 1_555 1_555
H6 N3 1_555 1_555
N4 C2 1_555 1_555
H7 N4 1_555 1_555
H8 N4 1_555 1_555
S3 C3 1_555 1_555
C3 N5 1_555 1_555
N5 H9 1_555 1_555
H10 N5 1_555 1_555
N6 C3 1_555 1_555
H11 N6 1_555 1_555
H12 N6 1_555 1_555
S4 C4 1_555 1_555
C4 N7 1_555 1_555
N7 H13 1_555 1_555
H14 N7 1_555 1_555
N8 C4 1_555 1_555
H15 N8 1_555 1_555
H16 N8 1_555 1_555
C5 C6 1_555 1_555
C6 C7 1_555 1_555
C7 H17 1_555 1_555
C8 C7 1_555 1_555
H18 C8 1_555 1_555
C9 C8 1_555 1_555
H19 C9 1_555 1_555
C10 C9 1_555 1_555
H20 C10 1_555 1_555
C11 C6 1_555 1_555
O1 C11 1_555 1_555
H21 O1 1_555 1_555
O2 C5 1_555 1_555
O3 C5 1_555 1_555
C12 C13 1_555 1_555
C13 C14 1_555 1_555
C14 H22 1_555 1_555
C15 C14 1_555 1_555
H23 C15 1_555 1_555
C16 C15 1_555 1_555
H24 C16 1_555 1_555
C17 C16 1_555 1_555
H25 C17 1_555 1_555
C18 C13 1_555 1_555
O4 C18 1_555 1_555
H26 O4 1_555 1_555
O5 C12 1_555 1_555
O6 C12 1_555 1_555
C19 C20 1_555 1_555
C20 C21 1_555 1_555
C21 C22 1_555 1_555
C22 H27 1_555 1_555
C23 C22 1_555 1_555
H28 C23 1_555 1_555
C24 C23 1_555 1_555
H29 C24 1_555 1_555
C25 C20 1_555 1_555
H30 C25 1_555 1_555
O7 C21 1_555 1_555
H31 O7 1_555 1_555
O8 C19 1_555 1_555
O9 C19 1_555 1_555
C26 C27 1_555 1_555
C27 C28 1_555 1_555
C28 C29 1_555 1_555
C29 H32 1_555 1_555
C30 C29 1_555 1_555
H33 C30 1_555 1_555
C31 C30 1_555 1_555
H34 C31 1_555 1_555
C32 C27 1_555 1_555
H35 C32 1_555 1_555
O10 C28 1_555 1_555
H36 O10 1_555 1_555
O11 C26 1_555 1_555
O12 C26 1_555 1_555
O13 H37 1_555 1_555
H38 O13 1_555 1_555
O14 H39 1_555 1_555
H40 O14 1_555 1_555
N9 C33 1_555 1_555
C33 H41 1_555 1_555
H42 C33 1_555 1_555
C34 C33 1_555 1_555
H43 C34 1_555 1_555
H44 C34 1_555 1_555
C35 C34 1_555 1_555
H45 C35 1_555 1_555
H46 C35 1_555 1_555
C36 C35 1_555 1_555
H47 C36 1_555 1_555
H48 C36 1_555 1_555
H49 C36 1_555 1_555
C37 N9 1_555 1_555
H50 C37 1_555 1_555
H51 C37 1_555 1_555
C38 C37 1_555 1_555
H52 C38 1_555 1_555
H53 C38 1_555 1_555
C39 C38 1_555 1_555
H54 C39 1_555 1_555
H55 C39 1_555 1_555
C40 C39 1_555 1_555
H56 C40 1_555 1_555
H57 C40 1_555 1_555
H58 C40 1_555 1_555
C41 N9 1_555 1_555
H59 C41 1_555 1_555
H60 C41 1_555 1_555
C42 C41 1_555 1_555
H61 C42 1_555 1_555
H62 C42 1_555 1_555
C43 C42 1_555 1_555
H63 C43 1_555 1_555
H64 C43 1_555 1_555
C44 C43 1_555 1_555
H65 C44 1_555 1_555
H66 C44 1_555 1_555
H67 C44 1_555 1_555
C45 N9 1_555 1_555
H68 C45 1_555 1_555
H69 C45 1_555 1_555
C46 C45 1_555 1_555
H70 C46 1_555 1_555
H71 C46 1_555 1_555
C47 C46 1_555 1_555
H72 C47 1_555 1_555
H73 C47 1_555 1_555
C48 C47 1_555 1_555
H74 C48 1_555 1_555
H75 C48 1_555 1_555
H76 C48 1_555 1_555
N10 C49 1_555 1_555
C49 H77 1_555 1_555
H78 C49 1_555 1_555
C50 C49 1_555 1_555
H79 C50 1_555 1_555
H80 C50 1_555 1_555
C51 C50 1_555 1_555
H81 C51 1_555 1_555
H82 C51 1_555 1_555
C52 C51 1_555 1_555
H83 C52 1_555 1_555
H84 C52 1_555 1_555
H85 C52 1_555 1_555
C53 N10 1_555 1_555
H86 C53 1_555 1_555
H87 C53 1_555 1_555
C54 C53 1_555 1_555
H88 C54 1_555 1_555
H89 C54 1_555 1_555
C55 C54 1_555 1_555
H90 C55 1_555 1_555
H91 C55 1_555 1_555
C56 C55 1_555 1_555
H92 C56 1_555 1_555
H93 C56 1_555 1_555
H94 C56 1_555 1_555
C57 N10 1_555 1_555
H95 C57 1_555 1_555
H96 C57 1_555 1_555
C58 C57 1_555 1_555
H97 C58 1_555 1_555
H98 C58 1_555 1_555
C59 C58 1_555 1_555
H99 C59 1_555 1_555
H100 C59 1_555 1_555
C60 C59 1_555 1_555
H101 C60 1_555 1_555
H102 C60 1_555 1_555
H103 C60 1_555 1_555
C61 N10 1_555 1_555
H104 C61 1_555 1_555
H105 C61 1_555 1_555
C62 C61 1_555 1_555
H106 C62 1_555 1_555
H107 C62 1_555 1_555
C63 C62 1_555 1_555
H108 C63 1_555 1_555
H109 C63 1_555 1_555
C64 C63 1_555 1_555
H110 C64 1_555 1_555
H111 C64 1_555 1_555
H112 C64 1_555 1_555
N11 C65 1_555 1_555
C65 H113 1_555 1_555
H114 C65 1_555 1_555
C66 C65 1_555 1_555
H115 C66 1_555 1_555
H116 C66 1_555 1_555
C67 C66 1_555 1_555
H117 C67 1_555 1_555
H118 C67 1_555 1_555
C68 C67 1_555 1_555
H119 C68 1_555 1_555
H120 C68 1_555 1_555
H121 C68 1_555 1_555
C69 N11 1_555 1_555
H122 C69 1_555 1_555
H123 C69 1_555 1_555
C70 C69 1_555 1_555
H124 C70 1_555 1_555
H125 C70 1_555 1_555
C71 C70 1_555 1_555
H126 C71 1_555 1_555
H127 C71 1_555 1_555
C72 C71 1_555 1_555
H128 C72 1_555 1_555
H129 C72 1_555 1_555
H130 C72 1_555 1_555
C73 N11 1_555 1_555
H131 C73 1_555 1_555
H132 C73 1_555 1_555
C74 C73 1_555 1_555
H133 C74 1_555 1_555
H134 C74 1_555 1_555
C75 C74 1_555 1_555
H135 C75 1_555 1_555
H136 C75 1_555 1_555
C76 C75 1_555 1_555
H137 C76 1_555 1_555
H138 C76 1_555 1_555
H139 C76 1_555 1_555
C77 N11 1_555 1_555
H140 C77 1_555 1_555
H141 C77 1_555 1_555
C78 C77 1_555 1_555
H142 C78 1_555 1_555
H143 C78 1_555 1_555
C79 C78 1_555 1_555
H144 C79 1_555 1_555
H145 C79 1_555 1_555
C80 C79 1_555 1_555
H146 C80 1_555 1_555
H147 C80 1_555 1_555
H148 C80 1_555 1_555
N12 C81 1_555 1_555
C81 H149 1_555 1_555
H150 C81 1_555 1_555
C82 C81 1_555 1_555
H151 C82 1_555 1_555
H152 C82 1_555 1_555
C83 C82 1_555 1_555
H153 C83 1_555 1_555
H154 C83 1_555 1_555
C84 C83 1_555 1_555
H155 C84 1_555 1_555
H156 C84 1_555 1_555
H157 C84 1_555 1_555
C85 N12 1_555 1_555
H158 C85 1_555 1_555
H159 C85 1_555 1_555
C86 C85 1_555 1_555
H160 C86 1_555 1_555
H161 C86 1_555 1_555
C87 C86 1_555 1_555
H162 C87 1_555 1_555
H163 C87 1_555 1_555
C88 C87 1_555 1_555
H164 C88 1_555 1_555
H165 C88 1_555 1_555
H166 C88 1_555 1_555
C89 N12 1_555 1_555
H167 C89 1_555 1_555
H168 C89 1_555 1_555
C90 C89 1_555 1_555
H169 C90 1_555 1_555
H170 C90 1_555 1_555
C91 C90 1_555 1_555
H171 C91 1_555 1_555
H172 C91 1_555 1_555
C92 C91 1_555 1_555
H173 C92 1_555 1_555
H174 C92 1_555 1_555
H175 C92 1_555 1_555
C93 N12 1_555 1_555
H176 C93 1_555 1_555
H177 C93 1_555 1_555
C94 C93 1_555 1_555
H178 C94 1_555 1_555
H179 C94 1_555 1_555
C95 C94 1_555 1_555
H180 C95 1_555 1_555
H181 C95 1_555 1_555
C96 C95 1_555 1_555
H182 C96 1_555 1_555
H183 C96 1_555 1_555
H184 C96 1_555 1_555
C10 C11 1_555 1_555
C17 C18 1_555 1_555
C24 C25 1_555 1_555
C31 C32 1_555 1_555

#END
