
#######################################################################
#
#                 Cambridge Crystallographic Data Centre
#                                CCDC 
#
#######################################################################
#
# If this CIF has been generated from an entry in the Cambridge 
# Structural Database, then it will include bibliographic, chemical, 
# crystal, experimental, refinement or atomic coordinate data resulting 
# from the CCDC's data processing and validation procedures.
#
#######################################################################

data_FIXZEU
_chemical_formula_moiety         'C20 H32 O2'
_chemical_name_systematic        
1,8,12-trimethyl-4-(prop-1-en-2-yl)-7,16-dioxatricyclo[13.1.0.0^6,8^]hexadec-11-ene
_symmetry_cell_setting           orthorhombic
_symmetry_space_group_name_H-M   'P 21 21 21'
_symmetry_Int_Tables_number      19
_space_group_name_Hall           'P 2ac 2ab'
loop_
_symmetry_equiv_pos_site_id
_symmetry_equiv_pos_as_xyz
1 x,y,z
2 1/2-x,-y,1/2+z
3 -x,1/2+y,1/2-z
4 1/2+x,1/2-y,-z
_cell_length_a                   5.53630(10)
_cell_length_b                   17.0309(3)
_cell_length_c                   19.6593(3)
_cell_angle_alpha                90
_cell_angle_beta                 90
_cell_angle_gamma                90
_cell_volume                     1853.64
_exptl_crystal_colour            colorless
_exptl_crystal_description       block
_cell_formula_units_Z            4
loop_
_atom_site_label
_atom_site_type_symbol
_atom_site_fract_x
_atom_site_fract_y
_atom_site_fract_z
O1 O 0.5097(2) 0.61068(7) 0.74985(7)
O2 O 0.7199(2) 0.30088(8) 0.58221(6)
C1 C 0.3764(3) 0.39897(10) 0.80045(8)
H1 H 0.216200 0.418379 0.816832
C2 C 0.5359(3) 0.47210(10) 0.79170(9)
H2 H 0.549564 0.499179 0.836091
H3 H 0.700078 0.455238 0.778062
C3 C 0.4416(3) 0.52931(10) 0.73978(9)
H4 H 0.447866 0.510624 0.691594
C4 C 0.2559(3) 0.58913(10) 0.75407(9)
C5 C 0.0980(4) 0.62430(11) 0.69891(9)
H5 H 0.083034 0.681323 0.707727
H6 H -0.065492 0.601272 0.703144
C6 C 0.1821(4) 0.61339(11) 0.62573(9)
H7 H 0.097219 0.651937 0.596590
H8 H 0.357055 0.625119 0.623277
C7 C 0.1393(4) 0.53202(10) 0.59741(9)
H9 H 0.035080 0.498367 0.622375
C8 C 0.2350(3) 0.50369(10) 0.54071(8)
C9 C 0.1856(3) 0.42076(11) 0.51656(8)
H10 H 0.099511 0.423179 0.472479
H11 H 0.077601 0.394602 0.549686
C10 C 0.4137(3) 0.37092(11) 0.50785(8)
H12 H 0.368708 0.317921 0.491512
H13 H 0.520055 0.395351 0.473340
C11 C 0.5471(3) 0.36406(10) 0.57402(8)
H14 H 0.599903 0.415364 0.593789
C12 C 0.5038(3) 0.30228(9) 0.62438(8)
C13 C 0.5521(3) 0.32213(10) 0.69833(8)
H15 H 0.686657 0.360296 0.701127
H16 H 0.601387 0.274001 0.722932
C14 C 0.3277(3) 0.35697(10) 0.73219(8)
H17 H 0.209688 0.314249 0.740090
H18 H 0.252681 0.394906 0.700409
C15 C 0.4684(4) 0.34302(10) 0.85478(9)
C16 C 0.6690(4) 0.35434(13) 0.88954(11)
H19 H 0.715520 0.317953 0.923745
H20 H 0.767055 0.398878 0.880386
C17 C 0.3108(4) 0.27286(12) 0.86856(10)
H21 H 0.141752 0.289574 0.871391
H22 H 0.358991 0.248581 0.911674
H23 H 0.329125 0.234709 0.831603
C18 C 0.1484(4) 0.59812(11) 0.82399(10)
H24 H 0.256320 0.574268 0.857661
H25 H -0.009128 0.571918 0.825501
H26 H 0.127940 0.654023 0.834300
C19 C 0.3993(5) 0.55164(12) 0.49622(10)
H27 H 0.365612 0.539947 0.448342
H28 H 0.567797 0.538639 0.506508
H29 H 0.371550 0.607603 0.504809
C20 C 0.3274(4) 0.23710(10) 0.61105(9)
H30 H 0.339354 0.220734 0.563379
H31 H 0.163118 0.255602 0.620396
H32 H 0.364649 0.192437 0.640676
loop_
_geom_bond_atom_site_label_1
_geom_bond_atom_site_label_2
_geom_bond_site_symmetry_1
_geom_bond_site_symmetry_2
O1 C3 1_555 1_555
O2 C11 1_555 1_555
C1 H1 1_555 1_555
C2 C1 1_555 1_555
H2 C2 1_555 1_555
H3 C2 1_555 1_555
C3 C2 1_555 1_555
H4 C3 1_555 1_555
C4 O1 1_555 1_555
C5 C4 1_555 1_555
H5 C5 1_555 1_555
H6 C5 1_555 1_555
C6 C5 1_555 1_555
H7 C6 1_555 1_555
H8 C6 1_555 1_555
C7 C6 1_555 1_555
H9 C7 1_555 1_555
C8 C7 1_555 1_555
C9 C8 1_555 1_555
H10 C9 1_555 1_555
H11 C9 1_555 1_555
C10 C9 1_555 1_555
H12 C10 1_555 1_555
H13 C10 1_555 1_555
C11 C10 1_555 1_555
H14 C11 1_555 1_555
C12 O2 1_555 1_555
C13 C12 1_555 1_555
H15 C13 1_555 1_555
H16 C13 1_555 1_555
C14 C1 1_555 1_555
H17 C14 1_555 1_555
H18 C14 1_555 1_555
C15 C1 1_555 1_555
C16 C15 1_555 1_555
H19 C16 1_555 1_555
H20 C16 1_555 1_555
C17 C15 1_555 1_555
H21 C17 1_555 1_555
H22 C17 1_555 1_555
H23 C17 1_555 1_555
C18 C4 1_555 1_555
H24 C18 1_555 1_555
H25 C18 1_555 1_555
H26 C18 1_555 1_555
C19 C8 1_555 1_555
H27 C19 1_555 1_555
H28 C19 1_555 1_555
H29 C19 1_555 1_555
C20 C12 1_555 1_555
H30 C20 1_555 1_555
H31 C20 1_555 1_555
H32 C20 1_555 1_555
C3 C4 1_555 1_555
C11 C12 1_555 1_555
C13 C14 1_555 1_555

#END
