
#######################################################################
#
#                 Cambridge Crystallographic Data Centre
#                                CCDC 
#
#######################################################################
#
# If this CIF has been generated from an entry in the Cambridge 
# Structural Database, then it will include bibliographic, chemical, 
# crystal, experimental, refinement or atomic coordinate data resulting 
# from the CCDC's data processing and validation procedures.
#
#######################################################################

data_FIYCIA
_chemical_formula_moiety         'C16 H21 N1 O5'
_chemical_name_systematic        
cis-(3S,4R)-4-(1-ethoxycarbonyl-1-methylethyl)-3-hydroxy-1-(4-methoxyphenyl)-2-azetidinone
_symmetry_cell_setting           monoclinic
_symmetry_space_group_name_H-M   'P 21'
_symmetry_Int_Tables_number      4
_space_group_name_Hall           'P 2yb'
loop_
_symmetry_equiv_pos_site_id
_symmetry_equiv_pos_as_xyz
1 x,y,z
2 -x,1/2+y,-z
_cell_length_a                   11.3832(2)
_cell_length_b                   5.8959(1)
_cell_length_c                   12.2709(2)
_cell_angle_alpha                90
_cell_angle_beta                 110.431(1)
_cell_angle_gamma                90
_cell_volume                     771.745
_exptl_crystal_colour            colorless
_exptl_crystal_description       plate
_chemical_melting_point          78-79deg.C
_cell_formula_units_Z            2
loop_
_atom_site_label
_atom_site_type_symbol
_atom_site_fract_x
_atom_site_fract_y
_atom_site_fract_z
O1 O 0.33825(15) -0.1817(4) 0.83737(13)
O2 O 0.60506(14) 0.0571(3) 0.96250(11)
H1 H 0.6321 0.1310 1.0238
O3 O 0.81313(16) 0.1800(4) 0.80929(18)
O4 O 0.70767(15) 0.4539(3) 0.86369(15)
O5 O -0.00460(15) 0.1153(3) 0.28381(13)
N1 N 0.36708(15) 0.1163(3) 0.72172(14)
C1 C 0.38786(19) -0.0085(4) 0.81989(16)
C2 C 0.49249(19) 0.1504(4) 0.89091(15)
H2 H 0.4603 0.2591 0.9352
C3 C 0.48287(17) 0.2552(4) 0.77002(15)
H3 H 0.4668 0.4206 0.7648
C4 C 0.58830(18) 0.1829(3) 0.72590(16)
C5 C 0.71625(19) 0.2663(4) 0.80595(18)
C6 C 0.8272(3) 0.5624(5) 0.9281(2)
H4 H 0.8125 0.7216 0.9426
H5 H 0.8815 0.5589 0.8814
C7 C 0.8911(3) 0.4456(7) 1.0412(2)
H6 H 0.8395 0.4566 1.0894
H7 H 0.9715 0.5170 1.0807
H8 H 0.9038 0.2872 1.0271
C8 C 0.5722(2) 0.2982(4) 0.60844(18)
H9 H 0.5633 0.4606 0.6155
H10 H 0.4979 0.2388 0.5488
H11 H 0.6452 0.2676 0.5873
C9 C 0.5925(2) -0.0742(4) 0.71196(18)
H12 H 0.6623 -0.1136 0.6875
H13 H 0.5149 -0.1251 0.6538
H14 H 0.6031 -0.1470 0.7857
C10 C 0.27213(17) 0.1094(4) 0.61059(15)
C11 C 0.25504(19) 0.2956(4) 0.53543(18)
H15 H 0.3068 0.4239 0.5586
C12 C 0.16178(19) 0.2896(4) 0.42726(18)
H16 H 0.1507 0.4141 0.3768
C13 C 0.08396(18) 0.1014(4) 0.39204(16)
C14 C 0.0991(2) -0.0806(4) 0.46701(17)
H17 H 0.0461 -0.2074 0.4440
C15 C 0.1926(2) -0.0762(4) 0.57629(17)
H18 H 0.2020 -0.1995 0.6272
C16 C -0.0816(2) -0.0753(6) 0.2415(2)
H19 H -0.0299 -0.2054 0.2405
H20 H -0.1386 -0.0449 0.1632
H21 H -0.1294 -0.1067 0.2915
loop_
_geom_bond_atom_site_label_1
_geom_bond_atom_site_label_2
_geom_bond_site_symmetry_1
_geom_bond_site_symmetry_2
O1 C1 1_555 1_555
O2 H1 1_555 1_555
O3 C5 1_555 1_555
O4 C5 1_555 1_555
O5 C13 1_555 1_555
N1 C1 1_555 1_555
C1 C2 1_555 1_555
C2 O2 1_555 1_555
H2 C2 1_555 1_555
C3 N1 1_555 1_555
H3 C3 1_555 1_555
C4 C3 1_555 1_555
C5 C4 1_555 1_555
C6 O4 1_555 1_555
H4 C6 1_555 1_555
H5 C6 1_555 1_555
C7 C6 1_555 1_555
H6 C7 1_555 1_555
H7 C7 1_555 1_555
H8 C7 1_555 1_555
C8 C4 1_555 1_555
H9 C8 1_555 1_555
H10 C8 1_555 1_555
H11 C8 1_555 1_555
C9 C4 1_555 1_555
H12 C9 1_555 1_555
H13 C9 1_555 1_555
H14 C9 1_555 1_555
C10 N1 1_555 1_555
C11 C10 1_555 1_555
H15 C11 1_555 1_555
C12 C11 1_555 1_555
H16 C12 1_555 1_555
C13 C12 1_555 1_555
C14 C13 1_555 1_555
H17 C14 1_555 1_555
C15 C10 1_555 1_555
H18 C15 1_555 1_555
C16 O5 1_555 1_555
H19 C16 1_555 1_555
H20 C16 1_555 1_555
H21 C16 1_555 1_555
C2 C3 1_555 1_555
C14 C15 1_555 1_555

#END
