
#######################################################################
#
#                 Cambridge Crystallographic Data Centre
#                                CCDC 
#
#######################################################################
#
# If this CIF has been generated from an entry in the Cambridge 
# Structural Database, then it will include bibliographic, chemical, 
# crystal, experimental, refinement or atomic coordinate data resulting 
# from the CCDC's data processing and validation procedures.
#
#######################################################################

data_FIYCEY
_chemical_formula_moiety         'C14 H14 Br1 N1 O6'
_chemical_name_systematic        
'ethyl (6-bromo-3-methyl-3-nitro-4-oxo-3,4-dihydro-2H-1-benzopyran-2-yl)acetate'
_symmetry_cell_setting           orthorhombic
_symmetry_space_group_name_H-M   'P b c a'
_symmetry_Int_Tables_number      61
_space_group_name_Hall           '-P 2ac 2ab'
loop_
_symmetry_equiv_pos_site_id
_symmetry_equiv_pos_as_xyz
1 x,y,z
2 1/2-x,-y,1/2+z
3 -x,1/2+y,1/2-z
4 1/2+x,1/2-y,-z
5 -x,-y,-z
6 1/2+x,y,1/2-z
7 x,1/2-y,1/2+z
8 1/2-x,1/2+y,z
_cell_length_a                   10.1785(3)
_cell_length_b                   11.8901(4)
_cell_length_c                   25.9949(8)
_cell_angle_alpha                90
_cell_angle_beta                 90
_cell_angle_gamma                90
_cell_volume                     3145.99
_exptl_crystal_colour            colorless
_exptl_crystal_description       prismatic
_chemical_melting_point          '372-375 K'
_cell_formula_units_Z            8
_exptl_crystal_recrystallization_method 'Ethyl acetate'
loop_
_atom_site_label
_atom_site_type_symbol
_atom_site_fract_x
_atom_site_fract_y
_atom_site_fract_z
Br1 Br -0.05093(6) 0.89199(5) 0.25168(2)
N1 N 0.3464(3) 0.7624(3) 0.49391(10)
O1 O 0.1254(2) 0.83735(19) 0.44929(8)
O2 O 0.3457(2) 0.61642(18) 0.36697(8)
O3 O 0.3138(4) 0.7387(3) 0.53706(11)
O4 O 0.4189(3) 0.8399(2) 0.48270(11)
O5 O 0.6450(3) 0.6679(3) 0.35950(10)
C1 C 0.2498(3) 0.6757(3) 0.34273(12)
C2 C 0.2279(4) 0.6543(4) 0.29086(13)
H1 H 0.2753 0.5984 0.2741
C3 C 0.1362(4) 0.7160(4) 0.26458(14)
H2 H 0.1216 0.7023 0.2298
C4 C 0.0652(4) 0.7989(4) 0.28978(14)
C5 C 0.0814(3) 0.8179(3) 0.34134(14)
H3 H 0.0309 0.8718 0.3581
C6 C 0.1744(3) 0.7555(3) 0.36842(12)
C7 C 0.1897(3) 0.7715(2) 0.42421(11)
C8 C 0.2916(3) 0.6942(2) 0.44958(11)
C9 C 0.4021(3) 0.6732(2) 0.41062(11)
H4 H 0.4377 0.7457 0.3994
C10 C 0.5136(3) 0.6002(3) 0.42953(12)
H5 H 0.5462 0.6294 0.4619
H6 H 0.4817 0.5244 0.4354
C11 C 0.6236(3) 0.5971(3) 0.39099(13)
O6 O 0.6879(5) 0.4941(4) 0.3953(2)
C12 C 0.8004(5) 0.4736(6) 0.3618(2)
H7 H 0.7829 0.5038 0.3278
H8 H 0.8151 0.3933 0.3585
C13 C 0.9197(8) 0.5283(8) 0.3838(4)
H9 H 0.9115 0.6084 0.3809
H10 H 0.9960 0.5037 0.3652
H11 H 0.9282 0.5078 0.4194
C14 C 0.2258(4) 0.5880(3) 0.46935(14)
H12 H 0.1508 0.6079 0.4898
H13 H 0.2870 0.5463 0.4900
H14 H 0.1982 0.5427 0.4408
O7? O 0.7135(13) 0.5372(10) 0.4021(6)
C15? C 0.8274(13) 0.5487(13) 0.3672(6)
H15? H 0.8033 0.5298 0.3321
H16? H 0.8618 0.6248 0.3679
C16? C 0.9243(13) 0.4684(12) 0.3876(6)
H17? H 0.9411 0.4848 0.4231
H18? H 1.0046 0.4745 0.3684
H19? H 0.8905 0.3933 0.3845
loop_
_geom_bond_atom_site_label_1
_geom_bond_atom_site_label_2
_geom_bond_site_symmetry_1
_geom_bond_site_symmetry_2
Br1 C4 1_555 1_555
N1 O3 1_555 1_555
O1 C7 1_555 1_555
O2 C1 1_555 1_555
O4 N1 1_555 1_555
O5 C11 1_555 1_555
C1 C2 1_555 1_555
C2 H1 1_555 1_555
C3 C2 1_555 1_555
H2 C3 1_555 1_555
C4 C3 1_555 1_555
C5 C4 1_555 1_555
H3 C5 1_555 1_555
C6 C1 1_555 1_555
C7 C6 1_555 1_555
C8 N1 1_555 1_555
C9 O2 1_555 1_555
H4 C9 1_555 1_555
C10 C9 1_555 1_555
H5 C10 1_555 1_555
H6 C10 1_555 1_555
C11 C10 1_555 1_555
O6 C11 1_555 1_555
C12 O6 1_555 1_555
H7 C12 1_555 1_555
H8 C12 1_555 1_555
C13 C12 1_555 1_555
H9 C13 1_555 1_555
H10 C13 1_555 1_555
H11 C13 1_555 1_555
C14 C8 1_555 1_555
H12 C14 1_555 1_555
H13 C14 1_555 1_555
H14 C14 1_555 1_555
C5 C6 1_555 1_555
C7 C8 1_555 1_555
C8 C9 1_555 1_555

#END
