
#######################################################################
#
#                 Cambridge Crystallographic Data Centre
#                                CCDC 
#
#######################################################################
#
# If this CIF has been generated from an entry in the Cambridge 
# Structural Database, then it will include bibliographic, chemical, 
# crystal, experimental, refinement or atomic coordinate data resulting 
# from the CCDC's data processing and validation procedures.
#
#######################################################################

data_FIYCOG
_chemical_formula_moiety         'C14 H15 N1 O4'
_chemical_name_systematic        
(+-)-cis-7-(4-methoxyphenyl)-2,2-dimethyl-4-oxa-7-azabicyclo[3.2.0]heptane-3,6-dione
_symmetry_cell_setting           monoclinic
_symmetry_space_group_name_H-M   'P 21'
_symmetry_Int_Tables_number      4
_space_group_name_Hall           'P 2yb'
loop_
_symmetry_equiv_pos_site_id
_symmetry_equiv_pos_as_xyz
1 x,y,z
2 -x,1/2+y,-z
_cell_length_a                   5.8962(1)
_cell_length_b                   18.5710(2)
_cell_length_c                   11.5292(1)
_cell_angle_alpha                90
_cell_angle_beta                 90.762(1)
_cell_angle_gamma                90
_cell_volume                     1262.32
_exptl_crystal_colour            colorless
_exptl_crystal_description       plate
_chemical_melting_point          169-169.5deg.C
_cell_formula_units_Z            4
_exptl_crystal_recrystallization_method 'ethyl acetate/hexane'
loop_
_atom_site_label
_atom_site_type_symbol
_atom_site_fract_x
_atom_site_fract_y
_atom_site_fract_z
O1 O 0.4503(3) 0.8000 0.43062(14)
O2 O 0.1029(3) 0.83949(12) 0.21463(14)
O3 O 0.0399(4) 0.79678(14) 0.03716(14)
O4 O 0.2837(3) 0.46157(12) 0.63432(14)
N1 N 0.1589(3) 0.71651(12) 0.39053(15)
C1 C 0.2675(4) 0.78154(14) 0.39277(18)
C2 C 0.0640(4) 0.81837(14) 0.33220(19)
H1 H -0.0139 0.8544 0.3793
C3 C -0.0480(3) 0.74317(14) 0.33082(18)
H2 H -0.1860 0.7397 0.3769
C4 C -0.0814(4) 0.72447(15) 0.20235(18)
C5 C 0.0254(4) 0.78830(15) 0.1395(2)
C6 C -0.3365(4) 0.72431(17) 0.1712(2)
H3 H -0.4047 0.7679 0.1986
H4 H -0.4079 0.6837 0.2070
H5 H -0.3557 0.7212 0.0885
C7 C 0.0309(4) 0.65498(16) 0.1613(2)
H6 H 0.1870 0.6545 0.1860
H7 H 0.0225 0.6525 0.0781
H8 H -0.0462 0.6143 0.1938
C8 C 0.4744(5) 0.45172(16) 0.7101(2)
H9 H 0.4766 0.4891 0.7676
H10 H 0.6114 0.4537 0.6661
H11 H 0.4636 0.4057 0.7476
C9 C 0.1986(4) 0.65155(14) 0.45052(18)
C10 C 0.3959(4) 0.64189(14) 0.51593(18)
H12 H 0.5057 0.6778 0.5179
C11 C 0.0366(4) 0.59720(15) 0.4478(2)
H13 H -0.0960 0.6032 0.4044
C12 C 0.4298(4) 0.57915(15) 0.57805(19)
H14 H 0.5623 0.5730 0.6216
C13 C 0.2676(4) 0.52555(15) 0.57583(18)
C14 C 0.0714(4) 0.53431(15) 0.5093(2)
H15 H -0.0364 0.4978 0.5062
O5 O 0.0526(3) 0.85681(12) 0.59114(14)
O6 O 0.1755(3) 0.55130(12) 0.90359(15)
O7 O 0.3888(3) 0.98424(12) 0.67891(15)
O8 O 0.4012(4) 1.03707(14) 0.8521(2)
N2 N 0.3405(3) 0.82415(13) 0.72522(15)
C15 C 0.2345(4) 0.86299(15) 0.63940(18)
C16 C 0.4354(4) 0.91496(16) 0.6317(2)
H16 H 0.5133 0.9152 0.5572
C17 C 0.5500(4) 0.86886(14) 0.72778(18)
H17 H 0.6869 0.8435 0.7032
C18 C 0.2941(4) 0.75561(14) 0.77123(18)
C19 C 0.4524(4) 0.72000(14) 0.84106(19)
H18 H 0.5901 0.7420 0.8590
C20 C 0.4066(4) 0.65245(15) 0.88384(19)
H19 H 0.5132 0.6293 0.9309
C21 C 0.2020(4) 0.61845(15) 0.85736(19)
C22 C 0.0433(4) 0.65358(15) 0.7883(2)
H20 H -0.0944 0.6315 0.7707
C23 C 0.0892(4) 0.72162(15) 0.74516(19)
H21 H -0.0179 0.7448 0.6984
C24 C 0.4482(4) 0.98660(16) 0.7940(2)
C25 C 0.5876(4) 0.92057(14) 0.82868(19)
C26 C 0.5185(4) 0.89485(16) 0.9485(2)
H22 H 0.5270 0.9343 1.0022
H23 H 0.6189 0.8572 0.9738
H24 H 0.3659 0.8769 0.9450
C27 C 0.8366(4) 0.94532(16) 0.8298(2)
H25 H 0.8548 0.9850 0.8825
H26 H 0.8782 0.9602 0.7533
H27 H 0.9323 0.9062 0.8544
C28 C -0.0289(5) 0.51323(16) 0.8758(3)
H28 H -0.0235 0.4662 0.9104
H29 H -0.0440 0.5086 0.7932
H30 H -0.1564 0.5393 0.9053
loop_
_geom_bond_atom_site_label_1
_geom_bond_atom_site_label_2
_geom_bond_site_symmetry_1
_geom_bond_site_symmetry_2
O1 C1 1_555 1_555
O2 C2 1_555 1_555
O3 C5 1_555 1_555
O4 C8 1_555 1_555
N1 C1 1_555 1_555
C1 C2 1_555 1_555
C2 H1 1_555 1_555
C3 N1 1_555 1_555
H2 C3 1_555 1_555
C4 C3 1_555 1_555
C5 O2 1_555 1_555
C6 C4 1_555 1_555
H3 C6 1_555 1_555
H4 C6 1_555 1_555
H5 C6 1_555 1_555
C7 C4 1_555 1_555
H6 C7 1_555 1_555
H7 C7 1_555 1_555
H8 C7 1_555 1_555
C8 H9 1_555 1_555
H10 C8 1_555 1_555
H11 C8 1_555 1_555
C9 N1 1_555 1_555
C10 C9 1_555 1_555
H12 C10 1_555 1_555
C11 C9 1_555 1_555
H13 C11 1_555 1_555
C12 C10 1_555 1_555
H14 C12 1_555 1_555
C13 O4 1_555 1_555
C14 C11 1_555 1_555
H15 C14 1_555 1_555
O5 C15 1_555 1_555
O6 C21 1_555 1_555
O7 C16 1_555 1_555
O8 C24 1_555 1_555
N2 C15 1_555 1_555
C15 C16 1_555 1_555
C16 H16 1_555 1_555
C17 N2 1_555 1_555
H17 C17 1_555 1_555
C18 N2 1_555 1_555
C19 C18 1_555 1_555
H18 C19 1_555 1_555
C20 C19 1_555 1_555
H19 C20 1_555 1_555
C21 C20 1_555 1_555
C22 C21 1_555 1_555
H20 C22 1_555 1_555
C23 C18 1_555 1_555
H21 C23 1_555 1_555
C24 O7 1_555 1_555
C25 C17 1_555 1_555
C26 C25 1_555 1_555
H22 C26 1_555 1_555
H23 C26 1_555 1_555
H24 C26 1_555 1_555
C27 C25 1_555 1_555
H25 C27 1_555 1_555
H26 C27 1_555 1_555
H27 C27 1_555 1_555
C28 O6 1_555 1_555
H28 C28 1_555 1_555
H29 C28 1_555 1_555
H30 C28 1_555 1_555
C2 C3 1_555 1_555
C4 C5 1_555 1_555
C12 C13 1_555 1_555
C13 C14 1_555 1_555
C16 C17 1_555 1_555
C22 C23 1_555 1_555
C24 C25 1_555 1_555

#END
