
#######################################################################
#
#                 Cambridge Crystallographic Data Centre
#                                CCDC 
#
#######################################################################
#
# If this CIF has been generated from an entry in the Cambridge 
# Structural Database, then it will include bibliographic, chemical, 
# crystal, experimental, refinement or atomic coordinate data resulting 
# from the CCDC's data processing and validation procedures.
#
#######################################################################

data_FIYGAX
_chemical_formula_moiety         'C40 H32 N6 O2'
_chemical_name_systematic        
4,4'-(1,2-Phenylenebis(imino(phenylmethylylidene)))bis(5-methyl-2-phenyl-2,4-dihydro-3H-pyrazol-3-one)
_symmetry_cell_setting           triclinic
_symmetry_space_group_name_H-M   'P -1'
_symmetry_Int_Tables_number      2
_space_group_name_Hall           '-P 1'
loop_
_symmetry_equiv_pos_site_id
_symmetry_equiv_pos_as_xyz
1 x,y,z
2 -x,-y,-z
_cell_length_a                   10.871(2)
_cell_length_b                   11.584(3)
_cell_length_c                   13.574(3)
_cell_angle_alpha                88.757(3)
_cell_angle_beta                 75.521(3)
_cell_angle_gamma                82.029(3)
_cell_volume                     1638.94
_exptl_crystal_colour            yellow
_exptl_crystal_description       block
_cell_formula_units_Z            2
loop_
_atom_site_label
_atom_site_type_symbol
_atom_site_fract_x
_atom_site_fract_y
_atom_site_fract_z
C1 C -0.2070(2) 0.59537(17) 0.35164(14)
C2 C -0.2142(2) 0.70470(17) 0.30769(14)
H1 H -0.1405 0.7397 0.2843
C3 C -0.3181(2) 0.54388(19) 0.38478(16)
H2 H -0.3148 0.4705 0.4139
C4 C -0.3314(2) 0.7610(2) 0.29896(17)
H3 H -0.3360 0.8346 0.2704
C5 C -0.4410(2) 0.7108(2) 0.33148(18)
H4 H -0.5194 0.7493 0.3248
C6 C -0.4331(2) 0.6028(2) 0.37397(18)
H5 H -0.5073 0.5682 0.3962
N1 N 0.02062(15) 0.59608(12) 0.33164(11)
N2 N -0.08835(15) 0.53875(12) 0.36186(11)
C7 C -0.05770(19) 0.42755(16) 0.39525(14)
C8 C 0.11812(18) 0.52073(15) 0.33978(13)
C9 C 0.07953(17) 0.41099(15) 0.37634(13)
C10 C 0.14813(18) 0.30351(15) 0.38790(13)
C11 C 0.28862(18) 0.27587(15) 0.34950(15)
C12 C 0.3445(2) 0.28091(16) 0.24622(16)
H6 H 0.2931 0.3009 0.2013
C13 C 0.3668(2) 0.24337(18) 0.41401(16)
H7 H 0.3306 0.2373 0.4833
C14 C 0.4759(2) 0.2566(2) 0.20931(19)
H8 H 0.5126 0.2606 0.1399
C15 C 0.4975(2) 0.2199(2) 0.3771(2)
H9 H 0.5493 0.1994 0.4216
C16 C 0.5520(2) 0.2266(2) 0.2747(2)
H10 H 0.6406 0.2108 0.2499
N3 N 0.08295(14) 0.21870(12) 0.43416(11)
H11 H 0.0027 0.2384 0.4621
C17 C 0.13337(17) 0.09950(15) 0.44154(15)
C18 C 0.16110(17) 0.02495(15) 0.35672(15)
C19 C 0.22209(18) -0.13175(17) 0.46004(17)
H12 H 0.2542 -0.2096 0.4657
C20 C 0.19131(18) -0.05938(18) 0.54377(16)
H13 H 0.2003 -0.0879 0.6065
C21 C 0.14678(18) 0.05637(17) 0.53320(15)
H14 H 0.1254 0.1061 0.5896
C22 C 0.20605(18) -0.09071(16) 0.36849(16)
H15 H 0.2258 -0.1416 0.3129
C23 C -0.05904(17) 0.40241(15) -0.06651(14)
H16 H 0.0050 0.3663 -0.1199
C24 C -0.12764(18) 0.50756(16) -0.08121(15)
H17 H -0.1100 0.5424 -0.1447
C25 C -0.22229(18) 0.56149(17) -0.00246(16)
H18 H -0.2682 0.6329 -0.0123
C26 C -0.18096(18) 0.40383(16) 0.10680(15)
H19 H -0.1994 0.3689 0.1702
C27 C -0.08527(17) 0.35063(15) 0.02728(14)
C28 C -0.24840(18) 0.50900(17) 0.09068(16)
H20 H -0.3128 0.5452 0.1438
N4 N -0.01068(14) 0.24483(12) 0.04317(11)
N5 N 0.05765(14) 0.17441(12) -0.04170(11)
C29 C 0.01980(18) 0.20423(15) 0.13088(16)
C30 C 0.11133(17) 0.10063(15) 0.10122(15)
C31 C 0.12762(17) 0.09025(15) -0.00665(15)
C32 C 0.26577(18) -0.06597(15) 0.13829(14)
C33 C 0.16698(18) 0.03670(15) 0.16973(16)
C34 C 0.23146(18) -0.17071(16) 0.11486(14)
H21 H 0.1460 -0.1765 0.1185
C35 C 0.3229(2) -0.26598(16) 0.08626(15)
H22 H 0.2989 -0.3362 0.0710
C36 C 0.3935(2) -0.05858(17) 0.13112(15)
H23 H 0.4181 0.0114 0.1461
C37 C 0.4483(2) -0.25861(19) 0.08007(16)
H24 H 0.5097 -0.3238 0.0611
C38 C 0.4845(2) -0.1553(2) 0.10173(17)
H25 H 0.5705 -0.1502 0.0966
N6 N 0.13200(15) 0.07334(12) 0.26737(12)
H26 H 0.0824 0.1388 0.2774
O1 O -0.13530(12) 0.35945(10) 0.43304(10)
O2 O -0.02294(13) 0.25035(10) 0.21692(10)
C39 C 0.24756(18) 0.55820(16) 0.31777(15)
H27 H 0.2402 0.6409 0.3077
H28 H 0.3011 0.5189 0.2574
H29 H 0.2850 0.5389 0.3740
C40 C 0.20720(18) -0.00210(15) -0.08038(14)
H30 H 0.1756 -0.0753 -0.0637
H31 H 0.2949 -0.0091 -0.0765
H32 H 0.2020 0.0190 -0.1482
loop_
_geom_bond_atom_site_label_1
_geom_bond_atom_site_label_2
_geom_bond_site_symmetry_1
_geom_bond_site_symmetry_2
C1 C2 1_555 1_555
C2 H1 1_555 1_555
C3 C1 1_555 1_555
H2 C3 1_555 1_555
C4 C2 1_555 1_555
H3 C4 1_555 1_555
C5 C4 1_555 1_555
H4 C5 1_555 1_555
C6 C3 1_555 1_555
H5 C6 1_555 1_555
N1 N2 1_555 1_555
N2 C1 1_555 1_555
C7 N2 1_555 1_555
C8 N1 1_555 1_555
C9 C7 1_555 1_555
C10 C9 1_555 1_555
C11 C10 1_555 1_555
C12 C11 1_555 1_555
H6 C12 1_555 1_555
C13 C11 1_555 1_555
H7 C13 1_555 1_555
C14 C12 1_555 1_555
H8 C14 1_555 1_555
C15 C13 1_555 1_555
H9 C15 1_555 1_555
C16 C14 1_555 1_555
H10 C16 1_555 1_555
N3 C10 1_555 1_555
H11 N3 1_555 1_555
C17 N3 1_555 1_555
C18 C17 1_555 1_555
C19 H12 1_555 1_555
C20 C19 1_555 1_555
H13 C20 1_555 1_555
C21 C17 1_555 1_555
H14 C21 1_555 1_555
C22 C18 1_555 1_555
H15 C22 1_555 1_555
C23 H16 1_555 1_555
C24 C23 1_555 1_555
H17 C24 1_555 1_555
C25 C24 1_555 1_555
H18 C25 1_555 1_555
C26 H19 1_555 1_555
C27 C23 1_555 1_555
C28 C25 1_555 1_555
H20 C28 1_555 1_555
N4 C27 1_555 1_555
N5 N4 1_555 1_555
C29 N4 1_555 1_555
C30 C29 1_555 1_555
C31 N5 1_555 1_555
C32 C33 1_555 1_555
C33 C30 1_555 1_555
C34 C32 1_555 1_555
H21 C34 1_555 1_555
C35 C34 1_555 1_555
H22 C35 1_555 1_555
C36 C32 1_555 1_555
H23 C36 1_555 1_555
C37 C35 1_555 1_555
H24 C37 1_555 1_555
C38 C36 1_555 1_555
H25 C38 1_555 1_555
N6 C18 1_555 1_555
H26 N6 1_555 1_555
O1 C7 1_555 1_555
O2 C29 1_555 1_555
C39 C8 1_555 1_555
H27 C39 1_555 1_555
H28 C39 1_555 1_555
H29 C39 1_555 1_555
C40 C31 1_555 1_555
H30 C40 1_555 1_555
H31 C40 1_555 1_555
H32 C40 1_555 1_555
C5 C6 1_555 1_555
C8 C9 1_555 1_555
C15 C16 1_555 1_555
C19 C22 1_555 1_555
C20 C21 1_555 1_555
C26 C27 1_555 1_555
C26 C28 1_555 1_555
C30 C31 1_555 1_555
C33 N6 1_555 1_555
C37 C38 1_555 1_555

#END
