
#######################################################################
#
#                 Cambridge Crystallographic Data Centre
#                                CCDC 
#
#######################################################################
#
# If this CIF has been generated from an entry in the Cambridge 
# Structural Database, then it will include bibliographic, chemical, 
# crystal, experimental, refinement or atomic coordinate data resulting 
# from the CCDC's data processing and validation procedures.
#
#######################################################################

data_FIYMAE
_chemical_formula_moiety         'C26 H24 N2 O2'
_chemical_name_systematic        
N,N'-(hexa-2,4-diyne-1,6-diyl)bis(2-methyl-N-phenylprop-2-enamide)
_symmetry_cell_setting           orthorhombic
_symmetry_space_group_name_H-M   'P b c a'
_symmetry_Int_Tables_number      61
_space_group_name_Hall           '-P 2ac 2ab'
loop_
_symmetry_equiv_pos_site_id
_symmetry_equiv_pos_as_xyz
1 x,y,z
2 1/2-x,-y,1/2+z
3 -x,1/2+y,1/2-z
4 1/2+x,1/2-y,-z
5 -x,-y,-z
6 1/2+x,y,1/2-z
7 x,1/2-y,1/2+z
8 1/2-x,1/2+y,z
_cell_length_a                   10.4836(5)
_cell_length_b                   14.1445(8)
_cell_length_c                   15.6241(8)
_cell_angle_alpha                90
_cell_angle_beta                 90
_cell_angle_gamma                90
_cell_volume                     2316.82
_exptl_crystal_colour            white
_exptl_crystal_description       block
_cell_formula_units_Z            4
loop_
_atom_site_label
_atom_site_type_symbol
_atom_site_fract_x
_atom_site_fract_y
_atom_site_fract_z
N1 N 0.54131(16) 0.26589(11) 0.65244(10)
O1 O 0.69699(18) 0.31467(13) 0.73964(14)
C1 C 0.4939(2) 0.46974(15) 0.53437(15)
C2 C 0.4835(2) 0.41853(16) 0.59443(16)
C3 C 0.4711(2) 0.35409(15) 0.66656(14)
H1 H 0.3816 0.3397 0.6756
H2 H 0.5030 0.3846 0.7178
C4 C 0.4978(2) 0.20639(14) 0.58454(14)
C5 C 0.6520(2) 0.25291(16) 0.69434(15)
C6 C 0.7161(2) 0.15865(18) 0.68772(15)
C7 C 0.5709(3) 0.19520(18) 0.51197(16)
H3 H 0.6493 0.2255 0.5072
C8 C 0.3812(3) 0.16427(19) 0.5901(2)
H4 H 0.3312 0.1726 0.6387
C9 C 0.6591(3) 0.0812(2) 0.7224(2)
H5 H 0.7024 0.0239 0.7242
H6 H 0.5767 0.0856 0.7442
C10 C 0.3381(4) 0.1095(3) 0.5238(4)
H7 H 0.2581 0.0814 0.5274
C11 C 0.5266(5) 0.1386(3) 0.4465(2)
H8 H 0.5756 0.1293 0.3976
C12 C 0.8420(3) 0.1586(2) 0.6527(2)
H9 H 0.8764 0.0957 0.6550
H10 H 0.8952 0.2005 0.6854
H11 H 0.8390 0.1796 0.5943
C13 C 0.4094(6) 0.0961(3) 0.4541(4)
H12 H 0.3795 0.0576 0.4103
N1D N 0.45869(16) 0.73411(11) 0.34756(10)
O1D O 0.30301(18) 0.68533(13) 0.26036(14)
C1D C 0.5061(2) 0.53026(15) 0.46563(15)
C2D C 0.5165(2) 0.58147(16) 0.40557(16)
C3D C 0.5289(2) 0.64591(15) 0.33344(14)
H1D H 0.6184 0.6603 0.3244
H2D H 0.4970 0.6154 0.2822
C4D C 0.5022(2) 0.79361(14) 0.41546(14)
C5D C 0.3480(2) 0.74709(16) 0.30566(15)
C6D C 0.2839(2) 0.84135(18) 0.31228(15)
C7D C 0.4291(3) 0.80480(18) 0.48803(16)
H3D H 0.3507 0.7745 0.4928
C8D C 0.6188(3) 0.83573(19) 0.4099(2)
H4D H 0.6688 0.8274 0.3613
C9D C 0.3409(3) 0.9188(2) 0.2776(2)
H5D H 0.2976 0.9761 0.2758
H6D H 0.4233 0.9144 0.2558
C10D C 0.6619(4) 0.8905(3) 0.4762(4)
H7D H 0.7419 0.9186 0.4726
C11D C 0.4734(5) 0.8614(3) 0.5535(2)
H8D H 0.4244 0.8707 0.6024
C12D C 0.1580(3) 0.8414(2) 0.3473(2)
H9D H 0.1236 0.9043 0.3450
H10D H 0.1048 0.7995 0.3146
H11D H 0.1610 0.8204 0.4057
C13D C 0.5906(6) 0.9039(3) 0.5459(4)
H12D H 0.6205 0.9424 0.5897
loop_
_geom_bond_atom_site_label_1
_geom_bond_atom_site_label_2
_geom_bond_site_symmetry_1
_geom_bond_site_symmetry_2
N1 C3 1_555 1_555
O1 C5 1_555 1_555
C1 C2 1_555 1_555
C2 C3 1_555 1_555
C3 H1 1_555 1_555
H2 C3 1_555 1_555
C4 N1 1_555 1_555
C5 N1 1_555 1_555
C6 C5 1_555 1_555
C7 C4 1_555 1_555
H3 C7 1_555 1_555
C8 C4 1_555 1_555
H4 C8 1_555 1_555
C9 C6 1_555 1_555
H5 C9 1_555 1_555
H6 C9 1_555 1_555
C10 C8 1_555 1_555
H7 C10 1_555 1_555
C11 C7 1_555 1_555
H8 C11 1_555 1_555
C12 C6 1_555 1_555
H9 C12 1_555 1_555
H10 C12 1_555 1_555
H11 C12 1_555 1_555
C13 C10 1_555 1_555
H12 C13 1_555 1_555
N1D C3D 1_555 1_555
O1D C5D 1_555 1_555
C1D C1 1_555 1_555
C2D C1D 1_555 1_555
C3D C2D 1_555 1_555
H1D C3D 1_555 1_555
H2D C3D 1_555 1_555
C4D N1D 1_555 1_555
C5D N1D 1_555 1_555
C6D C5D 1_555 1_555
C7D C4D 1_555 1_555
H3D C7D 1_555 1_555
C8D C4D 1_555 1_555
H4D C8D 1_555 1_555
C9D C6D 1_555 1_555
H5D C9D 1_555 1_555
H6D C9D 1_555 1_555
C10D C8D 1_555 1_555
H7D C10D 1_555 1_555
C11D C7D 1_555 1_555
H8D C11D 1_555 1_555
C12D C6D 1_555 1_555
H9D C12D 1_555 1_555
H10D C12D 1_555 1_555
H11D C12D 1_555 1_555
C13D C10D 1_555 1_555
H12D C13D 1_555 1_555
C11 C13 1_555 1_555
C11D C13D 1_555 1_555

#END
