
#######################################################################
#
#                 Cambridge Crystallographic Data Centre
#                                CCDC 
#
#######################################################################
#
# If this CIF has been generated from an entry in the Cambridge 
# Structural Database, then it will include bibliographic, chemical, 
# crystal, experimental, refinement or atomic coordinate data resulting 
# from the CCDC's data processing and validation procedures.
#
#######################################################################

data_FIYQEL
_chemical_name_common            2,3,6,7,12,13,16,17-octamethoxyporphycene
_chemical_formula_moiety         'C28 H30 N4 O8,H2 O1'
_chemical_name_systematic        
'3,4,9,10,13,14,19,20-Octamethoxy-21,22,23,24-tetraazapentacyclo[16.2.1.1^2,5^.1^8,11^.1^12,15^]tetracosa-1(21),2,4,6,8(23),9,11,13,15,17,19-undecaene monohydrate'
_symmetry_cell_setting           orthorhombic
_symmetry_space_group_name_H-M   'P b c a'
_symmetry_Int_Tables_number      61
_space_group_name_Hall           '-P 2ac 2ab'
loop_
_symmetry_equiv_pos_site_id
_symmetry_equiv_pos_as_xyz
1 x,y,z
2 1/2-x,-y,1/2+z
3 -x,1/2+y,1/2-z
4 1/2+x,1/2-y,-z
5 -x,-y,-z
6 1/2+x,y,1/2-z
7 x,1/2-y,1/2+z
8 1/2-x,1/2+y,z
_cell_length_a                   13.867(2)
_cell_length_b                   12.856(2)
_cell_length_c                   15.535(2)
_cell_angle_alpha                90
_cell_angle_beta                 90
_cell_angle_gamma                90
_cell_volume                     2769.49
_exptl_crystal_colour            purple
_exptl_crystal_description       plate
_cell_formula_units_Z            4
loop_
_atom_site_label
_atom_site_type_symbol
_atom_site_fract_x
_atom_site_fract_y
_atom_site_fract_z
N1 N 0.0512(2) 0.3615(3) 1.0046(2)
N2 N -0.0812(4) 0.4689(5) 1.1008(3)
O1 O -0.1232(2) 0.2490(3) 1.2352(2)
C1 C 0.0061(3) 0.3136(4) 1.0727(3)
C2 C -0.0613(3) 0.3697(4) 1.1214(3)
C3 C 0.1143(3) 0.2920(4) 0.9698(3)
C4 C -0.1195(3) 0.3434(4) 1.1946(3)
O2 O -0.2408(3) 0.4466(3) 1.2753(3)
C5 C -0.1742(3) 0.4282(4) 1.2125(3)
O3 O 0.0204(4) 0.1416(4) 1.1437(3)
C6 C 0.1769(4) 0.3083(4) 0.9002(3)
H1 H 0.2157 0.2515 0.8871
C7 C 0.1912(4) 0.3937(4) 0.8475(3)
H2 H 0.2372 0.3832 0.8047
C8 C 0.1098(4) 0.1972(4) 1.0164(3)
C9 C 0.0439(4) 0.2099(4) 1.0799(3)
C10 C -0.1501(3) 0.5090(4) 1.1535(3)
O4 O 0.1624(4) 0.1128(3) 0.9948(3)
C11 C -0.0591(5) 0.2381(6) 1.3067(4)
H3 H 0.0038 0.2628 1.2909
H4 H -0.0552 0.1662 1.3229
H5 H -0.0830 0.2781 1.3544
C12 C -0.2975(6) 0.3685(7) 1.3049(6)
H6 H -0.3283 0.3346 1.2572
H7 H -0.3457 0.3965 1.3428
H8 H -0.2587 0.3191 1.3356
C13 C -0.0273(8) 0.0538(7) 1.1249(7)
H9 H -0.0801 0.0695 1.0871
H10 H -0.0516 0.0234 1.1770
H11 H 0.0156 0.0058 1.0972
C14 C 0.2290(7) 0.0819(9) 1.0507(5)
H12 H 0.2047 0.0895 1.1082
H13 H 0.2859 0.1236 1.0439
H14 H 0.2445 0.0102 1.0403
H15 H -0.072(3) 0.495(3) 1.077(3)
N1D N -0.0512(2) 0.6385(3) 0.9954(2)
N2D N 0.0812(4) 0.5311(5) 0.8992(3)
O1D O 0.1232(2) 0.7510(3) 0.7648(2)
C1D C -0.0061(3) 0.6864(4) 0.9273(3)
C2D C 0.0613(3) 0.6303(4) 0.8786(3)
C3D C -0.1143(3) 0.7080(4) 1.0302(3)
C4D C 0.1195(3) 0.6566(4) 0.8054(3)
O2D O 0.2408(3) 0.5534(3) 0.7247(3)
C5D C 0.1742(3) 0.5718(4) 0.7875(3)
O3D O -0.0204(4) 0.8584(4) 0.8563(3)
C6D C -0.1769(4) 0.6917(4) 1.0998(3)
H1D H -0.2157 0.7485 1.1129
C7D C -0.1912(4) 0.6063(4) 1.1525(3)
H2D H -0.2372 0.6168 1.1953
C8D C -0.1098(4) 0.8028(4) 0.9836(3)
C9D C -0.0439(4) 0.7901(4) 0.9201(3)
C10D C 0.1501(3) 0.4910(4) 0.8465(3)
O4D O -0.1624(4) 0.8872(3) 1.0052(3)
C11D C 0.0591(5) 0.7619(6) 0.6933(4)
H3D H -0.0038 0.7372 0.7091
H4D H 0.0552 0.8338 0.6771
H5D H 0.0830 0.7219 0.6456
C12D C 0.2975(6) 0.6315(7) 0.6951(6)
H6D H 0.3283 0.6654 0.7428
H7D H 0.3457 0.6035 0.6572
H8D H 0.2587 0.6809 0.6644
C13D C 0.0273(8) 0.9462(7) 0.8751(7)
H9D H 0.0801 0.9305 0.9129
H10D H 0.0516 0.9766 0.8230
H11D H -0.0156 0.9942 0.9028
C14D C -0.2290(7) 0.9181(9) 0.9493(5)
H12D H -0.2047 0.9105 0.8918
H13D H -0.2859 0.8764 0.9561
H14D H -0.2445 0.9898 0.9597
H15D H 0.072(3) 0.505(3) 0.923(3)
O5 O 0.0000 0.5000 0.0000
loop_
_geom_bond_atom_site_label_1
_geom_bond_atom_site_label_2
_geom_bond_site_symmetry_1
_geom_bond_site_symmetry_2
N1 C1 1_555 1_555
N2 C2 1_555 1_555
O1 C4 1_555 1_555
C1 C2 1_555 1_555
C2 C4 1_555 1_555
C3 N1 1_555 1_555
C4 C5 1_555 1_555
O2 C5 1_555 1_555
C5 C10 1_555 1_555
O3 C9 1_555 1_555
C6 C3 1_555 1_555
H1 C6 1_555 1_555
C7 C6 1_555 1_555
H2 C7 1_555 1_555
C8 C3 1_555 1_555
C9 C1 1_555 1_555
C10 N2 1_555 1_555
O4 C8 1_555 1_555
C11 O1 1_555 1_555
H3 C11 1_555 1_555
H4 C11 1_555 1_555
H5 C11 1_555 1_555
C12 O2 1_555 1_555
H6 C12 1_555 1_555
H7 C12 1_555 1_555
H8 C12 1_555 1_555
C13 O3 1_555 1_555
H9 C13 1_555 1_555
H10 C13 1_555 1_555
H11 C13 1_555 1_555
C14 O4 1_555 1_555
H12 C14 1_555 1_555
H13 C14 1_555 1_555
H14 C14 1_555 1_555
H15 N2 1_555 1_555
N1D C1D 1_555 1_555
N2D C2D 1_555 1_555
O1D C4D 1_555 1_555
C1D C2D 1_555 1_555
C2D C4D 1_555 1_555
C3D N1D 1_555 1_555
C4D C5D 1_555 1_555
O2D C5D 1_555 1_555
C5D C10D 1_555 1_555
O3D C9D 1_555 1_555
C6D C3D 1_555 1_555
H1D C6D 1_555 1_555
C7D C10 1_555 1_555
H2D C7D 1_555 1_555
C8D C3D 1_555 1_555
C9D C1D 1_555 1_555
C10D C7 1_555 1_555
O4D C8D 1_555 1_555
C11D O1D 1_555 1_555
H3D C11D 1_555 1_555
H4D C11D 1_555 1_555
H5D C11D 1_555 1_555
C12D O2D 1_555 1_555
H6D C12D 1_555 1_555
H7D C12D 1_555 1_555
H8D C12D 1_555 1_555
C13D O3D 1_555 1_555
H9D C13D 1_555 1_555
H10D C13D 1_555 1_555
H11D C13D 1_555 1_555
C14D O4D 1_555 1_555
H12D C14D 1_555 1_555
H13D C14D 1_555 1_555
H14D C14D 1_555 1_555
H15D N2D 1_555 1_555
C8 C9 1_555 1_555
N2D C10D 1_555 1_555
C6D C7D 1_555 1_555
C8D C9D 1_555 1_555

#END
