
#######################################################################
#
#                 Cambridge Crystallographic Data Centre
#                                CCDC 
#
#######################################################################
#
# If this CIF has been generated from an entry in the Cambridge 
# Structural Database, then it will include bibliographic, chemical, 
# crystal, experimental, refinement or atomic coordinate data resulting 
# from the CCDC's data processing and validation procedures.
#
#######################################################################

data_FIYQOU
_chemical_formula_moiety         'C25 H24 N10 O2 S1'
_chemical_name_systematic        
3,6-bis(1-(4-Ethoxyphenyl)-5-methyl-1,2,3-triazol-4-yl)-(1,2,4)triazolo(3,4-b)(1,3,4)thiadiazole
_symmetry_cell_setting           triclinic
_symmetry_space_group_name_H-M   'P -1'
_symmetry_Int_Tables_number      2
_space_group_name_Hall           '-P 1'
loop_
_symmetry_equiv_pos_site_id
_symmetry_equiv_pos_as_xyz
1 x,y,z
2 -x,-y,-z
_cell_length_a                   6.4490(10)
_cell_length_b                   11.481(2)
_cell_length_c                   18.168(4)
_cell_angle_alpha                72.08(3)
_cell_angle_beta                 86.57(3)
_cell_angle_gamma                86.72(3)
_cell_volume                     1276.56
_exptl_crystal_colour            colorless
_exptl_crystal_description       block
_chemical_melting_point          '226-227 deg.C'
_cell_formula_units_Z            2
_exptl_crystal_recrystallization_method 'chloroform/petroleum ether/ethanol'
loop_
_atom_site_label
_atom_site_type_symbol
_atom_site_fract_x
_atom_site_fract_y
_atom_site_fract_z
S1 S 0.1204(4) 0.8151(2) 0.17364(17)
O1 O -1.1965(13) 0.0802(8) 0.5729(5)
O2 O 1.0310(12) 0.0943(7) 0.0785(5)
N1 N -0.6237(13) 0.3945(8) 0.3876(5)
N2 N -0.4820(15) 0.3499(8) 0.3443(5)
N3 N -0.3658(13) 0.4394(9) 0.3089(5)
N4 N -0.4015(13) 0.7651(9) 0.2922(5)
N5 N -0.2610(16) 0.8533(8) 0.2503(6)
N6 N -0.1446(12) 0.6674(7) 0.2521(5)
N7 N 0.0002(12) 0.5914(7) 0.2334(4)
N8 N 0.4984(13) 0.6692(7) 0.1300(5)
N9 N 0.6347(13) 0.5984(7) 0.1090(5)
N10 N 0.5569(11) 0.4830(6) 0.1258(4)
C1 C -1.360(2) -0.0470(11) 0.6854(8)
H1 H -1.3501 -0.0910 0.7394
H2 H -1.4775 0.0101 0.6784
H3 H -1.3776 -0.1037 0.6571
C2 C -1.168(2) 0.0188(14) 0.6507(10)
H4 H -1.1483 0.0771 0.6775
H5 H -1.0486 -0.0365 0.6563
C3 C -1.046(2) 0.1502(10) 0.5324(7)
C4 C -0.862(2) 0.1664(12) 0.5598(7)
H6 H -0.8281 0.1200 0.6116
C5 C -0.7227(18) 0.2479(13) 0.5113(7)
H7 H -0.5913 0.2590 0.5299
C6 C -0.7740(18) 0.3144(10) 0.4360(6)
C7 C -0.9566(17) 0.2974(11) 0.4101(6)
H8 H -0.9903 0.3439 0.3582
C8 C -1.0908(17) 0.2188(11) 0.4573(7)
H9 H -1.2214 0.2079 0.4380
C9 C -0.5960(16) 0.5126(11) 0.3794(6)
C10 C -0.7353(19) 0.5870(12) 0.4160(8)
H10 H -0.8372 0.5359 0.4495
H11 H -0.6554 0.6228 0.4458
H12 H -0.8040 0.6509 0.3768
C11 C -0.4305(15) 0.5395(9) 0.3268(6)
C12 C -0.3312(15) 0.6564(9) 0.2946(6)
C13 C -0.1116(18) 0.7892(9) 0.2283(6)
C14 C 0.1490(15) 0.6561(10) 0.1920(5)
C15 C 0.3249(14) 0.6019(9) 0.1604(5)
C16 C 0.3571(13) 0.4859(8) 0.1595(5)
C17 C 0.2256(14) 0.3808(8) 0.1807(6)
H13 H 0.0952 0.4010 0.2032
H14 H 0.2012 0.3586 0.1352
H15 H 0.2940 0.3132 0.2176
C18 C 0.8138(15) 0.1811(9) 0.1583(5)
H16 H 0.8234 0.1034 0.1978
C19 C 0.6951(14) 0.2747(9) 0.1694(6)
H17 H 0.6208 0.2642 0.2183
C20 C 0.6806(13) 0.3863(8) 0.1128(5)
C21 C 0.7838(15) 0.4005(9) 0.0428(5)
H18 H 0.7673 0.4771 0.0026
C22 C 0.9063(15) 0.3085(10) 0.0296(6)
H19 H 0.9848 0.3207 -0.0186
C23 C 0.9180(15) 0.1943(9) 0.0866(6)
C24 C 1.193(2) 0.1071(12) 0.0191(7)
H20 H 1.1627 0.1757 -0.0255
H21 H 1.2085 0.0343 0.0034
C25 C 1.381(2) 0.1250(14) 0.0489(8)
H22 H 1.4959 0.1337 0.0117
H23 H 1.3631 0.1979 0.0644
H24 H 1.4091 0.0559 0.0934
loop_
_geom_bond_atom_site_label_1
_geom_bond_atom_site_label_2
_geom_bond_site_symmetry_1
_geom_bond_site_symmetry_2
S1 C13 1_555 1_555
O1 C2 1_555 1_555
O2 C23 1_555 1_555
N1 N2 1_555 1_555
N2 N3 1_555 1_555
N3 C11 1_555 1_555
N4 N5 1_555 1_555
N5 C13 1_555 1_555
N6 N7 1_555 1_555
N7 C14 1_555 1_555
N8 N9 1_555 1_555
N9 N10 1_555 1_555
N10 C16 1_555 1_555
C1 H1 1_555 1_555
H2 C1 1_555 1_555
H3 C1 1_555 1_555
C2 C1 1_555 1_555
H4 C2 1_555 1_555
H5 C2 1_555 1_555
C3 O1 1_555 1_555
C4 C3 1_555 1_555
H6 C4 1_555 1_555
C5 C4 1_555 1_555
H7 C5 1_555 1_555
C6 N1 1_555 1_555
C7 C6 1_555 1_555
H8 C7 1_555 1_555
C8 C3 1_555 1_555
H9 C8 1_555 1_555
C9 N1 1_555 1_555
C10 C9 1_555 1_555
H10 C10 1_555 1_555
H11 C10 1_555 1_555
H12 C10 1_555 1_555
C11 C9 1_555 1_555
C12 N4 1_555 1_555
C13 N6 1_555 1_555
C14 S1 1_555 1_555
C15 N8 1_555 1_555
C16 C15 1_555 1_555
C17 C16 1_555 1_555
H13 C17 1_555 1_555
H14 C17 1_555 1_555
H15 C17 1_555 1_555
C18 H16 1_555 1_555
C19 C18 1_555 1_555
H17 C19 1_555 1_555
C20 N10 1_555 1_555
C21 C20 1_555 1_555
H18 C21 1_555 1_555
C22 C21 1_555 1_555
H19 C22 1_555 1_555
C23 C18 1_555 1_555
C24 O2 1_555 1_555
H20 C24 1_555 1_555
H21 C24 1_555 1_555
C25 C24 1_555 1_555
H22 C25 1_555 1_555
H23 C25 1_555 1_555
H24 C25 1_555 1_555
N6 C12 1_555 1_555
C5 C6 1_555 1_555
C7 C8 1_555 1_555
C11 C12 1_555 1_555
C14 C15 1_555 1_555
C19 C20 1_555 1_555
C22 C23 1_555 1_555

#END
