
#######################################################################
#
#                 Cambridge Crystallographic Data Centre
#                                CCDC 
#
#######################################################################
#
# If this CIF has been generated from an entry in the Cambridge 
# Structural Database, then it will include bibliographic, chemical, 
# crystal, experimental, refinement or atomic coordinate data resulting 
# from the CCDC's data processing and validation procedures.
#
#######################################################################

data_FIYSEN
_chemical_formula_moiety         'C21 H17 N1 O3'
_chemical_name_systematic        
'3-(4-Cyanobenzylidene)-4-oxo-1-phenylpent-1-en-2-yl acetate'
_symmetry_cell_setting           monoclinic
_symmetry_space_group_name_H-M   'P 21/n'
_symmetry_Int_Tables_number      14
_space_group_name_Hall           '-P 2yn'
loop_
_symmetry_equiv_pos_site_id
_symmetry_equiv_pos_as_xyz
1 x,y,z
2 1/2-x,1/2+y,1/2-z
3 -x,-y,-z
4 1/2+x,1/2-y,1/2+z
_cell_length_a                   11.033(2)
_cell_length_b                   7.4849(13)
_cell_length_c                   21.792(4)
_cell_angle_alpha                90
_cell_angle_beta                 96.722(6)
_cell_angle_gamma                90
_cell_volume                     1787.23
_exptl_crystal_colour            colorless
_exptl_crystal_description       block
_cell_formula_units_Z            4
loop_
_atom_site_label
_atom_site_type_symbol
_atom_site_fract_x
_atom_site_fract_y
_atom_site_fract_z
O1 O 0.08998(13) 0.4844(2) -0.07712(8)
O2 O 0.38093(13) 0.5109(2) 0.07293(6)
O3 O 0.38898(10) 0.80206(16) 0.05171(5)
N1 N 0.1717(2) 1.4488(3) 0.21228(11)
C1 C 0.2555(2) 0.8572(3) -0.14709(10)
H1 H 0.1926 0.8704 -0.1225
C2 C 0.2305(4) 0.8633(5) -0.21009(14)
H2 H 0.1506 0.8797 -0.2280
C3 C 0.3225(5) 0.8456(5) -0.24698(14)
H3 H 0.3046 0.8499 -0.2897
C4 C 0.4401(4) 0.8216(4) -0.22101(13)
H4 H 0.5024 0.8097 -0.2460
C5 C 0.4657(2) 0.8153(3) -0.15796(10)
H5 H 0.5460 0.8000 -0.1404
C6 C 0.37410(19) 0.8314(2) -0.11983(9)
C7 C 0.40732(16) 0.8249(2) -0.05310(8)
H6 H 0.4857 0.8638 -0.0389
C8 C 0.34023(15) 0.7710(2) -0.01038(8)
C9 C 0.21656(16) 0.6897(2) -0.01839(8)
C10 C 0.12668(16) 0.7429(3) 0.01321(9)
H7 H 0.0553 0.6757 0.0083
C11 C 0.12912(15) 0.8967(2) 0.05501(9)
C12 C 0.16893(19) 1.0621(3) 0.03785(10)
H8 H 0.1917 1.0777 -0.0016
C13 C 0.1755(2) 1.2040(3) 0.07804(10)
H9 H 0.2015 1.3149 0.0655
C14 C 0.14391(18) 1.1828(3) 0.13660(10)
C15 C 0.1013(2) 1.0189(3) 0.15392(11)
H10 H 0.0788 1.0036 0.1934
C16 C 0.0921(2) 0.8786(3) 0.11297(11)
H11 H 0.0605 0.7700 0.1245
C17 C 0.19378(18) 0.5264(3) -0.05863(9)
C18 C 0.2988(2) 0.4156(3) -0.07303(10)
H12 H 0.2695 0.3175 -0.0990
H13 H 0.3416 0.3704 -0.0353
H14 H 0.3531 0.4874 -0.0940
C19 C 0.39903(17) 0.6607(3) 0.09076(9)
C20 C 0.4344(2) 0.7164(3) 0.15562(9)
H15 H 0.4410 0.6130 0.1818
H16 H 0.3736 0.7957 0.1683
H17 H 0.5117 0.7768 0.1588
C21 C 0.1577(2) 1.3303(3) 0.17896(11)
loop_
_geom_bond_atom_site_label_1
_geom_bond_atom_site_label_2
_geom_bond_site_symmetry_1
_geom_bond_site_symmetry_2
O1 C17 1_555 1_555
O2 C19 1_555 1_555
O3 C8 1_555 1_555
N1 C21 1_555 1_555
C1 H1 1_555 1_555
C2 C1 1_555 1_555
H2 C2 1_555 1_555
C3 C2 1_555 1_555
H3 C3 1_555 1_555
C4 C3 1_555 1_555
H4 C4 1_555 1_555
C5 C4 1_555 1_555
H5 C5 1_555 1_555
C6 C1 1_555 1_555
C7 C6 1_555 1_555
H6 C7 1_555 1_555
C8 C7 1_555 1_555
C9 C8 1_555 1_555
C10 C9 1_555 1_555
H7 C10 1_555 1_555
C11 C10 1_555 1_555
C12 C11 1_555 1_555
H8 C12 1_555 1_555
C13 C12 1_555 1_555
H9 C13 1_555 1_555
C14 C13 1_555 1_555
C15 C14 1_555 1_555
H10 C15 1_555 1_555
C16 C11 1_555 1_555
H11 C16 1_555 1_555
C17 C9 1_555 1_555
C18 C17 1_555 1_555
H12 C18 1_555 1_555
H13 C18 1_555 1_555
H14 C18 1_555 1_555
C19 O3 1_555 1_555
C20 C19 1_555 1_555
H15 C20 1_555 1_555
H16 C20 1_555 1_555
H17 C20 1_555 1_555
C21 C14 1_555 1_555
C5 C6 1_555 1_555
C15 C16 1_555 1_555

#END
