
#######################################################################
#
#                 Cambridge Crystallographic Data Centre
#                                CCDC 
#
#######################################################################
#
# If this CIF has been generated from an entry in the Cambridge 
# Structural Database, then it will include bibliographic, chemical, 
# crystal, experimental, refinement or atomic coordinate data resulting 
# from the CCDC's data processing and validation procedures.
#
#######################################################################

data_FIYSAJ
_chemical_formula_moiety         'C16 H10 Cl2 O1'
_chemical_name_systematic        3-(1-(3,5-Dichlorophenyl)vinyl)-1-benzofuran
_symmetry_cell_setting           orthorhombic
_symmetry_space_group_name_H-M   'P b c a'
_symmetry_Int_Tables_number      61
_space_group_name_Hall           '-P 2ac 2ab'
loop_
_symmetry_equiv_pos_site_id
_symmetry_equiv_pos_as_xyz
1 x,y,z
2 1/2-x,-y,1/2+z
3 -x,1/2+y,1/2-z
4 1/2+x,1/2-y,-z
5 -x,-y,-z
6 1/2+x,y,1/2-z
7 x,1/2-y,1/2+z
8 1/2-x,1/2+y,z
_cell_length_a                   7.8959(11)
_cell_length_b                   13.1930(18)
_cell_length_c                   25.493(4)
_cell_angle_alpha                90
_cell_angle_beta                 90
_cell_angle_gamma                90
_cell_volume                     2655.62
_exptl_crystal_colour            colorless
_exptl_crystal_description       block
_cell_formula_units_Z            8
loop_
_atom_site_label
_atom_site_type_symbol
_atom_site_fract_x
_atom_site_fract_y
_atom_site_fract_z
Cl1 Cl 0.16480(8) 0.68334(4) 0.19565(2)
Cl2 Cl 0.59751(8) 0.98802(5) 0.23428(2)
O1 O 0.3885(2) 0.73212(11) -0.03960(6)
C1 C 0.2949(3) 0.79540(17) -0.07125(8)
C2 C 0.2481(3) 0.7747(2) -0.12259(9)
H1 H 0.2816 0.7141 -0.1399
C3 C 0.1502(3) 0.8469(2) -0.14707(9)
H2 H 0.1162 0.8365 -0.1824
C4 C 0.0999(3) 0.9346(2) -0.12124(9)
H3 H 0.0315 0.9826 -0.1392
C5 C 0.1471(3) 0.95368(18) -0.07004(9)
H4 H 0.1110 1.0136 -0.0526
C6 C 0.2492(2) 0.88257(15) -0.04441(7)
C7 C 0.3211(2) 0.87191(14) 0.00791(7)
C8 C 0.3998(3) 0.78127(16) 0.00785(8)
H5 H 0.4570 0.7542 0.0375
C9 C 0.3195(2) 0.94534(14) 0.05126(8)
C10 C 0.3451(2) 0.90570(14) 0.10541(7)
C11 C 0.4533(2) 0.95617(15) 0.13985(8)
H6 H 0.5155 1.0137 0.1284
C12 C 0.4693(3) 0.92173(15) 0.19062(8)
C13 C 0.3840(3) 0.83696(16) 0.20861(8)
H7 H 0.3981 0.8132 0.2435
C14 C 0.2779(3) 0.78846(15) 0.17386(8)
C15 C 0.2564(3) 0.82128(14) 0.12304(7)
H8 H 0.1815 0.7864 0.1001
C16 C 0.3011(3) 1.04437(17) 0.04330(9)
H9 H 0.295(3) 1.0733(18) 0.0092(10)
H10 H 0.305(3) 1.0918(18) 0.0723(9)
loop_
_geom_bond_atom_site_label_1
_geom_bond_atom_site_label_2
_geom_bond_site_symmetry_1
_geom_bond_site_symmetry_2
Cl1 C14 1_555 1_555
Cl2 C12 1_555 1_555
O1 C1 1_555 1_555
C1 C2 1_555 1_555
C2 H1 1_555 1_555
C3 C2 1_555 1_555
H2 C3 1_555 1_555
C4 C3 1_555 1_555
H3 C4 1_555 1_555
C5 C4 1_555 1_555
H4 C5 1_555 1_555
C6 C1 1_555 1_555
C7 C6 1_555 1_555
C8 O1 1_555 1_555
H5 C8 1_555 1_555
C9 C7 1_555 1_555
C10 C9 1_555 1_555
C11 C10 1_555 1_555
H6 C11 1_555 1_555
C12 C11 1_555 1_555
C13 C12 1_555 1_555
H7 C13 1_555 1_555
C14 C13 1_555 1_555
C15 C10 1_555 1_555
H8 C15 1_555 1_555
C16 C9 1_555 1_555
H9 C16 1_555 1_555
H10 C16 1_555 1_555
C5 C6 1_555 1_555
C7 C8 1_555 1_555
C14 C15 1_555 1_555

#END
