
#######################################################################
#
#                 Cambridge Crystallographic Data Centre
#                                CCDC 
#
#######################################################################
#
# If this CIF has been generated from an entry in the Cambridge 
# Structural Database, then it will include bibliographic, chemical, 
# crystal, experimental, refinement or atomic coordinate data resulting 
# from the CCDC's data processing and validation procedures.
#
#######################################################################

data_FIYSAH
_chemical_formula_moiety         'C31 H24 N4 O8'
_chemical_name_systematic        2',3',5'-Tri-O-benzoylinosine
_symmetry_cell_setting           orthorhombic
_symmetry_space_group_name_H-M   'P 21 21 21'
_symmetry_Int_Tables_number      19
_space_group_name_Hall           'P 2ac 2ab'
loop_
_symmetry_equiv_pos_site_id
_symmetry_equiv_pos_as_xyz
1 x,y,z
2 1/2-x,-y,1/2+z
3 1/2+x,1/2-y,-z
4 -x,1/2+y,1/2-z
_cell_length_a                   9.849(2)
_cell_length_b                   10.800(2)
_cell_length_c                   25.682(3)
_cell_angle_alpha                90
_cell_angle_beta                 90
_cell_angle_gamma                90
_cell_volume                     2731.77
_exptl_crystal_colour            colorless
_exptl_crystal_description       plate
_cell_formula_units_Z            4
loop_
_atom_site_label
_atom_site_type_symbol
_atom_site_fract_x
_atom_site_fract_y
_atom_site_fract_z
N1 N 0.6009(2) 0.7350(2) 0.03504(9)
H1 H 0.6458 0.8033 0.0349
C1 C 0.6555(3) 0.6388(3) 0.06196(11)
H2 H 0.7384 0.6519 0.0784
N2 N 0.6008(2) 0.5295(2) 0.06655(8)
C2 C 0.4816(3) 0.5218(2) 0.03999(10)
C3 C 0.4185(3) 0.6129(2) 0.01161(10)
C4 C 0.4790(3) 0.7328(2) 0.00774(10)
O1 O 0.4381(2) 0.82442(17) -0.01522(9)
N3 N 0.2990(2) 0.5680(2) -0.01009(9)
C5 C 0.2944(3) 0.4515(2) 0.00472(11)
H3 H 0.2257 0.3971 -0.0049
N4 N 0.4016(2) 0.41878(18) 0.03571(8)
C6 C 0.4343(3) 0.2974(2) 0.05781(9)
H4 H 0.4951 0.3090 0.0876
C7 C 0.3068(3) 0.2275(2) 0.07614(9)
H5 H 0.2283 0.2827 0.0794
O2 O 0.3334(2) 0.16215(16) 0.12359(7)
C8 C 0.2856(2) 0.1296(2) 0.03327(10)
H6 H 0.2182 0.1584 0.0079
O3 O 0.24845(19) 0.00944(15) 0.05316(7)
C9 C 0.4235(3) 0.1144(2) 0.00741(10)
H7 H 0.4686 0.0430 0.0234
O4 O 0.50051(19) 0.22332(16) 0.02050(7)
C10 C 0.4251(3) 0.0962(2) -0.05074(10)
H8 H 0.5182 0.0929 -0.0630
H9 H 0.3817 0.0182 -0.0594
O5 O 0.3550(2) 0.19579(18) -0.07609(7)
C11 C 0.3424(3) 0.2324(3) 0.16707(11)
O6 O 0.3505(3) 0.3433(2) 0.16633(9)
C12 C 0.3442(4) 0.1526(3) 0.21417(11)
C13 C 0.2597(5) 0.0514(4) 0.21797(14)
H10 H 0.2028 0.0309 0.1904
C14 C 0.2591(7) -0.0199(5) 0.26273(16)
H11 H 0.2002 -0.0869 0.2656
C15 C 0.3451(6) 0.0083(5) 0.30255(15)
H12 H 0.3464 -0.0412 0.3322
C16 C 0.4292(5) 0.1080(5) 0.29945(14)
H13 H 0.4864 0.1272 0.3271
C17 C 0.4295(4) 0.1807(4) 0.25516(12)
H14 H 0.4872 0.2487 0.2530
C18 C 0.1287(3) 0.0032(2) 0.07843(10)
O7 O 0.0520(2) 0.08932(19) 0.08074(9)
C19 C 0.1055(3) -0.1201(2) 0.10259(10)
C20 C 0.2008(4) -0.2149(3) 0.09998(12)
H15 H 0.2834 -0.2022 0.0832
C21 C 0.1717(5) -0.3282(3) 0.12250(15)
H16 H 0.2341 -0.3926 0.1200
C22 C 0.0510(5) -0.3465(3) 0.14866(14)
H17 H 0.0328 -0.4228 0.1640
C23 C -0.0425(4) -0.2525(3) 0.15211(14)
H18 H -0.1231 -0.2649 0.1702
C24 C -0.0169(3) -0.1388(3) 0.12860(12)
H19 H -0.0811 -0.0758 0.1302
C25 C 0.3927(4) 0.2176(3) -0.12544(11)
O8 O 0.4829(4) 0.1614(3) -0.14668(10)
C26 C 0.3142(4) 0.3185(3) -0.15052(11)
C27 C 0.2057(4) 0.3759(3) -0.12695(14)
H20 H 0.1786 0.3511 -0.0939
C28 C 0.1369(5) 0.4699(4) -0.15205(18)
H21 H 0.0626 0.5073 -0.1361
C29 C 0.1779(6) 0.5083(4) -0.20060(19)
H22 H 0.1328 0.5729 -0.2172
C30 C 0.2841(6) 0.4519(5) -0.22429(17)
H23 H 0.3108 0.4778 -0.2573
C31 C 0.3538(5) 0.3560(4) -0.20012(13)
H24 H 0.4260 0.3173 -0.2169
loop_
_geom_bond_atom_site_label_1
_geom_bond_atom_site_label_2
_geom_bond_site_symmetry_1
_geom_bond_site_symmetry_2
N1 H1 1_555 1_555
C1 N1 1_555 1_555
H2 C1 1_555 1_555
N2 C1 1_555 1_555
C2 N2 1_555 1_555
C3 C2 1_555 1_555
C4 N1 1_555 1_555
O1 C4 1_555 1_555
N3 C3 1_555 1_555
C5 N3 1_555 1_555
H3 C5 1_555 1_555
N4 C2 1_555 1_555
C6 N4 1_555 1_555
H4 C6 1_555 1_555
C7 C6 1_555 1_555
H5 C7 1_555 1_555
O2 C7 1_555 1_555
C8 C7 1_555 1_555
H6 C8 1_555 1_555
O3 C8 1_555 1_555
C9 C8 1_555 1_555
H7 C9 1_555 1_555
O4 C6 1_555 1_555
C10 C9 1_555 1_555
H8 C10 1_555 1_555
H9 C10 1_555 1_555
O5 C10 1_555 1_555
C11 O2 1_555 1_555
O6 C11 1_555 1_555
C12 C11 1_555 1_555
C13 C12 1_555 1_555
H10 C13 1_555 1_555
C14 C13 1_555 1_555
H11 C14 1_555 1_555
C15 C14 1_555 1_555
H12 C15 1_555 1_555
C16 C15 1_555 1_555
H13 C16 1_555 1_555
C17 C12 1_555 1_555
H14 C17 1_555 1_555
C18 O3 1_555 1_555
O7 C18 1_555 1_555
C19 C18 1_555 1_555
C20 C19 1_555 1_555
H15 C20 1_555 1_555
C21 C20 1_555 1_555
H16 C21 1_555 1_555
C22 C21 1_555 1_555
H17 C22 1_555 1_555
C23 C22 1_555 1_555
H18 C23 1_555 1_555
C24 C19 1_555 1_555
H19 C24 1_555 1_555
C25 O5 1_555 1_555
O8 C25 1_555 1_555
C26 C25 1_555 1_555
C27 C26 1_555 1_555
H20 C27 1_555 1_555
C28 C27 1_555 1_555
H21 C28 1_555 1_555
C29 C28 1_555 1_555
H22 C29 1_555 1_555
C30 C29 1_555 1_555
H23 C30 1_555 1_555
C31 C26 1_555 1_555
H24 C31 1_555 1_555
C3 C4 1_555 1_555
C5 N4 1_555 1_555
C9 O4 1_555 1_555
C16 C17 1_555 1_555
C23 C24 1_555 1_555
C30 C31 1_555 1_555

#END
