
#######################################################################
#
#                 Cambridge Crystallographic Data Centre
#                                CCDC 
#
#######################################################################
#
# If this CIF has been generated from an entry in the Cambridge 
# Structural Database, then it will include bibliographic, chemical, 
# crystal, experimental, refinement or atomic coordinate data resulting 
# from the CCDC's data processing and validation procedures.
#
#######################################################################

data_FIYTIT
_chemical_formula_moiety         'C15 H12 F3 N4 O2'
_chemical_name_systematic        
'2-(3,4-Dicyano-2,5,6-trifluorophenyl)-4,4,5,5-tetramethyl- 4,5-dihydro-1H-imidazol-3-oxide-1-oxyl radical'
_symmetry_cell_setting           tetragonal
_symmetry_space_group_name_H-M   'P 43 21 2'
_symmetry_Int_Tables_number      96
_space_group_name_Hall           'P 4nw 2abw'
loop_
_symmetry_equiv_pos_site_id
_symmetry_equiv_pos_as_xyz
1 x,y,z
2 1/2-y,1/2+x,3/4+z
3 1/2+y,1/2-x,1/4+z
4 1/2+x,1/2-y,1/4-z
5 1/2-x,1/2+y,3/4-z
6 -x,-y,1/2+z
7 y,x,-z
8 -y,-x,1/2-z
_cell_length_a                   11.0542(11)
_cell_length_b                   11.0542(11)
_cell_length_c                   12.7685(13)
_cell_angle_alpha                90
_cell_angle_beta                 90
_cell_angle_gamma                90
_cell_volume                     1560.25
_exptl_crystal_colour            black
_exptl_crystal_description       needle
_cell_formula_units_Z            4
loop_
_atom_site_label
_atom_site_type_symbol
_atom_site_fract_x
_atom_site_fract_y
_atom_site_fract_z
F1 F -0.1959(2) -0.0165(2) 0.11996(19)
N1 N 0.1293(3) 0.0117(3) 0.2448(2)
O1 O 0.1797(3) 0.1140(3) 0.2331(2)
C1 C 0.2346(6) -0.1034(6) 0.3802(4)
H1 H 0.2702 -0.1798 0.3983
H2 H 0.1634 -0.0905 0.4218
H3 H 0.2917 -0.0397 0.3935
C2 C 0.1995(4) -0.1035(4) 0.2608(4)
C3 C 0.0095(3) -0.0095(3) 0.2500
C4 C -0.0832(3) 0.0832(3) 0.2500
C5 C -0.1851(3) 0.0764(3) 0.1864(3)
C6 C -0.2762(4) 0.1629(4) 0.1876(3)
C7 C -0.2657(4) 0.2657(4) 0.2500
C8 C -0.3578(4) 0.3578(4) 0.2500
N2 N -0.4296(4) 0.4296(4) 0.2500
C9 C 0.3124(6) -0.1031(7) 0.1960(6)
H4 H 0.3489 -0.1818 0.1980
H5 H 0.3680 -0.0444 0.2236
H6 H 0.2926 -0.0827 0.1250
N3 N -0.4728(9) 0.1201(11) 0.0871(9)
C10 C -0.372(3) 0.146(2) 0.1266(18)
F1G F 0.0165(2) 0.1959(2) 0.38004(19)
N1G N -0.0117(3) -0.1293(3) 0.2552(2)
O1G O -0.1140(3) -0.1797(3) 0.2669(2)
C1G C 0.1034(6) -0.2346(6) 0.1198(4)
H1G H 0.1798 -0.2702 0.1017
H2G H 0.0905 -0.1634 0.0782
H3G H 0.0397 -0.2917 0.1065
C2G C 0.1035(4) -0.1995(4) 0.2392(4)
C5G C -0.0764(3) 0.1851(3) 0.3136(3)
C6G C -0.1629(4) 0.2762(4) 0.3124(3)
C9G C 0.1031(7) -0.3124(6) 0.3040(6)
H4G H 0.1818 -0.3489 0.3020
H5G H 0.0444 -0.3680 0.2764
H6G H 0.0827 -0.2926 0.3750
N3G N -0.1201(11) 0.4728(9) 0.4129(9)
C10G C -0.146(2) 0.372(3) 0.3734(18)
F2? F -0.384(2) 0.1399(19) 0.1251(15)
loop_
_geom_bond_atom_site_label_1
_geom_bond_atom_site_label_2
_geom_bond_site_symmetry_1
_geom_bond_site_symmetry_2
F1 C5 1_555 1_555
N1 O1 1_555 1_555
C1 H1 1_555 1_555
H2 C1 1_555 1_555
H3 C1 1_555 1_555
C2 N1 1_555 1_555
C3 N1 1_555 1_555
C4 C3 1_555 1_555
C5 C4 1_555 1_555
C6 C5 1_555 1_555
C7 C6 1_555 1_555
C8 C7 1_555 1_555
N2 C8 1_555 1_555
C9 C2 1_555 1_555
H4 C9 1_555 1_555
H5 C9 1_555 1_555
H6 C9 1_555 1_555
N3 C10 1_555 1_555
C10 C6 1_555 1_555
F1G C5G 1_555 1_555
N1G C3 1_555 1_555
O1G N1G 1_555 1_555
C1G H1G 1_555 1_555
H2G C1G 1_555 1_555
H3G C1G 1_555 1_555
C2G C2 1_555 1_555
C5G C4 1_555 1_555
C6G C7 1_555 1_555
C9G C2G 1_555 1_555
H4G C9G 1_555 1_555
H5G C9G 1_555 1_555
H6G C9G 1_555 1_555
N3G C10G 1_555 1_555
C10G C6G 1_555 1_555
C1 C2 1_555 1_555
N1G C2G 1_555 1_555
C1G C2G 1_555 1_555
C5G C6G 1_555 1_555

#END
