
#######################################################################
#
#                 Cambridge Crystallographic Data Centre
#                                CCDC 
#
#######################################################################
#
# If this CIF has been generated from an entry in the Cambridge 
# Structural Database, then it will include bibliographic, chemical, 
# crystal, experimental, refinement or atomic coordinate data resulting 
# from the CCDC's data processing and validation procedures.
#
#######################################################################

data_FIYTUE
_chemical_formula_moiety         'C34 H24 O5'
_chemical_name_systematic        
7-(Hydroxymethyl)-9,9-bis(4-hydroxyphenyl)-8-((4-hydroxyphenyl)ethynyl)-9H-fluoren-2-ol
_symmetry_cell_setting           monoclinic
_symmetry_space_group_name_H-M   'C 2/c'
_symmetry_Int_Tables_number      15
_space_group_name_Hall           '-C 2yn'
loop_
_symmetry_equiv_pos_site_id
_symmetry_equiv_pos_as_xyz
1 x,y,z
2 -x,y,1/2-z
3 1/2+x,1/2+y,z
4 1/2-x,1/2+y,1/2-z
5 -x,-y,-z
6 x,-y,1/2+z
7 1/2-x,1/2-y,-z
8 1/2+x,1/2-y,1/2+z
_cell_length_a                   29.5281(12)
_cell_length_b                   23.7702(4)
_cell_length_c                   21.0105(8)
_cell_angle_alpha                90
_cell_angle_beta                 131.806(7)
_cell_angle_gamma                90
_cell_volume                     10992.5
_exptl_crystal_colour            yellow
_exptl_crystal_description       block
_cell_formula_units_Z            16
loop_
_atom_site_label
_atom_site_type_symbol
_atom_site_fract_x
_atom_site_fract_y
_atom_site_fract_z
O1 O 0.04362(7) 0.37955(6) 0.21179(10)
H1 H 0.0070 0.3746 0.1820
O2 O 0.47695(7) 0.37557(7) 0.66744(11)
H2 H 0.4674 0.4054 0.6416
O3 O 0.23959(8) 0.05599(7) 0.53637(11)
H3 H 0.2583 0.0332 0.5321
C1 C 0.33950(9) 0.25860(9) 0.50997(13)
C2 C 0.06934(10) 0.33241(9) 0.20862(13)
O4 O 0.04682(8) 0.13769(9) -0.09069(11)
H4 H 0.0112 0.1305 -0.1322
O5 O 0.38205(8) 0.23847(10) 0.30088(14)
C3 C 0.29013(10) 0.22012(9) 0.45621(14)
C4 C 0.11748(9) 0.10290(9) 0.22661(14)
C5 C 0.20076(9) 0.14716(9) 0.36187(13)
C6 C 0.24813(9) 0.18824(9) 0.41134(13)
C7 C 0.14740(10) 0.06686(9) 0.35621(15)
H5 H 0.1418 0.0415 0.3842
C8 C 0.08764(9) 0.10776(9) 0.13664(13)
C9 C 0.11369(9) 0.15260(9) 0.12796(13)
C10 C 0.19349(9) 0.10641(9) 0.40356(14)
C11 C 0.10952(10) 0.06427(9) 0.26818(14)
H6 H 0.0792 0.0371 0.2373
C12 C 0.03568(9) 0.28484(9) 0.16276(13)
H7 H -0.0058 0.2837 0.1325
C13 C 0.16200(9) 0.14474(9) 0.27290(13)
C14 C 0.12671(9) 0.23904(9) 0.20828(12)
C15 C 0.06445(9) 0.23896(9) 0.16245(13)
H8 H 0.0417 0.2073 0.1309
C16 C 0.22204(10) 0.24191(10) 0.19480(14)
H9 H 0.1880 0.2639 0.1546
C17 C 0.21736(9) 0.19674(9) 0.23287(13)
C18 C 0.40423(11) 0.33287(10) 0.53028(15)
H10 H 0.4162 0.3563 0.5084
C19 C 0.13113(10) 0.33362(9) 0.25495(13)
H11 H 0.1536 0.3656 0.2858
C20 C 0.27626(11) 0.25459(11) 0.21561(16)
H12 H 0.2785 0.2846 0.1894
C21 C 0.43211(9) 0.33668(9) 0.61559(14)
C22 C 0.26783(10) 0.16248(10) 0.28782(14)
H13 H 0.2650 0.1305 0.3105
C23 C 0.15961(10) 0.28702(9) 0.25535(13)
H14 H 0.2013 0.2878 0.2876
C24 C 0.41537(10) 0.30112(10) 0.64903(14)
H15 H 0.4350 0.3032 0.7065
C25 C 0.36929(10) 0.26249(9) 0.59636(14)
H16 H 0.3580 0.2387 0.6188
C26 C 0.15778(9) 0.18518(9) 0.21179(13)
C27 C 0.23573(11) 0.10832(10) 0.49952(14)
H17 H 0.2760 0.1189 0.5227
H18 H 0.2218 0.1372 0.5157
C28 C 0.04403(10) 0.07420(10) 0.06617(15)
H19 H 0.0252 0.0451 0.0707
C29 C 0.35826(10) 0.29364(10) 0.47797(14)
H20 H 0.3398 0.2907 0.4210
C30 C 0.09908(10) 0.16348(10) 0.05162(14)
H21 H 0.1167 0.1934 0.0464
C31 C 0.32260(11) 0.17515(11) 0.30948(16)
H22 H 0.3561 0.1519 0.3467
C32 C 0.05741(11) 0.12855(11) -0.01710(15)
C33 C 0.02918(11) 0.08480(11) -0.01047(15)
H23 H 0.0002 0.0627 -0.0579
C34 C 0.32732(11) 0.22209(12) 0.27596(16)
O6 O 0.16661(8) -0.02069(8) 0.06254(10)
H24 H 0.1852 -0.0335 0.0493
O7 O 0.42494(7) 0.12484(6) 0.63414(10)
H25 H 0.4329 0.1200 0.6793
C35 C 0.39356(9) 0.07884(9) 0.58175(13)
C36 C 0.22574(10) -0.00801(9) 0.27941(14)
H26 H 0.2223 0.0166 0.3103
O8 O 0.52887(9) -0.20423(9) 0.53865(12)
C37 C 0.39960(10) -0.11058(9) 0.45956(13)
O9 O 0.12709(9) -0.08204(10) 0.40315(15)
H27 H 0.1071 -0.0691 0.3549
C38 C 0.34982(9) -0.11079(9) 0.45424(12)
C39 C 0.41375(10) -0.03322(10) 0.38396(14)
C40 C 0.37623(10) 0.07947(9) 0.50246(14)
H28 H 0.3849 0.1106 0.4854
C41 C 0.26088(9) -0.09339(9) 0.43036(13)
C42 C 0.28725(10) -0.14289(9) 0.47719(14)
C43 C 0.19327(10) 0.00284(10) 0.19369(14)
H29 H 0.1689 0.0347 0.1681
C44 C 0.42087(10) 0.00827(10) 0.34203(14)
C45 C 0.38056(10) 0.03275(9) 0.60768(14)
H30 H 0.3927 0.0321 0.6614
O10 O 0.44422(12) 0.13110(8) 0.22496(15)
C46 C 0.34246(10) -0.15384(9) 0.49200(13)
C47 C 0.34913(9) -0.01244(9) 0.55219(13)
H31 H 0.3400 -0.0432 0.5693
C48 C 0.34584(10) 0.03376(9) 0.44818(13)
H32 H 0.3353 0.0342 0.3954
C49 C 0.38442(11) -0.19729(10) 0.53518(15)
H33 H 0.3791 -0.2265 0.5591
C50 C 0.40719(9) -0.06752(10) 0.41951(14)
C51 C 0.33081(9) -0.01281(9) 0.47130(13)
C52 C 0.26344(9) -0.05489(9) 0.32034(13)
C53 C 0.37253(12) 0.04246(12) 0.27812(16)
H34 H 0.3346 0.0377 0.2615
C54 C 0.44276(10) -0.15424(10) 0.50494(13)
C55 C 0.26492(10) -0.09224(9) 0.27051(14)
H35 H 0.2885 -0.1246 0.2955
C56 C 0.19716(10) -0.03369(10) 0.14625(13)
C57 C 0.30019(9) -0.06588(9) 0.41523(13)
C58 C 0.23209(10) -0.08223(10) 0.18464(14)
H36 H 0.2334 -0.1080 0.1526
C59 C 0.26058(11) -0.17152(10) 0.50310(16)
H37 H 0.2784 -0.2040 0.5358
C60 C 0.18047(11) -0.10271(11) 0.43039(16)
C61 C 0.20777(10) -0.07293(10) 0.40633(15)
H38 H 0.1904 -0.0399 0.3747
C62 C 0.20753(11) -0.15117(11) 0.47976(17)
H39 H 0.1897 -0.1700 0.4971
C63 C 0.47725(10) 0.01600(10) 0.36534(14)
H40 H 0.5099 -0.0066 0.4075
C64 C 0.48497(12) 0.05690(10) 0.32645(16)
H41 H 0.5226 0.0617 0.3424
C65 C 0.43454(11) -0.19640(10) 0.54203(15)
H42 H 0.4634 -0.2248 0.5723
C66 C 0.49846(11) -0.15224(11) 0.51547(15)
H43 H 0.4866 -0.1398 0.4622
H44 H 0.5264 -0.1246 0.5588
C67 C 0.43641(13) 0.09074(11) 0.26355(17)
C68 C 0.38021(13) 0.08347(12) 0.23906(17)
H45 H 0.3476 0.1060 0.1965
loop_
_geom_bond_atom_site_label_1
_geom_bond_atom_site_label_2
_geom_bond_site_symmetry_1
_geom_bond_site_symmetry_2
O1 H1 1_555 1_555
O2 H2 1_555 1_555
O3 H3 1_555 1_555
C1 C3 1_555 1_555
C2 O1 1_555 1_555
O4 H4 1_555 1_555
O5 C34 1_555 1_555
C3 C6 1_555 1_555
C4 C8 1_555 1_555
C5 C6 1_555 1_555
C7 H5 1_555 1_555
C8 C9 1_555 1_555
C9 C26 1_555 1_555
C10 C5 1_555 1_555
C11 C4 1_555 1_555
H6 C11 1_555 1_555
C12 C2 1_555 1_555
H7 C12 1_555 1_555
C13 C4 1_555 1_555
C14 C15 1_555 1_555
C15 C12 1_555 1_555
H8 C15 1_555 1_555
C16 H9 1_555 1_555
C17 C16 1_555 1_555
C18 H10 1_555 1_555
C19 C2 1_555 1_555
H11 C19 1_555 1_555
C20 C16 1_555 1_555
H12 C20 1_555 1_555
C21 O2 1_555 1_555
C22 C17 1_555 1_555
H13 C22 1_555 1_555
C23 C14 1_555 1_555
H14 C23 1_555 1_555
C24 C21 1_555 1_555
H15 C24 1_555 1_555
C25 C1 1_555 1_555
H16 C25 1_555 1_555
C26 C13 1_555 1_555
C27 O3 1_555 1_555
H17 C27 1_555 1_555
H18 C27 1_555 1_555
C28 C8 1_555 1_555
H19 C28 1_555 1_555
C29 C1 1_555 1_555
H20 C29 1_555 1_555
C30 C9 1_555 1_555
H21 C30 1_555 1_555
C31 C22 1_555 1_555
H22 C31 1_555 1_555
C32 O4 1_555 1_555
C33 C28 1_555 1_555
H23 C33 1_555 1_555
C34 C20 1_555 1_555
O6 H24 1_555 1_555
O7 H25 1_555 1_555
C35 O7 1_555 1_555
C36 H26 1_555 1_555
O8 C66 1_555 1_555
C37 C38 1_555 1_555
O9 H27 1_555 1_555
C38 C46 1_555 1_555
C39 C44 1_555 1_555
C40 C35 1_555 1_555
H28 C40 1_555 1_555
C41 C42 1_555 1_555
C42 C46 1_555 1_555
C43 C36 1_555 1_555
H29 C43 1_555 1_555
C44 C53 1_555 1_555
C45 C35 1_555 1_555
H30 C45 1_555 1_555
O10 C67 1_555 1_555
C46 C49 1_555 1_555
C47 C45 1_555 1_555
H31 C47 1_555 1_555
C48 C40 1_555 1_555
H32 C48 1_555 1_555
C49 H33 1_555 1_555
C50 C37 1_555 1_555
C51 C47 1_555 1_555
C52 C36 1_555 1_555
C53 H34 1_555 1_555
C54 C37 1_555 1_555
C55 C52 1_555 1_555
H35 C55 1_555 1_555
C56 O6 1_555 1_555
C57 C38 1_555 1_555
C58 C55 1_555 1_555
H36 C58 1_555 1_555
C59 C42 1_555 1_555
H37 C59 1_555 1_555
C60 O9 1_555 1_555
C61 C41 1_555 1_555
H38 C61 1_555 1_555
C62 C59 1_555 1_555
H39 C62 1_555 1_555
C63 C44 1_555 1_555
H40 C63 1_555 1_555
C64 C63 1_555 1_555
H41 C64 1_555 1_555
C65 C49 1_555 1_555
H42 C65 1_555 1_555
C66 C54 1_555 1_555
H43 C66 1_555 1_555
H44 C66 1_555 1_555
C67 C64 1_555 1_555
C68 C53 1_555 1_555
H45 C68 1_555 1_555
C5 C13 1_555 1_555
C7 C10 1_555 1_555
C7 C11 1_555 1_555
C10 C27 1_555 1_555
C14 C26 1_555 1_555
C17 C26 1_555 1_555
C18 C21 1_555 1_555
C18 C29 1_555 1_555
C19 C23 1_555 1_555
C24 C25 1_555 1_555
C30 C32 1_555 1_555
C31 C34 1_555 1_555
C32 C33 1_555 1_555
C39 C50 1_555 1_555
C41 C57 1_555 1_555
C43 C56 1_555 1_555
C48 C51 1_555 1_555
C51 C57 1_555 1_555
C52 C57 1_555 1_555
C54 C65 1_555 1_555
C56 C58 1_555 1_555
C60 C61 1_555 1_555
C60 C62 1_555 1_555
C67 C68 1_555 1_555

#END
