
#######################################################################
#
#                 Cambridge Crystallographic Data Centre
#                                CCDC 
#
#######################################################################
#
# If this CIF has been generated from an entry in the Cambridge 
# Structural Database, then it will include bibliographic, chemical, 
# crystal, experimental, refinement or atomic coordinate data resulting 
# from the CCDC's data processing and validation procedures.
#
#######################################################################

data_FIYTOY
_chemical_formula_moiety         'C14 H16 N2 O6'
_chemical_name_systematic        
3,3',4,4'-Tetramethoxy-1H,1'H-2,2'-bipyrrole-5,5'-dicarbaldehyde
_symmetry_cell_setting           triclinic
_symmetry_space_group_name_H-M   'P -1'
_symmetry_Int_Tables_number      2
_space_group_name_Hall           '-P 1'
loop_
_symmetry_equiv_pos_site_id
_symmetry_equiv_pos_as_xyz
1 x,y,z
2 -x,-y,-z
_cell_length_a                   4.379(4)
_cell_length_b                   8.588(8)
_cell_length_c                   9.945(9)
_cell_angle_alpha                77.220(14)
_cell_angle_beta                 82.897(15)
_cell_angle_gamma                85.329(14)
_cell_volume                     361.37
_exptl_crystal_colour            yellow
_exptl_crystal_description       needle
_cell_formula_units_Z            1
loop_
_atom_site_label
_atom_site_type_symbol
_atom_site_fract_x
_atom_site_fract_y
_atom_site_fract_z
O1 O 1.0602(5) 0.2816(2) 0.3228(2)
N1 N 0.7662(5) -0.1034(3) 0.4085(2)
O2 O 0.4025(5) -0.2808(2) 0.2833(2)
C1 C 0.7502(6) 0.1030(3) 0.2305(3)
C2 C 0.9256(6) 0.0105(3) 0.4382(3)
C3 C 0.6557(6) -0.0506(3) 0.2825(3)
O3 O 0.6766(5) 0.1911(3) 0.1064(2)
C4 C 0.9170(6) 0.1428(3) 0.3285(3)
C5 C 0.4747(7) -0.1474(4) 0.2261(3)
C6 C 0.8509(9) 0.4126(3) 0.3445(4)
H1 H 0.6928 0.4250 0.2836
H2 H 0.9606 0.5088 0.3255
H3 H 0.7589 0.3920 0.4390
C7 C 0.8945(11) 0.2891(6) 0.0247(4)
H4 H 0.9249 0.3746 0.0688
H5 H 0.8242 0.3328 -0.0643
H6 H 1.0857 0.2280 0.0130
H7 H 0.729(7) -0.191(4) 0.464(3)
H8 H 0.401(7) -0.094(4) 0.138(4)
O1A O 0.9398(5) -0.2816(2) 0.6772(2)
N1A N 1.2338(5) 0.1034(3) 0.5915(2)
O2A O 1.5975(5) 0.2808(2) 0.7167(2)
C1A C 1.2498(6) -0.1030(3) 0.7695(3)
C2A C 1.0744(6) -0.0105(3) 0.5618(3)
C3A C 1.3443(6) 0.0506(3) 0.7175(3)
O3A O 1.3234(5) -0.1911(3) 0.8936(2)
C4A C 1.0830(6) -0.1428(3) 0.6715(3)
C5A C 1.5253(7) 0.1474(4) 0.7739(3)
C6A C 1.1491(9) -0.4126(3) 0.6555(4)
H1A H 1.3072 -0.4250 0.7164
H2A H 1.0394 -0.5088 0.6745
H3A H 1.2411 -0.3920 0.5610
C7A C 1.1055(11) -0.2891(6) 0.9753(4)
H4A H 1.0751 -0.3746 0.9312
H5A H 1.1758 -0.3328 1.0643
H6A H 0.9143 -0.2280 0.9870
H7A H 1.271(7) 0.191(4) 0.536(3)
H8A H 1.599(7) 0.094(4) 0.862(4)
loop_
_geom_bond_atom_site_label_1
_geom_bond_atom_site_label_2
_geom_bond_site_symmetry_1
_geom_bond_site_symmetry_2
O1 C4 1_555 1_555
N1 C2 1_555 1_555
O2 C5 1_555 1_555
C1 C3 1_555 1_555
C2 C4 1_555 1_555
C3 N1 1_555 1_555
O3 C1 1_555 1_555
C4 C1 1_555 1_555
C5 C3 1_555 1_555
C6 O1 1_555 1_555
H1 C6 1_555 1_555
H2 C6 1_555 1_555
H3 C6 1_555 1_555
C7 O3 1_555 1_555
H4 C7 1_555 1_555
H5 C7 1_555 1_555
H6 C7 1_555 1_555
H7 N1 1_555 1_555
H8 C5 1_555 1_555
O1A C4A 1_555 1_555
N1A C2A 1_555 1_555
O2A C5A 1_555 1_555
C1A C3A 1_555 1_555
C2A C2 1_555 1_555
C3A N1A 1_555 1_555
O3A C1A 1_555 1_555
C4A C1A 1_555 1_555
C5A C3A 1_555 1_555
C6A O1A 1_555 1_555
H1A C6A 1_555 1_555
H2A C6A 1_555 1_555
H3A C6A 1_555 1_555
C7A O3A 1_555 1_555
H4A C7A 1_555 1_555
H5A C7A 1_555 1_555
H6A C7A 1_555 1_555
H7A N1A 1_555 1_555
H8A C5A 1_555 1_555
C2A C4A 1_555 1_555

#END
