
#######################################################################
#
#                 Cambridge Crystallographic Data Centre
#                                CCDC 
#
#######################################################################
#
# If this CIF has been generated from an entry in the Cambridge 
# Structural Database, then it will include bibliographic, chemical, 
# crystal, experimental, refinement or atomic coordinate data resulting 
# from the CCDC's data processing and validation procedures.
#
#######################################################################

data_FIYTAK
_chemical_formula_moiety         'C14 H14 O5'
_chemical_name_systematic        
4-Hydroxy-2,3-dimethoxy-3,4-dihydrodibenzo[b,d]furan-1(2H)-one
_symmetry_cell_setting           monoclinic
_symmetry_space_group_name_H-M   'P 21'
_symmetry_Int_Tables_number      4
_space_group_name_Hall           'P 2yb'
loop_
_symmetry_equiv_pos_site_id
_symmetry_equiv_pos_as_xyz
1 x,y,z
2 -x,1/2+y,-z
_cell_length_a                   10.2195(5)
_cell_length_b                   4.7644(3)
_cell_length_c                   13.9604(8)
_cell_angle_alpha                90
_cell_angle_beta                 107.933(3)
_cell_angle_gamma                90
_cell_volume                     646.706
_exptl_crystal_colour            colorless
_exptl_crystal_description       block
_cell_formula_units_Z            2
_exptl_crystal_recrystallization_method chloroform/methanol
loop_
_atom_site_label
_atom_site_type_symbol
_atom_site_fract_x
_atom_site_fract_y
_atom_site_fract_z
O1 O 0.17534(18) 0.5739(5) 0.65702(13)
O2 O 0.35491(18) 0.2580(5) 0.80541(14)
O3 O 0.2483(2) -0.0463(6) 0.93722(16)
O4 O -0.01382(18) 0.1618(4) 0.95165(11)
O5 O -0.18987(16) 0.3794(4) 0.77449(12)
C1 C 0.1290(2) 0.4312(6) 0.71165(17)
C2 C 0.2124(2) 0.2049(6) 0.78171(18)
C3 C 0.4212(3) 0.0911(9) 0.7508(2)
C4 C 0.1767(3) 0.1822(6) 0.88065(17)
C5 C 0.3493(4) 0.0308(15) 1.0291(3)
C6 C 0.0243(3) 0.1262(5) 0.86226(16)
C7 C -0.0558(2) 0.3222(5) 0.78365(16)
C8 C -0.2330(2) 0.5682(6) 0.69487(17)
C9 C -0.3621(3) 0.6860(7) 0.6611(2)
C10 C -0.3837(3) 0.8754(7) 0.5824(2)
C11 C -0.2811(3) 0.9360(7) 0.53978(19)
C12 C -0.1515(3) 0.8157(7) 0.57459(18)
C13 C -0.1271(2) 0.6265(6) 0.65470(15)
C14 C -0.0118(2) 0.4604(6) 0.71432(15)
H1 H 0.1922 0.0232 0.7474
H2 H 0.4106 -0.1028 0.7643
H3 H 0.5190 0.1338 0.7716
H4 H 0.3816 0.1213 0.6794
H5 H 0.2020 0.3543 0.9174
H6 H 0.3975 -0.1366 1.0596
H7 H 0.3036 0.1151 1.0736
H8 H 0.4118 0.1610 1.0140
H9 H 0.0033 -0.0687 0.8380
H10 H 0.0037 0.0168 0.9872
H11 H -0.4316 0.6397 0.6893
H12 H -0.4709 0.9595 0.5562
H13 H -0.3007 1.0622 0.4851
H14 H -0.0794 0.8586 0.5471
loop_
_geom_bond_atom_site_label_1
_geom_bond_atom_site_label_2
_geom_bond_site_symmetry_1
_geom_bond_site_symmetry_2
O1 C1 1_555 1_555
O2 C2 1_555 1_555
O3 C4 1_555 1_555
O4 C6 1_555 1_555
O5 C7 1_555 1_555
C1 C2 1_555 1_555
C2 C4 1_555 1_555
C3 O2 1_555 1_555
C4 C6 1_555 1_555
C5 O3 1_555 1_555
C6 C7 1_555 1_555
C7 C14 1_555 1_555
C8 O5 1_555 1_555
C9 C8 1_555 1_555
C10 C9 1_555 1_555
C11 C10 1_555 1_555
C12 C11 1_555 1_555
C13 C8 1_555 1_555
C14 C1 1_555 1_555
H1 C2 1_555 1_555
H2 C3 1_555 1_555
H3 C3 1_555 1_555
H4 C3 1_555 1_555
H5 C4 1_555 1_555
H6 C5 1_555 1_555
H7 C5 1_555 1_555
H8 C5 1_555 1_555
H9 C6 1_555 1_555
H10 O4 1_555 1_555
H11 C9 1_555 1_555
H12 C10 1_555 1_555
H13 C11 1_555 1_555
H14 C12 1_555 1_555
C12 C13 1_555 1_555
C13 C14 1_555 1_555

#END
