
#######################################################################
#
#                 Cambridge Crystallographic Data Centre
#                                CCDC 
#
#######################################################################
#
# If this CIF has been generated from an entry in the Cambridge 
# Structural Database, then it will include bibliographic, chemical, 
# crystal, experimental, refinement or atomic coordinate data resulting 
# from the CCDC's data processing and validation procedures.
#
#######################################################################

data_FIYVEP
_chemical_formula_moiety         'C21 H31 Br1 S8'
_chemical_name_systematic        
3-(12-Bromododecylthio)-4-(methylthio)-3',4'-(ethylenedithio)tetrathiafulvalene
_symmetry_cell_setting           monoclinic
_symmetry_space_group_name_H-M   'P 21/n'
_symmetry_Int_Tables_number      14
_space_group_name_Hall           '-P 2yn'
loop_
_symmetry_equiv_pos_site_id
_symmetry_equiv_pos_as_xyz
1 x,y,z
2 1/2-x,1/2+y,1/2-z
3 -x,-y,-z
4 1/2+x,1/2-y,1/2+z
_cell_length_a                   5.3989(4)
_cell_length_b                   48.565(4)
_cell_length_c                   10.5256(9)
_cell_angle_alpha                90
_cell_angle_beta                 101.676(4)
_cell_angle_gamma                90
_cell_volume                     2702.68
_exptl_crystal_colour            orange
_exptl_crystal_description       plate
_chemical_melting_point          69-70deg.C
_cell_formula_units_Z            4
_exptl_crystal_recrystallization_method chloroform/n-hexane
loop_
_atom_site_label
_atom_site_type_symbol
_atom_site_fract_x
_atom_site_fract_y
_atom_site_fract_z
Br1 Br 1.4356(3) 0.38653(3) -0.07322(14)
S1 S -1.2776(7) 0.70537(7) 0.2257(3)
S2 S -0.9754(7) 0.67453(6) 0.0741(3)
S3 S -1.0636(7) 0.66771(6) 0.4794(3)
S4 S -0.7627(7) 0.63574(6) 0.3250(3)
S5 S -1.2952(8) 0.75719(7) 0.0765(4)
S6 S -0.9635(8) 0.71877(8) -0.1185(4)
S7 S -0.7937(7) 0.64307(7) 0.7335(3)
S8 S -0.4722(7) 0.60597(6) 0.5626(3)
C1 C -1.064(2) 0.6785(2) 0.2238(12)
C2 C -0.967(2) 0.6629(2) 0.3289(11)
C3 C -1.184(2) 0.7231(2) 0.0973(12)
C4 C -1.052(3) 0.7085(2) 0.0278(12)
C5 C -0.830(2) 0.6454(2) 0.5660(10)
C6 C -0.696(2) 0.6305(2) 0.4945(10)
C7 C -1.177(3) 0.7670(3) -0.0629(14)
H1 H -1.2691 0.7832 -0.1009
H2 H -1.0009 0.7724 -0.0352
C8 C -1.193(3) 0.7454(3) -0.1663(12)
H3 H -1.1664 0.7539 -0.2459
H4 H -1.3615 0.7374 -0.1834
C9 C -0.544(3) 0.6679(3) 0.7822(13)
H5 H -0.5015 0.6688 0.8751
H6 H -0.5999 0.6856 0.7477
H7 H -0.3980 0.6623 0.7496
C10 C -0.351(2) 0.5939(2) 0.4250(11)
H8 H -0.4896 0.5869 0.3592
H9 H -0.2726 0.6090 0.3879
C11 C -0.160(2) 0.5713(2) 0.4665(11)
H10 H -0.2391 0.5564 0.5057
H11 H -0.0216 0.5784 0.5314
C12 C -0.056(2) 0.5599(2) 0.3509(12)
H12 H -0.1968 0.5537 0.2844
H13 H 0.0281 0.5747 0.3144
C13 C 0.127(2) 0.5363(2) 0.3875(13)
H14 H 0.0416 0.5213 0.4212
H15 H 0.2654 0.5423 0.4559
C14 C 0.235(2) 0.5259(2) 0.2728(12)
H16 H 0.0956 0.5204 0.2040
H17 H 0.3219 0.5410 0.2402
C15 C 0.415(2) 0.5022(3) 0.3024(12)
H18 H 0.3282 0.4870 0.3350
H19 H 0.5545 0.5076 0.3711
C16 C 0.522(2) 0.4918(2) 0.1885(11)
H20 H 0.3828 0.4864 0.1194
H21 H 0.6102 0.5068 0.1562
C17 C 0.701(3) 0.4678(3) 0.2200(13)
H22 H 0.6113 0.4526 0.2493
H23 H 0.8371 0.4730 0.2912
C18 C 0.817(2) 0.4579(2) 0.1071(12)
H24 H 0.9136 0.4729 0.0797
H25 H 0.6823 0.4532 0.0346
C19 C 0.991(3) 0.4329(3) 0.1418(12)
H26 H 1.1260 0.4376 0.2141
H27 H 0.8946 0.4180 0.1692
C20 C 1.104(2) 0.4232(2) 0.0295(12)
H28 H 0.9698 0.4187 -0.0436
H29 H 1.2043 0.4379 0.0030
C21 C 1.268(3) 0.3984(3) 0.0658(12)
H30 H 1.1657 0.3835 0.0876
H31 H 1.3960 0.4027 0.1424
loop_
_geom_bond_atom_site_label_1
_geom_bond_atom_site_label_2
_geom_bond_site_symmetry_1
_geom_bond_site_symmetry_2
Br1 C21 1_555 1_555
S1 C1 1_555 1_555
S2 C1 1_555 1_555
S3 C2 1_555 1_555
S4 C2 1_555 1_555
S5 C3 1_555 1_555
S6 C4 1_555 1_555
S7 C5 1_555 1_555
S8 C6 1_555 1_555
C1 C2 1_555 1_555
C3 S1 1_555 1_555
C4 S2 1_555 1_555
C5 S3 1_555 1_555
C6 S4 1_555 1_555
C7 S5 1_555 1_555
H1 C7 1_555 1_555
H2 C7 1_555 1_555
C8 S6 1_555 1_555
H3 C8 1_555 1_555
H4 C8 1_555 1_555
C9 S7 1_555 1_555
H5 C9 1_555 1_555
H6 C9 1_555 1_555
H7 C9 1_555 1_555
C10 S8 1_555 1_555
H8 C10 1_555 1_555
H9 C10 1_555 1_555
C11 C10 1_555 1_555
H10 C11 1_555 1_555
H11 C11 1_555 1_555
C12 C11 1_555 1_555
H12 C12 1_555 1_555
H13 C12 1_555 1_555
C13 C12 1_555 1_555
H14 C13 1_555 1_555
H15 C13 1_555 1_555
C14 C13 1_555 1_555
H16 C14 1_555 1_555
H17 C14 1_555 1_555
C15 C14 1_555 1_555
H18 C15 1_555 1_555
H19 C15 1_555 1_555
C16 C15 1_555 1_555
H20 C16 1_555 1_555
H21 C16 1_555 1_555
C17 C16 1_555 1_555
H22 C17 1_555 1_555
H23 C17 1_555 1_555
C18 C17 1_555 1_555
H24 C18 1_555 1_555
H25 C18 1_555 1_555
C19 C18 1_555 1_555
H26 C19 1_555 1_555
H27 C19 1_555 1_555
C20 C19 1_555 1_555
H28 C20 1_555 1_555
H29 C20 1_555 1_555
C21 C20 1_555 1_555
H30 C21 1_555 1_555
H31 C21 1_555 1_555
C3 C4 1_555 1_555
C5 C6 1_555 1_555
C7 C8 1_555 1_555

#END
