
#######################################################################
#
#                 Cambridge Crystallographic Data Centre
#                                CCDC 
#
#######################################################################
#
# If this CIF has been generated from an entry in the Cambridge 
# Structural Database, then it will include bibliographic, chemical, 
# crystal, experimental, refinement or atomic coordinate data resulting 
# from the CCDC's data processing and validation procedures.
#
#######################################################################

data_FIYVIV
_chemical_formula_moiety         'C6 H14 N2 2+,2(C3 H4 O3),2(C3 H3 O3 1-)'
_chemical_name_systematic        
'1,4-diazoniabicyclo[2.2.2]octane bis(pyruvate) bis(pyruvic acid)'
_symmetry_cell_setting           monoclinic
_symmetry_space_group_name_H-M   'P 2/m'
_symmetry_Int_Tables_number      10
_space_group_name_Hall           '-P 2y'
loop_
_symmetry_equiv_pos_site_id
_symmetry_equiv_pos_as_xyz
1 x,y,z
2 -x,y,-z
3 -x,-y,-z
4 x,-y,z
_cell_length_a                   7.2210(10)
_cell_length_b                   7.3020(10)
_cell_length_c                   13.914(2)
_cell_angle_alpha                90
_cell_angle_beta                 97.70(2)
_cell_angle_gamma                90
_cell_volume                     727.039
_exptl_crystal_colour            colorless
_exptl_crystal_description       needle
_cell_formula_units_Z            1
loop_
_atom_site_label
_atom_site_type_symbol
_atom_site_fract_x
_atom_site_fract_y
_atom_site_fract_z
C4 C 1.1297(4) 0.500000 0.1612(2)
H3 H 1.188720 0.500000 0.227262
H4 H 1.166746 0.392655 0.128817
C5 C 0.9235(4) 0.500000 0.1592(2)
C6 C 0.8417(5) 0.500000 0.2524(3)
O4 O 0.8203(3) 0.500000 0.07975(16)
O5 O 0.6631(3) 0.500000 0.24335(15)
O6 O 0.9514(3) 0.500000 0.32660(16)
H4C H 1.166746 0.607345 0.128817
C7 C 0.7232(7) 0.000000 0.0062(3)
C8 C 0.6362(7) 0.000000 0.0993(3)
C9 C 0.3663(5) 0.1719(5) 0.0222(2)
C10 C 0.4563(5) 0.1687(5) -0.0707(2)
N1 N 0.4300(4) 0.000000 0.07615(19)
H5 H 0.380426 0.000000 0.132143
C7A C 0.2768(7) 0.000000 -0.0062(3)
C8A C 0.3638(7) 0.000000 -0.0993(3)
C9A C 0.6337(5) 0.1719(5) -0.0222(2)
C10A C 0.5437(5) 0.1687(5) 0.0707(2)
N1A N 0.5700(4) 0.000000 -0.07615(19)
H5A H 0.619574 0.000000 -0.132143
C9B C 0.6337(5) -0.1719(5) -0.0222(2)
C10B C 0.5437(5) -0.1687(5) 0.0707(2)
C9C C 0.3663(5) -0.1719(5) 0.0222(2)
C10C C 0.4563(5) -0.1687(5) -0.0707(2)
C1 C -0.0825(4) 1.000000 0.3917(2)
H1 H -0.175824 1.000000 0.335645
H2 H -0.096875 0.892655 0.429860
C2 C 0.1104(5) 1.000000 0.3597(2)
C3 C 0.1303(5) 1.000000 0.2532(2)
O1 O 0.2559(3) 1.000000 0.41833(15)
O2 O 0.2949(3) 1.000000 0.22972(15)
O3 O -0.0202(3) 1.000000 0.19936(16)
H2C H -0.096875 1.107345 0.429860
H6? H -0.096875 0.892655 0.429860
H7? H 1.166746 0.392655 0.128817
H8? H 0.803507 0.105190 0.009338
H9? H 0.675989 0.106570 0.136872
H10? H 0.380474 1.000000 0.288823
H11? H 0.619955 0.500000 0.183437
H12? H 0.355268 0.178619 -0.122870
H13? H 0.675999 0.106570 0.136872
H14? H 0.526228 0.280459 -0.070940
H15? H 0.406158 0.277715 0.060416
H16? H 0.232558 0.174305 0.007675
H17? H 0.803507 0.105190 0.009338
loop_
_geom_bond_atom_site_label_1
_geom_bond_atom_site_label_2
_geom_bond_site_symmetry_1
_geom_bond_site_symmetry_2
C1 H1 1_555 1_555
H2 C1 1_555 1_555
C2 C1 1_555 1_555
C3 C2 1_555 1_555
O1 C2 1_555 1_555
O2 C3 1_555 1_555
O3 C3 1_555 1_555
C4 H3 1_555 1_555
H4 C4 1_555 1_555
C5 C4 1_555 1_555
C6 C5 1_555 1_555
O4 C5 1_555 1_555
O5 C6 1_555 1_555
O6 C6 1_555 1_555
C7 C8 1_555 1_555
C8 N1 1_555 1_555
C9 C10 1_555 1_555
C10 C8A 1_555 1_555
N1 C9 1_555 1_555
H5 N1 1_555 1_555
H2C C1 1_555 1_555
H4C C4 1_555 1_555
C7A C9 1_555 1_555
C8A C7A 1_555 1_555
C9A C7 1_555 1_555
C10A C8 1_555 1_555
N1A C7 1_555 1_555
H5A N1A 1_555 1_555
C9B C7 1_555 1_555
C10B C8 1_555 1_555
C9C N1 1_555 1_555
C10C C8A 1_555 1_555
C9 C10A 1_555 1_555
C10 C9A 1_555 1_555
C10 N1A 1_555 1_555
N1 C7A 1_555 1_555
N1 C10A 1_555 1_555
N1 C10B 1_555 1_555
C7A C9C 1_555 1_555
C8A N1A 1_555 1_555
C9A C10A 1_555 1_555
C9A N1A 1_555 1_555
N1A C9B 1_555 1_555
N1A C10C 1_555 1_555
C9B C10B 1_555 1_555
C9B C10C 1_555 1_555
C10B C9C 1_555 1_555
C9C C10C 1_555 1_555

#END
