
#######################################################################
#
#                 Cambridge Crystallographic Data Centre
#                                CCDC 
#
#######################################################################
#
# If this CIF has been generated from an entry in the Cambridge 
# Structural Database, then it will include bibliographic, chemical, 
# crystal, experimental, refinement or atomic coordinate data resulting 
# from the CCDC's data processing and validation procedures.
#
#######################################################################

data_FIYWOZ
_chemical_formula_moiety         'C42 H32 O2'
_chemical_name_systematic        
1,24-Dioxo(3.3)(4,4'')-1,1':2,1''-terphenylophane
_symmetry_cell_setting           triclinic
_symmetry_space_group_name_H-M   'P -1'
_symmetry_Int_Tables_number      2
_space_group_name_Hall           '-P 1'
loop_
_symmetry_equiv_pos_site_id
_symmetry_equiv_pos_as_xyz
1 x,y,z
2 -x,-y,-z
_cell_length_a                   10.551(8)
_cell_length_b                   11.761(7)
_cell_length_c                   13.867(10)
_cell_angle_alpha                66.20(5)
_cell_angle_beta                 78.91(6)
_cell_angle_gamma                75.88(5)
_cell_volume                     1518.28
_exptl_crystal_colour            colorless
_chemical_melting_point          343deg.C
_cell_formula_units_Z            2
loop_
_atom_site_label
_atom_site_type_symbol
_atom_site_fract_x
_atom_site_fract_y
_atom_site_fract_z
O1 O 0.58305(56) -0.39638(47) 1.04436(36)
C1 C 0.55115(50) -0.30278(47) 0.97331(40)
C2 C 0.57711(70) -0.30448(55) 0.86374(48)
C3 C 0.66254(56) -0.42122(47) 0.85396(38)
C4 C 0.67341(55) -0.42333(41) 0.74421(37)
C5 C 0.56193(53) -0.40835(47) 0.69726(40)
C6 C 0.57230(52) -0.41317(42) 0.59739(37)
C7 C 0.69522(51) -0.43347(41) 0.54223(36)
C8 C 0.80514(51) -0.44903(44) 0.59040(40)
C9 C 0.79694(53) -0.44369(42) 0.68989(40)
C10 C 0.71029(45) -0.44521(42) 0.43653(36)
C11 C 0.80131(50) -0.54597(45) 0.42293(40)
C12 C 0.82174(52) -0.56569(48) 0.32716(41)
C13 C 0.74901(50) -0.48288(47) 0.24504(40)
C14 C 0.65738(49) -0.38303(44) 0.25859(37)
C15 C 0.63471(44) -0.36261(40) 0.35372(37)
C16 C 0.53237(49) -0.25381(41) 0.36228(33)
C17 C 0.40349(50) -0.24709(46) 0.35058(35)
C18 C 0.30670(48) -0.15000(46) 0.36280(37)
C19 C 0.33461(52) -0.05615(43) 0.38688(35)
C20 C 0.46464(57) -0.05990(45) 0.39351(41)
C21 C 0.56291(51) -0.15675(45) 0.38233(40)
C22 C 0.22728(51) 0.04352(46) 0.40740(37)
O2 O 0.02037(49) 0.18929(46) 0.48113(40)
C23 C 0.19255(62) 0.02056(78) 0.52193(50)
C24 C 0.08563(49) 0.10809(50) 0.55119(41)
C25 C 0.07827(44) 0.12200(43) 0.65442(38)
C26 C 0.10312(45) 0.02119(45) 0.74764(41)
C27 C 0.09929(46) 0.03857(43) 0.84193(39)
C28 C 0.07479(45) 0.16043(41) 0.84326(37)
C29 C 0.04983(48) 0.26204(43) 0.74833(38)
C30 C 0.04919(46) 0.24194(45) 0.65592(38)
C31 C 0.07341(48) 0.18602(42) 0.94114(37)
C32 C -0.02354(55) 0.28403(47) 0.95619(42)
C33 C -0.03066(61) 0.31542(53) 1.04364(47)
C34 C 0.05728(61) 0.24674(55) 1.11890(46)
C35 C 0.15157(53) 0.14977(48) 1.10559(39)
C36 C 0.16236(49) 0.11749(44) 1.01764(37)
C37 C 0.26740(46) 0.01220(42) 1.00769(36)
C38 C 0.36004(46) 0.02985(44) 0.91983(37)
C39 C 0.45267(49) -0.07068(44) 0.90863(39)
C40 C 0.45623(46) -0.19151(42) 0.98711(36)
C41 C 0.36804(49) -0.20880(44) 1.07677(36)
C42 C 0.27405(49) -0.10790(44) 1.08697(36)
H1 H 0.6231(7) -0.2251(5) 0.8125(5)
H2 H 0.4838(7) -0.2944(5) 0.8372(5)
H3 H 0.4659(5) -0.3922(5) 0.7390(4)
H4 H 0.4846(5) -0.4016(4) 0.5625(4)
H5 H 0.9016(5) -0.4659(4) 0.5496(4)
H6 H 0.8815(5) -0.4555(4) 0.7251(4)
H7 H 0.8581(5) -0.6107(4) 0.4871(4)
H8 H 0.8931(5) -0.6448(5) 0.3179(4)
H9 H 0.7637(5) -0.4961(5) 0.1707(4)
H10 H 0.6018(5) -0.3185(4) 0.1936(4)
H11 H 0.3785(5) -0.3191(5) 0.3320(3)
H12 H 0.2065(5) -0.1471(5) 0.3535(4)
H13 H 0.4899(6) 0.0149(4) 0.4081(4)
H14 H 0.6636(5) -0.1576(4) 0.3887(4)
H15 H 0.2793(6) 0.0222(8) 0.5515(5)
H16 H 0.1678(6) -0.0724(8) 0.5607(5)
H17 H 0.1264(4) -0.0735(4) 0.7478(4)
H18 H 0.1151(5) -0.0426(4) 0.9146(4)
H19 H 0.0308(5) 0.3574(4) 0.7463(4)
H20 H 0.0257(5) 0.3220(4) 0.5840(4)
H21 H -0.0936(5) 0.3360(5) 0.8988(4)
H22 H -0.1047(6) 0.3929(5) 1.0530(5)
H23 H 0.0513(6) 0.2700(5) 1.1876(5)
H24 H 0.2191(5) 0.0967(5) 1.1648(4)
H25 H 0.3597(5) 0.1233(4) 0.8595(4)
H26 H 0.5225(5) -0.0557(4) 0.8386(4)
H27 H 0.3720(5) -0.3011(4) 1.1393(4)
H28 H 0.2040(5) -0.1223(4) 1.1573(4)
loop_
_geom_bond_atom_site_label_1
_geom_bond_atom_site_label_2
_geom_bond_site_symmetry_1
_geom_bond_site_symmetry_2
O1 C1 1_555 1_555
C1 C2 1_555 1_555
C2 C3 1_555 1_555
C3 C4 1_555 1_555
C4 C5 1_555 1_555
C5 C6 1_555 1_555
C6 C7 1_555 1_555
C7 C8 1_555 1_555
C8 C9 1_555 1_555
C9 C4 1_555 1_555
C10 C7 1_555 1_555
C11 C10 1_555 1_555
C12 C11 1_555 1_555
C13 C12 1_555 1_555
C14 C13 1_555 1_555
C15 C10 1_555 1_555
C16 C15 1_555 1_555
C17 C16 1_555 1_555
C18 C17 1_555 1_555
C19 C18 1_555 1_555
C20 C19 1_555 1_555
C21 C16 1_555 1_555
C22 C19 1_555 1_555
O2 C24 1_555 1_555
C23 C22 1_555 1_555
C24 C23 1_555 1_555
C25 C24 1_555 1_555
C26 C25 1_555 1_555
C27 C26 1_555 1_555
C28 C27 1_555 1_555
C29 C28 1_555 1_555
C30 C25 1_555 1_555
C31 C28 1_555 1_555
C32 C31 1_555 1_555
C33 C32 1_555 1_555
C34 C33 1_555 1_555
C35 C34 1_555 1_555
C36 C31 1_555 1_555
C37 C36 1_555 1_555
C38 C37 1_555 1_555
C39 C38 1_555 1_555
C40 C1 1_555 1_555
C41 C40 1_555 1_555
C42 C37 1_555 1_555
H1 C2 1_555 1_555
H2 C2 1_555 1_555
H3 C5 1_555 1_555
H4 C6 1_555 1_555
H5 C8 1_555 1_555
H6 C9 1_555 1_555
H7 C11 1_555 1_555
H8 C12 1_555 1_555
H9 C13 1_555 1_555
H10 C14 1_555 1_555
H11 C17 1_555 1_555
H12 C18 1_555 1_555
H13 C20 1_555 1_555
H14 C21 1_555 1_555
H15 C23 1_555 1_555
H16 C23 1_555 1_555
H17 C26 1_555 1_555
H18 C27 1_555 1_555
H19 C29 1_555 1_555
H20 C30 1_555 1_555
H21 C32 1_555 1_555
H22 C33 1_555 1_555
H23 C34 1_555 1_555
H24 C35 1_555 1_555
H25 C38 1_555 1_555
H26 C39 1_555 1_555
H27 C41 1_555 1_555
H28 C42 1_555 1_555
C14 C15 1_555 1_555
C20 C21 1_555 1_555
C29 C30 1_555 1_555
C35 C36 1_555 1_555
C39 C40 1_555 1_555
C41 C42 1_555 1_555

#END
