
#######################################################################
#
#                 Cambridge Crystallographic Data Centre
#                                CCDC 
#
#######################################################################
#
# If this CIF has been generated from an entry in the Cambridge 
# Structural Database, then it will include bibliographic, chemical, 
# crystal, experimental, refinement or atomic coordinate data resulting 
# from the CCDC's data processing and validation procedures.
#
#######################################################################

data_FIYWAO
_chemical_formula_moiety         'C4 H2 N6 O8'
_chemical_name_systematic        1-nitro-3-(trinitromethyl)-1H-pyrazole
_symmetry_cell_setting           monoclinic
_symmetry_space_group_name_H-M   'P 21/c'
_symmetry_Int_Tables_number      14
_space_group_name_Hall           '-P 2ybc'
loop_
_symmetry_equiv_pos_site_id
_symmetry_equiv_pos_as_xyz
1 x,y,z
2 -x,1/2+y,1/2-z
3 -x,-y,-z
4 x,1/2-y,1/2+z
_cell_length_a                   10.542(2)
_cell_length_b                   8.4713(17)
_cell_length_c                   10.792(2)
_cell_angle_alpha                90
_cell_angle_beta                 106.73(3)
_cell_angle_gamma                90
_cell_volume                     922.979
_exptl_crystal_colour            colorless
_exptl_crystal_description       block
_cell_formula_units_Z            4
loop_
_atom_site_label
_atom_site_type_symbol
_atom_site_fract_x
_atom_site_fract_y
_atom_site_fract_z
O1 O 0.68794(18) 0.89836(19) 0.30368(17)
O2 O 0.86970(16) 0.7649(2) 0.32938(18)
O3 O 0.7507(2) 0.6769(2) 0.53654(17)
O4 O 0.63024(18) 0.4663(2) 0.47291(18)
O5 O 0.46558(18) 0.6967(2) 0.3174(2)
O6 O 0.49813(18) 0.6511(2) 0.13094(18)
O7 O 0.93267(18) 0.06282(19) 0.20334(18)
O8 O 0.96113(18) 0.1331(2) 0.40425(17)
N1 N 0.75211(19) 0.7770(2) 0.31458(18)
N2 N 0.6879(2) 0.5840(2) 0.45525(19)
N3 N 0.53235(19) 0.6580(2) 0.2480(2)
N4 N 0.80481(17) 0.3782(2) 0.32904(17)
N5 N 0.84014(18) 0.2864(2) 0.24339(18)
N6 N 0.91881(19) 0.1475(2) 0.2889(2)
C1 C 0.6782(2) 0.6194(3) 0.3139(2)
C2 C 0.7330(2) 0.4898(2) 0.2525(2)
C3 C 0.7247(2) 0.4684(3) 0.1210(2)
H1 H 0.6800 0.5331 0.0500
C4 C 0.7955(2) 0.3334(3) 0.1181(2)
H2 H 0.8102 0.2836 0.0445
loop_
_geom_bond_atom_site_label_1
_geom_bond_atom_site_label_2
_geom_bond_site_symmetry_1
_geom_bond_site_symmetry_2
O1 N1 1_555 1_555
O2 N1 1_555 1_555
O3 N2 1_555 1_555
O4 N2 1_555 1_555
O5 N3 1_555 1_555
O6 N3 1_555 1_555
O7 N6 1_555 1_555
O8 N6 1_555 1_555
N1 C1 1_555 1_555
N2 C1 1_555 1_555
N3 C1 1_555 1_555
N4 N5 1_555 1_555
N5 N6 1_555 1_555
C1 C2 1_555 1_555
C2 N4 1_555 1_555
C3 C2 1_555 1_555
H1 C3 1_555 1_555
C4 N5 1_555 1_555
H2 C4 1_555 1_555
C3 C4 1_555 1_555

#END
