
#######################################################################
#
#                 Cambridge Crystallographic Data Centre
#                                CCDC 
#
#######################################################################
#
# If this CIF has been generated from an entry in the Cambridge 
# Structural Database, then it will include bibliographic, chemical, 
# crystal, experimental, refinement or atomic coordinate data resulting 
# from the CCDC's data processing and validation procedures.
#
#######################################################################

data_FIYZEU
_chemical_formula_moiety         'C38 H46 N4 S2 Si2'
_chemical_name_systematic        
2,2'-(2,7-bis(triisopropylsilyl)thieno[3',2':5,6]naphtho[2,1-b]thiene-5,10-diylidene)dimalononitrile
_symmetry_cell_setting           monoclinic
_symmetry_space_group_name_H-M   'P 21/n'
_symmetry_Int_Tables_number      14
_space_group_name_Hall           '-P 2yn'
loop_
_symmetry_equiv_pos_site_id
_symmetry_equiv_pos_as_xyz
1 x,y,z
2 1/2-x,1/2+y,1/2-z
3 -x,-y,-z
4 1/2+x,1/2-y,1/2+z
_cell_length_a                   10.561(3)
_cell_length_b                   14.952(4)
_cell_length_c                   12.363(4)
_cell_angle_alpha                90
_cell_angle_beta                 107.937(4)
_cell_angle_gamma                90
_cell_volume                     1857.33
_cell_formula_units_Z            2
loop_
_atom_site_label
_atom_site_type_symbol
_atom_site_fract_x
_atom_site_fract_y
_atom_site_fract_z
S1 S 0.04181(4) 0.77535(3) 0.56658(5)
C1 C -0.12437(16) 0.76247(12) 0.55490(16)
C2 C -0.16068(16) 0.67454(12) 0.53344(16)
H1 H -0.2484 0.6537 0.5242
C3 C -0.05585(15) 0.61700(11) 0.52615(15)
C4 C 0.06326(15) 0.66375(11) 0.54399(16)
C5 C 0.18450(15) 0.62028(11) 0.54156(15)
C6 C 0.17615(15) 0.52676(11) 0.51462(15)
H2 H 0.2534 0.4971 0.5088
C7 C 0.06110(15) 0.47841(11) 0.49687(15)
C8 C 0.30629(16) 0.66442(12) 0.56675(18)
C9 C 0.32495(19) 0.75464(16) 0.6039(3)
N1 N 0.3438(2) 0.82751(17) 0.6330(3)
C10 C 0.42531(17) 0.62363(12) 0.55651(17)
N2 N 0.52442(15) 0.59802(12) 0.54887(16)
Si1 Si -0.21763(4) 0.86625(3) 0.57595(4)
C11 C -0.08399(17) 0.95319(12) 0.63559(17)
H3 H -0.0246 0.9513 0.5864
C12 C 0.0055(2) 0.93343(14) 0.75674(18)
H4 H 0.0813 0.9746 0.7766
H5 H 0.0379 0.8717 0.7609
H6 H -0.0456 0.9413 0.8101
C13 C -0.1363(2) 1.04977(13) 0.6288(2)
H7 H -0.1904 1.0566 0.6800
H8 H -0.1909 1.0628 0.5507
H9 H -0.0610 1.0914 0.6513
C14 C -0.32179(17) 0.83793(13) 0.67084(17)
H10 H -0.4036 0.8077 0.6214
C15 C -0.2588(2) 0.77340(15) 0.7684(2)
H11 H -0.1786 0.8006 0.8203
H12 H -0.2350 0.7176 0.7378
H13 H -0.3224 0.7606 0.8097
C16 C -0.3694(2) 0.92355(15) 0.7166(2)
H14 H -0.4315 0.9073 0.7582
H15 H -0.4144 0.9628 0.6529
H16 H -0.2926 0.9548 0.7678
C17 C -0.32851(17) 0.90437(13) 0.43296(17)
H17 H -0.3723 0.9608 0.4463
C18 C -0.4402(2) 0.83856(18) 0.3773(2)
H18 H -0.4932 0.8617 0.3030
H19 H -0.4973 0.8310 0.4259
H20 H -0.4017 0.7807 0.3673
C19 C -0.2517(2) 0.92751(19) 0.3508(2)
H21 H -0.2078 0.8737 0.3345
H22 H -0.1844 0.9730 0.3851
H23 H -0.3133 0.9508 0.2800
S1B S -0.04181(4) 0.22465(3) 0.43342(5)
C1B C 0.12437(16) 0.23753(12) 0.44510(16)
C2B C 0.16068(16) 0.32546(12) 0.46656(16)
H1B H 0.2484 0.3463 0.4758
C3B C 0.05585(15) 0.38300(11) 0.47385(15)
C4B C -0.06326(15) 0.33625(11) 0.45601(16)
C5B C -0.18450(15) 0.37972(11) 0.45844(15)
C6B C -0.17615(15) 0.47324(11) 0.48538(15)
H2B H -0.2534 0.5029 0.4912
C7B C -0.06110(15) 0.52159(11) 0.50313(15)
C8B C -0.30629(16) 0.33558(12) 0.43325(18)
C9B C -0.32495(19) 0.24536(16) 0.3961(3)
N1B N -0.3438(2) 0.17249(17) 0.3670(3)
C10B C -0.42531(17) 0.37637(12) 0.44349(17)
N2B N -0.52442(15) 0.40198(12) 0.45113(16)
Si1B Si 0.21763(4) 0.13375(3) 0.42405(4)
C11B C 0.08399(17) 0.04681(12) 0.36441(17)
H3B H 0.0246 0.0487 0.4136
C12B C -0.0055(2) 0.06657(14) 0.24326(18)
H4B H -0.0813 0.0254 0.2234
H5B H -0.0379 0.1283 0.2391
H6B H 0.0456 0.0587 0.1899
C13B C 0.1363(2) -0.04977(13) 0.3712(2)
H7B H 0.1904 -0.0566 0.3200
H8B H 0.1909 -0.0628 0.4493
H9B H 0.0610 -0.0914 0.3487
C14B C 0.32179(17) 0.16207(13) 0.32916(17)
H10B H 0.4036 0.1923 0.3786
C15B C 0.2588(2) 0.22660(15) 0.2316(2)
H11B H 0.1786 0.1994 0.1797
H12B H 0.2350 0.2824 0.2622
H13B H 0.3224 0.2394 0.1903
C16B C 0.3694(2) 0.07645(15) 0.2834(2)
H14B H 0.4315 0.0927 0.2418
H15B H 0.4144 0.0372 0.3471
H16B H 0.2926 0.0452 0.2322
C17B C 0.32851(17) 0.09563(13) 0.56704(17)
H17B H 0.3723 0.0392 0.5537
C18B C 0.4402(2) 0.16144(18) 0.6227(2)
H18B H 0.4932 0.1383 0.6970
H19B H 0.4973 0.1690 0.5741
H20B H 0.4017 0.2193 0.6327
C19B C 0.2517(2) 0.07249(19) 0.6492(2)
H21B H 0.2078 0.1263 0.6655
H22B H 0.1844 0.0270 0.6149
H23B H 0.3133 0.0492 0.7200
loop_
_geom_bond_atom_site_label_1
_geom_bond_atom_site_label_2
_geom_bond_site_symmetry_1
_geom_bond_site_symmetry_2
S1 C1 1_555 1_555
C1 C2 1_555 1_555
C2 H1 1_555 1_555
C3 C2 1_555 1_555
C4 S1 1_555 1_555
C5 C4 1_555 1_555
C6 C5 1_555 1_555
H2 C6 1_555 1_555
C7 C6 1_555 1_555
C8 C5 1_555 1_555
C9 C8 1_555 1_555
N1 C9 1_555 1_555
C10 C8 1_555 1_555
N2 C10 1_555 1_555
Si1 C1 1_555 1_555
C11 Si1 1_555 1_555
H3 C11 1_555 1_555
C12 C11 1_555 1_555
H4 C12 1_555 1_555
H5 C12 1_555 1_555
H6 C12 1_555 1_555
C13 C11 1_555 1_555
H7 C13 1_555 1_555
H8 C13 1_555 1_555
H9 C13 1_555 1_555
C14 Si1 1_555 1_555
H10 C14 1_555 1_555
C15 C14 1_555 1_555
H11 C15 1_555 1_555
H12 C15 1_555 1_555
H13 C15 1_555 1_555
C16 C14 1_555 1_555
H14 C16 1_555 1_555
H15 C16 1_555 1_555
H16 C16 1_555 1_555
C17 Si1 1_555 1_555
H17 C17 1_555 1_555
C18 C17 1_555 1_555
H18 C18 1_555 1_555
H19 C18 1_555 1_555
H20 C18 1_555 1_555
C19 C17 1_555 1_555
H21 C19 1_555 1_555
H22 C19 1_555 1_555
H23 C19 1_555 1_555
S1B C1B 1_555 1_555
C1B C2B 1_555 1_555
C2B H1B 1_555 1_555
C3B C7 1_555 1_555
C4B S1B 1_555 1_555
C5B C4B 1_555 1_555
C6B C5B 1_555 1_555
H2B C6B 1_555 1_555
C7B C3 1_555 1_555
C8B C5B 1_555 1_555
C9B C8B 1_555 1_555
N1B C9B 1_555 1_555
C10B C8B 1_555 1_555
N2B C10B 1_555 1_555
Si1B C1B 1_555 1_555
C11B Si1B 1_555 1_555
H3B C11B 1_555 1_555
C12B C11B 1_555 1_555
H4B C12B 1_555 1_555
H5B C12B 1_555 1_555
H6B C12B 1_555 1_555
C13B C11B 1_555 1_555
H7B C13B 1_555 1_555
H8B C13B 1_555 1_555
H9B C13B 1_555 1_555
C14B Si1B 1_555 1_555
H10B C14B 1_555 1_555
C15B C14B 1_555 1_555
H11B C15B 1_555 1_555
H12B C15B 1_555 1_555
H13B C15B 1_555 1_555
C16B C14B 1_555 1_555
H14B C16B 1_555 1_555
H15B C16B 1_555 1_555
H16B C16B 1_555 1_555
C17B Si1B 1_555 1_555
H17B C17B 1_555 1_555
C18B C17B 1_555 1_555
H18B C18B 1_555 1_555
H19B C18B 1_555 1_555
H20B C18B 1_555 1_555
C19B C17B 1_555 1_555
H21B C19B 1_555 1_555
H22B C19B 1_555 1_555
H23B C19B 1_555 1_555
C3 C4 1_555 1_555
C7 C7B 1_555 1_555
C2B C3B 1_555 1_555
C3B C4B 1_555 1_555
C6B C7B 1_555 1_555

#END
