
#######################################################################
#
#                 Cambridge Crystallographic Data Centre
#                                CCDC 
#
#######################################################################
#
# If this CIF has been generated from an entry in the Cambridge 
# Structural Database, then it will include bibliographic, chemical, 
# crystal, experimental, refinement or atomic coordinate data resulting 
# from the CCDC's data processing and validation procedures.
#
#######################################################################

data_FIYZAQ
_chemical_formula_moiety         'C18 H26 O4'
_chemical_name_systematic        
3'-Methyl-3',4',4a',5',7',10'-hexahydro-2'H,6a'H-dispiro[1,3-dioxolane-2,1'-benzo[c]indene-6',2''-[1,3]dioxolane]
_symmetry_cell_setting           triclinic
_symmetry_space_group_name_H-M   'P -1'
_symmetry_Int_Tables_number      2
_space_group_name_Hall           '-P 1'
loop_
_symmetry_equiv_pos_site_id
_symmetry_equiv_pos_as_xyz
1 x,y,z
2 -x,-y,-z
_cell_length_a                   8.326(7)
_cell_length_b                   8.643(7)
_cell_length_c                   25.63(2)
_cell_angle_alpha                81.878(7)
_cell_angle_beta                 87.849(7)
_cell_angle_gamma                61.655(7)
_cell_volume                     1606.04
_exptl_crystal_colour            colorless
_exptl_crystal_description       block
_cell_formula_units_Z            4
loop_
_atom_site_label
_atom_site_type_symbol
_atom_site_fract_x
_atom_site_fract_y
_atom_site_fract_z
C1 C 0.3267(3) 0.3623(3) 0.09590(8)
C2 C 0.2501(3) 0.2311(3) 0.09356(7)
C3 C 0.0932(3) 0.2646(3) 0.13265(8)
H1 H 0.0242 0.2101 0.1205
C4 C -0.0435(3) 0.4598(3) 0.13412(9)
H2 H -0.1192 0.4681 0.1644
H3 H -0.1226 0.5042 0.1027
C5 C 0.0447(3) 0.5783(3) 0.13720(9)
H4 H 0.1136 0.5403 0.1709
C6 C 0.1783(3) 0.5537(3) 0.09304(8)
H5 H 0.1125 0.5904 0.0593
H6 H 0.2340 0.6290 0.0953
C7 C 0.5925(4) 0.3357(5) 0.13071(11)
H7 H 0.7003 0.2333 0.1475
H8 H 0.5830 0.4414 0.1425
C8 C 0.6040(4) 0.3485(4) 0.07340(11)
H9 H 0.6028 0.4589 0.0588
H10 H 0.7160 0.2505 0.0637
C9 C 0.1756(3) 0.2552(3) 0.03685(8)
H11 H 0.0572 0.3604 0.0318
H12 H 0.2573 0.2738 0.0118
C10 C 0.1571(3) 0.0988(3) 0.02567(8)
H13 H 0.0552 0.1166 0.0067
C11 C 0.2837(4) -0.0629(3) 0.04247(8)
H14 H 0.2718 -0.1595 0.0352
C12 C 0.4474(3) -0.0925(3) 0.07328(9)
H15 H 0.5343 -0.0802 0.0491
H16 H 0.5056 -0.2129 0.0918
C13 C 0.3999(3) 0.0376(3) 0.11338(8)
H17 H 0.5114 0.0434 0.1208
C14 C 0.3364(3) -0.0183(3) 0.16659(8)
C15 C 0.1902(3) 0.1529(3) 0.18442(8)
H18 H 0.2442 0.2101 0.2020
H19 H 0.1070 0.1308 0.2079
C16 C 0.3031(4) -0.2506(3) 0.20948(9)
H20 H 0.3258 -0.3679 0.2038
H21 H 0.2016 -0.2030 0.2328
C17 C 0.4699(4) -0.2578(4) 0.23204(11)
H22 H 0.4566 -0.2466 0.2693
H23 H 0.5767 -0.3695 0.2279
C18 C -0.0967(3) 0.7737(3) 0.13512(10)
H24 H -0.0360 0.8425 0.1386
H25 H -0.1791 0.7868 0.1634
H26 H -0.1641 0.8146 0.1020
O1 O 0.43409(18) 0.31838(19) 0.14360(5)
O2 O 0.4510(2) 0.3423(2) 0.05408(6)
O3 O 0.4868(2) -0.1151(2) 0.20393(6)
O4 O 0.2659(2) -0.1367(2) 0.16095(6)
C19 C 0.9506(3) 0.4545(3) 0.36857(8)
C20 C 0.8912(3) 0.5782(3) 0.41035(9)
H27 H 0.9030 0.6830 0.3971
H28 H 0.9708 0.5187 0.4415
C21 C 0.6941(3) 0.6341(3) 0.42535(10)
H29 H 0.6153 0.6946 0.3936
C22 C 0.6760(4) 0.4686(4) 0.44575(9)
H30 H 0.5482 0.5043 0.4517
H31 H 0.7415 0.4168 0.4795
C23 C 0.7470(3) 0.3258(3) 0.40935(8)
H32 H 0.7617 0.2163 0.4308
C24 C 0.9364(3) 0.2828(3) 0.38586(8)
C25 C 0.9473(4) 0.5942(5) 0.28409(13)
H33 H 0.8957 0.7219 0.2750
H34 H 0.9523 0.5437 0.2522
C26 C 1.1289(4) 0.5191(4) 0.30802(12)
H35 H 1.2206 0.4524 0.2840
H36 H 1.1522 0.6126 0.3166
C27 C 1.0897(3) 0.1612(3) 0.42830(9)
H37 H 1.2014 0.1648 0.4182
H38 H 1.0549 0.2065 0.4617
C28 C 1.1248(3) -0.0267(4) 0.43507(12)
H39 H 1.1433 -0.0902 0.4687
C29 C 1.1296(4) -0.1029(4) 0.39361(13)
H40 H 1.1529 -0.2204 0.3979
C30 C 1.0977(4) -0.0006(4) 0.33991(11)
H41 H 1.0686 -0.0608 0.3155
H42 H 1.2090 0.0020 0.3287
C31 C 0.9425(3) 0.1901(3) 0.33746(9)
H43 H 0.9614 0.2594 0.3065
C32 C 0.7496(3) 0.2104(3) 0.33067(9)
C33 C 0.6063(4) 0.0501(4) 0.31896(11)
H44 H 0.4872 0.1183 0.3331
H45 H 0.6267 -0.0694 0.3176
C34 C 0.6221(5) 0.1372(4) 0.26558(11)
H46 H 0.7033 0.0493 0.2441
H47 H 0.5035 0.2059 0.2476
C35 C 0.6259(3) 0.3576(3) 0.36166(9)
H48 H 0.5176 0.3476 0.3722
H49 H 0.5894 0.4735 0.3414
C36 C 0.6341(4) 0.7628(4) 0.46615(12)
H50 H 0.5080 0.8009 0.4735
H51 H 0.6495 0.8641 0.4525
H52 H 0.7072 0.7042 0.4980
O5 O 0.6941(3) 0.2481(3) 0.27580(6)
O6 O 0.7472(2) 0.0484(2) 0.34962(6)
O7 O 0.8401(2) 0.5529(2) 0.32143(6)
O8 O 1.1345(2) 0.4071(2) 0.35396(6)
loop_
_geom_bond_atom_site_label_1
_geom_bond_atom_site_label_2
_geom_bond_site_symmetry_1
_geom_bond_site_symmetry_2
C1 C2 1_555 1_555
C2 C3 1_555 1_555
C3 H1 1_555 1_555
C4 C3 1_555 1_555
H2 C4 1_555 1_555
H3 C4 1_555 1_555
C5 C4 1_555 1_555
H4 C5 1_555 1_555
C6 C1 1_555 1_555
H5 C6 1_555 1_555
H6 C6 1_555 1_555
C7 H7 1_555 1_555
H8 C7 1_555 1_555
C8 C7 1_555 1_555
H9 C8 1_555 1_555
H10 C8 1_555 1_555
C9 C2 1_555 1_555
H11 C9 1_555 1_555
H12 C9 1_555 1_555
C10 C9 1_555 1_555
H13 C10 1_555 1_555
C11 C10 1_555 1_555
H14 C11 1_555 1_555
C12 C11 1_555 1_555
H15 C12 1_555 1_555
H16 C12 1_555 1_555
C13 C2 1_555 1_555
H17 C13 1_555 1_555
C14 C13 1_555 1_555
C15 C3 1_555 1_555
H18 C15 1_555 1_555
H19 C15 1_555 1_555
C16 H20 1_555 1_555
H21 C16 1_555 1_555
C17 C16 1_555 1_555
H22 C17 1_555 1_555
H23 C17 1_555 1_555
C18 C5 1_555 1_555
H24 C18 1_555 1_555
H25 C18 1_555 1_555
H26 C18 1_555 1_555
O1 C1 1_555 1_555
O2 C1 1_555 1_555
O3 C14 1_555 1_555
O4 C14 1_555 1_555
C19 C20 1_555 1_555
C20 H27 1_555 1_555
H28 C20 1_555 1_555
C21 C20 1_555 1_555
H29 C21 1_555 1_555
C22 C21 1_555 1_555
H30 C22 1_555 1_555
H31 C22 1_555 1_555
C23 C22 1_555 1_555
H32 C23 1_555 1_555
C24 C19 1_555 1_555
C25 H33 1_555 1_555
H34 C25 1_555 1_555
C26 C25 1_555 1_555
H35 C26 1_555 1_555
H36 C26 1_555 1_555
C27 C24 1_555 1_555
H37 C27 1_555 1_555
H38 C27 1_555 1_555
C28 C27 1_555 1_555
H39 C28 1_555 1_555
C29 C28 1_555 1_555
H40 C29 1_555 1_555
C30 C29 1_555 1_555
H41 C30 1_555 1_555
H42 C30 1_555 1_555
C31 C24 1_555 1_555
H43 C31 1_555 1_555
C32 C31 1_555 1_555
C33 H44 1_555 1_555
H45 C33 1_555 1_555
C34 C33 1_555 1_555
H46 C34 1_555 1_555
H47 C34 1_555 1_555
C35 C23 1_555 1_555
H48 C35 1_555 1_555
H49 C35 1_555 1_555
C36 C21 1_555 1_555
H50 C36 1_555 1_555
H51 C36 1_555 1_555
H52 C36 1_555 1_555
O5 C32 1_555 1_555
O6 C32 1_555 1_555
O7 C19 1_555 1_555
O8 C19 1_555 1_555
C5 C6 1_555 1_555
C7 O1 1_555 1_555
C8 O2 1_555 1_555
C12 C13 1_555 1_555
C14 C15 1_555 1_555
C16 O4 1_555 1_555
C17 O3 1_555 1_555
C23 C24 1_555 1_555
C25 O7 1_555 1_555
C26 O8 1_555 1_555
C30 C31 1_555 1_555
C32 C35 1_555 1_555
C33 O6 1_555 1_555
C34 O5 1_555 1_555

#END
