
#######################################################################
#
#                 Cambridge Crystallographic Data Centre
#                                CCDC 
#
#######################################################################
#
# If this CIF has been generated from an entry in the Cambridge 
# Structural Database, then it will include bibliographic, chemical, 
# crystal, experimental, refinement or atomic coordinate data resulting 
# from the CCDC's data processing and validation procedures.
#
#######################################################################

data_FIZJON01
_chemical_formula_moiety         'C16 H16 O2'
_chemical_name_systematic        
4,5-Benzo-tricyclo(6.2.1.1^3,6^)dodecane-2,7-dione
_symmetry_cell_setting           monoclinic
_symmetry_space_group_name_H-M   'P 21/c'
_symmetry_Int_Tables_number      14
_space_group_name_Hall           '-P 2ybc'
loop_
_symmetry_equiv_pos_site_id
_symmetry_equiv_pos_as_xyz
1 x,y,z
2 -x,1/2+y,1/2-z
3 -x,-y,-z
4 x,1/2-y,1/2+z
_cell_length_a                   10.5990(32)
_cell_length_b                   9.5540(31)
_cell_length_c                   12.6706(27)
_cell_angle_alpha                90
_cell_angle_beta                 71.990(22)
_cell_angle_gamma                90
_cell_volume                     1220.19
_cell_formula_units_Z            4
loop_
_atom_site_label
_atom_site_type_symbol
_atom_site_fract_x
_atom_site_fract_y
_atom_site_fract_z
C1 C 0.1325(6) -0.2327(8) 0.9050(6)
C2 C 0.2514(5) -0.3062(5) 0.8477(4)
C3 C 0.3735(5) -0.2357(5) 0.8561(4)
C4 C 0.4385(4) -0.1112(4) 0.7869(3)
C5 C 0.3640(4) 0.0205(4) 0.8359(3)
C6 C 0.3021(3) 0.0787(4) 0.7663(3)
C7 C 0.3264(4) -0.0067(4) 0.6623(3)
C8 C 0.2005(4) -0.0725(5) 0.6589(3)
C9 C 0.1404(5) -0.2050(6) 0.7207(4)
C10 C 0.0707(7) -0.1822(8) 0.8360(5)
C11 C 0.2389(6) -0.3331(6) 0.7316(5)
C12 C 0.4447(4) -0.0999(5) 0.6650(3)
C13 C 0.3512(4) 0.0804(5) 0.9371(4)
C14 C 0.2733(5) 0.1982(5) 0.9659(4)
C15 C 0.2109(5) 0.2557(5) 0.8980(4)
C16 C 0.2263(4) 0.1974(5) 0.7977(4)
O1 O 0.4198(4) -0.2763(4) 0.9261(3)
O2 O 0.1357(3) -0.0118(4) 0.6090(3)
H1 H 0.1701(75) -0.1566(80) 0.9413(60)
H2 H 0.0644(57) -0.3044(62) 0.9558(47)
H3 H 0.4539(51) -0.1951(57) 0.6254(45)
H4 H 0.2395(56) 0.2552(52) 1.0641(50)
H5 H 0.2742(44) -0.3894(49) 0.8912(38)
H6 H 0.3363(49) -0.3495(59) 0.6653(41)
H7 H -0.0193(88) -0.2419(83) 0.8707(81)
H8 H 0.0544(62) -0.0614(78) 0.8542(53)
H9 H 0.0431(64) -0.2228(67) 0.7207(55)
H10 H 0.1632(49) -0.4095(57) 0.7702(43)
H11 H 0.1743(50) 0.2134(49) 0.7625(42)
H12 H 0.5333(44) -0.0249(49) 0.6149(40)
H13 H 0.3430(38) 0.0668(43) 0.6030(34)
H14 H 0.5353(45) -0.1011(50) 0.7754(40)
H15 H 0.1439(43) 0.3258(44) 0.9077(38)
H16 H 0.4164(46) 0.0487(60) 0.9571(43)
loop_
_geom_bond_atom_site_label_1
_geom_bond_atom_site_label_2
_geom_bond_site_symmetry_1
_geom_bond_site_symmetry_2
C1 C2 1_555 1_555
C2 C3 1_555 1_555
C3 C4 1_555 1_555
C4 C5 1_555 1_555
C5 C6 1_555 1_555
C6 C7 1_555 1_555
C7 C8 1_555 1_555
C8 C9 1_555 1_555
C9 C10 1_555 1_555
C10 C1 1_555 1_555
C11 C2 1_555 1_555
C12 C4 1_555 1_555
C13 C5 1_555 1_555
C14 C13 1_555 1_555
C15 C14 1_555 1_555
C16 C6 1_555 1_555
O1 C3 1_555 1_555
O2 C8 1_555 1_555
H1 C1 1_555 1_555
H2 C1 1_555 1_555
H3 C12 1_555 1_555
H4 C14 1_555 1_555
H5 C2 1_555 1_555
H6 C11 1_555 1_555
H7 C10 1_555 1_555
H8 C10 1_555 1_555
H9 C9 1_555 1_555
H10 C11 1_555 1_555
H11 C16 1_555 1_555
H12 C12 1_555 1_555
H13 C7 1_555 1_555
H14 C4 1_555 1_555
H15 C15 1_555 1_555
H16 C13 1_555 1_555
C7 C12 1_555 1_555
C9 C11 1_555 1_555
C15 C16 1_555 1_555

#END
