
#######################################################################
#
#                 Cambridge Crystallographic Data Centre
#                                CCDC 
#
#######################################################################
#
# If this CIF has been generated from an entry in the Cambridge 
# Structural Database, then it will include bibliographic, chemical, 
# crystal, experimental, refinement or atomic coordinate data resulting 
# from the CCDC's data processing and validation procedures.
#
#######################################################################

data_FIZLIM
_chemical_formula_moiety         'C33 H26 N2 O4 S1'
_chemical_name_systematic        
rac-(3aR,4S,5S,8bR)-5-((S)-2,5-dioxo-1-phenylpyrrolidin-3-yl)-4-methyl-2,5-diphenyl-3a,4,5,8b-tetrahydro-1H-thieno[3,2-e]isoindole-1,3(2H)-dione
_symmetry_cell_setting           monoclinic
_symmetry_space_group_name_H-M   'P 21'
_symmetry_Int_Tables_number      4
_space_group_name_Hall           'P 2yb'
loop_
_symmetry_equiv_pos_site_id
_symmetry_equiv_pos_as_xyz
1 x,y,z
2 -x,1/2+y,-z
_cell_length_a                   9.6919(4)
_cell_length_b                   7.4490(3)
_cell_length_c                   17.9828(7)
_cell_angle_alpha                90
_cell_angle_beta                 91.664(2)
_cell_angle_gamma                90
_cell_volume                     1297.72
_exptl_crystal_colour            colorless
_exptl_crystal_description       Plate
_chemical_melting_point          '611-613 K'
_cell_formula_units_Z            2
_exptl_crystal_recrystallization_method Dichloromethane
loop_
_atom_site_label
_atom_site_type_symbol
_atom_site_fract_x
_atom_site_fract_y
_atom_site_fract_z
S1 S 0.43944(7) 0.70916(8) 0.66323(3)
O1 O 0.5152(2) 0.5037(3) 0.46324(11)
O2 O 0.28634(19) 0.2463(3) 0.65408(10)
O3 O 0.7529(2) 0.3071(3) 0.90846(11)
O4 O 0.4495(2) 0.7590(4) 0.95115(12)
N1 N 0.3708(2) 0.3806(3) 0.54929(12)
N2 N 0.6260(2) 0.5580(3) 0.93576(12)
C1 C 0.4717(3) 0.5535(4) 0.73356(14)
C2 C 0.3316(3) 0.8335(4) 0.71752(17)
H1 H 0.2846 0.9390 0.7014
C3 C 0.3227(3) 0.7608(4) 0.78612(16)
H2 H 0.2683 0.8108 0.8240
C4 C 0.4030(3) 0.6018(4) 0.79593(15)
C5 C 0.5625(3) 0.3905(4) 0.72426(14)
C6 C 0.7173(3) 0.4394(4) 0.73242(14)
C7 C 0.8180(3) 0.3212(4) 0.70793(16)
H3 H 0.7906 0.2121 0.6845
C8 C 0.9574(3) 0.3600(5) 0.71721(17)
H4 H 1.0243 0.2774 0.7004
C9 C 0.9991(3) 0.5179(5) 0.75078(18)
H5 H 1.0945 0.5448 0.7569
C10 C 0.9007(3) 0.6377(5) 0.77563(17)
H6 H 0.9289 0.7458 0.7996
C11 C 0.7605(3) 0.5997(4) 0.76543(14)
H7 H 0.6939 0.6841 0.7811
C12 C 0.5202(3) 0.2520(4) 0.78526(14)
H8 H 0.4241 0.2137 0.7711
C13 C 0.6057(3) 0.0791(4) 0.78918(16)
H9 H 0.5649 -0.0041 0.8246
H10 H 0.7005 0.1075 0.8056
H11 H 0.6064 0.0232 0.7399
C14 C 0.5342(3) 0.3030(4) 0.64557(13)
H12 H 0.5645 0.1748 0.6489
C15 C 0.6083(3) 0.3885(4) 0.58020(15)
H13 H 0.6578 0.4986 0.5965
H14 H 0.6759 0.3036 0.5596
C16 C 0.4980(3) 0.4330(4) 0.52284(14)
C17 C 0.3826(3) 0.3035(4) 0.62058(13)
C18 C 0.2423(3) 0.4142(4) 0.51036(15)
C19 C 0.1331(3) 0.4860(4) 0.54822(17)
H15 H 0.1430 0.5124 0.5998
C20 C 0.0088(3) 0.5191(5) 0.5104(2)
H16 H -0.0669 0.5663 0.5364
C21 C -0.0056(4) 0.4840(5) 0.4349(2)
H17 H -0.0908 0.5075 0.4093
C22 C 0.1048(3) 0.4142(5) 0.39701(18)
H18 H 0.0951 0.3904 0.3452
C23 C 0.2298(3) 0.3789(4) 0.43430(16)
H19 H 0.3054 0.3313 0.4083
C24 C 0.5114(3) 0.3349(4) 0.86378(14)
H20 H 0.4695 0.2412 0.8959
C25 C 0.6473(3) 0.3904(4) 0.90256(14)
C26 C 0.4942(3) 0.6242(4) 0.92386(15)
C27 C 0.4190(3) 0.5008(4) 0.86858(14)
H21 H 0.3265 0.4671 0.8874
C28 C 0.7277(3) 0.6522(4) 0.98062(15)
C29 C 0.7896(3) 0.5683(5) 1.04177(16)
H22 H 0.7668 0.4481 1.0541
C30 C 0.8859(3) 0.6643(5) 1.0847(2)
H23 H 0.9278 0.6097 1.1274
C31 C 0.9213(3) 0.8373(5) 1.0662(2)
H24 H 0.9892 0.8998 1.0953
C32 C 0.8587(3) 0.9200(5) 1.00573(19)
H25 H 0.8817 1.0402 0.9935
C33 C 0.7612(3) 0.8263(5) 0.96243(16)
H26 H 0.7178 0.8824 0.9204
loop_
_geom_bond_atom_site_label_1
_geom_bond_atom_site_label_2
_geom_bond_site_symmetry_1
_geom_bond_site_symmetry_2
S1 C1 1_555 1_555
O1 C16 1_555 1_555
O2 C17 1_555 1_555
O3 C25 1_555 1_555
O4 C26 1_555 1_555
N1 C16 1_555 1_555
N2 C25 1_555 1_555
C1 C4 1_555 1_555
C2 S1 1_555 1_555
H1 C2 1_555 1_555
C3 C2 1_555 1_555
H2 C3 1_555 1_555
C4 C3 1_555 1_555
C5 C1 1_555 1_555
C6 C5 1_555 1_555
C7 C6 1_555 1_555
H3 C7 1_555 1_555
C8 C7 1_555 1_555
H4 C8 1_555 1_555
C9 C8 1_555 1_555
H5 C9 1_555 1_555
C10 C9 1_555 1_555
H6 C10 1_555 1_555
C11 C6 1_555 1_555
H7 C11 1_555 1_555
C12 C5 1_555 1_555
H8 C12 1_555 1_555
C13 C12 1_555 1_555
H9 C13 1_555 1_555
H10 C13 1_555 1_555
H11 C13 1_555 1_555
C14 C5 1_555 1_555
H12 C14 1_555 1_555
C15 C14 1_555 1_555
H13 C15 1_555 1_555
H14 C15 1_555 1_555
C16 C15 1_555 1_555
C17 N1 1_555 1_555
C18 N1 1_555 1_555
C19 C18 1_555 1_555
H15 C19 1_555 1_555
C20 C19 1_555 1_555
H16 C20 1_555 1_555
C21 C20 1_555 1_555
H17 C21 1_555 1_555
C22 C21 1_555 1_555
H18 C22 1_555 1_555
C23 C18 1_555 1_555
H19 C23 1_555 1_555
C24 C12 1_555 1_555
H20 C24 1_555 1_555
C25 C24 1_555 1_555
C26 N2 1_555 1_555
C27 C4 1_555 1_555
H21 C27 1_555 1_555
C28 N2 1_555 1_555
C29 C28 1_555 1_555
H22 C29 1_555 1_555
C30 C29 1_555 1_555
H23 C30 1_555 1_555
C31 C30 1_555 1_555
H24 C31 1_555 1_555
C32 C31 1_555 1_555
H25 C32 1_555 1_555
C33 C28 1_555 1_555
H26 C33 1_555 1_555
C10 C11 1_555 1_555
C14 C17 1_555 1_555
C22 C23 1_555 1_555
C24 C27 1_555 1_555
C26 C27 1_555 1_555
C32 C33 1_555 1_555

#END
