
#######################################################################
#
#                 Cambridge Crystallographic Data Centre
#                                CCDC 
#
#######################################################################
#
# If this CIF has been generated from an entry in the Cambridge 
# Structural Database, then it will include bibliographic, chemical, 
# crystal, experimental, refinement or atomic coordinate data resulting 
# from the CCDC's data processing and validation procedures.
#
#######################################################################

data_FIZMEH
_chemical_compound_source        
'ethanol extracts of Sphaerophysa salsula (Pall.) DC'
_chemical_name_common            
'9,19-Cycloart-7beta,24beta,25-triol-1-en-3-one hydrate'
_chemical_formula_moiety         'C30 H48 O4,0.33(H2 O1)'
_chemical_name_systematic        'Sphaerophysone A hydrate'
_chemical_properties_biological  
'source plant used in Chinese folk medicine to treat hypertension'
_symmetry_cell_setting           monoclinic
_symmetry_space_group_name_H-M   'P 21'
_symmetry_Int_Tables_number      4
_space_group_name_Hall           'P 2yb'
loop_
_symmetry_equiv_pos_site_id
_symmetry_equiv_pos_as_xyz
1 x,y,z
2 -x,1/2+y,-z
_cell_length_a                   11.0360(2)
_cell_length_b                   19.5970(8)
_cell_length_c                   19.8170(7)
_cell_angle_alpha                90
_cell_angle_beta                 103.537(2)
_cell_angle_gamma                90
_cell_volume                     4166.81
_exptl_crystal_colour            colorless
_chemical_melting_point          178-180deg.C
_cell_formula_units_Z            6
_exptl_crystal_recrystallization_method methanol
loop_
_atom_site_label
_atom_site_type_symbol
_atom_site_fract_x
_atom_site_fract_y
_atom_site_fract_z
O1 O -0.2530(6) -0.0129 -0.7829(3)
O2 O -0.2443(5) 0.1939(3) -0.4809(3)
O3 O -0.2494(4) 0.1081(3) -0.0340(2)
O4 O -0.3143(4) 0.0411(2) 0.0798(2)
C1 C -0.2143(7) -0.0649(3) -0.6070(3)
C2 C -0.2337(7) -0.0684(4) -0.6762(3)
C3 C -0.2229(6) -0.0085(4) -0.7191(3)
C4 C -0.1703(6) 0.0570(4) -0.6826(3)
C5 C -0.2193(5) 0.0619(3) -0.6150(3)
C6 C -0.1901(6) 0.1283(3) -0.5746(3)
C7 C -0.2592(6) 0.1284(3) -0.5156(3)
C8 C -0.2028(5) 0.0749(3) -0.4590(3)
C9 C -0.1841(5) 0.0040(3) -0.4903(3)
C10 C -0.1826(5) -0.0004(3) -0.5686(3)
C11 C -0.2378(6) -0.0589(3) -0.4619(3)
C12 C -0.2409(6) -0.0593(3) -0.3834(3)
C13 C -0.2108(5) 0.0111(3) -0.3480(3)
C14 C -0.2710(5) 0.0684(3) -0.3998(3)
C15 C -0.2566(7) 0.1318(3) -0.3526(3)
C16 C -0.2698(7) 0.1040(3) -0.2803(3)
C17 C -0.2690(5) 0.0257(3) -0.2844(3)
C18 C -0.0675(5) 0.0193(3) -0.3260(3)
C19 C -0.0606(6) -0.0033(3) -0.5114(3)
C20 C -0.2078(5) -0.0078(3) -0.2133(3)
C21 C -0.2175(7) -0.0844(3) -0.2159(3)
C22 C -0.2710(5) 0.0209(3) -0.1571(3)
C23 C -0.2035(6) 0.0021(3) -0.0824(3)
C24 C -0.2669(5) 0.0365(3) -0.0297(3)
C25 C -0.2237(5) 0.0113(3) 0.0456(3)
C26 C -0.2308(7) -0.0666(4) 0.0512(3)
C27 C -0.0938(6) 0.0380(4) 0.0813(3)
C28 C -0.2147(7) 0.1185(4) -0.7303(3)
C29 C -0.0261(7) 0.0511(4) -0.6668(4)
C30 C -0.4133(6) 0.0565(3) -0.4288(3)
H1 H -0.262 0.228 -0.515
H2 H -0.338 0.125 -0.045
H3 H -0.307 0.027 0.125
H4 H -0.227 -0.108 -0.583
H5 H -0.262 -0.112 -0.703
H6 H -0.324 0.060 -0.632
H7 H -0.226 0.167 -0.603
H8 H -0.092 0.137 -0.554
H9 H -0.353 0.111 -0.537
H10 H -0.109 0.094 -0.436
H11 H -0.178 -0.102 -0.470
H12 H -0.330 -0.067 -0.493
H13 H -0.336 -0.074 -0.379
H14 H -0.177 -0.097 -0.355
H15 H -0.329 0.169 -0.373
H16 H -0.166 0.155 -0.348
H17 H -0.193 0.121 -0.239
H18 H -0.357 0.122 -0.269
H19 H -0.367 0.008 -0.298
H20 H -0.024 0.001 -0.366
H21 H -0.041 0.072 -0.314
H22 H -0.039 -0.012 -0.279
H23 H 0.007 0.039 -0.505
H24 H -0.005 -0.050 -0.501
H25 H -0.110 0.008 -0.200
H26 H -0.161 -0.104 -0.250
H27 H -0.183 -0.105 -0.165
H28 H -0.315 -0.095 -0.236
H29 H -0.275 0.076 -0.161
H30 H -0.365 0.001 -0.167
H31 H -0.107 0.019 -0.073
H32 H -0.205 -0.053 -0.077
H33 H -0.367 0.024 -0.046
H34 H -0.308 -0.085 0.013
H35 H -0.145 -0.089 0.043
H36 H -0.241 -0.076 0.103
H37 H -0.026 0.017 0.055
H38 H -0.092 0.093 0.076
H39 H -0.076 0.022 0.134
H40 H -0.182 0.111 -0.777
H41 H -0.316 0.118 -0.744
H42 H -0.177 0.163 -0.702
H43 H 0.004 0.033 -0.711
H44 H 0.015 0.102 -0.653
H45 H 0.001 0.017 -0.622
H46 H -0.452 0.093 -0.469
H47 H -0.432 0.006 -0.450
H48 H -0.455 0.064 -0.385
O5 O -0.1456(5) -0.3259(3) 0.3091(2)
O6 O -0.5730(3) -0.3334(2) -0.0286(2)
O7 O -0.4444(4) -0.2983(3) -0.4793(3)
O8 O -0.1582(4) -0.2284(3) -0.5075(3)
C31 C -0.0943(6) -0.2866(4) 0.1431(3)
C32 C -0.0827(6) -0.2862(4) 0.2123(3)
C33 C -0.1653(6) -0.3244(4) 0.2457(3)
C34 C -0.2682(5) -0.3674(3) 0.2008(3)
C35 C -0.3072(5) -0.3307(3) 0.1293(3)
C36 C -0.4223(5) -0.3617(3) 0.0787(3)
C37 C -0.4492(5) -0.3191(3) 0.0114(3)
C38 C -0.3502(5) -0.3324(3) -0.0290(3)
C39 C -0.2174(5) -0.3181(3) 0.0167(3)
C40 C -0.1980(5) -0.3226(3) 0.0958(3)
C41 C -0.1371(6) -0.2651(3) -0.0093(3)
C42 C -0.1428(5) -0.2662(3) -0.0891(3)
C43 C -0.2546(5) -0.3064(3) -0.1323(3)
C44 C -0.3706(5) -0.2953(3) -0.1003(3)
C45 C -0.4764(5) -0.3276(3) -0.1574(3)
C46 C -0.4417(5) -0.3093(3) -0.2271(3)
C47 C -0.3059(5) -0.2810(3) -0.2081(2)
C48 C -0.2180(5) -0.3820(3) -0.1325(2)
C49 C -0.1543(5) -0.3816(3) 0.0539(3)
C50 C -0.2350(5) -0.3012(3) -0.2643(3)
C51 C -0.0980(6) -0.2777(4) -0.2450(3)
C52 C -0.3027(6) -0.2684(3) -0.3340(3)
C53 C -0.2487(6) -0.2906(3) -0.3952(3)
C54 C -0.3276(5) -0.2640(3) -0.4643(3)
C55 C -0.2633(5) -0.2737(3) -0.5249(3)
C56 C -0.2234(7) -0.3478(4) -0.5321(3)
C57 C -0.3487(7) -0.2491(4) -0.5927(3)
C58 C -0.2121(6) -0.4389(3) 0.1961(3)
C59 C -0.3782(6) -0.3726(4) 0.2365(3)
C60 C -0.4003(6) -0.2189(3) -0.0939(3)
H49 H -0.601 -0.375 -0.058
H50 H -0.487 -0.308 -0.534
H51 H -0.087 -0.239 -0.542
H52 H -0.027 -0.258 0.121
H53 H -0.010 -0.255 0.246
H54 H -0.335 -0.279 0.141
H55 H -0.501 -0.361 0.102
H56 H -0.402 -0.414 0.068
H57 H -0.443 -0.265 0.026
H58 H -0.352 -0.387 -0.041
H59 H -0.039 -0.276 0.018
H60 H -0.161 -0.215 0.005
H61 H -0.151 -0.213 -0.107
H62 H -0.058 -0.287 -0.098
H63 H -0.567 -0.306 -0.155
H64 H -0.482 -0.382 -0.150
H65 H -0.446 -0.354 -0.260
H66 H -0.506 -0.271 -0.256
H67 H -0.311 -0.225 -0.207
H68 H -0.301 -0.413 -0.148
H69 H -0.161 -0.389 -0.170
H70 H -0.166 -0.393 -0.080
H71 H -0.055 -0.392 0.058
H72 H -0.202 -0.431 0.048
H73 H -0.236 -0.356 -0.269
H74 H -0.097 -0.224 -0.232
H75 H -0.050 -0.306 -0.201
H76 H -0.063 -0.287 -0.291
H77 H -0.401 -0.284 -0.345
H78 H -0.299 -0.214 -0.330
H79 H -0.154 -0.273 -0.387
H80 H -0.247 -0.347 -0.397
H81 H -0.342 -0.211 -0.458
H82 H -0.300 -0.383 -0.531
H83 H -0.194 -0.356 -0.580
H84 H -0.147 -0.357 -0.487
H85 H -0.412 -0.289 -0.617
H86 H -0.405 -0.206 -0.583
H87 H -0.288 -0.234 -0.626
H88 H -0.123 -0.434 0.181
H89 H -0.195 -0.464 0.246
H90 H -0.279 -0.466 0.157
H91 H -0.441 -0.413 0.212
H92 H -0.342 -0.386 0.291
H93 H -0.423 -0.323 0.231
H94 H -0.323 -0.194 -0.058
H95 H -0.412 -0.195 -0.145
H96 H -0.485 -0.217 -0.075
O9 O -0.6522(5) -0.1108(3) -1.1862(2)
O10 O -0.8116(4) -0.2771(2) -0.8924(2)
O11 O -0.6175(4) -0.2014(2) -0.4364(3)
O12 O -0.6260(7) -0.1578(4) -0.3145(3)
C61 C -0.5982(5) -0.0581(3) -1.0103(5)
C62 C -0.5848(6) -0.0647(3) -1.0758(3)
C63 C -0.6652(5) -0.1097(3) -1.1272(3)
C64 C -0.7690(5) -0.1485(3) -1.1055(3)
C65 C -0.7233(5) -0.1651(3) -1.0256(3)
C66 C -0.8073(6) -0.2109(3) -0.9954(3)
C67 C -0.7438(5) -0.2245(3) -0.9195(3)
C68 C -0.7455(5) -0.1605(3) -0.8758(3)
C69 C -0.6913(5) -0.0969(3) -0.9060(3)
C70 C -0.6911(5) -0.0993(3) -0.9843(3)
C71 C -0.5863(6) -0.0565(3) -0.8592(3)
C72 C -0.5912(6) -0.0500(3) -0.7811(3)
C73 C -0.6848(5) -0.0975(3) -0.7594(3)
C74 C -0.6857(5) -0.1684(3) -0.7975(3)
C75 C -0.7609(7) -0.2131(3) -0.7582(3)
C76 C -0.7183(8) -0.1895(4) -0.6819(3)
C77 C -0.6487(6) -0.1204(3) -0.6812(3)
C78 C -0.8134(6) -0.0649(3) -0.7766(3)
C79 C -0.7889(6) -0.0573(3) -0.9576(3)
C80 C -0.6770(6) -0.0733(4) -0.6243(3)
C81 C -0.6162(9) -0.0023(4) -0.6229(4)
C82 C -0.6256(7) -0.1101(4) -0.5532(3)
C83 C -0.7042(7) -0.1017(4) -0.5007(3)
C84 C -0.6389(7) -0.1296(3) -0.4305(3)
C85 C -0.7056(8) -0.1187(4) -0.3709(3)
C86 C -0.8354(11) -0.1510(6) -0.3868(6)
C87 C -0.7060(13) -0.0446(5) -0.3518(5)
C88 C -0.7942(6) -0.2161(4) -1.1466(3)
C89 C -0.8866(6) -0.1030(4) -1.1225(3)
C90 C -0.5514(7) -0.1986(3) -0.7860(3)
H97 H -0.770 -0.322 -0.900
H98 H -0.563 -0.217 -0.385
H99 H -0.635 -0.139 -0.272
H100 H -0.539 -0.022 -0.976
H101 H -0.515 -0.033 -1.092
H102 H -0.637 -0.194 -1.020
H103 H -0.827 -0.258 -1.025
H104 H -0.897 -0.184 -0.998
H105 H -0.648 -0.240 -0.916
H106 H -0.845 -0.149 -0.880
H107 H -0.583 -0.006 -0.881
H108 H -0.499 -0.083 -0.860
H109 H -0.501 -0.059 -0.748
H110 H -0.620 0.003 -0.773
H111 H -0.750 -0.266 -0.765
H112 H -0.864 -0.202 -0.778
H113 H -0.656 -0.228 -0.653
H114 H -0.797 -0.185 -0.658
H115 H -0.550 -0.130 -0.668
H116 H -0.849 -0.060 -0.832
H117 H -0.880 -0.097 -0.757
H118 H -0.805 -0.016 -0.751
H119 H -0.785 -0.002 -0.958
H120 H -0.885 -0.073 -0.969
H121 H -0.778 -0.065 -0.633
H122 H -0.515 -0.009 -0.621
H123 H -0.656 0.027 -0.667
H124 H -0.625 0.021 -0.575
H125 H -0.614 -0.164 -0.563
H126 H -0.532 -0.090 -0.530
H127 H -0.731 -0.049 -0.497
H128 H -0.793 -0.131 -0.518
H129 H -0.548 -0.103 -0.416
H130 H -0.828 -0.205 -0.391
H131 H -0.885 -0.137 -0.349
H132 H -0.883 -0.129 -0.439
H133 H -0.627 -0.021 -0.364
H134 H -0.792 -0.023 -0.388
H135 H -0.713 -0.041 -0.300
H136 H -0.708 -0.243 -1.142
H137 H -0.859 -0.246 -1.126
H138 H -0.834 -0.201 -1.201
H139 H -0.922 -0.099 -1.178
H140 H -0.957 -0.125 -1.099
H141 H -0.855 -0.054 -1.100
H142 H -0.497 -0.163 -0.810
H143 H -0.510 -0.200 -0.731
H144 H -0.561 -0.248 -0.811
O13 O 0.0157(5) -0.2422(3) -0.5887(3)
H145 H 0.105 -0.269 -0.566
H146 H -0.019 -0.254 -0.632
loop_
_geom_bond_atom_site_label_1
_geom_bond_atom_site_label_2
_geom_bond_site_symmetry_1
_geom_bond_site_symmetry_2
O1 C3 1_555 1_555
O2 C7 1_555 1_555
O3 C24 1_555 1_555
O4 C25 1_555 1_555
C1 C2 1_555 1_555
C2 C3 1_555 1_555
C3 C4 1_555 1_555
C4 C5 1_555 1_555
C5 C6 1_555 1_555
C6 C7 1_555 1_555
C7 C8 1_555 1_555
C8 C9 1_555 1_555
C9 C10 1_555 1_555
C10 C1 1_555 1_555
C11 C9 1_555 1_555
C12 C11 1_555 1_555
C13 C12 1_555 1_555
C14 C8 1_555 1_555
C15 C14 1_555 1_555
C16 C15 1_555 1_555
C17 C13 1_555 1_555
C18 C13 1_555 1_555
C19 C9 1_555 1_555
C20 C17 1_555 1_555
C21 C20 1_555 1_555
C22 C20 1_555 1_555
C23 C22 1_555 1_555
C24 C23 1_555 1_555
C25 C24 1_555 1_555
C26 C25 1_555 1_555
C27 C25 1_555 1_555
C28 C4 1_555 1_555
C29 C4 1_555 1_555
C30 C14 1_555 1_555
O5 C33 1_555 1_555
O6 C37 1_555 1_555
O7 C54 1_555 1_555
O8 C55 1_555 1_555
C31 C32 1_555 1_555
C32 C33 1_555 1_555
C33 C34 1_555 1_555
C34 C35 1_555 1_555
C35 C36 1_555 1_555
C36 C37 1_555 1_555
C37 C38 1_555 1_555
C38 C39 1_555 1_555
C39 C40 1_555 1_555
C40 C31 1_555 1_555
C41 C39 1_555 1_555
C42 C41 1_555 1_555
C43 C42 1_555 1_555
C44 C38 1_555 1_555
C45 C44 1_555 1_555
C46 C45 1_555 1_555
C47 C43 1_555 1_555
C48 C43 1_555 1_555
C49 C39 1_555 1_555
C50 C47 1_555 1_555
C51 C50 1_555 1_555
C52 C50 1_555 1_555
C53 C52 1_555 1_555
C54 C53 1_555 1_555
C55 C54 1_555 1_555
C56 C55 1_555 1_555
C57 C55 1_555 1_555
C58 C34 1_555 1_555
C59 C34 1_555 1_555
C60 C44 1_555 1_555
O9 C63 1_555 1_555
O10 C67 1_555 1_555
O11 C84 1_555 1_555
O12 C85 1_555 1_555
C61 C62 1_555 1_555
C62 C63 1_555 1_555
C63 C64 1_555 1_555
C64 C65 1_555 1_555
C65 C66 1_555 1_555
C66 C67 1_555 1_555
C67 C68 1_555 1_555
C68 C69 1_555 1_555
C69 C70 1_555 1_555
C70 C61 1_555 1_555
C71 C69 1_555 1_555
C72 C71 1_555 1_555
C73 C72 1_555 1_555
C74 C68 1_555 1_555
C75 C74 1_555 1_555
C76 C75 1_555 1_555
C77 C73 1_555 1_555
C78 C73 1_555 1_555
C79 C69 1_555 1_555
C80 C77 1_555 1_555
C81 C80 1_555 1_555
C82 C80 1_555 1_555
C83 C82 1_555 1_555
C84 C83 1_555 1_555
C85 C84 1_555 1_555
C86 C85 1_555 1_555
C87 C85 1_555 1_555
C88 C64 1_555 1_555
C89 C64 1_555 1_555
C90 C74 1_555 1_555
O13 H145 1_555 1_555
H1 O2 1_555 1_555
H2 O3 1_555 1_555
H3 O4 1_555 1_555
H4 C1 1_555 1_555
H5 C2 1_555 1_555
H6 C5 1_555 1_555
H7 C6 1_555 1_555
H8 C6 1_555 1_555
H9 C7 1_555 1_555
H10 C8 1_555 1_555
H11 C11 1_555 1_555
H12 C11 1_555 1_555
H13 C12 1_555 1_555
H14 C12 1_555 1_555
H15 C15 1_555 1_555
H16 C15 1_555 1_555
H17 C16 1_555 1_555
H18 C16 1_555 1_555
H19 C17 1_555 1_555
H20 C18 1_555 1_555
H21 C18 1_555 1_555
H22 C18 1_555 1_555
H23 C19 1_555 1_555
H24 C19 1_555 1_555
H25 C20 1_555 1_555
H26 C21 1_555 1_555
H27 C21 1_555 1_555
H28 C21 1_555 1_555
H29 C22 1_555 1_555
H30 C22 1_555 1_555
H31 C23 1_555 1_555
H32 C23 1_555 1_555
H33 C24 1_555 1_555
H34 C26 1_555 1_555
H35 C26 1_555 1_555
H36 C26 1_555 1_555
H37 C27 1_555 1_555
H38 C27 1_555 1_555
H39 C27 1_555 1_555
H40 C28 1_555 1_555
H41 C28 1_555 1_555
H42 C28 1_555 1_555
H43 C29 1_555 1_555
H44 C29 1_555 1_555
H45 C29 1_555 1_555
H46 C30 1_555 1_555
H47 C30 1_555 1_555
H48 C30 1_555 1_555
H49 O6 1_555 1_555
H50 O7 1_555 1_555
H51 O8 1_555 1_555
H52 C31 1_555 1_555
H53 C32 1_555 1_555
H54 C35 1_555 1_555
H55 C36 1_555 1_555
H56 C36 1_555 1_555
H57 C37 1_555 1_555
H58 C38 1_555 1_555
H59 C41 1_555 1_555
H60 C41 1_555 1_555
H61 C42 1_555 1_555
H62 C42 1_555 1_555
H63 C45 1_555 1_555
H64 C45 1_555 1_555
H65 C46 1_555 1_555
H66 C46 1_555 1_555
H67 C47 1_555 1_555
H68 C48 1_555 1_555
H69 C48 1_555 1_555
H70 C48 1_555 1_555
H71 C49 1_555 1_555
H72 C49 1_555 1_555
H73 C50 1_555 1_555
H74 C51 1_555 1_555
H75 C51 1_555 1_555
H76 C51 1_555 1_555
H77 C52 1_555 1_555
H78 C52 1_555 1_555
H79 C53 1_555 1_555
H80 C53 1_555 1_555
H81 C54 1_555 1_555
H82 C56 1_555 1_555
H83 C56 1_555 1_555
H84 C56 1_555 1_555
H85 C57 1_555 1_555
H86 C57 1_555 1_555
H87 C57 1_555 1_555
H88 C58 1_555 1_555
H89 C58 1_555 1_555
H90 C58 1_555 1_555
H91 C59 1_555 1_555
H92 C59 1_555 1_555
H93 C59 1_555 1_555
H94 C60 1_555 1_555
H95 C60 1_555 1_555
H96 C60 1_555 1_555
H97 O10 1_555 1_555
H98 O11 1_555 1_555
H99 O12 1_555 1_555
H100 C61 1_555 1_555
H101 C62 1_555 1_555
H102 C65 1_555 1_555
H103 C66 1_555 1_555
H104 C66 1_555 1_555
H105 C67 1_555 1_555
H106 C68 1_555 1_555
H107 C71 1_555 1_555
H108 C71 1_555 1_555
H109 C72 1_555 1_555
H110 C72 1_555 1_555
H111 C75 1_555 1_555
H112 C75 1_555 1_555
H113 C76 1_555 1_555
H114 C76 1_555 1_555
H115 C77 1_555 1_555
H116 C78 1_555 1_555
H117 C78 1_555 1_555
H118 C78 1_555 1_555
H119 C79 1_555 1_555
H120 C79 1_555 1_555
H121 C80 1_555 1_555
H122 C81 1_555 1_555
H123 C81 1_555 1_555
H124 C81 1_555 1_555
H125 C82 1_555 1_555
H126 C82 1_555 1_555
H127 C83 1_555 1_555
H128 C83 1_555 1_555
H129 C84 1_555 1_555
H130 C86 1_555 1_555
H131 C86 1_555 1_555
H132 C86 1_555 1_555
H133 C87 1_555 1_555
H134 C87 1_555 1_555
H135 C87 1_555 1_555
H136 C88 1_555 1_555
H137 C88 1_555 1_555
H138 C88 1_555 1_555
H139 C89 1_555 1_555
H140 C89 1_555 1_555
H141 C89 1_555 1_555
H142 C90 1_555 1_555
H143 C90 1_555 1_555
H144 C90 1_555 1_555
H146 O13 1_555 1_555
C5 C10 1_555 1_555
C10 C19 1_555 1_555
C13 C14 1_555 1_555
C16 C17 1_555 1_555
C35 C40 1_555 1_555
C40 C49 1_555 1_555
C43 C44 1_555 1_555
C46 C47 1_555 1_555
C65 C70 1_555 1_555
C70 C79 1_555 1_555
C73 C74 1_555 1_555
C76 C77 1_555 1_555

#END
