
#######################################################################
#
#                 Cambridge Crystallographic Data Centre
#                                CCDC 
#
#######################################################################
#
# If this CIF has been generated from an entry in the Cambridge 
# Structural Database, then it will include bibliographic, chemical, 
# crystal, experimental, refinement or atomic coordinate data resulting 
# from the CCDC's data processing and validation procedures.
#
#######################################################################

data_FIZMIL
_chemical_compound_source        'Isodon adenthanus'
_chemical_name_common            
'(11alpha,12alpha)-4-Demethyl-11,12-epoxy-3,13-dihydroxy-2-oxoursa-3,20(30)-dien-28-oic acid gamma-lactone'
_chemical_formula_moiety         'C29 H38 O5'
_chemical_name_systematic        Adenanthusone
_chemical_properties_biological  
'source plant used in Chinese traditional folk medicine to treat enteritis and dysentry'
_symmetry_cell_setting           orthorhombic
_symmetry_space_group_name_H-M   'P 21 21 21'
_symmetry_Int_Tables_number      19
_space_group_name_Hall           'P 2ac 2ab'
loop_
_symmetry_equiv_pos_site_id
_symmetry_equiv_pos_as_xyz
1 x,y,z
2 1/2-x,-y,1/2+z
3 1/2+x,1/2-y,-z
4 -x,1/2+y,1/2-z
_cell_length_a                   7.691(1)
_cell_length_b                   8.237(1)
_cell_length_c                   38.417(2)
_cell_angle_alpha                90
_cell_angle_beta                 90
_cell_angle_gamma                90
_cell_volume                     2433.75
_exptl_crystal_colour            colorless
_exptl_crystal_description       flake
_chemical_melting_point          295-296deg.C
_cell_formula_units_Z            4
_exptl_crystal_recrystallization_method methanol/chloroform
loop_
_atom_site_label
_atom_site_type_symbol
_atom_site_fract_x
_atom_site_fract_y
_atom_site_fract_z
O1 O -0.2864(5) -0.3281(5) -0.0352(1)
O2 O -0.3569(5) -0.6458(5) -0.0384(1)
O3 O -0.0160(5) -0.0631(5) 0.0933(1)
O4 O -0.1428(4) -0.1854(5) 0.1820(1)
O5 O -0.1453(6) -0.1882(6) 0.2404(1)
C1 C -0.1948(7) -0.3270(7) 0.0243(1)
C2 C -0.2624(6) -0.4074(7) -0.0082(1)
C3 C -0.2965(7) -0.5803(7) -0.0075(1)
C4 C -0.2700(6) -0.6747(7) 0.0207(1)
C5 C -0.1918(6) -0.5958(6) 0.0531(1)
C6 C -0.2164(7) -0.6948(6) 0.0870(1)
C7 C -0.1001(7) -0.6249(7) 0.1159(1)
C8 C -0.1280(6) -0.4417(6) 0.1231(1)
C9 C -0.1350(6) -0.3466(6) 0.0877(1)
C10 C -0.2472(6) -0.4197(6) 0.0577(1)
C11 C -0.1687(6) -0.1688(7) 0.0944(1)
C12 C -0.1030(6) -0.0860(7) 0.1262(1)
C13 C -0.0078(6) -0.1844(7) 0.1538(1)
C14 C 0.0304(6) -0.3649(6) 0.1441(1)
C15 C 0.0669(7) -0.4586(7) 0.1787(1)
C16 C 0.1884(7) -0.3620(7) 0.2036(1)
C17 C 0.1317(7) -0.1819(7) 0.2084(1)
C18 C 0.1370(6) -0.0870(7) 0.1733(1)
C19 C 0.3253(6) -0.0519(7) 0.1608(1)
C20 C 0.4108(8) 0.0434(9) 0.1905(1)
C21 C 0.4135(9) -0.0490(9) 0.2248(1)
C22 C 0.2316(8) -0.0899(9) 0.2372(1)
C23 C -0.3038(9) -0.8543(8) 0.0195(1)
C24 C -0.4466(6) -0.4011(8) 0.0627(1)
C25 C -0.3053(6) -0.4287(8) 0.1428(1)
C26 C 0.2009(6) -0.3729(7) 0.1219(1)
C27 C -0.0619(7) -0.1847(8) 0.2140(1)
C28 C 0.3316(8) 0.0402(9) 0.1258(1)
C29 C 0.4722(12) 0.1893(12) 0.1873(2)
H1 H -0.377 -0.563 -0.058
H2 H -0.242 -0.205 0.026
H3 H -0.053 -0.325 0.023
H4 H -0.051 -0.592 0.049
H5 H -0.353 -0.690 0.095
H6 H -0.183 -0.822 0.083
H7 H -0.122 -0.689 0.140
H8 H 0.035 -0.639 0.108
H9 H -0.002 -0.352 0.078
H10 H -0.289 -0.122 0.083
H11 H -0.181 0.015 0.136
H12 H -0.055 -0.484 0.192
H13 H 0.129 -0.574 0.172
H14 H 0.190 -0.419 0.229
H15 H 0.318 -0.361 0.193
H16 H 0.080 0.032 0.179
H17 H 0.393 -0.166 0.158
H18 H 0.486 -0.161 0.221
H19 H 0.478 0.023 0.244
H20 H 0.163 0.021 0.243
H21 H 0.239 -0.166 0.260
H22 H -0.359 -0.884 -0.005
H23 H -0.390 -0.884 0.041
H24 H -0.181 -0.915 0.023
H25 H -0.487 -0.463 0.086
H26 H -0.515 -0.449 0.041
H27 H -0.479 -0.272 0.066
H28 H -0.319 -0.299 0.147
H29 H -0.302 -0.489 0.167
H30 H -0.411 -0.470 0.127
H31 H 0.184 -0.311 0.098
H32 H 0.220 -0.501 0.118
H33 H 0.308 -0.323 0.136
H34 H 0.458 0.064 0.117
H35 H 0.266 0.154 0.132
H36 H 0.257 -0.024 0.106
H37 H 0.467 0.242 0.162
H38 H 0.526 0.254 0.209
loop_
_geom_bond_atom_site_label_1
_geom_bond_atom_site_label_2
_geom_bond_site_symmetry_1
_geom_bond_site_symmetry_2
O1 C2 1_555 1_555
O2 C3 1_555 1_555
O3 C11 1_555 1_555
O4 C13 1_555 1_555
O5 C27 1_555 1_555
C1 C2 1_555 1_555
C2 C3 1_555 1_555
C3 C4 1_555 1_555
C4 C5 1_555 1_555
C5 C6 1_555 1_555
C6 C7 1_555 1_555
C7 C8 1_555 1_555
C8 C9 1_555 1_555
C9 C10 1_555 1_555
C10 C1 1_555 1_555
C11 C9 1_555 1_555
C12 O3 1_555 1_555
C13 C12 1_555 1_555
C14 C8 1_555 1_555
C15 C14 1_555 1_555
C16 C15 1_555 1_555
C17 C16 1_555 1_555
C18 C13 1_555 1_555
C19 C18 1_555 1_555
C20 C19 1_555 1_555
C21 C20 1_555 1_555
C22 C17 1_555 1_555
C23 C4 1_555 1_555
C24 C10 1_555 1_555
C25 C8 1_555 1_555
C26 C14 1_555 1_555
C27 O4 1_555 1_555
C28 C19 1_555 1_555
C29 C20 1_555 1_555
H1 O2 1_555 1_555
H2 C1 1_555 1_555
H3 C1 1_555 1_555
H4 C5 1_555 1_555
H5 C6 1_555 1_555
H6 C6 1_555 1_555
H7 C7 1_555 1_555
H8 C7 1_555 1_555
H9 C9 1_555 1_555
H10 C11 1_555 1_555
H11 C12 1_555 1_555
H12 C15 1_555 1_555
H13 C15 1_555 1_555
H14 C16 1_555 1_555
H15 C16 1_555 1_555
H16 C18 1_555 1_555
H17 C19 1_555 1_555
H18 C21 1_555 1_555
H19 C21 1_555 1_555
H20 C22 1_555 1_555
H21 C22 1_555 1_555
H22 C23 1_555 1_555
H23 C23 1_555 1_555
H24 C23 1_555 1_555
H25 C24 1_555 1_555
H26 C24 1_555 1_555
H27 C24 1_555 1_555
H28 C25 1_555 1_555
H29 C25 1_555 1_555
H30 C25 1_555 1_555
H31 C26 1_555 1_555
H32 C26 1_555 1_555
H33 C26 1_555 1_555
H34 C28 1_555 1_555
H35 C28 1_555 1_555
H36 C28 1_555 1_555
H37 C29 1_555 1_555
H38 C29 1_555 1_555
C5 C10 1_555 1_555
C11 C12 1_555 1_555
C13 C14 1_555 1_555
C17 C18 1_555 1_555
C17 C27 1_555 1_555
C21 C22 1_555 1_555

#END
