
#######################################################################
#
#                 Cambridge Crystallographic Data Centre
#                                CCDC 
#
#######################################################################
#
# If this CIF has been generated from an entry in the Cambridge 
# Structural Database, then it will include bibliographic, chemical, 
# crystal, experimental, refinement or atomic coordinate data resulting 
# from the CCDC's data processing and validation procedures.
#
#######################################################################

data_FIZNOS
_chemical_compound_source        'leaves of Isodon eriocalyx (Dunn.) Hara'
_chemical_formula_moiety         'C19 H22 O5'
_chemical_name_systematic        'Maoecrystal V'
_chemical_properties_biological  
'high inhibitory activity against HeLa human tumour cells, almost non-cytotoxic against four other human cell lines (K562, A549, BGC-823 and CNE)'
_symmetry_cell_setting           trigonal
_symmetry_space_group_name_H-M   'P 31'
_symmetry_Int_Tables_number      144
_space_group_name_Hall           'P 31'
loop_
_symmetry_equiv_pos_site_id
_symmetry_equiv_pos_as_xyz
1 x,y,z
2 -y,x-y,1/3+z
3 -x+y,-x,2/3+z
_cell_length_a                   15.409(1)
_cell_length_b                   15.409(1)
_cell_length_c                   6.605(1)
_cell_angle_alpha                90
_cell_angle_beta                 90
_cell_angle_gamma                120
_cell_volume                     1358.16
_exptl_crystal_colour            colorless
_exptl_crystal_description       needle
_chemical_melting_point          248deg.C
_cell_formula_units_Z            3
_exptl_crystal_recrystallization_method acetone/methanol/water
loop_
_atom_site_label
_atom_site_type_symbol
_atom_site_fract_x
_atom_site_fract_y
_atom_site_fract_z
C1 C 0.2416(12) 0.5134(10) 0.0037(22)
C2 C 0.3470(12) 0.5639(11) -0.0920(30)
C3 C 0.4038(12) 0.5236(12) -0.1110(30)
C4 C 0.3732(11) 0.4212(11) -0.0662(23)
C5 C 0.2610(12) 0.3639(12) -0.0580(22)
O1 O 0.2160(8) 0.3298(8) 0.4046(15)
C6 C 0.1422(12) 0.2338(12) 0.3381(24)
C7 C 0.1169(12) 0.2316(11) 0.1039(25)
C8 C 0.0988(11) 0.3249(11) 0.0621(21)
C9 C 0.2150(12) 0.4104(10) 0.0759(22)
C10 C 0.0172(11) 0.3181(11) 0.2050(23)
C11 C -0.0719(12) 0.2063(12) 0.1997(24)
C12 C -0.0626(12) 0.1503(10) 0.0161(25)
C13 C 0.0322(13) 0.1407(11) 0.0420(30)
C14 C 0.0553(12) 0.3158(12) -0.1504(22)
C15 C -0.0442(12) 0.2143(13) -0.1793(25)
C16 C -0.1279(14) 0.2304(16) -0.2470(30)
C17 C 0.4044(12) 0.3801(13) -0.2524(25)
C18 C 0.4270(13) 0.4132(13) 0.1260(30)
C19 C 0.2449(11) 0.4270(10) 0.3013(22)
O2 O 0.2131(7) 0.2586(7) 0.0068
O3 O 0.1928(9) 0.5538(8) 0.0393(19)
O4 O 0.1099(9) 0.1690(9) 0.4468(19)
O5 O 0.0888(7) 0.3796(7) -0.2766(14)
H1 H 0.378 0.645 -0.139
H2 H 0.478 0.575 -0.175
H3 H 0.234 0.364 -0.212
H4 H -0.010 0.367 0.150
H5 H 0.044 0.340 0.356
H6 H -0.069 0.172 0.339
H7 H -0.141 0.208 0.190
H8 H -0.129 0.075 0.000
H9 H 0.050 0.119 -0.106
H10 H 0.018 0.081 0.148
H11 H -0.031 0.176 -0.305
H12 H -0.193 0.173 -0.322
H13 H -0.108 0.304 -0.320
H14 H -0.157 0.239 -0.100
H15 H 0.334 0.331 -0.331
H16 H 0.431 0.332 -0.185
H17 H 0.459 0.442 -0.339
H18 H 0.465 0.373 0.083
H19 H 0.369 0.368 0.235
H20 H 0.476 0.488 0.175
H21 H 0.206 0.460 0.376
H22 H 0.324 0.476 0.314
loop_
_geom_bond_atom_site_label_1
_geom_bond_atom_site_label_2
_geom_bond_site_symmetry_1
_geom_bond_site_symmetry_2
C1 C2 1_555 1_555
C2 C3 1_555 1_555
C3 C4 1_555 1_555
C4 C5 1_555 1_555
C5 C9 1_555 1_555
O1 C6 1_555 1_555
C6 C7 1_555 1_555
C7 C8 1_555 1_555
C8 C9 1_555 1_555
C9 C1 1_555 1_555
C10 C8 1_555 1_555
C11 C10 1_555 1_555
C12 C11 1_555 1_555
C13 C7 1_555 1_555
C14 C8 1_555 1_555
C15 C12 1_555 1_555
C16 C15 1_555 1_555
C17 C4 1_555 1_555
C18 C4 1_555 1_555
C19 O1 1_555 1_555
O2 C5 1_555 1_555
O3 C1 1_555 1_555
O4 C6 1_555 1_555
O5 C14 1_555 1_555
H1 C2 1_555 1_555
H2 C3 1_555 1_555
H3 C5 1_555 1_555
H4 C10 1_555 1_555
H5 C10 1_555 1_555
H6 C11 1_555 1_555
H7 C11 1_555 1_555
H8 C12 1_555 1_555
H9 C13 1_555 1_555
H10 C13 1_555 1_555
H11 C15 1_555 1_555
H12 C16 1_555 1_555
H13 C16 1_555 1_555
H14 C16 1_555 1_555
H15 C17 1_555 1_555
H16 C17 1_555 1_555
H17 C17 1_555 1_555
H18 C18 1_555 1_555
H19 C18 1_555 1_555
H20 C18 1_555 1_555
H21 C19 1_555 1_555
H22 C19 1_555 1_555
C7 O2 1_555 1_555
C9 C19 1_555 1_555
C12 C13 1_555 1_555
C14 C15 1_555 1_555

#END
