
#######################################################################
#
#                 Cambridge Crystallographic Data Centre
#                                CCDC 
#
#######################################################################
#
# If this CIF has been generated from an entry in the Cambridge 
# Structural Database, then it will include bibliographic, chemical, 
# crystal, experimental, refinement or atomic coordinate data resulting 
# from the CCDC's data processing and validation procedures.
#
#######################################################################

data_FIZNIO
_chemical_formula_moiety         
'C60 H57 N13 O6,3(C5 H14 N1 O1 1+),2(C2 H3 N1),O4 P1 3-,H2 O1'
_chemical_name_systematic        
"tris(2-hydroxy-N,N,N-trimethylethan-1-aminium) N,N',N''-{nitrilotris[(ethane-2,1-diyl)carbamoylazanediyl-2,1-phenylene]}tris(N'-naphthalen-1-ylurea) phosphate acetonitrile solvate monohydrate"
_symmetry_cell_setting           orthorhombic
_symmetry_space_group_name_H-M   'P n a 21'
_symmetry_Int_Tables_number      33
_space_group_name_Hall           'P 2c -2n'
loop_
_symmetry_equiv_pos_site_id
_symmetry_equiv_pos_as_xyz
1 x,y,z
2 -x,-y,1/2+z
3 1/2+x,1/2-y,z
4 1/2-x,1/2+y,1/2+z
_cell_length_a                   20.4627(5)
_cell_length_b                   15.7895(4)
_cell_length_c                   25.0638(6)
_cell_angle_alpha                90
_cell_angle_beta                 90
_cell_angle_gamma                90
_cell_volume                     8098.01
_exptl_crystal_colour            yellow
_exptl_crystal_description       block
_cell_formula_units_Z            4
loop_
_atom_site_label
_atom_site_type_symbol
_atom_site_fract_x
_atom_site_fract_y
_atom_site_fract_z
C1 C -0.00518(8) 0.55159(13) 0.40408(8)
H1 H -0.0246 0.5124 0.4305
H2 H -0.0410 0.5748 0.3820
C2 C 0.02887(8) 0.62286(11) 0.43279(7)
H3 H 0.0504 0.6598 0.4062
H4 H -0.0042 0.6573 0.4518
C3 C 0.05819(8) 0.56953(10) 0.52030(7)
C4 C 0.10381(7) 0.51079(10) 0.60448(6)
C5 C 0.05977(7) 0.55035(11) 0.63927(7)
H5 H 0.0327 0.5948 0.6264
C6 C 0.05514(8) 0.52557(12) 0.69195(6)
H6 H 0.0248 0.5530 0.7149
C7 C 0.09374(8) 0.46190(13) 0.71165(7)
H7 H 0.0893 0.4442 0.7477
C8 C 0.13993(8) 0.42304(12) 0.67812(7)
H8 H 0.1673 0.3796 0.6918
C9 C 0.14596(8) 0.44760(10) 0.62495(7)
C10 C 0.22226(8) 0.33493(10) 0.59459(7)
C11 C 0.30276(8) 0.24392(11) 0.54786(7)
C12 C 0.29753(9) 0.20509(12) 0.49925(7)
H9 H 0.2672 0.2264 0.4739
C13 C 0.33587(10) 0.13464(13) 0.48590(9)
H10 H 0.3313 0.1086 0.4519
C14 C 0.37994(10) 0.10353(13) 0.52202(10)
H11 H 0.4065 0.0564 0.5129
C15 C 0.38596(9) 0.14173(12) 0.57305(8)
C16 C 0.43203(10) 0.11223(15) 0.61211(10)
H12 H 0.4585 0.0645 0.6040
C17 C 0.43882(10) 0.15034(16) 0.65992(10)
H13 H 0.4699 0.1299 0.6850
C18 C 0.40025(10) 0.21915(17) 0.67207(9)
H14 H 0.4050 0.2446 0.7062
C19 C 0.35606(9) 0.25234(14) 0.63805(7)
H15 H 0.3311 0.3006 0.6479
C20 C 0.34746(8) 0.21359(12) 0.58689(7)
C21 C 0.05086(9) 0.54694(13) 0.31867(7)
H16 H 0.0445 0.6088 0.3228
H17 H 0.0180 0.5262 0.2928
C22 C 0.11814(9) 0.53051(12) 0.29691(7)
H18 H 0.1248 0.4686 0.2939
H19 H 0.1213 0.5549 0.2606
C23 C 0.18767(8) 0.64704(12) 0.32239(6)
C24 C 0.26340(7) 0.75487(11) 0.36025(6)
C25 C 0.27213(8) 0.80258(11) 0.31381(7)
H20 H 0.2593 0.7802 0.2802
C26 C 0.29976(8) 0.88320(12) 0.31693(7)
H21 H 0.3038 0.9166 0.2856
C27 C 0.32140(8) 0.91501(12) 0.36551(7)
H22 H 0.3404 0.9698 0.3674
C28 C 0.31507(8) 0.86598(11) 0.41119(7)
H23 H 0.3317 0.8865 0.4442
C29 C 0.28454(7) 0.78673(11) 0.40931(7)
C30 C 0.26508(7) 0.76727(10) 0.50435(6)
C31 C 0.25611(8) 0.72642(10) 0.59808(6)
C32 C 0.20858(8) 0.68318(11) 0.62490(7)
H24 H 0.1843 0.6405 0.6070
C33 C 0.19509(9) 0.70131(12) 0.67924(7)
H25 H 0.1623 0.6704 0.6976
C34 C 0.22913(10) 0.76291(13) 0.70498(7)
H26 H 0.2185 0.7774 0.7407
C35 C 0.28044(9) 0.80537(12) 0.67841(7)
C36 C 0.31905(9) 0.86908(15) 0.70466(7)
H27 H 0.3091 0.8838 0.7405
C37 C 0.36933(10) 0.90881(15) 0.67957(8)
H28 H 0.3940 0.9505 0.6980
C38 C 0.38504(9) 0.88829(13) 0.62614(8)
H29 H 0.4199 0.9166 0.6086
C39 C 0.34978(8) 0.82748(11) 0.59988(6)
H30 H 0.3616 0.8125 0.5645
C40 C 0.29592(8) 0.78627(11) 0.62452(6)
C41 C 0.02155(10) 0.41644(13) 0.36392(10)
H31 H 0.0400 0.3941 0.3302
H32 H -0.0266 0.4118 0.3620
C42 C 0.04679(9) 0.36446(13) 0.41066(10)
H33 H 0.0301 0.3891 0.4443
H34 H 0.0297 0.3060 0.4078
C43 C 0.15072(9) 0.30559(11) 0.38115(7)
C44 C 0.26307(8) 0.25927(11) 0.36008(7)
C45 C 0.24592(11) 0.17684(12) 0.34435(8)
H35 H 0.2031 0.1559 0.3504
C46 C 0.29325(11) 0.12608(12) 0.31952(8)
H36 H 0.2812 0.0715 0.3070
C47 C 0.35502(11) 0.15228(12) 0.31294(8)
H37 H 0.3861 0.1155 0.2970
C48 C 0.37416(10) 0.23263(12) 0.32922(7)
H38 H 0.4180 0.2508 0.3244
C49 C 0.32758(8) 0.28741(10) 0.35316(7)
C50 C 0.38801(8) 0.42264(11) 0.34514(7)
C51 C 0.43591(8) 0.56388(12) 0.35234(7)
C52 C 0.41012(9) 0.63990(12) 0.33583(7)
H39 H 0.3641 0.6475 0.3351
C53 C 0.45192(11) 0.70716(13) 0.31980(8)
H40 H 0.4337 0.7590 0.3076
C54 C 0.51766(10) 0.69774(12) 0.32184(7)
H41 H 0.5451 0.7428 0.3105
C55 C 0.54575(9) 0.62210(13) 0.34055(8)
C56 C 0.61364(10) 0.61235(17) 0.34547(11)
H42 H 0.6417 0.6564 0.3336
C57 C 0.64044(10) 0.53963(19) 0.36730(12)
H43 H 0.6865 0.5344 0.3708
C58 C 0.59977(11) 0.47427(17) 0.38405(12)
H44 H 0.6184 0.4245 0.3990
C59 C 0.53408(10) 0.48054(15) 0.37940(10)
H45 H 0.5071 0.4352 0.3909
C60 C 0.50537(8) 0.55427(12) 0.35746(7)
N1 N 0.04017(7) 0.50545(9) 0.37029(6)
N2 N 0.07782(6) 0.59389(9) 0.47125(6)
H46 H 0.1195 0.5924 0.4625
N3 N 0.10829(6) 0.53462(8) 0.55038(5)
H47 H 0.1461 0.5267 0.5344
N4 N 0.19410(7) 0.41415(9) 0.59086(6)
H48 H 0.2075 0.4469 0.5646
N5 N 0.26790(7) 0.32171(9) 0.55564(6)
H49 H 0.2765 0.3639 0.5338
N6 N 0.16959(7) 0.56600(10) 0.32980(6)
H50 H 0.1888 0.5349 0.3543
N7 N 0.23443(7) 0.67421(9) 0.35851(6)
H51 H 0.2472 0.6374 0.3827
N8 N 0.27896(6) 0.73595(9) 0.45494(5)
H52 H 0.2847 0.6810 0.4515
N9 N 0.26795(7) 0.70687(8) 0.54344(5)
H53 H 0.2774 0.6544 0.5346
N10 N 0.11819(7) 0.36168(9) 0.41262(7)
H54 H 0.1399 0.3959 0.4339
N11 N 0.21802(7) 0.31375(9) 0.38446(6)
H55 H 0.2336 0.3563 0.4033
N12 N 0.34519(7) 0.36901(9) 0.37022(6)
H56 H 0.3270 0.3875 0.3998
N13 N 0.39337(7) 0.49907(9) 0.36989(6)
H57 H 0.3691 0.5086 0.3983
O1 O 0.00217(5) 0.57941(8) 0.53701(5)
O2 O 0.20813(6) 0.28253(8) 0.62826(5)
O3 O 0.16620(6) 0.69207(8) 0.28658(4)
O4 O 0.25196(5) 0.84109(7) 0.51290(4)
O5 O 0.12240(7) 0.25383(9) 0.35237(6)
O6 O 0.41950(6) 0.40476(9) 0.30498(5)
C61 C 0.57153(11) 0.20853(14) 0.54273(9)
H58 H 0.5759 0.2157 0.5814
H59 H 0.5947 0.1571 0.5316
H60 H 0.5252 0.2036 0.5334
C62 C 0.59925(11) 0.28084(15) 0.51594(9)
N14 N 0.62021(11) 0.33832(15) 0.49507(9)
C63 C 0.43324(10) 0.37014(17) 0.50295(10)
H61 H 0.3911 0.3997 0.5025
H62 H 0.4261 0.3095 0.4972
H63 H 0.4613 0.3926 0.4746
C64 C 0.46386(10) 0.38272(14) 0.55303(9)
N15 N 0.48937(10) 0.39287(13) 0.59379(9)
C65 C 0.54926(11) 0.56774(14) 0.54175(13)
H64 H 0.5936 0.5444 0.5426
H65 H 0.5248 0.5418 0.5124
H66 H 0.5272 0.5556 0.5756
C66 C 0.58784(12) 0.70060(15) 0.57791(11)
H67 H 0.5666 0.6853 0.6116
H68 H 0.5874 0.7623 0.5737
H69 H 0.6331 0.6804 0.5781
C67 C 0.58985(11) 0.67673(17) 0.48283(12)
H70 H 0.5921 0.7377 0.4758
H71 H 0.5676 0.6484 0.4532
H72 H 0.6342 0.6540 0.4864
C68 C 0.48540(9) 0.70076(12) 0.53084(9)
H73 H 0.4905 0.7629 0.5275
H74 H 0.4628 0.6896 0.5650
C69 C 0.44143(9) 0.67010(12) 0.48539(9)
H75 H 0.4045 0.7098 0.4805
H76 H 0.4666 0.6677 0.4517
N16 N 0.55263(8) 0.66152(10) 0.53354(7)
O7 O 0.41762(7) 0.58854(9) 0.49849(8)
H77 H 0.3793 0.5831 0.4869
C70 C 0.11903(10) 0.14333(14) 0.68992(8)
H78 H 0.0774 0.1304 0.6725
H79 H 0.1339 0.1997 0.6789
H80 H 0.1132 0.1422 0.7287
C71 C 0.14365(12) -0.00717(12) 0.68968(9)
H81 H 0.1370 -0.0092 0.7284
H82 H 0.1755 -0.0505 0.6793
H83 H 0.1021 -0.0179 0.6715
C72 C 0.23109(12) 0.10005(18) 0.70294(10)
H84 H 0.2430 0.1591 0.6957
H85 H 0.2661 0.0626 0.6905
H86 H 0.2248 0.0923 0.7414
C73 C 0.17907(10) 0.08588(12) 0.61478(7)
H87 H 0.1363 0.0769 0.5971
H88 H 0.1929 0.1446 0.6068
C74 C 0.22764(10) 0.02687(12) 0.58956(8)
H89 H 0.2375 0.0460 0.5528
H90 H 0.2688 0.0273 0.6103
N17 N 0.16883(7) 0.07886(10) 0.67414(6)
O8 O 0.20163(7) -0.05609(8) 0.58829(6)
H91 H 0.2263 -0.0875 0.5703
O9 O 0.19137(5) 0.51546(7) 0.43479(5)
O10 O 0.30647(5) 0.56907(7) 0.44124(5)
O11 O 0.24339(5) 0.53416(7) 0.52499(4)
O12 O 0.28061(5) 0.41651(7) 0.46353(4)
P1 P 0.25511(2) 0.50773(2) 0.46613(2)
N18 N 0.3618(3) 0.5355(3) 0.6903(2)
C75 C 0.4269(3) 0.4766(4) 0.7065(3)
H92 H 0.4669 0.5058 0.6953
H93 H 0.4240 0.4216 0.6885
H94 H 0.4279 0.4680 0.7452
C76 C 0.3046(3) 0.4842(4) 0.7117(3)
H95 H 0.2638 0.5054 0.6961
H96 H 0.3027 0.4897 0.7506
H97 H 0.3103 0.4245 0.7022
C77 C 0.3537(4) 0.5336(4) 0.6191(3)
H98 H 0.3362 0.5879 0.6068
H99 H 0.3239 0.4879 0.6088
H100 H 0.3966 0.5239 0.6029
C78 C 0.3915(3) 0.5946(4) 0.7283(3)
C79 C 0.4089(2) 0.6613(4) 0.6821(3)
H101 H 0.3876 0.6469 0.6478
H102 H 0.3980 0.7202 0.6923
O13 O 0.48064(19) 0.6459(3) 0.6810(2)
H103 H 0.4977 0.6659 0.7088
O14 O 0.4778(3) 0.7099(4) 0.7790(3)
loop_
_geom_bond_atom_site_label_1
_geom_bond_atom_site_label_2
_geom_bond_site_symmetry_1
_geom_bond_site_symmetry_2
C1 H1 1_555 1_555
H2 C1 1_555 1_555
C2 C1 1_555 1_555
H3 C2 1_555 1_555
H4 C2 1_555 1_555
C3 N2 1_555 1_555
C4 C5 1_555 1_555
C5 H5 1_555 1_555
C6 C5 1_555 1_555
H6 C6 1_555 1_555
C7 C6 1_555 1_555
H7 C7 1_555 1_555
C8 C7 1_555 1_555
H8 C8 1_555 1_555
C9 C4 1_555 1_555
C10 N4 1_555 1_555
C11 C12 1_555 1_555
C12 H9 1_555 1_555
C13 C12 1_555 1_555
H10 C13 1_555 1_555
C14 C13 1_555 1_555
H11 C14 1_555 1_555
C15 C14 1_555 1_555
C16 C15 1_555 1_555
H12 C16 1_555 1_555
C17 C16 1_555 1_555
H13 C17 1_555 1_555
C18 C17 1_555 1_555
H14 C18 1_555 1_555
C19 C18 1_555 1_555
H15 C19 1_555 1_555
C20 C11 1_555 1_555
C21 H16 1_555 1_555
H17 C21 1_555 1_555
C22 C21 1_555 1_555
H18 C22 1_555 1_555
H19 C22 1_555 1_555
C23 N6 1_555 1_555
C24 C25 1_555 1_555
C25 H20 1_555 1_555
C26 C25 1_555 1_555
H21 C26 1_555 1_555
C27 C26 1_555 1_555
H22 C27 1_555 1_555
C28 C27 1_555 1_555
H23 C28 1_555 1_555
C29 C24 1_555 1_555
C30 N8 1_555 1_555
C31 C32 1_555 1_555
C32 H24 1_555 1_555
C33 C32 1_555 1_555
H25 C33 1_555 1_555
C34 C33 1_555 1_555
H26 C34 1_555 1_555
C35 C34 1_555 1_555
C36 C35 1_555 1_555
H27 C36 1_555 1_555
C37 C36 1_555 1_555
H28 C37 1_555 1_555
C38 C37 1_555 1_555
H29 C38 1_555 1_555
C39 C38 1_555 1_555
H30 C39 1_555 1_555
C40 C31 1_555 1_555
C41 H31 1_555 1_555
H32 C41 1_555 1_555
C42 C41 1_555 1_555
H33 C42 1_555 1_555
H34 C42 1_555 1_555
C43 N10 1_555 1_555
C44 C45 1_555 1_555
C45 H35 1_555 1_555
C46 C45 1_555 1_555
H36 C46 1_555 1_555
C47 C46 1_555 1_555
H37 C47 1_555 1_555
C48 C47 1_555 1_555
H38 C48 1_555 1_555
C49 C44 1_555 1_555
C50 N12 1_555 1_555
C51 C52 1_555 1_555
C52 H39 1_555 1_555
C53 C52 1_555 1_555
H40 C53 1_555 1_555
C54 C53 1_555 1_555
H41 C54 1_555 1_555
C55 C54 1_555 1_555
C56 C55 1_555 1_555
H42 C56 1_555 1_555
C57 C56 1_555 1_555
H43 C57 1_555 1_555
C58 C57 1_555 1_555
H44 C58 1_555 1_555
C59 C58 1_555 1_555
H45 C59 1_555 1_555
C60 C51 1_555 1_555
N1 C1 1_555 1_555
N2 C2 1_555 1_555
H46 N2 1_555 1_555
N3 C3 1_555 1_555
H47 N3 1_555 1_555
N4 C9 1_555 1_555
H48 N4 1_555 1_555
N5 C10 1_555 1_555
H49 N5 1_555 1_555
N6 C22 1_555 1_555
H50 N6 1_555 1_555
N7 C23 1_555 1_555
H51 N7 1_555 1_555
N8 C29 1_555 1_555
H52 N8 1_555 1_555
N9 C30 1_555 1_555
H53 N9 1_555 1_555
N10 C42 1_555 1_555
H54 N10 1_555 1_555
N11 C43 1_555 1_555
H55 N11 1_555 1_555
N12 C49 1_555 1_555
H56 N12 1_555 1_555
N13 C50 1_555 1_555
H57 N13 1_555 1_555
O1 C3 1_555 1_555
O2 C10 1_555 1_555
O3 C23 1_555 1_555
O4 C30 1_555 1_555
O5 C43 1_555 1_555
O6 C50 1_555 1_555
C61 H58 1_555 1_555
H59 C61 1_555 1_555
H60 C61 1_555 1_555
C62 C61 1_555 1_555
N14 C62 1_555 1_555
C63 H61 1_555 1_555
H62 C63 1_555 1_555
H63 C63 1_555 1_555
C64 C63 1_555 1_555
N15 C64 1_555 1_555
C65 H64 1_555 1_555
H65 C65 1_555 1_555
H66 C65 1_555 1_555
C66 H67 1_555 1_555
H68 C66 1_555 1_555
H69 C66 1_555 1_555
C67 H70 1_555 1_555
H71 C67 1_555 1_555
H72 C67 1_555 1_555
C68 H73 1_555 1_555
H74 C68 1_555 1_555
C69 C68 1_555 1_555
H75 C69 1_555 1_555
H76 C69 1_555 1_555
N16 C65 1_555 1_555
O7 C69 1_555 1_555
H77 O7 1_555 1_555
C70 H78 1_555 1_555
H79 C70 1_555 1_555
H80 C70 1_555 1_555
C71 H81 1_555 1_555
H82 C71 1_555 1_555
H83 C71 1_555 1_555
C72 H84 1_555 1_555
H85 C72 1_555 1_555
H86 C72 1_555 1_555
C73 H87 1_555 1_555
H88 C73 1_555 1_555
C74 C73 1_555 1_555
H89 C74 1_555 1_555
H90 C74 1_555 1_555
N17 C70 1_555 1_555
O8 C74 1_555 1_555
H91 O8 1_555 1_555
O9 P1 1_555 1_555
O10 P1 1_555 1_555
O11 P1 1_555 1_555
O12 P1 1_555 1_555
N18 C75 1_555 1_555
C75 H92 1_555 1_555
H93 C75 1_555 1_555
H94 C75 1_555 1_555
C76 N18 1_555 1_555
H95 C76 1_555 1_555
H96 C76 1_555 1_555
H97 C76 1_555 1_555
C77 N18 1_555 1_555
H98 C77 1_555 1_555
H99 C77 1_555 1_555
H100 C77 1_555 1_555
C78 N18 1_555 1_555
C79 C78 1_555 1_555
H101 C79 1_555 1_555
H102 C79 1_555 1_555
O13 C79 1_555 1_555
H103 O13 1_555 1_555
C4 N3 1_555 1_555
C8 C9 1_555 1_555
C11 N5 1_555 1_555
C15 C20 1_555 1_555
C19 C20 1_555 1_555
C21 N1 1_555 1_555
C24 N7 1_555 1_555
C28 C29 1_555 1_555
C31 N9 1_555 1_555
C35 C40 1_555 1_555
C39 C40 1_555 1_555
C41 N1 1_555 1_555
C44 N11 1_555 1_555
C48 C49 1_555 1_555
C51 N13 1_555 1_555
C55 C60 1_555 1_555
C59 C60 1_555 1_555
C66 N16 1_555 1_555
C67 N16 1_555 1_555
C68 N16 1_555 1_555
C71 N17 1_555 1_555
C72 N17 1_555 1_555
C73 N17 1_555 1_555

#END
