
#######################################################################
#
#                 Cambridge Crystallographic Data Centre
#                                CCDC 
#
#######################################################################
#
# If this CIF has been generated from an entry in the Cambridge 
# Structural Database, then it will include bibliographic, chemical, 
# crystal, experimental, refinement or atomic coordinate data resulting 
# from the CCDC's data processing and validation procedures.
#
#######################################################################

data_FIZNEI
_chemical_formula_moiety         'C27 H29 F2 N1 O1 S2'
_chemical_name_systematic        
2-(2-(bis(4-Fluorophenyl)methoxy)ethyl)-5-(3-phenylpropyl)-1,3,4-dithiazine
_chemical_properties_biological  
'severely diminished dopamine transporter binding affinity compared with GBR 12909'
_symmetry_cell_setting           monoclinic
_symmetry_space_group_name_H-M   'P 21/c'
_symmetry_Int_Tables_number      14
_space_group_name_Hall           '-P 2ybc'
loop_
_symmetry_equiv_pos_site_id
_symmetry_equiv_pos_as_xyz
1 x,y,z
2 -x,1/2+y,1/2-z
3 -x,-y,-z
4 x,1/2-y,1/2+z
_cell_length_a                   9.4721(6)
_cell_length_b                   33.008(2)
_cell_length_c                   7.7860(5)
_cell_angle_alpha                90
_cell_angle_beta                 102.9190(10)
_cell_angle_gamma                90
_cell_volume                     2372.71
_chemical_melting_point          172-176deg.C
_cell_formula_units_Z            4
loop_
_atom_site_label
_atom_site_type_symbol
_atom_site_fract_x
_atom_site_fract_y
_atom_site_fract_z
S1 S 0.3804(1) 0.0373(1) 0.4647(1)
F1 F 1.0161(2) 0.2590(1) 0.4834(2)
O1 O 0.5580(2) 0.1230(1) 0.2408(2)
N1 N 0.2569(2) 0.0472(1) 0.7561(3)
C1 C 0.1408(3) -0.1337(1) 1.2620(4)
F2 F 0.3086(2) 0.2043(1) -0.5044(2)
S2 S 0.1545(1) 0.1005(1) 0.4763(1)
C2 C 0.0774(3) -0.1305(1) 1.0841(4)
C3 C 0.0934(3) -0.0951(1) 0.9925(4)
C4 C 0.1708(3) -0.0628(1) 1.0764(4)
C5 C 0.2323(3) -0.0666(1) 1.2524(4)
C6 C 0.2179(3) -0.1011(1) 1.3451(4)
C7 C 0.1897(4) -0.0221(1) 0.9831(4)
C8 C 0.1628(4) -0.0238(1) 0.7869(4)
C9 C 0.1394(4) 0.0176(1) 0.7009(5)
C10 C 0.2109(4) 0.0885(1) 0.7129(4)
C11 C 0.3882(3) 0.0378(1) 0.7030(3)
C12 C 0.3233(3) 0.0891(1) 0.4158(3)
C13 C 0.3091(3) 0.0968(1) 0.2199(3)
C14 C 0.4497(3) 0.0945(1) 0.1599(4)
C15 C 0.5219(3) 0.1642(1) 0.2105(4)
C16 C 0.6593(3) 0.1881(1) 0.2878(3)
C17 C 0.7961(3) 0.1741(1) 0.2915(3)
C18 C 0.9186(3) 0.1973(1) 0.3569(4)
C19 C 0.8979(3) 0.2354(1) 0.4195(3)
C20 C 0.7639(3) 0.2501(1) 0.4203(4)
C21 C 0.6444(3) 0.2263(1) 0.3538(3)
C22 C 0.5408(3) 0.1635(1) -0.1107(4)
C23 C 0.4895(3) 0.1735(1) -0.2875(4)
C24 C 0.3602(3) 0.1941(1) -0.3327(3)
C25 C 0.2829(3) 0.2051(1) -0.2116(4)
C26 C 0.3370(3) 0.1947(1) -0.0360(4)
C27 C 0.4650(3) 0.1742(1) 0.0156(3)
H1 H 0.1370(30) -0.1566(9) 1.3280(40)
H2 H 0.0270(30) -0.1495(10) 1.0350(40)
H3 H 0.0510(30) -0.0941(7) 0.8790(30)
H4 H 0.2760(30) -0.0443(9) 1.3160(40)
H5 H 0.2690(30) -0.1037(8) 1.4720(30)
H6 H 0.1200(40) 0.0008(10) 1.0220(40)
H7 H 0.2980(40) -0.0113(11) 1.0230(50)
H8 H 0.0840(50) -0.0449(13) 0.7800(50)
H9 H 0.2480(40) -0.0419(9) 0.7460(40)
H10 H 0.1200(30) 0.0126(9) 0.5670(40)
H11 H 0.0510(40) 0.0296(9) 0.7300(40)
H12 H 0.1200(30) 0.0919(7) 0.7550(30)
H13 H 0.2960(30) 0.1059(7) 0.7690(30)
H14 H 0.4630(20) 0.0563(7) 0.7550(30)
H15 H 0.4260(30) 0.0115(10) 0.7440(40)
H16 H 0.3930(30) 0.1060(7) 0.4800(30)
H17 H 0.2480(30) 0.0781(8) 0.1550(30)
H18 H 0.2580(30) 0.1240(8) 0.1870(30)
H19 H 0.4310(30) 0.0980(7) 0.0230(30)
H20 H 0.5000(30) 0.0636(8) 0.1920(30)
H21 H 0.4300(30) 0.1692(7) 0.2710(30)
H22 H 0.8060(30) 0.1472(8) 0.2490(30)
H23 H 1.0100(30) 0.1894(7) 0.3620(30)
H24 H 0.7530(30) 0.2759(9) 0.4690(40)
H25 H 0.5500(30) 0.2336(8) 0.3590(30)
H26 H 0.6280(30) 0.1513(7) -0.0890(30)
H27 H 0.5360(20) 0.1681(7) -0.3720(30)
H28 H 0.1950(30) 0.2146(8) -0.2450(40)
H29 H 0.2840(30) 0.2023(7) 0.0570(30)
loop_
_geom_bond_atom_site_label_1
_geom_bond_atom_site_label_2
_geom_bond_site_symmetry_1
_geom_bond_site_symmetry_2
S1 C11 1_555 1_555
F1 C19 1_555 1_555
O1 C14 1_555 1_555
N1 C9 1_555 1_555
C1 C2 1_555 1_555
F2 C24 1_555 1_555
S2 C10 1_555 1_555
C2 C3 1_555 1_555
C3 C4 1_555 1_555
C4 C5 1_555 1_555
C5 C6 1_555 1_555
C6 C1 1_555 1_555
C7 C4 1_555 1_555
C8 C7 1_555 1_555
C9 C8 1_555 1_555
C10 N1 1_555 1_555
C11 N1 1_555 1_555
C12 S1 1_555 1_555
C13 C12 1_555 1_555
C14 C13 1_555 1_555
C15 O1 1_555 1_555
C16 C15 1_555 1_555
C17 C16 1_555 1_555
C18 C17 1_555 1_555
C19 C18 1_555 1_555
C20 C19 1_555 1_555
C21 C16 1_555 1_555
C22 C23 1_555 1_555
C23 C24 1_555 1_555
C24 C25 1_555 1_555
C25 C26 1_555 1_555
C26 C27 1_555 1_555
C27 C15 1_555 1_555
H1 C1 1_555 1_555
H2 C2 1_555 1_555
H3 C3 1_555 1_555
H4 C5 1_555 1_555
H5 C6 1_555 1_555
H6 C7 1_555 1_555
H7 C7 1_555 1_555
H8 C8 1_555 1_555
H9 C8 1_555 1_555
H10 C9 1_555 1_555
H11 C9 1_555 1_555
H12 C10 1_555 1_555
H13 C10 1_555 1_555
H14 C11 1_555 1_555
H15 C11 1_555 1_555
H16 C12 1_555 1_555
H17 C13 1_555 1_555
H18 C13 1_555 1_555
H19 C14 1_555 1_555
H20 C14 1_555 1_555
H21 C15 1_555 1_555
H22 C17 1_555 1_555
H23 C18 1_555 1_555
H24 C20 1_555 1_555
H25 C21 1_555 1_555
H26 C22 1_555 1_555
H27 C23 1_555 1_555
H28 C25 1_555 1_555
H29 C26 1_555 1_555
S2 C12 1_555 1_555
C20 C21 1_555 1_555
C22 C27 1_555 1_555

#END
