
#######################################################################
#
#                 Cambridge Crystallographic Data Centre
#                                CCDC 
#
#######################################################################
#
# If this CIF has been generated from an entry in the Cambridge 
# Structural Database, then it will include bibliographic, chemical, 
# crystal, experimental, refinement or atomic coordinate data resulting 
# from the CCDC's data processing and validation procedures.
#
#######################################################################

data_FIZPIQ
_chemical_name_common            
'acotiamide hydrochloride ethanol solvate monohydrate'
_chemical_formula_moiety         'C21 H31 N4 O5 S1 1+,C2 H6 O1,H2 O1,Cl1 1-'
_chemical_name_systematic        
'N-[2-({2-[(2-hydroxy-4,5-dimethoxybenzene-1-carbonyl)amino]-1,3-thiazole-4-carbonyl}amino)ethyl]-N-(propan-2-yl)propan-2-aminium chloride ethanol solvate monohydrate'
_chemical_properties_biological  
'treatment of postprandial fullness, abdominal distention, and early satiety caused by functional dyspepsia'
_symmetry_cell_setting           triclinic
_symmetry_space_group_name_H-M   'P -1'
_symmetry_Int_Tables_number      2
_space_group_name_Hall           '-P 1'
loop_
_symmetry_equiv_pos_site_id
_symmetry_equiv_pos_as_xyz
1 x,y,z
2 -x,-y,-z
_cell_length_a                   8.6790(5)
_cell_length_b                   12.5492(7)
_cell_length_c                   13.5509(8)
_cell_angle_alpha                82.0350(10)
_cell_angle_beta                 89.364(2)
_cell_angle_gamma                76.8310(10)
_cell_volume                     1422.89
_exptl_crystal_colour            colorless
_exptl_crystal_description       Prism
_cell_formula_units_Z            2
loop_
_atom_site_label
_atom_site_type_symbol
_atom_site_fract_x
_atom_site_fract_y
_atom_site_fract_z
S1 S 0.11193(5) 0.58056(3) 0.90235(3)
O1 O 0.35554(16) 0.85429(12) 1.07576(9)
O2 O 0.20559(15) 1.24318(10) 0.97616(10)
O3 O 0.02942(13) 1.22165(8) 0.83214(8)
O4 O 0.23171(15) 0.73255(9) 0.97845(8)
O5 O -0.13732(13) 0.46996(8) 0.65288(8)
N1 N 0.09834(14) 0.80050(9) 0.83414(8)
N2 N -0.00121(12) 0.69343(8) 0.73497(8)
N3 N -0.12886(13) 0.63676(9) 0.57033(8)
N4 N -0.45176(12) 0.76509(8) 0.45662(8)
C1 C 0.27514(17) 0.94023(12) 1.01093(10)
C2 C 0.28598(18) 1.04566(14) 1.02648(11)
H1 H 0.3496 1.0540 1.0783
C3 C 0.20388(17) 1.13727(12) 0.96619(11)
C4 C 0.10811(16) 1.12544(11) 0.88704(10)
C5 C 0.10032(15) 1.02156(11) 0.87040(9)
H2 H 0.0381 1.0138 0.8176
C6 C 0.18419(15) 0.92622(11) 0.93121(9)
C7 C 0.17416(16) 0.81444(11) 0.91724(9)
C8 C 0.06839(15) 0.70098(10) 0.81715(9)
C9 C 0.02795(18) 0.51671(11) 0.82052(11)
H3 H 0.0194 0.4435 0.8318
C10 C -0.02420(14) 0.58797(9) 0.73715(10)
C11 C -0.10189(14) 0.56021(9) 0.65052(10)
C12 C -0.19607(15) 0.61707(11) 0.47917(10)
H4 H -0.1566 0.5401 0.4710
H5 H -0.1598 0.6616 0.4234
C13 C -0.37591(14) 0.64315(10) 0.47575(10)
H6 H -0.4105 0.6074 0.4238
H7 H -0.4128 0.6121 0.5387
C14 C -0.58289(18) 0.79868(13) 0.52992(12)
H8 H -0.6290 0.8778 0.5113
C15 C -0.5131(3) 0.78320(16) 0.63407(13)
H9 H -0.4311 0.8232 0.6342
H10 H -0.5945 0.8105 0.6788
H11 H -0.4694 0.7061 0.6553
C16 C -0.7144(2) 0.7379(2) 0.52246(17)
H12 H -0.7540 0.7507 0.4550
H13 H -0.6735 0.6601 0.5421
H14 H -0.7986 0.7645 0.5656
C17 C -0.50503(17) 0.80196(12) 0.34757(10)
H15 H -0.5850 0.7623 0.3323
C18 C -0.5783(3) 0.92525(15) 0.32957(15)
H16 H -0.6658 0.9421 0.3732
H17 H -0.5004 0.9652 0.3426
H18 H -0.6151 0.9463 0.2616
C19 C -0.3680(2) 0.77484(16) 0.27962(11)
H19 H -0.3221 0.6969 0.2913
H20 H -0.4045 0.7957 0.2115
H21 H -0.2899 0.8146 0.2926
C20 C 0.2998(2) 1.26086(19) 1.05494(18)
H22 H 0.2906 1.3387 1.0537
H23 H 0.2638 1.2306 1.1176
H24 H 0.4084 1.2251 1.0466
C21 C -0.0657(2) 1.21144(12) 0.75089(13)
H25 H -0.1152 1.2836 0.7177
H26 H -0.0006 1.1705 0.7048
H27 H -0.1456 1.1733 0.7752
H28 H -0.3788(18) 0.8034(12) 0.4638(11)
H29 H 0.0746(19) 0.8460(14) 0.7887(12)
H30 H -0.106(2) 0.6918(14) 0.5734(12)
H31 H 0.341(2) 0.7954(17) 1.0595(15)
Cl1 Cl 0.19062(4) 0.10204(3) 0.51702(3)
O6 O -0.01162(17) 0.05069(10) 0.34052(8)
H32 H -0.060(3) 0.005(2) 0.3776(17)
H33 H 0.036(3) 0.0767(19) 0.3746(16)
O7 O 0.4492(2) 1.53649(14) 1.30944(11)
C22 C 0.4712(7) 1.5598(5) 1.2046(4)
H34 H 0.5817 1.5602 1.1933
H35 H 0.4091 1.6333 1.1808
C23 C 0.4269(6) 1.4814(5) 1.1460(3)
H36 H 0.4449 1.5025 1.0768
H37 H 0.4898 1.4086 1.1677
H38 H 0.3169 1.4818 1.1552
H39 H 0.352(3) 1.542(2) 1.3154(18)
C24? C 0.5116(14) 1.4886(10) 1.2261(6)
H40? H 0.6250 1.4825 1.2240
H41? H 0.4920 1.4152 1.2290
C25? C 0.438(2) 1.5559(14) 1.1428(9)
H42? H 0.4785 1.5253 1.0841
H43? H 0.3261 1.5612 1.1457
H44? H 0.4586 1.6282 1.1407
loop_
_geom_bond_atom_site_label_1
_geom_bond_atom_site_label_2
_geom_bond_site_symmetry_1
_geom_bond_site_symmetry_2
S1 C8 1_555 1_555
O1 C1 1_555 1_555
O2 C3 1_555 1_555
O3 C4 1_555 1_555
O4 C7 1_555 1_555
O5 C11 1_555 1_555
N1 C7 1_555 1_555
N2 C8 1_555 1_555
N3 C11 1_555 1_555
N4 C13 1_555 1_555
C1 C2 1_555 1_555
C2 H1 1_555 1_555
C3 C2 1_555 1_555
C4 C3 1_555 1_555
C5 C4 1_555 1_555
H2 C5 1_555 1_555
C6 C1 1_555 1_555
C7 C6 1_555 1_555
C8 N1 1_555 1_555
C9 S1 1_555 1_555
H3 C9 1_555 1_555
C10 N2 1_555 1_555
C11 C10 1_555 1_555
C12 N3 1_555 1_555
H4 C12 1_555 1_555
H5 C12 1_555 1_555
C13 C12 1_555 1_555
H6 C13 1_555 1_555
H7 C13 1_555 1_555
C14 N4 1_555 1_555
H8 C14 1_555 1_555
C15 C14 1_555 1_555
H9 C15 1_555 1_555
H10 C15 1_555 1_555
H11 C15 1_555 1_555
C16 C14 1_555 1_555
H12 C16 1_555 1_555
H13 C16 1_555 1_555
H14 C16 1_555 1_555
C17 N4 1_555 1_555
H15 C17 1_555 1_555
C18 C17 1_555 1_555
H16 C18 1_555 1_555
H17 C18 1_555 1_555
H18 C18 1_555 1_555
C19 C17 1_555 1_555
H19 C19 1_555 1_555
H20 C19 1_555 1_555
H21 C19 1_555 1_555
C20 O2 1_555 1_555
H22 C20 1_555 1_555
H23 C20 1_555 1_555
H24 C20 1_555 1_555
C21 O3 1_555 1_555
H25 C21 1_555 1_555
H26 C21 1_555 1_555
H27 C21 1_555 1_555
H28 N4 1_555 1_555
H29 N1 1_555 1_555
H30 N3 1_555 1_555
H31 O1 1_555 1_555
O6 H32 1_555 1_555
H33 O6 1_555 1_555
O7 C22 1_555 1_555
C22 H34 1_555 1_555
H35 C22 1_555 1_555
C23 C22 1_555 1_555
H36 C23 1_555 1_555
H37 C23 1_555 1_555
H38 C23 1_555 1_555
H39 O7 1_555 1_555
C5 C6 1_555 1_555
C9 C10 1_555 1_555

#END
