
#######################################################################
#
#                 Cambridge Crystallographic Data Centre
#                                CCDC 
#
#######################################################################
#
# If this CIF has been generated from an entry in the Cambridge 
# Structural Database, then it will include bibliographic, chemical, 
# crystal, experimental, refinement or atomic coordinate data resulting 
# from the CCDC's data processing and validation procedures.
#
#######################################################################

data_FIZPEM
_chemical_name_common            'acotiamide hydrochloride ethanol solvate'
_chemical_formula_moiety         'C21 H31 N4 O5 S1 1+,C2 H6 O1,Cl1 1-'
_chemical_name_systematic        
'N-[2-({2-[(2-hydroxy-4,5-dimethoxybenzene-1-carbonyl)amino]-1,3-thiazole-4-carbonyl}amino)ethyl]-N-(propan-2-yl)propan-2-aminium chloride ethanol solvate'
_chemical_properties_biological  
'treatment of postprandial fullness, abdominal distention, and early satiety caused by functional dyspepsia'
_symmetry_cell_setting           monoclinic
_symmetry_space_group_name_H-M   'P 21/n'
_symmetry_Int_Tables_number      14
_space_group_name_Hall           '-P 2yn'
loop_
_symmetry_equiv_pos_site_id
_symmetry_equiv_pos_as_xyz
1 x,y,z
2 1/2-x,1/2+y,1/2-z
3 -x,-y,-z
4 1/2+x,1/2-y,1/2+z
_cell_length_a                   14.3386(16)
_cell_length_b                   12.1386(13)
_cell_length_c                   17.419(2)
_cell_angle_alpha                90
_cell_angle_beta                 114.155(3)
_cell_angle_gamma                90
_cell_volume                     2766.33
_exptl_crystal_colour            colorless
_exptl_crystal_description       Prism
_cell_formula_units_Z            4
loop_
_atom_site_label
_atom_site_type_symbol
_atom_site_fract_x
_atom_site_fract_y
_atom_site_fract_z
S1 S 0.67071(6) 0.94667(6) 0.11339(6)
O1 O 0.43657(17) 0.5973(2) 0.08711(18)
O2 O 0.57467(19) 0.23446(18) 0.12729(17)
O3 O 0.75547(17) 0.30625(17) 0.16729(17)
O4 O 0.56152(16) 0.75814(17) 0.10594(16)
O5 O 0.97569(17) 1.12080(16) 0.17058(16)
N1 N 0.72655(19) 0.72751(19) 0.13418(18)
N2 N 0.84956(17) 0.86262(17) 0.15858(15)
N3 N 1.03958(19) 0.95092(19) 0.21048(17)
N4 N 1.20322(17) 0.87108(17) 0.14463(15)
C1 C 0.5190(2) 0.5314(2) 0.10618(18)
C2 C 0.5026(2) 0.4178(3) 0.10655(19)
H1 H 0.4370 0.3913 0.0934
C3 C 0.5821(2) 0.3457(2) 0.12601(19)
C4 C 0.6812(2) 0.3853(2) 0.14693(19)
C5 C 0.6976(2) 0.4959(2) 0.14619(18)
H2 H 0.7635 0.5217 0.1600
C6 C 0.6167(2) 0.5719(2) 0.12502(17)
C7 C 0.6318(2) 0.6907(2) 0.12121(18)
C8 C 0.7545(2) 0.8366(2) 0.13747(18)
C9 C 0.7720(2) 1.0333(2) 0.1337(2)
H3 H 0.7674 1.1096 0.1298
C10 C 0.8598(2) 0.9755(2) 0.15633(17)
C11 C 0.9625(2) 1.0228(2) 0.17960(18)
C12 C 1.1445(2) 0.9846(2) 0.2385(2)
H4 H 1.1867 0.9356 0.2833
H5 H 1.1516 1.0582 0.2620
C13 C 1.1844(2) 0.98480(19) 0.17050(19)
H6 H 1.1355 1.0226 0.1215
H7 H 1.2478 1.0261 0.1903
C14 C 1.3171(2) 0.8445(2) 0.1791(2)
H8 H 1.3236 0.7679 0.1640
C15 C 1.3645(2) 0.8514(3) 0.2738(2)
H9 H 1.3276 0.8047 0.2961
H10 H 1.4345 0.8279 0.2948
H11 H 1.3617 0.9261 0.2908
C16 C 1.3712(3) 0.9162(3) 0.1389(3)
H12 H 1.3382 0.9088 0.0788
H13 H 1.3684 0.9917 0.1542
H14 H 1.4413 0.8934 0.1582
C17 C 1.1448(3) 0.8521(3) 0.0510(2)
H15 H 1.1602 0.9126 0.0207
C18 C 1.0310(3) 0.8525(3) 0.0293(2)
H16 H 0.9940 0.8405 -0.0300
H17 H 1.0152 0.7949 0.0598
H18 H 1.0119 0.9224 0.0443
C19 C 1.1748(4) 0.7444(4) 0.0233(3)
H19 H 1.1364 0.7351 -0.0362
H20 H 1.2465 0.7455 0.0358
H21 H 1.1604 0.6844 0.0527
C20 C 0.4775(3) 0.1883(3) 0.1087(3)
H22 H 0.4829 0.1094 0.1118
H23 H 0.4522 0.2143 0.1486
H24 H 0.4312 0.2097 0.0530
C21 C 0.8570(2) 0.3429(2) 0.1923(2)
H25 H 0.9019 0.2806 0.2049
H26 H 0.8625 0.3849 0.1476
H27 H 0.8756 0.3884 0.2415
H28 H 1.180(2) 0.820(3) 0.1708(19)
H29 H 1.027(2) 0.890(3) 0.213(2)
H30 H 0.455(3) 0.663(3) 0.088(2)
H31 H 0.772(3) 0.686(3) 0.139(2)
Cl1 Cl 0.12400(6) 0.68847(6) 0.22571(6)
O6 O 0.8983(2) 0.6039(2) 0.1292(2)
C22 C 0.9052(5) 0.5677(5) 0.0539(4)
H32 H 0.9607 0.6061 0.0471
H33 H 0.9201 0.4895 0.0577
C23 C 0.8169(6) 0.5872(9) -0.0135(5)
H34 H 0.8230 0.5624 -0.0636
H35 H 0.7622 0.5484 -0.0071
H36 H 0.8027 0.6648 -0.0177
H37 H 0.949(4) 0.639(4) 0.158(3)
loop_
_geom_bond_atom_site_label_1
_geom_bond_atom_site_label_2
_geom_bond_site_symmetry_1
_geom_bond_site_symmetry_2
S1 C8 1_555 1_555
O1 C1 1_555 1_555
O2 C3 1_555 1_555
O3 C4 1_555 1_555
O4 C7 1_555 1_555
O5 C11 1_555 1_555
N1 C7 1_555 1_555
N2 C8 1_555 1_555
N3 C11 1_555 1_555
N4 C13 1_555 1_555
C1 C2 1_555 1_555
C2 H1 1_555 1_555
C3 C2 1_555 1_555
C4 C3 1_555 1_555
C5 C4 1_555 1_555
H2 C5 1_555 1_555
C6 C1 1_555 1_555
C7 C6 1_555 1_555
C8 N1 1_555 1_555
C9 S1 1_555 1_555
H3 C9 1_555 1_555
C10 N2 1_555 1_555
C11 C10 1_555 1_555
C12 N3 1_555 1_555
H4 C12 1_555 1_555
H5 C12 1_555 1_555
C13 C12 1_555 1_555
H6 C13 1_555 1_555
H7 C13 1_555 1_555
C14 N4 1_555 1_555
H8 C14 1_555 1_555
C15 C14 1_555 1_555
H9 C15 1_555 1_555
H10 C15 1_555 1_555
H11 C15 1_555 1_555
C16 C14 1_555 1_555
H12 C16 1_555 1_555
H13 C16 1_555 1_555
H14 C16 1_555 1_555
C17 N4 1_555 1_555
H15 C17 1_555 1_555
C18 C17 1_555 1_555
H16 C18 1_555 1_555
H17 C18 1_555 1_555
H18 C18 1_555 1_555
C19 C17 1_555 1_555
H19 C19 1_555 1_555
H20 C19 1_555 1_555
H21 C19 1_555 1_555
C20 O2 1_555 1_555
H22 C20 1_555 1_555
H23 C20 1_555 1_555
H24 C20 1_555 1_555
C21 O3 1_555 1_555
H25 C21 1_555 1_555
H26 C21 1_555 1_555
H27 C21 1_555 1_555
H28 N4 1_555 1_555
H29 N3 1_555 1_555
H30 O1 1_555 1_555
H31 N1 1_555 1_555
O6 C22 1_555 1_555
C22 H32 1_555 1_555
H33 C22 1_555 1_555
C23 C22 1_555 1_555
H34 C23 1_555 1_555
H35 C23 1_555 1_555
H36 C23 1_555 1_555
H37 O6 1_555 1_555
C5 C6 1_555 1_555
C9 C10 1_555 1_555

#END
