
#######################################################################
#
#                 Cambridge Crystallographic Data Centre
#                                CCDC 
#
#######################################################################
#
# If this CIF has been generated from an entry in the Cambridge 
# Structural Database, then it will include bibliographic, chemical, 
# crystal, experimental, refinement or atomic coordinate data resulting 
# from the CCDC's data processing and validation procedures.
#
#######################################################################

data_FIZVAL
_chemical_formula_moiety         'C39 H32 Si3'
_chemical_name_systematic        
9,9-bis(9,10-Dihydro-9-sila-anthracen-9-yl)-10-hydro-9-sila-anthracene
_symmetry_cell_setting           orthorhombic
_symmetry_space_group_name_H-M   'P b c a'
_symmetry_Int_Tables_number      61
_space_group_name_Hall           '-P 2ac 2ab'
loop_
_symmetry_equiv_pos_site_id
_symmetry_equiv_pos_as_xyz
1 x,y,z
2 1/2-x,1/2+y,z
3 x,1/2-y,1/2+z
4 1/2-x,-y,1/2+z
5 -x,-y,-z
6 1/2+x,1/2-y,-z
7 -x,1/2+y,1/2-z
8 1/2+x,y,1/2-z
_cell_length_a                   18.054(6)
_cell_length_b                   14.402(2)
_cell_length_c                   24.399(3)
_cell_angle_alpha                90
_cell_angle_beta                 90
_cell_angle_gamma                90
_cell_volume                     6344.07
_cell_formula_units_Z            8
loop_
_atom_site_label
_atom_site_type_symbol
_atom_site_fract_x
_atom_site_fract_y
_atom_site_fract_z
C1 C 0.9420(4) 0.0634(4) 0.2614(2)
C2 C 0.9031(4) -0.0158(5) 0.2727(3)
C3 C 0.8303(4) -0.0118(6) 0.2881(3)
C4 C 0.7955(4) 0.0733(6) 0.2931(3)
C5 C 0.8054(4) 0.3725(5) 0.3614(3)
C6 C 0.8459(4) 0.4422(5) 0.3883(3)
C7 C 0.9181(4) 0.4605(5) 0.3746(3)
C8 C 0.9522(4) 0.4089(4) 0.3339(2)
Si1 Si 0.9570(1) 0.2628(1) 0.2531(1)
C9 C 0.7959(3) 0.2481(5) 0.2885(2)
C10 C 0.9081(3) 0.1505(4) 0.2659(2)
C11 C 0.8340(3) 0.1553(5) 0.2825(2)
C12 C 0.8395(3) 0.3220(4) 0.3192(2)
C13 C 0.9135(3) 0.3399(5) 0.3056(2)
C14 C 0.8725(3) 0.4880(5) 0.1907(3)
C15 C 0.8589(4) 0.5821(5) 0.1832(3)
C16 C 0.8921(4) 0.6300(5) 0.1415(3)
C17 C 0.9384(5) 0.5844(5) 0.1061(3)
C18 C 1.1109(3) 0.3448(5) 0.0488(3)
C19 C 1.1536(4) 0.2677(6) 0.0570(3)
C20 C 1.1361(4) 0.2053(5) 0.0965(3)
C21 C 1.0744(3) 0.2186(5) 0.1296(3)
Si2 Si 0.9407(1) 0.3135(1) 0.1621(1)
C22 C 0.9999(3) 0.4440(4) 0.0673(3)
C23 C 0.9203(3) 0.4404(4) 0.1552(2)
C24 C 0.9527(3) 0.4894(4) 0.1116(3)
C25 C 1.0470(3) 0.3606(4) 0.0814(2)
C26 C 1.0281(3) 0.2965(4) 0.1218(2)
C27 C 0.8406(3) 0.0381(5) 0.1343(3)
C28 C 0.8520(4) -0.0533(6) 0.1193(4)
C29 C 0.8833(4) -0.0764(6) 0.0711(3)
C30 C 0.9072(4) -0.0080(6) 0.0364(3)
C31 C 0.8852(4) 0.2884(6) -0.0489(3)
C32 C 0.8484(5) 0.3695(7) -0.0586(3)
C33 C 0.8081(4) 0.4113(6) -0.0179(4)
C34 C 0.8062(3) 0.3719(5) 0.0339(3)
Si3 Si 0.8469(1) 0.2354(1) 0.1145(1)
C35 C 0.9308(4) 0.1602(5) 0.0128(3)
C36 C 0.8641(3) 0.1108(5) 0.0994(3)
C37 C 0.8993(3) 0.0872(5) 0.0498(3)
C38 C 0.8848(3) 0.2464(6) 0.0031(3)
C39 C 0.8435(3) 0.2884(5) 0.0450(2)
H1 H 1.030(2) 0.257(3) 0.262(2)
H2 H 0.778(2) 0.244(3) 0.142(2)
loop_
_geom_bond_atom_site_label_1
_geom_bond_atom_site_label_2
_geom_bond_site_symmetry_1
_geom_bond_site_symmetry_2
C1 C2 1_555 1_555
C2 C3 1_555 1_555
C3 C4 1_555 1_555
C4 C11 1_555 1_555
C5 C6 1_555 1_555
C6 C7 1_555 1_555
C7 C8 1_555 1_555
C8 C13 1_555 1_555
Si1 C10 1_555 1_555
C9 C11 1_555 1_555
C10 C1 1_555 1_555
C11 C10 1_555 1_555
C12 C5 1_555 1_555
C13 Si1 1_555 1_555
C14 C15 1_555 1_555
C15 C16 1_555 1_555
C16 C17 1_555 1_555
C17 C24 1_555 1_555
C18 C19 1_555 1_555
C19 C20 1_555 1_555
C20 C21 1_555 1_555
C21 C26 1_555 1_555
Si2 Si1 1_555 1_555
C22 C24 1_555 1_555
C23 C14 1_555 1_555
C24 C23 1_555 1_555
C25 C18 1_555 1_555
C26 Si2 1_555 1_555
C27 C28 1_555 1_555
C28 C29 1_555 1_555
C29 C30 1_555 1_555
C30 C37 1_555 1_555
C31 C32 1_555 1_555
C32 C33 1_555 1_555
C33 C34 1_555 1_555
C34 C39 1_555 1_555
Si3 Si2 1_555 1_555
C35 C37 1_555 1_555
C36 C27 1_555 1_555
C37 C36 1_555 1_555
C38 C31 1_555 1_555
C39 Si3 1_555 1_555
H1 Si1 1_555 1_555
H2 Si3 1_555 1_555
C9 C12 1_555 1_555
C12 C13 1_555 1_555
Si2 C23 1_555 1_555
C22 C25 1_555 1_555
C25 C26 1_555 1_555
Si3 C36 1_555 1_555
C35 C38 1_555 1_555
C38 C39 1_555 1_555

#END
