
#######################################################################
#
#                 Cambridge Crystallographic Data Centre
#                                CCDC 
#
#######################################################################
#
# If this CIF has been generated from an entry in the Cambridge 
# Structural Database, then it will include bibliographic, chemical, 
# crystal, experimental, refinement or atomic coordinate data resulting 
# from the CCDC's data processing and validation procedures.
#
#######################################################################

data_FLUANT05
_chemical_formula_moiety         'C16 H10'
_chemical_name_systematic        fluoranthene
_symmetry_cell_setting           monoclinic
_symmetry_space_group_name_H-M   'P 21/n'
_symmetry_Int_Tables_number      14
_space_group_name_Hall           '-P 2yn'
loop_
_symmetry_equiv_pos_site_id
_symmetry_equiv_pos_as_xyz
1 x,y,z
2 1/2-x,1/2+y,1/2-z
3 -x,-y,-z
4 1/2+x,1/2-y,1/2+z
_cell_length_a                   17.8455(8)
_cell_length_b                   6.2494(3)
_cell_length_c                   19.5446(10)
_cell_angle_alpha                90
_cell_angle_beta                 108.407(5)
_cell_angle_gamma                90
_cell_volume                     2068.17
_exptl_crystal_colour            colorless
_exptl_crystal_description       needle
_cell_formula_units_Z            8
loop_
_atom_site_label
_atom_site_type_symbol
_atom_site_fract_x
_atom_site_fract_y
_atom_site_fract_z
C1 C 0.46661(8) 0.0557(2) 0.86828(8)
H1 H 0.4966 -0.0690 0.8769
C2 C 0.47260(9) 0.2023(2) 0.92359(8)
H2 H 0.5071 0.1749 0.9695
C3 C 0.42773(9) 0.3892(2) 0.91106(8)
H3 H 0.4328 0.4848 0.9487
C4 C 0.37533(8) 0.4349(2) 0.84288(7)
H4 H 0.3454 0.5598 0.8347
C5 C 0.36886(8) 0.2898(2) 0.78756(7)
C6 C 0.41498(8) 0.1001(2) 0.80017(7)
C7 C 0.39608(8) -0.0189(2) 0.73130(7)
C8 C 0.42307(8) -0.2026(2) 0.70865(8)
H5 H 0.4611 -0.2869 0.7409
C9 C 0.39190(9) -0.2614(2) 0.63507(8)
H6 H 0.4106 -0.3850 0.6195
C10 C 0.33490(8) -0.1425(2) 0.58568(8)
H7 H 0.3155 -0.1875 0.5380
C11 C 0.30561(8) 0.0490(2) 0.60749(7)
C12 C 0.24749(8) 0.1926(2) 0.56471(7)
H8 H 0.2232 0.1643 0.5160
C13 C 0.22726(8) 0.3730(2) 0.59529(8)
H9 H 0.1886 0.4631 0.5665
C14 C 0.26294(8) 0.4272(2) 0.66898(8)
H10 H 0.2487 0.5514 0.6880
C15 C 0.31886(8) 0.2917(2) 0.71131(7)
C16 C 0.33828(8) 0.1038(2) 0.67999(7)
C17 C 0.60968(9) 0.5441(2) 0.86013(8)
H11 H 0.5845 0.4205 0.8679
C18 C 0.64122(9) 0.6900(3) 0.91587(8)
H12 H 0.6369 0.6631 0.9613
C19 C 0.67894(9) 0.8747(3) 0.90464(8)
H13 H 0.6997 0.9691 0.9427
C20 C 0.68619(8) 0.9208(2) 0.83732(8)
H14 H 0.7112 1.0452 0.8300
C21 C 0.65529(8) 0.7772(2) 0.78153(7)
C22 C 0.61675(8) 0.5877(2) 0.79272(7)
C23 C 0.58991(8) 0.4688(2) 0.72385(7)
C24 C 0.54784(8) 0.2849(2) 0.70006(8)
H15 H 0.5307 0.2008 0.7314
C25 C 0.53107(9) 0.2257(2) 0.62694(9)
H16 H 0.5017 0.1024 0.6106
C26 C 0.55652(8) 0.3435(2) 0.57897(8)
H17 H 0.5450 0.2977 0.5315
C27 C 0.60032(8) 0.5346(2) 0.60170(8)
C28 C 0.63108(8) 0.6778(3) 0.56058(8)
H18 H 0.6241 0.6484 0.5123
C29 C 0.67097(8) 0.8591(2) 0.59170(8)
H19 H 0.6907 0.9494 0.5637
C30 C 0.68323(8) 0.9141(2) 0.66476(8)
H20 H 0.7098 1.0390 0.6842
C31 C 0.65497(8) 0.7786(2) 0.70606(7)
C32 C 0.61473(8) 0.5911(2) 0.67388(7)
loop_
_geom_bond_atom_site_label_1
_geom_bond_atom_site_label_2
_geom_bond_site_symmetry_1
_geom_bond_site_symmetry_2
C1 H1 1_555 1_555
C2 C1 1_555 1_555
H2 C2 1_555 1_555
C3 C2 1_555 1_555
H3 C3 1_555 1_555
C4 C3 1_555 1_555
H4 C4 1_555 1_555
C5 C4 1_555 1_555
C6 C1 1_555 1_555
C7 C6 1_555 1_555
C8 C7 1_555 1_555
H5 C8 1_555 1_555
C9 C8 1_555 1_555
H6 C9 1_555 1_555
C10 C9 1_555 1_555
H7 C10 1_555 1_555
C11 C10 1_555 1_555
C12 C11 1_555 1_555
H8 C12 1_555 1_555
C13 C12 1_555 1_555
H9 C13 1_555 1_555
C14 C13 1_555 1_555
H10 C14 1_555 1_555
C15 C5 1_555 1_555
C16 C7 1_555 1_555
C17 H11 1_555 1_555
C18 C17 1_555 1_555
H12 C18 1_555 1_555
C19 C18 1_555 1_555
H13 C19 1_555 1_555
C20 C19 1_555 1_555
H14 C20 1_555 1_555
C21 C20 1_555 1_555
C22 C17 1_555 1_555
C23 C22 1_555 1_555
C24 C23 1_555 1_555
H15 C24 1_555 1_555
C25 C24 1_555 1_555
H16 C25 1_555 1_555
C26 C25 1_555 1_555
H17 C26 1_555 1_555
C27 C26 1_555 1_555
C28 C27 1_555 1_555
H18 C28 1_555 1_555
C29 C28 1_555 1_555
H19 C29 1_555 1_555
C30 C29 1_555 1_555
H20 C30 1_555 1_555
C31 C21 1_555 1_555
C32 C23 1_555 1_555
C5 C6 1_555 1_555
C11 C16 1_555 1_555
C14 C15 1_555 1_555
C15 C16 1_555 1_555
C21 C22 1_555 1_555
C27 C32 1_555 1_555
C30 C31 1_555 1_555
C31 C32 1_555 1_555

#END
