
#######################################################################
#
#                 Cambridge Crystallographic Data Centre
#                                CCDC 
#
#######################################################################
#
# If this CIF has been generated from an entry in the Cambridge 
# Structural Database, then it will include bibliographic, chemical, 
# crystal, experimental, refinement or atomic coordinate data resulting 
# from the CCDC's data processing and validation procedures.
#
#######################################################################

data_FLURON01
_chemical_formula_moiety         'C13 H8 O1'
_chemical_name_systematic        9H-fluoren-9-one
_symmetry_cell_setting           orthorhombic
_symmetry_space_group_name_H-M   'P b c a'
_symmetry_Int_Tables_number      61
_space_group_name_Hall           '-P 2ac 2ab'
loop_
_symmetry_equiv_pos_site_id
_symmetry_equiv_pos_as_xyz
1 x,y,z
2 1/2-x,-y,1/2+z
3 1/2+x,1/2-y,-z
4 -x,1/2+y,1/2-z
5 -x,-y,-z
6 1/2+x,y,1/2-z
7 1/2-x,1/2+y,z
8 x,1/2-y,1/2+z
_cell_length_a                   16.0871(8)
_cell_length_b                   12.5495(6)
_cell_length_c                   18.6772(9)
_cell_angle_alpha                90
_cell_angle_beta                 90
_cell_angle_gamma                90
_cell_volume                     3770.65
_exptl_crystal_colour            'light yellow'
_exptl_crystal_description       block
_chemical_melting_point          '79-80 deg.C'
_cell_formula_units_Z            16
loop_
_atom_site_label
_atom_site_type_symbol
_atom_site_fract_x
_atom_site_fract_y
_atom_site_fract_z
O1 O -0.06369(15) 0.29606(18) 0.36590(13)
C1 C 0.01128(18) 0.1323(2) 0.34266(17)
C2 C -0.0030(2) 0.1075(3) 0.27187(18)
H1 H -0.0364 0.1506 0.2433
C3 C 0.0342(2) 0.0163(3) 0.2445(2)
H2 H 0.0257 -0.0020 0.1968
C4 C 0.0831(2) -0.0469(3) 0.2869(2)
H3 H 0.1075 -0.1074 0.2673
C5 C 0.0969(2) -0.0227(2) 0.35839(19)
H4 H 0.1298 -0.0665 0.3868
C6 C 0.06073(17) 0.0682(2) 0.38636(16)
C7 C 0.06340(17) 0.1150(2) 0.45899(16)
C8 C 0.01610(18) 0.2080(2) 0.45910(16)
C9 C -0.01907(19) 0.2237(2) 0.38623(17)
C10 C 0.1028(2) 0.0822(3) 0.52035(17)
H5 H 0.1348 0.0205 0.5207
C11 C 0.0937(2) 0.1428(3) 0.58168(19)
H6 H 0.1197 0.1210 0.6237
C12 C 0.0472(2) 0.2344(3) 0.5820(2)
H7 H 0.0421 0.2737 0.6240
C13 C 0.0077(2) 0.2688(3) 0.52044(19)
H8 H -0.0236 0.3311 0.5203
O2 O 0.08787(16) 0.51902(18) 0.40665(13)
C14 C 0.17145(18) 0.3656(2) 0.37558(17)
C15 C 0.1560(2) 0.3437(3) 0.30480(18)
H9 H 0.1190 0.3854 0.2787
C16 C 0.1964(2) 0.2586(3) 0.2729(2)
H10 H 0.1866 0.2424 0.2250
C17 C 0.2511(2) 0.1980(3) 0.3121(2)
H11 H 0.2777 0.1409 0.2901
C18 C 0.2679(2) 0.2196(2) 0.38361(19)
H12 H 0.3055 0.1784 0.4093
C19 C 0.22692(18) 0.3041(2) 0.41556(17)
C20 C 0.23123(18) 0.3476(2) 0.48888(16)
C21 C 0.17782(19) 0.4343(2) 0.49374(16)
C22 C 0.1373(2) 0.4501(2) 0.42297(18)
C23 C 0.2769(2) 0.3159(3) 0.54762(18)
H13 H 0.3124 0.2575 0.5450
C24 C 0.2689(2) 0.3729(3) 0.61043(19)
H14 H 0.2999 0.3529 0.6503
C25 C 0.2157(2) 0.4588(3) 0.61531(19)
H15 H 0.2115 0.4960 0.6582
C26 C 0.1685(2) 0.4902(3) 0.55676(18)
H16 H 0.1317 0.5472 0.5600
loop_
_geom_bond_atom_site_label_1
_geom_bond_atom_site_label_2
_geom_bond_site_symmetry_1
_geom_bond_site_symmetry_2
O1 C9 1_555 1_555
C1 C2 1_555 1_555
C2 H1 1_555 1_555
C3 C2 1_555 1_555
H2 C3 1_555 1_555
C4 C3 1_555 1_555
H3 C4 1_555 1_555
C5 C4 1_555 1_555
H4 C5 1_555 1_555
C6 C1 1_555 1_555
C7 C6 1_555 1_555
C8 C7 1_555 1_555
C9 C1 1_555 1_555
C10 C7 1_555 1_555
H5 C10 1_555 1_555
C11 C10 1_555 1_555
H6 C11 1_555 1_555
C12 C11 1_555 1_555
H7 C12 1_555 1_555
C13 C8 1_555 1_555
H8 C13 1_555 1_555
O2 C22 1_555 1_555
C14 C15 1_555 1_555
C15 H9 1_555 1_555
C16 C15 1_555 1_555
H10 C16 1_555 1_555
C17 C16 1_555 1_555
H11 C17 1_555 1_555
C18 C17 1_555 1_555
H12 C18 1_555 1_555
C19 C14 1_555 1_555
C20 C19 1_555 1_555
C21 C20 1_555 1_555
C22 C14 1_555 1_555
C23 C20 1_555 1_555
H13 C23 1_555 1_555
C24 C23 1_555 1_555
H14 C24 1_555 1_555
C25 C24 1_555 1_555
H15 C25 1_555 1_555
C26 C21 1_555 1_555
H16 C26 1_555 1_555
C5 C6 1_555 1_555
C8 C9 1_555 1_555
C12 C13 1_555 1_555
C18 C19 1_555 1_555
C21 C22 1_555 1_555
C25 C26 1_555 1_555

#END
