
#######################################################################
#
#                 Cambridge Crystallographic Data Centre
#                                CCDC 
#
#######################################################################
#
# If this CIF has been generated from an entry in the Cambridge 
# Structural Database, then it will include bibliographic, chemical, 
# crystal, experimental, refinement or atomic coordinate data resulting 
# from the CCDC's data processing and validation procedures.
#
#######################################################################

data_FOBLUG
_chemical_formula_moiety         'C24 H21 Br1 N2 O3'
_chemical_name_systematic        
'methyl 5-[(3-bromophenyl)(hydroxy)methyl]-1,3-diphenyl-4,5-dihydro-1H-pyrazole-5-carboxylate'
_symmetry_cell_setting           triclinic
_symmetry_space_group_name_H-M   'P -1'
_symmetry_Int_Tables_number      2
_space_group_name_Hall           '-P 1'
loop_
_symmetry_equiv_pos_site_id
_symmetry_equiv_pos_as_xyz
1 x,y,z
2 -x,-y,-z
_cell_length_a                   9.301(3)
_cell_length_b                   11.028(4)
_cell_length_c                   11.144(4)
_cell_angle_alpha                72.280(14)
_cell_angle_beta                 77.058(16)
_cell_angle_gamma                71.470(13)
_cell_volume                     1022.08
_exptl_crystal_colour            colorless
_exptl_crystal_description       prism
_cell_formula_units_Z            2
loop_
_atom_site_label
_atom_site_type_symbol
_atom_site_fract_x
_atom_site_fract_y
_atom_site_fract_z
Br1 Br 1.22632(3) -0.02000(4) 0.26033(3)
C1 C 0.6107(3) 0.3565(2) 0.2242(2)
C2 C 0.7381(3) 0.4242(2) 0.1591(2)
H1 H 0.812788 0.407340 0.217039
H2 H 0.792622 0.395614 0.081049
C3 C 0.6472(3) 0.5672(2) 0.1284(2)
C4 C 0.6368(3) 0.2197(2) 0.1986(2)
H3 H 0.537220 0.195732 0.223684
C5 C 0.7543(3) 0.1112(2) 0.2746(2)
C6 C 0.9104(3) 0.0999(2) 0.2402(3)
H4 H 0.946302 0.162245 0.169551
C7 C 1.0127(3) -0.0034(3) 0.3103(3)
C8 C 0.9661(4) -0.0948(3) 0.4144(3)
H5 H 1.038599 -0.163896 0.461854
C9 C 0.8108(4) -0.0832(3) 0.4482(3)
H6 H 0.775627 -0.145261 0.519604
C10 C 0.7059(3) 0.0187(3) 0.3783(3)
H7 H 0.599567 0.025049 0.401902
C11 C 0.5858(3) 0.3459(2) 0.3678(2)
C12 C 0.4311(3) 0.2901(3) 0.5639(3)
H8 H 0.407588 0.379575 0.574870
H9 H 0.517899 0.232761 0.608354
H10 H 0.341565 0.255336 0.599307
C13 C 0.3234(3) 0.4573(2) 0.2171(2)
C14 C 0.2624(3) 0.3622(3) 0.2066(3)
H11 H 0.320178 0.301693 0.157010
C15 C 0.1167(3) 0.3552(3) 0.2686(3)
H12 H 0.076758 0.287573 0.264346
C16 C 0.0291(3) 0.4473(3) 0.3369(3)
H13 H -0.070100 0.442213 0.379806
C17 C 0.0875(3) 0.5460(3) 0.3419(3)
H14 H 0.026432 0.611012 0.385505
C18 C 0.2349(3) 0.5507(3) 0.2835(3)
H15 H 0.275289 0.617657 0.288906
C19 C 0.7088(3) 0.6809(2) 0.1037(2)
C20 C 0.6095(3) 0.8074(2) 0.1023(2)
H16 H 0.502049 0.820760 0.110585
C21 C 0.6675(3) 0.9123(3) 0.0889(3)
H17 H 0.599648 0.997584 0.088004
C22 C 0.8241(3) 0.8940(3) 0.0766(3)
H18 H 0.863304 0.966284 0.068230
C23 C 0.9229(3) 0.7704(3) 0.0767(3)
H19 H 1.030197 0.757994 0.067870
C24 C 0.8661(3) 0.6639(2) 0.0895(2)
H20 H 0.934840 0.579361 0.088621
N1 N 0.4780(2) 0.45609(19) 0.1604(2)
N2 N 0.5047(2) 0.58138(19) 0.1276(2)
O1 O 0.6604(2) 0.3810(2) 0.41884(19)
O2 O 0.4703(2) 0.29403(18) 0.42915(17)
O3 O 0.6862(2) 0.22393(17) 0.06770(17)
H21 H 0.619030 0.279267 0.024719
loop_
_geom_bond_atom_site_label_1
_geom_bond_atom_site_label_2
_geom_bond_site_symmetry_1
_geom_bond_site_symmetry_2
Br1 C7 1_555 1_555
C1 C2 1_555 1_555
C2 H1 1_555 1_555
H2 C2 1_555 1_555
C3 C2 1_555 1_555
C4 C1 1_555 1_555
H3 C4 1_555 1_555
C5 C4 1_555 1_555
C6 C5 1_555 1_555
H4 C6 1_555 1_555
C7 C6 1_555 1_555
C8 C7 1_555 1_555
H5 C8 1_555 1_555
C9 C8 1_555 1_555
H6 C9 1_555 1_555
C10 C5 1_555 1_555
H7 C10 1_555 1_555
C11 C1 1_555 1_555
C12 H8 1_555 1_555
H9 C12 1_555 1_555
H10 C12 1_555 1_555
C13 C14 1_555 1_555
C14 H11 1_555 1_555
C15 C14 1_555 1_555
H12 C15 1_555 1_555
C16 C15 1_555 1_555
H13 C16 1_555 1_555
C17 C16 1_555 1_555
H14 C17 1_555 1_555
C18 C13 1_555 1_555
H15 C18 1_555 1_555
C19 C3 1_555 1_555
C20 C19 1_555 1_555
H16 C20 1_555 1_555
C21 C20 1_555 1_555
H17 C21 1_555 1_555
C22 C21 1_555 1_555
H18 C22 1_555 1_555
C23 C22 1_555 1_555
H19 C23 1_555 1_555
C24 C19 1_555 1_555
H20 C24 1_555 1_555
N1 C1 1_555 1_555
N2 C3 1_555 1_555
O1 C11 1_555 1_555
O2 C11 1_555 1_555
O3 C4 1_555 1_555
H21 O3 1_555 1_555
C9 C10 1_555 1_555
C12 O2 1_555 1_555
C13 N1 1_555 1_555
C17 C18 1_555 1_555
C23 C24 1_555 1_555
N1 N2 1_555 1_555

#END
