
#######################################################################
#
#                 Cambridge Crystallographic Data Centre
#                                CCDC 
#
#######################################################################
#
# If this CIF has been generated from an entry in the Cambridge 
# Structural Database, then it will include bibliographic, chemical, 
# crystal, experimental, refinement or atomic coordinate data resulting 
# from the CCDC's data processing and validation procedures.
#
#######################################################################

data_FOBMIT
_chemical_formula_moiety         'C12 H8 Cl1 N3 O3,H2 O1'
_chemical_name_systematic        
'2-Chloro-N-(3-nitrophenyl)nicotinamide monohydrate'
_symmetry_cell_setting           triclinic
_symmetry_space_group_name_H-M   'P -1'
_symmetry_Int_Tables_number      2
_space_group_name_Hall           '-P 1'
loop_
_symmetry_equiv_pos_site_id
_symmetry_equiv_pos_as_xyz
1 x,y,z
2 -x,-y,-z
_cell_length_a                   7.5607(4)
_cell_length_b                   7.6518(3)
_cell_length_c                   12.6775(5)
_cell_angle_alpha                81.177(3)
_cell_angle_beta                 84.367(2)
_cell_angle_gamma                61.172(2)
_cell_volume                     634.686
_exptl_crystal_colour            colorless
_exptl_crystal_description       block
_chemical_melting_point          428-429K
_cell_formula_units_Z            2
_exptl_crystal_recrystallization_method acetone
loop_
_atom_site_label
_atom_site_type_symbol
_atom_site_fract_x
_atom_site_fract_y
_atom_site_fract_z
Cl1 Cl 0.58252(7) 0.28229(7) 0.09351(4)
O1 O 0.2316(3) 0.4034(2) 0.26846(10)
O2 O 0.3065(3) -0.4763(2) 0.56158(12)
O3 O 0.2362(3) -0.3722(2) 0.71615(10)
N1 N 0.3821(2) 0.2690(2) -0.05734(11)
N2 N 0.2574(2) 0.09090(19) 0.30122(10)
N3 N 0.2669(2) -0.3479(2) 0.61966(11)
C1 C 0.3844(3) 0.2642(2) 0.04717(12)
C2 C 0.2435(3) 0.2419(2) 0.11982(12)
C3 C 0.0934(3) 0.2215(3) 0.07740(14)
C4 C 0.0853(3) 0.2292(3) -0.03172(14)
C5 C 0.2316(3) 0.2545(3) -0.09540(13)
C6 C 0.2453(3) 0.2537(2) 0.23712(12)
C7 C 0.2457(2) 0.0631(2) 0.41391(11)
C8 C 0.2681(2) -0.1225(2) 0.46136(12)
C9 C 0.2491(2) -0.1538(2) 0.57115(12)
C10 C 0.2096(3) -0.0094(3) 0.63625(13)
C11 C 0.1907(4) 0.1725(3) 0.58779(14)
C12 C 0.2090(3) 0.2107(3) 0.47781(13)
H1 H -0.0043 0.2022 0.1235
H2 H -0.0181 0.2174 -0.0619
H3 H 0.2252 0.2620 -0.1705
H4 H 0.2743 -0.0102 0.2690
H5 H 0.2958 -0.2257 0.4191
H6 H 0.1960 -0.0345 0.7116
H7 H 0.1645 0.2743 0.6307
H8 H 0.1965 0.3368 0.4462
O4 O 0.2818(2) 0.7597(2) 0.20376(11)
H9 H 0.2596 0.6615 0.2265
H10 H 0.3830 0.7389 0.1572
loop_
_geom_bond_atom_site_label_1
_geom_bond_atom_site_label_2
_geom_bond_site_symmetry_1
_geom_bond_site_symmetry_2
Cl1 C1 1_555 1_555
O1 C6 1_555 1_555
O2 N3 1_555 1_555
O3 N3 1_555 1_555
N1 C1 1_555 1_555
N2 C6 1_555 1_555
N3 C9 1_555 1_555
C1 C2 1_555 1_555
C2 C3 1_555 1_555
C3 C4 1_555 1_555
C4 C5 1_555 1_555
C5 N1 1_555 1_555
C6 C2 1_555 1_555
C7 N2 1_555 1_555
C8 C7 1_555 1_555
C9 C8 1_555 1_555
C10 C9 1_555 1_555
C11 C10 1_555 1_555
C12 C7 1_555 1_555
O4 H9 1_555 1_555
H1 C3 1_555 1_555
H2 C4 1_555 1_555
H3 C5 1_555 1_555
H4 N2 1_555 1_555
H5 C8 1_555 1_555
H6 C10 1_555 1_555
H7 C11 1_555 1_555
H8 C12 1_555 1_555
H10 O4 1_555 1_555
C11 C12 1_555 1_555

#END
