
#######################################################################
#
#                 Cambridge Crystallographic Data Centre
#                                CCDC 
#
#######################################################################
#
# If this CIF has been generated from an entry in the Cambridge 
# Structural Database, then it will include bibliographic, chemical, 
# crystal, experimental, refinement or atomic coordinate data resulting 
# from the CCDC's data processing and validation procedures.
#
#######################################################################

data_FOBMOZ
_chemical_formula_moiety         'C12 H8 Cl1 N3 O3'
_chemical_name_systematic        2-Chloro-N-(4-nitrophenyl)nicotinamide
_symmetry_cell_setting           monoclinic
_symmetry_space_group_name_H-M   'P 21/n'
_symmetry_Int_Tables_number      14
_space_group_name_Hall           '-P 2yn'
loop_
_symmetry_equiv_pos_site_id
_symmetry_equiv_pos_as_xyz
1 x,y,z
2 1/2-x,1/2+y,1/2-z
3 -x,-y,-z
4 1/2+x,1/2-y,1/2+z
_cell_length_a                   7.2385(2)
_cell_length_b                   24.5094(6)
_cell_length_c                   13.5018(4)
_cell_angle_alpha                90
_cell_angle_beta                 92.834(2)
_cell_angle_gamma                90
_cell_volume                     2392.44
_exptl_crystal_colour            colorless
_exptl_crystal_description       block
_chemical_melting_point          479-481K
_cell_formula_units_Z            8
_exptl_crystal_recrystallization_method ethanol
loop_
_atom_site_label
_atom_site_type_symbol
_atom_site_fract_x
_atom_site_fract_y
_atom_site_fract_z
Cl1 Cl 0.93279(9) 0.69680(2) 0.66272(4)
O1 O 1.0754(3) 0.83940(7) 0.74087(16)
O2 O 0.2074(3) 0.99261(6) 0.58346(13)
O3 O 0.4593(2) 1.04072(6) 0.58583(12)
N1 N 1.0557(3) 0.66161(7) 0.83516(14)
N2 N 0.7716(3) 0.81689(7) 0.75206(13)
N3 N 0.3761(3) 0.99758(7) 0.59832(14)
C1 C 1.0031(3) 0.70646(9) 0.78670(16)
C2 C 1.0065(3) 0.75853(9) 0.82673(17)
C3 C 1.0703(4) 0.76385(9) 0.92505(18)
C4 C 1.1218(3) 0.71762(9) 0.97860(18)
C5 C 1.1114(3) 0.66747(9) 0.93093(17)
C6 C 0.9547(4) 0.80889(9) 0.76783(18)
C7 C 0.6817(3) 0.86260(8) 0.70840(16)
C8 C 0.4896(3) 0.86073(8) 0.70096(16)
C9 C 0.3897(3) 0.90496(8) 0.66402(16)
C10 C 0.4841(3) 0.95029(8) 0.63428(16)
C11 C 0.6744(3) 0.95342(9) 0.64081(16)
C12 C 0.7754(3) 0.90911(8) 0.67751(16)
H1 H 1.0784 0.7988 0.9552
H2 H 1.1633 0.7202 1.0463
H3 H 1.1454 0.6357 0.9679
H4 H 0.7004 0.7897 0.7781
H5 H 0.4268 0.8289 0.7213
H6 H 0.2584 0.9040 0.6593
H7 H 0.7357 0.9855 0.6204
H8 H 0.9067 0.9103 0.6817
Cl2 Cl 0.42948(9) 0.69468(2) 0.66056(4)
O4 O 0.5793(3) 0.54792(7) 0.73644(15)
O5 O -0.2799(3) 0.39905(8) 0.54869(15)
O6 O -0.0226(3) 0.35435(7) 0.53995(14)
N4 N 0.5494(3) 0.72622(7) 0.83614(15)
N5 N 0.2759(3) 0.57478(7) 0.72771(14)
N6 N -0.1105(4) 0.39612(9) 0.55726(16)
C13 C 0.4996(3) 0.68234(9) 0.78379(17)
C14 C 0.5028(3) 0.62914(9) 0.81950(17)
C15 C 0.5620(3) 0.62221(9) 0.91846(18)
C16 C 0.6082(4) 0.66748(10) 0.97554(19)
C17 C 0.5993(3) 0.71837(9) 0.93195(18)
C18 C 0.4570(4) 0.57985(9) 0.75576(18)
C19 C 0.1888(3) 0.53077(8) 0.67670(17)
C20 C -0.0027(3) 0.53272(9) 0.66533(17)
C21 C -0.1021(4) 0.48949(9) 0.62399(17)
C22 C -0.0050(4) 0.44408(9) 0.59327(17)
C23 C 0.1850(4) 0.44203(9) 0.60068(18)
C24 C 0.2844(4) 0.48558(9) 0.64170(18)
H9 H 0.5706 0.5867 0.9465
H10 H 0.6453 0.6636 1.0436
H11 H 0.6301 0.7493 0.9718
H12 H 0.1867 0.5974 0.7573
H13 H -0.0664 0.5642 0.6863
H14 H -0.2333 0.4908 0.6168
H15 H 0.2481 0.4108 0.5777
H16 H 0.4157 0.4848 0.6460
loop_
_geom_bond_atom_site_label_1
_geom_bond_atom_site_label_2
_geom_bond_site_symmetry_1
_geom_bond_site_symmetry_2
Cl1 C1 1_555 1_555
O1 C6 1_555 1_555
O2 N3 1_555 1_555
O3 N3 1_555 1_555
N1 C1 1_555 1_555
N2 C6 1_555 1_555
N3 C10 1_555 1_555
C1 C2 1_555 1_555
C2 C3 1_555 1_555
C3 C4 1_555 1_555
C4 C5 1_555 1_555
C5 N1 1_555 1_555
C6 C2 1_555 1_555
C7 N2 1_555 1_555
C8 C7 1_555 1_555
C9 C8 1_555 1_555
C10 C9 1_555 1_555
C11 C10 1_555 1_555
C12 C7 1_555 1_555
Cl2 C13 1_555 1_555
O4 C18 1_555 1_555
O5 N6 1_555 1_555
O6 N6 1_555 1_555
N4 C13 1_555 1_555
N5 C18 1_555 1_555
N6 C22 1_555 1_555
C13 C14 1_555 1_555
C14 C15 1_555 1_555
C15 C16 1_555 1_555
C16 C17 1_555 1_555
C17 N4 1_555 1_555
C18 C14 1_555 1_555
C19 N5 1_555 1_555
C20 C19 1_555 1_555
C21 C20 1_555 1_555
C22 C21 1_555 1_555
C23 C22 1_555 1_555
C24 C19 1_555 1_555
H1 C3 1_555 1_555
H2 C4 1_555 1_555
H3 C5 1_555 1_555
H4 N2 1_555 1_555
H5 C8 1_555 1_555
H6 C9 1_555 1_555
H7 C11 1_555 1_555
H8 C12 1_555 1_555
H9 C15 1_555 1_555
H10 C16 1_555 1_555
H11 C17 1_555 1_555
H12 N5 1_555 1_555
H13 C20 1_555 1_555
H14 C21 1_555 1_555
H15 C23 1_555 1_555
H16 C24 1_555 1_555
C11 C12 1_555 1_555
C23 C24 1_555 1_555

#END
