
#######################################################################
#
#                 Cambridge Crystallographic Data Centre
#                                CCDC 
#
#######################################################################
#
# If this CIF has been generated from an entry in the Cambridge 
# Structural Database, then it will include bibliographic, chemical, 
# crystal, experimental, refinement or atomic coordinate data resulting 
# from the CCDC's data processing and validation procedures.
#
#######################################################################

data_FOBROG
_chemical_formula_moiety         'C62 H42 N6 O12,0.5(C1 H1 Cl3)'
_chemical_name_systematic        
"\D-(-)-2,9-(2,2'-{cyclohexane-1,2-diylbis[(1,3,5,7-tetraoxo-5,7-dihydropyrrolo[3,4-f]isoindole-6,2(1H,3H)-diyl)]}bis(cyclohexyl))-isoquinolino[4',5',6':6,5,10]anthra[2,1,9-def]isoquinoline-1,3,8,10(2H,9H)-tetrone chloroform unknown solvate"
_symmetry_cell_setting           orthorhombic
_symmetry_space_group_name_H-M   'P 21 21 2'
_symmetry_Int_Tables_number      18
_space_group_name_Hall           'P 2 2ab'
loop_
_symmetry_equiv_pos_site_id
_symmetry_equiv_pos_as_xyz
1 x,y,z
2 -x,-y,z
3 1/2-x,1/2+y,-z
4 1/2+x,1/2-y,-z
_cell_length_a                   30.418(3)
_cell_length_b                   31.784(3)
_cell_length_c                   12.3800(12)
_cell_angle_alpha                90
_cell_angle_beta                 90
_cell_angle_gamma                90
_cell_volume                     11969.1
_exptl_crystal_colour            red
_exptl_crystal_description       needle
_cell_formula_units_Z            8
_exptl_crystal_recrystallization_method 'chloroform / n-hexane'
_exptl_crystal_preparation       Luminescent
loop_
_atom_site_label
_atom_site_type_symbol
_atom_site_fract_x
_atom_site_fract_y
_atom_site_fract_z
O1 O 0.62950(11) 0.37266(11) -0.0902(3)
O2 O 0.89812(9) 0.12423(10) -0.0703(3)
O3 O 0.81031(10) 0.03880(9) -0.2702(2)
O4 O 0.55210(9) 0.29032(10) -0.3178(2)
O5 O 0.86051(10) 0.06908(11) 0.1053(3)
O6 O 0.72172(11) 0.13409(11) 0.4069(3)
O7 O 0.62234(12) 0.04338(14) 0.2576(4)
O8 O 0.75906(11) -0.01637(11) -0.0556(3)
O9 O 0.62988(14) 0.20039(11) 0.4061(3)
O10 O 0.59115(17) 0.35112(12) 0.1345(3)
O11 O 0.49664(14) 0.27404(15) -0.0721(3)
O12 O 0.53369(16) 0.12266(17) 0.2059(5)
N1 N 0.58687(11) 0.32671(12) -0.1850(3)
N2 N 0.85112(11) 0.07892(11) -0.1560(3)
N3 N 0.81760(12) 0.02395(11) 0.0037(3)
N4 N 0.66294(12) 0.09463(12) 0.3460(3)
N5 N 0.58524(12) 0.15202(13) 0.3214(3)
N6 N 0.54122(12) 0.32179(15) 0.0155(3)
C1 C 0.62624(14) 0.33852(15) -0.1337(4)
C2 C 0.66128(13) 0.30678(13) -0.1323(3)
C3 C 0.69690(14) 0.31221(14) -0.0643(3)
H1 H 0.6982 0.3360 -0.0181
C4 C 0.73097(15) 0.28271(15) -0.0636(4)
H2 H 0.7554 0.2871 -0.0172
C5 C 0.73015(14) 0.24707(13) -0.1289(3)
C6 C 0.76455(13) 0.21542(13) -0.1274(3)
C7 C 0.80248(14) 0.21980(15) -0.0638(3)
H3 H 0.8064 0.2445 -0.0218
C8 C 0.83428(13) 0.18873(14) -0.0611(3)
H4 H 0.8598 0.1926 -0.0181
C9 C 0.82941(13) 0.15198(13) -0.1203(3)
C10 C 0.86241(13) 0.11810(14) -0.1134(3)
C11 C 0.81642(13) 0.07330(13) -0.2283(3)
C12 C 0.78730(13) 0.10942(13) -0.2467(3)
C13 C 0.75290(15) 0.10563(14) -0.3199(4)
H5 H 0.7505 0.0812 -0.3636
C14 C 0.72231(16) 0.13737(15) -0.3292(4)
H6 H 0.6990 0.1343 -0.3796
C15 C 0.72454(14) 0.17379(13) -0.2669(3)
C16 C 0.69083(14) 0.20651(13) -0.2732(3)
C17 C 0.65673(14) 0.20473(14) -0.3454(4)
H7 H 0.6564 0.1828 -0.3976
C18 C 0.62225(14) 0.23416(14) -0.3450(3)
H8 H 0.5988 0.2319 -0.3955
C19 C 0.62292(13) 0.26644(12) -0.2700(3)
C20 C 0.58470(13) 0.29422(13) -0.2635(3)
C21 C 0.65885(14) 0.27108(13) -0.1997(3)
C22 C 0.69350(13) 0.24165(13) -0.1999(3)
C23 C 0.76023(13) 0.17855(13) -0.1937(3)
C24 C 0.79239(14) 0.14658(13) -0.1853(3)
C25 C 0.87820(13) 0.04248(13) -0.1220(3)
H9 H 0.8984 0.0529 -0.0642
C26 C 0.90751(15) 0.02502(15) -0.2125(4)
H10 H 0.8893 0.0104 -0.2672
H11 H 0.9235 0.0482 -0.2485
C27 C 0.93947(15) -0.00522(16) -0.1621(5)
H12 H 0.9582 0.0099 -0.1095
H13 H 0.9587 -0.0172 -0.2187
C28 C 0.91495(18) -0.04042(17) -0.1051(5)
H14 H 0.9365 -0.0594 -0.0704
H15 H 0.8984 -0.0570 -0.1593
C29 C 0.88259(17) -0.02381(16) -0.0184(4)
H16 H 0.8657 -0.0475 0.0129
H17 H 0.8990 -0.0098 0.0405
C30 C 0.85129(14) 0.00755(13) -0.0724(3)
H18 H 0.8356 -0.0075 -0.1321
C31 C 0.82536(14) 0.05269(14) 0.0844(3)
C32 C 0.78219(14) 0.06014(13) 0.1388(3)
C33 C 0.77232(15) 0.08768(15) 0.2220(4)
H19 H 0.7933 0.1062 0.2529
C34 C 0.72890(14) 0.08572(14) 0.2560(3)
C35 C 0.70647(14) 0.10834(14) 0.3458(4)
C36 C 0.65623(16) 0.06320(16) 0.2694(4)
C37 C 0.69835(15) 0.05808(15) 0.2123(4)
C38 C 0.70851(16) 0.03166(16) 0.1250(4)
H20 H 0.6875 0.0138 0.0918
C39 C 0.75176(15) 0.03391(14) 0.0915(4)
C40 C 0.77425(16) 0.00970(14) 0.0044(4)
C41 C 0.63295(16) 0.10505(15) 0.4348(4)
H21 H 0.6451 0.1304 0.4723
C42 C 0.63198(17) 0.06869(17) 0.5179(4)
H22 H 0.6220 0.0426 0.4816
H23 H 0.6621 0.0638 0.5456
C43 C 0.60179(19) 0.07829(18) 0.6109(4)
H24 H 0.6003 0.0535 0.6590
H25 H 0.6141 0.1020 0.6531
C44 C 0.5567(2) 0.0894(2) 0.5749(5)
H26 H 0.5387 0.0971 0.6386
H27 H 0.5429 0.0645 0.5406
C45 C 0.55688(17) 0.12622(18) 0.4942(4)
H28 H 0.5266 0.1316 0.4685
H29 H 0.5676 0.1520 0.5305
C46 C 0.58660(16) 0.11605(16) 0.3974(4)
H30 H 0.5741 0.0909 0.3597
C47 C 0.60361(16) 0.19135(15) 0.3378(4)
C48 C 0.58497(15) 0.21938(16) 0.2513(3)
C49 C 0.59339(17) 0.26077(17) 0.2332(4)
H31 H 0.6135 0.2769 0.2748
C50 C 0.56896(16) 0.27714(17) 0.1459(4)
C51 C 0.57010(19) 0.32124(19) 0.1035(4)
C52 C 0.52231(15) 0.28262(19) -0.0003(4)
C53 C 0.54082(15) 0.25379(18) 0.0849(4)
C54 C 0.53298(17) 0.2122(2) 0.1024(4)
H32 H 0.5136 0.1961 0.0588
C55 C 0.55608(16) 0.19506(18) 0.1907(4)
C56 C 0.55527(16) 0.1520(2) 0.2350(5)
C57 C 0.53574(15) 0.35919(17) -0.0510(4)
H33 H 0.5568 0.3808 -0.0233
C58 C 0.48955(17) 0.3784(2) -0.0441(4)
H34 H 0.4814 0.3826 0.0326
H35 H 0.4679 0.3589 -0.0768
C59 C 0.48857(16) 0.42074(18) -0.1040(4)
H36 H 0.4584 0.4324 -0.1021
H37 H 0.5083 0.4409 -0.0671
C60 C 0.50312(16) 0.41546(18) -0.2208(4)
H38 H 0.5047 0.4434 -0.2558
H39 H 0.4811 0.3984 -0.2602
C61 C 0.54834(15) 0.39379(15) -0.2279(4)
H40 H 0.5563 0.3893 -0.3046
H41 H 0.5710 0.4119 -0.1945
C62 C 0.54653(14) 0.35224(16) -0.1703(3)
H42 H 0.5216 0.3359 -0.2023
O13 O 0.62107(9) 0.40199(10) 0.5519(3)
O14 O 0.87150(10) 0.13447(10) 0.5676(3)
O15 O 0.96210(10) 0.21899(11) 0.7616(3)
O16 O 0.69989(10) 0.46748(9) 0.8089(2)
O17 O 0.93805(11) 0.16157(10) 0.3816(3)
O18 O 0.87577(13) 0.29383(11) 0.0647(3)
O19 O 0.96867(15) 0.38844(13) 0.2245(3)
O20 O 1.02377(11) 0.26030(10) 0.5480(3)
O21 O 0.80524(11) 0.38933(13) 0.0689(3)
O22 O 0.64911(11) 0.43751(11) 0.3305(3)
O23 O 0.73691(12) 0.51578(12) 0.5541(3)
O24 O 0.89330(13) 0.46926(15) 0.2846(4)
N7 N 0.66688(11) 0.43841(11) 0.6621(3)
N8 N 0.91961(11) 0.17987(11) 0.6482(3)
N9 N 0.91664(13) 0.35016(13) 0.1301(3)
N10 N 0.85913(13) 0.42543(13) 0.1627(3)
N11 N 0.68378(12) 0.47818(11) 0.4604(3)
N12 N 0.98192(11) 0.20380(11) 0.4889(3)
C63 C 0.65462(13) 0.40264(13) 0.6062(3)
C64 C 0.68521(13) 0.36668(14) 0.6122(3)
C65 C 0.67928(13) 0.33249(14) 0.5443(3)
H43 H 0.6547 0.3318 0.4969
C66 C 0.70897(14) 0.29926(13) 0.5450(3)
H44 H 0.7040 0.2760 0.4983
C67 C 0.74562(13) 0.29890(13) 0.6118(3)
C68 C 0.77901(14) 0.26552(14) 0.6100(3)
C69 C 0.77452(14) 0.22971(15) 0.5463(4)
H45 H 0.7493 0.2267 0.5017
C70 C 0.80661(14) 0.19794(14) 0.5468(4)
H46 H 0.8022 0.1730 0.5058
C71 C 0.84451(13) 0.20282(13) 0.6068(3)
C72 C 0.87863(14) 0.16907(13) 0.6050(4)
C73 C 0.92657(14) 0.21366(14) 0.7174(3)
C74 C 0.88939(13) 0.24371(15) 0.7311(4)
C75 C 0.89400(16) 0.27670(17) 0.7990(4)
H47 H 0.9200 0.2793 0.8411
C76 C 0.86147(15) 0.30651(16) 0.8079(4)
H48 H 0.8655 0.3295 0.8560
C77 C 0.82280(14) 0.30392(15) 0.7480(4)
C78 C 0.78859(14) 0.33634(14) 0.7554(3)
C79 C 0.79117(15) 0.36900(15) 0.8275(4)
H49 H 0.8147 0.3696 0.8779
C80 C 0.76014(15) 0.40143(14) 0.8287(4)
H50 H 0.7623 0.4233 0.8807
C81 C 0.72646(14) 0.40165(13) 0.7548(3)
C82 C 0.69685(13) 0.43824(14) 0.7473(4)
C83 C 0.72113(13) 0.36779(13) 0.6833(3)
C84 C 0.75261(13) 0.33337(13) 0.6831(3)
C85 C 0.81689(13) 0.26964(14) 0.6772(3)
C86 C 0.85044(14) 0.23810(14) 0.6711(3)
C87 C 0.95631(13) 0.15133(13) 0.6244(3)
H51 H 0.9453 0.1301 0.5712
C88 C 0.97393(15) 0.12670(15) 0.7236(4)
H52 H 0.9884 0.1463 0.7746
H53 H 0.9493 0.1128 0.7616
C89 C 1.00676(17) 0.09387(17) 0.6852(4)
H54 H 1.0185 0.0785 0.7484
H55 H 0.9915 0.0733 0.6383
C90 C 1.04423(16) 0.11336(17) 0.6236(4)
H56 H 1.0635 0.0908 0.5955
H57 H 1.0619 0.1309 0.6734
C91 C 1.02821(14) 0.14085(16) 0.5281(3)
H58 H 1.0536 0.1549 0.4934
H59 H 1.0135 0.1230 0.4735
C92 C 0.99590(13) 0.17394(13) 0.5716(3)
H60 H 1.0114 0.1902 0.6294
C93 C 0.95437(12) 0.19512(13) 0.4009(3)
C94 C 0.94909(13) 0.23581(13) 0.3412(3)
C95 C 0.92292(14) 0.24455(14) 0.2539(3)
H61 H 0.9048 0.2241 0.2201
C96 C 0.92536(15) 0.28647(14) 0.2190(3)
C97 C 0.90203(15) 0.30821(15) 0.1280(3)
C98 C 0.94846(17) 0.35627(16) 0.2070(4)
C99 C 0.95262(15) 0.31523(15) 0.2659(4)
C100 C 0.97896(16) 0.30660(15) 0.3550(4)
H62 H 0.9974 0.3270 0.3878
C101 C 0.97585(14) 0.26578(14) 0.3912(3)
C102 C 0.99758(14) 0.24509(14) 0.4848(4)
C103 C 0.90584(17) 0.38003(15) 0.0418(4)
H63 H 0.8790 0.3692 0.0043
C104 C 0.94279(17) 0.38113(17) -0.0404(4)
H64 H 0.9478 0.3524 -0.0689
H65 H 0.9702 0.3906 -0.0048
C105 C 0.9317(2) 0.4110(2) -0.1347(5)
H66 H 0.9566 0.4119 -0.1861
H67 H 0.9055 0.4005 -0.1737
C106 C 0.9227(2) 0.45499(19) -0.0916(5)
H68 H 0.9150 0.4740 -0.1521
H69 H 0.9495 0.4662 -0.0563
C107 C 0.88500(18) 0.45372(17) -0.0102(4)
H70 H 0.8798 0.4823 0.0187
H71 H 0.8578 0.4443 -0.0469
C108 C 0.89546(16) 0.42378(16) 0.0829(4)
H72 H 0.9225 0.4346 0.1195
C109 C 0.81665(16) 0.41079(15) 0.1439(4)
C110 C 0.78882(16) 0.42807(15) 0.2313(4)
C111 C 0.74374(15) 0.42475(15) 0.2458(4)
H73 H 0.7254 0.4086 0.1995
C112 C 0.72782(14) 0.44684(13) 0.3329(3)
C113 C 0.68163(15) 0.45250(14) 0.3694(3)
C114 C 0.72576(16) 0.49180(15) 0.4823(4)
C115 C 0.75447(16) 0.47164(14) 0.3993(4)
C116 C 0.79943(17) 0.47498(16) 0.3852(4)
H74 H 0.8177 0.4913 0.4313
C117 C 0.81568(16) 0.45235(16) 0.2975(4)
C118 C 0.86132(17) 0.45102(17) 0.2534(4)
C119 C 0.64316(14) 0.49012(14) 0.5187(3)
H75 H 0.6184 0.4734 0.4877
C120 C 0.63194(18) 0.53688(15) 0.5055(4)
H76 H 0.6547 0.5544 0.5409
H77 H 0.6311 0.5443 0.4279
C121 C 0.58733(19) 0.54505(17) 0.5570(4)
H78 H 0.5803 0.5754 0.5520
H79 H 0.5644 0.5293 0.5170
C122 C 0.5868(2) 0.53171(18) 0.6740(4)
H80 H 0.5566 0.5347 0.7026
H81 H 0.6062 0.5507 0.7159
C123 C 0.60198(17) 0.48636(16) 0.6900(4)
H82 H 0.6037 0.4800 0.7682
H83 H 0.5804 0.4669 0.6570
C124 C 0.64612(15) 0.47981(14) 0.6393(3)
H84 H 0.6660 0.5015 0.6716
Cl1 Cl 0.78238(7) 0.20421(7) 0.23586(16)
Cl2 Cl 0.71587(9) 0.26954(7) 0.24738(18)
Cl3 Cl 0.69606(7) 0.19053(7) 0.14479(16)
C125 C 0.7265(3) 0.2172(3) 0.2490(6)
H85 H 0.7162 0.2060 0.3201
loop_
_geom_bond_atom_site_label_1
_geom_bond_atom_site_label_2
_geom_bond_site_symmetry_1
_geom_bond_site_symmetry_2
O1 C1 1_555 1_555
O2 C10 1_555 1_555
O3 C11 1_555 1_555
O4 C20 1_555 1_555
O5 C31 1_555 1_555
O6 C35 1_555 1_555
O7 C36 1_555 1_555
O8 C40 1_555 1_555
O9 C47 1_555 1_555
O10 C51 1_555 1_555
O11 C52 1_555 1_555
O12 C56 1_555 1_555
N1 C1 1_555 1_555
N2 C10 1_555 1_555
N3 C30 1_555 1_555
N4 C35 1_555 1_555
N5 C46 1_555 1_555
N6 C51 1_555 1_555
C1 C2 1_555 1_555
C2 C3 1_555 1_555
C3 H1 1_555 1_555
C4 C3 1_555 1_555
H2 C4 1_555 1_555
C5 C4 1_555 1_555
C6 C5 1_555 1_555
C7 C6 1_555 1_555
H3 C7 1_555 1_555
C8 C7 1_555 1_555
H4 C8 1_555 1_555
C9 C8 1_555 1_555
C10 C9 1_555 1_555
C11 N2 1_555 1_555
C12 C11 1_555 1_555
C13 C12 1_555 1_555
H5 C13 1_555 1_555
C14 C13 1_555 1_555
H6 C14 1_555 1_555
C15 C14 1_555 1_555
C16 C15 1_555 1_555
C17 C16 1_555 1_555
H7 C17 1_555 1_555
C18 C17 1_555 1_555
H8 C18 1_555 1_555
C19 C18 1_555 1_555
C20 N1 1_555 1_555
C21 C2 1_555 1_555
C22 C5 1_555 1_555
C23 C6 1_555 1_555
C24 C9 1_555 1_555
C25 N2 1_555 1_555
H9 C25 1_555 1_555
C26 C25 1_555 1_555
H10 C26 1_555 1_555
H11 C26 1_555 1_555
C27 C26 1_555 1_555
H12 C27 1_555 1_555
H13 C27 1_555 1_555
C28 C27 1_555 1_555
H14 C28 1_555 1_555
H15 C28 1_555 1_555
C29 C28 1_555 1_555
H16 C29 1_555 1_555
H17 C29 1_555 1_555
C30 C25 1_555 1_555
H18 C30 1_555 1_555
C31 N3 1_555 1_555
C32 C31 1_555 1_555
C33 C32 1_555 1_555
H19 C33 1_555 1_555
C34 C33 1_555 1_555
C35 C34 1_555 1_555
C36 N4 1_555 1_555
C37 C34 1_555 1_555
C38 C37 1_555 1_555
H20 C38 1_555 1_555
C39 C32 1_555 1_555
C40 N3 1_555 1_555
C41 N4 1_555 1_555
H21 C41 1_555 1_555
C42 C41 1_555 1_555
H22 C42 1_555 1_555
H23 C42 1_555 1_555
C43 C42 1_555 1_555
H24 C43 1_555 1_555
H25 C43 1_555 1_555
C44 C43 1_555 1_555
H26 C44 1_555 1_555
H27 C44 1_555 1_555
C45 C44 1_555 1_555
H28 C45 1_555 1_555
H29 C45 1_555 1_555
C46 C41 1_555 1_555
H30 C46 1_555 1_555
C47 N5 1_555 1_555
C48 C47 1_555 1_555
C49 C48 1_555 1_555
H31 C49 1_555 1_555
C50 C49 1_555 1_555
C51 C50 1_555 1_555
C52 N6 1_555 1_555
C53 C50 1_555 1_555
C54 C53 1_555 1_555
H32 C54 1_555 1_555
C55 C48 1_555 1_555
C56 N5 1_555 1_555
C57 N6 1_555 1_555
H33 C57 1_555 1_555
C58 C57 1_555 1_555
H34 C58 1_555 1_555
H35 C58 1_555 1_555
C59 C58 1_555 1_555
H36 C59 1_555 1_555
H37 C59 1_555 1_555
C60 C59 1_555 1_555
H38 C60 1_555 1_555
H39 C60 1_555 1_555
C61 C60 1_555 1_555
H40 C61 1_555 1_555
H41 C61 1_555 1_555
C62 N1 1_555 1_555
H42 C62 1_555 1_555
O13 C63 1_555 1_555
O14 C72 1_555 1_555
O15 C73 1_555 1_555
O16 C82 1_555 1_555
O17 C93 1_555 1_555
O18 C97 1_555 1_555
O19 C98 1_555 1_555
O20 C102 1_555 1_555
O21 C109 1_555 1_555
O22 C113 1_555 1_555
O23 C114 1_555 1_555
O24 C118 1_555 1_555
N7 C63 1_555 1_555
N8 C72 1_555 1_555
N9 C97 1_555 1_555
N10 C108 1_555 1_555
N11 C113 1_555 1_555
N12 C92 1_555 1_555
C63 C64 1_555 1_555
C64 C65 1_555 1_555
C65 H43 1_555 1_555
C66 C65 1_555 1_555
H44 C66 1_555 1_555
C67 C66 1_555 1_555
C68 C67 1_555 1_555
C69 C68 1_555 1_555
H45 C69 1_555 1_555
C70 C69 1_555 1_555
H46 C70 1_555 1_555
C71 C70 1_555 1_555
C72 C71 1_555 1_555
C73 N8 1_555 1_555
C74 C73 1_555 1_555
C75 C74 1_555 1_555
H47 C75 1_555 1_555
C76 C75 1_555 1_555
H48 C76 1_555 1_555
C77 C76 1_555 1_555
C78 C77 1_555 1_555
C79 C78 1_555 1_555
H49 C79 1_555 1_555
C80 C79 1_555 1_555
H50 C80 1_555 1_555
C81 C80 1_555 1_555
C82 N7 1_555 1_555
C83 C64 1_555 1_555
C84 C67 1_555 1_555
C85 C68 1_555 1_555
C86 C71 1_555 1_555
C87 N8 1_555 1_555
H51 C87 1_555 1_555
C88 C87 1_555 1_555
H52 C88 1_555 1_555
H53 C88 1_555 1_555
C89 C88 1_555 1_555
H54 C89 1_555 1_555
H55 C89 1_555 1_555
C90 C89 1_555 1_555
H56 C90 1_555 1_555
H57 C90 1_555 1_555
C91 C90 1_555 1_555
H58 C91 1_555 1_555
H59 C91 1_555 1_555
C92 C87 1_555 1_555
H60 C92 1_555 1_555
C93 N12 1_555 1_555
C94 C93 1_555 1_555
C95 C94 1_555 1_555
H61 C95 1_555 1_555
C96 C95 1_555 1_555
C97 C96 1_555 1_555
C98 N9 1_555 1_555
C99 C96 1_555 1_555
C100 C99 1_555 1_555
H62 C100 1_555 1_555
C101 C94 1_555 1_555
C102 N12 1_555 1_555
C103 N9 1_555 1_555
H63 C103 1_555 1_555
C104 C103 1_555 1_555
H64 C104 1_555 1_555
H65 C104 1_555 1_555
C105 C104 1_555 1_555
H66 C105 1_555 1_555
H67 C105 1_555 1_555
C106 C105 1_555 1_555
H68 C106 1_555 1_555
H69 C106 1_555 1_555
C107 C106 1_555 1_555
H70 C107 1_555 1_555
H71 C107 1_555 1_555
C108 C103 1_555 1_555
H72 C108 1_555 1_555
C109 N10 1_555 1_555
C110 C109 1_555 1_555
C111 C110 1_555 1_555
H73 C111 1_555 1_555
C112 C111 1_555 1_555
C113 C112 1_555 1_555
C114 N11 1_555 1_555
C115 C112 1_555 1_555
C116 C115 1_555 1_555
H74 C116 1_555 1_555
C117 C110 1_555 1_555
C118 N10 1_555 1_555
C119 N11 1_555 1_555
H75 C119 1_555 1_555
C120 C119 1_555 1_555
H76 C120 1_555 1_555
H77 C120 1_555 1_555
C121 C120 1_555 1_555
H78 C121 1_555 1_555
H79 C121 1_555 1_555
C122 C121 1_555 1_555
H80 C122 1_555 1_555
H81 C122 1_555 1_555
C123 C122 1_555 1_555
H82 C123 1_555 1_555
H83 C123 1_555 1_555
C124 N7 1_555 1_555
H84 C124 1_555 1_555
Cl1 C125 1_555 1_555
Cl2 C125 1_555 1_555
Cl3 C125 1_555 1_555
C125 H85 1_555 1_555
C12 C24 1_555 1_555
C15 C23 1_555 1_555
C16 C22 1_555 1_555
C19 C20 1_555 1_555
C19 C21 1_555 1_555
C21 C22 1_555 1_555
C23 C24 1_555 1_555
C29 C30 1_555 1_555
C36 C37 1_555 1_555
C38 C39 1_555 1_555
C39 C40 1_555 1_555
C45 C46 1_555 1_555
C52 C53 1_555 1_555
C54 C55 1_555 1_555
C55 C56 1_555 1_555
C57 C62 1_555 1_555
C61 C62 1_555 1_555
C74 C86 1_555 1_555
C77 C85 1_555 1_555
C78 C84 1_555 1_555
C81 C82 1_555 1_555
C81 C83 1_555 1_555
C83 C84 1_555 1_555
C85 C86 1_555 1_555
C91 C92 1_555 1_555
C98 C99 1_555 1_555
C100 C101 1_555 1_555
C101 C102 1_555 1_555
C107 C108 1_555 1_555
C114 C115 1_555 1_555
C116 C117 1_555 1_555
C117 C118 1_555 1_555
C119 C124 1_555 1_555
C123 C124 1_555 1_555

#END
