
#######################################################################
#
#                 Cambridge Crystallographic Data Centre
#                                CCDC 
#
#######################################################################
#
# If this CIF has been generated from an entry in the Cambridge 
# Structural Database, then it will include bibliographic, chemical, 
# crystal, experimental, refinement or atomic coordinate data resulting 
# from the CCDC's data processing and validation procedures.
#
#######################################################################

data_FOBREU
_chemical_formula_moiety         'C10 H16 O3'
_chemical_name_systematic        
'(+)-(\aS,1S,4R)-\a,4-Dimethyl-2-oxocyclohexaneacetic acid'
_symmetry_cell_setting           orthorhombic
_symmetry_space_group_name_H-M   'P 21 21 2'
_symmetry_Int_Tables_number      18
_space_group_name_Hall           'P 2 2ab'
loop_
_symmetry_equiv_pos_site_id
_symmetry_equiv_pos_as_xyz
1 x,y,z
2 -x,-y,z
3 1/2-x,1/2+y,-z
4 1/2+x,1/2-y,-z
_cell_length_a                   16.740(5)
_cell_length_b                   19.173(5)
_cell_length_c                   6.632(2)
_cell_angle_alpha                90
_cell_angle_beta                 90
_cell_angle_gamma                90
_cell_volume                     2128.58
_exptl_crystal_colour            colorless
_exptl_crystal_description       'hexagonal plate'
_chemical_melting_point          '368 K'
_cell_formula_units_Z            8
_exptl_crystal_recrystallization_method 'diethyl ether'
loop_
_atom_site_label
_atom_site_type_symbol
_atom_site_fract_x
_atom_site_fract_y
_atom_site_fract_z
O1 O 0.1428(2) 0.7014(2) 0.7865(5)
O2 O 0.30444(19) 0.63497(18) 0.6320(5)
H1 H 0.3424 0.6345 0.7102
O3 O 0.3225(2) 0.74901(18) 0.6682(5)
C1 C 0.1519(3) 0.6602(3) 0.4477(7)
H5 H 0.1731 0.6127 0.4345
C3 C 0.1142(3) 0.6667(3) 0.6540(8)
C5 C 0.0359(3) 0.6272(3) 0.6828(7)
H7 H 0.0126 0.6405 0.8111
H8 H 0.0470 0.5776 0.6875
C7 C -0.0243(3) 0.6415(3) 0.5154(7)
H11 H -0.0381 0.6912 0.5191
C9 C 0.0151(3) 0.6263(3) 0.3151(7)
H13 H -0.0227 0.6353 0.2072
H14 H 0.0297 0.5774 0.3096
C11 C 0.0894(3) 0.6709(2) 0.2829(7)
H17 H 0.0741 0.7197 0.2797
H18 H 0.1128 0.6594 0.1533
C13 C 0.2227(3) 0.7115(3) 0.4338(7)
H21 H 0.2015 0.7584 0.4574
C15 C 0.2859(3) 0.6981(3) 0.5912(8)
C17 C 0.2636(3) 0.7119(3) 0.2268(8)
H23 H 0.2246 0.7211 0.1240
H24 H 0.2879 0.6673 0.2028
H25 H 0.3038 0.7476 0.2242
C19 C -0.1018(3) 0.5991(3) 0.5447(9)
H32 H -0.1388 0.6103 0.4390
H33 H -0.1251 0.6105 0.6728
H34 H -0.0896 0.5502 0.5404
O4 O 0.6061(2) 0.64804(18) 0.7705(5)
O5 O 0.4392(2) 0.72680(18) 0.9278(5)
H3 H 0.4027 0.7262 0.8454
O6 O 0.4279(2) 0.61107(17) 0.8870(5)
C2 C 0.5801(3) 0.5931(2) 1.0860(7)
H6 H 0.5482 0.5503 1.0772
C4 C 0.6242(3) 0.6020(3) 0.8874(8)
C6 C 0.6889(3) 0.5503(3) 0.8450(7)
H9 H 0.7177 0.5649 0.7254
H10 H 0.6646 0.5054 0.8162
C8 C 0.7481(3) 0.5416(3) 1.0180(9)
H12 H 0.7762 0.5861 1.0348
C10 C 0.7029(3) 0.5272(3) 1.2107(8)
H15 H 0.7404 0.5244 1.3218
H16 H 0.6761 0.4825 1.1997
C12 C 0.6413(3) 0.5835(3) 1.2561(8)
H19 H 0.6686 0.6274 1.2787
H20 H 0.6132 0.5714 1.3793
C14 C 0.5229(3) 0.6537(3) 1.1272(7)
H22 H 0.5550 0.6964 1.1340
C16 C 0.4606(3) 0.6645(4) 0.9673(8)
C18 C 0.4794(3) 0.6461(3) 1.3304(7)
H26 H 0.5172 0.6504 1.4385
H27 H 0.4542 0.6011 1.3370
H28 H 0.4396 0.6819 1.3424
C20 C 0.8106(3) 0.4856(3) 0.9744(8)
H35 H 0.8466 0.4821 1.0865
H36 H 0.8400 0.4980 0.8553
H37 H 0.7846 0.4416 0.9538
H2? H 0.3569 0.7345 0.7456
H4? H 0.3915 0.6236 0.8129
H29? H 0.4235 0.6385 1.3068
H30? H 0.4865 0.6878 1.4083
H31? H 0.5011 0.6071 1.4028
loop_
_geom_bond_atom_site_label_1
_geom_bond_atom_site_label_2
_geom_bond_site_symmetry_1
_geom_bond_site_symmetry_2
O1 C3 1_555 1_555
O2 H1 1_555 1_555
O3 C15 1_555 1_555
O4 C4 1_555 1_555
O5 H3 1_555 1_555
O6 C16 1_555 1_555
C1 H5 1_555 1_555
C2 H6 1_555 1_555
C3 C1 1_555 1_555
C4 C2 1_555 1_555
C5 C3 1_555 1_555
H7 C5 1_555 1_555
H8 C5 1_555 1_555
C6 C4 1_555 1_555
H9 C6 1_555 1_555
H10 C6 1_555 1_555
C7 C5 1_555 1_555
H11 C7 1_555 1_555
C8 C6 1_555 1_555
H12 C8 1_555 1_555
C9 C7 1_555 1_555
H13 C9 1_555 1_555
H14 C9 1_555 1_555
C10 C8 1_555 1_555
H15 C10 1_555 1_555
H16 C10 1_555 1_555
C11 C1 1_555 1_555
H17 C11 1_555 1_555
H18 C11 1_555 1_555
C12 C2 1_555 1_555
H19 C12 1_555 1_555
H20 C12 1_555 1_555
C13 C1 1_555 1_555
H21 C13 1_555 1_555
C14 C2 1_555 1_555
H22 C14 1_555 1_555
C15 O2 1_555 1_555
C16 O5 1_555 1_555
C17 C13 1_555 1_555
H23 C17 1_555 1_555
H24 C17 1_555 1_555
H25 C17 1_555 1_555
C18 C14 1_555 1_555
H26 C18 1_555 1_555
H27 C18 1_555 1_555
H28 C18 1_555 1_555
C19 C7 1_555 1_555
H32 C19 1_555 1_555
H33 C19 1_555 1_555
H34 C19 1_555 1_555
C20 C8 1_555 1_555
H35 C20 1_555 1_555
H36 C20 1_555 1_555
H37 C20 1_555 1_555
C9 C11 1_555 1_555
C10 C12 1_555 1_555
C13 C15 1_555 1_555
C14 C16 1_555 1_555

#END
