
#######################################################################
#
#                 Cambridge Crystallographic Data Centre
#                                CCDC 
#
#######################################################################
#
# If this CIF has been generated from an entry in the Cambridge 
# Structural Database, then it will include bibliographic, chemical, 
# crystal, experimental, refinement or atomic coordinate data resulting 
# from the CCDC's data processing and validation procedures.
#
#######################################################################

data_FOBRUM
_chemical_formula_moiety         'C62 H42 N6 O12'
_chemical_name_systematic        
\D-(-)-2,9-(2,2'-{cyclohexane-1,2-diylbis[(1,3,5,7-tetraoxo-5,7-dihydropyrrolo[3,4-f]isoindole-6,2(1H,3H)-diyl)]}bis(cyclohexyl))-isoquinolino[4',5',6':6,5,10]anthra[2,1,9-def]isoquinoline-1,3,8,10(2H,9H)-tetrone
_symmetry_cell_setting           orthorhombic
_symmetry_space_group_name_H-M   'P 21 21 2'
_symmetry_Int_Tables_number      18
_space_group_name_Hall           'P 2 2ab'
loop_
_symmetry_equiv_pos_site_id
_symmetry_equiv_pos_as_xyz
1 x,y,z
2 -x,-y,z
3 1/2-x,1/2+y,-z
4 1/2+x,1/2-y,-z
_cell_length_a                   30.3071(18)
_cell_length_b                   32.069(2)
_cell_length_c                   12.6054(8)
_cell_angle_alpha                90
_cell_angle_beta                 90
_cell_angle_gamma                90
_cell_volume                     12251.4
_exptl_crystal_colour            red
_exptl_crystal_description       needle
_cell_formula_units_Z            8
_exptl_crystal_recrystallization_method 
'The material was recrystallised from --- by as supplied'
_exptl_crystal_preparation       Luminescent
loop_
_atom_site_label
_atom_site_type_symbol
_atom_site_fract_x
_atom_site_fract_y
_atom_site_fract_z
O1 O 0.1288(2) 0.1325(2) 1.0803(9)
O2 O 0.3955(2) 0.3810(2) 1.0609(10)
O3 O 0.3098(2) 0.4632(2) 1.2672(7)
O4 O 0.0493(2) 0.2132(2) 1.3024(7)
O5 O 0.3558(3) 0.4372(3) 0.8808(9)
O6 O 0.2197(3) 0.3731(3) 0.5767(9)
O7 O 0.1159(3) 0.4552(3) 0.7381(10)
O8 O 0.2502(3) 0.5133(3) 1.0517(9)
O9 O 0.1221(4) 0.3031(3) 0.5723(8)
O10 O 0.0885(5) 0.1543(3) 0.8485(10)
O11 O -0.0036(3) 0.2321(3) 1.0557(9)
O12 O 0.0301(4) 0.3806(3) 0.7785(11)
N1 N 0.0850(2) 0.1776(2) 1.1716(7)
N2 N 0.3491(2) 0.4245(2) 1.1482(7)
N3 N 0.3111(3) 0.4771(2) 0.9901(7)
N4 N 0.1587(3) 0.4083(3) 0.6426(8)
N5 N 0.0803(3) 0.3518(3) 0.6605(8)
N6 N 0.0409(3) 0.1843(3) 0.9704(7)
C1 C 0.1252(3) 0.1664(3) 1.1251(9)
C2 C 0.1612(3) 0.1961(3) 1.1268(8)
C3 C 0.1987(3) 0.1901(3) 1.0665(9)
H1 H 0.201160 0.165916 1.023404
C4 C 0.2329(3) 0.2190(3) 1.0682(8)
H2 H 0.258484 0.213875 1.026812
C5 C 0.2306(3) 0.2560(3) 1.1301(7)
C6 C 0.2653(3) 0.2871(3) 1.1290(8)
C7 C 0.3034(3) 0.2824(3) 1.0701(9)
H3 H 0.308169 0.257283 1.032019
C8 C 0.3355(3) 0.3143(3) 1.0655(9)
H4 H 0.361746 0.310179 1.025613
C9 C 0.3288(3) 0.3518(3) 1.1192(8)
C10 C 0.3607(3) 0.3854(3) 1.1070(10)
C11 C 0.3149(3) 0.4299(3) 1.2208(8)
C12 C 0.2849(3) 0.3948(3) 1.2380(8)
C13 C 0.2495(3) 0.3982(3) 1.3068(9)
H5 H 0.246457 0.422501 1.349185
C14 C 0.2189(3) 0.3671(3) 1.3147(9)
H6 H 0.194815 0.370682 1.362044
C15 C 0.2217(3) 0.3304(3) 1.2560(7)
C16 C 0.1880(3) 0.2980(3) 1.2613(7)
C17 C 0.1520(3) 0.3003(3) 1.3269(9)
H7 H 0.150153 0.322887 1.375377
C18 C 0.1184(3) 0.2713(3) 1.3262(9)
H8 H 0.094204 0.274078 1.373687
C19 C 0.1201(3) 0.2378(3) 1.2550(8)
C20 C 0.0822(3) 0.2099(3) 1.2475(8)
C21 C 0.1576(3) 0.2330(3) 1.1935(8)
C22 C 0.1926(3) 0.2619(3) 1.1938(7)
C23 C 0.2589(3) 0.3247(3) 1.1897(7)
C24 C 0.2910(3) 0.3566(3) 1.1825(7)
C25 C 0.3741(3) 0.4605(3) 1.1096(10)
H9 H 0.393026 0.450093 1.050216
C26 C 0.4053(4) 0.4800(4) 1.1904(11)
H10 H 0.388021 0.492773 1.248553
H11 H 0.424448 0.458127 1.221332
C27 C 0.4337(4) 0.5131(4) 1.1373(14)
H12 H 0.454220 0.525380 1.189960
H13 H 0.451562 0.500235 1.080207
C28 C 0.4051(5) 0.5468(4) 1.0913(14)
H14 H 0.423887 0.568061 1.056556
H15 H 0.388497 0.560668 1.149084
C29 C 0.3718(5) 0.5284(4) 1.0083(11)
H16 H 0.352500 0.550882 0.980845
H17 H 0.388197 0.516284 0.947749
C30 C 0.3441(3) 0.4950(3) 1.0616(9)
H18 H 0.327865 0.508454 1.121640
C31 C 0.3201(4) 0.4509(3) 0.9047(9)
C32 C 0.2767(3) 0.4432(3) 0.8508(9)
C33 C 0.2685(4) 0.4188(4) 0.7626(9)
H19 H 0.290751 0.403388 0.726711
C34 C 0.2246(3) 0.4189(3) 0.7316(9)
C35 C 0.2025(3) 0.3970(4) 0.6413(9)
C36 C 0.1504(4) 0.4381(4) 0.7225(11)
C37 C 0.1928(4) 0.4429(4) 0.7809(10)
C38 C 0.2018(4) 0.4672(4) 0.8691(11)
H20 H 0.179917 0.483199 0.904476
C39 C 0.2453(3) 0.4660(3) 0.9010(9)
C40 C 0.2669(4) 0.4892(3) 0.9885(10)
C41 C 0.1288(4) 0.3985(3) 0.5544(9)
H21 H 0.141167 0.373569 0.517178
C42 C 0.1282(5) 0.4343(4) 0.4748(13)
H22 H 0.116995 0.459698 0.510124
H23 H 0.158792 0.439963 0.451005
C43 C 0.1000(6) 0.4249(5) 0.3793(13)
H24 H 0.112406 0.400923 0.340107
H25 H 0.099717 0.449343 0.331224
C44 C 0.0524(6) 0.4148(5) 0.4149(13)
H26 H 0.039269 0.439294 0.450867
H27 H 0.034002 0.407985 0.352320
C45 C 0.0537(4) 0.3779(4) 0.4903(13)
H28 H 0.066109 0.353444 0.452989
H29 H 0.023234 0.370903 0.512474
C46 C 0.0818(4) 0.3874(3) 0.5897(10)
H30 H 0.068835 0.411976 0.627086
C47 C 0.0980(4) 0.3127(4) 0.6445(10)
C48 C 0.0804(2) 0.2858(2) 0.7281(5)
C49 C 0.0527(2) 0.30966(16) 0.7916(6)
C50 C 0.0320(2) 0.29172(19) 0.8787(6)
H31 H 0.013033 0.308047 0.922155
C51 C 0.0389(2) 0.2499(2) 0.9023(5)
C52 C 0.0666(2) 0.22600(15) 0.8388(5)
C53 C 0.0873(2) 0.24394(19) 0.7517(5)
H32 H 0.106251 0.227611 0.708302
C54 C 0.0676(4) 0.1845(4) 0.8813(10)
C55 C 0.0218(3) 0.2234(4) 0.9873(10)
C56 C 0.0517(4) 0.3512(3) 0.7501(11)
C57 C 0.0351(3) 0.1460(3) 1.0339(8)
H33 H 0.056461 0.124672 1.007490
C58 C -0.0111(4) 0.1280(4) 1.0246(10)
H34 H -0.032649 0.147532 1.056570
H35 H -0.018808 0.124463 0.948784
C59 C -0.0138(4) 0.0863(4) 1.0803(13)
H36 H 0.006065 0.066205 1.044786
H37 H -0.044307 0.075434 1.075455
C60 C -0.0005(4) 0.0905(4) 1.1981(11)
H38 H -0.022908 0.107407 1.235930
H39 H 0.000192 0.062515 1.231195
C61 C 0.0446(3) 0.1111(3) 1.2095(10)
H40 H 0.067559 0.092941 1.177900
H41 H 0.051642 0.114969 1.285549
C62 C 0.0444(3) 0.1535(3) 1.1531(8)
H42 H 0.019183 0.169965 1.182490
O13 O 0.1171(2) 0.1020(2) 0.4370(7)
O14 O 0.3671(2) 0.3668(2) 0.4437(11)
O15 O 0.4585(2) 0.2871(3) 0.2458(7)
O16 O 0.2031(2) 0.0327(2) 0.2042(7)
O17 O 0.4358(3) 0.3400(2) 0.6293(9)
O18 O 0.3745(3) 0.2084(3) 0.9410(9)
O19 O 0.4638(4) 0.1138(3) 0.7779(11)
O20 O 0.5182(3) 0.2415(3) 0.4584(8)
O21 O 0.3007(3) 0.1135(3) 0.9331(7)
O22 O 0.1447(3) 0.0668(3) 0.6653(7)
O23 O 0.2336(3) -0.0127(3) 0.4521(9)
O24 O 0.3885(3) 0.0310(3) 0.7282(12)
N7 N 0.1655(2) 0.0634(2) 0.3388(7)
N8 N 0.4156(2) 0.3236(2) 0.3630(7)
N9 N 0.4130(3) 0.1526(3) 0.8730(8)
N10 N 0.3552(3) 0.0766(3) 0.8422(8)
N11 N 0.1801(3) 0.0263(2) 0.5402(7)
N12 N 0.4784(2) 0.2976(3) 0.5209(7)
C63 C 0.1519(3) 0.1009(3) 0.3871(8)
C64 C 0.1816(3) 0.1360(3) 0.3807(8)
C65 C 0.1736(3) 0.1719(3) 0.4434(9)
H43 H 0.147752 0.173528 0.485767
C66 C 0.2033(3) 0.2046(3) 0.4433(9)
H44 H 0.197132 0.228200 0.486428
C67 C 0.2417(3) 0.2048(3) 0.3835(8)
C68 C 0.2740(3) 0.2381(3) 0.3842(8)
C69 C 0.2685(3) 0.2748(3) 0.4469(9)
H45 H 0.242362 0.278289 0.487494
C70 C 0.3004(3) 0.3050(3) 0.4494(10)
H46 H 0.295198 0.329613 0.489399
C71 C 0.3394(3) 0.3010(3) 0.3965(8)
C72 C 0.3743(3) 0.3331(3) 0.4007(10)
C73 C 0.4233(3) 0.2905(3) 0.2909(9)
C74 C 0.3866(3) 0.2610(3) 0.2770(9)
C75 C 0.3929(3) 0.2270(4) 0.2070(10)
H47 H 0.419340 0.224418 0.166838
C76 C 0.3598(3) 0.1976(3) 0.1985(10)
H48 H 0.363869 0.175066 0.150657
C77 C 0.3214(3) 0.1993(3) 0.2554(8)
C78 C 0.2878(3) 0.1666(3) 0.2500(8)
C79 C 0.2916(3) 0.1327(3) 0.1802(9)
H49 H 0.315120 0.132245 0.130530
C80 C 0.2617(3) 0.0998(3) 0.1820(10)
H50 H 0.265563 0.077047 0.134628
C81 C 0.2271(3) 0.0998(3) 0.2506(8)
C82 C 0.1976(3) 0.0635(3) 0.2607(8)
C83 C 0.2195(3) 0.1354(3) 0.3169(7)
C84 C 0.2500(3) 0.1685(3) 0.3161(8)
C85 C 0.3138(3) 0.2340(3) 0.3248(8)
C86 C 0.3472(3) 0.2648(3) 0.3320(8)
C87 C 0.4528(3) 0.3517(3) 0.3901(9)
H51 H 0.441731 0.371358 0.445639
C88 C 0.4685(4) 0.3779(4) 0.2992(12)
H52 H 0.443140 0.392464 0.266204
H53 H 0.482376 0.359957 0.244717
C89 C 0.5020(5) 0.4099(4) 0.3397(13)
H54 H 0.512864 0.426952 0.279599
H55 H 0.487512 0.428855 0.391058
C90 C 0.5394(4) 0.3891(5) 0.3912(12)
H56 H 0.559734 0.410444 0.420026
H57 H 0.555786 0.372678 0.337579
C91 C 0.5247(4) 0.3600(4) 0.4816(10)
H58 H 0.550671 0.345227 0.511142
H59 H 0.511016 0.376498 0.539134
C92 C 0.4915(3) 0.3283(3) 0.4384(8)
H60 H 0.506340 0.312553 0.379951
C93 C 0.4515(3) 0.3056(3) 0.6087(9)
C94 C 0.4459(3) 0.2660(3) 0.6647(9)
C95 C 0.4209(4) 0.2563(3) 0.7543(9)
H61 H 0.403645 0.276614 0.789996
C96 C 0.4229(3) 0.2159(3) 0.7874(8)
C97 C 0.3992(4) 0.1940(3) 0.8757(9)
C98 C 0.4449(4) 0.1461(3) 0.7956(10)
C99 C 0.4488(3) 0.1852(4) 0.7366(11)
C100 C 0.4742(4) 0.1949(4) 0.6485(11)
H62 H 0.492072 0.174887 0.613468
C101 C 0.4715(3) 0.2363(3) 0.6150(9)
C102 C 0.4928(3) 0.2565(3) 0.5227(10)
C103 C 0.4018(3) 0.1227(3) 0.9584(9)
H63 H 0.374696 0.133413 0.994369
C104 C 0.4384(4) 0.1227(4) 1.0398(12)
H64 H 0.442614 0.151276 1.067395
H65 H 0.466259 0.113685 1.005888
C105 C 0.4271(5) 0.0925(5) 1.1341(12)
H66 H 0.452187 0.091471 1.184205
H67 H 0.400958 0.103089 1.172793
C106 C 0.4177(5) 0.0491(5) 1.0927(14)
H68 H 0.409041 0.030859 1.152533
H69 H 0.444755 0.037513 1.060386
C107 C 0.3811(4) 0.0497(4) 1.0111(11)
H70 H 0.353400 0.059087 1.045319
H71 H 0.376303 0.021054 0.984290
C108 C 0.3914(3) 0.0782(3) 0.9183(9)
H72 H 0.418401 0.067262 0.882437
C109 C 0.3124(3) 0.0913(4) 0.8582(9)
C110 C 0.2849(3) 0.0737(3) 0.7730(9)
C111 C 0.2395(3) 0.0775(3) 0.7574(9)
H73 H 0.221068 0.093735 0.802334
C112 C 0.2233(3) 0.0553(3) 0.6697(9)
C113 C 0.1780(3) 0.0521(3) 0.6305(9)
C114 C 0.2222(4) 0.0115(3) 0.5230(10)
C115 C 0.2503(3) 0.0308(3) 0.6045(10)
C116 C 0.2952(4) 0.0266(4) 0.6243(10)
H74 H 0.313437 0.009297 0.581702
C117 C 0.3119(3) 0.0487(3) 0.7087(10)
C118 C 0.3564(4) 0.0500(3) 0.7536(11)
C119 C 0.1398(3) 0.0149(3) 0.4813(8)
H75 H 0.115156 0.032568 0.509150
C120 C 0.1264(4) -0.0316(3) 0.4972(11)
H76 H 0.148978 -0.050129 0.465475
H77 H 0.124119 -0.038062 0.573761
C121 C 0.0818(5) -0.0383(4) 0.4428(13)
H78 H 0.059047 -0.021809 0.480412
H79 H 0.073581 -0.068088 0.448435
C122 C 0.0821(5) -0.0257(5) 0.3254(13)
H80 H 0.101295 -0.045072 0.285323
H81 H 0.051866 -0.027966 0.296440
C123 C 0.0985(4) 0.0180(4) 0.3108(11)
H82 H 0.077412 0.037662 0.343879
H83 H 0.100084 0.024405 0.234139
C124 C 0.1439(3) 0.0237(3) 0.3607(8)
H84 H 0.163345 0.001369 0.330687
loop_
_geom_bond_atom_site_label_1
_geom_bond_atom_site_label_2
_geom_bond_site_symmetry_1
_geom_bond_site_symmetry_2
O1 C1 1_555 1_555
O2 C10 1_555 1_555
O3 C11 1_555 1_555
O4 C20 1_555 1_555
O5 C31 1_555 1_555
O6 C35 1_555 1_555
O7 C36 1_555 1_555
O8 C40 1_555 1_555
O9 C47 1_555 1_555
O10 C54 1_555 1_555
O11 C55 1_555 1_555
O12 C56 1_555 1_555
N1 C1 1_555 1_555
N2 C10 1_555 1_555
N3 C30 1_555 1_555
N4 C35 1_555 1_555
N5 C46 1_555 1_555
N6 C54 1_555 1_555
C1 C2 1_555 1_555
C2 C3 1_555 1_555
C3 H1 1_555 1_555
C4 C3 1_555 1_555
H2 C4 1_555 1_555
C5 C4 1_555 1_555
C6 C5 1_555 1_555
C7 C6 1_555 1_555
H3 C7 1_555 1_555
C8 C7 1_555 1_555
H4 C8 1_555 1_555
C9 C8 1_555 1_555
C10 C9 1_555 1_555
C11 N2 1_555 1_555
C12 C11 1_555 1_555
C13 C12 1_555 1_555
H5 C13 1_555 1_555
C14 C13 1_555 1_555
H6 C14 1_555 1_555
C15 C14 1_555 1_555
C16 C15 1_555 1_555
C17 C16 1_555 1_555
H7 C17 1_555 1_555
C18 C17 1_555 1_555
H8 C18 1_555 1_555
C19 C18 1_555 1_555
C20 N1 1_555 1_555
C21 C2 1_555 1_555
C22 C5 1_555 1_555
C23 C6 1_555 1_555
C24 C9 1_555 1_555
C25 N2 1_555 1_555
H9 C25 1_555 1_555
C26 C25 1_555 1_555
H10 C26 1_555 1_555
H11 C26 1_555 1_555
C27 C26 1_555 1_555
H12 C27 1_555 1_555
H13 C27 1_555 1_555
C28 C27 1_555 1_555
H14 C28 1_555 1_555
H15 C28 1_555 1_555
C29 C28 1_555 1_555
H16 C29 1_555 1_555
H17 C29 1_555 1_555
C30 C25 1_555 1_555
H18 C30 1_555 1_555
C31 N3 1_555 1_555
C32 C31 1_555 1_555
C33 C32 1_555 1_555
H19 C33 1_555 1_555
C34 C33 1_555 1_555
C35 C34 1_555 1_555
C36 N4 1_555 1_555
C37 C34 1_555 1_555
C38 C37 1_555 1_555
H20 C38 1_555 1_555
C39 C32 1_555 1_555
C40 N3 1_555 1_555
C41 N4 1_555 1_555
H21 C41 1_555 1_555
C42 C41 1_555 1_555
H22 C42 1_555 1_555
H23 C42 1_555 1_555
C43 C42 1_555 1_555
H24 C43 1_555 1_555
H25 C43 1_555 1_555
C44 C43 1_555 1_555
H26 C44 1_555 1_555
H27 C44 1_555 1_555
C45 C44 1_555 1_555
H28 C45 1_555 1_555
H29 C45 1_555 1_555
C46 C41 1_555 1_555
H30 C46 1_555 1_555
C47 N5 1_555 1_555
C48 C47 1_555 1_555
C49 C48 1_555 1_555
C50 C49 1_555 1_555
H31 C50 1_555 1_555
C51 C50 1_555 1_555
C52 C51 1_555 1_555
C53 C48 1_555 1_555
H32 C53 1_555 1_555
C54 C52 1_555 1_555
C55 N6 1_555 1_555
C56 N5 1_555 1_555
C57 N6 1_555 1_555
H33 C57 1_555 1_555
C58 C57 1_555 1_555
H34 C58 1_555 1_555
H35 C58 1_555 1_555
C59 C58 1_555 1_555
H36 C59 1_555 1_555
H37 C59 1_555 1_555
C60 C59 1_555 1_555
H38 C60 1_555 1_555
H39 C60 1_555 1_555
C61 C60 1_555 1_555
H40 C61 1_555 1_555
H41 C61 1_555 1_555
C62 N1 1_555 1_555
H42 C62 1_555 1_555
O13 C63 1_555 1_555
O14 C72 1_555 1_555
O15 C73 1_555 1_555
O16 C82 1_555 1_555
O17 C93 1_555 1_555
O18 C97 1_555 1_555
O19 C98 1_555 1_555
O20 C102 1_555 1_555
O21 C109 1_555 1_555
O22 C113 1_555 1_555
O23 C114 1_555 1_555
O24 C118 1_555 1_555
N7 C63 1_555 1_555
N8 C72 1_555 1_555
N9 C97 1_555 1_555
N10 C108 1_555 1_555
N11 C113 1_555 1_555
N12 C92 1_555 1_555
C63 C64 1_555 1_555
C64 C65 1_555 1_555
C65 H43 1_555 1_555
C66 C65 1_555 1_555
H44 C66 1_555 1_555
C67 C66 1_555 1_555
C68 C67 1_555 1_555
C69 C68 1_555 1_555
H45 C69 1_555 1_555
C70 C69 1_555 1_555
H46 C70 1_555 1_555
C71 C70 1_555 1_555
C72 C71 1_555 1_555
C73 N8 1_555 1_555
C74 C73 1_555 1_555
C75 C74 1_555 1_555
H47 C75 1_555 1_555
C76 C75 1_555 1_555
H48 C76 1_555 1_555
C77 C76 1_555 1_555
C78 C77 1_555 1_555
C79 C78 1_555 1_555
H49 C79 1_555 1_555
C80 C79 1_555 1_555
H50 C80 1_555 1_555
C81 C80 1_555 1_555
C82 N7 1_555 1_555
C83 C64 1_555 1_555
C84 C67 1_555 1_555
C85 C68 1_555 1_555
C86 C71 1_555 1_555
C87 N8 1_555 1_555
H51 C87 1_555 1_555
C88 C87 1_555 1_555
H52 C88 1_555 1_555
H53 C88 1_555 1_555
C89 C88 1_555 1_555
H54 C89 1_555 1_555
H55 C89 1_555 1_555
C90 C89 1_555 1_555
H56 C90 1_555 1_555
H57 C90 1_555 1_555
C91 C90 1_555 1_555
H58 C91 1_555 1_555
H59 C91 1_555 1_555
C92 C87 1_555 1_555
H60 C92 1_555 1_555
C93 N12 1_555 1_555
C94 C93 1_555 1_555
C95 C94 1_555 1_555
H61 C95 1_555 1_555
C96 C95 1_555 1_555
C97 C96 1_555 1_555
C98 N9 1_555 1_555
C99 C96 1_555 1_555
C100 C99 1_555 1_555
H62 C100 1_555 1_555
C101 C94 1_555 1_555
C102 N12 1_555 1_555
C103 N9 1_555 1_555
H63 C103 1_555 1_555
C104 C103 1_555 1_555
H64 C104 1_555 1_555
H65 C104 1_555 1_555
C105 C104 1_555 1_555
H66 C105 1_555 1_555
H67 C105 1_555 1_555
C106 C105 1_555 1_555
H68 C106 1_555 1_555
H69 C106 1_555 1_555
C107 C106 1_555 1_555
H70 C107 1_555 1_555
H71 C107 1_555 1_555
C108 C103 1_555 1_555
H72 C108 1_555 1_555
C109 N10 1_555 1_555
C110 C109 1_555 1_555
C111 C110 1_555 1_555
H73 C111 1_555 1_555
C112 C111 1_555 1_555
C113 C112 1_555 1_555
C114 N11 1_555 1_555
C115 C112 1_555 1_555
C116 C115 1_555 1_555
H74 C116 1_555 1_555
C117 C110 1_555 1_555
C118 N10 1_555 1_555
C119 N11 1_555 1_555
H75 C119 1_555 1_555
C120 C119 1_555 1_555
H76 C120 1_555 1_555
H77 C120 1_555 1_555
C121 C120 1_555 1_555
H78 C121 1_555 1_555
H79 C121 1_555 1_555
C122 C121 1_555 1_555
H80 C122 1_555 1_555
H81 C122 1_555 1_555
C123 C122 1_555 1_555
H82 C123 1_555 1_555
H83 C123 1_555 1_555
C124 N7 1_555 1_555
H84 C124 1_555 1_555
C12 C24 1_555 1_555
C15 C23 1_555 1_555
C16 C22 1_555 1_555
C19 C20 1_555 1_555
C19 C21 1_555 1_555
C21 C22 1_555 1_555
C23 C24 1_555 1_555
C29 C30 1_555 1_555
C36 C37 1_555 1_555
C38 C39 1_555 1_555
C39 C40 1_555 1_555
C45 C46 1_555 1_555
C49 C56 1_555 1_555
C51 C55 1_555 1_555
C52 C53 1_555 1_555
C57 C62 1_555 1_555
C61 C62 1_555 1_555
C74 C86 1_555 1_555
C77 C85 1_555 1_555
C78 C84 1_555 1_555
C81 C82 1_555 1_555
C81 C83 1_555 1_555
C83 C84 1_555 1_555
C85 C86 1_555 1_555
C91 C92 1_555 1_555
C98 C99 1_555 1_555
C100 C101 1_555 1_555
C101 C102 1_555 1_555
C107 C108 1_555 1_555
C114 C115 1_555 1_555
C116 C117 1_555 1_555
C117 C118 1_555 1_555
C119 C124 1_555 1_555
C123 C124 1_555 1_555

#END
