
#######################################################################
#
#                 Cambridge Crystallographic Data Centre
#                                CCDC 
#
#######################################################################
#
# If this CIF has been generated from an entry in the Cambridge 
# Structural Database, then it will include bibliographic, chemical, 
# crystal, experimental, refinement or atomic coordinate data resulting 
# from the CCDC's data processing and validation procedures.
#
#######################################################################

data_FOBRIY
_chemical_formula_moiety         'C10 H16 O3'
_chemical_name_systematic        
(+)-(3R,3aR,6R,7aR)-2,3,3a,4,5,6,7,7a-Octahydro-7a-hydroxy-3,6-dimethylbenzo(b)furan-2-one
_symmetry_cell_setting           orthorhombic
_symmetry_space_group_name_H-M   'P 21 21 21'
_symmetry_Int_Tables_number      19
_space_group_name_Hall           'P 2ac 2ab'
loop_
_symmetry_equiv_pos_site_id
_symmetry_equiv_pos_as_xyz
1 x,y,z
2 1/2-x,-y,1/2+z
3 -x,1/2+y,1/2-z
4 1/2+x,1/2-y,-z
_cell_length_a                   6.728(2)
_cell_length_b                   7.455(2)
_cell_length_c                   19.829(5)
_cell_angle_alpha                90
_cell_angle_beta                 90
_cell_angle_gamma                90
_cell_volume                     994.568
_exptl_crystal_colour            colorless
_exptl_crystal_description       plate
_chemical_melting_point          '416 K'
_cell_formula_units_Z            4
_exptl_crystal_recrystallization_method 'ethyl acetate'
loop_
_atom_site_label
_atom_site_type_symbol
_atom_site_fract_x
_atom_site_fract_y
_atom_site_fract_z
O1 O 1.0040(3) 0.4090(3) 0.90047(9)
H1 H 0.9912 0.4977 0.8764
O2 O 1.0684(3) 0.1830(3) 0.69521(8)
O3 O 1.0882(2) 0.2507(3) 0.80387(8)
C1 C 0.7475(3) 0.2602(4) 0.83246(12)
H2 H 0.7193 0.3849 0.8200
C2 C 0.9551(4) 0.2566(4) 0.86408(12)
C3 C 0.9971(4) 0.0929(4) 0.90651(12)
H3 H 1.1220 0.1101 0.9301
H4 H 1.0121 -0.0101 0.8771
C4 C 0.8343(4) 0.0534(4) 0.95806(12)
H5 H 0.8233 0.1564 0.9885
C5 C 0.6370(4) 0.0322(4) 0.92048(13)
H6 H 0.6461 -0.0690 0.8899
H7 H 0.5321 0.0072 0.9527
C6 C 0.5847(4) 0.2005(4) 0.88068(13)
H8 H 0.4643 0.1782 0.8551
H9 H 0.5573 0.2971 0.9121
C7 C 0.7743(4) 0.1558(4) 0.76743(13)
H10 H 0.7635 0.0277 0.7780
C8 C 0.9874(4) 0.1950(3) 0.75016(15)
C9 C 0.6306(4) 0.1972(5) 0.71059(13)
H11 H 0.4977 0.1688 0.7246
H12 H 0.6645 0.1266 0.6718
H13 H 0.6387 0.3222 0.6994
C10 C 0.8832(5) -0.1111(4) 0.99959(13)
H14 H 1.0074 -0.0932 1.0224
H15 H 0.8930 -0.2136 0.9705
H16 H 0.7800 -0.1307 1.0322
loop_
_geom_bond_atom_site_label_1
_geom_bond_atom_site_label_2
_geom_bond_site_symmetry_1
_geom_bond_site_symmetry_2
O1 H1 1_555 1_555
O2 C8 1_555 1_555
O3 C2 1_555 1_555
C1 H2 1_555 1_555
C2 O1 1_555 1_555
C3 C2 1_555 1_555
H3 C3 1_555 1_555
H4 C3 1_555 1_555
C4 C3 1_555 1_555
H5 C4 1_555 1_555
C5 C4 1_555 1_555
H6 C5 1_555 1_555
H7 C5 1_555 1_555
C6 C1 1_555 1_555
H8 C6 1_555 1_555
H9 C6 1_555 1_555
C7 C1 1_555 1_555
H10 C7 1_555 1_555
C8 O3 1_555 1_555
C9 C7 1_555 1_555
H11 C9 1_555 1_555
H12 C9 1_555 1_555
H13 C9 1_555 1_555
C10 C4 1_555 1_555
H14 C10 1_555 1_555
H15 C10 1_555 1_555
H16 C10 1_555 1_555
C1 C2 1_555 1_555
C5 C6 1_555 1_555
C7 C8 1_555 1_555

#END
