
#######################################################################
#
#                 Cambridge Crystallographic Data Centre
#                                CCDC 
#
#######################################################################
#
# If this CIF has been generated from an entry in the Cambridge 
# Structural Database, then it will include bibliographic, chemical, 
# crystal, experimental, refinement or atomic coordinate data resulting 
# from the CCDC's data processing and validation procedures.
#
#######################################################################

data_FOBSOF
_chemical_compound_source        'mangrove endophytic fungus (no.2533)'
_chemical_name_common            'Avicennin B'
_chemical_formula_moiety         'C12 H14 O4'
_chemical_name_systematic        
3,4-Dihydro-8-hydroxy-3,5-dimethyl-7-methoxyisocoumarin
_symmetry_cell_setting           tetragonal
_symmetry_space_group_name_H-M   'P 43'
_symmetry_Int_Tables_number      78
_space_group_name_Hall           'P 4cw'
loop_
_symmetry_equiv_pos_site_id
_symmetry_equiv_pos_as_xyz
1 x,y,z
2 -x,-y,1/2+z
3 -y,x,3/4+z
4 y,-x,1/4+z
_cell_length_a                   8.824(2)
_cell_length_b                   8.824(2)
_cell_length_c                   27.733(10)
_cell_angle_alpha                90
_cell_angle_beta                 90
_cell_angle_gamma                90
_cell_volume                     2159.37
_exptl_crystal_colour            colorless
_exptl_crystal_description       block
_cell_formula_units_Z            8
_exptl_crystal_recrystallization_method methanol
loop_
_atom_site_label
_atom_site_type_symbol
_atom_site_fract_x
_atom_site_fract_y
_atom_site_fract_z
C1 C 0.2363(3) 0.5858(3) 0.22339(10)
C2 C 0.2232(3) 0.4286(3) 0.21935(10)
C3 C 0.3541(3) 0.3406(3) 0.22150(10)
H1 H 0.3453 0.2357 0.2198
C4 C 0.4973(3) 0.4041(3) 0.22610(10)
C5 C 0.5121(3) 0.5607(3) 0.22761(10)
C6 C 0.3806(3) 0.6509(3) 0.22652(10)
C7 C 0.0624(4) 0.2204(4) 0.20153(15)
H2 H 0.1196 0.2013 0.1727
H3 H -0.0427 0.1994 0.1957
H4 H 0.0989 0.1563 0.2270
C8 C 0.6328(4) 0.3008(3) 0.22895(13)
H5 H 0.6911 0.3095 0.1999
H6 H 0.5993 0.1980 0.2328
H7 H 0.6943 0.3291 0.2560
C9 C 0.6623(4) 0.6399(3) 0.23103(13)
H8 H 0.7403 0.5780 0.2162
H9 H 0.6889 0.6548 0.2646
C10 C 0.6541(4) 0.7910(3) 0.20590(12)
H10 H 0.6355 0.7736 0.1715
C11 C 0.7930(4) 0.8874(4) 0.21112(17)
H11 H 0.7799 0.9798 0.1933
H12 H 0.8793 0.8335 0.1988
H13 H 0.8089 0.9105 0.2446
C12 C 0.3925(4) 0.8167(3) 0.23026(11)
O1 O 0.1063(3) 0.6687(3) 0.22432(10)
H27 H 0.1272 0.7588 0.2271
O2 O 0.0797(3) 0.3748(3) 0.21514(9)
O3 O 0.5284(2) 0.8819(2) 0.22554(9)
O4 O 0.2835(3) 0.9004(3) 0.23706(10)
C13 C 0.6085(3) 0.4607(4) 0.09987(10)
C14 C 0.7672(3) 0.4701(4) 0.09915(11)
C15 C 0.8514(3) 0.3407(4) 0.09335(12)
H14 H 0.9564 0.3485 0.0921
C16 C 0.7847(3) 0.1976(3) 0.08934(11)
C17 C 0.6282(3) 0.1856(3) 0.09158(10)
C18 C 0.5404(3) 0.3189(3) 0.09698(9)
C19 C 0.9847(4) 0.6279(4) 0.10257(18)
H15 H 1.0277 0.5695 0.1284
H16 H 1.0122 0.7325 0.1064
H17 H 1.0224 0.5912 0.0723
C20 C 0.8852(4) 0.0611(4) 0.08257(14)
H18 H 0.9807 0.0925 0.0693
H19 H 0.8373 -0.0090 0.0609
H20 H 0.9017 0.0128 0.1131
C21 C 0.5441(3) 0.0384(3) 0.08737(12)
H21 H 0.6068 -0.0435 0.0995
H22 H 0.5218 0.0180 0.0537
C22 C 0.3986(4) 0.0452(3) 0.11569(11)
H23 H 0.4235 0.0570 0.1499
C23 C 0.2975(4) -0.0907(4) 0.11006(15)
H24 H 0.2066 -0.0760 0.1285
H25 H 0.3494 -0.1794 0.1214
H26 H 0.2720 -0.1034 0.0767
C24 C 0.3746(3) 0.3103(4) 0.09732(10)
O5 O 0.5288(3) 0.5912(2) 0.10326(9)
H28 H 0.4379 0.5721 0.1031
O6 O 0.8237(3) 0.6139(3) 0.10354(10)
O7 O 0.3071(2) 0.1756(3) 0.10052(8)
O8 O 0.2920(2) 0.4210(3) 0.09431(9)
loop_
_geom_bond_atom_site_label_1
_geom_bond_atom_site_label_2
_geom_bond_site_symmetry_1
_geom_bond_site_symmetry_2
C1 C2 1_555 1_555
C2 C3 1_555 1_555
C3 H1 1_555 1_555
C4 C3 1_555 1_555
C5 C4 1_555 1_555
C6 C1 1_555 1_555
C7 H2 1_555 1_555
H3 C7 1_555 1_555
H4 C7 1_555 1_555
C8 C4 1_555 1_555
H5 C8 1_555 1_555
H6 C8 1_555 1_555
H7 C8 1_555 1_555
C9 C5 1_555 1_555
H8 C9 1_555 1_555
H9 C9 1_555 1_555
C10 C9 1_555 1_555
H10 C10 1_555 1_555
C11 C10 1_555 1_555
H11 C11 1_555 1_555
H12 C11 1_555 1_555
H13 C11 1_555 1_555
C12 C6 1_555 1_555
C13 C14 1_555 1_555
C14 C15 1_555 1_555
C15 H14 1_555 1_555
C16 C15 1_555 1_555
C17 C16 1_555 1_555
C18 C13 1_555 1_555
C19 H15 1_555 1_555
H16 C19 1_555 1_555
H17 C19 1_555 1_555
C20 C16 1_555 1_555
H18 C20 1_555 1_555
H19 C20 1_555 1_555
H20 C20 1_555 1_555
C21 C17 1_555 1_555
H21 C21 1_555 1_555
H22 C21 1_555 1_555
C22 C21 1_555 1_555
H23 C22 1_555 1_555
C23 C22 1_555 1_555
H24 C23 1_555 1_555
H25 C23 1_555 1_555
H26 C23 1_555 1_555
C24 C18 1_555 1_555
O1 C1 1_555 1_555
H27 O1 1_555 1_555
O2 C2 1_555 1_555
O3 C10 1_555 1_555
O4 C12 1_555 1_555
O5 C13 1_555 1_555
H28 O5 1_555 1_555
O6 C14 1_555 1_555
O7 C22 1_555 1_555
O8 C24 1_555 1_555
C5 C6 1_555 1_555
C7 O2 1_555 1_555
C12 O3 1_555 1_555
C17 C18 1_555 1_555
C19 O6 1_555 1_555
C24 O7 1_555 1_555

#END
