
#######################################################################
#
#                 Cambridge Crystallographic Data Centre
#                                CCDC 
#
#######################################################################
#
# If this CIF has been generated from an entry in the Cambridge 
# Structural Database, then it will include bibliographic, chemical, 
# crystal, experimental, refinement or atomic coordinate data resulting 
# from the CCDC's data processing and validation procedures.
#
#######################################################################

data_FOBSEV01
_chemical_name_common            
'N-(1-(2-Hydroxy-5-methylphenyl)ethyl)-1-(2-methoxy-5-methylphenyl)-2-phenylethanaminium chloride'
_chemical_formula_moiety         'C25 H30 N1 O2 1+,Cl1 1-'
_chemical_name_systematic        
'bis[(R)-1-(2-hydroxy-5-methylphenyl)ethyl]ammonium chloride'
_symmetry_cell_setting           orthorhombic
_symmetry_space_group_name_H-M   'P 21 21 21'
_symmetry_Int_Tables_number      19
_space_group_name_Hall           'P 2ac 2ab'
loop_
_symmetry_equiv_pos_site_id
_symmetry_equiv_pos_as_xyz
1 x,y,z
2 1/2-x,-y,1/2+z
3 -x,1/2+y,1/2-z
4 1/2+x,1/2-y,-z
_cell_length_a                   9.227(3)
_cell_length_b                   15.323(6)
_cell_length_c                   16.504(6)
_cell_angle_alpha                90
_cell_angle_beta                 90
_cell_angle_gamma                90
_cell_volume                     2333.42
_exptl_crystal_colour            colorless
_exptl_crystal_description       block
_cell_formula_units_Z            4
loop_
_atom_site_label
_atom_site_type_symbol
_atom_site_fract_x
_atom_site_fract_y
_atom_site_fract_z
Cl1 Cl 0.54726(8) 0.28032(4) 0.32748(4)
N1 N 0.3272(2) -0.03250(12) 0.18827(11)
H1 H 0.3999 -0.0055 0.2146
H2 H 0.3549 -0.0880 0.1795
O1 O -0.0697(2) 0.04598(18) 0.24767(15)
O2 O 0.4320(2) 0.13496(10) 0.21243(10)
H3 H 0.4595 0.1745 0.2422
C1 C -0.0673(3) -0.0311(2) 0.20648(19)
C2 C 0.0664(3) -0.07331(18) 0.20186(15)
C3 C 0.0750(3) -0.15326(19) 0.16279(18)
H4 H 0.1639 -0.1818 0.1610
C4 C -0.0439(5) -0.1925(2) 0.1261(2)
C5 C -0.1739(5) -0.1497(3) 0.1314(2)
H5 H -0.2555 -0.1748 0.1080
C6 C -0.1872(4) -0.0713(3) 0.1698(2)
H6 H -0.2772 -0.0441 0.1717
C7 C -0.0299(5) -0.2790(3) 0.0838(3)
H7 H 0.0689 -0.2984 0.0864
H8 H -0.0583 -0.2728 0.0281
H9 H -0.0914 -0.3211 0.1098
C8 C -0.1921(4) 0.1014(3) 0.2371(3)
H10 H -0.1803 0.1530 0.2693
H11 H -0.2782 0.0711 0.2537
H12 H -0.2003 0.1173 0.1810
C9 C 0.1955(3) -0.03336(16) 0.24276(15)
H13 H 0.1714 0.0273 0.2559
C10 C 0.2371(3) -0.07938(16) 0.32176(15)
H14 H 0.1544 -0.0790 0.3581
H15 H 0.2607 -0.1398 0.3100
C11 C 0.3634(3) -0.03745(16) 0.36337(14)
C12 C 0.3491(4) 0.04298(19) 0.40086(17)
H16 H 0.2592 0.0704 0.4017
C13 C 0.4655(5) 0.0828(2) 0.43680(19)
H17 H 0.4537 0.1366 0.4620
C14 C 0.5989(5) 0.0439(3) 0.4358(2)
H18 H 0.6780 0.0713 0.4598
C15 C 0.6149(4) -0.0348(3) 0.3995(2)
H19 H 0.7053 -0.0616 0.3991
C16 C 0.4983(3) -0.07581(19) 0.36311(17)
H20 H 0.5112 -0.1297 0.3383
C17 C 0.3070(3) 0.01147(14) 0.10722(14)
H21 H 0.2360 -0.0225 0.0763
C18 C 0.4506(3) 0.00799(17) 0.06186(16)
H22 H 0.4375 0.0303 0.0080
H23 H 0.4837 -0.0513 0.0591
H24 H 0.5211 0.0428 0.0899
C19 C 0.3103(3) 0.16121(14) 0.17134(15)
C20 C 0.2470(3) 0.10201(14) 0.11831(14)
C21 C 0.1238(3) 0.12697(16) 0.07632(15)
H25 H 0.0808 0.0872 0.0411
C22 C 0.0621(3) 0.20900(17) 0.08478(16)
C23 C 0.1256(3) 0.26526(17) 0.13990(17)
H26 H 0.0844 0.3199 0.1483
C24 C 0.2482(3) 0.24274(15) 0.18272(17)
H27 H 0.2891 0.2820 0.2191
C25 C -0.0707(4) 0.2348(2) 0.0372(2)
H28 H -0.0988 0.1875 0.0024
H29 H -0.0493 0.2853 0.0050
H30 H -0.1484 0.2479 0.0739
H31? H -0.0989 0.2930 0.0518
H32? H -0.1484 0.1952 0.0492
H33? H -0.0492 0.2326 -0.0197
H34? H -0.1228 -0.2964 0.0632
H35? H 0.0044 -0.3220 0.1215
H36? H 0.0375 -0.2738 0.0398
H37? H -0.2589 0.0746 0.2000
H38? H -0.1610 0.1565 0.2156
H39? H -0.2389 0.1103 0.2884
loop_
_geom_bond_atom_site_label_1
_geom_bond_atom_site_label_2
_geom_bond_site_symmetry_1
_geom_bond_site_symmetry_2
N1 H1 1_555 1_555
H2 N1 1_555 1_555
O1 C1 1_555 1_555
O2 H3 1_555 1_555
C1 C2 1_555 1_555
C2 C3 1_555 1_555
C3 H4 1_555 1_555
C4 C3 1_555 1_555
C5 C4 1_555 1_555
H5 C5 1_555 1_555
C6 C1 1_555 1_555
H6 C6 1_555 1_555
C7 C4 1_555 1_555
H7 C7 1_555 1_555
H8 C7 1_555 1_555
H9 C7 1_555 1_555
C8 O1 1_555 1_555
H10 C8 1_555 1_555
H11 C8 1_555 1_555
H12 C8 1_555 1_555
C9 N1 1_555 1_555
H13 C9 1_555 1_555
C10 C9 1_555 1_555
H14 C10 1_555 1_555
H15 C10 1_555 1_555
C11 C10 1_555 1_555
C12 C11 1_555 1_555
H16 C12 1_555 1_555
C13 C12 1_555 1_555
H17 C13 1_555 1_555
C14 C13 1_555 1_555
H18 C14 1_555 1_555
C15 C14 1_555 1_555
H19 C15 1_555 1_555
C16 C11 1_555 1_555
H20 C16 1_555 1_555
C17 N1 1_555 1_555
H21 C17 1_555 1_555
C18 C17 1_555 1_555
H22 C18 1_555 1_555
H23 C18 1_555 1_555
H24 C18 1_555 1_555
C19 O2 1_555 1_555
C20 C17 1_555 1_555
C21 C20 1_555 1_555
H25 C21 1_555 1_555
C22 C21 1_555 1_555
C23 C22 1_555 1_555
H26 C23 1_555 1_555
C24 C19 1_555 1_555
H27 C24 1_555 1_555
C25 C22 1_555 1_555
H28 C25 1_555 1_555
H29 C25 1_555 1_555
H30 C25 1_555 1_555
C2 C9 1_555 1_555
C5 C6 1_555 1_555
C15 C16 1_555 1_555
C19 C20 1_555 1_555
C23 C24 1_555 1_555

#END
