
#######################################################################
#
#                 Cambridge Crystallographic Data Centre
#                                CCDC 
#
#######################################################################
#
# If this CIF has been generated from an entry in the Cambridge 
# Structural Database, then it will include bibliographic, chemical, 
# crystal, experimental, refinement or atomic coordinate data resulting 
# from the CCDC's data processing and validation procedures.
#
#######################################################################

data_FOBTEY
_chemical_formula_moiety         'C17 H17 Cl1 N2 O3'
_chemical_name_systematic        
'methyl 1-(3-chloropropyl)-2-oxo-1,4-dihydrobenzo[f]cinnoline-3(2H)-carboxylate'
_symmetry_cell_setting           monoclinic
_symmetry_space_group_name_H-M   'P 21'
_symmetry_Int_Tables_number      4
_space_group_name_Hall           'P 2yb'
loop_
_symmetry_equiv_pos_site_id
_symmetry_equiv_pos_as_xyz
1 x,y,z
2 -x,1/2+y,-z
_cell_length_a                   7.59900(10)
_cell_length_b                   10.24900(10)
_cell_length_c                   10.48800(10)
_cell_angle_alpha                90
_cell_angle_beta                 109.1000(10)
_cell_angle_gamma                90
_cell_volume                     771.861
_exptl_crystal_colour            colorless
_exptl_crystal_description       block
_cell_formula_units_Z            2
loop_
_atom_site_label
_atom_site_type_symbol
_atom_site_fract_x
_atom_site_fract_y
_atom_site_fract_z
Cl1 Cl 0.80530(8) 0.67760(6) 0.73306(6)
O1 O -0.17615(19) 0.31522(15) 0.35344(13)
O2 O -0.07351(19) 0.48879(14) 0.26699(13)
O3 O 0.19946(18) 0.61762(14) 0.43303(13)
N1 N 0.0896(2) 0.33093(15) 0.58474(15)
H1 H -0.0014 0.2764 0.5622
N2 N 0.0714(2) 0.43126(16) 0.48532(15)
C1 C 0.1284(2) 0.37962(18) 0.71708(18)
C2 C 0.0531(2) 0.31494(19) 0.80677(19)
H2 H -0.0261 0.2439 0.7778
C3 C 0.0987(3) 0.3586(2) 0.93637(19)
H3 H 0.0525 0.3152 0.9965
C4 C 0.2158(3) 0.4696(2) 0.98157(18)
C5 C 0.2559(3) 0.5182(2) 1.11436(19)
H4 H 0.2077 0.4761 1.1742
C6 C 0.3653(3) 0.6270(2) 1.1557(2)
H5 H 0.3882 0.6594 1.2425
C7 C 0.4427(3) 0.6894(2) 1.06701(19)
H6 H 0.5176 0.7626 1.0959
C8 C 0.4089(3) 0.64344(18) 0.93806(19)
H7 H 0.4629 0.6850 0.8812
C9 C 0.2922(2) 0.53304(19) 0.89048(18)
C10 C 0.2490(2) 0.48298(19) 0.75687(18)
C11 C 0.3377(2) 0.53217(18) 0.65634(17)
H8 H 0.3806 0.6217 0.6809
C12 C 0.5086(2) 0.44706(18) 0.66182(18)
H9 H 0.5975 0.4511 0.7524
H10 H 0.4682 0.3571 0.6443
C13 C 0.6077(3) 0.4867(2) 0.5621(2)
H11 H 0.7194 0.4342 0.5798
H12 H 0.5270 0.4662 0.4715
C14 C 0.6616(3) 0.6288(2) 0.5664(2)
H13 H 0.5498 0.6819 0.5384
H14 H 0.7287 0.6437 0.5034
C15 C 0.1992(2) 0.53343(18) 0.51482(17)
C16 C -0.0715(3) 0.40557(19) 0.36329(19)
C17 C -0.2105(3) 0.4585(2) 0.13698(19)
H15 H -0.2026 0.5218 0.0716
H16 H -0.3329 0.4606 0.1446
H17 H -0.1864 0.3732 0.1088
loop_
_geom_bond_atom_site_label_1
_geom_bond_atom_site_label_2
_geom_bond_site_symmetry_1
_geom_bond_site_symmetry_2
Cl1 C14 1_555 1_555
O1 C16 1_555 1_555
O2 C16 1_555 1_555
O3 C15 1_555 1_555
N1 H1 1_555 1_555
N2 N1 1_555 1_555
C1 N1 1_555 1_555
C2 C1 1_555 1_555
H2 C2 1_555 1_555
C3 C2 1_555 1_555
H3 C3 1_555 1_555
C4 C3 1_555 1_555
C5 C4 1_555 1_555
H4 C5 1_555 1_555
C6 C5 1_555 1_555
H5 C6 1_555 1_555
C7 C6 1_555 1_555
H6 C7 1_555 1_555
C8 C7 1_555 1_555
H7 C8 1_555 1_555
C9 C4 1_555 1_555
C10 C1 1_555 1_555
C11 C10 1_555 1_555
H8 C11 1_555 1_555
C12 C11 1_555 1_555
H9 C12 1_555 1_555
H10 C12 1_555 1_555
C13 C12 1_555 1_555
H11 C13 1_555 1_555
H12 C13 1_555 1_555
C14 C13 1_555 1_555
H13 C14 1_555 1_555
H14 C14 1_555 1_555
C15 N2 1_555 1_555
C16 N2 1_555 1_555
C17 O2 1_555 1_555
H15 C17 1_555 1_555
H16 C17 1_555 1_555
H17 C17 1_555 1_555
C8 C9 1_555 1_555
C9 C10 1_555 1_555
C11 C15 1_555 1_555

#END
