
#######################################################################
#
#                 Cambridge Crystallographic Data Centre
#                                CCDC 
#
#######################################################################
#
# If this CIF has been generated from an entry in the Cambridge 
# Structural Database, then it will include bibliographic, chemical, 
# crystal, experimental, refinement or atomic coordinate data resulting 
# from the CCDC's data processing and validation procedures.
#
#######################################################################

data_FOBTEW
_chemical_formula_moiety         'C22 H26 N3 O1'
_chemical_name_systematic        
'4-(Acridin-9-ylamino)-2,2,6,6-tetramethylpiperidine N-oxide'
_symmetry_cell_setting           monoclinic
_symmetry_space_group_name_H-M   'P 21'
_symmetry_Int_Tables_number      4
_space_group_name_Hall           'P 2yb'
loop_
_symmetry_equiv_pos_site_id
_symmetry_equiv_pos_as_xyz
1 x,y,z
2 -x,1/2+y,-z
_cell_length_a                   11.1168(3)
_cell_length_b                   14.2464(3)
_cell_length_c                   11.8709(3)
_cell_angle_alpha                90
_cell_angle_beta                 92.1130(10)
_cell_angle_gamma                90
_cell_volume                     1878.77
_exptl_crystal_colour            orange
_exptl_crystal_description       block
_cell_formula_units_Z            4
_exptl_crystal_recrystallization_method dichloromethane/hexane
loop_
_atom_site_label
_atom_site_type_symbol
_atom_site_fract_x
_atom_site_fract_y
_atom_site_fract_z
C1 C -0.0020(2) 0.88357(19) 0.42369(19)
H1 H 0.0672 0.8778 0.3753
C2 C -0.0102(3) 0.7976(2) 0.4976(2)
H2 H -0.0192 0.7429 0.4493
H3 H -0.0826 0.8025 0.5405
C3 C 0.0969(3) 0.78094(19) 0.5803(2)
C4 C 0.2030(3) 0.7363(3) 0.5220(3)
H4 H 0.2664 0.7233 0.5769
H5 H 0.2319 0.7788 0.4663
H6 H 0.1774 0.6789 0.4863
C5 C 0.0583(4) 0.7172(2) 0.6758(3)
H7 H -0.0014 0.7486 0.7185
H8 H 0.1269 0.7028 0.7242
H9 H 0.0252 0.6601 0.6448
C6 C 0.1288(3) 0.9642(2) 0.5765(2)
C7 C 0.1186(4) 1.0376(2) 0.6697(3)
H10 H 0.1906 1.0369 0.7169
H11 H 0.0506 1.0234 0.7141
H12 H 0.1083 1.0987 0.6364
C8 C 0.2427(3) 0.9806(3) 0.5098(3)
H13 H 0.2427 0.9387 0.4465
H14 H 0.3126 0.9691 0.5577
H15 H 0.2439 1.0443 0.4835
C9 C 0.0147(3) 0.96796(19) 0.5004(2)
H16 H -0.0545 0.9729 0.5474
H17 H 0.0172 1.0241 0.4544
C10 C -0.1211(2) 0.8649(2) 0.24124(19)
C11 C -0.2085(2) 0.79840(19) 0.2048(2)
C12 C -0.2922(3) 0.7558(2) 0.2766(2)
H18 H -0.2904 0.7713 0.3527
C13 C -0.3743(3) 0.6930(2) 0.2364(3)
H19 H -0.4286 0.6664 0.285
C14 C -0.3785(3) 0.6675(3) 0.1218(3)
H20 H -0.4358 0.6247 0.095
C15 C -0.2998(3) 0.7051(2) 0.0507(3)
H21 H -0.3029 0.6866 -0.0244
C16 C -0.2120(3) 0.77248(19) 0.0877(2)
C17 C -0.0572(2) 0.8716(2) 0.0466(2)
C18 C 0.0202(3) 0.9104(2) -0.0344(2)
H22 H 0.0151 0.8885 -0.1082
C19 C 0.1011(3) 0.9788(3) -0.0064(3)
H23 H 0.1524 1.002 -0.06
C20 C 0.1069(3) 1.0143(3) 0.1048(3)
H24 H 0.1598 1.0629 0.1231
C21 C 0.0368(3) 0.9787(2) 0.1848(2)
H25 H 0.0426 1.0032 0.2574
C22 C -0.0459(2) 0.9047(2) 0.1604(2)
N1 N 0.13692(19) 0.87159(16) 0.63246(16)
N2 N -0.1135(2) 0.89488(19) 0.35319(17)
H51 H -0.1772 0.8804 0.3922
N3 N -0.1382(2) 0.80731(18) 0.01112(18)
O1 O 0.2132(2) 0.86493(17) 0.71561(16)
C23 C 0.5164(2) 0.8632(2) 0.83784(19)
H26 H 0.5854 0.8509 0.8895
C24 C 0.5386(3) 0.9510(2) 0.7696(2)
H27 H 0.5496 1.0035 0.821
H28 H 0.4674 0.9638 0.7222
C25 C 0.6467(2) 0.94571(19) 0.6954(2)
C26 C 0.7652(3) 0.9468(3) 0.7663(3)
H29 H 0.8312 0.9346 0.7185
H30 H 0.7627 0.8994 0.8236
H31 H 0.7757 1.0073 0.8011
C27 C 0.6432(3) 1.0284(2) 0.6126(3)
H32 H 0.5698 1.0262 0.5675
H33 H 0.7107 1.0244 0.5646
H34 H 0.6471 1.0863 0.6539
C28 C 0.5990(2) 0.76586(19) 0.6721(2)
C29 C 0.5481(3) 0.7096(2) 0.5714(3)
H35 H 0.612 0.6942 0.5224
H36 H 0.4886 0.7465 0.5309
H37 H 0.5119 0.6529 0.5978
C30 C 0.7062(3) 0.7134(2) 0.7253(3)
H38 H 0.7376 0.7478 0.7894
H39 H 0.7676 0.707 0.6711
H40 H 0.681 0.6523 0.749
C31 C 0.4990(3) 0.7820(2) 0.7557(2)
H41 H 0.4241 0.792 0.7129
H42 H 0.4898 0.7249 0.7991
C32 C 0.3934(2) 0.85502(19) 1.01506(19)
C33 C 0.4621(2) 0.90111(19) 1.1014(2)
C34 C 0.5545(3) 0.9666(2) 1.0809(2)
H43 H 0.5723 0.981 1.007
C35 C 0.6177(3) 1.0089(2) 1.1667(3)
H44 H 0.6786 1.0512 1.151
C36 C 0.5913(3) 0.9890(3) 1.2795(3)
H45 H 0.636 1.017 1.3381
C37 C 0.5015(3) 0.9294(2) 1.3024(2)
H46 H 0.4843 0.9181 1.3773
C38 C 0.4321(3) 0.8833(2) 1.2162(2)
C39 C 0.2780(3) 0.7836(2) 1.1643(2)
C40 C 0.1814(3) 0.7246(2) 1.1942(3)
H47 H 0.1626 0.7195 1.2697
C41 C 0.1161(3) 0.6759(2) 1.1163(3)
H48 H 0.052 0.639 1.1383
C42 C 0.1443(3) 0.6803(2) 1.0013(3)
H49 H 0.1017 0.6439 0.9484
C43 C 0.2333(3) 0.7377(2) 0.9685(3)
H50 H 0.25000 0.7411 0.8924
C44 C 0.3021(2) 0.7928(2) 1.0468(2)
N4 N 0.64069(19) 0.85784(17) 0.62823(16)
N5 N 0.4066(2) 0.8754(2) 0.90192(16)
H52 H 0.3444 0.8629 0.8578
N6 N 0.3418(2) 0.8275(2) 1.24667(19)
O2 O 0.70787(19) 0.85413(17) 0.54264(16)
loop_
_geom_bond_atom_site_label_1
_geom_bond_atom_site_label_2
_geom_bond_site_symmetry_1
_geom_bond_site_symmetry_2
C1 H1 1_555 1_555
C2 C1 1_555 1_555
H2 C2 1_555 1_555
H3 C2 1_555 1_555
C3 C2 1_555 1_555
C4 C3 1_555 1_555
H4 C4 1_555 1_555
H5 C4 1_555 1_555
H6 C4 1_555 1_555
C5 C3 1_555 1_555
H7 C5 1_555 1_555
H8 C5 1_555 1_555
H9 C5 1_555 1_555
C6 C7 1_555 1_555
C7 H10 1_555 1_555
H11 C7 1_555 1_555
H12 C7 1_555 1_555
C8 C6 1_555 1_555
H13 C8 1_555 1_555
H14 C8 1_555 1_555
H15 C8 1_555 1_555
C9 C1 1_555 1_555
H16 C9 1_555 1_555
H17 C9 1_555 1_555
C10 C11 1_555 1_555
C11 C12 1_555 1_555
C12 H18 1_555 1_555
C13 C12 1_555 1_555
H19 C13 1_555 1_555
C14 C13 1_555 1_555
H20 C14 1_555 1_555
C15 C14 1_555 1_555
H21 C15 1_555 1_555
C16 C11 1_555 1_555
C17 C18 1_555 1_555
C18 H22 1_555 1_555
C19 C18 1_555 1_555
H23 C19 1_555 1_555
C20 C19 1_555 1_555
H24 C20 1_555 1_555
C21 C20 1_555 1_555
H25 C21 1_555 1_555
C22 C10 1_555 1_555
C23 H26 1_555 1_555
C24 C23 1_555 1_555
H27 C24 1_555 1_555
H28 C24 1_555 1_555
C25 C24 1_555 1_555
C26 C25 1_555 1_555
H29 C26 1_555 1_555
H30 C26 1_555 1_555
H31 C26 1_555 1_555
C27 C25 1_555 1_555
H32 C27 1_555 1_555
H33 C27 1_555 1_555
H34 C27 1_555 1_555
C28 C29 1_555 1_555
C29 H35 1_555 1_555
H36 C29 1_555 1_555
H37 C29 1_555 1_555
C30 C28 1_555 1_555
H38 C30 1_555 1_555
H39 C30 1_555 1_555
H40 C30 1_555 1_555
C31 C23 1_555 1_555
H41 C31 1_555 1_555
H42 C31 1_555 1_555
C32 C33 1_555 1_555
C33 C34 1_555 1_555
C34 H43 1_555 1_555
C35 C34 1_555 1_555
H44 C35 1_555 1_555
C36 C35 1_555 1_555
H45 C36 1_555 1_555
C37 C36 1_555 1_555
H46 C37 1_555 1_555
C38 C33 1_555 1_555
C39 C40 1_555 1_555
C40 H47 1_555 1_555
C41 C40 1_555 1_555
H48 C41 1_555 1_555
C42 C41 1_555 1_555
H49 C42 1_555 1_555
C43 C42 1_555 1_555
H50 C43 1_555 1_555
C44 C32 1_555 1_555
N1 C3 1_555 1_555
N2 C1 1_555 1_555
H51 N2 1_555 1_555
N3 C16 1_555 1_555
N4 C25 1_555 1_555
N5 C23 1_555 1_555
H52 N5 1_555 1_555
N6 C38 1_555 1_555
O1 N1 1_555 1_555
O2 N4 1_555 1_555
C6 C9 1_555 1_555
C6 N1 1_555 1_555
C10 N2 1_555 1_555
C15 C16 1_555 1_555
C17 C22 1_555 1_555
C17 N3 1_555 1_555
C21 C22 1_555 1_555
C28 C31 1_555 1_555
C28 N4 1_555 1_555
C32 N5 1_555 1_555
C37 C38 1_555 1_555
C39 C44 1_555 1_555
C39 N6 1_555 1_555
C43 C44 1_555 1_555

#END
