
#######################################################################
#
#                 Cambridge Crystallographic Data Centre
#                                CCDC 
#
#######################################################################
#
# If this CIF has been generated from an entry in the Cambridge 
# Structural Database, then it will include bibliographic, chemical, 
# crystal, experimental, refinement or atomic coordinate data resulting 
# from the CCDC's data processing and validation procedures.
#
#######################################################################

data_FOBWUR
_chemical_formula_moiety         'C29 H28 N4 O4'
_chemical_name_systematic        
'{[4-([1^4^,2^2^:2^6^,3^4^-terpyridin]-2^4^-yl)phenyl]azanediyl}bis(ethane-2,1-diyl) diacetate'
_symmetry_cell_setting           triclinic
_symmetry_space_group_name_H-M   'P -1'
_symmetry_Int_Tables_number      2
_space_group_name_Hall           '-P 1'
loop_
_symmetry_equiv_pos_site_id
_symmetry_equiv_pos_as_xyz
1 x,y,z
2 -x,-y,-z
_cell_length_a                   9.9838(9)
_cell_length_b                   11.1579(10)
_cell_length_c                   13.2772(12)
_cell_angle_alpha                96.2600(10)
_cell_angle_beta                 105.2540(10)
_cell_angle_gamma                115.5130(10)
_cell_volume                     1245.1
_exptl_crystal_colour            yellow
_exptl_crystal_description       block
_cell_formula_units_Z            2
loop_
_atom_site_label
_atom_site_type_symbol
_atom_site_fract_x
_atom_site_fract_y
_atom_site_fract_z
N1 N 0.38278(14) 0.46202(12) -0.24983(10)
N2 N 0.15139(16) 0.05285(13) 0.23587(10)
N3 N 0.52137(16) 0.18968(14) -0.49302(10)
N4 N 0.36652(16) 0.90860(13) -0.18464(11)
C1 C 0.34047(18) 0.72956(15) -0.09253(12)
H1 H 0.3284 0.6985 -0.0316
O1 O 0.18028(14) -0.26207(11) 0.26316(8)
O2 O -0.03323(14) 0.16106(11) 0.41110(9)
O3 O 0.10414(18) 0.37980(13) 0.40852(12)
O4 O 0.1690(2) -0.31635(15) 0.09343(11)
C2 C 0.27130(17) 0.25718(15) -0.00311(12)
C3 C 0.19083(17) 0.11949(15) 0.15783(12)
C4 C 0.43269(17) 0.29004(15) -0.33137(12)
C5 C 0.35897(17) 0.27782(14) -0.16452(12)
H2 H 0.3712 0.2000 -0.1619
C6 C 0.35008(17) 0.65039(15) -0.17628(12)
C7 C 0.20291(18) 0.05388(15) 0.06655(12)
H3 H 0.1845 -0.0363 0.0584
C8 C 0.30291(17) 0.44926(15) -0.09419(12)
H4 H 0.2695 0.4860 -0.0458
C9 C 0.22044(18) 0.25581(15) 0.16611(12)
H5 H 0.2137 0.3026 0.2254
C10 C 0.34439(17) 0.51505(15) -0.17280(12)
C11 C 0.25929(18) 0.32129(15) 0.08807(12)
H6 H 0.2783 0.4117 0.0963
C12 C 0.31103(17) 0.32783(14) -0.08727(12)
C13 C 0.43914(18) 0.10822(16) -0.44046(12)
H7 H 0.4098 0.0154 -0.4595
C14 C 0.24148(18) 0.12100(15) -0.01087(12)
H8 H 0.2480 0.0745 -0.0704
C15 C 0.38838(17) 0.34441(14) -0.24531(12)
C16 C 0.39459(18) 0.15207(15) -0.35987(12)
H9 H 0.3399 0.0905 -0.3250
C17 C 0.51606(19) 0.37552(16) -0.38671(13)
H10 H 0.5428 0.4680 -0.3717
C18 C 0.5590(2) 0.32219(17) -0.46424(13)
H11 H 0.6176 0.3820 -0.4985
C19 C 0.14596(19) 0.12185(16) 0.33318(12)
H12 H 0.2288 0.2168 0.3567
H13 H 0.1645 0.0777 0.3904
C20 C 0.34903(19) 0.85484(16) -0.10101(13)
H14 H 0.3421 0.9056 -0.0441
C21 C 0.36973(19) 0.70561(16) -0.26347(13)
H15 H 0.3779 0.6576 -0.3213
C22 C 0.10092(18) -0.09305(15) 0.22048(13)
H16 H 0.0459 -0.1389 0.1442
H17 H 0.0275 -0.1316 0.2582
C23 C 0.24005(19) -0.11937(16) 0.26201(13)
H18 H 0.3031 -0.0980 0.2156
H19 H 0.3066 -0.0613 0.3343
C24 C 0.1457(2) -0.35145(17) 0.17217(13)
C25 C 0.0294(2) 0.29733(17) 0.44973(14)
C26 C 0.3771(2) 0.83218(16) -0.26409(13)
H20 H 0.3904 0.8664 -0.3236
C27 C 0.0736(2) -0.49465(17) 0.18307(15)
H21 H 0.0336 -0.5575 0.1139
H22 H -0.0116 -0.5109 0.2098
H23 H 0.1521 -0.5081 0.2326
C28 C -0.01350(19) 0.11677(18) 0.31205(13)
H24 H -0.0232 0.1754 0.2649
H25 H -0.0968 0.0236 0.2754
C29 C -0.0075(3) 0.3297(2) 0.54822(15)
H26 H 0.0369 0.4274 0.5732
H27 H 0.0370 0.2957 0.6039
H28 H -0.1201 0.2869 0.5308
loop_
_geom_bond_atom_site_label_1
_geom_bond_atom_site_label_2
_geom_bond_site_symmetry_1
_geom_bond_site_symmetry_2
N1 C10 1_555 1_555
N2 C3 1_555 1_555
N3 C13 1_555 1_555
N4 C20 1_555 1_555
C1 H1 1_555 1_555
O1 C23 1_555 1_555
O2 C25 1_555 1_555
O3 C25 1_555 1_555
O4 C24 1_555 1_555
C2 C11 1_555 1_555
C3 C7 1_555 1_555
C4 C15 1_555 1_555
C5 H2 1_555 1_555
C6 C1 1_555 1_555
C7 H3 1_555 1_555
C8 H4 1_555 1_555
C9 C3 1_555 1_555
H5 C9 1_555 1_555
C10 C6 1_555 1_555
C11 C9 1_555 1_555
H6 C11 1_555 1_555
C12 C2 1_555 1_555
C13 H7 1_555 1_555
C14 C2 1_555 1_555
H8 C14 1_555 1_555
C15 N1 1_555 1_555
C16 C4 1_555 1_555
H9 C16 1_555 1_555
C17 C4 1_555 1_555
H10 C17 1_555 1_555
C18 N3 1_555 1_555
H11 C18 1_555 1_555
C19 N2 1_555 1_555
H12 C19 1_555 1_555
H13 C19 1_555 1_555
C20 C1 1_555 1_555
H14 C20 1_555 1_555
C21 C6 1_555 1_555
H15 C21 1_555 1_555
C22 N2 1_555 1_555
H16 C22 1_555 1_555
H17 C22 1_555 1_555
C23 C22 1_555 1_555
H18 C23 1_555 1_555
H19 C23 1_555 1_555
C24 O1 1_555 1_555
C25 C29 1_555 1_555
C26 N4 1_555 1_555
H20 C26 1_555 1_555
C27 C24 1_555 1_555
H21 C27 1_555 1_555
H22 C27 1_555 1_555
H23 C27 1_555 1_555
C28 O2 1_555 1_555
H24 C28 1_555 1_555
H25 C28 1_555 1_555
C29 H26 1_555 1_555
H27 C29 1_555 1_555
H28 C29 1_555 1_555
C5 C12 1_555 1_555
C5 C15 1_555 1_555
C7 C14 1_555 1_555
C8 C10 1_555 1_555
C8 C12 1_555 1_555
C13 C16 1_555 1_555
C17 C18 1_555 1_555
C19 C28 1_555 1_555
C21 C26 1_555 1_555

#END
