
#######################################################################
#
#                 Cambridge Crystallographic Data Centre
#                                CCDC 
#
#######################################################################
#
# If this CIF has been generated from an entry in the Cambridge 
# Structural Database, then it will include bibliographic, chemical, 
# crystal, experimental, refinement or atomic coordinate data resulting 
# from the CCDC's data processing and validation procedures.
#
#######################################################################

data_FOBXUS
_chemical_formula_moiety         'C31 H34 N4 O4 2+,2(I1 1-),H2 O1'
_chemical_name_systematic        
"4,4'-[4-(4-{bis[2-(acetyloxy)ethyl]amino}phenyl)pyridine-2,6-diyl]bis(1-methylpyridin-1-ium) bis(iodide) monohydrate"
_symmetry_cell_setting           triclinic
_symmetry_space_group_name_H-M   'P -1'
_symmetry_Int_Tables_number      2
_space_group_name_Hall           '-P 1'
loop_
_symmetry_equiv_pos_site_id
_symmetry_equiv_pos_as_xyz
1 x,y,z
2 -x,-y,-z
_cell_length_a                   7.7972(9)
_cell_length_b                   13.3272(16)
_cell_length_c                   17.392(2)
_cell_angle_alpha                107.8110(10)
_cell_angle_beta                 98.5610(10)
_cell_angle_gamma                100.426(2)
_cell_volume                     1651.52
_exptl_crystal_colour            black
_exptl_crystal_description       block
_cell_formula_units_Z            2
loop_
_atom_site_label
_atom_site_type_symbol
_atom_site_fract_x
_atom_site_fract_y
_atom_site_fract_z
O1 O 0.5842(4) 0.1710(2) 0.47299(18)
O2 O 1.0060(5) 0.5060(3) 0.59168(19)
O3 O 1.0319(5) 0.5634(3) 0.7278(2)
O4 O 0.6133(6) 0.1144(4) 0.5807(3)
N1 N 0.2229(4) 0.5043(2) 1.03538(17)
N2 N 0.4433(4) 0.8902(2) 1.21098(17)
N3 N -0.0949(4) 0.1631(2) 1.05908(19)
N4 N 0.5238(5) 0.3862(3) 0.57044(18)
C1 C 0.3109(5) 0.4662(3) 0.8797(2)
C2 C 0.3188(5) 0.5844(3) 1.0173(2)
C3 C 0.3645(5) 0.5696(3) 0.9411(2)
H1 H 0.430069 0.627838 0.930744
C4 C 0.3678(5) 0.6922(3) 1.0852(2)
C5 C 0.2122(5) 0.3838(3) 0.8996(2)
H2 H 0.173819 0.314022 0.860831
C6 C 0.1702(5) 0.4048(3) 0.9771(2)
C7 C 0.3640(5) 0.4461(3) 0.7993(2)
C8 C 0.0710(5) 0.3191(3) 1.0031(2)
C9 C 0.3586(5) 0.8006(3) 1.2219(2)
H3 H 0.326047 0.805496 1.271956
C10 C 0.5174(5) 0.5098(3) 0.7908(2)
H4 H 0.585013 0.568364 0.836480
C11 C 0.0185(5) 0.2103(3) 0.9536(2)
H5 H 0.040263 0.188770 0.900507
C12 C 0.0327(5) 0.3460(3) 1.0813(2)
H6 H 0.063181 0.418271 1.115699
C13 C -0.0651(5) 0.1347(3) 0.9826(2)
H7 H -0.101879 0.062230 0.948568
C14 C -0.0489(5) 0.2679(3) 1.1085(2)
H8 H -0.072817 0.287086 1.161213
C15 C 0.4583(5) 0.7865(3) 1.0762(2)
H9 H 0.494596 0.783747 1.027175
C16 C 0.4938(5) 0.8834(3) 1.1399(2)
H10 H 0.554767 0.946037 1.133505
C17 C 0.5723(5) 0.4892(3) 0.7172(2)
H11 H 0.678264 0.532187 0.714954
C18 C 0.4727(5) 0.4054(3) 0.6460(2)
C19 C 0.4852(6) 0.9966(3) 1.2785(2)
H12 H 0.409697 0.992656 1.316813
H13 H 0.464787 1.051585 1.255653
H14 H 0.608097 1.014375 1.306713
C20 C 0.3194(5) 0.7020(3) 1.1601(2)
H15 H 0.259335 0.640564 1.168468
C21 C 0.3172(6) 0.3415(3) 0.6539(2)
H16 H 0.247192 0.284399 0.607855
C22 C 0.2655(6) 0.3616(3) 0.7290(2)
H17 H 0.162137 0.317196 0.732315
C23 C -0.1707(5) 0.0798(3) 1.0929(3)
H18 H -0.218714 0.011588 1.048761
H19 H -0.264047 0.101598 1.119499
H20 H -0.078460 0.072362 1.132527
C24 C 0.4085(6) 0.3046(3) 0.4947(2)
H21 H 0.443222 0.320434 0.447606
H22 H 0.286461 0.311456 0.493676
C25 C 0.6828(6) 0.4574(4) 0.5642(2)
H23 H 0.695275 0.530287 0.601904
H24 H 0.667178 0.459896 0.508473
C26 C 0.4126(7) 0.1897(4) 0.4847(3)
H25 H 0.387592 0.174387 0.533528
H26 H 0.320688 0.141067 0.437425
C27 C 1.0827(7) 0.5740(4) 0.6690(3)
C28 C 0.8514(7) 0.4215(4) 0.5838(3)
H27 H 0.857588 0.406225 0.635062
H28 H 0.850642 0.355462 0.540021
C29 C 0.6720(8) 0.1300(4) 0.5232(3)
C30 C 0.8430(7) 0.1089(5) 0.5026(3)
H29 H 0.821714 0.036451 0.464128
H30 H 0.925444 0.116825 0.552092
H31 H 0.892454 0.159922 0.478132
C31 C 1.2305(7) 0.6618(5) 0.6699(3)
H32 H 1.311567 0.630823 0.638923
H33 H 1.292947 0.702388 0.726032
H34 H 1.182693 0.709284 0.645511
I1 I 0.38438(4) 0.16220(2) 0.12003(2)
I2 I -0.03684(4) -0.05071(3) 0.27185(2)
O5 O 0.1695(7) 0.2331(3) 0.2971(2)
H35 H 0.259305 0.222367 0.275490
H36 H 0.134155 0.185207 0.318190
loop_
_geom_bond_atom_site_label_1
_geom_bond_atom_site_label_2
_geom_bond_site_symmetry_1
_geom_bond_site_symmetry_2
O1 C26 1_555 1_555
O2 C27 1_555 1_555
O3 C27 1_555 1_555
O4 C29 1_555 1_555
N1 C2 1_555 1_555
N2 C9 1_555 1_555
N3 C13 1_555 1_555
N4 C18 1_555 1_555
C1 C3 1_555 1_555
C2 C3 1_555 1_555
C3 H1 1_555 1_555
C4 C2 1_555 1_555
C5 C1 1_555 1_555
H2 C5 1_555 1_555
C6 N1 1_555 1_555
C7 C1 1_555 1_555
C8 C6 1_555 1_555
C9 H3 1_555 1_555
C10 C7 1_555 1_555
H4 C10 1_555 1_555
C11 C8 1_555 1_555
H5 C11 1_555 1_555
C12 C8 1_555 1_555
H6 C12 1_555 1_555
C13 C11 1_555 1_555
H7 C13 1_555 1_555
C14 N3 1_555 1_555
H8 C14 1_555 1_555
C15 C4 1_555 1_555
H9 C15 1_555 1_555
C16 N2 1_555 1_555
H10 C16 1_555 1_555
C17 C10 1_555 1_555
H11 C17 1_555 1_555
C18 C17 1_555 1_555
C19 N2 1_555 1_555
H12 C19 1_555 1_555
H13 C19 1_555 1_555
H14 C19 1_555 1_555
C20 C4 1_555 1_555
H15 C20 1_555 1_555
C21 C18 1_555 1_555
H16 C21 1_555 1_555
C22 C7 1_555 1_555
H17 C22 1_555 1_555
C23 N3 1_555 1_555
H18 C23 1_555 1_555
H19 C23 1_555 1_555
H20 C23 1_555 1_555
C24 N4 1_555 1_555
H21 C24 1_555 1_555
H22 C24 1_555 1_555
C25 N4 1_555 1_555
H23 C25 1_555 1_555
H24 C25 1_555 1_555
C26 C24 1_555 1_555
H25 C26 1_555 1_555
H26 C26 1_555 1_555
C27 C31 1_555 1_555
C28 O2 1_555 1_555
H27 C28 1_555 1_555
H28 C28 1_555 1_555
C29 O1 1_555 1_555
C30 C29 1_555 1_555
H29 C30 1_555 1_555
H30 C30 1_555 1_555
H31 C30 1_555 1_555
C31 H32 1_555 1_555
H33 C31 1_555 1_555
H34 C31 1_555 1_555
O5 H35 1_555 1_555
H36 O5 1_555 1_555
C5 C6 1_555 1_555
C9 C20 1_555 1_555
C12 C14 1_555 1_555
C15 C16 1_555 1_555
C21 C22 1_555 1_555
C25 C28 1_555 1_555

#END
