
#######################################################################
#
#                 Cambridge Crystallographic Data Centre
#                                CCDC 
#
#######################################################################
#
# If this CIF has been generated from an entry in the Cambridge 
# Structural Database, then it will include bibliographic, chemical, 
# crystal, experimental, refinement or atomic coordinate data resulting 
# from the CCDC's data processing and validation procedures.
#
#######################################################################

data_FOBXIE
_chemical_formula_moiety         'C17 H24 O5'
_chemical_name_systematic        
'Methyl 4-O-benzyl-6-deoxy-2,3-O-isopropylidene-\a-L-talopyranoside'
_symmetry_cell_setting           orthorhombic
_symmetry_space_group_name_H-M   'P 21 21 21'
_symmetry_Int_Tables_number      19
_space_group_name_Hall           'P 2ac 2ab'
loop_
_symmetry_equiv_pos_site_id
_symmetry_equiv_pos_as_xyz
1 x,y,z
2 1/2-x,-y,1/2+z
3 -x,1/2+y,1/2-z
4 1/2+x,1/2-y,-z
_cell_length_a                   9.2495(9)
_cell_length_b                   10.0013(10)
_cell_length_c                   17.2359(16)
_cell_angle_alpha                90
_cell_angle_beta                 90
_cell_angle_gamma                90
_cell_volume                     1594.44
_exptl_crystal_colour            colorless
_exptl_crystal_description       block
_cell_formula_units_Z            4
_exptl_crystal_recrystallization_method 'ethyl acetate/hexanes'
loop_
_atom_site_label
_atom_site_type_symbol
_atom_site_fract_x
_atom_site_fract_y
_atom_site_fract_z
C1 C 0.93096(14) 0.56534(14) 0.18594(7)
H1 H 1.032(2) 0.5461(19) 0.1913(10)
C2 C 0.85629(15) 0.46113(13) 0.13561(7)
H2 H 0.840(2) 0.387(2) 0.1661(12)
C3 C 0.72031(14) 0.50821(14) 0.09296(7)
H3 H 0.636(2) 0.4863(19) 0.1231(11)
C4 C 0.71446(14) 0.65868(13) 0.07348(8)
H4 H 0.617(2) 0.680(2) 0.0710(11)
C5 C 0.78005(15) 0.73952(14) 0.13945(8)
H5 H 0.719(2) 0.725(2) 0.1879(11)
C6 C 0.7917(2) 0.88730(15) 0.12143(10)
H6 H 0.856(3) 0.900(2) 0.0785(14)
H7 H 0.698(3) 0.922(3) 0.1070(14)
H8 H 0.834(3) 0.937(3) 0.1682(14)
C7 C 0.86169(15) 0.37007(14) 0.01403(8)
C8 C 0.84620(19) 0.21931(15) 0.02101(10)
H9 H 0.809(3) 0.196(3) 0.0715(15)
H10 H 0.774(3) 0.190(3) -0.0165(14)
H11 H 0.931(3) 0.175(3) 0.0125(14)
C9 C 0.92574(17) 0.41203(16) -0.06311(8)
H12 H 1.026(2) 0.370(2) -0.0654(13)
H13 H 0.869(3) 0.378(2) -0.1069(12)
H14 H 0.931(2) 0.508(2) -0.0652(11)
C10 C 0.69530(15) 0.70243(15) -0.06221(8)
H15 H 0.671(3) 0.617(3) -0.0819(15)
H16 H 0.606(3) 0.748(2) -0.0465(12)
C11 C 0.77248(15) 0.78216(14) -0.12325(8)
C12 C 0.79108(16) 0.91952(15) -0.11303(8)
H17 H 0.757(3) 0.960(2) -0.0671(14)
C13 C 0.85891(17) 0.99598(15) -0.16942(9)
H18 H 0.863(3) 1.083(3) -0.1652(14)
C14 C 0.91124(17) 0.93584(17) -0.23664(9)
H19 H 0.958(2) 0.989(2) -0.2748(12)
C15 C 0.89301(19) 0.79933(18) -0.24727(9)
H20 H 0.926(3) 0.755(2) -0.2934(14)
C16 C 0.82349(17) 0.72291(15) -0.19112(8)
H21 H 0.810(3) 0.628(2) -0.1997(13)
C17 C 0.92692(18) 0.65052(17) 0.31317(8)
H22 H 0.889(3) 0.739(3) 0.3055(13)
H23 H 0.899(3) 0.623(2) 0.3629(12)
H24 H 1.030(3) 0.652(2) 0.3095(13)
O1 O 0.92521(11) 0.69475(10) 0.15453(5)
O2 O 0.78906(10) 0.69105(10) 0.00380(5)
O3 O 0.72008(10) 0.42778(11) 0.02443(6)
O4 O 0.95051(10) 0.42416(11) 0.07373(5)
O5 O 0.86410(12) 0.55858(11) 0.25965(6)
loop_
_geom_bond_atom_site_label_1
_geom_bond_atom_site_label_2
_geom_bond_site_symmetry_1
_geom_bond_site_symmetry_2
C1 H1 1_555 1_555
C2 C1 1_555 1_555
H2 C2 1_555 1_555
C3 C2 1_555 1_555
H3 C3 1_555 1_555
C4 C3 1_555 1_555
H4 C4 1_555 1_555
C5 C4 1_555 1_555
H5 C5 1_555 1_555
C6 C5 1_555 1_555
H6 C6 1_555 1_555
H7 C6 1_555 1_555
H8 C6 1_555 1_555
C7 C8 1_555 1_555
C8 H9 1_555 1_555
H10 C8 1_555 1_555
H11 C8 1_555 1_555
C9 C7 1_555 1_555
H12 C9 1_555 1_555
H13 C9 1_555 1_555
H14 C9 1_555 1_555
C10 H15 1_555 1_555
H16 C10 1_555 1_555
C11 C10 1_555 1_555
C12 C11 1_555 1_555
H17 C12 1_555 1_555
C13 C12 1_555 1_555
H18 C13 1_555 1_555
C14 C13 1_555 1_555
H19 C14 1_555 1_555
C15 C14 1_555 1_555
H20 C15 1_555 1_555
C16 C11 1_555 1_555
H21 C16 1_555 1_555
C17 H22 1_555 1_555
H23 C17 1_555 1_555
H24 C17 1_555 1_555
O1 C1 1_555 1_555
O2 C4 1_555 1_555
O3 C3 1_555 1_555
O4 C2 1_555 1_555
O5 C1 1_555 1_555
C5 O1 1_555 1_555
C7 O3 1_555 1_555
C7 O4 1_555 1_555
C10 O2 1_555 1_555
C15 C16 1_555 1_555
C17 O5 1_555 1_555

#END
