
#######################################################################
#
#                 Cambridge Crystallographic Data Centre
#                                CCDC 
#
#######################################################################
#
# If this CIF has been generated from an entry in the Cambridge 
# Structural Database, then it will include bibliographic, chemical, 
# crystal, experimental, refinement or atomic coordinate data resulting 
# from the CCDC's data processing and validation procedures.
#
#######################################################################

data_FOBYIF
_chemical_formula_moiety         'C11 H11 N3 O1,0.5(H2 O1)'
_chemical_name_systematic        
'1-Phenyl-3-(1H-1,2,4-triazol-1-yl)propan-1-one hemihydrate'
_symmetry_cell_setting           monoclinic
_symmetry_space_group_name_H-M   'C 2/c'
_symmetry_Int_Tables_number      15
_space_group_name_Hall           '-C 2yn'
loop_
_symmetry_equiv_pos_site_id
_symmetry_equiv_pos_as_xyz
1 x,y,z
2 1/2+x,1/2+y,z
3 -x,y,1/2-z
4 1/2-x,1/2+y,1/2-z
5 -x,-y,-z
6 1/2-x,1/2-y,-z
7 x,-y,1/2+z
8 1/2+x,1/2-y,1/2+z
_cell_length_a                   25.429(9)
_cell_length_b                   8.209(5)
_cell_length_c                   10.502(6)
_cell_angle_alpha                90
_cell_angle_beta                 95.595(9)
_cell_angle_gamma                90
_cell_volume                     2181.81
_exptl_crystal_colour            colorless
_exptl_crystal_description       plate
_cell_formula_units_Z            8
_exptl_crystal_recrystallization_method 'ethyl acetate/petroleum ether'
loop_
_atom_site_label
_atom_site_type_symbol
_atom_site_fract_x
_atom_site_fract_y
_atom_site_fract_z
N1 N 0.42628(5) 0.00856(16) 0.46860(12)
C1 C 0.44315(6) 0.0917(2) 0.57224(16)
C2 C 0.45817(7) 0.2272(2) 0.41340(17)
C3 C 0.21565(8) 0.0482(3) 0.4514(2)
C4 C 0.16308(9) 0.0518(3) 0.4027(3)
C5 C 0.14476(8) -0.0517(3) 0.3076(2)
C6 C 0.17876(9) -0.1586(3) 0.2592(2)
C7 C 0.23157(8) -0.1618(3) 0.30566(19)
C8 C 0.25047(6) -0.05846(19) 0.40272(15)
C9 C 0.30672(6) -0.0577(2) 0.45780(16)
C10 C 0.34667(7) -0.1503(3) 0.3897(2)
C11 C 0.40156(7) -0.1517(2) 0.4588(2)
N2 N 0.46361(5) 0.23232(18) 0.54228(13)
N3 N 0.43586(6) 0.09517(19) 0.36341(12)
O2 O 0.32004(5) 0.01848(19) 0.55454(13)
H1 H 0.4384(8) 0.052(2) 0.6531(19)
H2 H 0.3344(7) -0.256(2) 0.3795(17)
H3 H 0.3459(8) -0.101(2) 0.3054(19)
H4 H 0.4011(8) -0.186(2) 0.5466(19)
H5 H 0.4694(8) 0.314(2) 0.3607(18)
H6 H 0.2546(9) -0.237(3) 0.268(2)
H7 H 0.4242(9) -0.225(3) 0.414(2)
H8 H 0.2289(9) 0.117(3) 0.520(2)
H9 H 0.1434(10) 0.125(3) 0.444(2)
H10 H 0.1074(9) -0.051(3) 0.2742(19)
H11 H 0.1647(10) -0.230(3) 0.191(2)
O1 O 0.5000 0.4535(2) 0.7500
H12 H 0.5106(11) 0.389(3) 0.815(2)
H12B H 0.4894(11) 0.389(3) 0.685(2)
loop_
_geom_bond_atom_site_label_1
_geom_bond_atom_site_label_2
_geom_bond_site_symmetry_1
_geom_bond_site_symmetry_2
N1 C1 1_555 1_555
C1 N2 1_555 1_555
C2 N2 1_555 1_555
C3 C4 1_555 1_555
C4 C5 1_555 1_555
C5 C6 1_555 1_555
C6 C7 1_555 1_555
C7 C8 1_555 1_555
C8 C3 1_555 1_555
C9 C8 1_555 1_555
C10 C9 1_555 1_555
C11 N1 1_555 1_555
N3 N1 1_555 1_555
O1 H12 1_555 1_555
O2 C9 1_555 1_555
H1 C1 1_555 1_555
H2 C10 1_555 1_555
H3 C10 1_555 1_555
H4 C11 1_555 1_555
H5 C2 1_555 1_555
H6 C7 1_555 1_555
H7 C11 1_555 1_555
H8 C3 1_555 1_555
H9 C4 1_555 1_555
H10 C5 1_555 1_555
H11 C6 1_555 1_555
H12B O1 1_555 1_555
C2 N3 1_555 1_555
C10 C11 1_555 1_555

#END
