
#######################################################################
#
#                 Cambridge Crystallographic Data Centre
#                                CCDC 
#
#######################################################################
#
# If this CIF has been generated from an entry in the Cambridge 
# Structural Database, then it will include bibliographic, chemical, 
# crystal, experimental, refinement or atomic coordinate data resulting 
# from the CCDC's data processing and validation procedures.
#
#######################################################################

data_FOBZUS
_chemical_formula_moiety         'C13 H9 N3 O2'
_chemical_name_systematic        2-(2-Nitrophenyl)-1H-benzimidazole
_symmetry_cell_setting           orthorhombic
_symmetry_space_group_name_H-M   'P b c a'
_symmetry_Int_Tables_number      61
_space_group_name_Hall           '-P 2ac 2ab'
loop_
_symmetry_equiv_pos_site_id
_symmetry_equiv_pos_as_xyz
1 x,y,z
2 1/2-x,-y,1/2+z
3 -x,1/2+y,1/2-z
4 1/2+x,1/2-y,-z
5 -x,-y,-z
6 1/2+x,y,1/2-z
7 x,1/2-y,1/2+z
8 1/2-x,1/2+y,z
_cell_length_a                   7.806(2)
_cell_length_b                   9.901(3)
_cell_length_c                   29.307(8)
_cell_angle_alpha                90
_cell_angle_beta                 90
_cell_angle_gamma                90
_cell_volume                     2265.06
_exptl_crystal_colour            yellow
_exptl_crystal_description       Needle
_cell_formula_units_Z            8
_exptl_crystal_recrystallization_method dichloromethane
loop_
_atom_site_label
_atom_site_type_symbol
_atom_site_fract_x
_atom_site_fract_y
_atom_site_fract_z
O1 O 0.3550(2) 0.72976(16) 0.03555(6)
O2 O 0.17616(18) 0.88919(16) 0.04967(5)
N1 N 0.18779(16) 0.93846(12) 0.14460(4)
H1 H 0.2018 0.8540 0.1388
N2 N 0.23100(17) 1.16064(12) 0.14295(5)
N3 N 0.3198(2) 0.84284(16) 0.04938(5)
C1 C 0.06475(19) 0.99322(15) 0.17240(5)
C2 C -0.0632(2) 0.93573(17) 0.19850(6)
H2 H -0.0814 0.8429 0.1988
C3 C -0.1624(2) 1.0220(2) 0.22404(6)
H3 H -0.2497 0.9868 0.2421
C4 C -0.1351(2) 1.1611(2) 0.22348(6)
H4 H -0.2037 1.2163 0.2415
C5 C -0.0100(2) 1.21854(17) 0.19710(6)
H5 H 0.0060 1.3116 0.1965
C6 C 0.0925(2) 1.13270(14) 0.17111(5)
C7 C 0.2829(2) 1.04132(14) 0.12801(5)
C8 C 0.4384(2) 1.02312(15) 0.10013(5)
C9 C 0.5800(2) 1.10263(19) 0.11062(7)
H6 H 0.5704 1.1676 0.1334
C10 C 0.7342(3) 1.0878(2) 0.08817(8)
H7 H 0.8261 1.1433 0.0956
C11 C 0.7522(3) 0.9914(2) 0.05482(7)
H8 H 0.8565 0.9808 0.0399
C12 C 0.6160(3) 0.9109(2) 0.04355(7)
H9 H 0.6275 0.8453 0.0210
C13 C 0.4616(2) 0.92748(16) 0.06575(6)
loop_
_geom_bond_atom_site_label_1
_geom_bond_atom_site_label_2
_geom_bond_site_symmetry_1
_geom_bond_site_symmetry_2
O1 N3 1_555 1_555
O2 N3 1_555 1_555
N1 H1 1_555 1_555
N2 C6 1_555 1_555
N3 C13 1_555 1_555
C1 N1 1_555 1_555
C2 C1 1_555 1_555
H2 C2 1_555 1_555
C3 C2 1_555 1_555
H3 C3 1_555 1_555
C4 C3 1_555 1_555
H4 C4 1_555 1_555
C5 C4 1_555 1_555
H5 C5 1_555 1_555
C6 C1 1_555 1_555
C7 N1 1_555 1_555
C8 C7 1_555 1_555
C9 C8 1_555 1_555
H6 C9 1_555 1_555
C10 C9 1_555 1_555
H7 C10 1_555 1_555
C11 C10 1_555 1_555
H8 C11 1_555 1_555
C12 C11 1_555 1_555
H9 C12 1_555 1_555
C13 C8 1_555 1_555
N2 C7 1_555 1_555
C5 C6 1_555 1_555
C12 C13 1_555 1_555

#END
