
#######################################################################
#
#                 Cambridge Crystallographic Data Centre
#                                CCDC 
#
#######################################################################
#
# If this CIF has been generated from an entry in the Cambridge 
# Structural Database, then it will include bibliographic, chemical, 
# crystal, experimental, refinement or atomic coordinate data resulting 
# from the CCDC's data processing and validation procedures.
#
#######################################################################

data_FOCBAB
_chemical_formula_moiety         'C17 H14 Cl1 N5 O1'
_chemical_name_systematic        
2-Amino-4-(4-chlorophenyl)-6-morpholinopyridine-3,5-dicarbonitrile
_symmetry_cell_setting           monoclinic
_symmetry_space_group_name_H-M   'P 21/c'
_symmetry_Int_Tables_number      14
_space_group_name_Hall           '-P 2ybc'
loop_
_symmetry_equiv_pos_site_id
_symmetry_equiv_pos_as_xyz
1 x,y,z
2 -x,1/2+y,1/2-z
3 -x,-y,-z
4 x,1/2-y,1/2+z
_cell_length_a                   7.0484(15)
_cell_length_b                   10.3371(19)
_cell_length_c                   22.174(4)
_cell_angle_alpha                90
_cell_angle_beta                 98.547(6)
_cell_angle_gamma                90
_cell_volume                     1597.66
_exptl_crystal_colour            'light yellow'
_exptl_crystal_description       block
_chemical_melting_point          '500-501 K'
_cell_formula_units_Z            4
_exptl_crystal_recrystallization_method ethanol
loop_
_atom_site_label
_atom_site_type_symbol
_atom_site_fract_x
_atom_site_fract_y
_atom_site_fract_z
Cl1 Cl -0.09698(7) 0.68942(5) 0.45423(2)
O1 O 0.96147(19) 0.38317(13) 0.14655(6)
N1 N 0.7714(2) 0.17777(14) 0.33068(7)
N2 N 0.7543(3) 0.03483(16) 0.40788(8)
N3 N 0.3933(2) 0.13328(16) 0.49133(8)
N4 N 0.5589(2) 0.60547(17) 0.28023(8)
N5 N 0.7878(2) 0.31283(15) 0.24868(7)
C1 C 0.6900(3) 0.14353(17) 0.37946(8)
C2 C 0.5395(2) 0.21771(17) 0.39920(8)
C3 C 0.4890(2) 0.33592(17) 0.37094(8)
C4 C 0.5774(2) 0.37182(17) 0.32133(8)
C5 C 0.7106(2) 0.28462(17) 0.30008(8)
C6 C 0.4551(3) 0.17411(17) 0.45026(8)
C7 C 0.3449(2) 0.42289(17) 0.39374(8)
C8 C 0.1548(3) 0.38392(19) 0.39032(9)
H1 H 0.1178 0.3003 0.3752
C9 C 0.0191(3) 0.4658(2) 0.40880(9)
H2 H -0.1107 0.4388 0.4060
C10 C 0.0735(3) 0.58634(18) 0.43121(8)
C11 C 0.2625(3) 0.62590(19) 0.43635(9)
H3 H 0.2996 0.7086 0.4527
C12 C 0.3973(3) 0.54349(19) 0.41734(9)
H4 H 0.5274 0.5704 0.4206
C13 C 0.5601(3) 0.50098(19) 0.29835(8)
C14 C 0.6730(3) 0.36281(19) 0.19299(8)
H5 H 0.5617 0.4117 0.2035
H6 H 0.6241 0.2900 0.1661
C15 C 0.7958(3) 0.45019(19) 0.16032(9)
H7 H 0.7197 0.4818 0.1220
H8 H 0.8365 0.5261 0.1863
C16 C 1.0718(3) 0.3317(2) 0.20063(9)
H9 H 1.1205 0.4037 0.2280
H10 H 1.1838 0.2844 0.1895
C17 C 0.9548(3) 0.2412(2) 0.23404(9)
H11 H 0.9123 0.1656 0.2081
H12 H 1.0332 0.2096 0.2719
H13 H 0.706(3) 0.005(2) 0.4385(10)
H14 H 0.853(3) -0.007(2) 0.3941(10)
loop_
_geom_bond_atom_site_label_1
_geom_bond_atom_site_label_2
_geom_bond_site_symmetry_1
_geom_bond_site_symmetry_2
Cl1 C10 1_555 1_555
O1 C15 1_555 1_555
N1 C1 1_555 1_555
N2 C1 1_555 1_555
N3 C6 1_555 1_555
N4 C13 1_555 1_555
N5 C5 1_555 1_555
C1 C2 1_555 1_555
C2 C3 1_555 1_555
C3 C4 1_555 1_555
C4 C5 1_555 1_555
C5 N1 1_555 1_555
C6 C2 1_555 1_555
C7 C3 1_555 1_555
C8 C7 1_555 1_555
H1 C8 1_555 1_555
C9 C8 1_555 1_555
H2 C9 1_555 1_555
C10 C9 1_555 1_555
C11 C10 1_555 1_555
H3 C11 1_555 1_555
C12 C7 1_555 1_555
H4 C12 1_555 1_555
C13 C4 1_555 1_555
C14 N5 1_555 1_555
H5 C14 1_555 1_555
H6 C14 1_555 1_555
C15 C14 1_555 1_555
H7 C15 1_555 1_555
H8 C15 1_555 1_555
C16 O1 1_555 1_555
H9 C16 1_555 1_555
H10 C16 1_555 1_555
C17 N5 1_555 1_555
H11 C17 1_555 1_555
H12 C17 1_555 1_555
H13 N2 1_555 1_555
H14 N2 1_555 1_555
C11 C12 1_555 1_555
C16 C17 1_555 1_555

#END
