
#######################################################################
#
#                 Cambridge Crystallographic Data Centre
#                                CCDC 
#
#######################################################################
#
# If this CIF has been generated from an entry in the Cambridge 
# Structural Database, then it will include bibliographic, chemical, 
# crystal, experimental, refinement or atomic coordinate data resulting 
# from the CCDC's data processing and validation procedures.
#
#######################################################################

data_FOCFAF
_chemical_formula_moiety         'C23 H18 N2 O2,H2 O1'
_chemical_name_systematic        
'N,N-Diphenyl-2-(quinolin-8-yloxy)acetamide monohydrate'
_symmetry_cell_setting           triclinic
_symmetry_space_group_name_H-M   'P -1'
_symmetry_Int_Tables_number      2
_space_group_name_Hall           '-P 1'
loop_
_symmetry_equiv_pos_site_id
_symmetry_equiv_pos_as_xyz
1 x,y,z
2 -x,-y,-z
_cell_length_a                   9.1761(8)
_cell_length_b                   9.5962(8)
_cell_length_c                   11.9113(10)
_cell_angle_alpha                72.5260(10)
_cell_angle_beta                 78.339(2)
_cell_angle_gamma                82.942(2)
_cell_volume                     977.635
_exptl_crystal_colour            colorless
_exptl_crystal_description       column
_cell_formula_units_Z            2
_exptl_crystal_recrystallization_method 'petroleum ether/ethyl acetate'
loop_
_atom_site_label
_atom_site_type_symbol
_atom_site_fract_x
_atom_site_fract_y
_atom_site_fract_z
O1 O 0.30556(17) 0.93225(17) 0.29003(14)
H19 H 0.276(3) 0.842(3) 0.305(2)
H20 H 0.301(3) 0.971(3) 0.213(2)
O2 O 0.28476(14) 0.76932(11) 0.10840(9)
O3 O 0.31292(17) 1.05779(13) 0.04280(11)
N1 N 0.2287(2) 0.63528(16) 0.34335(13)
N2 N 0.25780(16) 1.08670(14) -0.13910(12)
C1 C 0.1992(3) 0.5678(3) 0.45843(19)
H1 H 0.1835 0.6249 0.5111
C2 C 0.1899(4) 0.4178(3) 0.5069(2)
H2 H 0.1668 0.3766 0.5892
C3 C 0.2152(3) 0.3332(2) 0.4319(2)
H3 H 0.2105 0.2323 0.4625
C4 C 0.2488(2) 0.39689(18) 0.30709(18)
C5 C 0.2772(2) 0.3146(2) 0.2235(2)
H4 H 0.2740 0.2133 0.2499
C6 C 0.3090(2) 0.3831(2) 0.1052(2)
H5 H 0.3276 0.3281 0.0509
C7 C 0.3144(2) 0.53633(19) 0.06318(17)
H6 H 0.3376 0.5813 -0.0185
C8 C 0.28594(18) 0.61947(16) 0.14108(15)
C9 C 0.2532(2) 0.55117(17) 0.26645(16)
C10 C 0.3087(2) 0.84013(17) -0.01566(14)
H7 H 0.2361 0.8126 -0.0527
H8 H 0.4076 0.8115 -0.0524
C11 C 0.2933(2) 1.00386(17) -0.03303(14)
C12 C 0.24529(19) 1.24465(17) -0.16407(14)
C13 C 0.1121(2) 1.3150(2) -0.12962(18)
H9 H 0.0305 1.2613 -0.0877
C14 C 0.0993(2) 1.4658(2) -0.1572(2)
H10 H 0.0088 1.5137 -0.1344
C15 C 0.2186(3) 1.5446(2) -0.21765(19)
H11 H 0.2097 1.6462 -0.2360
C16 C 0.3517(3) 1.4747(2) -0.2515(2)
H12 H 0.4331 1.5290 -0.2927
C17 C 0.3663(2) 1.3234(2) -0.22480(18)
H13 H 0.4569 1.2758 -0.2478
C18 C 0.2342(2) 1.02765(17) -0.23211(14)
C19 C 0.0911(2) 1.0211(2) -0.24861(17)
H14 H 0.0102 1.0523 -0.1989
C20 C 0.0677(3) 0.9685(2) -0.3388(2)
H15 H -0.0290 0.9642 -0.3498
C21 C 0.1852(3) 0.9229(2) -0.41182(18)
H16 H 0.1688 0.8877 -0.4726
C22 C 0.3276(3) 0.9286(2) -0.39610(17)
H17 H 0.4076 0.8964 -0.4459
C23 C 0.3537(2) 0.9824(2) -0.30596(16)
H18 H 0.4507 0.9875 -0.2960
loop_
_geom_bond_atom_site_label_1
_geom_bond_atom_site_label_2
_geom_bond_site_symmetry_1
_geom_bond_site_symmetry_2
O1 H19 1_555 1_555
O2 C8 1_555 1_555
O3 C11 1_555 1_555
N1 C1 1_555 1_555
N2 C11 1_555 1_555
C1 H1 1_555 1_555
C2 C1 1_555 1_555
H2 C2 1_555 1_555
C3 C2 1_555 1_555
H3 C3 1_555 1_555
C4 C3 1_555 1_555
C5 C4 1_555 1_555
H4 C5 1_555 1_555
C6 C5 1_555 1_555
H5 C6 1_555 1_555
C7 C6 1_555 1_555
H6 C7 1_555 1_555
C8 C7 1_555 1_555
C9 N1 1_555 1_555
C10 O2 1_555 1_555
H7 C10 1_555 1_555
H8 C10 1_555 1_555
C11 C10 1_555 1_555
C12 N2 1_555 1_555
C13 C12 1_555 1_555
H9 C13 1_555 1_555
C14 C13 1_555 1_555
H10 C14 1_555 1_555
C15 C14 1_555 1_555
H11 C15 1_555 1_555
C16 C15 1_555 1_555
H12 C16 1_555 1_555
C17 C12 1_555 1_555
H13 C17 1_555 1_555
C18 N2 1_555 1_555
C19 C18 1_555 1_555
H14 C19 1_555 1_555
C20 C19 1_555 1_555
H15 C20 1_555 1_555
C21 C20 1_555 1_555
H16 C21 1_555 1_555
C22 C21 1_555 1_555
H17 C22 1_555 1_555
C23 C18 1_555 1_555
H18 C23 1_555 1_555
H20 O1 1_555 1_555
C4 C9 1_555 1_555
C8 C9 1_555 1_555
C16 C17 1_555 1_555
C22 C23 1_555 1_555

#END
