
#######################################################################
#
#                 Cambridge Crystallographic Data Centre
#                                CCDC 
#
#######################################################################
#
# If this CIF has been generated from an entry in the Cambridge 
# Structural Database, then it will include bibliographic, chemical, 
# crystal, experimental, refinement or atomic coordinate data resulting 
# from the CCDC's data processing and validation procedures.
#
#######################################################################

data_FOCMUG
_chemical_formula_moiety         'C25 H29 N1 O6 S1'
_chemical_name_systematic        
'Dimethyl cis-2-(3-phenyl-1-(p-toluenesulfonyl)aziridin-2-yl)hept-1-ene-1,1-dicarboxylate'
_symmetry_cell_setting           monoclinic
_symmetry_space_group_name_H-M   'P 21/c'
_symmetry_Int_Tables_number      14
_space_group_name_Hall           '-P 2ybc'
loop_
_symmetry_equiv_pos_site_id
_symmetry_equiv_pos_as_xyz
1 x,y,z
2 -x,1/2+y,1/2-z
3 -x,-y,-z
4 x,1/2-y,1/2+z
_cell_length_a                   11.211(2)
_cell_length_b                   8.6072(16)
_cell_length_c                   26.662(5)
_cell_angle_alpha                90
_cell_angle_beta                 99.710(4)
_cell_angle_gamma                90
_cell_volume                     2535.9
_exptl_crystal_colour            colorless
_cell_formula_units_Z            4
loop_
_atom_site_label
_atom_site_type_symbol
_atom_site_fract_x
_atom_site_fract_y
_atom_site_fract_z
S1 S 0.53426(11) -0.13160(15) 0.84505(4)
N1 N 0.6450(3) -0.0280(4) 0.87978(11)
O1 O 0.8722(3) 0.5733(5) 0.8742(2)
O2 O 0.9588(3) 0.4318(4) 0.93640(14)
O3 O 0.5692(3) 0.3915(3) 0.93161(11)
O4 O 0.7214(3) 0.5443(4) 0.96616(12)
O5 O 0.4236(3) -0.0438(4) 0.83540(11)
O6 O 0.5357(3) -0.2779(3) 0.86983(11)
C1 C 0.6090(4) 0.0498(5) 0.92443(15)
C2 C 0.6328(4) 0.1413(5) 0.87951(16)
C3 C 0.7451(3) 0.2344(5) 0.87982(14)
C4 C 0.8346(5) 0.1737(7) 0.8481(2)
C5 C 0.8016(4) 0.2245(6) 0.79207(18)
H1 H 0.7239 0.1798 0.7777
H2 H 0.7932 0.3366 0.7907
C6 C 0.8924(5) 0.1772(8) 0.7606(2)
H3 H 0.9712 0.2155 0.7764
H4 H 0.8966 0.0647 0.7600
C7 C 0.8668(6) 0.2336(9) 0.7085(3)
H5 H 0.7871 0.2015 0.6931
H6 H 0.9251 0.1916 0.6896
H7 H 0.8715 0.3450 0.7084
C8 C 0.7615(4) 0.3679(5) 0.90466(15)
C9 C 0.8716(5) 0.4741(8) 0.9034(2)
C10 C 1.0551(5) 0.5577(9) 0.9359(3)
H8 H 1.1179 0.5190 0.9188
H9 H 1.0890 0.5854 0.9702
H10 H 1.0187 0.6477 0.9182
C11 C 0.6710(4) 0.4337(5) 0.93477(16)
C12 C 0.6432(5) 0.6129(5) 0.9975(2)
H11 H 0.5696 0.6463 0.9766
H12 H 0.6829 0.7006 1.0153
H13 H 0.6250 0.5376 1.0217
C13 C 0.6936(4) 0.0387(5) 0.97337(15)
C14 C 0.6620(4) 0.1083(5) 1.01582(18)
H14 H 0.5894 0.1626 1.0128
C15 C 0.7360(6) 0.0992(7) 1.0627(2)
H15 H 0.7144 0.1485 1.0909
C16 C 0.8413(6) 0.0169(8) 1.0672(2)
H16 H 0.8913 0.0094 1.0986
C17 C 0.8737(4) -0.0544(7) 1.0259(3)
H17 H 0.9452 -0.1113 1.0295
C18 C 0.8007(4) -0.0425(6) 0.97854(18)
H18 H 0.8242 -0.0893 0.9503
C19 C 0.5901(4) -0.1496(5) 0.78815(16)
C20 C 0.5378(4) -0.0719(5) 0.74615(18)
H19 H 0.4715 -0.0080 0.7474
C21 C 0.5824(5) -0.0873(5) 0.70172(18)
H20 H 0.5451 -0.0333 0.6731
C22 C 0.6795(5) -0.1789(6) 0.69783(19)
C23 C 0.7312(4) -0.2581(6) 0.7410(2)
H21 H 0.7970 -0.3227 0.7395
C24 C 0.6883(4) -0.2441(5) 0.78622(18)
H22 H 0.7250 -0.2977 0.8150
C25 C 0.7276(5) -0.1978(7) 0.64913(19)
H23 H 0.8105 -0.1646 0.6540
H24 H 0.6806 -0.1358 0.6231
H25 H 0.7226 -0.3050 0.6391
H26 H 0.529(3) 0.042(4) 0.9241(13)
H27 H 0.569(3) 0.183(4) 0.8575(12)
H28 H 0.912(4) 0.208(4) 0.8614(16)
H29 H 0.839(3) 0.066(4) 0.8495(14)
loop_
_geom_bond_atom_site_label_1
_geom_bond_atom_site_label_2
_geom_bond_site_symmetry_1
_geom_bond_site_symmetry_2
S1 N1 1_555 1_555
N1 C1 1_555 1_555
O1 C9 1_555 1_555
O2 C9 1_555 1_555
O3 C11 1_555 1_555
O4 C11 1_555 1_555
O5 S1 1_555 1_555
O6 S1 1_555 1_555
C1 C2 1_555 1_555
C2 N1 1_555 1_555
C3 C2 1_555 1_555
C4 C3 1_555 1_555
C5 C4 1_555 1_555
H1 C5 1_555 1_555
H2 C5 1_555 1_555
C6 C5 1_555 1_555
H3 C6 1_555 1_555
H4 C6 1_555 1_555
C7 C6 1_555 1_555
H5 C7 1_555 1_555
H6 C7 1_555 1_555
H7 C7 1_555 1_555
C8 C3 1_555 1_555
C9 C8 1_555 1_555
C10 O2 1_555 1_555
H8 C10 1_555 1_555
H9 C10 1_555 1_555
H10 C10 1_555 1_555
C11 C8 1_555 1_555
C12 O4 1_555 1_555
H11 C12 1_555 1_555
H12 C12 1_555 1_555
H13 C12 1_555 1_555
C13 C1 1_555 1_555
C14 C13 1_555 1_555
H14 C14 1_555 1_555
C15 C14 1_555 1_555
H15 C15 1_555 1_555
C16 C15 1_555 1_555
H16 C16 1_555 1_555
C17 C16 1_555 1_555
H17 C17 1_555 1_555
C18 C13 1_555 1_555
H18 C18 1_555 1_555
C19 S1 1_555 1_555
C20 C19 1_555 1_555
H19 C20 1_555 1_555
C21 C20 1_555 1_555
H20 C21 1_555 1_555
C22 C21 1_555 1_555
C23 C22 1_555 1_555
H21 C23 1_555 1_555
C24 C19 1_555 1_555
H22 C24 1_555 1_555
C25 C22 1_555 1_555
H23 C25 1_555 1_555
H24 C25 1_555 1_555
H25 C25 1_555 1_555
H26 C1 1_555 1_555
H27 C2 1_555 1_555
H28 C4 1_555 1_555
H29 C4 1_555 1_555
C17 C18 1_555 1_555
C23 C24 1_555 1_555

#END
