
#######################################################################
#
#                 Cambridge Crystallographic Data Centre
#                                CCDC 
#
#######################################################################
#
# If this CIF has been generated from an entry in the Cambridge 
# Structural Database, then it will include bibliographic, chemical, 
# crystal, experimental, refinement or atomic coordinate data resulting 
# from the CCDC's data processing and validation procedures.
#
#######################################################################

data_FOCNES
_chemical_formula_moiety         'C21 H17 Br1'
_chemical_name_systematic        
1-(5-(2-bromophenyl)cyclopent-1-en-1-yl)naphthalene
_symmetry_cell_setting           orthorhombic
_symmetry_space_group_name_H-M   'P n a 21'
_symmetry_Int_Tables_number      33
_space_group_name_Hall           'P 2c -2n'
loop_
_symmetry_equiv_pos_site_id
_symmetry_equiv_pos_as_xyz
1 x,y,z
2 -x,-y,1/2+z
3 1/2+x,1/2-y,z
4 1/2-x,1/2+y,1/2+z
_cell_length_a                   13.5068(12)
_cell_length_b                   16.4806(15)
_cell_length_c                   7.0690(6)
_cell_angle_alpha                90
_cell_angle_beta                 90
_cell_angle_gamma                90
_cell_volume                     1573.56
_exptl_crystal_colour            colorless
_exptl_crystal_description       block
_cell_formula_units_Z            4
loop_
_atom_site_label
_atom_site_type_symbol
_atom_site_fract_x
_atom_site_fract_y
_atom_site_fract_z
Br1 Br -0.019632(13) 0.120811(11) 0.68316(6)
C1 C 0.25787(16) -0.06325(12) 0.8504(3)
C2 C 0.18785(16) -0.09398(14) 0.7265(3)
H1 H 0.1209 -0.0770 0.7384
C3 C 0.21306(18) -0.14949(14) 0.5839(3)
H2 H 0.1632 -0.1698 0.5017
C4 C 0.30877(18) -0.17444(14) 0.5627(3)
H3 H 0.3248 -0.2131 0.4679
C5 C 0.38427(14) -0.14321(11) 0.6804(4)
C6 C 0.48442(16) -0.16795(15) 0.6602(3)
H4 H 0.5011 -0.2064 0.5652
C7 C 0.55789(19) -0.13757(17) 0.7752(4)
H5 H 0.6243 -0.1557 0.7615
C8 C 0.53351(18) -0.07911(17) 0.9137(4)
H6 H 0.5844 -0.0564 0.9900
C9 C 0.43748(16) -0.05470(14) 0.9393(3)
H7 H 0.4228 -0.0158 1.0345
C10 C 0.35936(16) -0.08627(12) 0.8266(3)
C11 C 0.22390(15) -0.01088(12) 1.0080(3)
C12 C 0.24515(14) -0.01928(11) 1.1919(3)
H8 H 0.2911 -0.0580 1.2391
C13 C 0.18896(17) 0.03871(13) 1.3165(3)
H9 H 0.2342 0.0680 1.4031
H10 H 0.1383 0.0099 1.3921
C14 C 0.14062(16) 0.09729(13) 1.1744(4)
H11 H 0.1754 0.1502 1.1751
H12 H 0.0703 0.1065 1.2077
C15 C 0.14877(15) 0.05682(12) 0.9755(3)
H13 H 0.0834 0.0326 0.9402
C16 C 0.18014(16) 0.11666(11) 0.8254(3)
C17 C 0.11483(13) 0.15431(10) 0.6985(3)
C18 C 0.14518(18) 0.21550(13) 0.5756(3)
H14 H 0.0986 0.2413 0.4949
C19 C 0.24403(19) 0.23843(14) 0.5722(3)
H15 H 0.2656 0.2798 0.4883
C20 C 0.31149(14) 0.20071(12) 0.6918(4)
H16 H 0.3793 0.2159 0.6886
C21 C 0.27976(16) 0.14098(13) 0.8159(3)
H17 H 0.3267 0.1158 0.8969
loop_
_geom_bond_atom_site_label_1
_geom_bond_atom_site_label_2
_geom_bond_site_symmetry_1
_geom_bond_site_symmetry_2
Br1 C17 1_555 1_555
C1 C2 1_555 1_555
C2 H1 1_555 1_555
C3 C2 1_555 1_555
H2 C3 1_555 1_555
C4 C3 1_555 1_555
H3 C4 1_555 1_555
C5 C4 1_555 1_555
C6 C5 1_555 1_555
H4 C6 1_555 1_555
C7 C6 1_555 1_555
H5 C7 1_555 1_555
C8 C7 1_555 1_555
H6 C8 1_555 1_555
C9 C8 1_555 1_555
H7 C9 1_555 1_555
C10 C1 1_555 1_555
C11 C1 1_555 1_555
C12 C11 1_555 1_555
H8 C12 1_555 1_555
C13 C12 1_555 1_555
H9 C13 1_555 1_555
H10 C13 1_555 1_555
C14 C13 1_555 1_555
H11 C14 1_555 1_555
H12 C14 1_555 1_555
C15 C11 1_555 1_555
H13 C15 1_555 1_555
C16 C15 1_555 1_555
C17 C16 1_555 1_555
C18 C17 1_555 1_555
H14 C18 1_555 1_555
C19 C18 1_555 1_555
H15 C19 1_555 1_555
C20 C19 1_555 1_555
H16 C20 1_555 1_555
C21 C16 1_555 1_555
H17 C21 1_555 1_555
C5 C10 1_555 1_555
C9 C10 1_555 1_555
C14 C15 1_555 1_555
C20 C21 1_555 1_555

#END
