
#######################################################################
#
#                 Cambridge Crystallographic Data Centre
#                                CCDC 
#
#######################################################################
#
# If this CIF has been generated from an entry in the Cambridge 
# Structural Database, then it will include bibliographic, chemical, 
# crystal, experimental, refinement or atomic coordinate data resulting 
# from the CCDC's data processing and validation procedures.
#
#######################################################################

data_FOCNAO
_chemical_formula_moiety         'C31 H26'
_chemical_name_systematic        
3'-(1-naphthyl)dispiro[bicyclo[4.1.0]heptane-7,1'-cyclopropane-2',9''-fluorene]
_symmetry_cell_setting           triclinic
_symmetry_space_group_name_H-M   'P -1'
_symmetry_Int_Tables_number      2
_space_group_name_Hall           '-P 1'
loop_
_symmetry_equiv_pos_site_id
_symmetry_equiv_pos_as_xyz
1 x,y,z
2 -x,-y,-z
_cell_length_a                   9.942(2)
_cell_length_b                   10.484(2)
_cell_length_c                   11.656(2)
_cell_angle_alpha                69.276(8)
_cell_angle_beta                 79.754(9)
_cell_angle_gamma                71.735(9)
_cell_volume                     1075.99
_exptl_crystal_colour            colorless
_exptl_crystal_description       block
_cell_formula_units_Z            2
loop_
_atom_site_label
_atom_site_type_symbol
_atom_site_fract_x
_atom_site_fract_y
_atom_site_fract_z
C1 C 0.79753(10) 0.87694(10) 0.25740(9)
C2 C 0.74733(10) 0.74632(10) 0.29997(9)
C3 C 0.81304(11) 0.60710(11) 0.36650(9)
H1 H 0.9049 0.5828 0.3940
C4 C 0.74105(12) 0.50401(11) 0.39192(10)
H2 H 0.7849 0.4085 0.4368
C5 C 0.60565(13) 0.53904(12) 0.35235(11)
H3 H 0.5587 0.4672 0.3705
C6 C 0.53879(12) 0.67828(11) 0.28660(11)
H4 H 0.4465 0.7021 0.2600
C7 C 0.60991(11) 0.78198(10) 0.26062(9)
C8 C 0.56751(11) 0.93430(10) 0.19234(9)
C9 C 0.44466(11) 1.01994(11) 0.13276(10)
H5 H 0.3676 0.9825 0.1372
C10 C 0.43758(12) 1.16127(12) 0.06671(10)
H6 H 0.3550 1.2207 0.0254
C11 C 0.55077(12) 1.21681(11) 0.06046(10)
H7 H 0.5448 1.3129 0.0135
C12 C 0.67235(11) 1.13243(11) 0.12243(10)
H8 H 0.7485 1.1705 0.1193
C13 C 0.67924(11) 0.99133(10) 0.18880(9)
C14 C 0.89833(11) 0.90240(10) 0.32331(9)
C15 C 0.93984(12) 0.85572(11) 0.45158(9)
H9 H 1.0446 0.8198 0.4600
C16 C 0.85053(14) 0.78860(13) 0.56255(10)
H10 H 0.8941 0.7731 0.6381
H11 H 0.8515 0.6948 0.5604
C17 C 0.69639(14) 0.87781(14) 0.56919(11)
H12 H 0.6451 0.8744 0.5054
H13 H 0.6489 0.8382 0.6506
C18 C 0.69046(14) 1.03150(14) 0.54951(11)
H14 H 0.5915 1.0846 0.5660
H15 H 0.7500 1.0342 0.6078
C19 C 0.74359(13) 1.10136(12) 0.41767(11)
H16 H 0.7512 1.1960 0.4100
H17 H 0.6732 1.1151 0.3610
C20 C 0.88780(12) 1.01407(11) 0.37905(10)
H18 H 0.9633 1.0652 0.3482
C21 C 0.95473(10) 0.87661(10) 0.20503(9)
H19 H 0.9625 0.9643 0.1358
C22 C 1.05889(10) 0.74459(11) 0.18990(9)
C23 C 1.15901(11) 0.65961(12) 0.27283(10)
H20 H 1.1609 0.6840 0.3435
C24 C 1.25928(12) 0.53657(12) 0.25507(11)
H21 H 1.3247 0.4776 0.3154
C25 C 1.26233(12) 0.50227(11) 0.15145(11)
H22 H 1.3313 0.4209 0.1393
C26 C 1.16272(11) 0.58785(11) 0.06202(10)
C27 C 1.16542(13) 0.55666(12) -0.04785(11)
H23 H 1.2377 0.4793 -0.0639
C28 C 1.06510(13) 0.63679(12) -0.13074(10)
H24 H 1.0685 0.6151 -0.2039
C29 C 0.95663(12) 0.75160(12) -0.10758(10)
H25 H 0.8858 0.8050 -0.1643
C30 C 0.95253(11) 0.78686(11) -0.00367(9)
H26 H 0.8794 0.8647 0.0104
C31 C 1.05689(11) 0.70772(10) 0.08282(9)
loop_
_geom_bond_atom_site_label_1
_geom_bond_atom_site_label_2
_geom_bond_site_symmetry_1
_geom_bond_site_symmetry_2
C1 C2 1_555 1_555
C2 C3 1_555 1_555
C3 H1 1_555 1_555
C4 C3 1_555 1_555
H2 C4 1_555 1_555
C5 C4 1_555 1_555
H3 C5 1_555 1_555
C6 C5 1_555 1_555
H4 C6 1_555 1_555
C7 C2 1_555 1_555
C8 C7 1_555 1_555
C9 C8 1_555 1_555
H5 C9 1_555 1_555
C10 C9 1_555 1_555
H6 C10 1_555 1_555
C11 C10 1_555 1_555
H7 C11 1_555 1_555
C12 C11 1_555 1_555
H8 C12 1_555 1_555
C13 C1 1_555 1_555
C14 C1 1_555 1_555
C15 C14 1_555 1_555
H9 C15 1_555 1_555
C16 C15 1_555 1_555
H10 C16 1_555 1_555
H11 C16 1_555 1_555
C17 C16 1_555 1_555
H12 C17 1_555 1_555
H13 C17 1_555 1_555
C18 C17 1_555 1_555
H14 C18 1_555 1_555
H15 C18 1_555 1_555
C19 C18 1_555 1_555
H16 C19 1_555 1_555
H17 C19 1_555 1_555
C20 C14 1_555 1_555
H18 C20 1_555 1_555
C21 C1 1_555 1_555
H19 C21 1_555 1_555
C22 C21 1_555 1_555
C23 C22 1_555 1_555
H20 C23 1_555 1_555
C24 C23 1_555 1_555
H21 C24 1_555 1_555
C25 C24 1_555 1_555
H22 C25 1_555 1_555
C26 C25 1_555 1_555
C27 C26 1_555 1_555
H23 C27 1_555 1_555
C28 C27 1_555 1_555
H24 C28 1_555 1_555
C29 C28 1_555 1_555
H25 C29 1_555 1_555
C30 C29 1_555 1_555
H26 C30 1_555 1_555
C31 C22 1_555 1_555
C6 C7 1_555 1_555
C8 C13 1_555 1_555
C12 C13 1_555 1_555
C14 C21 1_555 1_555
C15 C20 1_555 1_555
C19 C20 1_555 1_555
C26 C31 1_555 1_555
C30 C31 1_555 1_555

#END
