
#######################################################################
#
#                 Cambridge Crystallographic Data Centre
#                                CCDC 
#
#######################################################################
#
# If this CIF has been generated from an entry in the Cambridge 
# Structural Database, then it will include bibliographic, chemical, 
# crystal, experimental, refinement or atomic coordinate data resulting 
# from the CCDC's data processing and validation procedures.
#
#######################################################################

data_FOCPUJ
_chemical_formula_moiety         'C21 H29 N1 O7'
_chemical_name_systematic        
'Benzyl 4-hydroxymethyl-2,2,8,8-tetramethyl-hexahydro-1,3,7,9-tetraoxa-5-azacyclopenta(e)azulene-5-carboxylate'
_symmetry_cell_setting           orthorhombic
_symmetry_space_group_name_H-M   'P 21 21 21'
_symmetry_Int_Tables_number      19
_space_group_name_Hall           'P 2ac 2ab'
loop_
_symmetry_equiv_pos_site_id
_symmetry_equiv_pos_as_xyz
1 x,y,z
2 1/2+x,1/2-y,-z
3 -x,1/2+y,1/2-z
4 1/2-x,-y,1/2+z
_cell_length_a                   9.7399(15)
_cell_length_b                   10.8579(15)
_cell_length_c                   19.195(4)
_cell_angle_alpha                90
_cell_angle_beta                 90
_cell_angle_gamma                90
_cell_volume                     2029.96
_exptl_crystal_colour            colorless
_exptl_crystal_description       parallelepiped
_cell_formula_units_Z            4
loop_
_atom_site_label
_atom_site_type_symbol
_atom_site_fract_x
_atom_site_fract_y
_atom_site_fract_z
C1 C 0.5635(4) 0.6400(3) 0.24529(18)
C2 C 0.5600(4) 0.7800(3) 0.25182(19)
C3 C 0.6960(4) 0.8497(3) 0.2557(2)
C4 C 0.8138(4) 0.8243(3) 0.20311(19)
C5 C 0.7861(4) 0.7521(3) 0.13642(17)
C6 C 0.9190(4) 0.7410(4) 0.0940(2)
C7 C 0.6945(4) 0.5824(3) 0.21714(18)
C8 C 0.6680(4) 0.5746(3) 0.09118(19)
C9 C 0.5316(5) 0.4036(4) 0.0562(3)
C10 C 0.5445(4) 0.2667(4) 0.05860(18)
C11 C 0.4277(5) 0.1953(5) 0.0505(2)
C12 C 0.4384(6) 0.0686(4) 0.0456(3)
C13 C 0.5645(7) 0.0121(4) 0.0498(3)
C14 C 0.6791(5) 0.0814(5) 0.0602(3)
C15 C 0.6696(5) 0.2078(4) 0.0646(2)
C16 C 0.3831(4) 0.7261(4) 0.1818(2)
C17 C 0.2616(4) 0.7422(5) 0.2297(3)
C18 C 0.3427(5) 0.7250(5) 0.1064(2)
C19 C 0.8985(4) 0.8051(5) 0.3135(2)
C20 C 0.9471(5) 0.7047(5) 0.3613(2)
C21 C 0.9703(5) 0.9263(5) 0.3266(3)
O1 O 0.4539(3) 0.6143(2) 0.19755(14)
O2 O 0.4839(3) 0.8197(2) 0.19270(14)
O3 O 0.7546(3) 0.8187(3) 0.32113(14)
O4 O 0.9168(3) 0.7656(3) 0.24343(13)
O5 O 0.9614(4) 0.8626(3) 0.07610(17)
O6 O 0.6586(3) 0.6232(3) 0.03387(12)
O7 O 0.6281(3) 0.4577(3) 0.10383(14)
N1 N 0.7278(3) 0.6273(3) 0.14688(14)
H1 H 0.5561 0.6034 0.2933
H2 H 0.5185 0.7991 0.2989
H3 H 0.6681 0.9362 0.2434
H4 H 0.8378 0.9060 0.1825
H5 H 0.7148 0.8017 0.1102
H6 H 0.9927 0.6995 0.1220
H7 H 0.9035 0.6916 0.0501
H8 H 0.7728 0.6034 0.2498
H9 H 0.6838 0.4904 0.2164
H10 H 0.5537 0.4326 0.0070
H11 H 0.4363 0.4285 0.0677
H12 H 0.3351 0.2354 0.0488
H13 H 0.3522 0.0177 0.0411
H14 H 0.5733 -0.0784 0.0417
H15 H 0.7706 0.0378 0.0629
H16 H 0.7551 0.2577 0.0732
H17 H 0.2935 0.7443 0.2796
H18 H 0.2128 0.8222 0.2194
H19 H 0.1959 0.6727 0.2234
H20 H 0.4263 0.7149 0.0765
H21 H 0.2957 0.8040 0.0939
H22 H 0.2788 0.6545 0.0980
H23 H 0.8968 0.6241 0.3498
H24 H 1.0482 0.6880 0.3551
H25 H 0.9284 0.7248 0.4109
H26 H 0.9340 0.9905 0.2931
H27 H 1.0710 0.9173 0.3194
H28 H 0.9512 0.9541 0.3752
loop_
_geom_bond_atom_site_label_1
_geom_bond_atom_site_label_2
_geom_bond_site_symmetry_1
_geom_bond_site_symmetry_2
C1 C2 1_555 1_555
C2 C3 1_555 1_555
C3 C4 1_555 1_555
C4 C5 1_555 1_555
C5 C6 1_555 1_555
C6 O5 1_555 1_555
C7 C1 1_555 1_555
C8 O6 1_555 1_555
C9 C10 1_555 1_555
C10 C11 1_555 1_555
C11 C12 1_555 1_555
C12 C13 1_555 1_555
C13 C14 1_555 1_555
C14 C15 1_555 1_555
C15 C10 1_555 1_555
C16 C17 1_555 1_555
C17 H17 1_555 1_555
C18 C16 1_555 1_555
C19 C20 1_555 1_555
C20 H23 1_555 1_555
C21 C19 1_555 1_555
O1 C1 1_555 1_555
O2 C2 1_555 1_555
O3 C3 1_555 1_555
O4 C4 1_555 1_555
O7 C8 1_555 1_555
N1 C5 1_555 1_555
H1 C1 1_555 1_555
H2 C2 1_555 1_555
H3 C3 1_555 1_555
H4 C4 1_555 1_555
H5 C5 1_555 1_555
H6 C6 1_555 1_555
H7 C6 1_555 1_555
H8 C7 1_555 1_555
H9 C7 1_555 1_555
H10 C9 1_555 1_555
H11 C9 1_555 1_555
H12 C11 1_555 1_555
H13 C12 1_555 1_555
H14 C13 1_555 1_555
H15 C14 1_555 1_555
H16 C15 1_555 1_555
H18 C17 1_555 1_555
H19 C17 1_555 1_555
H20 C18 1_555 1_555
H21 C18 1_555 1_555
H22 C18 1_555 1_555
H24 C20 1_555 1_555
H25 C20 1_555 1_555
H26 C21 1_555 1_555
H27 C21 1_555 1_555
H28 C21 1_555 1_555
C7 N1 1_555 1_555
C8 N1 1_555 1_555
C9 O7 1_555 1_555
C16 O1 1_555 1_555
C16 O2 1_555 1_555
C19 O3 1_555 1_555
C19 O4 1_555 1_555

#END
