
#######################################################################
#
#                 Cambridge Crystallographic Data Centre
#                                CCDC 
#
#######################################################################
#
# If this CIF has been generated from an entry in the Cambridge 
# Structural Database, then it will include bibliographic, chemical, 
# crystal, experimental, refinement or atomic coordinate data resulting 
# from the CCDC's data processing and validation procedures.
#
#######################################################################

data_FOCROG
_chemical_formula_moiety         'C22 H32 N2 O2,2(H2 O1)'
_chemical_name_systematic        
"1,1'-dodecane-1,12-diyldipyridin-4(1H)-one dihydrate"
_symmetry_cell_setting           monoclinic
_symmetry_space_group_name_H-M   'P 21/c'
_symmetry_Int_Tables_number      14
_space_group_name_Hall           '-P 2ybc'
loop_
_symmetry_equiv_pos_site_id
_symmetry_equiv_pos_as_xyz
1 x,y,z
2 -x,1/2+y,1/2-z
3 -x,-y,-z
4 x,1/2-y,1/2+z
_cell_length_a                   10.119(5)
_cell_length_b                   8.975(5)
_cell_length_c                   12.201(5)
_cell_angle_alpha                90
_cell_angle_beta                 91.050(5)
_cell_angle_gamma                90
_cell_volume                     1107.88
_exptl_crystal_colour            colorless
_exptl_crystal_description       prism
_cell_formula_units_Z            2
loop_
_atom_site_label
_atom_site_type_symbol
_atom_site_fract_x
_atom_site_fract_y
_atom_site_fract_z
C1 C 0.65271(11) 1.16391(13) 1.08003(9)
H1 H 0.6566 1.2380 1.0246
C2 C 0.63180(11) 1.20599(12) 1.18516(9)
H2 H 0.6217 1.3087 1.2018
C3 C 0.62464(10) 1.09826(12) 1.27123(8)
C4 C 0.64458(11) 0.94810(12) 1.23752(9)
H3 H 0.6432 0.8709 1.2908
C5 C 0.66556(11) 0.91266(12) 1.13085(9)
H4 H 0.6786 0.8113 1.1112
C6 C 0.69166(11) 0.97729(17) 0.93694(9)
H5 H 0.6470 1.0504 0.8881
H6 H 0.6519 0.8783 0.9223
C7 C 0.83716(10) 0.97192(12) 0.91019(8)
H7 H 0.8813 0.8951 0.9562
H8 H 0.8782 1.0693 0.9279
C8 C 0.85836(11) 0.93630(15) 0.78997(9)
H9 H 0.8141 0.8407 0.7723
H10 H 0.8156 1.0147 0.7447
C9 C 1.00238(11) 0.92498(15) 0.75896(9)
H11 H 1.0452 0.8458 0.8036
H12 H 1.0470 1.0203 0.7770
C10 C 1.02221(12) 0.89033(14) 0.63745(9)
H13 H 1.1150 0.8592 0.6274
H14 H 0.9650 0.8051 0.6166
C11 C 0.99193(12) 1.01940(13) 0.56027(9)
H15 H 1.0513 1.1036 0.5791
H16 H 0.9000 1.0529 0.5717
N1 N 0.66826(9) 1.01883(11) 1.05204(7)
O1 O 0.60248(9) 1.13425(10) 1.36991(7)
C1B C 1.34729(11) 0.83609(13) -0.08003(9)
H1B H 1.3434 0.7620 -0.0246
C2B C 1.36820(11) 0.79401(12) -0.18516(9)
H2B H 1.3783 0.6913 -0.2018
C3B C 1.37536(10) 0.90174(12) -0.27123(8)
C4B C 1.35542(11) 1.05190(12) -0.23752(9)
H3B H 1.3568 1.1291 -0.2908
C5B C 1.33444(11) 1.08734(12) -0.13085(9)
H4B H 1.3214 1.1887 -0.1112
C6B C 1.30834(11) 1.02271(17) 0.06306(9)
H5B H 1.3530 0.9496 0.1119
H6B H 1.3481 1.1217 0.0777
C7B C 1.16284(10) 1.02808(12) 0.08981(8)
H7B H 1.1187 1.1049 0.0438
H8B H 1.1218 0.9307 0.0721
C8B C 1.14164(11) 1.06370(15) 0.21003(9)
H9B H 1.1859 1.1593 0.2277
H10B H 1.1844 0.9853 0.2553
C9B C 0.99762(11) 1.07502(15) 0.24104(9)
H11B H 0.9548 1.1542 0.1964
H12B H 0.9530 0.9797 0.2230
C10B C 0.97779(12) 1.10967(14) 0.36255(9)
H13B H 0.8850 1.1408 0.3726
H14B H 1.0350 1.1949 0.3834
C11B C 1.00807(12) 0.98060(13) 0.43973(9)
H15B H 0.9487 0.8964 0.4209
H16B H 1.1000 0.9471 0.4283
N1B N 1.33174(9) 0.98117(11) -0.05204(7)
O1B O 1.39752(9) 0.86575(10) -0.36991(7)
O2 O 0.64861(12) 0.58232(14) 0.03497(11)
H17 H 0.633(2) 0.516(3) -0.017(2)
H18 H 0.569(2) 0.592(2) 0.0630(16)
loop_
_geom_bond_atom_site_label_1
_geom_bond_atom_site_label_2
_geom_bond_site_symmetry_1
_geom_bond_site_symmetry_2
C1 H1 1_555 1_555
C2 C1 1_555 1_555
H2 C2 1_555 1_555
C3 C2 1_555 1_555
C4 C3 1_555 1_555
H3 C4 1_555 1_555
C5 C4 1_555 1_555
H4 C5 1_555 1_555
C6 H5 1_555 1_555
H6 C6 1_555 1_555
C7 C6 1_555 1_555
H7 C7 1_555 1_555
H8 C7 1_555 1_555
C8 C7 1_555 1_555
H9 C8 1_555 1_555
H10 C8 1_555 1_555
C9 C8 1_555 1_555
H11 C9 1_555 1_555
H12 C9 1_555 1_555
C10 C9 1_555 1_555
H13 C10 1_555 1_555
H14 C10 1_555 1_555
C11 C10 1_555 1_555
H15 C11 1_555 1_555
H16 C11 1_555 1_555
N1 C1 1_555 1_555
O1 C3 1_555 1_555
O2 H17 1_555 1_555
H18 O2 1_555 1_555
C1B H1B 1_555 1_555
C2B C1B 1_555 1_555
H2B C2B 1_555 1_555
C3B C2B 1_555 1_555
C4B C3B 1_555 1_555
H3B C4B 1_555 1_555
C5B C4B 1_555 1_555
H4B C5B 1_555 1_555
C6B H5B 1_555 1_555
H6B C6B 1_555 1_555
C7B C6B 1_555 1_555
H7B C7B 1_555 1_555
H8B C7B 1_555 1_555
C8B C7B 1_555 1_555
H9B C8B 1_555 1_555
H10B C8B 1_555 1_555
C9B C8B 1_555 1_555
H11B C9B 1_555 1_555
H12B C9B 1_555 1_555
C10B C9B 1_555 1_555
H13B C10B 1_555 1_555
H14B C10B 1_555 1_555
C11B C11 1_555 1_555
H15B C11B 1_555 1_555
H16B C11B 1_555 1_555
N1B C1B 1_555 1_555
O1B C3B 1_555 1_555
C5 N1 1_555 1_555
C6 N1 1_555 1_555
C5B N1B 1_555 1_555
C6B N1B 1_555 1_555
C10B C11B 1_555 1_555

#END
