
#######################################################################
#
#                 Cambridge Crystallographic Data Centre
#                                CCDC 
#
#######################################################################
#
# If this CIF has been generated from an entry in the Cambridge 
# Structural Database, then it will include bibliographic, chemical, 
# crystal, experimental, refinement or atomic coordinate data resulting 
# from the CCDC's data processing and validation procedures.
#
#######################################################################

data_FODLIV
_chemical_formula_moiety         'C24 H14 N4 S4,0.5(C4 H8 O2)'
_chemical_name_systematic        
'4,5-bis(2-methyl-1-benzothiophen-3-yl)[1,2,5]thiadiazolo[3,4-e][2,1,3]benzothiadiazole 1,4-dioxane solvate'
_symmetry_cell_setting           triclinic
_symmetry_space_group_name_H-M   'P -1'
_symmetry_Int_Tables_number      2
_space_group_name_Hall           '-P 1'
loop_
_symmetry_equiv_pos_site_id
_symmetry_equiv_pos_as_xyz
1 x,y,z
2 -x,-y,-z
_cell_length_a                   9.6261(19)
_cell_length_b                   11.067(2)
_cell_length_c                   12.285(3)
_cell_angle_alpha                97.85(3)
_cell_angle_beta                 101.59(3)
_cell_angle_gamma                104.10(3)
_cell_volume                     1219.5
_cell_formula_units_Z            2
loop_
_atom_site_label
_atom_site_type_symbol
_atom_site_fract_x
_atom_site_fract_y
_atom_site_fract_z
C1 C 0.8609(2) 0.70314(19) 0.96239(17)
C2 C 0.9168(2) 0.8108(2) 1.05305(18)
C3 C 0.8493(2) 0.9138(2) 1.04836(18)
C4 C 0.7300(2) 0.90056(19) 0.95282(17)
C5 C 0.6759(2) 0.79023(18) 0.86060(16)
C6 C 0.7399(2) 0.69229(18) 0.86597(16)
C7 C 0.6889(3) 0.9781(2) 0.6941(2)
H1 H 0.6845 1.0583 0.7322
H2 H 0.6892 0.9817 0.6165
H3 H 0.7775 0.9601 0.7307
C8 C 0.5581(2) 0.8762(2) 0.69868(18)
C9 C 0.5501(2) 0.78912(19) 0.76744(16)
C10 C 0.4037(2) 0.7026(2) 0.74533(17)
C11 C 0.3035(2) 0.7309(2) 0.65857(18)
C12 C 0.1565(3) 0.6601(3) 0.6235(3)
H4 H 0.0912 0.6797 0.5664
C13 C 0.1100(3) 0.5608(4) 0.6751(3)
H5 H 0.0117 0.5126 0.6525
C14 C 0.2061(3) 0.5307(3) 0.7604(3)
H6 H 0.1718 0.4628 0.7942
C15 C 0.3530(3) 0.6009(2) 0.7957(2)
H7 H 0.4173 0.5802 0.8527
C16 C 0.7653(3) 0.6777(2) 0.6135(2)
H8 H 0.6880 0.7079 0.5741
H9 H 0.8164 0.6474 0.5608
H10 H 0.8335 0.7458 0.6707
C17 C 0.7005(2) 0.57240(19) 0.66754(17)
C18 C 0.6906(2) 0.57509(17) 0.77691(16)
C19 C 0.6238(2) 0.45045(18) 0.79790(17)
C20 C 0.5954(3) 0.4153(2) 0.89801(19)
H11 H 0.6235 0.4754 0.9649
C21 C 0.5250(3) 0.2898(2) 0.8965(2)
H12 H 0.5065 0.2661 0.9631
C22 C 0.4812(3) 0.1983(2) 0.7968(3)
H13 H 0.4333 0.1147 0.7976
C23 C 0.5083(3) 0.2308(2) 0.6982(2)
H14 H 0.4791 0.1701 0.6316
C24 C 0.5805(2) 0.35667(19) 0.69894(18)
N1 N 0.93370(19) 0.61485(18) 0.97543(17)
N2 N 1.0286(2) 0.8042(2) 1.13339(17)
N3 N 0.8826(3) 1.0212(2) 1.12440(17)
N4 N 0.6727(2) 0.99968(18) 0.95955(17)
S1 S 1.06009(6) 0.66887(6) 1.09390(6)
S2 S 0.76642(9) 1.09760(6) 1.07647(6)
S3 S 0.39016(7) 0.85874(6) 0.60551(5)
S4 S 0.62888(8) 0.42052(6) 0.58558(5)
C25 C 0.9238(10) 1.0015(10) 0.4151(6)
H15 H 0.9660 1.0329 0.3556
H16 H 0.8177 0.9761 0.3845
C26 C 0.9603(13) 0.8863(12) 0.4211(12)
H17 H 0.8717 0.8202 0.4183
H18 H 0.9966 0.8625 0.3555
O1 O 1.0500(14) 0.8923(12) 0.5037(10)
C25A C 1.0762(10) 0.9985(10) 0.5849(6)
H15A H 1.0340 0.9671 0.6444
H16A H 1.1823 1.0239 0.6155
C26A C 1.0397(13) 1.1137(12) 0.5789(12)
H17A H 1.1283 1.1798 0.5817
H18A H 1.0034 1.1375 0.6445
O1A O 0.9500(14) 1.1077(12) 0.4963(10)
loop_
_geom_bond_atom_site_label_1
_geom_bond_atom_site_label_2
_geom_bond_site_symmetry_1
_geom_bond_site_symmetry_2
C1 C2 1_555 1_555
C2 C3 1_555 1_555
C3 C4 1_555 1_555
C4 C5 1_555 1_555
C5 C6 1_555 1_555
C6 C1 1_555 1_555
C7 H1 1_555 1_555
H2 C7 1_555 1_555
H3 C7 1_555 1_555
C8 C7 1_555 1_555
C9 C5 1_555 1_555
C10 C9 1_555 1_555
C11 C10 1_555 1_555
C12 C11 1_555 1_555
H4 C12 1_555 1_555
C13 C12 1_555 1_555
H5 C13 1_555 1_555
C14 C13 1_555 1_555
H6 C14 1_555 1_555
C15 C10 1_555 1_555
H7 C15 1_555 1_555
C16 H8 1_555 1_555
H9 C16 1_555 1_555
H10 C16 1_555 1_555
C17 C16 1_555 1_555
C18 C6 1_555 1_555
C19 C18 1_555 1_555
C20 C19 1_555 1_555
H11 C20 1_555 1_555
C21 C20 1_555 1_555
H12 C21 1_555 1_555
C22 C21 1_555 1_555
H13 C22 1_555 1_555
C23 C22 1_555 1_555
H14 C23 1_555 1_555
C24 C19 1_555 1_555
N1 C1 1_555 1_555
N2 C2 1_555 1_555
N3 C3 1_555 1_555
N4 C4 1_555 1_555
S1 N1 1_555 1_555
S2 N3 1_555 1_555
S3 C8 1_555 1_555
S4 C17 1_555 1_555
C25 H15 1_555 1_555
H16 C25 1_555 1_555
C26 C25 1_555 1_555
H17 C26 1_555 1_555
H18 C26 1_555 1_555
O1 C26 1_555 1_555
C25A O1 1_555 1_555
H15A C25A 1_555 1_555
H16A C25A 1_555 1_555
C26A C25A 1_555 1_555
H17A C26A 1_555 1_555
H18A C26A 1_555 1_555
O1A C25 1_555 1_555
C8 C9 1_555 1_555
C11 S3 1_555 1_555
C14 C15 1_555 1_555
C17 C18 1_555 1_555
C23 C24 1_555 1_555
C24 S4 1_555 1_555
N2 S1 1_555 1_555
N4 S2 1_555 1_555
C26A O1A 1_555 1_555

#END
