
#######################################################################
#
#                 Cambridge Crystallographic Data Centre
#                                CCDC 
#
#######################################################################
#
# If this CIF has been generated from an entry in the Cambridge 
# Structural Database, then it will include bibliographic, chemical, 
# crystal, experimental, refinement or atomic coordinate data resulting 
# from the CCDC's data processing and validation procedures.
#
#######################################################################

data_FODLUG
_chemical_formula_moiety         'C12 H21 N1 O1'
_chemical_name_systematic        
3-Hydroxy-2,3-dimethyl-1-n-propylcyclohexane-1-carbonitrile
_symmetry_cell_setting           triclinic
_symmetry_space_group_name_H-M   'P -1'
_symmetry_Int_Tables_number      2
_space_group_name_Hall           '-P 1'
loop_
_symmetry_equiv_pos_site_id
_symmetry_equiv_pos_as_xyz
1 x,y,z
2 -x,-y,-z
_cell_length_a                   7.489(2)
_cell_length_b                   13.794(3)
_cell_length_c                   6.046(3)
_cell_angle_alpha                92.80(3)
_cell_angle_beta                 104.72(3)
_cell_angle_gamma                87.60(2)
_cell_volume                     603.071
_exptl_crystal_colour            colorless
_exptl_crystal_description       plate
_chemical_melting_point          '398-399 K'
_cell_formula_units_Z            2
_exptl_crystal_recrystallization_method 'ethyl acetate/hexanes'
loop_
_atom_site_label
_atom_site_type_symbol
_atom_site_fract_x
_atom_site_fract_y
_atom_site_fract_z
O1 O 0.7090(3) 0.2140(2) 0.9821(3)
N1 N 0.1005(4) 0.2277(3) 0.2460(5)
C1 C 0.4103(3) 0.2617(2) 0.5523(4)
C2 C 0.4989(4) 0.1603(2) 0.6329(4)
C3 C 0.7052(4) 0.1654(2) 0.7663(5)
C4 C 0.8134(4) 0.2218(3) 0.6362(5)
C5 C 0.7295(4) 0.3210(3) 0.5702(6)
C6 C 0.5324(4) 0.3116(2) 0.4251(5)
C7 C 0.2344(4) 0.2415(2) 0.3801(5)
C8 C 0.3837(4) 0.1069(2) 0.7609(6)
C9 C 0.7916(5) 0.0636(3) 0.8057(7)
C10 C 0.3632(4) 0.3269(2) 0.7456(5)
C11 C 0.2651(5) 0.4218(3) 0.6767(6)
C12 C 0.2068(6) 0.4773(3) 0.8697(7)
H1 H 0.5344 0.2743 0.2893
H2 H 0.4972 0.1221 0.4975
H3 H 0.8185 0.1852 0.5005
H4 H 0.9350 0.2296 0.7299
H5 H 0.8008 0.3513 0.4853
H6 H 0.7290 0.3595 0.7048
H7 H 0.4816 0.3746 0.3862
H8 H 0.3892 0.1395 0.9045
H9 H 0.2592 0.1056 0.6729
H10 H 0.4315 0.0422 0.7850
H11 H 0.7237 0.0280 0.8858
H12 H 0.7887 0.0314 0.6623
H13 H 0.9159 0.0679 0.8932
H14 H 0.2870 0.2913 0.8142
H15 H 0.4757 0.3405 0.8555
H16 H 0.1582 0.4094 0.5567
H17 H 0.3457 0.4609 0.6229
H18 H 0.3125 0.4904 0.9908
H19 H 0.1465 0.5367 0.8156
H20 H 0.1244 0.4396 0.9234
H21 H 0.8343 0.2186 1.0558
loop_
_geom_bond_atom_site_label_1
_geom_bond_atom_site_label_2
_geom_bond_site_symmetry_1
_geom_bond_site_symmetry_2
O1 C3 1_555 1_555
N1 C7 1_555 1_555
C1 C2 1_555 1_555
C2 C3 1_555 1_555
C3 C4 1_555 1_555
C4 C5 1_555 1_555
C5 C6 1_555 1_555
C6 C1 1_555 1_555
C7 C1 1_555 1_555
C8 C2 1_555 1_555
C9 C3 1_555 1_555
C10 C1 1_555 1_555
C11 C10 1_555 1_555
C12 C11 1_555 1_555
H1 C6 1_555 1_555
H2 C2 1_555 1_555
H3 C4 1_555 1_555
H4 C4 1_555 1_555
H5 C5 1_555 1_555
H6 C5 1_555 1_555
H7 C6 1_555 1_555
H8 C8 1_555 1_555
H9 C8 1_555 1_555
H10 C8 1_555 1_555
H11 C9 1_555 1_555
H12 C9 1_555 1_555
H13 C9 1_555 1_555
H14 C10 1_555 1_555
H15 C10 1_555 1_555
H16 C11 1_555 1_555
H17 C11 1_555 1_555
H18 C12 1_555 1_555
H19 C12 1_555 1_555
H20 C12 1_555 1_555
H21 O1 1_555 1_555

#END
