
#######################################################################
#
#                 Cambridge Crystallographic Data Centre
#                                CCDC 
#
#######################################################################
#
# If this CIF has been generated from an entry in the Cambridge 
# Structural Database, then it will include bibliographic, chemical, 
# crystal, experimental, refinement or atomic coordinate data resulting 
# from the CCDC's data processing and validation procedures.
#
#######################################################################

data_FODMAO01
_chemical_formula_moiety         'C30 H26 N4 S4'
_chemical_name_systematic        
4,5-bis(2-butyl-1-benzothiophen-3-yl)[1,2,5]thiadiazolo[3,4-e][2,1,3]benzothiadiazole
_symmetry_cell_setting           monoclinic
_symmetry_space_group_name_H-M   'P 21/c'
_symmetry_Int_Tables_number      14
_space_group_name_Hall           '-P 2ybc'
loop_
_symmetry_equiv_pos_site_id
_symmetry_equiv_pos_as_xyz
1 x,y,z
2 -x,1/2+y,1/2-z
3 -x,-y,-z
4 x,1/2-y,1/2+z
_cell_length_a                   11.194(6)
_cell_length_b                   17.388(9)
_cell_length_c                   15.183(8)
_cell_angle_alpha                90
_cell_angle_beta                 99.747(9)
_cell_angle_gamma                90
_cell_volume                     2912.58
_cell_formula_units_Z            4
loop_
_atom_site_label
_atom_site_type_symbol
_atom_site_fract_x
_atom_site_fract_y
_atom_site_fract_z
C1 C 0.2162(4) 0.1134(2) 0.8799(3)
C2 C 0.2158(4) 0.0723(2) 0.9637(3)
C3 C 0.3225(4) 0.0617(2) 1.0299(3)
C4 C 0.4345(4) 0.0929(3) 1.0120(3)
C5 C 0.4316(4) 0.1321(2) 0.9285(3)
C6 C 0.3234(4) 0.1394(2) 0.8608(3)
C7 C 0.3428(4) 0.1731(2) 0.7732(3)
C8 C 0.4221(4) 0.1356(3) 0.7196(3)
C9 C 0.4849(5) 0.0661(3) 0.7345(3)
H1 H 0.4795 0.0370 0.7850
C10 C 0.5541(5) 0.0413(4) 0.6741(4)
H2 H 0.5961 -0.0049 0.6842
C11 C 0.5628(6) 0.0836(4) 0.5984(4)
H3 H 0.6095 0.0650 0.5578
C12 C 0.5038(5) 0.1524(4) 0.5822(4)
H4 H 0.5114 0.1814 0.5320
C13 C 0.4319(4) 0.1780(3) 0.6430(3)
C14 C 0.2956(4) 0.2402(2) 0.7365(3)
C15 C 0.2106(4) 0.2962(3) 0.7677(3)
H5 H 0.2508 0.3456 0.7780
H6 H 0.1911 0.2786 0.8242
C16 C 0.0930(4) 0.3067(3) 0.7012(3)
H7 H 0.1128 0.3251 0.6450
H8 H 0.0539 0.2571 0.6901
C17 C 0.0049(4) 0.3620(3) 0.7319(3)
H9 H 0.0423 0.4123 0.7411
H10 H -0.0142 0.3446 0.7887
C18 C -0.1124(5) 0.3685(3) 0.6638(4)
H11 H -0.0943 0.3885 0.6086
H12 H -0.1675 0.4026 0.6864
H13 H -0.1488 0.3186 0.6537
C19 C 0.0939(4) 0.1232(2) 0.8215(3)
C20 C 0.0007(4) 0.1691(3) 0.8524(3)
C21 C 0.0074(4) 0.2139(3) 0.9292(3)
H14 H 0.0797 0.2164 0.9696
C22 C -0.0920(5) 0.2546(3) 0.9459(4)
H15 H -0.0871 0.2843 0.9974
C23 C -0.2009(5) 0.2509(3) 0.8843(4)
H16 H -0.2676 0.2787 0.8958
C24 C -0.2119(4) 0.2074(3) 0.8078(4)
H17 H -0.2848 0.2051 0.7680
C25 C -0.1094(4) 0.1665(3) 0.7915(3)
C26 C 0.0557(4) 0.0886(3) 0.7417(3)
C27 C 0.1251(4) 0.0403(3) 0.6878(3)
H18 H 0.0880 -0.0102 0.6798
H19 H 0.2071 0.0338 0.7200
C28 C 0.1304(5) 0.0753(3) 0.5958(3)
H20 H 0.0482 0.0819 0.5642
H21 H 0.1670 0.1259 0.6044
C29 C 0.2001(5) 0.0284(3) 0.5384(3)
H22 H 0.1616 -0.0214 0.5266
H23 H 0.2819 0.0201 0.5700
C30 C 0.2048(7) 0.0695(4) 0.4497(4)
H24 H 0.1239 0.0776 0.4183
H25 H 0.2489 0.0384 0.4139
H26 H 0.2448 0.1182 0.4613
N1 N 0.1165(3) 0.0405(2) 0.9874(2)
N2 N 0.3024(4) 0.0218(2) 1.1020(2)
N3 N 0.5423(3) 0.0928(2) 1.0660(3)
N4 N 0.5402(3) 0.1620(2) 0.9206(2)
S1 S -0.09691(11) 0.10944(8) 0.70079(9)
S2 S 0.15858(13) 0.00033(8) 1.08404(8)
S3 S 0.34663(13) 0.26059(8) 0.63603(9)
S4 S 0.63193(11) 0.14060(9) 1.01188(9)
loop_
_geom_bond_atom_site_label_1
_geom_bond_atom_site_label_2
_geom_bond_site_symmetry_1
_geom_bond_site_symmetry_2
C1 C2 1_555 1_555
C2 C3 1_555 1_555
C3 C4 1_555 1_555
C4 C5 1_555 1_555
C5 C6 1_555 1_555
C6 C1 1_555 1_555
C7 C6 1_555 1_555
C8 C7 1_555 1_555
C9 C8 1_555 1_555
H1 C9 1_555 1_555
C10 C9 1_555 1_555
H2 C10 1_555 1_555
C11 C10 1_555 1_555
H3 C11 1_555 1_555
C12 C11 1_555 1_555
H4 C12 1_555 1_555
C13 C8 1_555 1_555
C14 C7 1_555 1_555
C15 C14 1_555 1_555
H5 C15 1_555 1_555
H6 C15 1_555 1_555
C16 C15 1_555 1_555
H7 C16 1_555 1_555
H8 C16 1_555 1_555
C17 C16 1_555 1_555
H9 C17 1_555 1_555
H10 C17 1_555 1_555
C18 C17 1_555 1_555
H11 C18 1_555 1_555
H12 C18 1_555 1_555
H13 C18 1_555 1_555
C19 C1 1_555 1_555
C20 C19 1_555 1_555
C21 C20 1_555 1_555
H14 C21 1_555 1_555
C22 C21 1_555 1_555
H15 C22 1_555 1_555
C23 C22 1_555 1_555
H16 C23 1_555 1_555
C24 C23 1_555 1_555
H17 C24 1_555 1_555
C25 C20 1_555 1_555
C26 C19 1_555 1_555
C27 C26 1_555 1_555
H18 C27 1_555 1_555
H19 C27 1_555 1_555
C28 C27 1_555 1_555
H20 C28 1_555 1_555
H21 C28 1_555 1_555
C29 C28 1_555 1_555
H22 C29 1_555 1_555
H23 C29 1_555 1_555
C30 C29 1_555 1_555
H24 C30 1_555 1_555
H25 C30 1_555 1_555
H26 C30 1_555 1_555
N1 C2 1_555 1_555
N2 C3 1_555 1_555
N3 C4 1_555 1_555
N4 C5 1_555 1_555
S1 C25 1_555 1_555
S2 N1 1_555 1_555
S3 C13 1_555 1_555
S4 N3 1_555 1_555
C12 C13 1_555 1_555
C14 S3 1_555 1_555
C24 C25 1_555 1_555
C26 S1 1_555 1_555
N2 S2 1_555 1_555
N4 S4 1_555 1_555

#END
