
#######################################################################
#
#                 Cambridge Crystallographic Data Centre
#                                CCDC 
#
#######################################################################
#
# If this CIF has been generated from an entry in the Cambridge 
# Structural Database, then it will include bibliographic, chemical, 
# crystal, experimental, refinement or atomic coordinate data resulting 
# from the CCDC's data processing and validation procedures.
#
#######################################################################

data_FODMUH
_chemical_formula_moiety         'C23 H23 N1 O3'
_chemical_name_systematic        
'3-Benzoyl-3-cyano-1,2-dimethylcyclohexyl benzoate'
_symmetry_cell_setting           orthorhombic
_symmetry_space_group_name_H-M   'P b c a'
_symmetry_Int_Tables_number      61
_space_group_name_Hall           '-P 2ac 2ab'
loop_
_symmetry_equiv_pos_site_id
_symmetry_equiv_pos_as_xyz
1 x,y,z
2 1/2+x,1/2-y,-z
3 -x,1/2+y,1/2-z
4 1/2-x,-y,1/2+z
5 -x,-y,-z
6 1/2-x,1/2+y,z
7 x,1/2-y,1/2+z
8 1/2+x,y,1/2-z
_cell_length_a                   19.047(4)
_cell_length_b                   16.454(4)
_cell_length_c                   12.525(4)
_cell_angle_alpha                90
_cell_angle_beta                 90
_cell_angle_gamma                90
_cell_volume                     3925.33
_exptl_crystal_colour            colorless
_exptl_crystal_description       prismatic
_chemical_melting_point          '404-406 K'
_cell_formula_units_Z            8
_exptl_crystal_recrystallization_method 'ethyl acetate/hexanes'
loop_
_atom_site_label
_atom_site_type_symbol
_atom_site_fract_x
_atom_site_fract_y
_atom_site_fract_z
O1 O 0.7913(7) -0.2060(7) -0.1769(8)
O2 O 0.8935(7) 0.0224(7) 0.261(1)
O3 O 0.8526(6) 0.0071(6) 0.0958(8)
N1 N 0.8951(8) 0.041(1) -0.156(1)
C1 C 0.8631(9) -0.1055(8) -0.094(1)
C2 C 0.8064(8) -0.1042(8) -0.002(1)
C3 C 0.837(1) -0.082(1) 0.106(1)
C4 C 0.901(1) -0.1295(9) 0.136(1)
C5 C 0.9567(9) -0.123(1) 0.051(1)
C6 C 0.9289(8) -0.153(1) -0.057(1)
C7 C 0.8805(8) -0.023(1) -0.125(1)
C8 C 0.7445(9) -0.054(1) -0.036(1)
C9 C 0.7807(9) -0.092(1) 0.193(1)
C10 C 0.833(1) -0.1520(9) -0.193(1)
C11 C 0.860(1) -0.133(1) -0.301(1)
C12 C 0.817(1) -0.158(1) -0.387(2)
C13 C 0.837(1) -0.143(1) -0.490(2)
C14 C 0.902(2) -0.110(1) -0.511(2)
C15 C 0.947(1) -0.090(1) -0.430(2)
C16 C 0.924(1) -0.101(1) -0.326(1)
C17 C 0.8787(9) 0.053(1) 0.177(2)
C18 C 0.8829(9) 0.140(1) 0.152(1)
C19 C 0.8673(9) 0.1693(9) 0.056(1)
C20 C 0.872(1) 0.251(1) 0.035(1)
C21 C 0.895(1) 0.300(1) 0.117(2)
C22 C 0.910(1) 0.271(1) 0.218(2)
C23 C 0.905(1) 0.189(1) 0.233(1)
H1 H 0.7881 -0.1605 0.0071
H2 H 0.9225 -0.1107 0.2015
H3 H 0.8922 -0.1864 0.1436
H4 H 0.9998 -0.1513 0.0694
H5 H 0.9704 -0.0660 0.0413
H6 H 0.9165 -0.2114 -0.0485
H7 H 0.9644 -0.1521 -0.1114
H8 H 0.7228 -0.0748 -0.1009
H9 H 0.7574 0.0009 -0.0491
H10 H 0.7066 -0.0530 0.0170
H11 H 0.7696 -0.1471 0.2045
H12 H 0.7391 -0.0631 0.1730
H13 H 0.7969 -0.0689 0.2599
H14 H 0.7699 -0.1876 -0.3754
H15 H 0.8060 -0.1516 -0.5513
H16 H 0.9172 -0.1007 -0.5858
H17 H 0.9968 -0.0687 -0.4487
H18 H 0.9560 -0.0850 -0.2656
H19 H 0.8498 0.1335 -0.0062
H20 H 0.8608 0.2733 -0.0360
H21 H 0.8999 0.3607 0.0970
H22 H 0.9258 0.3079 0.2745
H23 H 0.9164 0.1654 0.3040
loop_
_geom_bond_atom_site_label_1
_geom_bond_atom_site_label_2
_geom_bond_site_symmetry_1
_geom_bond_site_symmetry_2
O1 C10 1_555 1_555
O2 C17 1_555 1_555
O3 C3 1_555 1_555
N1 C7 1_555 1_555
C1 C2 1_555 1_555
C2 C3 1_555 1_555
C3 C4 1_555 1_555
C4 C5 1_555 1_555
C5 C6 1_555 1_555
C6 C1 1_555 1_555
C7 C1 1_555 1_555
C8 C2 1_555 1_555
C9 C3 1_555 1_555
C10 C1 1_555 1_555
C11 C10 1_555 1_555
C12 C11 1_555 1_555
C13 C12 1_555 1_555
C14 C13 1_555 1_555
C15 C14 1_555 1_555
C16 C11 1_555 1_555
C17 O3 1_555 1_555
C18 C17 1_555 1_555
C19 C18 1_555 1_555
C20 C19 1_555 1_555
C21 C20 1_555 1_555
C22 C21 1_555 1_555
C23 C18 1_555 1_555
H1 C2 1_555 1_555
H2 C4 1_555 1_555
H3 C4 1_555 1_555
H4 C5 1_555 1_555
H5 C5 1_555 1_555
H6 C6 1_555 1_555
H7 C6 1_555 1_555
H8 C8 1_555 1_555
H9 C8 1_555 1_555
H10 C8 1_555 1_555
H11 C9 1_555 1_555
H12 C9 1_555 1_555
H13 C9 1_555 1_555
H14 C12 1_555 1_555
H15 C13 1_555 1_555
H16 C14 1_555 1_555
H17 C15 1_555 1_555
H18 C16 1_555 1_555
H19 C19 1_555 1_555
H20 C20 1_555 1_555
H21 C21 1_555 1_555
H22 C22 1_555 1_555
H23 C23 1_555 1_555
C15 C16 1_555 1_555
C22 C23 1_555 1_555

#END
