
#######################################################################
#
#                 Cambridge Crystallographic Data Centre
#                                CCDC 
#
#######################################################################
#
# If this CIF has been generated from an entry in the Cambridge 
# Structural Database, then it will include bibliographic, chemical, 
# crystal, experimental, refinement or atomic coordinate data resulting 
# from the CCDC's data processing and validation procedures.
#
#######################################################################

data_FODMOB
_chemical_formula_moiety         'C13 H19 N1 O5'
_chemical_name_systematic        
'Methyl 1-cyano-3-((methoxycarbonyl)oxy)-2,3-dimethylcyclohexane-1-carboxylate'
_symmetry_cell_setting           triclinic
_symmetry_space_group_name_H-M   'P -1'
_symmetry_Int_Tables_number      2
_space_group_name_Hall           '-P 1'
loop_
_symmetry_equiv_pos_site_id
_symmetry_equiv_pos_as_xyz
1 x,y,z
2 -x,-y,-z
_cell_length_a                   7.647(2)
_cell_length_b                   12.894(5)
_cell_length_c                   7.616(4)
_cell_angle_alpha                93.83(4)
_cell_angle_beta                 96.96(3)
_cell_angle_gamma                105.74(2)
_cell_volume                     713.542
_exptl_crystal_colour            colorless
_exptl_crystal_description       plate
_chemical_melting_point          '363-364 K'
_cell_formula_units_Z            2
_exptl_crystal_recrystallization_method 'ethyl acetate/hexanes'
loop_
_atom_site_label
_atom_site_type_symbol
_atom_site_fract_x
_atom_site_fract_y
_atom_site_fract_z
O1 O 0.7554(6) 0.5090(3) 0.0740(5)
O2 O 0.6561(5) 0.4933(3) 0.3342(4)
O3 O 0.7428(4) 0.1287(2) 0.2287(4)
O4 O 0.6980(5) 0.0111(3) 0.4129(5)
O5 O 0.8653(6) -0.0118(3) 0.2001(5)
N1 N 0.7291(7) 0.3007(3) 0.5464(6)
C1 C 0.8052(6) 0.3638(3) 0.2384(6)
C2 C 0.7201(6) 0.2774(4) 0.0782(6)
C3 C 0.8066(6) 0.1828(3) 0.0737(6)
C4 C 1.0150(7) 0.2229(4) 0.0998(7)
C5 C 1.0953(6) 0.3043(4) 0.2625(8)
C6 C 1.0178(7) 0.3994(4) 0.2545(7)
C7 C 0.7561(6) 0.3256(4) 0.4101(7)
C8 C 0.7381(7) 0.4634(4) 0.2049(7)
C9 C 0.5114(7) 0.2415(4) 0.0622(7)
C10 C 0.7356(8) 0.1071(4) -0.0952(7)
C11 C 0.5863(9) 0.5867(5) 0.3104(8)
C12 C 0.7809(7) 0.0377(4) 0.2722(7)
C13 C 0.7123(9) -0.0876(4) 0.4827(8)
H1 H 0.7475 0.3146 -0.0278
H2 H 1.0627 0.1617 0.1061
H3 H 1.0526 0.2577 -0.0034
H4 H 1.0629 0.2677 0.3674
H5 H 1.2265 0.3256 0.2741
H6 H 1.0548 0.4382 0.1535
H7 H 1.0686 0.4516 0.3590
H8 H 0.4606 0.3015 0.0576
H9 H 0.4578 0.1926 -0.0441
H10 H 0.4746 0.2041 0.1618
H11 H 0.6027 0.0839 -0.1129
H12 H 0.7749 0.1400 -0.1963
H13 H 0.7760 0.0427 -0.0872
H14 H 0.6823 0.6486 0.2958
H15 H 0.4965 0.5716 0.2022
H16 H 0.5269 0.6018 0.4064
H17 H 0.6490 -0.1004 0.5860
H18 H 0.6599 -0.1494 0.3973
H19 H 0.8382 -0.0853 0.5213
loop_
_geom_bond_atom_site_label_1
_geom_bond_atom_site_label_2
_geom_bond_site_symmetry_1
_geom_bond_site_symmetry_2
O1 C8 1_555 1_555
O2 C8 1_555 1_555
O3 C3 1_555 1_555
O4 C12 1_555 1_555
O5 C12 1_555 1_555
N1 C7 1_555 1_555
C1 C2 1_555 1_555
C2 C3 1_555 1_555
C3 C4 1_555 1_555
C4 C5 1_555 1_555
C5 C6 1_555 1_555
C6 C1 1_555 1_555
C7 C1 1_555 1_555
C8 C1 1_555 1_555
C9 C2 1_555 1_555
C10 C3 1_555 1_555
C11 O2 1_555 1_555
C12 O3 1_555 1_555
C13 O4 1_555 1_555
H1 C2 1_555 1_555
H2 C4 1_555 1_555
H3 C4 1_555 1_555
H4 C5 1_555 1_555
H5 C5 1_555 1_555
H6 C6 1_555 1_555
H7 C6 1_555 1_555
H8 C9 1_555 1_555
H9 C9 1_555 1_555
H10 C9 1_555 1_555
H11 C10 1_555 1_555
H12 C10 1_555 1_555
H13 C10 1_555 1_555
H14 C11 1_555 1_555
H15 C11 1_555 1_555
H16 C11 1_555 1_555
H17 C13 1_555 1_555
H18 C13 1_555 1_555
H19 C13 1_555 1_555

#END
