
#######################################################################
#
#                 Cambridge Crystallographic Data Centre
#                                CCDC 
#
#######################################################################
#
# If this CIF has been generated from an entry in the Cambridge 
# Structural Database, then it will include bibliographic, chemical, 
# crystal, experimental, refinement or atomic coordinate data resulting 
# from the CCDC's data processing and validation procedures.
#
#######################################################################

data_FODMAO
_chemical_formula_moiety         'C30 H26 N4 S4'
_chemical_name_systematic        
4,5-bis(2-butyl-1-benzothiophen-3-yl)[1,2,5]thiadiazolo[3,4-e][2,1,3]benzothiadiazole
_symmetry_cell_setting           monoclinic
_symmetry_space_group_name_H-M   'P 21/n'
_symmetry_Int_Tables_number      14
_space_group_name_Hall           '-P 2yn'
loop_
_symmetry_equiv_pos_site_id
_symmetry_equiv_pos_as_xyz
1 x,y,z
2 1/2-x,1/2+y,1/2-z
3 -x,-y,-z
4 1/2+x,1/2-y,1/2+z
_cell_length_a                   16.233(3)
_cell_length_b                   9.8964(18)
_cell_length_c                   18.890(4)
_cell_angle_alpha                90
_cell_angle_beta                 114.788(4)
_cell_angle_gamma                90
_cell_volume                     2755.05
_cell_formula_units_Z            4
loop_
_atom_site_label
_atom_site_type_symbol
_atom_site_fract_x
_atom_site_fract_y
_atom_site_fract_z
C1 C 0.4596(3) 0.9072(4) 0.2597(2)
C2 C 0.4928(3) 1.0335(4) 0.3028(2)
C3 C 0.5260(3) 1.1443(4) 0.2736(3)
C4 C 0.5261(3) 1.1311(4) 0.1985(3)
C5 C 0.4943(3) 1.0063(4) 0.1572(2)
C6 C 0.4595(3) 0.8954(4) 0.1878(2)
C7 C 0.4230(3) 0.7747(4) 0.1368(2)
C8 C 0.3271(3) 0.7412(4) 0.1037(2)
C9 C 0.2567(3) 0.8022(4) 0.1144(2)
H1 H 0.2680 0.8760 0.1476
C10 C 0.1695(3) 0.7537(5) 0.0757(3)
H2 H 0.1220 0.7955 0.0825
C11 C 0.1523(3) 0.6414(5) 0.0262(3)
H3 H 0.0934 0.6082 0.0012
C12 C 0.2194(3) 0.5811(4) 0.0143(2)
H4 H 0.2072 0.5077 -0.0194
C13 C 0.3079(3) 0.6302(4) 0.0532(2)
C14 C 0.4729(3) 0.6921(4) 0.1121(2)
C15 C 0.5715(3) 0.6969(4) 0.1311(2)
H5 H 0.6010 0.7543 0.1764
H6 H 0.5792 0.7392 0.0879
C16 C 0.6203(3) 0.5600(4) 0.1477(2)
H7 H 0.6145 0.5183 0.1919
H8 H 0.5906 0.5015 0.1029
C17 C 0.7184(3) 0.5702(5) 0.1646(3)
H9 H 0.7484 0.6292 0.2091
H10 H 0.7246 0.6098 0.1202
C18 C 0.7648(4) 0.4304(5) 0.1822(3)
H11 H 0.7591 0.3912 0.2265
H12 H 0.8278 0.4405 0.1934
H13 H 0.7362 0.3725 0.1378
C19 C 0.4287(3) 0.8011(4) 0.2988(2)
C20 C 0.3511(3) 0.8158(4) 0.3169(2)
C21 C 0.2869(3) 0.9188(5) 0.2975(2)
H14 H 0.2930 0.9951 0.2714
C22 C 0.2129(4) 0.9077(6) 0.3173(3)
H15 H 0.1696 0.9759 0.3033
C23 C 0.2043(4) 0.7970(7) 0.3568(4)
H16 H 0.1550 0.7911 0.3696
C24 C 0.2670(5) 0.6944(6) 0.3781(3)
H17 H 0.2605 0.6197 0.4052
C25 C 0.3417(4) 0.7040(5) 0.3583(2)
C26 C 0.4747(3) 0.6838(4) 0.3258(2)
C27 C 0.5571(3) 0.6296(5) 0.3169(3)
H18 H 0.5370 0.5602 0.2770
H19 H 0.5828 0.7024 0.2983
C28 C 0.6316(3) 0.5707(4) 0.3895(2)
H20 H 0.6540 0.6407 0.4290
H21 H 0.6060 0.4996 0.4094
C29 C 0.7084(4) 0.5152(5) 0.3768(3)
H22 H 0.7373 0.5881 0.3613
H23 H 0.6852 0.4512 0.3339
C30 C 0.7789(4) 0.4453(6) 0.4469(3)
H24 H 0.8042 0.5087 0.4891
H25 H 0.8261 0.4106 0.4340
H26 H 0.7512 0.3722 0.4624
N1 N 0.4978(3) 1.0547(4) 0.3754(2)
N2 N 0.5569(3) 1.2472(4) 0.3229(2)
N3 N 0.5537(3) 1.2204(4) 0.1615(2)
N4 N 0.4989(3) 1.0059(4) 0.0888(2)
S1 S 0.40577(9) 0.56756(11) 0.04923(6)
S2 S 0.42719(11) 0.58647(12) 0.37588(8)
S3 S 0.54269(10) 1.20374(13) 0.40069(8)
S4 S 0.54052(11) 1.15029(13) 0.07966(8)
loop_
_geom_bond_atom_site_label_1
_geom_bond_atom_site_label_2
_geom_bond_site_symmetry_1
_geom_bond_site_symmetry_2
C1 C2 1_555 1_555
C2 C3 1_555 1_555
C3 C4 1_555 1_555
C4 C5 1_555 1_555
C5 C6 1_555 1_555
C6 C1 1_555 1_555
C7 C6 1_555 1_555
C8 C7 1_555 1_555
C9 C8 1_555 1_555
H1 C9 1_555 1_555
C10 C9 1_555 1_555
H2 C10 1_555 1_555
C11 C10 1_555 1_555
H3 C11 1_555 1_555
C12 C11 1_555 1_555
H4 C12 1_555 1_555
C13 C8 1_555 1_555
C14 C7 1_555 1_555
C15 C14 1_555 1_555
H5 C15 1_555 1_555
H6 C15 1_555 1_555
C16 C15 1_555 1_555
H7 C16 1_555 1_555
H8 C16 1_555 1_555
C17 C16 1_555 1_555
H9 C17 1_555 1_555
H10 C17 1_555 1_555
C18 C17 1_555 1_555
H11 C18 1_555 1_555
H12 C18 1_555 1_555
H13 C18 1_555 1_555
C19 C1 1_555 1_555
C20 C19 1_555 1_555
C21 C20 1_555 1_555
H14 C21 1_555 1_555
C22 C21 1_555 1_555
H15 C22 1_555 1_555
C23 C22 1_555 1_555
H16 C23 1_555 1_555
C24 C23 1_555 1_555
H17 C24 1_555 1_555
C25 C20 1_555 1_555
C26 C19 1_555 1_555
C27 C26 1_555 1_555
H18 C27 1_555 1_555
H19 C27 1_555 1_555
C28 C27 1_555 1_555
H20 C28 1_555 1_555
H21 C28 1_555 1_555
C29 C28 1_555 1_555
H22 C29 1_555 1_555
H23 C29 1_555 1_555
C30 C29 1_555 1_555
H24 C30 1_555 1_555
H25 C30 1_555 1_555
H26 C30 1_555 1_555
N1 C2 1_555 1_555
N2 C3 1_555 1_555
N3 C4 1_555 1_555
N4 C5 1_555 1_555
S1 C13 1_555 1_555
S2 C25 1_555 1_555
S3 N1 1_555 1_555
S4 N3 1_555 1_555
C12 C13 1_555 1_555
C14 S1 1_555 1_555
C24 C25 1_555 1_555
C26 S2 1_555 1_555
N2 S3 1_555 1_555
N4 S4 1_555 1_555

#END
