
#######################################################################
#
#                 Cambridge Crystallographic Data Centre
#                                CCDC 
#
#######################################################################
#
# If this CIF has been generated from an entry in the Cambridge 
# Structural Database, then it will include bibliographic, chemical, 
# crystal, experimental, refinement or atomic coordinate data resulting 
# from the CCDC's data processing and validation procedures.
#
#######################################################################

data_FODMIV
_chemical_formula_moiety         'C13 H21 N1 O2'
_chemical_name_systematic        
1-(Cyclopropyl(hydroxy)methyl)-3-hydroxy-2,3-dimethylcyclohexane-1-carbonitrile
_symmetry_cell_setting           monoclinic
_symmetry_space_group_name_H-M   'P 21/n'
_symmetry_Int_Tables_number      14
_space_group_name_Hall           '-P 2yn'
loop_
_symmetry_equiv_pos_site_id
_symmetry_equiv_pos_as_xyz
1 x,y,z
2 1/2-x,1/2+y,1/2-z
3 -x,-y,-z
4 1/2+x,1/2-y,1/2+z
_cell_length_a                   21.761(4)
_cell_length_b                   7.581(2)
_cell_length_c                   7.508(1)
_cell_angle_alpha                90
_cell_angle_beta                 98.84(1)
_cell_angle_gamma                90
_cell_volume                     1223.88
_exptl_crystal_colour            colorless
_exptl_crystal_description       plate
_chemical_melting_point          '397-398 K'
_cell_formula_units_Z            4
_exptl_crystal_recrystallization_method 'ethyl acetate/hexanes'
loop_
_atom_site_label
_atom_site_type_symbol
_atom_site_fract_x
_atom_site_fract_y
_atom_site_fract_z
O1 O 0.64583(6) 0.6027(2) 0.4982(2)
O2 O 0.60998(6) -0.0624(2) 0.6038(2)
N1 N 0.51259(8) 0.1401(2) 0.2915(2)
C1 C 0.61424(7) 0.3022(2) 0.4357(2)
C2 C 0.62920(8) 0.2564(2) 0.6402(2)
C3 C 0.65562(8) 0.0681(2) 0.6752(3)
C4 C 0.71030(8) 0.0374(3) 0.5743(3)
C5 C 0.69431(8) 0.0732(2) 0.3744(3)
C6 C 0.67000(8) 0.2590(2) 0.3393(3)
C7 C 0.55801(8) 0.2039(2) 0.3539(2)
C8 C 0.59612(8) 0.5022(2) 0.4053(2)
C9 C 0.58221(9) 0.5479(3) 0.2066(3)
C10 C 0.6291(1) 0.6390(3) 0.1132(3)
C11 C 0.57309(9) 0.7363(3) 0.1491(3)
C12 C 0.5741(1) 0.2921(3) 0.7389(3)
C13 C 0.6757(1) 0.0341(3) 0.8756(3)
H1 H 0.6617 0.3366 0.6908
H2 H 0.7442 0.1116 0.6229
H3 H 0.7238 -0.0834 0.5917
H4 H 0.7303 0.0561 0.3178
H5 H 0.6631 -0.0095 0.3229
H6 H 0.6571 0.2749 0.2122
H7 H 0.7026 0.3406 0.3784
H8 H 0.5588 0.5245 0.4575
H9 H 0.5560 0.4650 0.1348
H10 H 0.6693 0.6662 0.1758
H11 H 0.6334 0.6053 -0.0086
H12 H 0.5407 0.7679 0.0522
H13 H 0.5765 0.8287 0.2365
H14 H 0.5589 0.4095 0.7222
H15 H 0.5394 0.2134 0.6933
H16 H 0.5840 0.2693 0.8655
H17 H 0.6411 0.0441 0.9385
H18 H 0.6932 -0.0808 0.8943
H19 H 0.7066 0.1188 0.9247
H20 H 0.6281 0.7130 0.5325
H21 H 0.5737 -0.0555 0.6565
loop_
_geom_bond_atom_site_label_1
_geom_bond_atom_site_label_2
_geom_bond_site_symmetry_1
_geom_bond_site_symmetry_2
O1 C8 1_555 1_555
O2 C3 1_555 1_555
N1 C7 1_555 1_555
C1 C2 1_555 1_555
C2 C3 1_555 1_555
C3 C4 1_555 1_555
C4 C5 1_555 1_555
C5 C6 1_555 1_555
C6 C1 1_555 1_555
C7 C1 1_555 1_555
C8 C1 1_555 1_555
C9 C8 1_555 1_555
C10 C9 1_555 1_555
C11 C9 1_555 1_555
C12 C2 1_555 1_555
C13 C3 1_555 1_555
H1 C2 1_555 1_555
H2 C4 1_555 1_555
H3 C4 1_555 1_555
H4 C5 1_555 1_555
H5 C5 1_555 1_555
H6 C6 1_555 1_555
H7 C6 1_555 1_555
H8 C8 1_555 1_555
H9 C9 1_555 1_555
H10 C10 1_555 1_555
H11 C10 1_555 1_555
H12 C11 1_555 1_555
H13 C11 1_555 1_555
H14 C12 1_555 1_555
H15 C12 1_555 1_555
H16 C12 1_555 1_555
H17 C13 1_555 1_555
H18 C13 1_555 1_555
H19 C13 1_555 1_555
H20 O1 1_555 1_555
H21 O2 1_555 1_555
C10 C11 1_555 1_555

#END
