
#######################################################################
#
#                 Cambridge Crystallographic Data Centre
#                                CCDC 
#
#######################################################################
#
# If this CIF has been generated from an entry in the Cambridge 
# Structural Database, then it will include bibliographic, chemical, 
# crystal, experimental, refinement or atomic coordinate data resulting 
# from the CCDC's data processing and validation procedures.
#
#######################################################################

data_FODMIW
_chemical_formula_moiety         'C28 H18 N4 O2 S4'
_chemical_name_systematic        
1,1'-(11a,11b-dimethyl-11a,11b-dihydrobis[1]benzothieno[2',3':7,8;3'',2'':5,6][1,2,5]thiadiazolo[3',4':3,4]naphtho[1,2-c][1,2,5]thiadiazole-9,14-diyl)diethanone
_symmetry_cell_setting           orthorhombic
_symmetry_space_group_name_H-M   'C 2 2 21'
_symmetry_Int_Tables_number      20
_space_group_name_Hall           'C 2n 2'
loop_
_symmetry_equiv_pos_site_id
_symmetry_equiv_pos_as_xyz
1 x,y,z
2 x,-y,-z
3 -x,y,1/2-z
4 -x,-y,1/2+z
5 1/2+x,1/2+y,z
6 1/2+x,1/2-y,-z
7 1/2-x,1/2+y,1/2-z
8 1/2-x,1/2-y,1/2+z
_cell_length_a                   10.7978(13)
_cell_length_b                   20.998(3)
_cell_length_c                   10.8950(14)
_cell_angle_alpha                90
_cell_angle_beta                 90
_cell_angle_gamma                90
_cell_volume                     2470.25
_exptl_crystal_colour            red
_exptl_crystal_description       block
_cell_formula_units_Z            4
loop_
_atom_site_label
_atom_site_type_symbol
_atom_site_fract_x
_atom_site_fract_y
_atom_site_fract_z
S1 S 0.95598(5) 0.07713(2) 1.09810(4)
S2 S 1.07684(5) 0.40358(2) 0.98165(5)
N1 N 1.05627(18) 0.32741(8) 1.00522(16)
N2 N 1.04449(18) 0.43069(8) 1.11834(17)
O1 O 0.75781(17) 0.15965(9) 0.57087(14)
C1 C 0.8175(2) 0.14277(10) 1.2664(2)
H1 H 0.8114 0.1768 1.3277
H2 H 0.8065 0.1014 1.3066
H3 H 0.7529 0.1486 1.2042
C2 C 0.94558(19) 0.14522(8) 1.20480(17)
C3 C 0.95633(19) 0.20481(8) 1.12443(17)
C4 C 0.99213(19) 0.25961(8) 1.18175(18)
C5 C 1.02044(18) 0.32068(9) 1.12134(17)
C6 C 1.01632(19) 0.38001(9) 1.18554(19)
C7 C 0.91952(18) 0.19125(9) 0.99790(17)
C8 C 0.88148(19) 0.23314(9) 0.90502(19)
H4 H 0.8822 0.2778 0.9193
C9 C 0.8429(2) 0.20966(9) 0.79271(19)
H5 H 0.8202 0.2386 0.7295
C10 C 0.8367(2) 0.14405(9) 0.77051(18)
C11 C 0.87119(19) 0.10138(10) 0.86234(18)
H6 H 0.8665 0.0568 0.8488
C12 C 0.91262(19) 0.12517(9) 0.97407(18)
C13 C 0.7881(2) 0.12158(11) 0.64957(19)
C14 C 0.7742(3) 0.05149(11) 0.6283(2)
H7 H 0.7320 0.0443 0.5499
H8 H 0.7253 0.0328 0.6950
H9 H 0.8562 0.0316 0.6262
S1B S 1.04402(5) 0.07713(2) 1.40190(4)
S2B S 0.92316(5) 0.40358(2) 1.51835(5)
N1B N 0.94373(18) 0.32741(8) 1.49478(16)
N2B N 0.95551(18) 0.43069(8) 1.38166(17)
O1B O 1.24219(17) 0.15965(9) 1.92913(14)
C1B C 1.1825(2) 0.14277(10) 1.2336(2)
H1B H 1.1886 0.1768 1.1723
H2B H 1.1935 0.1014 1.1934
H3B H 1.2471 0.1486 1.2958
C2B C 1.05442(19) 0.14522(8) 1.29520(17)
C3B C 1.04367(19) 0.20481(8) 1.37557(17)
C4B C 1.00787(19) 0.25961(8) 1.31825(18)
C5B C 0.97956(18) 0.32068(9) 1.37866(17)
C6B C 0.98368(19) 0.38001(9) 1.31446(19)
C7B C 1.08048(18) 0.19125(9) 1.50210(17)
C8B C 1.11852(19) 0.23314(9) 1.59498(19)
H4B H 1.1178 0.2778 1.5807
C9B C 1.1571(2) 0.20966(9) 1.70729(19)
H5B H 1.1798 0.2386 1.7705
C10B C 1.1633(2) 0.14405(9) 1.72949(18)
C11B C 1.12881(19) 0.10138(10) 1.63766(18)
H6B H 1.1335 0.0568 1.6512
C12B C 1.08738(19) 0.12517(9) 1.52593(18)
C13B C 1.2119(2) 0.12158(11) 1.85043(19)
C14B C 1.2258(3) 0.05149(11) 1.8717(2)
H7B H 1.2680 0.0443 1.9501
H8B H 1.2747 0.0328 1.8050
H9B H 1.1438 0.0316 1.8738
loop_
_geom_bond_atom_site_label_1
_geom_bond_atom_site_label_2
_geom_bond_site_symmetry_1
_geom_bond_site_symmetry_2
S1 C2 1_555 1_555
S2 N1 1_555 1_555
N1 C5 1_555 1_555
N2 S2 1_555 1_555
O1 C13 1_555 1_555
C1 H1 1_555 1_555
H2 C1 1_555 1_555
H3 C1 1_555 1_555
C2 C1 1_555 1_555
C3 C2 1_555 1_555
C4 C3 1_555 1_555
C5 C4 1_555 1_555
C6 N2 1_555 1_555
C7 C3 1_555 1_555
C8 C7 1_555 1_555
H4 C8 1_555 1_555
C9 C8 1_555 1_555
H5 C9 1_555 1_555
C10 C9 1_555 1_555
C11 C10 1_555 1_555
H6 C11 1_555 1_555
C12 S1 1_555 1_555
C13 C10 1_555 1_555
C14 C13 1_555 1_555
H7 C14 1_555 1_555
H8 C14 1_555 1_555
H9 C14 1_555 1_555
S1B C2B 1_555 1_555
S2B N1B 1_555 1_555
N1B C5B 1_555 1_555
N2B S2B 1_555 1_555
O1B C13B 1_555 1_555
C1B H1B 1_555 1_555
H2B C1B 1_555 1_555
H3B C1B 1_555 1_555
C2B C2 1_555 1_555
C3B C2B 1_555 1_555
C4B C4 1_555 1_555
C5B C4B 1_555 1_555
C6B C6 1_555 1_555
C7B C3B 1_555 1_555
C8B C7B 1_555 1_555
H4B C8B 1_555 1_555
C9B C8B 1_555 1_555
H5B C9B 1_555 1_555
C10B C9B 1_555 1_555
C11B C10B 1_555 1_555
H6B C11B 1_555 1_555
C12B S1B 1_555 1_555
C13B C10B 1_555 1_555
C14B C13B 1_555 1_555
H7B C14B 1_555 1_555
H8B C14B 1_555 1_555
H9B C14B 1_555 1_555
C5 C6 1_555 1_555
C7 C12 1_555 1_555
C11 C12 1_555 1_555
N2B C6B 1_555 1_555
C1B C2B 1_555 1_555
C3B C4B 1_555 1_555
C5B C6B 1_555 1_555
C7B C12B 1_555 1_555
C11B C12B 1_555 1_555

#END
