
#######################################################################
#
#                 Cambridge Crystallographic Data Centre
#                                CCDC 
#
#######################################################################
#
# If this CIF has been generated from an entry in the Cambridge 
# Structural Database, then it will include bibliographic, chemical, 
# crystal, experimental, refinement or atomic coordinate data resulting 
# from the CCDC's data processing and validation procedures.
#
#######################################################################

data_FODMAN
_chemical_formula_moiety         'C15 H25 N1 O2'
_chemical_name_systematic        
3-Hydroxy-1-(1-hydroxycyclohexyl)-2,3-dimethylcyclohexane-1-carbonitrile
_symmetry_cell_setting           triclinic
_symmetry_space_group_name_H-M   'P -1'
_symmetry_Int_Tables_number      2
_space_group_name_Hall           '-P 1'
loop_
_symmetry_equiv_pos_site_id
_symmetry_equiv_pos_as_xyz
1 x,y,z
2 -x,-y,-z
_cell_length_a                   10.085(3)
_cell_length_b                   18.828(5)
_cell_length_c                   7.563(2)
_cell_angle_alpha                98.64(2)
_cell_angle_beta                 103.16(2)
_cell_angle_gamma                87.80(2)
_cell_volume                     1382.47
_exptl_crystal_colour            colorless
_exptl_crystal_description       plate
_chemical_melting_point          '422-423 K'
_cell_formula_units_Z            4
_exptl_crystal_recrystallization_method 'ethyl acetate/hexanes'
loop_
_atom_site_label
_atom_site_type_symbol
_atom_site_fract_x
_atom_site_fract_y
_atom_site_fract_z
O1 O 0.5745(1) 0.10821(8) 0.5303(2)
O2 O 1.0584(1) 0.16268(9) 0.4147(2)
N1 N 0.7087(2) 0.0859(1) -0.0968(2)
C1 C 0.8474(2) 0.1066(1) 0.2442(2)
C2 C 0.7525(2) 0.1358(1) 0.3789(2)
C3 C 0.6413(2) 0.0808(1) 0.3834(3)
C4 C 0.7054(2) 0.0082(1) 0.4192(3)
C5 C 0.7942(2) -0.0208(1) 0.2856(3)
C6 C 0.9046(2) 0.0322(1) 0.2869(3)
C7 C 0.7653(2) 0.0954(1) 0.0528(3)
C8 C 0.8348(2) 0.1614(1) 0.5743(3)
C9 C 0.5243(2) 0.0743(1) 0.2145(3)
C10 C 0.9655(2) 0.1601(1) 0.2408(2)
C11 C 1.0410(2) 0.1320(1) 0.0884(3)
C12 C 1.1435(2) 0.1861(1) 0.0672(3)
C13 C 1.0781(3) 0.2579(1) 0.0351(3)
C14 C 1.0075(2) 0.2875(1) 0.1875(3)
C15 C 0.9049(2) 0.2343(1) 0.2119(3)
H1 H 0.7062 0.1772 0.3350
H2 H 0.7609 0.0128 0.5400
H3 H 0.6344 -0.0254 0.4088
H4 H 0.7370 -0.0298 0.1625
H5 H 0.8340 -0.0656 0.3146
H6 H 0.9556 0.0130 0.1974
H7 H 0.9651 0.0377 0.4050
H8 H 0.9022 0.1955 0.5707
H9 H 0.8799 0.1216 0.6266
H10 H 0.7765 0.1837 0.6488
H11 H 0.4834 0.1198 0.1979
H12 H 0.4576 0.0417 0.2237
H13 H 0.5583 0.0562 0.1060
H14 H 0.9755 0.1213 -0.0244
H15 H 1.0882 0.0886 0.1170
H16 H 1.1840 0.1684 -0.0333
H17 H 1.2142 0.1943 0.1765
H18 H 1.0109 0.2528 -0.0804
H19 H 1.1440 0.2922 0.0260
H20 H 1.0755 0.2973 0.2989
H21 H 0.9627 0.3320 0.1618
H22 H 0.8675 0.2536 0.3138
H23 H 0.8320 0.2292 0.1034
H24 H 0.6286 0.0981 0.6486
H25 H 1.1470 0.1805 0.4083
O3 O 0.3456(1) 0.19843(8) 0.5374(2)
O4 O 0.5955(2) 0.44080(8) 0.4989(2)
N2 N 0.6605(2) 0.3621(1) 1.0769(3)
C16 C 0.5479(2) 0.3735(1) 0.7335(3)
C17 C 0.5087(2) 0.2980(1) 0.6145(3)
C18 C 0.3958(2) 0.2590(1) 0.6763(3)
C19 C 0.2732(2) 0.3079(1) 0.6833(3)
C20 C 0.3113(2) 0.3795(1) 0.8036(3)
C21 C 0.4174(2) 0.4186(1) 0.7411(3)
C22 C 0.6117(2) 0.3642(1) 0.9257(3)
C23 C 0.4668(2) 0.3018(1) 0.4086(3)
C24 C 0.4469(2) 0.2289(1) 0.8557(3)
C25 C 0.6575(2) 0.4166(1) 0.6687(3)
C26 C 0.7791(2) 0.3683(1) 0.6414(3)
C27 C 0.8914(2) 0.4077(1) 0.5904(3)
C28 C 0.9391(2) 0.4734(1) 0.7298(4)
C29 C 0.8196(3) 0.5229(1) 0.7527(4)
C30 C 0.7083(2) 0.4840(1) 0.8066(3)
H26 H 0.5887 0.2676 0.6354
H27 H 0.2312 0.3171 0.5626
H28 H 0.2084 0.2844 0.7297
H29 H 0.3495 0.3702 0.9281
H30 H 0.2328 0.4085 0.8053
H31 H 0.4426 0.4629 0.8241
H32 H 0.3788 0.4314 0.6222
H33 H 0.3846 0.3285 0.3796
H34 H 0.5365 0.3245 0.3686
H35 H 0.4528 0.2545 0.3381
H36 H 0.5184 0.1955 0.8449
H37 H 0.3744 0.2055 0.8857
H38 H 0.4800 0.2670 0.9531
H39 H 0.7455 0.4694 0.9258
H40 H 0.6330 0.5153 0.8188
H41 H 0.8492 0.5649 0.8434
H42 H 0.7810 0.5413 0.6383
H43 H 1.0084 0.4984 0.6924
H44 H 0.9823 0.4585 0.8464
H45 H 0.8571 0.4224 0.4722
H46 H 0.9671 0.3754 0.5801
H47 H 0.7480 0.3284 0.5480
H48 H 0.8174 0.3491 0.7538
H49 H 0.4219 0.1644 0.5317
H50 H 0.5301 0.4851 0.5372
H51? H 0.6271 0.4034 0.3841
loop_
_geom_bond_atom_site_label_1
_geom_bond_atom_site_label_2
_geom_bond_site_symmetry_1
_geom_bond_site_symmetry_2
O1 C3 1_555 1_555
O2 C10 1_555 1_555
O3 C18 1_555 1_555
O4 C25 1_555 1_555
N1 C7 1_555 1_555
N2 C22 1_555 1_555
C1 C2 1_555 1_555
C2 C3 1_555 1_555
C3 C4 1_555 1_555
C4 C5 1_555 1_555
C5 C6 1_555 1_555
C6 C1 1_555 1_555
C7 C1 1_555 1_555
C8 C2 1_555 1_555
C9 C3 1_555 1_555
C10 C1 1_555 1_555
C11 C10 1_555 1_555
C12 C11 1_555 1_555
C13 C12 1_555 1_555
C14 C13 1_555 1_555
C15 C10 1_555 1_555
C16 C17 1_555 1_555
C17 C18 1_555 1_555
C18 C19 1_555 1_555
C19 C20 1_555 1_555
C20 C21 1_555 1_555
C21 C16 1_555 1_555
C22 C16 1_555 1_555
C23 C17 1_555 1_555
C24 C18 1_555 1_555
C25 C16 1_555 1_555
C26 C25 1_555 1_555
C27 C26 1_555 1_555
C28 C27 1_555 1_555
C29 C28 1_555 1_555
C30 C25 1_555 1_555
H1 C2 1_555 1_555
H2 C4 1_555 1_555
H3 C4 1_555 1_555
H4 C5 1_555 1_555
H5 C5 1_555 1_555
H6 C6 1_555 1_555
H7 C6 1_555 1_555
H8 C8 1_555 1_555
H9 C8 1_555 1_555
H10 C8 1_555 1_555
H11 C9 1_555 1_555
H12 C9 1_555 1_555
H13 C9 1_555 1_555
H14 C11 1_555 1_555
H15 C11 1_555 1_555
H16 C12 1_555 1_555
H17 C12 1_555 1_555
H18 C13 1_555 1_555
H19 C13 1_555 1_555
H20 C14 1_555 1_555
H21 C14 1_555 1_555
H22 C15 1_555 1_555
H23 C15 1_555 1_555
H24 O1 1_555 1_555
H25 O2 1_555 1_555
H26 C17 1_555 1_555
H27 C19 1_555 1_555
H28 C19 1_555 1_555
H29 C20 1_555 1_555
H30 C20 1_555 1_555
H31 C21 1_555 1_555
H32 C21 1_555 1_555
H33 C23 1_555 1_555
H34 C23 1_555 1_555
H35 C23 1_555 1_555
H36 C24 1_555 1_555
H37 C24 1_555 1_555
H38 C24 1_555 1_555
H39 C30 1_555 1_555
H40 C30 1_555 1_555
H41 C29 1_555 1_555
H42 C29 1_555 1_555
H43 C28 1_555 1_555
H44 C28 1_555 1_555
H45 C27 1_555 1_555
H46 C27 1_555 1_555
H47 C26 1_555 1_555
H48 C26 1_555 1_555
H49 O3 1_555 1_555
H50 O4 1_555 1_555
C14 C15 1_555 1_555
C29 C30 1_555 1_555

#END
