
#######################################################################
#
#                 Cambridge Crystallographic Data Centre
#                                CCDC 
#
#######################################################################
#
# If this CIF has been generated from an entry in the Cambridge 
# Structural Database, then it will include bibliographic, chemical, 
# crystal, experimental, refinement or atomic coordinate data resulting 
# from the CCDC's data processing and validation procedures.
#
#######################################################################

data_FODPEU
_chemical_formula_moiety         'C32 H32 N2 O2'
_chemical_name_systematic        
anti-1',2,6-Trimethyl-2'-oxo-4-(1',2,6-trimethyl-2'-oxo-spiro((cyclohexa-2,5-diene)-1,3'-indole)-4-yl)-spiro((cyclohexa-2,5-diene)-1,3'-indole)
_symmetry_cell_setting           monoclinic
_symmetry_space_group_name_H-M   'P 21/n'
_symmetry_Int_Tables_number      14
_space_group_name_Hall           '-P 2yn'
loop_
_symmetry_equiv_pos_site_id
_symmetry_equiv_pos_as_xyz
1 x,y,z
2 1/2-x,1/2+y,1/2-z
3 -x,-y,-z
4 1/2+x,1/2-y,1/2+z
_cell_length_a                   11.298(2)
_cell_length_b                   14.216(2)
_cell_length_c                   8.056(1)
_cell_angle_alpha                90
_cell_angle_beta                 98.17(1)
_cell_angle_gamma                90
_cell_volume                     1280.76
_exptl_crystal_colour            colorless
_exptl_crystal_description       block
_chemical_melting_point          '491-492 K'
_cell_formula_units_Z            2
_exptl_crystal_recrystallization_method dichloromethane/hexane
loop_
_atom_site_label
_atom_site_type_symbol
_atom_site_fract_x
_atom_site_fract_y
_atom_site_fract_z
N1 N 0.2172(1) -0.20958(7) -0.4044(1)
C1 C 0.1452(1) -0.16770(8) -0.3036(2)
C2 C 0.2156(1) -0.08440(8) -0.2111(1)
C3 C 0.3348(1) -0.09315(8) -0.2738(1)
C4 C 0.4383(1) -0.04136(9) -0.2379(2)
C5 C 0.5366(1) -0.06470(11) -0.3152(2)
C6 C 0.5308(1) -0.13867(11) -0.4274(2)
C7 C 0.4273(1) -0.19174(9) -0.4658(2)
C8 C 0.3308(1) -0.16765(8) -0.3877(2)
C9 C 0.2239(1) -0.10060(9) -0.0230(2)
C10 C 0.1563(1) -0.05239(10) 0.0681(2)
C11 C 0.0657(1) 0.01946(9) 0.0010(2)
C12 C 0.0844(1) 0.05114(9) -0.1707(2)
C13 C 0.1498(1) 0.00604(8) -0.2688(2)
C14 C 0.1777(2) -0.28697(11) -0.5163(2)
C15 C 0.3088(2) -0.17638(12) 0.0504(2)
C16 C 0.1583(1) 0.03800(11) -0.4453(2)
O1 O 0.0438(1) -0.19114(7) -0.2903(1)
H1 H 0.439(1) 0.010(1) -0.155(2)
H2 H 0.614(2) -0.029(1) -0.287(3)
H3 H 0.600(2) -0.159(1) -0.486(2)
H4 H 0.425(2) -0.244(1) -0.546(2)
H5 H 0.163(2) -0.068(1) 0.192(2)
H6 H 0.072(1) 0.074(1) 0.080(2)
H7 H 0.040(1) 0.107(1) -0.211(2)
H8 H 0.087(2) -0.295(2) -0.525(3)
H9 H 0.232(2) -0.344(2) -0.492(3)
H10 H 0.197(2) -0.274(2) -0.631(3)
H11 H 0.302(2) -0.187(2) 0.172(3)
H12 H 0.397(2) -0.162(2) 0.034(3)
H13 H 0.293(2) -0.238(2) -0.009(3)
H14 H 0.104(2) 0.094(1) -0.474(2)
H15 H 0.123(2) -0.017(2) -0.528(3)
H16 H 0.244(2) 0.051(1) -0.466(2)
N1B N -0.2172(1) 0.20958(7) 0.4044(1)
C1B C -0.1452(1) 0.16770(8) 0.3036(2)
C2B C -0.2156(1) 0.08440(8) 0.2111(1)
C3B C -0.3348(1) 0.09315(8) 0.2738(1)
C4B C -0.4383(1) 0.04136(9) 0.2379(2)
C5B C -0.5366(1) 0.06470(11) 0.3152(2)
C6B C -0.5308(1) 0.13867(11) 0.4274(2)
C7B C -0.4273(1) 0.19174(9) 0.4658(2)
C8B C -0.3308(1) 0.16765(8) 0.3877(2)
C9B C -0.2239(1) 0.10060(9) 0.0230(2)
C10B C -0.1563(1) 0.05239(10) -0.0681(2)
C11B C -0.0657(1) -0.01946(9) -0.0010(2)
C12B C -0.0844(1) -0.05114(9) 0.1707(2)
C13B C -0.1498(1) -0.00604(8) 0.2688(2)
C14B C -0.1777(2) 0.28697(11) 0.5163(2)
C15B C -0.3088(2) 0.17638(12) -0.0504(2)
C16B C -0.1583(1) -0.03800(11) 0.4453(2)
O1B O -0.0438(1) 0.19114(7) 0.2903(1)
H1B H -0.439(1) -0.010(1) 0.155(2)
H2B H -0.614(2) 0.029(1) 0.287(3)
H3B H -0.600(2) 0.159(1) 0.486(2)
H4B H -0.425(2) 0.244(1) 0.546(2)
H5B H -0.163(2) 0.068(1) -0.192(2)
H6B H -0.072(1) -0.074(1) -0.080(2)
H7B H -0.040(1) -0.107(1) 0.211(2)
H8B H -0.087(2) 0.295(2) 0.525(3)
H9B H -0.232(2) 0.344(2) 0.492(3)
H10B H -0.197(2) 0.274(2) 0.631(3)
H11B H -0.302(2) 0.187(2) -0.172(3)
H12B H -0.397(2) 0.162(2) -0.034(3)
H13B H -0.293(2) 0.238(2) 0.009(3)
H14B H -0.104(2) -0.094(1) 0.474(2)
H15B H -0.123(2) 0.017(2) 0.528(3)
H16B H -0.244(2) -0.051(1) 0.466(2)
loop_
_geom_bond_atom_site_label_1
_geom_bond_atom_site_label_2
_geom_bond_site_symmetry_1
_geom_bond_site_symmetry_2
N1 C1 1_555 1_555
C1 C2 1_555 1_555
C2 C3 1_555 1_555
C3 C4 1_555 1_555
C4 C5 1_555 1_555
C5 C6 1_555 1_555
C6 C7 1_555 1_555
C7 C8 1_555 1_555
C8 N1 1_555 1_555
C9 C2 1_555 1_555
C10 C9 1_555 1_555
C11 C10 1_555 1_555
C12 C11 1_555 1_555
C13 C2 1_555 1_555
C14 N1 1_555 1_555
C15 C9 1_555 1_555
C16 C13 1_555 1_555
O1 C1 1_555 1_555
H1 C4 1_555 1_555
H2 C5 1_555 1_555
H3 C6 1_555 1_555
H4 C7 1_555 1_555
H5 C10 1_555 1_555
H6 C11 1_555 1_555
H7 C12 1_555 1_555
H8 C14 1_555 1_555
H9 C14 1_555 1_555
H10 C14 1_555 1_555
H11 C15 1_555 1_555
H12 C15 1_555 1_555
H13 C15 1_555 1_555
H14 C16 1_555 1_555
H15 C16 1_555 1_555
H16 C16 1_555 1_555
N1B C1B 1_555 1_555
C1B C2B 1_555 1_555
C2B C3B 1_555 1_555
C3B C4B 1_555 1_555
C4B C5B 1_555 1_555
C5B C6B 1_555 1_555
C6B C7B 1_555 1_555
C7B C8B 1_555 1_555
C8B N1B 1_555 1_555
C9B C2B 1_555 1_555
C10B C9B 1_555 1_555
C11B C11 1_555 1_555
C12B C11B 1_555 1_555
C13B C2B 1_555 1_555
C14B N1B 1_555 1_555
C15B C9B 1_555 1_555
C16B C13B 1_555 1_555
O1B C1B 1_555 1_555
H1B C4B 1_555 1_555
H2B C5B 1_555 1_555
H3B C6B 1_555 1_555
H4B C7B 1_555 1_555
H5B C10B 1_555 1_555
H6B C11B 1_555 1_555
H7B C12B 1_555 1_555
H8B C14B 1_555 1_555
H9B C14B 1_555 1_555
H10B C14B 1_555 1_555
H11B C15B 1_555 1_555
H12B C15B 1_555 1_555
H13B C15B 1_555 1_555
H14B C16B 1_555 1_555
H15B C16B 1_555 1_555
H16B C16B 1_555 1_555
C3 C8 1_555 1_555
C12 C13 1_555 1_555
C3B C8B 1_555 1_555
C10B C11B 1_555 1_555
C12B C13B 1_555 1_555

#END
