
#######################################################################
#
#                 Cambridge Crystallographic Data Centre
#                                CCDC 
#
#######################################################################
#
# If this CIF has been generated from an entry in the Cambridge 
# Structural Database, then it will include bibliographic, chemical, 
# crystal, experimental, refinement or atomic coordinate data resulting 
# from the CCDC's data processing and validation procedures.
#
#######################################################################

data_FODQUM
_chemical_formula_moiety         'C60 H76 N4 O18 S4'
_chemical_name_systematic        
"Tetramethyl 2,2',2'',2'''-(1,4,7,10,13,16-hexaoxacyclooctadecane-2,3,11,12-tetrayltetrakis(carbonylimino))tetrakis(3-(benzylsulfanyl)propanoate)"
_symmetry_cell_setting           triclinic
_symmetry_space_group_name_H-M   'P 1'
_symmetry_Int_Tables_number      1
_space_group_name_Hall           'P 1'
loop_
_symmetry_equiv_pos_site_id
_symmetry_equiv_pos_as_xyz
1 x,y,z
_cell_length_a                   9.3854(5)
_cell_length_b                   14.0773(6)
_cell_length_c                   14.0972(6)
_cell_angle_alpha                65.540(2)
_cell_angle_beta                 70.737(2)
_cell_angle_gamma                79.985(2)
_cell_volume                     1598.95
_exptl_crystal_colour            colorless
_exptl_crystal_description       plate
_cell_formula_units_Z            1
loop_
_atom_site_label
_atom_site_type_symbol
_atom_site_fract_x
_atom_site_fract_y
_atom_site_fract_z
C1 C -0.4116(6) 0.6281(4) 0.6711(4)
H1 H -0.4973 0.5843 0.6890
C2 C -0.3594(6) 0.6873(4) 0.5484(4)
H2 H -0.4451 0.7339 0.5248
C3 C -0.2110(7) 0.8280(4) 0.4142(4)
H3 H -0.2972 0.8797 0.4090
H4 H -0.1994 0.7948 0.3622
C4 C -0.0683(7) 0.8816(4) 0.3869(5)
H5 H -0.0599 0.9462 0.3206
H6 H -0.0704 0.9007 0.4475
C5 C 0.1983(7) 0.8473(5) 0.3570(5)
H7 H 0.1823 0.8890 0.4018
H8 H 0.2425 0.8926 0.2799
C6 C 0.3053(7) 0.7557(5) 0.3914(4)
H9 H 0.2972 0.7040 0.3628
H10 H 0.4099 0.7798 0.3583
C7 C 0.1452(6) 0.6463(4) 0.5608(4)
H11 H 0.0691 0.6808 0.5198
C8 C 0.0806(6) 0.6474(4) 0.6753(4)
H12 H -0.0171 0.6112 0.7110
C9 C 0.1149(7) 0.5437(5) 0.8510(4)
H13 H 0.0538 0.5981 0.8763
H14 H 0.1955 0.5170 0.8877
C10 C 0.0157(8) 0.4558(4) 0.8835(5)
H15 H 0.0646 0.4129 0.8398
H16 H 0.0027 0.4105 0.9611
C11 C -0.2017(7) 0.4274(4) 0.8461(5)
H17 H -0.2320 0.3637 0.9126
H18 H -0.1309 0.4062 0.7878
C12 C -0.3387(7) 0.4847(4) 0.8118(4)
H19 H -0.4037 0.4350 0.8141
H20 H -0.3981 0.5194 0.8620
C13 C -0.4652(6) 0.7011(4) 0.7344(4)
C14 C -0.3786(6) 0.8033(4) 0.8079(4)
H21 H -0.4892 0.8058 0.8455
C15 C -0.3334(6) 0.9143(5) 0.7358(5)
C16 C -0.3270(11) 1.0500(6) 0.5656(6)
H22 H -0.3962 1.1021 0.5888
H23 H -0.3316 1.0575 0.4944
H24 H -0.2237 1.0605 0.5604
C17 C -0.2965(6) 0.7546(4) 0.8961(4)
H25 H -0.2865 0.8093 0.9201
H26 H -0.1933 0.7310 0.8635
C18 C -0.5464(7) 0.7142(5) 1.0803(5)
H27 H -0.6200 0.7398 1.0376
H28 H -0.5977 0.6642 1.1535
C19 C -0.4999(7) 0.8056(5) 1.0919(4)
C20 C -0.5468(8) 0.9057(5) 1.0354(5)
H29 H -0.6100 0.9158 0.9912
C21 C -0.5044(9) 0.9924(6) 1.0414(6)
H30 H -0.5387 1.0607 1.0022
C22 C -0.4119(9) 0.9780(6) 1.1048(6)
H31 H -0.3804 1.0365 1.1088
C23 C -0.3652(8) 0.8786(7) 1.1624(5)
H32 H -0.3029 0.8691 1.2071
C24 C -0.4077(7) 0.7915(6) 1.1565(4)
H33 H -0.3738 0.7233 1.1962
C25 C -0.3094(6) 0.6128(4) 0.4879(4)
C26 C -0.0985(6) 0.5046(4) 0.4221(4)
H34 H -0.1700 0.5001 0.3850
C27 C -0.0652(7) 0.3936(4) 0.4980(5)
C28 C -0.1607(11) 0.2603(6) 0.6698(6)
H35 H -0.1438 0.2072 0.6387
H36 H -0.2511 0.2447 0.7326
H37 H -0.0730 0.2601 0.6930
C29 C 0.0473(6) 0.5504(5) 0.3343(4)
H38 H 0.1081 0.4947 0.3111
H39 H 0.1070 0.5741 0.3661
C30 C -0.0464(8) 0.5893(5) 0.1530(5)
H40 H -0.1489 0.5642 0.1976
H41 H -0.0536 0.6390 0.0803
C31 C 0.0568(7) 0.4971(5) 0.1403(5)
C32 C -0.0001(8) 0.3982(5) 0.1891(5)
H42 H -0.1033 0.3884 0.2302
C33 C 0.0938(12) 0.3137(6) 0.1777(6)
H43 H 0.0537 0.2463 0.2107
C34 C 0.2425(11) 0.3255(7) 0.1201(6)
H44 H 0.3062 0.2667 0.1140
C35 C 0.2989(9) 0.4234(7) 0.0710(6)
H45 H 0.4021 0.4326 0.0297
C36 C 0.2067(8) 0.5090(6) 0.0811(5)
H46 H 0.2472 0.5764 0.0470
C37 C 0.1721(6) 0.5338(4) 0.5706(4)
C38 C 0.3572(6) 0.3935(4) 0.5509(4)
H47 H 0.2764 0.3673 0.5374
C39 C 0.3754(7) 0.3219(5) 0.6639(5)
C40 C 0.4086(9) 0.1441(6) 0.7750(5)
H48 H 0.5126 0.1495 0.7725
H49 H 0.3957 0.0740 0.7809
H50 H 0.3384 0.1565 0.8382
C41 C 0.5093(6) 0.3880(4) 0.4665(4)
H51 H 0.5288 0.3157 0.4691
H52 H 0.5908 0.4036 0.4874
C42 C 0.4289(7) 0.4004(5) 0.2877(5)
H53 H 0.3337 0.3742 0.3453
H54 H 0.4019 0.4476 0.2206
C43 C 0.5232(7) 0.3089(5) 0.2671(5)
C44 C 0.4870(8) 0.2085(5) 0.3357(5)
H55 H 0.4026 0.1959 0.3988
C45 C 0.5716(9) 0.1248(6) 0.3146(6)
H56 H 0.5437 0.0553 0.3618
C46 C 0.6960(8) 0.1425(5) 0.2253(6)
H57 H 0.7549 0.0853 0.2110
C47 C 0.7355(8) 0.2427(5) 0.1568(6)
H58 H 0.8229 0.2548 0.0959
C48 C 0.6484(7) 0.3262(5) 0.1763(5)
H59 H 0.6742 0.3955 0.1274
C49 C 0.0492(6) 0.7605(4) 0.6678(4)
C50 C 0.1137(7) 0.9027(4) 0.6961(4)
H60 H 0.0030 0.9151 0.7269
C51 C 0.1645(8) 0.9788(4) 0.5781(5)
C52 C 0.0890(11) 1.1212(6) 0.4355(6)
H61 H 0.1778 1.1609 0.4153
H62 H 0.0016 1.1695 0.4251
H63 H 0.1086 1.0809 0.3898
C53 C 0.1985(6) 0.9183(4) 0.7628(4)
H64 H 0.1778 0.9908 0.7596
H65 H 0.3082 0.9096 0.7298
C54 C -0.0242(7) 0.8954(4) 0.9613(5)
H66 H -0.0894 0.9186 0.9123
H67 H -0.0806 0.8452 1.0326
C55 C 0.0087(6) 0.9881(4) 0.9762(5)
C56 C -0.0131(8) 1.0875(5) 0.9013(5)
H68 H -0.0529 1.0966 0.8441
C57 C 0.0245(8) 1.1737(5) 0.9117(6)
H69 H 0.0108 1.2417 0.8603
C58 C 0.0801(7) 1.1628(5) 0.9935(6)
H70 H 0.1073 1.2223 0.9983
C59 C 0.0965(8) 1.0637(5) 1.0697(5)
H71 H 0.1328 1.0550 1.1284
C60 C 0.0604(7) 0.9774(5) 1.0606(5)
H72 H 0.0715 0.9097 1.1135
N1 N -0.3552(5) 0.7383(3) 0.7462(3)
H73 H -0.2616 0.7228 0.7145
N2 N -0.1699(5) 0.5718(3) 0.4816(3)
H74 H -0.1175 0.5862 0.5152
N3 N 0.3172(5) 0.4996(3) 0.5445(4)
H75 H 0.3894 0.5427 0.5232
N4 N 0.1411(5) 0.7966(3) 0.6991(4)
H76 H 0.2167 0.7570 0.7210
O1 O -0.2895(4) 0.5607(3) 0.7039(3)
O2 O -0.2386(4) 0.7502(3) 0.5230(3)
O3 O 0.0566(4) 0.8118(3) 0.3697(3)
O4 O 0.2775(4) 0.7053(3) 0.5071(3)
O5 O 0.1832(4) 0.5903(3) 0.7355(3)
O6 O -0.1295(5) 0.4955(3) 0.8670(3)
O7 O -0.5992(4) 0.7184(3) 0.7728(3)
O8 O -0.2770(5) 0.9695(3) 0.7607(3)
O9 O -0.3703(5) 0.9467(3) 0.6440(3)
O10 O -0.3933(4) 0.5964(3) 0.4463(3)
O11 O 0.0450(5) 0.3406(3) 0.4767(4)
O12 O -0.1817(5) 0.3618(3) 0.5888(3)
O13 O 0.0637(4) 0.4790(3) 0.6031(3)
O14 O 0.3861(7) 0.3479(4) 0.7293(4)
O15 O 0.3772(6) 0.2229(3) 0.6745(4)
O16 O -0.0569(4) 0.8121(3) 0.6357(3)
O17 O 0.2867(7) 0.9744(5) 0.5164(4)
O18 O 0.0576(6) 1.0495(4) 0.5505(4)
S1 S -0.38779(18) 0.64549(11) 1.01416(12)
S2 S 0.01429(18) 0.65898(11) 0.21592(12)
S3 S 0.51859(17) 0.47613(11) 0.32863(11)
S4 S 0.14875(17) 0.82903(11) 0.90397(11)
loop_
_geom_bond_atom_site_label_1
_geom_bond_atom_site_label_2
_geom_bond_site_symmetry_1
_geom_bond_site_symmetry_2
C1 H1 1_555 1_555
C2 C1 1_555 1_555
H2 C2 1_555 1_555
C3 H3 1_555 1_555
H4 C3 1_555 1_555
C4 C3 1_555 1_555
H5 C4 1_555 1_555
H6 C4 1_555 1_555
C5 H7 1_555 1_555
H8 C5 1_555 1_555
C6 C5 1_555 1_555
H9 C6 1_555 1_555
H10 C6 1_555 1_555
C7 H11 1_555 1_555
C8 C7 1_555 1_555
H12 C8 1_555 1_555
C9 H13 1_555 1_555
H14 C9 1_555 1_555
C10 C9 1_555 1_555
H15 C10 1_555 1_555
H16 C10 1_555 1_555
C11 H17 1_555 1_555
H18 C11 1_555 1_555
C12 C11 1_555 1_555
H19 C12 1_555 1_555
H20 C12 1_555 1_555
C13 C1 1_555 1_555
C14 H21 1_555 1_555
C15 C14 1_555 1_555
C16 H22 1_555 1_555
H23 C16 1_555 1_555
H24 C16 1_555 1_555
C17 C14 1_555 1_555
H25 C17 1_555 1_555
H26 C17 1_555 1_555
C18 H27 1_555 1_555
H28 C18 1_555 1_555
C19 C18 1_555 1_555
C20 C19 1_555 1_555
H29 C20 1_555 1_555
C21 C20 1_555 1_555
H30 C21 1_555 1_555
C22 C21 1_555 1_555
H31 C22 1_555 1_555
C23 C22 1_555 1_555
H32 C23 1_555 1_555
C24 C19 1_555 1_555
H33 C24 1_555 1_555
C25 C2 1_555 1_555
C26 H34 1_555 1_555
C27 C26 1_555 1_555
C28 H35 1_555 1_555
H36 C28 1_555 1_555
H37 C28 1_555 1_555
C29 C26 1_555 1_555
H38 C29 1_555 1_555
H39 C29 1_555 1_555
C30 H40 1_555 1_555
H41 C30 1_555 1_555
C31 C30 1_555 1_555
C32 C31 1_555 1_555
H42 C32 1_555 1_555
C33 C32 1_555 1_555
H43 C33 1_555 1_555
C34 C33 1_555 1_555
H44 C34 1_555 1_555
C35 C34 1_555 1_555
H45 C35 1_555 1_555
C36 C31 1_555 1_555
H46 C36 1_555 1_555
C37 C7 1_555 1_555
C38 H47 1_555 1_555
C39 C38 1_555 1_555
C40 H48 1_555 1_555
H49 C40 1_555 1_555
H50 C40 1_555 1_555
C41 C38 1_555 1_555
H51 C41 1_555 1_555
H52 C41 1_555 1_555
C42 H53 1_555 1_555
H54 C42 1_555 1_555
C43 C42 1_555 1_555
C44 C43 1_555 1_555
H55 C44 1_555 1_555
C45 C44 1_555 1_555
H56 C45 1_555 1_555
C46 C45 1_555 1_555
H57 C46 1_555 1_555
C47 C46 1_555 1_555
H58 C47 1_555 1_555
C48 C43 1_555 1_555
H59 C48 1_555 1_555
C49 C8 1_555 1_555
C50 H60 1_555 1_555
C51 C50 1_555 1_555
C52 H61 1_555 1_555
H62 C52 1_555 1_555
H63 C52 1_555 1_555
C53 C50 1_555 1_555
H64 C53 1_555 1_555
H65 C53 1_555 1_555
C54 H66 1_555 1_555
H67 C54 1_555 1_555
C55 C54 1_555 1_555
C56 C55 1_555 1_555
H68 C56 1_555 1_555
C57 C56 1_555 1_555
H69 C57 1_555 1_555
C58 C57 1_555 1_555
H70 C58 1_555 1_555
C59 C58 1_555 1_555
H71 C59 1_555 1_555
C60 C55 1_555 1_555
H72 C60 1_555 1_555
N1 C13 1_555 1_555
H73 N1 1_555 1_555
N2 C25 1_555 1_555
H74 N2 1_555 1_555
N3 C37 1_555 1_555
H75 N3 1_555 1_555
N4 C49 1_555 1_555
H76 N4 1_555 1_555
O1 C1 1_555 1_555
O2 C2 1_555 1_555
O3 C4 1_555 1_555
O4 C6 1_555 1_555
O5 C8 1_555 1_555
O6 C10 1_555 1_555
O7 C13 1_555 1_555
O8 C15 1_555 1_555
O9 C15 1_555 1_555
O10 C25 1_555 1_555
O11 C27 1_555 1_555
O12 C27 1_555 1_555
O13 C37 1_555 1_555
O14 C39 1_555 1_555
O15 C39 1_555 1_555
O16 C49 1_555 1_555
O17 C51 1_555 1_555
O18 C51 1_555 1_555
S1 C17 1_555 1_555
S2 C29 1_555 1_555
S3 C41 1_555 1_555
S4 C53 1_555 1_555
C3 O2 1_555 1_555
C5 O3 1_555 1_555
C7 O4 1_555 1_555
C9 O5 1_555 1_555
C11 O6 1_555 1_555
C12 O1 1_555 1_555
C14 N1 1_555 1_555
C16 O9 1_555 1_555
C18 S1 1_555 1_555
C23 C24 1_555 1_555
C26 N2 1_555 1_555
C28 O12 1_555 1_555
C30 S2 1_555 1_555
C35 C36 1_555 1_555
C38 N3 1_555 1_555
C40 O15 1_555 1_555
C42 S3 1_555 1_555
C47 C48 1_555 1_555
C50 N4 1_555 1_555
C52 O18 1_555 1_555
C54 S4 1_555 1_555
C59 C60 1_555 1_555

#END
