
#######################################################################
#
#                 Cambridge Crystallographic Data Centre
#                                CCDC 
#
#######################################################################
#
# If this CIF has been generated from an entry in the Cambridge 
# Structural Database, then it will include bibliographic, chemical, 
# crystal, experimental, refinement or atomic coordinate data resulting 
# from the CCDC's data processing and validation procedures.
#
#######################################################################

data_FOFDEK
_chemical_formula_moiety         'C15 H13 F1 N2 O2 S1'
_chemical_name_systematic        N-2-Fluorobenzyl-N'-2-methoxyphenyl-thiourea
_symmetry_cell_setting           triclinic
_symmetry_space_group_name_H-M   'P -1'
_symmetry_Int_Tables_number      2
_space_group_name_Hall           '-P 1'
loop_
_symmetry_equiv_pos_site_id
_symmetry_equiv_pos_as_xyz
1 x,y,z
2 -x,-y,-z
_cell_length_a                   7.058(4)
_cell_length_b                   9.067(5)
_cell_length_c                   11.907(8)
_cell_angle_alpha                89.00(2)
_cell_angle_beta                 86.59(2)
_cell_angle_gamma                69.02(1)
_cell_volume                     710.206
_exptl_crystal_colour            colorless
_exptl_crystal_description       chunk
_cell_formula_units_Z            2
loop_
_atom_site_label
_atom_site_type_symbol
_atom_site_fract_x
_atom_site_fract_y
_atom_site_fract_z
S1 S 0.05018(10) 0.21427(6) -0.25359(5)
F1 F 0.1279(2) 0.36584(13) 0.07447(10)
O1 O 0.3271(2) -0.3878(2) -0.15338(11)
O2 O 0.3367(2) -0.1237(2) 0.02634(11)
N1 N 0.1689(2) 0.1125(2) -0.05375(13)
N2 N 0.2195(2) -0.0877(2) -0.18195(12)
C1 C 0.2619(3) 0.1018(2) 0.1420(2)
C2 C 0.2010(3) 0.2632(2) 0.1602(2)
C3 C 0.2099(3) 0.3282(2) 0.2625(2)
C4 C 0.2823(3) 0.2291(3) 0.3517(2)
C5 C 0.3462(3) 0.0664(3) 0.3377(2)
C6 C 0.3350(3) 0.0049(2) 0.2340(2)
C7 C 0.2598(3) 0.0205(2) 0.0343(1)
C8 C 0.1520(3) 0.0685(2) -0.1641(2)
C9 C 0.2278(3) -0.1770(2) -0.2795(1)
C10 C 0.2880(3) -0.3406(2) -0.2621(1)
C11 C 0.3040(3) -0.4416(2) -0.3507(2)
C12 C 0.2600(3) -0.3794(3) -0.4579(2)
C13 C 0.2047(3) -0.2197(3) -0.4760(2)
C14 C 0.1881(3) -0.1180(2) -0.3874(2)
C15 C 0.4095(4) -0.5546(2) -0.1331(2)
H1 H 0.1237(2) 0.2196(2) -0.04194(13)
H2 H 0.2662(2) -0.1459(2) -0.11795(12)
H3 H 0.1619(3) 0.4544(2) 0.2618(2)
H4 H 0.2933(3) 0.2743(3) 0.4262(2)
H5 H 0.4000(3) -0.0067(3) 0.4028(2)
H6 H 0.3763(3) -0.1138(2) 0.2236(2)
H7 H 0.3482(3) -0.5594(2) -0.3387(2)
H8 H 0.2782(3) -0.4496(3) -0.5232(2)
H9 H 0.1664(3) -0.1761(3) -0.5502(2)
H10 H 0.1508(3) 0.0001(2) -0.3989(2)
H11 H 0.3128(4) -0.6022(2) -0.1571(2)
H12 H 0.5488(4) -0.6052(2) -0.1781(2)
H13 H 0.4298(4) -0.5662(2) -0.0551(2)
loop_
_geom_bond_atom_site_label_1
_geom_bond_atom_site_label_2
_geom_bond_site_symmetry_1
_geom_bond_site_symmetry_2
S1 C8 1_555 1_555
F1 C2 1_555 1_555
O1 C10 1_555 1_555
O2 C7 1_555 1_555
N1 C7 1_555 1_555
N2 C8 1_555 1_555
C1 C2 1_555 1_555
C2 C3 1_555 1_555
C3 C4 1_555 1_555
C4 C5 1_555 1_555
C5 C6 1_555 1_555
C6 C1 1_555 1_555
C7 C1 1_555 1_555
C8 N1 1_555 1_555
C9 N2 1_555 1_555
C10 C9 1_555 1_555
C11 C10 1_555 1_555
C12 C11 1_555 1_555
C13 C12 1_555 1_555
C14 C9 1_555 1_555
C15 O1 1_555 1_555
H1 N1 1_555 1_555
H2 N2 1_555 1_555
H3 C3 1_555 1_555
H4 C4 1_555 1_555
H5 C5 1_555 1_555
H6 C6 1_555 1_555
H7 C11 1_555 1_555
H8 C12 1_555 1_555
H9 C13 1_555 1_555
H10 C14 1_555 1_555
H11 C15 1_555 1_555
H12 C15 1_555 1_555
H13 C15 1_555 1_555
C13 C14 1_555 1_555

#END
