
#######################################################################
#
#                 Cambridge Crystallographic Data Centre
#                                CCDC 
#
#######################################################################
#
# If this CIF has been generated from an entry in the Cambridge 
# Structural Database, then it will include bibliographic, chemical, 
# crystal, experimental, refinement or atomic coordinate data resulting 
# from the CCDC's data processing and validation procedures.
#
#######################################################################

data_FOFQIA
_chemical_formula_moiety         'C14 H20 S8'
_chemical_name_systematic        
2,3-bis(Methylthio)-6,7-bis(ethylthiomethyl)tetrathiafulvalene
_symmetry_cell_setting           hexagonal
_symmetry_space_group_name_H-M   'P 62'
_symmetry_Int_Tables_number      171
_space_group_name_Hall           'P 62'
loop_
_symmetry_equiv_pos_site_id
_symmetry_equiv_pos_as_xyz
1 x,y,z
2 x-y,x,1/3+z
3 -y,x-y,2/3+z
4 -x,-y,z
5 -x+y,-x,1/3+z
6 y,-x+y,2/3+z
_cell_length_a                   11.7402(17)
_cell_length_b                   11.7402(17)
_cell_length_c                   12.661(3)
_cell_angle_alpha                90
_cell_angle_beta                 90
_cell_angle_gamma                120
_cell_volume                     1511.3
_exptl_crystal_colour            red-orange
_exptl_crystal_description       needles
_chemical_melting_point          '103.5-104.5 deg.C'
_cell_formula_units_Z            3
_exptl_crystal_recrystallization_method chloroform/methanol
loop_
_atom_site_label
_atom_site_type_symbol
_atom_site_fract_x
_atom_site_fract_y
_atom_site_fract_z
S1 S 0.37696(7) -0.12823(7) 0.31497(4)
S2 S 0.37185(7) -0.12395(7) 0.05902(6)
S3 S 0.35599(7) -0.14259(7) -0.17707(5)
S4 S 0.21689(7) -0.14812(7) 0.55330(7)
C1 C 0.5000 0.0000 0.2399(3)
C2 C 0.5000 0.0000 0.1343(3)
C3 C 0.4411(3) -0.0554(3) -0.0642(2)
C4 C 0.1945(3) -0.1616(3) -0.1512(3)
H1 H 0.1368 -0.2041 -0.2119
H2 H 0.2035 -0.0749 -0.1397
H3 H 0.1564 -0.2160 -0.0881
C5 C 0.4452(3) -0.0591(2) 0.4384(2)
C6 C 0.3719(3) -0.1392(3) 0.5321(2)
H4 H 0.4271 -0.1012 0.5957
H5 H 0.3567 -0.2295 0.5230
C7 C 0.2782(3) 0.0236(3) 0.5887(3)
H6 H 0.3318 0.0451 0.6537
H7 H 0.3349 0.0814 0.5313
C8 C 0.1661(4) 0.0475(4) 0.6063(4)
H8 H 0.1997 0.1367 0.6339
H9 H 0.1047 -0.0165 0.6574
H10 H 0.1205 0.0382 0.5393
S1C S 0.62304(7) 0.12823(7) 0.31497(4)
C5C C 0.5548(3) 0.0591(2) 0.4384(2)
C6C C 0.6281(3) 0.1392(3) 0.5321(2)
S4C S 0.78311(7) 0.14812(7) 0.55330(7)
C7C C 0.7218(3) -0.0236(3) 0.5887(3)
H6C H 0.6682 -0.0451 0.6537
H7C H 0.6651 -0.0814 0.5313
C8C C 0.8339(4) -0.0475(4) 0.6063(4)
H8C H 0.8003 -0.1367 0.6339
H9C H 0.8953 0.0165 0.6574
H10C H 0.8795 -0.0382 0.5393
H4C H 0.5729 0.1012 0.5957
H5C H 0.6433 0.2295 0.5230
C3C C 0.5589(3) 0.0554(3) -0.0642(2)
S2C S 0.62815(7) 0.12395(7) 0.05902(6)
S3C S 0.64401(7) 0.14259(7) -0.17707(5)
C4C C 0.8055(3) 0.1616(3) -0.1512(3)
H1C H 0.8632 0.2041 -0.2119
H2C H 0.7965 0.0749 -0.1397
H3C H 0.8436 0.2160 -0.0881
loop_
_geom_bond_atom_site_label_1
_geom_bond_atom_site_label_2
_geom_bond_site_symmetry_1
_geom_bond_site_symmetry_2
S1 C1 1_555 1_555
S2 C2 1_555 1_555
S3 C3 1_555 1_555
S4 C6 1_555 1_555
C1 C2 1_555 1_555
C2 S2C 1_555 1_555
C3 S2 1_555 1_555
C4 S3 1_555 1_555
H1 C4 1_555 1_555
H2 C4 1_555 1_555
H3 C4 1_555 1_555
C5 S1 1_555 1_555
C6 C5 1_555 1_555
H4 C6 1_555 1_555
H5 C6 1_555 1_555
C7 S4 1_555 1_555
H6 C7 1_555 1_555
H7 C7 1_555 1_555
C8 C7 1_555 1_555
H8 C8 1_555 1_555
H9 C8 1_555 1_555
H10 C8 1_555 1_555
S1C C1 1_555 1_555
C5C C5 1_555 1_555
C6C C5C 1_555 1_555
S4C C6C 1_555 1_555
C7C S4C 1_555 1_555
H6C C7C 1_555 1_555
H7C C7C 1_555 1_555
C8C C7C 1_555 1_555
H8C C8C 1_555 1_555
H9C C8C 1_555 1_555
H10C C8C 1_555 1_555
H4C C6C 1_555 1_555
H5C C6C 1_555 1_555
C3C C3 1_555 1_555
S2C C3C 1_555 1_555
S3C C3C 1_555 1_555
C4C S3C 1_555 1_555
H1C C4C 1_555 1_555
H2C C4C 1_555 1_555
H3C C4C 1_555 1_555
S1C C5C 1_555 1_555

#END
