
#######################################################################
#
#                 Cambridge Crystallographic Data Centre
#                                CCDC 
#
#######################################################################
#
# If this CIF has been generated from an entry in the Cambridge 
# Structural Database, then it will include bibliographic, chemical, 
# crystal, experimental, refinement or atomic coordinate data resulting 
# from the CCDC's data processing and validation procedures.
#
#######################################################################

data_FOFXEF
_chemical_name_common            '(R,R)-pseudoephenamine glycinamide'
_chemical_formula_moiety         'C17 H20 N2 O2'
_chemical_name_systematic        
(R,R)-N-(2-hydroxy-1,2-diphenylethyl)-N-methylglycinamide
_symmetry_cell_setting           orthorhombic
_symmetry_space_group_name_H-M   'P 21 21 21'
_symmetry_Int_Tables_number      19
_space_group_name_Hall           'P 2ac 2ab'
loop_
_symmetry_equiv_pos_site_id
_symmetry_equiv_pos_as_xyz
1 x,y,z
2 1/2-x,-y,1/2+z
3 -x,1/2+y,1/2-z
4 1/2+x,1/2-y,-z
_cell_length_a                   6.7671(2)
_cell_length_b                   14.6871(3)
_cell_length_c                   14.9526(3)
_cell_angle_alpha                90
_cell_angle_beta                 90
_cell_angle_gamma                90
_cell_volume                     1486.13
_exptl_crystal_colour            colorless
_exptl_crystal_description       plate
_cell_formula_units_Z            4
loop_
_atom_site_label
_atom_site_type_symbol
_atom_site_fract_x
_atom_site_fract_y
_atom_site_fract_z
C1 C 0.4790(2) 0.64133(10) 0.32690(11)
H1 H 0.5994 0.6319 0.3582
C2 C 0.4758(3) 0.63606(11) 0.23400(11)
H2 H 0.5940 0.6228 0.2023
C3 C 0.3019(3) 0.64997(11) 0.18753(11)
H3 H 0.3003 0.6463 0.1241
C4 C 0.1296(3) 0.66938(12) 0.23408(11)
H4 H 0.0096 0.6787 0.2024
C5 C 0.1317(2) 0.67528(11) 0.32708(11)
H5 H 0.0137 0.6895 0.3585
C6 C 0.3066(2) 0.66044(10) 0.37416(10)
C7 C 0.3086(2) 0.66390(10) 0.47560(10)
H6 H 0.4464 0.6539 0.4977
C8 C 0.1727(2) 0.58965(10) 0.51314(9)
H7 H 0.0395 0.5995 0.4859
C9 C 0.2369(2) 0.49410(10) 0.48722(9)
C10 C 0.0951(3) 0.43473(11) 0.45295(10)
H8 H -0.0365 0.4554 0.4444
C11 C 0.1444(3) 0.34562(11) 0.43118(10)
H9 H 0.0465 0.3057 0.4081
C12 C 0.3363(3) 0.31504(11) 0.44313(10)
H10 H 0.3698 0.2539 0.4291
C13 C 0.4791(3) 0.37396(11) 0.47555(11)
H11 H 0.6112 0.3533 0.4827
C14 C 0.4306(2) 0.46309(10) 0.49763(10)
H12 H 0.5294 0.5030 0.5199
C15 C -0.0362(2) 0.59968(10) 0.64552(10)
C16 C -0.0520(2) 0.60400(11) 0.74736(10)
H13 H 0.0325 0.5556 0.7731
H14 H 0.0012 0.6633 0.7677
C17 C 0.3229(2) 0.59991(11) 0.66801(10)
H15 H 0.4404 0.6106 0.6312
H16 H 0.3360 0.5414 0.6990
H17 H 0.3098 0.6489 0.7121
N1 N 0.14757(18) 0.59806(9) 0.61092(8)
N2 N -0.2507(2) 0.59355(13) 0.78260(9)
O1 O 0.23574(16) 0.74840(8) 0.50921(7)
O2 O -0.18707(15) 0.59838(8) 0.59861(7)
H18 H -0.329(4) 0.6342(15) 0.7586(15)
H19 H -0.304(4) 0.5399(18) 0.7618(17)
H20 H 0.283(3) 0.7916(15) 0.4753(16)
loop_
_geom_bond_atom_site_label_1
_geom_bond_atom_site_label_2
_geom_bond_site_symmetry_1
_geom_bond_site_symmetry_2
C1 H1 1_555 1_555
C2 C1 1_555 1_555
H2 C2 1_555 1_555
C3 C2 1_555 1_555
H3 C3 1_555 1_555
C4 C3 1_555 1_555
H4 C4 1_555 1_555
C5 C4 1_555 1_555
H5 C5 1_555 1_555
C6 C1 1_555 1_555
C7 C6 1_555 1_555
H6 C7 1_555 1_555
C8 C7 1_555 1_555
H7 C8 1_555 1_555
C9 C8 1_555 1_555
C10 C9 1_555 1_555
H8 C10 1_555 1_555
C11 C10 1_555 1_555
H9 C11 1_555 1_555
C12 C11 1_555 1_555
H10 C12 1_555 1_555
C13 C12 1_555 1_555
H11 C13 1_555 1_555
C14 C9 1_555 1_555
H12 C14 1_555 1_555
C15 C16 1_555 1_555
C16 H13 1_555 1_555
H14 C16 1_555 1_555
C17 H15 1_555 1_555
H16 C17 1_555 1_555
H17 C17 1_555 1_555
N1 C8 1_555 1_555
N2 C16 1_555 1_555
O1 C7 1_555 1_555
O2 C15 1_555 1_555
H18 N2 1_555 1_555
H19 N2 1_555 1_555
H20 O1 1_555 1_555
C5 C6 1_555 1_555
C13 C14 1_555 1_555
C15 N1 1_555 1_555
C17 N1 1_555 1_555

#END
