
#######################################################################
#
#                 Cambridge Crystallographic Data Centre
#                                CCDC 
#
#######################################################################
#
# If this CIF has been generated from an entry in the Cambridge 
# Structural Database, then it will include bibliographic, chemical, 
# crystal, experimental, refinement or atomic coordinate data resulting 
# from the CCDC's data processing and validation procedures.
#
#######################################################################

data_FOFXEE
_chemical_formula_moiety         'C29 H43 Li1 N1 O1 P1 Si2'
_chemical_name_systematic        
'(N-(Trimethylsilyl)-diphenyl(2-(trimethylsilylmethyl)phenyl)phosphinimine-C,N)-(diethyl ether-O)-lithium'
_symmetry_cell_setting           monoclinic
_symmetry_space_group_name_H-M   'P 21/n'
_symmetry_Int_Tables_number      14
_space_group_name_Hall           '-P 2yn'
loop_
_symmetry_equiv_pos_site_id
_symmetry_equiv_pos_as_xyz
1 x,y,z
2 1/2-x,1/2+y,1/2-z
3 -x,-y,-z
4 1/2+x,1/2-y,1/2+z
_cell_length_a                   10.780(5)
_cell_length_b                   20.347(9)
_cell_length_c                   14.692(6)
_cell_angle_alpha                90
_cell_angle_beta                 92.382(9)
_cell_angle_gamma                90
_cell_volume                     3219.77
_exptl_crystal_colour            yellow-orange
_chemical_melting_point          95-97deg.C
_cell_formula_units_Z            4
loop_
_atom_site_label
_atom_site_type_symbol
_atom_site_fract_x
_atom_site_fract_y
_atom_site_fract_z
P1 P 0.84534(9) 0.02455(5) 0.19423(7)
Si1 Si 1.10931(11) 0.19988(6) 0.33507(8)
Si2 Si 0.66750(14) 0.00809(6) 0.35153(10)
N1 N 0.7576(3) 0.04341(14) 0.2730(2)
C1 C 0.7733(4) -0.02958(18) 0.1090(3)
C2 C 0.6449(4) -0.0310(2) 0.0983(3)
H1 H 0.5963 -0.0064 0.1366
C3 C 0.5890(5) -0.0696(2) 0.0296(4)
H2 H 0.5029 -0.0710 0.0225
C4 C 0.6602(6) -0.1055(2) -0.0274(3)
H3 H 0.6222 -0.1307 -0.0733
C5 C 0.7867(5) -0.1044(2) -0.0172(3)
H4 H 0.8347 -0.1286 -0.0563
C6 C 0.8432(4) -0.06717(19) 0.0511(3)
H5 H 0.9293 -0.0673 0.0586
C7 C 0.9866(4) -0.01921(18) 0.2299(2)
C8 C 0.9850(4) -0.0654(2) 0.2983(3)
H6 H 0.9118 -0.0730 0.3279
C9 C 1.0900(6) -0.1005(3) 0.3234(4)
H7 H 1.0862 -0.1320 0.3690
C10 C 1.1981(5) -0.0899(3) 0.2830(4)
H8 H 1.2688 -0.1135 0.3012
C11 C 1.2027(5) -0.0439(3) 0.2147(4)
H9 H 1.2767 -0.0365 0.1859
C12 C 1.0970(4) -0.0084(2) 0.1887(3)
H10 H 1.1009 0.0230 0.1429
C13 C 0.8901(3) 0.09695(18) 0.1349(2)
C14 C 0.8519(3) 0.10611(19) 0.0433(3)
H11 H 0.8123 0.0716 0.0125
C15 C 0.8703(4) 0.1637(2) -0.0029(3)
H12 H 0.8458 0.1680 -0.0641
C16 C 0.9267(4) 0.2153(2) 0.0446(3)
H13 H 0.9372 0.2553 0.0152
C17 C 0.9669(4) 0.2091(2) 0.1328(3)
H14 H 1.0045 0.2452 0.1613
C18 C 0.9546(3) 0.14931(18) 0.1848(3)
C19 C 0.9963(3) 0.14593(18) 0.2774(3)
H15 H 1.0277 0.1011 0.2868
C20 C 1.2584(4) 0.2075(3) 0.2731(4)
H16 H 1.2961 0.1649 0.2684
H17 H 1.3141 0.2365 0.3062
H18 H 1.2408 0.2249 0.2132
C21 C 1.0551(4) 0.2862(2) 0.3543(4)
H19 H 1.0344 0.3065 0.2967
H20 H 1.1201 0.3108 0.3854
H21 H 0.9832 0.2855 0.3906
C22 C 1.1474(5) 0.1626(3) 0.4482(3)
H22 H 1.0729 0.1584 0.4814
H23 H 1.2053 0.1903 0.4816
H24 H 1.1835 0.1200 0.4401
C23 C 0.7448(7) 0.0179(3) 0.4665(3)
H25 H 0.8278 0.0008 0.4658
H26 H 0.6988 -0.0057 0.5106
H27 H 0.7476 0.0637 0.4825
C24 C 0.5173(5) 0.0542(3) 0.3497(5)
H28 H 0.5335 0.1001 0.3596
H29 H 0.4667 0.0378 0.3969
H30 H 0.4746 0.0483 0.2916
C25 C 0.6314(5) -0.0813(2) 0.3338(3)
H31 H 0.5878 -0.0871 0.2760
H32 H 0.5805 -0.0965 0.3815
H33 H 0.7073 -0.1059 0.3346
Li1 Li 0.7928(6) 0.1403(3) 0.2917(5)
O1 O 0.6853(3) 0.21416(14) 0.3105(2)
C26 C 0.5997(5) 0.2057(3) 0.1592(4)
H34 H 0.6756 0.1890 0.1361
H35 H 0.5551 0.2296 0.1120
H36 H 0.5498 0.1697 0.1788
C27 C 0.6279(6) 0.2489(3) 0.2353(5)
H37 H 0.6830 0.2835 0.2163
H38 H 0.5519 0.2692 0.2545
C28 C 0.6985(5) 0.2538(3) 0.3896(4)
H39 H 0.6184 0.2720 0.4039
H40 H 0.7542 0.2901 0.3783
C29 C 0.7483(6) 0.2146(3) 0.4675(4)
H41 H 0.6911 0.1801 0.4805
H42 H 0.7597 0.2424 0.5199
H43 H 0.8267 0.1958 0.4526
loop_
_geom_bond_atom_site_label_1
_geom_bond_atom_site_label_2
_geom_bond_site_symmetry_1
_geom_bond_site_symmetry_2
P1 N1 1_555 1_555
Si1 C19 1_555 1_555
Si2 N1 1_555 1_555
N1 Li1 1_555 1_555
C1 P1 1_555 1_555
C2 C1 1_555 1_555
H1 C2 1_555 1_555
C3 C2 1_555 1_555
H2 C3 1_555 1_555
C4 C3 1_555 1_555
H3 C4 1_555 1_555
C5 C4 1_555 1_555
H4 C5 1_555 1_555
C6 C1 1_555 1_555
H5 C6 1_555 1_555
C7 P1 1_555 1_555
C8 C7 1_555 1_555
H6 C8 1_555 1_555
C9 C8 1_555 1_555
H7 C9 1_555 1_555
C10 C9 1_555 1_555
H8 C10 1_555 1_555
C11 C10 1_555 1_555
H9 C11 1_555 1_555
C12 C7 1_555 1_555
H10 C12 1_555 1_555
C13 P1 1_555 1_555
C14 C13 1_555 1_555
H11 C14 1_555 1_555
C15 C14 1_555 1_555
H12 C15 1_555 1_555
C16 C15 1_555 1_555
H13 C16 1_555 1_555
C17 C16 1_555 1_555
H14 C17 1_555 1_555
C18 C13 1_555 1_555
C19 C18 1_555 1_555
H15 C19 1_555 1_555
C20 Si1 1_555 1_555
H16 C20 1_555 1_555
H17 C20 1_555 1_555
H18 C20 1_555 1_555
C21 Si1 1_555 1_555
H19 C21 1_555 1_555
H20 C21 1_555 1_555
H21 C21 1_555 1_555
C22 Si1 1_555 1_555
H22 C22 1_555 1_555
H23 C22 1_555 1_555
H24 C22 1_555 1_555
C23 Si2 1_555 1_555
H25 C23 1_555 1_555
H26 C23 1_555 1_555
H27 C23 1_555 1_555
C24 Si2 1_555 1_555
H28 C24 1_555 1_555
H29 C24 1_555 1_555
H30 C24 1_555 1_555
C25 Si2 1_555 1_555
H31 C25 1_555 1_555
H32 C25 1_555 1_555
H33 C25 1_555 1_555
Li1 C19 1_555 1_555
O1 Li1 1_555 1_555
C26 H34 1_555 1_555
H35 C26 1_555 1_555
H36 C26 1_555 1_555
C27 O1 1_555 1_555
H37 C27 1_555 1_555
H38 C27 1_555 1_555
C28 O1 1_555 1_555
H39 C28 1_555 1_555
H40 C28 1_555 1_555
C29 C28 1_555 1_555
H41 C29 1_555 1_555
H42 C29 1_555 1_555
H43 C29 1_555 1_555
C5 C6 1_555 1_555
C11 C12 1_555 1_555
C17 C18 1_555 1_555
C26 C27 1_555 1_555

#END
