
#######################################################################
#
#                 Cambridge Crystallographic Data Centre
#                                CCDC 
#
#######################################################################
#
# If this CIF has been generated from an entry in the Cambridge 
# Structural Database, then it will include bibliographic, chemical, 
# crystal, experimental, refinement or atomic coordinate data resulting 
# from the CCDC's data processing and validation procedures.
#
#######################################################################

data_FOFXAB
_chemical_formula_moiety         'C39 H46 N2 O5 Si1,C4 H10 O1'
_chemical_name_systematic        
'5-(1-((t-butyl(diphenyl)silyl)oxy)propyl)-N-(2-hydroxy-1,2-diphenylethyl)-N,5-dimethyl-2-oxo-1,3-oxazolidine-4-carboxamide diethyl ether solvate'
_symmetry_cell_setting           monoclinic
_symmetry_space_group_name_H-M   'P 21'
_symmetry_Int_Tables_number      4
_space_group_name_Hall           'P 2yb'
loop_
_symmetry_equiv_pos_site_id
_symmetry_equiv_pos_as_xyz
1 x,y,z
2 -x,1/2+y,-z
_cell_length_a                   16.7865(5)
_cell_length_b                   15.0834(4)
_cell_length_c                   33.0570(9)
_cell_angle_alpha                90
_cell_angle_beta                 93.8130(10)
_cell_angle_gamma                90
_cell_volume                     8351.42
_exptl_crystal_colour            colorless
_exptl_crystal_description       needle
_cell_formula_units_Z            8
loop_
_atom_site_label
_atom_site_type_symbol
_atom_site_fract_x
_atom_site_fract_y
_atom_site_fract_z
C1 C 0.7906(2) 0.0041(2) -0.07245(11)
H1 H 0.8214 -0.0335 -0.0545
C2 C 0.7601(3) -0.0278(3) -0.11051(13)
H2 H 0.7709 -0.0869 -0.1184
C3 C 0.7150(3) 0.0264(3) -0.13613(12)
H3 H 0.6941 0.0044 -0.1616
C4 C 0.6997(3) 0.1122(3) -0.12538(12)
H4 H 0.6685 0.1497 -0.1433
C5 C 0.7303(2) 0.1443(3) -0.08780(11)
H5 H 0.7199 0.2038 -0.0805
C6 C 0.7751(2) 0.0913(2) -0.06132(10)
C7 C 0.81606(19) 0.1261(2) -0.02215(10)
H6 H 0.8316 0.0752 -0.0039
C8 C 0.76376(19) 0.1919(2) 0.00054(10)
H7 H 0.7430 0.2375 -0.0194
C9 C 0.6926(2) 0.1503(2) 0.01929(10)
C10 C 0.6387(2) 0.2066(3) 0.03590(11)
H8 H 0.6448 0.2689 0.0332
C11 C 0.5757(2) 0.1732(3) 0.05653(12)
H9 H 0.5394 0.2126 0.0681
C12 C 0.5658(2) 0.0827(3) 0.06012(12)
H10 H 0.5227 0.0600 0.0742
C13 C 0.6182(2) 0.0252(3) 0.04336(13)
H11 H 0.6113 -0.0371 0.0458
C14 C 0.6821(2) 0.0590(2) 0.02263(12)
H12 H 0.7181 0.0196 0.0109
C15 C 0.8392(2) 0.1871(2) 0.06876(10)
H13 H 0.8100 0.1308 0.0685
H14 H 0.8270 0.2214 0.0928
H15 H 0.8967 0.1753 0.0695
C16 C 0.84652(19) 0.3170(2) 0.02322(9)
C17 C 0.90912(18) 0.3542(2) 0.05487(9)
H16 H 0.9424 0.3051 0.0674
C18 C 0.95051(19) 0.5012(2) 0.05042(9)
C19 C 0.87182(18) 0.4110(2) 0.08854(9)
C20 C 0.78160(19) 0.4145(2) 0.08574(10)
H17 H 0.7622 0.4276 0.0578
H18 H 0.7638 0.4610 0.1038
H19 H 0.7604 0.3572 0.0939
C21 C 0.90865(19) 0.3823(2) 0.13036(9)
H20 H 0.8986 0.3173 0.1332
C22 C 0.99822(19) 0.3968(2) 0.13611(10)
H21 H 1.0085 0.4583 0.1455
H22 H 1.0218 0.3899 0.1096
C23 C 1.0396(2) 0.3327(3) 0.16650(11)
H23 H 1.0342 0.2720 0.1561
H24 H 1.0148 0.3369 0.1925
H25 H 1.0963 0.3480 0.1704
C24 C 0.7894(2) 0.2645(2) 0.18388(10)
C25 C 0.7117(2) 0.2473(2) 0.16758(11)
H26 H 0.6745 0.2947 0.1648
C26 C 0.6877(3) 0.1628(3) 0.15542(12)
H27 H 0.6347 0.1528 0.1445
C27 C 0.7412(3) 0.0934(3) 0.15920(12)
H28 H 0.7250 0.0355 0.1508
C28 C 0.8176(3) 0.1074(3) 0.17496(12)
H29 H 0.8543 0.0595 0.1773
C29 C 0.8420(2) 0.1933(2) 0.18772(11)
H30 H 0.8948 0.2024 0.1991
C30 C 0.8964(2) 0.3682(2) 0.24524(10)
C31 C 0.9566(2) 0.4312(3) 0.25359(12)
H31 H 0.9645 0.4769 0.2345
C32 C 1.0052(2) 0.4278(3) 0.28951(12)
H32 H 1.0464 0.4704 0.2945
C33 C 0.9933(3) 0.3625(4) 0.31792(12)
H33 H 1.0256 0.3611 0.3426
C34 C 0.9348(3) 0.2998(3) 0.31041(12)
H34 H 0.9269 0.2546 0.3298
C35 C 0.8869(2) 0.3028(3) 0.27422(11)
H35 H 0.8468 0.2589 0.2693
C36 C 0.7424(2) 0.4566(2) 0.21446(10)
C37 C 0.6917(2) 0.4101(3) 0.24517(12)
H36 H 0.6536 0.4524 0.2554
H37 H 0.7267 0.3876 0.2678
H38 H 0.6627 0.3605 0.2319
C38 C 0.6870(2) 0.4888(2) 0.17853(12)
H39 H 0.6594 0.4378 0.1656
H40 H 0.7186 0.5188 0.1588
H41 H 0.6476 0.5302 0.1883
C39 C 0.7818(2) 0.5395(3) 0.23456(12)
H42 H 0.7403 0.5816 0.2414
H43 H 0.8169 0.5675 0.2157
H44 H 0.8133 0.5221 0.2593
N1 N 0.81509(16) 0.23760(17) 0.03212(8)
N2 N 0.95914(16) 0.41877(17) 0.03631(8)
H45 H 0.9920 0.4052 0.0176
O1 O 0.88568(13) 0.17402(15) -0.03135(8)
H46 H 0.9213 0.1383 -0.0375
O2 O 0.82719(14) 0.35989(14) -0.00742(7)
O3 O 0.89866(13) 0.50175(14) 0.07995(7)
O4 O 0.98087(14) 0.56934(14) 0.03924(7)
O5 O 0.86851(13) 0.42692(14) 0.16169(6)
Si1 Si 0.82431(6) 0.37911(6) 0.19955(3)
C40 C 0.7291(3) 0.1599(3) 0.50511(13)
H47 H 0.6863 0.1200 0.4987
C41 C 0.8042(3) 0.1272(3) 0.51598(14)
H48 H 0.8128 0.0650 0.5174
C42 C 0.8675(3) 0.1852(4) 0.52492(14)
H49 H 0.9193 0.1628 0.5324
C43 C 0.8546(3) 0.2746(4) 0.52284(15)
H50 H 0.8979 0.3143 0.5283
C44 C 0.7783(2) 0.3078(3) 0.51276(12)
H51 H 0.7695 0.3701 0.5123
C45 C 0.7155(2) 0.2502(2) 0.50341(10)
C46 C 0.6325(2) 0.2849(2) 0.49121(10)
H52 H 0.5962 0.2336 0.4845
C47 C 0.6316(2) 0.3472(2) 0.45484(10)
H53 H 0.6621 0.4013 0.4640
C48 C 0.6717(2) 0.3117(2) 0.41842(10)
C49 C 0.7162(2) 0.3687(2) 0.39613(11)
H54 H 0.7217 0.4291 0.4041
C50 C 0.7530(3) 0.3388(3) 0.36228(12)
H55 H 0.7827 0.3787 0.3469
C51 C 0.7463(2) 0.2508(3) 0.35110(12)
H56 H 0.7718 0.2299 0.3281
C52 C 0.7026(2) 0.1929(2) 0.37329(11)
H57 H 0.6983 0.1323 0.3656
C53 C 0.6650(2) 0.2230(2) 0.40667(11)
H58 H 0.6345 0.1832 0.4216
C54 C 0.4895(2) 0.3095(2) 0.43018(12)
H59 H 0.4803 0.3119 0.4006
H60 H 0.4393 0.3213 0.4427
H61 H 0.5092 0.2505 0.4382
C55 C 0.5343(2) 0.4644(2) 0.44294(9)
C56 C 0.4478(2) 0.4939(2) 0.43155(9)
H62 H 0.4089 0.4533 0.4438
C57 C 0.4273(2) 0.6423(2) 0.41450(10)
C58 C 0.4272(2) 0.5040(2) 0.38469(9)
C59 C 0.4960(2) 0.4797(2) 0.35937(10)
H63 H 0.5438 0.5129 0.3690
H64 H 0.4821 0.4945 0.3309
H65 H 0.5067 0.4159 0.3618
C60 C 0.3478(2) 0.4571(2) 0.37220(10)
H66 H 0.3545 0.3924 0.3782
C61 C 0.2787(2) 0.4915(3) 0.39541(11)
H67 H 0.2718 0.5557 0.3900
H68 H 0.2920 0.4840 0.4248
C62 C 0.1994(2) 0.4436(3) 0.38386(14)
H69 H 0.1851 0.4520 0.3549
H70 H 0.1572 0.4682 0.3997
H71 H 0.2053 0.3802 0.3897
C63 C 0.3840(2) 0.2474(2) 0.32765(11)
H72 H 0.3308 0.2514 0.3356
C64 C 0.4306(2) 0.1760(2) 0.34088(13)
H73 H 0.4096 0.1321 0.3578
C65 C 0.5082(3) 0.1693(2) 0.32915(13)
H74 H 0.5410 0.1210 0.3383
C66 C 0.5378(2) 0.2330(3) 0.30415(12)
H75 H 0.5906 0.2278 0.2957
C67 C 0.4905(2) 0.3043(2) 0.29142(11)
H76 H 0.5118 0.3479 0.2744
C68 C 0.4128(2) 0.3139(2) 0.30289(11)
C69 C 0.4018(2) 0.4954(2) 0.25776(10)
C70 C 0.3956(2) 0.5859(2) 0.26694(12)
H77 H 0.3682 0.6031 0.2899
C71 C 0.4281(3) 0.6510(3) 0.24353(14)
H78 H 0.4233 0.7117 0.2505
C72 C 0.4675(3) 0.6266(4) 0.20980(14)
H79 H 0.4895 0.6707 0.1934
C73 C 0.4748(2) 0.5396(4) 0.20020(12)
H80 H 0.5025 0.5235 0.1772
C74 C 0.4423(2) 0.4732(3) 0.22358(11)
H81 H 0.4479 0.4127 0.2162
C75 C 0.2537(2) 0.3797(2) 0.25898(11)
C76 C 0.2022(2) 0.3149(3) 0.28213(13)
H82 H 0.1510 0.3055 0.2666
H83 H 0.1925 0.3399 0.3087
H84 H 0.2302 0.2582 0.2858
C77 C 0.2757(2) 0.3329(3) 0.21968(12)
H85 H 0.3073 0.2797 0.2266
H86 H 0.3070 0.3733 0.2038
H87 H 0.2268 0.3159 0.2037
C78 C 0.2052(2) 0.4636(3) 0.24852(12)
H88 H 0.1576 0.4480 0.2313
H89 H 0.2380 0.5053 0.2340
H90 H 0.1892 0.4913 0.2735
N3 N 0.54892(16) 0.37644(17) 0.44353(8)
N4 N 0.43726(18) 0.58416(17) 0.44510(8)
H91 H 0.4374 0.5993 0.4708
O6 O 0.60038(15) 0.33629(15) 0.52273(7)
H92 H 0.5787 0.3024 0.5389
O7 O 0.58493(15) 0.52019(15) 0.45194(8)
O8 O 0.41546(14) 0.59967(15) 0.37895(7)
O9 O 0.42628(15) 0.72314(15) 0.41629(7)
O10 O 0.32639(14) 0.46692(15) 0.32990(7)
Si2 Si 0.34921(5) 0.41276(6) 0.28896(3)
C85 C 0.3063(11) 0.0205(9) 0.4295(3)
H98 H 0.3395 -0.0143 0.4476
C86 C 0.2825(12) -0.0120(8) 0.3912(3)
H99 H 0.2995 -0.0691 0.3832
C87 C 0.2339(9) 0.0390(13) 0.3647(3)
H100 H 0.2177 0.0167 0.3385
C88 C 0.2091(8) 0.1225(13) 0.3764(4)
H101 H 0.1758 0.1573 0.3582
C89 C 0.2328(9) 0.1550(11) 0.4146(5)
H102 H 0.2158 0.2121 0.4226
C90 C 0.2814(9) 0.1040(11) 0.4412(3)
C91 C 0.3160(2) 0.1385(2) 0.48191(10)
H103 H 0.3287 0.0865 0.5000
C92 C 0.2626(2) 0.2027(2) 0.50422(11)
H104 H 0.2393 0.2468 0.4841
C93 C 0.1938(2) 0.1585(3) 0.52481(11)
C94 C 0.1469(3) 0.2104(3) 0.54857(15)
H105 H 0.1568 0.2723 0.5508
C95 C 0.0856(3) 0.1724(4) 0.56924(15)
H106 H 0.0539 0.2087 0.5853
C96 C 0.0707(3) 0.0821(4) 0.56646(15)
H107 H 0.0296 0.0559 0.5808
C97 C 0.1168(3) 0.0314(3) 0.54250(18)
H108 H 0.1068 -0.0304 0.5400
C98 C 0.1775(3) 0.0691(3) 0.52195(16)
H109 H 0.2085 0.0326 0.5056
C99 C 0.3463(2) 0.1998(2) 0.56971(10)
H110 H 0.3154 0.1452 0.5721
H111 H 0.3436 0.2349 0.5945
H112 H 0.4021 0.1849 0.5657
C100 C 0.3442(2) 0.3298(2) 0.52444(9)
C101 C 0.40805(19) 0.3698(2) 0.55469(9)
H113 H 0.4419 0.3219 0.5678
C102 C 0.4468(2) 0.5159(2) 0.54798(10)
C103 C 0.37042(19) 0.4288(2) 0.58778(9)
C104 C 0.2806(2) 0.4299(2) 0.58562(10)
H114 H 0.2601 0.4379 0.5574
H115 H 0.2622 0.4789 0.6021
H116 H 0.2609 0.3737 0.5959
C105 C 0.40851(19) 0.4049(2) 0.63022(9)
H117 H 0.4014 0.3397 0.6341
C106 C 0.4978(2) 0.4241(2) 0.63469(10)
H118 H 0.5215 0.4093 0.6089
H119 H 0.5056 0.4884 0.6395
C107 C 0.5421(2) 0.3731(3) 0.66901(11)
H120 H 0.5405 0.3095 0.6628
H121 H 0.5165 0.3838 0.6944
H122 H 0.5977 0.3930 0.6720
C108 C 0.3198(2) 0.2813(2) 0.69241(10)
C109 C 0.3826(2) 0.2239(2) 0.70563(11)
H123 H 0.4274 0.2475 0.7211
C110 C 0.3809(2) 0.1348(2) 0.69677(12)
H124 H 0.4242 0.0978 0.7059
C111 C 0.3163(2) 0.0994(2) 0.67460(12)
H125 H 0.3154 0.0380 0.6682
C112 C 0.2530(2) 0.1524(3) 0.66170(12)
H126 H 0.2081 0.1274 0.6469
C113 C 0.2548(2) 0.2428(3) 0.67039(12)
H127 H 0.2109 0.2789 0.6612
C114 C 0.3987(2) 0.4261(2) 0.74727(10)
C115 C 0.4442(2) 0.5034(3) 0.74886(12)
H128 H 0.4454 0.5392 0.7252
C116 C 0.4877(3) 0.5297(3) 0.78377(13)
H129 H 0.5184 0.5826 0.7838
C117 C 0.4866(3) 0.4792(3) 0.81863(13)
H130 H 0.5154 0.4979 0.8429
C118 C 0.4432(2) 0.4012(3) 0.81789(11)
H131 H 0.4433 0.3655 0.8416
C119 C 0.3992(2) 0.3747(3) 0.78270(11)
H132 H 0.3693 0.3212 0.7827
C120 C 0.2321(2) 0.4626(2) 0.71069(11)
C121 C 0.1738(3) 0.4705(3) 0.67340(13)
H133 H 0.1248 0.4999 0.6810
H134 H 0.1608 0.4112 0.6628
H135 H 0.1982 0.5055 0.6525
C122 C 0.2507(3) 0.5566(3) 0.72572(13)
H136 H 0.2771 0.5896 0.7049
H137 H 0.2859 0.5540 0.7505
H138 H 0.2009 0.5867 0.7314
C123 C 0.1916(3) 0.4115(3) 0.74469(12)
H139 H 0.1436 0.4434 0.7517
H140 H 0.2289 0.4070 0.7687
H141 H 0.1769 0.3519 0.7351
N5 N 0.31328(17) 0.25114(17) 0.53513(8)
N6 N 0.45688(17) 0.43300(17) 0.53505(8)
H142 H 0.4899 0.4186 0.5165
O11 O 0.38801(14) 0.18401(16) 0.47590(8)
H143 H 0.4218 0.1482 0.4678
O12 O 0.32312(14) 0.37084(15) 0.49348(7)
O13 O 0.39508(14) 0.51858(14) 0.57724(7)
O14 O 0.47747(15) 0.58345(15) 0.53590(7)
O15 O 0.36737(14) 0.44917(14) 0.66092(7)
Si3 Si 0.32969(5) 0.40347(6) 0.70127(3)
C124 C 1.2238(2) 0.1393(2) 0.99588(11)
H145 H 1.1801 0.1032 0.9864
C125 C 1.2974(2) 0.1001(2) 1.00638(12)
H146 H 1.3034 0.0377 1.0041
C126 C 1.3614(2) 0.1515(3) 1.02003(12)
H147 H 1.4119 0.1252 1.0268
C127 C 1.3511(2) 0.2424(3) 1.02376(13)
H148 H 1.3948 0.2779 1.0338
C128 C 1.2785(2) 0.2823(3) 1.01324(11)
H149 H 1.2728 0.3447 1.0157
C129 C 1.2131(2) 0.2302(2) 0.99895(10)
C130 C 1.1325(2) 0.2714(2) 0.98768(10)
H150 H 1.0926 0.2232 0.9817
C131 C 1.13350(19) 0.33301(19) 0.95075(10)
H151 H 1.1666 0.3856 0.9594
C132 C 1.16881(19) 0.2960(2) 0.91335(10)
C133 C 1.2115(2) 0.3529(2) 0.88994(11)
H152 H 1.2195 0.4127 0.8983
C134 C 1.2425(2) 0.3236(3) 0.85459(12)
H153 H 1.2714 0.3632 0.8387
C135 C 1.2314(2) 0.2363(3) 0.84241(12)
H154 H 1.2530 0.2158 0.8183
C136 C 1.1888(2) 0.1789(2) 0.86560(11)
H155 H 1.1810 0.1191 0.8573
C137 C 1.1574(2) 0.2087(2) 0.90086(10)
H156 H 1.1280 0.1692 0.9166
C138 C 0.9901(2) 0.3018(2) 0.92654(12)
H157 H 0.9798 0.3078 0.8971
H158 H 0.9407 0.3130 0.9399
H159 H 1.0090 0.2416 0.9330
C139 C 1.0379(2) 0.4532(2) 0.94330(9)
C140 C 0.95269(19) 0.4868(2) 0.93237(9)
H160 H 0.9124 0.4457 0.9431
C141 C 0.9375(2) 0.6372(2) 0.91922(10)
C142 C 0.93389(19) 0.5036(2) 0.88596(10)
C143 C 1.0005(2) 0.4765(2) 0.85957(10)
H161 H 1.0506 0.5043 0.8698
H162 H 0.9874 0.4959 0.8316
H163 H 1.0065 0.4119 0.8602
C144 C 0.8531(2) 0.4625(2) 0.87214(10)
H164 H 0.8575 0.3970 0.8763
C145 C 0.7816(2) 0.4952(3) 0.89473(12)
H165 H 0.7384 0.4506 0.8910
H166 H 0.7980 0.4974 0.9240
C146 C 0.7470(3) 0.5858(4) 0.88218(15)
H167 H 0.7355 0.5871 0.8527
H168 H 0.7857 0.6323 0.8901
H169 H 0.6976 0.5959 0.8957
C147 C 0.8939(2) 0.3061(3) 0.80443(11)
C148 C 0.8634(3) 0.2390(3) 0.82770(13)
H170 H 0.8108 0.2449 0.8362
C149 C 0.9069(3) 0.1640(3) 0.83891(15)
H171 H 0.8844 0.1195 0.8550
C150 C 0.9832(3) 0.1545(3) 0.82653(15)
H172 H 1.0134 0.1032 0.8342
C151 C 1.0160(3) 0.2184(3) 0.80330(13)
H173 H 1.0684 0.2112 0.7946
C152 C 0.9720(2) 0.2939(3) 0.79253(11)
H174 H 0.9953 0.3383 0.7767
C153 C 0.8925(2) 0.4724(3) 0.75160(13)
C154 C 0.9081(2) 0.5621(3) 0.75767(15)
H175 H 0.8931 0.5903 0.7817
C155 C 0.9455(2) 0.6104(4) 0.72859(19)
H176 H 0.9562 0.6717 0.7327
C156 C 0.9674(2) 0.5690(5) 0.69342(17)
H177 H 0.9930 0.6021 0.6735
C157 C 0.9518(3) 0.4794(5) 0.68735(14)
H178 H 0.9668 0.4511 0.6633
C158 C 0.9144(3) 0.4310(4) 0.71644(13)
H179 H 0.9037 0.3697 0.7123
C159 C 0.7315(2) 0.3915(3) 0.77035(12)
C160 C 0.7303(3) 0.3235(4) 0.73599(14)
H180 H 0.6750 0.3116 0.7262
H181 H 0.7554 0.2684 0.7460
H182 H 0.7598 0.3470 0.7137
C161 C 0.6972(3) 0.4792(3) 0.75423(15)
H183 H 0.7277 0.4995 0.7317
H184 H 0.7008 0.5236 0.7759
H185 H 0.6412 0.4709 0.7447
C162 C 0.6784(2) 0.3583(3) 0.80332(13)
H186 H 0.6224 0.3589 0.7928
H187 H 0.6851 0.3971 0.8271
H188 H 0.6939 0.2977 0.8111
N7 N 1.05108(16) 0.36614(17) 0.94092(8)
N8 N 0.94342(17) 0.57541(17) 0.94822(8)
H189 H 0.9419 0.5873 0.9742
O16 O 1.10594(15) 0.32606(15) 1.01911(7)
H190 H 1.0920 0.2941 1.0382
O17 O 1.09019(14) 0.50700(15) 0.95392(7)
O18 O 0.92899(14) 0.59949(15) 0.88251(7)
O19 O 0.93829(15) 0.71764(15) 0.92277(7)
O20 O 0.83619(14) 0.47757(16) 0.83004(7)
Si4 Si 0.83813(6) 0.41089(7) 0.79082(3)
C169 C 0.4464(4) 0.2431(4) 0.14901(17)
H196 H 0.4558 0.1954 0.1298
H197 H 0.4045 0.2250 0.1666
H198 H 0.4958 0.2552 0.1656
C170 C 0.4207(3) 0.3251(3) 0.12620(14)
H199 H 0.3699 0.3138 0.1101
H200 H 0.4116 0.3737 0.1455
C171 C 0.4640(3) 0.4325(3) 0.07956(15)
H201 H 0.4630 0.4812 0.0996
H202 H 0.4109 0.4295 0.0647
C172 C 0.5261(4) 0.4507(4) 0.05076(18)
H203 H 0.5277 0.4017 0.0314
H204 H 0.5782 0.4564 0.0658
H205 H 0.5133 0.5059 0.0362
O21 O 0.48062(18) 0.3505(2) 0.10006(9)
C173 C 0.5959(3) 0.3838(4) 0.93498(19)
H206 H 0.5915 0.4107 0.9079
H207 H 0.6522 0.3720 0.9429
H208 H 0.5740 0.4245 0.9545
C174 C 0.5508(4) 0.2999(5) 0.9343(2)
H209 H 0.5777 0.2562 0.9175
H210 H 0.5509 0.2761 0.9622
C175 C 0.4171(5) 0.2335(5) 0.9210(2)
H211 H 0.4263 0.2040 0.9476
H212 H 0.3615 0.2558 0.9189
C176 C 0.4268(4) 0.1703(4) 0.8896(2)
H213 H 0.4161 0.1987 0.8631
H214 H 0.3894 0.1211 0.8923
H215 H 0.4816 0.1476 0.8917
O22 O 0.4732(3) 0.3104(3) 0.91896(12)
C177 C 0.2212(9) 0.7409(12) 0.3662(5)
H216 H 0.2283 0.7984 0.3531
H217 H 0.2727 0.7103 0.3694
H218 H 0.2003 0.7500 0.3928
C178 C 0.1631(7) 0.6853(10) 0.3402(6)
H219 H 0.1820 0.6793 0.3126
H220 H 0.1591 0.6253 0.3520
O23 O 0.0854(2) 0.7280(2) 0.33818(11)
C179 C 0.0330(3) 0.6710(4) 0.3158(2)
H221 H 0.0274 0.6148 0.3309
H222 H 0.0549 0.6570 0.2895
C180 C -0.0467(3) 0.7141(5) 0.30879(19)
H223 H -0.0417 0.7670 0.2919
H224 H -0.0667 0.7312 0.3349
H225 H -0.0841 0.6724 0.2949
C183 C -0.0023(9) 0.4692(10) 0.5745(5)
H231 H -0.0406 0.4203 0.5708
H232 H -0.0313 0.5254 0.5756
H233 H 0.0304 0.4606 0.5999
C184 C 0.0497(6) 0.4709(6) 0.5402(3)
H234 H 0.0414 0.5269 0.5249
H235 H 0.1063 0.4681 0.5505
O24 O 0.0316(3) 0.3974(4) 0.51414(17)
C185 C 0.0813(4) 0.3987(5) 0.4809(2)
H236 H 0.1378 0.3877 0.4901
H237 H 0.0773 0.4562 0.4665
C186 C 0.0449(5) 0.3170(5) 0.4517(3)
H238 H 0.0793 0.3078 0.4293
H239 H -0.0091 0.3324 0.4409
H240 H 0.0430 0.2625 0.4678
C79? C 0.2841(13) 0.0219(18) 0.4294(6)
H93? H 0.3082 -0.0204 0.4477
C80? C 0.2566(14) -0.0037(16) 0.3906(7)
H94? H 0.2619 -0.0636 0.3823
C81? C 0.2214(15) 0.058(2) 0.3639(5)
H95? H 0.2026 0.0407 0.3373
C82? C 0.2137(19) 0.1459(19) 0.3760(8)
H96? H 0.1897 0.1883 0.3578
C83? C 0.241(2) 0.1715(16) 0.4149(9)
H97? H 0.2360 0.2314 0.4232
C84? C 0.2764(16) 0.110(2) 0.4416(6)
H144? H 0.3279 0.0851 0.4992
C163? C 0.8932(16) 0.4960(16) 0.7591(7)
C164? C 0.9052(17) 0.5843(16) 0.7699(9)
H191? H 0.8872 0.6058 0.7947
C165? C 0.9436(15) 0.6411(16) 0.7443(11)
H192? H 0.9518 0.7014 0.7517
C166? C 0.9699(15) 0.610(2) 0.7080(10)
H193? H 0.9961 0.6484 0.6906
C167? C 0.9579(17) 0.521(3) 0.6973(8)
H194? H 0.9759 0.4997 0.6724
C168? C 0.9196(17) 0.4645(19) 0.7228(7)
H195? H 0.9114 0.4041 0.7154
C181? C 0.2053(17) 0.7744(17) 0.3740(9)
H226? H 0.2164 0.8147 0.3518
H227? H 0.2557 0.7552 0.3879
H228? H 0.1729 0.8051 0.3932
C182? C 0.1601(12) 0.6941(17) 0.3569(9)
H229? H 0.1911 0.6636 0.3366
H230? H 0.1498 0.6517 0.3788
C187? C -0.0092(16) 0.3714(14) 0.5973(7)
H241? H -0.0041 0.3280 0.5755
H242? H -0.0515 0.3525 0.6144
H243? H 0.0414 0.3754 0.6137
C188? C -0.0299(13) 0.4607(14) 0.5792(9)
H244? H -0.0421 0.4550 0.5496
H245? H -0.0775 0.4851 0.5913
O25? O 0.0380(7) 0.5196(7) 0.5872(4)
C189? C 0.0304(9) 0.6060(8) 0.5765(5)
H246? H -0.0254 0.6171 0.5830
H247? H 0.0274 0.6004 0.5466
C190? C 0.0679(10) 0.7069(9) 0.5818(6)
H248? H 0.0320 0.7494 0.5675
H249? H 0.1203 0.7090 0.5705
H250? H 0.0736 0.7222 0.6107
loop_
_geom_bond_atom_site_label_1
_geom_bond_atom_site_label_2
_geom_bond_site_symmetry_1
_geom_bond_site_symmetry_2
C1 H1 1_555 1_555
C2 C1 1_555 1_555
H2 C2 1_555 1_555
C3 C2 1_555 1_555
H3 C3 1_555 1_555
C4 C3 1_555 1_555
H4 C4 1_555 1_555
C5 C4 1_555 1_555
H5 C5 1_555 1_555
C6 C1 1_555 1_555
C7 C6 1_555 1_555
H6 C7 1_555 1_555
C8 C7 1_555 1_555
H7 C8 1_555 1_555
C9 C8 1_555 1_555
C10 C9 1_555 1_555
H8 C10 1_555 1_555
C11 C10 1_555 1_555
H9 C11 1_555 1_555
C12 C11 1_555 1_555
H10 C12 1_555 1_555
C13 C12 1_555 1_555
H11 C13 1_555 1_555
C14 C9 1_555 1_555
H12 C14 1_555 1_555
C15 H13 1_555 1_555
H14 C15 1_555 1_555
H15 C15 1_555 1_555
C16 C17 1_555 1_555
C17 H16 1_555 1_555
C18 N2 1_555 1_555
C19 C17 1_555 1_555
C20 C19 1_555 1_555
H17 C20 1_555 1_555
H18 C20 1_555 1_555
H19 C20 1_555 1_555
C21 C19 1_555 1_555
H20 C21 1_555 1_555
C22 C21 1_555 1_555
H21 C22 1_555 1_555
H22 C22 1_555 1_555
C23 C22 1_555 1_555
H23 C23 1_555 1_555
H24 C23 1_555 1_555
H25 C23 1_555 1_555
C24 C25 1_555 1_555
C25 H26 1_555 1_555
C26 C25 1_555 1_555
H27 C26 1_555 1_555
C27 C26 1_555 1_555
H28 C27 1_555 1_555
C28 C27 1_555 1_555
H29 C28 1_555 1_555
C29 C24 1_555 1_555
H30 C29 1_555 1_555
C30 C31 1_555 1_555
C31 H31 1_555 1_555
C32 C31 1_555 1_555
H32 C32 1_555 1_555
C33 C32 1_555 1_555
H33 C33 1_555 1_555
C34 C33 1_555 1_555
H34 C34 1_555 1_555
C35 C30 1_555 1_555
H35 C35 1_555 1_555
C36 C37 1_555 1_555
C37 H36 1_555 1_555
H37 C37 1_555 1_555
H38 C37 1_555 1_555
C38 C36 1_555 1_555
H39 C38 1_555 1_555
H40 C38 1_555 1_555
H41 C38 1_555 1_555
C39 C36 1_555 1_555
H42 C39 1_555 1_555
H43 C39 1_555 1_555
H44 C39 1_555 1_555
N1 C8 1_555 1_555
N2 C17 1_555 1_555
H45 N2 1_555 1_555
O1 C7 1_555 1_555
H46 O1 1_555 1_555
O2 C16 1_555 1_555
O3 C18 1_555 1_555
O4 C18 1_555 1_555
O5 C21 1_555 1_555
Si1 C24 1_555 1_555
C40 H47 1_555 1_555
C41 C40 1_555 1_555
H48 C41 1_555 1_555
C42 C41 1_555 1_555
H49 C42 1_555 1_555
C43 C42 1_555 1_555
H50 C43 1_555 1_555
C44 C43 1_555 1_555
H51 C44 1_555 1_555
C45 C40 1_555 1_555
C46 C45 1_555 1_555
H52 C46 1_555 1_555
C47 C46 1_555 1_555
H53 C47 1_555 1_555
C48 C47 1_555 1_555
C49 C48 1_555 1_555
H54 C49 1_555 1_555
C50 C49 1_555 1_555
H55 C50 1_555 1_555
C51 C50 1_555 1_555
H56 C51 1_555 1_555
C52 C51 1_555 1_555
H57 C52 1_555 1_555
C53 C48 1_555 1_555
H58 C53 1_555 1_555
C54 H59 1_555 1_555
H60 C54 1_555 1_555
H61 C54 1_555 1_555
C55 C56 1_555 1_555
C56 H62 1_555 1_555
C57 N4 1_555 1_555
C58 C56 1_555 1_555
C59 C58 1_555 1_555
H63 C59 1_555 1_555
H64 C59 1_555 1_555
H65 C59 1_555 1_555
C60 C58 1_555 1_555
H66 C60 1_555 1_555
C61 C60 1_555 1_555
H67 C61 1_555 1_555
H68 C61 1_555 1_555
C62 C61 1_555 1_555
H69 C62 1_555 1_555
H70 C62 1_555 1_555
H71 C62 1_555 1_555
C63 H72 1_555 1_555
C64 C63 1_555 1_555
H73 C64 1_555 1_555
C65 C64 1_555 1_555
H74 C65 1_555 1_555
C66 C65 1_555 1_555
H75 C66 1_555 1_555
C67 C66 1_555 1_555
H76 C67 1_555 1_555
C68 C63 1_555 1_555
C69 C70 1_555 1_555
C70 H77 1_555 1_555
C71 C70 1_555 1_555
H78 C71 1_555 1_555
C72 C71 1_555 1_555
H79 C72 1_555 1_555
C73 C72 1_555 1_555
H80 C73 1_555 1_555
C74 C69 1_555 1_555
H81 C74 1_555 1_555
C75 C76 1_555 1_555
C76 H82 1_555 1_555
H83 C76 1_555 1_555
H84 C76 1_555 1_555
C77 C75 1_555 1_555
H85 C77 1_555 1_555
H86 C77 1_555 1_555
H87 C77 1_555 1_555
C78 C75 1_555 1_555
H88 C78 1_555 1_555
H89 C78 1_555 1_555
H90 C78 1_555 1_555
N3 C47 1_555 1_555
N4 C56 1_555 1_555
H91 N4 1_555 1_555
O6 C46 1_555 1_555
H92 O6 1_555 1_555
O7 C55 1_555 1_555
O8 C57 1_555 1_555
O9 C57 1_555 1_555
O10 C60 1_555 1_555
Si2 C68 1_555 1_555
C85 H98 1_555 1_555
C86 C85 1_555 1_555
H99 C86 1_555 1_555
C87 C86 1_555 1_555
H100 C87 1_555 1_555
C88 C87 1_555 1_555
H101 C88 1_555 1_555
C89 C88 1_555 1_555
H102 C89 1_555 1_555
C90 C85 1_555 1_555
C91 C90 1_555 1_555
H103 C91 1_555 1_555
C92 C91 1_555 1_555
H104 C92 1_555 1_555
C93 C92 1_555 1_555
C94 C93 1_555 1_555
H105 C94 1_555 1_555
C95 C94 1_555 1_555
H106 C95 1_555 1_555
C96 C95 1_555 1_555
H107 C96 1_555 1_555
C97 C96 1_555 1_555
H108 C97 1_555 1_555
C98 C93 1_555 1_555
H109 C98 1_555 1_555
C99 H110 1_555 1_555
H111 C99 1_555 1_555
H112 C99 1_555 1_555
C100 C101 1_555 1_555
C101 H113 1_555 1_555
C102 N6 1_555 1_555
C103 C101 1_555 1_555
C104 C103 1_555 1_555
H114 C104 1_555 1_555
H115 C104 1_555 1_555
H116 C104 1_555 1_555
C105 C103 1_555 1_555
H117 C105 1_555 1_555
C106 C105 1_555 1_555
H118 C106 1_555 1_555
H119 C106 1_555 1_555
C107 C106 1_555 1_555
H120 C107 1_555 1_555
H121 C107 1_555 1_555
H122 C107 1_555 1_555
C108 C109 1_555 1_555
C109 H123 1_555 1_555
C110 C109 1_555 1_555
H124 C110 1_555 1_555
C111 C110 1_555 1_555
H125 C111 1_555 1_555
C112 C111 1_555 1_555
H126 C112 1_555 1_555
C113 C108 1_555 1_555
H127 C113 1_555 1_555
C114 C115 1_555 1_555
C115 H128 1_555 1_555
C116 C115 1_555 1_555
H129 C116 1_555 1_555
C117 C116 1_555 1_555
H130 C117 1_555 1_555
C118 C117 1_555 1_555
H131 C118 1_555 1_555
C119 C114 1_555 1_555
H132 C119 1_555 1_555
C120 C121 1_555 1_555
C121 H133 1_555 1_555
H134 C121 1_555 1_555
H135 C121 1_555 1_555
C122 C120 1_555 1_555
H136 C122 1_555 1_555
H137 C122 1_555 1_555
H138 C122 1_555 1_555
C123 C120 1_555 1_555
H139 C123 1_555 1_555
H140 C123 1_555 1_555
H141 C123 1_555 1_555
N5 C92 1_555 1_555
N6 C101 1_555 1_555
H142 N6 1_555 1_555
O11 C91 1_555 1_555
H143 O11 1_555 1_555
O12 C100 1_555 1_555
O13 C102 1_555 1_555
O14 C102 1_555 1_555
O15 C105 1_555 1_555
Si3 C108 1_555 1_555
C124 H145 1_555 1_555
C125 C124 1_555 1_555
H146 C125 1_555 1_555
C126 C125 1_555 1_555
H147 C126 1_555 1_555
C127 C126 1_555 1_555
H148 C127 1_555 1_555
C128 C127 1_555 1_555
H149 C128 1_555 1_555
C129 C124 1_555 1_555
C130 C129 1_555 1_555
H150 C130 1_555 1_555
C131 C130 1_555 1_555
H151 C131 1_555 1_555
C132 C131 1_555 1_555
C133 C132 1_555 1_555
H152 C133 1_555 1_555
C134 C133 1_555 1_555
H153 C134 1_555 1_555
C135 C134 1_555 1_555
H154 C135 1_555 1_555
C136 C135 1_555 1_555
H155 C136 1_555 1_555
C137 C132 1_555 1_555
H156 C137 1_555 1_555
C138 H157 1_555 1_555
H158 C138 1_555 1_555
H159 C138 1_555 1_555
C139 C140 1_555 1_555
C140 H160 1_555 1_555
C141 N8 1_555 1_555
C142 C140 1_555 1_555
C143 C142 1_555 1_555
H161 C143 1_555 1_555
H162 C143 1_555 1_555
H163 C143 1_555 1_555
C144 C142 1_555 1_555
H164 C144 1_555 1_555
C145 C144 1_555 1_555
H165 C145 1_555 1_555
H166 C145 1_555 1_555
C146 C145 1_555 1_555
H167 C146 1_555 1_555
H168 C146 1_555 1_555
H169 C146 1_555 1_555
C147 C148 1_555 1_555
C148 H170 1_555 1_555
C149 C148 1_555 1_555
H171 C149 1_555 1_555
C150 C149 1_555 1_555
H172 C150 1_555 1_555
C151 C150 1_555 1_555
H173 C151 1_555 1_555
C152 C147 1_555 1_555
H174 C152 1_555 1_555
C153 C154 1_555 1_555
C154 H175 1_555 1_555
C155 C154 1_555 1_555
H176 C155 1_555 1_555
C156 C155 1_555 1_555
H177 C156 1_555 1_555
C157 C156 1_555 1_555
H178 C157 1_555 1_555
C158 C153 1_555 1_555
H179 C158 1_555 1_555
C159 C160 1_555 1_555
C160 H180 1_555 1_555
H181 C160 1_555 1_555
H182 C160 1_555 1_555
C161 C159 1_555 1_555
H183 C161 1_555 1_555
H184 C161 1_555 1_555
H185 C161 1_555 1_555
C162 C159 1_555 1_555
H186 C162 1_555 1_555
H187 C162 1_555 1_555
H188 C162 1_555 1_555
N7 C131 1_555 1_555
N8 C140 1_555 1_555
H189 N8 1_555 1_555
O16 C130 1_555 1_555
H190 O16 1_555 1_555
O17 C139 1_555 1_555
O18 C141 1_555 1_555
O19 C141 1_555 1_555
O20 C144 1_555 1_555
Si4 C147 1_555 1_555
C169 H196 1_555 1_555
H197 C169 1_555 1_555
H198 C169 1_555 1_555
C170 C169 1_555 1_555
H199 C170 1_555 1_555
H200 C170 1_555 1_555
C171 H201 1_555 1_555
H202 C171 1_555 1_555
C172 C171 1_555 1_555
H203 C172 1_555 1_555
H204 C172 1_555 1_555
H205 C172 1_555 1_555
O21 C170 1_555 1_555
C173 H206 1_555 1_555
H207 C173 1_555 1_555
H208 C173 1_555 1_555
C174 C173 1_555 1_555
H209 C174 1_555 1_555
H210 C174 1_555 1_555
C175 H211 1_555 1_555
H212 C175 1_555 1_555
C176 C175 1_555 1_555
H213 C176 1_555 1_555
H214 C176 1_555 1_555
H215 C176 1_555 1_555
O22 C174 1_555 1_555
C177 H216 1_555 1_555
H217 C177 1_555 1_555
H218 C177 1_555 1_555
C178 C177 1_555 1_555
H219 C178 1_555 1_555
H220 C178 1_555 1_555
O23 C178 1_555 1_555
C179 O23 1_555 1_555
H221 C179 1_555 1_555
H222 C179 1_555 1_555
C180 C179 1_555 1_555
H223 C180 1_555 1_555
H224 C180 1_555 1_555
H225 C180 1_555 1_555
C183 H231 1_555 1_555
H232 C183 1_555 1_555
H233 C183 1_555 1_555
C184 C183 1_555 1_555
H234 C184 1_555 1_555
H235 C184 1_555 1_555
O24 C184 1_555 1_555
C185 O24 1_555 1_555
H236 C185 1_555 1_555
H237 C185 1_555 1_555
C186 C185 1_555 1_555
H238 C186 1_555 1_555
H239 C186 1_555 1_555
H240 C186 1_555 1_555
C5 C6 1_555 1_555
C13 C14 1_555 1_555
C15 N1 1_555 1_555
C16 N1 1_555 1_555
C19 O3 1_555 1_555
C28 C29 1_555 1_555
C30 Si1 1_555 1_555
C34 C35 1_555 1_555
C36 Si1 1_555 1_555
O5 Si1 1_555 1_555
C44 C45 1_555 1_555
C52 C53 1_555 1_555
C54 N3 1_555 1_555
C55 N3 1_555 1_555
C58 O8 1_555 1_555
C67 C68 1_555 1_555
C69 Si2 1_555 1_555
C73 C74 1_555 1_555
C75 Si2 1_555 1_555
O10 Si2 1_555 1_555
C89 C90 1_555 1_555
C97 C98 1_555 1_555
C99 N5 1_555 1_555
C100 N5 1_555 1_555
C103 O13 1_555 1_555
C112 C113 1_555 1_555
C114 Si3 1_555 1_555
C118 C119 1_555 1_555
C120 Si3 1_555 1_555
O15 Si3 1_555 1_555
C128 C129 1_555 1_555
C136 C137 1_555 1_555
C138 N7 1_555 1_555
C139 N7 1_555 1_555
C142 O18 1_555 1_555
C151 C152 1_555 1_555
C153 Si4 1_555 1_555
C157 C158 1_555 1_555
C159 Si4 1_555 1_555
O20 Si4 1_555 1_555
C171 O21 1_555 1_555
C175 O22 1_555 1_555

#END
