
#######################################################################
#
#                 Cambridge Crystallographic Data Centre
#                                CCDC 
#
#######################################################################
#
# If this CIF has been generated from an entry in the Cambridge 
# Structural Database, then it will include bibliographic, chemical, 
# crystal, experimental, refinement or atomic coordinate data resulting 
# from the CCDC's data processing and validation procedures.
#
#######################################################################

data_FOFXAA
_chemical_formula_moiety         'C56 H82 Li2 N4 P2 Si4'
_chemical_name_systematic        
(\m~2~-N,N,N',N'-Tetramethylethylenediamine-N,N')-bis(N-(trimethylsilyl)-diphenyl(2-(trimethylsilylmethyl)phenyl)phosphinimine-C,N)-di-lithium
_symmetry_cell_setting           triclinic
_symmetry_space_group_name_H-M   'P -1'
_symmetry_Int_Tables_number      2
_space_group_name_Hall           '-P 1'
loop_
_symmetry_equiv_pos_site_id
_symmetry_equiv_pos_as_xyz
1 x,y,z
2 -x,-y,-z
_cell_length_a                   10.679(3)
_cell_length_b                   11.054(3)
_cell_length_c                   15.246(4)
_cell_angle_alpha                87.212(5)
_cell_angle_beta                 77.795(5)
_cell_angle_gamma                61.351(5)
_cell_volume                     1540.77
_cell_formula_units_Z            1
loop_
_atom_site_label
_atom_site_type_symbol
_atom_site_fract_x
_atom_site_fract_y
_atom_site_fract_z
P1 P 0.63105(8) 0.95677(7) 0.27960(5)
Li1 Li 0.8451(6) 0.7278(5) 0.1642(3)
N1 N 0.6905(2) 0.9287(2) 0.17491(14)
Si1 Si 0.71107(9) 1.02101(8) 0.08568(5)
Si2 Si 1.16411(9) 0.66292(9) 0.25013(6)
C1 C 0.4333(3) 1.0356(3) 0.31027(18)
C2 C 0.3596(4) 1.0183(4) 0.2518(2)
H1 H 0.4117 0.9638 0.1986
C3 C 0.2080(4) 1.0820(5) 0.2721(3)
H2 H 0.1590 1.0685 0.2331
C4 C 0.1305(4) 1.1644(4) 0.3492(3)
H3 H 0.0289 1.2089 0.3619
C5 C 0.2024(4) 1.1815(4) 0.4076(2)
H4 H 0.1497 1.2362 0.4606
C6 C 0.3525(3) 1.1180(3) 0.3883(2)
H5 H 0.4003 1.1307 0.4284
C7 C 0.6659(3) 1.0786(3) 0.33254(17)
C8 C 0.6059(3) 1.2146(3) 0.3088(2)
H6 H 0.5495 1.2425 0.2654
C9 C 0.6295(4) 1.3091(3) 0.3494(2)
H7 H 0.5899 1.3998 0.3326
C10 C 0.7105(4) 1.2697(4) 0.4140(3)
H8 H 0.7262 1.3334 0.4410
C11 C 0.7686(4) 1.1361(4) 0.4390(3)
H9 H 0.8225 1.1096 0.4836
C12 C 0.7474(3) 1.0402(3) 0.3980(2)
H10 H 0.7884 0.9494 0.4146
C13 C 0.7079(3) 0.7983(3) 0.33395(17)
C14 C 0.6150(4) 0.7566(3) 0.39053(19)
H11 H 0.5145 0.8114 0.3977
C15 C 0.6680(4) 0.6375(3) 0.4356(2)
H12 H 0.6049 0.6112 0.4723
C16 C 0.8180(4) 0.5576(3) 0.4247(2)
H13 H 0.8550 0.4781 0.4562
C17 C 0.9131(4) 0.5918(3) 0.36950(19)
H14 H 1.0129 0.5339 0.3640
C18 C 0.8650(3) 0.7141(3) 0.31927(17)
C19 C 0.9679(3) 0.7421(3) 0.25894(18)
H15 H 0.9318 0.8413 0.2691
C20 C 0.8216(4) 1.1061(4) 0.0969(2)
H16 H 0.7642 1.1848 0.1390
H17 H 0.8505 1.1354 0.0395
H18 H 0.9070 1.0418 0.1181
C21 C 0.5355(4) 1.1529(4) 0.0594(3)
H19 H 0.4849 1.1082 0.0431
H20 H 0.5543 1.2038 0.0103
H21 H 0.4763 1.2151 0.1113
C22 C 0.8130(4) 0.8942(4) -0.0128(2)
H22 H 0.9066 0.8269 -0.0023
H23 H 0.8262 0.9414 -0.0655
H24 H 0.7587 0.8488 -0.0213
C23 C 1.2365(4) 0.7451(5) 0.1589(3)
H25 H 1.2270 0.7200 0.1022
H26 H 1.3377 0.7141 0.1576
H27 H 1.1822 0.8437 0.1697
C24 C 1.2168(5) 0.6865(6) 0.3544(3)
H28 H 1.1705 0.7831 0.3717
H29 H 1.3209 0.6485 0.3435
H30 H 1.1861 0.6398 0.4019
C25 C 1.2680(4) 0.4742(4) 0.2170(3)
H31 H 1.2442 0.4243 0.2650
H32 H 1.3709 0.4441 0.2049
H33 H 1.2424 0.4572 0.1640
N2 N 0.8498(3) 0.5565(3) 0.10610(17)
C26 C 0.6923(4) 0.6013(4) 0.1180(3)
H34 H 0.6491 0.6783 0.0821
H35 H 0.6454 0.6282 0.1802
H36 H 0.6803 0.5264 0.0994
C27 C 0.9220(3) 0.5132(3) 0.0114(2)
H37 H 0.8665 0.5842 -0.0257
H38 H 0.9207 0.4295 -0.0034
C28 C 0.9125(5) 0.4417(4) 0.1649(2)
H39 H 0.9044 0.3645 0.1463
H40 H 0.8601 0.4714 0.2260
H41 H 1.0135 0.4150 0.1606
P1A P 1.36895(8) 0.04323(7) -0.27960(5)
Li1A Li 1.1549(6) 0.2722(5) -0.1642(3)
N1A N 1.3095(2) 0.0713(2) -0.17491(14)
Si1A Si 1.28893(9) -0.02101(8) -0.08568(5)
Si2A Si 0.83589(9) 0.33708(9) -0.25013(6)
C1A C 1.5667(3) -0.0356(3) -0.31027(18)
C2A C 1.6404(4) -0.0183(4) -0.2518(2)
H1A H 1.5883 0.0362 -0.1986
C3A C 1.7920(4) -0.0820(5) -0.2721(3)
H2A H 1.8410 -0.0685 -0.2331
C4A C 1.8695(4) -0.1644(4) -0.3492(3)
H3A H 1.9711 -0.2089 -0.3619
C5A C 1.7976(4) -0.1815(4) -0.4076(2)
H4A H 1.8503 -0.2362 -0.4606
C6A C 1.6475(3) -0.1180(3) -0.3883(2)
H5A H 1.5997 -0.1307 -0.4284
C7A C 1.3341(3) -0.0786(3) -0.33254(17)
C8A C 1.3941(3) -0.2146(3) -0.3088(2)
H6A H 1.4505 -0.2425 -0.2654
C9A C 1.3705(4) -0.3091(3) -0.3494(2)
H7A H 1.4101 -0.3998 -0.3326
C10A C 1.2895(4) -0.2697(4) -0.4140(3)
H8A H 1.2738 -0.3334 -0.4410
C11A C 1.2314(4) -0.1361(4) -0.4390(3)
H9A H 1.1775 -0.1096 -0.4836
C12A C 1.2526(3) -0.0402(3) -0.3980(2)
H10A H 1.2116 0.0506 -0.4146
C13A C 1.2921(3) 0.2017(3) -0.33395(17)
C14A C 1.3850(4) 0.2434(3) -0.39053(19)
H11A H 1.4855 0.1886 -0.3977
C15A C 1.3320(4) 0.3625(3) -0.4356(2)
H12A H 1.3951 0.3888 -0.4723
C16A C 1.1820(4) 0.4424(3) -0.4247(2)
H13A H 1.1450 0.5219 -0.4562
C17A C 1.0869(4) 0.4082(3) -0.36950(19)
H14A H 0.9871 0.4661 -0.3640
C18A C 1.1350(3) 0.2859(3) -0.31927(17)
C19A C 1.0321(3) 0.2579(3) -0.25894(18)
H15A H 1.0682 0.1587 -0.2691
C20A C 1.1784(4) -0.1061(4) -0.0969(2)
H16A H 1.2358 -0.1848 -0.1390
H17A H 1.1495 -0.1354 -0.0395
H18A H 1.0930 -0.0418 -0.1181
C21A C 1.4645(4) -0.1529(4) -0.0594(3)
H19A H 1.5151 -0.1082 -0.0431
H20A H 1.4457 -0.2038 -0.0103
H21A H 1.5237 -0.2151 -0.1113
C22A C 1.1870(4) 0.1058(4) 0.0128(2)
H22A H 1.0934 0.1731 0.0023
H23A H 1.1738 0.0586 0.0655
H24A H 1.2413 0.1512 0.0213
C23A C 0.7635(4) 0.2549(5) -0.1589(3)
H25A H 0.7730 0.2800 -0.1022
H26A H 0.6623 0.2859 -0.1576
H27A H 0.8178 0.1563 -0.1697
C24A C 0.7832(5) 0.3135(6) -0.3544(3)
H28A H 0.8295 0.2169 -0.3717
H29A H 0.6791 0.3515 -0.3435
H30A H 0.8139 0.3602 -0.4019
C25A C 0.7320(4) 0.5258(4) -0.2170(3)
H31A H 0.7558 0.5757 -0.2650
H32A H 0.6291 0.5559 -0.2049
H33A H 0.7576 0.5428 -0.1640
N2A N 1.1502(3) 0.4435(3) -0.10610(17)
C26A C 1.3077(4) 0.3987(4) -0.1180(3)
H34A H 1.3509 0.3217 -0.0821
H35A H 1.3546 0.3718 -0.1802
H36A H 1.3197 0.4736 -0.0994
C27A C 1.0780(3) 0.4868(3) -0.0114(2)
H37A H 1.1335 0.4158 0.0257
H38A H 1.0793 0.5705 0.0034
C28A C 1.0875(5) 0.5583(4) -0.1649(2)
H39A H 1.0956 0.6355 -0.1463
H40A H 1.1399 0.5286 -0.2260
H41A H 0.9865 0.5850 -0.1606
loop_
_geom_bond_atom_site_label_1
_geom_bond_atom_site_label_2
_geom_bond_site_symmetry_1
_geom_bond_site_symmetry_2
P1 N1 1_555 1_555
Li1 N1 1_555 1_555
N1 Si1 1_555 1_555
Si1 C20 1_555 1_555
Si2 C19 1_555 1_555
C1 P1 1_555 1_555
C2 C1 1_555 1_555
H1 C2 1_555 1_555
C3 C2 1_555 1_555
H2 C3 1_555 1_555
C4 C3 1_555 1_555
H3 C4 1_555 1_555
C5 C4 1_555 1_555
H4 C5 1_555 1_555
C6 C1 1_555 1_555
H5 C6 1_555 1_555
C7 P1 1_555 1_555
C8 C7 1_555 1_555
H6 C8 1_555 1_555
C9 C8 1_555 1_555
H7 C9 1_555 1_555
C10 C9 1_555 1_555
H8 C10 1_555 1_555
C11 C10 1_555 1_555
H9 C11 1_555 1_555
C12 C7 1_555 1_555
H10 C12 1_555 1_555
C13 P1 1_555 1_555
C14 C13 1_555 1_555
H11 C14 1_555 1_555
C15 C14 1_555 1_555
H12 C15 1_555 1_555
C16 C15 1_555 1_555
H13 C16 1_555 1_555
C17 C16 1_555 1_555
H14 C17 1_555 1_555
C18 C13 1_555 1_555
C19 Li1 1_555 1_555
H15 C19 1_555 1_555
C20 H16 1_555 1_555
H17 C20 1_555 1_555
H18 C20 1_555 1_555
C21 Si1 1_555 1_555
H19 C21 1_555 1_555
H20 C21 1_555 1_555
H21 C21 1_555 1_555
C22 Si1 1_555 1_555
H22 C22 1_555 1_555
H23 C22 1_555 1_555
H24 C22 1_555 1_555
C23 Si2 1_555 1_555
H25 C23 1_555 1_555
H26 C23 1_555 1_555
H27 C23 1_555 1_555
C24 Si2 1_555 1_555
H28 C24 1_555 1_555
H29 C24 1_555 1_555
H30 C24 1_555 1_555
C25 Si2 1_555 1_555
H31 C25 1_555 1_555
H32 C25 1_555 1_555
H33 C25 1_555 1_555
N2 Li1 1_555 1_555
C26 N2 1_555 1_555
H34 C26 1_555 1_555
H35 C26 1_555 1_555
H36 C26 1_555 1_555
C27 N2 1_555 1_555
H37 C27 1_555 1_555
H38 C27 1_555 1_555
C28 N2 1_555 1_555
H39 C28 1_555 1_555
H40 C28 1_555 1_555
H41 C28 1_555 1_555
P1A N1A 1_555 1_555
Li1A N1A 1_555 1_555
N1A Si1A 1_555 1_555
Si1A C20A 1_555 1_555
Si2A C19A 1_555 1_555
C1A P1A 1_555 1_555
C2A C1A 1_555 1_555
H1A C2A 1_555 1_555
C3A C2A 1_555 1_555
H2A C3A 1_555 1_555
C4A C3A 1_555 1_555
H3A C4A 1_555 1_555
C5A C4A 1_555 1_555
H4A C5A 1_555 1_555
C6A C1A 1_555 1_555
H5A C6A 1_555 1_555
C7A P1A 1_555 1_555
C8A C7A 1_555 1_555
H6A C8A 1_555 1_555
C9A C8A 1_555 1_555
H7A C9A 1_555 1_555
C10A C9A 1_555 1_555
H8A C10A 1_555 1_555
C11A C10A 1_555 1_555
H9A C11A 1_555 1_555
C12A C7A 1_555 1_555
H10A C12A 1_555 1_555
C13A P1A 1_555 1_555
C14A C13A 1_555 1_555
H11A C14A 1_555 1_555
C15A C14A 1_555 1_555
H12A C15A 1_555 1_555
C16A C15A 1_555 1_555
H13A C16A 1_555 1_555
C17A C16A 1_555 1_555
H14A C17A 1_555 1_555
C18A C13A 1_555 1_555
C19A Li1A 1_555 1_555
H15A C19A 1_555 1_555
C20A H16A 1_555 1_555
H17A C20A 1_555 1_555
H18A C20A 1_555 1_555
C21A Si1A 1_555 1_555
H19A C21A 1_555 1_555
H20A C21A 1_555 1_555
H21A C21A 1_555 1_555
C22A Si1A 1_555 1_555
H22A C22A 1_555 1_555
H23A C22A 1_555 1_555
H24A C22A 1_555 1_555
C23A Si2A 1_555 1_555
H25A C23A 1_555 1_555
H26A C23A 1_555 1_555
H27A C23A 1_555 1_555
C24A Si2A 1_555 1_555
H28A C24A 1_555 1_555
H29A C24A 1_555 1_555
H30A C24A 1_555 1_555
C25A Si2A 1_555 1_555
H31A C25A 1_555 1_555
H32A C25A 1_555 1_555
H33A C25A 1_555 1_555
N2A Li1A 1_555 1_555
C26A N2A 1_555 1_555
H34A C26A 1_555 1_555
H35A C26A 1_555 1_555
H36A C26A 1_555 1_555
C27A C27 1_555 1_555
H37A C27A 1_555 1_555
H38A C27A 1_555 1_555
C28A N2A 1_555 1_555
H39A C28A 1_555 1_555
H40A C28A 1_555 1_555
H41A C28A 1_555 1_555
C5 C6 1_555 1_555
C11 C12 1_555 1_555
C17 C18 1_555 1_555
C18 C19 1_555 1_555
C5A C6A 1_555 1_555
C11A C12A 1_555 1_555
C17A C18A 1_555 1_555
C18A C19A 1_555 1_555
N2A C27A 1_555 1_555

#END
