
#######################################################################
#
#                 Cambridge Crystallographic Data Centre
#                                CCDC 
#
#######################################################################
#
# If this CIF has been generated from an entry in the Cambridge 
# Structural Database, then it will include bibliographic, chemical, 
# crystal, experimental, refinement or atomic coordinate data resulting 
# from the CCDC's data processing and validation procedures.
#
#######################################################################

data_FOGSIF
_chemical_formula_moiety         'C22 H32 O6 P2'
_chemical_name_systematic        
"tetraethyl (biphenyl-4,4'-diylbis(methylene))bis(phosphonate)"
_symmetry_cell_setting           monoclinic
_symmetry_space_group_name_H-M   'P 21/c'
_symmetry_Int_Tables_number      14
_space_group_name_Hall           '-P 2ybc'
loop_
_symmetry_equiv_pos_site_id
_symmetry_equiv_pos_as_xyz
1 x,y,z
2 -x,1/2+y,1/2-z
3 -x,-y,-z
4 x,1/2-y,1/2+z
_cell_length_a                   15.8384(8)
_cell_length_b                   8.4589(5)
_cell_length_c                   17.7369(11)
_cell_angle_alpha                90
_cell_angle_beta                 96.493(2)
_cell_angle_gamma                90
_cell_volume                     2361.07
_exptl_crystal_colour            colorless
_exptl_crystal_description       plate
_cell_formula_units_Z            4
loop_
_atom_site_label
_atom_site_type_symbol
_atom_site_fract_x
_atom_site_fract_y
_atom_site_fract_z
P1 P 0.08360(6) 0.85283(12) 0.11605(5)
P2 P -0.59587(6) 0.40687(12) 0.18448(6)
C1 C 0.0395(2) 0.7189(4) 0.04492(18)
H1 H 0.0316 0.7739 -0.0034
H2 H 0.0798 0.6339 0.0404
C2 C -0.0443(2) 0.6485(4) 0.06038(17)
C3 C -0.1194(2) 0.6914(4) 0.01807(18)
H3 H -0.1182 0.7641 -0.0211
C4 C -0.1966(2) 0.6277(4) 0.03300(18)
H4 H -0.2460 0.6582 0.0032
C5 C -0.20179(19) 0.5202(4) 0.09097(17)
C6 C -0.1255(2) 0.4780(4) 0.13451(18)
H5 H -0.1264 0.4069 0.1744
C7 C -0.0491(2) 0.5415(4) 0.11852(18)
H6 H 0.0007 0.5112 0.1479
C8 C -0.28436(19) 0.4498(4) 0.10658(18)
C9 C -0.2985(2) 0.3982(4) 0.17854(19)
H7 H -0.2549 0.4058 0.2182
C10 C -0.3757(2) 0.3360(4) 0.1924(2)
H8 H -0.3829 0.3017 0.2411
C11 C -0.4428(2) 0.3237(4) 0.1352(2)
C12 C -0.4286(2) 0.3738(4) 0.0636(2)
H9 H -0.4724 0.3657 0.0241
C13 C -0.3514(2) 0.4357(4) 0.04887(18)
H10 H -0.3441 0.4682 -0.0001
C14 C -0.52855(19) 0.2601(4) 0.1498(2)
H11 H -0.5203 0.1749 0.1865
H12 H -0.5567 0.2164 0.1030
C15 C -0.0283(2) 1.0513(6) 0.1663(2)
H13 H -0.0123 1.1581 0.1818
H14 H -0.0172 0.9830 0.2103
C16 C -0.1194(2) 1.0470(5) 0.1392(2)
H15 H -0.1515 1.0813 0.1789
H16 H -0.1356 0.9410 0.1246
H17 H -0.1307 1.1159 0.0962
C17 C 0.2408(2) 0.8363(6) 0.0852(3)
H18 H 0.2327 0.7512 0.0484
H19 H 0.2547 0.7897 0.1350
C18 C 0.3102(3) 0.9359(6) 0.0676(3)
H20 H 0.3609 0.8735 0.0680
H21 H 0.3193 1.0183 0.1049
H22 H 0.2964 0.9819 0.0183
C19 C -0.7592(2) 0.3941(6) 0.1951(3)
H23 H -0.7474 0.4627 0.2388
H24 H -0.7799 0.4588 0.1518
C20 C -0.8225(3) 0.2796(6) 0.2093(3)
H25 H -0.8735 0.3330 0.2193
H26 H -0.8018 0.2163 0.2524
H27 H -0.8344 0.2129 0.1656
C21 C -0.5687(3) 0.3067(6) 0.3283(3)
H28 H -0.6093 0.2260 0.3095
H29 H -0.5132 0.2577 0.3381
C22 C -0.5933(4) 0.3745(7) 0.3985(3)
H30 H -0.5946 0.2927 0.4359
H31 H -0.6486 0.4216 0.3887
H32 H -0.5528 0.4538 0.4170
O1 O 0.09965(15) 0.7841(3) 0.19211(12)
O2 O 0.02289(14) 1.0002(3) 0.10781(13)
O3 O 0.16340(13) 0.9262(3) 0.08391(13)
O4 O -0.59971(15) 0.5587(3) 0.14496(14)
O5 O -0.68195(13) 0.3134(3) 0.18014(15)
O6 O -0.56629(15) 0.4332(3) 0.27044(13)
loop_
_geom_bond_atom_site_label_1
_geom_bond_atom_site_label_2
_geom_bond_site_symmetry_1
_geom_bond_site_symmetry_2
P1 C1 1_555 1_555
P2 C14 1_555 1_555
C1 H1 1_555 1_555
H2 C1 1_555 1_555
C2 C1 1_555 1_555
C3 C2 1_555 1_555
H3 C3 1_555 1_555
C4 C3 1_555 1_555
H4 C4 1_555 1_555
C5 C4 1_555 1_555
C6 C5 1_555 1_555
H5 C6 1_555 1_555
C7 C2 1_555 1_555
H6 C7 1_555 1_555
C8 C5 1_555 1_555
C9 C8 1_555 1_555
H7 C9 1_555 1_555
C10 C9 1_555 1_555
H8 C10 1_555 1_555
C11 C10 1_555 1_555
C12 C11 1_555 1_555
H9 C12 1_555 1_555
C13 C8 1_555 1_555
H10 C13 1_555 1_555
C14 C11 1_555 1_555
H11 C14 1_555 1_555
H12 C14 1_555 1_555
C15 H13 1_555 1_555
H14 C15 1_555 1_555
C16 C15 1_555 1_555
H15 C16 1_555 1_555
H16 C16 1_555 1_555
H17 C16 1_555 1_555
C17 H18 1_555 1_555
H19 C17 1_555 1_555
C18 C17 1_555 1_555
H20 C18 1_555 1_555
H21 C18 1_555 1_555
H22 C18 1_555 1_555
C19 H23 1_555 1_555
H24 C19 1_555 1_555
C20 C19 1_555 1_555
H25 C20 1_555 1_555
H26 C20 1_555 1_555
H27 C20 1_555 1_555
C21 H28 1_555 1_555
H29 C21 1_555 1_555
C22 C21 1_555 1_555
H30 C22 1_555 1_555
H31 C22 1_555 1_555
H32 C22 1_555 1_555
O1 P1 1_555 1_555
O2 P1 1_555 1_555
O3 P1 1_555 1_555
O4 P2 1_555 1_555
O5 P2 1_555 1_555
O6 P2 1_555 1_555
C6 C7 1_555 1_555
C12 C13 1_555 1_555
C15 O2 1_555 1_555
C17 O3 1_555 1_555
C19 O5 1_555 1_555
C21 O6 1_555 1_555

#END
