
#######################################################################
#
#                 Cambridge Crystallographic Data Centre
#                                CCDC 
#
#######################################################################
#
# If this CIF has been generated from an entry in the Cambridge 
# Structural Database, then it will include bibliographic, chemical, 
# crystal, experimental, refinement or atomic coordinate data resulting 
# from the CCDC's data processing and validation procedures.
#
#######################################################################

data_FOGTUR01
_chemical_formula_moiety         'C13 H17 N3 O9'
_chemical_name_systematic        
'Methyl 2,3,4-tri-O-acetyl-1-azido-1-deoxy-\b-D-glucopyranuronate'
_symmetry_cell_setting           orthorhombic
_symmetry_space_group_name_H-M   'P 21 21 21'
_symmetry_Int_Tables_number      19
_space_group_name_Hall           'P 2ac 2ab'
loop_
_symmetry_equiv_pos_site_id
_symmetry_equiv_pos_as_xyz
1 x,y,z
2 1/2-x,-y,1/2+z
3 -x,1/2+y,1/2-z
4 1/2+x,1/2-y,-z
_cell_length_a                   7.3201(8)
_cell_length_b                   13.9189(14)
_cell_length_c                   15.8356(16)
_cell_angle_alpha                90
_cell_angle_beta                 90
_cell_angle_gamma                90
_cell_volume                     1613.45
_exptl_crystal_colour            colorless
_exptl_crystal_description       block
_cell_formula_units_Z            4
_exptl_crystal_recrystallization_method methanol
loop_
_atom_site_label
_atom_site_type_symbol
_atom_site_fract_x
_atom_site_fract_y
_atom_site_fract_z
C1 C -0.1831(2) 0.52204(11) 0.12761(9)
H1 H -0.266(3) 0.5657(15) 0.0982(13)
C2 C -0.0123(2) 0.57357(11) 0.15885(9)
H2 H 0.055(3) 0.5299(15) 0.1930(13)
C3 C 0.1042(2) 0.60849(10) 0.08515(9)
H3 H 0.047(3) 0.6581(15) 0.0555(13)
C4 C 0.1405(2) 0.52555(10) 0.02426(9)
H4 H 0.211(3) 0.4742(14) 0.0503(13)
C5 C -0.0447(2) 0.48387(10) -0.00201(9)
H5 H -0.115(3) 0.5325(15) -0.0273(13)
C6 C -0.0254(2) 0.40147(11) -0.06481(10)
C7 C -0.0051(2) 0.66649(11) 0.28601(10)
C8 C -0.0764(3) 0.75679(14) 0.32499(11)
H6 H 0.013(4) 0.807(2) 0.3130(17)
H7 H -0.193(4) 0.7742(19) 0.3023(18)
H8 H -0.076(4) 0.7494(18) 0.3813(19)
C9 C 0.3465(2) 0.72479(11) 0.09257(10)
C10 C 0.5071(3) 0.75399(13) 0.14534(12)
H9 H 0.497(4) 0.817(2) 0.1584(16)
H10 H 0.525(4) 0.7140(19) 0.1899(17)
H11 H 0.619(4) 0.7517(18) 0.1103(17)
C11 C 0.4117(2) 0.55178(12) -0.05643(10)
C12 C 0.4788(3) 0.59695(13) -0.13620(11)
H12 H 0.592(4) 0.5687(19) -0.1493(16)
H13 H 0.396(4) 0.5839(18) -0.1822(15)
H14 H 0.481(4) 0.6646(18) -0.1242(17)
C13 C 0.0860(3) 0.24400(13) -0.08288(13)
H15 H 0.127(4) 0.260(2) -0.1366(18)
H16 H 0.167(4) 0.201(2) -0.0541(18)
H17 H -0.029(4) 0.213(2) -0.0889(16)
N1 N -0.26772(18) 0.47678(11) 0.20086(9)
N2 N -0.43604(19) 0.46702(10) 0.19694(9)
N3 N -0.5866(2) 0.45280(12) 0.20316(11)
O1 O -0.13118(15) 0.44639(7) 0.07185(7)
O2 O -0.07091(16) 0.65637(8) 0.20579(7)
O3 O 0.0996(2) 0.61158(9) 0.31791(8)
O4 O 0.27176(15) 0.64265(8) 0.12274(7)
O5 O 0.28953(17) 0.76741(9) 0.03207(8)
O6 O 0.22653(15) 0.56054(8) -0.05105(7)
O7 O 0.50254(17) 0.51504(11) -0.00226(8)
O8 O -0.0864(2) 0.40298(10) -0.13485(8)
O9 O 0.06567(19) 0.32880(8) -0.03045(8)
loop_
_geom_bond_atom_site_label_1
_geom_bond_atom_site_label_2
_geom_bond_site_symmetry_1
_geom_bond_site_symmetry_2
C1 H1 1_555 1_555
C2 C1 1_555 1_555
H2 C2 1_555 1_555
C3 C2 1_555 1_555
H3 C3 1_555 1_555
C4 C3 1_555 1_555
H4 C4 1_555 1_555
C5 C4 1_555 1_555
H5 C5 1_555 1_555
C6 C5 1_555 1_555
C7 C8 1_555 1_555
C8 H6 1_555 1_555
H7 C8 1_555 1_555
H8 C8 1_555 1_555
C9 C10 1_555 1_555
C10 H9 1_555 1_555
H10 C10 1_555 1_555
H11 C10 1_555 1_555
C11 C12 1_555 1_555
C12 H12 1_555 1_555
H13 C12 1_555 1_555
H14 C12 1_555 1_555
C13 H15 1_555 1_555
H16 C13 1_555 1_555
H17 C13 1_555 1_555
N1 C1 1_555 1_555
N2 N1 1_555 1_555
N3 N2 1_555 1_555
O1 C1 1_555 1_555
O2 C2 1_555 1_555
O3 C7 1_555 1_555
O4 C3 1_555 1_555
O5 C9 1_555 1_555
O6 C4 1_555 1_555
O7 C11 1_555 1_555
O8 C6 1_555 1_555
O9 C6 1_555 1_555
C5 O1 1_555 1_555
C7 O2 1_555 1_555
C9 O4 1_555 1_555
C11 O6 1_555 1_555
C13 O9 1_555 1_555

#END
