
#######################################################################
#
#                 Cambridge Crystallographic Data Centre
#                                CCDC 
#
#######################################################################
#
# If this CIF has been generated from an entry in the Cambridge 
# Structural Database, then it will include bibliographic, chemical, 
# crystal, experimental, refinement or atomic coordinate data resulting 
# from the CCDC's data processing and validation procedures.
#
#######################################################################

data_FOGWII02
_chemical_formula_moiety         'C33 H25 Br1 N4'
_chemical_name_systematic        
5-(4'-(Bromomethyl)biphenyl-2-yl)-2-trityl-2H-tetrazole
_symmetry_cell_setting           monoclinic
_symmetry_space_group_name_H-M   'P 21/n'
_symmetry_Int_Tables_number      14
_space_group_name_Hall           '-P 2yn'
loop_
_symmetry_equiv_pos_site_id
_symmetry_equiv_pos_as_xyz
1 x,y,z
2 1/2-x,1/2+y,1/2-z
3 -x,-y,-z
4 1/2+x,1/2-y,1/2+z
_cell_length_a                   11.181(2)
_cell_length_b                   16.106(3)
_cell_length_c                   15.186(3)
_cell_angle_alpha                90
_cell_angle_beta                 100.48(3)
_cell_angle_gamma                90
_cell_volume                     2689.09
_exptl_crystal_colour            colorless
_exptl_crystal_description       block
_cell_formula_units_Z            4
loop_
_atom_site_label
_atom_site_type_symbol
_atom_site_fract_x
_atom_site_fract_y
_atom_site_fract_z
Br1 Br -0.13440(5) 0.16148(3) 0.34318(4)
N1 N 0.4207(3) 0.32887(19) 0.5322(2)
N2 N 0.5093(3) 0.27702(19) 0.5648(2)
C1 C 0.4860(3) 0.1774(2) 0.4373(2)
C2 C 0.3937(3) 0.1505(2) 0.5752(2)
C3 C 0.6227(3) 0.1452(2) 0.5882(2)
C4 C 0.3641(4) 0.1791(3) 0.6540(3)
H1 H 0.4067 0.2237 0.6834
C5 C 0.2527(4) 0.4770(2) 0.5346(3)
C6 C 0.4473(3) 0.3963(2) 0.5816(2)
N3 N 0.5882(3) 0.3088(2) 0.6323(2)
C7 C 0.5643(4) 0.1304(3) 0.3969(3)
H2 H 0.6314 0.1053 0.4319
C8 C 0.5042(3) 0.1859(2) 0.5405(2)
C9 C 0.3765(4) 0.4734(2) 0.5746(3)
C10 C 0.3268(3) 0.0849(2) 0.5323(3)
H3 H 0.3443 0.0651 0.4785
C11 C 0.6213(4) 0.0746(3) 0.6405(2)
H4 H 0.5474 0.0530 0.6498
C12 C 0.0806(4) 0.2565(3) 0.4143(3)
C13 C 0.3852(4) 0.2128(3) 0.3828(3)
H5 H 0.3302 0.2437 0.4085
N4 N 0.5504(3) 0.3856(2) 0.6431(2)
C14 C 0.2348(4) 0.0484(3) 0.5681(3)
H6 H 0.1911 0.0043 0.5384
C15 C 0.1537(4) 0.3385(3) 0.5463(3)
H7 H 0.1677 0.3437 0.6084
C16 C 0.2720(4) 0.1424(3) 0.6899(3)
H8 H 0.2536 0.1623 0.7433
C17 C 0.0420(4) 0.1725(3) 0.3730(4)
H9 H 0.0745 0.1290 0.4147
H10 H 0.0760 0.1653 0.3191
C18 C 0.5434(4) 0.1203(3) 0.3039(3)
H11 H 0.5967 0.0885 0.2776
C19 C 0.7349(4) 0.1760(3) 0.5760(3)
H12 H 0.7378 0.2233 0.5414
C20 C 0.1844(4) 0.4031(2) 0.4942(3)
C21 C 0.3724(5) 0.6201(3) 0.6071(3)
H13 H 0.4123 0.6680 0.6310
C22 C 0.3659(4) 0.2027(3) 0.2914(3)
H14 H 0.2984 0.2271 0.2561
C23 C 0.8390(4) 0.0670(3) 0.6658(3)
H15 H 0.9111 0.0409 0.6916
C24 C 0.4339(4) 0.5464(3) 0.6100(3)
H16 H 0.5159 0.5447 0.6361
C25 C 0.1024(4) 0.2664(3) 0.5068(3)
H17 H 0.0821 0.2238 0.5427
C26 C 0.8420(4) 0.1373(3) 0.6142(3)
H18 H 0.9161 0.1586 0.6052
C27 C 0.2075(4) 0.0769(3) 0.6473(3)
H19 H 0.1460 0.0520 0.6718
C28 C 0.1056(4) 0.3224(3) 0.3629(3)
H20 H 0.0883 0.3182 0.3008
C29 C 0.4451(5) 0.1569(3) 0.2516(3)
H21 H 0.4319 0.1508 0.1896
C30 C 0.7293(4) 0.0358(3) 0.6790(3)
H22 H 0.7273 -0.0115 0.7139
C31 C 0.2514(6) 0.6229(3) 0.5686(4)
H23 H 0.2089 0.6727 0.5674
C32 C 0.1928(5) 0.5526(3) 0.5319(3)
H24 H 0.1114 0.5558 0.5047
C33 C 0.1557(4) 0.3946(3) 0.4021(3)
H25 H 0.1706 0.4386 0.3658
loop_
_geom_bond_atom_site_label_1
_geom_bond_atom_site_label_2
_geom_bond_site_symmetry_1
_geom_bond_site_symmetry_2
Br1 C17 1_555 1_555
N1 N2 1_555 1_555
N2 N3 1_555 1_555
C1 C7 1_555 1_555
C2 C4 1_555 1_555
C3 C8 1_555 1_555
C4 H1 1_555 1_555
C5 C9 1_555 1_555
C6 N1 1_555 1_555
N3 N4 1_555 1_555
C7 H2 1_555 1_555
C8 N2 1_555 1_555
C9 C6 1_555 1_555
C10 C2 1_555 1_555
H3 C10 1_555 1_555
C11 C3 1_555 1_555
H4 C11 1_555 1_555
C12 C17 1_555 1_555
C13 C1 1_555 1_555
H5 C13 1_555 1_555
N4 C6 1_555 1_555
C14 C10 1_555 1_555
H6 C14 1_555 1_555
C15 H7 1_555 1_555
C16 C4 1_555 1_555
H8 C16 1_555 1_555
C17 H9 1_555 1_555
H10 C17 1_555 1_555
C18 C7 1_555 1_555
H11 C18 1_555 1_555
C19 C3 1_555 1_555
H12 C19 1_555 1_555
C20 C5 1_555 1_555
C21 H13 1_555 1_555
C22 C13 1_555 1_555
H14 C22 1_555 1_555
C23 H15 1_555 1_555
C24 C9 1_555 1_555
H16 C24 1_555 1_555
C25 C12 1_555 1_555
H17 C25 1_555 1_555
C26 C19 1_555 1_555
H18 C26 1_555 1_555
C27 C14 1_555 1_555
H19 C27 1_555 1_555
C28 C12 1_555 1_555
H20 C28 1_555 1_555
C29 C18 1_555 1_555
H21 C29 1_555 1_555
C30 C11 1_555 1_555
H22 C30 1_555 1_555
C31 C21 1_555 1_555
H23 C31 1_555 1_555
C32 C5 1_555 1_555
H24 C32 1_555 1_555
C33 C20 1_555 1_555
H25 C33 1_555 1_555
C1 C8 1_555 1_555
C2 C8 1_555 1_555
C15 C20 1_555 1_555
C15 C25 1_555 1_555
C16 C27 1_555 1_555
C21 C24 1_555 1_555
C22 C29 1_555 1_555
C23 C26 1_555 1_555
C23 C30 1_555 1_555
C28 C33 1_555 1_555
C31 C32 1_555 1_555

#END
