
#######################################################################
#
#                 Cambridge Crystallographic Data Centre
#                                CCDC 
#
#######################################################################
#
# If this CIF has been generated from an entry in the Cambridge 
# Structural Database, then it will include bibliographic, chemical, 
# crystal, experimental, refinement or atomic coordinate data resulting 
# from the CCDC's data processing and validation procedures.
#
#######################################################################

data_FOHCEL
_chemical_formula_moiety         'C22 H26 F3 N2 O3 P1 S1'
_chemical_name_systematic        
'Diisopropyl ((4-methylbenzothiazol-2-ylamino)(4-(trifluoromethyl)phenyl)methyl)phosphonate'
_symmetry_cell_setting           monoclinic
_symmetry_space_group_name_H-M   'P 21/c'
_symmetry_Int_Tables_number      14
_space_group_name_Hall           '-P 2ybc'
loop_
_symmetry_equiv_pos_site_id
_symmetry_equiv_pos_as_xyz
1 x,y,z
2 -x,1/2+y,1/2-z
3 -x,-y,-z
4 x,1/2-y,1/2+z
_cell_length_a                   13.819(2)
_cell_length_b                   21.354(3)
_cell_length_c                   21.991(3)
_cell_angle_alpha                90
_cell_angle_beta                 128.931(6)
_cell_angle_gamma                90
_cell_volume                     5048.08
_exptl_crystal_colour            colorless
_exptl_crystal_description       prism
_chemical_melting_point          '466-468 K'
_cell_formula_units_Z            8
_exptl_crystal_recrystallization_method ethanol
loop_
_atom_site_label
_atom_site_type_symbol
_atom_site_fract_x
_atom_site_fract_y
_atom_site_fract_z
P1 P 0.26354(13) 0.81905(7) 0.16031(8)
S1 S 0.73905(13) 0.83127(8) 0.36680(9)
F1 F 0.1057(6) 0.5729(5) 0.2867(7)
F2 F 0.2547(18) 0.5879(7) 0.4092(7)
F3 F 0.2806(11) 0.5314(4) 0.3408(10)
O1 O 0.2726(3) 0.77682(16) 0.11200(18)
O2 O 0.1367(3) 0.81859(17) 0.1434(2)
N1 N 0.5914(4) 0.86479(17) 0.3963(2)
N2 N 0.4986(4) 0.8015(2) 0.2849(2)
H1 H 0.516(4) 0.780(2) 0.259(3)
C1 C 0.7981(5) 0.8789(3) 0.4468(3)
C2 C 0.9177(6) 0.9034(4) 0.4990(4)
H2 H 0.9783 0.8953 0.4938
C3 C 0.9423(7) 0.9403(4) 0.5586(4)
H3 H 1.0220 0.9563 0.5954
C4 C 0.8524(7) 0.9539(3) 0.5649(4)
H4 H 0.8718 0.9801 0.6050
C5 C 0.7330(6) 0.9299(3) 0.5132(3)
C6 C 0.7066(5) 0.8913(2) 0.4531(3)
C7 C 0.6353(6) 0.9460(3) 0.5209(4)
H5 H 0.6565 0.9272 0.5675
H6 H 0.5562 0.9304 0.4763
H7 H 0.6310 0.9906 0.5238
C8 C 0.5954(4) 0.8323(2) 0.3478(3)
C9 C 0.3757(4) 0.8036(2) 0.2636(3)
H8 H 0.3740 0.8391 0.2911
C10 C 0.3420(4) 0.7457(2) 0.2859(2)
C11 C 0.3547(6) 0.6872(3) 0.2668(3)
H9 H 0.3892 0.6827 0.2418
C12 C 0.3174(6) 0.6347(3) 0.2837(4)
H10 H 0.3257 0.5951 0.2698
C13 C 0.2676(6) 0.6414(3) 0.3216(4)
C14 C 0.2562(5) 0.6993(3) 0.3417(3)
H11 H 0.2234 0.7039 0.3676
C15 C 0.2930(4) 0.7510(3) 0.3240(3)
H12 H 0.2845 0.7904 0.3380
C16 C 0.2282(7) 0.5858(4) 0.3398(4)
O3 O 0.2879(4) 0.88942(17) 0.1558(2)
C17 C 0.2958(14) 0.9127(7) 0.0967(7)
H13 H 0.2772 0.8789 0.0606
C18 C 0.4263(14) 0.9380(6) 0.1370(9)
H14 H 0.4866 0.9075 0.1734
H15 H 0.4379 0.9759 0.1644
H16 H 0.4367 0.9467 0.0985
C19 C 0.196(2) 0.9629(10) 0.0539(14)
H17 H 0.1193 0.9468 0.0402
H18 H 0.1828 0.9750 0.0073
H19 H 0.2212 0.9988 0.0872
C20 C 0.0349(6) 0.7764(4) 0.0878(4)
H20 H 0.0700 0.7395 0.0814
C21 C -0.0224(6) 0.7559(4) 0.1235(4)
H21 H 0.0353 0.7299 0.1681
H22 H -0.0968 0.7325 0.0859
H23 H -0.0426 0.7919 0.1397
C22 C -0.0508(8) 0.8076(5) 0.0111(5)
H24 H -0.0766 0.8471 0.0175
H25 H -0.1224 0.7815 -0.0236
H26 H -0.0092 0.8144 -0.0105
P2 P 0.56179(12) 0.82014(7) 0.67057(8)
S2 S 0.08986(13) 0.80018(7) 0.43290(8)
F4 F 0.5606(10) 0.5567(4) 0.4498(9)
F5 F 0.6571(11) 0.6225(5) 0.4317(6)
F6 F 0.7501(9) 0.5787(6) 0.5424(4)
O4 O 0.5828(3) 0.76527(17) 0.71781(18)
O5 O 0.6809(3) 0.84813(16) 0.68845(18)
O6 O 0.4958(3) 0.87014(19) 0.6825(2)
N3 N 0.2502(3) 0.85380(17) 0.4246(2)
N4 N 0.3383(4) 0.7931(2) 0.5366(2)
H27 H 0.328(4) 0.767(2) 0.564(3)
C23 C 0.1322(5) 0.8713(2) 0.3573(3)
C24 C 0.1103(5) 0.9091(2) 0.2982(3)
C25 C -0.0138(6) 0.9211(3) 0.2356(3)
H28 H -0.0316 0.9473 0.1959
C26 C -0.1111(6) 0.8964(4) 0.2294(4)
H29 H -0.1924 0.9047 0.1853
C27 C -0.0894(6) 0.8596(4) 0.2873(4)
H30 H -0.1551 0.8438 0.2843
C28 C 0.0330(5) 0.8463(3) 0.3512(3)
C29 C 0.2409(4) 0.8177(2) 0.4680(3)
C30 C 0.2146(5) 0.9355(2) 0.3023(3)
H31 H 0.2022 0.9251 0.2554
H32 H 0.2920 0.9181 0.3466
H33 H 0.2164 0.9802 0.3076
C31 C 0.4652(4) 0.8043(2) 0.5669(2)
H34 H 0.4644 0.8423 0.5416
C32 C 0.5171(4) 0.7520(2) 0.5481(3)
C33 C 0.5114(6) 0.6915(3) 0.5651(3)
H35 H 0.4797 0.6826 0.5910
C34 C 0.5518(6) 0.6430(3) 0.5446(4)
H36 H 0.5463 0.6019 0.5562
C35 C 0.5995(6) 0.6550(3) 0.5077(4)
C36 C 0.6091(5) 0.7156(4) 0.4912(3)
H37 H 0.6437 0.7240 0.4670
C37 C 0.5667(4) 0.7645(3) 0.5110(3)
H38 H 0.5717 0.8055 0.4991
C38 C 0.6428(7) 0.6040(4) 0.4854(4)
C39 C 0.8070(6) 0.8271(3) 0.7531(4)
H39 H 0.8005 0.7877 0.7732
C40 C 0.8664(8) 0.8729(5) 0.8154(5)
H40 H 0.8777 0.9113 0.7977
H41 H 0.9459 0.8573 0.8597
H42 H 0.8151 0.8806 0.8301
C41 C 0.8729(8) 0.8145(4) 0.7222(5)
H43 H 0.8299 0.7825 0.6829
H44 H 0.9560 0.8008 0.7638
H45 H 0.8761 0.8521 0.6995
C42 C 0.4516(7) 0.9288(3) 0.6437(4)
H46 H 0.4408 0.9279 0.5953
C43 C 0.5400(8) 0.9792(4) 0.6964(6)
H47 H 0.6185 0.9723 0.7078
H48 H 0.5514 0.9786 0.7442
H49 H 0.5071 1.0191 0.6713
C44 C 0.3268(7) 0.9402(4) 0.6260(5)
H50 H 0.2806 0.9018 0.6094
H51 H 0.2803 0.9709 0.5852
H52 H 0.3412 0.9552 0.6722
F7? F 0.152(2) 0.5507(9) 0.2761(7)
F8? F 0.1695(16) 0.5989(6) 0.3696(11)
F9? F 0.3217(11) 0.5483(8) 0.3932(11)
F10? F 0.598(2) 0.5970(11) 0.4121(6)
F11? F 0.7695(10) 0.6069(11) 0.5286(12)
F12? F 0.628(3) 0.5469(6) 0.5066(16)
C45? C 0.2025(15) 0.9199(9) 0.0781(8)
H53? H 0.1393 0.8903 0.0389
C46? C 0.284(3) 0.9417(14) 0.0577(18)
H54? H 0.3541 0.9140 0.0813
H55? H 0.3133 0.9834 0.0770
H56? H 0.2367 0.9413 0.0020
C47? C 0.144(3) 0.9769(13) 0.0795(14)
H57? H 0.0915 0.9660 0.0926
H58? H 0.0946 0.9964 0.0289
H59? H 0.2072 1.0055 0.1178
H60? H 0.4995 1.0077 0.7078
H61? H 0.5667 1.0014 0.6713
H62? H 0.6109 0.9610 0.7442
loop_
_geom_bond_atom_site_label_1
_geom_bond_atom_site_label_2
_geom_bond_site_symmetry_1
_geom_bond_site_symmetry_2
P1 O1 1_555 1_555
S1 C1 1_555 1_555
F1 C16 1_555 1_555
F2 C16 1_555 1_555
F3 C16 1_555 1_555
O2 P1 1_555 1_555
N1 C6 1_555 1_555
N2 H1 1_555 1_555
C1 C2 1_555 1_555
C2 H2 1_555 1_555
C3 C2 1_555 1_555
H3 C3 1_555 1_555
C4 C3 1_555 1_555
H4 C4 1_555 1_555
C5 C4 1_555 1_555
C6 C1 1_555 1_555
C7 C5 1_555 1_555
H5 C7 1_555 1_555
H6 C7 1_555 1_555
H7 C7 1_555 1_555
C8 S1 1_555 1_555
C9 P1 1_555 1_555
H8 C9 1_555 1_555
C10 C9 1_555 1_555
C11 C10 1_555 1_555
H9 C11 1_555 1_555
C12 C11 1_555 1_555
H10 C12 1_555 1_555
C13 C12 1_555 1_555
C14 C13 1_555 1_555
H11 C14 1_555 1_555
C15 C10 1_555 1_555
H12 C15 1_555 1_555
C16 C13 1_555 1_555
O3 P1 1_555 1_555
C17 O3 1_555 1_555
H13 C17 1_555 1_555
C18 C17 1_555 1_555
H14 C18 1_555 1_555
H15 C18 1_555 1_555
H16 C18 1_555 1_555
C19 C17 1_555 1_555
H17 C19 1_555 1_555
H18 C19 1_555 1_555
H19 C19 1_555 1_555
C20 O2 1_555 1_555
H20 C20 1_555 1_555
C21 C20 1_555 1_555
H21 C21 1_555 1_555
H22 C21 1_555 1_555
H23 C21 1_555 1_555
C22 C20 1_555 1_555
H24 C22 1_555 1_555
H25 C22 1_555 1_555
H26 C22 1_555 1_555
P2 O4 1_555 1_555
S2 C28 1_555 1_555
F4 C38 1_555 1_555
F5 C38 1_555 1_555
F6 C38 1_555 1_555
O5 P2 1_555 1_555
O6 P2 1_555 1_555
N3 C23 1_555 1_555
N4 H27 1_555 1_555
C23 C24 1_555 1_555
C24 C25 1_555 1_555
C25 H28 1_555 1_555
C26 C25 1_555 1_555
H29 C26 1_555 1_555
C27 C26 1_555 1_555
H30 C27 1_555 1_555
C28 C23 1_555 1_555
C29 S2 1_555 1_555
C30 C24 1_555 1_555
H31 C30 1_555 1_555
H32 C30 1_555 1_555
H33 C30 1_555 1_555
C31 P2 1_555 1_555
H34 C31 1_555 1_555
C32 C31 1_555 1_555
C33 C32 1_555 1_555
H35 C33 1_555 1_555
C34 C33 1_555 1_555
H36 C34 1_555 1_555
C35 C34 1_555 1_555
C36 C35 1_555 1_555
H37 C36 1_555 1_555
C37 C32 1_555 1_555
H38 C37 1_555 1_555
C38 C35 1_555 1_555
C39 O5 1_555 1_555
H39 C39 1_555 1_555
C40 C39 1_555 1_555
H40 C40 1_555 1_555
H41 C40 1_555 1_555
H42 C40 1_555 1_555
C41 C39 1_555 1_555
H43 C41 1_555 1_555
H44 C41 1_555 1_555
H45 C41 1_555 1_555
C42 O6 1_555 1_555
H46 C42 1_555 1_555
C43 C42 1_555 1_555
H47 C43 1_555 1_555
H48 C43 1_555 1_555
H49 C43 1_555 1_555
C44 C42 1_555 1_555
H50 C44 1_555 1_555
H51 C44 1_555 1_555
H52 C44 1_555 1_555
N1 C8 1_555 1_555
N2 C8 1_555 1_555
N2 C9 1_555 1_555
C5 C6 1_555 1_555
C14 C15 1_555 1_555
N3 C29 1_555 1_555
N4 C29 1_555 1_555
N4 C31 1_555 1_555
C27 C28 1_555 1_555
C36 C37 1_555 1_555

#END
