
#######################################################################
#
#                 Cambridge Crystallographic Data Centre
#                                CCDC 
#
#######################################################################
#
# If this CIF has been generated from an entry in the Cambridge 
# Structural Database, then it will include bibliographic, chemical, 
# crystal, experimental, refinement or atomic coordinate data resulting 
# from the CCDC's data processing and validation procedures.
#
#######################################################################

data_FOHMIZ
_chemical_formula_moiety         'C20 H20 N4 O4'
_chemical_name_systematic        
(1R,2R)-N,N'-bis(4-Nitrophenylmethylene)cyclohexane-1,2-diamine
_symmetry_cell_setting           monoclinic
_symmetry_space_group_name_H-M   'C 2'
_symmetry_Int_Tables_number      5
_space_group_name_Hall           'C 2y'
loop_
_symmetry_equiv_pos_site_id
_symmetry_equiv_pos_as_xyz
1 x,y,z
2 -x,y,-z
3 1/2+x,1/2+y,z
4 1/2-x,1/2+y,-z
_cell_length_a                   52.275(3)
_cell_length_b                   5.3605(2)
_cell_length_c                   14.0209(8)
_cell_angle_alpha                90
_cell_angle_beta                 104.952(2)
_cell_angle_gamma                90
_cell_volume                     3795.91
_exptl_crystal_colour            yellow
_exptl_crystal_description       needle
_chemical_melting_point          '381-382 K'
_cell_formula_units_Z            8
_exptl_crystal_recrystallization_method 'aqueous ethanol'
loop_
_atom_site_label
_atom_site_type_symbol
_atom_site_fract_x
_atom_site_fract_y
_atom_site_fract_z
C1 C 0.50443(8) 0.3481(8) 0.8160(3)
C2 C 0.49925(8) 0.2985(9) 0.7057(3)
C3 C 0.52537(8) 0.2552(9) 0.6788(3)
C4 C 0.54347(9) 0.4825(9) 0.7079(4)
C5 C 0.54826(8) 0.5380(9) 0.8169(4)
C6 C 0.52257(8) 0.5728(9) 0.8457(3)
N1 N 0.47915(6) 0.3949(7) 0.8403(2)
C7 C 0.47026(8) 0.2321(8) 0.8874(3)
C8 C 0.44432(8) 0.2550(8) 0.9096(3)
C9 C 0.43571(8) 0.0703(8) 0.9638(3)
C10 C 0.41095(9) 0.0825(9) 0.9809(3)
C11 C 0.39483(8) 0.2809(8) 0.9421(3)
C12 C 0.40263(8) 0.4671(9) 0.8887(3)
C13 C 0.42775(8) 0.4562(8) 0.8741(3)
N2 N 0.36808(7) 0.2899(7) 0.9575(3)
O1 O 0.36241(6) 0.1425(6) 1.0152(2)
O2 O 0.35262(6) 0.4470(6) 0.9124(3)
N3 N 0.48190(6) 0.0800(7) 0.6809(3)
C14 C 0.46312(8) 0.0903(8) 0.6020(3)
C15 C 0.44289(8) -0.1038(8) 0.5754(3)
C16 C 0.44032(8) -0.2850(8) 0.6428(3)
C17 C 0.41974(8) -0.4565(9) 0.6204(3)
C18 C 0.40137(8) -0.4370(8) 0.5304(3)
C19 C 0.40383(9) -0.2639(10) 0.4614(3)
C20 C 0.42484(9) -0.0984(10) 0.4839(3)
N4 N 0.37859(7) -0.6069(8) 0.5089(3)
O3 O 0.37956(6) -0.7927(7) 0.5606(3)
O4 O 0.35923(6) -0.5499(7) 0.4413(2)
H1 H 0.5131 0.1982 0.8533
H2 H 0.4901 0.4465 0.6684
H3 H 0.5219 0.2255 0.6069
H4 H 0.5342 0.1054 0.7137
H5 H 0.5606 0.4502 0.6923
H6 H 0.5352 0.6293 0.6691
H7 H 0.5583 0.3988 0.8556
H8 H 0.5591 0.6912 0.8331
H9 H 0.5135 0.7242 0.8132
H10 H 0.5264 0.5974 0.9180
H11 H 0.4807 0.0881 0.9097
H12 H 0.4470 -0.0660 0.9892
H13 H 0.4051 -0.0426 1.0184
H14 H 0.3910 0.6006 0.8623
H15 H 0.4338 0.5869 0.8395
H16 H 0.4623 0.2291 0.5592
H17 H 0.4528 -0.2920 0.7053
H18 H 0.4183 -0.5840 0.6659
H19 H 0.3913 -0.2576 0.3989
H20 H 0.4269 0.0201 0.4361
C21 C 0.74978(8) 0.4396(9) 0.8373(3)
C22 C 0.76180(8) 0.4089(8) 0.7489(3)
C23 C 0.78859(8) 0.2805(9) 0.7791(3)
C24 C 0.80765(8) 0.4167(9) 0.8627(3)
C25 C 0.79599(8) 0.4411(9) 0.9512(3)
C26 C 0.76935(8) 0.5748(9) 0.9223(3)
N5 N 0.72597(7) 0.5891(7) 0.8079(3)
C27 C 0.70609(8) 0.5181(8) 0.8361(3)
C28 C 0.68122(8) 0.6610(8) 0.8147(3)
C29 C 0.66043(8) 0.5796(9) 0.8525(3)
C30 C 0.63698(8) 0.7128(9) 0.8339(3)
C31 C 0.63492(8) 0.9244(8) 0.7771(3)
C32 C 0.65521(8) 1.0133(9) 0.7398(3)
C33 C 0.67853(9) 0.8809(9) 0.7598(3)
N6 N 0.60994(7) 1.0675(8) 0.7559(3)
O5 O 0.59175(6) 0.9868(7) 0.7879(2)
O6 O 0.60827(6) 1.2569(7) 0.7062(2)
N7 N 0.74318(7) 0.2571(7) 0.6764(2)
C34 C 0.73370(8) 0.3451(8) 0.5905(3)
C35 C 0.71275(8) 0.2157(8) 0.5160(3)
C36 C 0.70190(8) -0.0074(8) 0.5390(3)
C37 C 0.68042(8) -0.1134(8) 0.4735(3)
C38 C 0.67008(8) 0.0033(8) 0.3847(3)
C39 C 0.68072(8) 0.2215(9) 0.3581(3)
C40 C 0.70255(9) 0.3261(8) 0.4248(3)
N8 N 0.64679(7) -0.1063(8) 0.3148(3)
O7 O 0.63809(6) -0.3038(6) 0.3376(2)
O8 O 0.63765(6) 0.0013(7) 0.2362(2)
H21 H 0.7454 0.2720 0.8601
H22 H 0.7637 0.5762 0.7199
H23 H 0.7862 0.1075 0.8000
H24 H 0.7962 0.2723 0.7215
H25 H 0.8114 0.5847 0.8402
H26 H 0.8246 0.3239 0.8823
H27 H 0.8084 0.5359 1.0042
H28 H 0.7936 0.2732 0.9771
H29 H 0.7720 0.7477 0.9018
H30 H 0.7618 0.5831 0.9802
H31 H 0.7072 0.3670 0.8724
H32 H 0.6624 0.4321 0.8913
H33 H 0.6227 0.6596 0.8596
H34 H 0.6531 1.1615 0.7014
H35 H 0.6929 0.9396 0.7361
H36 H 0.7403 0.4995 0.5735
H37 H 0.7094 -0.0868 0.6004
H38 H 0.6729 -0.2641 0.4894
H39 H 0.6733 0.2976 0.2959
H40 H 0.7104 0.4735 0.4078
loop_
_geom_bond_atom_site_label_1
_geom_bond_atom_site_label_2
_geom_bond_site_symmetry_1
_geom_bond_site_symmetry_2
C1 C2 1_555 1_555
C2 C3 1_555 1_555
C3 C4 1_555 1_555
C4 C5 1_555 1_555
C5 C6 1_555 1_555
C6 C1 1_555 1_555
N1 C1 1_555 1_555
C7 N1 1_555 1_555
C8 C7 1_555 1_555
C9 C8 1_555 1_555
C10 C9 1_555 1_555
C11 C10 1_555 1_555
C12 C11 1_555 1_555
C13 C8 1_555 1_555
N2 C11 1_555 1_555
O1 N2 1_555 1_555
O2 N2 1_555 1_555
N3 C2 1_555 1_555
C14 N3 1_555 1_555
C15 C14 1_555 1_555
C16 C15 1_555 1_555
C17 C16 1_555 1_555
C18 C17 1_555 1_555
C19 C18 1_555 1_555
C20 C15 1_555 1_555
N4 C18 1_555 1_555
O3 N4 1_555 1_555
O4 N4 1_555 1_555
C21 C22 1_555 1_555
C22 C23 1_555 1_555
C23 C24 1_555 1_555
C24 C25 1_555 1_555
C25 C26 1_555 1_555
C26 C21 1_555 1_555
N5 C21 1_555 1_555
C27 N5 1_555 1_555
C28 C27 1_555 1_555
C29 C28 1_555 1_555
C30 C29 1_555 1_555
C31 C30 1_555 1_555
C32 C31 1_555 1_555
C33 C28 1_555 1_555
N6 C31 1_555 1_555
O5 N6 1_555 1_555
O6 N6 1_555 1_555
N7 C22 1_555 1_555
C34 N7 1_555 1_555
C35 C34 1_555 1_555
C36 C35 1_555 1_555
C37 C36 1_555 1_555
C38 C37 1_555 1_555
C39 C38 1_555 1_555
C40 C35 1_555 1_555
N8 C38 1_555 1_555
O7 N8 1_555 1_555
O8 N8 1_555 1_555
H1 C1 1_555 1_555
H2 C2 1_555 1_555
H3 C3 1_555 1_555
H4 C3 1_555 1_555
H5 C4 1_555 1_555
H6 C4 1_555 1_555
H7 C5 1_555 1_555
H8 C5 1_555 1_555
H9 C6 1_555 1_555
H10 C6 1_555 1_555
H11 C7 1_555 1_555
H12 C9 1_555 1_555
H13 C10 1_555 1_555
H14 C12 1_555 1_555
H15 C13 1_555 1_555
H16 C14 1_555 1_555
H17 C16 1_555 1_555
H18 C17 1_555 1_555
H19 C19 1_555 1_555
H20 C20 1_555 1_555
H21 C21 1_555 1_555
H22 C22 1_555 1_555
H23 C23 1_555 1_555
H24 C23 1_555 1_555
H25 C24 1_555 1_555
H26 C24 1_555 1_555
H27 C25 1_555 1_555
H28 C25 1_555 1_555
H29 C26 1_555 1_555
H30 C26 1_555 1_555
H31 C27 1_555 1_555
H32 C29 1_555 1_555
H33 C30 1_555 1_555
H34 C32 1_555 1_555
H35 C33 1_555 1_555
H36 C34 1_555 1_555
H37 C36 1_555 1_555
H38 C37 1_555 1_555
H39 C39 1_555 1_555
H40 C40 1_555 1_555
C12 C13 1_555 1_555
C19 C20 1_555 1_555
C32 C33 1_555 1_555
C39 C40 1_555 1_555

#END
