
#######################################################################
#
#                 Cambridge Crystallographic Data Centre
#                                CCDC 
#
#######################################################################
#
# If this CIF has been generated from an entry in the Cambridge 
# Structural Database, then it will include bibliographic, chemical, 
# crystal, experimental, refinement or atomic coordinate data resulting 
# from the CCDC's data processing and validation procedures.
#
#######################################################################

data_FOHRUQ
_chemical_formula_moiety         'C20 H19 F3 N2 O4'
_chemical_name_systematic        
'Methyl (E,Z)-\a-(methoxyimino)-2-(((1-(3-(trifluoromethyl)phenyl)ethylidene)amino)oxymethyl)benzeneacetate'
_symmetry_cell_setting           monoclinic
_symmetry_space_group_name_H-M   'P 21/c'
_symmetry_Int_Tables_number      14
_space_group_name_Hall           '-P 2ybc'
loop_
_symmetry_equiv_pos_site_id
_symmetry_equiv_pos_as_xyz
1 x,y,z
2 -x,1/2+y,1/2-z
3 -x,-y,-z
4 x,1/2-y,1/2+z
_cell_length_a                   8.0256(12)
_cell_length_b                   33.580(5)
_cell_length_c                   8.0957(11)
_cell_angle_alpha                90
_cell_angle_beta                 111.566(5)
_cell_angle_gamma                90
_cell_volume                     2029.05
_exptl_crystal_colour            colorless
_exptl_crystal_description       block
_cell_formula_units_Z            4
_exptl_crystal_recrystallization_method methanol
loop_
_atom_site_label
_atom_site_type_symbol
_atom_site_fract_x
_atom_site_fract_y
_atom_site_fract_z
C1 C -0.0749(3) 0.21255(9) 0.0365(4)
F1 F -0.1777(6) 0.2032(3) -0.1234(10)
F2 F -0.1225(8) 0.1896(6) 0.141(2)
F3 F -0.1331(6) 0.24801(18) 0.049(2)
O1 O 0.22879(18) 0.03251(4) -0.19754(17)
O2 O 0.38273(17) 0.02154(3) -0.37375(15)
O3 O 0.00672(16) 0.07488(4) -0.77416(16)
O4 O 0.26611(15) 0.16329(3) -0.31658(16)
N1 N 0.1334(2) 0.05316(4) -0.6401(2)
N2 N 0.37316(18) 0.13173(4) -0.2145(2)
C2 C -0.0175(2) 0.08513(6) -0.4593(2)
C3 C -0.0079(2) 0.12630(6) -0.4664(2)
C4 C -0.1441(3) 0.14898(5) -0.4459(2)
H1 H -0.1387 0.1766 -0.4503
C5 C -0.2872(3) 0.13120(7) -0.4190(2)
H2 H -0.3777 0.1467 -0.4065
C6 C -0.2949(3) 0.09067(7) -0.4109(2)
H3 H -0.3908 0.0786 -0.3924
C7 C -0.1611(3) 0.06768(6) -0.4302(2)
H4 H -0.1670 0.0401 -0.4235
C8 C 0.1190(2) 0.05925(5) -0.4892(2)
C9 C 0.2474(3) 0.03660(5) -0.3367(3)
C10 C 0.5107(3) -0.00253(5) -0.2366(2)
H5 H 0.5929 -0.0147 -0.2827
H6 H 0.4482 -0.0229 -0.1992
H7 H 0.5756 0.0140 -0.1370
C11 C 0.0210(3) 0.06519(6) -0.9415(2)
H8 H -0.0605 0.0815 -1.0334
H9 H -0.0083 0.0376 -0.9683
H10 H 0.1413 0.0700 -0.9346
C12 C 0.3595(2) 0.17226(5) 0.0320(2)
C13 C 0.1787(2) 0.17759(5) -0.0038(2)
H11 H 0.0961 0.1604 -0.0817
C14 C 0.1193(3) 0.20807(5) 0.0744(2)
C15 C 0.2393(3) 0.23404(6) 0.1880(3)
H12 H 0.1992 0.2548 0.2400
C16 C 0.4175(3) 0.22918(7) 0.2240(3)
H13 H 0.4993 0.2469 0.2995
C17 C 0.4777(3) 0.19805(6) 0.1490(3)
H14 H 0.6001 0.1945 0.1782
C18 C 0.4217(2) 0.13849(5) -0.0482(3)
C19 C 0.5494(3) 0.10889(6) 0.0722(3)
H15 H 0.5704 0.0877 0.0024
H16 H 0.4987 0.0981 0.1532
H17 H 0.6606 0.1219 0.1379
C20 C 0.1504(2) 0.14761(5) -0.4841(2)
H18 H 0.2171 0.1292 -0.5288
H19 H 0.1080 0.1692 -0.5690
F4? F -0.1473(14) 0.2357(7) -0.094(2)
F5? F -0.1657(9) 0.1793(2) 0.004(2)
F6? F -0.1041(9) 0.2272(4) 0.1722(13)
loop_
_geom_bond_atom_site_label_1
_geom_bond_atom_site_label_2
_geom_bond_site_symmetry_1
_geom_bond_site_symmetry_2
C1 F1 1_555 1_555
F2 C1 1_555 1_555
F3 C1 1_555 1_555
O1 C9 1_555 1_555
O2 C9 1_555 1_555
O3 N1 1_555 1_555
O4 N2 1_555 1_555
N1 C8 1_555 1_555
N2 C18 1_555 1_555
C2 C3 1_555 1_555
C3 C4 1_555 1_555
C4 H1 1_555 1_555
C5 C4 1_555 1_555
H2 C5 1_555 1_555
C6 C5 1_555 1_555
H3 C6 1_555 1_555
C7 C2 1_555 1_555
H4 C7 1_555 1_555
C8 C2 1_555 1_555
C9 C8 1_555 1_555
C10 O2 1_555 1_555
H5 C10 1_555 1_555
H6 C10 1_555 1_555
H7 C10 1_555 1_555
C11 O3 1_555 1_555
H8 C11 1_555 1_555
H9 C11 1_555 1_555
H10 C11 1_555 1_555
C12 C13 1_555 1_555
C13 H11 1_555 1_555
C14 C1 1_555 1_555
C15 C14 1_555 1_555
H12 C15 1_555 1_555
C16 C15 1_555 1_555
H13 C16 1_555 1_555
C17 C12 1_555 1_555
H14 C17 1_555 1_555
C18 C12 1_555 1_555
C19 C18 1_555 1_555
H15 C19 1_555 1_555
H16 C19 1_555 1_555
H17 C19 1_555 1_555
C20 O4 1_555 1_555
H18 C20 1_555 1_555
H19 C20 1_555 1_555
C3 C20 1_555 1_555
C6 C7 1_555 1_555
C13 C14 1_555 1_555
C16 C17 1_555 1_555

#END
