
#######################################################################
#
#                 Cambridge Crystallographic Data Centre
#                                CCDC 
#
#######################################################################
#
# If this CIF has been generated from an entry in the Cambridge 
# Structural Database, then it will include bibliographic, chemical, 
# crystal, experimental, refinement or atomic coordinate data resulting 
# from the CCDC's data processing and validation procedures.
#
#######################################################################

data_FOHSIG
_chemical_formula_moiety         'C11 H10 Br2 O3'
_chemical_name_systematic        'methyl 3,4-dibromo-2-oxo-4-phenylbutanoate'
_symmetry_cell_setting           orthorhombic
_symmetry_space_group_name_H-M   'P b c a'
_symmetry_Int_Tables_number      61
_space_group_name_Hall           '-P 2ac 2ab'
loop_
_symmetry_equiv_pos_site_id
_symmetry_equiv_pos_as_xyz
1 x,y,z
2 1/2-x,-y,1/2+z
3 1/2+x,1/2-y,-z
4 -x,1/2+y,1/2-z
5 -x,-y,-z
6 1/2+x,y,1/2-z
7 1/2-x,1/2+y,z
8 x,1/2-y,1/2+z
_cell_length_a                   10.6547(13)
_cell_length_b                   14.1169(10)
_cell_length_c                   16.8780(13)
_cell_angle_alpha                90
_cell_angle_beta                 90
_cell_angle_gamma                90
_cell_volume                     2538.64
_exptl_crystal_colour            'light colorless'
_exptl_crystal_description       block
_cell_formula_units_Z            8
loop_
_atom_site_label
_atom_site_type_symbol
_atom_site_fract_x
_atom_site_fract_y
_atom_site_fract_z
Br1 Br 0.18124(9) 0.53478(5) 0.30032(4)
Br2 Br 0.04988(10) 0.22256(6) 0.29778(4)
O1 O 0.0944(4) 0.4280(3) 0.0580(2)
O2 O 0.2728(5) 0.4001(4) 0.1234(2)
O3 O -0.0322(5) 0.4123(5) 0.1919(2)
C1 C 0.2574(7) 0.3230(5) 0.4316(4)
H1 H 0.3080 0.3091 0.3882
C2 C 0.3070(7) 0.3168(5) 0.5069(4)
H2 H 0.3896 0.2975 0.5145
C3 C 0.2320(8) 0.3399(5) 0.5712(4)
H3 H 0.2643 0.3358 0.6223
C4 C 0.1123(8) 0.3681(6) 0.5601(4)
H4 H 0.0634 0.3845 0.6036
C5 C 0.0608(7) 0.3731(5) 0.4843(4)
H5 H -0.0220 0.3923 0.4773
C6 C 0.1339(6) 0.3493(4) 0.4193(3)
C7 C 0.0768(6) 0.3543(5) 0.3385(3)
H6 H -0.0049 0.3857 0.3427
C8 C 0.1506(6) 0.4014(5) 0.2736(3)
H7 H 0.2305 0.3683 0.2656
C9 C 0.0796(8) 0.4082(5) 0.1956(3)
C10 C 0.1620(7) 0.4115(5) 0.1216(3)
C11 C 0.1608(7) 0.4301(5) -0.0164(3)
H8 H 0.1030 0.4441 -0.0584
H9 H 0.1988 0.3695 -0.0258
H10 H 0.2247 0.4779 -0.0146
loop_
_geom_bond_atom_site_label_1
_geom_bond_atom_site_label_2
_geom_bond_site_symmetry_1
_geom_bond_site_symmetry_2
Br1 C8 1_555 1_555
Br2 C7 1_555 1_555
O1 C10 1_555 1_555
O2 C10 1_555 1_555
O3 C9 1_555 1_555
C1 H1 1_555 1_555
C2 C1 1_555 1_555
H2 C2 1_555 1_555
C3 C2 1_555 1_555
H3 C3 1_555 1_555
C4 C3 1_555 1_555
H4 C4 1_555 1_555
C5 C4 1_555 1_555
H5 C5 1_555 1_555
C6 C1 1_555 1_555
C7 C6 1_555 1_555
H6 C7 1_555 1_555
C8 C7 1_555 1_555
H7 C8 1_555 1_555
C9 C8 1_555 1_555
C10 C9 1_555 1_555
C11 O1 1_555 1_555
H8 C11 1_555 1_555
H9 C11 1_555 1_555
H10 C11 1_555 1_555
C5 C6 1_555 1_555

#END
