
#######################################################################
#
#                 Cambridge Crystallographic Data Centre
#                                CCDC 
#
#######################################################################
#
# If this CIF has been generated from an entry in the Cambridge 
# Structural Database, then it will include bibliographic, chemical, 
# crystal, experimental, refinement or atomic coordinate data resulting 
# from the CCDC's data processing and validation procedures.
#
#######################################################################

data_FOHWIK
_chemical_formula_moiety         'C50 H42 N2 Si2'
_chemical_name_systematic        
1,3-Dimesityl-2,2,4,4-tetrakis(phenylethynyl)-1,3,2,4-diazadisiletidine
_symmetry_cell_setting           monoclinic
_symmetry_space_group_name_H-M   'P 21/c'
_symmetry_Int_Tables_number      14
_space_group_name_Hall           '-P 2ybc'
loop_
_symmetry_equiv_pos_site_id
_symmetry_equiv_pos_as_xyz
1 x,y,z
2 -x,1/2+y,1/2-z
3 -x,-y,-z
4 x,1/2-y,1/2+z
_cell_length_a                   16.116(5)
_cell_length_b                   12.857(3)
_cell_length_c                   19.481(5)
_cell_angle_alpha                90
_cell_angle_beta                 95.63(2)
_cell_angle_gamma                90
_cell_volume                     4017.06
_exptl_crystal_colour            colorless
_exptl_crystal_description       arris-piece
_cell_formula_units_Z            4
loop_
_atom_site_label
_atom_site_type_symbol
_atom_site_fract_x
_atom_site_fract_y
_atom_site_fract_z
Si1 Si 0.06238(19) -0.0594(2) 0.00297(15)
N1 N 0.0302(5) 0.0449(6) 0.0489(4)
C1 C 0.0622(5) 0.0898(5) 0.1144(3)
C2 C 0.0416(4) 0.0494(5) 0.1767(4)
C3 C 0.0705(5) 0.0975(6) 0.2384(3)
H1 H 0.0564 0.0700 0.2809
C4 C 0.1200(5) 0.1860(6) 0.2377(3)
C5 C 0.1406(4) 0.2264(5) 0.1754(4)
H2 H 0.1745 0.2868 0.1750
C6 C 0.1117(5) 0.1783(6) 0.1137(3)
C7 C -0.0120(9) -0.0493(9) 0.1791(6)
H3 H -0.0591 -0.0454 0.1432
H4 H -0.0332 -0.0549 0.2244
H5 H 0.0219 -0.1105 0.1711
C8 C 0.1499(9) 0.2386(10) 0.3080(6)
H6 H 0.1684 0.3098 0.2998
H7 H 0.1963 0.1987 0.3312
H8 H 0.1037 0.2404 0.3372
C9 C 0.1318(7) 0.2267(10) 0.0461(7)
H9 H 0.1724 0.2829 0.0556
H10 H 0.0807 0.2547 0.0216
H11 H 0.1553 0.1735 0.0176
C10 C 0.1581(7) -0.0417(9) -0.0396(6)
C11 C 0.2267(7) -0.0443(9) -0.0606(5)
C12 C 0.3088(4) -0.0458(7) -0.0816(5)
C13 C 0.3453(5) -0.1404(6) -0.0955(5)
H12 H 0.3142 -0.2030 -0.0938
C14 C 0.4273(5) -0.1437(8) -0.1117(6)
H13 H 0.4523 -0.2084 -0.1212
C15 C 0.4729(4) -0.0522(10) -0.1141(6)
H14 H 0.5290 -0.0543 -0.1252
C16 C 0.4365(7) 0.0425(8) -0.1002(6)
H15 H 0.4676 0.1051 -0.1018
C17 C 0.3544(7) 0.0457(6) -0.0839(6)
H16 H 0.3295 0.1105 -0.0744
C18 C 0.0807(7) -0.1793(9) 0.0489(5)
C19 C 0.1110(7) -0.2506(8) 0.0867(6)
C20 C 0.1489(5) -0.3279(5) 0.1316(4)
C21 C 0.1316(5) -0.3306(6) 0.2001(4)
H17 H 0.0928 -0.2829 0.2162
C22 C 0.1709(6) -0.4031(7) 0.2451(3)
H18 H 0.1591 -0.4050 0.2919
C23 C 0.2276(5) -0.4730(6) 0.2217(4)
H19 H 0.2546 -0.5225 0.2524
C24 C 0.2450(5) -0.4703(5) 0.1532(5)
H20 H 0.2837 -0.5180 0.1372
C25 C 0.2056(5) -0.3977(6) 0.1082(3)
H21 H 0.2174 -0.3959 0.0614
Si1B Si -0.06238(19) 0.0594(2) -0.00297(15)
N1B N -0.0302(5) -0.0449(6) -0.0489(4)
C1B C -0.0622(5) -0.0898(5) -0.1144(3)
C2B C -0.0416(4) -0.0494(5) -0.1767(4)
C3B C -0.0705(5) -0.0975(6) -0.2384(3)
H1B H -0.0564 -0.0700 -0.2809
C4B C -0.1200(5) -0.1860(6) -0.2377(3)
C5B C -0.1406(4) -0.2264(5) -0.1754(4)
H2B H -0.1745 -0.2868 -0.1750
C6B C -0.1117(5) -0.1783(6) -0.1137(3)
C7B C 0.0120(9) 0.0493(9) -0.1791(6)
H3B H 0.0591 0.0454 -0.1432
H4B H 0.0332 0.0549 -0.2244
H5B H -0.0219 0.1105 -0.1711
C8B C -0.1499(9) -0.2386(10) -0.3080(6)
H6B H -0.1684 -0.3098 -0.2998
H7B H -0.1963 -0.1987 -0.3312
H8B H -0.1037 -0.2404 -0.3372
C9B C -0.1318(7) -0.2267(10) -0.0461(7)
H9B H -0.1724 -0.2829 -0.0556
H10B H -0.0807 -0.2547 -0.0216
H11B H -0.1553 -0.1735 -0.0176
C10B C -0.1581(7) 0.0417(9) 0.0396(6)
C11B C -0.2267(7) 0.0443(9) 0.0606(5)
C12B C -0.3088(4) 0.0458(7) 0.0816(5)
C13B C -0.3453(5) 0.1404(6) 0.0955(5)
H12B H -0.3142 0.2030 0.0938
C14B C -0.4273(5) 0.1437(8) 0.1117(6)
H13B H -0.4523 0.2084 0.1212
C15B C -0.4729(4) 0.0522(10) 0.1141(6)
H14B H -0.5290 0.0543 0.1252
C16B C -0.4365(7) -0.0425(8) 0.1002(6)
H15B H -0.4676 -0.1051 0.1018
C17B C -0.3544(7) -0.0457(6) 0.0839(6)
H16B H -0.3295 -0.1105 0.0744
C18B C -0.0807(7) 0.1793(9) -0.0489(5)
C19B C -0.1110(7) 0.2506(8) -0.0867(6)
C20B C -0.1489(5) 0.3279(5) -0.1316(4)
C21B C -0.1316(5) 0.3306(6) -0.2001(4)
H17B H -0.0928 0.2829 -0.2162
C22B C -0.1709(6) 0.4031(7) -0.2451(3)
H18B H -0.1591 0.4050 -0.2919
C23B C -0.2276(5) 0.4730(6) -0.2217(4)
H19B H -0.2546 0.5225 -0.2524
C24B C -0.2450(5) 0.4703(5) -0.1532(5)
H20B H -0.2837 0.5180 -0.1372
C25B C -0.2056(5) 0.3977(6) -0.1082(3)
H21B H -0.2174 0.3959 -0.0614
Si2 Si 0.4398(2) 0.5618(3) 0.0017(2)
N2 N 0.4733(6) 0.4493(7) 0.0427(5)
C26 C 0.4427(7) 0.3904(8) 0.0974(6)
C27 C 0.4683(5) 0.4173(7) 0.1653(8)
C28 C 0.4396(7) 0.3613(9) 0.2192(5)
H22 H 0.4571 0.3796 0.2656
C29 C 0.3852(8) 0.2783(9) 0.2052(5)
C30 C 0.3596(6) 0.2514(7) 0.1373(6)
H23 H 0.3225 0.1947 0.1277
C31 C 0.3883(7) 0.3075(9) 0.0834(5)
C32 C 0.5249(9) 0.5081(12) 0.1844(8)
H24 H 0.5675 0.4874 0.2212
H25 H 0.4920 0.5658 0.2005
H26 H 0.5519 0.5304 0.1439
C33 C 0.3550(11) 0.2240(18) 0.2696(14)
H27 H 0.3322 0.1554 0.2565
H28 H 0.3116 0.2664 0.2879
H29 H 0.4021 0.2160 0.3051
C34 C 0.3607(9) 0.2808(13) 0.0094(13)
H30 H 0.3240 0.2199 0.0078
H31 H 0.4096 0.2652 -0.0150
H32 H 0.3305 0.3399 -0.0129
C35 C 0.4270(7) 0.6729(9) 0.0582(7)
C36 C 0.3981(7) 0.7348(9) 0.0939(7)
C37 C 0.3591(5) 0.8009(6) 0.1404(4)
C38 C 0.3584(6) 0.7760(6) 0.2097(4)
H33 H 0.3885 0.7172 0.2283
C39 C 0.3136(6) 0.8371(9) 0.2520(4)
H34 H 0.3132 0.8201 0.2994
C40 C 0.2696(6) 0.9231(8) 0.2249(5)
H35 H 0.2390 0.9648 0.2538
C41 C 0.2702(5) 0.9480(6) 0.1555(6)
H36 H 0.2401 1.0068 0.1370
C42 C 0.3150(6) 0.8869(7) 0.1133(4)
H37 H 0.3154 0.9039 0.0658
C43 C 0.3389(9) 0.5549(11) -0.0484(7)
C44 C 0.2658(9) 0.5576(10) -0.0698(7)
C45 C 0.1759(3) 0.5606(7) -0.0873(4)
C46 C 0.1395(5) 0.6462(6) -0.1219(4)
H38 H 0.1734 0.7012 -0.1358
C47 C 0.0533(6) 0.6513(6) -0.1361(4)
H39 H 0.0285 0.7098 -0.1598
C48 C 0.0036(4) 0.5708(7) -0.1158(4)
H40 H -0.0552 0.5743 -0.1255
C49 C 0.0400(4) 0.4852(6) -0.0812(4)
H41 H 0.0061 0.4302 -0.0673
C50 C 0.1262(5) 0.4801(6) -0.0670(4)
H42 H 0.1510 0.4216 -0.0433
Si2B Si 0.5602(2) 0.4382(3) -0.0017(2)
N2B N 0.5267(6) 0.5507(7) -0.0427(5)
C26B C 0.5573(7) 0.6096(8) -0.0974(6)
C27B C 0.5317(5) 0.5827(7) -0.1653(8)
C28B C 0.5604(7) 0.6387(9) -0.2192(5)
H22B H 0.5429 0.6204 -0.2656
C29B C 0.6148(8) 0.7217(9) -0.2052(5)
C30B C 0.6404(6) 0.7486(7) -0.1373(6)
H23B H 0.6775 0.8053 -0.1277
C31B C 0.6117(7) 0.6925(9) -0.0834(5)
C32B C 0.4751(9) 0.4919(12) -0.1844(8)
H24B H 0.4325 0.5126 -0.2212
H25B H 0.5080 0.4342 -0.2005
H26B H 0.4481 0.4696 -0.1439
C33B C 0.6450(11) 0.7760(18) -0.2696(14)
H27B H 0.6678 0.8446 -0.2565
H28B H 0.6884 0.7336 -0.2879
H29B H 0.5979 0.7840 -0.3051
C34B C 0.6393(9) 0.7192(13) -0.0094(13)
H30B H 0.6760 0.7801 -0.0078
H31B H 0.5904 0.7348 0.0150
H32B H 0.6695 0.6601 0.0129
C35B C 0.5730(7) 0.3271(9) -0.0582(7)
C36B C 0.6019(7) 0.2652(9) -0.0939(7)
C37B C 0.6409(5) 0.1991(6) -0.1404(4)
C38B C 0.6416(6) 0.2240(6) -0.2097(4)
H33B H 0.6115 0.2828 -0.2283
C39B C 0.6864(6) 0.1629(9) -0.2520(4)
H34B H 0.6868 0.1799 -0.2994
C40B C 0.7304(6) 0.0769(8) -0.2249(5)
H35B H 0.7610 0.0352 -0.2538
C41B C 0.7298(5) 0.0520(6) -0.1555(6)
H36B H 0.7599 -0.0068 -0.1370
C42B C 0.6850(6) 0.1131(7) -0.1133(4)
H37B H 0.6846 0.0961 -0.0658
C43B C 0.6611(9) 0.4451(11) 0.0484(7)
C44B C 0.7342(9) 0.4424(10) 0.0698(7)
C45B C 0.8241(3) 0.4394(7) 0.0873(4)
C46B C 0.8605(5) 0.3538(6) 0.1219(4)
H38B H 0.8266 0.2988 0.1358
C47B C 0.9467(6) 0.3487(6) 0.1361(4)
H39B H 0.9715 0.2902 0.1598
C48B C 0.9964(4) 0.4292(7) 0.1158(4)
H40B H 1.0552 0.4257 0.1255
C49B C 0.9600(4) 0.5148(6) 0.0812(4)
H41B H 0.9939 0.5698 0.0673
C50B C 0.8738(5) 0.5199(6) 0.0670(4)
H42B H 0.8490 0.5784 0.0433
loop_
_geom_bond_atom_site_label_1
_geom_bond_atom_site_label_2
_geom_bond_site_symmetry_1
_geom_bond_site_symmetry_2
Si1 N1 1_555 1_555
N1 C1 1_555 1_555
C1 C2 1_555 1_555
C2 C3 1_555 1_555
C3 H1 1_555 1_555
C4 C3 1_555 1_555
C5 C4 1_555 1_555
H2 C5 1_555 1_555
C6 C1 1_555 1_555
C7 C2 1_555 1_555
H3 C7 1_555 1_555
H4 C7 1_555 1_555
H5 C7 1_555 1_555
C8 C4 1_555 1_555
H6 C8 1_555 1_555
H7 C8 1_555 1_555
H8 C8 1_555 1_555
C9 C6 1_555 1_555
H9 C9 1_555 1_555
H10 C9 1_555 1_555
H11 C9 1_555 1_555
C10 Si1 1_555 1_555
C11 C10 1_555 1_555
C12 C11 1_555 1_555
C13 C12 1_555 1_555
H12 C13 1_555 1_555
C14 C13 1_555 1_555
H13 C14 1_555 1_555
C15 C14 1_555 1_555
H14 C15 1_555 1_555
C16 C15 1_555 1_555
H15 C16 1_555 1_555
C17 C12 1_555 1_555
H16 C17 1_555 1_555
C18 Si1 1_555 1_555
C19 C18 1_555 1_555
C20 C19 1_555 1_555
C21 C20 1_555 1_555
H17 C21 1_555 1_555
C22 C21 1_555 1_555
H18 C22 1_555 1_555
C23 C22 1_555 1_555
H19 C23 1_555 1_555
C24 C23 1_555 1_555
H20 C24 1_555 1_555
C25 C20 1_555 1_555
H21 C25 1_555 1_555
Si2 N2 1_555 1_555
N2 C26 1_555 1_555
C26 C27 1_555 1_555
C27 C28 1_555 1_555
C28 H22 1_555 1_555
C29 C28 1_555 1_555
C30 C29 1_555 1_555
H23 C30 1_555 1_555
C31 C26 1_555 1_555
C32 C27 1_555 1_555
H24 C32 1_555 1_555
H25 C32 1_555 1_555
H26 C32 1_555 1_555
C33 C29 1_555 1_555
H27 C33 1_555 1_555
H28 C33 1_555 1_555
H29 C33 1_555 1_555
C34 C31 1_555 1_555
H30 C34 1_555 1_555
H31 C34 1_555 1_555
H32 C34 1_555 1_555
C35 Si2 1_555 1_555
C36 C35 1_555 1_555
C37 C36 1_555 1_555
C38 C37 1_555 1_555
H33 C38 1_555 1_555
C39 C38 1_555 1_555
H34 C39 1_555 1_555
C40 C39 1_555 1_555
H35 C40 1_555 1_555
C41 C40 1_555 1_555
H36 C41 1_555 1_555
C42 C37 1_555 1_555
H37 C42 1_555 1_555
C43 Si2 1_555 1_555
C44 C43 1_555 1_555
C45 C44 1_555 1_555
C46 C45 1_555 1_555
H38 C46 1_555 1_555
C47 C46 1_555 1_555
H39 C47 1_555 1_555
C48 C47 1_555 1_555
H40 C48 1_555 1_555
C49 C48 1_555 1_555
H41 C49 1_555 1_555
C50 C45 1_555 1_555
H42 C50 1_555 1_555
Si1B N1 1_555 1_555
N1B Si1 1_555 1_555
C1B N1B 1_555 1_555
C2B C1B 1_555 1_555
C3B C2B 1_555 1_555
H1B C3B 1_555 1_555
C4B C3B 1_555 1_555
C5B C4B 1_555 1_555
H2B C5B 1_555 1_555
C6B C1B 1_555 1_555
C7B C2B 1_555 1_555
H3B C7B 1_555 1_555
H4B C7B 1_555 1_555
H5B C7B 1_555 1_555
C8B C4B 1_555 1_555
H6B C8B 1_555 1_555
H7B C8B 1_555 1_555
H8B C8B 1_555 1_555
C9B C6B 1_555 1_555
H9B C9B 1_555 1_555
H10B C9B 1_555 1_555
H11B C9B 1_555 1_555
C10B Si1B 1_555 1_555
C11B C10B 1_555 1_555
C12B C11B 1_555 1_555
C13B C12B 1_555 1_555
H12B C13B 1_555 1_555
C14B C13B 1_555 1_555
H13B C14B 1_555 1_555
C15B C14B 1_555 1_555
H14B C15B 1_555 1_555
C16B C15B 1_555 1_555
H15B C16B 1_555 1_555
C17B C12B 1_555 1_555
H16B C17B 1_555 1_555
C18B Si1B 1_555 1_555
C19B C18B 1_555 1_555
C20B C19B 1_555 1_555
C21B C20B 1_555 1_555
H17B C21B 1_555 1_555
C22B C21B 1_555 1_555
H18B C22B 1_555 1_555
C23B C22B 1_555 1_555
H19B C23B 1_555 1_555
C24B C23B 1_555 1_555
H20B C24B 1_555 1_555
C25B C20B 1_555 1_555
H21B C25B 1_555 1_555
Si2B N2 1_555 1_555
N2B Si2 1_555 1_555
C26B N2B 1_555 1_555
C27B C26B 1_555 1_555
C28B C27B 1_555 1_555
H22B C28B 1_555 1_555
C29B C28B 1_555 1_555
C30B C29B 1_555 1_555
H23B C30B 1_555 1_555
C31B C26B 1_555 1_555
C32B C27B 1_555 1_555
H24B C32B 1_555 1_555
H25B C32B 1_555 1_555
H26B C32B 1_555 1_555
C33B C29B 1_555 1_555
H27B C33B 1_555 1_555
H28B C33B 1_555 1_555
H29B C33B 1_555 1_555
C34B C31B 1_555 1_555
H30B C34B 1_555 1_555
H31B C34B 1_555 1_555
H32B C34B 1_555 1_555
C35B Si2B 1_555 1_555
C36B C35B 1_555 1_555
C37B C36B 1_555 1_555
C38B C37B 1_555 1_555
H33B C38B 1_555 1_555
C39B C38B 1_555 1_555
H34B C39B 1_555 1_555
C40B C39B 1_555 1_555
H35B C40B 1_555 1_555
C41B C40B 1_555 1_555
H36B C41B 1_555 1_555
C42B C37B 1_555 1_555
H37B C42B 1_555 1_555
C43B Si2B 1_555 1_555
C44B C43B 1_555 1_555
C45B C44B 1_555 1_555
C46B C45B 1_555 1_555
H38B C46B 1_555 1_555
C47B C46B 1_555 1_555
H39B C47B 1_555 1_555
C48B C47B 1_555 1_555
H40B C48B 1_555 1_555
C49B C48B 1_555 1_555
H41B C49B 1_555 1_555
C50B C45B 1_555 1_555
H42B C50B 1_555 1_555
C5 C6 1_555 1_555
C16 C17 1_555 1_555
C24 C25 1_555 1_555
C30 C31 1_555 1_555
C41 C42 1_555 1_555
C49 C50 1_555 1_555
Si1B N1B 1_555 1_555
C5B C6B 1_555 1_555
C16B C17B 1_555 1_555
C24B C25B 1_555 1_555
Si2B N2B 1_555 1_555
C30B C31B 1_555 1_555
C41B C42B 1_555 1_555
C49B C50B 1_555 1_555

#END
