
#######################################################################
#
#                 Cambridge Crystallographic Data Centre
#                                CCDC 
#
#######################################################################
#
# If this CIF has been generated from an entry in the Cambridge 
# Structural Database, then it will include bibliographic, chemical, 
# crystal, experimental, refinement or atomic coordinate data resulting 
# from the CCDC's data processing and validation procedures.
#
#######################################################################

data_FOJDEO
_chemical_formula_moiety         'C30 H34 N2 O1'
_chemical_name_systematic        2,5-bis((Diethyl-3'-indolyl)methyl)furan
_symmetry_cell_setting           triclinic
_symmetry_space_group_name_H-M   'P -1'
_symmetry_Int_Tables_number      2
_space_group_name_Hall           '-P 1'
loop_
_symmetry_equiv_pos_site_id
_symmetry_equiv_pos_as_xyz
1 x,y,z
2 -x,-y,-z
_cell_length_a                   9.9860(10)
_cell_length_b                   14.118(2)
_cell_length_c                   19.207(2)
_cell_angle_alpha                104.949(2)
_cell_angle_beta                 96.480(2)
_cell_angle_gamma                105.403(2)
_cell_volume                     2473.95
_exptl_crystal_colour            colorless
_exptl_crystal_description       prism
_chemical_melting_point          173-176deg.C
_cell_formula_units_Z            4
_exptl_crystal_recrystallization_method 'diethyl ether/hexane'
loop_
_atom_site_label
_atom_site_type_symbol
_atom_site_fract_x
_atom_site_fract_y
_atom_site_fract_z
O1 O 0.24437(10) 0.25182(7) 1.00102(5)
C1 C 0.34639(15) 0.26633(12) 1.06102(8)
C2 C 0.35462(15) 0.16964(11) 1.07793(8)
C3 C 0.40431(17) 0.10603(13) 1.01293(9)
C4 C 0.55256(19) 0.15857(15) 1.00327(10)
C5 C 0.46157(17) 0.19836(13) 1.15087(9)
C6 C 0.49300(19) 0.10563(14) 1.16703(10)
N1 N 0.01759(15) -0.01759(11) 1.08550(7)
C7 C 0.14732(17) 0.00626(12) 1.06522(9)
C8 C 0.20984(15) 0.11047(11) 1.08673(8)
C9 C 0.11112(15) 0.15476(11) 1.12222(8)
C10 C 0.10984(17) 0.25579(12) 1.15458(8)
C11 C -0.00855(17) 0.27132(13) 1.18052(9)
C12 C -0.12632(18) 0.18782(14) 1.17619(9)
C13 C -0.12744(17) 0.08751(13) 1.14620(8)
C14 C -0.00861(16) 0.07203(12) 1.11929(8)
C15 C 0.42132(17) 0.36711(12) 1.08755(9)
C16 C 0.36424(17) 0.41853(13) 1.04233(9)
C17 C 0.25813(16) 0.34685(11) 0.99029(9)
C18 C 0.15677(17) 0.35061(12) 0.92720(9)
C19 C 0.0261(2) 0.37341(14) 0.95525(11)
C20 C -0.0591(2) 0.29678(18) 0.98902(12)
C21 C 0.2363(2) 0.44151(14) 0.90034(11)
C22 C 0.1513(3) 0.46172(18) 0.83790(13)
N2 N -0.00905(16) 0.11948(11) 0.76448(8)
C23 C -0.01471(18) 0.20131(13) 0.82048(9)
C24 C 0.11581(16) 0.25138(12) 0.86423(8)
C25 C 0.20938(17) 0.19663(12) 0.83370(8)
C26 C 0.35414(18) 0.20873(13) 0.85136(9)
C27 C 0.4103(2) 0.14056(15) 0.80796(10)
C28 C 0.3251(2) 0.05972(14) 0.74691(10)
C29 C 0.1828(2) 0.04567(14) 0.72805(10)
C30 C 0.12656(17) 0.11427(12) 0.77195(9)
H1 H -0.041(2) -0.0785(14) 1.0753(10)
H2 H 0.3351(16) 0.0930(12) 0.9678(9)
H3 H 0.3982(16) 0.0376(12) 1.0201(8)
H4 H 0.5736(18) 0.1198(14) 0.9561(10)
H5 H 0.6293(18) 0.1610(13) 1.0425(10)
H6 H 0.5650(17) 0.2321(14) 1.0015(9)
H7 H 0.4234(16) 0.2362(12) 1.1921(9)
H8 H 0.5513(16) 0.2470(12) 1.1488(8)
H9 H 0.5482(18) 0.1249(13) 1.2181(10)
H10 H 0.5534(17) 0.0768(12) 1.1344(9)
H11 H 0.4043(18) 0.0498(13) 1.1620(8)
H12 H 0.1823(17) -0.0487(13) 1.0383(9)
H13 H 0.1898(17) 0.3151(13) 1.1587(9)
H14 H -0.0108(18) 0.3431(14) 1.2026(9)
H15 H -0.2096(18) 0.2003(13) 1.1954(9)
H16 H -0.2084(18) 0.0309(13) 1.1453(9)
H17 H 0.4995(17) 0.3994(12) 1.1290(9)
H18 H 0.3973(17) 0.4905(14) 1.0480(9)
H19 H -0.088(2) 0.0718(15) 0.7317(11)
H20 H -0.0382(18) 0.3809(13) 0.9148(10)
H21 H 0.066(2) 0.4430(15) 0.9921(11)
H22 H -0.136(2) 0.3233(15) 1.0107(11)
H23 H 0.002(2) 0.2879(16) 1.0288(12)
H24 H -0.106(2) 0.2287(18) 0.9515(13)
H25 H 0.328(2) 0.4279(13) 0.8843(9)
H26 H 0.266(2) 0.5047(15) 0.9438(11)
H27 H 0.212(2) 0.5190(15) 0.8223(10)
H28 H 0.068(2) 0.4852(16) 0.8531(12)
H29 H 0.112(2) 0.4008(18) 0.7931(13)
H30 H -0.1057(18) 0.2153(12) 0.8228(9)
H31 H 0.4161(17) 0.2630(13) 0.8937(9)
H32 H 0.509(2) 0.1482(13) 0.8199(9)
H33 H 0.3707(19) 0.0137(14) 0.7177(10)
H34 H 0.121(2) -0.0104(15) 0.6860(10)
O2 O 0.71702(12) 0.68906(8) 0.43069(6)
C31 C 0.6320(2) 0.67894(12) 0.36553(9)
C32 C 0.4785(2) 0.62009(12) 0.35445(9)
C33 C 0.4065(3) 0.68935(15) 0.40308(12)
C34 C 0.4062(4) 0.78714(19) 0.38326(15)
C35 C 0.4127(2) 0.59154(15) 0.27173(10)
C36 C 0.2545(2) 0.53904(19) 0.25223(13)
N3 N 0.39873(16) 0.39484(11) 0.42700(9)
C37 C 0.3777(2) 0.48397(14) 0.41912(10)
C38 C 0.46502(17) 0.52293(12) 0.37666(9)
C39 C 0.54668(17) 0.45331(12) 0.35731(9)
C40 C 0.65493(19) 0.45118(14) 0.31706(9)
C41 C 0.7163(2) 0.37339(14) 0.31158(10)
C42 C 0.6715(2) 0.29681(14) 0.34530(10)
C43 C 0.5648(2) 0.29607(13) 0.38489(10)
C44 C 0.50321(17) 0.37477(12) 0.39038(9)
C45 C 0.7103(2) 0.72986(16) 0.32669(11)
C46 C 0.8503(2) 0.77423(16) 0.36856(10)
C47 C 0.85160(19) 0.74832(12) 0.43100(9)
C48 C 0.96513(19) 0.76414(13) 0.49462(9)
C49 C 1.0104(3) 0.66571(18) 0.48266(12)
C50 C 0.9420(5) 0.5734(4) 0.4772(3)
C52 C 1.09049(19) 0.85823(15) 0.49615(11)
C53 C 1.2246(2) 0.8782(2) 0.55017(12)
N4 N 0.88431(16) 0.79658(12) 0.68201(8)
C54 C 0.94579(18) 0.75640(14) 0.62597(9)
C55 C 0.91261(17) 0.78742(12) 0.56616(9)
C56 C 0.82388(17) 0.85150(12) 0.58667(9)
C57 C 0.7534(2) 0.90477(13) 0.55117(11)
C58 C 0.6739(2) 0.95926(14) 0.58880(13)
C59 C 0.6627(2) 0.96183(15) 0.66146(13)
C60 C 0.7291(2) 0.90970(15) 0.69743(11)
C61 C 0.80916(18) 0.85486(13) 0.65986(9)
H35 H 0.358(2) 0.3609(15) 0.4549(11)
H36 H 0.456(2) 0.7078(15) 0.4556(11)
H37 H 0.306(2) 0.6492(15) 0.3998(11)
H38 H 0.363(2) 0.8286(18) 0.4196(13)
H39 H 0.345(2) 0.7722(18) 0.3354(14)
H40 H 0.504(3) 0.8278(18) 0.3814(12)
H41 H 0.4635(18) 0.5464(14) 0.2434(10)
H42 H 0.4369(18) 0.6544(14) 0.2561(10)
H43 H 0.219(2) 0.5153(17) 0.1969(13)
H44 H 0.199(2) 0.5856(16) 0.2736(11)
H45 H 0.227(2) 0.4785(17) 0.2707(11)
H46 H 0.3065(19) 0.5106(13) 0.4426(10)
H47 H 0.6872(18) 0.5050(14) 0.2947(10)
H48 H 0.796(2) 0.3741(14) 0.2825(10)
H49 H 0.7177(18) 0.2411(14) 0.3408(9)
H50 H 0.5334(17) 0.2438(13) 0.4079(9)
H51 H 1.04385 0.65826 0.43724
H52 H 1.08830 0.68258 0.52148
H55 H 0.99894 0.52981 0.47117
H56 H 0.86491 0.54874 0.43573
H57 H 0.90175 0.57192 0.52021
H61 H 1.0550(19) 0.9209(14) 0.5083(10)
H62 H 1.1131(18) 0.8479(13) 0.4455(10)
H63 H 1.297(2) 0.9468(19) 0.5540(12)
H64 H 1.275(2) 0.8265(18) 0.5353(13)
H65 H 1.207(2) 0.8787(14) 0.5991(11)
H66 H 0.679(2) 0.7344(15) 0.2804(12)
H67 H 0.933(2) 0.8095(15) 0.3547(11)
H68 H 0.892(2) 0.7836(16) 0.7251(12)
H69 H 1.006(2) 0.7102(14) 0.6336(10)
H70 H 0.7617(18) 0.9035(13) 0.4993(10)
H71 H 0.625(2) 0.9938(15) 0.5624(11)
H72 H 0.606(2) 1.0003(15) 0.6865(11)
H73 H 0.722(2) 0.9089(15) 0.7463(11)
C51? C 1.0292(4) 0.6196(3) 0.4044(2)
H53? H 1.09811 0.68106 0.51466
H54? H 0.94029 0.61433 0.49349
H58? H 1.05901 0.56159 0.40065
H59? H 1.09733 0.67078 0.39099
H60? H 0.94053 0.60221 0.37211
loop_
_geom_bond_atom_site_label_1
_geom_bond_atom_site_label_2
_geom_bond_site_symmetry_1
_geom_bond_site_symmetry_2
O1 C1 1_555 1_555
C1 C2 1_555 1_555
C2 C3 1_555 1_555
C3 C4 1_555 1_555
C4 H4 1_555 1_555
C5 C2 1_555 1_555
C6 C5 1_555 1_555
N1 C7 1_555 1_555
C7 C8 1_555 1_555
C8 C2 1_555 1_555
C9 C8 1_555 1_555
C10 C9 1_555 1_555
C11 C10 1_555 1_555
C12 C11 1_555 1_555
C13 C12 1_555 1_555
C14 N1 1_555 1_555
C15 C1 1_555 1_555
C16 C15 1_555 1_555
C17 O1 1_555 1_555
C18 C17 1_555 1_555
C19 C18 1_555 1_555
C20 C19 1_555 1_555
C21 C18 1_555 1_555
C22 C21 1_555 1_555
N2 C23 1_555 1_555
C23 C24 1_555 1_555
C24 C18 1_555 1_555
C25 C24 1_555 1_555
C26 C25 1_555 1_555
C27 C26 1_555 1_555
C28 C27 1_555 1_555
C29 C28 1_555 1_555
C30 N2 1_555 1_555
O2 C31 1_555 1_555
C31 C32 1_555 1_555
C32 C33 1_555 1_555
C33 C34 1_555 1_555
C34 H38 1_555 1_555
C35 C32 1_555 1_555
C36 C35 1_555 1_555
N3 C37 1_555 1_555
C37 C38 1_555 1_555
C38 C32 1_555 1_555
C39 C38 1_555 1_555
C40 C39 1_555 1_555
C41 C40 1_555 1_555
C42 C41 1_555 1_555
C43 C42 1_555 1_555
C44 N3 1_555 1_555
C45 C31 1_555 1_555
C46 C45 1_555 1_555
C47 O2 1_555 1_555
C48 C47 1_555 1_555
C49 C48 1_555 1_555
C50 C49 1_555 1_555
C52 C48 1_555 1_555
C53 C52 1_555 1_555
N4 C54 1_555 1_555
C54 C55 1_555 1_555
C55 C48 1_555 1_555
C56 C55 1_555 1_555
C57 C56 1_555 1_555
C58 C57 1_555 1_555
C59 C58 1_555 1_555
C60 C59 1_555 1_555
C61 N4 1_555 1_555
H1 N1 1_555 1_555
H2 C3 1_555 1_555
H3 C3 1_555 1_555
H5 C4 1_555 1_555
H6 C4 1_555 1_555
H7 C5 1_555 1_555
H8 C5 1_555 1_555
H9 C6 1_555 1_555
H10 C6 1_555 1_555
H11 C6 1_555 1_555
H12 C7 1_555 1_555
H13 C10 1_555 1_555
H14 C11 1_555 1_555
H15 C12 1_555 1_555
H16 C13 1_555 1_555
H17 C15 1_555 1_555
H18 C16 1_555 1_555
H19 N2 1_555 1_555
H20 C19 1_555 1_555
H21 C19 1_555 1_555
H22 C20 1_555 1_555
H23 C20 1_555 1_555
H24 C20 1_555 1_555
H25 C21 1_555 1_555
H26 C21 1_555 1_555
H27 C22 1_555 1_555
H28 C22 1_555 1_555
H29 C22 1_555 1_555
H30 C23 1_555 1_555
H31 C26 1_555 1_555
H32 C27 1_555 1_555
H33 C28 1_555 1_555
H34 C29 1_555 1_555
H35 N3 1_555 1_555
H36 C33 1_555 1_555
H37 C33 1_555 1_555
H39 C34 1_555 1_555
H40 C34 1_555 1_555
H41 C35 1_555 1_555
H42 C35 1_555 1_555
H43 C36 1_555 1_555
H44 C36 1_555 1_555
H45 C36 1_555 1_555
H46 C37 1_555 1_555
H47 C40 1_555 1_555
H48 C41 1_555 1_555
H49 C42 1_555 1_555
H50 C43 1_555 1_555
H51 C49 1_555 1_555
H52 C49 1_555 1_555
H55 C50 1_555 1_555
H56 C50 1_555 1_555
H57 C50 1_555 1_555
H61 C52 1_555 1_555
H62 C52 1_555 1_555
H63 C53 1_555 1_555
H64 C53 1_555 1_555
H65 C53 1_555 1_555
H66 C45 1_555 1_555
H67 C46 1_555 1_555
H68 N4 1_555 1_555
H69 C54 1_555 1_555
H70 C57 1_555 1_555
H71 C58 1_555 1_555
H72 C59 1_555 1_555
H73 C60 1_555 1_555
C9 C14 1_555 1_555
C13 C14 1_555 1_555
C16 C17 1_555 1_555
C25 C30 1_555 1_555
C29 C30 1_555 1_555
C39 C44 1_555 1_555
C43 C44 1_555 1_555
C46 C47 1_555 1_555
C56 C61 1_555 1_555
C60 C61 1_555 1_555

#END
