
#######################################################################
#
#                 Cambridge Crystallographic Data Centre
#                                CCDC 
#
#######################################################################
#
# If this CIF has been generated from an entry in the Cambridge 
# Structural Database, then it will include bibliographic, chemical, 
# crystal, experimental, refinement or atomic coordinate data resulting 
# from the CCDC's data processing and validation procedures.
#
#######################################################################

data_FOJGAN
_chemical_name_common            
5-Cyano-1-phenyl-4,7-dihydro-1H-pyrazolo(3,4-b)pyridine
_chemical_formula_moiety         'C13 H10 N4'
_chemical_name_systematic        
1-Phenyl-4,7-dihydro-1H-pyrazolo(3,4-b)pyridin-5-carbonitrile
_symmetry_cell_setting           monoclinic
_symmetry_space_group_name_H-M   'P 21/c'
_symmetry_Int_Tables_number      14
_space_group_name_Hall           '-P 2ybc'
loop_
_symmetry_equiv_pos_site_id
_symmetry_equiv_pos_as_xyz
1 x,y,z
2 -x,1/2+y,1/2-z
3 -x,-y,-z
4 x,1/2-y,1/2+z
_cell_length_a                   12.0030(9)
_cell_length_b                   8.4727(7)
_cell_length_c                   12.1126(6)
_cell_angle_alpha                90
_cell_angle_beta                 115.585(4)
_cell_angle_gamma                90
_cell_volume                     1111.04
_exptl_crystal_colour            colorless
_exptl_crystal_description       needle
_chemical_melting_point          213deg.C
_cell_formula_units_Z            4
_exptl_crystal_recrystallization_method acetonitrile
loop_
_atom_site_label
_atom_site_type_symbol
_atom_site_fract_x
_atom_site_fract_y
_atom_site_fract_z
N1 N 0.4129(2) 0.2028(3) 0.0713(2)
C1 C 0.2663(2) 0.0538(3) 0.1233(2)
N2 N 0.4640(2) 0.0463(3) 0.2551(2)
C2 C 0.1545(3) 0.0986(4) 0.0093(2)
N3 N 0.4036(2) -0.0450(3) 0.3064(2)
C3 C 0.1955(2) 0.2107(3) -0.0630(2)
C4 C 0.3121(3) 0.2574(4) -0.0310(2)
N4 N 0.0246(3) 0.3228(5) -0.2618(3)
C5 C 0.3830(2) 0.1058(3) 0.1462(2)
C6 C 0.1023(3) 0.2738(4) -0.1739(3)
C7 C 0.2851(3) -0.0395(3) 0.2249(2)
C8 C 0.5943(2) 0.0710(3) 0.3178(2)
C9 C 0.6691(3) 0.0230(4) 0.2655(3)
C10 C 0.7956(3) 0.0447(4) 0.3276(4)
C11 C 0.8451(3) 0.1140(5) 0.4416(4)
C12 C 0.7698(3) 0.1616(5) 0.4933(3)
C13 C 0.6431(3) 0.1411(4) 0.4319(3)
H1 H 0.4790(30) 0.2730(40) 0.1060(30)
H2 H 0.0938 0.1492 0.0303
H3 H 0.1173 0.0053 -0.0390
H4 H 0.3261 0.3310 -0.0805
H5 H 0.2220 -0.0921 0.2348
H6 H 0.6352 -0.0240 0.1886
H7 H 0.8470 0.0125 0.2923
H8 H 0.9301 0.1284 0.4835
H9 H 0.8038 0.2081 0.5704
H10 H 0.5917 0.1741 0.4669
loop_
_geom_bond_atom_site_label_1
_geom_bond_atom_site_label_2
_geom_bond_site_symmetry_1
_geom_bond_site_symmetry_2
N1 C4 1_555 1_555
C1 C2 1_555 1_555
N2 N3 1_555 1_555
C2 C3 1_555 1_555
N3 C7 1_555 1_555
C3 C4 1_555 1_555
C4 H4 1_555 1_555
N4 C6 1_555 1_555
C5 N1 1_555 1_555
C6 C3 1_555 1_555
C7 C1 1_555 1_555
C8 N2 1_555 1_555
C9 C8 1_555 1_555
C10 C9 1_555 1_555
C11 C10 1_555 1_555
C12 C11 1_555 1_555
C13 C8 1_555 1_555
H1 N1 1_555 1_555
H2 C2 1_555 1_555
H3 C2 1_555 1_555
H5 C7 1_555 1_555
H6 C9 1_555 1_555
H7 C10 1_555 1_555
H8 C11 1_555 1_555
H9 C12 1_555 1_555
H10 C13 1_555 1_555
C1 C5 1_555 1_555
N2 C5 1_555 1_555
C12 C13 1_555 1_555

#END
