
#######################################################################
#
#                 Cambridge Crystallographic Data Centre
#                                CCDC 
#
#######################################################################
#
# If this CIF has been generated from an entry in the Cambridge 
# Structural Database, then it will include bibliographic, chemical, 
# crystal, experimental, refinement or atomic coordinate data resulting 
# from the CCDC's data processing and validation procedures.
#
#######################################################################

data_FOJJEU
_chemical_formula_moiety         'C14 H15 N1'
_chemical_name_systematic        6-Methyl-6-(N-methylanilino)fulvene
_symmetry_cell_setting           monoclinic
_symmetry_space_group_name_H-M   'P 21/c'
_symmetry_Int_Tables_number      14
_space_group_name_Hall           '-P 2ybc'
loop_
_symmetry_equiv_pos_site_id
_symmetry_equiv_pos_as_xyz
1 x,y,z
2 -x,1/2+y,1/2-z
3 -x,-y,-z
4 x,1/2-y,1/2+z
_cell_length_a                   8.740(1)
_cell_length_b                   18.268(2)
_cell_length_c                   7.256(2)
_cell_angle_alpha                90
_cell_angle_beta                 103.14(2)
_cell_angle_gamma                90
_cell_volume                     1128.18
_exptl_crystal_colour            yellow
_exptl_crystal_description       block
_cell_formula_units_Z            4
_exptl_crystal_recrystallization_method dichloromethane
loop_
_atom_site_label
_atom_site_type_symbol
_atom_site_fract_x
_atom_site_fract_y
_atom_site_fract_z
C1 C 0.3263(4) 1.07646(19) -0.0690(5)
H1 H 0.3555 1.0331 -0.1219
C2 C 0.3501(4) 1.1457(2) -0.1240(5)
H2 H 0.4009 1.1582 -0.2207
C3 C 0.2867(4) 1.1964(2) -0.0135(5)
H3 H 0.2875 1.2476 -0.0254
C4 C 0.2247(4) 1.15830(18) 0.1121(5)
H4 H 0.1748 1.1788 0.2018
C5 C 0.2476(3) 1.08151(18) 0.0860(4)
C6 C 0.2119(3) 1.02794(18) 0.2063(4)
C7 C 0.1696(4) 1.05029(17) 0.3893(4)
H5 H 0.0870 1.0186 0.4129
H6 H 0.1332 1.1006 0.3796
H7 H 0.2615 1.0460 0.4928
N1 N 0.2089(3) 0.95562(14) 0.1732(4)
C8 C 0.2125(4) 0.92337(18) -0.0097(4)
H8 H 0.1620 0.9562 -0.1102
H9 H 0.1572 0.8769 -0.0234
H10 H 0.3207 0.9155 -0.0171
C9 C 0.2188(3) 0.90405(17) 0.3262(4)
C10 C 0.0923(4) 0.85999(17) 0.3352(5)
H11 H -0.0029 0.8645 0.2445
C11 C 0.1074(4) 0.80945(18) 0.4785(5)
H12 H 0.0214 0.7796 0.4864
C12 C 0.2472(4) 0.80200(19) 0.6110(5)
H13 H 0.2563 0.7670 0.7078
C13 C 0.3729(4) 0.8454(2) 0.6017(5)
H14 H 0.4680 0.8408 0.6927
C14 C 0.3590(4) 0.89609(18) 0.4576(4)
H15 H 0.4457 0.9253 0.4491
loop_
_geom_bond_atom_site_label_1
_geom_bond_atom_site_label_2
_geom_bond_site_symmetry_1
_geom_bond_site_symmetry_2
C1 H1 1_555 1_555
C2 C1 1_555 1_555
H2 C2 1_555 1_555
C3 C2 1_555 1_555
H3 C3 1_555 1_555
C4 C3 1_555 1_555
H4 C4 1_555 1_555
C5 C1 1_555 1_555
C6 C5 1_555 1_555
C7 C6 1_555 1_555
H5 C7 1_555 1_555
H6 C7 1_555 1_555
H7 C7 1_555 1_555
N1 C6 1_555 1_555
C8 N1 1_555 1_555
H8 C8 1_555 1_555
H9 C8 1_555 1_555
H10 C8 1_555 1_555
C9 N1 1_555 1_555
C10 C9 1_555 1_555
H11 C10 1_555 1_555
C11 C10 1_555 1_555
H12 C11 1_555 1_555
C12 C11 1_555 1_555
H13 C12 1_555 1_555
C13 C12 1_555 1_555
H14 C13 1_555 1_555
C14 C9 1_555 1_555
H15 C14 1_555 1_555
C4 C5 1_555 1_555
C13 C14 1_555 1_555

#END
