
#######################################################################
#
#                 Cambridge Crystallographic Data Centre
#                                CCDC 
#
#######################################################################
#
# If this CIF has been generated from an entry in the Cambridge 
# Structural Database, then it will include bibliographic, chemical, 
# crystal, experimental, refinement or atomic coordinate data resulting 
# from the CCDC's data processing and validation procedures.
#
#######################################################################

data_FOJPUQ
_chemical_name_common            
'Tetra-n-butylammonium 2,2,5,5,7,7,10,10-octamethyl-1,6(2,5)-dithiophena-3,4,8,9(2,5)-tetrapyrrolacyclodecaphane benzoate clathrate dichloromethane solvate'
_chemical_formula_moiety         
'C36 H40 N4 S2,C16 H36 N1 1+,C7 H5 O2 1-,C1 H2 Cl2'
_chemical_name_systematic        
'Tetra-n-butylammonium octamethylcalix(2)bipyrrole(2)thiophene benzoate clathrate dichloromethane solvate'
_symmetry_cell_setting           monoclinic
_symmetry_space_group_name_H-M   'P 21'
_symmetry_Int_Tables_number      4
_space_group_name_Hall           'P 2yb'
loop_
_symmetry_equiv_pos_site_id
_symmetry_equiv_pos_as_xyz
1 x,y,z
2 -x,1/2+y,-z
_cell_length_a                   11.5806(2)
_cell_length_b                   22.8486(4)
_cell_length_c                   12.1009(2)
_cell_angle_alpha                90
_cell_angle_beta                 113.6230(10)
_cell_angle_gamma                90
_cell_volume                     2933.59
_exptl_crystal_colour            colorless
_exptl_crystal_description       laths
_cell_formula_units_Z            2
_exptl_crystal_recrystallization_method dichloromethane/hexanes
loop_
_atom_site_label
_atom_site_type_symbol
_atom_site_fract_x
_atom_site_fract_y
_atom_site_fract_z
S1 S 0.84949(9) 0.42863(4) 0.72376(7)
S2 S 0.15511(9) 0.40420(4) 0.23968(8)
N1 N 0.6111(3) 0.27765(13) 0.6811(2)
N2 N 0.3557(3) 0.26808(13) 0.4956(2)
N3 N 0.4780(3) 0.46971(12) 0.1722(3)
N4 N 0.7345(3) 0.47378(12) 0.3466(2)
C1 C 0.8846(3) 0.42689(15) 0.5984(3)
C2 C 0.8816(3) 0.37110(16) 0.5602(3)
H1 H 0.8961 0.3612 0.4897
C3 C 0.8547(3) 0.32971(16) 0.6336(3)
H2 H 0.8504 0.2884 0.6185
C4 C 0.8366(3) 0.35352(15) 0.7278(3)
C5 C 0.8113(3) 0.32198(16) 0.8272(3)
C6 C 0.7273(3) 0.27069(15) 0.7743(3)
C7 C 0.7391(3) 0.21211(16) 0.8020(3)
H3 H 0.8108 0.1940 0.8638
C8 C 0.6279(3) 0.18351(15) 0.7235(3)
H4 H 0.6097 0.1425 0.7218
C9 C 0.5501(3) 0.22508(14) 0.6499(3)
C10 C 0.4221(3) 0.22033(14) 0.5581(3)
C11 C 0.3429(3) 0.17291(15) 0.5206(3)
H5 H 0.3643 0.1334 0.5485
C12 C 0.2267(3) 0.19231(15) 0.4329(3)
H6 H 0.1537 0.1689 0.3895
C13 C 0.2367(3) 0.25153(14) 0.4187(3)
C14 C 0.1401(3) 0.29627(15) 0.3468(3)
C15 C 0.1881(3) 0.33070(14) 0.2659(3)
C16 C 0.2545(3) 0.31173(15) 0.2037(3)
H7 H 0.2808 0.2718 0.2050
C17 C 0.2801(3) 0.35659(15) 0.1357(3)
H8 H 0.3273 0.3500 0.0873
C18 C 0.2340(3) 0.40946(14) 0.1460(3)
C19 C 0.2421(3) 0.46702(15) 0.0871(3)
C20 C 0.3654(3) 0.46887(14) 0.0723(3)
C21 C 0.3939(3) 0.47001(16) -0.0263(3)
H9 H 0.3335 0.4701 -0.1086
C22 C 0.5262(3) 0.47066(15) 0.0131(3)
H10 H 0.5732 0.4707 -0.0368
C23 C 0.5770(3) 0.47033(14) 0.1372(3)
C24 C 0.7065(3) 0.47287(14) 0.2250(3)
C25 C 0.8181(3) 0.47641(15) 0.2110(3)
H11 H 0.8275 0.4766 0.1357
C26 C 0.9161(3) 0.47992(14) 0.3286(3)
H12 H 1.0046 0.4827 0.3469
C27 C 0.8624(3) 0.47814(14) 0.4108(3)
C28 C 0.9168(3) 0.48201(14) 0.5462(3)
C29 C 0.9381(4) 0.3010(2) 0.9225(3)
H13 H 0.9767 0.2750 0.8851
H14 H 0.9917 0.3343 0.9545
H15 H 0.9259 0.2809 0.9867
C30 C 0.7482(4) 0.36364(19) 0.8870(3)
H16 H 0.6683 0.3764 0.8281
H17 H 0.7359 0.3436 0.9512
H18 H 0.8017 0.3970 0.9190
C31 C 0.0159(4) 0.2660(2) 0.2696(4)
H19 H -0.0151 0.2447 0.3205
H20 H -0.0457 0.2945 0.2238
H21 H 0.0313 0.2394 0.2157
C32 C 0.1165(4) 0.33798(17) 0.4353(3)
H22 H 0.1934 0.3575 0.4843
H23 H 0.0545 0.3665 0.3903
H24 H 0.0862 0.3161 0.4860
C33 C 0.1320(3) 0.47091(17) -0.0371(3)
H25 H 0.1366 0.4387 -0.0860
H26 H 0.0538 0.4692 -0.0272
H27 H 0.1366 0.5071 -0.0756
C34 C 0.2327(4) 0.51935(16) 0.1642(3)
H28 H 0.3015 0.5175 0.2420
H29 H 0.2371 0.5554 0.1252
H30 H 0.1543 0.5176 0.1736
C35 C 1.0607(3) 0.48850(16) 0.5942(3)
H31 H 1.0953 0.4544 0.5726
H32 H 1.0809 0.5225 0.5589
H33 H 1.0958 0.4925 0.6804
C36 C 0.8626(4) 0.53649(15) 0.5829(3)
H34 H 0.7727 0.5327 0.5538
H35 H 0.8978 0.5405 0.6691
H36 H 0.8830 0.5705 0.5476
H83 H 0.485(3) 0.4621(14) 0.240(3)
H84 H 0.584(3) 0.3122(17) 0.646(3)
H85 H 0.689(3) 0.4663(15) 0.379(3)
H86 H 0.388(4) 0.301(2) 0.505(3)
O1 O 0.5390(2) 0.43118(11) 0.41216(18)
O2 O 0.4882(2) 0.37639(10) 0.5393(2)
C37 C 0.4682(3) 0.47907(14) 0.5465(3)
C38 C 0.4271(3) 0.47540(15) 0.6392(3)
H37 H 0.4217 0.4380 0.6729
C39 C 0.3946(4) 0.52559(16) 0.6843(3)
H38 H 0.3659 0.5227 0.7483
C40 C 0.3999(4) 0.57891(16) 0.6367(3)
H39 H 0.3772 0.6135 0.6684
C41 C 0.4417(4) 0.58378(15) 0.5455(3)
H40 H 0.4430 0.6210 0.5094
C42 C 0.4751(3) 0.53381(15) 0.5012(3)
H41 H 0.5075 0.5374 0.4398
C43 C 0.5021(3) 0.42462(15) 0.4958(3)
N5 N 0.3412(3) 0.17109(12) -0.0802(2)
C44 C 0.2492(4) 0.14705(16) -0.1992(3)
H42 H 0.2489 0.1051 -0.1951
H43 H 0.2785 0.1577 -0.2603
C45 C 0.1143(4) 0.1664(2) -0.2400(4)
H44 H 0.1121 0.2084 -0.2419
H45 H 0.0795 0.1529 -0.1847
C46 C 0.0366(4) 0.1421(2) -0.3661(4)
H46 H 0.0545 0.1010 -0.3654
H47 H 0.0649 0.1606 -0.4220
H48 H -0.1438 0.1289 -0.4818
H50 H -0.1276 0.1845 -0.4011
C48 C -0.0848(12) 0.1710(7) -0.4328(14)
H53 H -0.0742 0.2121 -0.4420
C49 C 0.4679(3) 0.14302(15) -0.0584(3)
H54 H 0.4917 0.1537 -0.1231
H55 H 0.4590 0.1012 -0.0598
C50 C 0.5748(3) 0.15947(19) 0.0581(4)
H56 H 0.5535 0.1484 0.1241
H57 H 0.5865 0.2011 0.0605
C51 C 0.6964(4) 0.13013(19) 0.0713(4)
H58 H 0.7196 0.1433 0.0076
H59 H 0.6816 0.0887 0.0619
C52 C 0.8038(4) 0.1404(2) 0.1904(5)
H60 H 0.8781 0.1204 0.1939
H61 H 0.8200 0.1817 0.1995
H62 H 0.7816 0.1267 0.2543
C53 C 0.3495(4) 0.23745(15) -0.0845(3)
H63 H 0.4098 0.2499 -0.0071
H64 H 0.2693 0.2540 -0.0959
C54 C 0.3921(5) 0.26203(16) -0.1780(4)
H65 H 0.3405 0.2449 -0.2544
H66 H 0.4784 0.2520 -0.1593
C55 C 0.3745(4) 0.32837(16) -0.1872(4)
H67 H 0.4085 0.3442 -0.2413
H68 H 0.4217 0.3444 -0.1085
C56 C 0.2402(4) 0.34814(19) -0.2268(4)
H69 H 0.2353 0.3901 -0.2285
H70 H 0.1927 0.3330 -0.3062
H71 H 0.2061 0.3332 -0.1720
C57 C 0.3008(3) 0.15799(15) 0.0223(3)
H72 H 0.2196 0.1754 0.0033
H73 H 0.3594 0.1762 0.0945
C58 C 0.2902(4) 0.09418(17) 0.0487(4)
H74 H 0.3725 0.0768 0.0773
H75 H 0.2369 0.0746 -0.0241
C59 C 0.2337(4) 0.0872(2) 0.1408(4)
H76 H 0.2812 0.1113 0.2088
H77 H 0.2411 0.0474 0.1682
C60 C 0.0976(4) 0.1063(3) 0.0959(5)
H78 H 0.0660 0.1024 0.1577
H79 H 0.0902 0.1463 0.0698
H80 H 0.0497 0.0817 0.0288
Cl1 Cl 0.57133(15) 0.23520(5) 0.35109(12)
Cl2 Cl 0.63789(15) 0.31941(6) 0.20849(15)
C61 C 0.5960(4) 0.30920(19) 0.3304(4)
H81 H 0.6619 0.3240 0.4022
H82 H 0.5205 0.3309 0.3167
C47? C -0.1015(7) 0.1447(5) -0.4021(10)
H49? H -0.1227 0.1220 -0.3462
H51? H -0.1279 0.1535 -0.5108
H52? H -0.1335 0.1654 -0.3855
loop_
_geom_bond_atom_site_label_1
_geom_bond_atom_site_label_2
_geom_bond_site_symmetry_1
_geom_bond_site_symmetry_2
S1 C1 1_555 1_555
S2 C15 1_555 1_555
N1 C6 1_555 1_555
N2 C10 1_555 1_555
N3 C20 1_555 1_555
N4 C24 1_555 1_555
C1 C2 1_555 1_555
C2 H1 1_555 1_555
C3 C2 1_555 1_555
H2 C3 1_555 1_555
C4 S1 1_555 1_555
C5 C4 1_555 1_555
C6 C5 1_555 1_555
C7 C6 1_555 1_555
H3 C7 1_555 1_555
C8 C7 1_555 1_555
H4 C8 1_555 1_555
C9 N1 1_555 1_555
C10 C9 1_555 1_555
C11 C10 1_555 1_555
H5 C11 1_555 1_555
C12 C11 1_555 1_555
H6 C12 1_555 1_555
C13 N2 1_555 1_555
C14 C13 1_555 1_555
C15 C14 1_555 1_555
C16 C15 1_555 1_555
H7 C16 1_555 1_555
C17 C16 1_555 1_555
H8 C17 1_555 1_555
C18 S2 1_555 1_555
C19 C18 1_555 1_555
C20 C19 1_555 1_555
C21 C20 1_555 1_555
H9 C21 1_555 1_555
C22 C21 1_555 1_555
H10 C22 1_555 1_555
C23 N3 1_555 1_555
C24 C23 1_555 1_555
C25 C24 1_555 1_555
H11 C25 1_555 1_555
C26 C25 1_555 1_555
H12 C26 1_555 1_555
C27 N4 1_555 1_555
C28 C1 1_555 1_555
C29 C5 1_555 1_555
H13 C29 1_555 1_555
H14 C29 1_555 1_555
H15 C29 1_555 1_555
C30 C5 1_555 1_555
H16 C30 1_555 1_555
H17 C30 1_555 1_555
H18 C30 1_555 1_555
C31 C14 1_555 1_555
H19 C31 1_555 1_555
H20 C31 1_555 1_555
H21 C31 1_555 1_555
C32 C14 1_555 1_555
H22 C32 1_555 1_555
H23 C32 1_555 1_555
H24 C32 1_555 1_555
C33 C19 1_555 1_555
H25 C33 1_555 1_555
H26 C33 1_555 1_555
H27 C33 1_555 1_555
C34 C19 1_555 1_555
H28 C34 1_555 1_555
H29 C34 1_555 1_555
H30 C34 1_555 1_555
C35 C28 1_555 1_555
H31 C35 1_555 1_555
H32 C35 1_555 1_555
H33 C35 1_555 1_555
C36 C28 1_555 1_555
H34 C36 1_555 1_555
H35 C36 1_555 1_555
H36 C36 1_555 1_555
O1 C43 1_555 1_555
O2 C43 1_555 1_555
C37 C38 1_555 1_555
C38 H37 1_555 1_555
C39 C38 1_555 1_555
H38 C39 1_555 1_555
C40 C39 1_555 1_555
H39 C40 1_555 1_555
C41 C40 1_555 1_555
H40 C41 1_555 1_555
C42 C37 1_555 1_555
H41 C42 1_555 1_555
C43 C37 1_555 1_555
N5 C44 1_555 1_555
C44 H42 1_555 1_555
H43 C44 1_555 1_555
C45 C44 1_555 1_555
H44 C45 1_555 1_555
H45 C45 1_555 1_555
C46 C45 1_555 1_555
H46 C46 1_555 1_555
H47 C46 1_555 1_555
H48 C48 1_555 1_555
H50 C48 1_555 1_555
C48 C46 1_555 1_555
H53 C48 1_555 1_555
C49 N5 1_555 1_555
H54 C49 1_555 1_555
H55 C49 1_555 1_555
C50 C49 1_555 1_555
H56 C50 1_555 1_555
H57 C50 1_555 1_555
C51 C50 1_555 1_555
H58 C51 1_555 1_555
H59 C51 1_555 1_555
C52 C51 1_555 1_555
H60 C52 1_555 1_555
H61 C52 1_555 1_555
H62 C52 1_555 1_555
C53 N5 1_555 1_555
H63 C53 1_555 1_555
H64 C53 1_555 1_555
C54 C53 1_555 1_555
H65 C54 1_555 1_555
H66 C54 1_555 1_555
C55 C54 1_555 1_555
H67 C55 1_555 1_555
H68 C55 1_555 1_555
C56 C55 1_555 1_555
H69 C56 1_555 1_555
H70 C56 1_555 1_555
H71 C56 1_555 1_555
C57 N5 1_555 1_555
H72 C57 1_555 1_555
H73 C57 1_555 1_555
C58 C57 1_555 1_555
H74 C58 1_555 1_555
H75 C58 1_555 1_555
C59 C58 1_555 1_555
H76 C59 1_555 1_555
H77 C59 1_555 1_555
C60 C59 1_555 1_555
H78 C60 1_555 1_555
H79 C60 1_555 1_555
H80 C60 1_555 1_555
Cl1 C61 1_555 1_555
Cl2 C61 1_555 1_555
C61 H81 1_555 1_555
H82 C61 1_555 1_555
H83 N3 1_555 1_555
H84 N1 1_555 1_555
H85 N4 1_555 1_555
H86 N2 1_555 1_555
C3 C4 1_555 1_555
C8 C9 1_555 1_555
C12 C13 1_555 1_555
C17 C18 1_555 1_555
C22 C23 1_555 1_555
C26 C27 1_555 1_555
C27 C28 1_555 1_555
C41 C42 1_555 1_555

#END
