
#######################################################################
#
#                 Cambridge Crystallographic Data Centre
#                                CCDC 
#
#######################################################################
#
# If this CIF has been generated from an entry in the Cambridge 
# Structural Database, then it will include bibliographic, chemical, 
# crystal, experimental, refinement or atomic coordinate data resulting 
# from the CCDC's data processing and validation procedures.
#
#######################################################################

data_FOJTUU
_chemical_formula_moiety         'C32 H18 S2'
_chemical_name_systematic        
2,6-bis(2-Naphthyl)naphtho(1,8-bc:5,4-b'c')dithiophene
_symmetry_cell_setting           orthorhombic
_symmetry_space_group_name_H-M   'P b c a'
_symmetry_Int_Tables_number      61
_space_group_name_Hall           '-P 2ac 2ab'
loop_
_symmetry_equiv_pos_site_id
_symmetry_equiv_pos_as_xyz
1 x,y,z
2 1/2+x,1/2-y,-z
3 -x,1/2+y,1/2-z
4 1/2-x,-y,1/2+z
5 -x,-y,-z
6 1/2-x,1/2+y,z
7 x,1/2-y,1/2+z
8 1/2+x,y,1/2-z
_cell_length_a                   7.264(3)
_cell_length_b                   8.432(2)
_cell_length_c                   36.215(7)
_cell_angle_alpha                90
_cell_angle_beta                 90
_cell_angle_gamma                90
_cell_volume                     2218.17
_exptl_crystal_colour            red
_exptl_crystal_description       plate
_chemical_melting_point          'above 573 K'
_cell_formula_units_Z            4
_exptl_crystal_recrystallization_method 'vacuum sublimation'
loop_
_atom_site_label
_atom_site_type_symbol
_atom_site_fract_x
_atom_site_fract_y
_atom_site_fract_z
S1 S 0.05117(9) 0.14632(7) -0.02955(2)
C1 C 0.0073(3) 0.2833(3) -0.06439(6)
C2 C -0.0123(3) 0.4370(3) -0.05008(6)
C3 C 0.0073(3) 0.4329(2) -0.01086(6)
C4 C 0.0408(3) 0.2854(3) 0.00508(6)
C5 C 0.0571(3) 0.2754(3) 0.04451(6)
C6 C -0.0426(3) 0.5910(3) -0.06604(6)
C7 C -0.0129(3) 0.2271(3) -0.10247(6)
C8 C -0.1368(3) 0.3063(3) -0.12682(7)
C9 C -0.1595(3) 0.2571(3) -0.16240(6)
C10 C -0.0609(3) 0.1252(3) -0.17645(6)
C11 C -0.0780(4) 0.0730(3) -0.21361(7)
C12 C 0.0212(4) -0.0537(3) -0.22621(7)
C13 C 0.1394(4) -0.1349(3) -0.20209(8)
C14 C 0.1589(4) -0.0888(3) -0.16642(7)
C15 C 0.0603(3) 0.0426(3) -0.15234(6)
C16 C 0.0806(3) 0.0957(3) -0.11543(6)
H1 H 0.0791 0.1702 0.0552
H2 H -0.0527 0.5967 -0.0907
H3 H -0.2094 0.3954 -0.1186
H4 H -0.2425 0.3091 -0.1774
H5 H -0.1679 0.1313 -0.2290
H6 H 0.0005 -0.0910 -0.2521
H7 H 0.1994 -0.2195 -0.2114
H8 H 0.2353 -0.1428 -0.1500
H9 H 0.1655 0.0385 -0.0992
S1D S -0.05117(9) 0.85368(7) 0.02955(2)
C1D C -0.0073(3) 0.7167(3) 0.06439(6)
C2D C 0.0123(3) 0.5630(3) 0.05008(6)
C3D C -0.0073(3) 0.5671(2) 0.01086(6)
C4D C -0.0408(3) 0.7146(3) -0.00508(6)
C5D C -0.0571(3) 0.7246(3) -0.04451(6)
C6D C 0.0426(3) 0.4090(3) 0.06604(6)
C7D C 0.0129(3) 0.7729(3) 0.10247(6)
C8D C 0.1368(3) 0.6937(3) 0.12682(7)
C9D C 0.1595(3) 0.7429(3) 0.16240(6)
C10D C 0.0609(3) 0.8748(3) 0.17645(6)
C11D C 0.0780(4) 0.9270(3) 0.21361(7)
C12D C -0.0212(4) 1.0537(3) 0.22621(7)
C13D C -0.1394(4) 1.1349(3) 0.20209(8)
C14D C -0.1589(4) 1.0888(3) 0.16642(7)
C15D C -0.0603(3) 0.9574(3) 0.15234(6)
C16D C -0.0806(3) 0.9043(3) 0.11543(6)
H1D H -0.0791 0.8298 -0.0552
H2D H 0.0527 0.4033 0.0907
H3D H 0.2094 0.6046 0.1186
H4D H 0.2425 0.6909 0.1774
H5D H 0.1679 0.8687 0.2290
H6D H -0.0005 1.0910 0.2521
H7D H -0.1994 1.2195 0.2114
H8D H -0.2353 1.1428 0.1500
H9D H -0.1655 0.9615 0.0992
loop_
_geom_bond_atom_site_label_1
_geom_bond_atom_site_label_2
_geom_bond_site_symmetry_1
_geom_bond_site_symmetry_2
S1 C1 1_555 1_555
C1 C2 1_555 1_555
C2 C3 1_555 1_555
C3 C4 1_555 1_555
C4 S1 1_555 1_555
C5 C4 1_555 1_555
C6 C2 1_555 1_555
C7 C1 1_555 1_555
C8 C7 1_555 1_555
C9 C8 1_555 1_555
C10 C9 1_555 1_555
C11 C10 1_555 1_555
C12 C11 1_555 1_555
C13 C12 1_555 1_555
C14 C13 1_555 1_555
C15 C10 1_555 1_555
C16 C7 1_555 1_555
H1 C5 1_555 1_555
H2 C6 1_555 1_555
H3 C8 1_555 1_555
H4 C9 1_555 1_555
H5 C11 1_555 1_555
H6 C12 1_555 1_555
H7 C13 1_555 1_555
H8 C14 1_555 1_555
H9 C16 1_555 1_555
S1D C1D 1_555 1_555
C1D C2D 1_555 1_555
C2D C3D 1_555 1_555
C3D C3 1_555 1_555
C4D S1D 1_555 1_555
C5D C6 1_555 1_555
C6D C5 1_555 1_555
C7D C1D 1_555 1_555
C8D C7D 1_555 1_555
C9D C8D 1_555 1_555
C10D C9D 1_555 1_555
C11D C10D 1_555 1_555
C12D C11D 1_555 1_555
C13D C12D 1_555 1_555
C14D C13D 1_555 1_555
C15D C10D 1_555 1_555
C16D C7D 1_555 1_555
H1D C5D 1_555 1_555
H2D C6D 1_555 1_555
H3D C8D 1_555 1_555
H4D C9D 1_555 1_555
H5D C11D 1_555 1_555
H6D C12D 1_555 1_555
H7D C13D 1_555 1_555
H8D C14D 1_555 1_555
H9D C16D 1_555 1_555
C14 C15 1_555 1_555
C15 C16 1_555 1_555
C2D C6D 1_555 1_555
C3D C4D 1_555 1_555
C4D C5D 1_555 1_555
C14D C15D 1_555 1_555
C15D C16D 1_555 1_555

#END
