
#######################################################################
#
#                 Cambridge Crystallographic Data Centre
#                                CCDC 
#
#######################################################################
#
# If this CIF has been generated from an entry in the Cambridge 
# Structural Database, then it will include bibliographic, chemical, 
# crystal, experimental, refinement or atomic coordinate data resulting 
# from the CCDC's data processing and validation procedures.
#
#######################################################################

data_FOJVAC
_chemical_formula_moiety         'C36 H22 S2'
_chemical_name_systematic        
2,6-bis(4-Biphenylyl)naphtho(1,8-bc:5,4-b'c')dithiophene
_symmetry_cell_setting           monoclinic
_symmetry_space_group_name_H-M   'P 21'
_symmetry_Int_Tables_number      4
_space_group_name_Hall           'P 2yb'
loop_
_symmetry_equiv_pos_site_id
_symmetry_equiv_pos_as_xyz
1 x,y,z
2 -x,1/2+y,-z
_cell_length_a                   12.965(2)
_cell_length_b                   7.620(2)
_cell_length_c                   12.498(1)
_cell_angle_alpha                90
_cell_angle_beta                 100.246(10)
_cell_angle_gamma                90
_cell_volume                     1215.03
_exptl_crystal_colour            red
_exptl_crystal_description       prismatic
_chemical_melting_point          'above 573 K'
_cell_formula_units_Z            2
_exptl_crystal_recrystallization_method 'vacuum sublimation'
loop_
_atom_site_label
_atom_site_type_symbol
_atom_site_fract_x
_atom_site_fract_y
_atom_site_fract_z
S1 S 0.44402(8) 0.2127 0.78338(8)
S2 S 0.33223(8) 0.3425(2) 1.25375(9)
C1 C 0.3118(4) 0.2625(7) 0.7795(4)
C2 C 0.2912(3) 0.2837(7) 0.8862(3)
C3 C 0.3846(3) 0.2564(6) 0.9633(3)
C4 C 0.4742(3) 0.2197(7) 0.9230(3)
C5 C 0.4636(3) 0.2839(8) 1.2571(4)
C6 C 0.4814(3) 0.2506(6) 1.1522(3)
C7 C 0.3881(3) 0.2739(7) 1.0752(3)
C8 C 0.2990(3) 0.3223(8) 1.1145(3)
C9 C 0.5717(3) 0.1980(8) 0.9971(4)
C10 C 0.5748(3) 0.2127(8) 1.1080(4)
C11 C 0.2034(3) 0.3486(10) 1.0408(3)
C12 C 0.1985(3) 0.3276(8) 0.9301(3)
C13 C 0.2419(3) 0.2723(7) 0.6744(3)
C14 C 0.2648(4) 0.1839(8) 0.5841(3)
C15 C 0.1964(4) 0.1903(8) 0.4846(3)
C16 C 0.1024(4) 0.2798(8) 0.4711(4)
C17 C 0.0802(4) 0.3712(8) 0.5609(3)
C18 C 0.1484(4) 0.3686(8) 0.6608(4)
C19 C 0.0271(3) 0.2809(6) 0.3658(3)
C20 C 0.0520(4) 0.2006(8) 0.2734(4)
C21 C -0.0189(4) 0.1981(9) 0.1755(3)
C22 C -0.1150(4) 0.2739(9) 0.1676(4)
C23 C -0.1418(4) 0.3591(9) 0.2575(4)
C24 C -0.0718(4) 0.3597(10) 0.3552(4)
C25 C 0.5341(3) 0.2808(7) 1.3618(4)
C26 C 0.5142(4) 0.3802(9) 1.4501(4)
C27 C 0.5816(4) 0.3777(7) 1.5486(4)
C28 C 0.6740(3) 0.2782(8) 1.5659(3)
C29 C 0.6926(4) 0.1775(8) 1.4786(4)
C30 C 0.6250(4) 0.1777(8) 1.3791(4)
C31 C 0.7488(4) 0.2802(7) 1.6715(4)
C32 C 0.7231(4) 0.3617(9) 1.7632(4)
C33 C 0.7934(4) 0.3655(9) 1.8607(4)
C34 C 0.8892(4) 0.2822(9) 1.8685(4)
C35 C 0.9170(4) 0.2032(9) 1.7802(4)
C36 C 0.8472(4) 0.2024(10) 1.6817(4)
H1 H 0.3272 0.1187 0.5911
H2 H 0.2149 0.1304 0.4243
H3 H 0.0179 0.4381 0.5540
H4 H 0.1313 0.4309 0.7207
H5 H 0.1183 0.1456 0.2777
H6 H 0.0003 0.1407 0.1143
H7 H -0.1638 0.2691 0.1000
H8 H -0.2079 0.4140 0.2519
H9 H -0.0906 0.4188 0.4165
H10 H 0.4520 0.4482 1.4429
H11 H 0.5653 0.4463 1.6066
H12 H 0.7537 0.1046 1.4866
H13 H 0.6397 0.1040 1.3226
H14 H 0.6570 0.4172 1.7581
H15 H 0.7756 0.4236 1.9224
H16 H 0.9347 0.2800 1.9359
H17 H 0.9831 0.1454 1.7851
H18 H 0.8667 0.1510 1.6203
H19 H 0.6351 0.1735 0.9690
H20 H 0.6403 0.1974 1.1572
H21 H 0.1416 0.3820 1.0681
H22 H 0.1326 0.3414 0.8816
loop_
_geom_bond_atom_site_label_1
_geom_bond_atom_site_label_2
_geom_bond_site_symmetry_1
_geom_bond_site_symmetry_2
S1 C1 1_555 1_555
S2 C5 1_555 1_555
C1 C2 1_555 1_555
C2 C3 1_555 1_555
C3 C4 1_555 1_555
C4 S1 1_555 1_555
C5 C6 1_555 1_555
C6 C7 1_555 1_555
C7 C3 1_555 1_555
C8 S2 1_555 1_555
C9 C4 1_555 1_555
C10 C6 1_555 1_555
C11 C8 1_555 1_555
C12 C2 1_555 1_555
C13 C1 1_555 1_555
C14 C13 1_555 1_555
C15 C14 1_555 1_555
C16 C15 1_555 1_555
C17 C16 1_555 1_555
C18 C13 1_555 1_555
C19 C16 1_555 1_555
C20 C19 1_555 1_555
C21 C20 1_555 1_555
C22 C21 1_555 1_555
C23 C22 1_555 1_555
C24 C19 1_555 1_555
C25 C5 1_555 1_555
C26 C25 1_555 1_555
C27 C26 1_555 1_555
C28 C27 1_555 1_555
C29 C28 1_555 1_555
C30 C25 1_555 1_555
C31 C28 1_555 1_555
C32 C31 1_555 1_555
C33 C32 1_555 1_555
C34 C33 1_555 1_555
C35 C34 1_555 1_555
C36 C31 1_555 1_555
H1 C14 1_555 1_555
H2 C15 1_555 1_555
H3 C17 1_555 1_555
H4 C18 1_555 1_555
H5 C20 1_555 1_555
H6 C21 1_555 1_555
H7 C22 1_555 1_555
H8 C23 1_555 1_555
H9 C24 1_555 1_555
H10 C26 1_555 1_555
H11 C27 1_555 1_555
H12 C29 1_555 1_555
H13 C30 1_555 1_555
H14 C32 1_555 1_555
H15 C33 1_555 1_555
H16 C34 1_555 1_555
H17 C35 1_555 1_555
H18 C36 1_555 1_555
H19 C9 1_555 1_555
H20 C10 1_555 1_555
H21 C11 1_555 1_555
H22 C12 1_555 1_555
C7 C8 1_555 1_555
C9 C10 1_555 1_555
C11 C12 1_555 1_555
C17 C18 1_555 1_555
C23 C24 1_555 1_555
C29 C30 1_555 1_555
C35 C36 1_555 1_555

#END
