
#######################################################################
#
#                 Cambridge Crystallographic Data Centre
#                                CCDC 
#
#######################################################################
#
# If this CIF has been generated from an entry in the Cambridge 
# Structural Database, then it will include bibliographic, chemical, 
# crystal, experimental, refinement or atomic coordinate data resulting 
# from the CCDC's data processing and validation procedures.
#
#######################################################################

data_FOKDAL
_chemical_formula_moiety         'C14 H12 O5'
_chemical_name_systematic        'Dimethyl 2-phenylfuran-3,4-dicarboxylate'
_symmetry_cell_setting           monoclinic
_symmetry_space_group_name_H-M   'P 21/c'
_symmetry_Int_Tables_number      14
_space_group_name_Hall           '-P 2ybc'
loop_
_symmetry_equiv_pos_site_id
_symmetry_equiv_pos_as_xyz
1 x,y,z
2 -x,1/2+y,1/2-z
3 -x,-y,-z
4 x,1/2-y,1/2+z
_cell_length_a                   14.698(2)
_cell_length_b                   11.720(1)
_cell_length_c                   7.3105(7)
_cell_angle_alpha                90
_cell_angle_beta                 97.916(9)
_cell_angle_gamma                90
_cell_volume                     1247.31
_chemical_melting_point          '68-70 deg.C'
_cell_formula_units_Z            4
loop_
_atom_site_label
_atom_site_type_symbol
_atom_site_fract_x
_atom_site_fract_y
_atom_site_fract_z
O1 O 0.18911(8) 0.28934(9) 0.18214(17)
O2 O 0.28772(8) -0.05911(9) 0.09497(17)
O3 O 0.25978(10) -0.05621(11) 0.3878(2)
O4 O 0.44498(8) 0.07582(10) 0.25319(19)
O5 O 0.47163(9) 0.24492(12) 0.1272(2)
C1 C 0.0054(2) 0.2233(3) 0.1665(6)
H1 H 0.0189 0.2905 0.1085
C2 C -0.0842(3) 0.2000(3) 0.1871(7)
H2 H -0.1299 0.2528 0.1475
C3 C -0.10611(12) 0.10182(17) 0.2641(3)
H3 H -0.1676 0.0833 0.2651
C4 C -0.0376(2) 0.0269(3) 0.3429(5)
H4 H -0.0528 -0.0374 0.4069
C5 C 0.0530(2) 0.0493(3) 0.3246(5)
H5 H 0.0988 -0.0009 0.3743
C6 C 0.07651(10) 0.14864(13) 0.2303(2)
C7 C 0.17170(11) 0.17545(13) 0.2123(2)
C8 C 0.25086(10) 0.11589(13) 0.2134(2)
C9 C 0.32104(11) 0.19641(14) 0.1810(2)
C10 C 0.27903(12) 0.29841(15) 0.1638(3)
H6 H 0.3081 0.3666 0.1422
C11 C 0.26528(10) -0.00822(14) 0.2449(2)
C12 C 0.31569(15) -0.17728(15) 0.1173(3)
H7 H 0.3686 -0.1828 0.2098
H8 H 0.3307 -0.2061 0.0022
H9 H 0.2664 -0.2214 0.1546
C13 C 0.41939(12) 0.17769(15) 0.1812(3)
C14 C 0.54066(14) 0.04748(19) 0.2702(4)
H10 H 0.5629 0.0615 0.1548
H11 H 0.5488 -0.0316 0.3023
H12 H 0.5743 0.0936 0.3649
C15? C 0.0219(2) 0.2288(3) 0.2954(6)
H13? H 0.0460 0.3002 0.3298
C16? C -0.0682(3) 0.2052(4) 0.3107(7)
H14? H -0.1043 0.2616 0.3541
C17? C -0.0527(3) 0.0219(3) 0.1801(5)
H15? H -0.0793 -0.0461 0.1338
C18? C 0.0389(2) 0.0438(3) 0.1659(5)
H16? H 0.0745 -0.0099 0.1149
loop_
_geom_bond_atom_site_label_1
_geom_bond_atom_site_label_2
_geom_bond_site_symmetry_1
_geom_bond_site_symmetry_2
O1 C7 1_555 1_555
O2 C11 1_555 1_555
O3 C11 1_555 1_555
O4 C13 1_555 1_555
O5 C13 1_555 1_555
C1 H1 1_555 1_555
C2 C1 1_555 1_555
H2 C2 1_555 1_555
C3 C2 1_555 1_555
H3 C3 1_555 1_555
C4 C3 1_555 1_555
H4 C4 1_555 1_555
C5 C4 1_555 1_555
H5 C5 1_555 1_555
C6 C1 1_555 1_555
C7 C6 1_555 1_555
C8 C7 1_555 1_555
C9 C8 1_555 1_555
C10 O1 1_555 1_555
H6 C10 1_555 1_555
C11 C8 1_555 1_555
C12 O2 1_555 1_555
H7 C12 1_555 1_555
H8 C12 1_555 1_555
H9 C12 1_555 1_555
C13 C9 1_555 1_555
C14 O4 1_555 1_555
H10 C14 1_555 1_555
H11 C14 1_555 1_555
H12 C14 1_555 1_555
C5 C6 1_555 1_555
C9 C10 1_555 1_555

#END
