
#######################################################################
#
#                 Cambridge Crystallographic Data Centre
#                                CCDC 
#
#######################################################################
#
# If this CIF has been generated from an entry in the Cambridge 
# Structural Database, then it will include bibliographic, chemical, 
# crystal, experimental, refinement or atomic coordinate data resulting 
# from the CCDC's data processing and validation procedures.
#
#######################################################################

data_FOKFOB
_chemical_formula_moiety         'C23 H22 O2'
_chemical_name_systematic        3-(Dibenzoylmethyl)cyclo-1,4-octadiene
_symmetry_cell_setting           orthorhombic
_symmetry_space_group_name_H-M   'P m n 21'
_symmetry_Int_Tables_number      31
_space_group_name_Hall           'P 2ac -2'
loop_
_symmetry_equiv_pos_site_id
_symmetry_equiv_pos_as_xyz
1 x,y,z
2 1/2-x,-y,1/2+z
3 1/2+x,-y,1/2+z
4 -x,y,z
_cell_length_a                   17.307(14)
_cell_length_b                   5.500(5)
_cell_length_c                   9.735(8)
_cell_angle_alpha                90
_cell_angle_beta                 90
_cell_angle_gamma                90
_cell_volume                     926.66
_cell_formula_units_Z            2
loop_
_atom_site_label
_atom_site_type_symbol
_atom_site_fract_x
_atom_site_fract_y
_atom_site_fract_z
O1 O 0.1045(6) -0.0712(15) 0.0925(8)
C1 C 0.0865(6) 0.1189(18) 0.0402(10)
C2 C 0.0000 0.2376(9) 0.0849(6)
H1 H 0.0000 0.4089 0.0573
C3 C 0.0000 0.2299(7) 0.2399(5)
H2 H 0.0000 0.0588 0.2681
C4 C 0.1265(3) 0.2209(8) -0.0659(5)
C5 C 0.1949(5) 0.1008(14) -0.0965(8)
H3 H 0.2064 -0.0444 -0.0520
C6 C 0.2453(4) 0.1914(18) -0.1901(9)
H4 H 0.2912 0.1087 -0.2069
C7 C 0.2309(3) 0.3937(15) -0.2579(8)
H5 H 0.2655 0.4497 -0.3238
C8 C 0.1635(3) 0.5235(9) -0.2300(7)
H6 H 0.1529 0.6688 -0.2752
C9 C 0.1129(3) 0.4317(9) -0.1345(5)
H7 H 0.0677 0.5169 -0.1160
C10 C 0.0706(2) 0.3467(8) 0.2984(6)
H8 H 0.1003 0.4481 0.2431
C11 C 0.0927(3) 0.3071(11) 0.4335(6)
H9 H 0.1192 0.4290 0.4799
C12 C 0.0754(3) 0.0778(10) 0.5059(6)
H10 H 0.1178 0.0433 0.5680
H11 H 0.0739 -0.0521 0.4385
C13 C 0.0000 0.0697(14) 0.5884(8)
H12 H 0.0000 0.2058 0.6518
H13 H 0.0000 -0.0778 0.6430
O1C O -0.1045(6) -0.0712(15) 0.0925(8)
C1C C -0.0865(6) 0.1189(18) 0.0402(10)
C4C C -0.1265(3) 0.2209(8) -0.0659(5)
C5C C -0.1949(5) 0.1008(14) -0.0965(8)
H3C H -0.2064 -0.0444 -0.0520
C6C C -0.2453(4) 0.1914(18) -0.1901(9)
H4C H -0.2912 0.1087 -0.2069
C7C C -0.2309(3) 0.3937(15) -0.2579(8)
H5C H -0.2655 0.4497 -0.3238
C8C C -0.1635(3) 0.5235(9) -0.2300(7)
H6C H -0.1529 0.6688 -0.2752
C9C C -0.1129(3) 0.4317(9) -0.1345(5)
H7C H -0.0677 0.5169 -0.1160
C10C C -0.0706(2) 0.3467(8) 0.2984(6)
H8C H -0.1003 0.4481 0.2431
C11C C -0.0927(3) 0.3071(11) 0.4335(6)
H9C H -0.1192 0.4290 0.4799
C12C C -0.0754(3) 0.0778(10) 0.5059(6)
H10C H -0.1178 0.0433 0.5680
H11C H -0.0739 -0.0521 0.4385
C14? C 0.0502(7) 0.094(2) 0.0187(14)
O2? O 0.0528(7) -0.1248(12) 0.0383(14)
loop_
_geom_bond_atom_site_label_1
_geom_bond_atom_site_label_2
_geom_bond_site_symmetry_1
_geom_bond_site_symmetry_2
O1 C1 1_555 1_555
C1 C2 1_555 1_555
C2 H1 1_555 1_555
C3 C2 1_555 1_555
H2 C3 1_555 1_555
C4 C1 1_555 1_555
C5 C4 1_555 1_555
H3 C5 1_555 1_555
C6 C5 1_555 1_555
H4 C6 1_555 1_555
C7 C6 1_555 1_555
H5 C7 1_555 1_555
C8 C7 1_555 1_555
H6 C8 1_555 1_555
C9 C4 1_555 1_555
H7 C9 1_555 1_555
C10 C3 1_555 1_555
H8 C10 1_555 1_555
C11 C10 1_555 1_555
H9 C11 1_555 1_555
C12 C11 1_555 1_555
H10 C12 1_555 1_555
H11 C12 1_555 1_555
C13 C12 1_555 1_555
H12 C13 1_555 1_555
H13 C13 1_555 1_555
O1C C1C 1_555 1_555
C1C C2 1_555 1_555
C4C C1C 1_555 1_555
C5C C4C 1_555 1_555
H3C C5C 1_555 1_555
C6C C5C 1_555 1_555
H4C C6C 1_555 1_555
C7C C6C 1_555 1_555
H5C C7C 1_555 1_555
C8C C7C 1_555 1_555
H6C C8C 1_555 1_555
C9C C4C 1_555 1_555
H7C C9C 1_555 1_555
C10C C3 1_555 1_555
H8C C10C 1_555 1_555
C11C C10C 1_555 1_555
H9C C11C 1_555 1_555
C12C C13 1_555 1_555
H10C C12C 1_555 1_555
H11C C12C 1_555 1_555
C8 C9 1_555 1_555
C8C C9C 1_555 1_555
C11C C12C 1_555 1_555

#END
