
#######################################################################
#
#                 Cambridge Crystallographic Data Centre
#                                CCDC 
#
#######################################################################
#
# If this CIF has been generated from an entry in the Cambridge 
# Structural Database, then it will include bibliographic, chemical, 
# crystal, experimental, refinement or atomic coordinate data resulting 
# from the CCDC's data processing and validation procedures.
#
#######################################################################

data_FOKZUC
_chemical_formula_moiety         'C44 H32 N4 2+,H2 O1,2(Cl1 1-)'
_chemical_name_systematic        
'5,10,15,20-Tetraphenylporphyrin-21,23-diium chloride monohydrate'
_symmetry_cell_setting           monoclinic
_symmetry_space_group_name_H-M   'P 21/c'
_symmetry_Int_Tables_number      14
_space_group_name_Hall           '-P 2ybc'
loop_
_symmetry_equiv_pos_site_id
_symmetry_equiv_pos_as_xyz
1 x,y,z
2 -x,1/2+y,1/2-z
3 -x,-y,-z
4 x,1/2-y,1/2+z
_cell_length_a                   21.743(4)
_cell_length_b                   8.3273(14)
_cell_length_c                   20.276(3)
_cell_angle_alpha                90
_cell_angle_beta                 103.124(3)
_cell_angle_gamma                90
_cell_volume                     3575.29
_exptl_crystal_colour            black
_exptl_crystal_description       block
_cell_formula_units_Z            4
loop_
_atom_site_label
_atom_site_type_symbol
_atom_site_fract_x
_atom_site_fract_y
_atom_site_fract_z
N1 N 0.21826(10) -0.0008(3) 0.52697(11)
H1 H 0.2201 0.1020 0.5242
N2 N 0.27330(10) 0.4353(3) 0.44948(12)
H2 H 0.2544 0.3783 0.4742
N3 N 0.33604(10) 0.2111(3) 0.56170(11)
H3 H 0.3183 0.1832 0.5210
C1 C 0.31337(13) -0.0376(3) 0.61908(13)
N4 N 0.16674(11) 0.1987(3) 0.40079(12)
H4 H 0.2054 0.1778 0.4198
C2 C 0.18620(14) 0.4521(4) 0.34689(15)
C3 C 0.16293(14) 0.5563(4) 0.28712(17)
C4 C 0.33351(13) 0.4947(4) 0.46960(15)
C5 C 0.37314(13) 0.4773(3) 0.53413(15)
C6 C 0.06240(13) -0.1466(3) 0.42416(15)
C7 C 0.34354(14) -0.1432(3) 0.67588(13)
C8 C 0.33851(13) 0.1187(4) 0.61799(14)
C9 C 0.24784(14) 0.4805(4) 0.38390(15)
C10 C 0.36593(13) 0.3544(4) 0.57955(15)
C11 C 0.11909(13) -0.0410(4) 0.43974(14)
C12 C 0.11636(13) 0.1043(4) 0.40501(15)
C13 C 0.37086(15) 0.2109(4) 0.67407(15)
H5 H 0.3795 0.1790 0.7192
C14 C 0.41445(16) 0.7568(4) 0.53507(17)
H6 H 0.3744 0.7899 0.5124
C15 C 0.42451(13) 0.5964(4) 0.55401(16)
C16 C 0.3373(2) -0.3446(4) 0.75951(18)
H7 H 0.3132 -0.4143 0.7792
C17 C 0.06143(14) 0.1839(4) 0.36777(16)
H8 H 0.0200 0.1485 0.3623
C18 C 0.14672(14) 0.3310(4) 0.36203(15)
C19 C 0.38695(14) 0.3530(4) 0.65061(15)
H9 H 0.4083 0.4359 0.6769
C20 C 0.03571(14) -0.1947(4) 0.35763(16)
H10 H 0.0537 -0.1606 0.3226
C21 C 0.30834(16) -0.2456(4) 0.70638(15)
H11 H 0.2647 -0.2482 0.6911
C22 C 0.08029(15) 0.3209(4) 0.34161(17)
H12 H 0.0539 0.3952 0.3148
C23 C 0.34645(15) 0.5777(4) 0.41290(16)
H13 H 0.3839 0.6302 0.4116
C24 C 0.29527(15) 0.5671(4) 0.36153(17)
H14 H 0.2916 0.6096 0.3184
C25 C 0.48403(15) 0.5509(5) 0.59052(18)
H15 H 0.4916 0.4451 0.6048
C26 C 0.16769(16) 0.7204(5) 0.29110(19)
H16 H 0.1847 0.7691 0.3325
C27 C 0.53245(17) 0.6640(6) 0.6057(2)
H17 H 0.5722 0.6338 0.6304
C28 C -0.01673(15) -0.2915(5) 0.34350(19)
H18 H -0.0332 -0.3251 0.2993
C29 C -0.04493(17) -0.3388(4) 0.3945(2)
H19 H -0.0813 -0.4012 0.3847
C30 C 0.11875(19) 0.5810(6) 0.1668(2)
H20 H 0.1027 0.5333 0.1250
C31 C 0.03439(16) -0.2006(4) 0.47435(17)
H21 H 0.0520 -0.1736 0.5192
C32 C 0.5215(2) 0.8211(6) 0.5841(2)
H22 H 0.5540 0.8960 0.5932
C33 C 0.40895(15) -0.1438(4) 0.69962(15)
H23 H 0.4336 -0.0775 0.6792
C34 C 0.14729(19) 0.8142(5) 0.2336(2)
H24 H 0.1495 0.9256 0.2368
C35 C 0.4378(2) -0.2409(5) 0.75292(18)
H25 H 0.4814 -0.2394 0.7684
C36 C 0.4622(2) 0.8660(5) 0.5491(2)
H26 H 0.4547 0.9718 0.5348
C37 C 0.4017(2) -0.3392(5) 0.78281(18)
H27 H 0.4210 -0.4031 0.8193
C38 C 0.12392(19) 0.7427(6) 0.1723(2)
H28 H 0.1114 0.8061 0.1338
C39 C -0.01915(17) -0.2937(5) 0.4596(2)
H29 H -0.0380 -0.3263 0.4943
C40 C 0.13756(17) 0.4877(5) 0.22405(19)
H30 H 0.1332 0.3767 0.2205
C41 C 0.26148(13) -0.0945(3) 0.57009(13)
C42 C 0.17181(13) -0.0945(4) 0.48919(14)
C43 C 0.24127(13) -0.2563(3) 0.55665(14)
H31 H 0.2620 -0.3470 0.5774
C44 C 0.18717(14) -0.2555(4) 0.50898(15)
H32 H 0.1637 -0.3456 0.4918
Cl1 Cl 0.19473(4) 0.35151(10) 0.55928(5)
Cl2 Cl 0.30553(4) 0.05882(12) 0.41391(4)
O1 O 0.2269(4) 0.1818(10) 0.2395(4)
H33 H 0.2265 0.1737 0.1976
H34 H 0.2546 0.2537 0.2532
loop_
_geom_bond_atom_site_label_1
_geom_bond_atom_site_label_2
_geom_bond_site_symmetry_1
_geom_bond_site_symmetry_2
N1 H1 1_555 1_555
N2 H2 1_555 1_555
N3 H3 1_555 1_555
C1 C7 1_555 1_555
N4 H4 1_555 1_555
C2 C3 1_555 1_555
C3 C26 1_555 1_555
C4 N2 1_555 1_555
C5 C4 1_555 1_555
C6 C11 1_555 1_555
C7 C21 1_555 1_555
C8 N3 1_555 1_555
C9 N2 1_555 1_555
C10 N3 1_555 1_555
C11 C12 1_555 1_555
C12 N4 1_555 1_555
C13 C8 1_555 1_555
H5 C13 1_555 1_555
C14 H6 1_555 1_555
C15 C5 1_555 1_555
C16 H7 1_555 1_555
C17 C12 1_555 1_555
H8 C17 1_555 1_555
C18 N4 1_555 1_555
C19 C10 1_555 1_555
H9 C19 1_555 1_555
C20 C6 1_555 1_555
H10 C20 1_555 1_555
C21 C16 1_555 1_555
H11 C21 1_555 1_555
C22 C17 1_555 1_555
H12 C22 1_555 1_555
C23 C4 1_555 1_555
H13 C23 1_555 1_555
C24 C9 1_555 1_555
H14 C24 1_555 1_555
C25 C15 1_555 1_555
H15 C25 1_555 1_555
C26 H16 1_555 1_555
C27 C25 1_555 1_555
H17 C27 1_555 1_555
C28 C20 1_555 1_555
H18 C28 1_555 1_555
C29 C28 1_555 1_555
H19 C29 1_555 1_555
C30 H20 1_555 1_555
C31 C6 1_555 1_555
H21 C31 1_555 1_555
C32 C27 1_555 1_555
H22 C32 1_555 1_555
C33 C7 1_555 1_555
H23 C33 1_555 1_555
C34 C26 1_555 1_555
H24 C34 1_555 1_555
C35 C33 1_555 1_555
H25 C35 1_555 1_555
C36 C14 1_555 1_555
H26 C36 1_555 1_555
C37 C16 1_555 1_555
H27 C37 1_555 1_555
C38 C30 1_555 1_555
H28 C38 1_555 1_555
C39 C29 1_555 1_555
H29 C39 1_555 1_555
C40 C3 1_555 1_555
H30 C40 1_555 1_555
C41 N1 1_555 1_555
C42 N1 1_555 1_555
C43 C41 1_555 1_555
H31 C43 1_555 1_555
C44 C42 1_555 1_555
H32 C44 1_555 1_555
O1 H33 1_555 1_555
H34 O1 1_555 1_555
C1 C8 1_555 1_555
C1 C41 1_555 1_555
C2 C9 1_555 1_555
C2 C18 1_555 1_555
C5 C10 1_555 1_555
C11 C42 1_555 1_555
C13 C19 1_555 1_555
C14 C15 1_555 1_555
C18 C22 1_555 1_555
C23 C24 1_555 1_555
C30 C40 1_555 1_555
C31 C39 1_555 1_555
C32 C36 1_555 1_555
C34 C38 1_555 1_555
C35 C37 1_555 1_555
C43 C44 1_555 1_555

#END
