
#######################################################################
#
#                 Cambridge Crystallographic Data Centre
#                                CCDC 
#
#######################################################################
#
# If this CIF has been generated from an entry in the Cambridge 
# Structural Database, then it will include bibliographic, chemical, 
# crystal, experimental, refinement or atomic coordinate data resulting 
# from the CCDC's data processing and validation procedures.
#
#######################################################################

data_FOLBUE02
_chemical_formula_moiety         'C15 H11 N1 O2'
_chemical_name_systematic        N-Benzylphthalimide
_symmetry_cell_setting           triclinic
_symmetry_space_group_name_H-M   'P -1'
_symmetry_Int_Tables_number      2
_space_group_name_Hall           '-P 1'
loop_
_symmetry_equiv_pos_site_id
_symmetry_equiv_pos_as_xyz
1 x,y,z
2 -x,-y,-z
_cell_length_a                   7.1840(8)
_cell_length_b                   8.5211(9)
_cell_length_c                   10.2370(11)
_cell_angle_alpha                99.062(2)
_cell_angle_beta                 97.578(2)
_cell_angle_gamma                106.848(2)
_cell_volume                     581.738
_exptl_crystal_colour            colorless
_exptl_crystal_description       block
_chemical_melting_point          386-387K
_cell_formula_units_Z            2
_exptl_crystal_recrystallization_method acetone
loop_
_atom_site_label
_atom_site_type_symbol
_atom_site_fract_x
_atom_site_fract_y
_atom_site_fract_z
O1 O 0.0759(3) 0.3543(2) 0.64328(19)
O2 O 0.2720(3) 0.8126(2) 0.98564(19)
N1 N 0.1698(3) 0.6087(2) 0.7916(2)
C1 C 0.3441(4) 0.7841(3) 0.6486(2)
C2 C 0.3905(4) 0.6937(4) 0.5405(3)
H1 H 0.2997 0.5919 0.4939
C3 C 0.5683(5) 0.7518(5) 0.5011(3)
H2 H 0.5980 0.6891 0.4286
C4 C 0.7032(5) 0.9030(5) 0.5685(4)
H3 H 0.8238 0.9432 0.5416
C5 C 0.6581(5) 0.9938(4) 0.6758(4)
H4 H 0.7486 1.0961 0.7216
C6 C 0.4807(4) 0.9348(3) 0.7158(3)
H5 H 0.4522 0.9971 0.7891
C7 C 0.1525(4) 0.7156(3) 0.6953(3)
H6 H 0.1126 0.8080 0.7371
H7 H 0.0503 0.6515 0.6181
C8 C 0.1345(4) 0.4372(3) 0.7561(3)
C9 C 0.2338(3) 0.6688(3) 0.9291(3)
C10 C 0.2425(3) 0.5212(3) 0.9871(2)
C11 C 0.1838(3) 0.3828(3) 0.8830(2)
C12 C 0.1786(4) 0.2271(3) 0.9053(3)
H8 H 0.1386 0.1341 0.8348
C13 C 0.2352(4) 0.2138(4) 1.0366(3)
H9 H 0.2342 0.1101 1.0548
C14 C 0.2929(4) 0.3518(4) 1.1407(3)
H10 H 0.3296 0.3396 1.2281
C15 C 0.2971(4) 0.5080(4) 1.1175(3)
H11 H 0.3355 0.6011 1.1879
loop_
_geom_bond_atom_site_label_1
_geom_bond_atom_site_label_2
_geom_bond_site_symmetry_1
_geom_bond_site_symmetry_2
O1 C8 1_555 1_555
O2 C9 1_555 1_555
N1 C7 1_555 1_555
C1 C2 1_555 1_555
C2 H1 1_555 1_555
C3 C2 1_555 1_555
H2 C3 1_555 1_555
C4 C3 1_555 1_555
H3 C4 1_555 1_555
C5 C4 1_555 1_555
H4 C5 1_555 1_555
C6 C1 1_555 1_555
H5 C6 1_555 1_555
C7 C1 1_555 1_555
H6 C7 1_555 1_555
H7 C7 1_555 1_555
C8 N1 1_555 1_555
C9 N1 1_555 1_555
C10 C9 1_555 1_555
C11 C8 1_555 1_555
C12 C11 1_555 1_555
H8 C12 1_555 1_555
C13 C12 1_555 1_555
H9 C13 1_555 1_555
C14 C13 1_555 1_555
H10 C14 1_555 1_555
C15 C10 1_555 1_555
H11 C15 1_555 1_555
C5 C6 1_555 1_555
C10 C11 1_555 1_555
C14 C15 1_555 1_555

#END
