
#######################################################################
#
#                 Cambridge Crystallographic Data Centre
#                                CCDC 
#
#######################################################################
#
# If this CIF has been generated from an entry in the Cambridge 
# Structural Database, then it will include bibliographic, chemical, 
# crystal, experimental, refinement or atomic coordinate data resulting 
# from the CCDC's data processing and validation procedures.
#
#######################################################################

data_FOLFET
_chemical_formula_moiety         'C18 H22 Br1 N1 O5'
_chemical_name_systematic        
2-Bromo-14-hydroxy-8-nitroestr-1-ene-3,17-dione
_symmetry_cell_setting           orthorhombic
_symmetry_space_group_name_H-M   'P 21 21 2'
_symmetry_Int_Tables_number      18
_space_group_name_Hall           'P 2 2ab'
loop_
_symmetry_equiv_pos_site_id
_symmetry_equiv_pos_as_xyz
1 x,y,z
2 -x,-y,z
3 1/2-x,1/2+y,-z
4 1/2+x,1/2-y,-z
_cell_length_a                   18.9352(9)
_cell_length_b                   29.3697(13)
_cell_length_c                   6.2956(3)
_cell_angle_alpha                90
_cell_angle_beta                 90
_cell_angle_gamma                90
_cell_volume                     3501.12
_exptl_crystal_colour            colorless
_exptl_crystal_description       needle
_cell_formula_units_Z            8
loop_
_atom_site_label
_atom_site_type_symbol
_atom_site_fract_x
_atom_site_fract_y
_atom_site_fract_z
Br1 Br 0.35407(3) 0.62497(2) -0.12302(10)
O1 O 0.40116(18) 0.71759(11) 0.0133(7)
O2 O -0.12985(15) 0.64168(10) 0.4882(6)
O3 O -0.00734(16) 0.72830(10) 0.6831(5)
H1 H -0.0113 0.7561 0.6548
O4 O 0.15365(19) 0.66327(10) 0.7996(5)
O5 O 0.12447(18) 0.73195(11) 0.8771(5)
N1 N 0.13085(18) 0.70063(12) 0.7503(6)
C1 C 0.3528(2) 0.70574(14) 0.1231(7)
C2 C 0.3151(2) 0.66230(14) 0.0917(7)
C3 C 0.2586(2) 0.65016(14) 0.2006(7)
H2 H 0.2388 0.6209 0.1753
C4 C 0.2240(2) 0.68067(12) 0.3638(7)
H3 H 0.2417 0.6718 0.5076
C5 C 0.2453(2) 0.73013(13) 0.3215(7)
H4 H 0.2262 0.7386 0.1787
C6 C 0.3261(2) 0.73325(14) 0.3076(7)
H5 H 0.3403 0.7655 0.2899
H6 H 0.3472 0.7217 0.4409
C7 C 0.2127(2) 0.76224(12) 0.4812(7)
H7 H 0.2271 0.7939 0.4493
H8 H 0.2293 0.7545 0.6258
C8 C 0.1325(2) 0.75811(12) 0.4704(7)
H9 H 0.1110 0.7794 0.5739
H10 H 0.1162 0.7669 0.3267
C9 C 0.10791(19) 0.70981(12) 0.5188(7)
C10 C 0.1428(2) 0.67542(12) 0.3618(6)
H11 H 0.1280 0.6859 0.2175
C11 C 0.1144(2) 0.62669(14) 0.3802(7)
H12 H 0.1360 0.6076 0.2683
H13 H 0.1280 0.6139 0.5198
C12 C 0.0344(2) 0.62535(13) 0.3579(7)
H14 H 0.0180 0.5936 0.3751
H15 H 0.0213 0.6355 0.2131
C13 C -0.0037(2) 0.65600(13) 0.5234(7)
C14 C 0.02507(19) 0.70565(12) 0.5100(7)
C15 C -0.0053(2) 0.72377(15) 0.2997(7)
H16 H -0.0093 0.7574 0.3034
H17 H 0.0252 0.7150 0.1788
C16 C -0.0783(2) 0.70179(14) 0.2791(7)
H18 H -0.1159 0.7240 0.3128
H19 H -0.0858 0.6901 0.1333
C17 C -0.0780(2) 0.66323(14) 0.4378(6)
C18 C -0.0044(2) 0.63388(16) 0.7414(7)
H20 H -0.0248 0.6551 0.8449
H21 H 0.0440 0.6263 0.7834
H22 H -0.0329 0.6061 0.7365
Br2 Br 0.44620(3) 0.566561(18) -0.50734(11)
O6 O 0.47660(18) 0.66750(11) -0.6148(6)
O7 O 0.9026(2) 0.45060(12) -1.0224(7)
O8 O 0.84001(17) 0.55722(10) -1.3245(5)
H23 H 0.8552 0.5840 -1.3313
O9 O 0.66277(18) 0.53862(11) -1.3925(5)
O10 O 0.7154(2) 0.60040(11) -1.4813(5)
N2 N 0.70004(19) 0.57121(12) -1.3505(6)
C19 C 0.5075(2) 0.64234(15) -0.7349(8)
C20 C 0.5101(2) 0.59188(15) -0.7077(7)
C21 C 0.5549(2) 0.56525(15) -0.8099(7)
H24 H 0.5534 0.5334 -0.7828
C22 C 0.6081(2) 0.58265(14) -0.9663(7)
H25 H 0.5881 0.5786 -1.1121
C23 C 0.6204(2) 0.63397(13) -0.9302(7)
H26 H 0.6428 0.6375 -0.7874
C24 C 0.5488(2) 0.65866(14) -0.9227(7)
H27 H 0.5565 0.6919 -0.9118
H28 H 0.5221 0.6525 -1.0548
C25 C 0.6705(2) 0.65376(14) -1.0911(7)
H29 H 0.6791 0.6862 -1.0576
H30 H 0.6490 0.6521 -1.2341
C26 C 0.7410(2) 0.62793(13) -1.0913(7)
H31 H 0.7654 0.6331 -0.9543
H32 H 0.7715 0.6402 -1.2057
C27 C 0.7313(2) 0.57587(13) -1.1253(7)
C28 C 0.6800(2) 0.55732(12) -0.9574(6)
H33 H 0.7012 0.5663 -0.8181
C29 C 0.6761(2) 0.50515(13) -0.9497(7)
H34 H 0.6452 0.4955 -0.8312
H35 H 0.6557 0.4934 -1.0839
C30 C 0.7497(2) 0.48590(14) -0.9187(8)
H36 H 0.7464 0.4523 -0.9076
H37 H 0.7690 0.4975 -0.7829
C31 C 0.8008(2) 0.49800(13) -1.0976(7)
C32 C 0.8039(2) 0.55083(13) -1.1289(7)
C33 C 0.8510(2) 0.56666(15) -0.9424(7)
H38 H 0.8732 0.5964 -0.9751
H39 H 0.8227 0.5698 -0.8109
C34 C 0.9071(3) 0.52985(17) -0.9161(10)
H40 H 0.9513 0.5385 -0.9901
H41 H 0.9177 0.5246 -0.7641
C35 C 0.8746(3) 0.48792(16) -1.0157(8)
C36 C 0.7860(3) 0.46987(15) -1.2986(8)
H42 H 0.7962 0.4377 -1.2705
H43 H 0.8160 0.4807 -1.4148
H44 H 0.7362 0.4732 -1.3386
loop_
_geom_bond_atom_site_label_1
_geom_bond_atom_site_label_2
_geom_bond_site_symmetry_1
_geom_bond_site_symmetry_2
Br1 C2 1_555 1_555
O1 C1 1_555 1_555
O2 C17 1_555 1_555
O3 H1 1_555 1_555
O4 N1 1_555 1_555
O5 N1 1_555 1_555
N1 C9 1_555 1_555
C1 C2 1_555 1_555
C2 C3 1_555 1_555
C3 H2 1_555 1_555
C4 C3 1_555 1_555
H3 C4 1_555 1_555
C5 C4 1_555 1_555
H4 C5 1_555 1_555
C6 C1 1_555 1_555
H5 C6 1_555 1_555
H6 C6 1_555 1_555
C7 C5 1_555 1_555
H7 C7 1_555 1_555
H8 C7 1_555 1_555
C8 C7 1_555 1_555
H9 C8 1_555 1_555
H10 C8 1_555 1_555
C9 C8 1_555 1_555
C10 C4 1_555 1_555
H11 C10 1_555 1_555
C11 C10 1_555 1_555
H12 C11 1_555 1_555
H13 C11 1_555 1_555
C12 C11 1_555 1_555
H14 C12 1_555 1_555
H15 C12 1_555 1_555
C13 C12 1_555 1_555
C14 O3 1_555 1_555
C15 C14 1_555 1_555
H16 C15 1_555 1_555
H17 C15 1_555 1_555
C16 C15 1_555 1_555
H18 C16 1_555 1_555
H19 C16 1_555 1_555
C17 C13 1_555 1_555
C18 C13 1_555 1_555
H20 C18 1_555 1_555
H21 C18 1_555 1_555
H22 C18 1_555 1_555
Br2 C20 1_555 1_555
O6 C19 1_555 1_555
O7 C35 1_555 1_555
O8 H23 1_555 1_555
O9 N2 1_555 1_555
O10 N2 1_555 1_555
N2 C27 1_555 1_555
C19 C20 1_555 1_555
C20 C21 1_555 1_555
C21 H24 1_555 1_555
C22 C21 1_555 1_555
H25 C22 1_555 1_555
C23 C22 1_555 1_555
H26 C23 1_555 1_555
C24 C19 1_555 1_555
H27 C24 1_555 1_555
H28 C24 1_555 1_555
C25 C23 1_555 1_555
H29 C25 1_555 1_555
H30 C25 1_555 1_555
C26 C25 1_555 1_555
H31 C26 1_555 1_555
H32 C26 1_555 1_555
C27 C26 1_555 1_555
C28 C22 1_555 1_555
H33 C28 1_555 1_555
C29 C28 1_555 1_555
H34 C29 1_555 1_555
H35 C29 1_555 1_555
C30 C29 1_555 1_555
H36 C30 1_555 1_555
H37 C30 1_555 1_555
C31 C30 1_555 1_555
C32 O8 1_555 1_555
C33 C32 1_555 1_555
H38 C33 1_555 1_555
H39 C33 1_555 1_555
C34 C33 1_555 1_555
H40 C34 1_555 1_555
H41 C34 1_555 1_555
C35 C31 1_555 1_555
C36 C31 1_555 1_555
H42 C36 1_555 1_555
H43 C36 1_555 1_555
H44 C36 1_555 1_555
C5 C6 1_555 1_555
C9 C10 1_555 1_555
C9 C14 1_555 1_555
C13 C14 1_555 1_555
C16 C17 1_555 1_555
C23 C24 1_555 1_555
C27 C28 1_555 1_555
C27 C32 1_555 1_555
C31 C32 1_555 1_555
C34 C35 1_555 1_555

#END
