
#######################################################################
#
#                 Cambridge Crystallographic Data Centre
#                                CCDC 
#
#######################################################################
#
# If this CIF has been generated from an entry in the Cambridge 
# Structural Database, then it will include bibliographic, chemical, 
# crystal, experimental, refinement or atomic coordinate data resulting 
# from the CCDC's data processing and validation procedures.
#
#######################################################################

data_FOLLUP
_chemical_formula_moiety         'C48 H70 N2 Si2'
_chemical_name_systematic        
1,3-bis(2,6-Di-isopropylphenyl)-2,2,4,4-tetrakis(3,3-dimethylbut-1-yn-1-yl)-1,3,2,4-diazadisiletidine
_symmetry_cell_setting           triclinic
_symmetry_space_group_name_H-M   'P -1'
_symmetry_Int_Tables_number      2
_space_group_name_Hall           '-P 1'
loop_
_symmetry_equiv_pos_site_id
_symmetry_equiv_pos_as_xyz
1 x,y,z
2 -x,-y,-z
_cell_length_a                   10.662(2)
_cell_length_b                   11.188(2)
_cell_length_c                   11.882(2)
_cell_angle_alpha                114.79(3)
_cell_angle_beta                 92.59(3)
_cell_angle_gamma                114.44(3)
_cell_volume                     1129.71
_exptl_crystal_colour            colorless
_exptl_crystal_description       block
_cell_formula_units_Z            1
loop_
_atom_site_label
_atom_site_type_symbol
_atom_site_fract_x
_atom_site_fract_y
_atom_site_fract_z
Si1 Si 0.92121(9) 0.06006(12) 0.49143(12)
N1 N 0.9115(3) -0.1106(3) 0.4451(3)
C1 C 0.8877(3) 0.1058(4) 0.3706(4)
C2 C 0.8550(4) 0.1459(5) 0.2963(5)
C3 C 0.8136(17) 0.1790(19) 0.1933(16)
C4 C 0.8665(13) 0.3390(18) 0.2468(19)
H1 H 0.8240 0.3735 0.3171
H2 H 0.8405 0.3601 0.1797
H3 H 0.9707 0.3914 0.2797
C5 C 0.8669(13) 0.113(2) 0.0713(15)
H4 H 0.8198 0.0032 0.0325
H5 H 0.9706 0.1530 0.0971
H6 H 0.8433 0.1406 0.0085
C6 C 0.6618(11) 0.113(2) 0.1513(16)
H7 H 0.6250 0.1521 0.2246
H8 H 0.6194 0.0038 0.1145
H9 H 0.6371 0.1368 0.0860
C7 C 0.8167(3) 0.1168(4) 0.5966(4)
C8 C 0.7404(4) 0.1627(5) 0.6594(4)
C9 C 0.6487(4) 0.2232(5) 0.7346(4)
C10 C 0.6917(5) 0.3776(5) 0.7590(6)
H10 H 0.6336 0.4150 0.8097
H11 H 0.6774 0.3775 0.6768
H12 H 0.7928 0.4427 0.8064
C11 C 0.5018(4) 0.1372(6) 0.6602(5)
H13 H 0.4459 0.1820 0.7074
H14 H 0.4634 0.0340 0.6449
H15 H 0.4961 0.1373 0.5776
C12 C 0.6606(5) 0.2192(6) 0.8597(5)
H16 H 0.5943 0.2484 0.9036
H17 H 0.7585 0.2890 0.9144
H18 H 0.6367 0.1175 0.8424
C13 C 0.8007(3) -0.2470(4) 0.3766(5)
C14 C 0.7736(4) -0.3153(5) 0.2457(5)
C15 C 0.6641(4) -0.4449(5) 0.1846(5)
H19 H 0.6388 -0.5001 0.0934
C16 C 0.5853(4) -0.5013(5) 0.2531(7)
H20 H 0.5037 -0.5974 0.2074
C17 C 0.6152(4) -0.4298(5) 0.3821(6)
H21 H 0.5550 -0.4766 0.4239
C18 C 0.7218(3) -0.3014(5) 0.4488(5)
C19 C 0.8583(4) -0.2616(5) 0.1675(4)
H22 H 0.9369 -0.1588 0.2288
C20 C 0.7741(5) -0.2426(6) 0.0732(5)
H23 H 0.7338 -0.1781 0.1206
H24 H 0.6967 -0.3408 0.0091
H25 H 0.8383 -0.1966 0.0299
C21 C 0.9333(4) -0.3575(6) 0.1019(5)
H26 H 0.9943 -0.3548 0.1681
H27 H 0.9917 -0.3163 0.0528
H28 H 0.8606 -0.4613 0.0438
C22 C 0.7469(4) -0.2325(5) 0.5900(5)
H29 H 0.8366 -0.1346 0.6260
C23 C 0.7787(4) -0.3262(6) 0.6430(6)
H30 H 0.8588 -0.3403 0.6147
H31 H 0.6939 -0.4241 0.6105
H32 H 0.8033 -0.2730 0.7372
C24 C 0.6286(4) -0.1939(5) 0.6407(5)
H33 H 0.6207 -0.1250 0.6138
H34 H 0.6539 -0.1464 0.7348
H35 H 0.5369 -0.2860 0.6053
Si1A Si 1.07879(9) -0.06006(12) 0.50857(12)
N1A N 1.0885(3) 0.1106(3) 0.5549(3)
C1A C 1.1123(3) -0.1058(4) 0.6294(4)
C2A C 1.1450(4) -0.1459(5) 0.7037(5)
C3A C 1.1864(17) -0.1790(19) 0.8067(16)
C4A C 1.1335(13) -0.3390(18) 0.7532(19)
H1A H 1.1760 -0.3735 0.6829
H2A H 1.1595 -0.3601 0.8203
H3A H 1.0293 -0.3914 0.7203
C5A C 1.1331(13) -0.113(2) 0.9287(15)
H4A H 1.1802 -0.0032 0.9675
H5A H 1.0294 -0.1530 0.9029
H6A H 1.1567 -0.1406 0.9915
C6A C 1.3382(11) -0.113(2) 0.8487(16)
H7A H 1.3750 -0.1521 0.7754
H8A H 1.3806 -0.0038 0.8855
H9A H 1.3629 -0.1368 0.9140
C7A C 1.1833(3) -0.1168(4) 0.4034(4)
C8A C 1.2596(4) -0.1627(5) 0.3406(4)
C9A C 1.3513(4) -0.2232(5) 0.2654(4)
C10A C 1.3083(5) -0.3776(5) 0.2410(6)
H10A H 1.3664 -0.4150 0.1903
H11A H 1.3226 -0.3775 0.3232
H12A H 1.2072 -0.4427 0.1936
C11A C 1.4982(4) -0.1372(6) 0.3398(5)
H13A H 1.5541 -0.1820 0.2926
H14A H 1.5366 -0.0340 0.3551
H15A H 1.5039 -0.1373 0.4224
C12A C 1.3394(5) -0.2192(6) 0.1403(5)
H16A H 1.4057 -0.2484 0.0964
H17A H 1.2415 -0.2890 0.0856
H18A H 1.3633 -0.1175 0.1576
C13A C 1.1993(3) 0.2470(4) 0.6234(5)
C14A C 1.2264(4) 0.3153(5) 0.7543(5)
C15A C 1.3359(4) 0.4449(5) 0.8154(5)
H19A H 1.3612 0.5001 0.9066
C16A C 1.4147(4) 0.5013(5) 0.7469(7)
H20A H 1.4963 0.5974 0.7926
C17A C 1.3848(4) 0.4298(5) 0.6179(6)
H21A H 1.4450 0.4766 0.5761
C18A C 1.2782(3) 0.3014(5) 0.5512(5)
C19A C 1.1417(4) 0.2616(5) 0.8325(4)
H22A H 1.0631 0.1588 0.7712
C20A C 1.2259(5) 0.2426(6) 0.9268(5)
H23A H 1.2662 0.1781 0.8794
H24A H 1.3033 0.3408 0.9909
H25A H 1.1617 0.1966 0.9701
C21A C 1.0667(4) 0.3575(6) 0.8981(5)
H26A H 1.0057 0.3548 0.8319
H27A H 1.0083 0.3163 0.9472
H28A H 1.1394 0.4613 0.9562
C22A C 1.2531(4) 0.2325(5) 0.4100(5)
H29A H 1.1634 0.1346 0.3740
C23A C 1.2213(4) 0.3262(6) 0.3570(6)
H30A H 1.1412 0.3403 0.3853
H31A H 1.3061 0.4241 0.3895
H32A H 1.1967 0.2730 0.2628
C24A C 1.3714(4) 0.1939(5) 0.3593(5)
H33A H 1.3793 0.1250 0.3862
H34A H 1.3461 0.1464 0.2652
H35A H 1.4631 0.2860 0.3947
C25? C 0.819(3) 0.224(3) 0.238(3)
C26? C 0.870(2) 0.390(3) 0.330(3)
H36? H 0.8275 0.4004 0.4026
H37? H 0.8404 0.4335 0.2838
H38? H 0.9741 0.4433 0.3613
C27? C 0.900(2) 0.214(4) 0.132(3)
H39? H 0.8968 0.1153 0.0912
H40? H 1.0002 0.2924 0.1704
H41? H 0.8557 0.2264 0.0668
C28? C 0.666(3) 0.169(3) 0.195(3)
H42? H 0.6313 0.2139 0.2681
H43? H 0.6152 0.0596 0.1582
H44? H 0.6482 0.1957 0.1295
loop_
_geom_bond_atom_site_label_1
_geom_bond_atom_site_label_2
_geom_bond_site_symmetry_1
_geom_bond_site_symmetry_2
Si1 N1 1_555 1_555
N1 C13 1_555 1_555
C1 Si1 1_555 1_555
C2 C1 1_555 1_555
C3 C2 1_555 1_555
C4 C3 1_555 1_555
H1 C4 1_555 1_555
H2 C4 1_555 1_555
H3 C4 1_555 1_555
C5 C3 1_555 1_555
H4 C5 1_555 1_555
H5 C5 1_555 1_555
H6 C5 1_555 1_555
C6 C3 1_555 1_555
H7 C6 1_555 1_555
H8 C6 1_555 1_555
H9 C6 1_555 1_555
C7 Si1 1_555 1_555
C8 C7 1_555 1_555
C9 C8 1_555 1_555
C10 C9 1_555 1_555
H10 C10 1_555 1_555
H11 C10 1_555 1_555
H12 C10 1_555 1_555
C11 C9 1_555 1_555
H13 C11 1_555 1_555
H14 C11 1_555 1_555
H15 C11 1_555 1_555
C12 C9 1_555 1_555
H16 C12 1_555 1_555
H17 C12 1_555 1_555
H18 C12 1_555 1_555
C13 C14 1_555 1_555
C14 C15 1_555 1_555
C15 H19 1_555 1_555
C16 C15 1_555 1_555
H20 C16 1_555 1_555
C17 C16 1_555 1_555
H21 C17 1_555 1_555
C18 C13 1_555 1_555
C19 C14 1_555 1_555
H22 C19 1_555 1_555
C20 C19 1_555 1_555
H23 C20 1_555 1_555
H24 C20 1_555 1_555
H25 C20 1_555 1_555
C21 C19 1_555 1_555
H26 C21 1_555 1_555
H27 C21 1_555 1_555
H28 C21 1_555 1_555
C22 C18 1_555 1_555
H29 C22 1_555 1_555
C23 C22 1_555 1_555
H30 C23 1_555 1_555
H31 C23 1_555 1_555
H32 C23 1_555 1_555
C24 C22 1_555 1_555
H33 C24 1_555 1_555
H34 C24 1_555 1_555
H35 C24 1_555 1_555
Si1A N1 1_555 1_555
N1A Si1 1_555 1_555
C1A Si1A 1_555 1_555
C2A C1A 1_555 1_555
C3A C2A 1_555 1_555
C4A C3A 1_555 1_555
H1A C4A 1_555 1_555
H2A C4A 1_555 1_555
H3A C4A 1_555 1_555
C5A C3A 1_555 1_555
H4A C5A 1_555 1_555
H5A C5A 1_555 1_555
H6A C5A 1_555 1_555
C6A C3A 1_555 1_555
H7A C6A 1_555 1_555
H8A C6A 1_555 1_555
H9A C6A 1_555 1_555
C7A Si1A 1_555 1_555
C8A C7A 1_555 1_555
C9A C8A 1_555 1_555
C10A C9A 1_555 1_555
H10A C10A 1_555 1_555
H11A C10A 1_555 1_555
H12A C10A 1_555 1_555
C11A C9A 1_555 1_555
H13A C11A 1_555 1_555
H14A C11A 1_555 1_555
H15A C11A 1_555 1_555
C12A C9A 1_555 1_555
H16A C12A 1_555 1_555
H17A C12A 1_555 1_555
H18A C12A 1_555 1_555
C13A N1A 1_555 1_555
C14A C13A 1_555 1_555
C15A C14A 1_555 1_555
H19A C15A 1_555 1_555
C16A C15A 1_555 1_555
H20A C16A 1_555 1_555
C17A C16A 1_555 1_555
H21A C17A 1_555 1_555
C18A C13A 1_555 1_555
C19A C14A 1_555 1_555
H22A C19A 1_555 1_555
C20A C19A 1_555 1_555
H23A C20A 1_555 1_555
H24A C20A 1_555 1_555
H25A C20A 1_555 1_555
C21A C19A 1_555 1_555
H26A C21A 1_555 1_555
H27A C21A 1_555 1_555
H28A C21A 1_555 1_555
C22A C18A 1_555 1_555
H29A C22A 1_555 1_555
C23A C22A 1_555 1_555
H30A C23A 1_555 1_555
H31A C23A 1_555 1_555
H32A C23A 1_555 1_555
C24A C22A 1_555 1_555
H33A C24A 1_555 1_555
H34A C24A 1_555 1_555
H35A C24A 1_555 1_555
C17 C18 1_555 1_555
Si1A N1A 1_555 1_555
C17A C18A 1_555 1_555

#END
