
#######################################################################
#
#                 Cambridge Crystallographic Data Centre
#                                CCDC 
#
#######################################################################
#
# If this CIF has been generated from an entry in the Cambridge 
# Structural Database, then it will include bibliographic, chemical, 
# crystal, experimental, refinement or atomic coordinate data resulting 
# from the CCDC's data processing and validation procedures.
#
#######################################################################

data_FOLMAW
_chemical_formula_moiety         'C64 H70 N2 Si2'
_chemical_name_systematic        
1,3-bis(2,6-Di-isopropylphenyl)-2,2,4,4-tetrakis(4-phenylbut-1-yn-1-yl)-1,3,2,4-diazadisiletidine
_symmetry_cell_setting           triclinic
_symmetry_space_group_name_H-M   'P -1'
_symmetry_Int_Tables_number      2
_space_group_name_Hall           '-P 1'
loop_
_symmetry_equiv_pos_site_id
_symmetry_equiv_pos_as_xyz
1 x,y,z
2 -x,-y,-z
_cell_length_a                   12.609(3)
_cell_length_b                   13.585(3)
_cell_length_c                   16.459(3)
_cell_angle_alpha                79.92(3)
_cell_angle_beta                 82.41(3)
_cell_angle_gamma                86.82(3)
_cell_volume                     2749.97
_exptl_crystal_colour            colorless
_exptl_crystal_description       block
_cell_formula_units_Z            2
loop_
_atom_site_label
_atom_site_type_symbol
_atom_site_fract_x
_atom_site_fract_y
_atom_site_fract_z
Si1 Si 0.09288(6) 0.97228(6) 0.01401(5)
N1 N -0.03453(18) 0.93312(16) 0.05041(13)
C1 C 0.1806(3) 0.8848(2) -0.03576(19)
C2 C 0.2376(3) 0.8250(2) -0.0671(2)
C3 C 0.3055(3) 0.7495(3) -0.1029(2)
H1 H 0.3685 0.7820 -0.1373
H2 H 0.2652 0.7200 -0.1400
C4 C 0.3433(3) 0.6668(3) -0.0380(2)
H3 H 0.2807 0.6297 -0.0075
H4 H 0.3769 0.6969 0.0026
C5 C 0.4015(3) 0.5855(3) -0.0743(3)
C6 C 0.3443(3) 0.5060(3) -0.0868(3)
H5 H 0.2691 0.5046 -0.0709
C7 C 0.3971(4) 0.4287(3) -0.1227(3)
H6 H 0.3580 0.3743 -0.1313
C8 C 0.5071(4) 0.4308(3) -0.1461(3)
H7 H 0.5432 0.3779 -0.1706
C9 C 0.5643(3) 0.5103(3) -0.1335(3)
H8 H 0.6395 0.5117 -0.1495
C10 C 0.5115(3) 0.5876(3) -0.0976(3)
H9 H 0.5506 0.6419 -0.0891
C11 C 0.1649(2) 1.0094(2) 0.09069(18)
C12 C 0.2112(2) 1.0321(2) 0.14371(19)
C13 C 0.2675(3) 1.0639(3) 0.2065(2)
H10 H 0.2745 1.0069 0.2521
H11 H 0.2245 1.1177 0.2302
C14 C 0.3778(3) 1.1017(3) 0.1710(2)
H12 H 0.4241 1.0455 0.1544
H13 H 0.3720 1.1526 0.1206
C15 C 0.4284(3) 1.1469(3) 0.2330(2)
C16 C 0.3893(4) 1.2365(3) 0.2543(2)
H14 H 0.3301 1.2691 0.2293
C17 C 0.4331(4) 1.2803(3) 0.3106(3)
H15 H 0.4044 1.3423 0.3244
C18 C 0.5170(4) 1.2349(4) 0.3462(3)
H16 H 0.5474 1.2656 0.3850
C19 C 0.5593(3) 1.1459(4) 0.3278(2)
H17 H 0.6184 1.1146 0.3537
C20 C 0.5146(3) 1.1007(3) 0.2700(2)
H18 H 0.5435 1.0386 0.2566
C21 C -0.0747(2) 0.8515(2) 0.11275(17)
C22 C -0.0970(2) 0.8636(2) 0.19637(18)
C23 C -0.1346(3) 0.7835(3) 0.2548(2)
H19 H -0.1485 0.7907 0.3116
C24 C -0.1527(3) 0.6927(3) 0.2323(2)
H20 H -0.1799 0.6389 0.2734
C25 C -0.1311(3) 0.6810(2) 0.1504(2)
H21 H -0.1433 0.6186 0.1354
C26 C -0.0918(3) 0.7589(2) 0.08935(19)
C27 C -0.0812(3) 0.9609(2) 0.22496(18)
H22 H -0.0492 1.0085 0.1755
C28 C -0.1884(3) 1.0075(3) 0.2579(2)
H23 H -0.2365 1.0167 0.2149
H24 H -0.1762 1.0725 0.2727
H25 H -0.2208 0.9630 0.3073
C29 C -0.0028(3) 0.9475(3) 0.2906(2)
H26 H 0.0671 0.9234 0.2666
H27 H -0.0306 0.8989 0.3389
H28 H 0.0051 1.0119 0.3079
C30 C -0.0683(3) 0.7406(2) 0.0004(2)
H29 H -0.0395 0.8035 -0.0346
C31 C -0.1689(3) 0.7165(3) -0.0342(2)
H30 H -0.1514 0.7124 -0.0934
H31 H -0.2239 0.7694 -0.0275
H32 H -0.1959 0.6523 -0.0039
C32 C 0.0169(3) 0.6579(3) -0.0075(3)
H33 H 0.0799 0.6728 0.0167
H34 H 0.0373 0.6537 -0.0664
H35 H -0.0115 0.5940 0.0221
Si1A Si -0.09288(6) 1.02772(6) -0.01401(5)
N1A N 0.03453(18) 1.06688(16) -0.05041(13)
C1A C -0.1806(3) 1.1152(2) 0.03576(19)
C2A C -0.2376(3) 1.1750(2) 0.0671(2)
C3A C -0.3055(3) 1.2505(3) 0.1029(2)
H1A H -0.3685 1.2180 0.1373
H2A H -0.2652 1.2800 0.1400
C4A C -0.3433(3) 1.3332(3) 0.0380(2)
H3A H -0.2807 1.3703 0.0075
H4A H -0.3769 1.3031 -0.0026
C5A C -0.4015(3) 1.4145(3) 0.0743(3)
C6A C -0.3443(3) 1.4940(3) 0.0868(3)
H5A H -0.2691 1.4954 0.0709
C7A C -0.3971(4) 1.5713(3) 0.1227(3)
H6A H -0.3580 1.6257 0.1313
C8A C -0.5071(4) 1.5692(3) 0.1461(3)
H7A H -0.5432 1.6221 0.1706
C9A C -0.5643(3) 1.4897(3) 0.1335(3)
H8A H -0.6395 1.4883 0.1495
C10A C -0.5115(3) 1.4124(3) 0.0976(3)
H9A H -0.5506 1.3581 0.0891
C11A C -0.1649(2) 0.9906(2) -0.09069(18)
C12A C -0.2112(2) 0.9679(2) -0.14371(19)
C13A C -0.2675(3) 0.9361(3) -0.2065(2)
H10A H -0.2745 0.9931 -0.2521
H11A H -0.2245 0.8823 -0.2302
C14A C -0.3778(3) 0.8983(3) -0.1710(2)
H12A H -0.4241 0.9545 -0.1544
H13A H -0.3720 0.8474 -0.1206
C15A C -0.4284(3) 0.8531(3) -0.2330(2)
C16A C -0.3893(4) 0.7635(3) -0.2543(2)
H14A H -0.3301 0.7309 -0.2293
C17A C -0.4331(4) 0.7197(3) -0.3106(3)
H15A H -0.4044 0.6577 -0.3244
C18A C -0.5170(4) 0.7651(4) -0.3462(3)
H16A H -0.5474 0.7344 -0.3850
C19A C -0.5593(3) 0.8541(4) -0.3278(2)
H17A H -0.6184 0.8854 -0.3537
C20A C -0.5146(3) 0.8993(3) -0.2700(2)
H18A H -0.5435 0.9614 -0.2566
C21A C 0.0747(2) 1.1485(2) -0.11275(17)
C22A C 0.0970(2) 1.1364(2) -0.19637(18)
C23A C 0.1346(3) 1.2165(3) -0.2548(2)
H19A H 0.1485 1.2093 -0.3116
C24A C 0.1527(3) 1.3073(3) -0.2323(2)
H20A H 0.1799 1.3611 -0.2734
C25A C 0.1311(3) 1.3190(2) -0.1504(2)
H21A H 0.1433 1.3814 -0.1354
C26A C 0.0918(3) 1.2411(2) -0.08935(19)
C27A C 0.0812(3) 1.0391(2) -0.22496(18)
H22A H 0.0492 0.9915 -0.1755
C28A C 0.1884(3) 0.9925(3) -0.2579(2)
H23A H 0.2365 0.9833 -0.2149
H24A H 0.1762 0.9275 -0.2727
H25A H 0.2208 1.0370 -0.3073
C29A C 0.0028(3) 1.0525(3) -0.2906(2)
H26A H -0.0671 1.0766 -0.2666
H27A H 0.0306 1.1011 -0.3389
H28A H -0.0051 0.9881 -0.3079
C30A C 0.0683(3) 1.2594(2) -0.0004(2)
H29A H 0.0395 1.1965 0.0346
C31A C 0.1689(3) 1.2835(3) 0.0342(2)
H30A H 0.1514 1.2876 0.0934
H31A H 0.2239 1.2306 0.0275
H32A H 0.1959 1.3477 0.0039
C32A C -0.0169(3) 1.3421(3) 0.0075(3)
H33A H -0.0799 1.3272 -0.0167
H34A H -0.0373 1.3463 0.0664
H35A H 0.0115 1.4060 -0.0221
Si2 Si 1.00960(6) 0.58798(5) 0.46167(5)
N2 N 0.93995(17) 0.48465(15) 0.45473(13)
C39 C 1.1037(2) 0.6340(2) 0.37298(19)
C40 C 1.1623(3) 0.6718(3) 0.3132(2)
C41 C 1.2355(3) 0.7185(4) 0.2426(2)
H41 H 1.2641 0.6666 0.2093
H42 H 1.1945 0.7687 0.2068
C42 C 1.3213(4) 0.7650(4) 0.2633(2)
H43 H 1.3542 0.7167 0.3059
H44 H 1.2912 0.8216 0.2906
C43 C 1.4107(3) 0.8051(3) 0.1979(2)
C44 C 1.5132(3) 0.8088(3) 0.2189(2)
H45 H 1.5266 0.7863 0.2747
C45 C 1.5972(3) 0.8454(3) 0.1583(3)
H46 H 1.6676 0.8468 0.1727
C46 C 1.5769(3) 0.8789(3) 0.0784(3)
H47 H 1.6328 0.9057 0.0374
C47 C 1.4779(3) 0.8740(3) 0.0576(2)
H48 H 1.4650 0.8963 0.0016
C48 C 1.3955(3) 0.8375(3) 0.11575(19)
H49 H 1.3264 0.8344 0.0994
C49 C 0.9278(2) 0.6957(2) 0.48521(17)
C50 C 0.8694(3) 0.7657(2) 0.49743(19)
C51 C 0.7953(3) 0.8500(2) 0.5098(2)
H50 H 0.7631 0.8734 0.4579
H51 H 0.7367 0.8261 0.5539
C52 C 0.8438(3) 0.9349(3) 0.5330(3)
H52 H 0.9098 0.9515 0.4943
H53 H 0.8648 0.9146 0.5896
C53 C 0.7713(3) 1.0281(2) 0.5318(2)
C54 C 0.8108(3) 1.1210(3) 0.4989(3)
H54 H 0.8842 1.1268 0.4772
C55 C 0.7456(4) 1.2052(3) 0.4970(3)
H55 H 0.7742 1.2687 0.4738
C56 C 0.6406(4) 1.1989(3) 0.5278(2)
H56 H 0.5963 1.2579 0.5270
C57 C 0.5987(3) 1.1080(3) 0.5599(2)
H57 H 0.5248 1.1031 0.5807
C58 C 0.6645(3) 1.0225(3) 0.5621(2)
H58 H 0.6353 0.9592 0.5848
C59 C 0.8665(2) 0.46497(19) 0.39958(16)
C60 C 0.9059(2) 0.4211(2) 0.32993(17)
C61 C 0.8321(3) 0.3989(2) 0.2804(2)
H59 H 0.8564 0.3681 0.2334
C62 C 0.7246(3) 0.4207(3) 0.2982(2)
H60 H 0.6754 0.4042 0.2640
C63 C 0.6889(3) 0.4655(2) 0.3642(2)
H61 H 0.6146 0.4813 0.3751
C64 C 0.7580(2) 0.4893(2) 0.41687(18)
C65 C 1.0232(2) 0.3969(2) 0.30601(19)
H62 H 1.0630 0.4115 0.3510
C66 C 1.0671(3) 0.4629(3) 0.2258(2)
H63 H 1.0553 0.5334 0.2318
H64 H 1.0303 0.4497 0.1802
H65 H 1.1440 0.4484 0.2137
C67 C 1.0442(3) 0.2866(3) 0.2998(2)
H66 H 1.0153 0.2453 0.3521
H67 H 1.1215 0.2730 0.2892
H68 H 1.0093 0.2707 0.2541
C68 C 0.7126(2) 0.5416(2) 0.48842(18)
H69 H 0.7740 0.5572 0.5162
C69 C 0.6387(2) 0.4740(2) 0.5531(2)
H70 H 0.6783 0.4126 0.5738
H71 H 0.5778 0.4570 0.5275
H72 H 0.6127 0.5090 0.5995
C70 C 0.6548(3) 0.6405(2) 0.4585(2)
H73 H 0.7049 0.6845 0.4201
H74 H 0.6278 0.6726 0.5064
H75 H 0.5949 0.6277 0.4299
Si2A Si 0.99040(6) 0.41202(5) 0.53833(5)
N2A N 1.06005(17) 0.51535(15) 0.54527(13)
C39A C 0.8963(2) 0.3660(2) 0.62702(19)
C40A C 0.8377(3) 0.3282(3) 0.6868(2)
C41A C 0.7645(3) 0.2815(4) 0.7574(2)
H41A H 0.7359 0.3334 0.7907
H42A H 0.8055 0.2313 0.7932
C42A C 0.6787(4) 0.2350(4) 0.7367(2)
H43A H 0.6458 0.2833 0.6941
H44A H 0.7088 0.1784 0.7094
C43A C 0.5893(3) 0.1949(3) 0.8021(2)
C44A C 0.4868(3) 0.1912(3) 0.7811(2)
H45A H 0.4734 0.2137 0.7253
C45A C 0.4028(3) 0.1546(3) 0.8417(3)
H46A H 0.3324 0.1532 0.8273
C46A C 0.4231(3) 0.1211(3) 0.9216(3)
H47A H 0.3672 0.0943 0.9626
C47A C 0.5221(3) 0.1260(3) 0.9424(2)
H48A H 0.5350 0.1037 0.9984
C48A C 0.6045(3) 0.1625(3) 0.88425(19)
H49A H 0.6736 0.1656 0.9006
C49A C 1.0722(2) 0.3043(2) 0.51479(17)
C50A C 1.1306(3) 0.2343(2) 0.50257(19)
C51A C 1.2047(3) 0.1500(2) 0.4902(2)
H50A H 1.2369 0.1266 0.5421
H51A H 1.2633 0.1739 0.4461
C52A C 1.1562(3) 0.0651(3) 0.4670(3)
H52A H 1.0902 0.0485 0.5057
H53A H 1.1352 0.0854 0.4104
C53A C 1.2287(3) -0.0281(2) 0.4682(2)
C54A C 1.1892(3) -0.1210(3) 0.5011(3)
H54A H 1.1158 -0.1268 0.5228
C55A C 1.2544(4) -0.2052(3) 0.5030(3)
H55A H 1.2258 -0.2687 0.5262
C56A C 1.3594(4) -0.1989(3) 0.4722(2)
H56A H 1.4037 -0.2579 0.4730
C57A C 1.4013(3) -0.1080(3) 0.4401(2)
H57A H 1.4752 -0.1031 0.4193
C58A C 1.3355(3) -0.0225(3) 0.4379(2)
H58A H 1.3647 0.0408 0.4152
C59A C 1.1335(2) 0.53503(19) 0.60042(16)
C60A C 1.0941(2) 0.5789(2) 0.67007(17)
C61A C 1.1679(3) 0.6011(2) 0.7196(2)
H59A H 1.1436 0.6319 0.7666
C62A C 1.2754(3) 0.5793(3) 0.7018(2)
H60A H 1.3246 0.5958 0.7360
C63A C 1.3111(3) 0.5345(2) 0.6358(2)
H61A H 1.3854 0.5187 0.6249
C64A C 1.2420(2) 0.5107(2) 0.58313(18)
C65A C 0.9768(2) 0.6031(2) 0.69399(19)
H62A H 0.9370 0.5885 0.6490
C66A C 0.9329(3) 0.5371(3) 0.7742(2)
H63A H 0.9447 0.4666 0.7682
H64A H 0.9697 0.5503 0.8198
H65A H 0.8560 0.5516 0.7863
C67A C 0.9558(3) 0.7134(3) 0.7002(2)
H66A H 0.9847 0.7547 0.6479
H67A H 0.8785 0.7270 0.7108
H68A H 0.9907 0.7293 0.7459
C68A C 1.2874(2) 0.4584(2) 0.51158(18)
H69A H 1.2260 0.4428 0.4838
C69A C 1.3613(2) 0.5260(2) 0.4469(2)
H70A H 1.3217 0.5874 0.4262
H71A H 1.4222 0.5430 0.4725
H72A H 1.3873 0.4910 0.4005
C70A C 1.3452(3) 0.3595(2) 0.5415(2)
H73A H 1.2951 0.3155 0.5799
H74A H 1.3722 0.3274 0.4936
H75A H 1.4051 0.3723 0.5701
C33? C 0.4235(5) 0.5939(6) -0.0752(5)
C34? C 0.3932(5) 0.5204(6) -0.1157(5)
H36? H 0.3195 0.5114 -0.1180
C35? C 0.4707(6) 0.4600(5) -0.1529(5)
H37? H 0.4500 0.4097 -0.1807
C36? C 0.5785(6) 0.4731(5) -0.1496(5)
H38? H 0.6315 0.4318 -0.1751
C37? C 0.6088(5) 0.5466(6) -0.1091(5)
H39? H 0.6825 0.5556 -0.1068
C38? C 0.5313(6) 0.6070(5) -0.0718(5)
H40? H 0.5520 0.6573 -0.0441
loop_
_geom_bond_atom_site_label_1
_geom_bond_atom_site_label_2
_geom_bond_site_symmetry_1
_geom_bond_site_symmetry_2
Si1 N1 1_555 1_555
N1 C21 1_555 1_555
C1 Si1 1_555 1_555
C2 C1 1_555 1_555
C3 C2 1_555 1_555
H1 C3 1_555 1_555
H2 C3 1_555 1_555
C4 C3 1_555 1_555
H3 C4 1_555 1_555
H4 C4 1_555 1_555
C5 C4 1_555 1_555
C6 C5 1_555 1_555
H5 C6 1_555 1_555
C7 C6 1_555 1_555
H6 C7 1_555 1_555
C8 C7 1_555 1_555
H7 C8 1_555 1_555
C9 C8 1_555 1_555
H8 C9 1_555 1_555
C10 C5 1_555 1_555
H9 C10 1_555 1_555
C11 Si1 1_555 1_555
C12 C11 1_555 1_555
C13 C12 1_555 1_555
H10 C13 1_555 1_555
H11 C13 1_555 1_555
C14 C13 1_555 1_555
H12 C14 1_555 1_555
H13 C14 1_555 1_555
C15 C14 1_555 1_555
C16 C15 1_555 1_555
H14 C16 1_555 1_555
C17 C16 1_555 1_555
H15 C17 1_555 1_555
C18 C17 1_555 1_555
H16 C18 1_555 1_555
C19 C18 1_555 1_555
H17 C19 1_555 1_555
C20 C15 1_555 1_555
H18 C20 1_555 1_555
C21 C22 1_555 1_555
C22 C23 1_555 1_555
C23 H19 1_555 1_555
C24 C23 1_555 1_555
H20 C24 1_555 1_555
C25 C24 1_555 1_555
H21 C25 1_555 1_555
C26 C21 1_555 1_555
C27 C22 1_555 1_555
H22 C27 1_555 1_555
C28 C27 1_555 1_555
H23 C28 1_555 1_555
H24 C28 1_555 1_555
H25 C28 1_555 1_555
C29 C27 1_555 1_555
H26 C29 1_555 1_555
H27 C29 1_555 1_555
H28 C29 1_555 1_555
C30 C26 1_555 1_555
H29 C30 1_555 1_555
C31 C30 1_555 1_555
H30 C31 1_555 1_555
H31 C31 1_555 1_555
H32 C31 1_555 1_555
C32 C30 1_555 1_555
H33 C32 1_555 1_555
H34 C32 1_555 1_555
H35 C32 1_555 1_555
Si2 N2 1_555 1_555
N2 C59 1_555 1_555
C39 Si2 1_555 1_555
C40 C39 1_555 1_555
C41 C40 1_555 1_555
H41 C41 1_555 1_555
H42 C41 1_555 1_555
C42 C41 1_555 1_555
H43 C42 1_555 1_555
H44 C42 1_555 1_555
C43 C42 1_555 1_555
C44 C43 1_555 1_555
H45 C44 1_555 1_555
C45 C44 1_555 1_555
H46 C45 1_555 1_555
C46 C45 1_555 1_555
H47 C46 1_555 1_555
C47 C46 1_555 1_555
H48 C47 1_555 1_555
C48 C43 1_555 1_555
H49 C48 1_555 1_555
C49 Si2 1_555 1_555
C50 C49 1_555 1_555
C51 C50 1_555 1_555
H50 C51 1_555 1_555
H51 C51 1_555 1_555
C52 C51 1_555 1_555
H52 C52 1_555 1_555
H53 C52 1_555 1_555
C53 C52 1_555 1_555
C54 C53 1_555 1_555
H54 C54 1_555 1_555
C55 C54 1_555 1_555
H55 C55 1_555 1_555
C56 C55 1_555 1_555
H56 C56 1_555 1_555
C57 C56 1_555 1_555
H57 C57 1_555 1_555
C58 C53 1_555 1_555
H58 C58 1_555 1_555
C59 C60 1_555 1_555
C60 C61 1_555 1_555
C61 H59 1_555 1_555
C62 C61 1_555 1_555
H60 C62 1_555 1_555
C63 C62 1_555 1_555
H61 C63 1_555 1_555
C64 C59 1_555 1_555
C65 C60 1_555 1_555
H62 C65 1_555 1_555
C66 C65 1_555 1_555
H63 C66 1_555 1_555
H64 C66 1_555 1_555
H65 C66 1_555 1_555
C67 C65 1_555 1_555
H66 C67 1_555 1_555
H67 C67 1_555 1_555
H68 C67 1_555 1_555
C68 C64 1_555 1_555
H69 C68 1_555 1_555
C69 C68 1_555 1_555
H70 C69 1_555 1_555
H71 C69 1_555 1_555
H72 C69 1_555 1_555
C70 C68 1_555 1_555
H73 C70 1_555 1_555
H74 C70 1_555 1_555
H75 C70 1_555 1_555
Si1A N1 1_555 1_555
N1A Si1 1_555 1_555
C1A Si1A 1_555 1_555
C2A C1A 1_555 1_555
C3A C2A 1_555 1_555
H1A C3A 1_555 1_555
H2A C3A 1_555 1_555
C4A C3A 1_555 1_555
H3A C4A 1_555 1_555
H4A C4A 1_555 1_555
C5A C4A 1_555 1_555
C6A C5A 1_555 1_555
H5A C6A 1_555 1_555
C7A C6A 1_555 1_555
H6A C7A 1_555 1_555
C8A C7A 1_555 1_555
H7A C8A 1_555 1_555
C9A C8A 1_555 1_555
H8A C9A 1_555 1_555
C10A C5A 1_555 1_555
H9A C10A 1_555 1_555
C11A Si1A 1_555 1_555
C12A C11A 1_555 1_555
C13A C12A 1_555 1_555
H10A C13A 1_555 1_555
H11A C13A 1_555 1_555
C14A C13A 1_555 1_555
H12A C14A 1_555 1_555
H13A C14A 1_555 1_555
C15A C14A 1_555 1_555
C16A C15A 1_555 1_555
H14A C16A 1_555 1_555
C17A C16A 1_555 1_555
H15A C17A 1_555 1_555
C18A C17A 1_555 1_555
H16A C18A 1_555 1_555
C19A C18A 1_555 1_555
H17A C19A 1_555 1_555
C20A C15A 1_555 1_555
H18A C20A 1_555 1_555
C21A N1A 1_555 1_555
C22A C21A 1_555 1_555
C23A C22A 1_555 1_555
H19A C23A 1_555 1_555
C24A C23A 1_555 1_555
H20A C24A 1_555 1_555
C25A C24A 1_555 1_555
H21A C25A 1_555 1_555
C26A C21A 1_555 1_555
C27A C22A 1_555 1_555
H22A C27A 1_555 1_555
C28A C27A 1_555 1_555
H23A C28A 1_555 1_555
H24A C28A 1_555 1_555
H25A C28A 1_555 1_555
C29A C27A 1_555 1_555
H26A C29A 1_555 1_555
H27A C29A 1_555 1_555
H28A C29A 1_555 1_555
C30A C26A 1_555 1_555
H29A C30A 1_555 1_555
C31A C30A 1_555 1_555
H30A C31A 1_555 1_555
H31A C31A 1_555 1_555
H32A C31A 1_555 1_555
C32A C30A 1_555 1_555
H33A C32A 1_555 1_555
H34A C32A 1_555 1_555
H35A C32A 1_555 1_555
Si2A N2 1_555 1_555
N2A Si2 1_555 1_555
C39A Si2A 1_555 1_555
C40A C39A 1_555 1_555
C41A C40A 1_555 1_555
H41A C41A 1_555 1_555
H42A C41A 1_555 1_555
C42A C41A 1_555 1_555
H43A C42A 1_555 1_555
H44A C42A 1_555 1_555
C43A C42A 1_555 1_555
C44A C43A 1_555 1_555
H45A C44A 1_555 1_555
C45A C44A 1_555 1_555
H46A C45A 1_555 1_555
C46A C45A 1_555 1_555
H47A C46A 1_555 1_555
C47A C46A 1_555 1_555
H48A C47A 1_555 1_555
C48A C43A 1_555 1_555
H49A C48A 1_555 1_555
C49A Si2A 1_555 1_555
C50A C49A 1_555 1_555
C51A C50A 1_555 1_555
H50A C51A 1_555 1_555
H51A C51A 1_555 1_555
C52A C51A 1_555 1_555
H52A C52A 1_555 1_555
H53A C52A 1_555 1_555
C53A C52A 1_555 1_555
C54A C53A 1_555 1_555
H54A C54A 1_555 1_555
C55A C54A 1_555 1_555
H55A C55A 1_555 1_555
C56A C55A 1_555 1_555
H56A C56A 1_555 1_555
C57A C56A 1_555 1_555
H57A C57A 1_555 1_555
C58A C53A 1_555 1_555
H58A C58A 1_555 1_555
C59A N2A 1_555 1_555
C60A C59A 1_555 1_555
C61A C60A 1_555 1_555
H59A C61A 1_555 1_555
C62A C61A 1_555 1_555
H60A C62A 1_555 1_555
C63A C62A 1_555 1_555
H61A C63A 1_555 1_555
C64A C59A 1_555 1_555
C65A C60A 1_555 1_555
H62A C65A 1_555 1_555
C66A C65A 1_555 1_555
H63A C66A 1_555 1_555
H64A C66A 1_555 1_555
H65A C66A 1_555 1_555
C67A C65A 1_555 1_555
H66A C67A 1_555 1_555
H67A C67A 1_555 1_555
H68A C67A 1_555 1_555
C68A C64A 1_555 1_555
H69A C68A 1_555 1_555
C69A C68A 1_555 1_555
H70A C69A 1_555 1_555
H71A C69A 1_555 1_555
H72A C69A 1_555 1_555
C70A C68A 1_555 1_555
H73A C70A 1_555 1_555
H74A C70A 1_555 1_555
H75A C70A 1_555 1_555
C9 C10 1_555 1_555
C19 C20 1_555 1_555
C25 C26 1_555 1_555
C47 C48 1_555 1_555
C57 C58 1_555 1_555
C63 C64 1_555 1_555
Si1A N1A 1_555 1_555
C9A C10A 1_555 1_555
C19A C20A 1_555 1_555
C25A C26A 1_555 1_555
Si2A N2A 1_555 1_555
C47A C48A 1_555 1_555
C57A C58A 1_555 1_555
C63A C64A 1_555 1_555

#END
