
#######################################################################
#
#                 Cambridge Crystallographic Data Centre
#                                CCDC 
#
#######################################################################
#
# If this CIF has been generated from an entry in the Cambridge 
# Structural Database, then it will include bibliographic, chemical, 
# crystal, experimental, refinement or atomic coordinate data resulting 
# from the CCDC's data processing and validation procedures.
#
#######################################################################

data_FOLMOK
_chemical_formula_moiety         'C24 H34 Cl4 N2 Si2'
_chemical_name_systematic        
2,2,4,4-Tetrachloro-1,3-bis(2,6-diisopropylphenyl)-1,3,2,4-diazadisiletidine
_symmetry_cell_setting           monoclinic
_symmetry_space_group_name_H-M   'P 21/n'
_symmetry_Int_Tables_number      14
_space_group_name_Hall           '-P 2yn'
loop_
_symmetry_equiv_pos_site_id
_symmetry_equiv_pos_as_xyz
1 x,y,z
2 1/2-x,1/2+y,1/2-z
3 -x,-y,-z
4 1/2+x,1/2-y,1/2+z
_cell_length_a                   9.7248(2)
_cell_length_b                   11.3667(3)
_cell_length_c                   13.0557(4)
_cell_angle_alpha                90
_cell_angle_beta                 96.074(2)
_cell_angle_gamma                90
_cell_volume                     1435.06
_exptl_crystal_colour            colorless
_exptl_crystal_description       block
_cell_formula_units_Z            2
loop_
_atom_site_label
_atom_site_type_symbol
_atom_site_fract_x
_atom_site_fract_y
_atom_site_fract_z
Si1 Si 0.07623(4) 0.58346(4) 0.48508(3)
Cl1 Cl 0.02023(5) 0.74894(3) 0.44102(3)
Cl2 Cl 0.28535(4) 0.58524(4) 0.49939(3)
N1 N -0.00115(12) 0.47157(11) 0.41212(8)
C1 C -0.00137(14) 0.43601(13) 0.30631(10)
C2 C -0.10342(15) 0.48051(14) 0.23228(11)
C3 C -0.1007(2) 0.44483(19) 0.13067(13)
H1 H -0.1690 0.4737 0.0794
C4 C -0.0016(2) 0.3688(2) 0.10278(14)
H2 H -0.0013 0.3461 0.0328
C5 C 0.0975(2) 0.3254(2) 0.17647(13)
H3 H 0.1656 0.2726 0.1565
C6 C 0.09972(15) 0.35737(15) 0.27918(11)
C7 C -0.21557(15) 0.56484(14) 0.25776(12)
H4 H -0.2007 0.5823 0.3332
C8 C -0.35962(17) 0.51175(17) 0.23436(15)
H5 H -0.3641 0.4368 0.2710
H6 H -0.3787 0.4982 0.1601
H7 H -0.4286 0.5661 0.2570
C9 C -0.20856(19) 0.68093(16) 0.19959(15)
H8 H -0.1154 0.7141 0.2129
H9 H -0.2759 0.7363 0.2230
H10 H -0.2299 0.6668 0.1256
C10 C 0.21346(15) 0.30740(15) 0.35537(12)
H11 H 0.1980 0.3363 0.4256
C11 C 0.2109(2) 0.17329(17) 0.35752(15)
H12 H 0.1205 0.1464 0.3750
H13 H 0.2835 0.1446 0.4093
H14 H 0.2270 0.1427 0.2896
C12 C 0.35478(17) 0.35208(19) 0.33093(15)
H15 H 0.3534 0.4382 0.3273
H16 H 0.3755 0.3199 0.2646
H17 H 0.4260 0.3267 0.3852
Si1B Si -0.07623(4) 0.41654(4) 0.51492(3)
Cl1B Cl -0.02023(5) 0.25106(3) 0.55898(3)
Cl2B Cl -0.28535(4) 0.41476(4) 0.50061(3)
N1B N 0.00115(12) 0.52843(11) 0.58788(8)
C1B C 0.00137(14) 0.56399(13) 0.69369(10)
C2B C 0.10342(15) 0.51949(14) 0.76772(11)
C3B C 0.1007(2) 0.55517(19) 0.86933(13)
H1B H 0.1690 0.5263 0.9206
C4B C 0.0016(2) 0.6312(2) 0.89722(14)
H2B H 0.0013 0.6539 0.9672
C5B C -0.0975(2) 0.6746(2) 0.82353(13)
H3B H -0.1656 0.7274 0.8435
C6B C -0.09972(15) 0.64263(15) 0.72082(11)
C7B C 0.21557(15) 0.43516(14) 0.74224(12)
H4B H 0.2007 0.4177 0.6668
C8B C 0.35962(17) 0.48825(17) 0.76564(15)
H5B H 0.3641 0.5632 0.7290
H6B H 0.3787 0.5018 0.8399
H7B H 0.4286 0.4339 0.7430
C9B C 0.20856(19) 0.31907(16) 0.80041(15)
H8B H 0.1154 0.2859 0.7871
H9B H 0.2759 0.2637 0.7770
H10B H 0.2299 0.3332 0.8744
C10B C -0.21346(15) 0.69260(15) 0.64463(12)
H11B H -0.1980 0.6637 0.5744
C11B C -0.2109(2) 0.82671(17) 0.64248(15)
H12B H -0.1205 0.8536 0.6250
H13B H -0.2835 0.8554 0.5907
H14B H -0.2270 0.8573 0.7104
C12B C -0.35478(17) 0.64792(19) 0.66907(15)
H15B H -0.3534 0.5618 0.6727
H16B H -0.3755 0.6801 0.7354
H17B H -0.4260 0.6733 0.6148
loop_
_geom_bond_atom_site_label_1
_geom_bond_atom_site_label_2
_geom_bond_site_symmetry_1
_geom_bond_site_symmetry_2
Si1 Cl1 1_555 1_555
Cl2 Si1 1_555 1_555
N1 Si1 1_555 1_555
C1 N1 1_555 1_555
C2 C1 1_555 1_555
C3 C2 1_555 1_555
H1 C3 1_555 1_555
C4 C3 1_555 1_555
H2 C4 1_555 1_555
C5 C4 1_555 1_555
H3 C5 1_555 1_555
C6 C1 1_555 1_555
C7 C2 1_555 1_555
H4 C7 1_555 1_555
C8 C7 1_555 1_555
H5 C8 1_555 1_555
H6 C8 1_555 1_555
H7 C8 1_555 1_555
C9 C7 1_555 1_555
H8 C9 1_555 1_555
H9 C9 1_555 1_555
H10 C9 1_555 1_555
C10 C6 1_555 1_555
H11 C10 1_555 1_555
C11 C10 1_555 1_555
H12 C11 1_555 1_555
H13 C11 1_555 1_555
H14 C11 1_555 1_555
C12 C10 1_555 1_555
H15 C12 1_555 1_555
H16 C12 1_555 1_555
H17 C12 1_555 1_555
Si1B N1 1_555 1_555
Cl1B Si1B 1_555 1_555
Cl2B Si1B 1_555 1_555
N1B Si1 1_555 1_555
C1B N1B 1_555 1_555
C2B C1B 1_555 1_555
C3B C2B 1_555 1_555
H1B C3B 1_555 1_555
C4B C3B 1_555 1_555
H2B C4B 1_555 1_555
C5B C4B 1_555 1_555
H3B C5B 1_555 1_555
C6B C1B 1_555 1_555
C7B C2B 1_555 1_555
H4B C7B 1_555 1_555
C8B C7B 1_555 1_555
H5B C8B 1_555 1_555
H6B C8B 1_555 1_555
H7B C8B 1_555 1_555
C9B C7B 1_555 1_555
H8B C9B 1_555 1_555
H9B C9B 1_555 1_555
H10B C9B 1_555 1_555
C10B C6B 1_555 1_555
H11B C10B 1_555 1_555
C11B C10B 1_555 1_555
H12B C11B 1_555 1_555
H13B C11B 1_555 1_555
H14B C11B 1_555 1_555
C12B C10B 1_555 1_555
H15B C12B 1_555 1_555
H16B C12B 1_555 1_555
H17B C12B 1_555 1_555
C5 C6 1_555 1_555
Si1B N1B 1_555 1_555
C5B C6B 1_555 1_555

#END
