
#######################################################################
#
#                 Cambridge Crystallographic Data Centre
#                                CCDC 
#
#######################################################################
#
# If this CIF has been generated from an entry in the Cambridge 
# Structural Database, then it will include bibliographic, chemical, 
# crystal, experimental, refinement or atomic coordinate data resulting 
# from the CCDC's data processing and validation procedures.
#
#######################################################################

data_FOLMEA
_chemical_formula_moiety         'C69 H51 N3 Si3,2(C4 H8 O1)'
_chemical_name_systematic        
'1,3,5-tris(4-Methylphenyl)-2,2,4,4,6,6-hexakis(phenylethynyl)-1,3,5,2,4,6-triazatrisilinane tetrahydrofuran solvate'
_symmetry_cell_setting           orthorhombic
_symmetry_space_group_name_H-M   'P c a 21'
_symmetry_Int_Tables_number      29
_space_group_name_Hall           'P 2c -2ac'
loop_
_symmetry_equiv_pos_site_id
_symmetry_equiv_pos_as_xyz
1 x,y,z
2 -x,-y,1/2+z
3 1/2+x,-y,z
4 1/2-x,y,1/2+z
_cell_length_a                   16.9408(8)
_cell_length_b                   20.0828(10)
_cell_length_c                   20.3850(9)
_cell_angle_alpha                90
_cell_angle_beta                 90
_cell_angle_gamma                90
_cell_volume                     6935.36
_exptl_crystal_colour            colorless
_exptl_crystal_description       plate
_cell_formula_units_Z            4
loop_
_atom_site_label
_atom_site_type_symbol
_atom_site_fract_x
_atom_site_fract_y
_atom_site_fract_z
Si1 Si 0.18940(6) 0.24958(6) 0.50153(7)
Si2 Si 0.02805(7) 0.32472(6) 0.49635(7)
Si3 Si 0.03051(7) 0.17050(6) 0.49431(6)
N1 N 0.1295(2) 0.31842(16) 0.4994(2)
N2 N -0.0110(2) 0.24744(18) 0.48018(18)
N3 N 0.1314(2) 0.17898(16) 0.4982(2)
C1 C 0.2508(3) 0.2486(2) 0.5757(3)
C2 C 0.2905(3) 0.2466(3) 0.6226(2)
C3 C 0.3353(3) 0.2445(3) 0.6850(3)
C4 C 0.3606(4) 0.3050(5) 0.7121(3)
H1 H 0.3523 0.3460 0.6899
C5 C 0.3992(5) 0.3026(5) 0.7741(4)
H2 H 0.4177 0.3423 0.7942
C6 C 0.4095(5) 0.2421(7) 0.8049(4)
H3 H 0.4330 0.2402 0.8471
C7 C 0.3858(5) 0.1842(6) 0.7743(4)
H4 H 0.3962 0.1426 0.7947
C8 C 0.3487(4) 0.1856(4) 0.7172(3)
H5 H 0.3311 0.1450 0.6981
C9 C 0.2600(3) 0.2502(3) 0.4347(2)
C10 C 0.3103(3) 0.2465(2) 0.3915(3)
C11 C 0.3634(3) 0.2423(2) 0.3379(3)
C12 C 0.4416(3) 0.2198(3) 0.3466(3)
H6 H 0.4605 0.2087 0.3891
C13 C 0.4892(3) 0.2144(3) 0.2937(3)
H7 H 0.5414 0.1983 0.2997
C14 C 0.4652(4) 0.2310(3) 0.2326(3)
H8 H 0.5006 0.2272 0.1967
C15 C 0.3895(4) 0.2536(3) 0.2225(3)
H9 H 0.3726 0.2657 0.1797
C16 C 0.3386(3) 0.2585(3) 0.2746(3)
H10 H 0.2859 0.2730 0.2676
C17 C -0.0131(3) 0.3586(2) 0.5722(3)
C18 C -0.0448(3) 0.3795(3) 0.6204(3)
C19 C -0.0815(6) 0.4094(5) 0.6773(3)
C20 C -0.1256(7) 0.4671(5) 0.6684(3)
H11 H -0.1302 0.4861 0.6259
C21 C -0.1630(6) 0.4968(4) 0.7215(4)
H12 H -0.1931 0.5362 0.7154
C22 C -0.1562(6) 0.4689(5) 0.7837(3)
H13 H -0.1818 0.4893 0.8200
C23 C -0.1121(7) 0.4113(5) 0.7927(3)
H14 H -0.1075 0.3922 0.8351
C24 C -0.0748(6) 0.3815(4) 0.7395(4)
H15 H -0.0446 0.3421 0.7456
C25 C -0.0022(3) 0.3825(2) 0.4322(3)
C26 C -0.0283(3) 0.4199(3) 0.3910(3)
C27 C -0.0618(4) 0.4671(3) 0.3429(3)
C28 C -0.0523(4) 0.4601(3) 0.2756(3)
H16 H -0.0231 0.4236 0.2585
C29 C -0.0854(5) 0.5065(4) 0.2331(2)
H17 H -0.0788 0.5017 0.1871
C30 C -0.1281(5) 0.5599(3) 0.2580(3)
H18 H -0.1507 0.5916 0.2290
C31 C -0.1376(4) 0.5670(3) 0.3254(3)
H19 H -0.1668 0.6035 0.3424
C32 C -0.1045(5) 0.5206(3) 0.3678(2)
H20 H -0.1111 0.5254 0.4139
C33 C -0.0101(3) 0.1355(2) 0.5701(2)
C34 C -0.0446(3) 0.1168(3) 0.6178(2)
C35 C -0.0911(3) 0.1028(3) 0.6761(3)
C36 C -0.0702(4) 0.0513(4) 0.7183(3)
H21 H -0.0254 0.0245 0.7089
C37 C -0.1147(5) 0.0391(5) 0.7739(4)
H22 H -0.1016 0.0028 0.8017
C38 C -0.1757(5) 0.0779(5) 0.7884(4)
H23 H -0.2039 0.0706 0.8280
C39 C -0.1994(4) 0.1300(4) 0.7460(4)
H24 H -0.2441 0.1567 0.7561
C40 C -0.1568(4) 0.1410(3) 0.6904(3)
H25 H -0.1724 0.1753 0.6611
C41 C 0.0011(3) 0.1146(2) 0.4292(2)
C42 C -0.0289(3) 0.0808(3) 0.3870(2)
C43 C -0.0683(3) 0.0425(3) 0.3361(2)
C44 C -0.0910(4) 0.0739(3) 0.2781(3)
H26 H -0.0797 0.1199 0.2722
C45 C -0.1292(5) 0.0396(4) 0.2293(3)
H27 H -0.1419 0.0610 0.1891
C46 C -0.1492(4) -0.0264(4) 0.2391(3)
H28 H -0.1776 -0.0502 0.2064
C47 C -0.1274(5) -0.0576(3) 0.2969(4)
H29 H -0.1406 -0.1031 0.3033
C48 C -0.0863(4) -0.0237(3) 0.3458(3)
H30 H -0.0711 -0.0457 0.3850
C49 C 0.1690(3) 0.3822(2) 0.5042(3)
C50 C 0.1805(4) 0.4135(3) 0.5640(3)
H31 H 0.1633 0.3922 0.6031
C51 C 0.2165(4) 0.4751(3) 0.5677(4)
H32 H 0.2239 0.4957 0.6092
C52 C 0.2422(4) 0.5074(3) 0.5108(4)
C53 C 0.2310(5) 0.4758(4) 0.4529(4)
H33 H 0.2484 0.4972 0.4139
C54 C 0.1953(4) 0.4136(3) 0.4476(3)
H34 H 0.1890 0.3930 0.4060
C55 C 0.2808(5) 0.5749(3) 0.5150(5)
H35 H 0.2755 0.5979 0.4728
H36 H 0.3369 0.5696 0.5255
H37 H 0.2551 0.6013 0.5494
C56 C -0.0956(3) 0.2476(2) 0.4635(3)
C57 C -0.1188(4) 0.2453(3) 0.3997(3)
H38 H -0.0807 0.2445 0.3655
C58 C -0.1995(4) 0.2441(3) 0.3851(4)
H39 H -0.2157 0.2420 0.3406
C59 C -0.2560(4) 0.2460(3) 0.4336(4)
C60 C -0.2309(3) 0.2477(2) 0.4975(4)
H40 H -0.2686 0.2490 0.5319
C61 C -0.1514(3) 0.2475(2) 0.5124(3)
H41 H -0.1352 0.2474 0.5570
C62 C -0.3441(4) 0.2445(4) 0.4167(6)
H42 H -0.3750 0.2397 0.4570
H43 H -0.3548 0.2067 0.3876
H44 H -0.3587 0.2860 0.3946
C63 C 0.1742(2) 0.1159(2) 0.5010(3)
C64 C 0.1878(3) 0.0852(3) 0.5599(3)
H45 H 0.1705 0.1053 0.5995
C65 C 0.2265(3) 0.0253(3) 0.5614(3)
H46 H 0.2362 0.0045 0.6025
C66 C 0.2519(3) -0.0059(2) 0.5042(3)
C67 C 0.2383(3) 0.0265(3) 0.4463(3)
H47 H 0.2560 0.0067 0.4066
C68 C 0.1999(3) 0.0866(3) 0.4438(2)
H48 H 0.1911 0.1078 0.4028
C69 C 0.2932(4) -0.0731(3) 0.5070(4)
H49 H 0.2876 -0.0957 0.4647
H50 H 0.2692 -0.1004 0.5415
H51 H 0.3493 -0.0665 0.5167
O1 O -0.0024(5) -0.1423(4) 0.4844(4)
C82 C -0.0687(6) -0.1334(5) 0.5268(4)
H62 H -0.0816 -0.1759 0.5491
H63 H -0.1154 -0.1191 0.5011
C83 C -0.0482(7) -0.0823(7) 0.5755(7)
H64 H -0.0921 -0.0504 0.5815
H65 H -0.0354 -0.1028 0.6183
C84 C 0.0179(7) -0.0506(6) 0.5490(5)
H66 H 0.0020 -0.0074 0.5299
H67 H 0.0568 -0.0419 0.5842
C85 C 0.0521(6) -0.0898(5) 0.5010(5)
H68 H 0.1022 -0.1091 0.5173
H69 H 0.0638 -0.0626 0.4617
O2 O 0.0102(7) 0.5488(6) 0.5404(5)
C86 C -0.0506(8) 0.5911(7) 0.5714(7)
H70 H -0.0914 0.5629 0.5923
H71 H -0.0263 0.6194 0.6056
C87 C -0.0825(5) 0.6283(5) 0.5265(4)
H72 H -0.1091 0.6668 0.5473
H73 H -0.1228 0.6023 0.5023
C88 C -0.0222(6) 0.6522(5) 0.4804(5)
H74 H -0.0039 0.6975 0.4920
H75 H -0.0418 0.6521 0.4347
C89 C 0.0439(6) 0.5998(5) 0.4905(5)
H76 H 0.0922 0.6210 0.5081
H77 H 0.0569 0.5776 0.4485
C70? C -0.0900(10) 0.4037(7) 0.6741(5)
C71? C -0.0959(10) 0.4710(7) 0.6892(7)
H52? H -0.0717 0.5032 0.6617
C72? C -0.1373(10) 0.4912(6) 0.7446(7)
H53? H -0.1414 0.5372 0.7549
C73? C -0.1729(9) 0.4441(7) 0.7849(6)
H54? H -0.2012 0.4578 0.8228
C74? C -0.1669(10) 0.3767(6) 0.7698(6)
H55? H -0.1912 0.3445 0.7973
C75? C -0.1255(11) 0.3566(6) 0.7143(7)
H56? H -0.1215 0.3106 0.7040
C76? C -0.0601(8) 0.4655(5) 0.3469(5)
C77? C -0.1189(8) 0.4444(5) 0.3041(6)
H57? H -0.1386 0.4002 0.3068
C78? C -0.1490(7) 0.4880(6) 0.2574(6)
H58? H -0.1891 0.4736 0.2282
C79? C -0.1202(8) 0.5527(6) 0.2535(6)
H59? H -0.1407 0.5825 0.2216
C80? C -0.0614(8) 0.5738(5) 0.2963(6)
H60? H -0.0417 0.6180 0.2937
C81? C -0.0314(7) 0.5301(6) 0.3430(6)
H61? H 0.0088 0.5446 0.3723
loop_
_geom_bond_atom_site_label_1
_geom_bond_atom_site_label_2
_geom_bond_site_symmetry_1
_geom_bond_site_symmetry_2
Si1 N1 1_555 1_555
Si2 N1 1_555 1_555
Si3 N2 1_555 1_555
N1 C49 1_555 1_555
N2 Si2 1_555 1_555
N3 Si1 1_555 1_555
C1 Si1 1_555 1_555
C2 C1 1_555 1_555
C3 C2 1_555 1_555
C4 C3 1_555 1_555
H1 C4 1_555 1_555
C5 C4 1_555 1_555
H2 C5 1_555 1_555
C6 C5 1_555 1_555
H3 C6 1_555 1_555
C7 C6 1_555 1_555
H4 C7 1_555 1_555
C8 C3 1_555 1_555
H5 C8 1_555 1_555
C9 Si1 1_555 1_555
C10 C9 1_555 1_555
C11 C10 1_555 1_555
C12 C11 1_555 1_555
H6 C12 1_555 1_555
C13 C12 1_555 1_555
H7 C13 1_555 1_555
C14 C13 1_555 1_555
H8 C14 1_555 1_555
C15 C14 1_555 1_555
H9 C15 1_555 1_555
C16 C11 1_555 1_555
H10 C16 1_555 1_555
C17 Si2 1_555 1_555
C18 C17 1_555 1_555
C19 C18 1_555 1_555
C20 C19 1_555 1_555
H11 C20 1_555 1_555
C21 C20 1_555 1_555
H12 C21 1_555 1_555
C22 C21 1_555 1_555
H13 C22 1_555 1_555
C23 C22 1_555 1_555
H14 C23 1_555 1_555
C24 C19 1_555 1_555
H15 C24 1_555 1_555
C25 Si2 1_555 1_555
C26 C25 1_555 1_555
C27 C26 1_555 1_555
C28 C27 1_555 1_555
H16 C28 1_555 1_555
C29 C28 1_555 1_555
H17 C29 1_555 1_555
C30 C29 1_555 1_555
H18 C30 1_555 1_555
C31 C30 1_555 1_555
H19 C31 1_555 1_555
C32 C27 1_555 1_555
H20 C32 1_555 1_555
C33 Si3 1_555 1_555
C34 C33 1_555 1_555
C35 C34 1_555 1_555
C36 C35 1_555 1_555
H21 C36 1_555 1_555
C37 C36 1_555 1_555
H22 C37 1_555 1_555
C38 C37 1_555 1_555
H23 C38 1_555 1_555
C39 C38 1_555 1_555
H24 C39 1_555 1_555
C40 C35 1_555 1_555
H25 C40 1_555 1_555
C41 Si3 1_555 1_555
C42 C41 1_555 1_555
C43 C42 1_555 1_555
C44 C43 1_555 1_555
H26 C44 1_555 1_555
C45 C44 1_555 1_555
H27 C45 1_555 1_555
C46 C45 1_555 1_555
H28 C46 1_555 1_555
C47 C46 1_555 1_555
H29 C47 1_555 1_555
C48 C43 1_555 1_555
H30 C48 1_555 1_555
C49 C50 1_555 1_555
C50 H31 1_555 1_555
C51 C50 1_555 1_555
H32 C51 1_555 1_555
C52 C51 1_555 1_555
C53 C52 1_555 1_555
H33 C53 1_555 1_555
C54 C49 1_555 1_555
H34 C54 1_555 1_555
C55 C52 1_555 1_555
H35 C55 1_555 1_555
H36 C55 1_555 1_555
H37 C55 1_555 1_555
C56 N2 1_555 1_555
C57 C56 1_555 1_555
H38 C57 1_555 1_555
C58 C57 1_555 1_555
H39 C58 1_555 1_555
C59 C58 1_555 1_555
C60 C59 1_555 1_555
H40 C60 1_555 1_555
C61 C56 1_555 1_555
H41 C61 1_555 1_555
C62 C59 1_555 1_555
H42 C62 1_555 1_555
H43 C62 1_555 1_555
H44 C62 1_555 1_555
C63 N3 1_555 1_555
C64 C63 1_555 1_555
H45 C64 1_555 1_555
C65 C64 1_555 1_555
H46 C65 1_555 1_555
C66 C65 1_555 1_555
C67 C66 1_555 1_555
H47 C67 1_555 1_555
C68 C63 1_555 1_555
H48 C68 1_555 1_555
C69 C66 1_555 1_555
H49 C69 1_555 1_555
H50 C69 1_555 1_555
H51 C69 1_555 1_555
O1 C82 1_555 1_555
C82 H62 1_555 1_555
H63 C82 1_555 1_555
C83 C82 1_555 1_555
H64 C83 1_555 1_555
H65 C83 1_555 1_555
C84 C83 1_555 1_555
H66 C84 1_555 1_555
H67 C84 1_555 1_555
C85 O1 1_555 1_555
H68 C85 1_555 1_555
H69 C85 1_555 1_555
O2 C86 1_555 1_555
C86 H70 1_555 1_555
H71 C86 1_555 1_555
C87 C86 1_555 1_555
H72 C87 1_555 1_555
H73 C87 1_555 1_555
C88 C87 1_555 1_555
H74 C88 1_555 1_555
H75 C88 1_555 1_555
C89 O2 1_555 1_555
H76 C89 1_555 1_555
H77 C89 1_555 1_555
Si3 N3 1_555 1_555
C7 C8 1_555 1_555
C15 C16 1_555 1_555
C23 C24 1_555 1_555
C31 C32 1_555 1_555
C39 C40 1_555 1_555
C47 C48 1_555 1_555
C53 C54 1_555 1_555
C60 C61 1_555 1_555
C67 C68 1_555 1_555
C84 C85 1_555 1_555
C88 C89 1_555 1_555

#END
