
#######################################################################
#
#                 Cambridge Crystallographic Data Centre
#                                CCDC 
#
#######################################################################
#
# If this CIF has been generated from an entry in the Cambridge 
# Structural Database, then it will include bibliographic, chemical, 
# crystal, experimental, refinement or atomic coordinate data resulting 
# from the CCDC's data processing and validation procedures.
#
#######################################################################

data_FOLQEE
_chemical_formula_moiety         'C24 H20 Br2 O2'
_chemical_name_systematic        
1,4-bis(4-Bromophenyl)-5,8-dimethoxy-1,4-dihydronaphthalene
_symmetry_cell_setting           monoclinic
_symmetry_space_group_name_H-M   'P 21/n'
_symmetry_Int_Tables_number      14
_space_group_name_Hall           '-P 2yn'
loop_
_symmetry_equiv_pos_site_id
_symmetry_equiv_pos_as_xyz
1 x,y,z
2 1/2-x,1/2+y,1/2-z
3 -x,-y,-z
4 1/2+x,1/2-y,1/2+z
_cell_length_a                   12.0856(11)
_cell_length_b                   7.4117(7)
_cell_length_c                   23.495(2)
_cell_angle_alpha                90
_cell_angle_beta                 90.629(2)
_cell_angle_gamma                90
_cell_volume                     2104.43
_exptl_crystal_colour            colorless
_exptl_crystal_description       block
_cell_formula_units_Z            4
loop_
_atom_site_label
_atom_site_type_symbol
_atom_site_fract_x
_atom_site_fract_y
_atom_site_fract_z
Br1 Br 0.40181(3) -0.09238(4) 0.060330(14)
Br2 Br 0.72627(3) -0.11971(5) 0.477082(16)
O1 O 0.33881(13) 0.6531(3) 0.18853(8)
O2 O 0.49131(15) 0.6410(3) 0.41022(8)
C1 C 0.48014(17) 0.6028(3) 0.25619(10)
C2 C 0.36881(18) 0.6515(3) 0.24500(11)
C3 C 0.29918(19) 0.6960(3) 0.28888(12)
H1 H 0.2264 0.7291 0.2810
C4 C 0.3372(2) 0.6914(3) 0.34456(12)
H2 H 0.2894 0.7201 0.3740
C5 C 0.44560(19) 0.6446(3) 0.35687(11)
C6 C 0.51845(17) 0.5998(3) 0.31219(10)
C7 C 0.63810(17) 0.5572(3) 0.32767(10)
H3 H 0.6667 0.6611 0.3491
C8 C 0.70955(18) 0.5376(3) 0.27588(11)
H4 H 0.7852 0.5228 0.2819
C9 C 0.67358(18) 0.5397(3) 0.22314(11)
H5 H 0.7253 0.5259 0.1944
C10 C 0.55430(17) 0.5631(3) 0.20579(10)
H6 H 0.5506 0.6685 0.1806
C11 C 0.2257(2) 0.6856(4) 0.17436(14)
H7 H 0.1805 0.5940 0.1912
H8 H 0.2162 0.6829 0.1338
H9 H 0.2042 0.8017 0.1885
C12 C 0.4211(3) 0.6762(6) 0.45709(13)
H10 H 0.3876 0.7927 0.4525
H11 H 0.4639 0.6740 0.4917
H12 H 0.3645 0.5856 0.4587
C13 C 0.51691(17) 0.3999(3) 0.17054(10)
C14 C 0.50627(18) 0.2303(3) 0.19479(10)
H13 H 0.5219 0.2151 0.2333
C15 C 0.4726(2) 0.0825(3) 0.16242(11)
H14 H 0.4651 -0.0305 0.1791
C16 C 0.45090(18) 0.1061(3) 0.10566(11)
C17 C 0.4627(2) 0.2717(4) 0.08016(11)
H15 H 0.4493 0.2853 0.0413
C18 C 0.4946(2) 0.4177(3) 0.11298(11)
H16 H 0.5013 0.5305 0.0960
C19 C 0.65443(17) 0.3920(3) 0.36557(10)
C20 C 0.58354(17) 0.2445(3) 0.36463(10)
H17 H 0.5205 0.2484 0.3416
C21 C 0.6042(2) 0.0917(3) 0.39708(11)
H18 H 0.5558 -0.0059 0.3958
C22 C 0.6971(2) 0.0865(4) 0.43116(11)
C23 C 0.7691(2) 0.2307(4) 0.43305(11)
H19 H 0.8320 0.2259 0.4561
C24 C 0.7475(2) 0.3822(4) 0.40060(11)
H20 H 0.7961 0.4793 0.4022
loop_
_geom_bond_atom_site_label_1
_geom_bond_atom_site_label_2
_geom_bond_site_symmetry_1
_geom_bond_site_symmetry_2
Br1 C16 1_555 1_555
Br2 C22 1_555 1_555
O1 C2 1_555 1_555
O2 C5 1_555 1_555
C1 C2 1_555 1_555
C2 C3 1_555 1_555
C3 H1 1_555 1_555
C4 C3 1_555 1_555
H2 C4 1_555 1_555
C5 C4 1_555 1_555
C6 C1 1_555 1_555
C7 C6 1_555 1_555
H3 C7 1_555 1_555
C8 C7 1_555 1_555
H4 C8 1_555 1_555
C9 C8 1_555 1_555
H5 C9 1_555 1_555
C10 C1 1_555 1_555
H6 C10 1_555 1_555
C11 O1 1_555 1_555
H7 C11 1_555 1_555
H8 C11 1_555 1_555
H9 C11 1_555 1_555
C12 O2 1_555 1_555
H10 C12 1_555 1_555
H11 C12 1_555 1_555
H12 C12 1_555 1_555
C13 C10 1_555 1_555
C14 C13 1_555 1_555
H13 C14 1_555 1_555
C15 C14 1_555 1_555
H14 C15 1_555 1_555
C16 C15 1_555 1_555
C17 C16 1_555 1_555
H15 C17 1_555 1_555
C18 C13 1_555 1_555
H16 C18 1_555 1_555
C19 C7 1_555 1_555
C20 C19 1_555 1_555
H17 C20 1_555 1_555
C21 C20 1_555 1_555
H18 C21 1_555 1_555
C22 C21 1_555 1_555
C23 C22 1_555 1_555
H19 C23 1_555 1_555
C24 C19 1_555 1_555
H20 C24 1_555 1_555
C5 C6 1_555 1_555
C9 C10 1_555 1_555
C17 C18 1_555 1_555
C23 C24 1_555 1_555

#END
