
#######################################################################
#
#                 Cambridge Crystallographic Data Centre
#                                CCDC 
#
#######################################################################
#
# If this CIF has been generated from an entry in the Cambridge 
# Structural Database, then it will include bibliographic, chemical, 
# crystal, experimental, refinement or atomic coordinate data resulting 
# from the CCDC's data processing and validation procedures.
#
#######################################################################

data_FOLSEG01
_chemical_formula_moiety         'C18 H20 N2 O3 S1'
_chemical_name_systematic        
N-(1-(dimethylamino)-3-oxo-3-phenylprop-1-en-2-yl)-4-methylbenzenesulfonamide
_symmetry_cell_setting           monoclinic
_symmetry_space_group_name_H-M   'P 21/n'
_symmetry_Int_Tables_number      14
_space_group_name_Hall           '-P 2yn'
loop_
_symmetry_equiv_pos_site_id
_symmetry_equiv_pos_as_xyz
1 x,y,z
2 1/2-x,1/2+y,1/2-z
3 -x,-y,-z
4 1/2+x,1/2-y,1/2+z
_cell_length_a                   8.6010(17)
_cell_length_b                   22.967(5)
_cell_length_c                   9.5240(19)
_cell_angle_alpha                90
_cell_angle_beta                 104.23(3)
_cell_angle_gamma                90
_cell_volume                     1823.64
_exptl_crystal_colour            colorless
_exptl_crystal_description       block
_cell_formula_units_Z            4
loop_
_atom_site_label
_atom_site_type_symbol
_atom_site_fract_x
_atom_site_fract_y
_atom_site_fract_z
C1 C 0.6395(3) 0.13057(11) 0.9131(3)
H1 H 0.5805 0.1608 0.8604
C2 C 0.7392(3) 0.14159(13) 1.0489(3)
H2 H 0.7481 0.1792 1.0863
C3 C 0.8242(3) 0.09721(15) 1.1275(3)
H3 H 0.8885 0.1044 1.2197
C4 C 0.8149(4) 0.04265(15) 1.0711(3)
H4 H 0.8750 0.0128 1.1241
C5 C 0.7169(3) 0.03111(12) 0.9357(3)
H5 H 0.7112 -0.0065 0.8983
C6 C 0.6275(2) 0.07505(10) 0.8558(2)
C7 C 0.5338(2) 0.06256(9) 0.7034(2)
C8 C 0.3640(2) 0.07456(9) 0.6562(2)
C9 C 0.2770(3) 0.08992(9) 0.7533(2)
H6 H 0.3394 0.0997 0.8446
C10 C 0.0617(4) 0.11901(15) 0.8586(4)
H7 H 0.1512 0.1293 0.9368
H8 H -0.0046 0.0913 0.8921
H9 H 0.0000 0.1533 0.8242
C11 C -0.0015(3) 0.06947(14) 0.6204(3)
H10 H -0.0349 0.0988 0.5475
H11 H -0.0922 0.0568 0.6544
H12 H 0.0426 0.0370 0.5800
C12 C 0.4522(3) 0.16390(9) 0.4483(2)
C13 C 0.5804(3) 0.14980(11) 0.3910(3)
H13 H 0.5726 0.1190 0.3263
C14 C 0.7203(3) 0.18197(11) 0.4309(3)
H14 H 0.8056 0.1727 0.3910
C15 C 0.7366(3) 0.22728(11) 0.5279(3)
C16 C 0.6069(4) 0.24072(12) 0.5831(3)
H15 H 0.6148 0.2715 0.6481
C17 C 0.4660(3) 0.20957(10) 0.5442(3)
H16 H 0.3801 0.2194 0.5827
C18 C 0.8915(4) 0.26112(15) 0.5714(4)
H17 H 0.8712 0.2985 0.6083
H18 H 0.9349 0.2663 0.4886
H19 H 0.9668 0.2401 0.6451
N1 N 0.2942(2) 0.06568(8) 0.50442(19)
H20 H 0.339(3) 0.0393(8) 0.464(2)
N2 N 0.1199(2) 0.09348(9) 0.7411(2)
O1 O 0.60771(17) 0.04110(7) 0.61995(16)
O2 O 0.1504(2) 0.15898(8) 0.4334(2)
O3 O 0.2520(2) 0.10232(8) 0.25523(17)
S1 S 0.27292(7) 0.12332(3) 0.39994(6)
loop_
_geom_bond_atom_site_label_1
_geom_bond_atom_site_label_2
_geom_bond_site_symmetry_1
_geom_bond_site_symmetry_2
C1 H1 1_555 1_555
C2 C1 1_555 1_555
H2 C2 1_555 1_555
C3 C2 1_555 1_555
H3 C3 1_555 1_555
C4 C3 1_555 1_555
H4 C4 1_555 1_555
C5 C4 1_555 1_555
H5 C5 1_555 1_555
C6 C1 1_555 1_555
C7 C6 1_555 1_555
C8 C7 1_555 1_555
C9 C8 1_555 1_555
H6 C9 1_555 1_555
C10 H7 1_555 1_555
H8 C10 1_555 1_555
H9 C10 1_555 1_555
C11 H10 1_555 1_555
H11 C11 1_555 1_555
H12 C11 1_555 1_555
C12 C13 1_555 1_555
C13 H13 1_555 1_555
C14 C13 1_555 1_555
H14 C14 1_555 1_555
C15 C14 1_555 1_555
C16 C15 1_555 1_555
H15 C16 1_555 1_555
C17 C12 1_555 1_555
H16 C17 1_555 1_555
C18 C15 1_555 1_555
H17 C18 1_555 1_555
H18 C18 1_555 1_555
H19 C18 1_555 1_555
N1 C8 1_555 1_555
H20 N1 1_555 1_555
N2 C9 1_555 1_555
O1 C7 1_555 1_555
O2 S1 1_555 1_555
O3 S1 1_555 1_555
S1 C12 1_555 1_555
C5 C6 1_555 1_555
C10 N2 1_555 1_555
C11 N2 1_555 1_555
C16 C17 1_555 1_555
N1 S1 1_555 1_555

#END
