
#######################################################################
#
#                 Cambridge Crystallographic Data Centre
#                                CCDC 
#
#######################################################################
#
# If this CIF has been generated from an entry in the Cambridge 
# Structural Database, then it will include bibliographic, chemical, 
# crystal, experimental, refinement or atomic coordinate data resulting 
# from the CCDC's data processing and validation procedures.
#
#######################################################################

data_FOLTEF
_chemical_formula_moiety         'C17 H24 O5'
_chemical_name_systematic        
(3aR*,6S*,6aS*,9aR*,9bS*)-(+-)-Decahydro-9a-methoxycarbonyl-6,8,8-trimethyl-9-oxo-azuleno[4,5-c]furan-1(3H)-one
_symmetry_cell_setting           monoclinic
_symmetry_space_group_name_H-M   'P 21/c'
_symmetry_Int_Tables_number      14
_space_group_name_Hall           '-P 2ybc'
loop_
_symmetry_equiv_pos_site_id
_symmetry_equiv_pos_as_xyz
1 x,y,z
2 -x,1/2+y,1/2-z
3 -x,-y,-z
4 x,1/2-y,1/2+z
_cell_length_a                   7.902
_cell_length_b                   17.018(2)
_cell_length_c                   12.393(1)
_cell_angle_alpha                90
_cell_angle_beta                 99.42(1)
_cell_angle_gamma                90
_cell_volume                     1644.09
_exptl_crystal_colour            colorless
_exptl_crystal_description       prism
_chemical_melting_point          140deg.C
_cell_formula_units_Z            4
_exptl_crystal_recrystallization_method acetone/hexane
loop_
_atom_site_label
_atom_site_type_symbol
_atom_site_fract_x
_atom_site_fract_y
_atom_site_fract_z
O1 O 0.36669(23) 0.41238(10) 0.44161(14)
C1 C 0.40141(26) 0.46253(13) 0.38221(17)
O2 O 0.30933(21) 0.52933(10) 0.36781(14)
C2 C 0.38979(34) 0.58455(14) 0.30426(22)
H1 H 0.30454(34) 0.61189(14) 0.25394(22)
H2 H 0.45664(34) 0.62179(14) 0.35144(22)
C3 C 0.66088(33) 0.58290(13) 0.21626(21)
H3 H 0.73783(33) 0.59129(13) 0.28367(21)
H4 H 0.62067(33) 0.63265(13) 0.18575(21)
C4 C 0.76165(31) 0.54316(13) 0.13617(18)
H5 H 0.88052(31) 0.54431(13) 0.16876(18)
H6 H 0.74513(31) 0.57408(13) 0.07050(18)
C5 C 0.71790(25) 0.45837(11) 0.10279(15)
H7 H 0.59788(25) 0.46001(11) 0.07306(15)
C6 C 0.89825(21) 0.40433(12) 0.28491(15)
H8 H 0.90539(21) 0.45515(12) 0.31898(15)
H9 H 1.00050(21) 0.39474(12) 0.25447(15)
C7 C 0.87101(22) 0.33984(12) 0.36693(15)
C8 C 0.67522(23) 0.32856(12) 0.34971(14)
O3 O 0.60157(19) 0.27783(10) 0.39029(14)
C9 C 0.73787(20) 0.39818(10) 0.19647(13)
H10 H 0.74284(20) 0.35372(10) 0.14940(13)
C10 C 0.58888(20) 0.38955(9) 0.26391(13)
C11 C 0.54915(22) 0.46666(10) 0.31881(14)
H11 H 0.65711(22) 0.47428(10) 0.36585(14)
C12 C 0.50493(28) 0.53674(11) 0.24234(17)
H12 H 0.45175(28) 0.52152(11) 0.17012(17)
C13 C 0.82776(30) 0.43071(15) 0.01853(17)
H13 H 0.81722(30) 0.46754(15) -0.04086(17)
H14 H 0.78900(30) 0.37995(15) -0.00890(17)
H15 H 0.94567(30) 0.42737(15) 0.05273(17)
C14 C 0.93821(28) 0.36228(16) 0.48553(17)
H16 H 0.88646(28) 0.41077(16) 0.50262(17)
H17 H 1.06051(28) 0.36853(16) 0.49531(17)
H18 H 0.90990(28) 0.32161(16) 0.53322(17)
C15 C 0.95305(31) 0.26226(14) 0.33862(21)
H19 H 1.07546(31) 0.26817(14) 0.34890(21)
H20 H 0.91121(31) 0.24884(14) 0.26377(21)
H21 H 0.92375(31) 0.22130(14) 0.38553(21)
C16 C 0.42713(20) 0.35713(10) 0.19539(14)
O4 O 0.28945(16) 0.38627(9) 0.18871(13)
O5 O 0.45886(16) 0.29371(8) 0.14042(12)
C17 C 0.31439(28) 0.26073(12) 0.06904(20)
H22 H 0.35057(28) 0.21520(12) 0.03315(20)
H23 H 0.26854(28) 0.29903(12) 0.01524(20)
H24 H 0.22768(28) 0.24594(12) 0.11111(20)
loop_
_geom_bond_atom_site_label_1
_geom_bond_atom_site_label_2
_geom_bond_site_symmetry_1
_geom_bond_site_symmetry_2
O1 C1 1_555 1_555
C1 O2 1_555 1_555
O2 C2 1_555 1_555
C2 H1 1_555 1_555
H2 C2 1_555 1_555
C3 H3 1_555 1_555
H4 C3 1_555 1_555
C4 C3 1_555 1_555
H5 C4 1_555 1_555
H6 C4 1_555 1_555
C5 C4 1_555 1_555
H7 C5 1_555 1_555
C6 H8 1_555 1_555
H9 C6 1_555 1_555
C7 C6 1_555 1_555
C8 C7 1_555 1_555
O3 C8 1_555 1_555
C9 C5 1_555 1_555
H10 C9 1_555 1_555
C10 C8 1_555 1_555
C11 C1 1_555 1_555
H11 C11 1_555 1_555
C12 C2 1_555 1_555
H12 C12 1_555 1_555
C13 C5 1_555 1_555
H13 C13 1_555 1_555
H14 C13 1_555 1_555
H15 C13 1_555 1_555
C14 C7 1_555 1_555
H16 C14 1_555 1_555
H17 C14 1_555 1_555
H18 C14 1_555 1_555
C15 C7 1_555 1_555
H19 C15 1_555 1_555
H20 C15 1_555 1_555
H21 C15 1_555 1_555
C16 C10 1_555 1_555
O4 C16 1_555 1_555
O5 C16 1_555 1_555
C17 O5 1_555 1_555
H22 C17 1_555 1_555
H23 C17 1_555 1_555
H24 C17 1_555 1_555
C3 C12 1_555 1_555
C6 C9 1_555 1_555
C9 C10 1_555 1_555
C10 C11 1_555 1_555
C11 C12 1_555 1_555

#END
