
#######################################################################
#
#                 Cambridge Crystallographic Data Centre
#                                CCDC 
#
#######################################################################
#
# If this CIF has been generated from an entry in the Cambridge 
# Structural Database, then it will include bibliographic, chemical, 
# crystal, experimental, refinement or atomic coordinate data resulting 
# from the CCDC's data processing and validation procedures.
#
#######################################################################

data_FOLXEJ
_chemical_formula_moiety         'C34 H39 N3 O6 S3,C7 H8'
_chemical_name_systematic        
"Benzo(b)-1,5,9-triazacyclododecane N,N',N''-tritosylamide toluene solvate"
_symmetry_cell_setting           monoclinic
_symmetry_space_group_name_H-M   'P 21/c'
_symmetry_Int_Tables_number      14
_space_group_name_Hall           '-P 2ybc'
loop_
_symmetry_equiv_pos_site_id
_symmetry_equiv_pos_as_xyz
1 x,y,z
2 -x,1/2+y,1/2-z
3 -x,-y,-z
4 x,1/2-y,1/2+z
_cell_length_a                   18.726(2)
_cell_length_b                   12.717(2)
_cell_length_c                   19.006(2)
_cell_angle_alpha                90
_cell_angle_beta                 118.26(1)
_cell_angle_gamma                90
_cell_volume                     3986.59
_exptl_crystal_colour            colorless
_chemical_melting_point          196-200deg.C
_cell_formula_units_Z            4
loop_
_atom_site_label
_atom_site_type_symbol
_atom_site_fract_x
_atom_site_fract_y
_atom_site_fract_z
S1 S 0.1121(1) 0.1254(1) 0.3850(1)
O1 O 0.0791(2) 0.1441(3) 0.3013(2)
O2 O 0.0935(2) 0.1953(3) 0.4327(2)
C1 C 0.0823(3) -0.0014(4) 0.3973(3)
C2 C 0.0804(3) -0.0274(5) 0.4677(3)
C3 C 0.0510(3) -0.1238(5) 0.4746(3)
C4 C 0.0237(3) -0.1966(4) 0.4132(4)
C5 C 0.0274(3) -0.1701(4) 0.3445(3)
C6 C 0.0563(3) -0.0731(4) 0.3359(3)
C7 C -0.0115(4) -0.3002(5) 0.4210(5)
S2 S 0.2688(1) 0.3755(1) 0.2131(1)
O3 O 0.2085(3) 0.3140(4) 0.1501(2)
O4 O 0.3473(2) 0.3905(3) 0.2171(2)
C8 C 0.2283(3) 0.5014(5) 0.2078(3)
C9 C 0.1522(4) 0.5141(6) 0.2010(4)
C10 C 0.1209(4) 0.6115(7) 0.1953(4)
C11 C 0.1609(4) 0.7009(6) 0.1949(4)
C12 C 0.2373(4) 0.6877(6) 0.2035(5)
C13 C 0.2705(4) 0.5903(6) 0.2095(4)
C14 C 0.1217(4) 0.8088(7) 0.1846(5)
S3 S 0.5021(1) 0.3091(1) 0.6130(1)
O5 O 0.5534(2) 0.3831(4) 0.6012(2)
O6 O 0.5175(2) 0.1995(3) 0.6124(3)
C15 C 0.5053(3) 0.3358(4) 0.7053(3)
C16 C 0.5027(4) 0.4367(4) 0.7288(3)
C17 C 0.5061(4) 0.4549(5) 0.8020(4)
C18 C 0.5127(3) 0.3750(5) 0.8527(3)
C19 C 0.5153(5) 0.2753(5) 0.8284(4)
C20 C 0.5117(5) 0.2552(5) 0.7556(4)
C21 C 0.5156(5) 0.3965(7) 0.9330(4)
N1 N 0.2116(2) 0.1264(3) 0.4220(2)
C22 C 0.2436(3) 0.0791(4) 0.3739(3)
C23 C 0.2517(3) 0.1397(4) 0.3172(3)
C24 C 0.2225(3) 0.2511(4) 0.2986(3)
N2 N 0.2830(3) 0.3217(4) 0.2953(2)
C25 C 0.3511(3) 0.3541(5) 0.3724(5)
C26 C 0.3276(3) 0.4304(4) 0.4182(3)
C27 C 0.3891(3) 0.4360(5) 0.5059(3)
N3 N 0.4099(2) 0.3310(3) 0.5433(2)
C28 C 0.3431(3) 0.2754(4) 0.5489(3)
C29 C 0.3442(3) 0.1581(4) 0.5414(3)
C30 C 0.2592(3) 0.1107(4) 0.5095(3)
C31 C 0.2704(3) -0.0244(5) 0.3879(3)
C32 C 0.3056(4) -0.0681(5) 0.3460(4)
C33 C 0.3136(4) -0.0107(6) 0.2902(4)
C34 C 0.2873(4) 0.0909(5) 0.2752(4)
H1 H 0.1006 0.0240 0.5130
H2 H 0.0483 -0.1412 0.5246
H3 H 0.0083 -0.2224 0.2998
H4 H 0.0580 -0.0551 0.2845
H5 H 0.1203 0.4506 0.2006
H6 H 0.0656 0.6178 0.1914
H7 H 0.2692 0.7515 0.2050
H8 H 0.3276 0.5836 0.2161
H9 H 0.4982 0.4973 0.6930
H10 H 0.5038 0.5287 0.8184
H11 H 0.5207 0.2150 0.8646
H12 H 0.5140 0.1790 0.7390
H13 H 0.2091 0.2773 0.3407
H14 H 0.1719 0.2533 0.2457
H15 H 0.3936 0.3874 0.3621
H16 H 0.3747 0.2898 0.4059
H17 H 0.2743 0.4083 0.4137
H18 H 0.3216 0.5018 0.3944
H19 H 0.3661 0.4798 0.5342
H20 H 0.4393 0.4706 0.5113
H21 H 0.2902 0.3021 0.5057
H22 H 0.3461 0.2924 0.6017
H23 H 0.3804 0.1272 0.5952
H24 H 0.3662 0.1400 0.5042
H25 H 0.2306 0.1457 0.5363
H26 H 0.2639 0.0338 0.5214
H27 H 0.2576 -0.0492 0.4307
H28 H 0.3253 -0.1421 0.3563
H29 H 0.3386 -0.0424 0.2589
H30 H 0.2867 0.1476 0.2381
C35 C 0.2270(9) -0.0796(12) 0.0478(8)
C36 C 0.1877(14) 0.0062(16) 0.0401(11)
C37 C 0.1415(12) 0.0526(9) -0.0207(17)
C38 C 0.1239(7) 0.0080(19) -0.0923(10)
C39 C 0.1668(8) -0.0909(13) -0.0846(8)
C40 C 0.2153(7) -0.1267(8) -0.0161(9)
C41 C 0.2610(10) -0.2234(11) -0.0083(14)
H31 H 0.2668 -0.1113 0.1025
H32 H 0.2006 0.0381 0.0922
H33 H 0.1157 0.1188 -0.0170
H34 H 0.0856 0.0421 -0.1446
H35 H 0.1546 -0.1294 -0.1356
loop_
_geom_bond_atom_site_label_1
_geom_bond_atom_site_label_2
_geom_bond_site_symmetry_1
_geom_bond_site_symmetry_2
S1 O1 1_555 1_555
O2 S1 1_555 1_555
C1 S1 1_555 1_555
C2 C1 1_555 1_555
C3 C2 1_555 1_555
C4 C3 1_555 1_555
C5 C4 1_555 1_555
C6 C1 1_555 1_555
C7 C4 1_555 1_555
S2 O3 1_555 1_555
O4 S2 1_555 1_555
C8 S2 1_555 1_555
C9 C8 1_555 1_555
C10 C9 1_555 1_555
C11 C10 1_555 1_555
C12 C11 1_555 1_555
C13 C8 1_555 1_555
C14 C11 1_555 1_555
S3 O5 1_555 1_555
O6 S3 1_555 1_555
C15 S3 1_555 1_555
C16 C15 1_555 1_555
C17 C16 1_555 1_555
C18 C17 1_555 1_555
C19 C18 1_555 1_555
C20 C15 1_555 1_555
C21 C18 1_555 1_555
N1 S1 1_555 1_555
C22 N1 1_555 1_555
C23 C22 1_555 1_555
C24 C23 1_555 1_555
N2 S2 1_555 1_555
C25 N2 1_555 1_555
C26 C25 1_555 1_555
C27 C26 1_555 1_555
N3 S3 1_555 1_555
C28 N3 1_555 1_555
C29 C28 1_555 1_555
C30 N1 1_555 1_555
C31 C22 1_555 1_555
C32 C31 1_555 1_555
C33 C32 1_555 1_555
C34 C23 1_555 1_555
H1 C2 1_555 1_555
H2 C3 1_555 1_555
H3 C5 1_555 1_555
H4 C6 1_555 1_555
H5 C9 1_555 1_555
H6 C10 1_555 1_555
H7 C12 1_555 1_555
H8 C13 1_555 1_555
H9 C16 1_555 1_555
H10 C17 1_555 1_555
H11 C19 1_555 1_555
H12 C20 1_555 1_555
H13 C24 1_555 1_555
H14 C24 1_555 1_555
H15 C25 1_555 1_555
H16 C25 1_555 1_555
H17 C26 1_555 1_555
H18 C26 1_555 1_555
H19 C27 1_555 1_555
H20 C27 1_555 1_555
H21 C28 1_555 1_555
H22 C28 1_555 1_555
H23 C29 1_555 1_555
H24 C29 1_555 1_555
H25 C30 1_555 1_555
H26 C30 1_555 1_555
H27 C31 1_555 1_555
H28 C32 1_555 1_555
H29 C33 1_555 1_555
H30 C34 1_555 1_555
C35 C36 1_555 1_555
C36 C37 1_555 1_555
C37 C38 1_555 1_555
C38 C39 1_555 1_555
C39 C40 1_555 1_555
C40 C35 1_555 1_555
C41 C40 1_555 1_555
H31 C35 1_555 1_555
H32 C36 1_555 1_555
H33 C37 1_555 1_555
H34 C38 1_555 1_555
H35 C39 1_555 1_555
C5 C6 1_555 1_555
C12 C13 1_555 1_555
C19 C20 1_555 1_555
C24 N2 1_555 1_555
C27 N3 1_555 1_555
C29 C30 1_555 1_555
C33 C34 1_555 1_555

#END
