
#######################################################################
#
#                 Cambridge Crystallographic Data Centre
#                                CCDC 
#
#######################################################################
#
# If this CIF has been generated from an entry in the Cambridge 
# Structural Database, then it will include bibliographic, chemical, 
# crystal, experimental, refinement or atomic coordinate data resulting 
# from the CCDC's data processing and validation procedures.
#
#######################################################################

data_FOLXOT
_chemical_formula_moiety         'C14 H19 N3'
_chemical_name_systematic        
2,3,5,6-Tetrahydro-1H,4H,7H,11cH-3a,6a,11b-triazabenz(de)anthracene
_symmetry_cell_setting           monoclinic
_symmetry_space_group_name_H-M   'P 21/c'
_symmetry_Int_Tables_number      14
_space_group_name_Hall           '-P 2ybc'
loop_
_symmetry_equiv_pos_site_id
_symmetry_equiv_pos_as_xyz
1 x,y,z
2 -x,1/2+y,1/2-z
3 -x,-y,-z
4 x,1/2-y,1/2+z
_cell_length_a                   15.608(6)
_cell_length_b                   8.983(4)
_cell_length_c                   17.660(8)
_cell_angle_alpha                90
_cell_angle_beta                 94.28(5)
_cell_angle_gamma                90
_cell_volume                     2469.14
_chemical_melting_point          78-80deg.C
_cell_formula_units_Z            8
loop_
_atom_site_label
_atom_site_type_symbol
_atom_site_fract_x
_atom_site_fract_y
_atom_site_fract_z
C1 C 0.1080(4) 0.0967(4) 0.1799(4)
N1 N 0.1477(4) 0.1768(6) 0.2443(4)
C2 C 0.2255(5) 0.2498(9) 0.2256(5)
C3 C 0.2906(5) 0.1361(10) 0.2026(5)
C4 C 0.2485(5) 0.0486(9) 0.1360(5)
N2 N 0.1665(3) -0.0176(6) 0.1544(3)
C5 C 0.1267(5) -0.0865(10) 0.0861(5)
C6 C 0.0404(6) -0.1539(10) 0.0979(6)
C7 C -0.0157(5) -0.0360(11) 0.1313(6)
N3 N 0.0265(4) 0.0371(7) 0.1986(4)
C8 C 0.0328(5) -0.0632(10) 0.2628(5)
C9 C 0.0792(4) 0.0053(9) 0.3284(5)
C10 C 0.0662(5) -0.0412(10) 0.4026(6)
C11 C 0.1120(6) 0.0187(12) 0.4653(5)
C12 C 0.1707(5) 0.1317(11) 0.4532(5)
C13 C 0.1847(5) 0.1810(10) 0.3826(5)
C14 C 0.1398(4) 0.1202(8) 0.3186(5)
H1 H 0.0968 0.1694 0.1374
H2 H 0.2503 0.3064 0.2708
H3 H 0.2121 0.3204 0.1826
H4 H 0.3062 0.0674 0.2460
H5 H 0.3430 0.1878 0.1869
H6 H 0.2883 -0.0328 0.1223
H7 H 0.2379 0.1168 0.0916
H8 H 0.1656 -0.1665 0.0693
H9 H 0.1194 -0.0095 0.0453
H10 H 0.0477 -0.2400 0.1336
H11 H 0.0127 -0.1886 0.0480
H12 H -0.0699 -0.0838 0.1458
H13 H -0.0304 0.0415 0.0917
H14 H 0.0639 -0.1555 0.2487
H15 H -0.0263 -0.0906 0.2761
H16 H 0.0224 -0.1202 0.4101
H17 H 0.1034 -0.0176 0.5175
H18 H 0.2036 0.1776 0.4979
H19 H 0.2276 0.2620 0.3764
C15 C 0.3934(4) 0.5998(7) 0.3391(4)
N4 N 0.4503(3) 0.5315(7) 0.2893(3)
C16 C 0.5091(5) 0.4286(10) 0.3308(5)
C17 C 0.4598(5) 0.3099(10) 0.3688(6)
C18 C 0.3984(5) 0.3865(9) 0.4204(5)
N5 N 0.3422(3) 0.4905(6) 0.3775(3)
C19 C 0.2906(6) 0.5662(10) 0.4313(6)
C20 C 0.2342(6) 0.6853(10) 0.3941(6)
C21 C 0.2870(6) 0.7897(9) 0.3503(6)
N6 N 0.3416(4) 0.7116(7) 0.2985(4)
C22 C 0.2902(5) 0.6545(9) 0.2345(5)
C23 C 0.3466(4) 0.5770(8) 0.1828(5)
C24 C 0.3212(5) 0.5612(9) 0.1045(5)
C25 C 0.3725(6) 0.4846(10) 0.0568(4)
C26 C 0.4459(5) 0.4202(9) 0.0882(5)
C27 C 0.4717(5) 0.4298(8) 0.1626(4)
C28 C 0.4216(4) 0.5090(7) 0.2109(4)
H20 H 0.4300 0.6527 0.3794
H21 H 0.5453 0.4848 0.3702
H22 H 0.5470 0.3808 0.2946
H23 H 0.5006 0.2445 0.3999
H24 H 0.4263 0.2492 0.3295
H25 H 0.4326 0.4416 0.4615
H26 H 0.3626 0.3091 0.4438
H27 H 0.3299 0.6127 0.4719
H28 H 0.2536 0.4912 0.4551
H29 H 0.2059 0.7422 0.4340
H30 H 0.1893 0.6378 0.3587
H31 H 0.3245 0.8499 0.3871
H32 H 0.2475 0.8584 0.3199
H33 H 0.2597 0.7386 0.2067
H34 H 0.2469 0.5827 0.2522
H35 H 0.2657 0.6054 0.0834
H36 H 0.3562 0.4773 0.0011
H37 H 0.4824 0.3628 0.0543
H38 H 0.5262 0.3809 0.1828
loop_
_geom_bond_atom_site_label_1
_geom_bond_atom_site_label_2
_geom_bond_site_symmetry_1
_geom_bond_site_symmetry_2
C1 N1 1_555 1_555
N1 C2 1_555 1_555
C2 C3 1_555 1_555
C3 C4 1_555 1_555
C4 N2 1_555 1_555
N2 C1 1_555 1_555
C5 N2 1_555 1_555
C6 C5 1_555 1_555
C7 C6 1_555 1_555
N3 C1 1_555 1_555
C8 N3 1_555 1_555
C9 C8 1_555 1_555
C10 C9 1_555 1_555
C11 C10 1_555 1_555
C12 C11 1_555 1_555
C13 C12 1_555 1_555
C14 N1 1_555 1_555
C15 N4 1_555 1_555
N4 C16 1_555 1_555
C16 C17 1_555 1_555
C17 C18 1_555 1_555
C18 N5 1_555 1_555
N5 C15 1_555 1_555
C19 N5 1_555 1_555
C20 C19 1_555 1_555
C21 C20 1_555 1_555
N6 C15 1_555 1_555
C22 N6 1_555 1_555
C23 C22 1_555 1_555
C24 C23 1_555 1_555
C25 C24 1_555 1_555
C26 C25 1_555 1_555
C27 C26 1_555 1_555
C28 N4 1_555 1_555
H1 C1 1_555 1_555
H2 C2 1_555 1_555
H3 C2 1_555 1_555
H4 C3 1_555 1_555
H5 C3 1_555 1_555
H6 C4 1_555 1_555
H7 C4 1_555 1_555
H8 C5 1_555 1_555
H9 C5 1_555 1_555
H10 C6 1_555 1_555
H11 C6 1_555 1_555
H12 C7 1_555 1_555
H13 C7 1_555 1_555
H14 C8 1_555 1_555
H15 C8 1_555 1_555
H16 C10 1_555 1_555
H17 C11 1_555 1_555
H18 C12 1_555 1_555
H19 C13 1_555 1_555
H20 C15 1_555 1_555
H21 C16 1_555 1_555
H22 C16 1_555 1_555
H23 C17 1_555 1_555
H24 C17 1_555 1_555
H25 C18 1_555 1_555
H26 C18 1_555 1_555
H27 C19 1_555 1_555
H28 C19 1_555 1_555
H29 C20 1_555 1_555
H30 C20 1_555 1_555
H31 C21 1_555 1_555
H32 C21 1_555 1_555
H33 C22 1_555 1_555
H34 C22 1_555 1_555
H35 C24 1_555 1_555
H36 C25 1_555 1_555
H37 C26 1_555 1_555
H38 C27 1_555 1_555
C7 N3 1_555 1_555
C9 C14 1_555 1_555
C13 C14 1_555 1_555
C21 N6 1_555 1_555
C23 C28 1_555 1_555
C27 C28 1_555 1_555

#END
