
#######################################################################
#
#                 Cambridge Crystallographic Data Centre
#                                CCDC 
#
#######################################################################
#
# If this CIF has been generated from an entry in the Cambridge 
# Structural Database, then it will include bibliographic, chemical, 
# crystal, experimental, refinement or atomic coordinate data resulting 
# from the CCDC's data processing and validation procedures.
#
#######################################################################

data_FOMDOC
_chemical_formula_moiety         'C5 H9 N6 O2 1+,C1 N5 O2 1-'
_chemical_name_systematic        
'amino(2-((4-methyl-5-oxido-1,2,5-oxadiazol-3-yl)methylene)hydrazino)methaniminium 5-nitrotetrazol-1-ide'
_symmetry_cell_setting           monoclinic
_symmetry_space_group_name_H-M   'P 21/c'
_symmetry_Int_Tables_number      14
_space_group_name_Hall           '-P 2ybc'
loop_
_symmetry_equiv_pos_site_id
_symmetry_equiv_pos_as_xyz
1 x,y,z
2 -x,1/2+y,1/2-z
3 -x,-y,-z
4 x,1/2-y,1/2+z
_cell_length_a                   10.9990(8)
_cell_length_b                   6.3838(4)
_cell_length_c                   18.1184(10)
_cell_angle_alpha                90
_cell_angle_beta                 104.323(2)
_cell_angle_gamma                90
_cell_volume                     1232.65
_cell_formula_units_Z            4
loop_
_atom_site_label
_atom_site_type_symbol
_atom_site_fract_x
_atom_site_fract_y
_atom_site_fract_z
C1 C 0.37027(15) 0.6375(3) 0.16162(9)
N1 N 0.40771(14) 0.8191(2) 0.19452(8)
N2 N 0.45050(14) 0.9221(2) 0.14146(8)
N3 N 0.43739(13) 0.8028(2) 0.08057(8)
N4 N 0.38634(13) 0.6185(2) 0.09211(7)
N5 N 0.31790(14) 0.4723(2) 0.19880(8)
O1 O 0.29073(12) 0.5147(2) 0.25858(7)
O2 O 0.30553(14) 0.2992(2) 0.16904(8)
C2 C 0.93643(16) 1.0979(3) 0.10740(10)
C3 C 0.86316(15) 1.0199(3) 0.03733(9)
C4 C 0.9774(2) 1.0040(3) 0.18419(11)
H1 H 1.0561 1.0696 0.2119
H2 H 0.9905 0.8532 0.1795
H3 H 0.9128 1.0270 0.2121
C5 C 0.79171(15) 0.8259(3) 0.02166(9)
H4 H 0.7647 0.7743 -0.0289
C6 C 0.65921(15) 0.4390(2) 0.11105(9)
N6 N 0.97551(14) 1.2843(2) 0.09252(9)
N7 N 0.86101(14) 1.1493(2) -0.01923(8)
N8 N 0.76590(13) 0.7262(2) 0.07695(8)
N9 N 0.69776(13) 0.5459(2) 0.05682(8)
H5 H 0.6796 0.5009 0.0094
N10 N 0.59920(13) 0.2608(2) 0.09095(8)
H6 H 0.5733 0.1860 0.1249
H7 H 0.5851 0.2167 0.0436
N11 N 0.68324(14) 0.5134(2) 0.18084(8)
H8 H 0.6590 0.4437 0.2166
H9 H 0.7235 0.6330 0.1918
O3 O 0.92966(12) 1.32133(19) 0.01094(7)
O4 O 1.03841(14) 1.4251(2) 0.13082(8)
loop_
_geom_bond_atom_site_label_1
_geom_bond_atom_site_label_2
_geom_bond_site_symmetry_1
_geom_bond_site_symmetry_2
C1 N1 1_555 1_555
N1 N2 1_555 1_555
N2 N3 1_555 1_555
N3 N4 1_555 1_555
N4 C1 1_555 1_555
N5 C1 1_555 1_555
O1 N5 1_555 1_555
O2 N5 1_555 1_555
C2 C3 1_555 1_555
C3 C5 1_555 1_555
C4 C2 1_555 1_555
H1 C4 1_555 1_555
H2 C4 1_555 1_555
H3 C4 1_555 1_555
C5 H4 1_555 1_555
C6 N9 1_555 1_555
N6 C2 1_555 1_555
N7 C3 1_555 1_555
N8 C5 1_555 1_555
N9 N8 1_555 1_555
H5 N9 1_555 1_555
N10 C6 1_555 1_555
H6 N10 1_555 1_555
H7 N10 1_555 1_555
N11 C6 1_555 1_555
H8 N11 1_555 1_555
H9 N11 1_555 1_555
O3 N6 1_555 1_555
O4 N6 1_555 1_555
N7 O3 1_555 1_555

#END
