
#######################################################################
#
#                 Cambridge Crystallographic Data Centre
#                                CCDC 
#
#######################################################################
#
# If this CIF has been generated from an entry in the Cambridge 
# Structural Database, then it will include bibliographic, chemical, 
# crystal, experimental, refinement or atomic coordinate data resulting 
# from the CCDC's data processing and validation procedures.
#
#######################################################################

data_FOMFAQ
_chemical_formula_moiety         'C5 H9 N6 O2 1+,C3 H2 N7 O1 1-,H2 O1'
_chemical_name_systematic        
'amino(2-((4-methyl-5-oxido-1,2,5-oxadiazol-3-yl)methylene)hydrazino)methaniminium 5-(4-amino-1,2,5-oxadiazol-3-yl)tetrazol-1-ide monohydrate'
_symmetry_cell_setting           monoclinic
_symmetry_space_group_name_H-M   'P 21/c'
_symmetry_Int_Tables_number      14
_space_group_name_Hall           '-P 2ybc'
loop_
_symmetry_equiv_pos_site_id
_symmetry_equiv_pos_as_xyz
1 x,y,z
2 -x,1/2+y,1/2-z
3 -x,-y,-z
4 x,1/2-y,1/2+z
_cell_length_a                   9.3457(6)
_cell_length_b                   25.7804(17)
_cell_length_c                   13.4303(9)
_cell_angle_alpha                90
_cell_angle_beta                 109.4145(19)
_cell_angle_gamma                90
_cell_volume                     3051.85
_cell_formula_units_Z            8
loop_
_atom_site_label
_atom_site_type_symbol
_atom_site_fract_x
_atom_site_fract_y
_atom_site_fract_z
C1 C 0.7297(2) 0.43652(8) 0.52055(16)
C2 C 0.7728(2) 0.48099(8) 0.47218(15)
C3 C 0.8539(2) 0.48264(8) 0.39700(15)
N1 N 0.6624(2) 0.45268(7) 0.58616(14)
N2 N 0.72935(19) 0.52281(7) 0.50850(14)
N3 N 0.7539(2) 0.38608(7) 0.50445(15)
H1 H 0.7239 0.3618 0.5391
H2 H 0.7998 0.3775 0.4593
N4 N 0.90237(18) 0.43993(7) 0.36192(13)
N5 N 0.97166(19) 0.45797(7) 0.29566(13)
N6 N 0.96478(19) 0.50940(7) 0.29192(13)
N7 N 0.89064(19) 0.52648(7) 0.35589(13)
O1 O 0.66182(17) 0.50693(6) 0.57992(12)
C4 C 0.4435(2) 0.64754(8) 0.26997(17)
C5 C 0.4981(2) 0.68584(8) 0.21497(16)
C6 C 0.5718(2) 0.67677(8) 0.13579(16)
N8 N 0.3877(2) 0.67050(7) 0.33609(15)
N9 N 0.4754(2) 0.73175(7) 0.24686(14)
N10 N 0.4443(2) 0.59583(7) 0.25501(17)
H3 H 0.4054 0.5749 0.2910
H4 H 0.4838 0.5830 0.2092
N11 N 0.60567(18) 0.62905(7) 0.11169(13)
N12 N 0.6691(2) 0.63683(7) 0.03629(14)
N13 N 0.6720(2) 0.68709(7) 0.01741(14)
N14 N 0.6109(2) 0.71343(7) 0.07943(14)
O2 O 0.40734(17) 0.72383(6) 0.32198(12)
C7 C 0.3501(2) 0.58831(8) 0.85888(16)
C8 C 0.3746(2) 0.53414(8) 0.85953(15)
C9 C 0.2733(2) 0.62242(8) 0.91414(17)
H5 H 0.3094 0.6581 0.9141
H6 H 0.2964 0.6105 0.9871
H7 H 0.1635 0.6212 0.8778
C10 C 0.3300(2) 0.49310(8) 0.91784(16)
H8 H 0.3497 0.4580 0.9052
C11 C 0.1625(2) 0.46769(8) 1.10775(16)
N15 N 0.4092(2) 0.60753(7) 0.79004(14)
N16 N 0.44759(19) 0.52023(7) 0.79522(13)
N17 N 0.26527(18) 0.50324(6) 0.98542(13)
N18 N 0.22953(18) 0.46050(6) 1.03395(12)
H9 H 0.2500 0.4290 1.0171
N19 N 0.13076(19) 0.51518(6) 1.13088(13)
H10 H 0.0848 0.5200 1.1777
H11 H 0.1556 0.5420 1.0995
N20 N 0.12698(19) 0.42687(7) 1.15306(13)
H12 H 0.0809 0.4308 1.2001
H13 H 0.1492 0.3956 1.1364
O3 O 0.47465(16) 0.56489(6) 0.74836(11)
O4 O 0.41745(19) 0.65146(6) 0.75513(13)
C12 C 1.0614(2) 0.72739(9) 0.16719(17)
C13 C 1.0375(2) 0.67337(9) 0.17493(17)
C14 C 1.0403(3) 0.77269(9) 0.2281(2)
H14 H 1.0900 0.8030 0.2100
H15 H 1.0854 0.7654 0.3038
H16 H 0.9317 0.7797 0.2109
C15 C 0.9802(2) 0.64550(9) 0.24733(17)
H17 H 0.9831 0.6087 0.2490
C16 C 0.8083(2) 0.66399(8) 0.43790(17)
N21 N 1.1156(2) 0.73321(8) 0.08859(15)
N22 N 1.0759(2) 0.64642(8) 0.10431(15)
N23 N 0.9254(2) 0.67023(7) 0.30920(14)
N24 N 0.87220(19) 0.64010(7) 0.37398(13)
H18 H 0.8798 0.6061 0.3736
N25 N 0.7994(2) 0.71507(7) 0.43780(14)
H19 H 0.7580 0.7308 0.4796
H20 H 0.8348 0.7334 0.3959
N26 N 0.7567(2) 0.63556(7) 0.49923(14)
H21 H 0.7148 0.6505 0.5417
H22 H 0.7638 0.6015 0.4980
O5 O 1.12618(19) 0.68152(7) 0.04601(13)
O6 O 1.15684(19) 0.76996(7) 0.04585(14)
O7 O 0.3995(2) 0.31995(6) 0.37466(15)
H23 H 0.409(3) 0.2882(6) 0.3894(19)
H24 H 0.476(2) 0.3294(9) 0.362(2)
O8 O 0.2138(2) 0.32090(7) 0.15781(14)
H25 H 0.267(2) 0.3177(10) 0.1194(16)
H26 H 0.271(2) 0.3187(10) 0.2193(13)
loop_
_geom_bond_atom_site_label_1
_geom_bond_atom_site_label_2
_geom_bond_site_symmetry_1
_geom_bond_site_symmetry_2
C1 C2 1_555 1_555
C2 C3 1_555 1_555
C3 N4 1_555 1_555
N1 C1 1_555 1_555
N2 C2 1_555 1_555
N3 C1 1_555 1_555
H1 N3 1_555 1_555
H2 N3 1_555 1_555
N4 N5 1_555 1_555
N5 N6 1_555 1_555
N6 N7 1_555 1_555
N7 C3 1_555 1_555
O1 N1 1_555 1_555
C4 C5 1_555 1_555
C5 C6 1_555 1_555
C6 N11 1_555 1_555
N8 C4 1_555 1_555
N9 C5 1_555 1_555
N10 C4 1_555 1_555
H3 N10 1_555 1_555
H4 N10 1_555 1_555
N11 N12 1_555 1_555
N12 N13 1_555 1_555
N13 N14 1_555 1_555
N14 C6 1_555 1_555
O2 N8 1_555 1_555
C7 C8 1_555 1_555
C8 C10 1_555 1_555
C9 C7 1_555 1_555
H5 C9 1_555 1_555
H6 C9 1_555 1_555
H7 C9 1_555 1_555
C10 H8 1_555 1_555
C11 N18 1_555 1_555
N15 C7 1_555 1_555
N16 C8 1_555 1_555
N17 C10 1_555 1_555
N18 N17 1_555 1_555
H9 N18 1_555 1_555
N19 C11 1_555 1_555
H10 N19 1_555 1_555
H11 N19 1_555 1_555
N20 C11 1_555 1_555
H12 N20 1_555 1_555
H13 N20 1_555 1_555
O3 N15 1_555 1_555
O4 N15 1_555 1_555
C12 C13 1_555 1_555
C13 C15 1_555 1_555
C14 C12 1_555 1_555
H14 C14 1_555 1_555
H15 C14 1_555 1_555
H16 C14 1_555 1_555
C15 H17 1_555 1_555
C16 N24 1_555 1_555
N21 C12 1_555 1_555
N22 C13 1_555 1_555
N23 C15 1_555 1_555
N24 N23 1_555 1_555
H18 N24 1_555 1_555
N25 C16 1_555 1_555
H19 N25 1_555 1_555
H20 N25 1_555 1_555
N26 C16 1_555 1_555
H21 N26 1_555 1_555
H22 N26 1_555 1_555
O5 N21 1_555 1_555
O6 N21 1_555 1_555
O7 H23 1_555 1_555
H24 O7 1_555 1_555
O8 H25 1_555 1_555
H26 O8 1_555 1_555
N2 O1 1_555 1_555
N9 O2 1_555 1_555
N16 O3 1_555 1_555
N22 O5 1_555 1_555

#END
