
#######################################################################
#
#                 Cambridge Crystallographic Data Centre
#                                CCDC 
#
#######################################################################
#
# If this CIF has been generated from an entry in the Cambridge 
# Structural Database, then it will include bibliographic, chemical, 
# crystal, experimental, refinement or atomic coordinate data resulting 
# from the CCDC's data processing and validation procedures.
#
#######################################################################

data_FOMFAP
_chemical_formula_moiety         'C6 H8 N1 1+,C8 H4 N1 O6 1-'
_chemical_name_systematic        'Anilinium 2-carboxy-4-nitrobenzoate'
_symmetry_cell_setting           monoclinic
_symmetry_space_group_name_H-M   'C 2/c'
_symmetry_Int_Tables_number      15
_space_group_name_Hall           '-C 2yn'
loop_
_symmetry_equiv_pos_site_id
_symmetry_equiv_pos_as_xyz
1 x,y,z
2 1/2+x,1/2+y,z
3 -x,y,1/2-z
4 1/2-x,1/2+y,1/2-z
5 -x,-y,-z
6 1/2-x,1/2-y,-z
7 x,-y,1/2+z
8 1/2+x,1/2-y,1/2+z
_cell_length_a                   12.8131(10)
_cell_length_b                   7.5521(6)
_cell_length_c                   28.114(2)
_cell_angle_alpha                90
_cell_angle_beta                 98.13(3)
_cell_angle_gamma                90
_cell_volume                     2693.13
_exptl_crystal_colour            colorless
_exptl_crystal_description       plate
_cell_formula_units_Z            8
_exptl_crystal_recrystallization_method methanol
loop_
_atom_site_label
_atom_site_type_symbol
_atom_site_fract_x
_atom_site_fract_y
_atom_site_fract_z
O1 O 0.6067(2) 1.1176(4) 0.28978(10)
O2 O 0.6964(2) 0.8853(4) 0.26773(10)
O3 O 0.78397(19) 0.5446(3) 0.30747(9)
O4 O 0.6094(2) 0.5228(4) 0.28500(10)
O5 O 0.6220(3) 1.1806(5) 0.46471(12)
O6 O 0.6227(3) 0.9472(5) 0.50986(12)
N2 N 0.6279(3) 1.0183(6) 0.47091(15)
C1 C 0.6503(3) 0.8831(5) 0.34551(14)
C2 C 0.6713(3) 0.7025(5) 0.35178(14)
C3 C 0.6751(3) 0.6271(6) 0.39751(15)
C4 C 0.6588(3) 0.7303(6) 0.43643(16)
C5 C 0.6413(3) 0.9091(6) 0.42916(15)
C6 C 0.6361(3) 0.9866(6) 0.38494(15)
C7 C 0.6472(3) 0.9738(5) 0.29785(15)
C8 C 0.6873(3) 0.5812(5) 0.31052(15)
H1 H 0.6891 0.5042 0.4018
H2 H 0.6596 0.6793 0.4674
H3 H 0.6229 1.1099 0.3812
H4 H 0.7022 0.9458 0.2366
N1 N 0.5756(2) 0.3294(4) 0.19925(11)
C9 C 0.5828(3) 0.4371(5) 0.15697(15)
C10 C 0.5724(3) 0.3551(6) 0.11266(15)
C11 C 0.5815(3) 0.4571(6) 0.07225(15)
C12 C 0.6011(3) 0.6363(6) 0.07642(17)
C13 C 0.6118(3) 0.7149(6) 0.12095(16)
C14 C 0.6020(3) 0.6152(6) 0.16155(16)
H5 H 0.5911 0.3970 0.2261
H6 H 0.6222 0.2380 0.2003
H7 H 0.5090 0.2858 0.1978
H8 H 0.5592 0.2314 0.1098
H9 H 0.5741 0.4028 0.0415
H10 H 0.6072 0.7051 0.0487
H11 H 0.6260 0.8382 0.1239
H12 H 0.6085 0.6700 0.1922
loop_
_geom_bond_atom_site_label_1
_geom_bond_atom_site_label_2
_geom_bond_site_symmetry_1
_geom_bond_site_symmetry_2
O1 C7 1_555 1_555
O2 C7 1_555 1_555
O3 C8 1_555 1_555
O4 C8 1_555 1_555
O5 N2 1_555 1_555
O6 N2 1_555 1_555
N1 C9 1_555 1_555
N2 C5 1_555 1_555
C1 C2 1_555 1_555
C2 C3 1_555 1_555
C3 C4 1_555 1_555
C4 C5 1_555 1_555
C5 C6 1_555 1_555
C6 C1 1_555 1_555
C7 C1 1_555 1_555
C8 C2 1_555 1_555
C9 C10 1_555 1_555
C10 C11 1_555 1_555
C11 C12 1_555 1_555
C12 C13 1_555 1_555
C13 C14 1_555 1_555
C14 C9 1_555 1_555
H1 C3 1_555 1_555
H2 C4 1_555 1_555
H3 C6 1_555 1_555
H4 O2 1_555 1_555
H5 N1 1_555 1_555
H6 N1 1_555 1_555
H7 N1 1_555 1_555
H8 C10 1_555 1_555
H9 C11 1_555 1_555
H10 C12 1_555 1_555
H11 C13 1_555 1_555
H12 C14 1_555 1_555

#END
