
#######################################################################
#
#                 Cambridge Crystallographic Data Centre
#                                CCDC 
#
#######################################################################
#
# If this CIF has been generated from an entry in the Cambridge 
# Structural Database, then it will include bibliographic, chemical, 
# crystal, experimental, refinement or atomic coordinate data resulting 
# from the CCDC's data processing and validation procedures.
#
#######################################################################

data_FOMHUL
_chemical_formula_moiety         'C14 H14 N2 O4'
_chemical_name_systematic        
5-(3-Methoxybenzylidene)-1,3-dimethylpyrimidine-2,4,6(1H,3H,5H)-trione
_symmetry_cell_setting           triclinic
_symmetry_space_group_name_H-M   'P -1'
_symmetry_Int_Tables_number      2
_space_group_name_Hall           '-P 1'
loop_
_symmetry_equiv_pos_site_id
_symmetry_equiv_pos_as_xyz
1 x,y,z
2 -x,-y,-z
_cell_length_a                   5.6946(2)
_cell_length_b                   8.2994(3)
_cell_length_c                   14.0411(5)
_cell_angle_alpha                73.5580(17)
_cell_angle_beta                 87.393(2)
_cell_angle_gamma                77.037(2)
_cell_volume                     620.135
_exptl_crystal_colour            colorless
_exptl_crystal_description       block
_chemical_melting_point          406-408K
_cell_formula_units_Z            2
_exptl_crystal_recrystallization_method 'acetic acid'
loop_
_atom_site_label
_atom_site_type_symbol
_atom_site_fract_x
_atom_site_fract_y
_atom_site_fract_z
O1 O 1.42349(19) 0.21216(14) 0.78350(8)
O2 O 0.80218(19) 0.39336(14) 0.56112(8)
O3 O 0.7348(2) 0.52516(15) 0.87014(8)
O4 O 0.08023(19) 0.94132(14) 0.88183(8)
N1 N 1.0794(2) 0.37772(15) 0.82361(9)
N2 N 1.1177(2) 0.31209(15) 0.66925(9)
C1 C 1.1908(3) 0.3609(2) 0.91947(11)
C2 C 1.2196(3) 0.29547(18) 0.76031(11)
C3 C 1.2724(3) 0.22538(19) 0.60310(11)
C4 C 0.8841(2) 0.39762(17) 0.63921(10)
C5 C 0.7429(2) 0.49534(17) 0.70532(10)
C6 C 0.8439(3) 0.47119(18) 0.80436(11)
C7 C 0.3264(2) 0.71755(17) 0.69376(10)
C8 C 0.3138(3) 0.77225(18) 0.78032(10)
C9 C 0.1066(3) 0.88322(18) 0.79916(10)
C10 C -0.0896(3) 0.94345(19) 0.73268(11)
C11 C -0.0746(3) 0.89307(19) 0.64622(11)
C12 C 0.1309(3) 0.78161(18) 0.62601(11)
C13 C 0.5276(2) 0.59645(17) 0.66543(10)
C14 C 0.2769(3) 0.8772(2) 0.95262(11)
H1 H 1.1457 0.2654 0.9705
H2 H 1.1344 0.4681 0.9383
H3 H 1.3665 0.3382 0.9135
H4 H 1.2997 0.1003 0.6317
H5 H 1.4272 0.2601 0.5958
H6 H 1.1929 0.2581 0.5378
H7 H 0.3122 0.7510 0.9733
H8 H 0.2331 0.9201 1.0107
H9 H 0.4466 0.7334 0.8258
H10 H 0.4197 0.9167 0.9222
H11 H -0.2314 1.0180 0.7466
H12 H -0.2062 0.9351 0.6001
H13 H 0.1389 0.7488 0.5662
H14 H 0.5002 0.5854 0.6016
loop_
_geom_bond_atom_site_label_1
_geom_bond_atom_site_label_2
_geom_bond_site_symmetry_1
_geom_bond_site_symmetry_2
O1 C2 1_555 1_555
O2 C4 1_555 1_555
O3 C6 1_555 1_555
O4 C9 1_555 1_555
N1 C1 1_555 1_555
N2 C2 1_555 1_555
C1 H1 1_555 1_555
C2 N1 1_555 1_555
C3 N2 1_555 1_555
C4 N2 1_555 1_555
C5 C4 1_555 1_555
C6 N1 1_555 1_555
C7 C8 1_555 1_555
C8 C9 1_555 1_555
C9 C10 1_555 1_555
C10 C11 1_555 1_555
C11 C12 1_555 1_555
C12 C7 1_555 1_555
C13 C5 1_555 1_555
C14 O4 1_555 1_555
H2 C1 1_555 1_555
H3 C1 1_555 1_555
H4 C3 1_555 1_555
H5 C3 1_555 1_555
H6 C3 1_555 1_555
H7 C14 1_555 1_555
H8 C14 1_555 1_555
H9 C8 1_555 1_555
H10 C14 1_555 1_555
H11 C10 1_555 1_555
H12 C11 1_555 1_555
H13 C12 1_555 1_555
H14 C13 1_555 1_555
C5 C6 1_555 1_555
C7 C13 1_555 1_555

#END
