
#######################################################################
#
#                 Cambridge Crystallographic Data Centre
#                                CCDC 
#
#######################################################################
#
# If this CIF has been generated from an entry in the Cambridge 
# Structural Database, then it will include bibliographic, chemical, 
# crystal, experimental, refinement or atomic coordinate data resulting 
# from the CCDC's data processing and validation procedures.
#
#######################################################################

data_FOMHOF
_chemical_formula_moiety         'C13 H12 N2 O3'
_chemical_name_systematic        
5-Benzylidene-1,3-dimethylpyrimidine-2,4,6(1H,3H,5H)-trione
_symmetry_cell_setting           monoclinic
_symmetry_space_group_name_H-M   'P 21/n'
_symmetry_Int_Tables_number      14
_space_group_name_Hall           '-P 2yn'
loop_
_symmetry_equiv_pos_site_id
_symmetry_equiv_pos_as_xyz
1 x,y,z
2 1/2-x,1/2+y,1/2-z
3 -x,-y,-z
4 1/2+x,1/2-y,1/2+z
_cell_length_a                   6.1293(3)
_cell_length_b                   13.9633(8)
_cell_length_c                   13.2727(8)
_cell_angle_alpha                90
_cell_angle_beta                 97.688(4)
_cell_angle_gamma                90
_cell_volume                     1125.74
_exptl_crystal_colour            colorless
_exptl_crystal_description       plate
_chemical_melting_point          430-432K
_cell_formula_units_Z            4
_exptl_crystal_recrystallization_method 'acetic acid'
loop_
_atom_site_label
_atom_site_type_symbol
_atom_site_fract_x
_atom_site_fract_y
_atom_site_fract_z
O1 O 1.2148(3) 0.19028(12) 0.26161(13)
O2 O 0.7185(3) 0.02451(12) 0.41526(15)
O3 O 0.6561(3) 0.35847(12) 0.36333(13)
N1 N 0.9475(3) 0.27629(14) 0.32313(14)
N2 N 0.9667(3) 0.10727(13) 0.33945(15)
C1 C 1.0414(4) 0.36476(17) 0.28781(19)
C2 C 1.0535(4) 0.19140(15) 0.30520(16)
C3 C 1.0792(4) 0.01715(17) 0.3206(2)
C4 C 0.7840(4) 0.10227(16) 0.39016(18)
C5 C 0.6803(4) 0.19450(14) 0.41238(17)
C6 C 0.7532(4) 0.28282(16) 0.36596(16)
C7 C 0.3792(4) 0.25359(16) 0.52018(16)
C8 C 0.4022(4) 0.35324(17) 0.52969(19)
C9 C 0.2543(4) 0.40674(18) 0.57740(19)
C10 C 0.0833(4) 0.36195(17) 0.61757(18)
C11 C 0.0607(4) 0.26355(17) 0.61115(17)
C12 C 0.2075(4) 0.20982(16) 0.56350(16)
C13 C 0.5201(4) 0.18825(15) 0.47403(17)
H1 H 0.9657 0.3813 0.2203
H2 H 1.1985 0.3553 0.2840
H3 H 1.0227 0.4168 0.3355
H4 H 1.1202 -0.0166 0.3851
H5 H 1.2120 0.0313 0.2896
H6 H 0.9803 -0.0232 0.2745
H7 H 0.5200 0.3845 0.5033
H8 H 0.2705 0.4743 0.5825
H9 H -0.0181 0.3989 0.6495
H10 H -0.0554 0.2327 0.6393
H11 H 0.1916 0.1422 0.5601
H12 H 0.4939 0.1237 0.4914
loop_
_geom_bond_atom_site_label_1
_geom_bond_atom_site_label_2
_geom_bond_site_symmetry_1
_geom_bond_site_symmetry_2
O1 C2 1_555 1_555
O2 C4 1_555 1_555
O3 C6 1_555 1_555
N1 C1 1_555 1_555
N2 C2 1_555 1_555
C1 H1 1_555 1_555
C2 N1 1_555 1_555
C3 N2 1_555 1_555
C4 N2 1_555 1_555
C5 C4 1_555 1_555
C6 N1 1_555 1_555
C7 C8 1_555 1_555
C8 C9 1_555 1_555
C9 C10 1_555 1_555
C10 C11 1_555 1_555
C11 C12 1_555 1_555
C12 C7 1_555 1_555
C13 C5 1_555 1_555
H2 C1 1_555 1_555
H3 C1 1_555 1_555
H4 C3 1_555 1_555
H5 C3 1_555 1_555
H6 C3 1_555 1_555
H7 C8 1_555 1_555
H8 C9 1_555 1_555
H9 C10 1_555 1_555
H10 C11 1_555 1_555
H11 C12 1_555 1_555
H12 C13 1_555 1_555
C5 C6 1_555 1_555
C7 C13 1_555 1_555

#END
