
#######################################################################
#
#                 Cambridge Crystallographic Data Centre
#                                CCDC 
#
#######################################################################
#
# If this CIF has been generated from an entry in the Cambridge 
# Structural Database, then it will include bibliographic, chemical, 
# crystal, experimental, refinement or atomic coordinate data resulting 
# from the CCDC's data processing and validation procedures.
#
#######################################################################

data_FOMJOH
_chemical_formula_moiety         'C14 H10 I1 N3 O2'
_chemical_name_systematic        
1-(2-Iodophenyl)-4-(2-nitrophenyl)-2,3-diaza-1,3-butadiene
_symmetry_cell_setting           monoclinic
_symmetry_space_group_name_H-M   'C 2/c'
_symmetry_Int_Tables_number      15
_space_group_name_Hall           '-C 2yn'
loop_
_symmetry_equiv_pos_site_id
_symmetry_equiv_pos_as_xyz
1 x,y,z
2 1/2+x,1/2+y,z
3 -x,y,1/2-z
4 1/2-x,1/2+y,1/2-z
5 -x,-y,-z
6 1/2-x,1/2-y,-z
7 x,-y,1/2+z
8 1/2+x,1/2-y,1/2+z
_cell_length_a                   15.3033(8)
_cell_length_b                   3.7952(3)
_cell_length_c                   23.3097(16)
_cell_angle_alpha                90
_cell_angle_beta                 97.836(4)
_cell_angle_gamma                90
_cell_volume                     1341.16
_exptl_crystal_colour            colorless
_exptl_crystal_description       block
_chemical_melting_point          471-473K
_cell_formula_units_Z            4
_exptl_crystal_recrystallization_method 1,2-dichloroethane
loop_
_atom_site_label
_atom_site_type_symbol
_atom_site_fract_x
_atom_site_fract_y
_atom_site_fract_z
I1 I 0.56268(4) 0.07489(18) 0.69915(2)
N1 N 0.5447(2) 0.4686(11) 0.50972(15)
C1 C 0.6477(3) 0.3319(11) 0.59300(17)
C2 C 0.6660(2) 0.1870(12) 0.64815(17)
C3 C 0.7513(3) 0.1207(11) 0.67384(17)
C4 C 0.8214(3) 0.1991(12) 0.64419(18)
C5 C 0.8057(3) 0.3448(12) 0.58927(19)
C6 C 0.7204(3) 0.4096(12) 0.56453(17)
C7 C 0.5585(3) 0.4024(12) 0.56398(17)
H1 H 0.5104 0.3989 0.5857
H2 H 0.7618 0.0219 0.7116
H3 H 0.8801 0.1530 0.6615
H4 H 0.8536 0.3998 0.5688
H5 H 0.7104 0.5102 0.5269
I1D I 0.43732(4) 0.92511(18) 0.30085(2)
N1D N 0.4553(2) 0.5314(11) 0.49028(15)
C1D C 0.3523(3) 0.6681(11) 0.40700(17)
C2D C 0.3340(2) 0.8130(12) 0.35185(17)
C3D C 0.2487(3) 0.8793(11) 0.32616(17)
C4D C 0.1786(3) 0.8009(12) 0.35581(18)
C5D C 0.1943(3) 0.6552(12) 0.41073(19)
C6D C 0.2796(3) 0.5904(12) 0.43547(17)
C7D C 0.4415(3) 0.5976(12) 0.43602(17)
H1D H 0.4896 0.6011 0.4143
H2D H 0.2382 0.9781 0.2884
H3D H 0.1199 0.8470 0.3385
H4D H 0.1464 0.6002 0.4312
H5D H 0.2896 0.4898 0.4731
O1? O 0.6152(5) 0.071(2) 0.7343(3)
O2? O 0.5247(5) -0.003(2) 0.6555(3)
N2? N 0.5966(4) 0.073(2) 0.6812(3)
loop_
_geom_bond_atom_site_label_1
_geom_bond_atom_site_label_2
_geom_bond_site_symmetry_1
_geom_bond_site_symmetry_2
I1 C2 1_555 1_555
N1 C7 1_555 1_555
C1 C2 1_555 1_555
C2 C3 1_555 1_555
C3 C4 1_555 1_555
C4 C5 1_555 1_555
C5 C6 1_555 1_555
C6 C1 1_555 1_555
C7 C1 1_555 1_555
H1 C7 1_555 1_555
H2 C3 1_555 1_555
H3 C4 1_555 1_555
H4 C5 1_555 1_555
H5 C6 1_555 1_555
I1D C2D 1_555 1_555
N1D N1 1_555 1_555
C1D C2D 1_555 1_555
C2D C3D 1_555 1_555
C3D C4D 1_555 1_555
C4D C5D 1_555 1_555
C5D C6D 1_555 1_555
C6D C1D 1_555 1_555
C7D N1D 1_555 1_555
H1D C7D 1_555 1_555
H2D C3D 1_555 1_555
H3D C4D 1_555 1_555
H4D C5D 1_555 1_555
H5D C6D 1_555 1_555
C1D C7D 1_555 1_555

#END
