
#######################################################################
#
#                 Cambridge Crystallographic Data Centre
#                                CCDC 
#
#######################################################################
#
# If this CIF has been generated from an entry in the Cambridge 
# Structural Database, then it will include bibliographic, chemical, 
# crystal, experimental, refinement or atomic coordinate data resulting 
# from the CCDC's data processing and validation procedures.
#
#######################################################################

data_FOMJEX
_chemical_formula_moiety         'C15 H17 N3 O3'
_chemical_name_systematic        
5-(4-(Dimethylamino)benzylidene)-1,3-dimethylpyrimidine-2,4,6(1H,3H,5H)-trione
_symmetry_cell_setting           triclinic
_symmetry_space_group_name_H-M   'P -1'
_symmetry_Int_Tables_number      2
_space_group_name_Hall           '-P 1'
loop_
_symmetry_equiv_pos_site_id
_symmetry_equiv_pos_as_xyz
1 x,y,z
2 -x,-y,-z
_cell_length_a                   8.6187(2)
_cell_length_b                   8.8451(3)
_cell_length_c                   9.0566(3)
_cell_angle_alpha                82.2980(18)
_cell_angle_beta                 84.465(2)
_cell_angle_gamma                82.365(2)
_cell_volume                     675.943
_exptl_crystal_colour            orange
_exptl_crystal_description       block
_chemical_melting_point          497-499K
_cell_formula_units_Z            2
_exptl_crystal_recrystallization_method acetonitrile
loop_
_atom_site_label
_atom_site_type_symbol
_atom_site_fract_x
_atom_site_fract_y
_atom_site_fract_z
O1 O 0.20702(10) 1.01028(10) 0.69826(10)
O2 O 0.65055(10) 0.67888(10) 0.76453(9)
O3 O 0.42780(11) 0.78374(11) 0.29651(10)
N1 N 0.32498(11) 0.90026(11) 0.49595(10)
N2 N 0.43121(11) 0.84618(11) 0.72988(10)
N3 N 0.95303(12) 0.28701(11) 0.00057(11)
C1 C 0.20256(14) 0.98431(14) 0.40472(14)
C2 C 0.31355(13) 0.92388(13) 0.64509(13)
C3 C 0.42493(16) 0.87893(16) 0.88508(13)
C4 C 0.55241(13) 0.74064(13) 0.67884(12)
C5 C 0.55605(13) 0.71125(13) 0.52207(12)
C6 C 0.43704(13) 0.79591(13) 0.42844(12)
C7 C 0.73387(13) 0.52767(13) 0.35161(12)
C8 C 0.67780(14) 0.55360(13) 0.20713(13)
C9 C 0.74808(14) 0.47471(13) 0.09256(13)
C10 C 0.88152(13) 0.36372(12) 0.11323(12)
C11 C 0.93787(13) 0.33510(13) 0.25798(13)
C12 C 0.86589(13) 0.41446(13) 0.37098(13)
C13 C 0.67536(13) 0.60081(13) 0.48077(12)
C14 C 1.08832(15) 0.17140(14) 0.02688(14)
C15 C 0.89585(15) 0.31354(15) -0.14836(13)
H1 H 0.2475 1.0098 0.3022
H2 H 0.1600 1.0792 0.4468
H3 H 0.1182 0.9202 0.4041
H4 H 0.4534 0.9823 0.8866
H5 H 0.4989 0.8034 0.9401
H6 H 0.3183 0.8730 0.9322
H7 H 0.5891 0.6276 0.1889
H8 H 0.7064 0.4949 -0.0024
H9 H 1.1703 0.2179 0.0662
H10 H 1.1291 0.1323 -0.0673
H11 H 1.0563 0.0865 0.0994
H12 H 0.7986 0.2668 -0.1464
H13 H 0.9753 0.2673 -0.2193
H14 H 0.8752 0.4243 -0.1793
H15 H 1.0260 0.2605 0.2766
H16 H 0.9061 0.3927 0.4666
H17 H 0.7367 0.5620 0.5624
loop_
_geom_bond_atom_site_label_1
_geom_bond_atom_site_label_2
_geom_bond_site_symmetry_1
_geom_bond_site_symmetry_2
O1 C2 1_555 1_555
O2 C4 1_555 1_555
O3 C6 1_555 1_555
N1 C1 1_555 1_555
N2 C2 1_555 1_555
N3 C10 1_555 1_555
C1 H1 1_555 1_555
C2 N1 1_555 1_555
C3 N2 1_555 1_555
C4 N2 1_555 1_555
C5 C4 1_555 1_555
C6 N1 1_555 1_555
C7 C8 1_555 1_555
C8 C9 1_555 1_555
C9 C10 1_555 1_555
C10 C11 1_555 1_555
C11 C12 1_555 1_555
C12 C7 1_555 1_555
C13 C5 1_555 1_555
C14 N3 1_555 1_555
C15 N3 1_555 1_555
H2 C1 1_555 1_555
H3 C1 1_555 1_555
H4 C3 1_555 1_555
H5 C3 1_555 1_555
H6 C3 1_555 1_555
H7 C8 1_555 1_555
H8 C9 1_555 1_555
H9 C14 1_555 1_555
H10 C14 1_555 1_555
H11 C14 1_555 1_555
H12 C15 1_555 1_555
H13 C15 1_555 1_555
H14 C15 1_555 1_555
H15 C11 1_555 1_555
H16 C12 1_555 1_555
H17 C13 1_555 1_555
C5 C6 1_555 1_555
C7 C13 1_555 1_555

#END
