
#######################################################################
#
#                 Cambridge Crystallographic Data Centre
#                                CCDC 
#
#######################################################################
#
# If this CIF has been generated from an entry in the Cambridge 
# Structural Database, then it will include bibliographic, chemical, 
# crystal, experimental, refinement or atomic coordinate data resulting 
# from the CCDC's data processing and validation procedures.
#
#######################################################################

data_FOMJUN
_chemical_formula_moiety         'C14 H10 I1 N3 O2'
_chemical_name_systematic        
1-(2-Iodophenyl)-4-(3-nitrophenyl)-2,3-diaza-1,3-butadiene
_symmetry_cell_setting           triclinic
_symmetry_space_group_name_H-M   'P -1'
_symmetry_Int_Tables_number      2
_space_group_name_Hall           '-P 1'
loop_
_symmetry_equiv_pos_site_id
_symmetry_equiv_pos_as_xyz
1 x,y,z
2 -x,-y,-z
_cell_length_a                   7.2969(3)
_cell_length_b                   7.3235(3)
_cell_length_c                   13.7939(6)
_cell_angle_alpha                97.405(2)
_cell_angle_beta                 100.410(2)
_cell_angle_gamma                107.590(3)
_cell_volume                     677.734
_exptl_crystal_colour            yellow
_exptl_crystal_description       plate
_chemical_melting_point          458-460K
_cell_formula_units_Z            2
_exptl_crystal_recrystallization_method 1,2-dichloroethane
loop_
_atom_site_label
_atom_site_type_symbol
_atom_site_fract_x
_atom_site_fract_y
_atom_site_fract_z
C1 C -0.0567(4) -0.2954(4) 0.3271(2)
C2 C -0.0674(4) -0.1709(4) 0.2594(2)
C3 C -0.1845(4) -0.2506(4) 0.1637(2)
N1 N -0.1969(4) -0.1203(4) 0.0922(2)
O1 O -0.1152(4) 0.0552(3) 0.1219(2)
O2 O -0.2923(4) -0.1949(4) 0.00608(18)
C4 C -0.2920(4) -0.4480(4) 0.1311(2)
C5 C -0.2819(4) -0.5700(4) 0.1985(2)
C6 C -0.1673(4) -0.4955(4) 0.2960(2)
C7 C 0.0658(4) -0.2245(4) 0.4290(2)
N2 N 0.1897(4) -0.0501(4) 0.45944(19)
N3 N 0.2894(4) -0.0203(4) 0.55996(19)
C8 C 0.5397(4) 0.2117(4) 0.6929(2)
C9 C 0.6637(4) 0.4053(4) 0.7336(2)
I1 I 0.69346(3) 0.62753(2) 0.648300(13)
C10 C 0.7740(4) 0.4599(4) 0.8326(2)
C11 C 0.7650(4) 0.3206(5) 0.8921(2)
C12 C 0.6456(5) 0.1273(5) 0.8532(2)
C13 C 0.5348(4) 0.0752(4) 0.7553(2)
C14 C 0.4188(4) 0.1501(4) 0.5906(2)
H1 H 0.0040 -0.0349 0.2787
H2 H -0.3699 -0.4974 0.0643
H3 H -0.3537 -0.7058 0.1783
H4 H -0.1636 -0.5807 0.3421
H5 H 0.0535 -0.3110 0.4750
H6 H 0.8547 0.5920 0.8592
H7 H 0.8405 0.3568 0.9596
H8 H 0.6404 0.0315 0.8939
H9 H 0.4530 -0.0568 0.7298
H10 H 0.4364 0.2384 0.5455
loop_
_geom_bond_atom_site_label_1
_geom_bond_atom_site_label_2
_geom_bond_site_symmetry_1
_geom_bond_site_symmetry_2
C1 C2 1_555 1_555
C2 C3 1_555 1_555
C3 N1 1_555 1_555
N1 O1 1_555 1_555
O2 N1 1_555 1_555
C4 C3 1_555 1_555
C5 C4 1_555 1_555
C6 C1 1_555 1_555
C7 C1 1_555 1_555
N2 C7 1_555 1_555
N3 N2 1_555 1_555
C8 C9 1_555 1_555
C9 I1 1_555 1_555
C10 C9 1_555 1_555
C11 C10 1_555 1_555
C12 C11 1_555 1_555
C13 C8 1_555 1_555
C14 N3 1_555 1_555
H1 C2 1_555 1_555
H2 C4 1_555 1_555
H3 C5 1_555 1_555
H4 C6 1_555 1_555
H5 C7 1_555 1_555
H6 C10 1_555 1_555
H7 C11 1_555 1_555
H8 C12 1_555 1_555
H9 C13 1_555 1_555
H10 C14 1_555 1_555
C5 C6 1_555 1_555
C8 C14 1_555 1_555
C12 C13 1_555 1_555

#END
