
#######################################################################
#
#                 Cambridge Crystallographic Data Centre
#                                CCDC 
#
#######################################################################
#
# If this CIF has been generated from an entry in the Cambridge 
# Structural Database, then it will include bibliographic, chemical, 
# crystal, experimental, refinement or atomic coordinate data resulting 
# from the CCDC's data processing and validation procedures.
#
#######################################################################

data_FOMLOJ
_chemical_formula_moiety         'C6 H4 Br1 Cl1 N2 O2'
_chemical_name_systematic        2-Bromo-6-chloro-4-nitroaniline
_symmetry_cell_setting           monoclinic
_symmetry_space_group_name_H-M   'P 21/c'
_symmetry_Int_Tables_number      14
_space_group_name_Hall           '-P 2ybc'
loop_
_symmetry_equiv_pos_site_id
_symmetry_equiv_pos_as_xyz
1 x,y,z
2 -x,1/2+y,1/2-z
3 -x,-y,-z
4 x,1/2-y,1/2+z
_cell_length_a                   3.8052(3)
_cell_length_b                   17.9667(13)
_cell_length_c                   12.0417(9)
_cell_angle_alpha                90
_cell_angle_beta                 93.224(2)
_cell_angle_gamma                90
_cell_volume                     821.951
_exptl_crystal_colour            red
_exptl_crystal_description       plate
_chemical_melting_point          450-452K
_cell_formula_units_Z            4
_exptl_crystal_recrystallization_method ethanol
loop_
_atom_site_label
_atom_site_type_symbol
_atom_site_fract_x
_atom_site_fract_y
_atom_site_fract_z
Br1 Br 0.1862(12) 0.3784(4) 0.4908(2)
Cl2 Cl 0.778(4) 0.2869(5) 0.8918(11)
N1 N 0.4805(8) 0.26991(16) 0.6681(3)
N2 N 0.5273(9) 0.56628(18) 0.8132(3)
O1 O 0.3704(10) 0.61269(16) 0.7523(3)
O2 O 0.6807(10) 0.58180(18) 0.9026(3)
C1 C 0.4947(8) 0.34078(17) 0.7041(3)
C2 C 0.3633(7) 0.40011(17) 0.63759(16)
C3 C 0.3719(8) 0.47309(17) 0.6714(3)
C4 C 0.5183(8) 0.48899(19) 0.7769(3)
C5 C 0.6536(8) 0.4335(2) 0.8470(3)
C6 C 0.6380(7) 0.36189(15) 0.8095(2)
H1 H 0.5584 0.2346 0.7111
H2 H 0.3883 0.2597 0.6031
H3 H 0.2823 0.5108 0.6250
H4 H 0.7519 0.4447 0.9175
Br2? Br 0.832(2) 0.2873(4) 0.9060(7)
Cl1? Cl 0.152(3) 0.3787(11) 0.5097(5)
loop_
_geom_bond_atom_site_label_1
_geom_bond_atom_site_label_2
_geom_bond_site_symmetry_1
_geom_bond_site_symmetry_2
Br1 C2 1_555 1_555
Cl2 C6 1_555 1_555
N1 C1 1_555 1_555
N2 O1 1_555 1_555
O2 N2 1_555 1_555
C1 C2 1_555 1_555
C2 C3 1_555 1_555
C3 C4 1_555 1_555
C4 N2 1_555 1_555
C5 C4 1_555 1_555
C6 C1 1_555 1_555
H1 N1 1_555 1_555
H2 N1 1_555 1_555
H3 C3 1_555 1_555
H4 C5 1_555 1_555
C5 C6 1_555 1_555

#END
