
#######################################################################
#
#                 Cambridge Crystallographic Data Centre
#                                CCDC 
#
#######################################################################
#
# If this CIF has been generated from an entry in the Cambridge 
# Structural Database, then it will include bibliographic, chemical, 
# crystal, experimental, refinement or atomic coordinate data resulting 
# from the CCDC's data processing and validation procedures.
#
#######################################################################

data_FOMMIF
_chemical_formula_moiety         'C20 H19 N1 Si1'
_chemical_name_systematic        
10,10-dimethyl-5-phenyl-5,10-dihydrodibenzo[b,e][1,4]azasiline
_symmetry_cell_setting           monoclinic
_symmetry_space_group_name_H-M   'P 21/c'
_symmetry_Int_Tables_number      14
_space_group_name_Hall           '-P 2ybc'
loop_
_symmetry_equiv_pos_site_id
_symmetry_equiv_pos_as_xyz
1 x,y,z
2 -x,1/2+y,1/2-z
3 -x,-y,-z
4 x,1/2-y,1/2+z
_cell_length_a                   11.649(4)
_cell_length_b                   8.213(3)
_cell_length_c                   17.429(6)
_cell_angle_alpha                90
_cell_angle_beta                 93.953(4)
_cell_angle_gamma                90
_cell_volume                     1663.52
_exptl_crystal_colour            colorless
_exptl_crystal_description       block
_cell_formula_units_Z            4
_exptl_crystal_recrystallization_method 
'Re-crystallisation from solvent: dichloromethane and ethanol solution'
_exptl_crystal_preparation       Luminescent
loop_
_atom_site_label
_atom_site_type_symbol
_atom_site_fract_x
_atom_site_fract_y
_atom_site_fract_z
C1 C 0.16413(18) 0.4022(3) 0.67901(12)
C2 C 0.0772(2) 0.4261(3) 0.62056(13)
H1 H 0.0718 0.3533 0.5796
C3 C -0.0007(2) 0.5522(3) 0.62063(14)
H2 H -0.0573 0.5642 0.5807
C4 C 0.00720(19) 0.6597(3) 0.68093(14)
H3 H -0.0442 0.7463 0.6816
C5 C 0.08971(18) 0.6412(3) 0.74009(13)
H4 H 0.0931 0.7149 0.7807
C6 C 0.16928(17) 0.5129(3) 0.74062(11)
C7 C 0.34192(17) 0.3844(3) 0.81420(12)
C8 C 0.41532(19) 0.3925(3) 0.88118(12)
H5 H 0.4009 0.4687 0.9188
C9 C 0.5083(2) 0.2899(3) 0.89244(15)
H6 H 0.5561 0.2982 0.9372
C10 C 0.5312(2) 0.1753(3) 0.83824(16)
H7 H 0.5952 0.1079 0.8452
C11 C 0.4579(2) 0.1626(3) 0.77379(15)
H8 H 0.4726 0.0830 0.7378
C12 C 0.36177(19) 0.2637(3) 0.75918(13)
C13 C 0.3446(2) 0.2417(3) 0.58272(14)
H9 H 0.3874 0.3414 0.5822
H10 H 0.2903 0.2380 0.5387
H11 H 0.3964 0.1510 0.5812
C14 C 0.1932(3) 0.0299(3) 0.67479(17)
H12 H 0.2481 -0.0550 0.6675
H13 H 0.1328 0.0248 0.6345
H14 H 0.1611 0.0159 0.7236
C15 C 0.24427(18) 0.6185(3) 0.86475(12)
C16 C 0.1768(2) 0.5883(3) 0.92504(14)
H15 H 0.1341 0.4928 0.9265
C17 C 0.1735(3) 0.7031(4) 0.98394(14)
H16 H 0.1285 0.6843 1.0251
C18 C 0.2364(3) 0.8432(4) 0.98093(17)
H17 H 0.2345 0.9187 1.0206
C19 C 0.3016(2) 0.8735(4) 0.92096(18)
H18 H 0.3433 0.9699 0.9194
C20 C 0.3059(2) 0.7612(3) 0.86234(14)
H19 H 0.3505 0.7819 0.8212
N1 N 0.25071(15) 0.4991(2) 0.80416(10)
Si1 Si 0.26599(6) 0.23126(8) 0.67226(4)
loop_
_geom_bond_atom_site_label_1
_geom_bond_atom_site_label_2
_geom_bond_site_symmetry_1
_geom_bond_site_symmetry_2
C1 C2 1_555 1_555
C2 H1 1_555 1_555
C3 C2 1_555 1_555
H2 C3 1_555 1_555
C4 C3 1_555 1_555
H3 C4 1_555 1_555
C5 C4 1_555 1_555
H4 C5 1_555 1_555
C6 C1 1_555 1_555
C7 C8 1_555 1_555
C8 H5 1_555 1_555
C9 C8 1_555 1_555
H6 C9 1_555 1_555
C10 C9 1_555 1_555
H7 C10 1_555 1_555
C11 C10 1_555 1_555
H8 C11 1_555 1_555
C12 C7 1_555 1_555
C13 H9 1_555 1_555
H10 C13 1_555 1_555
H11 C13 1_555 1_555
C14 H12 1_555 1_555
H13 C14 1_555 1_555
H14 C14 1_555 1_555
C15 C16 1_555 1_555
C16 H15 1_555 1_555
C17 C16 1_555 1_555
H16 C17 1_555 1_555
C18 C17 1_555 1_555
H17 C18 1_555 1_555
C19 C18 1_555 1_555
H18 C19 1_555 1_555
C20 C15 1_555 1_555
H19 C20 1_555 1_555
N1 C6 1_555 1_555
Si1 C1 1_555 1_555
C5 C6 1_555 1_555
C7 N1 1_555 1_555
C11 C12 1_555 1_555
C12 Si1 1_555 1_555
C13 Si1 1_555 1_555
C14 Si1 1_555 1_555
C15 N1 1_555 1_555
C19 C20 1_555 1_555

#END
