
#######################################################################
#
#                 Cambridge Crystallographic Data Centre
#                                CCDC 
#
#######################################################################
#
# If this CIF has been generated from an entry in the Cambridge 
# Structural Database, then it will include bibliographic, chemical, 
# crystal, experimental, refinement or atomic coordinate data resulting 
# from the CCDC's data processing and validation procedures.
#
#######################################################################

data_FOMNIF
_chemical_formula_moiety         'C21 H28 N1 O6 1+,Cl1 1-,0.5(H2 O1)'
_chemical_name_systematic        
'(+-)-6,7-dihydro-1,2,3,9,10,11-hexamethoxy-6-methyl-5H-dibenzo(c,e)azepinium chloride hemihydrate'
_symmetry_cell_setting           monoclinic
_symmetry_space_group_name_H-M   'C 2/c'
_symmetry_Int_Tables_number      15
_space_group_name_Hall           '-C 2yn'
loop_
_symmetry_equiv_pos_site_id
_symmetry_equiv_pos_as_xyz
1 x,y,z
2 1/2+x,1/2+y,z
3 -x,y,1/2-z
4 1/2-x,1/2+y,1/2-z
5 -x,-y,-z
6 1/2-x,1/2-y,-z
7 x,-y,1/2+z
8 1/2+x,1/2-y,1/2+z
_cell_length_a                   36.0403(12)
_cell_length_b                   7.8165(2)
_cell_length_c                   17.0066(5)
_cell_angle_alpha                90
_cell_angle_beta                 111.7920
_cell_angle_gamma                90
_cell_volume                     4448.54
_exptl_crystal_colour            colorless
_exptl_crystal_description       needle
_chemical_melting_point          '401-402 K'
_cell_formula_units_Z            8
_exptl_crystal_recrystallization_method 'ethyl acetate'
loop_
_atom_site_label
_atom_site_type_symbol
_atom_site_fract_x
_atom_site_fract_y
_atom_site_fract_z
C1 C 0.68102(5) 0.6598(2) 0.58223(12)
C2 C 0.69278(5) 0.5570(2) 0.65436(12)
C3 C 0.66395(5) 0.4941(2) 0.68409(12)
C4 C 0.62380(6) 0.5223(2) 0.63852(12)
C5 C 0.61219(5) 0.6240(2) 0.56628(12)
C6 C 0.56852(6) 0.6585(3) 0.51870(12)
C7 C 0.57796(6) 0.6216(3) 0.37918(13)
C8 C 0.59552(5) 0.7981(2) 0.39492(12)
C9 C 0.58130(6) 0.9250(3) 0.33339(13)
C10 C 0.59851(6) 1.0858(2) 0.34706(13)
C11 C 0.62961(6) 1.1218(2) 0.42439(13)
C12 C 0.64324(6) 0.9960(2) 0.48552(12)
C13 C 0.62726(5) 0.8304(2) 0.47142(12)
C14 C 0.64053(5) 0.6998(2) 0.53969(11)
C15 C 0.74333(7) 0.7999(3) 0.60016(16)
C16 C 0.74706(8) 0.3788(4) 0.66441(19)
C17 C 0.64945(7) 0.3361(3) 0.78873(15)
C18 C 0.55478(8) 1.1886(4) 0.21296(16)
C19 C 0.68161(7) 1.3068(3) 0.42899(18)
C20 C 0.65697(9) 1.0696(4) 0.62684(16)
C21 C 0.54776(7) 0.3913(3) 0.43460(16)
O1 O 0.70720(4) 0.71479(17) 0.54644(8)
O2 O 0.73253(4) 0.51848(18) 0.69880(8)
O3 O 0.67858(4) 0.40029(17) 0.75722(8)
O4 O 0.58700(4) 1.21986(17) 0.29158(9)
O5 O 0.64468(4) 1.28628(16) 0.44066(9)
O6 O 0.67256(4) 1.03867(17) 0.56190(8)
N1 N 0.55294(5) 0.5802(2) 0.43118(10)
H1 H 0.6047(6) 0.473(3) 0.6540(12)
H2 H 0.5527(6) 0.605(2) 0.5506(12)
H3 H 0.5642(6) 0.778(3) 0.5122(12)
H4 H 0.5273(7) 0.625(3) 0.4031(14)
H5 H 0.5602(6) 0.608(2) 0.3220(13)
H6 H 0.5999(6) 0.538(3) 0.3952(12)
H7 H 0.5608(6) 0.898(3) 0.2829(14)
H8 H 0.7646(9) 0.715(3) 0.6254(18)
H9 H 0.7524(8) 0.870(3) 0.5613(17)
H10 H 0.7382(7) 0.863(3) 0.6430(16)
H13 H 0.7456(9) 0.410(4) 0.606(2)
H14 H 0.7313(10) 0.284(4) 0.658(2)
H15 H 0.7752(8) 0.357(3) 0.7045(17)
H16 H 0.6316(7) 0.254(3) 0.7481(15)
H17 H 0.6349(7) 0.424(3) 0.8011(15)
H18 H 0.6638(7) 0.280(3) 0.8425(16)
H19 H 0.5613(7) 1.099(4) 0.1807(17)
H20 H 0.5290(8) 1.146(3) 0.2186(15)
H21 H 0.5498(7) 1.294(3) 0.1842(15)
H22 H 0.7017(8) 1.223(4) 0.4660(18)
H23 H 0.6754(7) 1.290(3) 0.3657(18)
H24 H 0.6896(7) 1.422(4) 0.4455(15)
H25 H 0.6451(8) 0.965(4) 0.6373(17)
H26 H 0.6385(8) 1.160(4) 0.6071(16)
H27 H 0.6805(8) 1.103(3) 0.6770(16)
H28 H 0.5737(7) 0.342(3) 0.4657(14)
H29 H 0.5364(6) 0.347(3) 0.3732(14)
H30 H 0.5298(7) 0.372(3) 0.4623(15)
O7 O 0.5145(2) 1.0434(6) 0.4664(4)
H11 H 0.493(3) 0.931(12) 0.448(5)
H12 H 0.5280(19) 1.036(8) 0.522(5)
Cl1 Cl 0.467597(15) 0.70067(8) 0.36456(3)
loop_
_geom_bond_atom_site_label_1
_geom_bond_atom_site_label_2
_geom_bond_site_symmetry_1
_geom_bond_site_symmetry_2
C1 C2 1_555 1_555
C2 C3 1_555 1_555
C3 C4 1_555 1_555
C4 C5 1_555 1_555
C5 C6 1_555 1_555
C6 N1 1_555 1_555
C7 C8 1_555 1_555
C8 C9 1_555 1_555
C9 C10 1_555 1_555
C10 C11 1_555 1_555
C11 C12 1_555 1_555
C12 C13 1_555 1_555
C13 C8 1_555 1_555
C14 C1 1_555 1_555
C15 O1 1_555 1_555
C16 O2 1_555 1_555
C17 O3 1_555 1_555
C18 O4 1_555 1_555
C19 O5 1_555 1_555
C20 O6 1_555 1_555
C21 N1 1_555 1_555
O1 C1 1_555 1_555
O2 C2 1_555 1_555
O3 C3 1_555 1_555
O4 C10 1_555 1_555
O5 C11 1_555 1_555
O6 C12 1_555 1_555
O7 H11 1_555 1_555
N1 C7 1_555 1_555
H1 C4 1_555 1_555
H2 C6 1_555 1_555
H3 C6 1_555 1_555
H4 N1 1_555 1_555
H5 C7 1_555 1_555
H6 C7 1_555 1_555
H7 C9 1_555 1_555
H8 C15 1_555 1_555
H9 C15 1_555 1_555
H10 C15 1_555 1_555
H12 O7 1_555 1_555
H13 C16 1_555 1_555
H14 C16 1_555 1_555
H15 C16 1_555 1_555
H16 C17 1_555 1_555
H17 C17 1_555 1_555
H18 C17 1_555 1_555
H19 C18 1_555 1_555
H20 C18 1_555 1_555
H21 C18 1_555 1_555
H22 C19 1_555 1_555
H23 C19 1_555 1_555
H24 C19 1_555 1_555
H25 C20 1_555 1_555
H26 C20 1_555 1_555
H27 C20 1_555 1_555
H28 C21 1_555 1_555
H29 C21 1_555 1_555
H30 C21 1_555 1_555
C5 C14 1_555 1_555
C13 C14 1_555 1_555

#END
