
#######################################################################
#
#                 Cambridge Crystallographic Data Centre
#                                CCDC 
#
#######################################################################
#
# If this CIF has been generated from an entry in the Cambridge 
# Structural Database, then it will include bibliographic, chemical, 
# crystal, experimental, refinement or atomic coordinate data resulting 
# from the CCDC's data processing and validation procedures.
#
#######################################################################

data_FOMNEB02
_chemical_formula_moiety         'C18 H17 N1 O4'
_chemical_name_systematic        
'(E)-(1-(4-methoxyphenyl)-3-phenyl-2-propenylideneamino)oxyacetic acid'
_symmetry_cell_setting           monoclinic
_symmetry_space_group_name_H-M   'P 21/c'
_symmetry_Int_Tables_number      14
_space_group_name_Hall           '-P 2ybc'
loop_
_symmetry_equiv_pos_site_id
_symmetry_equiv_pos_as_xyz
1 x,y,z
2 -x,1/2+y,1/2-z
3 -x,-y,-z
4 x,1/2-y,1/2+z
_cell_length_a                   6.4238(3)
_cell_length_b                   15.1513(9)
_cell_length_c                   17.0552(9)
_cell_angle_alpha                90
_cell_angle_beta                 93.167(2)
_cell_angle_gamma                90
_cell_volume                     1657.43
_exptl_crystal_colour            colorless
_exptl_crystal_description       plate
_chemical_melting_point          '413 K'
_cell_formula_units_Z            4
_exptl_crystal_recrystallization_method ethanol
loop_
_atom_site_label
_atom_site_type_symbol
_atom_site_fract_x
_atom_site_fract_y
_atom_site_fract_z
O1 O 0.6749(2) 0.57149(10) 0.44883(8)
O2 O 0.35075(19) 0.52460(10) 0.42022(8)
O3 O 0.35183(19) 0.60586(8) 0.27465(8)
O4 O -0.7423(2) 0.88371(10) 0.12369(9)
N1 N 0.3106(2) 0.52168(9) 0.24115(9)
C1 C 0.5087(3) 0.56167(12) 0.40199(11)
C2 C 0.5374(3) 0.60012(13) 0.32253(12)
C3 C 0.1331(3) 0.52079(11) 0.20183(10)
C4 C -0.0105(3) 0.59500(11) 0.19403(11)
C5 C -0.1774(3) 0.59977(12) 0.14494(11)
C6 C 0.0793(3) 0.43272(12) 0.16713(11)
C7 C -0.1032(3) 0.39073(13) 0.18608(13)
C8 C -0.1463(4) 0.30646(15) 0.15944(16)
C9 C -0.0131(5) 0.26365(17) 0.11396(15)
C10 C 0.1652(5) 0.30432(17) 0.09294(14)
C11 C 0.2143(4) 0.38905(14) 0.12045(13)
C12 C -0.3237(3) 0.67349(11) 0.13728(10)
C13 C -0.2960(3) 0.75123(12) 0.18074(11)
C14 C -0.4369(3) 0.81881(12) 0.17438(12)
C15 C -0.6123(3) 0.81232(13) 0.12425(11)
C16 C -0.9292(3) 0.88148(17) 0.07492(15)
C17 C -0.6452(3) 0.73650(14) 0.08002(12)
C18 C -0.4998(3) 0.66828(13) 0.08728(11)
H1 H 0.6609 0.5435 0.4894
H2 H 0.5964 0.6588 0.3289
H3 H 0.6368 0.5642 0.2960
H4 H -0.1969 0.4196 0.2169
H5 H -0.2684 0.2787 0.1729
H6 H -0.0430 0.2065 0.0970
H7 H 0.2542 0.2755 0.0602
H8 H 0.3378 0.4159 0.1073
H9 H 0.0175 0.6434 0.2264
H10 H -0.2040 0.5515 0.1122
H11 H -0.1788 0.7571 0.2148
H12 H -0.4143 0.8697 0.2042
H13 H -0.8953 0.8811 0.0208
H14 H -1.0118 0.9326 0.0850
H15 H -1.0066 0.8292 0.0861
H16 H -0.7626 0.7312 0.0459
H17 H -0.5223 0.6175 0.0574
loop_
_geom_bond_atom_site_label_1
_geom_bond_atom_site_label_2
_geom_bond_site_symmetry_1
_geom_bond_site_symmetry_2
O1 C1 1_555 1_555
O2 C1 1_555 1_555
O3 N1 1_555 1_555
O4 C15 1_555 1_555
N1 C3 1_555 1_555
C1 C2 1_555 1_555
C2 O3 1_555 1_555
C3 C4 1_555 1_555
C4 C5 1_555 1_555
C5 C12 1_555 1_555
C6 C3 1_555 1_555
C7 C6 1_555 1_555
C8 C7 1_555 1_555
C9 C8 1_555 1_555
C10 C9 1_555 1_555
C11 C6 1_555 1_555
C12 C13 1_555 1_555
C13 C14 1_555 1_555
C14 C15 1_555 1_555
C15 C17 1_555 1_555
C16 O4 1_555 1_555
C17 C18 1_555 1_555
C18 C12 1_555 1_555
H1 O1 1_555 1_555
H2 C2 1_555 1_555
H3 C2 1_555 1_555
H4 C7 1_555 1_555
H5 C8 1_555 1_555
H6 C9 1_555 1_555
H7 C10 1_555 1_555
H8 C11 1_555 1_555
H9 C4 1_555 1_555
H10 C5 1_555 1_555
H11 C13 1_555 1_555
H12 C14 1_555 1_555
H13 C16 1_555 1_555
H14 C16 1_555 1_555
H15 C16 1_555 1_555
H16 C17 1_555 1_555
H17 C18 1_555 1_555
C10 C11 1_555 1_555

#END
