
#######################################################################
#
#                 Cambridge Crystallographic Data Centre
#                                CCDC 
#
#######################################################################
#
# If this CIF has been generated from an entry in the Cambridge 
# Structural Database, then it will include bibliographic, chemical, 
# crystal, experimental, refinement or atomic coordinate data resulting 
# from the CCDC's data processing and validation procedures.
#
#######################################################################

data_FOMPAZ
_chemical_formula_moiety         'C20 H24 O8 S1'
_chemical_name_systematic        
'(+-)-5,7-dihydro-1,2,3,9,10,11-hexamethoxydibenzo(c,e)thiepine 6,6-dioxide'
_symmetry_cell_setting           monoclinic
_symmetry_space_group_name_H-M   'P 21/n'
_symmetry_Int_Tables_number      14
_space_group_name_Hall           '-P 2yn'
loop_
_symmetry_equiv_pos_site_id
_symmetry_equiv_pos_as_xyz
1 x,y,z
2 1/2-x,1/2+y,1/2-z
3 -x,-y,-z
4 1/2+x,1/2-y,1/2+z
_cell_length_a                   8.7886(2)
_cell_length_b                   15.3454(3)
_cell_length_c                   15.4972(4)
_cell_angle_alpha                90
_cell_angle_beta                 106.2770
_cell_angle_gamma                90
_cell_volume                     2006.25
_exptl_crystal_colour            colorless
_exptl_crystal_description       prism
_chemical_melting_point          '497 K'
_cell_formula_units_Z            4
_exptl_crystal_recrystallization_method 'ethyl acetate/methanol'
loop_
_atom_site_label
_atom_site_type_symbol
_atom_site_fract_x
_atom_site_fract_y
_atom_site_fract_z
C1 C 0.7995(2) 0.34436(11) 0.49995(11)
C2 C 0.9578(2) 0.36152(11) 0.54564(12)
C3 C 1.0768(2) 0.30216(11) 0.54148(12)
C4 C 1.0359(2) 0.22407(11) 0.49598(12)
C5 C 0.8777(2) 0.20595(11) 0.45292(11)
C6 C 0.8376(2) 0.11862(11) 0.40784(13)
C7 C 0.6126(2) 0.11438(12) 0.50394(12)
C8 C 0.5201(2) 0.16875(11) 0.42681(12)
C9 C 0.3672(2) 0.14309(12) 0.37870(13)
C10 C 0.2787(2) 0.19511(12) 0.30995(13)
C11 C 0.7574(2) 0.26612(11) 0.45174(12)
C12 C 0.3419(2) 0.27306(12) 0.28921(12)
C13 C 0.4969(2) 0.29688(11) 0.33510(12)
C14 C 0.5891(2) 0.24470(11) 0.40486(12)
C15 C 0.6937(3) 0.48870(12) 0.47979(15)
C16 C 1.0371(5) 0.42582(19) 0.68788(16)
C17 C 1.3515(3) 0.27458(17) 0.5670(2)
C18 C 0.0835(3) 0.08715(15) 0.24673(16)
C19 C 0.1442(3) 0.37914(16) 0.25046(17)
C20 C 0.6114(3) 0.36332(18) 0.23188(17)
O1 O 0.68036(14) 0.39925(7) 0.50612(8)
O2 O 0.99568(15) 0.43757(8) 0.59425(8)
O3 O 1.22822(14) 0.32560(8) 0.58625(9)
O4 O 0.86896(15) 0.01927(8) 0.55267(9)
O5 O 0.66782(16) -0.02143(8) 0.41224(9)
O6 O 0.12642(17) 0.17617(9) 0.26091(11)
O7 O 0.25441(16) 0.32601(9) 0.22129(9)
O8 O 0.56027(16) 0.37245(8) 0.31174(9)
S1 S 0.75182(5) 0.04630(3) 0.47175(3)
H1 H 1.118(2) 0.1820(12) 0.4945(13)
H2 H 0.757(2) 0.1224(12) 0.3486(14)
H3 H 0.926(3) 0.0871(13) 0.4014(13)
H4 H 0.543(2) 0.0736(13) 0.5257(13)
H5 H 0.671(2) 0.1491(13) 0.5517(14)
H6 H 0.322(3) 0.0888(14) 0.3948(15)
H7 H 0.585(4) 0.5101(18) 0.4482(19)
H8 H 0.732(3) 0.5230(18) 0.533(2)
H9 H 0.764(3) 0.4942(17) 0.4404(18)
H10 H 0.946(4) 0.408(2) 0.699(2)
H11 H 1.061(3) 0.4816(17) 0.7175(16)
H12 H 1.122(5) 0.379(2) 0.709(3)
H13 H 1.351(3) 0.2169(17) 0.5937(17)
H14 H 1.449(3) 0.3019(16) 0.5963(17)
H15 H 1.334(3) 0.2751(15) 0.4961(19)
H16 H 0.155(4) 0.0632(19) 0.210(2)
H17 H -0.028(3) 0.0859(14) 0.2125(15)
H18 H 0.091(3) 0.0574(17) 0.3031(19)
H19 H 0.061(4) 0.342(2) 0.273(2)
H20 H 0.087(3) 0.4181(16) 0.1982(18)
H21 H 0.198(3) 0.4162(17) 0.3017(18)
H22 H 0.697(3) 0.3171(19) 0.2422(19)
H23 H 0.521(4) 0.341(2) 0.181(2)
H24 H 0.659(3) 0.4188(19) 0.2214(18)
loop_
_geom_bond_atom_site_label_1
_geom_bond_atom_site_label_2
_geom_bond_site_symmetry_1
_geom_bond_site_symmetry_2
C1 C2 1_555 1_555
C2 C3 1_555 1_555
C3 C4 1_555 1_555
C4 C5 1_555 1_555
C5 C6 1_555 1_555
C6 S1 1_555 1_555
C7 C8 1_555 1_555
C8 C9 1_555 1_555
C9 C10 1_555 1_555
C10 C12 1_555 1_555
C11 C1 1_555 1_555
C12 C13 1_555 1_555
C13 C14 1_555 1_555
C14 C8 1_555 1_555
C15 O1 1_555 1_555
C16 O2 1_555 1_555
C17 O3 1_555 1_555
C18 O6 1_555 1_555
C19 O7 1_555 1_555
C20 O8 1_555 1_555
O1 C1 1_555 1_555
O2 C2 1_555 1_555
O3 C3 1_555 1_555
O4 S1 1_555 1_555
O5 S1 1_555 1_555
O6 C10 1_555 1_555
O7 C12 1_555 1_555
O8 C13 1_555 1_555
S1 C7 1_555 1_555
H1 C4 1_555 1_555
H2 C6 1_555 1_555
H3 C6 1_555 1_555
H4 C7 1_555 1_555
H5 C7 1_555 1_555
H6 C9 1_555 1_555
H7 C15 1_555 1_555
H8 C15 1_555 1_555
H9 C15 1_555 1_555
H10 C16 1_555 1_555
H11 C16 1_555 1_555
H12 C16 1_555 1_555
H13 C17 1_555 1_555
H14 C17 1_555 1_555
H15 C17 1_555 1_555
H16 C18 1_555 1_555
H17 C18 1_555 1_555
H18 C18 1_555 1_555
H19 C19 1_555 1_555
H20 C19 1_555 1_555
H21 C19 1_555 1_555
H22 C20 1_555 1_555
H23 C20 1_555 1_555
H24 C20 1_555 1_555
C5 C11 1_555 1_555
C11 C14 1_555 1_555

#END
