
#######################################################################
#
#                 Cambridge Crystallographic Data Centre
#                                CCDC 
#
#######################################################################
#
# If this CIF has been generated from an entry in the Cambridge 
# Structural Database, then it will include bibliographic, chemical, 
# crystal, experimental, refinement or atomic coordinate data resulting 
# from the CCDC's data processing and validation procedures.
#
#######################################################################

data_FOMREF
_chemical_formula_moiety         '2(C10 H12 S8 2+),2(Cl1 1-),C2 O4 2-'
_chemical_name_systematic        
'bis(tetrakis(Methylsulfanyl)tetrathiafulvalenium) dichloride oxalate'
_symmetry_cell_setting           monoclinic
_symmetry_space_group_name_H-M   'P 21/c'
_symmetry_Int_Tables_number      14
_space_group_name_Hall           '-P 2ybc'
loop_
_symmetry_equiv_pos_site_id
_symmetry_equiv_pos_as_xyz
1 x,y,z
2 -x,1/2+y,1/2-z
3 -x,-y,-z
4 x,1/2-y,1/2+z
_cell_length_a                   10.0277(2)
_cell_length_b                   7.9202(2)
_cell_length_c                   23.2669(6)
_cell_angle_alpha                90
_cell_angle_beta                 90.9850(10)
_cell_angle_gamma                90
_cell_volume                     1847.62
_exptl_crystal_colour            black
_exptl_crystal_description       block
_cell_formula_units_Z            2
loop_
_atom_site_label
_atom_site_type_symbol
_atom_site_fract_x
_atom_site_fract_y
_atom_site_fract_z
Cl1 Cl -0.02175(9) 0.76906(12) 0.33706(4)
S1 S 0.61009(7) 0.57673(10) 0.36766(3)
S2 S 0.32218(7) 0.57273(10) 0.38137(3)
S3 S 0.64634(7) 0.74126(10) 0.49407(3)
S4 S 0.35783(7) 0.72968(10) 0.50834(3)
S5 S 0.58997(8) 0.41284(13) 0.25021(4)
S6 S 0.27490(8) 0.41386(12) 0.26387(3)
S7 S 0.69007(8) 0.93152(11) 0.60582(3)
S8 S 0.37461(7) 0.91132(11) 0.62290(3)
C1 C 0.4771(3) 0.6190(4) 0.41072(12)
C2 C 0.4924(2) 0.6877(4) 0.46525(12)
C3 C 0.5162(3) 0.4894(4) 0.31176(11)
C4 C 0.3820(3) 0.4880(4) 0.31787(11)
C5 C 0.5845(3) 0.8377(4) 0.55535(11)
C6 C 0.4500(3) 0.8308(4) 0.56181(11)
C7 C 0.7631(3) 0.4249(4) 0.26666(13)
H1 H 0.8128 0.3846 0.2345
H2 H 0.7831 0.3567 0.2998
H3 H 0.7870 0.5401 0.2746
C8 C 0.1231(3) 0.3760(5) 0.30084(13)
H4 H 0.0567 0.3343 0.2742
H5 H 0.0925 0.4794 0.3176
H6 H 0.1384 0.2938 0.3306
C9 C 0.8474(3) 0.9385(4) 0.57050(13)
H7 H 0.9130 0.9890 0.5956
H8 H 0.8388 1.0044 0.5360
H9 H 0.8746 0.8259 0.5610
C10 C 0.2012(3) 0.9018(5) 0.60364(14)
H10 H 0.1493 0.9437 0.6349
H11 H 0.1766 0.7870 0.5956
H12 H 0.1847 0.9697 0.5701
O1 O 0.0184(4) 0.6982(5) 0.47481(18)
O2 O -0.0339(4) 0.4778(6) 0.42835(13)
C11 C -0.0038(4) 0.5488(6) 0.47230(16)
O1B O -0.0184(4) 0.3018(5) 0.52519(18)
O2B O 0.0339(4) 0.5222(6) 0.57165(13)
C11B C 0.0038(4) 0.4512(6) 0.52770(16)
loop_
_geom_bond_atom_site_label_1
_geom_bond_atom_site_label_2
_geom_bond_site_symmetry_1
_geom_bond_site_symmetry_2
S1 C1 1_555 1_555
S2 C1 1_555 1_555
S3 C2 1_555 1_555
S4 C2 1_555 1_555
S5 C3 1_555 1_555
S6 C4 1_555 1_555
S7 C5 1_555 1_555
S8 C6 1_555 1_555
O1 C11 1_555 1_555
O2 C11 1_555 1_555
C1 C2 1_555 1_555
C3 S1 1_555 1_555
C4 S2 1_555 1_555
C5 S3 1_555 1_555
C6 S4 1_555 1_555
C7 S5 1_555 1_555
H1 C7 1_555 1_555
H2 C7 1_555 1_555
H3 C7 1_555 1_555
C8 S6 1_555 1_555
H4 C8 1_555 1_555
H5 C8 1_555 1_555
H6 C8 1_555 1_555
C9 S7 1_555 1_555
H7 C9 1_555 1_555
H8 C9 1_555 1_555
H9 C9 1_555 1_555
C10 S8 1_555 1_555
H10 C10 1_555 1_555
H11 C10 1_555 1_555
H12 C10 1_555 1_555
C11 C11B 1_555 1_555
O1B C11B 1_555 1_555
O2B C11B 1_555 1_555
C3 C4 1_555 1_555
C5 C6 1_555 1_555

#END
