
#######################################################################
#
#                 Cambridge Crystallographic Data Centre
#                                CCDC 
#
#######################################################################
#
# If this CIF has been generated from an entry in the Cambridge 
# Structural Database, then it will include bibliographic, chemical, 
# crystal, experimental, refinement or atomic coordinate data resulting 
# from the CCDC's data processing and validation procedures.
#
#######################################################################

data_FOMVOT
_chemical_formula_moiety         'C19 H17 F3 N2 O4'
_chemical_name_systematic        
'(E,E)-\a-(Methoxyimino)-2-(((1-(3-trifluoromethylphenyl)ethylidene)amino)oxymethyl)benzeneacetic acid'
_chemical_properties_biological  'metabolite of the fungicide trifloxystrobin'
_symmetry_cell_setting           monoclinic
_symmetry_space_group_name_H-M   'P 21/c'
_symmetry_Int_Tables_number      14
_space_group_name_Hall           '-P 2ybc'
loop_
_symmetry_equiv_pos_site_id
_symmetry_equiv_pos_as_xyz
1 x,y,z
2 -x,1/2+y,1/2-z
3 -x,-y,-z
4 x,1/2-y,1/2+z
_cell_length_a                   13.6953(14)
_cell_length_b                   9.0282(15)
_cell_length_c                   16.302(2)
_cell_angle_alpha                90
_cell_angle_beta                 106.983(7)
_cell_angle_gamma                90
_cell_volume                     1927.74
_exptl_crystal_colour            colorless
_exptl_crystal_description       plate
_cell_formula_units_Z            4
loop_
_atom_site_label
_atom_site_type_symbol
_atom_site_fract_x
_atom_site_fract_y
_atom_site_fract_z
C1 C 0.9526(3) 0.5666(6) 0.2122(3)
F1 F 0.9111(7) 0.4445(11) 0.2340(7)
F2 F 0.9547(14) 0.6602(15) 0.2711(9)
F3 F 1.0445(7) 0.529(2) 0.2164(10)
O1 O 0.32229(17) 1.0672(3) 0.22413(12)
O2 O 0.38587(15) 0.9345(3) 0.34255(13)
H1 H 0.401(3) 1.033(4) 0.367(2)
O3 O 0.31048(17) 0.5601(3) 0.21431(12)
O4 O 0.47856(14) 0.7508(2) 0.04261(12)
N1 N 0.33628(17) 0.6911(3) 0.26012(14)
N2 N 0.57742(16) 0.6904(3) 0.06055(13)
C2 C 0.2685(2) 0.8080(3) 0.11721(16)
C3 C 0.31563(19) 0.7461(3) 0.06103(17)
C4 C 0.2680(2) 0.7527(4) -0.02663(18)
H2 H 0.2994 0.7110 -0.0646
C5 C 0.1745(2) 0.8209(4) -0.05745(19)
H3 H 0.1430 0.8253 -0.1163
C6 C 0.1276(2) 0.8822(4) -0.0021(2)
H4 H 0.0643 0.9275 -0.0233
C7 C 0.1742(2) 0.8768(4) 0.08491(19)
H5 H 0.1424 0.9193 0.1223
C8 C 0.3161(2) 0.8058(4) 0.21186(17)
C9 C 0.3413(2) 0.9489(4) 0.25920(19)
C10 C 0.3324(3) 0.4370(4) 0.2734(2)
H6 H 0.3197 0.3457 0.2418
H7 H 0.2894 0.4425 0.3104
H8 H 0.4027 0.4408 0.3072
C11 C 0.7341(2) 0.7043(3) 0.02873(18)
C12 C 0.7927(2) 0.6592(3) 0.10947(17)
H9 H 0.7636 0.6564 0.1544
C13 C 0.8931(2) 0.6186(4) 0.1240(2)
C14 C 0.9378(2) 0.6263(4) 0.0594(3)
H10 H 1.0060 0.6004 0.0696
C15 C 0.8812(3) 0.6729(5) -0.0213(2)
H11 H 0.9113 0.6780 -0.0655
C16 C 0.7806(3) 0.7116(4) -0.0360(2)
H12 H 0.7430 0.7431 -0.0904
C17 C 0.6265(2) 0.7509(3) 0.01302(17)
C18 C 0.5795(2) 0.8618(4) -0.05471(19)
H13 H 0.5148 0.8255 -0.0896
H14 H 0.6238 0.8780 -0.0899
H15 H 0.5696 0.9534 -0.0283
C19 C 0.42022(19) 0.6758(4) 0.09013(16)
H16 H 0.4508 0.6894 0.1513
H17 H 0.4161 0.5706 0.0775
F4? F 0.9391(14) 0.4306(10) 0.2235(8)
F5? F 0.9338(6) 0.6413(10) 0.2748(4)
F6? F 1.0510(5) 0.5860(19) 0.2253(6)
loop_
_geom_bond_atom_site_label_1
_geom_bond_atom_site_label_2
_geom_bond_site_symmetry_1
_geom_bond_site_symmetry_2
C1 F1 1_555 1_555
F2 C1 1_555 1_555
F3 C1 1_555 1_555
O1 C9 1_555 1_555
O2 H1 1_555 1_555
O3 N1 1_555 1_555
O4 N2 1_555 1_555
N1 C8 1_555 1_555
N2 C17 1_555 1_555
C2 C3 1_555 1_555
C3 C4 1_555 1_555
C4 H2 1_555 1_555
C5 C4 1_555 1_555
H3 C5 1_555 1_555
C6 C5 1_555 1_555
H4 C6 1_555 1_555
C7 C2 1_555 1_555
H5 C7 1_555 1_555
C8 C2 1_555 1_555
C9 O2 1_555 1_555
C10 O3 1_555 1_555
H6 C10 1_555 1_555
H7 C10 1_555 1_555
H8 C10 1_555 1_555
C11 C12 1_555 1_555
C12 H9 1_555 1_555
C13 C1 1_555 1_555
C14 C13 1_555 1_555
H10 C14 1_555 1_555
C15 C14 1_555 1_555
H11 C15 1_555 1_555
C16 C11 1_555 1_555
H12 C16 1_555 1_555
C17 C11 1_555 1_555
C18 C17 1_555 1_555
H13 C18 1_555 1_555
H14 C18 1_555 1_555
H15 C18 1_555 1_555
C19 O4 1_555 1_555
H16 C19 1_555 1_555
H17 C19 1_555 1_555
C3 C19 1_555 1_555
C6 C7 1_555 1_555
C8 C9 1_555 1_555
C12 C13 1_555 1_555
C15 C16 1_555 1_555

#END
