
#######################################################################
#
#                 Cambridge Crystallographic Data Centre
#                                CCDC 
#
#######################################################################
#
# If this CIF has been generated from an entry in the Cambridge 
# Structural Database, then it will include bibliographic, chemical, 
# crystal, experimental, refinement or atomic coordinate data resulting 
# from the CCDC's data processing and validation procedures.
#
#######################################################################

data_FOMZUD
_chemical_formula_moiety         'C8 H6 O3'
_chemical_name_systematic        3,4-(Methylenedioxy)benzaldehyde
_symmetry_cell_setting           orthorhombic
_symmetry_space_group_name_H-M   'P n m a'
_symmetry_Int_Tables_number      62
_space_group_name_Hall           '-P 2ac 2n'
loop_
_symmetry_equiv_pos_site_id
_symmetry_equiv_pos_as_xyz
1 x,y,z
2 1/2-x,-y,1/2+z
3 1/2+x,1/2-y,1/2-z
4 -x,1/2+y,-z
5 -x,-y,-z
6 1/2+x,y,1/2-z
7 1/2-x,1/2+y,1/2+z
8 x,1/2-y,z
_cell_length_a                   7.1738(14)
_cell_length_b                   6.3367(13)
_cell_length_c                   14.782(3)
_cell_angle_alpha                90
_cell_angle_beta                 90
_cell_angle_gamma                90
_cell_volume                     671.963
_exptl_crystal_colour            colorless
_exptl_crystal_description       plate
_chemical_melting_point          '310.15 K'
_cell_formula_units_Z            4
_exptl_crystal_recrystallization_method ethanol
loop_
_atom_site_label
_atom_site_type_symbol
_atom_site_fract_x
_atom_site_fract_y
_atom_site_fract_z
O1 O 1.20830(19) 0.7500 -0.15880(10)
O2 O 0.90763(17) 0.7500 0.16705(9)
O3 O 0.58810(18) 0.7500 0.14463(10)
C1 C 1.0387(3) 0.7500 -0.16086(14)
H1 H 0.9820 0.7500 -0.2174
C2 C 0.9165(3) 0.7500 -0.08147(13)
C3 C 0.9929(2) 0.7500 0.00617(12)
H2 H 1.1209 0.7500 0.0159
C4 C 0.8691(3) 0.7500 0.07594(12)
C5 C 0.7315(3) 0.7500 0.21242(13)
H3 H 0.7202 0.6258 0.2504
C6 C 0.6770(3) 0.7500 0.06259(14)
C7 C 0.5995(3) 0.7500 -0.02203(15)
H4 H 0.4712 0.7500 -0.0307
C8 C 0.7244(3) 0.7500 -0.09465(14)
H5 H 0.6777 0.7500 -0.1533
H3G H 0.7202 0.8742 0.2504
loop_
_geom_bond_atom_site_label_1
_geom_bond_atom_site_label_2
_geom_bond_site_symmetry_1
_geom_bond_site_symmetry_2
O1 C1 1_555 1_555
O2 C4 1_555 1_555
O3 C5 1_555 1_555
C1 H1 1_555 1_555
C2 C1 1_555 1_555
C3 C2 1_555 1_555
H2 C3 1_555 1_555
C4 C3 1_555 1_555
C5 O2 1_555 1_555
H3 C5 1_555 1_555
C6 O3 1_555 1_555
C7 C6 1_555 1_555
H4 C7 1_555 1_555
C8 C2 1_555 1_555
H5 C8 1_555 1_555
H3G C5 1_555 1_555
C4 C6 1_555 1_555
C7 C8 1_555 1_555

#END
