
#######################################################################
#
#                 Cambridge Crystallographic Data Centre
#                                CCDC 
#
#######################################################################
#
# If this CIF has been generated from an entry in the Cambridge 
# Structural Database, then it will include bibliographic, chemical, 
# crystal, experimental, refinement or atomic coordinate data resulting 
# from the CCDC's data processing and validation procedures.
#
#######################################################################

data_FOMZOX
_chemical_name_common            Sulfachloropyridazine
_chemical_formula_moiety         'C10 H9 Cl1 N4 O2 S1'
_chemical_name_systematic        
4-Amino-N-(6-chloropyridazin-3-yl)benzenesulfonamide
_chemical_properties_biological  'antibacterial drug'
_symmetry_cell_setting           monoclinic
_symmetry_space_group_name_H-M   'P 21/n'
_symmetry_Int_Tables_number      14
_space_group_name_Hall           '-P 2yn'
loop_
_symmetry_equiv_pos_site_id
_symmetry_equiv_pos_as_xyz
1 x,y,z
2 1/2-x,1/2+y,1/2-z
3 -x,-y,-z
4 1/2+x,1/2-y,1/2+z
_cell_length_a                   5.549(2)
_cell_length_b                   17.097(7)
_cell_length_c                   12.606(5)
_cell_angle_alpha                90
_cell_angle_beta                 92.647(10)
_cell_angle_gamma                90
_cell_volume                     1194.67
_exptl_crystal_colour            orange-yellow
_exptl_crystal_description       block
_cell_formula_units_Z            4
loop_
_atom_site_label
_atom_site_type_symbol
_atom_site_fract_x
_atom_site_fract_y
_atom_site_fract_z
Cl1 Cl 0.92970(12) 0.36074(4) -0.04892(5)
S1 S 0.74003(9) 0.58960(3) 0.39696(4)
O1 O 0.4973(3) 0.56101(9) 0.38760(11)
O2 O 0.8490(3) 0.60453(9) 0.50034(11)
N1 N 0.9188(3) 0.52263(10) 0.34928(14)
N2 N 1.1033(3) 0.45952(12) 0.21781(15)
N3 N 1.1069(3) 0.42074(13) 0.12490(16)
N4 N 0.8543(5) 0.85615(12) 0.11039(19)
C1 C 0.8962(3) 0.48782(11) 0.24929(15)
C2 C 0.9057(4) 0.41215(13) 0.06822(17)
C3 C 0.6829(4) 0.44004(13) 0.09740(17)
H1 H 0.5407 0.4318 0.0540
C4 C 0.6774(3) 0.47963(12) 0.19073(16)
H2 H 0.5315 0.5008 0.2151
C5 C 0.7641(3) 0.67165(11) 0.31731(15)
C6 C 0.5842(4) 0.68930(12) 0.24047(16)
H3 H 0.4422 0.6583 0.2344
C7 C 0.6123(4) 0.75166(12) 0.17335(17)
H4 H 0.4875 0.7642 0.1220
C8 C 0.8222(4) 0.79682(12) 0.17977(17)
C9 C 1.0002(4) 0.77888(13) 0.25887(19)
H5 H 1.1418 0.8101 0.2656
C10 C 0.9726(4) 0.71698(12) 0.32651(17)
H6 H 1.0949 0.7051 0.3793
H7 H 1.052(5) 0.5242(15) 0.373(2)
H8 H 0.991(6) 0.8796(17) 0.117(2)
H9 H 0.738(6) 0.8706(18) 0.070(2)
loop_
_geom_bond_atom_site_label_1
_geom_bond_atom_site_label_2
_geom_bond_site_symmetry_1
_geom_bond_site_symmetry_2
Cl1 C2 1_555 1_555
S1 O1 1_555 1_555
O2 S1 1_555 1_555
N1 S1 1_555 1_555
N2 N3 1_555 1_555
N3 C2 1_555 1_555
N4 C8 1_555 1_555
C1 N1 1_555 1_555
C2 C3 1_555 1_555
C3 H1 1_555 1_555
C4 C1 1_555 1_555
H2 C4 1_555 1_555
C5 S1 1_555 1_555
C6 C5 1_555 1_555
H3 C6 1_555 1_555
C7 C6 1_555 1_555
H4 C7 1_555 1_555
C8 C7 1_555 1_555
C9 C8 1_555 1_555
H5 C9 1_555 1_555
C10 C5 1_555 1_555
H6 C10 1_555 1_555
H7 N1 1_555 1_555
H8 N4 1_555 1_555
H9 N4 1_555 1_555
N2 C1 1_555 1_555
C3 C4 1_555 1_555
C9 C10 1_555 1_555

#END
