
#######################################################################
#
#                 Cambridge Crystallographic Data Centre
#                                CCDC 
#
#######################################################################
#
# If this CIF has been generated from an entry in the Cambridge 
# Structural Database, then it will include bibliographic, chemical, 
# crystal, experimental, refinement or atomic coordinate data resulting 
# from the CCDC's data processing and validation procedures.
#
#######################################################################

data_FONFUL
_chemical_name_common            
13,14-bis(butoxycarbonyl)-8,9,18,19-tetrabutoxy-11,16,21-trithiasumanene
_chemical_formula_moiety         'C42 H54 O8 S3'
_chemical_name_systematic        
"dibutyl 2,3,8,9-tetrabutoxybisthieno[2',3',4':1,10;2'',3'',4'':8,9]phenanthro[4,5-bcd]thiophene-5,6-dicarboxylate"
_symmetry_cell_setting           monoclinic
_symmetry_space_group_name_H-M   'P 21/n'
_symmetry_Int_Tables_number      14
_space_group_name_Hall           '-P 2yn'
loop_
_symmetry_equiv_pos_site_id
_symmetry_equiv_pos_as_xyz
1 x,y,z
2 1/2-x,1/2+y,1/2-z
3 -x,-y,-z
4 1/2+x,1/2-y,1/2+z
_cell_length_a                   17.3083(12)
_cell_length_b                   8.1542(5)
_cell_length_c                   28.4326(18)
_cell_angle_alpha                90
_cell_angle_beta                 90.305(6)
_cell_angle_gamma                90
_cell_volume                     4012.79
_exptl_crystal_colour            orange
_exptl_crystal_description       needle
_chemical_melting_point          '335 K'
_cell_formula_units_Z            4
_chemical_properties_physical    Light-sensitive
_exptl_crystal_recrystallization_method dichloromethane
_exptl_crystal_preparation       Luminescent
loop_
_atom_site_label
_atom_site_type_symbol
_atom_site_fract_x
_atom_site_fract_y
_atom_site_fract_z
S1 S 0.59539(6) 0.80500(12) 0.52381(4)
S2 S 0.32965(6) 0.74956(12) 0.37461(3)
S3 S 0.29096(6) 0.47838(12) 0.59596(3)
O1 O 0.60421(15) 0.9753(3) 0.41069(10)
O2 O 0.48557(15) 0.9394(3) 0.35053(9)
O3 O 0.21495(16) 0.4090(3) 0.43316(10)
O4 O 0.14131(15) 0.4346(3) 0.55820(10)
O5 O 0.43774(17) 0.5192(3) 0.66379(9)
O6 O 0.57167(17) 0.6454(3) 0.63748(10)
O7 O 0.16982(17) 0.5961(4) 0.38169(11)
O8 O 0.14913(15) 0.6154(3) 0.49846(10)
C1 C 0.4605(2) 0.6750(5) 0.52746(13)
C2 C 0.4659(2) 0.7431(4) 0.48259(13)
C3 C 0.4044(2) 0.7296(4) 0.45195(13)
C4 C 0.3322(2) 0.6472(4) 0.46237(13)
C5 C 0.3234(2) 0.5882(4) 0.51145(13)
C6 C 0.3912(2) 0.5994(4) 0.54045(13)
C7 C 0.5355(2) 0.8194(5) 0.47271(14)
C8 C 0.5429(2) 0.8886(4) 0.42689(14)
C9 C 0.4813(2) 0.8711(4) 0.39480(14)
C10 C 0.4125(2) 0.7920(4) 0.40677(13)
C11 C 0.2882(2) 0.6454(5) 0.42165(13)
C12 C 0.2631(2) 0.5288(4) 0.53815(13)
C13 C 0.3842(2) 0.5490(4) 0.58691(13)
C14 C 0.4468(2) 0.5703(4) 0.61790(13)
C15 C 0.5168(2) 0.6411(5) 0.60329(14)
C16 C 0.5240(2) 0.6978(4) 0.55644(14)
C17 C 0.2167(2) 0.5518(5) 0.41031(14)
C18 C 0.1797(2) 0.5316(5) 0.52799(14)
C19 C 0.6755(2) 0.9742(5) 0.43655(16)
H1 H 0.6891 0.8633 0.4457
H2 H 0.6713 1.0410 0.4647
C20 C 0.7359(3) 1.0445(6) 0.4036(2)
H3 H 0.7348 0.9820 0.3746
H4 H 0.7215 1.1564 0.3960
C21 C 0.8150(3) 1.0447(7) 0.4219(2)
H5 H 0.8307 0.9328 0.4284
H6 H 0.8166 1.1054 0.4512
C22 C 0.8716(3) 1.1216(7) 0.3871(3)
H7 H 0.9227 1.1203 0.4004
H8 H 0.8565 1.2328 0.3808
H9 H 0.8711 1.0601 0.3584
C23 C 0.5462(2) 0.8805(5) 0.32005(15)
H10 H 0.5621 0.7717 0.3299
H11 H 0.5906 0.9528 0.3222
C24 C 0.5171(3) 0.8751(6) 0.27033(15)
H12 H 0.5000 0.9839 0.2613
H13 H 0.5595 0.8449 0.2498
C25 C 0.4520(3) 0.7567(6) 0.26308(18)
H14 H 0.4073 0.7947 0.2803
H15 H 0.4668 0.6507 0.2758
C26 C 0.4301(4) 0.7365(8) 0.2110(2)
H16 H 0.3883 0.6595 0.2082
H17 H 0.4739 0.6968 0.1939
H18 H 0.4142 0.8405 0.1984
C27 C 0.4402(7) 0.6417(16) 0.6983(5)
H19 H 0.4679 0.7366 0.6866
H20 H 0.4667 0.6014 0.7261
C28 C 0.3586(5) 0.6886(10) 0.7103(3)
H21 H 0.3596 0.7764 0.7333
H22 H 0.3330 0.7296 0.6822
C29 C 0.3141(10) 0.5503(17) 0.7292(5)
H23 H 0.3205 0.4570 0.7084
H24 H 0.3357 0.5205 0.7595
C30 C 0.2319(6) 0.5808(15) 0.7349(7)
H25 H 0.2075 0.4841 0.7470
H26 H 0.2095 0.6083 0.7050
H27 H 0.2246 0.6700 0.7564
C31 C 0.6384(2) 0.7472(5) 0.63127(15)
H28 H 0.6232 0.8614 0.6287
H29 H 0.6656 0.7164 0.6029
C32 C 0.6897(3) 0.7218(7) 0.67424(17)
H30 H 0.7022 0.6061 0.6764
H31 H 0.7377 0.7805 0.6693
C33 C 0.6579(3) 0.7733(8) 0.71850(18)
H32 H 0.6105 0.7131 0.7241
H33 H 0.6449 0.8888 0.7165
C34 C 0.7132(3) 0.7469(7) 0.76057(17)
H34 H 0.6888 0.7839 0.7889
H35 H 0.7599 0.8079 0.7556
H36 H 0.7253 0.6324 0.7633
C35 C 0.1490(15) 0.293(3) 0.4205(7)
H37 H 0.1441 0.2797 0.3867
H38 H 0.1003 0.3314 0.4332
C36 C 0.1759(7) 0.1297(13) 0.4449(5)
H39 H 0.2207 0.0852 0.4290
H40 H 0.1896 0.1500 0.4775
C37 C 0.1077(6) 0.0081(10) 0.4418(3)
H41 H 0.0876 0.0093 0.4099
H42 H 0.1271 -0.1014 0.4480
C38 C 0.0439(7) 0.0415(13) 0.4741(3)
H43 H 0.0043 -0.0397 0.4699
H44 H 0.0231 0.1483 0.4677
H45 H 0.0627 0.0376 0.5060
C39 C 0.0572(2) 0.4420(6) 0.55473(16)
H46 H 0.0404 0.4088 0.5236
H47 H 0.0395 0.5531 0.5603
C40 C 0.0247(3) 0.3280(6) 0.59111(15)
H48 H -0.0310 0.3229 0.5870
H49 H 0.0450 0.2189 0.5856
C41 C 0.0420(3) 0.3757(7) 0.64071(17)
H50 H 0.0251 0.4876 0.6459
H51 H 0.0973 0.3713 0.6460
C42 C 0.0015(3) 0.2618(7) 0.67584(17)
H52 H 0.0138 0.2956 0.7073
H53 H 0.0187 0.1512 0.6711
H54 H -0.0534 0.2675 0.6710
C43? C 0.4101(13) 0.664(3) 0.6956(9)
H55? H 0.4535 0.7338 0.7040
H56? H 0.3720 0.7300 0.6791
C44? C 0.3745(10) 0.587(2) 0.7401(5)
H57? H 0.4135 0.5179 0.7545
H58? H 0.3641 0.6757 0.7621
C45? C 0.3029(11) 0.489(3) 0.7354(10)
H59? H 0.2774 0.5050 0.7053
H60? H 0.3115 0.3732 0.7410
C46? C 0.266(3) 0.560(5) 0.7699(8)
H61? H 0.2152 0.5151 0.7722
H62? H 0.2630 0.6758 0.7640
H63? H 0.2938 0.5415 0.7988
C47? C 0.1424(18) 0.332(3) 0.4318(7)
H64? H 0.1289 0.3090 0.3993
H65? H 0.1040 0.4073 0.4441
C48? C 0.1388(8) 0.1781(18) 0.4589(5)
H66? H 0.1605 0.1964 0.4900
H67? H 0.0851 0.1465 0.4627
C49? C 0.1806(8) 0.0436(16) 0.4362(6)
H68? H 0.1823 -0.0491 0.4575
H69? H 0.2335 0.0784 0.4308
C50? C 0.1457(8) -0.0130(13) 0.3892(4)
H70? H 0.1761 -0.1012 0.3768
H71? H 0.1454 0.0768 0.3674
H72? H 0.0937 -0.0501 0.3942
loop_
_geom_bond_atom_site_label_1
_geom_bond_atom_site_label_2
_geom_bond_site_symmetry_1
_geom_bond_site_symmetry_2
S1 C7 1_555 1_555
S2 C10 1_555 1_555
S3 C12 1_555 1_555
O1 C8 1_555 1_555
O2 C9 1_555 1_555
O3 C17 1_555 1_555
O4 C18 1_555 1_555
O5 C14 1_555 1_555
O6 C15 1_555 1_555
O7 C17 1_555 1_555
O8 C18 1_555 1_555
C1 C2 1_555 1_555
C2 C3 1_555 1_555
C3 C4 1_555 1_555
C4 C5 1_555 1_555
C5 C6 1_555 1_555
C6 C1 1_555 1_555
C7 C2 1_555 1_555
C8 C7 1_555 1_555
C9 C8 1_555 1_555
C10 C3 1_555 1_555
C11 S2 1_555 1_555
C12 C5 1_555 1_555
C13 S3 1_555 1_555
C14 C13 1_555 1_555
C15 C14 1_555 1_555
C16 S1 1_555 1_555
C17 C11 1_555 1_555
C18 C12 1_555 1_555
C19 O1 1_555 1_555
H1 C19 1_555 1_555
H2 C19 1_555 1_555
C20 C19 1_555 1_555
H3 C20 1_555 1_555
H4 C20 1_555 1_555
C21 C20 1_555 1_555
H5 C21 1_555 1_555
H6 C21 1_555 1_555
C22 C21 1_555 1_555
H7 C22 1_555 1_555
H8 C22 1_555 1_555
H9 C22 1_555 1_555
C23 O2 1_555 1_555
H10 C23 1_555 1_555
H11 C23 1_555 1_555
C24 C23 1_555 1_555
H12 C24 1_555 1_555
H13 C24 1_555 1_555
C25 C24 1_555 1_555
H14 C25 1_555 1_555
H15 C25 1_555 1_555
C26 C25 1_555 1_555
H16 C26 1_555 1_555
H17 C26 1_555 1_555
H18 C26 1_555 1_555
C27 O5 1_555 1_555
H19 C27 1_555 1_555
H20 C27 1_555 1_555
C28 C27 1_555 1_555
H21 C28 1_555 1_555
H22 C28 1_555 1_555
C29 C28 1_555 1_555
H23 C29 1_555 1_555
H24 C29 1_555 1_555
C30 C29 1_555 1_555
H25 C30 1_555 1_555
H26 C30 1_555 1_555
H27 C30 1_555 1_555
C31 O6 1_555 1_555
H28 C31 1_555 1_555
H29 C31 1_555 1_555
C32 C31 1_555 1_555
H30 C32 1_555 1_555
H31 C32 1_555 1_555
C33 C32 1_555 1_555
H32 C33 1_555 1_555
H33 C33 1_555 1_555
C34 C33 1_555 1_555
H34 C34 1_555 1_555
H35 C34 1_555 1_555
H36 C34 1_555 1_555
C35 O3 1_555 1_555
H37 C35 1_555 1_555
H38 C35 1_555 1_555
C36 C35 1_555 1_555
H39 C36 1_555 1_555
H40 C36 1_555 1_555
C37 C36 1_555 1_555
H41 C37 1_555 1_555
H42 C37 1_555 1_555
C38 C37 1_555 1_555
H43 C38 1_555 1_555
H44 C38 1_555 1_555
H45 C38 1_555 1_555
C39 O4 1_555 1_555
H46 C39 1_555 1_555
H47 C39 1_555 1_555
C40 C39 1_555 1_555
H48 C40 1_555 1_555
H49 C40 1_555 1_555
C41 C40 1_555 1_555
H50 C41 1_555 1_555
H51 C41 1_555 1_555
C42 C41 1_555 1_555
H52 C42 1_555 1_555
H53 C42 1_555 1_555
H54 C42 1_555 1_555
C1 C16 1_555 1_555
C4 C11 1_555 1_555
C6 C13 1_555 1_555
C9 C10 1_555 1_555
C15 C16 1_555 1_555

#END
