
#######################################################################
#
#                 Cambridge Crystallographic Data Centre
#                                CCDC 
#
#######################################################################
#
# If this CIF has been generated from an entry in the Cambridge 
# Structural Database, then it will include bibliographic, chemical, 
# crystal, experimental, refinement or atomic coordinate data resulting 
# from the CCDC's data processing and validation procedures.
#
#######################################################################

data_FONGAS
_chemical_formula_moiety         'C39 H40 N2 O6 S3'
_chemical_name_systematic        
2,3,5,6-tetrabutoxy-9-(pyridin-2-yl)-8H-1,4,7-trithia-9-azaazuleno[7,8,1,2-fghi]cyclopenta[mno]acephenanthrylene-8,10(9H)-dione
_symmetry_cell_setting           monoclinic
_symmetry_space_group_name_H-M   'P 21/c'
_symmetry_Int_Tables_number      14
_space_group_name_Hall           '-P 2ybc'
loop_
_symmetry_equiv_pos_site_id
_symmetry_equiv_pos_as_xyz
1 x,y,z
2 -x,1/2+y,1/2-z
3 -x,-y,-z
4 x,1/2-y,1/2+z
_cell_length_a                   16.8459(7)
_cell_length_b                   28.2253(9)
_cell_length_c                   22.1727(10)
_cell_angle_alpha                90
_cell_angle_beta                 97.086(4)
_cell_angle_gamma                90
_cell_volume                     10462.2
_exptl_crystal_colour            red
_exptl_crystal_description       needle
_chemical_melting_point          '418 K'
_cell_formula_units_Z            12
_chemical_properties_physical    Light-sensitive
_exptl_crystal_recrystallization_method dichloromethane
_exptl_crystal_preparation       Luminescent
loop_
_atom_site_label
_atom_site_type_symbol
_atom_site_fract_x
_atom_site_fract_y
_atom_site_fract_z
C1 C 0.2419(4) 0.2886(2) 0.2136(3)
C2 C 0.3155(4) 0.2699(2) 0.2392(3)
C3 C 0.3263(4) 0.2214(2) 0.2438(3)
C4 C 0.2672(4) 0.1888(2) 0.2212(3)
C5 C 0.1897(4) 0.2074(2) 0.1957(3)
C6 C 0.1810(4) 0.2575(2) 0.1917(3)
C7 C 0.3712(4) 0.3027(2) 0.2633(3)
C8 C 0.4449(4) 0.2844(3) 0.2921(3)
C9 C 0.4564(4) 0.2343(2) 0.2967(3)
C10 C 0.3972(4) 0.2026(2) 0.2719(3)
C11 C 0.2345(4) 0.3373(2) 0.2160(3)
C12 C 0.1572(5) 0.3551(2) 0.1939(3)
C13 C 0.0929(4) 0.3230(2) 0.1726(3)
C14 C 0.1047(4) 0.2740(2) 0.1708(3)
C15 C 0.2895(4) 0.1433(2) 0.2330(3)
C16 C 0.1202(4) 0.1849(2) 0.1749(3)
C17 C 0.2448(5) 0.1000(2) 0.2208(3)
C18 C 0.1051(4) 0.1347(3) 0.1704(3)
C19 C 0.1309(5) 0.0520(2) 0.1858(4)
C20 C 0.0941(5) 0.0342(3) 0.2325(4)
H1 H 0.0902 0.0517 0.2676
C21 C 0.0625(5) -0.0116(3) 0.2251(6)
H2 H 0.0352 -0.0251 0.2548
C22 C 0.0726(6) -0.0364(3) 0.1730(6)
H3 H 0.0535 -0.0672 0.1674
C23 C 0.1112(6) -0.0147(3) 0.1296(5)
H4 H 0.1161 -0.0313 0.0940
N1 N 0.1428(5) 0.0298(2) 0.1354(3)
C24 C 0.5134(5) 0.3586(3) 0.2961(3)
H5 H 0.4838 0.3796 0.3198
H6 H 0.4901 0.3606 0.2539
C25 C 0.5987(6) 0.3733(3) 0.3018(5)
H7 H 0.6267 0.3545 0.2746
H8 H 0.6234 0.3676 0.3430
C26 C 0.1953(6) 0.4362(3) 0.1938(4)
H9 H 0.2339 0.4277 0.1667
H10 H 0.2228 0.4389 0.2348
C27 C 0.1547(6) 0.4826(3) 0.1741(4)
H11 H 0.1142 0.4894 0.2004
H12 H 0.1940 0.5078 0.1794
C28 C 0.1160(7) 0.4827(3) 0.1090(4)
H13 H 0.0766 0.4575 0.1035
H14 H 0.1564 0.4764 0.0825
C29 C 0.0749(7) 0.5302(3) 0.0909(5)
H15 H 0.0306 0.5348 0.1135
H16 H 0.0561 0.5299 0.0482
H17 H 0.1126 0.5556 0.0995
C30 C -0.0253(5) 0.3591(4) 0.1988(4)
H18 H -0.0145 0.3928 0.2028
H19 H -0.0067 0.3442 0.2374
C31 C -0.1137(8) 0.3516(4) 0.1846(7)
H20 H -0.1295 0.3537 0.1411
H21 H -0.1425 0.3756 0.2044
C32 C 0.6062(18) 0.4261(8) 0.287(2)
H22 H 0.5880 0.4310 0.2438
H23 H 0.5720 0.4444 0.3099
C33 C 0.6915(15) 0.4434(8) 0.3005(11)
H24 H 0.7042 0.4477 0.3436
H25 H 0.6973 0.4730 0.2802
H26 H 0.7272 0.4204 0.2866
C34 C 0.5783(11) 0.2009(10) 0.2953(8)
H27 H 0.5875 0.2230 0.2634
H28 H 0.5562 0.1721 0.2762
C35 C 0.6553(8) 0.1899(6) 0.3321(8)
H29 H 0.6841 0.1646 0.3146
H30 H 0.6489 0.1822 0.3739
C36 C 0.6947(15) 0.2385(6) 0.3262(8)
H31 H 0.6652 0.2633 0.3441
H32 H 0.7496 0.2385 0.3454
C37 C 0.6905(13) 0.2448(8) 0.2574(9)
H33 H 0.7049 0.2156 0.2393
H34 H 0.7269 0.2693 0.2486
H35 H 0.6371 0.2534 0.2409
C38 C -0.1327(10) 0.3030(5) 0.2072(10)
H36 H -0.1101 0.3004 0.2495
H37 H -0.1066 0.2796 0.1845
C39 C -0.2209(12) 0.2916(8) 0.2022(13)
H38 H -0.2420 0.3023 0.2381
H39 H -0.2283 0.2580 0.1980
H40 H -0.2483 0.3073 0.1673
N2 N 0.1639(4) 0.10019(18) 0.1929(3)
O1 O 0.5079(4) 0.31077(18) 0.3173(2)
O2 O 0.5262(4) 0.2193(2) 0.3282(2)
O3 O 0.1343(4) 0.40152(17) 0.1917(2)
O4 O 0.0178(3) 0.34009(17) 0.1531(2)
O5 O 0.2749(3) 0.06144(16) 0.2345(2)
O6 O 0.0390(3) 0.11998(17) 0.1486(2)
S1 S 0.32581(13) 0.36047(6) 0.25196(8)
S2 S 0.38854(11) 0.14061(6) 0.26983(7)
S3 S 0.04328(11) 0.22533(6) 0.15199(8)
C40 C 0.7096(4) 0.7886(2) 0.6000(3)
C41 C 0.6369(4) 0.7679(2) 0.5731(3)
C42 C 0.6310(4) 0.7198(2) 0.5690(3)
C43 C 0.6931(4) 0.6880(2) 0.5898(3)
C44 C 0.7681(4) 0.7086(2) 0.6175(3)
C45 C 0.7725(4) 0.7586(2) 0.6216(3)
C46 C 0.5778(4) 0.7998(2) 0.5528(3)
C47 C 0.5047(4) 0.7791(2) 0.5251(3)
C48 C 0.4978(4) 0.7286(3) 0.5198(3)
C49 C 0.5615(4) 0.6992(2) 0.5421(3)
C50 C 0.7129(4) 0.8369(2) 0.6040(3)
C51 C 0.7847(4) 0.8566(2) 0.6321(3)
C52 C 0.8492(4) 0.8268(3) 0.6547(3)
C53 C 0.8447(4) 0.7769(2) 0.6498(3)
C54 C 0.6724(4) 0.6418(2) 0.5795(3)
C55 C 0.8385(4) 0.6875(2) 0.6401(3)
C56 C 0.7202(4) 0.5999(2) 0.5908(3)
C57 C 0.8566(4) 0.6372(2) 0.6412(3)
C58 C 0.8408(5) 0.5556(2) 0.6123(3)
C59 C 0.8721(5) 0.5438(3) 0.5606(4)
H41 H 0.8707 0.5645 0.5278
C60 C 0.9067(5) 0.4986(3) 0.5598(4)
H42 H 0.9291 0.4883 0.5259
C61 C 0.9072(6) 0.4698(3) 0.6092(5)
H43 H 0.9303 0.4399 0.6091
C62 C 0.8744(6) 0.4846(3) 0.6580(5)
H44 H 0.8748 0.4643 0.6911
N3 N 0.8408(5) 0.5278(2) 0.6610(3)
C63 C 0.4356(4) 0.8531(3) 0.5140(4)
H45 H 0.4396 0.8583 0.5575
H46 H 0.4790 0.8699 0.4984
C64 C 0.3556(5) 0.8706(3) 0.4832(4)
H47 H 0.3552 0.8708 0.4394
H48 H 0.3128 0.8503 0.4933
C65 C 0.3602(5) 0.7108(4) 0.5206(4)
H49 H 0.3710 0.6963 0.5604
H50 H 0.3440 0.7433 0.5256
C66 C 0.2956(6) 0.6839(4) 0.4819(4)
H51 H 0.2431 0.6912 0.4932
H52 H 0.2960 0.6909 0.4391
C67 C 0.7385(5) 0.9365(2) 0.6165(4)
H53 H 0.7229 0.9300 0.5737
H54 H 0.6914 0.9338 0.6375
C68 C 0.7737(6) 0.9857(3) 0.6248(4)
H55 H 0.7317 1.0092 0.6165
H56 H 0.7980 0.9898 0.6665
C69 C 0.8383(7) 0.9930(4) 0.5806(6)
H57 H 0.8133 0.9893 0.5390
H58 H 0.8790 0.9687 0.5883
C70 C 0.8767(9) 1.0404(4) 0.5877(7)
H59 H 0.9008 1.0444 0.6289
H60 H 0.9171 1.0429 0.5608
H61 H 0.8371 1.0646 0.5778
C71 C 1.0486(5) 0.8699(3) 0.7115(4)
H62 H 1.0329 0.8920 0.7414
H63 H 1.0904 0.8851 0.6922
C72 C 0.3446(17) 0.9209(7) 0.5066(10)
H64 H 0.3095 0.9377 0.4759
H65 H 0.3962 0.9366 0.5100
C73 C 0.312(2) 0.9267(14) 0.5662(13)
H66 H 0.3507 0.9158 0.5986
H67 H 0.3002 0.9595 0.5724
H68 H 0.2637 0.9084 0.5657
C74 C 0.3194(10) 0.6300(5) 0.4967(7)
H69 H 0.3246 0.6255 0.5404
H70 H 0.3713 0.6239 0.4837
C75 C 0.2602(10) 0.5935(6) 0.4670(9)
H71 H 0.2583 0.5955 0.4237
H72 H 0.2770 0.5624 0.4803
H73 H 0.2081 0.5998 0.4784
C76 C 0.9779(8) 0.8634(5) 0.6639(6)
H74 H 0.9917 0.8408 0.6338
H75 H 0.9656 0.8933 0.6434
C77 C 1.0838(10) 0.8288(5) 0.7444(7)
H76 H 1.0413 0.8085 0.7552
H77 H 1.1142 0.8108 0.7177
C78 C 1.1378(11) 0.8417(7) 0.8009(8)
H78 H 1.1060 0.8495 0.8326
H79 H 1.1719 0.8153 0.8135
H80 H 1.1699 0.8685 0.7929
N4 N 0.8033(4) 0.60227(19) 0.6148(2)
O7 O 0.4398(3) 0.80366(19) 0.5010(2)
O8 O 0.4305(3) 0.70893(19) 0.4895(2)
O9 O 0.7991(3) 0.90304(17) 0.6415(2)
O10 O 0.9142(3) 0.8482(2) 0.6868(3)
O11 O 0.6934(3) 0.56083(17) 0.5756(2)
O12 O 0.9242(3) 0.62394(17) 0.6618(2)
S4 S 0.61658(11) 0.85801(6) 0.56878(8)
S5 S 0.57286(11) 0.63730(6) 0.54420(8)
S6 S 0.90950(10) 0.72932(6) 0.66951(7)
C79 C 0.3002(4) 0.2801(2) 0.5709(3)
C80 C 0.2293(4) 0.2581(2) 0.5452(3)
C81 C 0.2258(4) 0.2098(2) 0.5423(3)
C82 C 0.2922(4) 0.1803(2) 0.5629(3)
C83 C 0.3648(4) 0.2027(3) 0.5896(3)
C84 C 0.3651(4) 0.2521(2) 0.5922(3)
C85 C 0.1672(4) 0.2879(2) 0.5271(3)
C86 C 0.0942(4) 0.2653(2) 0.5022(3)
C87 C 0.0914(4) 0.2150(2) 0.4969(3)
C88 C 0.1577(4) 0.1868(2) 0.5176(3)
C89 C 0.2996(4) 0.3287(2) 0.5749(3)
C90 C 0.3706(5) 0.3505(2) 0.6028(3)
C91 C 0.4384(4) 0.3222(3) 0.6243(3)
C92 C 0.4361(4) 0.2726(3) 0.6192(3)
C93 C 0.2735(4) 0.1330(2) 0.5539(3)
C94 C 0.4364(4) 0.1842(3) 0.6140(3)
C95 C 0.3249(4) 0.0924(2) 0.5680(3)
C96 C 0.4587(4) 0.1346(3) 0.6192(3)
C97 C 0.4425(5) 0.0505(3) 0.6113(3)
N5 N 0.4831(4) 0.0338(2) 0.5685(3)
C98 C 0.5198(5) -0.0084(3) 0.5816(4)
H81 H 0.5487 -0.0217 0.5527
C99 C 0.5167(5) -0.0323(3) 0.6342(4)
H82 H 0.5429 -0.0612 0.6409
C100 C 0.4747(5) -0.0135(3) 0.6777(4)
H83 H 0.4719 -0.0292 0.7142
C101 C 0.4362(5) 0.0297(3) 0.6656(3)
H84 H 0.4072 0.0438 0.6938
C102 C 0.0197(5) 0.3375(3) 0.4878(4)
H85 H 0.0567 0.3527 0.4636
H86 H 0.0326 0.3473 0.5298
C103 C -0.0656(5) 0.3506(3) 0.4644(4)
H87 H -0.1010 0.3361 0.4904
H88 H -0.0715 0.3846 0.4673
C104 C -0.0917(5) 0.3357(3) 0.4000(3)
H89 H -0.0855 0.3017 0.3967
H90 H -0.0573 0.3507 0.3736
C105 C -0.1781(5) 0.3491(4) 0.3791(4)
H91 H -0.2127 0.3326 0.4033
H92 H -0.1914 0.3404 0.3371
H93 H -0.1849 0.3826 0.3835
C106 C -0.1007(6) 0.1568(4) 0.4737(5)
H94 H -0.1261 0.1676 0.5081
H95 H -0.1146 0.1236 0.4688
C107 C 0.3244(5) 0.4298(2) 0.5804(3)
H96 H 0.2747 0.4300 0.5983
H97 H 0.3131 0.4202 0.5382
C108 C 0.3623(5) 0.4784(3) 0.5849(4)
H98 H 0.3796 0.4858 0.6272
H99 H 0.3228 0.5019 0.5694
C109 C 0.5506(6) 0.3767(3) 0.6252(4)
H100 H 0.5212 0.3863 0.5868
H101 H 0.6011 0.3630 0.6173
C110 C 0.5655(7) 0.4197(4) 0.6679(4)
H102 H 0.5188 0.4401 0.6649
H103 H 0.5781 0.4095 0.7098
C111 C -0.0155(9) 0.1562(6) 0.4964(6)
H104 H -0.0081 0.1592 0.5403
H105 H 0.0084 0.1267 0.4855
C112 C 0.4335(9) 0.4811(5) 0.5491(8)
H106 H 0.4713 0.4562 0.5625
H107 H 0.4156 0.4762 0.5063
C113 C 0.4746(12) 0.5290(6) 0.5578(10)
H108 H 0.4389 0.5534 0.5409
H109 H 0.5219 0.5291 0.5376
H110 H 0.4892 0.5348 0.6004
C114 C 0.6365(10) 0.4453(6) 0.6461(8)
H111 H 0.6821 0.4243 0.6468
H112 H 0.6227 0.4572 0.6050
C115 C 0.6546(12) 0.4858(7) 0.6905(11)
H113 H 0.6087 0.5061 0.6891
H114 H 0.6993 0.5036 0.6796
H115 H 0.6673 0.4733 0.7308
N6 N 0.4044(4) 0.0969(2) 0.5980(3)
O13 O 0.0247(3) 0.28704(17) 0.4828(2)
O14 O 0.0214(3) 0.19544(17) 0.4693(2)
O15 O 0.3804(3) 0.39768(18) 0.6129(2)
O16 O 0.5048(3) 0.34260(19) 0.6552(2)
O17 O 0.3015(3) 0.05263(18) 0.5545(2)
O18 O 0.5257(3) 0.12320(19) 0.6431(2)
S7 S 0.20100(12) 0.34776(6) 0.54289(8)
S8 S 0.17491(11) 0.12532(6) 0.51980(8)
S9 S 0.50451(11) 0.22795(7) 0.64071(8)
C116 C -0.1468(15) 0.1798(12) 0.4213(10)
H116 H -0.1806 0.1549 0.4021
H117 H -0.1077 0.1864 0.3937
C117 C -0.200(3) 0.2230(12) 0.417(2)
H118 H -0.2473 0.2169 0.3902
H119 H -0.1715 0.2493 0.4027
H120 H -0.2136 0.2303 0.4571
C118? C 0.6131(18) 0.4208(9) 0.272(2)
H121? H 0.5808 0.4214 0.2328
H122? H 0.5928 0.4454 0.2966
C119? C 0.6977(15) 0.4344(9) 0.2624(13)
H123? H 0.7329 0.4295 0.2993
H124? H 0.6990 0.4672 0.2509
H125? H 0.7149 0.4152 0.2307
C120? C 0.5665(15) 0.1822(8) 0.3138(13)
H126? H 0.5545 0.1848 0.2700
H127? H 0.5295 0.1582 0.3245
C121? C 0.6377(16) 0.1521(11) 0.3154(14)
H128? H 0.6183 0.1211 0.3256
H129? H 0.6711 0.1626 0.3517
C122? C 0.697(2) 0.1410(14) 0.2725(15)
H130? H 0.7378 0.1652 0.2742
H131? H 0.6705 0.1387 0.2311
C123? C 0.732(2) 0.0939(11) 0.294(2)
C124? C -0.1810(17) 0.3540(17) 0.2185(16)
H132? H -0.1767 0.3813 0.2453
H133? H -0.1843 0.3256 0.2427
C125? C -0.252(2) 0.3583(15) 0.1722(15)
H134? H -0.2505 0.3880 0.1513
H135? H -0.3000 0.3569 0.1918
H136? H -0.2525 0.3328 0.1436
C126? C 0.331(2) 0.9221(7) 0.4875(19)
H137? H 0.2825 0.9287 0.4605
H138? H 0.3732 0.9431 0.4773
C127? C 0.318(2) 0.9278(13) 0.5530(19)
H139? H 0.3686 0.9305 0.5778
H140? H 0.2869 0.9558 0.5574
H141? H 0.2897 0.9006 0.5655
C128? C 0.2701(12) 0.7245(8) 0.4321(9)
H142? H 0.3141 0.7299 0.4086
H143? H 0.2606 0.7538 0.4531
C129? C 0.1957(12) 0.7122(11) 0.3891(9)
H144? H 0.1490 0.7219 0.4066
H145? H 0.1973 0.7283 0.3511
H146? H 0.1938 0.6786 0.3823
C130? C 0.9902(8) 0.8297(5) 0.6888(8)
H147? H 0.9968 0.8029 0.7163
H148? H 1.0001 0.8193 0.6487
C131? C 0.3137(13) 0.5184(5) 0.5469(10)
H149? H 0.2988 0.5066 0.5060
H150? H 0.2646 0.5239 0.5646
C132? C 0.3552(16) 0.5655(6) 0.5426(10)
H151? H 0.3742 0.5767 0.5827
H152? H 0.3182 0.5881 0.5226
H153? H 0.3996 0.5618 0.5197
C133? C 0.5975(14) 0.4658(6) 0.6412(9)
H154? H 0.6496 0.4590 0.6289
H155? H 0.5621 0.4740 0.6048
C134? C 0.6058(16) 0.5090(7) 0.6824(11)
H156? H 0.6342 0.5004 0.7210
H157? H 0.5536 0.5205 0.6880
H158? H 0.6347 0.5333 0.6641
C135? C -0.0323(11) 0.1883(8) 0.5142(7)
H159? H -0.0535 0.2180 0.5274
H160? H -0.0071 0.1709 0.5492
C136? C 1.1968(13) 0.8781(9) 0.7517(13)
C137? C 1.1313(9) 0.8446(6) 0.7256(8)
H161? H 1.1267 0.8191 0.7542
H162? H 1.1459 0.8308 0.6884
C138? C -0.1513(10) 0.2024(6) 0.4728(9)
H163? H -0.1288 0.2270 0.4495
H164? H -0.2058 0.1964 0.4550
C139? C -0.1489(12) 0.2173(8) 0.5394(10)
H165? H -0.1658 0.1913 0.5627
H166? H -0.1840 0.2438 0.5423
H167? H -0.0953 0.2262 0.5552
loop_
_geom_bond_atom_site_label_1
_geom_bond_atom_site_label_2
_geom_bond_site_symmetry_1
_geom_bond_site_symmetry_2
C1 C2 1_555 1_555
C2 C3 1_555 1_555
C3 C4 1_555 1_555
C4 C5 1_555 1_555
C5 C6 1_555 1_555
C6 C1 1_555 1_555
C7 C2 1_555 1_555
C8 C7 1_555 1_555
C9 C8 1_555 1_555
C10 C3 1_555 1_555
C11 C1 1_555 1_555
C12 C11 1_555 1_555
C13 C12 1_555 1_555
C14 C6 1_555 1_555
C15 C4 1_555 1_555
C16 C5 1_555 1_555
C17 C15 1_555 1_555
C18 C16 1_555 1_555
C19 C20 1_555 1_555
C20 H1 1_555 1_555
C21 C20 1_555 1_555
H2 C21 1_555 1_555
C22 C21 1_555 1_555
H3 C22 1_555 1_555
C23 C22 1_555 1_555
H4 C23 1_555 1_555
N1 C19 1_555 1_555
C24 H5 1_555 1_555
H6 C24 1_555 1_555
C25 C24 1_555 1_555
H7 C25 1_555 1_555
H8 C25 1_555 1_555
C26 H9 1_555 1_555
H10 C26 1_555 1_555
C27 C26 1_555 1_555
H11 C27 1_555 1_555
H12 C27 1_555 1_555
C28 C27 1_555 1_555
H13 C28 1_555 1_555
H14 C28 1_555 1_555
C29 C28 1_555 1_555
H15 C29 1_555 1_555
H16 C29 1_555 1_555
H17 C29 1_555 1_555
C30 H18 1_555 1_555
H19 C30 1_555 1_555
C31 C30 1_555 1_555
H20 C31 1_555 1_555
H21 C31 1_555 1_555
C32 C25 1_555 1_555
H22 C32 1_555 1_555
H23 C32 1_555 1_555
C33 C32 1_555 1_555
H24 C33 1_555 1_555
H25 C33 1_555 1_555
H26 C33 1_555 1_555
C34 H27 1_555 1_555
H28 C34 1_555 1_555
C35 C34 1_555 1_555
H29 C35 1_555 1_555
H30 C35 1_555 1_555
C36 C35 1_555 1_555
H31 C36 1_555 1_555
H32 C36 1_555 1_555
C37 C36 1_555 1_555
H33 C37 1_555 1_555
H34 C37 1_555 1_555
H35 C37 1_555 1_555
C38 C31 1_555 1_555
H36 C38 1_555 1_555
H37 C38 1_555 1_555
C39 C38 1_555 1_555
H38 C39 1_555 1_555
H39 C39 1_555 1_555
H40 C39 1_555 1_555
N2 C17 1_555 1_555
O1 C8 1_555 1_555
O2 C9 1_555 1_555
O3 C12 1_555 1_555
O4 C13 1_555 1_555
O5 C17 1_555 1_555
O6 C18 1_555 1_555
S1 C7 1_555 1_555
S2 C10 1_555 1_555
S3 C14 1_555 1_555
C40 C41 1_555 1_555
C41 C42 1_555 1_555
C42 C43 1_555 1_555
C43 C44 1_555 1_555
C44 C45 1_555 1_555
C45 C40 1_555 1_555
C46 C41 1_555 1_555
C47 C46 1_555 1_555
C48 C47 1_555 1_555
C49 C42 1_555 1_555
C50 C40 1_555 1_555
C51 C50 1_555 1_555
C52 C51 1_555 1_555
C53 C45 1_555 1_555
C54 C43 1_555 1_555
C55 C44 1_555 1_555
C56 C54 1_555 1_555
C57 C55 1_555 1_555
C58 C59 1_555 1_555
C59 H41 1_555 1_555
C60 C59 1_555 1_555
H42 C60 1_555 1_555
C61 C60 1_555 1_555
H43 C61 1_555 1_555
C62 C61 1_555 1_555
H44 C62 1_555 1_555
N3 C58 1_555 1_555
C63 H45 1_555 1_555
H46 C63 1_555 1_555
C64 C63 1_555 1_555
H47 C64 1_555 1_555
H48 C64 1_555 1_555
C65 H49 1_555 1_555
H50 C65 1_555 1_555
C66 C65 1_555 1_555
H51 C66 1_555 1_555
H52 C66 1_555 1_555
C67 H53 1_555 1_555
H54 C67 1_555 1_555
C68 C67 1_555 1_555
H55 C68 1_555 1_555
H56 C68 1_555 1_555
C69 C68 1_555 1_555
H57 C69 1_555 1_555
H58 C69 1_555 1_555
C70 C69 1_555 1_555
H59 C70 1_555 1_555
H60 C70 1_555 1_555
H61 C70 1_555 1_555
C71 H62 1_555 1_555
H63 C71 1_555 1_555
C72 C64 1_555 1_555
H64 C72 1_555 1_555
H65 C72 1_555 1_555
C73 C72 1_555 1_555
H66 C73 1_555 1_555
H67 C73 1_555 1_555
H68 C73 1_555 1_555
C74 C66 1_555 1_555
H69 C74 1_555 1_555
H70 C74 1_555 1_555
C75 C74 1_555 1_555
H71 C75 1_555 1_555
H72 C75 1_555 1_555
H73 C75 1_555 1_555
C76 C71 1_555 1_555
H74 C76 1_555 1_555
H75 C76 1_555 1_555
C77 C71 1_555 1_555
H76 C77 1_555 1_555
H77 C77 1_555 1_555
C78 C77 1_555 1_555
H78 C78 1_555 1_555
H79 C78 1_555 1_555
H80 C78 1_555 1_555
N4 C56 1_555 1_555
O7 C47 1_555 1_555
O8 C48 1_555 1_555
O9 C51 1_555 1_555
O10 C52 1_555 1_555
O11 C56 1_555 1_555
O12 C57 1_555 1_555
S4 C46 1_555 1_555
S5 C49 1_555 1_555
S6 C53 1_555 1_555
C79 C80 1_555 1_555
C80 C81 1_555 1_555
C81 C82 1_555 1_555
C82 C83 1_555 1_555
C83 C84 1_555 1_555
C84 C79 1_555 1_555
C85 C80 1_555 1_555
C86 C85 1_555 1_555
C87 C86 1_555 1_555
C88 C81 1_555 1_555
C89 C79 1_555 1_555
C90 C89 1_555 1_555
C91 C90 1_555 1_555
C92 C84 1_555 1_555
C93 C82 1_555 1_555
C94 C83 1_555 1_555
C95 C93 1_555 1_555
C96 C94 1_555 1_555
C97 N5 1_555 1_555
N5 C98 1_555 1_555
C98 H81 1_555 1_555
C99 C98 1_555 1_555
H82 C99 1_555 1_555
C100 C99 1_555 1_555
H83 C100 1_555 1_555
C101 C97 1_555 1_555
H84 C101 1_555 1_555
C102 H85 1_555 1_555
H86 C102 1_555 1_555
C103 C102 1_555 1_555
H87 C103 1_555 1_555
H88 C103 1_555 1_555
C104 C103 1_555 1_555
H89 C104 1_555 1_555
H90 C104 1_555 1_555
C105 C104 1_555 1_555
H91 C105 1_555 1_555
H92 C105 1_555 1_555
H93 C105 1_555 1_555
C106 H94 1_555 1_555
H95 C106 1_555 1_555
C107 H96 1_555 1_555
H97 C107 1_555 1_555
C108 C107 1_555 1_555
H98 C108 1_555 1_555
H99 C108 1_555 1_555
C109 H100 1_555 1_555
H101 C109 1_555 1_555
C110 C109 1_555 1_555
H102 C110 1_555 1_555
H103 C110 1_555 1_555
C111 C106 1_555 1_555
H104 C111 1_555 1_555
H105 C111 1_555 1_555
C112 C108 1_555 1_555
H106 C112 1_555 1_555
H107 C112 1_555 1_555
C113 C112 1_555 1_555
H108 C113 1_555 1_555
H109 C113 1_555 1_555
H110 C113 1_555 1_555
C114 C110 1_555 1_555
H111 C114 1_555 1_555
H112 C114 1_555 1_555
C115 C114 1_555 1_555
H113 C115 1_555 1_555
H114 C115 1_555 1_555
H115 C115 1_555 1_555
N6 C95 1_555 1_555
O13 C86 1_555 1_555
O14 C87 1_555 1_555
O15 C90 1_555 1_555
O16 C91 1_555 1_555
O17 C95 1_555 1_555
O18 C96 1_555 1_555
S7 C85 1_555 1_555
S8 C88 1_555 1_555
S9 C92 1_555 1_555
C116 C106 1_555 1_555
H116 C116 1_555 1_555
H117 C116 1_555 1_555
C117 C116 1_555 1_555
H118 C117 1_555 1_555
H119 C117 1_555 1_555
H120 C117 1_555 1_555
C9 C10 1_555 1_555
C11 S1 1_555 1_555
C13 C14 1_555 1_555
C15 S2 1_555 1_555
C16 S3 1_555 1_555
C18 N2 1_555 1_555
C19 N2 1_555 1_555
C23 N1 1_555 1_555
C24 O1 1_555 1_555
C26 O3 1_555 1_555
C30 O4 1_555 1_555
C34 O2 1_555 1_555
C48 C49 1_555 1_555
C50 S4 1_555 1_555
C52 C53 1_555 1_555
C54 S5 1_555 1_555
C55 S6 1_555 1_555
C57 N4 1_555 1_555
C58 N4 1_555 1_555
C62 N3 1_555 1_555
C63 O7 1_555 1_555
C65 O8 1_555 1_555
C67 O9 1_555 1_555
C76 O10 1_555 1_555
C87 C88 1_555 1_555
C89 S7 1_555 1_555
C91 C92 1_555 1_555
C93 S8 1_555 1_555
C94 S9 1_555 1_555
C96 N6 1_555 1_555
C97 N6 1_555 1_555
C100 C101 1_555 1_555
C102 O13 1_555 1_555
C107 O15 1_555 1_555
C109 O16 1_555 1_555
C111 O14 1_555 1_555

#END
