
#######################################################################
#
#                 Cambridge Crystallographic Data Centre
#                                CCDC 
#
#######################################################################
#
# If this CIF has been generated from an entry in the Cambridge 
# Structural Database, then it will include bibliographic, chemical, 
# crystal, experimental, refinement or atomic coordinate data resulting 
# from the CCDC's data processing and validation procedures.
#
#######################################################################

data_FONLEA
_chemical_name_common            3-Acetyl-7-methoxycoumarin
_chemical_formula_moiety         'C12 H10 O4'
_chemical_name_systematic        3-Acetyl-7-methoxy-2H-1-benzopyran-2-one
_chemical_properties_biological  'anticancer agent'
_symmetry_cell_setting           triclinic
_symmetry_space_group_name_H-M   'P -1'
_symmetry_Int_Tables_number      2
_space_group_name_Hall           '-P 1'
loop_
_symmetry_equiv_pos_site_id
_symmetry_equiv_pos_as_xyz
1 x,y,z
2 -x,-y,-z
_cell_length_a                   7.1501(6)
_cell_length_b                   8.0640(8)
_cell_length_c                   9.6850(10)
_cell_angle_alpha                80.247(13)
_cell_angle_beta                 69.517(10)
_cell_angle_gamma                72.896(11)
_cell_volume                     498.6
_exptl_crystal_colour            'light yellow'
_exptl_crystal_description       block
_chemical_melting_point          '437 K'
_cell_formula_units_Z            2
_exptl_crystal_recrystallization_method ethanol/dmf
loop_
_atom_site_label
_atom_site_type_symbol
_atom_site_fract_x
_atom_site_fract_y
_atom_site_fract_z
O1 O 0.68875(15) 1.14036(12) 0.39689(10)
O2 O 0.9504(2) 0.53708(14) 0.31940(13)
O3 O 0.55725(17) 1.35242(13) 0.86015(11)
O4 O 0.74037(16) 1.05792(13) 0.17913(11)
C1 C 0.7576(2) 1.01039(18) 0.29960(15)
C2 C 0.8383(2) 0.83400(17) 0.35612(16)
C3 C 0.8433(2) 0.80464(17) 0.49713(15)
H1 H 0.8966 0.6893 0.5325
C4 C 0.7716(2) 0.94054(17) 0.59379(15)
C5 C 0.7725(2) 0.91761(18) 0.74105(15)
H2 H 0.8245 0.8047 0.7814
C6 C 0.6992(2) 1.05602(18) 0.82680(15)
H3 H 0.6992 1.0386 0.9263
C7 C 0.6240(2) 1.22394(18) 0.76750(16)
C8 C 0.6217(2) 1.25148(17) 0.62232(15)
H4 H 0.5712 1.3647 0.5816
C9 C 0.6952(2) 1.10880(18) 0.53918(14)
C10 C 0.9169(2) 0.68439(18) 0.26165(16)
C11 C 0.9557(3) 0.7126(2) 0.09863(17)
H5 H 1.0363 0.6035 0.0525
H6 H 1.0326 0.8018 0.0577
H7 H 0.8236 0.7510 0.0787
C12 C 0.4877(3) 1.52735(19) 0.80305(18)
H8 H 0.5990 1.5576 0.7178
H9 H 0.4486 1.6074 0.8800
H10 H 0.3679 1.5366 0.7724
loop_
_geom_bond_atom_site_label_1
_geom_bond_atom_site_label_2
_geom_bond_site_symmetry_1
_geom_bond_site_symmetry_2
O1 C1 1_555 1_555
O2 C10 1_555 1_555
O3 C7 1_555 1_555
O4 C1 1_555 1_555
C1 C2 1_555 1_555
C2 C3 1_555 1_555
C3 H1 1_555 1_555
C4 C3 1_555 1_555
C5 C4 1_555 1_555
H2 C5 1_555 1_555
C6 C5 1_555 1_555
H3 C6 1_555 1_555
C7 C6 1_555 1_555
C8 C7 1_555 1_555
H4 C8 1_555 1_555
C9 O1 1_555 1_555
C10 C2 1_555 1_555
C11 C10 1_555 1_555
H5 C11 1_555 1_555
H6 C11 1_555 1_555
H7 C11 1_555 1_555
C12 O3 1_555 1_555
H8 C12 1_555 1_555
H9 C12 1_555 1_555
H10 C12 1_555 1_555
C4 C9 1_555 1_555
C8 C9 1_555 1_555

#END
