
#######################################################################
#
#                 Cambridge Crystallographic Data Centre
#                                CCDC 
#
#######################################################################
#
# If this CIF has been generated from an entry in the Cambridge 
# Structural Database, then it will include bibliographic, chemical, 
# crystal, experimental, refinement or atomic coordinate data resulting 
# from the CCDC's data processing and validation procedures.
#
#######################################################################

data_FONYEN
_chemical_name_common            
"[2]-(bis(5-(phenylureidomethylene)-m-phenylene)-32-crown-10)-(N,N'-dimethyl-4,4'-bipyridinium)-pseudorotaxane bis(trifluoroacetate) sesquihydrate"
_chemical_formula_moiety         
'C44 H56 N4 O12,C12 H14 N2 2+,2(C2 F3 O2 1-),1.5(H2 O1)'
_chemical_name_systematic        
"[2]-(1,1'-(2,5,8,11,14,20,23,26,29,32-decaoxatricyclo[31.3.1.1^15,19^]octatriaconta-1(37),15(38),16,18,33,35-hexaene-17,35-diylbis(methylene))bis(3-phenylurea))-(1,1'-dimethyl-4,4'-bipyridinium)-pseudorotaxane bis(trifluoroacetate) sesquihydrate"
_symmetry_cell_setting           monoclinic
_symmetry_space_group_name_H-M   'C 2/c'
_symmetry_Int_Tables_number      15
_space_group_name_Hall           '-C 2yn'
loop_
_symmetry_equiv_pos_site_id
_symmetry_equiv_pos_as_xyz
1 x,y,z
2 1/2+x,1/2+y,z
3 -x,y,1/2-z
4 1/2-x,1/2+y,1/2-z
5 -x,-y,-z
6 1/2-x,1/2-y,-z
7 x,-y,1/2+z
8 1/2+x,1/2-y,1/2+z
_cell_length_a                   29.399(6)
_cell_length_b                   11.476(2)
_cell_length_c                   20.644(4)
_cell_angle_alpha                90
_cell_angle_beta                 109.29(3)
_cell_angle_gamma                90
_cell_volume                     6573.91
_exptl_crystal_colour            yellow
_exptl_crystal_description       prism
_cell_formula_units_Z            4
_exptl_crystal_recrystallization_method 'isopropyl ether/acetonitrile'
loop_
_atom_site_label
_atom_site_type_symbol
_atom_site_fract_x
_atom_site_fract_y
_atom_site_fract_z
C1 C 0.1200(2) 0.6096(5) 0.0852(3)
C2 C 0.1318(3) 0.7172(6) 0.0724(4)
C3 C 0.0994(3) 0.7926(7) 0.0303(5)
H1 H 0.1093 0.8671 0.0232
C4 C 0.0535(3) 0.7572(9) -0.0018(5)
H2 H 0.0318 0.8087 -0.0310
C5 C 0.0410(3) 0.6525(10) 0.0098(5)
H3 H 0.0095 0.6277 -0.0124
C6 C 0.0721(3) 0.5795(7) 0.0533(4)
H4 H 0.0615 0.5068 0.0622
C7 C 0.1909(2) 0.5487(5) 0.1828(3)
C8 C 0.2482(2) 0.4611(6) 0.2817(3)
H5 H 0.2674 0.5303 0.2830
H6 H 0.2697 0.3921 0.2871
C15 C 0.23083(18) 0.4624(4) 0.3425(3)
C16 C 0.2614(2) 0.4323(4) 0.4057(3)
H14 H 0.2928 0.4098 0.4105
C17 C 0.2462(2) 0.4351(5) 0.4633(3)
C18 C 0.2009(2) 0.4707(5) 0.4567(3)
H15 H 0.1902 0.4721 0.4944
C19 C 0.1704(2) 0.5042(5) 0.3925(4)
C20 C 0.1858(2) 0.4977(5) 0.3361(3)
H16 H 0.1642 0.5173 0.2933
C21 C 0.4258(6) 0.4085(10) 0.6672(7)
H17 H 0.4285 0.4251 0.7145
H18 H 0.4548 0.3648 0.6738
C22 C 0.1051(4) 0.5503(13) 0.4282(7)
H19 H 0.1250 0.6023 0.4631
H20 H 0.1069 0.4841 0.4560
C23 C 0.0587(5) 0.6231(16) 0.4066(9)
H21 H 0.0422 0.5800 0.3651
H22 H 0.0368 0.6077 0.4296
C24 C 0.0224(3) 0.8228(17) 0.3702(6)
H23 H 0.0158 0.8405 0.4121
H24 H -0.0076 0.7778 0.3365
C25 C 0.0349(6) 0.9247(10) 0.3406(7)
H25 H 0.0341 0.9011 0.2952
H26 H 0.0074 0.9731 0.3318
C28 C 0.2700(3) 0.3995(6) 0.5841(3)
H27 H 0.2647 0.4785 0.5966
H28 H 0.2407 0.3535 0.5793
C29 C 0.3091(4) 0.3481(9) 0.6382(4)
H29 H 0.3008 0.3393 0.6796
H30 H 0.3158 0.2714 0.6229
C30 C 0.3835(8) 0.392(2) 0.6318(16)
H31 H 0.3856 0.3240 0.6609
H32 H 0.3815 0.3142 0.5997
N2 N 0.15216(19) 0.5274(4) 0.1254(3)
N3 N 0.21163(18) 0.4536(4) 0.2155(2)
H33 H 0.2029 0.3866 0.1969
O1 O 0.28071(16) 0.3992(4) 0.5222(2)
O2 O 0.3506(3) 0.4191(7) 0.6512(3)
O5 O 0.12554(18) 0.5483(5) 0.3813(3)
O6 O 0.0620(3) 0.7321(10) 0.3846(6)
O7 O 0.4345(3) 0.5146(13) 0.6449(6)
O8 O 0.20435(15) 0.6498(4) 0.20023(19)
H34 H 0.1452 0.4524 0.1275
H35 H 0.1565 0.7479 0.0995
C1E C 0.3800(2) 0.8904(5) 0.9148(3)
C2E C 0.3682(3) 0.7828(6) 0.9276(4)
C3E C 0.4006(3) 0.7074(7) 0.9697(5)
H1E H 0.3907 0.6329 0.9768
C4E C 0.4465(3) 0.7428(9) 1.0018(5)
H2E H 0.4682 0.6913 1.0310
C5E C 0.4590(3) 0.8475(10) 0.9902(5)
H3E H 0.4905 0.8723 1.0124
C6E C 0.4279(3) 0.9205(7) 0.9467(4)
H4E H 0.4385 0.9932 0.9378
C7E C 0.3091(2) 0.9513(5) 0.8172(3)
C8E C 0.2518(2) 1.0389(6) 0.7183(3)
H5E H 0.2326 0.9697 0.7170
H6E H 0.2303 1.1079 0.7129
C15E C 0.26917(18) 1.0376(4) 0.6575(3)
C16E C 0.2386(2) 1.0677(4) 0.5943(3)
H14E H 0.2072 1.0902 0.5895
C17E C 0.2538(2) 1.0649(5) 0.5367(3)
C18E C 0.2991(2) 1.0293(5) 0.5433(3)
H15E H 0.3098 1.0279 0.5056
C19E C 0.3296(2) 0.9958(5) 0.6075(4)
C20E C 0.3142(2) 1.0023(5) 0.6639(3)
H16E H 0.3358 0.9827 0.7067
C21E C 0.0742(6) 1.0915(10) 0.3328(7)
H17E H 0.0715 1.0749 0.2855
H18E H 0.0452 1.1352 0.3262
C22E C 0.3949(4) 0.9497(13) 0.5718(7)
H19E H 0.3750 0.8977 0.5369
H20E H 0.3931 1.0159 0.5440
C23E C 0.4413(5) 0.8769(16) 0.5934(9)
H21E H 0.4578 0.9200 0.6349
H22E H 0.4632 0.8923 0.5704
C24E C 0.4776(3) 0.6772(17) 0.6298(6)
H23E H 0.4842 0.6595 0.5879
H24E H 0.5076 0.7222 0.6635
C25E C 0.4651(6) 0.5753(10) 0.6594(7)
H25E H 0.4659 0.5989 0.7048
H26E H 0.4926 0.5269 0.6682
C28E C 0.2300(3) 1.1005(6) 0.4159(3)
H27E H 0.2353 1.0215 0.4034
H28E H 0.2593 1.1465 0.4207
C29E C 0.1909(4) 1.1519(9) 0.3618(4)
H29E H 0.1992 1.1607 0.3204
H30E H 0.1842 1.2286 0.3771
C30E C 0.1165(8) 1.108(2) 0.3682(16)
H31E H 0.1144 1.1760 0.3391
H32E H 0.1185 1.1858 0.4003
N2E N 0.34784(19) 0.9726(4) 0.8746(3)
N3E N 0.28837(18) 1.0464(4) 0.7845(2)
H33E H 0.2971 1.1134 0.8031
O1E O 0.21929(16) 1.1008(4) 0.4778(2)
O2E O 0.1494(3) 1.0809(7) 0.3488(3)
O5E O 0.37446(18) 0.9517(5) 0.6187(3)
O6E O 0.4380(3) 0.7679(10) 0.6154(6)
O7E O 0.0655(3) 0.9854(13) 0.3551(6)
O8E O 0.29565(15) 0.8502(4) 0.79977(19)
H34E H 0.3548 1.0476 0.8725
H35E H 0.3435 0.7521 0.9005
C9 C 0.1398(3) 0.8232(7) 0.2654(4)
H7 H 0.1169 0.8818 0.2668
H8 H 0.1228 0.7556 0.2457
H9 H 0.1576 0.8526 0.2359
N1 N 0.1724(2) 0.8036(4) 0.3348(3)
C10 C 0.2164(2) 0.7667(5) 0.3435(3)
H10 H 0.2265 0.7550 0.3058
C11 C 0.2479(2) 0.7470(4) 0.4081(3)
H11 H 0.2790 0.7206 0.4142
C12 C 0.2340(2) 0.7635(5) 0.4644(3)
C13 C 0.1875(3) 0.8035(8) 0.4533(4)
H12 H 0.1764 0.8163 0.4900
C14 C 0.1581(3) 0.8217(8) 0.3864(4)
H13 H 0.1274 0.8517 0.3793
C9E C 0.3602(3) 0.6768(7) 0.7346(4)
H7E H 0.3831 0.6182 0.7332
H8E H 0.3772 0.7444 0.7543
H9E H 0.3424 0.6474 0.7641
N1E N 0.3276(2) 0.6964(4) 0.6652(3)
C10E C 0.2836(2) 0.7333(5) 0.6565(3)
H10E H 0.2735 0.7450 0.6942
C11E C 0.2521(2) 0.7530(4) 0.5919(3)
H11E H 0.2210 0.7794 0.5858
C12E C 0.2660(2) 0.7365(5) 0.5356(3)
C13E C 0.3125(3) 0.6965(8) 0.5467(4)
H12E H 0.3236 0.6837 0.5100
C14E C 0.3419(3) 0.6783(8) 0.6136(4)
H13E H 0.3726 0.6483 0.6207
C26 C 0.3684(3) 0.7205(7) 0.3734(4)
C27 C 0.3940(3) 0.6115(7) 0.3910(5)
F1 F 0.3822(15) 0.539(3) 0.3447(13)
F2 F 0.4389(4) 0.6119(15) 0.4195(15)
F3 F 0.3754(7) 0.5682(16) 0.4439(12)
O3 O 0.3843(5) 0.7976(7) 0.4069(6)
O4 O 0.3318(3) 0.7275(6) 0.3295(4)
O9 O 0.0417(9) 0.400(3) 0.2110(9)
F4? F 0.4160(16) 0.5907(13) 0.4524(9)
F5? F 0.4312(10) 0.618(3) 0.3650(19)
F6? F 0.3706(6) 0.5254(10) 0.3634(10)
loop_
_geom_bond_atom_site_label_1
_geom_bond_atom_site_label_2
_geom_bond_site_symmetry_1
_geom_bond_site_symmetry_2
C1 C2 1_555 1_555
C2 C3 1_555 1_555
C3 H1 1_555 1_555
C4 C3 1_555 1_555
H2 C4 1_555 1_555
C5 C4 1_555 1_555
H3 C5 1_555 1_555
C6 C1 1_555 1_555
H4 C6 1_555 1_555
C7 N2 1_555 1_555
C8 H5 1_555 1_555
H6 C8 1_555 1_555
C9 H7 1_555 1_555
H8 C9 1_555 1_555
H9 C9 1_555 1_555
N1 C9 1_555 1_555
C10 N1 1_555 1_555
H10 C10 1_555 1_555
C11 C10 1_555 1_555
H11 C11 1_555 1_555
C12 C11 1_555 1_555
C13 C12 1_555 1_555
H12 C13 1_555 1_555
C14 N1 1_555 1_555
H13 C14 1_555 1_555
C15 C8 1_555 1_555
C16 C15 1_555 1_555
H14 C16 1_555 1_555
C17 C16 1_555 1_555
C18 C17 1_555 1_555
H15 C18 1_555 1_555
C19 C18 1_555 1_555
C20 C15 1_555 1_555
H16 C20 1_555 1_555
C21 H17 1_555 1_555
H18 C21 1_555 1_555
C22 H19 1_555 1_555
H20 C22 1_555 1_555
C23 C22 1_555 1_555
H21 C23 1_555 1_555
H22 C23 1_555 1_555
C24 H23 1_555 1_555
H24 C24 1_555 1_555
C25 C24 1_555 1_555
H25 C25 1_555 1_555
H26 C25 1_555 1_555
C26 C27 1_555 1_555
C27 F1 1_555 1_555
C28 H27 1_555 1_555
H28 C28 1_555 1_555
C29 C28 1_555 1_555
H29 C29 1_555 1_555
H30 C29 1_555 1_555
C30 C21 1_555 1_555
H31 C30 1_555 1_555
H32 C30 1_555 1_555
F2 C27 1_555 1_555
F3 C27 1_555 1_555
N2 C1 1_555 1_555
N3 C7 1_555 1_555
H33 N3 1_555 1_555
O1 C17 1_555 1_555
O2 C29 1_555 1_555
O3 C26 1_555 1_555
O4 C26 1_555 1_555
O5 C19 1_555 1_555
O6 C23 1_555 1_555
O7 C21 1_555 1_555
O8 C7 1_555 1_555
H34 N2 1_555 1_555
H35 C2 1_555 1_555
C1E C2E 1_555 1_555
C2E C3E 1_555 1_555
C3E H1E 1_555 1_555
C4E C3E 1_555 1_555
H2E C4E 1_555 1_555
C5E C4E 1_555 1_555
H3E C5E 1_555 1_555
C6E C1E 1_555 1_555
H4E C6E 1_555 1_555
C7E N2E 1_555 1_555
C8E H5E 1_555 1_555
H6E C8E 1_555 1_555
C9E H7E 1_555 1_555
H8E C9E 1_555 1_555
H9E C9E 1_555 1_555
N1E C9E 1_555 1_555
C10E N1E 1_555 1_555
H10E C10E 1_555 1_555
C11E C10E 1_555 1_555
H11E C11E 1_555 1_555
C12E C12 1_555 1_555
C13E C12E 1_555 1_555
H12E C13E 1_555 1_555
C14E N1E 1_555 1_555
H13E C14E 1_555 1_555
C15E C8E 1_555 1_555
C16E C15E 1_555 1_555
H14E C16E 1_555 1_555
C17E C16E 1_555 1_555
C18E C17E 1_555 1_555
H15E C18E 1_555 1_555
C19E C18E 1_555 1_555
C20E C15E 1_555 1_555
H16E C20E 1_555 1_555
C21E H17E 1_555 1_555
H18E C21E 1_555 1_555
C22E H19E 1_555 1_555
H20E C22E 1_555 1_555
C23E C22E 1_555 1_555
H21E C23E 1_555 1_555
H22E C23E 1_555 1_555
C24E H23E 1_555 1_555
H24E C24E 1_555 1_555
C25E O7 1_555 1_555
H25E C25E 1_555 1_555
H26E C25E 1_555 1_555
C28E H27E 1_555 1_555
H28E C28E 1_555 1_555
C29E C28E 1_555 1_555
H29E C29E 1_555 1_555
H30E C29E 1_555 1_555
C30E C21E 1_555 1_555
H31E C30E 1_555 1_555
H32E C30E 1_555 1_555
N2E C1E 1_555 1_555
N3E C7E 1_555 1_555
H33E N3E 1_555 1_555
O1E C17E 1_555 1_555
O2E C29E 1_555 1_555
O5E C19E 1_555 1_555
O6E C23E 1_555 1_555
O7E C25 1_555 1_555
O8E C7E 1_555 1_555
H34E N2E 1_555 1_555
H35E C2E 1_555 1_555
C5 C6 1_555 1_555
C8 N3 1_555 1_555
C13 C14 1_555 1_555
C19 C20 1_555 1_555
C22 O5 1_555 1_555
C24 O6 1_555 1_555
C28 O1 1_555 1_555
C30 O2 1_555 1_555
C5E C6E 1_555 1_555
C8E N3E 1_555 1_555
C11E C12E 1_555 1_555
C13E C14E 1_555 1_555
C19E C20E 1_555 1_555
C21E O7E 1_555 1_555
C22E O5E 1_555 1_555
C24E C25E 1_555 1_555
C24E O6E 1_555 1_555
C28E O1E 1_555 1_555
C30E O2E 1_555 1_555

#END
