
#######################################################################
#
#                 Cambridge Crystallographic Data Centre
#                                CCDC 
#
#######################################################################
#
# If this CIF has been generated from an entry in the Cambridge 
# Structural Database, then it will include bibliographic, chemical, 
# crystal, experimental, refinement or atomic coordinate data resulting 
# from the CCDC's data processing and validation procedures.
#
#######################################################################

data_FONYAJ
_chemical_name_common            
"[2]-(bis(5-(phenylureidomethylene)-m-phenylene)-32-crown-10)-(N,N'-dimethyl-4,4'-bipyridinium)-pseudorotaxane dichloride trihydrate"
_chemical_formula_moiety         
'C44 H56 N4 O12,C12 H14 N2 2+,2(Cl1 1-),3(H2 O1)'
_chemical_name_systematic        
"[2]-(1,1'-(2,5,8,11,14,20,23,26,29,32-decaoxatricyclo[31.3.1.1^15,19^]octatriaconta-1(37),15(38),16,18,33,35-hexaene-17,35-diylbis(methylene))bis(3-phenylurea))-(1,1'-dimethyl-4,4'-bipyridinium)-pseudorotaxane dichloride trihydrate"
_symmetry_cell_setting           monoclinic
_symmetry_space_group_name_H-M   'C c'
_symmetry_Int_Tables_number      9
_space_group_name_Hall           'C -2yc'
loop_
_symmetry_equiv_pos_site_id
_symmetry_equiv_pos_as_xyz
1 x,y,z
2 x,-y,1/2+z
3 1/2+x,1/2+y,z
4 1/2+x,1/2-y,1/2+z
_cell_length_a                   11.1724(8)
_cell_length_b                   21.4002(15)
_cell_length_c                   24.7859(17)
_cell_angle_alpha                90
_cell_angle_beta                 96.294(2)
_cell_angle_gamma                90
_cell_volume                     5890.38
_exptl_crystal_colour            yellow
_exptl_crystal_description       prismatic
_cell_formula_units_Z            4
_exptl_crystal_recrystallization_method 'isopropyl ether/acetonitrile/methanol'
loop_
_atom_site_label
_atom_site_type_symbol
_atom_site_fract_x
_atom_site_fract_y
_atom_site_fract_z
Cl1 Cl 0.0731(5) 0.9790(2) 0.8843(3)
Cl2 Cl 0.4132(3) 1.13218(11) 0.04628(10)
N1 N 0.5112(6) 1.0321(3) -0.0514(3)
H1 H 0.4628 1.0535 -0.0340
N2 N 0.6603(7) 1.0889(3) -0.0063(3)
H2 H 0.6025 1.1074 0.0074
N3 N 1.2527(7) 1.0221(3) 0.1314(3)
N4 N 1.4567(6) 1.0357(3) 0.1498(3)
O1 O 0.4956(5) 0.8293(2) 0.06386(19)
O2 O 0.5214(4) 0.7934(2) 0.16981(19)
O3 O 0.6594(5) 0.7014(2) 0.23823(19)
O4 O 0.9039(5) 0.6844(2) 0.2297(2)
O5 O 1.0637(4) 0.7837(2) 0.19869(19)
O6 O 1.1523(5) 0.8137(2) 0.0171(2)
O7 O 1.1278(4) 0.7683(3) -0.08981(19)
O8 O 0.9791(5) 0.6852(2) -0.16130(19)
O9 O 0.7348(6) 0.6822(3) -0.1503(3)
O10 O 0.5709(5) 0.7660(2) -0.1128(2)
O11 O 0.7016(5) 1.0192(2) -0.0724(2)
O12 O 1.3462(6) 0.9882(3) 0.2103(2)
C1 C 0.5331(6) 0.7987(3) -0.0222(3)
H3 H 0.5445 0.7586 -0.0082
C2 C 0.5431(6) 0.8105(4) -0.0756(3)
C3 C 0.5229(6) 0.8696(4) -0.0970(3)
H4 H 0.5279 0.8768 -0.1336
C4 C 0.4958(7) 0.9171(4) -0.0641(3)
C5 C 0.4909(6) 0.9050(3) -0.0086(3)
H5 H 0.4769 0.9373 0.0150
C6 C 0.5064(6) 0.8466(3) 0.0101(3)
C7 C 0.4649(9) 0.9821(4) -0.0877(4)
H6 H 0.4982 0.9864 -0.1220
H7 H 0.3781 0.9861 -0.0947
C8 C 0.4833(6) 0.8756(3) 0.1056(3)
H8 H 0.4248 0.9071 0.0925
H9 H 0.5599 0.8960 0.1161
C9 C 0.4422(6) 0.8417(4) 0.1529(3)
H10 H 0.4372 0.8707 0.1826
H11 H 0.3625 0.8246 0.1427
C10 C 0.4757(7) 0.7524(4) 0.2085(3)
H12 H 0.4817 0.7729 0.2436
H13 H 0.3912 0.7441 0.1974
C11 C 0.5395(8) 0.6946(4) 0.2136(3)
H14 H 0.4969 0.6659 0.2351
H15 H 0.5409 0.6763 0.1778
C12 C 0.7166(8) 0.6434(4) 0.2463(4)
H16 H 0.7130 0.6210 0.2121
H17 H 0.6761 0.6186 0.2715
C13 C 0.8427(9) 0.6536(4) 0.2681(3)
H18 H 0.8460 0.6785 0.3009
H19 H 0.8811 0.6137 0.2772
C14 C 1.0340(8) 0.6876(3) 0.2418(3)
H20 H 1.0675 0.6460 0.2475
H21 H 1.0555 0.7121 0.2744
C15 C 1.0803(7) 0.7174(3) 0.1946(3)
H22 H 1.1651 0.7078 0.1943
H23 H 1.0371 0.7018 0.1612
C16 C 1.0948(6) 0.8205(3) 0.1575(3)
C17 C 1.1040(6) 0.8850(3) 0.1685(3)
H24 H 1.0925 0.9002 0.2028
C18 C 1.1303(6) 0.9260(3) 0.1278(3)
C19 C 1.1436(6) 0.9052(4) 0.0762(3)
H25 H 1.1577 0.9332 0.0489
C20 C 1.1352(6) 0.8394(4) 0.0655(3)
C21 C 1.1106(6) 0.7972(3) 0.1066(3)
H26 H 1.1051 0.7545 0.0996
C22 C 1.1359(7) 0.9949(3) 0.1382(3)
H27 H 1.0747 1.0154 0.1136
H28 H 1.1175 1.0027 0.1749
C23 C 1.1668(7) 0.8524(4) -0.0273(3)
H29 H 1.2238 0.8855 -0.0165
H30 H 1.0904 0.8713 -0.0408
C24 C 1.2117(8) 0.8136(4) -0.0700(3)
H31 H 1.2300 0.8403 -0.0996
H32 H 1.2857 0.7931 -0.0553
C25 C 1.1710(7) 0.7271(5) -0.1291(4)
H33 H 1.2534 0.7151 -0.1172
H34 H 1.1701 0.7485 -0.1636
C26 C 1.0941(9) 0.6704(4) -0.1359(3)
H35 H 1.1316 0.6398 -0.1575
H36 H 1.0868 0.6520 -0.1006
C27 C 0.9082(9) 0.6322(4) -0.1731(4)
H37 H 0.9111 0.6062 -0.1409
H38 H 0.9411 0.6083 -0.2012
C28 C 0.7856(9) 0.6478(6) -0.1907(4)
H39 H 0.7818 0.6722 -0.2238
H40 H 0.7396 0.6098 -0.1985
C29 C 0.6204(9) 0.6648(4) -0.1419(4)
H41 H 0.6187 0.6206 -0.1332
H42 H 0.5658 0.6720 -0.1745
C30 C 0.5813(8) 0.7025(4) -0.0957(3)
H43 H 0.5045 0.6874 -0.0862
H44 H 0.6402 0.6988 -0.0641
C31 C 0.6284(8) 1.0447(3) -0.0453(3)
C32 C 0.7826(10) 1.1077(3) 0.0141(3)
C33 C 0.7914(13) 1.1638(4) 0.0424(4)
H45 H 0.7222 1.1867 0.0465
C34 C 0.8955(19) 1.1844(6) 0.0631(5)
H46 H 0.8988 1.2208 0.0838
C35 C 0.9950(19) 1.1562(8) 0.0561(5)
H47 H 1.0690 1.1728 0.0698
C36 C 0.9880(11) 1.0991(5) 0.0269(4)
H48 H 1.0581 1.0772 0.0225
C37 C 0.8808(9) 1.0764(4) 0.0055(4)
H49 H 0.8760 1.0398 -0.0148
C38 C 1.3517(8) 1.0130(3) 0.1670(3)
C39 C 1.5729(9) 1.0365(3) 0.1786(3)
C40 C 1.6648(10) 1.0624(4) 0.1516(4)
H50 H 1.6462 1.0776 0.1165
C41 C 1.7803(11) 1.0659(4) 0.1751(5)
H51 H 1.8389 1.0850 0.1569
C42 C 1.8098(10) 1.0412(4) 0.2254(5)
H52 H 1.8892 1.0411 0.2413
C43 C 1.7214(11) 1.0171(4) 0.2517(4)
H53 H 1.7426 1.0028 0.2868
C44 C 1.6019(9) 1.0116(4) 0.2311(4)
H54 H 1.5448 0.9928 0.2504
H69 H 1.458(6) 1.064(2) 0.128(2)
H70 H 1.260(4) 1.038(2) 0.1013(12)
N5 N 0.8539(5) 0.8352(3) -0.1010(2)
N6 N 0.7964(5) 0.8433(3) 0.1765(2)
C45 C 0.8721(6) 0.7842(3) -0.0721(3)
H55 H 0.8918 0.7474 -0.0890
C46 C 0.8627(5) 0.7841(3) -0.0170(3)
H56 H 0.8790 0.7480 0.0034
C47 C 0.8283(5) 0.8393(3) 0.0077(3)
C48 C 0.8082(6) 0.8913(3) -0.0249(3)
H57 H 0.7841 0.9285 -0.0099
C49 C 0.8231(6) 0.8891(3) -0.0780(3)
H58 H 0.8121 0.9251 -0.0990
C50 C 0.8157(5) 0.8404(3) 0.0669(3)
C51 C 0.7946(5) 0.7857(3) 0.0952(2)
H59 H 0.7853 0.7477 0.0770
C52 C 0.7880(6) 0.7887(3) 0.1494(3)
H60 H 0.7774 0.7521 0.1685
C53 C 0.8143(6) 0.8951(3) 0.1502(3)
H61 H 0.8219 0.9323 0.1697
C54 C 0.8223(6) 0.8971(3) 0.0958(3)
H62 H 0.8318 0.9349 0.0783
C55 C 0.8693(8) 0.8340(4) -0.1589(3)
H63 H 0.7951 0.8217 -0.1793
H64 H 0.9314 0.8048 -0.1651
H65 H 0.8916 0.8749 -0.1702
C56 C 0.7900(8) 0.8445(4) 0.2365(3)
H66 H 0.7118 0.8307 0.2441
H67 H 0.8036 0.8864 0.2497
H68 H 0.8504 0.8173 0.2541
O13 O 0.1319(15) 1.0046(8) 0.7763(7)
H72 H 0.089(7) 1.033(3) 0.763(4)
O14 O 0.2443(17) 0.0179(9) 0.9903(8)
H71 H 0.192(7) 0.027(4) 0.964(3)
H73 H 0.280(3) 0.0276(17) 1.0178(12)
O15 O 0.8615(7) 0.0803(3) 0.8585(3)
H74 H 0.909(7) 0.055(3) 0.877(3)
H75 H 0.828(7) 0.058(3) 0.834(3)
loop_
_geom_bond_atom_site_label_1
_geom_bond_atom_site_label_2
_geom_bond_site_symmetry_1
_geom_bond_site_symmetry_2
N1 H1 1_555 1_555
N2 H2 1_555 1_555
N3 C22 1_555 1_555
N4 C38 1_555 1_555
N5 C45 1_555 1_555
N6 C52 1_555 1_555
O1 C6 1_555 1_555
O2 C9 1_555 1_555
O3 C11 1_555 1_555
O4 C13 1_555 1_555
O5 C15 1_555 1_555
O6 C20 1_555 1_555
O7 C24 1_555 1_555
O8 C26 1_555 1_555
O9 C28 1_555 1_555
O10 C2 1_555 1_555
O11 C31 1_555 1_555
O12 C38 1_555 1_555
O13 H72 1_555 1_555
O14 H71 1_555 1_555
O15 H74 1_555 1_555
C1 H3 1_555 1_555
C2 C1 1_555 1_555
C3 C2 1_555 1_555
H4 C3 1_555 1_555
C4 C3 1_555 1_555
C5 C4 1_555 1_555
H5 C5 1_555 1_555
C6 C1 1_555 1_555
C7 N1 1_555 1_555
H6 C7 1_555 1_555
H7 C7 1_555 1_555
C8 O1 1_555 1_555
H8 C8 1_555 1_555
H9 C8 1_555 1_555
C9 C8 1_555 1_555
H10 C9 1_555 1_555
H11 C9 1_555 1_555
C10 O2 1_555 1_555
H12 C10 1_555 1_555
H13 C10 1_555 1_555
C11 C10 1_555 1_555
H14 C11 1_555 1_555
H15 C11 1_555 1_555
C12 O3 1_555 1_555
H16 C12 1_555 1_555
H17 C12 1_555 1_555
C13 C12 1_555 1_555
H18 C13 1_555 1_555
H19 C13 1_555 1_555
C14 O4 1_555 1_555
H20 C14 1_555 1_555
H21 C14 1_555 1_555
C15 C14 1_555 1_555
H22 C15 1_555 1_555
H23 C15 1_555 1_555
C16 O5 1_555 1_555
C17 C16 1_555 1_555
H24 C17 1_555 1_555
C18 C17 1_555 1_555
C19 C18 1_555 1_555
H25 C19 1_555 1_555
C20 C19 1_555 1_555
C21 C16 1_555 1_555
H26 C21 1_555 1_555
C22 C18 1_555 1_555
H27 C22 1_555 1_555
H28 C22 1_555 1_555
C23 O6 1_555 1_555
H29 C23 1_555 1_555
H30 C23 1_555 1_555
C24 C23 1_555 1_555
H31 C24 1_555 1_555
H32 C24 1_555 1_555
C25 O7 1_555 1_555
H33 C25 1_555 1_555
H34 C25 1_555 1_555
C26 C25 1_555 1_555
H35 C26 1_555 1_555
H36 C26 1_555 1_555
C27 O8 1_555 1_555
H37 C27 1_555 1_555
H38 C27 1_555 1_555
C28 C27 1_555 1_555
H39 C28 1_555 1_555
H40 C28 1_555 1_555
C29 O9 1_555 1_555
H41 C29 1_555 1_555
H42 C29 1_555 1_555
C30 O10 1_555 1_555
H43 C30 1_555 1_555
H44 C30 1_555 1_555
C31 N1 1_555 1_555
C32 N2 1_555 1_555
C33 C32 1_555 1_555
H45 C33 1_555 1_555
C34 C33 1_555 1_555
H46 C34 1_555 1_555
C35 C34 1_555 1_555
H47 C35 1_555 1_555
C36 C35 1_555 1_555
H48 C36 1_555 1_555
C37 C32 1_555 1_555
H49 C37 1_555 1_555
C38 N3 1_555 1_555
C39 N4 1_555 1_555
C40 C39 1_555 1_555
H50 C40 1_555 1_555
C41 C40 1_555 1_555
H51 C41 1_555 1_555
C42 C41 1_555 1_555
H52 C42 1_555 1_555
C43 C42 1_555 1_555
H53 C43 1_555 1_555
C44 C39 1_555 1_555
H54 C44 1_555 1_555
C45 H55 1_555 1_555
C46 C45 1_555 1_555
H56 C46 1_555 1_555
C47 C46 1_555 1_555
C48 C47 1_555 1_555
H57 C48 1_555 1_555
C49 N5 1_555 1_555
H58 C49 1_555 1_555
C50 C47 1_555 1_555
C51 C50 1_555 1_555
H59 C51 1_555 1_555
C52 C51 1_555 1_555
H60 C52 1_555 1_555
C53 N6 1_555 1_555
H61 C53 1_555 1_555
C54 C50 1_555 1_555
H62 C54 1_555 1_555
C55 N5 1_555 1_555
H63 C55 1_555 1_555
H64 C55 1_555 1_555
H65 C55 1_555 1_555
C56 N6 1_555 1_555
H66 C56 1_555 1_555
H67 C56 1_555 1_555
H68 C56 1_555 1_555
H69 N4 1_555 1_555
H70 N3 1_555 1_555
H73 O14 1_555 1_555
H75 O15 1_555 1_555
N2 C31 1_555 1_555
C4 C7 1_555 1_555
C5 C6 1_555 1_555
C20 C21 1_555 1_555
C29 C30 1_555 1_555
C36 C37 1_555 1_555
C43 C44 1_555 1_555
C48 C49 1_555 1_555
C53 C54 1_555 1_555

#END
