
#######################################################################
#
#                 Cambridge Crystallographic Data Centre
#                                CCDC 
#
#######################################################################
#
# If this CIF has been generated from an entry in the Cambridge 
# Structural Database, then it will include bibliographic, chemical, 
# crystal, experimental, refinement or atomic coordinate data resulting 
# from the CCDC's data processing and validation procedures.
#
#######################################################################

data_FONZAL
_chemical_formula_moiety         'C15 H11 Cl2 N5'
_chemical_name_systematic        
1-(2-Chlorophenyl)-4-((2-chlorophenyl)carbonohydrazonoyl)-1H-1,2,3-triazole
_symmetry_cell_setting           orthorhombic
_symmetry_space_group_name_H-M   'P 21 21 21'
_symmetry_Int_Tables_number      19
_space_group_name_Hall           'P 2ac 2ab'
loop_
_symmetry_equiv_pos_site_id
_symmetry_equiv_pos_as_xyz
1 x,y,z
2 1/2-x,-y,1/2+z
3 -x,1/2+y,1/2-z
4 1/2+x,1/2-y,-z
_cell_length_a                   6.5036(6)
_cell_length_b                   12.9729(11)
_cell_length_c                   17.9702(16)
_cell_angle_alpha                90
_cell_angle_beta                 90
_cell_angle_gamma                90
_cell_volume                     1516.16
_exptl_crystal_colour            'light yellow'
_cell_formula_units_Z            4
_chemical_properties_physical    Heat-sensitive
loop_
_atom_site_label
_atom_site_type_symbol
_atom_site_fract_x
_atom_site_fract_y
_atom_site_fract_z
C1 C 0.0264(4) 0.9136(2) 0.69299(12)
C2 C -0.1358(5) 0.8713(2) 0.73345(14)
H1 H -0.1324 0.8020 0.7468
C3 C -0.3001(4) 0.9311(3) 0.75358(14)
H2 H -0.4074 0.9025 0.7808
C4 C -0.3068(4) 1.0327(3) 0.73372(15)
H3 H -0.4181 1.0733 0.7478
C5 C -0.1489(4) 1.0749(2) 0.69298(14)
H4 H -0.1555 1.1438 0.6789
C6 C 0.0198(3) 1.01613(19) 0.67271(12)
C7 C 0.3226(3) 1.03324(17) 0.58396(11)
H5 H 0.3389 0.9664 0.5662
C8 C 0.4352(3) 1.11749(17) 0.56521(12)
C9 C 0.6117(4) 1.12957(19) 0.51699(13)
H6 H 0.6474 1.1947 0.4996
C10 C 1.0134(4) 0.98935(19) 0.43708(13)
C11 C 0.9676(5) 0.8887(2) 0.45662(17)
H7 H 0.8440 0.8739 0.4803
C12 C 1.1037(6) 0.8105(2) 0.4412(2)
H8 H 1.0711 0.7432 0.4545
C13 C 1.2878(6) 0.8307(3) 0.4063(2)
H9 H 1.3797 0.7774 0.3968
C14 C 1.3355(5) 0.9298(3) 0.38560(16)
H10 H 1.4585 0.9438 0.3612
C15 C 1.1998(4) 1.0083(2) 0.40122(12)
Cl1 Cl 1.26532(10) 1.13340(6) 0.37772(3)
Cl2 Cl 0.23107(11) 0.83331(5) 0.67249(4)
N1 N 0.1828(3) 1.06654(14) 0.63353(9)
N2 N 0.2054(3) 1.16902(15) 0.64456(12)
N3 N 0.3576(3) 1.19952(15) 0.60276(12)
N4 N 0.7178(3) 1.05203(14) 0.49841(10)
N5 N 0.8831(3) 1.07006(16) 0.45387(12)
H11 H 0.9060 1.1307 0.4365
loop_
_geom_bond_atom_site_label_1
_geom_bond_atom_site_label_2
_geom_bond_site_symmetry_1
_geom_bond_site_symmetry_2
C1 C2 1_555 1_555
C2 H1 1_555 1_555
C3 C2 1_555 1_555
H2 C3 1_555 1_555
C4 C3 1_555 1_555
H3 C4 1_555 1_555
C5 C4 1_555 1_555
H4 C5 1_555 1_555
C6 C1 1_555 1_555
C7 H5 1_555 1_555
C8 C7 1_555 1_555
C9 C8 1_555 1_555
H6 C9 1_555 1_555
C10 C11 1_555 1_555
C11 H7 1_555 1_555
C12 C11 1_555 1_555
H8 C12 1_555 1_555
C13 C12 1_555 1_555
H9 C13 1_555 1_555
C14 C13 1_555 1_555
H10 C14 1_555 1_555
C15 C10 1_555 1_555
Cl1 C15 1_555 1_555
Cl2 C1 1_555 1_555
N1 C6 1_555 1_555
N2 N1 1_555 1_555
N3 C8 1_555 1_555
N4 C9 1_555 1_555
N5 C10 1_555 1_555
H11 N5 1_555 1_555
C5 C6 1_555 1_555
C7 N1 1_555 1_555
C14 C15 1_555 1_555
N2 N3 1_555 1_555
N4 N5 1_555 1_555

#END
