
#######################################################################
#
#                 Cambridge Crystallographic Data Centre
#                                CCDC 
#
#######################################################################
#
# If this CIF has been generated from an entry in the Cambridge 
# Structural Database, then it will include bibliographic, chemical, 
# crystal, experimental, refinement or atomic coordinate data resulting 
# from the CCDC's data processing and validation procedures.
#
#######################################################################

data_FOPHUO
_chemical_name_common            
2,14-dimethyl-1,5,17(2,4)-tripyridina-13(4,2)-pyridina-2,3,7,11,14,15,19,23-octaaza-tetracosaphane-3,6,11,15,18,23-hexaene
_chemical_formula_moiety         'C34 H36 N12,1.5(C2 H3 N1)'
_chemical_name_systematic        
'2,22-dimethyl-2,3,6,11,15,20,22,23,26,31,35,40-dodecaazapentacyclo[35.3.1.1^5,9^.1^17,21^.1^25,29^]tetratetraconta-1(41),3,5(44),6,8,10,15,17(43),18,20,23,25(42),26,28,30,35,37,39-octadecaene acetonitrile solvate'
_symmetry_cell_setting           monoclinic
_symmetry_space_group_name_H-M   'C 2'
_symmetry_Int_Tables_number      5
_space_group_name_Hall           'C 2y'
loop_
_symmetry_equiv_pos_site_id
_symmetry_equiv_pos_as_xyz
1 x,y,z
2 -x,y,-z
3 1/2+x,1/2+y,z
4 1/2-x,1/2+y,-z
_cell_length_a                   26.46(2)
_cell_length_b                   4.493(4)
_cell_length_c                   17.260(13)
_cell_angle_alpha                90
_cell_angle_beta                 111.24(4)
_cell_angle_gamma                90
_cell_volume                     1912.56
_exptl_crystal_colour            yellow
_exptl_crystal_description       prism
_cell_formula_units_Z            2
loop_
_atom_site_label
_atom_site_type_symbol
_atom_site_fract_x
_atom_site_fract_y
_atom_site_fract_z
C1 C 0.2710(3) -0.226(3) 0.0946(8)
H1 H 0.2383 -0.3256 0.0694
C2 C 0.2728(5) -0.038(2) 0.1467(10)
H2 H 0.2415 0.0253 0.1544
C3 C 0.3271(4) 0.086(2) 0.1975(6)
C4 C 0.3701(3) -0.0032(19) 0.1793(5)
H3 H 0.4045 0.0650 0.2114
C5 C 0.3641(4) -0.189(3) 0.1159(7)
N1 N 0.4081(3) -0.3075(15) 0.0908(6)
C6 C 0.64645(15) -0.134(3) 0.1896(3)
H4 H 0.6736 -0.1599 0.1680
C7 C 0.6583(4) 0.012(2) 0.2561(6)
H5 H 0.6942 0.0477 0.2894
C8 C 0.6167(3) 0.1188(17) 0.2785(5)
C9 C 0.5631(4) 0.022(2) 0.2349(5)
H6 H 0.5355 0.0593 0.2550
C10 C 0.3059(4) 0.5639(15) 0.3653(5)
H7 H 0.2769 0.7088 0.3542
H8 H 0.3395 0.6704 0.3747
C11 C 0.3240(4) 0.582(2) 0.5240(7)
H9 H 0.3581 0.6858 0.5352
H10 H 0.2955 0.7283 0.5159
C12 C 0.31071(15) 0.3773(15) 0.4451(2)
H11 H 0.2769 0.2732 0.4356
H12 H 0.3391 0.2295 0.4551
C13 C 0.4002(4) -0.568(6) 0.0178(5)
H13 H 0.4346 -0.6070 0.0127
H14 H 0.3750 -0.4976 -0.0345
H15 H 0.3866 -0.7471 0.0332
N2 N 0.3148(4) -0.3041(17) 0.0696(5)
C14 C 0.4995(4) -0.2824(19) 0.1192(6)
H16 H 0.4969 -0.4285 0.0797
N3 N 0.4577(3) -0.200(2) 0.1382(6)
N4 N 0.5940(3) -0.2637(18) 0.1441(5)
C29 C 0.55376(14) -0.1188(18) 0.1672(2)
C30 C 0.33200(17) 0.347(2) 0.2686(3)
H33 H 0.3621 0.4711 0.2875
C31 C 0.62624(17) 0.3489(16) 0.3530(2)
H34 H 0.5978 0.4614 0.3570
N9 N 0.29491(11) 0.3715(13) 0.29599(16)
N10 N 0.67236(12) 0.3728(14) 0.40477(17)
C1A C 0.7290(3) -0.226(3) 0.9054(8)
H1A H 0.7617 -0.3256 0.9306
C2A C 0.7272(5) -0.038(2) 0.8533(10)
H2A H 0.7585 0.0253 0.8456
C3A C 0.6729(4) 0.086(2) 0.8025(6)
C4A C 0.6299(3) -0.0032(19) 0.8207(5)
H3A H 0.5955 0.0650 0.7886
C5A C 0.6359(4) -0.189(3) 0.8841(7)
N1A N 0.5919(3) -0.3075(15) 0.9092(6)
C6A C 0.35355(15) -0.134(3) 0.8104(3)
H4A H 0.3264 -0.1599 0.8320
C7A C 0.3417(4) 0.012(2) 0.7439(6)
H5A H 0.3058 0.0477 0.7106
C8A C 0.3833(3) 0.1188(17) 0.7215(5)
C9A C 0.4369(4) 0.022(2) 0.7651(5)
H6A H 0.4645 0.0593 0.7450
C10A C 0.6941(4) 0.5639(15) 0.6347(5)
H7A H 0.7231 0.7088 0.6458
H8A H 0.6605 0.6704 0.6253
C11A C 0.6760(4) 0.582(2) 0.4760(7)
H9A H 0.6419 0.6858 0.4648
H10A H 0.7045 0.7283 0.4841
C12A C 0.68929(15) 0.3773(15) 0.5549(2)
H11A H 0.7231 0.2732 0.5644
H12A H 0.6609 0.2295 0.5449
C13A C 0.5998(4) -0.568(6) 0.9822(5)
H13A H 0.5654 -0.6070 0.9873
H14A H 0.6250 -0.4976 1.0345
H15A H 0.6134 -0.7471 0.9668
N2A N 0.6852(4) -0.3041(17) 0.9304(5)
C14A C 0.5005(4) -0.2824(19) 0.8808(6)
H16A H 0.5031 -0.4285 0.9203
N3A N 0.5423(3) -0.200(2) 0.8618(6)
N4A N 0.4060(3) -0.2637(18) 0.8559(5)
C29A C 0.44624(14) -0.1188(18) 0.8328(2)
C30A C 0.66800(17) 0.347(2) 0.7314(3)
H33A H 0.6379 0.4711 0.7125
C31A C 0.37376(17) 0.3489(16) 0.6470(2)
H34A H 0.4022 0.4614 0.6430
N9A N 0.70509(11) 0.3715(13) 0.70401(16)
N10A N 0.32764(12) 0.3728(14) 0.59523(17)
N11 N 0.4854(5) -0.234(4) 0.3783(8)
C32 C 0.4591(9) -0.115(8) 0.4089(13)
C33 C 0.4357(12) 0.053(8) 0.4649(15)
C15? C 0.2714(4) -0.015(3) 0.0841(6)
H17? H 0.2373 0.0522 0.0500
C16? C 0.2746(3) -0.224(3) 0.1558(5)
H18? H 0.2442 -0.2668 0.1687
C17? C 0.3234(4) -0.344(2) 0.1996(5)
C18? C 0.3710(5) -0.259(3) 0.1804(7)
H19? H 0.4051 -0.3390 0.2090
C19? C 0.3620(5) -0.040(3) 0.1135(8)
N5? N 0.4056(4) 0.047(2) 0.0907(5)
C20? C 0.64645(15) -0.134(3) 0.1896(3)
H20? H 0.6720 -0.1446 0.1643
C21? C 0.6595(4) -0.260(3) 0.2575(7)
H21? H 0.6958 -0.2834 0.2911
C22? C 0.6161(4) -0.372(2) 0.2838(7)
C23? C 0.5626(3) -0.2729(18) 0.2322(6)
H22? H 0.5333 -0.3243 0.2474
C24? C 0.3077(5) 0.165(3) 0.3686(6)
H23? H 0.3420 0.0645 0.3792
H24? H 0.2794 0.0163 0.3589
C25? C 0.3270(4) 0.172(3) 0.5261(6)
H25? H 0.3007 0.0135 0.5185
H26? H 0.3625 0.0838 0.5378
C26? C 0.31071(15) 0.3773(15) 0.4451(2)
H27? H 0.3376 0.5318 0.4524
H28? H 0.2759 0.4710 0.4349
C27? C 0.3950(8) 0.228(3) 0.0147(12)
H29? H 0.4287 0.2692 0.0076
H30? H 0.3780 0.4115 0.0198
H31? H 0.3715 0.1198 -0.0327
N6? N 0.3131(3) 0.0739(18) 0.0676(4)
C28? C 0.5007(3) 0.038(2) 0.1155(5)
H32? H 0.4983 0.1774 0.0745
N7? N 0.4575(4) -0.046(2) 0.1351(5)
N8? N 0.5950(3) 0.0378(18) 0.1407(6)
C34? C 0.5171(9) -0.082(6) 0.4239(13)
C35? C 0.5513(11) 0.112(6) 0.4965(11)
C36? C 0.4389(5) -0.27(3) 0.478(5)
C37? C 0.5000 -0.288(16) 0.5000
N12? N 0.5463(3) -0.30(2) 0.527(4)
loop_
_geom_bond_atom_site_label_1
_geom_bond_atom_site_label_2
_geom_bond_site_symmetry_1
_geom_bond_site_symmetry_2
C1 H1 1_555 1_555
C2 C1 1_555 1_555
H2 C2 1_555 1_555
C3 C2 1_555 1_555
C4 C3 1_555 1_555
H3 C4 1_555 1_555
C5 C4 1_555 1_555
N1 C5 1_555 1_555
C6 H4 1_555 1_555
C7 C6 1_555 1_555
H5 C7 1_555 1_555
C8 C7 1_555 1_555
C9 C8 1_555 1_555
H6 C9 1_555 1_555
C10 H7 1_555 1_555
H8 C10 1_555 1_555
C11 H9 1_555 1_555
H10 C11 1_555 1_555
C12 C10 1_555 1_555
H11 C12 1_555 1_555
H12 C12 1_555 1_555
C13 N1 1_555 1_555
H13 C13 1_555 1_555
H14 C13 1_555 1_555
H15 C13 1_555 1_555
N2 C1 1_555 1_555
C14 H16 1_555 1_555
N3 N1 1_555 1_555
N4 C6 1_555 1_555
C29 C9 1_555 1_555
C30 C3 1_555 1_555
H33 C30 1_555 1_555
C31 C8 1_555 1_555
H34 C31 1_555 1_555
N9 C10 1_555 1_555
N10 C31 1_555 1_555
N11 C32 1_555 1_555
C32 C33 1_555 1_555
C1A H1A 1_555 1_555
C2A C1A 1_555 1_555
H2A C2A 1_555 1_555
C3A C2A 1_555 1_555
C4A C3A 1_555 1_555
H3A C4A 1_555 1_555
C5A C4A 1_555 1_555
N1A C5A 1_555 1_555
C6A H4A 1_555 1_555
C7A C6A 1_555 1_555
H5A C7A 1_555 1_555
C8A C7A 1_555 1_555
C9A C8A 1_555 1_555
H6A C9A 1_555 1_555
C10A H7A 1_555 1_555
H8A C10A 1_555 1_555
C11A N10 1_555 1_555
H9A C11A 1_555 1_555
H10A C11A 1_555 1_555
C12A C10A 1_555 1_555
H11A C12A 1_555 1_555
H12A C12A 1_555 1_555
C13A N1A 1_555 1_555
H13A C13A 1_555 1_555
H14A C13A 1_555 1_555
H15A C13A 1_555 1_555
N2A C1A 1_555 1_555
C14A H16A 1_555 1_555
N3A N1A 1_555 1_555
N4A C6A 1_555 1_555
C29A C9A 1_555 1_555
C30A C3A 1_555 1_555
H33A C30A 1_555 1_555
C31A C8A 1_555 1_555
H34A C31A 1_555 1_555
N9A C10A 1_555 1_555
N10A C11 1_555 1_555
C5 N2 1_555 1_555
C11 C12 1_555 1_555
C14 N3 1_555 1_555
C14 C29 1_555 1_555
N4 C29 1_555 1_555
C30 N9 1_555 1_555
C5A N2A 1_555 1_555
C11A C12A 1_555 1_555
C14A N3A 1_555 1_555
C14A C29A 1_555 1_555
N4A C29A 1_555 1_555
C30A N9A 1_555 1_555
C31A N10A 1_555 1_555

#END
