
#######################################################################
#
#                 Cambridge Crystallographic Data Centre
#                                CCDC 
#
#######################################################################
#
# If this CIF has been generated from an entry in the Cambridge 
# Structural Database, then it will include bibliographic, chemical, 
# crystal, experimental, refinement or atomic coordinate data resulting 
# from the CCDC's data processing and validation procedures.
#
#######################################################################

data_FOPJAW
_chemical_formula_moiety         'C19 H28 N4 O2 Si1'
_chemical_name_systematic        
(E)-(2-(2-((4-(((dimethyl(t-butyl)silyl)oxy)methyl)-2-pyridinyl)methylene)hydrazino)-4-pyridinyl)methanol
_symmetry_cell_setting           monoclinic
_symmetry_space_group_name_H-M   'P 21/n'
_symmetry_Int_Tables_number      14
_space_group_name_Hall           '-P 2yn'
loop_
_symmetry_equiv_pos_site_id
_symmetry_equiv_pos_as_xyz
1 x,y,z
2 1/2-x,1/2+y,1/2-z
3 -x,-y,-z
4 1/2+x,1/2-y,1/2+z
_cell_length_a                   6.4521(2)
_cell_length_b                   28.5690(13)
_cell_length_c                   11.0892(4)
_cell_angle_alpha                90
_cell_angle_beta                 92.813(2)
_cell_angle_gamma                90
_cell_volume                     2041.61
_exptl_crystal_colour            colorless
_exptl_crystal_description       prism
_cell_formula_units_Z            4
_exptl_crystal_recrystallization_method chloroform
loop_
_atom_site_label
_atom_site_type_symbol
_atom_site_fract_x
_atom_site_fract_y
_atom_site_fract_z
C1 C 0.5469(3) 0.06400(9) 0.05409(18)
H1 H 0.4214 0.0441 0.0560
H2 H 0.5052 0.0967 0.0696
C2 C 0.7005(3) 0.04856(8) 0.15106(18)
C3 C 0.8980(3) 0.03306(8) 0.12580(19)
H3 H 0.9426 0.0333 0.0454
C4 C 1.0276(3) 0.01727(8) 0.21941(18)
H4 H 1.1598 0.0056 0.2002
C5 C 0.7924(3) 0.03414(7) 0.35931(18)
C6 C 0.6481(3) 0.04920(8) 0.27017(17)
H5 H 0.5150 0.0598 0.2911
C7 C 0.5287(3) 0.05751(7) 0.62255(18)
H6 H 0.6194 0.0435 0.6822
C8 C 0.3380(3) 0.08048(7) 0.65674(17)
C9 C 0.2056(3) 0.10352(7) 0.57347(18)
H7 H 0.2380 0.1048 0.4909
C10 C 0.0268(3) 0.12455(7) 0.61106(19)
C11 C -0.0181(3) 0.11968(8) 0.7317(2)
H8 H -0.1435 0.1319 0.7604
C12 C 0.1211(3) 0.09695(8) 0.8092(2)
H9 H 0.0894 0.0945 0.8918
C13 C -0.1126(3) 0.15301(9) 0.5270(2)
H10 H -0.2419 0.1353 0.5072
H11 H -0.1505 0.1825 0.5674
C14 C -0.3959(3) 0.17985(10) 0.2825(2)
H12 H -0.4199 0.1460 0.2765
H13 H -0.4519 0.1952 0.2088
H14 H -0.4652 0.1923 0.3524
C15 C 0.0220(4) 0.16641(10) 0.1717(2)
H15 H 0.1711 0.1727 0.1820
H16 H -0.0329 0.1808 0.0965
H17 H -0.0012 0.1325 0.1683
C16 C 0.1699(4) 0.26497(10) 0.3486(3)
H18 H 0.1935 0.2986 0.3604
H19 H 0.2515 0.2538 0.2822
H20 H 0.2123 0.2482 0.4228
C17 C -0.0623(3) 0.25613(9) 0.3180(2)
C18 C -0.1234(4) 0.28151(10) 0.2001(2)
H21 H -0.2723 0.2774 0.1814
H22 H -0.0451 0.2684 0.1345
H23 H -0.0918 0.3149 0.2089
C19 C -0.1873(4) 0.27690(9) 0.4198(2)
H24 H -0.1462 0.2616 0.4963
H25 H -0.3357 0.2718 0.4014
H26 H -0.1595 0.3106 0.4264
N1 N 0.9803(2) 0.01728(6) 0.33574(15)
N2 N 0.7500(2) 0.03540(6) 0.48030(15)
H27 H 0.8358 0.0229 0.5355
N3 N 0.5720(2) 0.05649(6) 0.51084(15)
N4 N 0.2996(2) 0.07802(6) 0.77472(15)
O1 O 0.6282(2) 0.06115(9) -0.05994(13)
H28 H 0.5321 0.0643 -0.1132
O2 O -0.0139(2) 0.16347(6) 0.41996(14)
Si1 Si -0.11254(9) 0.19134(2) 0.30096(6)
loop_
_geom_bond_atom_site_label_1
_geom_bond_atom_site_label_2
_geom_bond_site_symmetry_1
_geom_bond_site_symmetry_2
C1 H1 1_555 1_555
H2 C1 1_555 1_555
C2 C1 1_555 1_555
C3 C2 1_555 1_555
H3 C3 1_555 1_555
C4 C3 1_555 1_555
H4 C4 1_555 1_555
C5 C6 1_555 1_555
C6 C2 1_555 1_555
H5 C6 1_555 1_555
C7 H6 1_555 1_555
C8 C7 1_555 1_555
C9 C8 1_555 1_555
H7 C9 1_555 1_555
C10 C9 1_555 1_555
C11 C10 1_555 1_555
H8 C11 1_555 1_555
C12 C11 1_555 1_555
H9 C12 1_555 1_555
C13 C10 1_555 1_555
H10 C13 1_555 1_555
H11 C13 1_555 1_555
C14 H12 1_555 1_555
H13 C14 1_555 1_555
H14 C14 1_555 1_555
C15 H15 1_555 1_555
H16 C15 1_555 1_555
H17 C15 1_555 1_555
C16 H18 1_555 1_555
H19 C16 1_555 1_555
H20 C16 1_555 1_555
C17 C16 1_555 1_555
C18 C17 1_555 1_555
H21 C18 1_555 1_555
H22 C18 1_555 1_555
H23 C18 1_555 1_555
C19 C17 1_555 1_555
H24 C19 1_555 1_555
H25 C19 1_555 1_555
H26 C19 1_555 1_555
N1 C4 1_555 1_555
N2 C5 1_555 1_555
H27 N2 1_555 1_555
N3 C7 1_555 1_555
N4 C8 1_555 1_555
O1 C1 1_555 1_555
H28 O1 1_555 1_555
O2 C13 1_555 1_555
Si1 C14 1_555 1_555
C5 N1 1_555 1_555
C12 N4 1_555 1_555
C15 Si1 1_555 1_555
C17 Si1 1_555 1_555
N2 N3 1_555 1_555
O2 Si1 1_555 1_555

#END
