
#######################################################################
#
#                 Cambridge Crystallographic Data Centre
#                                CCDC 
#
#######################################################################
#
# If this CIF has been generated from an entry in the Cambridge 
# Structural Database, then it will include bibliographic, chemical, 
# crystal, experimental, refinement or atomic coordinate data resulting 
# from the CCDC's data processing and validation procedures.
#
#######################################################################

data_FOPJEA
_chemical_formula_moiety         'C20 H30 N4 O2 Si1'
_chemical_name_systematic        
(E)-(2-(2-((4-(((Dimethyl(t-butyl)silyl)oxy)methyl)-2-pyridinyl)methylene)-1-methylhydrazino)-4-pyridinyl)methanol
_symmetry_cell_setting           triclinic
_symmetry_space_group_name_H-M   'P -1'
_symmetry_Int_Tables_number      2
_space_group_name_Hall           '-P 1'
loop_
_symmetry_equiv_pos_site_id
_symmetry_equiv_pos_as_xyz
1 x,y,z
2 -x,-y,-z
_cell_length_a                   7.2195(4)
_cell_length_b                   11.2353(4)
_cell_length_c                   13.5800(6)
_cell_angle_alpha                92.830(3)
_cell_angle_beta                 102.655(2)
_cell_angle_gamma                92.846(3)
_cell_volume                     1071.38
_exptl_crystal_colour            colorless
_exptl_crystal_description       block
_cell_formula_units_Z            2
_exptl_crystal_recrystallization_method chloroform
loop_
_atom_site_label
_atom_site_type_symbol
_atom_site_fract_x
_atom_site_fract_y
_atom_site_fract_z
C1 C 0.2582(3) 0.94823(12) -0.01352(12)
H1 H 0.1442 0.9275 0.0103
H2 H 0.3659 0.9518 0.0438
C2 C 0.2839(2) 0.85476(13) -0.09156(11)
C3 C 0.3113(2) 0.88483(14) -0.18550(12)
H3 H 0.3156 0.9641 -0.2020
C4 C 0.3321(3) 0.79405(14) -0.25365(12)
H4 H 0.3508 0.8150 -0.3163
C5 C 0.3037(2) 0.65034(13) -0.14478(11)
C6 C 0.2808(2) 0.73531(13) -0.07059(11)
H5 H 0.2638 0.7122 -0.0082
C7 C 0.3395(3) 0.43828(14) -0.19996(13)
H6 H 0.4435 0.3938 -0.1674
H7 H 0.3728 0.4767 -0.2559
H8 H 0.2289 0.3851 -0.2241
C8 C 0.2527(2) 0.38727(13) -0.01891(12)
H9 H 0.2683 0.3284 -0.0665
C9 C 0.2174(2) 0.35402(13) 0.07823(12)
C10 C 0.1869(3) 0.20049(14) 0.17988(13)
H10 H 0.1831 0.1190 0.1892
C11 C 0.1640(3) 0.27688(15) 0.25766(13)
H11 H 0.1472 0.2477 0.3182
C12 C 0.1666(2) 0.39896(14) 0.24413(12)
C13 C 0.1922(2) 0.43765(13) 0.15316(12)
H12 H 0.1927 0.5186 0.1416
C14 C 0.1364(3) 0.48189(15) 0.32835(13)
H13 H 0.0084 0.4672 0.3382
H14 H 0.2248 0.4661 0.3905
N1 N 0.3272(2) 0.67791(11) -0.23607(10)
N2 N 0.2993(2) 0.52818(10) -0.12786(9)
N3 N 0.26219(19) 0.49782(11) -0.03868(9)
N4 N 0.2145(2) 0.23637(11) 0.09125(10)
O1 O 0.2430(2) 1.06031(10) -0.05580(9)
H15 H 0.2359 1.1117 -0.0120
O2 O 0.1635(2) 0.60261(11) 0.30726(9)
Si1 Si 0.21230(10) 0.70524(5) 0.40156(5)
C15 C 0.4370(8) 0.6796(5) 0.4927(3)
H16 H 0.4105 0.6269 0.5421
H17 H 0.4928 0.7544 0.5260
H18 H 0.5239 0.6443 0.4572
C16 C 0.0142(9) 0.7053(3) 0.4681(4)
H19 H -0.1006 0.7234 0.4220
H20 H 0.0433 0.7645 0.5236
H21 H -0.0030 0.6281 0.4932
C17 C 0.2316(4) 0.84631(19) 0.33492(18)
C18 C 0.4123(9) 0.8510(5) 0.2950(4)
H22 H 0.4120 0.7818 0.2506
H23 H 0.5207 0.8525 0.3506
H24 H 0.4185 0.9217 0.2587
C19 C 0.0566(5) 0.8514(3) 0.2486(2)
H25 H 0.0674 0.9228 0.2137
H26 H -0.0557 0.8516 0.2755
H27 H 0.0482 0.7829 0.2023
C20 C 0.2413(6) 0.9552(2) 0.4085(3)
H28 H 0.3454 0.9500 0.4655
H29 H 0.1245 0.9573 0.4312
H30 H 0.2600 1.0266 0.3749
C21? C 0.475(3) 0.6961(17) 0.4508(13)
C22? C 0.339(3) 0.8299(13) 0.2465(11)
C23? C 0.1070(12) 0.8353(6) 0.4121(6)
C24? C 0.2214(16) 0.9430(7) 0.4759(7)
C25? C -0.0482(14) 0.8834(8) 0.3291(7)
C26? C 0.011(2) 0.7564(10) 0.4794(12)
H31? H 0.4289 0.6370 0.4899
H32? H 0.5337 0.7635 0.4946
H33? H 0.5658 0.6625 0.4173
H34? H 0.4295 0.7861 0.2198
H35? H 0.3945 0.9076 0.2725
H36? H 0.2282 0.8381 0.1937
H37? H 0.2581 0.9996 0.4319
H38? H 0.3332 0.9162 0.5193
H39? H 0.1442 0.9803 0.5163
H40? H -0.1363 0.9246 0.3600
H41? H -0.1145 0.8180 0.2852
H42? H 0.0099 0.9376 0.2906
H43? H -0.0697 0.8033 0.5108
H44? H 0.1076 0.7256 0.5307
H45? H -0.0628 0.6912 0.4386
Si2? Si 0.2671(4) 0.7463(2) 0.3526(2)
loop_
_geom_bond_atom_site_label_1
_geom_bond_atom_site_label_2
_geom_bond_site_symmetry_1
_geom_bond_site_symmetry_2
C1 H1 1_555 1_555
H2 C1 1_555 1_555
C2 C1 1_555 1_555
C3 C2 1_555 1_555
H3 C3 1_555 1_555
C4 C3 1_555 1_555
H4 C4 1_555 1_555
C5 C6 1_555 1_555
C6 C2 1_555 1_555
H5 C6 1_555 1_555
C7 H6 1_555 1_555
H7 C7 1_555 1_555
H8 C7 1_555 1_555
C8 H9 1_555 1_555
C9 C8 1_555 1_555
C10 H10 1_555 1_555
C11 C10 1_555 1_555
H11 C11 1_555 1_555
C12 C11 1_555 1_555
C13 C9 1_555 1_555
H12 C13 1_555 1_555
C14 C12 1_555 1_555
H13 C14 1_555 1_555
H14 C14 1_555 1_555
N1 C4 1_555 1_555
N2 C5 1_555 1_555
N3 C8 1_555 1_555
N4 C9 1_555 1_555
O1 C1 1_555 1_555
H15 O1 1_555 1_555
O2 C14 1_555 1_555
Si1 O2 1_555 1_555
C15 Si1 1_555 1_555
H16 C15 1_555 1_555
H17 C15 1_555 1_555
H18 C15 1_555 1_555
C16 Si1 1_555 1_555
H19 C16 1_555 1_555
H20 C16 1_555 1_555
H21 C16 1_555 1_555
C17 Si1 1_555 1_555
C18 C17 1_555 1_555
H22 C18 1_555 1_555
H23 C18 1_555 1_555
H24 C18 1_555 1_555
C19 C17 1_555 1_555
H25 C19 1_555 1_555
H26 C19 1_555 1_555
H27 C19 1_555 1_555
C20 C17 1_555 1_555
H28 C20 1_555 1_555
H29 C20 1_555 1_555
H30 C20 1_555 1_555
C5 N1 1_555 1_555
C7 N2 1_555 1_555
C10 N4 1_555 1_555
C12 C13 1_555 1_555
N2 N3 1_555 1_555

#END
