
#######################################################################
#
#                 Cambridge Crystallographic Data Centre
#                                CCDC 
#
#######################################################################
#
# If this CIF has been generated from an entry in the Cambridge 
# Structural Database, then it will include bibliographic, chemical, 
# crystal, experimental, refinement or atomic coordinate data resulting 
# from the CCDC's data processing and validation procedures.
#
#######################################################################

data_FOPXUE
_chemical_formula_moiety         
'2(C25 H17 Cl2 N2 1+),O4 S1 2-,C2 H4 O2,0.5(H2 O1)'
_chemical_name_systematic        
'bis(5,6-Dihydro-3,9-dichloro-7-phenylindolo[3,2-c]acridinium) sulfate acetic acid solvate hemihydrate'
_symmetry_cell_setting           triclinic
_symmetry_space_group_name_H-M   'P -1'
_symmetry_Int_Tables_number      2
_space_group_name_Hall           '-P 1'
loop_
_symmetry_equiv_pos_site_id
_symmetry_equiv_pos_as_xyz
1 x,y,z
2 -x,-y,-z
_cell_length_a                   10.5505(10)
_cell_length_b                   14.6090(13)
_cell_length_c                   15.2960(14)
_cell_angle_alpha                91.431(1)
_cell_angle_beta                 98.863(1)
_cell_angle_gamma                98.910(1)
_cell_volume                     2298.46
_exptl_crystal_colour            yellow
_exptl_crystal_description       plate
_chemical_melting_point          '207 deg.C'
_cell_formula_units_Z            2
_exptl_crystal_recrystallization_method ethanol
loop_
_atom_site_label
_atom_site_type_symbol
_atom_site_fract_x
_atom_site_fract_y
_atom_site_fract_z
C26 C 0.8347(2) 0.62520(18) 0.74593(18)
C27 C 0.8922(3) 0.63701(19) 0.83633(18)
H16 H 0.9512 0.5978 0.8606
C28 C 0.8619(3) 0.7055(2) 0.88823(19)
H17 H 0.8987 0.7137 0.9492
C29 C 0.7759(3) 0.7638(2) 0.85075(19)
C30 C 0.7209(3) 0.75539(19) 0.76378(18)
H18 H 0.6640 0.7964 0.7404
C31 C 0.7499(2) 0.68434(18) 0.70842(18)
C32 C 0.6971(2) 0.67057(18) 0.61548(18)
C33 C 0.6117(3) 0.73577(19) 0.57445(18)
C34 C 0.4791(3) 0.7215(2) 0.5756(2)
H19 H 0.4401 0.6690 0.6030
C35 C 0.4025(3) 0.7841(2) 0.5365(2)
H20 H 0.3115 0.7738 0.5371
C36 C 0.4583(3) 0.8609(2) 0.4970(2)
H21 H 0.4058 0.9030 0.4701
C37 C 0.5913(3) 0.8762(2) 0.4969(2)
H22 H 0.6301 0.9295 0.4706
C38 C 0.6683(3) 0.8140(2) 0.5350(2)
H23 H 0.7593 0.8246 0.5342
C39 C 0.8134(2) 0.54111(18) 0.60783(17)
C40 C 0.7271(2) 0.59954(19) 0.56567(18)
C41 C 0.6669(3) 0.5761(2) 0.46931(17)
H24 H 0.6425 0.6331 0.4424
H25 H 0.5862 0.5308 0.4672
C42 C 0.7560(3) 0.53590(19) 0.41342(18)
H26 H 0.7046 0.5082 0.3567
H27 H 0.8238 0.5860 0.4000
C43 C 0.8186(2) 0.46335(18) 0.46304(18)
C44 C 0.8455(2) 0.46822(19) 0.55496(18)
C45 C 0.9193(2) 0.34232(19) 0.51268(18)
C46 C 0.8656(2) 0.38300(19) 0.43470(18)
C47 C 0.8590(2) 0.33808(19) 0.35125(18)
H28 H 0.8236 0.3637 0.2982
C48 C 0.9063(3) 0.25524(19) 0.34986(18)
C49 C 0.9627(3) 0.2162(2) 0.4277(2)
H29 H 0.9956 0.1596 0.4231
C50 C 0.9700(3) 0.2596(2) 0.50960(19)
H30 H 1.0081 0.2343 0.5620
Cl3 Cl 0.89559(7) 0.19288(5) 0.24927(5)
Cl4 Cl 0.73976(7) 0.85032(5) 0.91964(5)
N3 N 0.9091(2) 0.39646(16) 0.58482(15)
H33 H 0.9381 0.3872 0.6405
N4 N 0.8635(2) 0.55607(15) 0.69380(14)
H34 H 0.9173 0.5199 0.7179
O1 O 0.99006(19) 0.67454(14) 0.25719(13)
O2 O 0.93498(19) 0.51109(14) 0.22192(14)
O3 O 0.92609(19) 0.61886(16) 0.10342(13)
O4 O 0.76667(18) 0.60564(14) 0.20098(13)
S1 S 0.90510(6) 0.60248(5) 0.19481(4)
C1 C 0.3968(3) 0.21842(19) -0.15222(18)
C2 C 0.3148(3) 0.1904(2) -0.23364(19)
H1 H 0.2481 0.2247 -0.2556
C3 C 0.3324(3) 0.1131(2) -0.2808(2)
H2 H 0.2758 0.0921 -0.3344
C4 C 0.4346(3) 0.0656(2) -0.2490(2)
C5 C 0.5179(3) 0.0926(2) -0.17113(19)
H3 H 0.5875 0.0599 -0.1520
C6 C 0.4985(3) 0.16971(19) -0.11978(18)
C7 C 0.5751(3) 0.19883(19) -0.03443(18)
C8 C 0.6837(3) 0.14732(19) -0.00103(19)
C9 C 0.6666(3) 0.0787(2) 0.0594(2)
H4 H 0.5863 0.0652 0.0808
C10 C 0.7668(3) 0.0299(2) 0.0884(2)
H5 H 0.7544 -0.0177 0.1289
C11 C 0.8847(3) 0.0503(2) 0.0584(2)
H6 H 0.9536 0.0176 0.0793
C12 C 0.9024(3) 0.1181(2) -0.0018(2)
H7 H 0.9832 0.1315 -0.0227
C13 C 0.8018(3) 0.1671(2) -0.0320(2)
H8 H 0.8140 0.2136 -0.0736
C14 C 0.4435(3) 0.31841(19) -0.02197(18)
C15 C 0.5457(3) 0.2700(2) 0.01464(19)
C16 C 0.6020(4) 0.2893(3) 0.1127(3)
H9 H 0.5491 0.2473 0.1479
H10 H 0.6912 0.2742 0.1228
C17 C 0.6071(3) 0.3880(2) 0.1467(2)
H11 H 0.6166 0.3900 0.2121
H12 H 0.6842 0.4272 0.1303
C18 C 0.4879(3) 0.42623(19) 0.10988(18)
C19 C 0.4131(3) 0.3922(2) 0.02979(18)
C20 C 0.3156(3) 0.50313(19) 0.07881(18)
C21 C 0.4270(2) 0.49741(19) 0.14209(18)
C22 C 0.4535(3) 0.5555(2) 0.21991(18)
H13 H 0.5286 0.5540 0.2627
C23 C 0.3675(3) 0.61445(19) 0.23192(19)
C24 C 0.2550(3) 0.6188(2) 0.16998(19)
H14 H 0.1972 0.6598 0.1816
C25 C 0.2282(3) 0.56376(19) 0.09237(19)
H15 H 0.1535 0.5668 0.0497
Cl1 Cl 0.39507(7) 0.68697(6) 0.32753(5)
Cl2 Cl 0.45304(9) -0.03295(6) -0.30898(6)
N1 N 0.3088(2) 0.43956(16) 0.00991(15)
H31 H 0.2494 0.4305 -0.0379
N2 N 0.3767(2) 0.29237(16) -0.10273(14)
H32 H 0.3166 0.3246 -0.1251
C51? C 0.6546(12) 0.3270(9) 0.0897(8)
H35? H 0.6977 0.2823 0.1263
H36? H 0.7213 0.3640 0.0603
H37? H 0.6741 0.4406 0.1727
H38? H 0.5860 0.3484 0.1958
loop_
_geom_bond_atom_site_label_1
_geom_bond_atom_site_label_2
_geom_bond_site_symmetry_1
_geom_bond_site_symmetry_2
C1 C2 1_555 1_555
C2 H1 1_555 1_555
C3 C2 1_555 1_555
H2 C3 1_555 1_555
C4 C3 1_555 1_555
C5 C4 1_555 1_555
H3 C5 1_555 1_555
C6 C1 1_555 1_555
C7 C6 1_555 1_555
C8 C7 1_555 1_555
C9 C8 1_555 1_555
H4 C9 1_555 1_555
C10 C9 1_555 1_555
H5 C10 1_555 1_555
C11 C10 1_555 1_555
H6 C11 1_555 1_555
C12 C11 1_555 1_555
H7 C12 1_555 1_555
C13 C8 1_555 1_555
H8 C13 1_555 1_555
C14 C15 1_555 1_555
C15 C7 1_555 1_555
C16 C15 1_555 1_555
H9 C16 1_555 1_555
H10 C16 1_555 1_555
C17 C16 1_555 1_555
H11 C17 1_555 1_555
H12 C17 1_555 1_555
C18 C17 1_555 1_555
C19 C14 1_555 1_555
C20 C21 1_555 1_555
C21 C18 1_555 1_555
C22 C21 1_555 1_555
H13 C22 1_555 1_555
C23 C22 1_555 1_555
C24 C23 1_555 1_555
H14 C24 1_555 1_555
C25 C20 1_555 1_555
H15 C25 1_555 1_555
C26 C27 1_555 1_555
C27 H16 1_555 1_555
C28 C27 1_555 1_555
H17 C28 1_555 1_555
C29 C28 1_555 1_555
C30 C29 1_555 1_555
H18 C30 1_555 1_555
C31 C26 1_555 1_555
C32 C31 1_555 1_555
C33 C32 1_555 1_555
C34 C33 1_555 1_555
H19 C34 1_555 1_555
C35 C34 1_555 1_555
H20 C35 1_555 1_555
C36 C35 1_555 1_555
H21 C36 1_555 1_555
C37 C36 1_555 1_555
H22 C37 1_555 1_555
C38 C33 1_555 1_555
H23 C38 1_555 1_555
C39 C40 1_555 1_555
C40 C32 1_555 1_555
C41 C40 1_555 1_555
H24 C41 1_555 1_555
H25 C41 1_555 1_555
C42 C41 1_555 1_555
H26 C42 1_555 1_555
H27 C42 1_555 1_555
C43 C42 1_555 1_555
C44 C39 1_555 1_555
C45 C46 1_555 1_555
C46 C43 1_555 1_555
C47 C46 1_555 1_555
H28 C47 1_555 1_555
C48 C47 1_555 1_555
C49 C48 1_555 1_555
H29 C49 1_555 1_555
C50 C45 1_555 1_555
H30 C50 1_555 1_555
Cl1 C23 1_555 1_555
Cl2 C4 1_555 1_555
Cl3 C48 1_555 1_555
Cl4 C29 1_555 1_555
N1 C19 1_555 1_555
H31 N1 1_555 1_555
N2 C1 1_555 1_555
H32 N2 1_555 1_555
N3 C44 1_555 1_555
H33 N3 1_555 1_555
N4 C26 1_555 1_555
H34 N4 1_555 1_555
O1 S1 1_555 1_555
O2 S1 1_555 1_555
O3 S1 1_555 1_555
O4 S1 1_555 1_555
C5 C6 1_555 1_555
C12 C13 1_555 1_555
C14 N2 1_555 1_555
C18 C19 1_555 1_555
C20 N1 1_555 1_555
C24 C25 1_555 1_555
C30 C31 1_555 1_555
C37 C38 1_555 1_555
C39 N4 1_555 1_555
C43 C44 1_555 1_555
C45 N3 1_555 1_555
C49 C50 1_555 1_555

#END
