
#######################################################################
#
#                 Cambridge Crystallographic Data Centre
#                                CCDC 
#
#######################################################################
#
# If this CIF has been generated from an entry in the Cambridge 
# Structural Database, then it will include bibliographic, chemical, 
# crystal, experimental, refinement or atomic coordinate data resulting 
# from the CCDC's data processing and validation procedures.
#
#######################################################################

data_FOPYAL
_chemical_formula_moiety         
'2(C26 H20 Cl1 N2 1+),O4 S1 2-,C2 H4 O2,0.5(H2 O1)'
_chemical_name_systematic        
'bis(9-Chloro-5,6-dihydro-3-methyl-7-phenylindolo[3,2-c]acridinium) sulfate acetic acid solvate hemihydrate'
_symmetry_cell_setting           triclinic
_symmetry_space_group_name_H-M   'P -1'
_symmetry_Int_Tables_number      2
_space_group_name_Hall           '-P 1'
loop_
_symmetry_equiv_pos_site_id
_symmetry_equiv_pos_as_xyz
1 x,y,z
2 -x,-y,-z
_cell_length_a                   10.5713(9)
_cell_length_b                   14.5667(12)
_cell_length_c                   14.9947(13)
_cell_angle_alpha                90.916(1)
_cell_angle_beta                 97.153(1)
_cell_angle_gamma                97.208(1)
_cell_volume                     2271.77
_exptl_crystal_colour            orange
_exptl_crystal_description       block
_chemical_melting_point          '214 deg.C'
_cell_formula_units_Z            2
_exptl_crystal_recrystallization_method ethanol
loop_
_atom_site_label
_atom_site_type_symbol
_atom_site_fract_x
_atom_site_fract_y
_atom_site_fract_z
C1 C 0.1666(2) 0.37071(13) 0.25100(13)
C2 C 0.1124(2) 0.35942(15) 0.16046(14)
H1 H 0.0541 0.3997 0.1356
C3 C 0.1443(2) 0.28960(15) 0.10828(14)
H2 H 0.1093 0.2817 0.0468
C4 C 0.2293(2) 0.22996(15) 0.14669(14)
C5 C 0.2820(2) 0.23875(14) 0.23549(13)
H3 H 0.3382 0.1969 0.2598
C6 C 0.25169(19) 0.31077(14) 0.29016(13)
C7 C 0.30302(18) 0.32561(14) 0.38319(13)
C8 C 0.27075(19) 0.39754(14) 0.43225(13)
C9 C 0.3293(2) 0.42121(15) 0.52880(13)
H4 H 0.4099 0.4638 0.5283
H5 H 0.3522 0.3638 0.5575
C10 C 0.2422(2) 0.46611(15) 0.58638(13)
H6 H 0.1760 0.4182 0.6044
H7 H 0.2940 0.4949 0.6416
C11 C 0.17891(19) 0.53771(14) 0.53448(13)
C12 C 0.15004(19) 0.53046(14) 0.44166(13)
C13 C 0.18385(18) 0.45616(13) 0.38963(13)
C14 C 0.07547(19) 0.65801(14) 0.48264(14)
C15 C 0.13110(19) 0.61924(14) 0.56219(14)
C16 C 0.1350(2) 0.66626(15) 0.64546(15)
H8 H 0.1708 0.6406 0.6993
C17 C 0.0868(2) 0.74975(16) 0.64856(16)
C18 C 0.0305(2) 0.78568(16) 0.56788(16)
H9 H -0.0035 0.8428 0.5711
C19 C 0.0229(2) 0.74164(15) 0.48492(15)
H10 H -0.0161 0.7667 0.4319
C20 C 0.0945(2) 0.80581(19) 0.73510(17)
H11 H 0.1258 0.7695 0.7858
H12 H 0.0090 0.8214 0.7429
H13 H 0.1538 0.8628 0.7327
C21 C 0.39028(19) 0.26105(14) 0.42489(13)
C22 C 0.3390(2) 0.18299(15) 0.46708(15)
H14 H 0.2490 0.1715 0.4693
C23 C 0.4191(2) 0.12185(15) 0.50590(15)
H15 H 0.3836 0.0685 0.5343
C24 C 0.5503(2) 0.13859(15) 0.50330(14)
H16 H 0.6050 0.0972 0.5308
C25 C 0.6020(2) 0.21488(16) 0.46100(15)
H17 H 0.6920 0.2257 0.4589
C26 C 0.5224(2) 0.27644(15) 0.42119(14)
H18 H 0.5583 0.3288 0.3916
Cl1 Cl 0.26706(5) 0.14179(4) 0.07900(4)
N1 N 0.13585(16) 0.44079(11) 0.30320(11)
H40 H 0.0820 0.4774 0.2786
N2 N 0.08626(16) 0.60273(12) 0.41024(11)
H41 H 0.0577 0.6116 0.3538
C27 C 0.5964(2) 0.77795(14) 1.14689(13)
C28 C 0.6774(2) 0.80566(15) 1.22706(14)
H19 H 0.7441 0.7705 1.2487
C29 C 0.6593(2) 0.88379(16) 1.27370(15)
H20 H 0.7150 0.9043 1.3269
C30 C 0.5577(2) 0.93323(15) 1.24210(15)
C31 C 0.4757(2) 0.90621(15) 1.16538(14)
H21 H 0.4064 0.9400 1.1465
C32 C 0.49489(19) 0.82780(14) 1.11455(13)
C33 C 0.41926(19) 0.79864(14) 1.03039(14)
C34 C 0.4495(2) 0.72640(16) 0.98132(15)
C35 C 0.3998(4) 0.7110(3) 0.8813(3)
H22 H 0.3109 0.7270 0.8710
H23 H 0.4535 0.7541 0.8467
C36 C 0.3997(2) 0.61358(16) 0.84526(16)
H24 H 0.3229 0.5755 0.8589
H25 H 0.3970 0.6143 0.7804
C37 C 0.51484(19) 0.57179(14) 0.88415(13)
C38 C 0.5845(2) 0.60319(15) 0.96533(14)
C39 C 0.5529(2) 0.67769(14) 1.01775(13)
C40 C 0.6857(2) 0.49143(14) 0.91593(13)
C41 C 0.57733(19) 0.49961(14) 0.85157(13)
C42 C 0.5538(2) 0.44116(15) 0.77386(14)
H26 H 0.4803 0.4448 0.7312
C43 C 0.6377(2) 0.37880(14) 0.76017(14)
C44 C 0.7472(2) 0.37485(15) 0.82456(14)
H27 H 0.8052 0.3324 0.8138
C45 C 0.7729(2) 0.42972(15) 0.90179(14)
H28 H 0.8469 0.4258 0.9438
C46 C 0.6158(2) 0.31344(17) 0.67892(16)
H29 H 0.5291 0.3151 0.6476
H30 H 0.6248 0.2504 0.6982
H31 H 0.6793 0.3324 0.6382
C47 C 0.3105(2) 0.85084(14) 0.99726(14)
C48 C 0.1919(2) 0.83062(16) 1.02831(16)
H32 H 0.1797 0.7832 1.0704
C49 C 0.0913(2) 0.87961(16) 0.99791(17)
H33 H 0.0101 0.8655 1.0190
C50 C 0.1090(2) 0.94854(16) 0.93729(16)
H34 H 0.0399 0.9816 0.9163
C51 C 0.2265(3) 0.96973(16) 0.90698(16)
H35 H 0.2385 1.0177 0.8655
C52 C 0.3278(2) 0.92087(16) 0.93700(15)
H36 H 0.4089 0.9356 0.9161
Cl2 Cl 0.53979(6) 1.03358(4) 1.30083(4)
N3 N 0.61793(16) 0.70265(12) 1.09761(11)
H42 H 0.6776 0.6694 1.1200
N4 N 0.68800(18) 0.55431(13) 0.98539(12)
H43 H 0.7449 0.5621 1.0339
C53 C 0.9340(3) 0.0930(2) 0.7176(2)
C54 C 0.8422(3) 0.0076(2) 0.7227(3)
H37 H 0.8773 -0.0455 0.6989
H38 H 0.7599 0.0146 0.6870
H39 H 0.8288 -0.0025 0.7854
O5 O 0.9098(3) 0.16163(15) 0.76450(17)
H44 H 0.9792 0.1919 0.7880
O6 O 1.0260(3) 0.09714(17) 0.6741(2)
O1 O 0.96831(15) 0.67465(10) 0.25519(10)
O2 O 0.75876(15) 0.59809(11) 0.19544(11)
O3 O 0.93852(16) 0.51236(11) 0.21741(11)
O4 O 0.92279(16) 0.62342(13) 0.09847(10)
S1 S 0.89858(5) 0.60217(4) 0.19021(3)
O7 O 0.8926(8) 0.9784(5) 0.4786(7)
H45 H 0.9407 0.9639 0.4415
H46 H 0.9402 1.0078 0.5215
C55? C 0.3452(7) 0.6711(5) 0.9072(4)
H47? H 0.2822 0.6313 0.9379
H48? H 0.2982 0.7161 0.8722
H49? H 0.4231 0.6517 0.7942
H50? H 0.3323 0.5630 0.8208
loop_
_geom_bond_atom_site_label_1
_geom_bond_atom_site_label_2
_geom_bond_site_symmetry_1
_geom_bond_site_symmetry_2
C1 C2 1_555 1_555
C2 H1 1_555 1_555
C3 C2 1_555 1_555
H2 C3 1_555 1_555
C4 C3 1_555 1_555
C5 C4 1_555 1_555
H3 C5 1_555 1_555
C6 C1 1_555 1_555
C7 C6 1_555 1_555
C8 C7 1_555 1_555
C9 C8 1_555 1_555
H4 C9 1_555 1_555
H5 C9 1_555 1_555
C10 C9 1_555 1_555
H6 C10 1_555 1_555
H7 C10 1_555 1_555
C11 C10 1_555 1_555
C12 C11 1_555 1_555
C13 C8 1_555 1_555
C14 C15 1_555 1_555
C15 C11 1_555 1_555
C16 C15 1_555 1_555
H8 C16 1_555 1_555
C17 C16 1_555 1_555
C18 C17 1_555 1_555
H9 C18 1_555 1_555
C19 C14 1_555 1_555
H10 C19 1_555 1_555
C20 C17 1_555 1_555
H11 C20 1_555 1_555
H12 C20 1_555 1_555
H13 C20 1_555 1_555
C21 C7 1_555 1_555
C22 C21 1_555 1_555
H14 C22 1_555 1_555
C23 C22 1_555 1_555
H15 C23 1_555 1_555
C24 C23 1_555 1_555
H16 C24 1_555 1_555
C25 C24 1_555 1_555
H17 C25 1_555 1_555
C26 C21 1_555 1_555
H18 C26 1_555 1_555
C27 C28 1_555 1_555
C28 H19 1_555 1_555
C29 C28 1_555 1_555
H20 C29 1_555 1_555
C30 C29 1_555 1_555
C31 C30 1_555 1_555
H21 C31 1_555 1_555
C32 C27 1_555 1_555
C33 C32 1_555 1_555
C34 C33 1_555 1_555
C35 C34 1_555 1_555
H22 C35 1_555 1_555
H23 C35 1_555 1_555
C36 C35 1_555 1_555
H24 C36 1_555 1_555
H25 C36 1_555 1_555
C37 C36 1_555 1_555
C38 C37 1_555 1_555
C39 C34 1_555 1_555
C40 C41 1_555 1_555
C41 C37 1_555 1_555
C42 C41 1_555 1_555
H26 C42 1_555 1_555
C43 C42 1_555 1_555
C44 C43 1_555 1_555
H27 C44 1_555 1_555
C45 C40 1_555 1_555
H28 C45 1_555 1_555
C46 C43 1_555 1_555
H29 C46 1_555 1_555
H30 C46 1_555 1_555
H31 C46 1_555 1_555
C47 C33 1_555 1_555
C48 C47 1_555 1_555
H32 C48 1_555 1_555
C49 C48 1_555 1_555
H33 C49 1_555 1_555
C50 C49 1_555 1_555
H34 C50 1_555 1_555
C51 C50 1_555 1_555
H35 C51 1_555 1_555
C52 C47 1_555 1_555
H36 C52 1_555 1_555
C53 C54 1_555 1_555
C54 H37 1_555 1_555
H38 C54 1_555 1_555
H39 C54 1_555 1_555
Cl1 C4 1_555 1_555
Cl2 C30 1_555 1_555
N1 C1 1_555 1_555
H40 N1 1_555 1_555
N2 C12 1_555 1_555
H41 N2 1_555 1_555
N3 C27 1_555 1_555
H42 N3 1_555 1_555
N4 C38 1_555 1_555
H43 N4 1_555 1_555
O1 S1 1_555 1_555
O2 S1 1_555 1_555
O3 S1 1_555 1_555
O4 S1 1_555 1_555
O5 C53 1_555 1_555
H44 O5 1_555 1_555
O6 C53 1_555 1_555
O7 H45 1_555 1_555
H46 O7 1_555 1_555
C5 C6 1_555 1_555
C12 C13 1_555 1_555
C13 N1 1_555 1_555
C14 N2 1_555 1_555
C18 C19 1_555 1_555
C25 C26 1_555 1_555
C31 C32 1_555 1_555
C38 C39 1_555 1_555
C39 N3 1_555 1_555
C40 N4 1_555 1_555
C44 C45 1_555 1_555
C51 C52 1_555 1_555

#END
