
#######################################################################
#
#                 Cambridge Crystallographic Data Centre
#                                CCDC 
#
#######################################################################
#
# If this CIF has been generated from an entry in the Cambridge 
# Structural Database, then it will include bibliographic, chemical, 
# crystal, experimental, refinement or atomic coordinate data resulting 
# from the CCDC's data processing and validation procedures.
#
#######################################################################

data_FORDEW
_chemical_formula_moiety         'C25 H23 F1 N4 O2 S1'
_chemical_name_systematic        
4-(4-(3-(4-Fluorophenyl)-5-methyl-1,2-oxazol-4-yl)-1,3-thiazol-2-yl)-N-phenylpiperidine-1-carboxamide
_chemical_properties_biological  'moderate herbicidal activity'
_symmetry_cell_setting           orthorhombic
_symmetry_space_group_name_H-M   'P b c a'
_symmetry_Int_Tables_number      61
_space_group_name_Hall           '-P 2ac 2ab'
loop_
_symmetry_equiv_pos_site_id
_symmetry_equiv_pos_as_xyz
1 x,y,z
2 1/2-x,-y,1/2+z
3 -x,1/2+y,1/2-z
4 1/2+x,1/2-y,-z
5 -x,-y,-z
6 1/2+x,y,1/2-z
7 x,1/2-y,1/2+z
8 1/2-x,1/2+y,z
_cell_length_a                   10.0701(7)
_cell_length_b                   11.1317(8)
_cell_length_c                   41.558(3)
_cell_angle_alpha                90
_cell_angle_beta                 90
_cell_angle_gamma                90
_cell_volume                     4658.54
_exptl_crystal_colour            colorless
_exptl_crystal_description       block
_chemical_melting_point          '146.6-147.0 deg.C'
_cell_formula_units_Z            8
loop_
_atom_site_label
_atom_site_type_symbol
_atom_site_fract_x
_atom_site_fract_y
_atom_site_fract_z
C1 C 0.0352(3) 0.5881(2) 0.04995(6)
C2 C -0.0186(3) 0.5835(2) 0.08076(6)
H1 H 0.0337 0.5572 0.0978
C3 C -0.1483(3) 0.6171(3) 0.08647(8)
H2 H -0.1839 0.6138 0.1071
C4 C -0.2227(3) 0.6552(3) 0.06122(12)
C5 C -0.1756(4) 0.6595(3) 0.03033(10)
H3 H -0.2296 0.6848 0.0135
C6 C -0.0459(3) 0.6254(2) 0.02486(7)
H4 H -0.0123 0.6273 0.0040
C7 C 0.1755(3) 0.5592(2) 0.04463(5)
C8 C 0.2577(2) 0.47459(19) 0.06097(5)
C9 C 0.3791(3) 0.4892(2) 0.04765(6)
C10 C 0.5088(3) 0.4305(2) 0.05340(7)
H5 H 0.5636 0.4821 0.0663
H6 H 0.5518 0.4155 0.0332
H7 H 0.4952 0.3558 0.0645
C11 C 0.2232(2) 0.38733(19) 0.08625(5)
C12 C 0.1312(2) 0.2992(2) 0.08318(6)
C13 C 0.2449(2) 0.3079(2) 0.13466(5)
C14 C 0.2980(2) 0.2886(2) 0.16791(6)
H8 H 0.338(2) 0.364(2) 0.1750(5)
C15 C 0.1932(2) 0.2539(3) 0.19248(6)
H9 H 0.1262 0.3164 0.1935
H10 H 0.1501 0.1802 0.1857
C16 C 0.2524(3) 0.2361(2) 0.22543(6)
H11 H 0.2864 0.3122 0.2333
H12 H 0.1838 0.2091 0.2401
C17 C 0.4653(3) 0.1789(3) 0.20229(6)
H13 H 0.5321 0.1161 0.2024
H14 H 0.5073 0.2534 0.2089
C18 C 0.4078(2) 0.1926(3) 0.16863(6)
H15 H 0.3715 0.1162 0.1616
H16 H 0.4780 0.2150 0.1538
C19 C 0.3869(2) 0.0726(2) 0.24931(5)
C20 C 0.2872(2) -0.0185(2) 0.29777(5)
C21 C 0.3853(2) 0.0082(2) 0.31977(6)
H17 H 0.4535 0.0604 0.3141
C22 C 0.3830(3) -0.0419(2) 0.35000(6)
H18 H 0.4501 -0.0237 0.3646
C23 C 0.2830(3) -0.1182(3) 0.35890(6)
H19 H 0.2802 -0.1498 0.3796
C24 C 0.1871(3) -0.1475(3) 0.33696(7)
H20 H 0.1201 -0.2009 0.3426
C25 C 0.1892(3) -0.0982(3) 0.30641(6)
H21 H 0.1239 -0.1191 0.2916
F1 F -0.34974(18) 0.69258(18) 0.06713(7)
N1 N 0.2421(2) 0.61982(19) 0.02293(5)
N2 N 0.28721(18) 0.39203(16) 0.11558(4)
N3 N 0.35928(18) 0.14843(19) 0.22470(5)
N4 N 0.28039(17) 0.03776(19) 0.26749(4)
H22 H 0.2030(13) 0.045(2) 0.2589(5)
O1 O 0.37335(19) 0.57475(16) 0.02473(4)
O2 O 0.49940(15) 0.03426(18) 0.25464(4)
S1 S 0.12430(7) 0.21750(6) 0.117957(15)
loop_
_geom_bond_atom_site_label_1
_geom_bond_atom_site_label_2
_geom_bond_site_symmetry_1
_geom_bond_site_symmetry_2
C1 C2 1_555 1_555
C2 H1 1_555 1_555
C3 C2 1_555 1_555
H2 C3 1_555 1_555
C4 C3 1_555 1_555
C5 C4 1_555 1_555
H3 C5 1_555 1_555
C6 C1 1_555 1_555
H4 C6 1_555 1_555
C7 C1 1_555 1_555
C8 C7 1_555 1_555
C9 C8 1_555 1_555
C10 C9 1_555 1_555
H5 C10 1_555 1_555
H6 C10 1_555 1_555
H7 C10 1_555 1_555
C11 C8 1_555 1_555
C12 C11 1_555 1_555
C13 C14 1_555 1_555
C14 H8 1_555 1_555
C15 C14 1_555 1_555
H9 C15 1_555 1_555
H10 C15 1_555 1_555
C16 C15 1_555 1_555
H11 C16 1_555 1_555
H12 C16 1_555 1_555
C17 H13 1_555 1_555
H14 C17 1_555 1_555
C18 C14 1_555 1_555
H15 C18 1_555 1_555
H16 C18 1_555 1_555
C19 N3 1_555 1_555
C20 C21 1_555 1_555
C21 H17 1_555 1_555
C22 C21 1_555 1_555
H18 C22 1_555 1_555
C23 C22 1_555 1_555
H19 C23 1_555 1_555
C24 C23 1_555 1_555
H20 C24 1_555 1_555
C25 C20 1_555 1_555
H21 C25 1_555 1_555
F1 C4 1_555 1_555
N1 C7 1_555 1_555
N2 C11 1_555 1_555
N3 C16 1_555 1_555
N4 C19 1_555 1_555
H22 N4 1_555 1_555
O1 C9 1_555 1_555
O2 C19 1_555 1_555
S1 C12 1_555 1_555
C5 C6 1_555 1_555
C13 N2 1_555 1_555
C13 S1 1_555 1_555
C17 C18 1_555 1_555
C17 N3 1_555 1_555
C20 N4 1_555 1_555
C24 C25 1_555 1_555
N1 O1 1_555 1_555

#END
