
#######################################################################
#
#                 Cambridge Crystallographic Data Centre
#                                CCDC 
#
#######################################################################
#
# If this CIF has been generated from an entry in the Cambridge 
# Structural Database, then it will include bibliographic, chemical, 
# crystal, experimental, refinement or atomic coordinate data resulting 
# from the CCDC's data processing and validation procedures.
#
#######################################################################

data_FORGEA
_chemical_formula_moiety         'C24 H12 N4 O4,2(C5 H9 N1 O1)'
_chemical_name_systematic        
'1-methylpyrrolidin-2-one 2,7-bis(pyridin-4-yl)benzo[lmn][3,8]phenanthroline-1,3,6,8(2H,7H)-tetrone'
_symmetry_cell_setting           monoclinic
_symmetry_space_group_name_H-M   'C 2/c'
_symmetry_Int_Tables_number      15
_space_group_name_Hall           '-C 2yn'
loop_
_symmetry_equiv_pos_site_id
_symmetry_equiv_pos_as_xyz
1 x,y,z
2 -x,y,1/2-z
3 1/2+x,1/2+y,z
4 1/2-x,1/2+y,1/2-z
5 -x,-y,-z
6 x,-y,1/2+z
7 1/2-x,1/2-y,-z
8 1/2+x,1/2-y,1/2+z
_cell_length_a                   21.341(5)
_cell_length_b                   6.9041(14)
_cell_length_c                   21.272(4)
_cell_angle_alpha                90
_cell_angle_beta                 103.30(3)
_cell_angle_gamma                90
_cell_volume                     3050.16
_exptl_crystal_colour            yellow
_exptl_crystal_description       monoclinic
_cell_formula_units_Z            4
_exptl_crystal_recrystallization_method 'Re-crystallisation from solvent:'
loop_
_atom_site_label
_atom_site_type_symbol
_atom_site_fract_x
_atom_site_fract_y
_atom_site_fract_z
O1 O 0.22867(9) 0.2861(2) 0.11992(8)
O2 O 0.36779(7) 0.7805(2) 0.18707(6)
N1 N 0.29818(8) 0.5333(2) 0.15350(7)
N2 N 0.35098(11) 0.2435(3) 0.33280(9)
C1 C 0.33316(10) 0.9709(3) 0.06593(9)
H1 H 0.3644 1.0304 0.0978
C2 C 0.30666(9) 0.7992(3) 0.07906(8)
C3 C 0.25956(9) 0.7067(2) 0.03086(8)
C4 C 0.23158(9) 0.5292(3) 0.04264(9)
C5 C 0.18613(10) 0.4419(3) -0.00496(9)
H2 H 0.1680 0.3246 0.0031
C6 C 0.32737(10) 0.7089(3) 0.14394(9)
C7 C 0.25115(10) 0.4369(3) 0.10687(9)
C8 C 0.31820(10) 0.4385(3) 0.21566(9)
C9 C 0.30093(11) 0.5119(3) 0.26929(9)
H3 H 0.2779 0.6270 0.2673
C10 C 0.31891(12) 0.4092(3) 0.32635(10)
H4 H 0.3077 0.4599 0.3627
C11 C 0.36738(15) 0.1782(4) 0.28025(12)
H5 H 0.3901 0.0623 0.2834
C12 C 0.35291(12) 0.2710(3) 0.22101(11)
H6 H 0.3665 0.2206 0.1858
O1F O 0.27133(9) 1.2139(2) -0.11992(8)
O2F O 0.13221(7) 0.7195(2) -0.18707(6)
N1F N 0.20182(8) 0.9667(2) -0.15350(7)
N2F N 0.14902(11) 1.2565(3) -0.33280(9)
C1F C 0.16684(10) 0.5291(3) -0.06593(9)
H1F H 0.1356 0.4696 -0.0978
C2F C 0.19334(9) 0.7008(3) -0.07906(8)
C3F C 0.24044(9) 0.7933(2) -0.03086(8)
C4F C 0.26842(9) 0.9708(3) -0.04264(9)
C5F C 0.31387(10) 1.0581(3) 0.00496(9)
H2F H 0.3320 1.1754 -0.0031
C6F C 0.17263(10) 0.7911(3) -0.14394(9)
C7F C 0.24885(10) 1.0631(3) -0.10687(9)
C8F C 0.18180(10) 1.0615(3) -0.21566(9)
C9F C 0.19907(11) 0.9881(3) -0.26929(9)
H3F H 0.2221 0.8730 -0.2673
C10F C 0.18109(12) 1.0908(3) -0.32635(10)
H4F H 0.1923 1.0401 -0.3627
C11F C 0.13262(15) 1.3218(4) -0.28025(12)
H5F H 0.1099 1.4377 -0.2834
C12F C 0.14709(12) 1.2290(3) -0.22101(11)
H6F H 0.1335 1.2794 -0.1858
O3 O 0.09054(11) -0.1097(4) 0.42524(11)
N3 N 0.03954(12) 0.1624(4) 0.44351(13)
C13 C -0.0116(2) 0.2928(6) 0.4096(3)
H7 H 0.0023 0.4269 0.4134
H8 H -0.0503 0.2796 0.4259
C14 C -0.0224(2) 0.2216(8) 0.3402(3)
H9 H -0.0681 0.2131 0.3206
H10 H -0.0028 0.3098 0.3149
C15 C 0.00662(16) 0.0357(5) 0.34262(15)
H11 H 0.0309 0.0239 0.3094
H12 H -0.0259 -0.0650 0.3361
C16 C 0.05103(13) 0.0188(4) 0.40933(14)
C17 C 0.0706(2) 0.1792(8) 0.51101(16)
H13 H 0.0557 0.2941 0.5284
H14 H 0.1164 0.1869 0.5158
H15 H 0.0605 0.0679 0.5338
loop_
_geom_bond_atom_site_label_1
_geom_bond_atom_site_label_2
_geom_bond_site_symmetry_1
_geom_bond_site_symmetry_2
O1 C7 1_555 1_555
O2 C6 1_555 1_555
N1 C6 1_555 1_555
N2 C10 1_555 1_555
C1 H1 1_555 1_555
C2 C1 1_555 1_555
C3 C2 1_555 1_555
C4 C3 1_555 1_555
C5 C4 1_555 1_555
H2 C5 1_555 1_555
C6 C2 1_555 1_555
C7 N1 1_555 1_555
C8 N1 1_555 1_555
C9 C8 1_555 1_555
H3 C9 1_555 1_555
C10 C9 1_555 1_555
H4 C10 1_555 1_555
C11 N2 1_555 1_555
H5 C11 1_555 1_555
C12 C8 1_555 1_555
H6 C12 1_555 1_555
O3 C16 1_555 1_555
N3 C13 1_555 1_555
C13 H7 1_555 1_555
H8 C13 1_555 1_555
C14 C13 1_555 1_555
H9 C14 1_555 1_555
H10 C14 1_555 1_555
C15 C14 1_555 1_555
H11 C15 1_555 1_555
H12 C15 1_555 1_555
C16 N3 1_555 1_555
C17 N3 1_555 1_555
H13 C17 1_555 1_555
H14 C17 1_555 1_555
H15 C17 1_555 1_555
O1F C7F 1_555 1_555
O2F C6F 1_555 1_555
N1F C6F 1_555 1_555
N2F C10F 1_555 1_555
C1F C5 1_555 1_555
H1F C1F 1_555 1_555
C2F C1F 1_555 1_555
C3F C3 1_555 1_555
C4F C3F 1_555 1_555
C5F C1 1_555 1_555
H2F C5F 1_555 1_555
C6F C2F 1_555 1_555
C7F N1F 1_555 1_555
C8F N1F 1_555 1_555
C9F C8F 1_555 1_555
H3F C9F 1_555 1_555
C10F C9F 1_555 1_555
H4F C10F 1_555 1_555
C11F N2F 1_555 1_555
H5F C11F 1_555 1_555
C12F C8F 1_555 1_555
H6F C12F 1_555 1_555
C4 C7 1_555 1_555
C11 C12 1_555 1_555
C15 C16 1_555 1_555
C2F C3F 1_555 1_555
C4F C5F 1_555 1_555
C4F C7F 1_555 1_555
C11F C12F 1_555 1_555

#END
