
#######################################################################
#
#                 Cambridge Crystallographic Data Centre
#                                CCDC 
#
#######################################################################
#
# If this CIF has been generated from an entry in the Cambridge 
# Structural Database, then it will include bibliographic, chemical, 
# crystal, experimental, refinement or atomic coordinate data resulting 
# from the CCDC's data processing and validation procedures.
#
#######################################################################

data_FORJUT
_chemical_formula_moiety         'C34 H38 N2'
_chemical_name_systematic        
4,4'-(2,2-Diphenylethene-1,1-diyl)bis(N,N-diethylaniline)
_symmetry_cell_setting           monoclinic
_symmetry_space_group_name_H-M   'P 21/n'
_symmetry_Int_Tables_number      14
_space_group_name_Hall           '-P 2yn'
loop_
_symmetry_equiv_pos_site_id
_symmetry_equiv_pos_as_xyz
1 x,y,z
2 1/2-x,1/2+y,1/2-z
3 -x,-y,-z
4 1/2+x,1/2-y,1/2+z
_cell_length_a                   12.6244(2)
_cell_length_b                   14.8163(3)
_cell_length_c                   14.6426(3)
_cell_angle_alpha                90
_cell_angle_beta                 91.253(2)
_cell_angle_gamma                90
_cell_volume                     2738.2
_exptl_crystal_colour            yellow
_exptl_crystal_description       plate
_cell_formula_units_Z            4
_exptl_crystal_preparation       Luminescent
loop_
_atom_site_label
_atom_site_type_symbol
_atom_site_fract_x
_atom_site_fract_y
_atom_site_fract_z
N1 N -0.01032(17) 0.58873(18) 0.4125(2)
N2 N 0.30420(11) 0.01453(9) 0.46215(9)
C1 C 0.36942(11) 0.38428(11) 0.36666(10)
C2 C 0.46441(11) 0.41902(11) 0.34183(10)
C3 C 0.27233(12) 0.44081(11) 0.37387(10)
C4 C 0.27298(12) 0.52479(12) 0.41664(11)
H1 H 0.3380 0.5480 0.4405
C5 C 0.18202(13) 0.57515(13) 0.42533(12)
H2 H 0.1863 0.6324 0.4544
C6 C 0.08294(13) 0.54415(12) 0.39241(11)
C7 C 0.08273(12) 0.46034(12) 0.34803(11)
H3 H 0.0183 0.4377 0.3224
C8 C 0.17439(12) 0.40997(11) 0.34085(10)
H4 H 0.1705 0.3524 0.3125
C9 C -0.00799(18) 0.66949(17) 0.46759(16)
H5 H 0.0437 0.6602 0.5185
H6 H -0.0786 0.6771 0.4947
C10 C 0.0204(3) 0.7572(2) 0.4190(2)
H7 H 0.0158 0.8078 0.4619
H8 H -0.0291 0.7671 0.3675
H9 H 0.0927 0.7531 0.3964
C11 C -0.11223(14) 0.55815(16) 0.37719(14)
H10 H -0.1676 0.5854 0.4153
H11 H -0.1157 0.4920 0.3862
C12 C -0.14094(18) 0.57721(19) 0.27919(17)
H12 H -0.2111 0.5520 0.2648
H13 H -0.0884 0.5495 0.2397
H14 H -0.1421 0.6426 0.2691
C13 C 0.35409(11) 0.28764(11) 0.39023(10)
C14 C 0.38718(12) 0.21689(11) 0.33492(10)
H15 H 0.4219 0.2306 0.2797
C15 C 0.37128(12) 0.12770(11) 0.35753(10)
H16 H 0.3950 0.0817 0.3177
C16 C 0.32031(11) 0.10334(11) 0.43890(10)
C17 C 0.28575(11) 0.17443(11) 0.49424(10)
H17 H 0.2507 0.1611 0.5494
C18 C 0.30184(11) 0.26353(10) 0.46972(10)
H18 H 0.2764 0.3099 0.5083
C19 C 0.33088(13) -0.05922(11) 0.40147(11)
H19 H 0.3204 -0.0390 0.3375
H20 H 0.2817 -0.1100 0.4119
C20 C 0.44378(15) -0.09268(14) 0.41440(14)
H21 H 0.4565 -0.1425 0.3720
H22 H 0.4546 -0.1138 0.4773
H23 H 0.4932 -0.0433 0.4022
C21 C 0.26306(15) -0.01071(12) 0.55053(11)
H24 H 0.2860 0.0347 0.5964
H25 H 0.2940 -0.0695 0.5691
C22 C 0.14344(18) -0.01799(18) 0.55060(17)
H26 H 0.1207 -0.0367 0.6113
H27 H 0.1201 -0.0628 0.5052
H28 H 0.1122 0.0408 0.5353
C23 C 0.47484(11) 0.51317(11) 0.30638(10)
C24 C 0.41324(12) 0.54374(12) 0.23222(11)
H29 H 0.3649 0.5036 0.2026
C25 C 0.42161(13) 0.63190(13) 0.20127(12)
H30 H 0.3788 0.6517 0.1510
C26 C 0.49182(13) 0.69079(12) 0.24314(12)
H31 H 0.4972 0.7513 0.2222
C27 C 0.55446(13) 0.66109(12) 0.31594(12)
H32 H 0.6030 0.7014 0.3450
C28 C 0.54670(12) 0.57291(12) 0.34661(11)
H33 H 0.5911 0.5530 0.3958
C29 C 0.56578(12) 0.36754(11) 0.34912(10)
C30 C 0.59172(12) 0.31532(12) 0.42585(11)
H34 H 0.5439 0.3122 0.4749
C31 C 0.68618(13) 0.26819(12) 0.43123(12)
H35 H 0.7024 0.2327 0.4837
C32 C 0.75745(14) 0.27224(13) 0.36073(14)
H36 H 0.8217 0.2390 0.3643
C33 C 0.73436(14) 0.32479(14) 0.28557(13)
H37 H 0.7834 0.3286 0.2374
C34 C 0.63950(13) 0.37248(12) 0.27971(11)
H38 H 0.6247 0.4090 0.2276
N3? N -0.0005(6) 0.6063(5) 0.3824(5)
C35? C 0.0022(7) 0.7050(6) 0.4060(6)
H39? H 0.0682 0.7312 0.3821
H40? H -0.0580 0.7350 0.3739
C36? C -0.0030(7) 0.7264(7) 0.5029(6)
H41? H 0.0010 0.7919 0.5113
H42? H 0.0565 0.6975 0.5357
H43? H -0.0699 0.7040 0.5269
loop_
_geom_bond_atom_site_label_1
_geom_bond_atom_site_label_2
_geom_bond_site_symmetry_1
_geom_bond_site_symmetry_2
N1 C6 1_555 1_555
N2 C16 1_555 1_555
C1 C2 1_555 1_555
C2 C23 1_555 1_555
C3 C1 1_555 1_555
C4 C3 1_555 1_555
H1 C4 1_555 1_555
C5 C4 1_555 1_555
H2 C5 1_555 1_555
C6 C5 1_555 1_555
C7 C6 1_555 1_555
H3 C7 1_555 1_555
C8 C3 1_555 1_555
H4 C8 1_555 1_555
C9 N1 1_555 1_555
H5 C9 1_555 1_555
H6 C9 1_555 1_555
C10 C9 1_555 1_555
H7 C10 1_555 1_555
H8 C10 1_555 1_555
H9 C10 1_555 1_555
C11 N1 1_555 1_555
H10 C11 1_555 1_555
H11 C11 1_555 1_555
C12 C11 1_555 1_555
H12 C12 1_555 1_555
H13 C12 1_555 1_555
H14 C12 1_555 1_555
C13 C1 1_555 1_555
C14 C13 1_555 1_555
H15 C14 1_555 1_555
C15 C14 1_555 1_555
H16 C15 1_555 1_555
C16 C15 1_555 1_555
C17 C16 1_555 1_555
H17 C17 1_555 1_555
C18 C13 1_555 1_555
H18 C18 1_555 1_555
C19 N2 1_555 1_555
H19 C19 1_555 1_555
H20 C19 1_555 1_555
C20 C19 1_555 1_555
H21 C20 1_555 1_555
H22 C20 1_555 1_555
H23 C20 1_555 1_555
C21 N2 1_555 1_555
H24 C21 1_555 1_555
H25 C21 1_555 1_555
C22 C21 1_555 1_555
H26 C22 1_555 1_555
H27 C22 1_555 1_555
H28 C22 1_555 1_555
C23 C24 1_555 1_555
C24 H29 1_555 1_555
C25 C24 1_555 1_555
H30 C25 1_555 1_555
C26 C25 1_555 1_555
H31 C26 1_555 1_555
C27 C26 1_555 1_555
H32 C27 1_555 1_555
C28 C23 1_555 1_555
H33 C28 1_555 1_555
C29 C2 1_555 1_555
C30 C29 1_555 1_555
H34 C30 1_555 1_555
C31 C30 1_555 1_555
H35 C31 1_555 1_555
C32 C31 1_555 1_555
H36 C32 1_555 1_555
C33 C32 1_555 1_555
H37 C33 1_555 1_555
C34 C29 1_555 1_555
H38 C34 1_555 1_555
C7 C8 1_555 1_555
C17 C18 1_555 1_555
C27 C28 1_555 1_555
C33 C34 1_555 1_555

#END
