
#######################################################################
#
#                 Cambridge Crystallographic Data Centre
#                                CCDC 
#
#######################################################################
#
# If this CIF has been generated from an entry in the Cambridge 
# Structural Database, then it will include bibliographic, chemical, 
# crystal, experimental, refinement or atomic coordinate data resulting 
# from the CCDC's data processing and validation procedures.
#
#######################################################################

data_FORRUB
_chemical_name_common            2,4-di-nitro-NNO-azoxytoluene
_chemical_formula_moiety         'C7 H6 N6 O6'
_chemical_name_systematic        
1,1'-(4-methyl-1,3-phenylene)bis(2-nitro-1\l^5^-diazenol)
_symmetry_cell_setting           monoclinic
_symmetry_space_group_name_H-M   'P 21/n'
_symmetry_Int_Tables_number      14
_space_group_name_Hall           '-P 2yn'
loop_
_symmetry_equiv_pos_site_id
_symmetry_equiv_pos_as_xyz
1 x,y,z
2 1/2-x,1/2+y,1/2-z
3 -x,-y,-z
4 1/2+x,1/2-y,1/2+z
_cell_length_a                   5.3336(13)
_cell_length_b                   7.9688(19)
_cell_length_c                   25.494(6)
_cell_angle_alpha                90
_cell_angle_beta                 94.454(3)
_cell_angle_gamma                90
_cell_volume                     1080.28
_exptl_crystal_colour            colorless
_exptl_crystal_description       Prism
_chemical_melting_point          '331.5 K'
_cell_formula_units_Z            4
_exptl_crystal_recrystallization_method n-hexane
loop_
_atom_site_label
_atom_site_type_symbol
_atom_site_fract_x
_atom_site_fract_y
_atom_site_fract_z
O1 O 0.90719(15) 0.61073(11) 0.07112(4)
O2 O 1.43465(18) 0.76215(12) 0.08712(4)
O3 O 1.3369(2) 0.66481(13) 0.00842(4)
O4 O 0.53791(18) 0.41766(11) 0.23065(4)
O5 O 0.06425(18) 0.26715(12) 0.26346(4)
O6 O 0.3853(2) 0.18570(14) 0.31460(4)
N1 N 1.05511(18) 0.49392(12) 0.08297(4)
N2 N 1.29328(18) 0.49489(13) 0.07901(4)
N3 N 1.35681(19) 0.65728(13) 0.05587(4)
N4 N 0.53177(19) 0.27411(12) 0.21163(4)
N5 N 0.3992(2) 0.15170(13) 0.22674(4)
N6 N 0.2722(2) 0.21033(13) 0.27243(4)
C1 C 0.9557(2) 0.34232(14) 0.10670(5)
C2 C 1.0206(2) 0.18076(15) 0.09049(5)
C3 C 0.9048(2) 0.04830(15) 0.11548(5)
H1 H 0.9393 -0.0634 0.1051
C4 C 0.7425(2) 0.07299(15) 0.15456(5)
H2 H 0.6694 -0.0195 0.1712
C5 C 0.6893(2) 0.23685(15) 0.16873(5)
C6 C 0.7924(2) 0.37387(15) 0.14488(5)
H3 H 0.7522 0.4853 0.1544
C7 C 1.1953(3) 0.14620(16) 0.04815(5)
H4 H 1.1518 0.2193 0.0179
H5 H 1.1790 0.0286 0.0372
H6 H 1.3691 0.1682 0.0618
loop_
_geom_bond_atom_site_label_1
_geom_bond_atom_site_label_2
_geom_bond_site_symmetry_1
_geom_bond_site_symmetry_2
O1 N1 1_555 1_555
O2 N3 1_555 1_555
O3 N3 1_555 1_555
O4 N4 1_555 1_555
O5 N6 1_555 1_555
O6 N6 1_555 1_555
N1 N2 1_555 1_555
N2 N3 1_555 1_555
N4 N5 1_555 1_555
N5 N6 1_555 1_555
C1 N1 1_555 1_555
C2 C1 1_555 1_555
C3 C2 1_555 1_555
H1 C3 1_555 1_555
C4 C3 1_555 1_555
H2 C4 1_555 1_555
C5 N4 1_555 1_555
C6 C1 1_555 1_555
H3 C6 1_555 1_555
C7 C2 1_555 1_555
H4 C7 1_555 1_555
H5 C7 1_555 1_555
H6 C7 1_555 1_555
C4 C5 1_555 1_555
C5 C6 1_555 1_555

#END
