
#######################################################################
#
#                 Cambridge Crystallographic Data Centre
#                                CCDC 
#
#######################################################################
#
# If this CIF has been generated from an entry in the Cambridge 
# Structural Database, then it will include bibliographic, chemical, 
# crystal, experimental, refinement or atomic coordinate data resulting 
# from the CCDC's data processing and validation procedures.
#
#######################################################################

data_FOSTEO
_chemical_formula_moiety         'C28 H28 N2 O4 S2'
_chemical_name_systematic        
2,5-bis((4-Methylphenyl)sulfonyl)-6-phenyl-1,2,3,5,6,8a-hexahydropyrrolo[3,4-c]azepine
_symmetry_cell_setting           triclinic
_symmetry_space_group_name_H-M   'P -1'
_symmetry_Int_Tables_number      2
_space_group_name_Hall           '-P 1'
loop_
_symmetry_equiv_pos_site_id
_symmetry_equiv_pos_as_xyz
1 x,y,z
2 -x,-y,-z
_cell_length_a                   13.141(5)
_cell_length_b                   13.962(5)
_cell_length_c                   16.150(6)
_cell_angle_alpha                66.89(3)
_cell_angle_beta                 74.79(4)
_cell_angle_gamma                89.89(3)
_cell_volume                     2612.77
_exptl_crystal_colour            colorless
_exptl_crystal_description       prism
_cell_formula_units_Z            4
loop_
_atom_site_label
_atom_site_type_symbol
_atom_site_fract_x
_atom_site_fract_y
_atom_site_fract_z
S1 S 0.64425(10) 0.05716(9) 0.29622(9)
S2 S 0.53398(9) 0.60089(8) 0.05912(7)
O1 O 0.7521(2) 0.0724(2) 0.2414(2)
O2 O 0.6076(3) -0.0286(2) 0.3875(2)
O3 O 0.6225(2) 0.6370(2) -0.02368(17)
O4 O 0.4296(2) 0.6251(2) 0.05293(18)
N1 N 0.6225(3) 0.1649(2) 0.3129(2)
N2 N 0.5286(2) 0.4751(2) 0.1060(2)
C1 C 0.5452(3) 0.1623(3) 0.3986(3)
H1 H 0.5402 0.0918 0.4475
C2 C 0.4357(3) 0.1803(3) 0.3898(3)
H2 H 0.3809 0.1460 0.4445
C3 C 0.4064(3) 0.2376(3) 0.3156(3)
H3 H 0.3333 0.2368 0.3254
C4 C 0.4708(3) 0.3035(3) 0.2185(3)
H4 H 0.4540 0.2736 0.1773
C5 C 0.4393(3) 0.4149(3) 0.1872(3)
H5 H 0.3738 0.4184 0.1697
H6 H 0.4309 0.4402 0.2363
C6 C 0.6267(3) 0.4251(3) 0.1128(3)
H7 H 0.6762 0.4664 0.1244
H8 H 0.6609 0.4161 0.0556
C7 C 0.5893(3) 0.3216(3) 0.1940(3)
C8 C 0.6556(3) 0.2611(3) 0.2319(3)
H9 H 0.7280 0.2820 0.2045
C9 C 0.5661(3) 0.0500(3) 0.2263(3)
C10 C 0.5956(3) 0.1120(3) 0.1320(3)
H10 H 0.6599 0.1547 0.1044
C11 C 0.5308(4) 0.1115(3) 0.0784(3)
H11 H 0.5507 0.1560 0.0149
C12 C 0.4376(4) 0.0473(4) 0.1155(4)
C13 C 0.4101(4) -0.0171(4) 0.2102(4)
H12 H 0.3476 -0.0626 0.2369
C14 C 0.4723(4) -0.0156(3) 0.2657(3)
H13 H 0.4514 -0.0586 0.3295
C15 C 0.3643(4) 0.0496(4) 0.0575(4)
H14 H 0.3176 0.1024 0.0582
H15 H 0.3233 -0.0176 0.0832
H16 H 0.4053 0.0654 -0.0060
C16 C 0.5921(4) 0.2376(4) 0.4293(3)
C17 C 0.5655(4) 0.3366(4) 0.4089(3)
H17 H 0.5141 0.3591 0.3775
C18 C 0.6139(5) 0.4044(5) 0.4340(4)
H18 H 0.5965 0.4727 0.4181
C19 C 0.6874(6) 0.3709(6) 0.4822(4)
H19 H 0.7188 0.4157 0.5007
C20 C 0.7145(5) 0.2718(6) 0.5033(4)
H20 H 0.7648 0.2490 0.5357
C21 C 0.6672(4) 0.2051(4) 0.4764(3)
H21 H 0.6865 0.1377 0.4902
C22 C 0.5624(3) 0.6468(3) 0.1381(3)
C23 C 0.4818(4) 0.6663(3) 0.2015(3)
H22 H 0.4118 0.6587 0.2007
C24 C 0.5055(4) 0.6967(4) 0.2656(3)
H23 H 0.4506 0.7105 0.3078
C25 C 0.6068(4) 0.7077(3) 0.2699(3)
C26 C 0.6877(4) 0.6882(3) 0.2054(3)
H24 H 0.7576 0.6955 0.2067
C27 C 0.6661(3) 0.6584(3) 0.1396(3)
H25 H 0.7210 0.6461 0.0964
C28 C 0.6329(4) 0.7409(4) 0.3406(3)
H26 H 0.5695 0.7565 0.3765
H27 H 0.6839 0.8022 0.3086
H28 H 0.6620 0.6853 0.3820
S3 S 0.17431(10) 0.75343(9) 0.21519(10)
S4 S 0.02027(10) 0.33187(9) 0.08330(8)
O5 O 0.2670(2) 0.7791(2) 0.1365(2)
O6 O 0.1765(3) 0.7754(2) 0.2938(2)
O7 O 0.1046(2) 0.3583(2) -0.00160(18)
O8 O -0.0864(2) 0.3073(2) 0.0865(2)
N3 N 0.1432(3) 0.6275(2) 0.2539(2)
N4 N 0.0216(3) 0.4306(2) 0.1109(2)
C29 C 0.0676(3) 0.5708(3) 0.3470(3)
H29 H 0.0690 0.6134 0.3826
C30 C -0.0453(3) 0.5572(3) 0.3469(3)
H30 H -0.0961 0.5611 0.3975
C31 C -0.0823(3) 0.5407(3) 0.2857(3)
H31 H -0.1559 0.5320 0.3001
C32 C -0.0247(3) 0.5335(3) 0.1967(3)
H32 H -0.0432 0.5914 0.1463
C33 C -0.0604(3) 0.4323(3) 0.1913(3)
H33 H -0.0624 0.3716 0.2483
H34 H -0.1299 0.4345 0.1808
C34 C 0.1229(3) 0.4820(3) 0.1030(3)
H35 H 0.1560 0.5314 0.0389
H36 H 0.1712 0.4308 0.1227
C35 C 0.0936(3) 0.5373(3) 0.1674(3)
C36 C 0.1654(3) 0.5803(3) 0.1888(3)
H37 H 0.2362 0.5799 0.1592
C37 C 0.0705(3) 0.8124(3) 0.1729(3)
C38 C 0.0042(4) 0.8623(4) 0.2193(3)
H38 H 0.0149 0.8653 0.2729
C39 C -0.0777(4) 0.9078(4) 0.1870(4)
H39 H -0.1211 0.9434 0.2179
C40 C -0.0968(4) 0.9017(4) 0.1102(4)
C41 C -0.0308(5) 0.8517(4) 0.0643(4)
H40 H -0.0430 0.8472 0.0117
C42 C 0.0542(4) 0.8075(3) 0.0949(3)
H41 H 0.0997 0.7749 0.0623
C43 C -0.1892(4) 0.9501(4) 0.0754(4)
H42 H -0.1804 0.9538 0.0133
H43 H -0.1911 1.0194 0.0741
H44 H -0.2543 0.9077 0.1168
C44 C 0.1086(4) 0.4692(4) 0.3970(3)
C45 C 0.0471(4) 0.3746(4) 0.4399(3)
H45 H -0.0219 0.3714 0.4357
C46 C 0.0850(6) 0.2840(5) 0.4891(4)
H46 H 0.0414 0.2207 0.5190
C47 C 0.1859(7) 0.2879(6) 0.4937(4)
H47 H 0.2116 0.2269 0.5271
C48 C 0.2504(5) 0.3801(6) 0.4500(4)
H48 H 0.3202 0.3822 0.4524
C49 C 0.2108(4) 0.4704(4) 0.4020(3)
H49 H 0.2547 0.5336 0.3723
C50 C 0.0541(4) 0.2270(3) 0.1708(3)
C51 C -0.0232(4) 0.1603(4) 0.2483(3)
H50 H -0.0944 0.1677 0.2522
C52 C 0.0044(4) 0.0832(4) 0.3195(4)
H51 H -0.0486 0.0379 0.3712
C53 C 0.1087(5) 0.0711(4) 0.3167(4)
C54 C 0.1842(4) 0.1377(4) 0.2393(4)
H52 H 0.2553 0.1302 0.2361
C55 C 0.1594(4) 0.2151(3) 0.1661(3)
H53 H 0.2127 0.2591 0.1138
C56 C 0.1391(4) -0.0148(4) 0.3955(4)
H54 H 0.0785 -0.0428 0.4497
H55 H 0.1948 0.0133 0.4107
H56 H 0.1635 -0.0696 0.3760
loop_
_geom_bond_atom_site_label_1
_geom_bond_atom_site_label_2
_geom_bond_site_symmetry_1
_geom_bond_site_symmetry_2
S1 O1 1_555 1_555
S2 O3 1_555 1_555
O2 S1 1_555 1_555
O4 S2 1_555 1_555
N1 S1 1_555 1_555
N2 S2 1_555 1_555
C1 N1 1_555 1_555
H1 C1 1_555 1_555
C2 C1 1_555 1_555
H2 C2 1_555 1_555
C3 C2 1_555 1_555
H3 C3 1_555 1_555
C4 C3 1_555 1_555
H4 C4 1_555 1_555
C5 N2 1_555 1_555
H5 C5 1_555 1_555
H6 C5 1_555 1_555
C6 N2 1_555 1_555
H7 C6 1_555 1_555
H8 C6 1_555 1_555
C7 C4 1_555 1_555
C8 N1 1_555 1_555
H9 C8 1_555 1_555
C9 S1 1_555 1_555
C10 C9 1_555 1_555
H10 C10 1_555 1_555
C11 C10 1_555 1_555
H11 C11 1_555 1_555
C12 C11 1_555 1_555
C13 C12 1_555 1_555
H12 C13 1_555 1_555
C14 C9 1_555 1_555
H13 C14 1_555 1_555
C15 C12 1_555 1_555
H14 C15 1_555 1_555
H15 C15 1_555 1_555
H16 C15 1_555 1_555
C16 C1 1_555 1_555
C17 C16 1_555 1_555
H17 C17 1_555 1_555
C18 C17 1_555 1_555
H18 C18 1_555 1_555
C19 C18 1_555 1_555
H19 C19 1_555 1_555
C20 C19 1_555 1_555
H20 C20 1_555 1_555
C21 C16 1_555 1_555
H21 C21 1_555 1_555
C22 S2 1_555 1_555
C23 C22 1_555 1_555
H22 C23 1_555 1_555
C24 C23 1_555 1_555
H23 C24 1_555 1_555
C25 C24 1_555 1_555
C26 C25 1_555 1_555
H24 C26 1_555 1_555
C27 C22 1_555 1_555
H25 C27 1_555 1_555
C28 C25 1_555 1_555
H26 C28 1_555 1_555
H27 C28 1_555 1_555
H28 C28 1_555 1_555
S3 O5 1_555 1_555
S4 O7 1_555 1_555
O6 S3 1_555 1_555
O8 S4 1_555 1_555
N3 S3 1_555 1_555
N4 S4 1_555 1_555
C29 N3 1_555 1_555
H29 C29 1_555 1_555
C30 C29 1_555 1_555
H30 C30 1_555 1_555
C31 C30 1_555 1_555
H31 C31 1_555 1_555
C32 C31 1_555 1_555
H32 C32 1_555 1_555
C33 N4 1_555 1_555
H33 C33 1_555 1_555
H34 C33 1_555 1_555
C34 N4 1_555 1_555
H35 C34 1_555 1_555
H36 C34 1_555 1_555
C35 C32 1_555 1_555
C36 N3 1_555 1_555
H37 C36 1_555 1_555
C37 S3 1_555 1_555
C38 C37 1_555 1_555
H38 C38 1_555 1_555
C39 C38 1_555 1_555
H39 C39 1_555 1_555
C40 C39 1_555 1_555
C41 C40 1_555 1_555
H40 C41 1_555 1_555
C42 C37 1_555 1_555
H41 C42 1_555 1_555
C43 C40 1_555 1_555
H42 C43 1_555 1_555
H43 C43 1_555 1_555
H44 C43 1_555 1_555
C44 C29 1_555 1_555
C45 C44 1_555 1_555
H45 C45 1_555 1_555
C46 C45 1_555 1_555
H46 C46 1_555 1_555
C47 C46 1_555 1_555
H47 C47 1_555 1_555
C48 C47 1_555 1_555
H48 C48 1_555 1_555
C49 C44 1_555 1_555
H49 C49 1_555 1_555
C50 S4 1_555 1_555
C51 C50 1_555 1_555
H50 C51 1_555 1_555
C52 C51 1_555 1_555
H51 C52 1_555 1_555
C53 C52 1_555 1_555
C54 C53 1_555 1_555
H52 C54 1_555 1_555
C55 C50 1_555 1_555
H53 C55 1_555 1_555
C56 C53 1_555 1_555
H54 C56 1_555 1_555
H55 C56 1_555 1_555
H56 C56 1_555 1_555
C4 C5 1_555 1_555
C6 C7 1_555 1_555
C7 C8 1_555 1_555
C13 C14 1_555 1_555
C20 C21 1_555 1_555
C26 C27 1_555 1_555
C32 C33 1_555 1_555
C34 C35 1_555 1_555
C35 C36 1_555 1_555
C41 C42 1_555 1_555
C48 C49 1_555 1_555
C54 C55 1_555 1_555

#END
