
#######################################################################
#
#                 Cambridge Crystallographic Data Centre
#                                CCDC 
#
#######################################################################
#
# If this CIF has been generated from an entry in the Cambridge 
# Structural Database, then it will include bibliographic, chemical, 
# crystal, experimental, refinement or atomic coordinate data resulting 
# from the CCDC's data processing and validation procedures.
#
#######################################################################

data_FOTCAT
_chemical_formula_moiety         'C57 H70 K1 N1 O5,C2 H3 N1'
_chemical_name_systematic        
'(\h^2^,\h^2^-5,11,17,23,29-Penta-t-butyl-31,33-dihydroxy-32,34,35-trioxycalix(5)arene)-acetonitrile-potassium acetonitrile solvate'
_symmetry_cell_setting           triclinic
_symmetry_space_group_name_H-M   'P -1'
_symmetry_Int_Tables_number      2
_space_group_name_Hall           '-P 1'
loop_
_symmetry_equiv_pos_site_id
_symmetry_equiv_pos_as_xyz
1 x,y,z
2 -x,-y,-z
_cell_length_a                   12.333(3)
_cell_length_b                   13.352(4)
_cell_length_c                   17.870(5)
_cell_angle_alpha                81.001(5)
_cell_angle_beta                 76.788(5)
_cell_angle_gamma                84.162(4)
_cell_volume                     2822.84
_exptl_crystal_colour            colorless
_exptl_crystal_description       block
_cell_formula_units_Z            2
loop_
_atom_site_label
_atom_site_type_symbol
_atom_site_fract_x
_atom_site_fract_y
_atom_site_fract_z
K1 K 0.53621(6) 0.61279(6) 0.11285(5)
O1 O 0.40707(17) 0.42830(15) 0.15127(11)
C1 C 0.4128(2) 0.3780(2) 0.22306(16)
N1 N 0.4882(3) 0.6050(3) 0.2709(3)
O2 O 0.29928(17) 0.58970(15) 0.14521(11)
C2 C 0.5090(2) 0.3164(2) 0.23242(17)
C3 C 0.5166(3) 0.2681(2) 0.30639(18)
H1 H 0.5816 0.2271 0.3124
O3 O 0.37611(16) 0.82826(15) -0.01839(12)
H2 H 0.3589 0.7689 -0.0145
O4 O 0.62690(16) 0.65938(15) -0.03786(12)
C4 C 0.4323(3) 0.2783(3) 0.37119(19)
O5 O 0.68254(18) 0.37362(15) 0.00679(12)
H3 H 0.7024 0.4043 -0.0377
C5 C 0.3350(3) 0.3360(3) 0.35913(19)
H4 H 0.2752 0.3419 0.4019
C6 C 0.3232(2) 0.3851(2) 0.28647(18)
C7 C 0.4410(3) 0.2235(3) 0.4526(2)
C8 C 0.3815(5) 0.2840(5) 0.5163(2)
H5 H 0.3919 0.2481 0.5660
H6 H 0.3025 0.2927 0.5163
H7 H 0.4119 0.3501 0.5076
C9 C 0.3714(7) 0.1303(6) 0.4699(5)
H8 H 0.2987 0.1502 0.4580
H9 H 0.3622 0.1027 0.5244
H10 H 0.4093 0.0790 0.4383
C10 C 0.5575(7) 0.1844(7) 0.4585(5)
H11 H 0.5661 0.1118 0.4564
H12 H 0.5715 0.1976 0.5072
H13 H 0.6103 0.2185 0.4157
C11 C 0.2120(2) 0.4390(2) 0.27510(18)
H14 H 0.1548 0.4028 0.2673
C12 C 0.1965(2) 0.5520(2) 0.27671(18)
C13 C 0.1349(3) 0.5896(3) 0.3436(2)
H15 H 0.1091 0.5430 0.3878
C14 C 0.1104(3) 0.6924(3) 0.3477(2)
C15 C 0.1479(3) 0.7594(3) 0.2795(2)
H16 H 0.1308 0.8296 0.2800
C16 C 0.2087(2) 0.7261(2) 0.21239(18)
C17 C 0.2361(2) 0.6216(2) 0.21095(17)
C18 C 0.0439(4) 0.7331(4) 0.4210(3)
C19 C 0.1144(8) 0.8056(7) 0.4469(6)
H17 H 0.1784 0.7673 0.4627
H18 H 0.0691 0.8369 0.4902
H19 H 0.1397 0.8580 0.4040
C20 C -0.0614(7) 0.8020(7) 0.3987(6)
H20 H -0.1079 0.7606 0.3808
H21 H -0.0355 0.8565 0.3577
H22 H -0.1044 0.8306 0.4439
C21 C -0.0010(8) 0.6531(6) 0.4868(5)
H23 H 0.0606 0.6133 0.5049
H24 H -0.0446 0.6089 0.4690
H25 H -0.0479 0.6854 0.5290
C22 C 0.2413(2) 0.8004(2) 0.13909(18)
H26 H 0.1935 0.8633 0.1446
H27 H 0.2261 0.7717 0.0956
C23 C 0.3630(2) 0.8269(2) 0.11902(17)
C24 C 0.4135(2) 0.8468(2) 0.17726(17)
H28 H 0.3728 0.8388 0.2289
C25 C 0.5220(2) 0.8781(2) 0.16161(18)
C26 C 0.5807(2) 0.8857(2) 0.08456(17)
H29 H 0.6544 0.9055 0.0726
C27 C 0.5349(2) 0.8654(2) 0.02460(17)
C28 C 0.4239(2) 0.83817(19) 0.04261(16)
C29 C 0.5754(3) 0.9077(2) 0.22400(19)
C30 C 0.5026(4) 0.8865(3) 0.3050(2)
H30 H 0.4305 0.9237 0.3067
H31 H 0.5384 0.9080 0.3423
H32 H 0.4924 0.8142 0.3178
C31 C 0.5960(4) 1.0209(3) 0.2057(2)
H33 H 0.6416 1.0349 0.1538
H34 H 0.6343 1.0390 0.2429
H35 H 0.5251 1.0606 0.2088
C32 C 0.6874(4) 0.8461(4) 0.2231(3)
H36 H 0.7363 0.8603 0.1723
H37 H 0.6752 0.7741 0.2341
H38 H 0.7217 0.8648 0.2622
C33 C 0.6031(2) 0.8747(2) -0.05799(17)
H39 H 0.6136 0.9467 -0.0772
H40 H 0.5613 0.8495 -0.0908
C34 C 0.7168(2) 0.8167(2) -0.06570(16)
C35 C 0.8148(2) 0.8668(2) -0.08330(17)
H41 H 0.8098 0.9382 -0.0890
C36 C 0.9198(2) 0.8157(2) -0.09275(18)
C37 C 0.9237(2) 0.7094(2) -0.08262(18)
H42 H 0.9937 0.6729 -0.0893
C38 C 0.8285(2) 0.6559(2) -0.06322(16)
C39 C 0.7245(2) 0.7109(2) -0.05707(16)
C40 C 1.0298(3) 0.8693(2) -0.1146(2)
C41 C 1.1001(3) 0.8382(3) -0.1906(3)
H43 H 1.1142 0.7649 -0.1849
H44 H 1.1705 0.8700 -0.2033
H45 H 1.0601 0.8599 -0.2319
C42 C 1.0958(3) 0.8348(3) -0.0504(3)
H46 H 1.0481 0.8440 -0.0004
H47 H 1.1600 0.8750 -0.0597
H48 H 1.1208 0.7636 -0.0508
C43 C 1.0095(3) 0.9843(3) -0.1245(3)
H49 H 0.9654 1.0051 -0.0764
H50 H 0.9697 1.0061 -0.1658
H51 H 1.0805 1.0152 -0.1374
C44 C 0.8365(3) 0.5406(2) -0.04884(17)
H52 H 0.9146 0.5156 -0.0650
H53 H 0.7935 0.5151 -0.0808
C45 C 0.7932(2) 0.4984(2) 0.03590(16)
C46 C 0.8312(2) 0.5364(2) 0.09376(18)
H54 H 0.8809 0.5884 0.0785
C47 C 0.7987(2) 0.5006(2) 0.17250(18)
C48 C 0.7213(2) 0.4260(2) 0.19229(17)
H55 H 0.6952 0.4021 0.2451
C49 C 0.6808(2) 0.3855(2) 0.13743(16)
C50 C 0.7202(2) 0.4207(2) 0.05860(17)
C51 C 0.8509(3) 0.5318(3) 0.23467(19)
C52 C 0.9225(3) 0.6231(3) 0.2031(2)
H56 H 0.8766 0.6805 0.1841
H57 H 0.9831 0.6055 0.1611
H58 H 0.9530 0.6410 0.2443
C53 C 0.9265(3) 0.4406(3) 0.2624(2)
H59 H 0.8817 0.3834 0.2851
H60 H 0.9619 0.4593 0.3009
H61 H 0.9832 0.4220 0.2185
C54 C 0.7611(3) 0.5580(3) 0.3046(2)
H62 H 0.7099 0.6123 0.2878
H63 H 0.7960 0.5798 0.3422
H64 H 0.7204 0.4985 0.3282
C55 C 0.6012(2) 0.3014(2) 0.16234(17)
H65 H 0.5673 0.2954 0.1188
H66 H 0.6441 0.2371 0.1737
C56 C 0.4437(4) 0.5921(3) 0.3326(3)
C57 C 0.3834(6) 0.5782(6) 0.4135(3)
H67 H 0.3790 0.6412 0.4349
H68 H 0.4225 0.5251 0.4429
H69 H 0.3087 0.5589 0.4164
N2 N 0.2702(8) 1.1357(6) 0.2631(5)
C58 C 0.1735(18) 1.1228(13) 0.3136(12)
C59 C 0.1074(18) 1.1437(16) 0.3605(13)
H70 H 0.1357 1.1372 0.4075
H71 H 0.0470 1.0993 0.3685
H72 H 0.0799 1.2136 0.3477
C60? C 0.5703(9) 0.2433(10) 0.4613(6)
C61? C 0.0265(15) 0.8440(9) 0.4170(11)
C62? C -0.0600(13) 0.6722(13) 0.4512(12)
C63? C 0.1181(16) 0.6930(15) 0.4851(12)
C64? C 0.4514(16) 0.1158(12) 0.4525(10)
H73? H 0.5846 0.3142 0.4440
H74? H 0.6250 0.2010 0.4298
H75? H 0.5756 0.2262 0.5152
H76? H 0.0877 0.8701 0.4322
H77? H -0.0432 0.8614 0.4519
H78? H 0.0236 0.8738 0.3644
H79? H -0.1263 0.7186 0.4575
H80? H -0.0556 0.6323 0.5008
H81? H -0.0638 0.6272 0.4143
H82? H 0.1965 0.6881 0.4596
H83? H 0.0960 0.6265 0.5113
H84? H 0.1062 0.7402 0.5228
H85? H 0.3809 0.0931 0.4486
H86? H 0.4711 0.0823 0.5002
H87? H 0.5091 0.0989 0.4086
loop_
_geom_bond_atom_site_label_1
_geom_bond_atom_site_label_2
_geom_bond_site_symmetry_1
_geom_bond_site_symmetry_2
K1 O1 1_555 1_555
O1 C1 1_555 1_555
C1 C2 1_555 1_555
N1 K1 1_555 1_555
O2 K1 1_555 1_555
C2 C3 1_555 1_555
N2 C58 1_555 1_555
C3 H1 1_555 1_555
O3 H2 1_555 1_555
O4 K1 1_555 1_555
C4 C3 1_555 1_555
O5 H3 1_555 1_555
C5 C4 1_555 1_555
H4 C5 1_555 1_555
C6 C1 1_555 1_555
C7 C4 1_555 1_555
C8 C7 1_555 1_555
H5 C8 1_555 1_555
H6 C8 1_555 1_555
H7 C8 1_555 1_555
C9 C7 1_555 1_555
H8 C9 1_555 1_555
H9 C9 1_555 1_555
H10 C9 1_555 1_555
C10 C7 1_555 1_555
H11 C10 1_555 1_555
H12 C10 1_555 1_555
H13 C10 1_555 1_555
C11 C6 1_555 1_555
H14 C11 1_555 1_555
C12 C11 1_555 1_555
C13 C12 1_555 1_555
H15 C13 1_555 1_555
C14 C13 1_555 1_555
C15 C14 1_555 1_555
H16 C15 1_555 1_555
C16 C15 1_555 1_555
C17 O2 1_555 1_555
C18 C14 1_555 1_555
C19 C18 1_555 1_555
H17 C19 1_555 1_555
H18 C19 1_555 1_555
H19 C19 1_555 1_555
C20 C18 1_555 1_555
H20 C20 1_555 1_555
H21 C20 1_555 1_555
H22 C20 1_555 1_555
C21 C18 1_555 1_555
H23 C21 1_555 1_555
H24 C21 1_555 1_555
H25 C21 1_555 1_555
C22 C16 1_555 1_555
H26 C22 1_555 1_555
H27 C22 1_555 1_555
C23 K1 1_555 1_555
C24 C23 1_555 1_555
H28 C24 1_555 1_555
C25 C24 1_555 1_555
C26 C25 1_555 1_555
H29 C26 1_555 1_555
C27 C26 1_555 1_555
C28 K1 1_555 1_555
C29 C25 1_555 1_555
C30 C29 1_555 1_555
H30 C30 1_555 1_555
H31 C30 1_555 1_555
H32 C30 1_555 1_555
C31 C29 1_555 1_555
H33 C31 1_555 1_555
H34 C31 1_555 1_555
H35 C31 1_555 1_555
C32 C29 1_555 1_555
H36 C32 1_555 1_555
H37 C32 1_555 1_555
H38 C32 1_555 1_555
C33 C27 1_555 1_555
H39 C33 1_555 1_555
H40 C33 1_555 1_555
C34 C33 1_555 1_555
C35 C34 1_555 1_555
H41 C35 1_555 1_555
C36 C35 1_555 1_555
C37 C36 1_555 1_555
H42 C37 1_555 1_555
C38 C37 1_555 1_555
C39 O4 1_555 1_555
C40 C36 1_555 1_555
C41 C40 1_555 1_555
H43 C41 1_555 1_555
H44 C41 1_555 1_555
H45 C41 1_555 1_555
C42 C40 1_555 1_555
H46 C42 1_555 1_555
H47 C42 1_555 1_555
H48 C42 1_555 1_555
C43 C40 1_555 1_555
H49 C43 1_555 1_555
H50 C43 1_555 1_555
H51 C43 1_555 1_555
C44 C38 1_555 1_555
H52 C44 1_555 1_555
H53 C44 1_555 1_555
C45 C44 1_555 1_555
C46 C45 1_555 1_555
H54 C46 1_555 1_555
C47 C46 1_555 1_555
C48 C47 1_555 1_555
H55 C48 1_555 1_555
C49 K1 1_555 1_555
C50 K1 1_555 1_555
C51 C47 1_555 1_555
C52 C51 1_555 1_555
H56 C52 1_555 1_555
H57 C52 1_555 1_555
H58 C52 1_555 1_555
C53 C51 1_555 1_555
H59 C53 1_555 1_555
H60 C53 1_555 1_555
H61 C53 1_555 1_555
C54 C51 1_555 1_555
H62 C54 1_555 1_555
H63 C54 1_555 1_555
H64 C54 1_555 1_555
C55 C2 1_555 1_555
H65 C55 1_555 1_555
H66 C55 1_555 1_555
C56 N1 1_555 1_555
C57 C56 1_555 1_555
H67 C57 1_555 1_555
H68 C57 1_555 1_555
H69 C57 1_555 1_555
C58 C59 1_555 1_555
C59 H70 1_555 1_555
H71 C59 1_555 1_555
H72 C59 1_555 1_555
O3 C28 1_555 1_555
O5 C50 1_555 1_555
C5 C6 1_555 1_555
C12 C17 1_555 1_555
C16 C17 1_555 1_555
C22 C23 1_555 1_555
C23 C28 1_555 1_555
C27 C28 1_555 1_555
C34 C39 1_555 1_555
C38 C39 1_555 1_555
C45 C50 1_555 1_555
C48 C49 1_555 1_555
C49 C50 1_555 1_555
C49 C55 1_555 1_555

#END
