
#######################################################################
#
#                 Cambridge Crystallographic Data Centre
#                                CCDC 
#
#######################################################################
#
# If this CIF has been generated from an entry in the Cambridge 
# Structural Database, then it will include bibliographic, chemical, 
# crystal, experimental, refinement or atomic coordinate data resulting 
# from the CCDC's data processing and validation procedures.
#
#######################################################################

data_FOTCIB
_chemical_formula_moiety         
'C118 H148 Li4 O12,2(C4 H12 Li1 O3),2(C4 H8 O1)'
_chemical_name_systematic        
'(\m~4~-5,11,17,23,29-Penta-t-butyl-31-hydroxy-32,33,34,35-tetraoxycalix(5)arene)-bis(tetrahydrofuran)-tetra-lithium bis(diaqua-(tetrahydrofuran)-lithium) tetrahydrofuran solvate'
_symmetry_cell_setting           triclinic
_symmetry_space_group_name_H-M   'P -1'
_symmetry_Int_Tables_number      2
_space_group_name_Hall           '-P 1'
loop_
_symmetry_equiv_pos_site_id
_symmetry_equiv_pos_as_xyz
1 x,y,z
2 -x,-y,-z
_cell_length_a                   12.5244(10)
_cell_length_b                   15.3805(14)
_cell_length_c                   18.6388(16)
_cell_angle_alpha                99.127(2)
_cell_angle_beta                 96.553(2)
_cell_angle_gamma                103.382(2)
_cell_volume                     3405.93
_exptl_crystal_colour            colorless
_exptl_crystal_description       block
_cell_formula_units_Z            1
loop_
_atom_site_label
_atom_site_type_symbol
_atom_site_fract_x
_atom_site_fract_y
_atom_site_fract_z
O1 O 0.1976(2) 0.90148(18) 0.38354(15)
O2 O 0.3450(2) 0.82684(17) 0.43762(15)
O3 O 0.6070(2) 0.96352(17) 0.49821(15)
O4 O 0.5555(3) 1.11183(19) 0.39257(16)
H2 H 0.4920 1.1000 0.3703
O5 O 0.3579(3) 1.0728(2) 0.33602(17)
O7 O 0.1833(3) 1.1083(2) 0.43433(17)
C1 C 0.3385(4) 0.7373(3) 0.4197(2)
C2 C 0.6044(4) 1.1882(3) 0.2934(2)
C3 C 0.6294(4) 1.1382(3) 0.3466(2)
C4 C 0.2380(4) 0.6744(3) 0.3865(2)
C5 C 0.1368(4) 0.8863(3) 0.2528(2)
C6 C 0.4334(4) 0.7040(3) 0.4325(2)
C7 C 0.1553(4) 0.8473(3) 0.3141(2)
C8 C 0.7599(4) 1.0660(3) 0.4142(2)
H3 H 0.7357 1.0911 0.4588
H4 H 0.8401 1.0767 0.4242
C9 C 0.6383(4) 0.9180(3) 0.4395(2)
C10 C 0.3264(5) 1.0941(3) 0.2708(3)
C11 C 0.7782(4) 1.1824(3) 0.2480(3)
C12 C 0.7305(4) 1.1153(3) 0.3542(2)
C13 C 0.6069(4) 0.8223(3) 0.4220(2)
C14 C 0.5429(4) 0.7662(3) 0.4705(2)
H5 H 0.5887 0.7299 0.4901
H6 H 0.5297 0.8073 0.5117
C15 C 0.3652(5) 1.1819(3) 0.1759(3)
H7 H 0.4128 1.2274 0.1591
C16 C 0.3967(4) 1.1650(3) 0.2447(2)
C17 C 0.6786(4) 1.2081(3) 0.2448(3)
H8 H 0.6610 1.2398 0.2085
C18 C 0.5020(4) 1.2243(3) 0.2923(2)
H9 H 0.4872 1.2361 0.3424
H10 H 0.5189 1.2823 0.2763
C19 C 0.4258(4) 0.6121(3) 0.4067(3)
H11 H 0.4893 0.5913 0.4150
C20 C 0.2224(4) 1.0501(3) 0.2290(3)
C21 C 0.1070(4) 0.8295(3) 0.1837(3)
H12 H 0.0970 0.8555 0.1425
C22 C 0.6383(4) 0.7764(3) 0.3606(2)
H13 H 0.6303 0.7108 0.3566
C23 C 0.1945(4) 1.0692(3) 0.1594(2)
H14 H 0.1262 1.0376 0.1314
C24 C 0.2665(5) 1.1347(3) 0.1306(3)
C25 C 0.1312(4) 0.7528(3) 0.3079(3)
C26 C 0.0916(4) 0.7359(3) 0.1739(3)
C27 C 0.1353(4) 0.7077(3) 0.3743(2)
H15 H 0.1327 0.7508 0.4176
H16 H 0.0705 0.6566 0.3675
C28 C 0.7366(4) 0.9147(3) 0.3340(2)
H17 H 0.7799 0.9467 0.3047
C29 C 0.1374(4) 0.9867(3) 0.2603(3)
H18 H 0.0646 0.9895 0.2381
H19 H 0.1453 1.0114 0.3124
C30 C 0.7039(4) 0.8210(3) 0.3147(2)
C31 C 0.7081(4) 0.9640(3) 0.3954(2)
C32 C 0.8032(4) 1.1381(3) 0.3050(2)
H20 H 0.8712 1.1232 0.3103
C33 C 0.2346(4) 0.5838(3) 0.3617(3)
H21 H 0.1672 0.5438 0.3391
C34 C 0.3301(4) 0.5505(3) 0.3697(3)
C35 C 0.1014(4) 0.6991(3) 0.2375(3)
H22 H 0.0875 0.6363 0.2327
C36 C 0.8576(5) 1.2031(4) 0.1915(3)
C37 C 0.7443(4) 0.7664(3) 0.2509(3)
C38 C 0.0569(5) 0.6721(3) 0.0978(3)
Li1 Li 0.2872(7) 1.0332(4) 0.4146(4)
C39 C 0.2371(5) 1.1559(3) 0.0539(3)
C40 C 0.3806(5) 0.4093(3) 0.3973(4)
H23 H 0.3790 0.3474 0.3773
H24 H 0.3381 0.4104 0.4371
H25 H 0.4561 0.4432 0.4153
C41 C 0.3309(5) 0.4519(3) 0.3376(3)
C43 C 0.1764(6) 1.1906(3) 0.4094(4)
H28 H 0.1374 1.1769 0.3593
H29 H 0.2502 1.2291 0.4108
C44 C 0.2138(6) 0.3926(4) 0.3054(4)
H30 H 0.2171 0.3311 0.2889
H31 H 0.1843 0.4156 0.2645
H32 H 0.1666 0.3941 0.3424
C45 C 0.6473(6) 0.6979(5) 0.1999(4)
H33 H 0.6750 0.6629 0.1624
H34 H 0.5991 0.7296 0.1774
H35 H 0.6067 0.6579 0.2277
C46 C 0.8244(6) 0.7176(5) 0.2833(4)
H36 H 0.8433 0.6778 0.2445
H37 H 0.7901 0.6826 0.3167
H38 H 0.8905 0.7615 0.3093
C47 C 0.4035(6) 0.4549(4) 0.2766(4)
H39 H 0.4059 0.3942 0.2562
H40 H 0.4774 0.4909 0.2968
H41 H 0.3725 0.4816 0.2387
C48 C 0.2306(6) 1.2560(4) 0.0633(4)
H42 H 0.2166 1.2713 0.0158
H43 H 0.2996 1.2950 0.0898
H44 H 0.1714 1.2638 0.0902
C49 C 0.1349(7) 0.6062(5) 0.0918(4)
H45 H 0.1192 0.5697 0.0432
H46 H 0.1225 0.5673 0.1272
H47 H 0.2110 0.6411 0.1014
C50 C 0.1268(6) 1.0949(5) 0.0117(3)
H48 H 0.1288 1.0322 0.0074
H49 H 0.1147 1.1088 -0.0365
H50 H 0.0676 1.1051 0.0376
C51 C 0.8026(6) 0.8292(4) 0.2033(3)
H51 H 0.8260 0.7935 0.1638
H52 H 0.8663 0.8726 0.2328
H53 H 0.7521 0.8608 0.1832
C52 C 0.7984(7) 1.1537(6) 0.1164(3)
H54 H 0.7841 1.0892 0.1145
H55 H 0.8440 1.1704 0.0802
H56 H 0.7294 1.1698 0.1065
C53 C 0.0733(7) 0.7255(5) 0.0357(3)
H57 H 0.0302 0.7697 0.0391
H58 H 0.0494 0.6844 -0.0109
H59 H 0.1504 0.7559 0.0398
C55 C -0.0640(6) 0.6220(5) 0.0884(4)
H62 H -0.1083 0.6652 0.0938
H63 H -0.0747 0.5849 0.1251
H64 H -0.0859 0.5841 0.0404
C56 C 0.1153(10) 1.2366(7) 0.4596(7)
H65 H 0.0528 1.2504 0.4320
H66 H 0.1636 1.2930 0.4882
C57 C 0.9667(6) 1.1821(7) 0.2105(5)
H67 H 0.9556 1.1176 0.2068
H68 H 0.9992 1.2124 0.2600
H69 H 1.0155 1.2029 0.1772
C58 C 0.3288(6) 1.1446(6) 0.0091(3)
H70 H 0.3333 1.0824 0.0022
H71 H 0.3985 1.1837 0.0347
H72 H 0.3126 1.1606 -0.0380
C59 C 0.8923(7) 1.3079(5) 0.1930(5)
H73 H 0.9444 1.3204 0.1597
H74 H 0.9260 1.3393 0.2419
H75 H 0.8276 1.3282 0.1784
C60 C 0.0762(7) 1.1733(8) 0.5081(5)
H76 H -0.0015 1.1687 0.5118
H77 H 0.1194 1.1936 0.5571
C62 C 0.0922(5) 1.0831(5) 0.4722(4)
H80 H 0.1095 1.0479 0.5087
H81 H 0.0263 1.0477 0.4383
Li3 Li 0.4428(6) 0.9231(4) 0.5120(4)
O1A O 0.8024(2) 1.09852(18) 0.61646(15)
O2A O 0.6550(2) 1.17316(17) 0.56238(15)
O3A O 0.3930(2) 1.03648(17) 0.50179(15)
O4A O 0.4445(3) 0.88817(19) 0.60743(16)
H2A H 0.5080 0.9000 0.6297
O5A O 0.6421(3) 0.9272(2) 0.66398(17)
O7A O 0.8167(3) 0.8917(2) 0.56567(17)
C1A C 0.6615(4) 1.2627(3) 0.5803(2)
C2A C 0.3956(4) 0.8118(3) 0.7066(2)
C3A C 0.3706(4) 0.8618(3) 0.6534(2)
C4A C 0.7620(4) 1.3256(3) 0.6135(2)
C5A C 0.8632(4) 1.1137(3) 0.7472(2)
C6A C 0.5666(4) 1.2960(3) 0.5675(2)
C7A C 0.8447(4) 1.1527(3) 0.6859(2)
C8A C 0.2401(4) 0.9340(3) 0.5858(2)
H3A H 0.2643 0.9089 0.5412
H4A H 0.1599 0.9233 0.5758
C9A C 0.3617(4) 1.0820(3) 0.5605(2)
C10A C 0.6736(5) 0.9059(3) 0.7292(3)
C11A C 0.2218(4) 0.8176(3) 0.7520(3)
C12A C 0.2695(4) 0.8847(3) 0.6458(2)
C13A C 0.3931(4) 1.1777(3) 0.5780(2)
C14A C 0.4571(4) 1.2338(3) 0.5295(2)
H5A H 0.4113 1.2701 0.5099
H6A H 0.4703 1.1927 0.4883
C15A C 0.6348(5) 0.8181(3) 0.8241(3)
H7A H 0.5872 0.7726 0.8409
C16A C 0.6033(4) 0.8350(3) 0.7553(2)
C17A C 0.3214(4) 0.7919(3) 0.7552(3)
H8A H 0.3390 0.7602 0.7915
C18A C 0.4980(4) 0.7757(3) 0.7077(2)
H9A H 0.5128 0.7639 0.6576
H10A H 0.4811 0.7177 0.7237
C19A C 0.5742(4) 1.3879(3) 0.5933(3)
H11A H 0.5107 1.4087 0.5850
C20A C 0.7776(4) 0.9499(3) 0.7710(3)
C21A C 0.8930(4) 1.1705(3) 0.8163(3)
H12A H 0.9030 1.1445 0.8575
C22A C 0.3617(4) 1.2236(3) 0.6394(2)
H13A H 0.3697 1.2892 0.6434
C23A C 0.8055(4) 0.9308(3) 0.8406(2)
H14A H 0.8738 0.9624 0.8686
C24A C 0.7335(5) 0.8653(3) 0.8694(3)
C25A C 0.8688(4) 1.2472(3) 0.6921(3)
C26A C 0.9084(4) 1.2641(3) 0.8261(3)
C27A C 0.8647(4) 1.2923(3) 0.6257(2)
H15A H 0.8673 1.2492 0.5824
H16A H 0.9295 1.3434 0.6325
C28A C 0.2634(4) 1.0853(3) 0.6660(2)
H17A H 0.2201 1.0533 0.6953
C29A C 0.8626(4) 1.0133(3) 0.7397(3)
H18A H 0.9354 1.0105 0.7619
H19A H 0.8547 0.9886 0.6876
C30A C 0.2961(4) 1.1790(3) 0.6853(2)
C31A C 0.2919(4) 1.0360(3) 0.6046(2)
C32A C 0.1968(4) 0.8619(3) 0.6950(2)
H20A H 0.1288 0.8768 0.6897
C33A C 0.7654(4) 1.4162(3) 0.6383(3)
H21A H 0.8328 1.4562 0.6609
C34A C 0.6699(4) 1.4495(3) 0.6303(3)
C35A C 0.8986(4) 1.3009(3) 0.7625(3)
H22A H 0.9125 1.3637 0.7673
C36A C 0.1424(5) 0.7969(4) 0.8085(3)
C37A C 0.2557(4) 1.2336(3) 0.7491(3)
C38A C 0.9431(5) 1.3279(3) 0.9022(3)
Li1A Li 0.7128(7) 0.9668(4) 0.5854(4)
C39A C 0.7629(5) 0.8441(3) 0.9461(3)
C40A C 0.6194(5) 1.5907(3) 0.6027(4)
H23A H 0.6210 1.6526 0.6227
H24A H 0.6619 1.5896 0.5629
H25A H 0.5439 1.5568 0.5847
C41A C 0.6691(5) 1.5481(3) 0.6624(3)
C43A C 0.8236(6) 0.8094(3) 0.5906(4)
H28A H 0.8626 0.8231 0.6407
H29A H 0.7498 0.7709 0.5892
C44A C 0.7862(6) 1.6074(4) 0.6946(4)
H30A H 0.7829 1.6689 0.7111
H31A H 0.8157 1.5844 0.7355
H32A H 0.8334 1.6059 0.6576
C45A C 0.3527(6) 1.3021(5) 0.8001(4)
H33A H 0.3250 1.3371 0.8376
H34A H 0.4009 1.2704 0.8226
H35A H 0.3933 1.3421 0.7723
C46A C 0.1756(6) 1.2824(5) 0.7167(4)
H36A H 0.1567 1.3222 0.7555
H37A H 0.2099 1.3174 0.6833
H38A H 0.1095 1.2385 0.6907
C47A C 0.5965(6) 1.5451(4) 0.7234(4)
H39A H 0.5941 1.6058 0.7438
H40A H 0.5226 1.5091 0.7032
H41A H 0.6275 1.5184 0.7613
C48A C 0.7694(6) 0.7440(4) 0.9367(4)
H42A H 0.7834 0.7287 0.9842
H43A H 0.7004 0.7050 0.9102
H44A H 0.8286 0.7362 0.9098
C49A C 0.8651(7) 1.3938(5) 0.9082(4)
H45A H 0.8808 1.4303 0.9568
H46A H 0.8775 1.4327 0.8728
H47A H 0.7890 1.3589 0.8986
C50A C 0.8732(6) 0.9051(5) 0.9883(3)
H48A H 0.8712 0.9678 0.9926
H49A H 0.8853 0.8912 1.0365
H50A H 0.9324 0.8949 0.9624
C51A C 0.1974(6) 1.1708(4) 0.7967(3)
H51A H 0.1740 1.2065 0.8362
H52A H 0.1337 1.1274 0.7672
H53A H 0.2479 1.1392 0.8168
C52A C 0.2016(7) 0.8463(6) 0.8836(3)
H54A H 0.2159 0.9108 0.8855
H55A H 0.1560 0.8296 0.9198
H56A H 0.2706 0.8302 0.8935
C53A C 0.9267(7) 1.2745(5) 0.9643(3)
H57A H 0.9698 1.2303 0.9609
H58A H 0.9506 1.3156 1.0109
H59A H 0.8496 1.2441 0.9602
C55A C 1.0640(6) 1.3780(5) 0.9116(4)
H62A H 1.1083 1.3348 0.9062
H63A H 1.0747 1.4151 0.8749
H64A H 1.0859 1.4159 0.9596
C56A C 0.8847(10) 0.7634(7) 0.5404(7)
H65A H 0.9472 0.7496 0.5680
H66A H 0.8364 0.7070 0.5118
C57A C 0.0333(6) 0.8179(7) 0.7895(5)
H67A H 0.0444 0.8824 0.7932
H68A H 0.0008 0.7876 0.7400
H69A H -0.0155 0.7971 0.8228
C58A C 0.6712(6) 0.8554(6) 0.9909(3)
H70A H 0.6667 0.9176 0.9978
H71A H 0.6015 0.8163 0.9653
H72A H 0.6874 0.8394 1.0380
C59A C 0.1077(7) 0.6921(5) 0.8070(5)
H73A H 0.0556 0.6796 0.8403
H74A H 0.0740 0.6607 0.7581
H75A H 0.1724 0.6718 0.8216
C60A C 0.9238(7) 0.8267(8) 0.4919(5)
H76A H 1.0015 0.8313 0.4882
H77A H 0.8806 0.8064 0.4429
C62A C 0.9078(5) 0.9169(5) 0.5278(4)
H80A H 0.8905 0.9521 0.4913
H81A H 0.9737 0.9523 0.5617
Li3A Li 0.5572(6) 1.0769(4) 0.4880(4)
O6 O 0.4236(3) 0.9029(2) 0.32332(17)
O8 O 0.3875(3) 0.7087(2) 0.24837(19)
Li2 Li 0.4972(8) 0.8299(6) 0.2679(5)
C42 C 0.4986(6) 0.9918(4) 0.1113(4)
H26 H 0.5469 1.0002 0.0744
H27 H 0.4769 1.0478 0.1259
C54 C 0.3987(8) 0.9142(6) 0.0822(5)
H60 H 0.3316 0.9341 0.0879
H61 H 0.3973 0.8924 0.0302
C61 C 0.5544(6) 0.9662(4) 0.1747(4)
H78 H 0.6327 0.9743 0.1715
H79 H 0.5479 1.0049 0.2196
C64 C 0.4038(9) 0.8425(6) 0.1223(5)
H84 H 0.4052 0.7876 0.0891
H85 H 0.3392 0.8292 0.1467
O10 O 0.5047(4) 0.8732(2) 0.1764(2)
C63 C 0.7590(18) 0.4059(10) 0.4303(6)
H82 H 0.7428 0.4090 0.4802
H83 H 0.7014 0.3573 0.3987
C65 C 0.855(2) 0.3860(17) 0.4279(14)
H86 H 0.8447 0.3247 0.4005
H87 H 0.8929 0.3901 0.4772
C66 C 0.9199(13) 0.4529(14) 0.3910(10)
H88 H 0.9943 0.4791 0.4182
H89 H 0.9250 0.4254 0.3414
O9 O 0.7552(13) 0.4946(13) 0.4068(13)
C67 C 0.8602(17) 0.5182(13) 0.3902(15)
H90 H 0.9017 0.5727 0.4250
H91 H 0.8552 0.5337 0.3417
H1? H 0.5480 0.9754 0.4854
loop_
_geom_bond_atom_site_label_1
_geom_bond_atom_site_label_2
_geom_bond_site_symmetry_1
_geom_bond_site_symmetry_2
O1 C7 1_555 1_555
O2 C1 1_555 1_555
O3 C9 1_555 1_555
O4 H2 1_555 1_555
O5 C10 1_555 1_555
O6 Li2 1_555 1_555
O7 Li1 1_555 1_555
C1 C4 1_555 1_555
C2 C3 1_555 1_555
O8 Li2 1_555 1_555
C3 O4 1_555 1_555
C4 C27 1_555 1_555
C5 C7 1_555 1_555
C6 C1 1_555 1_555
C7 C25 1_555 1_555
C8 H3 1_555 1_555
H4 C8 1_555 1_555
C9 C13 1_555 1_555
C10 C16 1_555 1_555
C11 C17 1_555 1_555
C12 C3 1_555 1_555
C13 C14 1_555 1_555
C14 C6 1_555 1_555
H5 C14 1_555 1_555
H6 C14 1_555 1_555
C15 H7 1_555 1_555
C16 C15 1_555 1_555
C17 C2 1_555 1_555
H8 C17 1_555 1_555
C18 C2 1_555 1_555
H9 C18 1_555 1_555
H10 C18 1_555 1_555
C19 C6 1_555 1_555
H11 C19 1_555 1_555
C20 C10 1_555 1_555
C21 C5 1_555 1_555
H12 C21 1_555 1_555
C22 C13 1_555 1_555
H13 C22 1_555 1_555
C23 C20 1_555 1_555
H14 C23 1_555 1_555
C24 C15 1_555 1_555
C25 C27 1_555 1_555
C26 C21 1_555 1_555
C27 H15 1_555 1_555
H16 C27 1_555 1_555
C28 H17 1_555 1_555
C29 C5 1_555 1_555
H18 C29 1_555 1_555
H19 C29 1_555 1_555
C30 C22 1_555 1_555
C31 C8 1_555 1_555
C32 C11 1_555 1_555
H20 C32 1_555 1_555
C33 C4 1_555 1_555
H21 C33 1_555 1_555
C34 C19 1_555 1_555
C35 C25 1_555 1_555
H22 C35 1_555 1_555
C36 C11 1_555 1_555
C37 C30 1_555 1_555
C38 C26 1_555 1_555
Li1 O1 1_555 1_555
C39 C24 1_555 1_555
C40 H23 1_555 1_555
H24 C40 1_555 1_555
H25 C40 1_555 1_555
Li2 O10 1_555 1_555
C41 C34 1_555 1_555
C42 H26 1_555 1_555
H27 C42 1_555 1_555
C43 O7 1_555 1_555
H28 C43 1_555 1_555
H29 C43 1_555 1_555
C44 C41 1_555 1_555
H30 C44 1_555 1_555
H31 C44 1_555 1_555
H32 C44 1_555 1_555
C45 C37 1_555 1_555
H33 C45 1_555 1_555
H34 C45 1_555 1_555
H35 C45 1_555 1_555
C46 C37 1_555 1_555
H36 C46 1_555 1_555
H37 C46 1_555 1_555
H38 C46 1_555 1_555
C47 C41 1_555 1_555
H39 C47 1_555 1_555
H40 C47 1_555 1_555
H41 C47 1_555 1_555
C48 C39 1_555 1_555
H42 C48 1_555 1_555
H43 C48 1_555 1_555
H44 C48 1_555 1_555
C49 C38 1_555 1_555
H45 C49 1_555 1_555
H46 C49 1_555 1_555
H47 C49 1_555 1_555
C50 C39 1_555 1_555
H48 C50 1_555 1_555
H49 C50 1_555 1_555
H50 C50 1_555 1_555
C51 C37 1_555 1_555
H51 C51 1_555 1_555
H52 C51 1_555 1_555
H53 C51 1_555 1_555
C52 C36 1_555 1_555
H54 C52 1_555 1_555
H55 C52 1_555 1_555
H56 C52 1_555 1_555
C53 C38 1_555 1_555
H57 C53 1_555 1_555
H58 C53 1_555 1_555
H59 C53 1_555 1_555
C54 C42 1_555 1_555
H60 C54 1_555 1_555
H61 C54 1_555 1_555
C55 C38 1_555 1_555
H62 C55 1_555 1_555
H63 C55 1_555 1_555
H64 C55 1_555 1_555
C56 C43 1_555 1_555
H65 C56 1_555 1_555
H66 C56 1_555 1_555
C57 C36 1_555 1_555
H67 C57 1_555 1_555
H68 C57 1_555 1_555
H69 C57 1_555 1_555
C58 C39 1_555 1_555
H70 C58 1_555 1_555
H71 C58 1_555 1_555
H72 C58 1_555 1_555
C59 C36 1_555 1_555
H73 C59 1_555 1_555
H74 C59 1_555 1_555
H75 C59 1_555 1_555
C60 C56 1_555 1_555
H76 C60 1_555 1_555
H77 C60 1_555 1_555
C61 C42 1_555 1_555
H78 C61 1_555 1_555
H79 C61 1_555 1_555
C62 O7 1_555 1_555
H80 C62 1_555 1_555
H81 C62 1_555 1_555
C63 H82 1_555 1_555
H83 C63 1_555 1_555
C64 C54 1_555 1_555
H84 C64 1_555 1_555
H85 C64 1_555 1_555
C65 C63 1_555 1_555
H86 C65 1_555 1_555
H87 C65 1_555 1_555
C66 C65 1_555 1_555
H88 C66 1_555 1_555
H89 C66 1_555 1_555
O9 C63 1_555 1_555
C67 C66 1_555 1_555
H90 C67 1_555 1_555
H91 C67 1_555 1_555
O10 C61 1_555 1_555
Li3 O2 1_555 1_555
O1A C7A 1_555 1_555
O2A C1A 1_555 1_555
O3A Li1 1_555 1_555
O4A Li3 1_555 1_555
H2A O4A 1_555 1_555
O5A C10A 1_555 1_555
O7A Li1A 1_555 1_555
C1A C4A 1_555 1_555
C2A C3A 1_555 1_555
C3A O4A 1_555 1_555
C4A C27A 1_555 1_555
C5A C7A 1_555 1_555
C6A C1A 1_555 1_555
C7A C25A 1_555 1_555
C8A H3A 1_555 1_555
H4A C8A 1_555 1_555
C9A O3A 1_555 1_555
C10A C16A 1_555 1_555
C11A C17A 1_555 1_555
C12A C3A 1_555 1_555
C13A C9A 1_555 1_555
C14A C6A 1_555 1_555
H5A C14A 1_555 1_555
H6A C14A 1_555 1_555
C15A H7A 1_555 1_555
C16A C15A 1_555 1_555
C17A C2A 1_555 1_555
H8A C17A 1_555 1_555
C18A C2A 1_555 1_555
H9A C18A 1_555 1_555
H10A C18A 1_555 1_555
C19A C6A 1_555 1_555
H11A C19A 1_555 1_555
C20A C10A 1_555 1_555
C21A C5A 1_555 1_555
H12A C21A 1_555 1_555
C22A C13A 1_555 1_555
H13A C22A 1_555 1_555
C23A C20A 1_555 1_555
H14A C23A 1_555 1_555
C24A C15A 1_555 1_555
C25A C27A 1_555 1_555
C26A C21A 1_555 1_555
C27A H15A 1_555 1_555
H16A C27A 1_555 1_555
C28A H17A 1_555 1_555
C29A C5A 1_555 1_555
H18A C29A 1_555 1_555
H19A C29A 1_555 1_555
C30A C22A 1_555 1_555
C31A C8A 1_555 1_555
C32A C11A 1_555 1_555
H20A C32A 1_555 1_555
C33A C4A 1_555 1_555
H21A C33A 1_555 1_555
C34A C19A 1_555 1_555
C35A C25A 1_555 1_555
H22A C35A 1_555 1_555
C36A C11A 1_555 1_555
C37A C30A 1_555 1_555
C38A C26A 1_555 1_555
Li1A O3 1_555 1_555
C39A C24A 1_555 1_555
C40A H23A 1_555 1_555
H24A C40A 1_555 1_555
H25A C40A 1_555 1_555
C41A C34A 1_555 1_555
C43A O7A 1_555 1_555
H28A C43A 1_555 1_555
H29A C43A 1_555 1_555
C44A C41A 1_555 1_555
H30A C44A 1_555 1_555
H31A C44A 1_555 1_555
H32A C44A 1_555 1_555
C45A C37A 1_555 1_555
H33A C45A 1_555 1_555
H34A C45A 1_555 1_555
H35A C45A 1_555 1_555
C46A C37A 1_555 1_555
H36A C46A 1_555 1_555
H37A C46A 1_555 1_555
H38A C46A 1_555 1_555
C47A C41A 1_555 1_555
H39A C47A 1_555 1_555
H40A C47A 1_555 1_555
H41A C47A 1_555 1_555
C48A C39A 1_555 1_555
H42A C48A 1_555 1_555
H43A C48A 1_555 1_555
H44A C48A 1_555 1_555
C49A C38A 1_555 1_555
H45A C49A 1_555 1_555
H46A C49A 1_555 1_555
H47A C49A 1_555 1_555
C50A C39A 1_555 1_555
H48A C50A 1_555 1_555
H49A C50A 1_555 1_555
H50A C50A 1_555 1_555
C51A C37A 1_555 1_555
H51A C51A 1_555 1_555
H52A C51A 1_555 1_555
H53A C51A 1_555 1_555
C52A C36A 1_555 1_555
H54A C52A 1_555 1_555
H55A C52A 1_555 1_555
H56A C52A 1_555 1_555
C53A C38A 1_555 1_555
H57A C53A 1_555 1_555
H58A C53A 1_555 1_555
H59A C53A 1_555 1_555
C55A C38A 1_555 1_555
H62A C55A 1_555 1_555
H63A C55A 1_555 1_555
H64A C55A 1_555 1_555
C56A C43A 1_555 1_555
H65A C56A 1_555 1_555
H66A C56A 1_555 1_555
C57A C36A 1_555 1_555
H67A C57A 1_555 1_555
H68A C57A 1_555 1_555
H69A C57A 1_555 1_555
C58A C39A 1_555 1_555
H70A C58A 1_555 1_555
H71A C58A 1_555 1_555
H72A C58A 1_555 1_555
C59A C36A 1_555 1_555
H73A C59A 1_555 1_555
H74A C59A 1_555 1_555
H75A C59A 1_555 1_555
C60A C56A 1_555 1_555
H76A C60A 1_555 1_555
H77A C60A 1_555 1_555
C62A O7A 1_555 1_555
H80A C62A 1_555 1_555
H81A C62A 1_555 1_555
Li3A O3 1_555 1_555
O3 Li3 1_555 1_555
O4 Li3A 1_555 1_555
O5 Li1 1_555 1_555
C8 C12 1_555 1_555
C9 C31 1_555 1_555
C12 C32 1_555 1_555
C16 C18 1_555 1_555
C20 C29 1_555 1_555
C23 C24 1_555 1_555
C26 C35 1_555 1_555
C28 C30 1_555 1_555
C28 C31 1_555 1_555
C33 C34 1_555 1_555
C40 C41 1_555 1_555
C60 C62 1_555 1_555
C64 O10 1_555 1_555
O9 C67 1_555 1_555
Li3 O3A 1_555 1_555
O1A Li1A 1_555 1_555
O2A Li3A 1_555 1_555
O3A Li3A 1_555 1_555
O5A Li1A 1_555 1_555
C8A C12A 1_555 1_555
C9A C31A 1_555 1_555
C12A C32A 1_555 1_555
C13A C14A 1_555 1_555
C16A C18A 1_555 1_555
C20A C29A 1_555 1_555
C23A C24A 1_555 1_555
C26A C35A 1_555 1_555
C28A C30A 1_555 1_555
C28A C31A 1_555 1_555
C33A C34A 1_555 1_555
C40A C41A 1_555 1_555
C60A C62A 1_555 1_555

#END
