
#######################################################################
#
#                 Cambridge Crystallographic Data Centre
#                                CCDC 
#
#######################################################################
#
# If this CIF has been generated from an entry in the Cambridge 
# Structural Database, then it will include bibliographic, chemical, 
# crystal, experimental, refinement or atomic coordinate data resulting 
# from the CCDC's data processing and validation procedures.
#
#######################################################################

data_FOTDEY
_chemical_formula_moiety         'C114 H138 N2 Na2 O10,3(C2 H3 N1)'
_chemical_name_systematic        
'bis(\m~2~-5,11,17,23,29-Penta-t-butyl-31-hydroxy-32,33,34,35-tetraoxycalix(5)arene)-bis(acetonitrile)-di-sodium acetonitrile solvate'
_symmetry_cell_setting           triclinic
_symmetry_space_group_name_H-M   'P -1'
_symmetry_Int_Tables_number      2
_space_group_name_Hall           '-P 1'
loop_
_symmetry_equiv_pos_site_id
_symmetry_equiv_pos_as_xyz
1 x,y,z
2 -x,-y,-z
_cell_length_a                   13.5128(10)
_cell_length_b                   18.0249(13)
_cell_length_c                   24.6368(18)
_cell_angle_alpha                91.401(2)
_cell_angle_beta                 94.0300(10)
_cell_angle_gamma                110.029(2)
_cell_volume                     5616.3
_exptl_crystal_colour            colorless
_exptl_crystal_description       block
_cell_formula_units_Z            2
loop_
_atom_site_label
_atom_site_type_symbol
_atom_site_fract_x
_atom_site_fract_y
_atom_site_fract_z
C1 C 0.7314(3) 0.5160(2) 0.36818(16)
C2 C 0.7491(3) 0.5163(2) 0.31283(15)
C3 C 0.6627(3) 0.4990(2) 0.27446(17)
H1 H 0.6739 0.4969 0.2373
C4 C 0.5605(3) 0.4849(3) 0.28879(18)
C5 C 0.5486(3) 0.4922(3) 0.34422(18)
H2 H 0.4812 0.4871 0.3549
C6 C 0.6310(3) 0.5065(2) 0.38451(17)
C7 C 0.4666(4) 0.4664(4) 0.2462(2)
C8 C 0.3864(13) 0.3787(10) 0.2551(7)
H3 H 0.4259 0.3470 0.2703
H4 H 0.3497 0.3544 0.2205
H5 H 0.3354 0.3818 0.2801
C9 C 0.4232(12) 0.5225(9) 0.2410(6)
H6 H 0.3597 0.5084 0.2602
H7 H 0.4054 0.5273 0.2027
H8 H 0.4731 0.5726 0.2562
C10 C 0.4940(9) 0.4462(8) 0.1870(5)
H9 H 0.4952 0.3927 0.1852
H10 H 0.5627 0.4830 0.1798
H11 H 0.4407 0.4506 0.1600
C11 C 0.6148(3) 0.5172(3) 0.44380(17)
H12 H 0.5667 0.5471 0.4463
H13 H 0.6828 0.5492 0.4628
C12 C 0.5704(3) 0.4409(3) 0.47346(17)
C13 C 0.4781(3) 0.3816(3) 0.45350(17)
H14 H 0.4456 0.3875 0.4197
C14 C 0.4308(3) 0.3133(3) 0.48131(17)
C15 C 0.4813(3) 0.3076(3) 0.53123(18)
H15 H 0.4516 0.2624 0.5509
C16 C 0.5739(3) 0.3656(3) 0.55367(17)
C17 C 0.6177(3) 0.4324(2) 0.52390(17)
C18 C 0.3261(3) 0.2509(3) 0.4595(2)
C19 C 0.3379(8) 0.1714(7) 0.4529(5)
H16 H 0.3687 0.1679 0.4190
H17 H 0.2690 0.1303 0.4523
H18 H 0.3835 0.1646 0.4831
C20 C 0.2396(5) 0.2641(5) 0.4908(4)
H19 H 0.1717 0.2252 0.4780
H20 H 0.2381 0.3168 0.4850
H21 H 0.2539 0.2588 0.5294
C21 C 0.2969(6) 0.2584(6) 0.4012(3)
H22 H 0.2297 0.2177 0.3898
H23 H 0.3510 0.2525 0.3793
H24 H 0.2911 0.3101 0.3964
C22 C 0.6241(3) 0.3541(3) 0.60859(16)
H25 H 0.6692 0.4058 0.6250
H26 H 0.5684 0.3308 0.6329
C23 C 0.6896(3) 0.3014(2) 0.60372(15)
C24 C 0.6478(3) 0.2216(3) 0.61298(17)
H27 H 0.5776 0.2009 0.6223
C25 C 0.7045(4) 0.1707(3) 0.60908(17)
C26 C 0.8066(3) 0.2032(3) 0.59264(16)
H28 H 0.8471 0.1703 0.5896
C27 C 0.8514(3) 0.2827(2) 0.58042(15)
C28 C 0.7928(3) 0.3310(2) 0.58760(15)
C29 C 0.6548(4) 0.0820(3) 0.6196(2)
C30 C 0.5870(8) 0.0402(4) 0.5722(3)
H29 H 0.5312 0.0620 0.5648
H30 H 0.5560 -0.0154 0.5791
H31 H 0.6284 0.0461 0.5409
C31 C 0.6041(7) 0.0720(4) 0.6722(3)
H32 H 0.5468 0.0930 0.6698
H33 H 0.6561 0.1004 0.7015
H34 H 0.5765 0.0163 0.6794
C32 C 0.7416(6) 0.0446(4) 0.6309(4)
H35 H 0.7086 -0.0111 0.6372
H36 H 0.7872 0.0712 0.6629
H37 H 0.7833 0.0503 0.5998
C33 C 0.9597(3) 0.3132(2) 0.55816(16)
H38 H 0.9862 0.3711 0.5620
H39 H 1.0082 0.2946 0.5807
C34 C 0.9626(3) 0.2887(2) 0.49921(16)
C35 C 0.9382(3) 0.2090(3) 0.48338(18)
H40 H 0.9150 0.1713 0.5096
C36 C 0.9462(3) 0.1824(3) 0.43099(19)
C37 C 0.9906(3) 0.2404(3) 0.39481(18)
H41 H 1.0017 0.2248 0.3597
C38 C 1.0191(3) 0.3205(3) 0.40865(16)
C39 C 0.9972(3) 0.3440(2) 0.45963(17)
C40 C 0.9107(4) 0.0950(3) 0.4133(2)
C41 C 0.8161(6) 0.0767(4) 0.3693(3)
H42 H 0.8379 0.1096 0.3387
H43 H 0.7583 0.0877 0.3848
H44 H 0.7932 0.0214 0.3570
C42 C 0.9953(6) 0.0755(4) 0.3854(4)
H45 H 1.0573 0.0859 0.4108
H46 H 1.0139 0.1079 0.3543
H47 H 0.9690 0.0201 0.3732
C43 C 0.8733(8) 0.0413(4) 0.4602(3)
H48 H 0.9308 0.0515 0.4884
H49 H 0.8506 -0.0136 0.4469
H50 H 0.8146 0.0518 0.4751
C44 C 1.0805(3) 0.3806(2) 0.36974(16)
H51 H 1.1218 0.4295 0.3909
H52 H 1.1306 0.3601 0.3534
C45 C 1.0139(3) 0.4006(2) 0.32437(17)
C46 C 1.0035(3) 0.3646(2) 0.27337(16)
H53 H 1.0362 0.3268 0.2683
C47 C 0.9464(3) 0.3819(2) 0.22871(16)
C48 C 0.8992(3) 0.4372(2) 0.23859(17)
H54 H 0.8592 0.4495 0.2097
C49 C 0.9080(3) 0.4762(2) 0.29001(17)
C50 C 0.9663(3) 0.4576(2) 0.33360(16)
C51 C 0.9445(3) 0.3427(3) 0.17279(17)
C52 C 0.8889(4) 0.3748(3) 0.12773(19)
H55 H 0.9249 0.4313 0.1262
H56 H 0.8161 0.3645 0.1354
H57 H 0.8904 0.3489 0.0930
C53 C 1.0569(4) 0.3560(3) 0.1579(2)
H58 H 1.0951 0.4122 0.1567
H59 H 1.0543 0.3304 0.1225
H60 H 1.0925 0.3337 0.1851
C54 C 0.8855(4) 0.2528(3) 0.1743(2)
H61 H 0.8139 0.2433 0.1838
H62 H 0.9220 0.2309 0.2013
H63 H 0.8835 0.2277 0.1388
C55 C 0.8606(3) 0.5398(2) 0.29532(16)
H64 H 0.8614 0.5639 0.2600
H65 H 0.9069 0.5809 0.3216
C56 C 0.6978(4) 0.2741(3) 0.45335(19)
C57 C 0.6400(5) 0.1909(3) 0.4606(2)
H66 H 0.6754 0.1588 0.4439
H67 H 0.5686 0.1768 0.4436
H68 H 0.6375 0.1818 0.4992
O1 O 0.81391(19) 0.52870(16) 0.40749(10)
N1 N 0.7436(3) 0.3388(3) 0.44894(18)
Na1 Na 0.84379(12) 0.46766(10) 0.48593(7)
O2 O 0.7100(2) 0.49188(17) 0.54348(12)
O3 O 0.83539(19) 0.41210(15) 0.57929(11)
O4 O 1.0116(2) 0.42322(16) 0.47083(11)
O5 O 0.97815(19) 0.49493(16) 0.38356(11)
H161 H 1.0411 0.5227 0.3908
C1A C 1.2686(3) 0.4840(2) 0.63182(16)
C2A C 1.2509(3) 0.4837(2) 0.68717(15)
C3A C 1.3373(3) 0.5010(2) 0.72554(17)
H1A H 1.3261 0.5031 0.7627
C4A C 1.4395(3) 0.5151(3) 0.71121(18)
C5A C 1.4514(3) 0.5078(3) 0.65578(18)
H2A H 1.5188 0.5129 0.6451
C6A C 1.3690(3) 0.4935(2) 0.61549(17)
C7A C 1.5334(4) 0.5336(4) 0.7538(2)
C8A C 1.6136(13) 0.6213(10) 0.7449(7)
H3A H 1.5741 0.6530 0.7297
H4A H 1.6503 0.6456 0.7795
H5A H 1.6646 0.6182 0.7199
C9A C 1.5768(12) 0.4775(9) 0.7590(6)
H6A H 1.6403 0.4916 0.7398
H7A H 1.5946 0.4727 0.7973
H8A H 1.5269 0.4274 0.7438
C10A C 1.5060(9) 0.5538(8) 0.8130(5)
H9A H 1.5048 0.6073 0.8148
H10A H 1.4373 0.5170 0.8202
H11A H 1.5593 0.5494 0.8400
C11A C 1.3852(3) 0.4828(3) 0.55620(17)
H12A H 1.4333 0.4529 0.5537
H13A H 1.3172 0.4508 0.5372
C12A C 1.4296(3) 0.5591(3) 0.52654(17)
C13A C 1.5219(3) 0.6184(3) 0.54650(17)
H14A H 1.5544 0.6125 0.5803
C14A C 1.5692(3) 0.6867(3) 0.51869(17)
C15A C 1.5187(3) 0.6924(3) 0.46877(18)
H15A H 1.5484 0.7376 0.4491
C16A C 1.4261(3) 0.6344(3) 0.44633(17)
C17A C 1.3823(3) 0.5676(2) 0.47610(17)
C18A C 1.6739(3) 0.7491(3) 0.5405(2)
C19A C 1.6621(8) 0.8286(7) 0.5471(5)
H16A H 1.6313 0.8321 0.5810
H17A H 1.7310 0.8697 0.5477
H18A H 1.6165 0.8354 0.5169
C20A C 1.7604(5) 0.7359(5) 0.5092(4)
H19A H 1.8283 0.7748 0.5220
H20A H 1.7619 0.6832 0.5150
H21A H 1.7461 0.7412 0.4706
C21A C 1.7031(6) 0.7416(6) 0.5988(3)
H22A H 1.7703 0.7823 0.6102
H23A H 1.6490 0.7475 0.6207
H24A H 1.7089 0.6899 0.6036
C22A C 1.3759(3) 0.6459(3) 0.39141(16)
H25A H 1.3308 0.5942 0.3750
H26A H 1.4316 0.6692 0.3671
C23A C 1.3104(3) 0.6986(2) 0.39628(15)
C24A C 1.3522(3) 0.7784(3) 0.38702(17)
H27A H 1.4224 0.7991 0.3777
C25A C 1.2955(4) 0.8293(3) 0.39092(17)
C26A C 1.1934(3) 0.7968(3) 0.40736(16)
H28A H 1.1529 0.8297 0.4104
C27A C 1.1486(3) 0.7173(2) 0.41958(15)
C28A C 1.2072(3) 0.6690(2) 0.41240(15)
C29A C 1.3452(4) 0.9180(3) 0.3804(2)
C30A C 1.4130(8) 0.9598(4) 0.4278(3)
H29A H 1.4688 0.9380 0.4352
H30A H 1.4440 1.0154 0.4209
H31A H 1.3716 0.9539 0.4591
C31A C 1.3959(7) 0.9280(4) 0.3278(3)
H32A H 1.4532 0.9070 0.3302
H33A H 1.3439 0.8996 0.2985
H34A H 1.4235 0.9837 0.3206
C32A C 1.2584(6) 0.9554(4) 0.3691(4)
H35A H 1.2914 1.0111 0.3628
H36A H 1.2128 0.9288 0.3371
H37A H 1.2167 0.9497 0.4002
C33A C 1.0403(3) 0.6868(2) 0.44184(16)
H38A H 1.0138 0.6289 0.4380
H39A H 0.9918 0.7054 0.4193
C34A C 1.0374(3) 0.7113(2) 0.50079(16)
C35A C 1.0618(3) 0.7910(3) 0.51662(18)
H40A H 1.0850 0.8287 0.4904
C36A C 1.0538(3) 0.8176(3) 0.56901(19)
C37A C 1.0094(3) 0.7596(3) 0.60519(18)
H41A H 0.9983 0.7752 0.6403
C38A C 0.9809(3) 0.6795(3) 0.59135(16)
C39A C 1.0028(3) 0.6560(2) 0.54037(17)
C40A C 1.0893(4) 0.9050(3) 0.5867(2)
C41A C 1.1839(6) 0.9233(4) 0.6307(3)
H42A H 1.1621 0.8904 0.6613
H43A H 1.2417 0.9123 0.6152
H44A H 1.2068 0.9786 0.6430
C42A C 1.0047(6) 0.9245(4) 0.6146(4)
H45A H 0.9427 0.9141 0.5892
H46A H 0.9861 0.8921 0.6457
H47A H 1.0310 0.9799 0.6268
C43A C 1.1267(8) 0.9587(4) 0.5398(3)
H48A H 1.0692 0.9485 0.5116
H49A H 1.1494 1.0136 0.5531
H50A H 1.1854 0.9482 0.5249
C44A C 0.9195(3) 0.6194(2) 0.63026(16)
H51A H 0.8782 0.5705 0.6091
H52A H 0.8694 0.6399 0.6466
C45A C 0.9861(3) 0.5994(2) 0.67563(17)
C46A C 0.9965(3) 0.6354(2) 0.72663(16)
H53A H 0.9638 0.6732 0.7317
C47A C 1.0536(3) 0.6181(2) 0.77129(16)
C48A C 1.1008(3) 0.5628(2) 0.76141(17)
H54A H 1.1408 0.5505 0.7903
C49A C 1.0920(3) 0.5238(2) 0.70999(17)
C50A C 1.0337(3) 0.5424(2) 0.66640(16)
C51A C 1.0555(3) 0.6573(3) 0.82721(17)
C52A C 1.1111(4) 0.6252(3) 0.87227(19)
H55A H 1.0751 0.5687 0.8738
H56A H 1.1839 0.6355 0.8646
H57A H 1.1096 0.6511 0.9070
C53A C 0.9431(4) 0.6440(3) 0.8421(2)
H58A H 0.9049 0.5878 0.8433
H59A H 0.9457 0.6696 0.8775
H60A H 0.9075 0.6663 0.8149
C54A C 1.1145(4) 0.7472(3) 0.8257(2)
H61A H 1.1861 0.7567 0.8162
H62A H 1.0780 0.7691 0.7987
H63A H 1.1165 0.7723 0.8612
C55A C 1.1394(3) 0.4602(2) 0.70468(16)
H64A H 1.1386 0.4361 0.7400
H65A H 1.0931 0.4191 0.6784
C56A C 1.3022(4) 0.7259(3) 0.54665(19)
C57A C 1.3600(5) 0.8091(3) 0.5394(2)
H66A H 1.3246 0.8412 0.5561
H67A H 1.4314 0.8232 0.5564
H68A H 1.3625 0.8182 0.5008
O1A O 1.18609(19) 0.47130(16) 0.59251(10)
N1A N 1.2564(3) 0.6612(3) 0.55106(18)
Na1A Na 1.15621(12) 0.53234(10) 0.51407(7)
O2A O 1.2900(2) 0.50812(17) 0.45652(12)
O3A O 1.16461(19) 0.58790(15) 0.42071(11)
O4A O 0.9884(2) 0.57678(16) 0.52917(11)
O5A O 1.02185(19) 0.50507(16) 0.61644(11)
H161A H 0.9589 0.4773 0.6092
C58 C 0.9547(3) 0.0748(2) -0.21694(15)
C59 C 1.0101(3) 0.1306(2) -0.25205(17)
H69 H 0.9834 0.1705 -0.2621
C60 C 1.1024(3) 0.1304(2) -0.27296(17)
C61 C 1.1380(3) 0.0692(2) -0.25800(16)
H70 H 1.1999 0.0668 -0.2719
C62 C 1.0856(3) 0.0116(2) -0.22340(15)
C63 C 0.9945(3) 0.0157(2) -0.20279(15)
C64 C 1.1604(4) 0.1918(3) -0.3122(2)
C66 C 1.2601(6) 0.1827(6) -0.3300(4)
H74 H 1.3131 0.1955 -0.2993
H75 H 1.2861 0.2181 -0.3588
H76 H 1.2453 0.1285 -0.3432
C67 C 1.1016(11) 0.1674(6) -0.3694(3)
H77 H 1.1367 0.2056 -0.3951
H78 H 1.0292 0.1656 -0.3682
H79 H 1.1018 0.1155 -0.3808
C69 C 1.1313(8) 0.2648(6) -0.3109(4)
H83 H 1.1600 0.2950 -0.2767
H84 H 1.0549 0.2500 -0.3140
H85 H 1.1600 0.2968 -0.3410
C70 C 1.1300(3) -0.0537(2) -0.20886(16)
H86 H 1.0727 -0.1003 -0.1987
H87 H 1.1594 -0.0688 -0.2408
C71 C 1.2158(3) -0.0263(2) -0.16185(15)
C72 C 1.3195(3) 0.0111(3) -0.17286(17)
H88 H 1.3357 0.0152 -0.2094
C73 C 1.4013(3) 0.0430(3) -0.13193(18)
C74 C 1.3739(3) 0.0339(3) -0.07891(17)
H89 H 1.4276 0.0544 -0.0505
C75 C 1.2710(3) -0.0041(2) -0.06525(15)
C76 C 1.1923(3) -0.0342(2) -0.10724(15)
C77 C 1.5142(3) 0.0851(4) -0.1465(2)
C79 C 1.5944(9) 0.0955(8) -0.1030(5)
H93 H 1.5921 0.1357 -0.0766
H94 H 1.6631 0.1120 -0.1175
H95 H 1.5823 0.0460 -0.0854
C80 C 1.5528(6) 0.0163(5) -0.1746(4)
H96 H 1.6247 0.0401 -0.1846
H97 H 1.5064 -0.0075 -0.2070
H98 H 1.5499 -0.0241 -0.1489
C82 C 1.5211(9) 0.1201(8) -0.2004(5)
H102 H 1.5007 0.1667 -0.1986
H103 H 1.4741 0.0818 -0.2274
H104 H 1.5932 0.1350 -0.2106
C83 C 1.2474(3) -0.0118(2) -0.00558(15)
H105 H 1.1710 -0.0372 -0.0041
H106 H 1.2814 -0.0470 0.0108
C84 C 1.2832(3) 0.0648(2) 0.02865(16)
C85 C 1.3891(3) 0.0999(3) 0.04794(17)
H107 H 1.4363 0.0738 0.0401
C86 C 1.4284(3) 0.1715(3) 0.07810(19)
C87 C 1.3552(3) 0.2059(3) 0.09131(18)
H108 H 1.3791 0.2537 0.1125
C88 C 1.2483(3) 0.1728(2) 0.07470(16)
C89 C 1.2129(3) 0.1025(2) 0.04194(16)
C90 C 1.5463(3) 0.2138(3) 0.0961(2)
C91 C 1.5622(4) 0.2274(4) 0.1571(3)
H109 H 1.5412 0.1769 0.1740
H110 H 1.5195 0.2575 0.1688
H111 H 1.6361 0.2566 0.1678
C92 C 1.6144(4) 0.1681(4) 0.0759(3)
H112 H 1.5939 0.1166 0.0915
H113 H 1.6882 0.1973 0.0869
H114 H 1.6043 0.1614 0.0365
C93 C 1.5819(4) 0.2951(4) 0.0699(3)
H115 H 1.5733 0.2870 0.0305
H116 H 1.6556 0.3238 0.0815
H117 H 1.5390 0.3252 0.0813
C94 C 1.1741(3) 0.2132(2) 0.09236(16)
H118 H 1.2074 0.2466 0.1252
H119 H 1.1097 0.1725 0.1025
C95 C 1.1421(3) 0.2640(2) 0.05122(15)
C96 C 1.2058(3) 0.3422(2) 0.04761(16)
H120 H 1.2730 0.3605 0.0667
C97 C 1.1729(3) 0.3948(2) 0.01623(17)
C98 C 1.0709(3) 0.3645(2) -0.00957(16)
H121 H 1.0453 0.3988 -0.0297
C99 C 1.0056(3) 0.2872(2) -0.00723(15)
C100 C 1.0444(3) 0.2339(2) 0.02042(15)
C101 C 1.2448(3) 0.4809(3) 0.01260(19)
C105 C 1.3444(8) 0.5044(8) 0.0474(5)
H131 H 1.3293 0.5006 0.0854
H132 H 1.3867 0.5585 0.0409
H133 H 1.3830 0.4697 0.0390
C106 C 1.1862(8) 0.5368(6) 0.0207(5)
H134 H 1.1579 0.5300 0.0560
H135 H 1.1286 0.5259 -0.0076
H136 H 1.2340 0.5907 0.0188
C107 C 1.2736(10) 0.4880(8) -0.0484(4)
H137 H 1.2278 0.4417 -0.0700
H138 H 1.3467 0.4916 -0.0500
H139 H 1.2642 0.5350 -0.0627
C108 C 0.8917(3) 0.2606(2) -0.03191(16)
H140 H 0.8509 0.2130 -0.0141
H141 H 0.8626 0.3019 -0.0233
C109 C 0.8751(3) 0.2428(2) -0.09268(16)
C110 C 0.8534(3) 0.2973(2) -0.12701(16)
H142 H 0.8522 0.3452 -0.1117
C111 C 0.8335(3) 0.2819(2) -0.18393(16)
C112 C 0.8319(3) 0.2093(2) -0.20402(16)
H143 H 0.8142 0.1963 -0.2415
C113 C 0.8553(3) 0.1542(2) -0.17136(16)
C114 C 0.8795(3) 0.1734(2) -0.11537(16)
C115 C 0.8122(3) 0.3420(2) -0.22209(17)
C116 C 0.8753(4) 0.3464(3) -0.27250(19)
H144 H 0.9502 0.3640 -0.2611
H145 H 0.8614 0.3835 -0.2972
H146 H 0.8538 0.2945 -0.2909
C117 C 0.6961(4) 0.3156(3) -0.2421(2)
H147 H 0.6542 0.3125 -0.2112
H148 H 0.6752 0.2640 -0.2609
H149 H 0.6845 0.3534 -0.2669
C118 C 0.8473(5) 0.4244(3) -0.1953(2)
H150 H 0.8091 0.4237 -0.1634
H151 H 0.8329 0.4602 -0.2209
H152 H 0.9225 0.4420 -0.1846
C119 C 0.8513(3) 0.0759(2) -0.19626(16)
H153 H 0.7965 0.0603 -0.2267
H154 H 0.8300 0.0360 -0.1690
C124 C 1.2473(5) 0.1895(4) -0.0766(2)
C125 C 1.3540(5) 0.2435(4) -0.0579(3)
H155 H 1.3490 0.2831 -0.0319
H156 H 1.3893 0.2693 -0.0888
H157 H 1.3942 0.2138 -0.0406
Na2 Na 1.00954(12) 0.03747(9) -0.07601(6)
N2 N 1.1643(4) 0.1459(3) -0.09092(19)
O6 O 0.9412(2) -0.03687(16) -0.16554(11)
O7 O 1.08663(17) -0.06878(15) -0.09762(10)
O8 O 1.10649(18) 0.06812(15) 0.02408(10)
O9 O 0.98754(18) 0.15536(15) 0.01744(10)
H162 H 0.9724 0.1406 0.0484
O10 O 0.9045(2) 0.11870(15) -0.08359(11)
C58A C 1.0453(3) -0.0748(2) 0.21694(15)
C59A C 0.9899(3) -0.1306(2) 0.25205(17)
H69A H 1.0166 -0.1705 0.2621
C60A C 0.8976(3) -0.1304(2) 0.27296(17)
C61A C 0.8620(3) -0.0692(2) 0.25800(16)
H70A H 0.8001 -0.0668 0.2719
C62A C 0.9144(3) -0.0116(2) 0.22340(15)
C63A C 1.0055(3) -0.0157(2) 0.20279(15)
C64A C 0.8396(4) -0.1918(3) 0.3122(2)
C66A C 0.7399(6) -0.1827(6) 0.3300(4)
H74A H 0.6869 -0.1955 0.2993
H75A H 0.7139 -0.2181 0.3588
H76A H 0.7547 -0.1285 0.3432
C67A C 0.8984(11) -0.1674(6) 0.3694(3)
H77A H 0.8633 -0.2056 0.3951
H78A H 0.9708 -0.1656 0.3682
H79A H 0.8982 -0.1155 0.3808
C69A C 0.8687(8) -0.2648(6) 0.3109(4)
H83A H 0.8400 -0.2950 0.2767
H84A H 0.9451 -0.2500 0.3140
H85A H 0.8400 -0.2968 0.3410
C70A C 0.8700(3) 0.0537(2) 0.20886(16)
H86A H 0.9273 0.1003 0.1987
H87A H 0.8406 0.0688 0.2408
C71A C 0.7842(3) 0.0263(2) 0.16185(15)
C72A C 0.6805(3) -0.0111(3) 0.17286(17)
H88A H 0.6643 -0.0152 0.2094
C73A C 0.5987(3) -0.0430(3) 0.13193(18)
C74A C 0.6261(3) -0.0339(3) 0.07891(17)
H89A H 0.5724 -0.0544 0.0505
C75A C 0.7290(3) 0.0041(2) 0.06525(15)
C76A C 0.8077(3) 0.0342(2) 0.10724(15)
C77A C 0.4858(3) -0.0851(4) 0.1465(2)
C79A C 0.4056(9) -0.0955(8) 0.1030(5)
H93A H 0.4079 -0.1357 0.0766
H94A H 0.3369 -0.1120 0.1175
H95A H 0.4177 -0.0460 0.0854
C80A C 0.4472(6) -0.0163(5) 0.1746(4)
H96A H 0.3753 -0.0401 0.1846
H97A H 0.4936 0.0075 0.2070
H98A H 0.4501 0.0241 0.1489
C82A C 0.4789(9) -0.1201(8) 0.2004(5)
H102A H 0.4993 -0.1667 0.1986
H103A H 0.5259 -0.0818 0.2274
H104A H 0.4068 -0.1350 0.2106
C83A C 0.7526(3) 0.0118(2) 0.00558(15)
H105A H 0.8290 0.0372 0.0041
H106A H 0.7186 0.0470 -0.0108
C84A C 0.7168(3) -0.0648(2) -0.02865(16)
C85A C 0.6109(3) -0.0999(3) -0.04794(17)
H107A H 0.5637 -0.0738 -0.0401
C86A C 0.5716(3) -0.1715(3) -0.07810(19)
C87A C 0.6448(3) -0.2059(3) -0.09131(18)
H108A H 0.6209 -0.2537 -0.1125
C88A C 0.7517(3) -0.1728(2) -0.07470(16)
C89A C 0.7871(3) -0.1025(2) -0.04194(16)
C90A C 0.4537(3) -0.2138(3) -0.0961(2)
C91A C 0.4378(4) -0.2274(4) -0.1571(3)
H109A H 0.4588 -0.1769 -0.1740
H110A H 0.4805 -0.2575 -0.1688
H111A H 0.3639 -0.2566 -0.1678
C92A C 0.3856(4) -0.1681(4) -0.0759(3)
H112A H 0.4061 -0.1166 -0.0915
H113A H 0.3118 -0.1973 -0.0869
H114A H 0.3957 -0.1614 -0.0365
C93A C 0.4181(4) -0.2951(4) -0.0699(3)
H115A H 0.4267 -0.2870 -0.0305
H116A H 0.3444 -0.3238 -0.0815
H117A H 0.4610 -0.3252 -0.0813
C94A C 0.8259(3) -0.2132(2) -0.09236(16)
H118A H 0.7926 -0.2466 -0.1252
H119A H 0.8903 -0.1725 -0.1025
C95A C 0.8579(3) -0.2640(2) -0.05122(15)
C96A C 0.7942(3) -0.3422(2) -0.04761(16)
H120A H 0.7270 -0.3605 -0.0667
C97A C 0.8271(3) -0.3948(2) -0.01623(17)
C98A C 0.9291(3) -0.3645(2) 0.00957(16)
H121A H 0.9547 -0.3988 0.0297
C99A C 0.9944(3) -0.2872(2) 0.00723(15)
C100A C 0.9556(3) -0.2339(2) -0.02042(15)
C101A C 0.7552(3) -0.4809(3) -0.01260(19)
C105A C 0.6556(8) -0.5044(8) -0.0474(5)
H131A H 0.6707 -0.5006 -0.0854
H132A H 0.6133 -0.5585 -0.0409
H133A H 0.6170 -0.4697 -0.0390
C106A C 0.8138(8) -0.5368(6) -0.0207(5)
H134A H 0.8421 -0.5300 -0.0560
H135A H 0.8714 -0.5259 0.0076
H136A H 0.7660 -0.5907 -0.0188
C107A C 0.7264(10) -0.4880(8) 0.0484(4)
H137A H 0.7722 -0.4417 0.0700
H138A H 0.6533 -0.4916 0.0500
H139A H 0.7358 -0.5350 0.0627
C108A C 1.1083(3) -0.2606(2) 0.03191(16)
H140A H 1.1491 -0.2130 0.0141
H141A H 1.1374 -0.3019 0.0233
C109A C 1.1249(3) -0.2428(2) 0.09268(16)
C110A C 1.1466(3) -0.2973(2) 0.12701(16)
H142A H 1.1478 -0.3452 0.1117
C111A C 1.1665(3) -0.2819(2) 0.18393(16)
C112A C 1.1681(3) -0.2093(2) 0.20402(16)
H143A H 1.1858 -0.1963 0.2415
C113A C 1.1447(3) -0.1542(2) 0.17136(16)
C114A C 1.1205(3) -0.1734(2) 0.11537(16)
C115A C 1.1878(3) -0.3420(2) 0.22209(17)
C116A C 1.1247(4) -0.3464(3) 0.27250(19)
H144A H 1.0498 -0.3640 0.2611
H145A H 1.1386 -0.3835 0.2972
H146A H 1.1462 -0.2945 0.2909
C117A C 1.3039(4) -0.3156(3) 0.2421(2)
H147A H 1.3458 -0.3125 0.2112
H148A H 1.3248 -0.2640 0.2609
H149A H 1.3155 -0.3534 0.2669
C118A C 1.1527(5) -0.4244(3) 0.1953(2)
H150A H 1.1909 -0.4237 0.1634
H151A H 1.1671 -0.4602 0.2209
H152A H 1.0775 -0.4420 0.1846
C119A C 1.1487(3) -0.0759(2) 0.19626(16)
H153A H 1.2035 -0.0603 0.2267
H154A H 1.1700 -0.0360 0.1690
C124A C 0.7527(5) -0.1895(4) 0.0766(2)
C125A C 0.6460(5) -0.2435(4) 0.0579(3)
H155A H 0.6510 -0.2831 0.0319
H156A H 0.6107 -0.2693 0.0888
H157A H 0.6058 -0.2138 0.0406
Na2A Na 0.99046(12) -0.03747(9) 0.07601(6)
N2A N 0.8357(4) -0.1459(3) 0.09092(19)
O6A O 1.0588(2) 0.03687(16) 0.16554(11)
O7A O 0.91337(17) 0.06878(15) 0.09762(10)
O8A O 0.89351(18) -0.06812(15) -0.02408(10)
O9A O 1.01246(18) -0.15536(15) -0.01744(10)
H162A H 1.0276 -0.1406 -0.0484
O10A O 1.0955(2) -0.11870(15) 0.08359(11)
C120 C 0.8116(6) -0.1800(4) -0.2575(3)
C121 C 0.7301(6) -0.1424(5) -0.2502(4)
N4 N 0.8735(6) -0.2083(4) -0.2613(3)
C122 C 0.6028(8) 0.2288(5) 0.3146(3)
C123 C 0.6893(9) 0.3013(5) 0.3062(3)
N5 N 0.5359(7) 0.1726(5) 0.3221(3)
C126 C 1.2275(10) 0.3341(8) -0.1545(5)
C127 C 1.3134(11) 0.3621(8) -0.1564(6)
H158 H 1.3340 0.4184 -0.1481
H159 H 1.3319 0.3531 -0.1928
H160 H 1.3500 0.3393 -0.1302
N3 N 1.1181(5) 0.3051(5) -0.1487(3)
C65? C 1.2786(15) 0.2221(12) -0.2936(9)
H71? H 1.2881 0.2342 -0.2546
H72? H 1.3140 0.2695 -0.3123
H73? H 1.3085 0.1818 -0.3021
C68? C 1.1897(14) 0.2731(10) -0.2885(7)
H80? H 1.2272 0.2771 -0.2529
H81? H 1.1262 0.2859 -0.2848
H82? H 1.2348 0.3098 -0.3121
C78? C 1.5868(10) 0.1333(9) -0.0949(5)
H90? H 1.5575 0.1716 -0.0811
H91? H 1.6575 0.1607 -0.1052
H92? H 1.5895 0.0972 -0.0667
C81? C 1.5169(9) 0.1544(8) -0.1814(6)
H99? H 1.4930 0.1910 -0.1612
H100? H 1.4709 0.1349 -0.2145
H101? H 1.5886 0.1813 -0.1906
C102? C 1.2622(11) 0.5178(9) 0.0723(4)
H122? H 1.2144 0.4814 0.0950
H123? H 1.2484 0.5672 0.0723
H124? H 1.3346 0.5277 0.0865
C103? C 1.1969(9) 0.5298(7) -0.0206(5)
H125? H 1.1584 0.5528 0.0023
H126? H 1.1489 0.4967 -0.0498
H127? H 1.2523 0.5716 -0.0361
C104? C 1.3534(8) 0.4891(8) -0.0026(5)
H128? H 1.3978 0.4884 0.0299
H129? H 1.3835 0.5386 -0.0200
H130? H 1.3491 0.4455 -0.0276
C128? C 0.4595(11) 0.4081(10) 0.2095(7)
C129? C 1.198(2) 0.3758(17) -0.1465(10)
C130? C 1.263(3) 0.4581(19) -0.1476(17)
C131? C 0.3089(9) 0.1681(7) 0.4864(5)
C132? C 0.3597(9) 0.4528(8) 0.2729(5)
C133? C 0.4802(10) 0.5544(7) 0.2194(5)
H163? H 0.4528 0.3600 0.2281
H164? H 0.5226 0.4229 0.1898
H165? H 0.3980 0.3992 0.1840
H166? H 1.2179 0.4897 -0.1529
H167? H 1.3084 0.4652 -0.1772
H168? H 1.3059 0.4749 -0.1133
H169? H 0.3572 0.1444 0.4725
H170? H 0.2366 0.1330 0.4773
H171? H 0.3223 0.1765 0.5256
H172? H 0.3391 0.4026 0.2903
H173? H 0.3051 0.4521 0.2450
H174? H 0.3692 0.4952 0.2999
H175? H 0.5547 0.5861 0.2205
H176? H 0.4441 0.5818 0.2405
H177? H 0.4497 0.5458 0.1820
loop_
_geom_bond_atom_site_label_1
_geom_bond_atom_site_label_2
_geom_bond_site_symmetry_1
_geom_bond_site_symmetry_2
C1 C2 1_555 1_555
C2 C3 1_555 1_555
C3 H1 1_555 1_555
C4 C3 1_555 1_555
C5 C4 1_555 1_555
H2 C5 1_555 1_555
C6 C1 1_555 1_555
C7 C4 1_555 1_555
C8 C7 1_555 1_555
H3 C8 1_555 1_555
H4 C8 1_555 1_555
H5 C8 1_555 1_555
C9 C7 1_555 1_555
H6 C9 1_555 1_555
H7 C9 1_555 1_555
H8 C9 1_555 1_555
C10 C7 1_555 1_555
H9 C10 1_555 1_555
H10 C10 1_555 1_555
H11 C10 1_555 1_555
C11 C6 1_555 1_555
H12 C11 1_555 1_555
H13 C11 1_555 1_555
C12 C11 1_555 1_555
C13 C12 1_555 1_555
H14 C13 1_555 1_555
C14 C13 1_555 1_555
C15 C14 1_555 1_555
H15 C15 1_555 1_555
C16 C15 1_555 1_555
C17 C12 1_555 1_555
C18 C14 1_555 1_555
C19 C18 1_555 1_555
H16 C19 1_555 1_555
H17 C19 1_555 1_555
H18 C19 1_555 1_555
C20 C18 1_555 1_555
H19 C20 1_555 1_555
H20 C20 1_555 1_555
H21 C20 1_555 1_555
C21 C18 1_555 1_555
H22 C21 1_555 1_555
H23 C21 1_555 1_555
H24 C21 1_555 1_555
C22 C16 1_555 1_555
H25 C22 1_555 1_555
H26 C22 1_555 1_555
C23 C22 1_555 1_555
C24 C23 1_555 1_555
H27 C24 1_555 1_555
C25 C24 1_555 1_555
C26 C25 1_555 1_555
H28 C26 1_555 1_555
C27 C26 1_555 1_555
C28 C23 1_555 1_555
C29 C25 1_555 1_555
C30 C29 1_555 1_555
H29 C30 1_555 1_555
H30 C30 1_555 1_555
H31 C30 1_555 1_555
C31 C29 1_555 1_555
H32 C31 1_555 1_555
H33 C31 1_555 1_555
H34 C31 1_555 1_555
C32 C29 1_555 1_555
H35 C32 1_555 1_555
H36 C32 1_555 1_555
H37 C32 1_555 1_555
C33 C27 1_555 1_555
H38 C33 1_555 1_555
H39 C33 1_555 1_555
C34 C33 1_555 1_555
C35 C34 1_555 1_555
H40 C35 1_555 1_555
C36 C35 1_555 1_555
C37 C36 1_555 1_555
H41 C37 1_555 1_555
C38 C37 1_555 1_555
C39 C34 1_555 1_555
C40 C36 1_555 1_555
C41 C40 1_555 1_555
H42 C41 1_555 1_555
H43 C41 1_555 1_555
H44 C41 1_555 1_555
C42 C40 1_555 1_555
H45 C42 1_555 1_555
H46 C42 1_555 1_555
H47 C42 1_555 1_555
C43 C40 1_555 1_555
H48 C43 1_555 1_555
H49 C43 1_555 1_555
H50 C43 1_555 1_555
C44 C38 1_555 1_555
H51 C44 1_555 1_555
H52 C44 1_555 1_555
C45 C44 1_555 1_555
C46 C45 1_555 1_555
H53 C46 1_555 1_555
C47 C46 1_555 1_555
C48 C47 1_555 1_555
H54 C48 1_555 1_555
C49 C48 1_555 1_555
C50 C45 1_555 1_555
C51 C47 1_555 1_555
C52 C51 1_555 1_555
H55 C52 1_555 1_555
H56 C52 1_555 1_555
H57 C52 1_555 1_555
C53 C51 1_555 1_555
H58 C53 1_555 1_555
H59 C53 1_555 1_555
H60 C53 1_555 1_555
C54 C51 1_555 1_555
H61 C54 1_555 1_555
H62 C54 1_555 1_555
H63 C54 1_555 1_555
C55 C2 1_555 1_555
H64 C55 1_555 1_555
H65 C55 1_555 1_555
C56 C57 1_555 1_555
C57 H66 1_555 1_555
H67 C57 1_555 1_555
H68 C57 1_555 1_555
C58 C59 1_555 1_555
C59 H69 1_555 1_555
C60 C59 1_555 1_555
C61 C60 1_555 1_555
H70 C61 1_555 1_555
C62 C61 1_555 1_555
C63 C58 1_555 1_555
C64 C60 1_555 1_555
C66 C64 1_555 1_555
H74 C66 1_555 1_555
H75 C66 1_555 1_555
H76 C66 1_555 1_555
C67 C64 1_555 1_555
H77 C67 1_555 1_555
H78 C67 1_555 1_555
H79 C67 1_555 1_555
C69 C64 1_555 1_555
H83 C69 1_555 1_555
H84 C69 1_555 1_555
H85 C69 1_555 1_555
C70 C62 1_555 1_555
H86 C70 1_555 1_555
H87 C70 1_555 1_555
C71 C70 1_555 1_555
C72 C71 1_555 1_555
H88 C72 1_555 1_555
C73 C72 1_555 1_555
C74 C73 1_555 1_555
H89 C74 1_555 1_555
C75 C74 1_555 1_555
C76 C71 1_555 1_555
C77 C73 1_555 1_555
C79 C77 1_555 1_555
H93 C79 1_555 1_555
H94 C79 1_555 1_555
H95 C79 1_555 1_555
C80 C77 1_555 1_555
H96 C80 1_555 1_555
H97 C80 1_555 1_555
H98 C80 1_555 1_555
C82 C77 1_555 1_555
H102 C82 1_555 1_555
H103 C82 1_555 1_555
H104 C82 1_555 1_555
C83 C75 1_555 1_555
H105 C83 1_555 1_555
H106 C83 1_555 1_555
C84 C83 1_555 1_555
C85 C84 1_555 1_555
H107 C85 1_555 1_555
C86 C85 1_555 1_555
C87 C86 1_555 1_555
H108 C87 1_555 1_555
C88 C87 1_555 1_555
C89 C84 1_555 1_555
C90 C86 1_555 1_555
C91 C90 1_555 1_555
H109 C91 1_555 1_555
H110 C91 1_555 1_555
H111 C91 1_555 1_555
C92 C90 1_555 1_555
H112 C92 1_555 1_555
H113 C92 1_555 1_555
H114 C92 1_555 1_555
C93 C90 1_555 1_555
H115 C93 1_555 1_555
H116 C93 1_555 1_555
H117 C93 1_555 1_555
C94 C88 1_555 1_555
H118 C94 1_555 1_555
H119 C94 1_555 1_555
C95 C94 1_555 1_555
C96 C95 1_555 1_555
H120 C96 1_555 1_555
C97 C96 1_555 1_555
C98 C97 1_555 1_555
H121 C98 1_555 1_555
C99 C98 1_555 1_555
C100 C95 1_555 1_555
C101 C97 1_555 1_555
C105 C101 1_555 1_555
H131 C105 1_555 1_555
H132 C105 1_555 1_555
H133 C105 1_555 1_555
C106 C101 1_555 1_555
H134 C106 1_555 1_555
H135 C106 1_555 1_555
H136 C106 1_555 1_555
C107 C101 1_555 1_555
H137 C107 1_555 1_555
H138 C107 1_555 1_555
H139 C107 1_555 1_555
C108 C99 1_555 1_555
H140 C108 1_555 1_555
H141 C108 1_555 1_555
C109 C108 1_555 1_555
C110 C109 1_555 1_555
H142 C110 1_555 1_555
C111 C110 1_555 1_555
C112 C111 1_555 1_555
H143 C112 1_555 1_555
C113 C112 1_555 1_555
C114 C109 1_555 1_555
C115 C111 1_555 1_555
C116 C115 1_555 1_555
H144 C116 1_555 1_555
H145 C116 1_555 1_555
H146 C116 1_555 1_555
C117 C115 1_555 1_555
H147 C117 1_555 1_555
H148 C117 1_555 1_555
H149 C117 1_555 1_555
C118 C115 1_555 1_555
H150 C118 1_555 1_555
H151 C118 1_555 1_555
H152 C118 1_555 1_555
C119 C58 1_555 1_555
H153 C119 1_555 1_555
H154 C119 1_555 1_555
C120 C121 1_555 1_555
C122 C123 1_555 1_555
C124 C125 1_555 1_555
C125 H155 1_555 1_555
H156 C125 1_555 1_555
H157 C125 1_555 1_555
C126 C127 1_555 1_555
C127 H158 1_555 1_555
H159 C127 1_555 1_555
H160 C127 1_555 1_555
O1 C1 1_555 1_555
N1 C56 1_555 1_555
Na1 O1 1_555 1_555
O2 C17 1_555 1_555
Na2 N2 1_555 1_555
O3 C28 1_555 1_555
N2 C124 1_555 1_555
O4 C39 1_555 1_555
N3 C126 1_555 1_555
O5 C50 1_555 1_555
H161 O5 1_555 1_555
O6 C63 1_555 1_555
O7 C76 1_555 1_555
N4 C120 1_555 1_555
O8 C89 1_555 1_555
N5 C122 1_555 1_555
O9 C100 1_555 1_555
H162 O9 1_555 1_555
O10 C114 1_555 1_555
C1A C2A 1_555 1_555
C2A C3A 1_555 1_555
C3A H1A 1_555 1_555
C4A C3A 1_555 1_555
C5A C4A 1_555 1_555
H2A C5A 1_555 1_555
C6A C1A 1_555 1_555
C7A C4A 1_555 1_555
C8A C7A 1_555 1_555
H3A C8A 1_555 1_555
H4A C8A 1_555 1_555
H5A C8A 1_555 1_555
C9A C7A 1_555 1_555
H6A C9A 1_555 1_555
H7A C9A 1_555 1_555
H8A C9A 1_555 1_555
C10A C7A 1_555 1_555
H9A C10A 1_555 1_555
H10A C10A 1_555 1_555
H11A C10A 1_555 1_555
C11A C6A 1_555 1_555
H12A C11A 1_555 1_555
H13A C11A 1_555 1_555
C12A C11A 1_555 1_555
C13A C12A 1_555 1_555
H14A C13A 1_555 1_555
C14A C13A 1_555 1_555
C15A C14A 1_555 1_555
H15A C15A 1_555 1_555
C16A C15A 1_555 1_555
C17A C12A 1_555 1_555
C18A C14A 1_555 1_555
C19A C18A 1_555 1_555
H16A C19A 1_555 1_555
H17A C19A 1_555 1_555
H18A C19A 1_555 1_555
C20A C18A 1_555 1_555
H19A C20A 1_555 1_555
H20A C20A 1_555 1_555
H21A C20A 1_555 1_555
C21A C18A 1_555 1_555
H22A C21A 1_555 1_555
H23A C21A 1_555 1_555
H24A C21A 1_555 1_555
C22A C16A 1_555 1_555
H25A C22A 1_555 1_555
H26A C22A 1_555 1_555
C23A C22A 1_555 1_555
C24A C23A 1_555 1_555
H27A C24A 1_555 1_555
C25A C24A 1_555 1_555
C26A C25A 1_555 1_555
H28A C26A 1_555 1_555
C27A C26A 1_555 1_555
C28A C23A 1_555 1_555
C29A C25A 1_555 1_555
C30A C29A 1_555 1_555
H29A C30A 1_555 1_555
H30A C30A 1_555 1_555
H31A C30A 1_555 1_555
C31A C29A 1_555 1_555
H32A C31A 1_555 1_555
H33A C31A 1_555 1_555
H34A C31A 1_555 1_555
C32A C29A 1_555 1_555
H35A C32A 1_555 1_555
H36A C32A 1_555 1_555
H37A C32A 1_555 1_555
C33A C27A 1_555 1_555
H38A C33A 1_555 1_555
H39A C33A 1_555 1_555
C34A C33A 1_555 1_555
C35A C34A 1_555 1_555
H40A C35A 1_555 1_555
C36A C35A 1_555 1_555
C37A C36A 1_555 1_555
H41A C37A 1_555 1_555
C38A C37A 1_555 1_555
C39A C34A 1_555 1_555
C40A C36A 1_555 1_555
C41A C40A 1_555 1_555
H42A C41A 1_555 1_555
H43A C41A 1_555 1_555
H44A C41A 1_555 1_555
C42A C40A 1_555 1_555
H45A C42A 1_555 1_555
H46A C42A 1_555 1_555
H47A C42A 1_555 1_555
C43A C40A 1_555 1_555
H48A C43A 1_555 1_555
H49A C43A 1_555 1_555
H50A C43A 1_555 1_555
C44A C38A 1_555 1_555
H51A C44A 1_555 1_555
H52A C44A 1_555 1_555
C45A C44A 1_555 1_555
C46A C45A 1_555 1_555
H53A C46A 1_555 1_555
C47A C46A 1_555 1_555
C48A C47A 1_555 1_555
H54A C48A 1_555 1_555
C49A C48A 1_555 1_555
C50A C45A 1_555 1_555
C51A C47A 1_555 1_555
C52A C51A 1_555 1_555
H55A C52A 1_555 1_555
H56A C52A 1_555 1_555
H57A C52A 1_555 1_555
C53A C51A 1_555 1_555
H58A C53A 1_555 1_555
H59A C53A 1_555 1_555
H60A C53A 1_555 1_555
C54A C51A 1_555 1_555
H61A C54A 1_555 1_555
H62A C54A 1_555 1_555
H63A C54A 1_555 1_555
C55A C2A 1_555 1_555
H64A C55A 1_555 1_555
H65A C55A 1_555 1_555
C56A C57A 1_555 1_555
C57A H66A 1_555 1_555
H67A C57A 1_555 1_555
H68A C57A 1_555 1_555
C58A C59A 1_555 1_555
C59A H69A 1_555 1_555
C60A C59A 1_555 1_555
C61A C60A 1_555 1_555
H70A C61A 1_555 1_555
C62A C61A 1_555 1_555
C63A C58A 1_555 1_555
C64A C60A 1_555 1_555
C66A C64A 1_555 1_555
H74A C66A 1_555 1_555
H75A C66A 1_555 1_555
H76A C66A 1_555 1_555
C67A C64A 1_555 1_555
H77A C67A 1_555 1_555
H78A C67A 1_555 1_555
H79A C67A 1_555 1_555
C69A C64A 1_555 1_555
H83A C69A 1_555 1_555
H84A C69A 1_555 1_555
H85A C69A 1_555 1_555
C70A C62A 1_555 1_555
H86A C70A 1_555 1_555
H87A C70A 1_555 1_555
C71A C70A 1_555 1_555
C72A C71A 1_555 1_555
H88A C72A 1_555 1_555
C73A C72A 1_555 1_555
C74A C73A 1_555 1_555
H89A C74A 1_555 1_555
C75A C74A 1_555 1_555
C76A C71A 1_555 1_555
C77A C73A 1_555 1_555
C79A C77A 1_555 1_555
H93A C79A 1_555 1_555
H94A C79A 1_555 1_555
H95A C79A 1_555 1_555
C80A C77A 1_555 1_555
H96A C80A 1_555 1_555
H97A C80A 1_555 1_555
H98A C80A 1_555 1_555
C82A C77A 1_555 1_555
H102A C82A 1_555 1_555
H103A C82A 1_555 1_555
H104A C82A 1_555 1_555
C83A C75A 1_555 1_555
H105A C83A 1_555 1_555
H106A C83A 1_555 1_555
C84A C83A 1_555 1_555
C85A C84A 1_555 1_555
H107A C85A 1_555 1_555
C86A C85A 1_555 1_555
C87A C86A 1_555 1_555
H108A C87A 1_555 1_555
C88A C87A 1_555 1_555
C89A C84A 1_555 1_555
C90A C86A 1_555 1_555
C91A C90A 1_555 1_555
H109A C91A 1_555 1_555
H110A C91A 1_555 1_555
H111A C91A 1_555 1_555
C92A C90A 1_555 1_555
H112A C92A 1_555 1_555
H113A C92A 1_555 1_555
H114A C92A 1_555 1_555
C93A C90A 1_555 1_555
H115A C93A 1_555 1_555
H116A C93A 1_555 1_555
H117A C93A 1_555 1_555
C94A C88A 1_555 1_555
H118A C94A 1_555 1_555
H119A C94A 1_555 1_555
C95A C94A 1_555 1_555
C96A C95A 1_555 1_555
H120A C96A 1_555 1_555
C97A C96A 1_555 1_555
C98A C97A 1_555 1_555
H121A C98A 1_555 1_555
C99A C98A 1_555 1_555
C100A C95A 1_555 1_555
C101A C97A 1_555 1_555
C105A C101A 1_555 1_555
H131A C105A 1_555 1_555
H132A C105A 1_555 1_555
H133A C105A 1_555 1_555
C106A C101A 1_555 1_555
H134A C106A 1_555 1_555
H135A C106A 1_555 1_555
H136A C106A 1_555 1_555
C107A C101A 1_555 1_555
H137A C107A 1_555 1_555
H138A C107A 1_555 1_555
H139A C107A 1_555 1_555
C108A C99A 1_555 1_555
H140A C108A 1_555 1_555
H141A C108A 1_555 1_555
C109A C108A 1_555 1_555
C110A C109A 1_555 1_555
H142A C110A 1_555 1_555
C111A C110A 1_555 1_555
C112A C111A 1_555 1_555
H143A C112A 1_555 1_555
C113A C112A 1_555 1_555
C114A C109A 1_555 1_555
C115A C111A 1_555 1_555
C116A C115A 1_555 1_555
H144A C116A 1_555 1_555
H145A C116A 1_555 1_555
H146A C116A 1_555 1_555
C117A C115A 1_555 1_555
H147A C117A 1_555 1_555
H148A C117A 1_555 1_555
H149A C117A 1_555 1_555
C118A C115A 1_555 1_555
H150A C118A 1_555 1_555
H151A C118A 1_555 1_555
H152A C118A 1_555 1_555
C119A C58A 1_555 1_555
H153A C119A 1_555 1_555
H154A C119A 1_555 1_555
C124A C125A 1_555 1_555
C125A H155A 1_555 1_555
H156A C125A 1_555 1_555
H157A C125A 1_555 1_555
O1A C1A 1_555 1_555
N1A C56A 1_555 1_555
Na1A O4 1_555 1_555
O2A C17A 1_555 1_555
Na2A O8 1_555 1_555
O3A C28A 1_555 1_555
N2A C124A 1_555 1_555
O4A Na1 1_555 1_555
O5A C50A 1_555 1_555
H161A O5A 1_555 1_555
O6A C63A 1_555 1_555
O7A C76A 1_555 1_555
O8A Na2 1_555 1_555
O9A C100A 1_555 1_555
H162A O9A 1_555 1_555
O10A C114A 1_555 1_555
C5 C6 1_555 1_555
C16 C17 1_555 1_555
C27 C28 1_555 1_555
C38 C39 1_555 1_555
C49 C50 1_555 1_555
C49 C55 1_555 1_555
C62 C63 1_555 1_555
C75 C76 1_555 1_555
C88 C89 1_555 1_555
C99 C100 1_555 1_555
C113 C114 1_555 1_555
C113 C119 1_555 1_555
N1 Na1 1_555 1_555
Na1 O2 1_555 1_555
Na1 O3 1_555 1_555
Na1 O4 1_555 1_555
Na2 O6 1_555 1_555
Na2 O7 1_555 1_555
Na2 O8 1_555 1_555
Na2 O10 1_555 1_555
C5A C6A 1_555 1_555
C16A C17A 1_555 1_555
C27A C28A 1_555 1_555
C38A C39A 1_555 1_555
C39A O4A 1_555 1_555
C49A C50A 1_555 1_555
C49A C55A 1_555 1_555
C62A C63A 1_555 1_555
C75A C76A 1_555 1_555
C88A C89A 1_555 1_555
C89A O8A 1_555 1_555
C99A C100A 1_555 1_555
C113A C114A 1_555 1_555
C113A C119A 1_555 1_555
O1A Na1A 1_555 1_555
N1A Na1A 1_555 1_555
Na1A O2A 1_555 1_555
Na1A O3A 1_555 1_555
Na1A O4A 1_555 1_555
Na2A N2A 1_555 1_555
Na2A O6A 1_555 1_555
Na2A O7A 1_555 1_555
Na2A O8A 1_555 1_555
Na2A O10A 1_555 1_555

#END
