
#######################################################################
#
#                 Cambridge Crystallographic Data Centre
#                                CCDC 
#
#######################################################################
#
# If this CIF has been generated from an entry in the Cambridge 
# Structural Database, then it will include bibliographic, chemical, 
# crystal, experimental, refinement or atomic coordinate data resulting 
# from the CCDC's data processing and validation procedures.
#
#######################################################################

data_FOTDIC
_chemical_formula_moiety         'C126 H168 O16 Rb4,1.5(C4 H8 O1)'
_chemical_name_systematic        
'bis(\m~3~-5,11,17,23,29-Penta-t-butyl-31-hydroxy-32,33,34,35-tetraoxycalix(5)arene)-diaqua-tetrakis(tetrahydrofuran)-tetra-rubidium tetrahydrofuran solvate'
_symmetry_cell_setting           monoclinic
_symmetry_space_group_name_H-M   'C 2/c'
_symmetry_Int_Tables_number      15
_space_group_name_Hall           '-C 2yn'
loop_
_symmetry_equiv_pos_site_id
_symmetry_equiv_pos_as_xyz
1 x,y,z
2 -x,y,1/2-z
3 1/2+x,1/2+y,z
4 1/2-x,1/2+y,1/2-z
5 -x,-y,-z
6 x,-y,1/2+z
7 1/2-x,1/2-y,-z
8 1/2+x,1/2-y,1/2+z
_cell_length_a                   38.854(2)
_cell_length_b                   16.1785(9)
_cell_length_c                   21.4390(12)
_cell_angle_alpha                90
_cell_angle_beta                 91.0460(10)
_cell_angle_gamma                90
_cell_volume                     13474.3
_exptl_crystal_colour            colorless
_exptl_crystal_description       block
_cell_formula_units_Z            4
loop_
_atom_site_label
_atom_site_type_symbol
_atom_site_fract_x
_atom_site_fract_y
_atom_site_fract_z
Rb1 Rb 0.119968(11) 0.98410(3) 0.66913(2)
C1 C 0.09316(11) 0.8182(3) 0.7614(2)
C2 C 0.10946(12) 0.8357(3) 0.8187(2)
C3 C 0.13121(13) 0.7765(3) 0.8441(2)
H1 H 0.1423 0.7884 0.8825
C4 C 0.13769(14) 0.7007(4) 0.8164(2)
C5 C 0.12201(13) 0.6879(3) 0.7590(2)
H2 H 0.1262 0.6376 0.7384
C6 C 0.10052(11) 0.7449(3) 0.7301(2)
C7 C 0.1612(2) 0.6355(4) 0.8476(3)
C8 C 0.1684(2) 0.6502(5) 0.9135(3)
H3 H 0.1470 0.6506 0.9361
H4 H 0.1799 0.7031 0.9186
H5 H 0.1832 0.6066 0.9298
C9 C 0.1594(5) 0.5576(10) 0.8210(8)
H6 H 0.1374 0.5325 0.8302
H7 H 0.1778 0.5234 0.8379
H8 H 0.1617 0.5622 0.7761
C10 C 0.2015(4) 0.6702(10) 0.8295(7)
H9 H 0.2026 0.7296 0.8352
H10 H 0.2063 0.6568 0.7864
H11 H 0.2185 0.6438 0.8566
C11 C 0.08397(11) 0.7261(3) 0.66718(18)
H12 H 0.0764 0.6684 0.6666
H13 H 0.0635 0.7611 0.6615
C12 C 0.10788(11) 0.7403(3) 0.6133(2)
C13 C 0.10450(10) 0.8078(3) 0.57325(19)
C14 C 0.12649(11) 0.8168(3) 0.52267(19)
C15 C 0.15223(11) 0.7591(3) 0.5156(2)
H14 H 0.1673 0.7659 0.4823
C16 C 0.15722(12) 0.6917(3) 0.5547(2)
C17 C 0.13386(12) 0.6842(3) 0.6028(2)
H15 H 0.1359 0.6384 0.6296
C18 C 0.18577(14) 0.6291(4) 0.5432(3)
C19 C 0.1997(3) 0.5919(9) 0.6080(6)
H16 H 0.2110 0.6352 0.6321
H17 H 0.2161 0.5480 0.5999
H18 H 0.1806 0.5698 0.6312
C20 C 0.22000(19) 0.6729(5) 0.5325(5)
H19 H 0.2184 0.7053 0.4945
H20 H 0.2381 0.6321 0.5286
H21 H 0.2252 0.7090 0.5675
C21 C 0.1709(4) 0.5526(10) 0.5126(8)
H22 H 0.1613 0.5668 0.4718
H23 H 0.1529 0.5302 0.5383
H24 H 0.1889 0.5117 0.5079
C22 C 0.12204(11) 0.8866(3) 0.47680(19)
H25 H 0.1359 0.8741 0.4403
H26 H 0.0979 0.8874 0.4628
C23 C 0.13136(11) 0.9721(3) 0.49880(18)
C24 C 0.10530(10) 1.0279(3) 0.51383(18)
C25 C 0.11348(11) 1.1118(3) 0.51982(19)
C26 C 0.14779(12) 1.1355(3) 0.5225(2)
H27 H 0.1532 1.1915 0.5292
C27 C 0.17458(12) 1.0791(3) 0.5156(2)
C28 C 0.16487(11) 0.9983(3) 0.5010(2)
H28 H 0.1822 0.9598 0.4923
C29 C 0.21282(13) 1.1039(4) 0.5190(3)
C30 C 0.23246(15) 1.0423(4) 0.5619(4)
H29 H 0.2300 0.9869 0.5452
H30 H 0.2231 1.0444 0.6034
H31 H 0.2567 1.0571 0.5638
C31 C 0.22747(17) 1.1024(5) 0.4542(3)
H32 H 0.2149 1.1412 0.4278
H33 H 0.2253 1.0472 0.4369
H34 H 0.2516 1.1179 0.4563
C32 C 0.21794(14) 1.1898(3) 0.5461(3)
H35 H 0.2065 1.2300 0.5194
H36 H 0.2424 1.2021 0.5488
H37 H 0.2083 1.1920 0.5875
C33 C 0.08498(11) 1.1765(3) 0.5179(2)
H38 H 0.0922 1.2214 0.4904
H39 H 0.0645 1.1512 0.4986
C34 C 0.07476(11) 1.2138(3) 0.5785(2)
C35 C 0.06269(10) 1.1652(3) 0.6276(2)
C36 C 0.05371(10) 1.2016(3) 0.6843(2)
C37 C 0.05542(12) 1.2870(3) 0.6900(2)
H40 H 0.0488 1.3109 0.7279
C38 C 0.06647(13) 1.3392(3) 0.6426(2)
C39 C 0.07605(12) 1.2989(3) 0.5877(2)
H41 H 0.0839 1.3317 0.5547
C40 C 0.06966(15) 1.4327(3) 0.6519(2)
C41 C 0.0521(3) 1.4659(9) 0.7094(5)
H42 H 0.0274 1.4590 0.7047
H43 H 0.0575 1.5241 0.7143
H44 H 0.0602 1.4358 0.7459
C42 C 0.1090(3) 1.4493(10) 0.6642(7)
H45 H 0.1133 1.4570 0.7086
H46 H 0.1159 1.4988 0.6420
H47 H 0.1223 1.4026 0.6497
C43 C 0.0585(4) 1.4793(9) 0.5943(5)
H48 H 0.0350 1.4648 0.5833
H49 H 0.0735 1.4648 0.5601
H50 H 0.0601 1.5382 0.6022
C44 C 0.04514(11) 1.1480(3) 0.7391(2)
H51 H 0.0292 1.1043 0.7254
H52 H 0.0335 1.1815 0.7704
C45 C 0.07710(11) 1.1088(3) 0.76837(19)
C46 C 0.07503(11) 1.0301(3) 0.79518(19)
C47 C 0.10445(11) 0.9949(3) 0.82337(18)
C48 C 0.13501(12) 1.0392(3) 0.82366(19)
H53 H 0.1553 1.0154 0.8457
C49 C 0.13813(11) 1.1176(3) 0.7967(2)
C50 C 0.10852(11) 1.1511(3) 0.76872(19)
H54 H 0.1094 1.2079 0.7516
C51 C 0.17217(12) 1.1650(4) 0.7942(2)
C52 C 0.20028(14) 1.1285(4) 0.8370(3)
H55 H 0.1925 1.1288 0.8798
H56 H 0.2210 1.1614 0.8340
H57 H 0.2051 1.0722 0.8244
C53 C 0.18504(15) 1.1662(5) 0.7269(3)
H58 H 0.1891 1.1100 0.7130
H59 H 0.2063 1.1974 0.7253
H60 H 0.1678 1.1920 0.7000
C54 C 0.16576(16) 1.2551(4) 0.8166(3)
H61 H 0.1577 1.2542 0.8592
H62 H 0.1485 1.2809 0.7898
H63 H 0.1870 1.2862 0.8148
C55 C 0.10221(13) 0.9137(3) 0.85660(19)
H64 H 0.0790 0.9088 0.8735
H65 H 0.1184 0.9150 0.8921
C56 C 0.1926(3) 0.8442(11) 0.6685(8)
H66 H 0.1818 0.8399 0.6270
H67 H 0.1852 0.7978 0.6943
C57 C 0.2339(3) 0.8487(11) 0.6647(7)
H68 H 0.2442 0.7944 0.6571
H69 H 0.2415 0.8883 0.6332
C58 C 0.2402(4) 0.8770(10) 0.7261(7)
H70 H 0.2399 0.8304 0.7553
H71 H 0.2628 0.9037 0.7291
C59 C 0.2142(5) 0.9339(13) 0.7411(9)
H72 H 0.2224 0.9908 0.7368
H73 H 0.2064 0.9255 0.7838
C60 C -0.0003(3) 0.7283(8) 0.5730(5)
H74 H 0.0244 0.7156 0.5720
H75 H -0.0068 0.7641 0.5378
C61 C -0.0231(4) 0.6493(9) 0.5766(7)
H76 H -0.0408 0.6492 0.5434
H77 H -0.0090 0.5992 0.5729
C62 C -0.0377(4) 0.6537(8) 0.6341(7)
H78 H -0.0408 0.5973 0.6498
H79 H -0.0606 0.6785 0.6292
C63 C -0.0183(4) 0.7013(9) 0.6818(7)
H80 H -0.0325 0.7225 0.7155
H81 H 0.0022 0.6728 0.6983
O1 O 0.07033(8) 0.87143(19) 0.73456(13)
O2 O 0.07863(7) 0.86477(18) 0.58339(13)
O3 O 0.07286(7) 1.00114(18) 0.52051(13)
H82 H 0.0647 1.0217 0.5525
O4 O 0.06000(7) 1.08058(19) 0.62267(12)
O5 O 0.04572(7) 0.98577(19) 0.79101(13)
O6 O 0.18587(10) 0.9161(3) 0.6950(2)
O7 O -0.01096(16) 0.7622(3) 0.6335(4)
O8 O -0.01231(19) 0.9386(5) 0.5319(4)
Rb2 Rb 0.015384(11) 0.93326(3) 0.65213(2)
Rb1A Rb -0.119968(11) 0.98410(3) 0.83087(2)
C1A C -0.09316(11) 0.8182(3) 0.7386(2)
C2A C -0.10946(12) 0.8357(3) 0.6813(2)
C3A C -0.13121(13) 0.7765(3) 0.6559(2)
H1A H -0.1423 0.7884 0.6175
C4A C -0.13769(14) 0.7007(4) 0.6836(2)
C5A C -0.12201(13) 0.6879(3) 0.7410(2)
H2A H -0.1262 0.6376 0.7616
C6A C -0.10052(11) 0.7449(3) 0.7699(2)
C7A C -0.1612(2) 0.6355(4) 0.6524(3)
C8A C -0.1684(2) 0.6502(5) 0.5865(3)
H3A H -0.1470 0.6506 0.5639
H4A H -0.1799 0.7031 0.5814
H5A H -0.1832 0.6066 0.5702
C9A C -0.1594(5) 0.5576(10) 0.6790(8)
H6A H -0.1374 0.5325 0.6698
H7A H -0.1778 0.5234 0.6621
H8A H -0.1617 0.5622 0.7239
C10A C -0.2015(4) 0.6702(10) 0.6705(7)
H9A H -0.2026 0.7296 0.6648
H10A H -0.2063 0.6568 0.7136
H11A H -0.2185 0.6438 0.6434
C11A C -0.08397(11) 0.7261(3) 0.83282(18)
H12A H -0.0764 0.6684 0.8334
H13A H -0.0635 0.7611 0.8385
C12A C -0.10788(11) 0.7403(3) 0.8867(2)
C13A C -0.10450(10) 0.8078(3) 0.92675(19)
C14A C -0.12649(11) 0.8168(3) 0.97733(19)
C15A C -0.15223(11) 0.7591(3) 0.9844(2)
H14A H -0.1673 0.7659 1.0177
C16A C -0.15722(12) 0.6917(3) 0.9453(2)
C17A C -0.13386(12) 0.6842(3) 0.8972(2)
H15A H -0.1359 0.6384 0.8704
C18A C -0.18577(14) 0.6291(4) 0.9568(3)
C19A C -0.1997(3) 0.5919(9) 0.8920(6)
H16A H -0.2110 0.6352 0.8679
H17A H -0.2161 0.5480 0.9001
H18A H -0.1806 0.5698 0.8688
C20A C -0.22000(19) 0.6729(5) 0.9675(5)
H19A H -0.2184 0.7053 1.0055
H20A H -0.2381 0.6321 0.9714
H21A H -0.2252 0.7090 0.9325
C21A C -0.1709(4) 0.5526(10) 0.9874(8)
H22A H -0.1613 0.5668 1.0282
H23A H -0.1529 0.5302 0.9617
H24A H -0.1889 0.5117 0.9921
C22A C -0.12204(11) 0.8866(3) 1.02320(19)
H25A H -0.1359 0.8741 1.0597
H26A H -0.0979 0.8874 1.0372
C23A C -0.13136(11) 0.9721(3) 1.00120(18)
C24A C -0.10530(10) 1.0279(3) 0.98617(18)
C25A C -0.11348(11) 1.1118(3) 0.98018(19)
C26A C -0.14779(12) 1.1355(3) 0.9775(2)
H27A H -0.1532 1.1915 0.9708
C27A C -0.17458(12) 1.0791(3) 0.9844(2)
C28A C -0.16487(11) 0.9983(3) 0.9990(2)
H28A H -0.1822 0.9598 1.0077
C29A C -0.21282(13) 1.1039(4) 0.9810(3)
C30A C -0.23246(15) 1.0423(4) 0.9381(4)
H29A H -0.2300 0.9869 0.9548
H30A H -0.2231 1.0444 0.8966
H31A H -0.2567 1.0571 0.9362
C31A C -0.22747(17) 1.1024(5) 1.0458(3)
H32A H -0.2149 1.1412 1.0722
H33A H -0.2253 1.0472 1.0631
H34A H -0.2516 1.1179 1.0437
C32A C -0.21794(14) 1.1898(3) 0.9539(3)
H35A H -0.2065 1.2300 0.9806
H36A H -0.2424 1.2021 0.9512
H37A H -0.2083 1.1920 0.9125
C33A C -0.08498(11) 1.1765(3) 0.9821(2)
H38A H -0.0922 1.2214 1.0096
H39A H -0.0645 1.1512 1.0014
C34A C -0.07476(11) 1.2138(3) 0.9215(2)
C35A C -0.06269(10) 1.1652(3) 0.8724(2)
C36A C -0.05371(10) 1.2016(3) 0.8157(2)
C37A C -0.05542(12) 1.2870(3) 0.8100(2)
H40A H -0.0488 1.3109 0.7721
C38A C -0.06647(13) 1.3392(3) 0.8574(2)
C39A C -0.07605(12) 1.2989(3) 0.9123(2)
H41A H -0.0839 1.3317 0.9453
C40A C -0.06966(15) 1.4327(3) 0.8481(2)
C41A C -0.0521(3) 1.4659(9) 0.7906(5)
H42A H -0.0274 1.4590 0.7953
H43A H -0.0575 1.5241 0.7857
H44A H -0.0602 1.4358 0.7541
C42A C -0.1090(3) 1.4493(10) 0.8358(7)
H45A H -0.1133 1.4570 0.7914
H46A H -0.1159 1.4988 0.8580
H47A H -0.1223 1.4026 0.8503
C43A C -0.0585(4) 1.4793(9) 0.9057(5)
H48A H -0.0350 1.4648 0.9167
H49A H -0.0735 1.4648 0.9399
H50A H -0.0601 1.5382 0.8978
C44A C -0.04514(11) 1.1480(3) 0.7609(2)
H51A H -0.0292 1.1043 0.7746
H52A H -0.0335 1.1815 0.7296
C45A C -0.07710(11) 1.1088(3) 0.73163(19)
C46A C -0.07503(11) 1.0301(3) 0.70482(19)
C47A C -0.10445(11) 0.9949(3) 0.67663(18)
C48A C -0.13501(12) 1.0392(3) 0.67634(19)
H53A H -0.1553 1.0154 0.6543
C49A C -0.13813(11) 1.1176(3) 0.7033(2)
C50A C -0.10852(11) 1.1511(3) 0.73128(19)
H54A H -0.1094 1.2079 0.7484
C51A C -0.17217(12) 1.1650(4) 0.7058(2)
C52A C -0.20028(14) 1.1285(4) 0.6630(3)
H55A H -0.1925 1.1288 0.6202
H56A H -0.2210 1.1614 0.6660
H57A H -0.2051 1.0722 0.6756
C53A C -0.18504(15) 1.1662(5) 0.7731(3)
H58A H -0.1891 1.1100 0.7870
H59A H -0.2063 1.1974 0.7747
H60A H -0.1678 1.1920 0.8000
C54A C -0.16576(16) 1.2551(4) 0.6834(3)
H61A H -0.1577 1.2542 0.6408
H62A H -0.1485 1.2809 0.7102
H63A H -0.1870 1.2862 0.6852
C55A C -0.10221(13) 0.9137(3) 0.64340(19)
H64A H -0.0790 0.9088 0.6265
H65A H -0.1184 0.9150 0.6079
C56A C -0.1926(3) 0.8442(11) 0.8315(8)
H66A H -0.1818 0.8399 0.8730
H67A H -0.1852 0.7978 0.8057
C57A C -0.2339(3) 0.8487(11) 0.8353(7)
H68A H -0.2442 0.7944 0.8429
H69A H -0.2415 0.8883 0.8668
C58A C -0.2402(4) 0.8770(10) 0.7739(7)
H70A H -0.2399 0.8304 0.7447
H71A H -0.2628 0.9037 0.7709
C59A C -0.2142(5) 0.9339(13) 0.7589(9)
H72A H -0.2224 0.9908 0.7632
H73A H -0.2064 0.9255 0.7162
C60A C 0.0003(3) 0.7283(8) 0.9270(5)
H74A H -0.0244 0.7156 0.9280
H75A H 0.0068 0.7641 0.9622
C61A C 0.0231(4) 0.6493(9) 0.9234(7)
H76A H 0.0408 0.6492 0.9566
H77A H 0.0090 0.5992 0.9271
C62A C 0.0377(4) 0.6537(8) 0.8659(7)
H78A H 0.0408 0.5973 0.8502
H79A H 0.0606 0.6785 0.8708
C63A C 0.0183(4) 0.7013(9) 0.8182(7)
H80A H 0.0325 0.7225 0.7845
H81A H -0.0022 0.6728 0.8017
O1A O -0.07033(8) 0.87143(19) 0.76544(13)
O2A O -0.07863(7) 0.86477(18) 0.91661(13)
O3A O -0.07286(7) 1.00114(18) 0.97949(13)
H82A H -0.0647 1.0217 0.9475
O4A O -0.06000(7) 1.08058(19) 0.87733(12)
O5A O -0.04572(7) 0.98577(19) 0.70899(13)
O6A O -0.18587(10) 0.9161(3) 0.8050(2)
O7A O 0.01096(16) 0.7622(3) 0.8665(4)
O8A O 0.01231(19) 0.9386(5) 0.9681(4)
Rb2A Rb -0.015384(11) 0.93326(3) 0.84787(2)
C64? C 0.1868(4) 0.6028(10) 0.8059(6)
C65? C 0.1859(5) 0.5567(12) 0.5844(10)
C66? C 0.1808(3) 0.5902(8) 0.4796(6)
C67? C 0.0348(3) 1.4649(9) 0.6761(6)
C68? C 0.0970(3) 1.4496(9) 0.7007(6)
C69? C 0.0782(3) 1.4795(8) 0.5910(4)
C70? C 0.1989(4) 0.8651(11) 0.6445(8)
C71? C 0.2240(5) 0.8056(13) 0.6909(9)
C72? C 0.2280(5) 0.8395(13) 0.7537(9)
C73? C 0.2006(4) 0.8873(11) 0.7535(7)
C74? C 0.1350(4) 0.5549(9) 0.8567(7)
H83? H 0.1785 0.5514 0.7878
H84? H 0.2081 0.5928 0.8291
H85? H 0.1909 0.6424 0.7729
H86? H 0.1721 0.5131 0.5655
H87? H 0.1764 0.5717 0.6243
H88? H 0.2094 0.5373 0.5905
H89? H 0.1721 0.6313 0.4504
H90? H 0.1644 0.5451 0.4823
H91? H 0.2026 0.5691 0.4652
H92? H 0.0161 1.4393 0.6526
H93? H 0.0337 1.5244 0.6710
H94? H 0.0328 1.4512 0.7199
H95? H 0.1192 1.4330 0.6852
H96? H 0.0920 1.4185 0.7382
H97? H 0.0973 1.5082 0.7103
H98? H 0.0575 1.4845 0.5652
H99? H 0.0955 1.4491 0.5684
H100? H 0.0869 1.5341 0.6012
H101? H 0.2121 0.8969 0.6143
H102? H 0.1807 0.8336 0.6231
H103? H 0.2139 0.7503 0.6935
H104? H 0.2467 0.8002 0.6722
H105? H 0.2270 0.7965 0.7858
H106? H 0.2494 0.8712 0.7588
H107? H 0.2064 0.9363 0.7786
H108? H 0.1825 0.8576 0.7755
H109? H 0.1131 0.5740 0.8725
H110? H 0.1453 0.5164 0.8862
H111? H 0.1313 0.5276 0.8169
O9? O -0.0256(4) 1.0003(10) 0.5683(7)
loop_
_geom_bond_atom_site_label_1
_geom_bond_atom_site_label_2
_geom_bond_site_symmetry_1
_geom_bond_site_symmetry_2
Rb1 C45 1_555 1_555
C1 C2 1_555 1_555
C2 C3 1_555 1_555
C3 H1 1_555 1_555
C4 C3 1_555 1_555
C5 C4 1_555 1_555
H2 C5 1_555 1_555
C6 C1 1_555 1_555
C7 C4 1_555 1_555
C8 C7 1_555 1_555
H3 C8 1_555 1_555
H4 C8 1_555 1_555
H5 C8 1_555 1_555
C9 C7 1_555 1_555
H6 C9 1_555 1_555
H7 C9 1_555 1_555
H8 C9 1_555 1_555
C10 C7 1_555 1_555
H9 C10 1_555 1_555
H10 C10 1_555 1_555
H11 C10 1_555 1_555
C11 C6 1_555 1_555
H12 C11 1_555 1_555
H13 C11 1_555 1_555
C12 C11 1_555 1_555
C13 C12 1_555 1_555
C14 C13 1_555 1_555
C15 C14 1_555 1_555
H14 C15 1_555 1_555
C16 C15 1_555 1_555
C17 C12 1_555 1_555
H15 C17 1_555 1_555
C18 C16 1_555 1_555
C19 C18 1_555 1_555
H16 C19 1_555 1_555
H17 C19 1_555 1_555
H18 C19 1_555 1_555
C20 C18 1_555 1_555
H19 C20 1_555 1_555
H20 C20 1_555 1_555
H21 C20 1_555 1_555
C21 C18 1_555 1_555
H22 C21 1_555 1_555
H23 C21 1_555 1_555
H24 C21 1_555 1_555
C22 C14 1_555 1_555
H25 C22 1_555 1_555
H26 C22 1_555 1_555
C23 C22 1_555 1_555
C24 C23 1_555 1_555
C25 C24 1_555 1_555
C26 C25 1_555 1_555
H27 C26 1_555 1_555
C27 C26 1_555 1_555
C28 C23 1_555 1_555
H28 C28 1_555 1_555
C29 C27 1_555 1_555
C30 C29 1_555 1_555
H29 C30 1_555 1_555
H30 C30 1_555 1_555
H31 C30 1_555 1_555
C31 C29 1_555 1_555
H32 C31 1_555 1_555
H33 C31 1_555 1_555
H34 C31 1_555 1_555
C32 C29 1_555 1_555
H35 C32 1_555 1_555
H36 C32 1_555 1_555
H37 C32 1_555 1_555
C33 C25 1_555 1_555
H38 C33 1_555 1_555
H39 C33 1_555 1_555
C34 C33 1_555 1_555
C35 C34 1_555 1_555
C36 C35 1_555 1_555
C37 C36 1_555 1_555
H40 C37 1_555 1_555
C38 C37 1_555 1_555
C39 C34 1_555 1_555
H41 C39 1_555 1_555
C40 C38 1_555 1_555
C41 C40 1_555 1_555
H42 C41 1_555 1_555
H43 C41 1_555 1_555
H44 C41 1_555 1_555
C42 C40 1_555 1_555
H45 C42 1_555 1_555
H46 C42 1_555 1_555
H47 C42 1_555 1_555
C43 C40 1_555 1_555
H48 C43 1_555 1_555
H49 C43 1_555 1_555
H50 C43 1_555 1_555
C44 C36 1_555 1_555
H51 C44 1_555 1_555
H52 C44 1_555 1_555
C45 C44 1_555 1_555
C46 Rb1 1_555 1_555
C47 Rb1 1_555 1_555
C48 Rb1 1_555 1_555
H53 C48 1_555 1_555
C49 C48 1_555 1_555
C50 Rb1 1_555 1_555
H54 C50 1_555 1_555
C51 C49 1_555 1_555
C52 C51 1_555 1_555
H55 C52 1_555 1_555
H56 C52 1_555 1_555
H57 C52 1_555 1_555
C53 C51 1_555 1_555
H58 C53 1_555 1_555
H59 C53 1_555 1_555
H60 C53 1_555 1_555
C54 C51 1_555 1_555
H61 C54 1_555 1_555
H62 C54 1_555 1_555
H63 C54 1_555 1_555
C55 C2 1_555 1_555
H64 C55 1_555 1_555
H65 C55 1_555 1_555
C56 H66 1_555 1_555
H67 C56 1_555 1_555
C57 C56 1_555 1_555
H68 C57 1_555 1_555
H69 C57 1_555 1_555
C58 C57 1_555 1_555
H70 C58 1_555 1_555
H71 C58 1_555 1_555
C59 C58 1_555 1_555
H72 C59 1_555 1_555
H73 C59 1_555 1_555
C60 H74 1_555 1_555
H75 C60 1_555 1_555
C61 C60 1_555 1_555
H76 C61 1_555 1_555
H77 C61 1_555 1_555
C62 C61 1_555 1_555
H78 C62 1_555 1_555
H79 C62 1_555 1_555
C63 C62 1_555 1_555
H80 C63 1_555 1_555
H81 C63 1_555 1_555
O1 Rb1 1_555 1_555
O2 Rb1 1_555 1_555
O3 C24 1_555 1_555
H82 O3 1_555 1_555
O4 Rb1 1_555 1_555
O5 C46 1_555 1_555
O6 Rb1 1_555 1_555
O7 C60 1_555 1_555
O8 Rb2 1_555 1_555
Rb2 O1 1_555 1_555
Rb1A C45A 1_555 1_555
C1A C2A 1_555 1_555
C2A C3A 1_555 1_555
C3A H1A 1_555 1_555
C4A C3A 1_555 1_555
C5A C4A 1_555 1_555
H2A C5A 1_555 1_555
C6A C1A 1_555 1_555
C7A C4A 1_555 1_555
C8A C7A 1_555 1_555
H3A C8A 1_555 1_555
H4A C8A 1_555 1_555
H5A C8A 1_555 1_555
C9A C7A 1_555 1_555
H6A C9A 1_555 1_555
H7A C9A 1_555 1_555
H8A C9A 1_555 1_555
C10A C7A 1_555 1_555
H9A C10A 1_555 1_555
H10A C10A 1_555 1_555
H11A C10A 1_555 1_555
C11A C6A 1_555 1_555
H12A C11A 1_555 1_555
H13A C11A 1_555 1_555
C12A C11A 1_555 1_555
C13A C12A 1_555 1_555
C14A C13A 1_555 1_555
C15A C14A 1_555 1_555
H14A C15A 1_555 1_555
C16A C15A 1_555 1_555
C17A C12A 1_555 1_555
H15A C17A 1_555 1_555
C18A C16A 1_555 1_555
C19A C18A 1_555 1_555
H16A C19A 1_555 1_555
H17A C19A 1_555 1_555
H18A C19A 1_555 1_555
C20A C18A 1_555 1_555
H19A C20A 1_555 1_555
H20A C20A 1_555 1_555
H21A C20A 1_555 1_555
C21A C18A 1_555 1_555
H22A C21A 1_555 1_555
H23A C21A 1_555 1_555
H24A C21A 1_555 1_555
C22A C14A 1_555 1_555
H25A C22A 1_555 1_555
H26A C22A 1_555 1_555
C23A C22A 1_555 1_555
C24A C23A 1_555 1_555
C25A C24A 1_555 1_555
C26A C25A 1_555 1_555
H27A C26A 1_555 1_555
C27A C26A 1_555 1_555
C28A C23A 1_555 1_555
H28A C28A 1_555 1_555
C29A C27A 1_555 1_555
C30A C29A 1_555 1_555
H29A C30A 1_555 1_555
H30A C30A 1_555 1_555
H31A C30A 1_555 1_555
C31A C29A 1_555 1_555
H32A C31A 1_555 1_555
H33A C31A 1_555 1_555
H34A C31A 1_555 1_555
C32A C29A 1_555 1_555
H35A C32A 1_555 1_555
H36A C32A 1_555 1_555
H37A C32A 1_555 1_555
C33A C25A 1_555 1_555
H38A C33A 1_555 1_555
H39A C33A 1_555 1_555
C34A C33A 1_555 1_555
C35A C34A 1_555 1_555
C36A C35A 1_555 1_555
C37A C36A 1_555 1_555
H40A C37A 1_555 1_555
C38A C37A 1_555 1_555
C39A C34A 1_555 1_555
H41A C39A 1_555 1_555
C40A C38A 1_555 1_555
C41A C40A 1_555 1_555
H42A C41A 1_555 1_555
H43A C41A 1_555 1_555
H44A C41A 1_555 1_555
C42A C40A 1_555 1_555
H45A C42A 1_555 1_555
H46A C42A 1_555 1_555
H47A C42A 1_555 1_555
C43A C40A 1_555 1_555
H48A C43A 1_555 1_555
H49A C43A 1_555 1_555
H50A C43A 1_555 1_555
C44A C36A 1_555 1_555
H51A C44A 1_555 1_555
H52A C44A 1_555 1_555
C45A C44A 1_555 1_555
C46A Rb1A 1_555 1_555
C47A Rb1A 1_555 1_555
C48A Rb1A 1_555 1_555
H53A C48A 1_555 1_555
C49A C48A 1_555 1_555
C50A Rb1A 1_555 1_555
H54A C50A 1_555 1_555
C51A C49A 1_555 1_555
C52A C51A 1_555 1_555
H55A C52A 1_555 1_555
H56A C52A 1_555 1_555
H57A C52A 1_555 1_555
C53A C51A 1_555 1_555
H58A C53A 1_555 1_555
H59A C53A 1_555 1_555
H60A C53A 1_555 1_555
C54A C51A 1_555 1_555
H61A C54A 1_555 1_555
H62A C54A 1_555 1_555
H63A C54A 1_555 1_555
C55A C2A 1_555 1_555
H64A C55A 1_555 1_555
H65A C55A 1_555 1_555
C56A H66A 1_555 1_555
H67A C56A 1_555 1_555
C57A C56A 1_555 1_555
H68A C57A 1_555 1_555
H69A C57A 1_555 1_555
C58A C57A 1_555 1_555
H70A C58A 1_555 1_555
H71A C58A 1_555 1_555
C59A C58A 1_555 1_555
H72A C59A 1_555 1_555
H73A C59A 1_555 1_555
C60A H74A 1_555 1_555
H75A C60A 1_555 1_555
C61A C60A 1_555 1_555
H76A C61A 1_555 1_555
H77A C61A 1_555 1_555
C62A C61A 1_555 1_555
H78A C62A 1_555 1_555
H79A C62A 1_555 1_555
C63A C62A 1_555 1_555
H80A C63A 1_555 1_555
H81A C63A 1_555 1_555
O1A Rb1A 1_555 1_555
O2A Rb1A 1_555 1_555
O3A C24A 1_555 1_555
H82A O3A 1_555 1_555
O4A Rb1A 1_555 1_555
O5A Rb2 1_555 1_555
O6A Rb1A 1_555 1_555
O7A C60A 1_555 1_555
O8A Rb2A 1_555 1_555
Rb2A O5 1_555 1_555
C1 O1 1_555 1_555
C5 C6 1_555 1_555
C13 O2 1_555 1_555
C16 C17 1_555 1_555
C27 C28 1_555 1_555
C35 O4 1_555 1_555
C38 C39 1_555 1_555
C45 C46 1_555 1_555
C45 C50 1_555 1_555
C46 C47 1_555 1_555
C47 C48 1_555 1_555
C47 C55 1_555 1_555
C49 C50 1_555 1_555
C56 O6 1_555 1_555
C59 O6 1_555 1_555
C63 O7 1_555 1_555
O2 Rb2 1_555 1_555
O4 Rb2 1_555 1_555
O5 Rb2 1_555 1_555
O7 Rb2 1_555 1_555
C1A O1A 1_555 1_555
C5A C6A 1_555 1_555
C13A O2A 1_555 1_555
C16A C17A 1_555 1_555
C27A C28A 1_555 1_555
C35A O4A 1_555 1_555
C38A C39A 1_555 1_555
C45A C46A 1_555 1_555
C45A C50A 1_555 1_555
C46A C47A 1_555 1_555
C46A O5A 1_555 1_555
C47A C48A 1_555 1_555
C47A C55A 1_555 1_555
C49A C50A 1_555 1_555
C56A O6A 1_555 1_555
C59A O6A 1_555 1_555
C63A O7A 1_555 1_555
O1A Rb2A 1_555 1_555
O2A Rb2A 1_555 1_555
O4A Rb2A 1_555 1_555
O5A Rb2A 1_555 1_555
O7A Rb2A 1_555 1_555

#END
