
#######################################################################
#
#                 Cambridge Crystallographic Data Centre
#                                CCDC 
#
#######################################################################
#
# If this CIF has been generated from an entry in the Cambridge 
# Structural Database, then it will include bibliographic, chemical, 
# crystal, experimental, refinement or atomic coordinate data resulting 
# from the CCDC's data processing and validation procedures.
#
#######################################################################

data_FOTDOI
_chemical_formula_moiety         'C59 H77 O6 Rb1'
_chemical_name_systematic        
(\h^4^,\h^2^-5,11,17,23,29-Penta-t-butyl-31-hydroxy-32,33,34,35-tetraoxycalix(5)arene)-(tetrahydrofuran)-rubidium
_symmetry_cell_setting           monoclinic
_symmetry_space_group_name_H-M   'P 21/c'
_symmetry_Int_Tables_number      14
_space_group_name_Hall           '-P 2ybc'
loop_
_symmetry_equiv_pos_site_id
_symmetry_equiv_pos_as_xyz
1 x,y,z
2 -x,1/2+y,1/2-z
3 -x,-y,-z
4 x,1/2-y,1/2+z
_cell_length_a                   16.657(2)
_cell_length_b                   21.062(3)
_cell_length_c                   19.198(2)
_cell_angle_alpha                90
_cell_angle_beta                 108.944(2)
_cell_angle_gamma                90
_cell_volume                     6370.42
_exptl_crystal_colour            colorless
_exptl_crystal_description       block
_cell_formula_units_Z            4
loop_
_atom_site_label
_atom_site_type_symbol
_atom_site_fract_x
_atom_site_fract_y
_atom_site_fract_z
Rb1 Rb 0.45138(7) 0.39105(5) 0.62004(6)
O1 O 0.2901(4) 0.4589(3) 0.5009(3)
H1 H 0.3123 0.4919 0.5221
C1 C 0.2207(6) 0.4441(5) 0.5211(5)
O2 O 0.3673(4) 0.3539(3) 0.4625(4)
C2 C 0.2019(6) 0.4759(5) 0.5791(5)
O3 O 0.5847(4) 0.3204(3) 0.4658(3)
H3 H 0.5962 0.3587 0.4655
C3 C 0.1324(6) 0.4550(5) 0.5968(6)
H4 H 0.1203 0.4749 0.6360
O4 O 0.5686(4) 0.4542(3) 0.5620(3)
C4 C 0.0803(6) 0.4070(5) 0.5606(6)
O5 O 0.3794(4) 0.5578(3) 0.5526(3)
H5 H 0.3487 0.5292 0.5282
C5 C 0.0988(7) 0.3790(5) 0.5026(6)
H6 H 0.0631 0.3464 0.4763
C6 C 0.1674(6) 0.3967(5) 0.4819(5)
O6 O 0.3400(6) 0.3180(4) 0.6800(6)
C7 C 0.0010(7) 0.3890(6) 0.5835(6)
C8 C -0.0546(17) 0.3403(11) 0.5324(13)
H7 H -0.0213 0.3028 0.5310
H8 H -0.0773 0.3580 0.4832
H9 H -0.1010 0.3287 0.5500
C9 C -0.0514(13) 0.4512(8) 0.5796(12)
H10 H -0.0235 0.4777 0.6219
H11 H -0.1080 0.4404 0.5798
H12 H -0.0554 0.4740 0.5348
C10 C 0.0292(15) 0.3674(11) 0.6637(9)
H13 H 0.0672 0.3314 0.6700
H14 H -0.0201 0.3551 0.6769
H15 H 0.0584 0.4020 0.6952
C11 C 0.1826(6) 0.3652(5) 0.4160(5)
H16 H 0.1276 0.3577 0.3781
H17 H 0.2145 0.3947 0.3954
C12 C 0.2300(6) 0.3034(5) 0.4325(5)
C13 C 0.1862(7) 0.2461(6) 0.4249(6)
H18 H 0.1266 0.2475 0.4098
C14 C 0.2258(7) 0.1863(5) 0.4384(6)
C15 C 0.3143(7) 0.1867(5) 0.4528(5)
H19 H 0.3424 0.1474 0.4584
C16 C 0.3623(6) 0.2411(5) 0.4593(5)
C17 C 0.3184(7) 0.2996(5) 0.4520(5)
C18 C 0.1761(8) 0.1250(6) 0.4305(8)
C19 C 0.1499(14) 0.1053(9) 0.3501(10)
H20 H 0.1062 0.0730 0.3406
H21 H 0.1988 0.0885 0.3393
H22 H 0.1280 0.1419 0.3191
C20 C 0.1017(9) 0.1336(7) 0.4545(10)
H23 H 0.1192 0.1524 0.5033
H24 H 0.0755 0.0927 0.4560
H25 H 0.0611 0.1613 0.4202
C21 C 0.2281(10) 0.0731(8) 0.4769(12)
H26 H 0.2611 0.0901 0.5246
H27 H 0.2661 0.0557 0.4528
H28 H 0.1909 0.0399 0.4835
C22 C 0.4543(6) 0.2390(5) 0.4664(6)
H29 H 0.4616 0.2632 0.4253
H30 H 0.4687 0.1947 0.4600
C23 C 0.5189(6) 0.2634(4) 0.5368(5)
C24 C 0.5827(6) 0.3037(5) 0.5340(5)
C25 C 0.6409(6) 0.3236(4) 0.5983(5)
C26 C 0.6373(6) 0.3018(5) 0.6657(6)
H31 H 0.6843 0.3124 0.7112
C27 C 0.5747(7) 0.2600(5) 0.6703(6)
C28 C 0.5166(7) 0.2411(5) 0.6050(6)
H32 H 0.4780 0.2055 0.6055
C29 C 0.5773(8) 0.2364(6) 0.7483(6)
C30 C 0.5734(9) 0.2930(6) 0.7959(6)
H33 H 0.6168 0.3235 0.7953
H34 H 0.5829 0.2789 0.8461
H35 H 0.5180 0.3128 0.7770
C31 C 0.6573(9) 0.1983(7) 0.7843(7)
H36 H 0.7053 0.2193 0.7762
H37 H 0.6509 0.1561 0.7631
H38 H 0.6668 0.1952 0.8368
C32 C 0.4985(9) 0.1941(6) 0.7425(7)
H39 H 0.5037 0.1768 0.7906
H40 H 0.4955 0.1595 0.7083
H41 H 0.4473 0.2195 0.7250
C33 C 0.7144(6) 0.3695(4) 0.6001(5)
H42 H 0.7686 0.3483 0.6248
H43 H 0.7121 0.3786 0.5494
C34 C 0.7120(6) 0.4316(4) 0.6391(5)
C35 C 0.7822(6) 0.4508(5) 0.6970(5)
H44 H 0.8305 0.4246 0.7107
C36 C 0.7845(6) 0.5066(5) 0.7358(5)
C37 C 0.7116(6) 0.5433(5) 0.7143(5)
H45 H 0.7113 0.5817 0.7392
C38 C 0.6395(6) 0.5262(4) 0.6583(5)
C39 C 0.6404(6) 0.4708(4) 0.6201(5)
C40 C 0.8633(7) 0.5255(5) 0.8004(6)
C41 C 0.8737(15) 0.4821(9) 0.8681(11)
H46 H 0.8289 0.4911 0.8886
H47 H 0.9284 0.4900 0.9051
H48 H 0.8705 0.4379 0.8530
C42 C 0.9446(11) 0.5157(9) 0.7770(11)
H49 H 0.9359 0.5354 0.7294
H50 H 0.9549 0.4707 0.7737
H51 H 0.9932 0.5351 0.8133
C43 C 0.8635(13) 0.5952(7) 0.8247(11)
H52 H 0.8130 0.6035 0.8378
H53 H 0.8642 0.6230 0.7846
H54 H 0.9135 0.6031 0.8670
C44 C 0.5598(6) 0.5658(4) 0.6358(5)
H55 H 0.5358 0.5659 0.5819
H56 H 0.5746 0.6097 0.6518
C45 C 0.4931(6) 0.5426(4) 0.6673(5)
C46 C 0.4065(6) 0.5415(4) 0.6246(5)
C47 C 0.3464(6) 0.5256(4) 0.6586(5)
C48 C 0.3739(7) 0.5080(4) 0.7322(5)
H57 H 0.3330 0.4959 0.7538
C49 C 0.4569(7) 0.5075(4) 0.7746(5)
C50 C 0.5164(6) 0.5249(4) 0.7406(5)
H58 H 0.5768 0.5284 0.7712
C51 C 0.4853(7) 0.4951(5) 0.8579(6)
C52 C 0.4504(12) 0.4309(8) 0.8741(12)
H59 H 0.4745 0.3968 0.8534
H60 H 0.3891 0.4304 0.8522
H61 H 0.4656 0.4251 0.9269
C53 C 0.4453(13) 0.5486(8) 0.8929(11)
H62 H 0.3896 0.5595 0.8592
H63 H 0.4815 0.5859 0.9020
H64 H 0.4400 0.5337 0.9390
C54 C 0.5823(10) 0.4971(11) 0.8938(14)
H65 H 0.6083 0.4672 0.8691
H66 H 0.5972 0.4857 0.9454
H67 H 0.6027 0.5396 0.8896
C55 C 0.2522(6) 0.5341(5) 0.6157(5)
H68 H 0.2247 0.5517 0.6495
H69 H 0.2472 0.5660 0.5774
C56 C 0.2843(10) 0.2836(9) 0.6298(8)
H70 H 0.3123 0.2611 0.5994
H71 H 0.2400 0.3110 0.5977
C57 C 0.3090(14) 0.3225(10) 0.7399(13)
H72 H 0.2714 0.3593 0.7339
H73 H 0.3561 0.3273 0.7860
C58 C 0.2624(12) 0.2641(10) 0.7412(8)
H74 H 0.2964 0.2349 0.7791
H75 H 0.2091 0.2730 0.7504
C59 C 0.2467(11) 0.2378(8) 0.6682(9)
H76 H 0.1856 0.2334 0.6426
H77 H 0.2736 0.1961 0.6710
H2? H 0.3414 0.3837 0.4739
C60? C 0.0197(18) 0.3235(10) 0.6222(14)
C61? C 0.830(2) 0.5257(16) 0.8685(16)
C62? C 0.9403(15) 0.4811(12) 0.8186(18)
C63? C 0.8906(19) 0.5945(9) 0.7911(17)
C64? C 0.4116(14) 0.4679(12) 0.8809(17)
C65? C 0.5185(15) 0.5563(8) 0.9006(13)
C66? C 0.5592(14) 0.4461(11) 0.8770(16)
C67? C -0.0743(14) 0.3802(12) 0.5121(10)
C68? C -0.020(2) 0.4354(14) 0.6352(15)
H78? H 0.0526 0.2979 0.5994
H79? H -0.0334 0.3022 0.6176
H80? H 0.0515 0.3294 0.6739
H81? H 0.7750 0.5457 0.8548
H82? H 0.8699 0.5491 0.9086
H83? H 0.8261 0.4824 0.8840
H84? H 0.9356 0.4491 0.8533
H85? H 0.9919 0.5055 0.8402
H86? H 0.9423 0.4607 0.7739
H87? H 0.8568 0.6239 0.8088
H88? H 0.8819 0.6027 0.7394
H89? H 0.9502 0.6000 0.8191
H90? H 0.4058 0.4228 0.8700
H91? H 0.3593 0.4894 0.8539
H92? H 0.4234 0.4743 0.9333
H93? H 0.5784 0.5611 0.9068
H94? H 0.5109 0.5542 0.9485
H95? H 0.4874 0.5923 0.8734
H96? H 0.5523 0.4183 0.8353
H97? H 0.5586 0.4212 0.9193
H98? H 0.6129 0.4685 0.8884
H99? H -0.0676 0.3408 0.4886
H100? H -0.0761 0.4154 0.4791
H101? H -0.1268 0.3789 0.5238
H102? H 0.0113 0.4241 0.6857
H103? H -0.0805 0.4338 0.6278
H104? H -0.0046 0.4780 0.6251
loop_
_geom_bond_atom_site_label_1
_geom_bond_atom_site_label_2
_geom_bond_site_symmetry_1
_geom_bond_site_symmetry_2
Rb1 O1 1_555 1_555
O1 H1 1_555 1_555
C1 O1 1_555 1_555
O2 Rb1 1_555 1_555
C2 C1 1_555 1_555
O3 H3 1_555 1_555
C3 C2 1_555 1_555
H4 C3 1_555 1_555
O4 Rb1 1_555 1_555
C4 C3 1_555 1_555
O5 H5 1_555 1_555
C5 C4 1_555 1_555
H6 C5 1_555 1_555
C6 C1 1_555 1_555
O6 Rb1 1_555 1_555
C7 C4 1_555 1_555
C8 C7 1_555 1_555
H7 C8 1_555 1_555
H8 C8 1_555 1_555
H9 C8 1_555 1_555
C9 C7 1_555 1_555
H10 C9 1_555 1_555
H11 C9 1_555 1_555
H12 C9 1_555 1_555
C10 C7 1_555 1_555
H13 C10 1_555 1_555
H14 C10 1_555 1_555
H15 C10 1_555 1_555
C11 C6 1_555 1_555
H16 C11 1_555 1_555
H17 C11 1_555 1_555
C12 C11 1_555 1_555
C13 C12 1_555 1_555
H18 C13 1_555 1_555
C14 C13 1_555 1_555
C15 C14 1_555 1_555
H19 C15 1_555 1_555
C16 C15 1_555 1_555
C17 O2 1_555 1_555
C18 C14 1_555 1_555
C19 C18 1_555 1_555
H20 C19 1_555 1_555
H21 C19 1_555 1_555
H22 C19 1_555 1_555
C20 C18 1_555 1_555
H23 C20 1_555 1_555
H24 C20 1_555 1_555
H25 C20 1_555 1_555
C21 C18 1_555 1_555
H26 C21 1_555 1_555
H27 C21 1_555 1_555
H28 C21 1_555 1_555
C22 C16 1_555 1_555
H29 C22 1_555 1_555
H30 C22 1_555 1_555
C23 Rb1 1_555 1_555
C24 O3 1_555 1_555
C25 C24 1_555 1_555
C26 Rb1 1_555 1_555
H31 C26 1_555 1_555
C27 Rb1 1_555 1_555
C28 Rb1 1_555 1_555
H32 C28 1_555 1_555
C29 C27 1_555 1_555
C30 C29 1_555 1_555
H33 C30 1_555 1_555
H34 C30 1_555 1_555
H35 C30 1_555 1_555
C31 C29 1_555 1_555
H36 C31 1_555 1_555
H37 C31 1_555 1_555
H38 C31 1_555 1_555
C32 C29 1_555 1_555
H39 C32 1_555 1_555
H40 C32 1_555 1_555
H41 C32 1_555 1_555
C33 C25 1_555 1_555
H42 C33 1_555 1_555
H43 C33 1_555 1_555
C34 C33 1_555 1_555
C35 C34 1_555 1_555
H44 C35 1_555 1_555
C36 C35 1_555 1_555
C37 C36 1_555 1_555
H45 C37 1_555 1_555
C38 C37 1_555 1_555
C39 O4 1_555 1_555
C40 C36 1_555 1_555
C41 C40 1_555 1_555
H46 C41 1_555 1_555
H47 C41 1_555 1_555
H48 C41 1_555 1_555
C42 C40 1_555 1_555
H49 C42 1_555 1_555
H50 C42 1_555 1_555
H51 C42 1_555 1_555
C43 C40 1_555 1_555
H52 C43 1_555 1_555
H53 C43 1_555 1_555
H54 C43 1_555 1_555
C44 C38 1_555 1_555
H55 C44 1_555 1_555
H56 C44 1_555 1_555
C45 Rb1 1_555 1_555
C46 Rb1 1_555 1_555
C47 C46 1_555 1_555
C48 C47 1_555 1_555
H57 C48 1_555 1_555
C49 C48 1_555 1_555
C50 C45 1_555 1_555
H58 C50 1_555 1_555
C51 C49 1_555 1_555
C52 C51 1_555 1_555
H59 C52 1_555 1_555
H60 C52 1_555 1_555
H61 C52 1_555 1_555
C53 C51 1_555 1_555
H62 C53 1_555 1_555
H63 C53 1_555 1_555
H64 C53 1_555 1_555
C54 C51 1_555 1_555
H65 C54 1_555 1_555
H66 C54 1_555 1_555
H67 C54 1_555 1_555
C55 C2 1_555 1_555
H68 C55 1_555 1_555
H69 C55 1_555 1_555
C56 O6 1_555 1_555
H70 C56 1_555 1_555
H71 C56 1_555 1_555
C57 O6 1_555 1_555
H72 C57 1_555 1_555
H73 C57 1_555 1_555
C58 C57 1_555 1_555
H74 C58 1_555 1_555
H75 C58 1_555 1_555
C59 C56 1_555 1_555
H76 C59 1_555 1_555
H77 C59 1_555 1_555
O5 C46 1_555 1_555
C5 C6 1_555 1_555
C12 C17 1_555 1_555
C16 C17 1_555 1_555
C22 C23 1_555 1_555
C23 C24 1_555 1_555
C23 C28 1_555 1_555
C25 C26 1_555 1_555
C26 C27 1_555 1_555
C27 C28 1_555 1_555
C34 C39 1_555 1_555
C38 C39 1_555 1_555
C44 C45 1_555 1_555
C45 C46 1_555 1_555
C47 C55 1_555 1_555
C49 C50 1_555 1_555
C58 C59 1_555 1_555

#END
