
#######################################################################
#
#                 Cambridge Crystallographic Data Centre
#                                CCDC 
#
#######################################################################
#
# If this CIF has been generated from an entry in the Cambridge 
# Structural Database, then it will include bibliographic, chemical, 
# crystal, experimental, refinement or atomic coordinate data resulting 
# from the CCDC's data processing and validation procedures.
#
#######################################################################

data_FOTNOT
_chemical_formula_moiety         'C16 H16 Cl1 N1 O4'
_chemical_name_systematic        
'dimethyl 7-(4-chlorophenyl)-6,7-dihydro-1H-azepine-2,4-dicarboxylate'
_symmetry_cell_setting           monoclinic
_symmetry_space_group_name_H-M   'P 21'
_symmetry_Int_Tables_number      4
_space_group_name_Hall           'P 2yb'
loop_
_symmetry_equiv_pos_site_id
_symmetry_equiv_pos_as_xyz
1 x,y,z
2 -x,1/2+y,-z
_cell_length_a                   6.0935(12)
_cell_length_b                   8.9206(17)
_cell_length_c                   14.327(3)
_cell_angle_alpha                90
_cell_angle_beta                 100.014(2)
_cell_angle_gamma                90
_cell_volume                     766.918
_exptl_crystal_description       block
_cell_formula_units_Z            2
loop_
_atom_site_label
_atom_site_type_symbol
_atom_site_fract_x
_atom_site_fract_y
_atom_site_fract_z
Cl1 Cl 1.22179(10) 0.81099(7) 1.34436(3)
C1 C 1.1076(3) 0.8094(3) 1.22455(12)
C2 C 0.9296(3) 0.8126(2) 1.03314(11)
C3 C 0.9064(4) 0.8782(3) 1.19397(15)
H1 H 0.8300 0.9239 1.2371
C4 C 0.8187(4) 0.8786(3) 1.09813(14)
H2 H 0.6819 0.9244 1.0773
C5 C 1.2220(4) 0.7405(3) 1.16200(13)
H3 H 1.3580 0.6938 1.1832
C6 C 1.1302(4) 0.7421(3) 1.06642(14)
H4 H 1.2053 0.6945 1.0236
C7 C 0.8342(3) 0.8126(3) 0.92846(11)
H5 H 0.7244 0.8937 0.9161
C8 C 0.7162(4) 0.6662(3) 0.90071(15)
H6 H 0.8266 0.5868 0.9101
H7 H 0.6137 0.6478 0.9442
C9 C 0.5894(4) 0.6529(3) 0.80267(14)
H8 H 0.4589 0.5969 0.7956
C10 C 0.6411(3) 0.7122(2) 0.72287(13)
C11 C 0.8283(3) 0.8063(3) 0.71420(12)
H9 H 0.8406 0.8323 0.6525
C12 C 0.9879(3) 0.8623(2) 0.78158(13)
N1 N 1.0122(3) 0.8449(2) 0.87751(11)
H10 H 1.1442 0.8540 0.9100
C13 C 1.1725(3) 0.9557(3) 0.75618(15)
C14 C 0.4950(4) 0.6791(3) 0.62987(14)
O1 O 1.3148(3) 1.0111(2) 0.81466(12)
O2 O 0.3231(3) 0.5909(2) 0.63711(11)
O3 O 1.1625(3) 0.9706(2) 0.66361(11)
O4 O 0.5271(3) 0.7271(2) 0.55557(10)
C15 C 1.3282(4) 1.0668(4) 0.6343(2)
H11 H 1.3031 1.1684 0.6519
H12 H 1.3180 1.0607 0.5668
H13 H 1.4739 1.0355 0.6647
C16 C 0.1786(5) 0.5548(5) 0.54983(17)
H14 H 0.1353 0.6453 0.5152
H15 H 0.0482 0.5046 0.5633
H16 H 0.2555 0.4904 0.5126
loop_
_geom_bond_atom_site_label_1
_geom_bond_atom_site_label_2
_geom_bond_site_symmetry_1
_geom_bond_site_symmetry_2
Cl1 C1 1_555 1_555
C1 C3 1_555 1_555
C2 C4 1_555 1_555
C3 H1 1_555 1_555
C4 C3 1_555 1_555
H2 C4 1_555 1_555
C5 C1 1_555 1_555
H3 C5 1_555 1_555
C6 C2 1_555 1_555
H4 C6 1_555 1_555
C7 C2 1_555 1_555
H5 C7 1_555 1_555
C8 C7 1_555 1_555
H6 C8 1_555 1_555
H7 C8 1_555 1_555
C9 C8 1_555 1_555
H8 C9 1_555 1_555
C10 C9 1_555 1_555
C11 C10 1_555 1_555
H9 C11 1_555 1_555
C12 C11 1_555 1_555
N1 C7 1_555 1_555
H10 N1 1_555 1_555
C13 C12 1_555 1_555
C14 C10 1_555 1_555
O1 C13 1_555 1_555
O2 C14 1_555 1_555
O3 C13 1_555 1_555
O4 C14 1_555 1_555
C15 O3 1_555 1_555
H11 C15 1_555 1_555
H12 C15 1_555 1_555
H13 C15 1_555 1_555
C16 O2 1_555 1_555
H14 C16 1_555 1_555
H15 C16 1_555 1_555
H16 C16 1_555 1_555
C5 C6 1_555 1_555
C12 N1 1_555 1_555

#END
