
#######################################################################
#
#                 Cambridge Crystallographic Data Centre
#                                CCDC 
#
#######################################################################
#
# If this CIF has been generated from an entry in the Cambridge 
# Structural Database, then it will include bibliographic, chemical, 
# crystal, experimental, refinement or atomic coordinate data resulting 
# from the CCDC's data processing and validation procedures.
#
#######################################################################

data_FOVBID
_chemical_formula_moiety         'C19 H19 N2 O2 S1 1+,F6 P1 1-'
_chemical_name_systematic        
'1-(5-Methyl-2-(((4-methylphenyl)sulfonyl)amino)phenyl)pyridinium hexafluorophosphate'
_symmetry_cell_setting           monoclinic
_symmetry_space_group_name_H-M   'P 21/c'
_symmetry_Int_Tables_number      14
_space_group_name_Hall           '-P 2ybc'
loop_
_symmetry_equiv_pos_site_id
_symmetry_equiv_pos_as_xyz
1 x,y,z
2 -x,1/2+y,1/2-z
3 -x,-y,-z
4 x,1/2-y,1/2+z
_cell_length_a                   15.338(3)
_cell_length_b                   10.040(2)
_cell_length_c                   14.189(3)
_cell_angle_alpha                90
_cell_angle_beta                 94.34(3)
_cell_angle_gamma                90
_cell_volume                     2178.75
_exptl_crystal_colour            colorless
_exptl_crystal_description       block
_cell_formula_units_Z            4
loop_
_atom_site_label
_atom_site_type_symbol
_atom_site_fract_x
_atom_site_fract_y
_atom_site_fract_z
S1 S 0.34666(5) -0.30494(10) 0.92980(7)
O1 O 0.37441(16) -0.1864(3) 0.9791(2)
O2 O 0.40893(17) -0.4006(3) 0.9033(2)
N1 N 0.29317(18) -0.2563(3) 0.82988(19)
H1 H 0.3069 -0.2849 0.7758
N2 N 0.32573(18) 0.0233(3) 0.8309(2)
C1 C 0.2681(2) -0.3843(3) 0.9936(2)
C2 C 0.2466(3) -0.5162(4) 0.9746(3)
H2 H 0.2795 -0.5673 0.9335
C3 C 0.1771(3) -0.5721(4) 1.0162(3)
H3 H 0.1628 -0.6628 1.0040
C4 C 0.1274(2) -0.4991(4) 1.0755(2)
C5 C 0.1511(2) -0.3689(4) 1.0953(2)
H4 H 0.1190 -0.3190 1.1378
C6 C 0.2207(2) -0.3090(3) 1.0548(2)
H5 H 0.2358 -0.2189 1.0683
C7 C 0.0491(3) -0.5611(5) 1.1164(3)
H6 H 0.0164 -0.4922 1.1476
H7 H 0.0688 -0.6294 1.1626
H8 H 0.0114 -0.6019 1.0656
C8 C 0.22296(19) -0.1640(3) 0.8383(2)
C9 C 0.1375(2) -0.2069(4) 0.8456(2)
H9 H 0.1243 -0.2993 0.8423
C10 C 0.0717(2) -0.1158(4) 0.8574(2)
H10 H 0.0136 -0.1469 0.8611
C11 C 0.0884(2) 0.0203(4) 0.8642(2)
C12 C 0.1733(2) 0.0632(4) 0.8553(2)
H11 H 0.1864 0.1557 0.8582
C13 C 0.23901(19) -0.0275(3) 0.8421(2)
C14 C 0.0171(3) 0.1184(4) 0.8791(3)
H12 H -0.0391 0.0821 0.8534
H13 H 0.0290 0.2020 0.8468
H14 H 0.0147 0.1353 0.9469
C15 C 0.3685(3) 0.0875(5) 0.9037(3)
H15 H 0.3417 0.1006 0.9612
C16 C 0.4517(3) 0.1339(6) 0.8933(5)
H16 H 0.4830 0.1796 0.9438
C17 C 0.4895(3) 0.1137(7) 0.8094(6)
H17 H 0.5474 0.1437 0.8025
C18 C 0.4440(3) 0.0507(6) 0.7362(5)
H18 H 0.4694 0.0386 0.6778
C19 C 0.3607(3) 0.0047(5) 0.7474(3)
H19 H 0.3284 -0.0396 0.6970
F7 F 0.1593(3) -0.8874(4) 0.1011(3)
F8 F 0.3079(3) -0.9197(6) 0.2661(3)
F9 F 0.2122(4) -1.0569(4) 0.1898(3)
F10 F 0.2549(3) -0.7500(4) 0.1775(4)
F11 F 0.1651(3) -0.8731(5) 0.2585(3)
F12 F 0.3020(3) -0.9339(6) 0.1087(3)
P1 P 0.23515(8) -0.90329(10) 0.18024(7)
F1? F 0.1917(3) -0.9624(6) 0.0855(3)
F2? F 0.2882(3) -0.8414(5) 0.2710(3)
F3? F 0.1874(3) -0.9997(5) 0.2405(3)
F4? F 0.2926(3) -0.8044(6) 0.1160(4)
F5? F 0.1652(3) -0.7943(5) 0.1826(4)
F6? F 0.3147(3) -1.0097(5) 0.1739(4)
loop_
_geom_bond_atom_site_label_1
_geom_bond_atom_site_label_2
_geom_bond_site_symmetry_1
_geom_bond_site_symmetry_2
S1 O1 1_555 1_555
O2 S1 1_555 1_555
N1 S1 1_555 1_555
H1 N1 1_555 1_555
N2 C13 1_555 1_555
C1 S1 1_555 1_555
C2 C1 1_555 1_555
H2 C2 1_555 1_555
C3 C2 1_555 1_555
H3 C3 1_555 1_555
C4 C3 1_555 1_555
C5 C4 1_555 1_555
H4 C5 1_555 1_555
C6 C1 1_555 1_555
H5 C6 1_555 1_555
C7 C4 1_555 1_555
H6 C7 1_555 1_555
H7 C7 1_555 1_555
H8 C7 1_555 1_555
C8 N1 1_555 1_555
C9 C8 1_555 1_555
H9 C9 1_555 1_555
C10 C9 1_555 1_555
H10 C10 1_555 1_555
C11 C10 1_555 1_555
C12 C11 1_555 1_555
H11 C12 1_555 1_555
C13 C8 1_555 1_555
C14 C11 1_555 1_555
H12 C14 1_555 1_555
H13 C14 1_555 1_555
H14 C14 1_555 1_555
C15 N2 1_555 1_555
H15 C15 1_555 1_555
C16 C15 1_555 1_555
H16 C16 1_555 1_555
C17 C16 1_555 1_555
H17 C17 1_555 1_555
C18 C17 1_555 1_555
H18 C18 1_555 1_555
C19 N2 1_555 1_555
H19 C19 1_555 1_555
F7 P1 1_555 1_555
F8 P1 1_555 1_555
F9 P1 1_555 1_555
F10 P1 1_555 1_555
F11 P1 1_555 1_555
F12 P1 1_555 1_555
C5 C6 1_555 1_555
C12 C13 1_555 1_555
C18 C19 1_555 1_555

#END
