
#######################################################################
#
#                 Cambridge Crystallographic Data Centre
#                                CCDC 
#
#######################################################################
#
# If this CIF has been generated from an entry in the Cambridge 
# Structural Database, then it will include bibliographic, chemical, 
# crystal, experimental, refinement or atomic coordinate data resulting 
# from the CCDC's data processing and validation procedures.
#
#######################################################################

data_FOVBEZ
_chemical_formula_moiety         'C18 H15 N2 O1 1+,F6 P1 1-'
_chemical_name_systematic        
'1-((Phenoxy(phenyl)methylene)amino)pyridinium hexafluorophosphate'
_symmetry_cell_setting           monoclinic
_symmetry_space_group_name_H-M   'C 2/c'
_symmetry_Int_Tables_number      15
_space_group_name_Hall           '-C 2yn'
loop_
_symmetry_equiv_pos_site_id
_symmetry_equiv_pos_as_xyz
1 x,y,z
2 -x,y,1/2-z
3 1/2+x,1/2+y,z
4 1/2-x,1/2+y,1/2-z
5 -x,-y,-z
6 x,-y,1/2+z
7 1/2-x,1/2-y,-z
8 1/2+x,1/2-y,1/2+z
_cell_length_a                   13.927(3)
_cell_length_b                   10.771(2)
_cell_length_c                   24.361(5)
_cell_angle_alpha                90
_cell_angle_beta                 93.49(3)
_cell_angle_gamma                90
_cell_volume                     3647.56
_exptl_crystal_colour            colorless
_exptl_crystal_description       block
_cell_formula_units_Z            8
loop_
_atom_site_label
_atom_site_type_symbol
_atom_site_fract_x
_atom_site_fract_y
_atom_site_fract_z
P1 P 0.09817(4) 0.15932(4) 0.41843(2)
F1 F 0.06282(10) 0.29983(11) 0.40943(6)
F2 F 0.07686(10) 0.13127(13) 0.35437(5)
F3 F 0.13468(11) 0.02041(11) 0.42684(5)
F4 F 0.11905(12) 0.18731(13) 0.48197(5)
F5 F -0.00898(10) 0.11990(14) 0.42876(7)
F6 F 0.20473(9) 0.20056(14) 0.40672(7)
C1 C 0.16211(13) 0.40755(17) 0.16782(7)
C2 C 0.22707(14) 0.48541(19) 0.19481(8)
H1 H 0.2552 0.5525 0.1762
C3 C 0.25051(16) 0.4630(2) 0.25034(9)
H2 H 0.2952 0.5155 0.2701
C4 C 0.12056(15) 0.30863(19) 0.19305(9)
H3 H 0.0766 0.2555 0.1730
C5 C 0.20937(17) 0.3653(2) 0.27691(9)
H4 H 0.2257 0.3509 0.3148
C6 C 0.14437(17) 0.2882(2) 0.24852(9)
H5 H 0.1159 0.2211 0.2670
C7 C 0.05014(12) 0.61484(17) 0.12496(7)
C8 C 0.06953(14) 0.74029(18) 0.11711(8)
H6 H 0.1150 0.7648 0.0917
C9 C -0.01737(14) 0.57806(19) 0.16174(8)
H7 H -0.0306 0.4926 0.1672
C10 C 0.02217(16) 0.8291(2) 0.14650(9)
H8 H 0.0360 0.9147 0.1417
C11 C -0.04495(16) 0.7933(2) 0.18267(9)
H9 H -0.0777 0.8545 0.2026
C12 C -0.06498(15) 0.6689(2) 0.19018(8)
H10 H -0.1117 0.6453 0.2150
N1 N 0.13844(10) 0.46049(13) 0.00444(6)
C13 C 0.09700(12) 0.52358(16) 0.08997(7)
C14 C 0.10446(14) 0.34430(17) -0.00299(8)
H11 H 0.0541 0.3143 0.0181
C15 C 0.20882(14) 0.5077(2) -0.02449(8)
H12 H 0.2299 0.5908 -0.0185
C16 C 0.14391(17) 0.2698(2) -0.04159(9)
H13 H 0.1210 0.1875 -0.0475
C17 C 0.21723(19) 0.3158(3) -0.07172(9)
H14 H 0.2448 0.2651 -0.0985
C18 C 0.24994(17) 0.4348(3) -0.06275(9)
H15 H 0.3008 0.4664 -0.0830
N2 N 0.09134(11) 0.54584(13) 0.03817(6)
O1 O 0.14027(10) 0.42073(12) 0.11048(5)
loop_
_geom_bond_atom_site_label_1
_geom_bond_atom_site_label_2
_geom_bond_site_symmetry_1
_geom_bond_site_symmetry_2
P1 F1 1_555 1_555
F2 P1 1_555 1_555
F3 P1 1_555 1_555
F4 P1 1_555 1_555
F5 P1 1_555 1_555
F6 P1 1_555 1_555
C1 C2 1_555 1_555
C2 H1 1_555 1_555
C3 C2 1_555 1_555
H2 C3 1_555 1_555
C4 C1 1_555 1_555
H3 C4 1_555 1_555
C5 C3 1_555 1_555
H4 C5 1_555 1_555
C6 C4 1_555 1_555
H5 C6 1_555 1_555
C7 C8 1_555 1_555
C8 H6 1_555 1_555
C9 C7 1_555 1_555
H7 C9 1_555 1_555
C10 C8 1_555 1_555
H8 C10 1_555 1_555
C11 C10 1_555 1_555
H9 C11 1_555 1_555
C12 C9 1_555 1_555
H10 C12 1_555 1_555
N1 C14 1_555 1_555
C13 C7 1_555 1_555
C14 H11 1_555 1_555
C15 N1 1_555 1_555
H12 C15 1_555 1_555
C16 C14 1_555 1_555
H13 C16 1_555 1_555
C17 C16 1_555 1_555
H14 C17 1_555 1_555
C18 C15 1_555 1_555
H15 C18 1_555 1_555
N2 N1 1_555 1_555
O1 C1 1_555 1_555
C5 C6 1_555 1_555
C11 C12 1_555 1_555
C13 N2 1_555 1_555
C13 O1 1_555 1_555
C17 C18 1_555 1_555

#END
