
#######################################################################
#
#                 Cambridge Crystallographic Data Centre
#                                CCDC 
#
#######################################################################
#
# If this CIF has been generated from an entry in the Cambridge 
# Structural Database, then it will include bibliographic, chemical, 
# crystal, experimental, refinement or atomic coordinate data resulting 
# from the CCDC's data processing and validation procedures.
#
#######################################################################

data_FOVFON
_chemical_formula_moiety         'C26 H24 N2 O4 S1'
_chemical_name_systematic        
9-methyl-10-(1-methyl-1H-indol-3-yl)-11-((4-methylphenyl)sulfonyl)-8,12-dioxa-11-azatricyclo[7.2.1.0^2,7^]dodeca-2,4,6-triene
_symmetry_cell_setting           monoclinic
_symmetry_space_group_name_H-M   'P 21/c'
_symmetry_Int_Tables_number      14
_space_group_name_Hall           '-P 2ybc'
loop_
_symmetry_equiv_pos_site_id
_symmetry_equiv_pos_as_xyz
1 x,y,z
2 -x,1/2+y,1/2-z
3 -x,-y,-z
4 x,1/2-y,1/2+z
_cell_length_a                   8.7752(9)
_cell_length_b                   24.925(3)
_cell_length_c                   10.2418(11)
_cell_angle_alpha                90
_cell_angle_beta                 92.290(2)
_cell_angle_gamma                90
_cell_volume                     2238.32
_exptl_crystal_colour            colorless
_exptl_crystal_description       prismatic
_cell_formula_units_Z            4
loop_
_atom_site_label
_atom_site_type_symbol
_atom_site_fract_x
_atom_site_fract_y
_atom_site_fract_z
S1 S 0.15770(5) 0.59113(2) 0.34762(5)
N1 N 0.06809(16) 0.64116(6) 0.41372(15)
N2 N 0.1036(2) 0.59377(8) 0.84003(18)
O1 O -0.28161(15) 0.66247(6) 0.40067(14)
O2 O -0.06646(15) 0.71709(5) 0.42164(14)
O3 O 0.05594(17) 0.54854(6) 0.30982(15)
O4 O 0.24677(16) 0.61514(6) 0.24937(15)
C1 C -0.2494(2) 0.65630(8) 0.2711(2)
C2 C -0.3646(3) 0.63982(9) 0.1853(2)
H1 H -0.4614 0.6326 0.2147
C3 C -0.3339(3) 0.63423(11) 0.0555(3)
H2 H -0.4106 0.6223 -0.0027
C4 C -0.1930(3) 0.64590(12) 0.0096(2)
H3 H -0.1749 0.6425 -0.0788
C5 C -0.0783(3) 0.66271(10) 0.0964(2)
H4 H 0.0175 0.6709 0.0662
C6 C -0.1056(2) 0.66731(8) 0.2274(2)
C7 C 0.0102(2) 0.68550(7) 0.32914(19)
H5 H 0.0936 0.7054 0.2906
C8 C -0.0471(2) 0.63109(7) 0.51365(18)
H6 H -0.1010 0.5975 0.4937
C9 C -0.1566(2) 0.67958(8) 0.48645(19)
C10 C -0.2262(2) 0.70483(9) 0.6022(2)
H7 H -0.1471 0.7154 0.6643
H8 H -0.2924 0.6795 0.6420
H9 H -0.2840 0.7358 0.5746
C11 C 0.0281(2) 0.62786(8) 0.64622(19)
C12 C 0.0112(3) 0.58697(9) 0.7323(2)
H10 H -0.0549 0.5582 0.7189
C13 C 0.1863(2) 0.64007(10) 0.8252(2)
C14 C 0.1426(2) 0.66244(8) 0.70313(19)
C15 C 0.2172(2) 0.70872(9) 0.6611(2)
H11 H 0.1909 0.7242 0.5808
C16 C 0.3301(3) 0.73063(11) 0.7414(3)
H12 H 0.3824 0.7608 0.7141
C17 C 0.3673(3) 0.70803(13) 0.8640(3)
H13 H 0.4425 0.7242 0.9171
C18 C 0.2968(3) 0.66335(13) 0.9073(3)
H14 H 0.3218 0.6489 0.9891
C19 C 0.1269(4) 0.55519(13) 0.9448(3)
H15 H 0.0690 0.5658 1.0181
H16 H 0.2333 0.5539 0.9706
H17 H 0.0940 0.5204 0.9151
C20 C 0.2770(2) 0.56756(8) 0.47739(19)
C21 C 0.2412(3) 0.52039(8) 0.5390(2)
H18 H 0.1563 0.5006 0.5105
C22 C 0.3314(3) 0.50265(9) 0.6427(2)
H19 H 0.3065 0.4709 0.6844
C23 C 0.4581(2) 0.53100(9) 0.6862(2)
C24 C 0.4917(3) 0.57832(10) 0.6222(3)
H20 H 0.5766 0.5981 0.6505
C25 C 0.4030(2) 0.59686(9) 0.5182(2)
H21 H 0.4276 0.6286 0.4762
C26 C 0.5554(3) 0.51190(12) 0.8019(2)
H22 H 0.6578 0.5247 0.7942
H23 H 0.5557 0.4734 0.8039
H24 H 0.5146 0.5254 0.8810
loop_
_geom_bond_atom_site_label_1
_geom_bond_atom_site_label_2
_geom_bond_site_symmetry_1
_geom_bond_site_symmetry_2
S1 N1 1_555 1_555
N1 C7 1_555 1_555
N2 C12 1_555 1_555
O1 C1 1_555 1_555
O2 C7 1_555 1_555
O3 S1 1_555 1_555
O4 S1 1_555 1_555
C1 C2 1_555 1_555
C2 H1 1_555 1_555
C3 C2 1_555 1_555
H2 C3 1_555 1_555
C4 C3 1_555 1_555
H3 C4 1_555 1_555
C5 C4 1_555 1_555
H4 C5 1_555 1_555
C6 C1 1_555 1_555
C7 C6 1_555 1_555
H5 C7 1_555 1_555
C8 N1 1_555 1_555
H6 C8 1_555 1_555
C9 O1 1_555 1_555
C10 C9 1_555 1_555
H7 C10 1_555 1_555
H8 C10 1_555 1_555
H9 C10 1_555 1_555
C11 C8 1_555 1_555
C12 C11 1_555 1_555
H10 C12 1_555 1_555
C13 N2 1_555 1_555
C14 C11 1_555 1_555
C15 C14 1_555 1_555
H11 C15 1_555 1_555
C16 C15 1_555 1_555
H12 C16 1_555 1_555
C17 C16 1_555 1_555
H13 C17 1_555 1_555
C18 C13 1_555 1_555
H14 C18 1_555 1_555
C19 N2 1_555 1_555
H15 C19 1_555 1_555
H16 C19 1_555 1_555
H17 C19 1_555 1_555
C20 S1 1_555 1_555
C21 C20 1_555 1_555
H18 C21 1_555 1_555
C22 C21 1_555 1_555
H19 C22 1_555 1_555
C23 C22 1_555 1_555
C24 C23 1_555 1_555
H20 C24 1_555 1_555
C25 C20 1_555 1_555
H21 C25 1_555 1_555
C26 C23 1_555 1_555
H22 C26 1_555 1_555
H23 C26 1_555 1_555
H24 C26 1_555 1_555
O2 C9 1_555 1_555
C5 C6 1_555 1_555
C8 C9 1_555 1_555
C13 C14 1_555 1_555
C17 C18 1_555 1_555
C24 C25 1_555 1_555

#END
