
#######################################################################
#
#                 Cambridge Crystallographic Data Centre
#                                CCDC 
#
#######################################################################
#
# If this CIF has been generated from an entry in the Cambridge 
# Structural Database, then it will include bibliographic, chemical, 
# crystal, experimental, refinement or atomic coordinate data resulting 
# from the CCDC's data processing and validation procedures.
#
#######################################################################

data_FOVHEF
_chemical_formula_moiety         'C17 H19 N1 O3 S1'
_chemical_name_systematic        
4,7-dimethyl-2-((4-methylphenyl)sulfonyl)isoindolin-5-ol
_symmetry_cell_setting           monoclinic
_symmetry_space_group_name_H-M   'C 2/c'
_symmetry_Int_Tables_number      15
_space_group_name_Hall           '-C 2yn'
loop_
_symmetry_equiv_pos_site_id
_symmetry_equiv_pos_as_xyz
1 x,y,z
2 -x,y,1/2-z
3 1/2+x,1/2+y,z
4 1/2-x,1/2+y,1/2-z
5 -x,-y,-z
6 x,-y,1/2+z
7 1/2-x,1/2-y,-z
8 1/2+x,1/2-y,1/2+z
_cell_length_a                   8.7121(10)
_cell_length_b                   16.824(2)
_cell_length_c                   21.761(3)
_cell_angle_alpha                90
_cell_angle_beta                 91.287(7)
_cell_angle_gamma                90
_cell_volume                     3188.76
_exptl_crystal_colour            white
_exptl_crystal_description       plate
_chemical_melting_point          '486 K'
_cell_formula_units_Z            8
_exptl_crystal_recrystallization_method acetone
loop_
_atom_site_label
_atom_site_type_symbol
_atom_site_fract_x
_atom_site_fract_y
_atom_site_fract_z
S1 S 0.53222(15) 0.13696(9) 0.60316(6)
N1 N 0.5611(4) 0.0720(3) 0.65788(18)
O1 O 0.4068(4) 0.1061(3) 0.56620(17)
O2 O 0.5195(4) 0.2137(2) 0.63211(18)
C1 C 0.7201(5) 0.0108(3) 0.7311(2)
C2 C 0.7756(6) -0.1469(3) 0.7580(3)
C3 C 0.6988(6) 0.1374(3) 0.5585(2)
C4 C 0.8129(5) -0.0071(3) 0.7814(2)
C5 C 0.9679(6) 0.1322(4) 0.4921(3)
C6 C 0.8396(6) -0.0881(4) 0.7941(2)
H1 H 0.9019 -0.1021 0.8276
C7 C 0.6792(6) -0.1296(3) 0.7069(2)
C8 C 0.7123(7) 0.0833(4) 0.5114(2)
H2 H 0.6325 0.0484 0.5017
C9 C 0.5607(5) -0.0140(3) 0.6433(2)
H3 H 0.6073 -0.0241 0.6040
H4 H 0.4572 -0.0352 0.6425
C10 C 0.6549(5) -0.0490(3) 0.6951(2)
O3 O 0.8027(6) -0.2249(3) 0.7724(3)
H5 H 0.8615 -0.2274 0.8023
C11 C 0.8833(6) 0.0593(3) 0.8215(2)
H6 H 0.8047 0.0829 0.8458
H7 H 0.9273 0.0991 0.7957
H8 H 0.9618 0.0374 0.8481
C12 C 0.8173(6) 0.1905(3) 0.5709(2)
H9 H 0.8072 0.2288 0.6013
C13 C 1.1133(7) 0.1296(4) 0.4572(3)
H10 H 1.1362 0.1818 0.4421
H11 H 1.1015 0.0936 0.4232
H12 H 1.1956 0.1118 0.4838
C14 C 0.9496(7) 0.1863(4) 0.5380(3)
H13 H 1.0293 0.2213 0.5473
C15 C 0.6775(5) 0.0927(3) 0.7079(2)
H14 H 0.7655 0.1202 0.6915
H15 H 0.6326 0.1249 0.7398
C16 C 0.8460(7) 0.0817(4) 0.4788(3)
H16 H 0.8548 0.0455 0.4468
C17 C 0.6105(6) -0.1957(3) 0.6691(3)
H17 H 0.5579 -0.1738 0.6337
H18 H 0.5391 -0.2249 0.6933
H19 H 0.6905 -0.2306 0.6560
H20? H 0.7965 -0.1997 0.7675
O4? O 0.9295(12) -0.1133(7) 0.8389(5)
H21? H 0.9314 -0.1620 0.8388
loop_
_geom_bond_atom_site_label_1
_geom_bond_atom_site_label_2
_geom_bond_site_symmetry_1
_geom_bond_site_symmetry_2
S1 N1 1_555 1_555
N1 C9 1_555 1_555
O1 S1 1_555 1_555
O2 S1 1_555 1_555
C1 C4 1_555 1_555
C2 C6 1_555 1_555
C3 S1 1_555 1_555
C4 C6 1_555 1_555
C5 C13 1_555 1_555
C6 H1 1_555 1_555
C7 C2 1_555 1_555
C8 C3 1_555 1_555
H2 C8 1_555 1_555
C9 H3 1_555 1_555
H4 C9 1_555 1_555
C10 C1 1_555 1_555
O3 C2 1_555 1_555
H5 O3 1_555 1_555
C11 C4 1_555 1_555
H6 C11 1_555 1_555
H7 C11 1_555 1_555
H8 C11 1_555 1_555
C12 C3 1_555 1_555
H9 C12 1_555 1_555
C13 H10 1_555 1_555
H11 C13 1_555 1_555
H12 C13 1_555 1_555
C14 C5 1_555 1_555
H13 C14 1_555 1_555
C15 N1 1_555 1_555
H14 C15 1_555 1_555
H15 C15 1_555 1_555
C16 C5 1_555 1_555
H16 C16 1_555 1_555
C17 C7 1_555 1_555
H17 C17 1_555 1_555
H18 C17 1_555 1_555
H19 C17 1_555 1_555
C1 C15 1_555 1_555
C7 C10 1_555 1_555
C8 C16 1_555 1_555
C9 C10 1_555 1_555
C12 C14 1_555 1_555

#END
