
#######################################################################
#
#                 Cambridge Crystallographic Data Centre
#                                CCDC 
#
#######################################################################
#
# If this CIF has been generated from an entry in the Cambridge 
# Structural Database, then it will include bibliographic, chemical, 
# crystal, experimental, refinement or atomic coordinate data resulting 
# from the CCDC's data processing and validation procedures.
#
#######################################################################

data_FOVLUY
_chemical_formula_moiety         'C10 H13 N1 O3'
_chemical_name_systematic        
'Ethyl 5-formyl-3,4-dimethyl-1H-pyrrole-2-carboxylate'
_symmetry_cell_setting           triclinic
_symmetry_space_group_name_H-M   'P -1'
_symmetry_Int_Tables_number      2
_space_group_name_Hall           '-P 1'
loop_
_symmetry_equiv_pos_site_id
_symmetry_equiv_pos_as_xyz
1 x,y,z
2 -x,-y,-z
_cell_length_a                   7.2223(12)
_cell_length_b                   7.4347(12)
_cell_length_c                   10.0488(17)
_cell_angle_alpha                78.412(2)
_cell_angle_beta                 84.191(2)
_cell_angle_gamma                79.051(2)
_cell_volume                     517.84
_exptl_crystal_colour            colorless
_exptl_crystal_description       prism
_cell_formula_units_Z            2
_exptl_crystal_recrystallization_method ethanol
loop_
_atom_site_label
_atom_site_type_symbol
_atom_site_fract_x
_atom_site_fract_y
_atom_site_fract_z
C1 C 0.3634(3) 0.8003(2) 1.03572(18)
C2 C 0.2197(3) 0.8074(3) 1.1488(2)
C3 C 0.5533(3) 0.7196(2) 1.0262(2)
C4 C 0.4613(3) 0.8683(3) 0.8185(2)
C5 C 0.6149(3) 0.7620(3) 0.8883(2)
C6 C 0.4495(4) 0.9519(4) 0.6766(2)
H1 H 0.5582 0.9328 0.6195
C7 C 0.6715(3) 0.6084(3) 1.1392(2)
H2 H 0.7978 0.5703 1.1030
H3 H 0.6181 0.5001 1.1808
H4 H 0.6741 0.6836 1.2060
C8 C 0.1496(4) 0.7387(5) 1.3863(3)
H5 H 0.1126 0.8660 1.4008
H6 H 0.0375 0.6948 1.3693
C9 C 0.2342(5) 0.6221(6) 1.5051(3)
H7 H 0.1453 0.6265 1.5826
H8 H 0.3450 0.6663 1.5212
H9 H 0.2687 0.4960 1.4906
C10 C 0.8106(3) 0.7039(4) 0.8285(3)
H10 H 0.8884 0.6318 0.8993
H11 H 0.8631 0.8128 0.7869
H12 H 0.8059 0.6301 0.7612
O1 O 0.2874(2) 0.7315(2) 1.26943(15)
O2 O 0.0572(2) 0.8726(3) 1.13418(17)
O3 O 0.3095(3) 1.0448(3) 0.62612(17)
N1 N 0.3105(2) 0.8889(2) 0.90931(15)
H13 H 0.1993 0.9484 0.8903
loop_
_geom_bond_atom_site_label_1
_geom_bond_atom_site_label_2
_geom_bond_site_symmetry_1
_geom_bond_site_symmetry_2
C1 C2 1_555 1_555
C2 O1 1_555 1_555
C3 C1 1_555 1_555
C4 C5 1_555 1_555
C5 C3 1_555 1_555
C6 C4 1_555 1_555
H1 C6 1_555 1_555
C7 C3 1_555 1_555
H2 C7 1_555 1_555
H3 C7 1_555 1_555
H4 C7 1_555 1_555
C8 H5 1_555 1_555
H6 C8 1_555 1_555
C9 C8 1_555 1_555
H7 C9 1_555 1_555
H8 C9 1_555 1_555
H9 C9 1_555 1_555
C10 C5 1_555 1_555
H10 C10 1_555 1_555
H11 C10 1_555 1_555
H12 C10 1_555 1_555
O1 C8 1_555 1_555
O2 C2 1_555 1_555
O3 C6 1_555 1_555
N1 C1 1_555 1_555
H13 N1 1_555 1_555
C4 N1 1_555 1_555

#END
