
#######################################################################
#
#                 Cambridge Crystallographic Data Centre
#                                CCDC 
#
#######################################################################
#
# If this CIF has been generated from an entry in the Cambridge 
# Structural Database, then it will include bibliographic, chemical, 
# crystal, experimental, refinement or atomic coordinate data resulting 
# from the CCDC's data processing and validation procedures.
#
#######################################################################

data_FOVNUA
_chemical_formula_moiety         'C16 H14 O4'
_chemical_name_systematic        "Dimethyl biphenyl-4,4'-dicarboxylate"
_symmetry_cell_setting           orthorhombic
_symmetry_space_group_name_H-M   'P b c a'
_symmetry_Int_Tables_number      61
_space_group_name_Hall           '-P 2ac 2ab'
loop_
_symmetry_equiv_pos_site_id
_symmetry_equiv_pos_as_xyz
1 x,y,z
2 1/2-x,-y,1/2+z
3 1/2+x,1/2-y,-z
4 -x,1/2+y,1/2-z
5 -x,-y,-z
6 1/2+x,y,1/2-z
7 1/2-x,1/2+y,z
8 x,1/2-y,1/2+z
_cell_length_a                   7.1358(9)
_cell_length_b                   5.9752(8)
_cell_length_c                   29.709(4)
_cell_angle_alpha                90
_cell_angle_beta                 90
_cell_angle_gamma                90
_cell_volume                     1266.73
_exptl_crystal_colour            colorless
_exptl_crystal_description       plate
_cell_formula_units_Z            4
loop_
_atom_site_label
_atom_site_type_symbol
_atom_site_fract_x
_atom_site_fract_y
_atom_site_fract_z
O1 O 0.43822(17) 0.51545(19) 0.16205(4)
O2 O 0.55690(18) 0.1972(2) 0.19068(4)
C1 C 0.49919(19) 0.0457(2) 0.02340(4)
C2 C 0.42227(19) 0.2566(2) 0.03299(5)
H1 H 0.3706 0.3428 0.0092
C3 C 0.41984(19) 0.3421(2) 0.07637(5)
H2 H 0.3675 0.4857 0.0819
C4 C 0.49395(19) 0.2179(3) 0.11195(5)
C5 C 0.5698(2) 0.0075(2) 0.10315(5)
H3 H 0.6194 -0.0791 0.1272
C6 C 0.5736(2) -0.0766(2) 0.05963(5)
H4 H 0.6274 -0.2195 0.0542
C7 C 0.4997(2) 0.3039(3) 0.15895(5)
C8 C 0.4498(3) 0.6139(3) 0.20658(6)
H5 H 0.3676 0.5318 0.2272
H6 H 0.4104 0.7708 0.2052
H7 H 0.5793 0.6055 0.2174
O1D O 0.56178(17) -0.51545(19) -0.16205(4)
O2D O 0.44310(18) -0.1972(2) -0.19068(4)
C1D C 0.50081(19) -0.0457(2) -0.02340(4)
C2D C 0.57773(19) -0.2566(2) -0.03299(5)
H1D H 0.6294 -0.3428 -0.0092
C3D C 0.58016(19) -0.3421(2) -0.07637(5)
H2D H 0.6325 -0.4857 -0.0819
C4D C 0.50605(19) -0.2179(3) -0.11195(5)
C5D C 0.4302(2) -0.0075(2) -0.10315(5)
H3D H 0.3806 0.0791 -0.1272
C6D C 0.4264(2) 0.0766(2) -0.05963(5)
H4D H 0.3726 0.2195 -0.0542
C7D C 0.5003(2) -0.3039(3) -0.15895(5)
C8D C 0.5502(3) -0.6139(3) -0.20658(6)
H5D H 0.6324 -0.5318 -0.2272
H6D H 0.5896 -0.7708 -0.2052
H7D H 0.4207 -0.6055 -0.2174
loop_
_geom_bond_atom_site_label_1
_geom_bond_atom_site_label_2
_geom_bond_site_symmetry_1
_geom_bond_site_symmetry_2
O1 C7 1_555 1_555
O2 C7 1_555 1_555
C1 C2 1_555 1_555
C2 H1 1_555 1_555
C3 C2 1_555 1_555
H2 C3 1_555 1_555
C4 C3 1_555 1_555
C5 C4 1_555 1_555
H3 C5 1_555 1_555
C6 C1 1_555 1_555
H4 C6 1_555 1_555
C7 C4 1_555 1_555
C8 O1 1_555 1_555
H5 C8 1_555 1_555
H6 C8 1_555 1_555
H7 C8 1_555 1_555
O1D C7D 1_555 1_555
O2D C7D 1_555 1_555
C1D C1 1_555 1_555
C2D C1D 1_555 1_555
H1D C2D 1_555 1_555
C3D C2D 1_555 1_555
H2D C3D 1_555 1_555
C4D C3D 1_555 1_555
C5D C4D 1_555 1_555
H3D C5D 1_555 1_555
C6D C1D 1_555 1_555
H4D C6D 1_555 1_555
C7D C4D 1_555 1_555
C8D O1D 1_555 1_555
H5D C8D 1_555 1_555
H6D C8D 1_555 1_555
H7D C8D 1_555 1_555
C5 C6 1_555 1_555
C5D C6D 1_555 1_555

#END
