
#######################################################################
#
#                 Cambridge Crystallographic Data Centre
#                                CCDC 
#
#######################################################################
#
# If this CIF has been generated from an entry in the Cambridge 
# Structural Database, then it will include bibliographic, chemical, 
# crystal, experimental, refinement or atomic coordinate data resulting 
# from the CCDC's data processing and validation procedures.
#
#######################################################################

data_FOVNIO
_chemical_formula_moiety         'C21 H16 N3 O2 1+,N1 O3 1-'
_chemical_name_systematic        
'2-(3-Nitrophenyl)-4,5-diphenyl-1H-imidazol-3-ium nitrate'
_symmetry_cell_setting           monoclinic
_symmetry_space_group_name_H-M   'P 21/c'
_symmetry_Int_Tables_number      14
_space_group_name_Hall           '-P 2ybc'
loop_
_symmetry_equiv_pos_site_id
_symmetry_equiv_pos_as_xyz
1 x,y,z
2 -x,1/2+y,1/2-z
3 -x,-y,-z
4 x,1/2-y,1/2+z
_cell_length_a                   5.8700(10)
_cell_length_b                   12.509(3)
_cell_length_c                   26.476(5)
_cell_angle_alpha                90
_cell_angle_beta                 95.06(3)
_cell_angle_gamma                90
_cell_volume                     1936.5
_exptl_crystal_colour            colorless
_exptl_crystal_description       block
_cell_formula_units_Z            4
_exptl_crystal_recrystallization_method 'ethanol/nitric acid'
loop_
_atom_site_label
_atom_site_type_symbol
_atom_site_fract_x
_atom_site_fract_y
_atom_site_fract_z
O1 O 0.2948(3) 0.82802(12) 0.22754(7)
N1 N 0.5060(4) 0.84341(19) 0.22241(8)
O2 O 0.6316(4) 0.76676(19) 0.21888(9)
O3 O 0.5694(4) 0.93609(19) 0.22221(11)
N2 N 0.1754(3) 0.64621(14) 0.27380(6)
H1 H 0.2441 0.6959 0.2586
N3 N -0.0446(3) 0.51473(14) 0.28709(7)
H2 H -0.1439 0.4645 0.2819
C1 C 0.0303(4) 0.57674(17) 0.25109(8)
C2 C 0.0275(4) 0.47970(17) 0.37962(8)
C3 C 0.3635(4) 0.68723(17) 0.35972(8)
C4 C 0.1235(4) 0.60288(18) 0.16282(9)
H3 H 0.2548 0.6404 0.1743
C5 C 0.7179(4) 0.7836(2) 0.37476(11)
H4 H 0.8493 0.8118 0.3627
C6 C 0.2004(4) 0.62735(17) 0.32540(8)
C7 C 0.0714(5) 0.5842(2) 0.11185(9)
C8 C 0.3271(4) 0.70151(19) 0.41038(9)
H5 H 0.1955 0.6741 0.4227
C9 C -0.0249(4) 0.56435(17) 0.19669(8)
C10 C 0.5628(4) 0.72880(18) 0.34219(9)
H6 H 0.5910 0.7195 0.3085
C11 C -0.2202(4) 0.5095(2) 0.17802(9)
H7 H -0.3215 0.4842 0.2003
C12 C 0.0604(4) 0.54308(17) 0.33367(8)
C13 C 0.4843(5) 0.7559(2) 0.44270(10)
H8 H 0.4578 0.7649 0.4766
O4 O 0.3866(4) 0.6812(2) 0.09223(9)
C14 C -0.1602(5) 0.4912(2) 0.40612(11)
H9 H -0.2725 0.5405 0.3953
N4 N 0.2321(5) 0.6234(2) 0.07626(10)
C15 C 0.6799(5) 0.7970(2) 0.42501(11)
H10 H 0.7858 0.8335 0.4468
C16 C -0.0231(5) 0.3584(2) 0.46502(10)
H11 H -0.0386 0.3186 0.4942
C17 C -0.2650(5) 0.4923(2) 0.12670(10)
H12 H -0.3965 0.4555 0.1147
O5 O 0.1968(5) 0.5963(2) 0.03177(9)
C18 C 0.1888(5) 0.4055(2) 0.39616(11)
H13 H 0.3178 0.3963 0.3786
C19 C 0.1621(6) 0.3445(3) 0.43847(11)
H14 H 0.2716 0.2934 0.4489
C20 C -0.1176(5) 0.5290(2) 0.09306(10)
H15 H -0.1459 0.5165 0.0585
C21 C -0.1853(5) 0.4305(3) 0.44881(11)
H16 H -0.3141 0.4392 0.4665
loop_
_geom_bond_atom_site_label_1
_geom_bond_atom_site_label_2
_geom_bond_site_symmetry_1
_geom_bond_site_symmetry_2
O1 N1 1_555 1_555
N1 O2 1_555 1_555
O3 N1 1_555 1_555
N2 H1 1_555 1_555
N3 H2 1_555 1_555
C1 N2 1_555 1_555
C2 C12 1_555 1_555
C3 C6 1_555 1_555
C4 H3 1_555 1_555
C5 H4 1_555 1_555
C6 N2 1_555 1_555
C7 C4 1_555 1_555
C8 C3 1_555 1_555
H5 C8 1_555 1_555
C9 C1 1_555 1_555
C10 C3 1_555 1_555
H6 C10 1_555 1_555
C11 C9 1_555 1_555
H7 C11 1_555 1_555
C12 N3 1_555 1_555
C13 C8 1_555 1_555
H8 C13 1_555 1_555
O4 N4 1_555 1_555
C14 C2 1_555 1_555
H9 C14 1_555 1_555
N4 C7 1_555 1_555
C15 C5 1_555 1_555
H10 C15 1_555 1_555
C16 H11 1_555 1_555
C17 C11 1_555 1_555
H12 C17 1_555 1_555
O5 N4 1_555 1_555
C18 C2 1_555 1_555
H13 C18 1_555 1_555
C19 C16 1_555 1_555
H14 C19 1_555 1_555
C20 C7 1_555 1_555
H15 C20 1_555 1_555
C21 C14 1_555 1_555
H16 C21 1_555 1_555
N3 C1 1_555 1_555
C4 C9 1_555 1_555
C5 C10 1_555 1_555
C6 C12 1_555 1_555
C13 C15 1_555 1_555
C16 C21 1_555 1_555
C17 C20 1_555 1_555
C18 C19 1_555 1_555

#END
