
#######################################################################
#
#                 Cambridge Crystallographic Data Centre
#                                CCDC 
#
#######################################################################
#
# If this CIF has been generated from an entry in the Cambridge 
# Structural Database, then it will include bibliographic, chemical, 
# crystal, experimental, refinement or atomic coordinate data resulting 
# from the CCDC's data processing and validation procedures.
#
#######################################################################

data_FOVQUD
_chemical_formula_moiety         'C20 H16 N4 O2'
_chemical_name_systematic        
2-[4-(4-Methoxyphenyl)-5-(2-pyridyl)-4H-1,2,4-triazol-3-yl]phenol
_symmetry_cell_setting           monoclinic
_symmetry_space_group_name_H-M   'P 21/n'
_symmetry_Int_Tables_number      14
_space_group_name_Hall           '-P 2yn'
loop_
_symmetry_equiv_pos_site_id
_symmetry_equiv_pos_as_xyz
1 x,y,z
2 1/2-x,1/2+y,1/2-z
3 -x,-y,-z
4 1/2+x,1/2-y,1/2+z
_cell_length_a                   10.0842(9)
_cell_length_b                   10.4903(9)
_cell_length_c                   16.7214(14)
_cell_angle_alpha                90
_cell_angle_beta                 94.658(2)
_cell_angle_gamma                90
_cell_volume                     1763.05
_exptl_crystal_colour            colorless
_exptl_crystal_description       block
_cell_formula_units_Z            4
_exptl_crystal_recrystallization_method acetone
loop_
_atom_site_label
_atom_site_type_symbol
_atom_site_fract_x
_atom_site_fract_y
_atom_site_fract_z
O1 O 0.25887(10) 0.88801(10) 0.27051(6)
H1 H 0.2548(16) 0.8171(17) 0.3044(10)
O2 O 0.57961(12) 0.52684(10) 0.08768(7)
N1 N 0.30394(11) 0.98466(10) 0.09726(6)
N2 N 0.26339(12) 1.17680(11) 0.13995(7)
N3 N 0.20046(12) 1.16372(11) 0.06409(7)
C1 C 0.07912(15) 1.07145(17) -0.08501(9)
H2 H 0.0505 1.1495 -0.0664
C2 C 0.32455(13) 1.06948(12) 0.15894(8)
C3 C 0.22553(13) 1.04857(13) 0.03920(8)
C4 C 0.40733(14) 1.04578(12) 0.23412(8)
C5 C 0.37258(14) 0.95349(12) 0.28844(8)
C6 C 0.45291(16) 0.93499(15) 0.35907(10)
H3 H 0.4300 0.8741 0.3959
C7 C 0.5664(2) 1.00676(19) 0.37443(12)
H4 H 0.6202 0.9934 0.4215
C8 C 0.6009(2) 1.0981(2) 0.32077(13)
H5 H 0.6778 1.1462 0.3315
C9 C 0.52135(18) 1.11758(16) 0.25158(11)
H6 H 0.5442 1.1800 0.2157
C10 C 0.17333(13) 1.00019(14) -0.03971(8)
C11 C 0.02873(17) 1.0247(2) -0.15797(10)
H7 H -0.0347 1.0707 -0.1895
C12 C 0.07285(19) 0.9101(2) -0.18364(10)
H8 H 0.0396 0.8760 -0.2326
C13 C 0.1670(2) 0.84634(19) -0.13575(11)
H9 H 0.1972 0.7686 -0.1539
N4 N 0.21866(15) 0.88858(13) -0.06456(8)
C14 C 0.37019(13) 0.86290(12) 0.09457(8)
C15 C 0.50296(14) 0.86186(13) 0.08103(9)
H10 H 0.5472 0.9380 0.0730
C16 C 0.57011(15) 0.74766(14) 0.07936(9)
H11 H 0.6597 0.7466 0.0697
C17 C 0.50458(15) 0.63460(13) 0.09194(8)
C18 C 0.37133(16) 0.63626(13) 0.10599(9)
H12 H 0.3269 0.5604 0.1145
C19 C 0.30437(14) 0.75134(13) 0.10732(9)
H13 H 0.2148 0.7530 0.1169
C20 C 0.5210(2) 0.40928(15) 0.10653(11)
H14 H 0.5837 0.3416 0.1011
H15 H 0.4433 0.3947 0.0706
H16 H 0.4962 0.4117 0.1607
loop_
_geom_bond_atom_site_label_1
_geom_bond_atom_site_label_2
_geom_bond_site_symmetry_1
_geom_bond_site_symmetry_2
O1 H1 1_555 1_555
O2 C17 1_555 1_555
N1 C2 1_555 1_555
N2 N3 1_555 1_555
N3 C3 1_555 1_555
C1 H2 1_555 1_555
C2 N2 1_555 1_555
C3 N1 1_555 1_555
C4 C2 1_555 1_555
C5 O1 1_555 1_555
C6 C5 1_555 1_555
H3 C6 1_555 1_555
C7 C6 1_555 1_555
H4 C7 1_555 1_555
C8 C7 1_555 1_555
H5 C8 1_555 1_555
C9 C4 1_555 1_555
H6 C9 1_555 1_555
C10 C1 1_555 1_555
C11 C1 1_555 1_555
H7 C11 1_555 1_555
C12 C11 1_555 1_555
H8 C12 1_555 1_555
C13 C12 1_555 1_555
H9 C13 1_555 1_555
N4 C10 1_555 1_555
C14 N1 1_555 1_555
C15 C14 1_555 1_555
H10 C15 1_555 1_555
C16 C15 1_555 1_555
H11 C16 1_555 1_555
C17 C16 1_555 1_555
C18 C17 1_555 1_555
H12 C18 1_555 1_555
C19 C14 1_555 1_555
H13 C19 1_555 1_555
C20 O2 1_555 1_555
H14 C20 1_555 1_555
H15 C20 1_555 1_555
H16 C20 1_555 1_555
C3 C10 1_555 1_555
C4 C5 1_555 1_555
C8 C9 1_555 1_555
C13 N4 1_555 1_555
C18 C19 1_555 1_555

#END
