
#######################################################################
#
#                 Cambridge Crystallographic Data Centre
#                                CCDC 
#
#######################################################################
#
# If this CIF has been generated from an entry in the Cambridge 
# Structural Database, then it will include bibliographic, chemical, 
# crystal, experimental, refinement or atomic coordinate data resulting 
# from the CCDC's data processing and validation procedures.
#
#######################################################################

data_FOVTAM
_chemical_formula_moiety         'C23 H24 Br1 N1 O4'
_chemical_name_systematic        
'Ethyl 1-(2-bromopropanoyl)-4-hydroxy-2,6-diphenyl-1,2,5,6-tetrahydro-3-pyridinecarboxylate'
_symmetry_cell_setting           triclinic
_symmetry_space_group_name_H-M   'P -1'
_symmetry_Int_Tables_number      2
_space_group_name_Hall           '-P 1'
loop_
_symmetry_equiv_pos_site_id
_symmetry_equiv_pos_as_xyz
1 x,y,z
2 -x,-y,-z
_cell_length_a                   10.3970(4)
_cell_length_b                   14.4874(6)
_cell_length_c                   15.8580(7)
_cell_angle_alpha                65.457(2)
_cell_angle_beta                 89.556(3)
_cell_angle_gamma                80.597(3)
_cell_volume                     2138.8
_exptl_crystal_colour            colorless
_exptl_crystal_description       prism
_cell_formula_units_Z            4
_exptl_crystal_recrystallization_method ethanol
loop_
_atom_site_label
_atom_site_type_symbol
_atom_site_fract_x
_atom_site_fract_y
_atom_site_fract_z
Br1 Br 0.72815(4) 0.34497(3) 0.35318(3)
O1 O 0.4992(3) 0.6538(3) 0.4898(2)
H1 H 0.4404 0.7031 0.4635
O2 O 0.7187(3) 0.5800(2) 0.18232(17)
O3 O 0.3824(3) 0.8162(3) 0.3556(3)
O4 O 0.4572(2) 0.8545(2) 0.2153(3)
N1 N 0.7565(2) 0.60133(19) 0.31187(18)
C1 C 0.6728(3) 0.7045(2) 0.2704(2)
H2 H 0.6197 0.7058 0.2190
C2 C 0.5780(3) 0.7178(3) 0.3388(3)
C3 C 0.5863(4) 0.6480(3) 0.4287(3)
C4 C 0.6874(4) 0.5545(3) 0.4684(3)
H3 H 0.6504 0.4954 0.4730
H4 H 0.7159 0.5431 0.5306
C5 C 0.8039(3) 0.5633(3) 0.4097(2)
H5 H 0.8540 0.4936 0.4283
C6 C 0.8963(3) 0.6295(2) 0.4207(2)
C7 C 0.8771(4) 0.6770(3) 0.4803(2)
H6 H 0.8057 0.6688 0.5168
C8 C 0.9650(4) 0.7371(3) 0.4855(3)
H7 H 0.9521 0.7689 0.5259
C9 C 1.0698(4) 0.7505(3) 0.4326(3)
H8 H 1.1269 0.7923 0.4357
C10 C 1.0901(4) 0.7022(3) 0.3753(3)
H9 H 1.1624 0.7101 0.3397
C11 C 1.0047(3) 0.6414(3) 0.3693(3)
H10 H 1.0205 0.6082 0.3302
C12 C 0.7539(3) 0.7893(2) 0.2271(2)
C13 C 0.7646(3) 0.8605(3) 0.2614(3)
H11 H 0.7215 0.8575 0.3138
C14 C 0.8385(4) 0.9366(3) 0.2192(4)
H12 H 0.8435 0.9848 0.2430
C15 C 0.9037(5) 0.9417(4) 0.1433(4)
H13 H 0.9536 0.9929 0.1153
C16 C 0.8953(5) 0.8708(4) 0.1086(3)
H14 H 0.9405 0.8733 0.0571
C17 C 0.8201(4) 0.7953(3) 0.1493(3)
H15 H 0.8139 0.7482 0.1244
C18 C 0.4657(4) 0.7992(3) 0.3062(4)
C19 C 0.3441(5) 0.9369(5) 0.1788(5)
H16 H 0.3326 0.9762 0.2160
H17 H 0.2654 0.9089 0.1790
C20 C 0.3715(10) 1.0026(7) 0.0831(6)
H18 H 0.2999 1.0589 0.0555
H19 H 0.3823 0.9626 0.0473
H20 H 0.4500 1.0290 0.0841
C21 C 0.7694(3) 0.5460(3) 0.2606(2)
C22 C 0.8512(3) 0.4390(3) 0.3009(3)
H21 H 0.9132 0.4323 0.3502
C23 C 0.9235(4) 0.4149(3) 0.2283(3)
H22 H 0.9844 0.4612 0.2030
H23 H 0.8625 0.4228 0.1796
H24 H 0.9701 0.3452 0.2559
Br2 Br 0.16044(4) 0.65873(3) 0.14248(3)
O5 O 0.0762(3) 0.3339(3) 0.0151(2)
H25 H 0.0614 0.2749 0.0371
O6 O 0.2515(3) 0.4273(2) 0.31396(18)
O7 O 0.0454(3) 0.1660(3) 0.1541(3)
O8 O 0.1301(3) 0.1399(2) 0.2932(2)
N2 N 0.3001(3) 0.40012(19) 0.18645(18)
C24 C 0.2625(3) 0.2972(2) 0.2320(2)
H26 H 0.2060 0.2995 0.2811
C25 C 0.1797(3) 0.2780(3) 0.1653(3)
C26 C 0.1563(3) 0.3448(3) 0.0751(3)
C27 C 0.2110(4) 0.4402(3) 0.0324(3)
H27 H 0.1458 0.4982 0.0285
H28 H 0.2332 0.4514 -0.0303
C28 C 0.3323(3) 0.4348(3) 0.0883(2)
H29 H 0.3504 0.5050 0.0671
C29 C 0.4543(3) 0.3678(3) 0.0788(2)
C30 C 0.4573(4) 0.3175(3) 0.0215(3)
H30 H 0.3833 0.3265 -0.0156
C31 C 0.5702(5) 0.2537(3) 0.0191(3)
H31 H 0.5712 0.2196 -0.0193
C32 C 0.6798(4) 0.2401(3) 0.0718(3)
H32 H 0.7547 0.1957 0.0708
C33 C 0.6788(4) 0.2924(3) 0.1266(3)
H33 H 0.7542 0.2850 0.1618
C34 C 0.5674(3) 0.3556(3) 0.1299(3)
H34 H 0.5681 0.3908 0.1672
C35 C 0.3786(3) 0.2134(3) 0.2800(2)
C36 C 0.4310(4) 0.1441(3) 0.2455(3)
H35 H 0.3953 0.1492 0.1898
C37 C 0.5348(5) 0.0677(3) 0.2912(4)
H36 H 0.5689 0.0213 0.2668
C38 C 0.5885(5) 0.0596(4) 0.3730(5)
H37 H 0.6590 0.0076 0.4044
C39 C 0.5380(5) 0.1283(4) 0.4084(4)
H38 H 0.5745 0.1230 0.4640
C40 C 0.4342(4) 0.2048(3) 0.3626(3)
H39 H 0.4007 0.2513 0.3871
C41 C 0.1131(4) 0.1907(3) 0.2014(4)
C42 C 0.0768(6) 0.0452(4) 0.3394(5)
H40 H 0.1356 -0.0032 0.3919
H41 H 0.0697 0.0140 0.2965
C43 C -0.0526(9) 0.0668(8) 0.3720(9)
H42 H -0.1157 0.1007 0.3198
H43 H -0.0495 0.1106 0.4034
H44 H -0.0772 0.0033 0.4140
C44 C 0.2887(3) 0.4577(3) 0.2355(2)
C45 C 0.3253(3) 0.5647(3) 0.1922(3)
H45 H 0.3835 0.5701 0.1421
C46 C 0.3890(4) 0.5887(3) 0.2638(3)
H46 H 0.4704 0.5422 0.2879
H47 H 0.3324 0.5810 0.3135
H48 H 0.4047 0.6583 0.2356
C47? C 0.261(2) 0.924(2) 0.1100(16)
C48? C 0.1487(14) -0.0052(9) 0.4351(8)
H49? H 0.3742 1.0012 0.1472
H50? H 0.2962 0.9402 0.2298
H51? H 0.1882 0.9797 0.0870
H52? H 0.2296 0.8597 0.1393
H53? H 0.3117 0.9232 0.0593
H54? H 0.0936 0.0026 0.3063
H55? H -0.0156 0.0599 0.3445
H56? H 0.1197 -0.0689 0.4713
H57? H 0.1310 0.0400 0.4656
H58? H 0.2410 -0.0186 0.4287
loop_
_geom_bond_atom_site_label_1
_geom_bond_atom_site_label_2
_geom_bond_site_symmetry_1
_geom_bond_site_symmetry_2
Br1 C22 1_555 1_555
O1 H1 1_555 1_555
O2 C21 1_555 1_555
O3 C18 1_555 1_555
O4 C18 1_555 1_555
N1 C1 1_555 1_555
C1 H2 1_555 1_555
C2 C1 1_555 1_555
C3 O1 1_555 1_555
C4 C3 1_555 1_555
H3 C4 1_555 1_555
H4 C4 1_555 1_555
C5 N1 1_555 1_555
H5 C5 1_555 1_555
C6 C5 1_555 1_555
C7 C6 1_555 1_555
H6 C7 1_555 1_555
C8 C7 1_555 1_555
H7 C8 1_555 1_555
C9 C8 1_555 1_555
H8 C9 1_555 1_555
C10 C9 1_555 1_555
H9 C10 1_555 1_555
C11 C6 1_555 1_555
H10 C11 1_555 1_555
C12 C1 1_555 1_555
C13 C12 1_555 1_555
H11 C13 1_555 1_555
C14 C13 1_555 1_555
H12 C14 1_555 1_555
C15 C14 1_555 1_555
H13 C15 1_555 1_555
C16 C15 1_555 1_555
H14 C16 1_555 1_555
C17 C12 1_555 1_555
H15 C17 1_555 1_555
C18 C2 1_555 1_555
C19 O4 1_555 1_555
H16 C19 1_555 1_555
H17 C19 1_555 1_555
C20 C19 1_555 1_555
H18 C20 1_555 1_555
H19 C20 1_555 1_555
H20 C20 1_555 1_555
C21 N1 1_555 1_555
C22 C21 1_555 1_555
H21 C22 1_555 1_555
C23 C22 1_555 1_555
H22 C23 1_555 1_555
H23 C23 1_555 1_555
H24 C23 1_555 1_555
Br2 C45 1_555 1_555
O5 H25 1_555 1_555
O6 C44 1_555 1_555
O7 C41 1_555 1_555
O8 C41 1_555 1_555
N2 C24 1_555 1_555
C24 H26 1_555 1_555
C25 C24 1_555 1_555
C26 O5 1_555 1_555
C27 C26 1_555 1_555
H27 C27 1_555 1_555
H28 C27 1_555 1_555
C28 N2 1_555 1_555
H29 C28 1_555 1_555
C29 C28 1_555 1_555
C30 C29 1_555 1_555
H30 C30 1_555 1_555
C31 C30 1_555 1_555
H31 C31 1_555 1_555
C32 C31 1_555 1_555
H32 C32 1_555 1_555
C33 C32 1_555 1_555
H33 C33 1_555 1_555
C34 C29 1_555 1_555
H34 C34 1_555 1_555
C35 C24 1_555 1_555
C36 C35 1_555 1_555
H35 C36 1_555 1_555
C37 C36 1_555 1_555
H36 C37 1_555 1_555
C38 C37 1_555 1_555
H37 C38 1_555 1_555
C39 C38 1_555 1_555
H38 C39 1_555 1_555
C40 C35 1_555 1_555
H39 C40 1_555 1_555
C41 C25 1_555 1_555
C42 O8 1_555 1_555
H40 C42 1_555 1_555
H41 C42 1_555 1_555
C43 C42 1_555 1_555
H42 C43 1_555 1_555
H43 C43 1_555 1_555
H44 C43 1_555 1_555
C44 N2 1_555 1_555
C45 C44 1_555 1_555
H45 C45 1_555 1_555
C46 C45 1_555 1_555
H46 C46 1_555 1_555
H47 C46 1_555 1_555
H48 C46 1_555 1_555
C2 C3 1_555 1_555
C4 C5 1_555 1_555
C10 C11 1_555 1_555
C16 C17 1_555 1_555
C25 C26 1_555 1_555
C27 C28 1_555 1_555
C33 C34 1_555 1_555
C39 C40 1_555 1_555

#END
