
#######################################################################
#
#                 Cambridge Crystallographic Data Centre
#                                CCDC 
#
#######################################################################
#
# If this CIF has been generated from an entry in the Cambridge 
# Structural Database, then it will include bibliographic, chemical, 
# crystal, experimental, refinement or atomic coordinate data resulting 
# from the CCDC's data processing and validation procedures.
#
#######################################################################

data_FOVVOC
_chemical_formula_moiety         'C34 H35 N3 O2'
_chemical_name_systematic        
3',6'-bis(diethylamino)-2-phenylspiro[isoindole-1,9'-xanthen]-3(2H)-one
_symmetry_cell_setting           monoclinic
_symmetry_space_group_name_H-M   'P 21/n'
_symmetry_Int_Tables_number      14
_space_group_name_Hall           '-P 2yn'
loop_
_symmetry_equiv_pos_site_id
_symmetry_equiv_pos_as_xyz
1 x,y,z
2 1/2-x,1/2+y,1/2-z
3 -x,-y,-z
4 1/2+x,1/2-y,1/2+z
_cell_length_a                   12.0213(5)
_cell_length_b                   12.6315(4)
_cell_length_c                   18.9700(7)
_cell_angle_alpha                90
_cell_angle_beta                 107.456(4)
_cell_angle_gamma                90
_cell_volume                     2747.88
_exptl_crystal_colour            colorless
_exptl_crystal_description       block
_cell_formula_units_Z            4
_exptl_crystal_recrystallization_method dichloromethane/methanol
loop_
_atom_site_label
_atom_site_type_symbol
_atom_site_fract_x
_atom_site_fract_y
_atom_site_fract_z
C1 C 0.71114(11) 0.71818(10) 0.15020(7)
C2 C 0.82352(12) 0.71273(11) 0.14514(8)
H1 H 0.8558 0.7722 0.1277
C3 C 0.88993(11) 0.62080(11) 0.16541(7)
C4 C 0.83537(12) 0.53371(10) 0.18815(7)
H2 H 0.8767 0.4690 0.2011
C5 C 0.72318(11) 0.54138(10) 0.19186(7)
H3 H 0.6893 0.4815 0.2077
C6 C 0.65727(11) 0.63372(10) 0.17327(7)
C7 C 0.53398(11) 0.64059(10) 0.17788(7)
C8 C 0.48969(11) 0.75350(9) 0.16449(7)
C9 C 0.38198(11) 0.78341(10) 0.17203(7)
H4 H 0.3381 0.7321 0.1890
C10 C 0.33646(11) 0.88340(10) 0.15613(7)
H5 H 0.2624 0.8995 0.1617
C11 C 0.39947(11) 0.96252(10) 0.13143(7)
C12 C 0.50750(12) 0.93349(10) 0.12374(7)
H6 H 0.5524 0.9844 0.1073
C13 C 0.54985(11) 0.83143(10) 0.13973(7)
C14 C 0.44953(11) 0.56635(10) 0.12430(7)
C15 C 0.41783(12) 0.56501(11) 0.04796(8)
H7 H 0.4507 0.6137 0.0216
C16 C 0.33642(13) 0.49019(12) 0.01089(8)
H8 H 0.3143 0.4871 -0.0415
C17 C 0.28681(13) 0.41981(12) 0.04928(9)
H9 H 0.2307 0.3698 0.0228
C18 C 0.31836(12) 0.42201(11) 0.12532(9)
H10 H 0.2847 0.3743 0.1519
C19 C 0.40063(11) 0.49595(10) 0.16190(8)
C20 C 0.45099(12) 0.51313(10) 0.24234(8)
C21 C 0.60912(11) 0.62493(10) 0.31955(7)
C22 C 0.66767(14) 0.54632(12) 0.36746(8)
H11 H 0.6536 0.4739 0.3542
C23 C 0.74656(14) 0.57334(13) 0.43449(8)
H12 H 0.7852 0.5192 0.4676
C24 C 0.76971(14) 0.67813(13) 0.45384(8)
H13 H 0.8240 0.6965 0.4999
C25 C 0.71330(15) 0.75539(13) 0.40563(9)
H14 H 0.7297 0.8277 0.4182
C26 C 0.63245(14) 0.72939(11) 0.33859(8)
H15 H 0.5933 0.7838 0.3059
C27 C 0.41811(13) 1.14312(11) 0.08587(8)
H16 H 0.3609 1.1947 0.0563
H17 H 0.4559 1.1081 0.0523
C28 C 0.51015(15) 1.20246(12) 0.14500(10)
H18 H 0.5487 1.2541 0.1216
H19 H 0.5681 1.1522 0.1740
H20 H 0.4732 1.2394 0.1776
C29 C 0.25151(14) 1.09900(12) 0.13220(9)
H21 H 0.2611 1.1744 0.1470
H22 H 0.2431 1.0579 0.1747
C30 C 0.14156(16) 1.08697(19) 0.06812(11)
H23 H 0.0747 1.1124 0.0827
H24 H 0.1302 1.0122 0.0540
H25 H 0.1485 1.1285 0.0260
C31 C 1.06594(13) 0.70793(12) 0.15060(10)
H26 H 1.1479 0.7048 0.1825
H27 H 1.0301 0.7720 0.1646
C32 C 1.06523(17) 0.71910(15) 0.07113(10)
H28 H 1.1085 0.7829 0.0659
H29 H 0.9846 0.7248 0.0391
H30 H 1.1022 0.6569 0.0569
C33 C 1.06374(13) 0.51390(12) 0.17186(8)
H31 H 1.0513 0.4745 0.2140
H32 H 1.1485 0.5266 0.1831
C34 C 1.02314(13) 0.44583(12) 0.10308(9)
H33 H 1.0664 0.3789 0.1113
H34 H 1.0372 0.4833 0.0613
H35 H 0.9396 0.4313 0.0922
N1 N 0.35614(10) 1.06343(9) 0.11526(7)
N2 N 1.00455(10) 0.61526(10) 0.16542(7)
N3 N 0.52732(9) 0.59642(8) 0.25021(6)
O1 O 0.65733(8) 0.81453(7) 0.12950(6)
O2 O 0.42961(9) 0.46357(8) 0.29198(6)
loop_
_geom_bond_atom_site_label_1
_geom_bond_atom_site_label_2
_geom_bond_site_symmetry_1
_geom_bond_site_symmetry_2
C1 C2 1_555 1_555
C2 H1 1_555 1_555
C3 C2 1_555 1_555
C4 C3 1_555 1_555
H2 C4 1_555 1_555
C5 C4 1_555 1_555
H3 C5 1_555 1_555
C6 C1 1_555 1_555
C7 C6 1_555 1_555
C8 C7 1_555 1_555
C9 C8 1_555 1_555
H4 C9 1_555 1_555
C10 C9 1_555 1_555
H5 C10 1_555 1_555
C11 C10 1_555 1_555
C12 C11 1_555 1_555
H6 C12 1_555 1_555
C13 C8 1_555 1_555
C14 C7 1_555 1_555
C15 C14 1_555 1_555
H7 C15 1_555 1_555
C16 C15 1_555 1_555
H8 C16 1_555 1_555
C17 C16 1_555 1_555
H9 C17 1_555 1_555
C18 C17 1_555 1_555
H10 C18 1_555 1_555
C19 C14 1_555 1_555
C20 C19 1_555 1_555
C21 C22 1_555 1_555
C22 H11 1_555 1_555
C23 C22 1_555 1_555
H12 C23 1_555 1_555
C24 C23 1_555 1_555
H13 C24 1_555 1_555
C25 C24 1_555 1_555
H14 C25 1_555 1_555
C26 C21 1_555 1_555
H15 C26 1_555 1_555
C27 H16 1_555 1_555
H17 C27 1_555 1_555
C28 C27 1_555 1_555
H18 C28 1_555 1_555
H19 C28 1_555 1_555
H20 C28 1_555 1_555
C29 H21 1_555 1_555
H22 C29 1_555 1_555
C30 C29 1_555 1_555
H23 C30 1_555 1_555
H24 C30 1_555 1_555
H25 C30 1_555 1_555
C31 H26 1_555 1_555
H27 C31 1_555 1_555
C32 C31 1_555 1_555
H28 C32 1_555 1_555
H29 C32 1_555 1_555
H30 C32 1_555 1_555
C33 H31 1_555 1_555
H32 C33 1_555 1_555
C34 C33 1_555 1_555
H33 C34 1_555 1_555
H34 C34 1_555 1_555
H35 C34 1_555 1_555
N1 C11 1_555 1_555
N2 C3 1_555 1_555
N3 C7 1_555 1_555
O1 C1 1_555 1_555
O2 C20 1_555 1_555
C5 C6 1_555 1_555
C12 C13 1_555 1_555
C13 O1 1_555 1_555
C18 C19 1_555 1_555
C20 N3 1_555 1_555
C21 N3 1_555 1_555
C25 C26 1_555 1_555
C27 N1 1_555 1_555
C29 N1 1_555 1_555
C31 N2 1_555 1_555
C33 N2 1_555 1_555

#END
