
#######################################################################
#
#                 Cambridge Crystallographic Data Centre
#                                CCDC 
#
#######################################################################
#
# If this CIF has been generated from an entry in the Cambridge 
# Structural Database, then it will include bibliographic, chemical, 
# crystal, experimental, refinement or atomic coordinate data resulting 
# from the CCDC's data processing and validation procedures.
#
#######################################################################

data_FOVVIW
_chemical_formula_moiety         'C7 H11 N1 O4 S1,C1 H4 O1'
_chemical_name_systematic        
'2-((2-Furylmethyl)ammonio)ethanesulfonate methanol solvate'
_symmetry_cell_setting           monoclinic
_symmetry_space_group_name_H-M   'P 21/c'
_symmetry_Int_Tables_number      14
_space_group_name_Hall           '-P 2ybc'
loop_
_symmetry_equiv_pos_site_id
_symmetry_equiv_pos_as_xyz
1 x,y,z
2 -x,1/2+y,1/2-z
3 -x,-y,-z
4 x,1/2-y,1/2+z
_cell_length_a                   10.729(10)
_cell_length_b                   9.174(8)
_cell_length_c                   11.270(10)
_cell_angle_alpha                90
_cell_angle_beta                 91.964(10)
_cell_angle_gamma                90
_cell_volume                     1108.63
_exptl_crystal_colour            colorless
_exptl_crystal_description       granular
_cell_formula_units_Z            4
loop_
_atom_site_label
_atom_site_type_symbol
_atom_site_fract_x
_atom_site_fract_y
_atom_site_fract_z
C1 C 0.15887(16) 0.40087(19) 1.03366(18)
C2 C 0.06631(19) 0.3384(3) 1.0916(3)
H1 H 0.0190 0.2592 1.0650
C3 C 0.0522(3) 0.4135(4) 1.2010(2)
H2 H -0.0047 0.3950 1.2595
C4 C 0.1395(4) 0.5157(4) 1.1997(2)
H3 H 0.1532 0.5825 1.2608
O1 O 0.2068(3) 0.5129(2) 1.0994(2)
C5 C 0.2106(2) 0.3793(3) 0.9149(2)
H4 H 0.1911 0.4519 0.8546
H5 H 0.1656 0.2896 0.8977
C6 C 0.3852(2) 0.2834(3) 0.80019(19)
H6 H 0.3740 0.3697 0.7512
H7 H 0.3372 0.2049 0.7635
C7 C 0.5215(2) 0.2421(3) 0.80631(19)
H8 H 0.5316 0.1509 0.8491
H9 H 0.5684 0.3165 0.8497
N1 N 0.33791(17) 0.3130(2) 0.92132(16)
H10 H 0.3355 0.2290 0.9624
H11 H 0.3908 0.3739 0.9604
O2 O 0.51984(16) 0.09645(19) 0.60803(14)
O3 O 0.71519(15) 0.2028(2) 0.67984(16)
O4 O 0.54838(17) 0.35667(19) 0.59804(16)
S1 S 0.58193(5) 0.22288(6) 0.66156(5)
C8 C 0.1847(3) 0.9586(4) 0.0474(3)
H12 H 0.2158 0.9121 0.1187
H13 H 0.1539 0.8861 -0.0075
H14 H 0.1184 1.0241 0.0660
O5 O 0.2791(2) 1.0353(2) -0.0028(3)
H15 H 0.3274 0.9783 -0.0334
C9? C 0.15442(16) 0.40368(19) 1.03098(18)
C10? C 0.1761(2) 0.4964(2) 1.11987(19)
C11? C 0.0903(3) 0.4705(4) 1.2108(2)
C12? C 0.0230(3) 0.3605(4) 1.1674(3)
H16? H 0.2380 0.5675 1.1222
H17? H 0.0832 0.5187 1.2828
H18? H -0.0418 0.3180 1.2078
O6? O 0.0572(2) 0.3157(3) 1.0589(3)
loop_
_geom_bond_atom_site_label_1
_geom_bond_atom_site_label_2
_geom_bond_site_symmetry_1
_geom_bond_site_symmetry_2
C1 C2 1_555 1_555
C2 H1 1_555 1_555
C3 C2 1_555 1_555
H2 C3 1_555 1_555
C4 C3 1_555 1_555
H3 C4 1_555 1_555
O1 C1 1_555 1_555
C5 C1 1_555 1_555
H4 C5 1_555 1_555
H5 C5 1_555 1_555
C6 H6 1_555 1_555
H7 C6 1_555 1_555
C7 C6 1_555 1_555
H8 C7 1_555 1_555
H9 C7 1_555 1_555
N1 C5 1_555 1_555
H10 N1 1_555 1_555
H11 N1 1_555 1_555
O2 S1 1_555 1_555
O3 S1 1_555 1_555
O4 S1 1_555 1_555
S1 C7 1_555 1_555
C8 H12 1_555 1_555
H13 C8 1_555 1_555
H14 C8 1_555 1_555
O5 C8 1_555 1_555
H15 O5 1_555 1_555
C4 O1 1_555 1_555
C6 N1 1_555 1_555

#END
