
#######################################################################
#
#                 Cambridge Crystallographic Data Centre
#                                CCDC 
#
#######################################################################
#
# If this CIF has been generated from an entry in the Cambridge 
# Structural Database, then it will include bibliographic, chemical, 
# crystal, experimental, refinement or atomic coordinate data resulting 
# from the CCDC's data processing and validation procedures.
#
#######################################################################

data_FOVXOE
_chemical_formula_moiety         'C22 H30 O4'
_chemical_name_systematic        
3,3'-Di-t-butyl-5,5'-dimethoxybiphenyl-2,2'-diol
_symmetry_cell_setting           tetragonal
_symmetry_space_group_name_H-M   'I 41/a'
_symmetry_Int_Tables_number      88
_space_group_name_Hall           '-I 4ad'
loop_
_symmetry_equiv_pos_site_id
_symmetry_equiv_pos_as_xyz
1 x,y,z
2 1/2-x,-y,1/2+z
3 3/4-y,1/4+x,1/4+z
4 3/4+y,3/4-x,3/4+z
5 1/2+x,1/2+y,1/2+z
6 -x,1/2-y,z
7 1/4-y,3/4+x,3/4+z
8 1/4+y,1/4-x,1/4+z
9 -x,-y,-z
10 1/2+x,y,1/2-z
11 1/4+y,3/4-x,3/4-z
12 1/4-y,1/4+x,1/4-z
13 1/2-x,1/2-y,1/2-z
14 x,1/2+y,-z
15 3/4+y,1/4-x,1/4-z
16 3/4-y,3/4+x,3/4-z
_cell_length_a                   13.4289(8)
_cell_length_b                   13.4289(8)
_cell_length_c                   23.127(3)
_cell_angle_alpha                90
_cell_angle_beta                 90
_cell_angle_gamma                90
_cell_volume                     4170.62
_exptl_crystal_colour            colorless
_exptl_crystal_description       block
_chemical_melting_point          '510-511 K'
_cell_formula_units_Z            8
loop_
_atom_site_label
_atom_site_type_symbol
_atom_site_fract_x
_atom_site_fract_y
_atom_site_fract_z
C1 C 0.11953(11) 0.79586(10) 0.02439(6)
C2 C 0.18758(11) 0.87570(10) 0.02195(6)
C3 C 0.16557(11) 0.95179(11) -0.01654(6)
H1 H 0.2085 1.0060 -0.0188
C4 C 0.08231(11) 0.95010(10) -0.05172(6)
C5 C 0.01714(11) 0.87114(10) -0.04926(6)
H2 H -0.0385 0.8696 -0.0732
C6 C 0.03503(10) 0.79350(10) -0.01059(6)
C7 C 0.28338(12) 0.87786(13) 0.05857(7)
C8 C 0.34307(17) 0.97382(18) 0.04844(11)
H3 H 0.3018 1.0305 0.0566
H4 H 0.3647 0.9764 0.0089
H5 H 0.4001 0.9746 0.0735
C9 C 0.34957(16) 0.78944(19) 0.04258(11)
H6 H 0.4062 0.7876 0.0679
H7 H 0.3718 0.7964 0.0033
H8 H 0.3123 0.7288 0.0465
C10 C 0.25901(15) 0.87337(17) 0.12326(8)
H9 H 0.2230 0.9322 0.1342
H10 H 0.3197 0.8695 0.1451
H11 H 0.2190 0.8157 0.1310
C11 C 0.00097(17) 1.02543(14) -0.13233(9)
H12 H 0.0167 0.9698 -0.1567
H13 H 0.0028 1.0856 -0.1547
H14 H -0.0644 1.0168 -0.1163
O1 O 0.07070(9) 1.03143(8) -0.08749(5)
O2 O 0.13978(10) 0.72001(8) 0.06230(6)
H15 H 0.0997 0.6747 0.0574
C1E C -0.11953(11) 0.70414(10) 0.02439(6)
C2E C -0.18758(11) 0.62430(10) 0.02195(6)
C3E C -0.16557(11) 0.54821(11) -0.01654(6)
H1E H -0.2085 0.4940 -0.0188
C4E C -0.08231(11) 0.54990(10) -0.05172(6)
C5E C -0.01714(11) 0.62886(10) -0.04926(6)
H2E H 0.0385 0.6304 -0.0732
C6E C -0.03503(10) 0.70650(10) -0.01059(6)
C7E C -0.28338(12) 0.62214(13) 0.05857(7)
C8E C -0.34307(17) 0.52618(18) 0.04844(11)
H3E H -0.3018 0.4695 0.0566
H4E H -0.3647 0.5236 0.0089
H5E H -0.4001 0.5254 0.0735
C9E C -0.34957(16) 0.71056(19) 0.04258(11)
H6E H -0.4062 0.7124 0.0679
H7E H -0.3718 0.7036 0.0033
H8E H -0.3123 0.7712 0.0465
C10E C -0.25901(15) 0.62663(17) 0.12326(8)
H9E H -0.2230 0.5678 0.1342
H10E H -0.3197 0.6305 0.1451
H11E H -0.2190 0.6843 0.1310
C11E C -0.00097(17) 0.47457(14) -0.13233(9)
H12E H -0.0167 0.5302 -0.1567
H13E H -0.0028 0.4144 -0.1547
H14E H 0.0644 0.4832 -0.1163
O1E O -0.07070(9) 0.46857(8) -0.08749(5)
O2E O -0.13978(10) 0.77999(8) 0.06230(6)
H15E H -0.0997 0.8253 0.0574
loop_
_geom_bond_atom_site_label_1
_geom_bond_atom_site_label_2
_geom_bond_site_symmetry_1
_geom_bond_site_symmetry_2
C1 C2 1_555 1_555
C2 C3 1_555 1_555
C3 H1 1_555 1_555
C4 C3 1_555 1_555
C5 C4 1_555 1_555
H2 C5 1_555 1_555
C6 C1 1_555 1_555
C7 C2 1_555 1_555
C8 C7 1_555 1_555
H3 C8 1_555 1_555
H4 C8 1_555 1_555
H5 C8 1_555 1_555
C9 C7 1_555 1_555
H6 C9 1_555 1_555
H7 C9 1_555 1_555
H8 C9 1_555 1_555
C10 C7 1_555 1_555
H9 C10 1_555 1_555
H10 C10 1_555 1_555
H11 C10 1_555 1_555
C11 H12 1_555 1_555
H13 C11 1_555 1_555
H14 C11 1_555 1_555
O1 C4 1_555 1_555
O2 C1 1_555 1_555
H15 O2 1_555 1_555
C1E C2E 1_555 1_555
C2E C3E 1_555 1_555
C3E H1E 1_555 1_555
C4E C3E 1_555 1_555
C5E C4E 1_555 1_555
H2E C5E 1_555 1_555
C6E C6 1_555 1_555
C7E C2E 1_555 1_555
C8E C7E 1_555 1_555
H3E C8E 1_555 1_555
H4E C8E 1_555 1_555
H5E C8E 1_555 1_555
C9E C7E 1_555 1_555
H6E C9E 1_555 1_555
H7E C9E 1_555 1_555
H8E C9E 1_555 1_555
C10E C7E 1_555 1_555
H9E C10E 1_555 1_555
H10E C10E 1_555 1_555
H11E C10E 1_555 1_555
C11E H12E 1_555 1_555
H13E C11E 1_555 1_555
H14E C11E 1_555 1_555
O1E C4E 1_555 1_555
O2E C1E 1_555 1_555
H15E O2E 1_555 1_555
C5 C6 1_555 1_555
C11 O1 1_555 1_555
C1E C6E 1_555 1_555
C5E C6E 1_555 1_555
C11E O1E 1_555 1_555

#END
