
#######################################################################
#
#                 Cambridge Crystallographic Data Centre
#                                CCDC 
#
#######################################################################
#
# If this CIF has been generated from an entry in the Cambridge 
# Structural Database, then it will include bibliographic, chemical, 
# crystal, experimental, refinement or atomic coordinate data resulting 
# from the CCDC's data processing and validation procedures.
#
#######################################################################

data_FOVXEV
_chemical_formula_moiety         'C28 H26 N4 O4'
_chemical_name_systematic        
'Ethyl (4-((4-(4-methylbenzylidene)-2,5-dioxo-1-phenyl-3-(prop-2-yn-1-yl)pyrrolidin-3-yl)methyl)-1H-1,2,3-triazol-1-yl)acetate'
_symmetry_cell_setting           monoclinic
_symmetry_space_group_name_H-M   'P 21/c'
_symmetry_Int_Tables_number      14
_space_group_name_Hall           '-P 2ybc'
loop_
_symmetry_equiv_pos_site_id
_symmetry_equiv_pos_as_xyz
1 x,y,z
2 -x,1/2+y,1/2-z
3 -x,-y,-z
4 x,1/2-y,1/2+z
_cell_length_a                   16.9230(18)
_cell_length_b                   10.5539(12)
_cell_length_c                   15.6931(16)
_cell_angle_alpha                90
_cell_angle_beta                 116.572(2)
_cell_angle_gamma                90
_cell_volume                     2506.79
_exptl_crystal_colour            colorless
_exptl_crystal_description       block
_cell_formula_units_Z            4
_chemical_properties_physical    Heat-sensitive
_exptl_crystal_recrystallization_method alcohol
loop_
_atom_site_label
_atom_site_type_symbol
_atom_site_fract_x
_atom_site_fract_y
_atom_site_fract_z
N1 N 0.26578(9) 0.69753(13) 0.33768(9)
C1 C 0.24940(10) 0.69744(15) 0.41645(11)
C2 C 0.35805(10) 1.11174(16) 0.48207(12)
C3 C 0.30982(10) 0.89561(15) 0.40544(11)
C4 C 0.11973(10) 0.90668(16) 0.38343(13)
C5 C 0.30203(11) 0.81116(16) 0.32678(11)
C6 C 0.25175(11) 0.59024(16) 0.27703(12)
C7 C 0.19937(11) 0.88571(18) 0.47588(12)
H1 H 0.1829 0.8326 0.5158
H2 H 0.2184 0.9667 0.5078
C8 C 0.27805(10) 0.82368(15) 0.46765(11)
C9 C 0.43166(11) 1.10514(17) 0.57016(12)
H3 H 0.4671 1.0332 0.5861
C10 C 0.40195(11) 1.31139(17) 0.61412(13)
C11 C 0.45295(12) 1.20344(18) 0.63427(13)
H4 H 0.5029 1.1969 0.6926
C12 C 0.35176(11) 0.79651(19) 0.56941(12)
H5 H 0.3676 0.8748 0.6057
H6 H 0.3296 0.7380 0.6013
C13 C 0.43021(12) 0.7425(2) 0.56716(13)
C14 C 0.30750(11) 1.22077(18) 0.46115(14)
H7 H 0.2583 1.2285 0.4023
C15 C 0.32899(12) 1.31805(18) 0.52624(14)
H8 H 0.2935 1.3900 0.5106
C16 C -0.07201(11) 0.8542(2) 0.16183(14)
H9 H -0.1190 0.9164 0.1434
H10 H -0.0947 0.7738 0.1711
C17 C -0.04452(12) 0.84114(18) 0.08366(15)
C18 C 0.16912(13) 0.56591(19) 0.20564(14)
H11 H 0.1216 0.6177 0.1968
C19 C 0.49081(15) 0.7020(2) 0.55898(17)
H12 H 0.5390 0.6698 0.5525
C20 C 0.22937(19) 0.3879(2) 0.16049(17)
H13 H 0.2217 0.3192 0.1204
C21 C 0.32278(15) 0.5152(2) 0.29043(16)
H14 H 0.3786 0.5333 0.3390
C22 C 0.15791(16) 0.4627(2) 0.14702(16)
H15 H 0.1022 0.4438 0.0986
C23 C -0.09111(15) 0.8792(3) -0.08122(17)
H16 H -0.0857 0.7935 -0.1005
H17 H -0.0367 0.9244 -0.0667
C24 C -0.16738(18) 0.9448(4) -0.1583(2)
H18 H -0.2211 0.9016 -0.1696
H19 H -0.1602 0.9447 -0.2156
H20 H -0.1701 1.0306 -0.1395
C25 C 0.31063(18) 0.4135(2) 0.23149(19)
H21 H 0.3583 0.3620 0.2403
O1 O 0.21736(9) 0.60981(12) 0.43960(9)
O2 O 0.32271(9) 0.83131(13) 0.26374(9)
O3 O -0.10858(9) 0.87711(15) 0.00125(11)
O4 O 0.02607(10) 0.80611(19) 0.09510(13)
N2 N 0.00154(9) 0.89327(14) 0.25056(12)
N3 N 0.02244(10) 1.01579(15) 0.26572(13)
N4 N 0.09462(10) 1.02394(14) 0.34736(12)
C26 C 0.05999(11) 0.82297(17) 0.32164(13)
H22 H 0.0600 0.7353 0.3278
C27 C 0.33971(10) 1.01241(16) 0.40930(12)
H23 H 0.3509 1.0354 0.3585
C28 C 0.42511(16) 1.4181(2) 0.68461(16)
H24 H 0.4359 1.3850 0.7458
H25 H 0.3770 1.4773 0.6636
H26 H 0.4772 1.4603 0.6894
loop_
_geom_bond_atom_site_label_1
_geom_bond_atom_site_label_2
_geom_bond_site_symmetry_1
_geom_bond_site_symmetry_2
N1 C1 1_555 1_555
C1 C8 1_555 1_555
C2 C9 1_555 1_555
C3 C5 1_555 1_555
C4 C7 1_555 1_555
C5 N1 1_555 1_555
C6 N1 1_555 1_555
C7 H1 1_555 1_555
H2 C7 1_555 1_555
C8 C3 1_555 1_555
C9 H3 1_555 1_555
C10 C11 1_555 1_555
C11 C9 1_555 1_555
H4 C11 1_555 1_555
C12 C8 1_555 1_555
H5 C12 1_555 1_555
H6 C12 1_555 1_555
C13 C12 1_555 1_555
C14 C2 1_555 1_555
H7 C14 1_555 1_555
C15 C10 1_555 1_555
H8 C15 1_555 1_555
C16 H9 1_555 1_555
H10 C16 1_555 1_555
C17 C16 1_555 1_555
C18 C6 1_555 1_555
H11 C18 1_555 1_555
C19 C13 1_555 1_555
H12 C19 1_555 1_555
C20 H13 1_555 1_555
C21 C6 1_555 1_555
H14 C21 1_555 1_555
C22 C18 1_555 1_555
H15 C22 1_555 1_555
C23 H16 1_555 1_555
H17 C23 1_555 1_555
C24 C23 1_555 1_555
H18 C24 1_555 1_555
H19 C24 1_555 1_555
H20 C24 1_555 1_555
C25 C20 1_555 1_555
H21 C25 1_555 1_555
O1 C1 1_555 1_555
O2 C5 1_555 1_555
O3 C17 1_555 1_555
O4 C17 1_555 1_555
N2 C16 1_555 1_555
N3 N2 1_555 1_555
N4 C4 1_555 1_555
C26 C4 1_555 1_555
H22 C26 1_555 1_555
C27 C2 1_555 1_555
H23 C27 1_555 1_555
C28 C10 1_555 1_555
H24 C28 1_555 1_555
H25 C28 1_555 1_555
H26 C28 1_555 1_555
C3 C27 1_555 1_555
C7 C8 1_555 1_555
C14 C15 1_555 1_555
C20 C22 1_555 1_555
C21 C25 1_555 1_555
C23 O3 1_555 1_555
N2 C26 1_555 1_555
N3 N4 1_555 1_555

#END
