
#######################################################################
#
#                 Cambridge Crystallographic Data Centre
#                                CCDC 
#
#######################################################################
#
# If this CIF has been generated from an entry in the Cambridge 
# Structural Database, then it will include bibliographic, chemical, 
# crystal, experimental, refinement or atomic coordinate data resulting 
# from the CCDC's data processing and validation procedures.
#
#######################################################################

data_FOVZEW
_chemical_name_common            'Maleopimaric acid acetic acid solvate'
_chemical_formula_moiety         'C24 H32 O5,C2 H4 O2'
_chemical_name_systematic        
'19-Isopropyl-5,9-dimethyl-14,16-dioxo-15-oxapentacyclo[10.5.2.0^1,10^.0^4,9^.0^13,17^]nonadec-18-ene-5-carboxylic acid acetic acid solvate'
_symmetry_cell_setting           orthorhombic
_symmetry_space_group_name_H-M   'P 21 21 21'
_symmetry_Int_Tables_number      19
_space_group_name_Hall           'P 2ac 2ab'
loop_
_symmetry_equiv_pos_site_id
_symmetry_equiv_pos_as_xyz
1 x,y,z
2 1/2-x,-y,1/2+z
3 -x,1/2+y,1/2-z
4 1/2+x,1/2-y,-z
_cell_length_a                   7.9469(10)
_cell_length_b                   12.7755(16)
_cell_length_c                   24.884(3)
_cell_angle_alpha                90
_cell_angle_beta                 90
_cell_angle_gamma                90
_cell_volume                     2526.36
_exptl_crystal_colour            colorless
_exptl_crystal_description       block
_chemical_melting_point          '498 K'
_cell_formula_units_Z            4
_exptl_crystal_recrystallization_method ethanol
loop_
_atom_site_label
_atom_site_type_symbol
_atom_site_fract_x
_atom_site_fract_y
_atom_site_fract_z
C1 C 0.5002(4) -0.1408(3) 0.21013(13)
C2 C 0.5980(4) -0.0411(2) 0.20070(12)
H1 H 0.6794 -0.0301 0.2297
C3 C 0.6887(4) -0.0420(2) 0.14559(13)
H2 H 0.7696 -0.0998 0.1434
C4 C 0.7802(4) 0.0670(2) 0.14272(13)
H3 H 0.8616 0.0723 0.1716
H4 H 0.8400 0.0730 0.1089
C5 C 0.6514(4) 0.1559(2) 0.14754(14)
H5 H 0.6683 0.1867 0.1832
C6 C 0.4713(4) 0.1086(2) 0.14794(13)
C7 C 0.4657(4) 0.0448(2) 0.20125(12)
H6 H 0.4851 0.0916 0.2318
C8 C 0.3020(4) -0.0147(3) 0.20917(13)
C9 C 0.4523(4) 0.0321(3) 0.10233(12)
H7 H 0.3687 0.0390 0.0764
C10 C 0.5648(4) -0.0472(3) 0.10145(12)
C11 C 0.5732(5) -0.1285(3) 0.05890(15)
H8 H 0.6773 -0.1203 0.0383
C12 C 0.4230(5) -0.1334(3) 0.02054(15)
H9 H 0.3219 -0.1455 0.0407
H10 H 0.4391 -0.1895 -0.0046
H11 H 0.4137 -0.0683 0.0015
C13 C 0.5604(5) -0.2392(3) 0.07953(13)
H12 H 0.6437 -0.2503 0.1069
H13 H 0.5788 -0.2873 0.0505
H14 H 0.4504 -0.2505 0.0944
C14 C 0.3351(4) 0.1953(2) 0.14874(13)
H15 H 0.2267 0.1642 0.1406
H16 H 0.3287 0.2247 0.1846
C15 C 0.3695(4) 0.2827(2) 0.10897(13)
H17 H 0.3630 0.2555 0.0726
H18 H 0.2849 0.3369 0.1128
C16 C 0.5419(4) 0.3288(2) 0.11854(13)
H19 H 0.5485 0.3405 0.1574
C17 C 0.5691(4) 0.4405(3) 0.09213(12)
C18 C 0.7484(4) 0.4797(3) 0.10755(14)
H20 H 0.7707 0.5453 0.0893
H21 H 0.7528 0.4925 0.1459
C19 C 0.8818(4) 0.4017(3) 0.09266(15)
H22 H 0.9912 0.4293 0.1026
H23 H 0.8809 0.3914 0.0540
C20 C 0.8550(4) 0.2952(3) 0.12078(14)
H24 H 0.8616 0.3047 0.1594
H25 H 0.9437 0.2474 0.1102
C21 C 0.6810(4) 0.2471(2) 0.10598(12)
C22 C 0.6830(4) 0.2061(3) 0.04687(12)
H26 H 0.5701 0.1906 0.0357
H27 H 0.7501 0.1437 0.0449
H28 H 0.7300 0.2587 0.0238
C23 C 0.5378(5) 0.4443(3) 0.03186(12)
H29 H 0.4192 0.4508 0.0252
H30 H 0.5789 0.3812 0.0156
H31 H 0.5955 0.5034 0.0168
C24 C 0.4419(4) 0.5116(3) 0.11930(13)
O1 O 0.5518(3) -0.22935(16) 0.21417(9)
O2 O 0.3332(3) -0.12062(18) 0.21447(10)
O3 O 0.1594(3) 0.01506(17) 0.21128(9)
O4 O 0.4493(3) 0.51827(17) 0.17031(8)
H35 H 0.3728 0.5602 0.1887
O5 O 0.3379(3) 0.55953(19) 0.09249(8)
C25 C 0.1024(4) 0.6778(3) 0.18987(14)
C26 C -0.0272(4) 0.7410(3) 0.21888(13)
H32 H -0.0330 0.7187 0.2557
H33 H -0.1348 0.7313 0.2021
H34 H 0.0031 0.8137 0.2175
O6 O 0.2043(3) 0.62457(17) 0.21453(9)
O7 O 0.1034(3) 0.68154(18) 0.13804(9)
H36 H 0.1831 0.6430 0.1191
loop_
_geom_bond_atom_site_label_1
_geom_bond_atom_site_label_2
_geom_bond_site_symmetry_1
_geom_bond_site_symmetry_2
C1 C2 1_555 1_555
C2 H1 1_555 1_555
C3 C2 1_555 1_555
H2 C3 1_555 1_555
C4 C3 1_555 1_555
H3 C4 1_555 1_555
H4 C4 1_555 1_555
C5 C4 1_555 1_555
H5 C5 1_555 1_555
C6 C5 1_555 1_555
C7 C2 1_555 1_555
H6 C7 1_555 1_555
C8 C7 1_555 1_555
C9 C6 1_555 1_555
H7 C9 1_555 1_555
C10 C3 1_555 1_555
C11 C10 1_555 1_555
H8 C11 1_555 1_555
C12 C11 1_555 1_555
H9 C12 1_555 1_555
H10 C12 1_555 1_555
H11 C12 1_555 1_555
C13 C11 1_555 1_555
H12 C13 1_555 1_555
H13 C13 1_555 1_555
H14 C13 1_555 1_555
C14 C6 1_555 1_555
H15 C14 1_555 1_555
H16 C14 1_555 1_555
C15 C14 1_555 1_555
H17 C15 1_555 1_555
H18 C15 1_555 1_555
C16 C15 1_555 1_555
H19 C16 1_555 1_555
C17 C16 1_555 1_555
C18 C17 1_555 1_555
H20 C18 1_555 1_555
H21 C18 1_555 1_555
C19 C18 1_555 1_555
H22 C19 1_555 1_555
H23 C19 1_555 1_555
C20 C19 1_555 1_555
H24 C20 1_555 1_555
H25 C20 1_555 1_555
C21 C5 1_555 1_555
C22 C21 1_555 1_555
H26 C22 1_555 1_555
H27 C22 1_555 1_555
H28 C22 1_555 1_555
C23 C17 1_555 1_555
H29 C23 1_555 1_555
H30 C23 1_555 1_555
H31 C23 1_555 1_555
C24 C17 1_555 1_555
C25 C26 1_555 1_555
C26 H32 1_555 1_555
H33 C26 1_555 1_555
H34 C26 1_555 1_555
O1 C1 1_555 1_555
O2 C1 1_555 1_555
O3 C8 1_555 1_555
O4 C24 1_555 1_555
H35 O4 1_555 1_555
O5 C24 1_555 1_555
O6 C25 1_555 1_555
O7 C25 1_555 1_555
H36 O7 1_555 1_555
C6 C7 1_555 1_555
C8 O2 1_555 1_555
C9 C10 1_555 1_555
C16 C21 1_555 1_555
C20 C21 1_555 1_555

#END
