
#######################################################################
#
#                 Cambridge Crystallographic Data Centre
#                                CCDC 
#
#######################################################################
#
# If this CIF has been generated from an entry in the Cambridge 
# Structural Database, then it will include bibliographic, chemical, 
# crystal, experimental, refinement or atomic coordinate data resulting 
# from the CCDC's data processing and validation procedures.
#
#######################################################################

data_FOVZIA
_chemical_formula_moiety         'C8 H7 N1 O5'
_chemical_name_systematic        'Methyl 2-hydroxy-3-nitrobenzoate'
_symmetry_cell_setting           monoclinic
_symmetry_space_group_name_H-M   'P 21/c'
_symmetry_Int_Tables_number      14
_space_group_name_Hall           '-P 2ybc'
loop_
_symmetry_equiv_pos_site_id
_symmetry_equiv_pos_as_xyz
1 x,y,z
2 -x,1/2+y,1/2-z
3 -x,-y,-z
4 x,1/2-y,1/2+z
_cell_length_a                   7.6120(10)
_cell_length_b                   11.716(2)
_cell_length_c                   9.656(2)
_cell_angle_alpha                90
_cell_angle_beta                 101.830(10)
_cell_angle_gamma                90
_cell_volume                     842.853
_exptl_crystal_colour            yellow
_exptl_crystal_description       block
_cell_formula_units_Z            4
_exptl_crystal_recrystallization_method 'ethyl acetate'
loop_
_atom_site_label
_atom_site_type_symbol
_atom_site_fract_x
_atom_site_fract_y
_atom_site_fract_z
C1 C 0.6545(3) 0.9162(2) -0.0890(2)
C2 C 0.6080(3) 0.8030(2) -0.1125(3)
H1 H 0.5248 0.7822 -0.1931
C3 C 0.6836(4) 0.7212(2) -0.0176(3)
H2 H 0.6523 0.6448 -0.0337
C4 C 0.8059(3) 0.7525(2) 0.1011(3)
H3 H 0.8577 0.6966 0.1649
C5 C 0.8541(3) 0.8654(2) 0.1281(2)
C6 C 0.7769(3) 0.9507(2) 0.0320(2)
C7 C 0.9867(3) 0.8997(2) 0.2543(3)
C8 C 1.1859(4) 0.8424(2) 0.4632(3)
H4 H 1.2856 0.8819 0.4384
H5 H 1.2277 0.7740 0.5140
H6 H 1.1297 0.8907 0.5217
N1 N 0.5694(4) 0.9981(2) -0.1954(3)
O1 O 0.6026(3) 1.09798(19) -0.1803(2)
O2 O 0.4677(4) 0.96270(19) -0.2983(2)
O3 O 0.8187(3) 1.06068(13) 0.05425(19)
H7 H 0.9073 1.0676 0.1402
O4 O 1.0286(3) 0.99828(15) 0.2831(2)
O5 O 1.0566(2) 0.81316(14) 0.33514(18)
loop_
_geom_bond_atom_site_label_1
_geom_bond_atom_site_label_2
_geom_bond_site_symmetry_1
_geom_bond_site_symmetry_2
C1 C2 1_555 1_555
C2 H1 1_555 1_555
C3 C2 1_555 1_555
H2 C3 1_555 1_555
C4 C3 1_555 1_555
H3 C4 1_555 1_555
C5 C4 1_555 1_555
C6 C1 1_555 1_555
C7 C5 1_555 1_555
C8 H4 1_555 1_555
H5 C8 1_555 1_555
H6 C8 1_555 1_555
N1 C1 1_555 1_555
O1 N1 1_555 1_555
O2 N1 1_555 1_555
O3 C6 1_555 1_555
H7 O3 1_555 1_555
O4 C7 1_555 1_555
O5 C7 1_555 1_555
C5 C6 1_555 1_555
C8 O5 1_555 1_555

#END
