
#######################################################################
#
#                 Cambridge Crystallographic Data Centre
#                                CCDC 
#
#######################################################################
#
# If this CIF has been generated from an entry in the Cambridge 
# Structural Database, then it will include bibliographic, chemical, 
# crystal, experimental, refinement or atomic coordinate data resulting 
# from the CCDC's data processing and validation procedures.
#
#######################################################################

data_FOWLAE
_chemical_formula_moiety         
'C6 H11 N1 O2 S1,C6 H12 N1 O2 S1 1+,Cl1 1-,H2 O1'
_chemical_name_systematic        
'bis((S)-5,5-Dimethylthiazolidine-4-carboxylic acid) protium chloride monohydrate'
_symmetry_cell_setting           orthorhombic
_symmetry_space_group_name_H-M   'P 21 21 21'
_symmetry_Int_Tables_number      19
_space_group_name_Hall           'P 2ac 2ab'
loop_
_symmetry_equiv_pos_site_id
_symmetry_equiv_pos_as_xyz
1 x,y,z
2 1/2+x,1/2-y,-z
3 -x,1/2+y,1/2-z
4 1/2-x,-y,1/2+z
_cell_length_a                   6.463(2)
_cell_length_b                   11.832(3)
_cell_length_c                   23.966(6)
_cell_angle_alpha                90
_cell_angle_beta                 90
_cell_angle_gamma                90
_cell_volume                     1832.69
_exptl_crystal_colour            colorless
_chemical_melting_point          181-182deg.C(dec.)
_cell_formula_units_Z            4
loop_
_atom_site_label
_atom_site_type_symbol
_atom_site_fract_x
_atom_site_fract_y
_atom_site_fract_z
S1 S 0.0722(2) 0.2193(1) 0.9055(1)
C1 C 0.1499(9) 0.2554(4) 0.8363(2)
N1 N 0.2812(6) 0.1587(4) 0.8149(2)
C2 C 0.3161(7) 0.0697(4) 0.8584(2)
C3 C 0.2962(7) 0.1273(4) 0.9156(2)
C4 C 0.5246(7) 0.0116(4) 0.8473(2)
O1 O 0.6402(5) 0.0499(3) 0.8116(1)
O2 O 0.5527(5) -0.0745(3) 0.8781(2)
C5 C 0.2375(11) 0.0414(5) 0.9611(2)
C6 C 0.4909(10) 0.1967(6) 0.9300(3)
H1 H 0.245 0.328 0.836
H2 H 0.032 0.268 0.813
H3 H 0.225 0.123 0.780
H4 H 0.415 0.197 0.800
H5 H 0.206 0.001 0.861
H6 H 0.129 0.096 0.958
H7 H 0.221 0.087 1.002
H8 H 0.359 -0.008 0.958
H9 H 0.510 0.249 0.901
H10 H 0.494 0.184 0.969
H11 H 0.586 0.138 0.936
S2 S 1.3879(2) -0.4587(1) 0.8895(1)
C7 C 1.4358(7) -0.4018(4) 0.8204(2)
N2 N 1.2464(6) -0.3404(3) 0.8059(2)
C8 C 1.1694(7) -0.2796(4) 0.8550(2)
C9 C 1.1646(7) -0.3658(4) 0.9045(2)
C10 C 0.9602(7) -0.2252(4) 0.8428(2)
O3 O 0.8684(5) -0.2511(3) 0.8001(1)
O4 O 0.9011(6) -0.1561(3) 0.8801(2)
C11 C 1.1900(11) -0.3067(6) 0.9612(3)
C12 C 0.9680(8) -0.4388(5) 0.9033(2)
H12 H 1.520 -0.357 0.841
H13 H 1.498 -0.458 0.780
H14 H 1.130 -0.396 0.788
H15 H 1.236 -0.302 0.786
H16 H 1.260 -0.229 0.864
H17 H 1.261 -0.349 0.958
H18 H 1.309 -0.248 0.951
H19 H 1.059 -0.259 0.968
H20 H 0.851 -0.382 0.914
H21 H 0.959 -0.470 0.865
H22 H 0.964 -0.504 0.931
H23 H 0.721 -0.138 0.882
Cl1 Cl 0.6472(2) 0.3397(1) 0.7812(1)
O5 O -0.0059(6) 0.5096(3) 0.7450(1)
H24 H -0.041 0.462 0.771
H25 H 0.093 0.477 0.725
loop_
_geom_bond_atom_site_label_1
_geom_bond_atom_site_label_2
_geom_bond_site_symmetry_1
_geom_bond_site_symmetry_2
S1 C1 1_555 1_555
C1 N1 1_555 1_555
N1 C2 1_555 1_555
C2 C3 1_555 1_555
C3 S1 1_555 1_555
C4 C2 1_555 1_555
O1 C4 1_555 1_555
O2 C4 1_555 1_555
C5 C3 1_555 1_555
C6 C3 1_555 1_555
H1 C1 1_555 1_555
H2 C1 1_555 1_555
H3 N1 1_555 1_555
H4 N1 1_555 1_555
H5 C2 1_555 1_555
H6 C5 1_555 1_555
H7 C5 1_555 1_555
H8 C5 1_555 1_555
H9 C6 1_555 1_555
H10 C6 1_555 1_555
H11 C6 1_555 1_555
S2 C7 1_555 1_555
C7 N2 1_555 1_555
N2 C8 1_555 1_555
C8 C9 1_555 1_555
C9 S2 1_555 1_555
C10 C8 1_555 1_555
O3 C10 1_555 1_555
O4 C10 1_555 1_555
C11 C9 1_555 1_555
C12 C9 1_555 1_555
H12 C7 1_555 1_555
H13 C7 1_555 1_555
H14 N2 1_555 1_555
H15 N2 1_555 1_555
H16 C8 1_555 1_555
H17 C11 1_555 1_555
H18 C11 1_555 1_555
H19 C11 1_555 1_555
H20 C12 1_555 1_555
H21 C12 1_555 1_555
H22 C12 1_555 1_555
H23 O4 1_555 1_555
O5 H24 1_555 1_555
H25 O5 1_555 1_555

#END
