
#######################################################################
#
#                 Cambridge Crystallographic Data Centre
#                                CCDC 
#
#######################################################################
#
# If this CIF has been generated from an entry in the Cambridge 
# Structural Database, then it will include bibliographic, chemical, 
# crystal, experimental, refinement or atomic coordinate data resulting 
# from the CCDC's data processing and validation procedures.
#
#######################################################################

data_FOWMEK
_chemical_name_common            
1,4-bis((bis(2-Chloroethyl)amino)methyl)-2,3,5,6-tetramethylbenzene
_chemical_formula_moiety         'C20 H32 Cl4 N2'
_chemical_name_systematic        
N,N'-((2,3,5,6-Tetramethyl-p-phenylene)dimethylene)bis(2-chloro-N-(2-chloroethyl)ethanamine)
_symmetry_cell_setting           monoclinic
_symmetry_space_group_name_H-M   'P 21/c'
_symmetry_Int_Tables_number      14
_space_group_name_Hall           '-P 2ybc'
loop_
_symmetry_equiv_pos_site_id
_symmetry_equiv_pos_as_xyz
1 x,y,z
2 -x,1/2+y,1/2-z
3 -x,-y,-z
4 x,1/2-y,1/2+z
_cell_length_a                   13.6694(14)
_cell_length_b                   9.751(1)
_cell_length_c                   8.3997(8)
_cell_angle_alpha                90
_cell_angle_beta                 93.695(2)
_cell_angle_gamma                90
_cell_volume                     1117.27
_exptl_crystal_colour            white
_exptl_crystal_description       block
_cell_formula_units_Z            2
_exptl_crystal_recrystallization_method chloroform
loop_
_atom_site_label
_atom_site_type_symbol
_atom_site_fract_x
_atom_site_fract_y
_atom_site_fract_z
C1 C 0.12764(15) 0.2248(2) 0.6112(3)
H1 H 0.1026 0.2650 0.7046
H2 H 0.1296 0.2930 0.5290
H3 H 0.1926 0.1906 0.6366
C2 C 0.06149(12) 0.10771(19) 0.5531(2)
C3 C -0.03006(12) 0.13651(18) 0.4753(2)
C4 C -0.06146(16) 0.2853(2) 0.4533(3)
H4 H -0.0419 0.3364 0.5477
H5 H -0.1314 0.2897 0.4345
H6 H -0.0309 0.3237 0.3637
C5 C 0.09103(12) -0.02818(19) 0.57881(19)
C6 C 0.18937(12) -0.0575(2) 0.6671(2)
H7 H 0.1939 -0.0056 0.7658
H8 H 0.1927 -0.1541 0.6944
C7 C 0.27229(13) -0.08753(18) 0.4172(2)
H9 H 0.2054 -0.1096 0.3803
H10 H 0.3099 -0.1720 0.4238
C8 C 0.31611(16) 0.0100(2) 0.3029(2)
H11 H 0.3821 0.0342 0.3425
H12 H 0.2774 0.0934 0.2952
C9 C 0.36606(12) -0.04271(19) 0.6687(2)
H13 H 0.4158 -0.0715 0.5986
H14 H 0.3577 -0.1159 0.7448
C10 C 0.40134(13) 0.0836(2) 0.7575(2)
H15 H 0.4551 0.0592 0.8332
H16 H 0.3487 0.1199 0.8171
N1 N 0.27367(9) -0.02246(15) 0.57401(16)
Cl1 Cl 0.31962(4) -0.06609(6) 0.10972(6)
Cl2 Cl 0.44162(4) 0.21356(5) 0.62479(7)
C1B C -0.12764(15) -0.2248(2) 0.3888(3)
H1B H -0.1026 -0.2650 0.2954
H2B H -0.1296 -0.2930 0.4710
H3B H -0.1926 -0.1906 0.3634
C2B C -0.06149(12) -0.10771(19) 0.4469(2)
C3B C 0.03006(12) -0.13651(18) 0.5247(2)
C4B C 0.06146(16) -0.2853(2) 0.5467(3)
H4B H 0.0419 -0.3364 0.4523
H5B H 0.1314 -0.2897 0.5655
H6B H 0.0309 -0.3237 0.6363
C5B C -0.09103(12) 0.02818(19) 0.42119(19)
C6B C -0.18937(12) 0.0575(2) 0.3329(2)
H7B H -0.1939 0.0056 0.2342
H8B H -0.1927 0.1541 0.3056
C7B C -0.27229(13) 0.08753(18) 0.5828(2)
H9B H -0.2054 0.1096 0.6197
H10B H -0.3099 0.1720 0.5762
C8B C -0.31611(16) -0.0100(2) 0.6971(2)
H11B H -0.3821 -0.0342 0.6575
H12B H -0.2774 -0.0934 0.7048
C9B C -0.36606(12) 0.04271(19) 0.3313(2)
H13B H -0.4158 0.0715 0.4014
H14B H -0.3577 0.1159 0.2552
C10B C -0.40134(13) -0.0836(2) 0.2425(2)
H15B H -0.4551 -0.0592 0.1668
H16B H -0.3487 -0.1199 0.1829
N1B N -0.27367(9) 0.02246(15) 0.42599(16)
Cl1B Cl -0.31962(4) 0.06609(6) 0.89028(6)
Cl2B Cl -0.44162(4) -0.21356(5) 0.37521(7)
loop_
_geom_bond_atom_site_label_1
_geom_bond_atom_site_label_2
_geom_bond_site_symmetry_1
_geom_bond_site_symmetry_2
C1 H1 1_555 1_555
H2 C1 1_555 1_555
H3 C1 1_555 1_555
C2 C1 1_555 1_555
C3 C2 1_555 1_555
C4 C3 1_555 1_555
H4 C4 1_555 1_555
H5 C4 1_555 1_555
H6 C4 1_555 1_555
C5 C2 1_555 1_555
C6 C5 1_555 1_555
H7 C6 1_555 1_555
H8 C6 1_555 1_555
C7 H9 1_555 1_555
H10 C7 1_555 1_555
C8 C7 1_555 1_555
H11 C8 1_555 1_555
H12 C8 1_555 1_555
C9 H13 1_555 1_555
H14 C9 1_555 1_555
C10 C9 1_555 1_555
H15 C10 1_555 1_555
H16 C10 1_555 1_555
N1 C6 1_555 1_555
Cl1 C8 1_555 1_555
Cl2 C10 1_555 1_555
C1B H1B 1_555 1_555
H2B C1B 1_555 1_555
H3B C1B 1_555 1_555
C2B C1B 1_555 1_555
C3B C5 1_555 1_555
C4B C3B 1_555 1_555
H4B C4B 1_555 1_555
H5B C4B 1_555 1_555
H6B C4B 1_555 1_555
C5B C3 1_555 1_555
C6B C5B 1_555 1_555
H7B C6B 1_555 1_555
H8B C6B 1_555 1_555
C7B H9B 1_555 1_555
H10B C7B 1_555 1_555
C8B C7B 1_555 1_555
H11B C8B 1_555 1_555
H12B C8B 1_555 1_555
C9B H13B 1_555 1_555
H14B C9B 1_555 1_555
C10B C9B 1_555 1_555
H15B C10B 1_555 1_555
H16B C10B 1_555 1_555
N1B C6B 1_555 1_555
Cl1B C8B 1_555 1_555
Cl2B C10B 1_555 1_555
C7 N1 1_555 1_555
C9 N1 1_555 1_555
C2B C3B 1_555 1_555
C2B C5B 1_555 1_555
C7B N1B 1_555 1_555
C9B N1B 1_555 1_555

#END
