
#######################################################################
#
#                 Cambridge Crystallographic Data Centre
#                                CCDC 
#
#######################################################################
#
# If this CIF has been generated from an entry in the Cambridge 
# Structural Database, then it will include bibliographic, chemical, 
# crystal, experimental, refinement or atomic coordinate data resulting 
# from the CCDC's data processing and validation procedures.
#
#######################################################################

data_FOWPOX
_chemical_name_common            
'Benzyl 2,2,6a,6b,9,9,13a-heptamethyl-1,3,4,5,6,6a,6b,7,8,8a,9,13,13a,13b,14,15b-hexadecahydropiceno[2,3-c][1,2,5]oxadiazole-4a(2H)-carboxylate'
_chemical_formula_moiety         'C37 H50 N2 O3'
_chemical_name_systematic        
"Benzyl 3-dehydroxy-1,2,5-oxadiazolo[3',4':2,3]oleanolate"
_chemical_properties_biological  'Inhibits growth of HepG-2 tumour cells'
_symmetry_cell_setting           orthorhombic
_symmetry_space_group_name_H-M   'P 21 21 21'
_symmetry_Int_Tables_number      19
_space_group_name_Hall           'P 2ac 2ab'
loop_
_symmetry_equiv_pos_site_id
_symmetry_equiv_pos_as_xyz
1 x,y,z
2 1/2-x,-y,1/2+z
3 -x,1/2+y,1/2-z
4 1/2+x,1/2-y,-z
_cell_length_a                   8.7124(19)
_cell_length_b                   19.054(3)
_cell_length_c                   19.480(3)
_cell_angle_alpha                90
_cell_angle_beta                 90
_cell_angle_gamma                90
_cell_volume                     3233.8
_exptl_crystal_colour            colorless
_exptl_crystal_description       prism
_cell_formula_units_Z            4
_exptl_crystal_recrystallization_method acetone/chloroform
loop_
_atom_site_label
_atom_site_type_symbol
_atom_site_fract_x
_atom_site_fract_y
_atom_site_fract_z
O1 O 1.1911(2) 0.29241(10) 0.64263(10)
O2 O 0.4830(2) 0.57882(10) 0.26204(9)
O3 O 0.2427(2) 0.55498(10) 0.29343(10)
N1 N 1.0434(3) 0.26443(11) 0.64843(12)
N2 N 1.1866(3) 0.35735(12) 0.60900(12)
C1 C 0.9740(3) 0.42957(13) 0.55969(15)
H1 H 1.0469 0.4475 0.5264
H2 H 0.9514 0.4667 0.5922
C2 C 1.0416(3) 0.36797(13) 0.59652(13)
C3 C 0.9526(3) 0.31095(13) 0.62036(14)
C4 C 0.7825(3) 0.30445(13) 0.61483(14)
C5 C 0.7189(3) 0.37107(12) 0.57597(13)
H3 H 0.7044 0.4064 0.6119
C6 C 0.5586(3) 0.35847(13) 0.54702(15)
H4 H 0.4963 0.3344 0.5809
H5 H 0.5654 0.3289 0.5066
C7 C 0.4830(3) 0.42843(13) 0.52804(14)
H6 H 0.4705 0.4562 0.5694
H7 H 0.3815 0.4191 0.5097
C8 C 0.5739(3) 0.47144(12) 0.47542(13)
C9 C 0.7459(3) 0.47566(12) 0.49632(13)
H8 H 0.7481 0.5077 0.5357
C10 C 0.8244(3) 0.40676(12) 0.52265(14)
C11 C 0.8355(3) 0.51355(12) 0.44024(14)
H9 H 0.9320 0.5299 0.4593
H10 H 0.8593 0.4804 0.4040
C12 C 0.7521(3) 0.57467(13) 0.40973(13)
H11 H 0.8076 0.6033 0.3801
C13 C 0.6062(3) 0.59207(12) 0.42089(13)
C14 C 0.5073(3) 0.54920(12) 0.47100(13)
C15 C 0.3371(3) 0.54676(13) 0.44892(15)
H12 H 0.3245 0.5099 0.4150
H13 H 0.2752 0.5344 0.4885
C16 C 0.2764(3) 0.61563(12) 0.41882(13)
H14 H 0.1717 0.6086 0.4034
H15 H 0.2749 0.6510 0.4546
C17 C 0.3727(3) 0.64233(13) 0.35880(14)
C18 C 0.5388(3) 0.65564(12) 0.38321(13)
H16 H 0.6014 0.6630 0.3420
C19 C 0.5519(3) 0.72292(12) 0.42714(13)
H17 H 0.5003 0.7151 0.4706
H18 H 0.6594 0.7316 0.4369
C20 C 0.4830(4) 0.78871(12) 0.39294(14)
C21 C 0.3161(3) 0.77305(13) 0.37401(14)
H19 H 0.2578 0.7648 0.4156
H20 H 0.2724 0.8137 0.3512
C22 C 0.3016(3) 0.70920(13) 0.32701(14)
H21 H 0.3523 0.7192 0.2837
H22 H 0.1939 0.7007 0.3175
C23 C 0.7150(4) 0.30364(15) 0.68788(14)
H23 H 0.7526 0.2633 0.7122
H24 H 0.6050 0.3015 0.6853
H25 H 0.7451 0.3455 0.7117
C24 C 0.7422(4) 0.23391(13) 0.57912(16)
H26 H 0.7836 0.2337 0.5334
H27 H 0.6327 0.2287 0.5770
H28 H 0.7853 0.1957 0.6048
C25 C 0.8705(3) 0.35522(13) 0.46425(14)
H29 H 0.7800 0.3394 0.4408
H30 H 0.9233 0.3156 0.4835
H31 H 0.9368 0.3788 0.4323
C26 C 0.5545(3) 0.43558(13) 0.40356(13)
H32 H 0.4478 0.4259 0.3956
H33 H 0.6115 0.3925 0.4027
H34 H 0.5922 0.4664 0.3684
C27 C 0.5144(3) 0.58773(12) 0.54287(12)
H35 H 0.4732 0.6342 0.5384
H36 H 0.6191 0.5904 0.5580
H37 H 0.4551 0.5619 0.5758
C28 C 0.4855(4) 0.85000(13) 0.44522(15)
H38 H 0.5897 0.8606 0.4573
H39 H 0.4296 0.8367 0.4857
H40 H 0.4386 0.8907 0.4251
C29 C 0.5774(4) 0.81142(14) 0.33019(15)
H41 H 0.5788 0.7741 0.2971
H42 H 0.6805 0.8219 0.3442
H43 H 0.5319 0.8525 0.3101
C30 C 0.3771(3) 0.58947(14) 0.30003(14)
C31 C 0.2337(4) 0.50425(15) 0.23783(15)
H44 H 0.3175 0.4709 0.2410
H45 H 0.2399 0.5278 0.1938
C32 C 0.0835(3) 0.46753(14) 0.24481(14)
C33 C 0.0760(4) 0.39893(15) 0.26336(16)
H46 H 0.1668 0.3744 0.2708
C34 C -0.0612(4) 0.36458(17) 0.27150(17)
H47 H -0.0634 0.3174 0.2837
C35 C -0.1919(4) 0.40016(18) 0.26151(17)
H48 H -0.2849 0.3771 0.2682
C36 C -0.1941(4) 0.4695(2) 0.24168(16)
H49 H -0.2858 0.4930 0.2334
C37 C -0.0519(4) 0.50313(16) 0.23452(15)
H50 H -0.0490 0.5504 0.2226
loop_
_geom_bond_atom_site_label_1
_geom_bond_atom_site_label_2
_geom_bond_site_symmetry_1
_geom_bond_site_symmetry_2
O1 N1 1_555 1_555
O2 C30 1_555 1_555
O3 C30 1_555 1_555
N1 C3 1_555 1_555
N2 O1 1_555 1_555
C1 H1 1_555 1_555
H2 C1 1_555 1_555
C2 N2 1_555 1_555
C3 C2 1_555 1_555
C4 C3 1_555 1_555
C5 C4 1_555 1_555
H3 C5 1_555 1_555
C6 C5 1_555 1_555
H4 C6 1_555 1_555
H5 C6 1_555 1_555
C7 C6 1_555 1_555
H6 C7 1_555 1_555
H7 C7 1_555 1_555
C8 C7 1_555 1_555
C9 C8 1_555 1_555
H8 C9 1_555 1_555
C10 C1 1_555 1_555
C11 C9 1_555 1_555
H9 C11 1_555 1_555
H10 C11 1_555 1_555
C12 C11 1_555 1_555
H11 C12 1_555 1_555
C13 C12 1_555 1_555
C14 C8 1_555 1_555
C15 C14 1_555 1_555
H12 C15 1_555 1_555
H13 C15 1_555 1_555
C16 C15 1_555 1_555
H14 C16 1_555 1_555
H15 C16 1_555 1_555
C17 C16 1_555 1_555
C18 C13 1_555 1_555
H16 C18 1_555 1_555
C19 C18 1_555 1_555
H17 C19 1_555 1_555
H18 C19 1_555 1_555
C20 C19 1_555 1_555
C21 C20 1_555 1_555
H19 C21 1_555 1_555
H20 C21 1_555 1_555
C22 C17 1_555 1_555
H21 C22 1_555 1_555
H22 C22 1_555 1_555
C23 C4 1_555 1_555
H23 C23 1_555 1_555
H24 C23 1_555 1_555
H25 C23 1_555 1_555
C24 C4 1_555 1_555
H26 C24 1_555 1_555
H27 C24 1_555 1_555
H28 C24 1_555 1_555
C25 C10 1_555 1_555
H29 C25 1_555 1_555
H30 C25 1_555 1_555
H31 C25 1_555 1_555
C26 C8 1_555 1_555
H32 C26 1_555 1_555
H33 C26 1_555 1_555
H34 C26 1_555 1_555
C27 C14 1_555 1_555
H35 C27 1_555 1_555
H36 C27 1_555 1_555
H37 C27 1_555 1_555
C28 C20 1_555 1_555
H38 C28 1_555 1_555
H39 C28 1_555 1_555
H40 C28 1_555 1_555
C29 C20 1_555 1_555
H41 C29 1_555 1_555
H42 C29 1_555 1_555
H43 C29 1_555 1_555
C30 C17 1_555 1_555
C31 O3 1_555 1_555
H44 C31 1_555 1_555
H45 C31 1_555 1_555
C32 C31 1_555 1_555
C33 C32 1_555 1_555
H46 C33 1_555 1_555
C34 C33 1_555 1_555
H47 C34 1_555 1_555
C35 C34 1_555 1_555
H48 C35 1_555 1_555
C36 C35 1_555 1_555
H49 C36 1_555 1_555
C37 C32 1_555 1_555
H50 C37 1_555 1_555
C1 C2 1_555 1_555
C5 C10 1_555 1_555
C9 C10 1_555 1_555
C13 C14 1_555 1_555
C17 C18 1_555 1_555
C21 C22 1_555 1_555
C36 C37 1_555 1_555

#END
