
#######################################################################
#
#                 Cambridge Crystallographic Data Centre
#                                CCDC 
#
#######################################################################
#
# If this CIF has been generated from an entry in the Cambridge 
# Structural Database, then it will include bibliographic, chemical, 
# crystal, experimental, refinement or atomic coordinate data resulting 
# from the CCDC's data processing and validation procedures.
#
#######################################################################

data_FOWQOZ
_chemical_formula_moiety         'C31 H23 N1 O4'
_chemical_name_systematic        
2-(1,3-dibenzyl-2-oxo-2,3-dihydro-1H-indol-3-yl)-2-hydroxy-1H-indene-1,3(2H)-dione
_symmetry_cell_setting           orthorhombic
_symmetry_space_group_name_H-M   'P b c a'
_symmetry_Int_Tables_number      61
_space_group_name_Hall           '-P 2ac 2ab'
loop_
_symmetry_equiv_pos_site_id
_symmetry_equiv_pos_as_xyz
1 x,y,z
2 1/2+x,1/2-y,-z
3 -x,1/2+y,1/2-z
4 1/2-x,-y,1/2+z
5 -x,-y,-z
6 1/2-x,1/2+y,z
7 x,1/2-y,1/2+z
8 1/2+x,y,1/2-z
_cell_length_a                   10.516(3)
_cell_length_b                   16.680(4)
_cell_length_c                   27.091(6)
_cell_angle_alpha                90
_cell_angle_beta                 90
_cell_angle_gamma                90
_cell_volume                     4751.95
_exptl_crystal_colour            colorless
_exptl_crystal_description       prism
_cell_formula_units_Z            8
_exptl_crystal_recrystallization_method MeOH
loop_
_atom_site_label
_atom_site_type_symbol
_atom_site_fract_x
_atom_site_fract_y
_atom_site_fract_z
O1 O 0.66557(10) -0.09368(7) 0.60721(4)
O2 O 0.38918(11) -0.13594(7) 0.56456(4)
O3 O 0.31000(11) -0.11383(7) 0.73683(4)
O4 O 0.48553(11) -0.18194(7) 0.66376(4)
H1 H 0.5521 -0.1790 0.6467
N1 N 0.56092(12) 0.01839(8) 0.57747(5)
C1 C 0.96543(16) 0.18339(11) 0.55632(7)
H2 H 1.0376 0.2169 0.5608
C2 C 0.84484(17) 0.21720(10) 0.55252(7)
H3 H 0.8347 0.2737 0.5547
C3 C 0.73884(16) 0.16816(10) 0.54544(6)
H4 H 0.6567 0.1914 0.5427
C4 C 0.75317(15) 0.08458(10) 0.54230(6)
C5 C 0.63921(15) 0.03052(10) 0.53317(6)
H5 H 0.5859 0.0544 0.5069
H6 H 0.6696 -0.0222 0.5212
C6 C 0.58266(14) -0.04182(9) 0.61059(6)
C7 C 0.48497(14) -0.03444(9) 0.65315(6)
C8 C 0.55747(15) -0.02115(9) 0.70248(6)
H7 H 0.4954 -0.0210 0.7299
H8 H 0.6163 -0.0667 0.7078
C9 C 0.63283(15) 0.05624(10) 0.70397(6)
C10 C 0.58263(16) 0.12336(10) 0.72800(6)
H9 H 0.5008 0.1201 0.7427
C11 C 0.65053(18) 0.19481(11) 0.73070(7)
H10 H 0.6156 0.2394 0.7477
C12 C 0.76900(18) 0.20107(11) 0.70862(7)
H11 H 0.8153 0.2499 0.7104
C13 C 0.87437(16) 0.05165(10) 0.54657(6)
H12 H 0.8850 -0.0048 0.5447
C14 C 0.98044(17) 0.10069(11) 0.55359(7)
H13 H 1.0627 0.0776 0.5565
C15 C 0.40690(14) -0.11431(9) 0.65384(6)
C16 C 0.33592(14) -0.12571(9) 0.60412(6)
C17 C 0.19728(15) -0.12767(9) 0.61384(6)
C18 C 0.17529(15) -0.12549(9) 0.66488(6)
C19 C 0.29660(15) -0.11649(9) 0.69207(6)
C20 C 0.05226(15) -0.13384(10) 0.68375(6)
H14 H 0.0371 -0.1340 0.7183
C21 C -0.04733(16) -0.14199(10) 0.65022(7)
H15 H -0.1320 -0.1470 0.6621
C22 C -0.02459(16) -0.14297(10) 0.59910(6)
H16 H -0.0943 -0.1483 0.5771
C23 C 0.09787(16) -0.13635(10) 0.58009(6)
H17 H 0.1132 -0.1377 0.5455
C24 C 0.40624(14) 0.03690(9) 0.63664(6)
C25 C 0.30415(15) 0.07595(10) 0.65881(6)
H18 H 0.2719 0.0583 0.6897
C26 C 0.24972(16) 0.14200(10) 0.63455(7)
H19 H 0.1798 0.1693 0.6491
C27 C 0.29774(16) 0.16775(10) 0.58929(7)
H20 H 0.2585 0.2118 0.5731
C28 C 0.40191(16) 0.13045(10) 0.56715(6)
H21 H 0.4350 0.1487 0.5365
C29 C 0.45529(14) 0.06552(9) 0.59178(6)
C30 C 0.75290(16) 0.06282(11) 0.68200(6)
H22 H 0.7892 0.0178 0.6658
C31 C 0.81972(17) 0.13525(12) 0.68380(7)
H23 H 0.9001 0.1396 0.6680
loop_
_geom_bond_atom_site_label_1
_geom_bond_atom_site_label_2
_geom_bond_site_symmetry_1
_geom_bond_site_symmetry_2
O1 C6 1_555 1_555
O2 C16 1_555 1_555
O3 C19 1_555 1_555
O4 H1 1_555 1_555
N1 C5 1_555 1_555
C1 H2 1_555 1_555
C2 C1 1_555 1_555
H3 C2 1_555 1_555
C3 C2 1_555 1_555
H4 C3 1_555 1_555
C4 C3 1_555 1_555
C5 C4 1_555 1_555
H5 C5 1_555 1_555
H6 C5 1_555 1_555
C6 N1 1_555 1_555
C7 C6 1_555 1_555
C8 C7 1_555 1_555
H7 C8 1_555 1_555
H8 C8 1_555 1_555
C9 C8 1_555 1_555
C10 C9 1_555 1_555
H9 C10 1_555 1_555
C11 C10 1_555 1_555
H10 C11 1_555 1_555
C12 C11 1_555 1_555
H11 C12 1_555 1_555
C13 C4 1_555 1_555
H12 C13 1_555 1_555
C14 C1 1_555 1_555
H13 C14 1_555 1_555
C15 O4 1_555 1_555
C16 C15 1_555 1_555
C17 C16 1_555 1_555
C18 C17 1_555 1_555
C19 C15 1_555 1_555
C20 C18 1_555 1_555
H14 C20 1_555 1_555
C21 C20 1_555 1_555
H15 C21 1_555 1_555
C22 C21 1_555 1_555
H16 C22 1_555 1_555
C23 C17 1_555 1_555
H17 C23 1_555 1_555
C24 C7 1_555 1_555
C25 C24 1_555 1_555
H18 C25 1_555 1_555
C26 C25 1_555 1_555
H19 C26 1_555 1_555
C27 C26 1_555 1_555
H20 C27 1_555 1_555
C28 C27 1_555 1_555
H21 C28 1_555 1_555
C29 N1 1_555 1_555
C30 C9 1_555 1_555
H22 C30 1_555 1_555
C31 C12 1_555 1_555
H23 C31 1_555 1_555
C7 C15 1_555 1_555
C13 C14 1_555 1_555
C18 C19 1_555 1_555
C22 C23 1_555 1_555
C24 C29 1_555 1_555
C28 C29 1_555 1_555
C30 C31 1_555 1_555

#END
