
#######################################################################
#
#                 Cambridge Crystallographic Data Centre
#                                CCDC 
#
#######################################################################
#
# If this CIF has been generated from an entry in the Cambridge 
# Structural Database, then it will include bibliographic, chemical, 
# crystal, experimental, refinement or atomic coordinate data resulting 
# from the CCDC's data processing and validation procedures.
#
#######################################################################

data_FOWRIT
_chemical_name_common            
'2-(1H-Benzotriazol-1-yl)-1-(3-methylbenzoyl)ethyl benzoate'
_chemical_formula_moiety         'C23 H19 N3 O3'
_chemical_name_systematic        
'3-(1H-Benzotriazol-1-yl)-1-(3-methylphenyl)-1-oxo-2-propanyl benzoate'
_symmetry_cell_setting           monoclinic
_symmetry_space_group_name_H-M   'P 21/c'
_symmetry_Int_Tables_number      14
_space_group_name_Hall           '-P 2ybc'
loop_
_symmetry_equiv_pos_site_id
_symmetry_equiv_pos_as_xyz
1 x,y,z
2 -x,1/2+y,1/2-z
3 -x,-y,-z
4 x,1/2-y,1/2+z
_cell_length_a                   10.1095(5)
_cell_length_b                   9.3849(4)
_cell_length_c                   20.7091(10)
_cell_angle_alpha                90
_cell_angle_beta                 99.061(4)
_cell_angle_gamma                90
_cell_volume                     1940.29
_exptl_crystal_colour            colorless
_exptl_crystal_description       block
_cell_formula_units_Z            4
_exptl_crystal_recrystallization_method 'acetone/ethyl acetate'
loop_
_atom_site_label
_atom_site_type_symbol
_atom_site_fract_x
_atom_site_fract_y
_atom_site_fract_z
O1 O 0.09785(14) 0.45987(15) 0.21346(7)
O2 O 0.17138(13) 0.14124(15) 0.23494(7)
O3 O 0.18369(12) 0.29378(14) 0.31866(6)
C1 C 0.0844(2) 0.2945(3) 0.51412(11)
C2 C 0.1674(3) 0.2855(3) 0.57479(12)
H1 H 0.1432 0.2312 0.6086
C3 C 0.2831(3) 0.3582(4) 0.58230(14)
H2 H 0.3400 0.3535 0.6222
C4 C 0.3204(3) 0.4402(3) 0.53236(16)
H3 H 0.4022 0.4876 0.5397
C5 C 0.2409(3) 0.4538(3) 0.47244(13)
H4 H 0.2654 0.5103 0.4394
C6 C 0.1216(2) 0.3781(2) 0.46443(10)
C7 C -0.0004(2) 0.4194(2) 0.34864(9)
H5 H 0.0510 0.5066 0.3485
H6 H -0.0943 0.4431 0.3358
C8 C 0.04164(19) 0.3168(2) 0.29917(9)
H7 H -0.0068 0.2265 0.3000
C9 C 0.0140(2) 0.3818(2) 0.23043(9)
C10 C -0.11527(19) 0.3540(2) 0.18760(9)
C11 C -0.2093(2) 0.2566(2) 0.20324(11)
H8 H -0.1922 0.2043 0.2418
C12 C -0.3285(2) 0.2383(3) 0.16091(12)
H9 H -0.3912 0.1729 0.1711
C13 C -0.3551(2) 0.3158(2) 0.10391(11)
H10 H -0.4359 0.3025 0.0762
C14 C -0.2632(2) 0.4134(2) 0.08716(10)
C15 C -0.1438(2) 0.4296(2) 0.12935(10)
H11 H -0.0804 0.4932 0.1184
C16 C -0.2919(3) 0.4998(3) 0.02543(11)
H12 H -0.3786 0.4747 0.0022
H13 H -0.2250 0.4804 -0.0015
H14 H -0.2905 0.5993 0.0362
C17 C 0.2376(2) 0.1978(2) 0.28153(10)
C18 C 0.38089(19) 0.1709(2) 0.30448(9)
C19 C 0.4567(2) 0.2509(2) 0.35264(11)
H15 H 0.4178 0.3263 0.3720
C20 C 0.5906(2) 0.2187(3) 0.37213(12)
H16 H 0.6414 0.2733 0.4044
C21 C 0.6490(2) 0.1080(3) 0.34462(12)
H17 H 0.7390 0.0871 0.3581
C22 C 0.5745(2) 0.0282(3) 0.29719(12)
H18 H 0.6140 -0.0479 0.2787
C23 C 0.4409(2) 0.0590(2) 0.27624(11)
H19 H 0.3915 0.0049 0.2433
N1 N -0.0359(2) 0.2318(2) 0.49227(10)
N2 N -0.07420(19) 0.2723(2) 0.43222(10)
N3 N 0.01911(17) 0.36109(19) 0.41419(8)
loop_
_geom_bond_atom_site_label_1
_geom_bond_atom_site_label_2
_geom_bond_site_symmetry_1
_geom_bond_site_symmetry_2
O1 C9 1_555 1_555
O2 C17 1_555 1_555
O3 C8 1_555 1_555
C1 C2 1_555 1_555
C2 H1 1_555 1_555
C3 C2 1_555 1_555
H2 C3 1_555 1_555
C4 C3 1_555 1_555
H3 C4 1_555 1_555
C5 C4 1_555 1_555
H4 C5 1_555 1_555
C6 C1 1_555 1_555
C7 H5 1_555 1_555
H6 C7 1_555 1_555
C8 C7 1_555 1_555
H7 C8 1_555 1_555
C9 C8 1_555 1_555
C10 C9 1_555 1_555
C11 C10 1_555 1_555
H8 C11 1_555 1_555
C12 C11 1_555 1_555
H9 C12 1_555 1_555
C13 C12 1_555 1_555
H10 C13 1_555 1_555
C14 C13 1_555 1_555
C15 C10 1_555 1_555
H11 C15 1_555 1_555
C16 C14 1_555 1_555
H12 C16 1_555 1_555
H13 C16 1_555 1_555
H14 C16 1_555 1_555
C17 O3 1_555 1_555
C18 C17 1_555 1_555
C19 C18 1_555 1_555
H15 C19 1_555 1_555
C20 C19 1_555 1_555
H16 C20 1_555 1_555
C21 C20 1_555 1_555
H17 C21 1_555 1_555
C22 C21 1_555 1_555
H18 C22 1_555 1_555
C23 C18 1_555 1_555
H19 C23 1_555 1_555
N1 C1 1_555 1_555
N2 N1 1_555 1_555
N3 C6 1_555 1_555
C5 C6 1_555 1_555
C7 N3 1_555 1_555
C14 C15 1_555 1_555
C22 C23 1_555 1_555
N2 N3 1_555 1_555

#END
