
#######################################################################
#
#                 Cambridge Crystallographic Data Centre
#                                CCDC 
#
#######################################################################
#
# If this CIF has been generated from an entry in the Cambridge 
# Structural Database, then it will include bibliographic, chemical, 
# crystal, experimental, refinement or atomic coordinate data resulting 
# from the CCDC's data processing and validation procedures.
#
#######################################################################

data_FOWWIY
_chemical_name_common            '2-Amino-5-nitrophenyl 2-chlorophenyl ketone'
_chemical_formula_moiety         'C13 H9 Cl1 N2 O3'
_chemical_name_systematic        
(2-Amino-5-nitrophenyl)(2-chlorophenyl)methanone
_symmetry_cell_setting           monoclinic
_symmetry_space_group_name_H-M   'P 21/c'
_symmetry_Int_Tables_number      14
_space_group_name_Hall           '-P 2ybc'
loop_
_symmetry_equiv_pos_site_id
_symmetry_equiv_pos_as_xyz
1 x,y,z
2 -x,1/2+y,1/2-z
3 -x,-y,-z
4 x,1/2-y,1/2+z
_cell_length_a                   10.6120(3)
_cell_length_b                   11.3314(3)
_cell_length_c                   10.8456(3)
_cell_angle_alpha                90
_cell_angle_beta                 108.399(3)
_cell_angle_gamma                90
_cell_volume                     1237.5
_exptl_crystal_colour            colorless
_exptl_crystal_description       chunk
_chemical_melting_point          '378-380 K'
_cell_formula_units_Z            4
_exptl_crystal_recrystallization_method acetonitrile
loop_
_atom_site_label
_atom_site_type_symbol
_atom_site_fract_x
_atom_site_fract_y
_atom_site_fract_z
Cl1 Cl 0.96431(3) 0.63182(3) 0.78827(3)
O1 O 0.48712(10) 0.77733(9) 0.32532(9)
O2 O 0.50201(9) 0.76958(8) 0.52898(8)
O3 O 0.82129(9) 0.31290(8) 0.73196(7)
N1 N 0.82197(10) 0.31577(9) 0.48161(9)
H1 H 0.8367 0.2872 0.4120
H2 H 0.8515 0.2779 0.5561
N2 N 0.52756(10) 0.73094(9) 0.43331(9)
C1 C 0.75466(11) 0.41681(10) 0.47433(10)
C2 C 0.70760(12) 0.47688(11) 0.35352(10)
H3 H 0.7267 0.4453 0.2802
C3 C 0.63591(12) 0.57843(11) 0.33976(10)
H4 H 0.6049 0.6169 0.2579
C4 C 0.60840(11) 0.62550(10) 0.44837(10)
C5 C 0.65568(10) 0.57301(10) 0.56856(10)
H5 H 0.6376 0.6076 0.6410
C6 C 0.73013(10) 0.46916(10) 0.58484(10)
C7 C 0.77971(11) 0.41506(10) 0.71401(10)
C8 C 0.77845(11) 0.48654(10) 0.83067(9)
C9 C 0.85984(11) 0.58380(11) 0.87385(10)
C10 C 0.86275(12) 0.64296(11) 0.98728(11)
H6 H 0.9199 0.7088 1.0165
C11 C 0.78122(12) 0.60456(12) 1.05687(11)
H7 H 0.7827 0.6443 1.1345
C12 C 0.69750(12) 0.50870(12) 1.01432(10)
H8 H 0.6406 0.4839 1.0616
C13 C 0.69720(11) 0.44907(10) 0.90242(10)
H9 H 0.6413 0.3823 0.8744
loop_
_geom_bond_atom_site_label_1
_geom_bond_atom_site_label_2
_geom_bond_site_symmetry_1
_geom_bond_site_symmetry_2
Cl1 C9 1_555 1_555
O1 N2 1_555 1_555
O2 N2 1_555 1_555
O3 C7 1_555 1_555
N1 H1 1_555 1_555
H2 N1 1_555 1_555
N2 C4 1_555 1_555
C1 N1 1_555 1_555
C2 C1 1_555 1_555
H3 C2 1_555 1_555
C3 C2 1_555 1_555
H4 C3 1_555 1_555
C4 C3 1_555 1_555
C5 C4 1_555 1_555
H5 C5 1_555 1_555
C6 C1 1_555 1_555
C7 C6 1_555 1_555
C8 C7 1_555 1_555
C9 C8 1_555 1_555
C10 C9 1_555 1_555
H6 C10 1_555 1_555
C11 C10 1_555 1_555
H7 C11 1_555 1_555
C12 C11 1_555 1_555
H8 C12 1_555 1_555
C13 C8 1_555 1_555
H9 C13 1_555 1_555
C5 C6 1_555 1_555
C12 C13 1_555 1_555

#END
