
#######################################################################
#
#                 Cambridge Crystallographic Data Centre
#                                CCDC 
#
#######################################################################
#
# If this CIF has been generated from an entry in the Cambridge 
# Structural Database, then it will include bibliographic, chemical, 
# crystal, experimental, refinement or atomic coordinate data resulting 
# from the CCDC's data processing and validation procedures.
#
#######################################################################

data_FOWXOF
_chemical_formula_moiety         'C14 H9 Br1 N2 O1'
_chemical_name_systematic        
(E)-2-[(5-Bromo-2-hydroxybenzylidene)amino]benzonitrile
_symmetry_cell_setting           orthorhombic
_symmetry_space_group_name_H-M   'P c a 21'
_symmetry_Int_Tables_number      29
_space_group_name_Hall           'P 2c -2ac'
loop_
_symmetry_equiv_pos_site_id
_symmetry_equiv_pos_as_xyz
1 x,y,z
2 -x,-y,1/2+z
3 1/2+x,-y,z
4 1/2-x,y,1/2+z
_cell_length_a                   25.609(8)
_cell_length_b                   3.9299(12)
_cell_length_c                   12.368(4)
_cell_angle_alpha                90
_cell_angle_beta                 90
_cell_angle_gamma                90
_cell_volume                     1244.73
_exptl_crystal_colour            yellow
_exptl_crystal_description       prism
_cell_formula_units_Z            4
loop_
_atom_site_label
_atom_site_type_symbol
_atom_site_fract_x
_atom_site_fract_y
_atom_site_fract_z
Br1 Br 0.014802(15) 0.46800(11) 0.49637(9)
O1 O 0.15855(14) -0.0121(8) 0.1439(2)
H1 H 0.1892 0.0184 0.1605
N1 N 0.23690(11) 0.1858(9) 0.2691(3)
N2 N 0.28448(17) -0.1697(11) 0.0417(3)
C1 C 0.14763(14) 0.2551(10) 0.3176(3)
C2 C 0.12781(19) 0.1038(11) 0.2221(4)
C3 C 0.0737(2) 0.0789(11) 0.2121(4)
H2 H 0.0598 -0.0122 0.1490
C4 C 0.04062(17) 0.1828(11) 0.2912(4)
H3 H 0.0047 0.1582 0.2825
C5 C 0.06036(14) 0.3244(10) 0.3842(4)
C6 C 0.11302(15) 0.3625(11) 0.3970(3)
H4 H 0.1259 0.4619 0.4598
C7 C 0.20246(14) 0.2971(10) 0.3346(3)
H5 H 0.2135 0.4110 0.3964
C8 C 0.29066(13) 0.2276(9) 0.2900(3)
C9 C 0.32433(17) 0.1123(10) 0.2105(3)
C10 C 0.37810(18) 0.1385(12) 0.2213(4)
H6 H 0.4001 0.0623 0.1666
C11 C 0.39839(16) 0.2791(13) 0.3143(4)
H7 H 0.4344 0.2974 0.3227
C12 C 0.36610(17) 0.3907(12) 0.3933(4)
H8 H 0.3802 0.4864 0.4556
C13 C 0.31227(16) 0.3646(12) 0.3830(4)
H9 H 0.2907 0.4392 0.4386
C14 C 0.30179(18) -0.0458(12) 0.1155(4)
loop_
_geom_bond_atom_site_label_1
_geom_bond_atom_site_label_2
_geom_bond_site_symmetry_1
_geom_bond_site_symmetry_2
Br1 C5 1_555 1_555
O1 H1 1_555 1_555
N1 C7 1_555 1_555
N2 C14 1_555 1_555
C1 C2 1_555 1_555
C2 O1 1_555 1_555
C3 C2 1_555 1_555
H2 C3 1_555 1_555
C4 C3 1_555 1_555
H3 C4 1_555 1_555
C5 C4 1_555 1_555
C6 C1 1_555 1_555
H4 C6 1_555 1_555
C7 C1 1_555 1_555
H5 C7 1_555 1_555
C8 N1 1_555 1_555
C9 C8 1_555 1_555
C10 C9 1_555 1_555
H6 C10 1_555 1_555
C11 C10 1_555 1_555
H7 C11 1_555 1_555
C12 C11 1_555 1_555
H8 C12 1_555 1_555
C13 C8 1_555 1_555
H9 C13 1_555 1_555
C14 C9 1_555 1_555
C5 C6 1_555 1_555
C12 C13 1_555 1_555

#END
