
#######################################################################
#
#                 Cambridge Crystallographic Data Centre
#                                CCDC 
#
#######################################################################
#
# If this CIF has been generated from an entry in the Cambridge 
# Structural Database, then it will include bibliographic, chemical, 
# crystal, experimental, refinement or atomic coordinate data resulting 
# from the CCDC's data processing and validation procedures.
#
#######################################################################

data_FOWYAS
_chemical_formula_moiety         'C20 H18 Cl1 N3 O3'
_chemical_name_systematic        
'Methyl N-((4-chlorophenyl)(3-methyl-5-oxo-1-phenyl-1,5-dihydro-4H-pyrazol-4-ylidene)methyl)glycinate'
_symmetry_cell_setting           triclinic
_symmetry_space_group_name_H-M   'P -1'
_symmetry_Int_Tables_number      2
_space_group_name_Hall           '-P 1'
loop_
_symmetry_equiv_pos_site_id
_symmetry_equiv_pos_as_xyz
1 x,y,z
2 -x,-y,-z
_cell_length_a                   9.309(4)
_cell_length_b                   10.222(4)
_cell_length_c                   10.685(5)
_cell_angle_alpha                86.275(8)
_cell_angle_beta                 82.772(8)
_cell_angle_gamma                71.749(5)
_cell_volume                     957.573
_exptl_crystal_colour            colorless
_exptl_crystal_description       block
_cell_formula_units_Z            2
_exptl_crystal_recrystallization_method ethanol
loop_
_atom_site_label
_atom_site_type_symbol
_atom_site_fract_x
_atom_site_fract_y
_atom_site_fract_z
Cl1 Cl -0.55778(16) 0.32750(16) 0.61403(15)
O1 O 0.2121(3) 0.5392(3) 0.8771(2)
O2 O 0.2655(4) 0.1981(3) 1.0279(3)
O3 O 0.1496(3) 0.0367(3) 1.0650(3)
N1 N 0.1065(3) 0.7252(3) 0.7427(3)
N2 N -0.0161(4) 0.7657(3) 0.6679(3)
N3 N 0.0591(3) 0.3478(3) 0.8789(3)
H1 H 0.1341 0.3706 0.8998
C1 C 0.3191(5) 0.7807(4) 0.8132(4)
H2 H 0.3399 0.7016 0.8647
C2 C 0.4086(5) 0.8654(5) 0.8087(5)
H3 H 0.4895 0.8424 0.8574
C3 C 0.3824(6) 0.9811(6) 0.7354(6)
H4 H 0.4449 1.0368 0.7327
C4 C 0.2603(7) 1.0159(5) 0.6639(5)
H5 H 0.2405 1.0960 0.6138
C5 C 0.1672(5) 0.9319(5) 0.6663(4)
H6 H 0.0855 0.9552 0.6184
C6 C 0.1992(4) 0.8118(4) 0.7424(3)
C7 C -0.0797(4) 0.6684(4) 0.6807(3)
C8 C -0.2151(5) 0.6816(5) 0.6135(4)
H7 H -0.2512 0.7733 0.5784
H8 H -0.2942 0.6634 0.6720
H9 H -0.1870 0.6165 0.5470
C9 C -0.0021(4) 0.5568(4) 0.7624(3)
C10 C 0.1185(4) 0.5995(4) 0.8021(3)
C11 C -0.0299(4) 0.4347(4) 0.8029(3)
C12 C -0.1577(4) 0.3973(4) 0.7612(3)
C13 C -0.1405(5) 0.3365(5) 0.6462(4)
H10 H -0.0457 0.3108 0.5986
C14 C -0.2631(6) 0.3136(5) 0.6015(4)
H11 H -0.2513 0.2720 0.5244
C15 C -0.4031(5) 0.3528(4) 0.6722(4)
C16 C -0.4215(4) 0.4092(4) 0.7886(4)
H12 H -0.5155 0.4314 0.8373
C17 C -0.2987(4) 0.4323(4) 0.8322(3)
H13 H -0.3107 0.4719 0.9103
C18 C 0.0428(4) 0.2179(4) 0.9305(4)
H14 H 0.0493 0.1573 0.8625
H15 H -0.0560 0.2336 0.9794
C19 C 0.1662(4) 0.1521(4) 1.0130(4)
C20 C 0.2628(6) -0.0381(5) 1.1457(5)
H16 H 0.3615 -0.0631 1.0979
H17 H 0.2404 -0.1199 1.1791
H18 H 0.2620 0.0188 1.2140
loop_
_geom_bond_atom_site_label_1
_geom_bond_atom_site_label_2
_geom_bond_site_symmetry_1
_geom_bond_site_symmetry_2
Cl1 C15 1_555 1_555
O1 C10 1_555 1_555
O2 C19 1_555 1_555
O3 C19 1_555 1_555
N1 N2 1_555 1_555
N2 C7 1_555 1_555
N3 H1 1_555 1_555
C1 H2 1_555 1_555
C2 C1 1_555 1_555
H3 C2 1_555 1_555
C3 C2 1_555 1_555
H4 C3 1_555 1_555
C4 C3 1_555 1_555
H5 C4 1_555 1_555
C5 C4 1_555 1_555
H6 C5 1_555 1_555
C6 N1 1_555 1_555
C7 C8 1_555 1_555
C8 H7 1_555 1_555
H8 C8 1_555 1_555
H9 C8 1_555 1_555
C9 C7 1_555 1_555
C10 N1 1_555 1_555
C11 N3 1_555 1_555
C12 C11 1_555 1_555
C13 C12 1_555 1_555
H10 C13 1_555 1_555
C14 C13 1_555 1_555
H11 C14 1_555 1_555
C15 C14 1_555 1_555
C16 C15 1_555 1_555
H12 C16 1_555 1_555
C17 C12 1_555 1_555
H13 C17 1_555 1_555
C18 N3 1_555 1_555
H14 C18 1_555 1_555
H15 C18 1_555 1_555
C19 C18 1_555 1_555
C20 O3 1_555 1_555
H16 C20 1_555 1_555
H17 C20 1_555 1_555
H18 C20 1_555 1_555
C1 C6 1_555 1_555
C5 C6 1_555 1_555
C9 C10 1_555 1_555
C9 C11 1_555 1_555
C16 C17 1_555 1_555

#END
