
#######################################################################
#
#                 Cambridge Crystallographic Data Centre
#                                CCDC 
#
#######################################################################
#
# If this CIF has been generated from an entry in the Cambridge 
# Structural Database, then it will include bibliographic, chemical, 
# crystal, experimental, refinement or atomic coordinate data resulting 
# from the CCDC's data processing and validation procedures.
#
#######################################################################

data_FOXBAX
_chemical_formula_moiety         'C4 H8 Mg1 N2 O8 S1'
_chemical_name_systematic        
tetra-aqua-(1,2,5-thiadiazole-3,4-dicarboxylato)-magnesium
_symmetry_cell_setting           triclinic
_symmetry_space_group_name_H-M   'P -1'
_symmetry_Int_Tables_number      2
_space_group_name_Hall           '-P 1'
loop_
_symmetry_equiv_pos_site_id
_symmetry_equiv_pos_as_xyz
1 x,y,z
2 -x,-y,-z
_cell_length_a                   8.0080(16)
_cell_length_b                   8.0431(16)
_cell_length_c                   9.1286(18)
_cell_angle_alpha                102.49(3)
_cell_angle_beta                 90.32(3)
_cell_angle_gamma                116.95(3)
_cell_volume                     508.071
_cell_formula_units_Z            2
loop_
_atom_site_label
_atom_site_type_symbol
_atom_site_fract_x
_atom_site_fract_y
_atom_site_fract_z
S1 S 0.83584(10) 0.76664(10) -0.10102(8)
Mg1 Mg 0.70069(11) 0.36187(11) 0.32452(9)
O1 O 0.6705(3) 0.8517(2) 0.3682(2)
O2 O 0.7311(2) 0.4654(2) 0.55678(17)
H1 H 0.6126 0.4680 0.5865
H2 H 0.7613 0.4037 0.6038
O3 O 0.5798(2) 0.5382(2) 0.30855(17)
O4 O 0.4440(2) 0.1420(2) 0.34386(18)
H3 H 0.3831 0.0272 0.2966
H4 H 0.4054 0.1456 0.4446
O5 O 0.9602(2) 0.5939(2) 0.32884(19)
O6 O 0.8538(2) 0.2176(2) 0.34571(18)
H5 H 0.7720 0.0599 0.3515
H6 H 0.9310 0.2605 0.4081
O7 O 1.2206(2) 0.7426(2) 0.2255(2)
O8 O 0.6508(2) 0.2490(2) 0.09577(17)
H7 H 0.7355 0.2501 0.0449
H8 H 0.5557 0.2485 0.0385
N1 N 0.6936(3) 0.7548(3) 0.0304(2)
N2 N 0.9922(3) 0.7395(3) -0.0089(2)
C1 C 0.6632(3) 0.7044(4) 0.2859(3)
C2 C 0.7644(3) 0.7240(3) 0.1464(3)
C3 C 0.9361(3) 0.7156(3) 0.1244(3)
C4 C 1.0502(4) 0.6816(3) 0.2338(3)
loop_
_geom_bond_atom_site_label_1
_geom_bond_atom_site_label_2
_geom_bond_site_symmetry_1
_geom_bond_site_symmetry_2
S1 N1 1_555 1_555
Mg1 O2 1_555 1_555
O1 C1 1_555 1_555
O2 H1 1_555 1_555
H2 O2 1_555 1_555
O3 Mg1 1_555 1_555
O4 Mg1 1_555 1_555
H3 O4 1_555 1_555
H4 O4 1_555 1_555
O5 Mg1 1_555 1_555
O6 Mg1 1_555 1_555
H5 O6 1_555 1_555
H6 O6 1_555 1_555
O7 C4 1_555 1_555
O8 Mg1 1_555 1_555
H7 O8 1_555 1_555
H8 O8 1_555 1_555
N1 C2 1_555 1_555
N2 S1 1_555 1_555
C1 O3 1_555 1_555
C2 C1 1_555 1_555
C3 N2 1_555 1_555
C4 O5 1_555 1_555
C2 C3 1_555 1_555
C3 C4 1_555 1_555

#END
