
#######################################################################
#
#                 Cambridge Crystallographic Data Centre
#                                CCDC 
#
#######################################################################
#
# If this CIF has been generated from an entry in the Cambridge 
# Structural Database, then it will include bibliographic, chemical, 
# crystal, experimental, refinement or atomic coordinate data resulting 
# from the CCDC's data processing and validation procedures.
#
#######################################################################

data_FOXBAW
_chemical_formula_moiety         'C11 H14 F2 O4'
_chemical_name_systematic        
(S)-6-([(S)-2,2-Dimethyl-1,3-dioxolan-4-yl]methyl)-5,5-difluoro-5,6-dihydro-2H-pyran-2-one
_symmetry_cell_setting           orthorhombic
_symmetry_space_group_name_H-M   'P 21 21 21'
_symmetry_Int_Tables_number      19
_space_group_name_Hall           'P 2ac 2ab'
loop_
_symmetry_equiv_pos_site_id
_symmetry_equiv_pos_as_xyz
1 x,y,z
2 1/2-x,-y,1/2+z
3 -x,1/2+y,1/2-z
4 1/2+x,1/2-y,-z
_cell_length_a                   5.8003(8)
_cell_length_b                   7.8135(11)
_cell_length_c                   25.977(4)
_cell_angle_alpha                90
_cell_angle_beta                 90
_cell_angle_gamma                90
_cell_volume                     1177.29
_exptl_crystal_colour            colorless
_exptl_crystal_description       prismatic
_chemical_melting_point          '351 K'
_cell_formula_units_Z            4
_exptl_crystal_recrystallization_method 'acetone/petroleum ether'
loop_
_atom_site_label
_atom_site_type_symbol
_atom_site_fract_x
_atom_site_fract_y
_atom_site_fract_z
O1 O 0.3246(5) 0.3829(4) 1.04388(8)
O2 O 0.3476(3) 0.4190(2) 0.96034(7)
O3 O 0.3431(4) 0.1554(3) 0.85332(9)
O4 O 0.1373(4) 0.1699(3) 0.78051(8)
F1 F 0.5404(4) 0.7375(2) 0.92182(8)
F2 F 0.8095(3) 0.5889(3) 0.88536(7)
C1 C 0.4418(5) 0.4245(4) 1.00830(11)
C2 C 0.6747(6) 0.4915(4) 1.01335(13)
C3 C 0.7764(5) 0.5731(4) 0.97527(13)
C4 C 0.6553(4) 0.5857(4) 0.92469(11)
C5 C 0.4949(4) 0.4373(3) 0.91582(10)
C6 C 0.3425(5) 0.4559(3) 0.86946(11)
H1 H 0.4376 0.4761 0.8394
H2 H 0.2433 0.5546 0.8741
C7 C 0.1945(5) 0.2985(4) 0.86032(11)
C8 C 0.0516(6) 0.3041(4) 0.81085(13)
H3 H -0.1107 0.2872 0.8183
H4 H 0.0706 0.4131 0.7935
C9 C 0.2494(5) 0.0526(4) 0.81349(11)
C10 C 0.0790(8) -0.0735(4) 0.83574(15)
H5 H 0.0221 -0.1464 0.8088
H6 H -0.0473 -0.0124 0.8510
H7 H 0.1539 -0.1418 0.8615
C11 C 0.4412(7) -0.0334(6) 0.7860(2)
H8 H 0.5456 0.0512 0.7728
H9 H 0.3803 -0.0998 0.7581
H10 H 0.5218 -0.1073 0.8094
H11 H 0.758(6) 0.483(5) 1.0503(15)
H12 H 0.936(7) 0.614(5) 0.9775(14)
H13 H 0.588(4) 0.335(3) 0.9143(11)
H14 H 0.084(5) 0.278(3) 0.8868(12)
loop_
_geom_bond_atom_site_label_1
_geom_bond_atom_site_label_2
_geom_bond_site_symmetry_1
_geom_bond_site_symmetry_2
O1 C1 1_555 1_555
O2 C1 1_555 1_555
O3 C7 1_555 1_555
O4 C8 1_555 1_555
F1 C4 1_555 1_555
F2 C4 1_555 1_555
C1 C2 1_555 1_555
C2 C3 1_555 1_555
C3 C4 1_555 1_555
C4 C5 1_555 1_555
C5 O2 1_555 1_555
C6 C5 1_555 1_555
H1 C6 1_555 1_555
H2 C6 1_555 1_555
C7 C6 1_555 1_555
C8 C7 1_555 1_555
H3 C8 1_555 1_555
H4 C8 1_555 1_555
C9 O3 1_555 1_555
C10 C9 1_555 1_555
H5 C10 1_555 1_555
H6 C10 1_555 1_555
H7 C10 1_555 1_555
C11 C9 1_555 1_555
H8 C11 1_555 1_555
H9 C11 1_555 1_555
H10 C11 1_555 1_555
H11 C2 1_555 1_555
H12 C3 1_555 1_555
H13 C5 1_555 1_555
H14 C7 1_555 1_555
O4 C9 1_555 1_555

#END
