
#######################################################################
#
#                 Cambridge Crystallographic Data Centre
#                                CCDC 
#
#######################################################################
#
# If this CIF has been generated from an entry in the Cambridge 
# Structural Database, then it will include bibliographic, chemical, 
# crystal, experimental, refinement or atomic coordinate data resulting 
# from the CCDC's data processing and validation procedures.
#
#######################################################################

data_FOXHAC
_chemical_compound_source        
'dried and crushed leaves of Isodon japonica var. glaucocalyx'
_chemical_name_common            'Glaucocalyxin B'
_chemical_formula_moiety         'C22 H30 O5'
_chemical_name_systematic        
14\b-acetoxy-7\a-hydroxy-ent-kaur-16-ene-3,15-dione
_chemical_properties_biological  
'source plant used in antibacterial, inflammation-diminishing and stomachic agents'
_symmetry_cell_setting           monoclinic
_symmetry_space_group_name_H-M   'P 21'
_symmetry_Int_Tables_number      4
_space_group_name_Hall           'P 2yb'
loop_
_symmetry_equiv_pos_site_id
_symmetry_equiv_pos_as_xyz
1 x,y,z
2 -x,1/2+y,-z
_cell_length_a                   8.485(4)
_cell_length_b                   23.786(10)
_cell_length_c                   9.930(4)
_cell_angle_alpha                90
_cell_angle_beta                 91.039(17)
_cell_angle_gamma                90
_cell_volume                     2003.78
_exptl_crystal_colour            colorless
_exptl_crystal_description       block
_chemical_melting_point          '463-465 K'
_cell_formula_units_Z            4
_exptl_crystal_recrystallization_method acetone
loop_
_atom_site_label
_atom_site_type_symbol
_atom_site_fract_x
_atom_site_fract_y
_atom_site_fract_z
O1 O 0.1468(4) 0.62378(17) 0.4126(3)
H1 H 0.1223 0.6421 0.3455
O2 O -0.1799(5) 0.69449(15) 0.3591(3)
O3 O -0.0788(4) 0.53978(13) 0.3705(3)
O4 O 0.1013(6) 0.4948(2) 0.4969(5)
O5 O 0.1366(10) 0.6324(4) 1.1368(5)
C1 C -0.1799(14) 0.6575(9) 0.9035(12)
H2 H -0.2358 0.6891 0.8638
H3 H -0.2575 0.6331 0.9438
C2 C -0.0687(12) 0.6796(5) 1.0157(8)
H4 H -0.0502 0.7193 0.9995
H5 H -0.1227 0.6766 1.1007
C3 C 0.0870(6) 0.6513(2) 1.0308(4)
C4 C 0.1788(6) 0.6446(2) 0.9042(4)
C5 C 0.0705(5) 0.64895(18) 0.7754(4)
H6 H 0.0561 0.6893 0.7597
C6 C 0.1477(5) 0.6264(2) 0.6482(4)
H7 H 0.2535 0.6416 0.6425
H8 H 0.1559 0.5858 0.6542
C7 C 0.0559(5) 0.64180(19) 0.5227(4)
H9 H 0.0513 0.6829 0.5189
C8 C -0.1146(5) 0.62046(18) 0.5220(4)
C9 C -0.1924(5) 0.63960(18) 0.6580(4)
H10 H -0.1918 0.6808 0.6543
C10 C -0.0983(5) 0.62477(17) 0.7901(3)
C11 C -0.3706(6) 0.6233(2) 0.6593(5)
H11 H -0.4033 0.6220 0.7523
H12 H -0.4300 0.6532 0.6154
C12 C -0.4176(6) 0.5680(3) 0.5925(5)
H13 H -0.5306 0.5674 0.5762
H14 H -0.3907 0.5370 0.6521
C13 C -0.3319(6) 0.5609(2) 0.4582(5)
H15 H -0.3673 0.5271 0.4100
C14 C -0.1555(5) 0.55858(18) 0.4915(4)
H16 H -0.1320 0.5340 0.5685
C15 C -0.2106(6) 0.6491(2) 0.4093(4)
C16 C -0.3460(6) 0.6124(2) 0.3714(5)
C17 C -0.4607(8) 0.6273(3) 0.2837(6)
H17 H -0.4583 0.6625 0.2428
H18 H -0.5426 0.6025 0.2638
C18 C 0.2971(7) 0.6944(3) 0.9021(5)
H19 H 0.2405 0.7292 0.9077
H20 H 0.3548 0.6935 0.8199
H21 H 0.3692 0.6913 0.9774
C19 C 0.2760(6) 0.5904(2) 0.9127(5)
H22 H 0.3420 0.5913 0.9922
H23 H 0.3405 0.5874 0.8346
H24 H 0.2064 0.5587 0.9166
C20 C -0.0951(6) 0.5615(2) 0.8243(5)
H25 H -0.0239 0.5425 0.7655
H26 H -0.1990 0.5461 0.8125
H27 H -0.0604 0.5565 0.9161
C21 C 0.0542(7) 0.5098(2) 0.3887(5)
C22 C 0.1285(10) 0.4971(3) 0.2562(7)
H28 H 0.2276 0.4786 0.2717
H29 H 0.1453 0.5316 0.2081
H30 H 0.0599 0.4731 0.2041
O6 O 0.3469(4) 0.85034(16) 0.0269(3)
H31 H 0.3975 0.8477 -0.0424
O7 O 0.6721(5) 0.77771(15) -0.0252(4)
O8 O 0.5734(4) 0.93369(14) -0.0081(3)
O9 O 0.4016(6) 0.9800(2) 0.1187(4)
O10 O 0.3864(11) 0.8451(4) 0.7516(5)
C23 C 0.6870(10) 0.8126(4) 0.5231(7)
H32 H 0.7421 0.7807 0.4855
H33 H 0.7649 0.8368 0.5661
C24 C 0.5725(10) 0.7913(5) 0.6304(8)
H34 H 0.5420 0.7531 0.6076
H35 H 0.6284 0.7900 0.7164
C25 C 0.4290(6) 0.8247(2) 0.6466(4)
C26 C 0.3273(6) 0.8314(2) 0.5166(4)
C27 C 0.4329(5) 0.82451(17) 0.3899(4)
H36 H 0.4410 0.7839 0.3754
C28 C 0.3526(5) 0.84739(19) 0.2639(4)
H37 H 0.3479 0.8881 0.2694
H38 H 0.2454 0.8333 0.2583
C29 C 0.4394(5) 0.83058(19) 0.1374(4)
H39 H 0.4407 0.7894 0.1331
C30 C 0.6112(5) 0.85099(16) 0.1395(4)
C31 C 0.6931(5) 0.83068(19) 0.2744(4)
H40 H 0.6895 0.7895 0.2694
C32 C 0.6046(5) 0.84534(16) 0.4075(3)
C33 C 0.8721(5) 0.8451(2) 0.2767(5)
H41 H 0.9092 0.8451 0.3697
H42 H 0.9275 0.8154 0.2305
C34 C 0.9178(6) 0.9010(3) 0.2136(5)
H43 H 0.8945 0.9313 0.2754
H44 H 1.0302 0.9013 0.1977
C35 C 0.8294(6) 0.9105(2) 0.0819(5)
H45 H 0.8646 0.9449 0.0370
C36 C 0.6525(5) 0.91288(19) 0.1136(4)
H46 H 0.6315 0.9366 0.1919
C37 C 0.7050(6) 0.8232(2) 0.0252(4)
C38 C 0.8382(6) 0.8602(2) -0.0094(5)
C39 C 0.9457(7) 0.8461(3) -0.0995(6)
H47 H 0.9389 0.8117 -0.1437
H48 H 1.0277 0.8707 -0.1183
C40 C 0.2105(7) 0.7819(3) 0.5205(6)
H49 H 0.1380 0.7875 0.5924
H50 H 0.2674 0.7475 0.5350
H51 H 0.1532 0.7798 0.4363
C41 C 0.2339(6) 0.8872(2) 0.5239(5)
H52 H 0.1804 0.8892 0.6081
H53 H 0.1581 0.8887 0.4510
H54 H 0.3054 0.9183 0.5170
C42 C 0.6079(6) 0.9084(2) 0.4436(5)
H55 H 0.5455 0.9290 0.3788
H56 H 0.7146 0.9217 0.4427
H57 H 0.5657 0.9137 0.5317
C43 C 0.4459(7) 0.9658(2) 0.0084(5)
C44 C 0.3709(9) 0.9785(3) -0.1242(7)
H58 H 0.2715 0.9594 -0.1315
H59 H 0.4384 0.9661 -0.1948
H60 H 0.3542 1.0183 -0.1320
C45? C -0.173(3) 0.6548(19) 0.9108(18)
C46? C 0.666(8) 0.806(2) 0.521(2)
C47? C -0.082(3) 0.6443(12) 1.0439(18)
C48? C 0.599(3) 0.8233(17) 0.658(2)
H61? H 0.6369 0.7680 0.5005
H62? H 0.7805 0.8085 0.5255
H63? H -0.1763 0.6949 0.8932
H64? H -0.2805 0.6418 0.9200
H65? H 0.6315 0.7962 0.7264
H66? H 0.6387 0.8599 0.6848
H67? H -0.1191 0.6701 1.1117
H68? H -0.1030 0.6064 1.0746
O11? O 0.1487(19) 0.6698(7) 1.1325(10)
O12? O 0.350(5) 0.818(2) 0.746(3)
loop_
_geom_bond_atom_site_label_1
_geom_bond_atom_site_label_2
_geom_bond_site_symmetry_1
_geom_bond_site_symmetry_2
O1 H1 1_555 1_555
O2 C15 1_555 1_555
O3 C14 1_555 1_555
O4 C21 1_555 1_555
O5 C3 1_555 1_555
C1 H2 1_555 1_555
H3 C1 1_555 1_555
C2 C1 1_555 1_555
H4 C2 1_555 1_555
H5 C2 1_555 1_555
C3 C2 1_555 1_555
C4 C3 1_555 1_555
C5 C4 1_555 1_555
H6 C5 1_555 1_555
C6 C5 1_555 1_555
H7 C6 1_555 1_555
H8 C6 1_555 1_555
C7 O1 1_555 1_555
H9 C7 1_555 1_555
C8 C7 1_555 1_555
C9 C8 1_555 1_555
H10 C9 1_555 1_555
C10 C1 1_555 1_555
C11 C9 1_555 1_555
H11 C11 1_555 1_555
H12 C11 1_555 1_555
C12 C11 1_555 1_555
H13 C12 1_555 1_555
H14 C12 1_555 1_555
C13 C12 1_555 1_555
H15 C13 1_555 1_555
C14 C8 1_555 1_555
H16 C14 1_555 1_555
C15 C8 1_555 1_555
C16 C13 1_555 1_555
C17 C16 1_555 1_555
H17 C17 1_555 1_555
H18 C17 1_555 1_555
C18 C4 1_555 1_555
H19 C18 1_555 1_555
H20 C18 1_555 1_555
H21 C18 1_555 1_555
C19 C4 1_555 1_555
H22 C19 1_555 1_555
H23 C19 1_555 1_555
H24 C19 1_555 1_555
C20 C10 1_555 1_555
H25 C20 1_555 1_555
H26 C20 1_555 1_555
H27 C20 1_555 1_555
C21 O3 1_555 1_555
C22 C21 1_555 1_555
H28 C22 1_555 1_555
H29 C22 1_555 1_555
H30 C22 1_555 1_555
O6 H31 1_555 1_555
O7 C37 1_555 1_555
O8 C36 1_555 1_555
O9 C43 1_555 1_555
O10 C25 1_555 1_555
C23 H32 1_555 1_555
H33 C23 1_555 1_555
C24 C23 1_555 1_555
H34 C24 1_555 1_555
H35 C24 1_555 1_555
C25 C24 1_555 1_555
C26 C25 1_555 1_555
C27 C26 1_555 1_555
H36 C27 1_555 1_555
C28 C27 1_555 1_555
H37 C28 1_555 1_555
H38 C28 1_555 1_555
C29 O6 1_555 1_555
H39 C29 1_555 1_555
C30 C29 1_555 1_555
C31 C30 1_555 1_555
H40 C31 1_555 1_555
C32 C23 1_555 1_555
C33 C31 1_555 1_555
H41 C33 1_555 1_555
H42 C33 1_555 1_555
C34 C33 1_555 1_555
H43 C34 1_555 1_555
H44 C34 1_555 1_555
C35 C34 1_555 1_555
H45 C35 1_555 1_555
C36 C30 1_555 1_555
H46 C36 1_555 1_555
C37 C30 1_555 1_555
C38 C35 1_555 1_555
C39 C38 1_555 1_555
H47 C39 1_555 1_555
H48 C39 1_555 1_555
C40 C26 1_555 1_555
H49 C40 1_555 1_555
H50 C40 1_555 1_555
H51 C40 1_555 1_555
C41 C26 1_555 1_555
H52 C41 1_555 1_555
H53 C41 1_555 1_555
H54 C41 1_555 1_555
C42 C32 1_555 1_555
H55 C42 1_555 1_555
H56 C42 1_555 1_555
H57 C42 1_555 1_555
C43 O8 1_555 1_555
C44 C43 1_555 1_555
H58 C44 1_555 1_555
H59 C44 1_555 1_555
H60 C44 1_555 1_555
C5 C10 1_555 1_555
C6 C7 1_555 1_555
C9 C10 1_555 1_555
C13 C14 1_555 1_555
C15 C16 1_555 1_555
C27 C32 1_555 1_555
C28 C29 1_555 1_555
C31 C32 1_555 1_555
C35 C36 1_555 1_555
C37 C38 1_555 1_555

#END
