
#######################################################################
#
#                 Cambridge Crystallographic Data Centre
#                                CCDC 
#
#######################################################################
#
# If this CIF has been generated from an entry in the Cambridge 
# Structural Database, then it will include bibliographic, chemical, 
# crystal, experimental, refinement or atomic coordinate data resulting 
# from the CCDC's data processing and validation procedures.
#
#######################################################################

data_FOXJUZ
_chemical_formula_moiety         'C3 H2 N9 O2 1-,C2 H6 N5 1+,0.461(C1 H4 O1)'
_chemical_name_systematic        
'5-amino-2,4-dihydro-3H-1,2,4-triazol-3-iminium 5-(5-amino-3-nitro-1H-1,2,4-triazol-1-yl)tetrazol-2-ide methanol solvate'
_symmetry_cell_setting           monoclinic
_symmetry_space_group_name_H-M   'C 2/c'
_symmetry_Int_Tables_number      15
_space_group_name_Hall           '-C 2yn'
loop_
_symmetry_equiv_pos_site_id
_symmetry_equiv_pos_as_xyz
1 x,y,z
2 -x,y,1/2-z
3 1/2+x,1/2+y,z
4 1/2-x,1/2+y,1/2-z
5 -x,-y,-z
6 x,-y,1/2+z
7 1/2-x,1/2-y,-z
8 1/2+x,1/2-y,1/2+z
_cell_length_a                   17.869(6)
_cell_length_b                   7.864(2)
_cell_length_c                   18.347(6)
_cell_angle_alpha                90
_cell_angle_beta                 104.227(4)
_cell_angle_gamma                90
_cell_volume                     2499.08
_exptl_crystal_colour            yellow
_exptl_crystal_description       Platelet
_cell_formula_units_Z            8
loop_
_atom_site_label
_atom_site_type_symbol
_atom_site_fract_x
_atom_site_fract_y
_atom_site_fract_z
N10 N 0.07854(7) 0.89716(14) 0.05059(6)
N11 N 0.05586(7) 0.75180(14) 0.14196(7)
N12 N 0.02932(7) 0.65140(14) 0.07729(7)
N13 N 0.11571(9) 1.02216(17) 0.17242(8)
N14 N 0.02891(8) 0.70646(17) -0.05006(7)
C4 C 0.08530(8) 0.89831(17) 0.12551(7)
C5 C 0.04453(7) 0.74565(16) 0.02352(8)
H3 H 0.0980(11) 0.971(3) 0.0222(11)
H4 H 0.0464(12) 0.716(3) 0.1901(13)
H5 H 0.1191(14) 1.003(3) 0.2241(13)
H6 H 0.1350(11) 1.110(3) 0.1521(12)
H7 H 0.0473(12) 0.770(3) -0.0836(12)
H8 H 0.0113(10) 0.605(3) -0.0654(11)
O1 O 0.22954(7) 0.63158(15) 0.19210(7)
O2 O 0.17347(7) 0.38966(14) 0.20114(6)
N1 N 0.21447(7) 0.58799(14) 0.04318(7)
N2 N 0.16422(6) 0.32447(14) 0.05519(6)
N3 N 0.16884(6) 0.35372(14) -0.01807(6)
N4 N 0.21080(8) 0.57633(18) -0.08761(8)
N5 N 0.19897(7) 0.49826(15) 0.16583(7)
N6 N 0.11564(7) 0.08250(14) -0.06012(6)
N7 N 0.09823(7) 0.00471(15) -0.12779(7)
N8 N 0.11501(7) 0.10607(16) -0.17813(7)
N9 N 0.14445(7) 0.25496(15) -0.14541(7)
C1 C 0.19930(7) 0.51205(16) -0.02413(8)
C2 C 0.19212(7) 0.46812(16) 0.08602(8)
C3 C 0.14309(7) 0.23239(16) -0.07401(7)
H1 H 0.2006(12) 0.514(3) -0.1273(12)
H2 H 0.2310(12) 0.679(3) -0.0850(12)
O3? O 0.0000 0.2313(17) 0.2500
O4? O 0.01724(11) 0.5649(3) 0.25909(16)
H9? H 0.0596 0.5778 0.2909
C6? C 0.0000 0.3905(4) 0.2500
H10? H 0.0407 0.3326 0.2322
H11? H -0.0495 0.3755 0.2131
H12? H -0.0032 0.3418 0.2983
loop_
_geom_bond_atom_site_label_1
_geom_bond_atom_site_label_2
_geom_bond_site_symmetry_1
_geom_bond_site_symmetry_2
O1 N5 1_555 1_555
O2 N5 1_555 1_555
N1 C1 1_555 1_555
N2 N3 1_555 1_555
N3 C1 1_555 1_555
N4 C1 1_555 1_555
N5 C2 1_555 1_555
N6 N7 1_555 1_555
N7 N8 1_555 1_555
N8 N9 1_555 1_555
N9 C3 1_555 1_555
C2 N1 1_555 1_555
C3 N3 1_555 1_555
H1 N4 1_555 1_555
H2 N4 1_555 1_555
N10 C4 1_555 1_555
N11 N12 1_555 1_555
N12 C5 1_555 1_555
N13 C4 1_555 1_555
N14 C5 1_555 1_555
C4 N11 1_555 1_555
C5 N10 1_555 1_555
H3 N10 1_555 1_555
H4 N11 1_555 1_555
H5 N13 1_555 1_555
H6 N13 1_555 1_555
H7 N14 1_555 1_555
H8 N14 1_555 1_555
N2 C2 1_555 1_555
N6 C3 1_555 1_555

#END
