
#######################################################################
#
#                 Cambridge Crystallographic Data Centre
#                                CCDC 
#
#######################################################################
#
# If this CIF has been generated from an entry in the Cambridge 
# Structural Database, then it will include bibliographic, chemical, 
# crystal, experimental, refinement or atomic coordinate data resulting 
# from the CCDC's data processing and validation procedures.
#
#######################################################################

data_FOXLAG
_chemical_formula_moiety         'C72 H84 N12,3(C1 H1 Cl3)'
_chemical_name_systematic        
'3,5,9,11,15,17,21,23,26,28,31,33-Dodecaaza-4,10,16,22,27,32(1,2)-hexacyclohexana-1,7,13,19(1,3,5)-tetrabenzenatricyclo[11.11.5.5^7,19^]tetratriacontaphane-2,5,8,11,14,17,20,23,25,28,30,33-dodecaene chloroform solvate'
_symmetry_cell_setting           cubic
_symmetry_space_group_name_H-M   'F 41 3 2'
_symmetry_Int_Tables_number      210
_space_group_name_Hall           'F 4d 2 3'
loop_
_symmetry_equiv_pos_site_id
_symmetry_equiv_pos_as_xyz
1 x,y,z
2 1/4-y,1/4+x,1/4+z
3 -x,-y,z
4 1/4+y,1/4-x,1/4+z
5 1/4+x,1/4-z,1/4+y
6 x,-y,-z
7 1/4+x,1/4+z,1/4-y
8 1/4+z,1/4+y,1/4-x
9 -x,y,-z
10 1/4-z,1/4+y,1/4+x
11 z,x,y
12 y,z,x
13 -y,-z,x
14 z,-x,-y
15 -y,z,-x
16 -z,-x,y
17 -z,x,-y
18 y,-z,-x
19 1/4+y,1/4+x,1/4-z
20 1/4-y,1/4-x,1/4-z
21 1/4-x,1/4+z,1/4+y
22 1/4-x,1/4-z,1/4-y
23 1/4+z,1/4-y,1/4+x
24 1/4-z,1/4-y,1/4-x
25 x,1/2+y,1/2+z
26 1/4-y,3/4+x,3/4+z
27 -x,1/2-y,1/2+z
28 1/4+y,3/4-x,3/4+z
29 1/4+x,3/4-z,3/4+y
30 x,1/2-y,1/2-z
31 1/4+x,3/4+z,3/4-y
32 1/4+z,3/4+y,3/4-x
33 -x,1/2+y,1/2-z
34 1/4-z,3/4+y,3/4+x
35 z,1/2+x,1/2+y
36 y,1/2+z,1/2+x
37 -y,1/2-z,1/2+x
38 z,1/2-x,1/2-y
39 -y,1/2+z,1/2-x
40 -z,1/2-x,1/2+y
41 -z,1/2+x,1/2-y
42 y,1/2-z,1/2-x
43 1/4+y,3/4+x,3/4-z
44 1/4-y,3/4-x,3/4-z
45 1/4-x,3/4+z,3/4+y
46 1/4-x,3/4-z,3/4-y
47 1/4+z,3/4-y,3/4+x
48 1/4-z,3/4-y,3/4-x
49 1/2+x,y,1/2+z
50 3/4-y,1/4+x,3/4+z
51 1/2-x,-y,1/2+z
52 3/4+y,1/4-x,3/4+z
53 3/4+x,1/4-z,3/4+y
54 1/2+x,-y,1/2-z
55 3/4+x,1/4+z,3/4-y
56 3/4+z,1/4+y,3/4-x
57 1/2-x,y,1/2-z
58 3/4-z,1/4+y,3/4+x
59 1/2+z,x,1/2+y
60 1/2+y,z,1/2+x
61 1/2-y,-z,1/2+x
62 1/2+z,-x,1/2-y
63 1/2-y,z,1/2-x
64 1/2-z,-x,1/2+y
65 1/2-z,x,1/2-y
66 1/2+y,-z,1/2-x
67 3/4+y,1/4+x,3/4-z
68 3/4-y,1/4-x,3/4-z
69 3/4-x,1/4+z,3/4+y
70 3/4-x,1/4-z,3/4-y
71 3/4+z,1/4-y,3/4+x
72 3/4-z,1/4-y,3/4-x
73 1/2+x,1/2+y,z
74 3/4-y,3/4+x,1/4+z
75 1/2-x,1/2-y,z
76 3/4+y,3/4-x,1/4+z
77 3/4+x,3/4-z,1/4+y
78 1/2+x,1/2-y,-z
79 3/4+x,3/4+z,1/4-y
80 3/4+z,3/4+y,1/4-x
81 1/2-x,1/2+y,-z
82 3/4-z,3/4+y,1/4+x
83 1/2+z,1/2+x,y
84 1/2+y,1/2+z,x
85 1/2-y,1/2-z,x
86 1/2+z,1/2-x,-y
87 1/2-y,1/2+z,-x
88 1/2-z,1/2-x,y
89 1/2-z,1/2+x,-y
90 1/2+y,1/2-z,-x
91 3/4+y,3/4+x,1/4-z
92 3/4-y,3/4-x,1/4-z
93 3/4-x,3/4+z,1/4+y
94 3/4-x,3/4-z,1/4-y
95 3/4+z,3/4-y,1/4+x
96 3/4-z,3/4-y,1/4-x
_cell_length_a                   25.0157(16)
_cell_length_b                   25.0157(16)
_cell_length_c                   25.0157(16)
_cell_angle_alpha                90
_cell_angle_beta                 90
_cell_angle_gamma                90
_cell_volume                     15654.5
_exptl_crystal_colour            colorless
_exptl_crystal_description       prism
_cell_formula_units_Z            8
_exptl_crystal_recrystallization_method chloroform
loop_
_atom_site_label
_atom_site_type_symbol
_atom_site_fract_x
_atom_site_fract_y
_atom_site_fract_z
N1 N 0.2760(2) 0.0456(2) 0.0372(2)
C1 C 0.3849(2) 0.0567(2) 0.1330(2)
H1 H 0.3768 0.0256 0.1532
C2 C 0.3530(3) 0.0707(2) 0.0891(2)
C3 C 0.3085(3) 0.0368(3) 0.0759(3)
H2 H 0.3029 0.0058 0.0972
C4 C 0.2319(2) 0.0110(2) 0.0281(2)
H3 H 0.2333 -0.0192 0.0542
C5 C 0.1804(2) 0.0432(4) 0.0369(4)
H4 H 0.1808 0.0584 0.0735
H5 H 0.1796 0.0735 0.0114
C6 C 0.1315(3) 0.0109(6) 0.0300(5)
H6 H 0.0994 0.0331 0.0365
H7 H 0.1313 -0.0193 0.0555
N1E N 0.2760(2) -0.0456(2) -0.0372(2)
N1JB N 0.4544(2) 0.0372(2) 0.2240(2)
N1IC N 0.4628(2) 0.2240(2) 0.0456(2)
N1HB N 0.4544(2) -0.0372(2) -0.2240(2)
N1MB N 0.5456(2) -0.0372(2) 0.2240(2)
N1GC N 0.5372(2) 0.2240(2) -0.0456(2)
N1JC N 0.4628(2) -0.2240(2) -0.0456(2)
N1B N 0.7240(2) -0.0456(2) 0.0372(2)
N1H N 0.7240(2) 0.0456(2) -0.0372(2)
N1GB N 0.5456(2) 0.0372(2) -0.2240(2)
N1DC N 0.5372(2) -0.2240(2) 0.0456(2)
C1E C 0.3849(2) -0.0567(2) -0.1330(2)
C1JB C 0.4433(2) 0.1330(2) 0.1151(2)
C1IC C 0.3670(2) 0.1151(2) 0.0567(2)
C1HB C 0.4433(2) -0.1330(2) -0.1151(2)
C1MB C 0.5567(2) -0.1330(2) 0.1151(2)
C1GC C 0.6330(2) 0.1151(2) -0.0567(2)
C1JC C 0.3670(2) -0.1151(2) -0.0567(2)
C1B C 0.6151(2) -0.0567(2) 0.1330(2)
C1H C 0.6151(2) 0.0567(2) -0.1330(2)
C1GB C 0.5567(2) 0.1330(2) -0.1151(2)
C1DC C 0.6330(2) -0.1151(2) 0.0567(2)
H1E H 0.3768 -0.0256 -0.1532
H1JB H 0.4744 0.1532 0.1232
H1IC H 0.3468 0.1232 0.0256
H1HB H 0.4744 -0.1532 -0.1232
H1MB H 0.5256 -0.1532 0.1232
H1GC H 0.6532 0.1232 -0.0256
H1JC H 0.3468 -0.1232 -0.0256
H1B H 0.6232 -0.0256 0.1532
H1H H 0.6232 0.0256 -0.1532
H1GB H 0.5256 0.1532 -0.1232
H1DC H 0.6532 -0.1232 0.0256
C2E C 0.3530(3) -0.0707(2) -0.0891(2)
C2JB C 0.4293(2) 0.0891(2) 0.1470(3)
C2IC C 0.4109(2) 0.1470(3) 0.0707(2)
C2HB C 0.4293(2) -0.0891(2) -0.1470(3)
C2MB C 0.5707(2) -0.0891(2) 0.1470(3)
C2GC C 0.5891(2) 0.1470(3) -0.0707(2)
C2JC C 0.4109(2) -0.1470(3) -0.0707(2)
C2B C 0.6470(3) -0.0707(2) 0.0891(2)
C2H C 0.6470(3) 0.0707(2) -0.0891(2)
C2GB C 0.5707(2) 0.0891(2) -0.1470(3)
C2DC C 0.5891(2) -0.1470(3) 0.0707(2)
C3E C 0.3085(3) -0.0368(3) -0.0759(3)
C3JB C 0.4632(3) 0.0759(3) 0.1915(3)
C3IC C 0.4241(3) 0.1915(3) 0.0368(3)
C3HB C 0.4632(3) -0.0759(3) -0.1915(3)
C3MB C 0.5368(3) -0.0759(3) 0.1915(3)
C3GC C 0.5759(3) 0.1915(3) -0.0368(3)
C3JC C 0.4241(3) -0.1915(3) -0.0368(3)
C3B C 0.6915(3) -0.0368(3) 0.0759(3)
C3H C 0.6915(3) 0.0368(3) -0.0759(3)
C3GB C 0.5368(3) 0.0759(3) -0.1915(3)
C3DC C 0.5759(3) -0.1915(3) 0.0368(3)
H2E H 0.3029 -0.0058 -0.0972
H2JB H 0.4942 0.0972 0.1971
H2IC H 0.4028 0.1971 0.0058
H2HB H 0.4942 -0.0972 -0.1971
H2MB H 0.5058 -0.0972 0.1971
H2GC H 0.5972 0.1971 -0.0058
H2JC H 0.4028 -0.1971 -0.0058
H2B H 0.6971 -0.0058 0.0972
H2H H 0.6971 0.0058 -0.0972
H2GB H 0.5058 0.0972 -0.1971
H2DC H 0.5972 -0.1971 0.0058
C4E C 0.2319(2) -0.0110(2) -0.0281(2)
C4JB C 0.4890(2) 0.0281(2) 0.2681(2)
C4IC C 0.4719(2) 0.2681(2) 0.0110(2)
C4HB C 0.4890(2) -0.0281(2) -0.2681(2)
C4MB C 0.5110(2) -0.0281(2) 0.2681(2)
C4GC C 0.5281(2) 0.2681(2) -0.0110(2)
C4JC C 0.4719(2) -0.2681(2) -0.0110(2)
C4B C 0.7681(2) -0.0110(2) 0.0281(2)
C4H C 0.7681(2) 0.0110(2) -0.0281(2)
C4GB C 0.5110(2) 0.0281(2) -0.2681(2)
C4DC C 0.5281(2) -0.2681(2) 0.0110(2)
H3E H 0.2333 0.0192 -0.0542
H3JB H 0.5192 0.0542 0.2667
H3IC H 0.4458 0.2667 -0.0192
H3HB H 0.5192 -0.0542 -0.2667
H3MB H 0.4808 -0.0542 0.2667
H3GC H 0.5542 0.2667 0.0192
H3JC H 0.4458 -0.2667 0.0192
H3B H 0.7667 0.0192 0.0542
H3H H 0.7667 -0.0192 -0.0542
H3GB H 0.4808 0.0542 -0.2667
H3DC H 0.5542 -0.2667 -0.0192
C5E C 0.1804(2) -0.0432(4) -0.0369(4)
C5JB C 0.4568(4) 0.0369(4) 0.3196(2)
C5IC C 0.4631(4) 0.3196(2) 0.0432(4)
C5HB C 0.4568(4) -0.0369(4) -0.3196(2)
C5MB C 0.5432(4) -0.0369(4) 0.3196(2)
C5GC C 0.5369(4) 0.3196(2) -0.0432(4)
C5JC C 0.4631(4) -0.3196(2) -0.0432(4)
C5B C 0.8196(2) -0.0432(4) 0.0369(4)
C5H C 0.8196(2) 0.0432(4) -0.0369(4)
C5GB C 0.5432(4) 0.0369(4) -0.3196(2)
C5DC C 0.5369(4) -0.3196(2) 0.0432(4)
H4E H 0.1808 -0.0584 -0.0735
H4JB H 0.4416 0.0735 0.3192
H4IC H 0.4265 0.3192 0.0584
H4HB H 0.4416 -0.0735 -0.3192
H4MB H 0.5584 -0.0735 0.3192
H4GC H 0.5735 0.3192 -0.0584
H4JC H 0.4265 -0.3192 -0.0584
H4B H 0.8192 -0.0584 0.0735
H4H H 0.8192 0.0584 -0.0735
H4GB H 0.5584 0.0735 -0.3192
H4DC H 0.5735 -0.3192 0.0584
H5E H 0.1796 -0.0735 -0.0114
H5JB H 0.4265 0.0114 0.3204
H5IC H 0.4886 0.3204 0.0735
H5HB H 0.4265 -0.0114 -0.3204
H5MB H 0.5735 -0.0114 0.3204
H5GC H 0.5114 0.3204 -0.0735
H5JC H 0.4886 -0.3204 -0.0735
H5B H 0.8204 -0.0735 0.0114
H5H H 0.8204 0.0735 -0.0114
H5GB H 0.5735 0.0114 -0.3204
H5DC H 0.5114 -0.3204 0.0735
C6E C 0.1315(3) -0.0109(6) -0.0300(5)
C6JB C 0.4891(6) 0.0300(5) 0.3685(3)
C6IC C 0.4700(5) 0.3685(3) 0.0109(6)
C6HB C 0.4891(6) -0.0300(5) -0.3685(3)
C6MB C 0.5109(6) -0.0300(5) 0.3685(3)
C6GC C 0.5300(5) 0.3685(3) -0.0109(6)
C6JC C 0.4700(5) -0.3685(3) -0.0109(6)
C6B C 0.8685(3) -0.0109(6) 0.0300(5)
C6H C 0.8685(3) 0.0109(6) -0.0300(5)
C6GB C 0.5109(6) 0.0300(5) -0.3685(3)
C6DC C 0.5300(5) -0.3685(3) 0.0109(6)
H6E H 0.0994 -0.0331 -0.0365
H6JB H 0.4669 0.0365 0.4006
H6IC H 0.4635 0.4006 0.0331
H6HB H 0.4669 -0.0365 -0.4006
H6MB H 0.5331 -0.0365 0.4006
H6GC H 0.5365 0.4006 -0.0331
H6JC H 0.4635 -0.4006 -0.0331
H6B H 0.9006 -0.0331 0.0365
H6H H 0.9006 0.0331 -0.0365
H6GB H 0.5331 0.0365 -0.4006
H6DC H 0.5365 -0.4006 0.0331
H7E H 0.1313 0.0193 -0.0555
H7JB H 0.5193 0.0555 0.3687
H7IC H 0.4445 0.3687 -0.0193
H7HB H 0.5193 -0.0555 -0.3687
H7MB H 0.4807 -0.0555 0.3687
H7GC H 0.5555 0.3687 0.0193
H7JC H 0.4445 -0.3687 0.0193
H7B H 0.8687 0.0193 0.0555
H7H H 0.8687 -0.0193 -0.0555
H7GB H 0.4807 0.0555 -0.3687
H7DC H 0.5555 -0.3687 -0.0193
loop_
_geom_bond_atom_site_label_1
_geom_bond_atom_site_label_2
_geom_bond_site_symmetry_1
_geom_bond_site_symmetry_2
N1 C3 1_555 1_555
C1 H1 1_555 1_555
C2 C1 1_555 1_555
C3 C2 1_555 1_555
H2 C3 1_555 1_555
C4 N1 1_555 1_555
H3 C4 1_555 1_555
C5 C4 1_555 1_555
H4 C5 1_555 1_555
H5 C5 1_555 1_555
C6 C5 1_555 1_555
H6 C6 1_555 1_555
H7 C6 1_555 1_555
N1E C3E 1_555 1_555
N1JB C3JB 1_555 1_555
N1IC C3IC 1_555 1_555
N1HB C3HB 1_555 1_555
N1MB C3MB 1_555 1_555
N1GC C3GC 1_555 1_555
N1JC C3JC 1_555 1_555
N1B C3B 1_555 1_555
N1H C3H 1_555 1_555
N1GB C3GB 1_555 1_555
N1DC C3DC 1_555 1_555
C1E H1E 1_555 1_555
C1JB H1JB 1_555 1_555
C1IC C2 1_555 1_555
C1HB H1HB 1_555 1_555
C1MB H1MB 1_555 1_555
C1GC H1GC 1_555 1_555
C1JC H1JC 1_555 1_555
C1B H1B 1_555 1_555
C1H H1H 1_555 1_555
C1GB H1GB 1_555 1_555
C1DC H1DC 1_555 1_555
H1IC C1IC 1_555 1_555
C2E C1E 1_555 1_555
C2JB C1 1_555 1_555
C2IC C1JB 1_555 1_555
C2HB C1E 1_555 1_555
C2MB C1MB 1_555 1_555
C2GC C1GC 1_555 1_555
C2JC C1HB 1_555 1_555
C2B C1B 1_555 1_555
C2H C1GC 1_555 1_555
C2GB C1H 1_555 1_555
C2DC C1MB 1_555 1_555
C3E C2E 1_555 1_555
C3JB C2JB 1_555 1_555
C3IC C2IC 1_555 1_555
C3HB C2HB 1_555 1_555
C3MB C2MB 1_555 1_555
C3GC C2GC 1_555 1_555
C3JC C2JC 1_555 1_555
C3B C2B 1_555 1_555
C3H C2H 1_555 1_555
C3GB C2GB 1_555 1_555
C3DC C2DC 1_555 1_555
H2E C3E 1_555 1_555
H2JB C3JB 1_555 1_555
H2IC C3IC 1_555 1_555
H2HB C3HB 1_555 1_555
H2MB C3MB 1_555 1_555
H2GC C3GC 1_555 1_555
H2JC C3JC 1_555 1_555
H2B C3B 1_555 1_555
H2H C3H 1_555 1_555
H2GB C3GB 1_555 1_555
H2DC C3DC 1_555 1_555
C4E C4 1_555 1_555
C4JB N1JB 1_555 1_555
C4IC N1IC 1_555 1_555
C4HB N1HB 1_555 1_555
C4MB N1MB 1_555 1_555
C4GC N1GC 1_555 1_555
C4JC N1JC 1_555 1_555
C4B N1B 1_555 1_555
C4H N1H 1_555 1_555
C4GB N1GB 1_555 1_555
C4DC N1DC 1_555 1_555
H3E C4E 1_555 1_555
H3JB C4JB 1_555 1_555
H3IC C4IC 1_555 1_555
H3HB C4HB 1_555 1_555
H3MB C4MB 1_555 1_555
H3GC C4GC 1_555 1_555
H3JC C4JC 1_555 1_555
H3B C4B 1_555 1_555
H3H C4H 1_555 1_555
H3GB C4GB 1_555 1_555
H3DC C4DC 1_555 1_555
C5E C4E 1_555 1_555
C5JB C4JB 1_555 1_555
C5IC C4IC 1_555 1_555
C5HB C4HB 1_555 1_555
C5MB C4MB 1_555 1_555
C5GC C4GC 1_555 1_555
C5JC C4JC 1_555 1_555
C5B C4B 1_555 1_555
C5H C4H 1_555 1_555
C5GB C4GB 1_555 1_555
C5DC C4DC 1_555 1_555
H4E C5E 1_555 1_555
H4JB C5JB 1_555 1_555
H4IC C5IC 1_555 1_555
H4HB C5HB 1_555 1_555
H4MB C5MB 1_555 1_555
H4GC C5GC 1_555 1_555
H4JC C5JC 1_555 1_555
H4B C5B 1_555 1_555
H4H C5H 1_555 1_555
H4GB C5GB 1_555 1_555
H4DC C5DC 1_555 1_555
H5E C5E 1_555 1_555
H5JB C5JB 1_555 1_555
H5IC C5IC 1_555 1_555
H5HB C5HB 1_555 1_555
H5MB C5MB 1_555 1_555
H5GC C5GC 1_555 1_555
H5JC C5JC 1_555 1_555
H5B C5B 1_555 1_555
H5H C5H 1_555 1_555
H5GB C5GB 1_555 1_555
H5DC C5DC 1_555 1_555
C6E C6 1_555 1_555
C6JB C5JB 1_555 1_555
C6IC C5IC 1_555 1_555
C6HB C5HB 1_555 1_555
C6MB C5MB 1_555 1_555
C6GC C5GC 1_555 1_555
C6JC C5JC 1_555 1_555
C6B C5B 1_555 1_555
C6H C5H 1_555 1_555
C6GB C5GB 1_555 1_555
C6DC C5DC 1_555 1_555
H6E C6E 1_555 1_555
H6JB C6JB 1_555 1_555
H6IC C6IC 1_555 1_555
H6HB C6HB 1_555 1_555
H6MB C6MB 1_555 1_555
H6GC C6GC 1_555 1_555
H6JC C6JC 1_555 1_555
H6B C6B 1_555 1_555
H6H C6H 1_555 1_555
H6GB C6GB 1_555 1_555
H6DC C6DC 1_555 1_555
H7E C6E 1_555 1_555
H7JB C6JB 1_555 1_555
H7IC C6IC 1_555 1_555
H7HB C6HB 1_555 1_555
H7MB C6MB 1_555 1_555
H7GC C6GC 1_555 1_555
H7JC C6JC 1_555 1_555
H7B C6B 1_555 1_555
H7H C6H 1_555 1_555
H7GB C6GB 1_555 1_555
H7DC C6DC 1_555 1_555
N1E C4E 1_555 1_555
C1JB C2JB 1_555 1_555
C1IC C2IC 1_555 1_555
C1HB C2HB 1_555 1_555
C1JC C2E 1_555 1_555
C1JC C2JC 1_555 1_555
C1B C2MB 1_555 1_555
C1H C2H 1_555 1_555
C1GB C2GC 1_555 1_555
C1GB C2GB 1_555 1_555
C1DC C2B 1_555 1_555
C1DC C2DC 1_555 1_555
C4JB C4MB 1_555 1_555
C4IC C4GC 1_555 1_555
C4HB C4GB 1_555 1_555
C4JC C4DC 1_555 1_555
C4B C4H 1_555 1_555
C5E C6E 1_555 1_555
C6JB C6MB 1_555 1_555
C6IC C6GC 1_555 1_555
C6HB C6GB 1_555 1_555
C6JC C6DC 1_555 1_555
C6B C6H 1_555 1_555

#END
