
#######################################################################
#
#                 Cambridge Crystallographic Data Centre
#                                CCDC 
#
#######################################################################
#
# If this CIF has been generated from an entry in the Cambridge 
# Structural Database, then it will include bibliographic, chemical, 
# crystal, experimental, refinement or atomic coordinate data resulting 
# from the CCDC's data processing and validation procedures.
#
#######################################################################

data_FOXLAH
_chemical_formula_moiety         'C24 H32 O2 S1'
_chemical_name_systematic        
3-hydroxy-21,24-epoxychola-14,20,22-triene-24-thione
_symmetry_cell_setting           monoclinic
_symmetry_space_group_name_H-M   'C 2'
_symmetry_Int_Tables_number      5
_space_group_name_Hall           'C 2y'
loop_
_symmetry_equiv_pos_site_id
_symmetry_equiv_pos_as_xyz
1 x,y,z
2 -x,y,-z
3 1/2+x,1/2+y,z
4 1/2-x,1/2+y,-z
_cell_length_a                   30.984(2)
_cell_length_b                   6.8036(3)
_cell_length_c                   22.5791(15)
_cell_angle_alpha                90
_cell_angle_beta                 116.983(8)
_cell_angle_gamma                90
_cell_volume                     4241.6
_exptl_crystal_colour            red
_exptl_crystal_description       prism
_cell_formula_units_Z            8
loop_
_atom_site_label
_atom_site_type_symbol
_atom_site_fract_x
_atom_site_fract_y
_atom_site_fract_z
S1 S -0.09413(5) 1.5383(2) 0.88125(7)
O1 O -0.00389(9) 1.4803(5) 0.91175(17)
O2 O 0.32426(10) 0.6955(5) 0.86332(15)
H1 H 0.3409 0.7704 0.8539
C1 C 0.22325(14) 0.8517(7) 0.7967(2)
H2 H 0.2343 0.7830 0.7684
H3 H 0.2006 0.9524 0.7700
C2 C 0.26683(16) 0.9518(7) 0.8528(2)
H4 H 0.2828 1.0356 0.8340
H5 H 0.2558 1.0339 0.8784
C3 C 0.30241(14) 0.8025(8) 0.8980(2)
H6 H 0.3279 0.8712 0.9359
C4 C 0.27770(13) 0.6593(7) 0.92372(19)
H7 H 0.2675 0.7288 0.9527
H8 H 0.3009 0.5599 0.9501
C5 C 0.23379(12) 0.5579(7) 0.86896(18)
H9 H 0.2457 0.4788 0.8431
C6 C 0.21144(16) 0.4156(7) 0.8997(2)
H10 H 0.2368 0.3344 0.9324
H11 H 0.1889 0.3297 0.8653
C7 C 0.18481(14) 0.5216(7) 0.93322(19)
H12 H 0.1692 0.4252 0.9487
H13 H 0.2081 0.5932 0.9716
C8 C 0.14691(13) 0.6640(6) 0.88622(18)
H14 H 0.1224 0.5859 0.8502
C9 C 0.16843(12) 0.8102(6) 0.85401(18)
H15 H 0.1925 0.8894 0.8901
C10 C 0.19578(13) 0.7029(6) 0.81986(18)
C11 C 0.12864(14) 0.9515(7) 0.8085(2)
H16 H 0.1031 0.8773 0.7734
H17 H 0.1420 1.0424 0.7881
C12 C 0.10722(14) 1.0679(7) 0.8473(2)
H18 H 0.1325 1.1475 0.8807
H19 H 0.0824 1.1558 0.8170
C13 C 0.08534(12) 0.9351(7) 0.88099(18)
C14 C 0.12168(12) 0.7735(6) 0.91892(18)
C15 C 0.12549(13) 0.7509(7) 0.97919(19)
H20 H 0.1459 0.6587 1.0093
C16 C 0.09409(14) 0.8870(7) 0.9947(2)
H21 H 0.1116 0.9447 1.0386
H22 H 0.0654 0.8207 0.9916
C17 C 0.08124(12) 1.0414(7) 0.93985(18)
H23 H 0.1076 1.1377 0.9571
C18 C 0.03739(13) 0.8465(8) 0.8302(2)
H24 H 0.0145 0.9499 0.8086
H25 H 0.0249 0.7605 0.8525
H26 H 0.0426 0.7733 0.7977
C19 C 0.16032(15) 0.5906(8) 0.7577(2)
H27 H 0.1413 0.5022 0.7695
H28 H 0.1782 0.5172 0.7399
H29 H 0.1393 0.6823 0.7250
C20 C 0.03528(13) 1.1568(7) 0.92369(19)
C21 C 0.03621(16) 1.3529(8) 0.9238(3)
H30 H 0.0655 1.4125 0.9324
C22 C -0.00956(13) 1.0703(7) 0.9115(2)
H31 H -0.0115 0.9340 0.9122
C23 C -0.04958(14) 1.1770(7) 0.8988(2)
H32 H -0.0781 1.1129 0.8912
C24 C -0.04867(14) 1.3863(7) 0.8970(2)
S2 S 0.51261(7) 1.0421(4) 0.66843(9)
O3 O 0.56059(17) 1.0187(6) 0.59974(19)
O4 O 0.70674(14) 0.3838(6) 0.23738(19)
H33 H 0.7028 0.4627 0.2079
C25 C 0.6234(2) 0.4663(9) 0.2664(2)
H34 H 0.6163 0.3950 0.2258
H35 H 0.5952 0.5451 0.2584
C26 C 0.6651(3) 0.6008(8) 0.2811(3)
H36 H 0.6708 0.6810 0.3194
H37 H 0.6572 0.6879 0.2435
C27 C 0.7109(2) 0.4873(10) 0.2948(3)
H38 H 0.7381 0.5794 0.3092
C28 C 0.72129(17) 0.3379(9) 0.3490(3)
H39 H 0.7306 0.4064 0.3907
H40 H 0.7485 0.2575 0.3537
C29 C 0.67810(15) 0.2033(7) 0.3358(2)
H41 H 0.6717 0.1262 0.2960
C30 C 0.69074(18) 0.0576(8) 0.3929(2)
H42 H 0.6667 -0.0465 0.3783
H43 H 0.7219 -0.0018 0.4035
C31 C 0.69297(18) 0.1499(8) 0.4554(2)
H44 H 0.7205 0.2380 0.4746
H45 H 0.6976 0.0476 0.4877
C32 C 0.64661(15) 0.2648(7) 0.4410(2)
H46 H 0.6197 0.1711 0.4244
C33 C 0.63599(15) 0.4206(7) 0.38566(19)
H47 H 0.6641 0.5085 0.4013
C34 C 0.63150(14) 0.3186(7) 0.3210(2)
C35 C 0.59244(17) 0.5452(9) 0.3761(2)
H48 H 0.5641 0.4616 0.3618
H49 H 0.5862 0.6414 0.3414
C36 C 0.60076(18) 0.6518(8) 0.4402(2)
H50 H 0.6284 0.7391 0.4536
H51 H 0.5726 0.7312 0.4319
C37 C 0.60990(13) 0.5070(7) 0.49620(18)
C38 C 0.64832(13) 0.3609(7) 0.50203(18)
C39 C 0.67947(15) 0.3293(8) 0.5654(2)
H52 H 0.7056 0.2434 0.5788
C40 C 0.66810(16) 0.4467(8) 0.6128(2)
H53 H 0.6971 0.5037 0.6480
H54 H 0.6517 0.3676 0.6322
C41 C 0.63435(15) 0.6062(7) 0.5662(2)
H55 H 0.6555 0.7095 0.5636
C42 C 0.56256(15) 0.4013(8) 0.4837(2)
H56 H 0.5520 0.3209 0.4447
H57 H 0.5381 0.4970 0.4774
H58 H 0.5681 0.3202 0.5213
C43 C 0.58798(17) 0.1767(11) 0.2921(3)
H59 H 0.5589 0.2470 0.2838
H60 H 0.5929 0.0726 0.3232
H61 H 0.5850 0.1223 0.2512
C44 C 0.60135(17) 0.7049(8) 0.5900(2)
C45 C 0.5924(3) 0.8988(9) 0.5803(3)
H62 H 0.6077 0.9653 0.5591
C46 C 0.57884(18) 0.6078(8) 0.6235(2)
H63 H 0.5831 0.4726 0.6289
C47 C 0.55014(16) 0.6996(8) 0.6495(2)
H64 H 0.5369 0.6302 0.6728
C48 C 0.54280(19) 0.9099(10) 0.6374(2)
loop_
_geom_bond_atom_site_label_1
_geom_bond_atom_site_label_2
_geom_bond_site_symmetry_1
_geom_bond_site_symmetry_2
S1 C24 1_555 1_555
O1 C21 1_555 1_555
O2 H1 1_555 1_555
C1 H2 1_555 1_555
H3 C1 1_555 1_555
C2 C1 1_555 1_555
H4 C2 1_555 1_555
H5 C2 1_555 1_555
C3 O2 1_555 1_555
H6 C3 1_555 1_555
C4 C3 1_555 1_555
H7 C4 1_555 1_555
H8 C4 1_555 1_555
C5 C4 1_555 1_555
H9 C5 1_555 1_555
C6 C5 1_555 1_555
H10 C6 1_555 1_555
H11 C6 1_555 1_555
C7 C6 1_555 1_555
H12 C7 1_555 1_555
H13 C7 1_555 1_555
C8 C7 1_555 1_555
H14 C8 1_555 1_555
C9 C8 1_555 1_555
H15 C9 1_555 1_555
C10 C1 1_555 1_555
C11 C9 1_555 1_555
H16 C11 1_555 1_555
H17 C11 1_555 1_555
C12 C11 1_555 1_555
H18 C12 1_555 1_555
H19 C12 1_555 1_555
C13 C12 1_555 1_555
C14 C8 1_555 1_555
C15 C14 1_555 1_555
H20 C15 1_555 1_555
C16 C15 1_555 1_555
H21 C16 1_555 1_555
H22 C16 1_555 1_555
C17 C13 1_555 1_555
H23 C17 1_555 1_555
C18 C13 1_555 1_555
H24 C18 1_555 1_555
H25 C18 1_555 1_555
H26 C18 1_555 1_555
C19 C10 1_555 1_555
H27 C19 1_555 1_555
H28 C19 1_555 1_555
H29 C19 1_555 1_555
C20 C17 1_555 1_555
C21 C20 1_555 1_555
H30 C21 1_555 1_555
C22 C20 1_555 1_555
H31 C22 1_555 1_555
C23 C22 1_555 1_555
H32 C23 1_555 1_555
C24 O1 1_555 1_555
S2 C48 1_555 1_555
O3 C45 1_555 1_555
O4 H33 1_555 1_555
C25 H34 1_555 1_555
H35 C25 1_555 1_555
C26 C25 1_555 1_555
H36 C26 1_555 1_555
H37 C26 1_555 1_555
C27 O4 1_555 1_555
H38 C27 1_555 1_555
C28 C27 1_555 1_555
H39 C28 1_555 1_555
H40 C28 1_555 1_555
C29 C28 1_555 1_555
H41 C29 1_555 1_555
C30 C29 1_555 1_555
H42 C30 1_555 1_555
H43 C30 1_555 1_555
C31 C30 1_555 1_555
H44 C31 1_555 1_555
H45 C31 1_555 1_555
C32 C31 1_555 1_555
H46 C32 1_555 1_555
C33 C32 1_555 1_555
H47 C33 1_555 1_555
C34 C25 1_555 1_555
C35 C33 1_555 1_555
H48 C35 1_555 1_555
H49 C35 1_555 1_555
C36 C35 1_555 1_555
H50 C36 1_555 1_555
H51 C36 1_555 1_555
C37 C36 1_555 1_555
C38 C32 1_555 1_555
C39 C38 1_555 1_555
H52 C39 1_555 1_555
C40 C39 1_555 1_555
H53 C40 1_555 1_555
H54 C40 1_555 1_555
C41 C37 1_555 1_555
H55 C41 1_555 1_555
C42 C37 1_555 1_555
H56 C42 1_555 1_555
H57 C42 1_555 1_555
H58 C42 1_555 1_555
C43 C34 1_555 1_555
H59 C43 1_555 1_555
H60 C43 1_555 1_555
H61 C43 1_555 1_555
C44 C41 1_555 1_555
C45 C44 1_555 1_555
H62 C45 1_555 1_555
C46 C44 1_555 1_555
H63 C46 1_555 1_555
C47 C46 1_555 1_555
H64 C47 1_555 1_555
C48 O3 1_555 1_555
C2 C3 1_555 1_555
C5 C10 1_555 1_555
C9 C10 1_555 1_555
C13 C14 1_555 1_555
C16 C17 1_555 1_555
C23 C24 1_555 1_555
C26 C27 1_555 1_555
C29 C34 1_555 1_555
C33 C34 1_555 1_555
C37 C38 1_555 1_555
C40 C41 1_555 1_555
C47 C48 1_555 1_555

#END
