
#######################################################################
#
#                 Cambridge Crystallographic Data Centre
#                                CCDC 
#
#######################################################################
#
# If this CIF has been generated from an entry in the Cambridge 
# Structural Database, then it will include bibliographic, chemical, 
# crystal, experimental, refinement or atomic coordinate data resulting 
# from the CCDC's data processing and validation procedures.
#
#######################################################################

data_FOXRER
_chemical_formula_moiety         'C22 H22 Br1 N1 O3 S1'
_chemical_name_systematic        
'2-Benzyl-4-(pyridin-4-yl)butyl 4-bromobenzenesulfonate'
_symmetry_cell_setting           triclinic
_symmetry_space_group_name_H-M   'P 1'
_symmetry_Int_Tables_number      1
_space_group_name_Hall           'P 1'
loop_
_symmetry_equiv_pos_site_id
_symmetry_equiv_pos_as_xyz
1 x,y,z
_cell_length_a                   7.4326(13)
_cell_length_b                   8.4705(15)
_cell_length_c                   8.8458(15)
_cell_angle_alpha                74.143(3)
_cell_angle_beta                 74.315(3)
_cell_angle_gamma                83.209(3)
_cell_volume                     515.179
_exptl_crystal_colour            colorless
_exptl_crystal_description       block
_cell_formula_units_Z            1
loop_
_atom_site_label
_atom_site_type_symbol
_atom_site_fract_x
_atom_site_fract_y
_atom_site_fract_z
Br1 Br 0.88604(3) 0.60628(3) -0.24677(3)
S1 S 0.10624(10) 0.39489(10) 0.25609(10)
O1 O 0.0453(3) 0.2625(3) 0.1873(3)
O2 O 0.1376(3) 0.3199(3) 0.4124(3)
O3 O -0.0294(3) 0.5265(3) 0.2358(4)
N1 N -0.7630(4) -0.2355(4) 0.5249(4)
C1 C 0.1510(4) 0.1044(4) 0.2066(4)
H1 H 0.1290 0.0466 0.3231
H2 H 0.2865 0.1218 0.1624
C2 C 0.0869(4) 0.0021(4) 0.1159(4)
H3 H 0.1558 -0.1073 0.1364
C3 C 0.1384(5) 0.0755(5) -0.0679(4)
H4 H 0.1012 -0.0008 -0.1199
H5 H 0.0633 0.1796 -0.0919
C4 C -0.1224(4) -0.0302(4) 0.1782(4)
H6 H -0.1946 0.0748 0.1498
H7 H -0.1521 -0.1056 0.1212
C5 C -0.1861(5) -0.1037(5) 0.3597(4)
H8 H -0.1073 -0.2040 0.3903
H9 H -0.1678 -0.0242 0.4175
C6 C -0.3878(4) -0.1468(4) 0.4133(4)
C7 C -0.5239(5) -0.0566(4) 0.4994(4)
H10 H -0.4922 0.0384 0.5222
C8 C -0.7060(5) -0.1046(4) 0.5523(4)
H11 H -0.7964 -0.0406 0.6120
C9 C -0.6313(5) -0.3203(5) 0.4385(5)
H12 H -0.6673 -0.4138 0.4162
C10 C -0.4470(5) -0.2807(4) 0.3801(5)
H13 H -0.3604 -0.3444 0.3173
C11 C 0.3420(4) 0.1102(4) -0.1460(4)
C12 C 0.3913(5) 0.2542(4) -0.2615(5)
H14 H 0.2961 0.3331 -0.2898
C13 C 0.5782(6) 0.2869(5) -0.3381(5)
H15 H 0.6089 0.3871 -0.4180
C14 C 0.7174(5) 0.1753(5) -0.2985(5)
H16 H 0.8449 0.1976 -0.3501
C15 C 0.6707(5) 0.0307(5) -0.1833(5)
H17 H 0.7666 -0.0478 -0.1558
C16 C 0.4852(5) -0.0019(4) -0.1068(4)
H18 H 0.4554 -0.1021 -0.0267
C17 C 0.3211(5) 0.4547(4) 0.1197(4)
C18 C 0.4861(5) 0.3972(4) 0.1652(4)
H19 H 0.4831 0.3278 0.2702
C19 C 0.6566(5) 0.4425(4) 0.0549(4)
H20 H 0.7712 0.4050 0.0839
C20 C 0.6562(5) 0.5421(4) -0.0966(5)
C21 C 0.4910(5) 0.5989(4) -0.1414(5)
H21 H 0.4938 0.6681 -0.2465
C22 C 0.3229(5) 0.5546(4) -0.0331(5)
H22 H 0.2087 0.5924 -0.0629
loop_
_geom_bond_atom_site_label_1
_geom_bond_atom_site_label_2
_geom_bond_site_symmetry_1
_geom_bond_site_symmetry_2
Br1 C20 1_555 1_555
S1 O1 1_555 1_555
O1 C1 1_555 1_555
O2 S1 1_555 1_555
O3 S1 1_555 1_555
N1 C8 1_555 1_555
C1 H1 1_555 1_555
H2 C1 1_555 1_555
C2 C1 1_555 1_555
H3 C2 1_555 1_555
C3 C2 1_555 1_555
H4 C3 1_555 1_555
H5 C3 1_555 1_555
C4 C2 1_555 1_555
H6 C4 1_555 1_555
H7 C4 1_555 1_555
C5 C4 1_555 1_555
H8 C5 1_555 1_555
H9 C5 1_555 1_555
C6 C5 1_555 1_555
C7 C6 1_555 1_555
H10 C7 1_555 1_555
C8 C7 1_555 1_555
H11 C8 1_555 1_555
C9 N1 1_555 1_555
H12 C9 1_555 1_555
C10 C6 1_555 1_555
H13 C10 1_555 1_555
C11 C3 1_555 1_555
C12 C11 1_555 1_555
H14 C12 1_555 1_555
C13 C12 1_555 1_555
H15 C13 1_555 1_555
C14 C13 1_555 1_555
H16 C14 1_555 1_555
C15 C14 1_555 1_555
H17 C15 1_555 1_555
C16 C11 1_555 1_555
H18 C16 1_555 1_555
C17 S1 1_555 1_555
C18 C17 1_555 1_555
H19 C18 1_555 1_555
C19 C18 1_555 1_555
H20 C19 1_555 1_555
C20 C19 1_555 1_555
C21 C20 1_555 1_555
H21 C21 1_555 1_555
C22 C17 1_555 1_555
H22 C22 1_555 1_555
C9 C10 1_555 1_555
C15 C16 1_555 1_555
C21 C22 1_555 1_555

#END
