
#######################################################################
#
#                 Cambridge Crystallographic Data Centre
#                                CCDC 
#
#######################################################################
#
# If this CIF has been generated from an entry in the Cambridge 
# Structural Database, then it will include bibliographic, chemical, 
# crystal, experimental, refinement or atomic coordinate data resulting 
# from the CCDC's data processing and validation procedures.
#
#######################################################################

data_FOXSAM04
_chemical_name_common            Isoalantolactone
_chemical_formula_moiety         'C15 H20 O2'
_chemical_name_systematic        
8a-methyl-3,5-bis(methylene)decahydronaphtho[2,3-b]furan-2(3H)-one
_symmetry_cell_setting           monoclinic
_symmetry_space_group_name_H-M   'P 21'
_symmetry_Int_Tables_number      4
_space_group_name_Hall           'P 2yb'
loop_
_symmetry_equiv_pos_site_id
_symmetry_equiv_pos_as_xyz
1 x,y,z
2 -x,1/2+y,-z
_cell_length_a                   8.7963(5)
_cell_length_b                   6.0396(4)
_cell_length_c                   12.5617(8)
_cell_angle_alpha                90
_cell_angle_beta                 105.977(3)
_cell_angle_gamma                90
_cell_volume                     641.576
_cell_formula_units_Z            2
loop_
_atom_site_label
_atom_site_type_symbol
_atom_site_fract_x
_atom_site_fract_y
_atom_site_fract_z
O1 O 0.24417(12) 0.6110(2) 0.45937(8)
O2 O 0.38220(14) 0.2990(3) 0.50584(11)
C1 C 0.33647(15) 0.4478(3) 0.44050(12)
C2 C 0.36398(15) 0.4800(3) 0.33034(12)
C3 C 0.4617(2) 0.3534(4) 0.29446(16)
H1 H 0.5172 0.2371 0.3397
H2 H 0.4766 0.3786 0.2234
C4 C 0.22997(17) 0.7851(3) 0.37592(12)
H3 H 0.3181 0.8930 0.4043
C5 C 0.25944(16) 0.6665(3) 0.27552(12)
H4 H 0.3170 0.7661 0.2362
C6 C 0.07533(18) 0.9095(3) 0.35729(13)
H5 H 0.0892 1.0583 0.3283
H6 H 0.0540 0.9303 0.4300
C7 C 0.10814(16) 0.5754(3) 0.19414(11)
H7 H 0.1315 0.5360 0.1238
H8 H 0.0760 0.4384 0.2254
C8 C -0.12592(17) 0.6005(3) 0.33207(12)
H9 H -0.2060 0.5190 0.2761
H10 H -0.1714 0.6500 0.3910
H11 H -0.0353 0.5037 0.3635
C9 C -0.07134(15) 0.8023(3) 0.27825(10)
C10 C -0.02868(15) 0.7390(3) 0.17001(10)
H12 H 0.0095 0.8773 0.1420
C11 C -0.20322(19) 0.9777(3) 0.25071(12)
H13 H -0.2331 1.0153 0.3190
H14 H -0.1624 1.1139 0.2244
C12 C -0.17429(18) 0.6646(3) 0.08166(11)
C13 C -0.1868(2) 0.4725(4) 0.02990(14)
H15 H -0.2821 0.4348 -0.0242
H16 H -0.1005 0.3718 0.0467
C14 C -0.34987(18) 0.8997(4) 0.16260(14)
H17 H -0.3978 0.7729 0.1915
H18 H -0.4287 1.0208 0.1450
C15 C -0.30775(19) 0.8303(4) 0.05801(13)
H19 H -0.4020 0.7646 0.0054
H20 H -0.2767 0.9628 0.0226
loop_
_geom_bond_atom_site_label_1
_geom_bond_atom_site_label_2
_geom_bond_site_symmetry_1
_geom_bond_site_symmetry_2
O1 C1 1_555 1_555
O2 C1 1_555 1_555
C1 C2 1_555 1_555
C2 C3 1_555 1_555
C3 H1 1_555 1_555
H2 C3 1_555 1_555
C4 O1 1_555 1_555
H3 C4 1_555 1_555
C5 C2 1_555 1_555
H4 C5 1_555 1_555
C6 C4 1_555 1_555
H5 C6 1_555 1_555
H6 C6 1_555 1_555
C7 C5 1_555 1_555
H7 C7 1_555 1_555
H8 C7 1_555 1_555
C8 H9 1_555 1_555
H10 C8 1_555 1_555
H11 C8 1_555 1_555
C9 C6 1_555 1_555
C10 C7 1_555 1_555
H12 C10 1_555 1_555
C11 C9 1_555 1_555
H13 C11 1_555 1_555
H14 C11 1_555 1_555
C12 C10 1_555 1_555
C13 C12 1_555 1_555
H15 C13 1_555 1_555
H16 C13 1_555 1_555
C14 C11 1_555 1_555
H17 C14 1_555 1_555
H18 C14 1_555 1_555
C15 C12 1_555 1_555
H19 C15 1_555 1_555
H20 C15 1_555 1_555
C4 C5 1_555 1_555
C8 C9 1_555 1_555
C9 C10 1_555 1_555
C14 C15 1_555 1_555

#END
