
#######################################################################
#
#                 Cambridge Crystallographic Data Centre
#                                CCDC 
#
#######################################################################
#
# If this CIF has been generated from an entry in the Cambridge 
# Structural Database, then it will include bibliographic, chemical, 
# crystal, experimental, refinement or atomic coordinate data resulting 
# from the CCDC's data processing and validation procedures.
#
#######################################################################

data_FOXTUH
_chemical_formula_moiety         'C40 H38 N6 O3'
_chemical_name_systematic        
'Benzimidazolo(2,1-n)purpurin-18 13^1^-imino-13^2^-imide methyl ester'
_symmetry_cell_setting           orthorhombic
_symmetry_space_group_name_H-M   'P 21 21 2'
_symmetry_Int_Tables_number      18
_space_group_name_Hall           'P 2 2ab'
loop_
_symmetry_equiv_pos_site_id
_symmetry_equiv_pos_as_xyz
1 x,y,z
2 -x,-y,z
3 1/2-x,1/2+y,-z
4 1/2+x,1/2-y,-z
_cell_length_a                   14.929(9)
_cell_length_b                   29.715(17)
_cell_length_c                   7.2950(10)
_cell_angle_alpha                90
_cell_angle_beta                 90
_cell_angle_gamma                90
_cell_volume                     3236.17
_exptl_crystal_colour            green
_exptl_crystal_description       plate
_cell_formula_units_Z            4
_exptl_crystal_recrystallization_method dichloromethane/methanol
loop_
_atom_site_label
_atom_site_type_symbol
_atom_site_fract_x
_atom_site_fract_y
_atom_site_fract_z
N1 N 0.2434(3) 0.23559(16) 0.2792(8)
H1 H 0.1850 0.2395 0.2751
N2 N 0.0872(3) 0.18050(16) 0.2993(8)
N3 N -0.0295(3) 0.26046(16) 0.2427(8)
H3 H 0.0287 0.2564 0.2504
N4 N 0.1230(3) 0.31912(15) 0.2285(8)
C1 C 0.3061(4) 0.2692(2) 0.2607(10)
C2 C 0.3936(4) 0.2488(2) 0.2753(10)
C3 C 0.3812(4) 0.2035(2) 0.2998(10)
C4 C 0.2855(4) 0.1948(2) 0.3053(10)
C5 C 0.2418(4) 0.1543(2) 0.3318(10)
H5 H 0.2780 0.1287 0.3564
C6 C 0.1489(4) 0.1476(2) 0.3259(10)
C7 C 0.1062(4) 0.1035(2) 0.3476(9)
C8 C 0.0174(4) 0.1104(2) 0.3258(10)
C9 C 0.0053(4) 0.1587(2) 0.2983(10)
C10 C -0.0764(4) 0.1808(2) 0.2738(10)
H6 H -0.1275 0.1617 0.2717
C11 C -0.0940(4) 0.2262(2) 0.2519(10)
C12 C -0.1787(4) 0.2466(2) 0.2334(10)
C13 C -0.1645(4) 0.2927(2) 0.2141(10)
C14 C -0.0712(4) 0.30127(19) 0.2198(9)
C15 C -0.0316(4) 0.34470(19) 0.2111(9)
C16 C 0.0624(4) 0.35313(19) 0.2168(9)
C17 C 0.1059(4) 0.39930(18) 0.2195(9)
H7 H 0.0823 0.4185 0.1178
C18 C 0.2048(4) 0.3878(2) 0.1881(11)
H8 H 0.2420 0.4033 0.2831
C19 C 0.2071(4) 0.3378(2) 0.2221(10)
C20 C 0.2870(4) 0.3147(2) 0.2365(10)
H9 H 0.3386 0.3334 0.2286
C21 C 0.4794(4) 0.2746(2) 0.2646(10)
H10 H 0.4721 0.3038 0.3254
H11 H 0.4954 0.2794 0.1357
H12 H 0.5271 0.2575 0.3255
C22 C 0.4488(4) 0.1683(2) 0.3191(10)
H13 H 0.4336 0.1433 0.3939
C23 C 0.5282(4) 0.1679(2) 0.2436(11)
H14 H 0.5466 0.1922 0.1675
H15 H 0.5676 0.1433 0.2647
C24 C 0.1544(5) 0.0596(2) 0.3813(11)
H16 H 0.1797 0.0596 0.5053
H17 H 0.2026 0.0560 0.2915
H18 H 0.1120 0.0345 0.3692
C25 C -0.0559(4) 0.0756(2) 0.3285(11)
H19 H -0.1000 0.0833 0.2321
H20 H -0.0294 0.0461 0.2961
C26 C -0.1041(6) 0.0708(3) 0.5050(13)
H21 H -0.1523 0.0487 0.4914
H22 H -0.1296 0.0999 0.5404
H23 H -0.0622 0.0607 0.5998
C27 C -0.2682(4) 0.2236(2) 0.2379(11)
H24 H -0.2812 0.2138 0.3632
H25 H -0.2671 0.1975 0.1561
H26 H -0.3147 0.2447 0.1972
C28 C -0.2239(4) 0.3296(2) 0.1863(10)
N5 N -0.3119(3) 0.33011(18) 0.1763(8)
C29 C -0.3344(4) 0.3757(2) 0.1525(10)
C30 C -0.4185(4) 0.3949(2) 0.1342(10)
H27 H -0.4712 0.3770 0.1369
C31 C -0.4230(4) 0.4411(2) 0.1119(10)
H28 H -0.4802 0.4547 0.0977
C32 C -0.3471(4) 0.4685(2) 0.1094(10)
H29 H -0.3530 0.5001 0.0933
C33 C -0.2615(4) 0.4490(2) 0.1308(10)
H30 H -0.2088 0.4670 0.1310
C34 C -0.2574(4) 0.4031(2) 0.1515(10)
C35 C -0.0933(4) 0.3829(2) 0.1861(10)
N6 N -0.1857(3) 0.37238(16) 0.1746(8)
O1 O -0.0721(3) 0.42259(14) 0.1757(7)
C36 C 0.0926(4) 0.42253(19) 0.4064(9)
H31 H 0.0284 0.4212 0.4399
H32 H 0.1267 0.4059 0.5009
C37 C 0.1226(5) 0.4708(2) 0.4059(10)
H33 H 0.1829 0.4728 0.3502
H34 H 0.0810 0.4887 0.3296
C38 C 0.1254(5) 0.4900(2) 0.5952(12)
C39 C 0.0847(5) 0.5485(2) 0.7958(10)
H35 H 0.0429 0.5739 0.7994
H36 H 0.1447 0.5589 0.8303
H37 H 0.0650 0.5252 0.8819
O2 O 0.1804(7) 0.4755(3) 0.7053(17)
O4 O 0.0873(3) 0.53008(16) 0.6130(7)
C40 C 0.2399(5) 0.3998(2) -0.0001(11)
H38 H 0.2371 0.4325 -0.0169
H39 H 0.2031 0.3851 -0.0937
H40 H 0.3021 0.3897 -0.0116
H2? H 0.0972 0.2095 0.2857
H4? H 0.1106 0.2903 0.2384
O3? O 0.1376(7) 0.4673(3) 0.7421(16)
loop_
_geom_bond_atom_site_label_1
_geom_bond_atom_site_label_2
_geom_bond_site_symmetry_1
_geom_bond_site_symmetry_2
N1 H1 1_555 1_555
N2 C6 1_555 1_555
N3 H3 1_555 1_555
N4 C16 1_555 1_555
C1 N1 1_555 1_555
C2 C1 1_555 1_555
C3 C2 1_555 1_555
C4 N1 1_555 1_555
C5 C4 1_555 1_555
H5 C5 1_555 1_555
C6 C5 1_555 1_555
C7 C6 1_555 1_555
C8 C7 1_555 1_555
C9 N2 1_555 1_555
C10 C9 1_555 1_555
H6 C10 1_555 1_555
C11 N3 1_555 1_555
C12 C11 1_555 1_555
C13 C12 1_555 1_555
C14 N3 1_555 1_555
C15 C14 1_555 1_555
C16 C15 1_555 1_555
C17 C16 1_555 1_555
H7 C17 1_555 1_555
C18 C17 1_555 1_555
H8 C18 1_555 1_555
C19 N4 1_555 1_555
C20 C1 1_555 1_555
H9 C20 1_555 1_555
C21 C2 1_555 1_555
H10 C21 1_555 1_555
H11 C21 1_555 1_555
H12 C21 1_555 1_555
C22 C3 1_555 1_555
H13 C22 1_555 1_555
C23 C22 1_555 1_555
H14 C23 1_555 1_555
H15 C23 1_555 1_555
C24 C7 1_555 1_555
H16 C24 1_555 1_555
H17 C24 1_555 1_555
H18 C24 1_555 1_555
C25 C8 1_555 1_555
H19 C25 1_555 1_555
H20 C25 1_555 1_555
C26 C25 1_555 1_555
H21 C26 1_555 1_555
H22 C26 1_555 1_555
H23 C26 1_555 1_555
C27 C12 1_555 1_555
H24 C27 1_555 1_555
H25 C27 1_555 1_555
H26 C27 1_555 1_555
C28 C13 1_555 1_555
N5 C28 1_555 1_555
C29 N5 1_555 1_555
C30 C29 1_555 1_555
H27 C30 1_555 1_555
C31 C30 1_555 1_555
H28 C31 1_555 1_555
C32 C31 1_555 1_555
H29 C32 1_555 1_555
C33 C32 1_555 1_555
H30 C33 1_555 1_555
C34 C29 1_555 1_555
C35 C15 1_555 1_555
N6 C28 1_555 1_555
O1 C35 1_555 1_555
C36 C17 1_555 1_555
H31 C36 1_555 1_555
H32 C36 1_555 1_555
C37 C36 1_555 1_555
H33 C37 1_555 1_555
H34 C37 1_555 1_555
C38 C37 1_555 1_555
C39 H35 1_555 1_555
H36 C39 1_555 1_555
H37 C39 1_555 1_555
O2 C38 1_555 1_555
O4 C38 1_555 1_555
C40 C18 1_555 1_555
H38 C40 1_555 1_555
H39 C40 1_555 1_555
H40 C40 1_555 1_555
C3 C4 1_555 1_555
C8 C9 1_555 1_555
C10 C11 1_555 1_555
C13 C14 1_555 1_555
C18 C19 1_555 1_555
C19 C20 1_555 1_555
C33 C34 1_555 1_555
C34 N6 1_555 1_555
C35 N6 1_555 1_555
C39 O4 1_555 1_555

#END
