
#######################################################################
#
#                 Cambridge Crystallographic Data Centre
#                                CCDC 
#
#######################################################################
#
# If this CIF has been generated from an entry in the Cambridge 
# Structural Database, then it will include bibliographic, chemical, 
# crystal, experimental, refinement or atomic coordinate data resulting 
# from the CCDC's data processing and validation procedures.
#
#######################################################################

data_FOXWIY
_chemical_formula_moiety         'C40 H38 N6 O2'
_chemical_name_systematic        
'Quinoxalino(2,3-n)deoxopyropheophorbide alpha methyl ester'
_symmetry_cell_setting           orthorhombic
_symmetry_space_group_name_H-M   'P 21 21 2'
_symmetry_Int_Tables_number      18
_space_group_name_Hall           'P 2 2ab'
loop_
_symmetry_equiv_pos_site_id
_symmetry_equiv_pos_as_xyz
1 x,y,z
2 -x,-y,z
3 1/2-x,1/2+y,-z
4 1/2+x,1/2-y,-z
_cell_length_a                   13.791(5)
_cell_length_b                   15.001(4)
_cell_length_c                   15.544(6)
_cell_angle_alpha                90
_cell_angle_beta                 90
_cell_angle_gamma                90
_cell_volume                     3215.72
_exptl_crystal_colour            blue
_exptl_crystal_description       block
_cell_formula_units_Z            4
_exptl_crystal_recrystallization_method dichloromethane/methanol
loop_
_atom_site_label
_atom_site_type_symbol
_atom_site_fract_x
_atom_site_fract_y
_atom_site_fract_z
N1 N 0.8756(2) 0.00809(18) 1.01179(17)
H1 H 0.8730 0.0661 1.0037
N2 N 0.8679(2) 0.16727(18) 1.13014(18)
N3 N 0.8716(2) 0.27827(17) 0.99252(17)
H2 H 0.8716 0.2210 1.0048
N4 N 0.8736(2) 0.12608(18) 0.86168(17)
C1 C 0.8749(2) -0.0538(2) 0.9471(2)
C2 C 0.8810(3) -0.1404(2) 0.9878(2)
C3 C 0.8847(2) -0.1270(2) 1.0748(2)
C4 C 0.8808(2) -0.0324(2) 1.0913(2)
C5 C 0.8775(3) 0.0091(2) 1.1698(2)
H3 H 0.8786 -0.0297 1.2181
C6 C 0.8728(3) 0.1010(2) 1.1895(2)
C7 C 0.8736(3) 0.1357(2) 1.2761(2)
C8 C 0.8683(3) 0.2266(2) 1.2687(2)
C9 C 0.8657(3) 0.2447(2) 1.1778(2)
C10 C 0.8646(3) 0.3296(2) 1.1393(2)
H4 H 0.8612 0.3796 1.1767
C11 C 0.8680(3) 0.3467(2) 1.0529(2)
C12 C 0.8705(3) 0.4302(2) 1.0059(2)
C13 C 0.8748(3) 0.4075(2) 0.9204(2)
C14 C 0.8751(2) 0.3124(2) 0.9131(2)
C15 C 0.8769(3) 0.2811(2) 0.8282(2)
C16 C 0.8753(3) 0.1919(2) 0.8024(2)
C17 C 0.8776(3) 0.1577(2) 0.7115(2)
H5 H 0.8261 0.1878 0.6767
C18 C 0.8512(3) 0.0583(2) 0.7242(2)
H6 H 0.8985 0.0201 0.6923
C19 C 0.8660(3) 0.0469(2) 0.8199(2)
C20 C 0.8678(3) -0.0359(2) 0.8602(2)
H7 H 0.8636 -0.0863 0.8233
C21 C 0.8870(3) -0.2266(2) 0.9387(2)
H8 H 0.8823 -0.2144 0.8769
H9 H 0.8336 -0.2657 0.9561
H10 H 0.9490 -0.2559 0.9510
C22 C 0.8960(3) -0.1935(2) 1.1438(2)
H11 H 0.9327 -0.1763 1.1927
C23 C 0.8599(3) -0.2747(2) 1.1436(2)
H12 H 0.8227 -0.2948 1.0960
H13 H 0.8710 -0.3132 1.1912
C24 C 0.8765(3) 0.0807(2) 1.3569(2)
H14 H 0.8804 0.0173 1.3418
H15 H 0.8175 0.0914 1.3905
H16 H 0.9334 0.0974 1.3910
C25 C 0.8668(3) 0.2950(2) 1.3392(2)
H17 H 0.8576 0.2640 1.3948
H18 H 0.8102 0.3345 1.3303
C26 C 0.9579(3) 0.3526(3) 1.3452(2)
H19 H 0.9510 0.3950 1.3928
H20 H 0.9667 0.3854 1.2912
H21 H 1.0144 0.3145 1.3554
C27 C 0.8681(3) 0.5215(2) 1.0445(2)
H22 H 0.8652 0.5167 1.1074
H23 H 0.8107 0.5535 1.0237
H24 H 0.9267 0.5542 1.0279
N5 N 0.8752(2) 0.52382(19) 0.80556(19)
N6 N 0.8754(2) 0.3700(2) 0.69252(18)
C28 C 0.8759(3) 0.4412(2) 0.8330(2)
C29 C 0.8761(2) 0.3632(2) 0.7753(2)
C30 C 0.8737(3) 0.5314(2) 0.7171(2)
C31 C 0.8706(3) 0.6189(2) 0.6815(3)
H25 H 0.8688 0.6695 0.7183
C32 C 0.8702(3) 0.6296(3) 0.5945(3)
H26 H 0.8685 0.6881 0.5712
C33 C 0.8723(3) 0.5568(3) 0.5391(3)
H27 H 0.8727 0.5658 0.4786
C34 C 0.8738(3) 0.4712(3) 0.5723(2)
H28 H 0.8743 0.4215 0.5344
C35 C 0.8746(3) 0.4575(2) 0.6613(2)
C36 C 0.9767(3) 0.1711(2) 0.6684(2)
H29 H 0.9973 0.2339 0.6755
H30 H 1.0254 0.1327 0.6970
C37 C 0.9729(3) 0.1486(3) 0.5735(2)
H31 H 0.9383 0.0913 0.5660
H32 H 0.9355 0.1952 0.5431
C38 C 1.0721(3) 0.1414(2) 0.5336(2)
C39 C 1.1694(3) 0.1766(3) 0.4133(3)
H33 H 1.1650 0.2078 0.3580
H34 H 1.1867 0.1141 0.4033
H35 H 1.2192 0.2048 0.4490
O1 O 1.1402(3) 0.1048(2) 0.5648(2)
O2 O 1.07673(19) 0.18106(17) 0.45692(15)
C40 C 0.7488(3) 0.0351(2) 0.6964(2)
H36 H 0.7427 0.0433 0.6340
H37 H 0.7027 0.0742 0.7260
H38 H 0.7349 -0.0272 0.7111
loop_
_geom_bond_atom_site_label_1
_geom_bond_atom_site_label_2
_geom_bond_site_symmetry_1
_geom_bond_site_symmetry_2
N1 H1 1_555 1_555
N2 C6 1_555 1_555
N3 H2 1_555 1_555
N4 C16 1_555 1_555
C1 N1 1_555 1_555
C2 C1 1_555 1_555
C3 C2 1_555 1_555
C4 N1 1_555 1_555
C5 C4 1_555 1_555
H3 C5 1_555 1_555
C6 C5 1_555 1_555
C7 C6 1_555 1_555
C8 C7 1_555 1_555
C9 N2 1_555 1_555
C10 C9 1_555 1_555
H4 C10 1_555 1_555
C11 N3 1_555 1_555
C12 C11 1_555 1_555
C13 C12 1_555 1_555
C14 N3 1_555 1_555
C15 C14 1_555 1_555
C16 C15 1_555 1_555
C17 C16 1_555 1_555
H5 C17 1_555 1_555
C18 C17 1_555 1_555
H6 C18 1_555 1_555
C19 N4 1_555 1_555
C20 C1 1_555 1_555
H7 C20 1_555 1_555
C21 C2 1_555 1_555
H8 C21 1_555 1_555
H9 C21 1_555 1_555
H10 C21 1_555 1_555
C22 C3 1_555 1_555
H11 C22 1_555 1_555
C23 C22 1_555 1_555
H12 C23 1_555 1_555
H13 C23 1_555 1_555
C24 C7 1_555 1_555
H14 C24 1_555 1_555
H15 C24 1_555 1_555
H16 C24 1_555 1_555
C25 C8 1_555 1_555
H17 C25 1_555 1_555
H18 C25 1_555 1_555
C26 C25 1_555 1_555
H19 C26 1_555 1_555
H20 C26 1_555 1_555
H21 C26 1_555 1_555
C27 C12 1_555 1_555
H22 C27 1_555 1_555
H23 C27 1_555 1_555
H24 C27 1_555 1_555
N5 C28 1_555 1_555
N6 C29 1_555 1_555
C28 C13 1_555 1_555
C29 C15 1_555 1_555
C30 N5 1_555 1_555
C31 C30 1_555 1_555
H25 C31 1_555 1_555
C32 C31 1_555 1_555
H26 C32 1_555 1_555
C33 C32 1_555 1_555
H27 C33 1_555 1_555
C34 C33 1_555 1_555
H28 C34 1_555 1_555
C35 N6 1_555 1_555
C36 C17 1_555 1_555
H29 C36 1_555 1_555
H30 C36 1_555 1_555
C37 C36 1_555 1_555
H31 C37 1_555 1_555
H32 C37 1_555 1_555
C38 C37 1_555 1_555
C39 H33 1_555 1_555
H34 C39 1_555 1_555
H35 C39 1_555 1_555
O1 C38 1_555 1_555
O2 C38 1_555 1_555
C40 C18 1_555 1_555
H36 C40 1_555 1_555
H37 C40 1_555 1_555
H38 C40 1_555 1_555
C3 C4 1_555 1_555
C8 C9 1_555 1_555
C10 C11 1_555 1_555
C13 C14 1_555 1_555
C18 C19 1_555 1_555
C19 C20 1_555 1_555
C28 C29 1_555 1_555
C30 C35 1_555 1_555
C34 C35 1_555 1_555
C39 O2 1_555 1_555

#END
