
#######################################################################
#
#                 Cambridge Crystallographic Data Centre
#                                CCDC 
#
#######################################################################
#
# If this CIF has been generated from an entry in the Cambridge 
# Structural Database, then it will include bibliographic, chemical, 
# crystal, experimental, refinement or atomic coordinate data resulting 
# from the CCDC's data processing and validation procedures.
#
#######################################################################

data_FOXWAS
_chemical_formula_moiety         'C23 H15 Cl1 N4,C1 H4 O1'
_chemical_name_systematic        
'6-(2-chloroquinolin-3-yl)-5,6-dihydrobenzimidazo[1,2-c]quinazoline methanol solvate'
_symmetry_cell_setting           triclinic
_symmetry_space_group_name_H-M   'P -1'
_symmetry_Int_Tables_number      2
_space_group_name_Hall           '-P 1'
loop_
_symmetry_equiv_pos_site_id
_symmetry_equiv_pos_as_xyz
1 x,y,z
2 -x,-y,-z
_cell_length_a                   9.3626(13)
_cell_length_b                   9.5165(16)
_cell_length_c                   12.620(2)
_cell_angle_alpha                85.853(7)
_cell_angle_beta                 86.132(7)
_cell_angle_gamma                80.744(7)
_cell_volume                     1105.1
_exptl_crystal_colour            colorless
_exptl_crystal_description       Rectangular
_cell_formula_units_Z            2
loop_
_atom_site_label
_atom_site_type_symbol
_atom_site_fract_x
_atom_site_fract_y
_atom_site_fract_z
C1 C 0.2325(4) 0.7270(4) 0.4987(3)
C2 C 0.1603(5) 0.8089(6) 0.5808(4)
H1 H 0.2123 0.8548 0.6240
C3 C 0.0121(6) 0.8202(7) 0.5961(4)
H2 H -0.0360 0.8763 0.6489
C4 C -0.0660(5) 0.7503(6) 0.5349(4)
H3 H -0.1656 0.7565 0.5487
C5 C 0.0005(4) 0.6718(5) 0.4541(3)
H4 H -0.0543 0.6270 0.4121
C6 C 0.1521(3) 0.6582(4) 0.4339(3)
C7 C 0.2286(3) 0.5799(3) 0.3515(2)
H5 H 0.1784 0.5322 0.3082
C8 C 0.3746(3) 0.5729(3) 0.3343(2)
C9 C 0.4428(3) 0.6447(3) 0.4066(2)
C10 C 0.4624(3) 0.5000(3) 0.2416(2)
H6 H 0.5524 0.4458 0.2680
C11 C 0.3716(4) 0.2634(3) 0.2316(3)
C12 C 0.4309(4) 0.1763(4) 0.3154(3)
H7 H 0.4887 0.2083 0.3627
C13 C 0.3984(5) 0.0372(4) 0.3246(3)
H8 H 0.4355 -0.0258 0.3795
C14 C 0.3122(5) -0.0075(4) 0.2535(3)
H9 H 0.2936 -0.1008 0.2614
C15 C 0.2530(4) 0.0803(4) 0.1714(3)
H10 H 0.1955 0.0476 0.1242
C16 C 0.2814(4) 0.2196(4) 0.1611(3)
C17 C 0.3018(4) 0.4352(4) 0.1091(3)
C18 C 0.3032(4) 0.5744(4) 0.0529(3)
C19 C 0.2133(5) 0.6236(5) -0.0320(4)
H11 H 0.1430 0.5713 -0.0488
C20 C 0.2297(6) 0.7488(5) -0.0896(4)
H12 H 0.1717 0.7812 -0.1461
C21 C 0.3344(6) 0.8264(5) -0.0620(4)
H13 H 0.3455 0.9111 -0.1011
C22 C 0.4202(5) 0.7826(4) 0.0195(3)
H14 H 0.4882 0.8374 0.0366
C23 C 0.4067(4) 0.6537(4) 0.0788(3)
N1 N 0.3799(3) 0.7170(3) 0.4841(2)
N2 N 0.3833(3) 0.4025(3) 0.1963(2)
N3 N 0.2381(3) 0.3299(3) 0.0844(2)
N4 N 0.4989(3) 0.6029(3) 0.1586(2)
H15 H 0.5805 0.6334 0.1589
Cl1 Cl 0.63067(8) 0.63743(11) 0.39114(7)
C24 C 0.0879(11) 1.2202(17) -0.1633(7)
H16 H 0.0231 1.2093 -0.1020
H17 H 0.1081 1.1323 -0.1983
H18 H 0.0436 1.2947 -0.2115
O1 O 0.2388(5) 1.2613(6) -0.1261(3)
H19 H 0.217(8) 1.306(7) -0.070(4)
loop_
_geom_bond_atom_site_label_1
_geom_bond_atom_site_label_2
_geom_bond_site_symmetry_1
_geom_bond_site_symmetry_2
C1 C2 1_555 1_555
C2 H1 1_555 1_555
C3 C2 1_555 1_555
H2 C3 1_555 1_555
C4 C3 1_555 1_555
H3 C4 1_555 1_555
C5 C4 1_555 1_555
H4 C5 1_555 1_555
C6 C1 1_555 1_555
C7 C6 1_555 1_555
H5 C7 1_555 1_555
C8 C7 1_555 1_555
C9 C8 1_555 1_555
C10 C8 1_555 1_555
H6 C10 1_555 1_555
C11 C12 1_555 1_555
C12 H7 1_555 1_555
C13 C12 1_555 1_555
H8 C13 1_555 1_555
C14 C13 1_555 1_555
H9 C14 1_555 1_555
C15 C14 1_555 1_555
H10 C15 1_555 1_555
C16 C11 1_555 1_555
C17 C18 1_555 1_555
C18 C19 1_555 1_555
C19 H11 1_555 1_555
C20 C19 1_555 1_555
H12 C20 1_555 1_555
C21 C20 1_555 1_555
H13 C21 1_555 1_555
C22 C21 1_555 1_555
H14 C22 1_555 1_555
C23 C18 1_555 1_555
N1 C1 1_555 1_555
N2 C10 1_555 1_555
N3 C16 1_555 1_555
N4 C10 1_555 1_555
H15 N4 1_555 1_555
Cl1 C9 1_555 1_555
C24 H16 1_555 1_555
H17 C24 1_555 1_555
H18 C24 1_555 1_555
O1 C24 1_555 1_555
H19 O1 1_555 1_555
C5 C6 1_555 1_555
C9 N1 1_555 1_555
C11 N2 1_555 1_555
C15 C16 1_555 1_555
C17 N2 1_555 1_555
C17 N3 1_555 1_555
C22 C23 1_555 1_555
C23 N4 1_555 1_555

#END
