
#######################################################################
#
#                 Cambridge Crystallographic Data Centre
#                                CCDC 
#
#######################################################################
#
# If this CIF has been generated from an entry in the Cambridge 
# Structural Database, then it will include bibliographic, chemical, 
# crystal, experimental, refinement or atomic coordinate data resulting 
# from the CCDC's data processing and validation procedures.
#
#######################################################################

data_FOXYOI
_chemical_formula_moiety         'C112 H116 K4 N16 O4,4(C4 H8 O1)'
_chemical_name_systematic        
"tetrakis(\m-N-(1,3-dimesityl-1,3-dihydro-2H-imidazol-2-ylidene)-N'-phenylcarbamimidoato)-tetra-potassium tetrahydrofuran solvate"
_symmetry_cell_setting           tetragonal
_symmetry_space_group_name_H-M   'P -4 21 c'
_symmetry_Int_Tables_number      114
_space_group_name_Hall           'P -4 2n'
loop_
_symmetry_equiv_pos_site_id
_symmetry_equiv_pos_as_xyz
1 x,y,z
2 -x,-y,z
3 1/2+x,1/2-y,1/2-z
4 1/2-x,1/2+y,1/2-z
5 1/2+y,1/2+x,1/2+z
6 1/2-y,1/2-x,1/2+z
7 -y,x,-z
8 y,-x,-z
_cell_length_a                   15.1711(6)
_cell_length_b                   15.1711(6)
_cell_length_c                   25.4506(13)
_cell_angle_alpha                90
_cell_angle_beta                 90
_cell_angle_gamma                90
_cell_volume                     5857.77
_exptl_crystal_colour            colorless
_exptl_crystal_description       block
_cell_formula_units_Z            2
loop_
_atom_site_label
_atom_site_type_symbol
_atom_site_fract_x
_atom_site_fract_y
_atom_site_fract_z
K1 K 0.06836(7) 0.10236(7) 0.06164(4)
O1 O 0.0676(2) 0.1011(2) -0.04471(12)
N1 N 0.1594(3) 0.2069(3) -0.01131(16)
N2 N 0.0853(3) 0.2346(3) -0.08845(18)
N3 N 0.2872(3) 0.2325(3) -0.06695(18)
N4 N 0.2765(3) 0.3039(3) 0.0076(2)
C1 C 0.2323(3) 0.2444(3) -0.0234(2)
C2 C 0.1027(3) 0.1770(3) -0.05148(18)
C3 C 0.0328(4) 0.2100(5) -0.1307(2)
C4 C 0.2393(4) 0.3461(4) 0.0527(2)
C5 C 0.1457(5) 0.4559(4) 0.0883(3)
H1 H 0.1050 0.5012 0.0838
C6 C 0.3560(4) 0.3274(4) -0.0165(3)
H2 H 0.3973 0.3666 -0.0029
C7 C 0.3627(4) 0.2847(4) -0.0619(3)
H3 H 0.4089 0.2887 -0.0859
C8 C 0.1706(5) 0.4343(5) 0.1381(3)
C9 C 0.2663(5) 0.3218(5) 0.1029(3)
C10 C 0.1518(6) 0.4398(5) -0.0095(3)
H4 H 0.1105 0.4877 -0.0078
H5 H 0.1249 0.3905 -0.0269
H6 H 0.2030 0.4581 -0.0288
C11 C 0.2316(5) 0.3680(5) 0.1444(3)
H7 H 0.2500 0.3538 0.1782
C12 C 0.1779(4) 0.4138(4) 0.0443(2)
C13 C 0.3331(6) 0.2486(7) 0.1092(4)
H8 H 0.3393 0.2345 0.1458
H9 H 0.3889 0.2674 0.0955
H10 H 0.3134 0.1974 0.0904
C14 C 0.1350(7) 0.4809(6) 0.1858(3)
H11 H 0.1385 0.5435 0.1806
H12 H 0.1691 0.4648 0.2161
H13 H 0.0746 0.4643 0.1912
C15 C 0.0402(7) 0.1323(7) -0.1584(3)
H14 H 0.0770 0.0884 -0.1455
C16 C -0.0250(6) 0.2699(9) -0.1505(3)
H15 H -0.0349 0.3179 -0.1285
C17 C -0.0053(11) 0.1171(12) -0.2051(4)
H16 H -0.0040 0.0676 -0.2267
C18 C -0.071(2) 0.223(5) -0.2134(18)
H17 H -0.0839 0.1842 -0.2406
C19 C -0.068(2) 0.273(5) -0.1931(10)
H18 H -0.0961 0.3247 -0.2036
C20 C 0.2867(3) 0.0774(4) -0.0937(2)
C21 C 0.3037(4) 0.0502(4) -0.0380(2)
H19 H 0.3067 0.1017 -0.0161
H20 H 0.3586 0.0189 -0.0361
H21 H 0.2568 0.0127 -0.0261
C22 C 0.2773(4) 0.1666(4) -0.1070(2)
C23 C 0.2473(5) 0.2880(5) -0.1721(3)
H22 H 0.2388 0.2938 -0.2093
H23 H 0.2973 0.3226 -0.1615
H24 H 0.1957 0.3085 -0.1540
C24 C 0.2632(4) 0.1929(5) -0.1587(2)
C25 C 0.2664(5) 0.0388(5) -0.1853(2)
C26 C 0.2583(5) 0.1276(5) -0.1972(3)
H25 H 0.2493 0.1443 -0.2320
C27 C 0.2804(4) 0.0156(4) -0.1331(2)
H26 H 0.2858 -0.0437 -0.1245
C28 C 0.2593(6) -0.0302(6) -0.2283(3)
H27 H 0.2671 -0.0878 -0.2133
H28 H 0.3040 -0.0200 -0.2542
H29 H 0.2022 -0.0266 -0.2445
K1F K -0.10236(7) 0.06836(7) -0.06164(4)
O1F O -0.1011(2) 0.0676(2) 0.04471(12)
N1F N -0.2069(3) 0.1594(3) 0.01131(16)
N2F N -0.2346(3) 0.0853(3) 0.08845(18)
N3F N -0.2325(3) 0.2872(3) 0.06695(18)
N4F N -0.3039(3) 0.2765(3) -0.0076(2)
C1F C -0.2444(3) 0.2323(3) 0.0234(2)
C2F C -0.1770(3) 0.1027(3) 0.05148(18)
C3F C -0.2100(5) 0.0328(4) 0.1307(2)
C4F C -0.3461(4) 0.2393(4) -0.0527(2)
C5F C -0.4559(4) 0.1457(5) -0.0883(3)
H1F H -0.5012 0.1050 -0.0838
C6F C -0.3274(4) 0.3560(4) 0.0165(3)
H2F H -0.3666 0.3973 0.0029
C7F C -0.2847(4) 0.3627(4) 0.0619(3)
H3F H -0.2887 0.4089 0.0859
C8F C -0.4343(5) 0.1706(5) -0.1381(3)
C9F C -0.3218(5) 0.2663(5) -0.1029(3)
C10F C -0.4398(5) 0.1518(6) 0.0095(3)
H4F H -0.4877 0.1105 0.0078
H5F H -0.3905 0.1249 0.0269
H6F H -0.4581 0.2030 0.0288
C11F C -0.3680(5) 0.2316(5) -0.1444(3)
H7F H -0.3538 0.2500 -0.1782
C12F C -0.4138(4) 0.1779(4) -0.0443(2)
C13F C -0.2486(7) 0.3331(6) -0.1092(4)
H8F H -0.2345 0.3393 -0.1458
H9F H -0.2674 0.3889 -0.0955
H10F H -0.1974 0.3134 -0.0904
C14F C -0.4809(6) 0.1350(7) -0.1858(3)
H11F H -0.5435 0.1385 -0.1806
H12F H -0.4648 0.1691 -0.2161
H13F H -0.4643 0.0746 -0.1912
C15F C -0.1323(7) 0.0402(7) 0.1584(3)
H14F H -0.0884 0.0770 0.1455
C16F C -0.2699(9) -0.0250(6) 0.1505(3)
H15F H -0.3179 -0.0349 0.1285
C17F C -0.1171(12) -0.0053(11) 0.2051(4)
H16F H -0.0676 -0.0040 0.2267
C18F C -0.223(5) -0.071(2) 0.2134(18)
H17F H -0.1842 -0.0839 0.2406
C19F C -0.273(5) -0.068(2) 0.1931(10)
H18F H -0.3247 -0.0961 0.2036
C20F C -0.0774(4) 0.2867(3) 0.0937(2)
C21F C -0.0502(4) 0.3037(4) 0.0380(2)
H19F H -0.1017 0.3067 0.0161
H20F H -0.0189 0.3586 0.0361
H21F H -0.0127 0.2568 0.0261
C22F C -0.1666(4) 0.2773(4) 0.1070(2)
C23F C -0.2880(5) 0.2473(5) 0.1721(3)
H22F H -0.2938 0.2388 0.2093
H23F H -0.3226 0.2973 0.1615
H24F H -0.3085 0.1957 0.1540
C24F C -0.1929(5) 0.2632(4) 0.1587(2)
C25F C -0.0388(5) 0.2664(5) 0.1853(2)
C26F C -0.1276(5) 0.2583(5) 0.1972(3)
H25F H -0.1443 0.2493 0.2320
C27F C -0.0156(4) 0.2804(4) 0.1331(2)
H26F H 0.0437 0.2858 0.1245
C28F C 0.0302(6) 0.2593(6) 0.2283(3)
H27F H 0.0878 0.2671 0.2133
H28F H 0.0200 0.3040 0.2542
H29F H 0.0266 0.2022 0.2445
K1G K 0.10236(7) -0.06836(7) -0.06164(4)
O1G O 0.1011(2) -0.0676(2) 0.04471(12)
N1G N 0.2069(3) -0.1594(3) 0.01131(16)
N2G N 0.2346(3) -0.0853(3) 0.08845(18)
N3G N 0.2325(3) -0.2872(3) 0.06695(18)
N4G N 0.3039(3) -0.2765(3) -0.0076(2)
C1G C 0.2444(3) -0.2323(3) 0.0234(2)
C2G C 0.1770(3) -0.1027(3) 0.05148(18)
C3G C 0.2100(5) -0.0328(4) 0.1307(2)
C4G C 0.3461(4) -0.2393(4) -0.0527(2)
C5G C 0.4559(4) -0.1457(5) -0.0883(3)
H1G H 0.5012 -0.1050 -0.0838
C6G C 0.3274(4) -0.3560(4) 0.0165(3)
H2G H 0.3666 -0.3973 0.0029
C7G C 0.2847(4) -0.3627(4) 0.0619(3)
H3G H 0.2887 -0.4089 0.0859
C8G C 0.4343(5) -0.1706(5) -0.1381(3)
C9G C 0.3218(5) -0.2663(5) -0.1029(3)
C10G C 0.4398(5) -0.1518(6) 0.0095(3)
H4G H 0.4877 -0.1105 0.0078
H5G H 0.3905 -0.1249 0.0269
H6G H 0.4581 -0.2030 0.0288
C11G C 0.3680(5) -0.2316(5) -0.1444(3)
H7G H 0.3538 -0.2500 -0.1782
C12G C 0.4138(4) -0.1779(4) -0.0443(2)
C13G C 0.2486(7) -0.3331(6) -0.1092(4)
H8G H 0.2345 -0.3393 -0.1458
H9G H 0.2674 -0.3889 -0.0955
H10G H 0.1974 -0.3134 -0.0904
C14G C 0.4809(6) -0.1350(7) -0.1858(3)
H11G H 0.5435 -0.1385 -0.1806
H12G H 0.4648 -0.1691 -0.2161
H13G H 0.4643 -0.0746 -0.1912
C15G C 0.1323(7) -0.0402(7) 0.1584(3)
H14G H 0.0884 -0.0770 0.1455
C16G C 0.2699(9) 0.0250(6) 0.1505(3)
H15G H 0.3179 0.0349 0.1285
C17G C 0.1171(12) 0.0053(11) 0.2051(4)
H16G H 0.0676 0.0040 0.2267
C18G C 0.223(5) 0.071(2) 0.2134(18)
H17G H 0.1842 0.0839 0.2406
C19G C 0.273(5) 0.068(2) 0.1931(10)
H18G H 0.3247 0.0961 0.2036
C20G C 0.0774(4) -0.2867(3) 0.0937(2)
C21G C 0.0502(4) -0.3037(4) 0.0380(2)
H19G H 0.1017 -0.3067 0.0161
H20G H 0.0189 -0.3586 0.0361
H21G H 0.0127 -0.2568 0.0261
C22G C 0.1666(4) -0.2773(4) 0.1070(2)
C23G C 0.2880(5) -0.2473(5) 0.1721(3)
H22G H 0.2938 -0.2388 0.2093
H23G H 0.3226 -0.2973 0.1615
H24G H 0.3085 -0.1957 0.1540
C24G C 0.1929(5) -0.2632(4) 0.1587(2)
C25G C 0.0388(5) -0.2664(5) 0.1853(2)
C26G C 0.1276(5) -0.2583(5) 0.1972(3)
H25G H 0.1443 -0.2493 0.2320
C27G C 0.0156(4) -0.2804(4) 0.1331(2)
H26G H -0.0437 -0.2858 0.1245
C28G C -0.0302(6) -0.2593(6) 0.2283(3)
H27G H -0.0878 -0.2671 0.2133
H28G H -0.0200 -0.3040 0.2542
H29G H -0.0266 -0.2022 0.2445
K1A K -0.06836(7) -0.10236(7) 0.06164(4)
O1A O -0.0676(2) -0.1011(2) -0.04471(12)
N1A N -0.1594(3) -0.2069(3) -0.01131(16)
N2A N -0.0853(3) -0.2346(3) -0.08845(18)
N3A N -0.2872(3) -0.2325(3) -0.06695(18)
N4A N -0.2765(3) -0.3039(3) 0.0076(2)
C1A C -0.2323(3) -0.2444(3) -0.0234(2)
C2A C -0.1027(3) -0.1770(3) -0.05148(18)
C3A C -0.0328(4) -0.2100(5) -0.1307(2)
C4A C -0.2393(4) -0.3461(4) 0.0527(2)
C5A C -0.1457(5) -0.4559(4) 0.0883(3)
H1A H -0.1050 -0.5012 0.0838
C6A C -0.3560(4) -0.3274(4) -0.0165(3)
H2A H -0.3973 -0.3666 -0.0029
C7A C -0.3627(4) -0.2847(4) -0.0619(3)
H3A H -0.4089 -0.2887 -0.0859
C8A C -0.1706(5) -0.4343(5) 0.1381(3)
C9A C -0.2663(5) -0.3218(5) 0.1029(3)
C10A C -0.1518(6) -0.4398(5) -0.0095(3)
H4A H -0.1105 -0.4877 -0.0078
H5A H -0.1249 -0.3905 -0.0269
H6A H -0.2030 -0.4581 -0.0288
C11A C -0.2316(5) -0.3680(5) 0.1444(3)
H7A H -0.2500 -0.3538 0.1782
C12A C -0.1779(4) -0.4138(4) 0.0443(2)
C13A C -0.3331(6) -0.2486(7) 0.1092(4)
H8A H -0.3393 -0.2345 0.1458
H9A H -0.3889 -0.2674 0.0955
H10A H -0.3134 -0.1974 0.0904
C14A C -0.1350(7) -0.4809(6) 0.1858(3)
H11A H -0.1385 -0.5435 0.1806
H12A H -0.1691 -0.4648 0.2161
H13A H -0.0746 -0.4643 0.1912
C15A C -0.0402(7) -0.1323(7) -0.1584(3)
H14A H -0.0770 -0.0884 -0.1455
C16A C 0.0250(6) -0.2699(9) -0.1505(3)
H15A H 0.0349 -0.3179 -0.1285
C17A C 0.0053(11) -0.1171(12) -0.2051(4)
H16A H 0.0040 -0.0676 -0.2267
C18A C 0.071(2) -0.223(5) -0.2134(18)
H17A H 0.0839 -0.1842 -0.2406
C19A C 0.068(2) -0.273(5) -0.1931(10)
H18A H 0.0961 -0.3247 -0.2036
C20A C -0.2867(3) -0.0774(4) -0.0937(2)
C21A C -0.3037(4) -0.0502(4) -0.0380(2)
H19A H -0.3067 -0.1017 -0.0161
H20A H -0.3586 -0.0189 -0.0361
H21A H -0.2568 -0.0127 -0.0261
C22A C -0.2773(4) -0.1666(4) -0.1070(2)
C23A C -0.2473(5) -0.2880(5) -0.1721(3)
H22A H -0.2388 -0.2938 -0.2093
H23A H -0.2973 -0.3226 -0.1615
H24A H -0.1957 -0.3085 -0.1540
C24A C -0.2632(4) -0.1929(5) -0.1587(2)
C25A C -0.2664(5) -0.0388(5) -0.1853(2)
C26A C -0.2583(5) -0.1276(5) -0.1972(3)
H25A H -0.2493 -0.1443 -0.2320
C27A C -0.2804(4) -0.0156(4) -0.1331(2)
H26A H -0.2858 0.0437 -0.1245
C28A C -0.2593(6) 0.0302(6) -0.2283(3)
H27A H -0.2671 0.0878 -0.2133
H28A H -0.3040 0.0200 -0.2542
H29A H -0.2022 0.0266 -0.2445
O2 O 0.5000 0.5000 0.0716(8)
C31 C 0.5275(15) 0.5603(16) 0.1068(9)
H32 H 0.5044 0.6173 0.0964
H33 H 0.5913 0.5638 0.1048
C32 C 0.505(2) 0.5456(12) 0.1576(7)
H34 H 0.4497 0.5748 0.1666
H35 H 0.5505 0.5646 0.1817
C31A C 0.4725(15) 0.4397(16) 0.1068(9)
H32A H 0.4956 0.3827 0.0964
H33A H 0.4087 0.4362 0.1048
C32A C 0.495(2) 0.4544(12) 0.1576(7)
H34A H 0.5503 0.4252 0.1666
H35A H 0.4495 0.4354 0.1817
C33 C 0.4776(12) 0.9227(10) 0.1424(5)
H36 H 0.4151 0.9090 0.1413
H37 H 0.5107 0.8702 0.1334
C34 C 0.5019(13) 0.9537(9) 0.1929(4)
H38 H 0.4620 0.9303 0.2192
H39 H 0.5611 0.9343 0.2013
O3 O 0.5000 1.0000 0.1039(8)
C33A C 0.5224(12) 1.0773(10) 0.1424(5)
H36A H 0.5849 1.0910 0.1413
H37A H 0.4893 1.1298 0.1334
C34A C 0.4981(13) 1.0463(9) 0.1929(4)
H38A H 0.5380 1.0697 0.2192
H39A H 0.4389 1.0657 0.2013
C29? C -0.052(2) 0.1666(19) -0.2263(9)
H30? H -0.0585 0.1683 -0.2627
C30? C -0.101(5) 0.225(6) -0.192(3)
H31? H -0.1610 0.2360 -0.1924
loop_
_geom_bond_atom_site_label_1
_geom_bond_atom_site_label_2
_geom_bond_site_symmetry_1
_geom_bond_site_symmetry_2
K1 O1 1_555 1_555
O1 C2 1_555 1_555
N1 K1 1_555 1_555
N2 C2 1_555 1_555
N3 C1 1_555 1_555
N4 C1 1_555 1_555
C1 N1 1_555 1_555
C2 N1 1_555 1_555
C3 N2 1_555 1_555
C4 N4 1_555 1_555
C5 H1 1_555 1_555
C6 N4 1_555 1_555
H2 C6 1_555 1_555
C7 N3 1_555 1_555
H3 C7 1_555 1_555
C8 C5 1_555 1_555
C9 C4 1_555 1_555
C10 H4 1_555 1_555
H5 C10 1_555 1_555
H6 C10 1_555 1_555
C11 C8 1_555 1_555
H7 C11 1_555 1_555
C12 C4 1_555 1_555
C13 C9 1_555 1_555
H8 C13 1_555 1_555
H9 C13 1_555 1_555
H10 C13 1_555 1_555
C14 C8 1_555 1_555
H11 C14 1_555 1_555
H12 C14 1_555 1_555
H13 C14 1_555 1_555
C15 C3 1_555 1_555
H14 C15 1_555 1_555
C16 C3 1_555 1_555
H15 C16 1_555 1_555
C17 C15 1_555 1_555
H16 C17 1_555 1_555
C18 C17 1_555 1_555
H17 C18 1_555 1_555
C19 C16 1_555 1_555
H18 C19 1_555 1_555
C20 C21 1_555 1_555
C21 H19 1_555 1_555
H20 C21 1_555 1_555
H21 C21 1_555 1_555
C22 N3 1_555 1_555
C23 H22 1_555 1_555
H23 C23 1_555 1_555
H24 C23 1_555 1_555
C24 C22 1_555 1_555
C25 C26 1_555 1_555
C26 C24 1_555 1_555
H25 C26 1_555 1_555
C27 C20 1_555 1_555
H26 C27 1_555 1_555
C28 C25 1_555 1_555
H27 C28 1_555 1_555
H28 C28 1_555 1_555
H29 C28 1_555 1_555
O2 C31 1_555 1_555
C31 H32 1_555 1_555
H33 C31 1_555 1_555
C32 C31 1_555 1_555
H34 C32 1_555 1_555
H35 C32 1_555 1_555
C33 H36 1_555 1_555
H37 C33 1_555 1_555
C34 C33 1_555 1_555
H38 C34 1_555 1_555
H39 C34 1_555 1_555
O3 C33 1_555 1_555
K1F O1 1_555 1_555
O1F K1 1_555 1_555
N1F K1F 1_555 1_555
N2F C2F 1_555 1_555
N3F C1F 1_555 1_555
N4F C1F 1_555 1_555
C1F N1F 1_555 1_555
C2F O1F 1_555 1_555
C3F N2F 1_555 1_555
C4F N4F 1_555 1_555
C5F H1F 1_555 1_555
C6F N4F 1_555 1_555
H2F C6F 1_555 1_555
C7F N3F 1_555 1_555
H3F C7F 1_555 1_555
C8F C5F 1_555 1_555
C9F C4F 1_555 1_555
C10F H4F 1_555 1_555
H5F C10F 1_555 1_555
H6F C10F 1_555 1_555
C11F C8F 1_555 1_555
H7F C11F 1_555 1_555
C12F C4F 1_555 1_555
C13F C9F 1_555 1_555
H8F C13F 1_555 1_555
H9F C13F 1_555 1_555
H10F C13F 1_555 1_555
C14F C8F 1_555 1_555
H11F C14F 1_555 1_555
H12F C14F 1_555 1_555
H13F C14F 1_555 1_555
C15F C3F 1_555 1_555
H14F C15F 1_555 1_555
C16F C3F 1_555 1_555
H15F C16F 1_555 1_555
C17F C15F 1_555 1_555
H16F C17F 1_555 1_555
C18F C17F 1_555 1_555
H17F C18F 1_555 1_555
C19F C16F 1_555 1_555
H18F C19F 1_555 1_555
C20F C21F 1_555 1_555
C21F H19F 1_555 1_555
H20F C21F 1_555 1_555
H21F C21F 1_555 1_555
C22F N3F 1_555 1_555
C23F H22F 1_555 1_555
H23F C23F 1_555 1_555
H24F C23F 1_555 1_555
C24F C22F 1_555 1_555
C25F C26F 1_555 1_555
C26F C24F 1_555 1_555
H25F C26F 1_555 1_555
C27F C20F 1_555 1_555
H26F C27F 1_555 1_555
C28F C25F 1_555 1_555
H27F C28F 1_555 1_555
H28F C28F 1_555 1_555
H29F C28F 1_555 1_555
K1G O1 1_555 1_555
O1G K1 1_555 1_555
N1G K1G 1_555 1_555
N2G C2G 1_555 1_555
N3G C1G 1_555 1_555
N4G C1G 1_555 1_555
C1G N1G 1_555 1_555
C2G O1G 1_555 1_555
C3G N2G 1_555 1_555
C4G N4G 1_555 1_555
C5G H1G 1_555 1_555
C6G N4G 1_555 1_555
H2G C6G 1_555 1_555
C7G N3G 1_555 1_555
H3G C7G 1_555 1_555
C8G C5G 1_555 1_555
C9G C4G 1_555 1_555
C10G H4G 1_555 1_555
H5G C10G 1_555 1_555
H6G C10G 1_555 1_555
C11G C8G 1_555 1_555
H7G C11G 1_555 1_555
C12G C4G 1_555 1_555
C13G C9G 1_555 1_555
H8G C13G 1_555 1_555
H9G C13G 1_555 1_555
H10G C13G 1_555 1_555
C14G C8G 1_555 1_555
H11G C14G 1_555 1_555
H12G C14G 1_555 1_555
H13G C14G 1_555 1_555
C15G C3G 1_555 1_555
H14G C15G 1_555 1_555
C16G C3G 1_555 1_555
H15G C16G 1_555 1_555
C17G C15G 1_555 1_555
H16G C17G 1_555 1_555
C18G C17G 1_555 1_555
H17G C18G 1_555 1_555
C19G C16G 1_555 1_555
H18G C19G 1_555 1_555
C20G C21G 1_555 1_555
C21G H19G 1_555 1_555
H20G C21G 1_555 1_555
H21G C21G 1_555 1_555
C22G N3G 1_555 1_555
C23G H22G 1_555 1_555
H23G C23G 1_555 1_555
H24G C23G 1_555 1_555
C24G C22G 1_555 1_555
C25G C26G 1_555 1_555
C26G C24G 1_555 1_555
H25G C26G 1_555 1_555
C27G C20G 1_555 1_555
H26G C27G 1_555 1_555
C28G C25G 1_555 1_555
H27G C28G 1_555 1_555
H28G C28G 1_555 1_555
H29G C28G 1_555 1_555
K1A O1F 1_555 1_555
O1A K1F 1_555 1_555
N1A K1A 1_555 1_555
N2A C2A 1_555 1_555
N3A C1A 1_555 1_555
N4A C1A 1_555 1_555
C1A N1A 1_555 1_555
C2A O1A 1_555 1_555
C3A N2A 1_555 1_555
C4A N4A 1_555 1_555
C5A H1A 1_555 1_555
C6A N4A 1_555 1_555
H2A C6A 1_555 1_555
C7A N3A 1_555 1_555
H3A C7A 1_555 1_555
C8A C5A 1_555 1_555
C9A C4A 1_555 1_555
C10A H4A 1_555 1_555
H5A C10A 1_555 1_555
H6A C10A 1_555 1_555
C11A C8A 1_555 1_555
H7A C11A 1_555 1_555
C12A C4A 1_555 1_555
C13A C9A 1_555 1_555
H8A C13A 1_555 1_555
H9A C13A 1_555 1_555
H10A C13A 1_555 1_555
C14A C8A 1_555 1_555
H11A C14A 1_555 1_555
H12A C14A 1_555 1_555
H13A C14A 1_555 1_555
C15A C3A 1_555 1_555
H14A C15A 1_555 1_555
C16A C3A 1_555 1_555
H15A C16A 1_555 1_555
C17A C15A 1_555 1_555
H16A C17A 1_555 1_555
C18A C17A 1_555 1_555
H17A C18A 1_555 1_555
C19A C16A 1_555 1_555
H18A C19A 1_555 1_555
C20A C21A 1_555 1_555
C21A H19A 1_555 1_555
H20A C21A 1_555 1_555
H21A C21A 1_555 1_555
C22A N3A 1_555 1_555
C23A H22A 1_555 1_555
H23A C23A 1_555 1_555
H24A C23A 1_555 1_555
C24A C22A 1_555 1_555
C25A C26A 1_555 1_555
C26A C24A 1_555 1_555
H25A C26A 1_555 1_555
C27A C20A 1_555 1_555
H26A C27A 1_555 1_555
C28A C25A 1_555 1_555
H27A C28A 1_555 1_555
H28A C28A 1_555 1_555
H29A C28A 1_555 1_555
C31A O2 1_555 1_555
H32A C31A 1_555 1_555
H33A C31A 1_555 1_555
C32A C32 1_555 1_555
H34A C32A 1_555 1_555
H35A C32A 1_555 1_555
C33A O3 1_555 1_555
H36A C33A 1_555 1_555
H37A C33A 1_555 1_555
C34A C34 1_555 1_555
H38A C34A 1_555 1_555
H39A C34A 1_555 1_555
C5 C12 1_555 1_555
C6 C7 1_555 1_555
C9 C11 1_555 1_555
C10 C12 1_555 1_555
C18 C19 1_555 1_555
C20 C22 1_555 1_555
C23 C24 1_555 1_555
C25 C27 1_555 1_555
K1F O1F 1_555 1_555
N1F C2F 1_555 1_555
C5F C12F 1_555 1_555
C6F C7F 1_555 1_555
C9F C11F 1_555 1_555
C10F C12F 1_555 1_555
C18F C19F 1_555 1_555
C20F C22F 1_555 1_555
C23F C24F 1_555 1_555
C25F C27F 1_555 1_555
K1G O1G 1_555 1_555
K1G O1A 1_555 1_555
O1G K1A 1_555 1_555
N1G C2G 1_555 1_555
C5G C12G 1_555 1_555
C6G C7G 1_555 1_555
C9G C11G 1_555 1_555
C10G C12G 1_555 1_555
C18G C19G 1_555 1_555
C20G C22G 1_555 1_555
C23G C24G 1_555 1_555
C25G C27G 1_555 1_555
K1A O1A 1_555 1_555
N1A C2A 1_555 1_555
C5A C12A 1_555 1_555
C6A C7A 1_555 1_555
C9A C11A 1_555 1_555
C10A C12A 1_555 1_555
C18A C19A 1_555 1_555
C20A C22A 1_555 1_555
C23A C24A 1_555 1_555
C25A C27A 1_555 1_555
C31A C32A 1_555 1_555
C33A C34A 1_555 1_555

#END
