
#######################################################################
#
#                 Cambridge Crystallographic Data Centre
#                                CCDC 
#
#######################################################################
#
# If this CIF has been generated from an entry in the Cambridge 
# Structural Database, then it will include bibliographic, chemical, 
# crystal, experimental, refinement or atomic coordinate data resulting 
# from the CCDC's data processing and validation procedures.
#
#######################################################################

data_FOXZAV
_chemical_formula_moiety         'C66 H98 Li2 N8 O4,2(C18 H26 N4 O1)'
_chemical_name_systematic        
'bis(\m-2,6-di-t-butyl-4-methylphenolato)-bis(1-(1,3-di-t-butyl-1,3-dihydro-2H-imidazol-2-ylidene)-3-phenylurea)-di-lithium bis(1-(1,3-di-t-butyl-1,3-dihydro-2H-imidazol-2-ylidene)-3-phenylurea)'
_symmetry_cell_setting           monoclinic
_symmetry_space_group_name_H-M   'P 2/c'
_symmetry_Int_Tables_number      13
_space_group_name_Hall           '-P 2yc'
loop_
_symmetry_equiv_pos_site_id
_symmetry_equiv_pos_as_xyz
1 x,y,z
2 -x,y,1/2-z
3 -x,-y,-z
4 x,-y,1/2+z
_cell_length_a                   16.8744(6)
_cell_length_b                   14.2505(6)
_cell_length_c                   23.1944(13)
_cell_angle_alpha                90
_cell_angle_beta                 114.678(4)
_cell_angle_gamma                90
_cell_volume                     5068.12
_exptl_crystal_colour            colorless
_exptl_crystal_description       needle
_cell_formula_units_Z            2
loop_
_atom_site_label
_atom_site_type_symbol
_atom_site_fract_x
_atom_site_fract_y
_atom_site_fract_z
Li1 Li 0.5806(5) 0.7453(7) 0.2643(4)
N1 N 0.8736(3) 0.7385(3) 0.3996(2)
N2 N 0.8631(3) 0.5861(3) 0.38540(19)
N3 N 0.8323(3) 0.6779(3) 0.29175(19)
N4 N 0.7314(3) 0.7045(3) 0.1893(2)
H1 H 0.6779 0.7186 0.1658
O1 O 0.6892(2) 0.7159(3) 0.26946(17)
O2 O 0.5194(2) 0.7541(3) 0.31492(16)
C1 C 0.8515(3) 0.6699(4) 0.3546(2)
C2 C 0.8982(4) 0.6963(4) 0.4584(2)
H2 H 0.9158 0.7271 0.4972
C3 C 0.8922(4) 0.6038(4) 0.4495(3)
H3 H 0.9053 0.5587 0.4811
C4 C 0.8561(4) 0.4900(4) 0.3571(3)
C5 C 0.7720(4) 0.4803(4) 0.2967(3)
H4 H 0.7768 0.5161 0.2632
H5 H 0.7238 0.5033 0.3043
H6 H 0.7625 0.4155 0.2845
C6 C 0.9357(4) 0.4750(5) 0.3429(3)
H7 H 0.9878 0.4836 0.3811
H8 H 0.9347 0.5195 0.3116
H9 H 0.9346 0.4125 0.3272
C7 C 0.8538(6) 0.4187(5) 0.4053(3)
H10 H 0.8081 0.4347 0.4178
H11 H 0.9088 0.4191 0.4418
H12 H 0.8432 0.3573 0.3866
C8 C 0.8657(4) 0.8437(4) 0.3920(3)
C9 C 0.8692(5) 0.8764(5) 0.3306(3)
H13 H 0.9190 0.8491 0.3270
H14 H 0.8738 0.9435 0.3309
H15 H 0.8170 0.8571 0.2952
C10 C 0.7802(4) 0.8722(5) 0.3946(4)
H16 H 0.7745 0.9393 0.3918
H17 H 0.7801 0.8513 0.4339
H18 H 0.7323 0.8440 0.3598
C11 C 0.9428(4) 0.8868(4) 0.4479(3)
H19 H 0.9964 0.8610 0.4496
H20 H 0.9377 0.8729 0.4867
H21 H 0.9428 0.9536 0.4425
C12 C 0.7518(3) 0.6999(4) 0.2540(2)
C13 C 0.7834(3) 0.6899(4) 0.1557(2)
C14 C 0.7413(3) 0.6713(4) 0.0912(2)
H22 H 0.6809 0.6648 0.0725
C15 C 0.7874(4) 0.6622(4) 0.0544(3)
H23 H 0.7577 0.6502 0.0112
C16 C 0.8769(4) 0.6708(4) 0.0810(3)
H24 H 0.9080 0.6654 0.0562
C17 C 0.9193(4) 0.6877(5) 0.1453(3)
H25 H 0.9798 0.6925 0.1640
C18 C 0.8738(4) 0.6978(4) 0.1826(3)
H26 H 0.9037 0.7099 0.2257
C19 C 0.5083(3) 0.7549(4) 0.3688(2)
C20 C 0.5149(3) 0.6701(4) 0.4032(2)
C21 C 0.4987(3) 0.6733(4) 0.4580(2)
H27 H 0.5026 0.6180 0.4803
C22 C 0.4773(3) 0.7551(4) 0.4801(2)
C23 C 0.4722(3) 0.8366(4) 0.4467(3)
H28 H 0.4583 0.8921 0.4614
C24 C 0.4868(3) 0.8398(4) 0.3918(2)
C25 C 0.5392(4) 0.5764(4) 0.3823(3)
C26 C 0.6279(4) 0.5836(5) 0.3783(3)
H29 H 0.6429 0.5237 0.3667
H30 H 0.6719 0.6022 0.4188
H31 H 0.6241 0.6294 0.3469
C27 C 0.5474(5) 0.4962(5) 0.4284(3)
H32 H 0.5620 0.4392 0.4129
H33 H 0.4930 0.4882 0.4317
H34 H 0.5924 0.5108 0.4694
C28 C 0.4603(4) 0.7557(5) 0.5396(3)
H35 H 0.5144 0.7480 0.5763
H36 H 0.4215 0.7052 0.5376
H37 H 0.4341 0.8144 0.5424
C29 C 0.4812(4) 0.9343(4) 0.3583(3)
C30 C 0.5721(4) 0.9600(5) 0.3625(3)
H38 H 0.5945 0.9086 0.3470
H39 H 0.6107 0.9724 0.4059
H40 H 0.5677 1.0148 0.3373
C31 C 0.4145(4) 0.9315(4) 0.2884(3)
H41 H 0.3612 0.9037 0.2857
H42 H 0.4375 0.8948 0.2642
H43 H 0.4032 0.9942 0.2718
C32 C 0.4519(5) 1.0149(5) 0.3889(3)
H44 H 0.4911 1.0197 0.4330
H45 H 0.3940 1.0026 0.3852
H46 H 0.4522 1.0727 0.3678
C33 C 0.4671(4) 0.5458(5) 0.3176(3)
H47 H 0.4823 0.4863 0.3055
H48 H 0.4616 0.5919 0.2860
H49 H 0.4126 0.5401 0.3212
Li1A Li 0.4194(5) 0.7453(7) 0.2357(4)
N1A N 0.1264(3) 0.7385(3) 0.1004(2)
N2A N 0.1369(3) 0.5861(3) 0.11460(19)
N3A N 0.1677(3) 0.6779(3) 0.20825(19)
N4A N 0.2686(3) 0.7045(3) 0.3107(2)
H1A H 0.3221 0.7186 0.3342
O1A O 0.3108(2) 0.7159(3) 0.23054(17)
O2A O 0.4806(2) 0.7541(3) 0.18508(16)
C1A C 0.1485(3) 0.6699(4) 0.1454(2)
C2A C 0.1018(4) 0.6963(4) 0.0416(2)
H2A H 0.0842 0.7271 0.0028
C3A C 0.1078(4) 0.6038(4) 0.0505(3)
H3A H 0.0947 0.5587 0.0189
C4A C 0.1439(4) 0.4900(4) 0.1429(3)
C5A C 0.2280(4) 0.4803(4) 0.2033(3)
H4A H 0.2232 0.5161 0.2368
H5A H 0.2762 0.5033 0.1957
H6A H 0.2375 0.4155 0.2155
C6A C 0.0643(4) 0.4750(5) 0.1571(3)
H7A H 0.0122 0.4836 0.1189
H8A H 0.0653 0.5195 0.1884
H9A H 0.0654 0.4125 0.1728
C7A C 0.1462(6) 0.4187(5) 0.0947(3)
H10A H 0.1919 0.4347 0.0822
H11A H 0.0912 0.4191 0.0582
H12A H 0.1568 0.3573 0.1134
C8A C 0.1343(4) 0.8437(4) 0.1080(3)
C9A C 0.1308(5) 0.8764(5) 0.1694(3)
H13A H 0.0810 0.8491 0.1730
H14A H 0.1262 0.9435 0.1691
H15A H 0.1830 0.8571 0.2048
C10A C 0.2198(4) 0.8722(5) 0.1054(4)
H16A H 0.2255 0.9393 0.1082
H17A H 0.2199 0.8513 0.0661
H18A H 0.2677 0.8440 0.1402
C11A C 0.0572(4) 0.8868(4) 0.0521(3)
H19A H 0.0036 0.8610 0.0504
H20A H 0.0623 0.8729 0.0133
H21A H 0.0572 0.9536 0.0575
C12A C 0.2482(3) 0.6999(4) 0.2460(2)
C13A C 0.2166(3) 0.6899(4) 0.3443(2)
C14A C 0.2587(3) 0.6713(4) 0.4088(2)
H22A H 0.3191 0.6648 0.4275
C15A C 0.2126(4) 0.6622(4) 0.4456(3)
H23A H 0.2423 0.6502 0.4888
C16A C 0.1231(4) 0.6708(4) 0.4190(3)
H24A H 0.0920 0.6654 0.4438
C17A C 0.0807(4) 0.6877(5) 0.3547(3)
H25A H 0.0202 0.6925 0.3360
C18A C 0.1262(4) 0.6978(4) 0.3174(3)
H26A H 0.0963 0.7099 0.2743
C19A C 0.4917(3) 0.7549(4) 0.1312(2)
C20A C 0.4851(3) 0.6701(4) 0.0968(2)
C21A C 0.5013(3) 0.6733(4) 0.0420(2)
H27A H 0.4974 0.6180 0.0197
C22A C 0.5227(3) 0.7551(4) 0.0199(2)
C23A C 0.5278(3) 0.8366(4) 0.0533(3)
H28A H 0.5417 0.8921 0.0386
C24A C 0.5132(3) 0.8398(4) 0.1082(2)
C25A C 0.4608(4) 0.5764(4) 0.1177(3)
C26A C 0.3721(4) 0.5836(5) 0.1217(3)
H29A H 0.3571 0.5237 0.1333
H30A H 0.3281 0.6022 0.0812
H31A H 0.3759 0.6294 0.1531
C27A C 0.4526(5) 0.4962(5) 0.0716(3)
H32A H 0.4380 0.4392 0.0871
H33A H 0.5070 0.4882 0.0683
H34A H 0.4076 0.5108 0.0306
C28A C 0.5397(4) 0.7557(5) -0.0396(3)
H35A H 0.4856 0.7480 -0.0763
H36A H 0.5785 0.7052 -0.0376
H37A H 0.5659 0.8144 -0.0424
C29A C 0.5188(4) 0.9343(4) 0.1417(3)
C30A C 0.4279(4) 0.9600(5) 0.1375(3)
H38A H 0.4055 0.9086 0.1530
H39A H 0.3893 0.9724 0.0941
H40A H 0.4323 1.0148 0.1627
C31A C 0.5855(4) 0.9315(4) 0.2116(3)
H41A H 0.6388 0.9037 0.2143
H42A H 0.5625 0.8948 0.2358
H43A H 0.5968 0.9942 0.2282
C32A C 0.5481(5) 1.0149(5) 0.1111(3)
H44A H 0.5089 1.0197 0.0670
H45A H 0.6060 1.0026 0.1148
H46A H 0.5478 1.0727 0.1322
C33A C 0.5329(4) 0.5458(5) 0.1824(3)
H47A H 0.5177 0.4863 0.1945
H48A H 0.5384 0.5919 0.2140
H49A H 0.5874 0.5401 0.1788
N5 N 0.2201(3) 0.7525(3) 0.89444(19)
N6 N 0.2133(3) 0.9050(3) 0.9037(2)
N7 N 0.0826(3) 0.8308(3) 0.82937(19)
N8 N -0.0624(3) 0.8260(3) 0.8072(2)
H50 H -0.0687 0.8328 0.7687
O3 O 0.0384(2) 0.7972(3) 0.90885(16)
C34 C 0.1660(3) 0.8283(4) 0.8738(2)
C35 C 0.2956(3) 0.8762(4) 0.9443(3)
H51 H 0.3405 0.9147 0.9708
C36 C 0.2997(3) 0.7839(4) 0.9389(3)
H52 H 0.3480 0.7466 0.9613
C37 C 0.2010(3) 0.6502(4) 0.8792(2)
C38 C 0.1253(4) 0.6348(4) 0.8143(3)
H53 H 0.1378 0.6658 0.7823
H54 H 0.0728 0.6603 0.8146
H55 H 0.1179 0.5689 0.8053
C39 C 0.2827(4) 0.6049(5) 0.8782(3)
H56 H 0.3290 0.6063 0.9201
H57 H 0.3001 0.6391 0.8497
H58 H 0.2702 0.5411 0.8641
C40 C 0.1787(5) 0.6079(4) 0.9306(3)
H59 H 0.1268 0.6369 0.9296
H60 H 0.2260 0.6182 0.9713
H61 H 0.1690 0.5417 0.9234
C41 C 0.1829(4) 1.0055(4) 0.8909(3)
C42 C 0.0999(4) 1.0197(5) 0.9006(4)
H62 H 0.1079 0.9949 0.9412
H63 H 0.0524 0.9877 0.8677
H64 H 0.0870 1.0855 0.8991
C43 C 0.1691(5) 1.0301(5) 0.8236(3)
H65 H 0.1229 0.9922 0.7941
H66 H 0.2219 1.0183 0.8185
H67 H 0.1538 1.0952 0.8157
C44 C 0.2528(4) 1.0685(5) 0.9380(3)
H68 H 0.3052 1.0637 0.9315
H69 H 0.2645 1.0493 0.9805
H70 H 0.2328 1.1324 0.9318
C45 C 0.0221(3) 0.8164(4) 0.8526(2)
C46 C -0.1392(3) 0.8259(4) 0.8169(2)
C47 C -0.1400(4) 0.8371(4) 0.8765(3)
H71 H -0.0881 0.8448 0.9124
C48 C -0.2196(4) 0.8368(5) 0.8815(3)
H72 H -0.2201 0.8446 0.9212
C49 C -0.2979(4) 0.8252(5) 0.8289(4)
H73 H -0.3503 0.8238 0.8331
C50 C -0.2965(4) 0.8157(5) 0.7702(3)
H74 H -0.3486 0.8086 0.7343
C51 C -0.2180(3) 0.8167(4) 0.7641(3)
H75 H -0.2183 0.8112 0.7241
loop_
_geom_bond_atom_site_label_1
_geom_bond_atom_site_label_2
_geom_bond_site_symmetry_1
_geom_bond_site_symmetry_2
Li1 O1 1_555 1_555
N1 C1 1_555 1_555
N2 C1 1_555 1_555
N3 C1 1_555 1_555
N4 H1 1_555 1_555
O1 C12 1_555 1_555
O2 Li1 1_555 1_555
C2 N1 1_555 1_555
H2 C2 1_555 1_555
C3 N2 1_555 1_555
H3 C3 1_555 1_555
C4 N2 1_555 1_555
C5 C4 1_555 1_555
H4 C5 1_555 1_555
H5 C5 1_555 1_555
H6 C5 1_555 1_555
C6 C4 1_555 1_555
H7 C6 1_555 1_555
H8 C6 1_555 1_555
H9 C6 1_555 1_555
C7 C4 1_555 1_555
H10 C7 1_555 1_555
H11 C7 1_555 1_555
H12 C7 1_555 1_555
C8 N1 1_555 1_555
C9 C8 1_555 1_555
H13 C9 1_555 1_555
H14 C9 1_555 1_555
H15 C9 1_555 1_555
C10 C8 1_555 1_555
H16 C10 1_555 1_555
H17 C10 1_555 1_555
H18 C10 1_555 1_555
C11 C8 1_555 1_555
H19 C11 1_555 1_555
H20 C11 1_555 1_555
H21 C11 1_555 1_555
C12 N3 1_555 1_555
C13 N4 1_555 1_555
C14 C13 1_555 1_555
H22 C14 1_555 1_555
C15 C14 1_555 1_555
H23 C15 1_555 1_555
C16 C15 1_555 1_555
H24 C16 1_555 1_555
C17 C16 1_555 1_555
H25 C17 1_555 1_555
C18 C13 1_555 1_555
H26 C18 1_555 1_555
C19 O2 1_555 1_555
C20 C19 1_555 1_555
C21 C20 1_555 1_555
H27 C21 1_555 1_555
C22 C21 1_555 1_555
C23 C22 1_555 1_555
H28 C23 1_555 1_555
C24 C19 1_555 1_555
C25 C20 1_555 1_555
C26 C25 1_555 1_555
H29 C26 1_555 1_555
H30 C26 1_555 1_555
H31 C26 1_555 1_555
C27 C25 1_555 1_555
H32 C27 1_555 1_555
H33 C27 1_555 1_555
H34 C27 1_555 1_555
C28 C22 1_555 1_555
H35 C28 1_555 1_555
H36 C28 1_555 1_555
H37 C28 1_555 1_555
C29 C24 1_555 1_555
C30 C29 1_555 1_555
H38 C30 1_555 1_555
H39 C30 1_555 1_555
H40 C30 1_555 1_555
C31 C29 1_555 1_555
H41 C31 1_555 1_555
H42 C31 1_555 1_555
H43 C31 1_555 1_555
C32 C29 1_555 1_555
H44 C32 1_555 1_555
H45 C32 1_555 1_555
H46 C32 1_555 1_555
C33 C25 1_555 1_555
H47 C33 1_555 1_555
H48 C33 1_555 1_555
H49 C33 1_555 1_555
N5 C34 1_555 1_555
N6 C34 1_555 1_555
N7 C34 1_555 1_555
N8 H50 1_555 1_555
O3 C45 1_555 1_555
C35 N6 1_555 1_555
H51 C35 1_555 1_555
C36 N5 1_555 1_555
H52 C36 1_555 1_555
C37 N5 1_555 1_555
C38 C37 1_555 1_555
H53 C38 1_555 1_555
H54 C38 1_555 1_555
H55 C38 1_555 1_555
C39 C37 1_555 1_555
H56 C39 1_555 1_555
H57 C39 1_555 1_555
H58 C39 1_555 1_555
C40 C37 1_555 1_555
H59 C40 1_555 1_555
H60 C40 1_555 1_555
H61 C40 1_555 1_555
C41 N6 1_555 1_555
C42 C41 1_555 1_555
H62 C42 1_555 1_555
H63 C42 1_555 1_555
H64 C42 1_555 1_555
C43 C41 1_555 1_555
H65 C43 1_555 1_555
H66 C43 1_555 1_555
H67 C43 1_555 1_555
C44 C41 1_555 1_555
H68 C44 1_555 1_555
H69 C44 1_555 1_555
H70 C44 1_555 1_555
C45 N7 1_555 1_555
C46 N8 1_555 1_555
C47 C46 1_555 1_555
H71 C47 1_555 1_555
C48 C47 1_555 1_555
H72 C48 1_555 1_555
C49 C48 1_555 1_555
H73 C49 1_555 1_555
C50 C49 1_555 1_555
H74 C50 1_555 1_555
C51 C46 1_555 1_555
H75 C51 1_555 1_555
Li1A O2 1_555 1_555
N1A C1A 1_555 1_555
N2A C1A 1_555 1_555
N3A C1A 1_555 1_555
N4A H1A 1_555 1_555
O1A Li1A 1_555 1_555
O2A Li1 1_555 1_555
C2A N1A 1_555 1_555
H2A C2A 1_555 1_555
C3A N2A 1_555 1_555
H3A C3A 1_555 1_555
C4A N2A 1_555 1_555
C5A C4A 1_555 1_555
H4A C5A 1_555 1_555
H5A C5A 1_555 1_555
H6A C5A 1_555 1_555
C6A C4A 1_555 1_555
H7A C6A 1_555 1_555
H8A C6A 1_555 1_555
H9A C6A 1_555 1_555
C7A C4A 1_555 1_555
H10A C7A 1_555 1_555
H11A C7A 1_555 1_555
H12A C7A 1_555 1_555
C8A N1A 1_555 1_555
C9A C8A 1_555 1_555
H13A C9A 1_555 1_555
H14A C9A 1_555 1_555
H15A C9A 1_555 1_555
C10A C8A 1_555 1_555
H16A C10A 1_555 1_555
H17A C10A 1_555 1_555
H18A C10A 1_555 1_555
C11A C8A 1_555 1_555
H19A C11A 1_555 1_555
H20A C11A 1_555 1_555
H21A C11A 1_555 1_555
C12A N3A 1_555 1_555
C13A N4A 1_555 1_555
C14A C13A 1_555 1_555
H22A C14A 1_555 1_555
C15A C14A 1_555 1_555
H23A C15A 1_555 1_555
C16A C15A 1_555 1_555
H24A C16A 1_555 1_555
C17A C16A 1_555 1_555
H25A C17A 1_555 1_555
C18A C13A 1_555 1_555
H26A C18A 1_555 1_555
C19A O2A 1_555 1_555
C20A C19A 1_555 1_555
C21A C20A 1_555 1_555
H27A C21A 1_555 1_555
C22A C21A 1_555 1_555
C23A C22A 1_555 1_555
H28A C23A 1_555 1_555
C24A C19A 1_555 1_555
C25A C20A 1_555 1_555
C26A C25A 1_555 1_555
H29A C26A 1_555 1_555
H30A C26A 1_555 1_555
H31A C26A 1_555 1_555
C27A C25A 1_555 1_555
H32A C27A 1_555 1_555
H33A C27A 1_555 1_555
H34A C27A 1_555 1_555
C28A C22A 1_555 1_555
H35A C28A 1_555 1_555
H36A C28A 1_555 1_555
H37A C28A 1_555 1_555
C29A C24A 1_555 1_555
C30A C29A 1_555 1_555
H38A C30A 1_555 1_555
H39A C30A 1_555 1_555
H40A C30A 1_555 1_555
C31A C29A 1_555 1_555
H41A C31A 1_555 1_555
H42A C31A 1_555 1_555
H43A C31A 1_555 1_555
C32A C29A 1_555 1_555
H44A C32A 1_555 1_555
H45A C32A 1_555 1_555
H46A C32A 1_555 1_555
C33A C25A 1_555 1_555
H47A C33A 1_555 1_555
H48A C33A 1_555 1_555
H49A C33A 1_555 1_555
N4 C12 1_555 1_555
C2 C3 1_555 1_555
C17 C18 1_555 1_555
C23 C24 1_555 1_555
N8 C45 1_555 1_555
C35 C36 1_555 1_555
C50 C51 1_555 1_555
Li1A O2A 1_555 1_555
N4A C12A 1_555 1_555
O1A C12A 1_555 1_555
C2A C3A 1_555 1_555
C17A C18A 1_555 1_555
C23A C24A 1_555 1_555

#END
