
#######################################################################
#
#                 Cambridge Crystallographic Data Centre
#                                CCDC 
#
#######################################################################
#
# If this CIF has been generated from an entry in the Cambridge 
# Structural Database, then it will include bibliographic, chemical, 
# crystal, experimental, refinement or atomic coordinate data resulting 
# from the CCDC's data processing and validation procedures.
#
#######################################################################

data_FOYBUR
_chemical_formula_moiety         'C12 H16 Cl2 N2 O2'
_chemical_name_systematic        
2,5-Dichloro-3-(diethylamino)-6-(ethylamino)-1,4-benzoquinone
_symmetry_cell_setting           triclinic
_symmetry_space_group_name_H-M   'P -1'
_symmetry_Int_Tables_number      2
_space_group_name_Hall           '-P 1'
loop_
_symmetry_equiv_pos_site_id
_symmetry_equiv_pos_as_xyz
1 x,y,z
2 -x,-y,-z
_cell_length_a                   5.0263(8)
_cell_length_b                   7.9682(12)
_cell_length_c                   16.768(3)
_cell_angle_alpha                91.364(3)
_cell_angle_beta                 94.230(3)
_cell_angle_gamma                92.226(3)
_cell_volume                     668.993
_exptl_crystal_colour            black
_cell_formula_units_Z            2
loop_
_atom_site_label
_atom_site_type_symbol
_atom_site_fract_x
_atom_site_fract_y
_atom_site_fract_z
Cl1 Cl 1.18980(16) -0.18258(10) 0.23598(5)
Cl2 Cl 0.29540(15) 0.35085(9) 0.19324(5)
N1 N 0.8331(6) -0.0923(3) 0.07764(16)
N2 N 0.6185(5) 0.2544(3) 0.35723(14)
O1 O 1.0470(4) 0.0604(3) 0.35016(12)
O2 O 0.5008(5) 0.1456(3) 0.07548(12)
C1 C 0.9374(5) -0.0423(3) 0.22113(17)
C2 C 0.8961(5) 0.0615(3) 0.28985(17)
C3 C 0.6684(5) 0.1831(3) 0.28676(16)
C4 C 0.5552(5) 0.2165(3) 0.21191(16)
C5 C 0.6144(6) 0.1223(3) 0.14176(17)
C6 C 0.8099(6) -0.0170(3) 0.14793(17)
C7 C 0.9510(9) -0.2515(5) 0.0582(2)
C8 C 0.7886(8) -0.3980(4) 0.0834(2)
H1 H 0.7734 -0.3903 0.1401
H2 H 0.8735 -0.4999 0.0704
H3 H 0.6138 -0.3986 0.0561
C9 C 0.5077(7) 0.4209(4) 0.3670(2)
H4 H 0.4788 0.4411 0.4230
H5 H 0.3362 0.4231 0.3366
C10 C 0.6895(8) 0.5578(4) 0.3396(3)
H6 H 0.8618 0.5530 0.3680
H7 H 0.6159 0.6649 0.3499
H8 H 0.7071 0.5432 0.2832
C11 C 0.6302(6) 0.1588(4) 0.43202(17)
H9 H 0.6717 0.0437 0.4196
H10 H 0.4554 0.1569 0.4530
C12 C 0.8343(7) 0.2298(5) 0.4961(2)
H11 H 1.0094 0.2268 0.4770
H12 H 0.8278 0.1638 0.5432
H13 H 0.7950 0.3439 0.5089
H14 H 0.719(6) -0.056(4) 0.041(2)
H15 H 1.125(8) -0.253(4) 0.079(2)
H16 H 0.972(7) -0.243(5) 0.005(3)
loop_
_geom_bond_atom_site_label_1
_geom_bond_atom_site_label_2
_geom_bond_site_symmetry_1
_geom_bond_site_symmetry_2
Cl1 C1 1_555 1_555
Cl2 C4 1_555 1_555
N1 C6 1_555 1_555
N2 C3 1_555 1_555
O1 C2 1_555 1_555
O2 C5 1_555 1_555
C1 C2 1_555 1_555
C2 C3 1_555 1_555
C3 C4 1_555 1_555
C4 C5 1_555 1_555
C5 C6 1_555 1_555
C6 C1 1_555 1_555
C7 N1 1_555 1_555
C8 C7 1_555 1_555
H1 C8 1_555 1_555
H2 C8 1_555 1_555
H3 C8 1_555 1_555
C9 N2 1_555 1_555
H4 C9 1_555 1_555
H5 C9 1_555 1_555
C10 C9 1_555 1_555
H6 C10 1_555 1_555
H7 C10 1_555 1_555
H8 C10 1_555 1_555
C11 N2 1_555 1_555
H9 C11 1_555 1_555
H10 C11 1_555 1_555
C12 C11 1_555 1_555
H11 C12 1_555 1_555
H12 C12 1_555 1_555
H13 C12 1_555 1_555
H14 N1 1_555 1_555
H15 C7 1_555 1_555
H16 C7 1_555 1_555

#END
