
#######################################################################
#
#                 Cambridge Crystallographic Data Centre
#                                CCDC 
#
#######################################################################
#
# If this CIF has been generated from an entry in the Cambridge 
# Structural Database, then it will include bibliographic, chemical, 
# crystal, experimental, refinement or atomic coordinate data resulting 
# from the CCDC's data processing and validation procedures.
#
#######################################################################

data_FOYCAY
_chemical_formula_moiety         'C14 H20 Cl2 N2 O2'
_chemical_name_systematic        
anti-4,7-dichloro-6-(diethylamino)-3-ethyl-2-methyl-2,3-dihydro-1,3-benzoxazol-5-ol
_symmetry_cell_setting           orthorhombic
_symmetry_space_group_name_H-M   'P c a 21'
_symmetry_Int_Tables_number      29
_space_group_name_Hall           'P 2c -2ac'
loop_
_symmetry_equiv_pos_site_id
_symmetry_equiv_pos_as_xyz
1 x,y,z
2 -x,-y,1/2+z
3 1/2+x,-y,z
4 1/2-x,y,1/2+z
_cell_length_a                   10.015(3)
_cell_length_b                   12.310(3)
_cell_length_c                   26.483(7)
_cell_angle_alpha                90
_cell_angle_beta                 90
_cell_angle_gamma                90
_cell_volume                     3264.95
_exptl_crystal_colour            colorless
_cell_formula_units_Z            8
loop_
_atom_site_label
_atom_site_type_symbol
_atom_site_fract_x
_atom_site_fract_y
_atom_site_fract_z
Cl1 Cl 0.6646(3) 0.8417(3) 0.91494(9)
Cl2 Cl 0.2564(3) 0.7028(2) 1.08264(10)
N1 N 0.6885(9) 0.6500(7) 0.9973(3)
N2 N 0.2123(8) 0.8891(6) 1.0013(3)
O1 O 0.3987(7) 0.9366(6) 0.9319(3)
H1 H 0.4606 0.9802 0.9314
O2 O 0.5327(8) 0.6116(7) 1.0614(3)
C1 C 0.5504(10) 0.7999(8) 0.9599(3)
C2 C 0.4272(8) 0.8556(7) 0.9645(3)
C3 C 0.3326(9) 0.8266(7) 1.0021(3)
C4 C 0.3654(9) 0.7428(7) 1.0360(3)
C5 C 0.4858(12) 0.6924(8) 1.0322(3)
C6 C 0.5780(9) 0.7191(7) 0.9929(3)
C7 C 0.6738(14) 0.5938(9) 1.0466(4)
H3 H 0.6922 0.5160 1.0429
C8 C 0.7615(17) 0.6427(14) 1.0874(5)
H4 H 0.7470 0.7197 1.0889
H5 H 0.8536 0.6285 1.0797
H6 H 0.7396 0.6107 1.1194
C9 C 0.7019(12) 0.5739(9) 0.9485(5)
H7 H 0.6241 0.5273 0.9462
H8 H 0.7046 0.6189 0.9185
C10 C 0.8236(17) 0.5059(18) 0.9505(9)
H9 H 0.8925 0.5441 0.9684
H10 H 0.8532 0.4905 0.9168
H11 H 0.8040 0.4391 0.9676
C11 C 0.1802(10) 0.9572(9) 1.0462(5)
H12 H 0.0998 0.9989 1.0397
H13 H 0.1637 0.9108 1.0751
C12 C 0.2914(11) 1.0311(11) 1.0572(5)
H14 H 0.3718 0.9898 1.0618
H15 H 0.2722 1.0711 1.0875
H16 H 0.3028 1.0807 1.0296
C13 C 0.0922(11) 0.8369(12) 0.9863(6)
H17 H 0.0206 0.8899 0.9848
H18 H 0.0681 0.7826 1.0113
C14 C 0.1081(14) 0.7829(11) 0.9351(5)
H19 H 0.1436 0.8344 0.9114
H20 H 0.0227 0.7579 0.9234
H21 H 0.1680 0.7224 0.9380
Cl3 Cl 0.0882(2) 0.3505(2) 0.33067(8)
Cl4 Cl 0.5073(3) 0.1976(2) 0.16993(11)
N3 N 0.0680(11) 0.1558(8) 0.2504(4)
N4 N 0.5480(7) 0.3867(6) 0.2512(3)
O3 O 0.3591(7) 0.4380(5) 0.3155(2)
H2 H 0.3942 0.4868 0.2992
O4 O 0.2302(9) 0.1064(6) 0.1908(3)
C15 C 0.2076(9) 0.3048(6) 0.2868(3)
C16 C 0.3264(9) 0.3564(6) 0.2846(3)
C17 C 0.4241(9) 0.3242(7) 0.2491(3)
C18 C 0.3910(9) 0.2432(7) 0.2152(3)
C19 C 0.2729(10) 0.1904(7) 0.2191(3)
C20 C 0.1795(10) 0.2213(7) 0.2548(3)
C21 C 0.0906(12) 0.0911(10) 0.2047(4)
H22 H 0.0729 0.0142 0.2115
C22 C -0.0011(18) 0.1322(16) 0.1620(6)
H23 H -0.0323 0.0716 0.1425
H24 H 0.0479 0.1809 0.1406
H25 H -0.0760 0.1698 0.1764
C23 C 0.0401(17) 0.0833(13) 0.2956(6)
H26 H 0.1164 0.0352 0.2985
H27 H 0.0427 0.1304 0.3250
C24 C -0.081(2) 0.013(2) 0.3021(12)
H28 H -0.0612 -0.0594 0.2908
H29 H -0.1533 0.0420 0.2825
H30 H -0.1061 0.0112 0.3370
C25 C 0.5798(10) 0.4513(10) 0.2073(4)
H31 H 0.5918 0.4032 0.1786
H32 H 0.6639 0.4883 0.2131
C26 C 0.4787(11) 0.5317(10) 0.1946(5)
H33 H 0.3956 0.4958 0.1877
H34 H 0.5065 0.5717 0.1653
H35 H 0.4674 0.5808 0.2225
C27 C 0.6681(11) 0.3172(10) 0.2724(5)
H36 H 0.6831 0.2540 0.2513
H37 H 0.7492 0.3603 0.2730
C28 C 0.6315(15) 0.2828(16) 0.3246(6)
H38 H 0.5944 0.3435 0.3426
H39 H 0.7097 0.2573 0.3419
H40 H 0.5666 0.2254 0.3230
loop_
_geom_bond_atom_site_label_1
_geom_bond_atom_site_label_2
_geom_bond_site_symmetry_1
_geom_bond_site_symmetry_2
Cl1 C1 1_555 1_555
Cl2 C4 1_555 1_555
Cl3 C15 1_555 1_555
Cl4 C18 1_555 1_555
N1 C6 1_555 1_555
N2 C3 1_555 1_555
N3 C20 1_555 1_555
N4 C17 1_555 1_555
O1 H1 1_555 1_555
O2 C5 1_555 1_555
O3 H2 1_555 1_555
O4 C19 1_555 1_555
C1 C2 1_555 1_555
C2 O1 1_555 1_555
C3 C2 1_555 1_555
C4 C3 1_555 1_555
C5 C4 1_555 1_555
C6 C1 1_555 1_555
C7 N1 1_555 1_555
H3 C7 1_555 1_555
C8 C7 1_555 1_555
H4 C8 1_555 1_555
H5 C8 1_555 1_555
H6 C8 1_555 1_555
C9 N1 1_555 1_555
H7 C9 1_555 1_555
H8 C9 1_555 1_555
C10 C9 1_555 1_555
H9 C10 1_555 1_555
H10 C10 1_555 1_555
H11 C10 1_555 1_555
C11 N2 1_555 1_555
H12 C11 1_555 1_555
H13 C11 1_555 1_555
C12 C11 1_555 1_555
H14 C12 1_555 1_555
H15 C12 1_555 1_555
H16 C12 1_555 1_555
C13 N2 1_555 1_555
H17 C13 1_555 1_555
H18 C13 1_555 1_555
C14 C13 1_555 1_555
H19 C14 1_555 1_555
H20 C14 1_555 1_555
H21 C14 1_555 1_555
C15 C16 1_555 1_555
C16 O3 1_555 1_555
C17 C16 1_555 1_555
C18 C17 1_555 1_555
C19 C18 1_555 1_555
C20 C15 1_555 1_555
C21 N3 1_555 1_555
H22 C21 1_555 1_555
C22 C21 1_555 1_555
H23 C22 1_555 1_555
H24 C22 1_555 1_555
H25 C22 1_555 1_555
C23 N3 1_555 1_555
H26 C23 1_555 1_555
H27 C23 1_555 1_555
C24 C23 1_555 1_555
H28 C24 1_555 1_555
H29 C24 1_555 1_555
H30 C24 1_555 1_555
C25 N4 1_555 1_555
H31 C25 1_555 1_555
H32 C25 1_555 1_555
C26 C25 1_555 1_555
H33 C26 1_555 1_555
H34 C26 1_555 1_555
H35 C26 1_555 1_555
C27 N4 1_555 1_555
H36 C27 1_555 1_555
H37 C27 1_555 1_555
C28 C27 1_555 1_555
H38 C28 1_555 1_555
H39 C28 1_555 1_555
H40 C28 1_555 1_555
O2 C7 1_555 1_555
O4 C21 1_555 1_555
C5 C6 1_555 1_555
C19 C20 1_555 1_555

#END
