
#######################################################################
#
#                 Cambridge Crystallographic Data Centre
#                                CCDC 
#
#######################################################################
#
# If this CIF has been generated from an entry in the Cambridge 
# Structural Database, then it will include bibliographic, chemical, 
# crystal, experimental, refinement or atomic coordinate data resulting 
# from the CCDC's data processing and validation procedures.
#
#######################################################################

data_FOYGOR
_chemical_formula_moiety         'C3 H7 N8 1+,C3 N5 O6 1-'
_chemical_name_systematic        
'3,6,7-Triamino-7H-[1,2,4]triazolo[4,3-b][1,2,4]triazol-2-ium 3,4,5-trinitropyrazol-1-ide'
_symmetry_cell_setting           triclinic
_symmetry_space_group_name_H-M   'P -1'
_symmetry_Int_Tables_number      2
_space_group_name_Hall           '-P 1'
loop_
_symmetry_equiv_pos_site_id
_symmetry_equiv_pos_as_xyz
1 x,y,z
2 -x,-y,-z
_cell_length_a                   6.311(2)
_cell_length_b                   8.265(3)
_cell_length_c                   13.717(5)
_cell_angle_alpha                73.487(5)
_cell_angle_beta                 80.058(4)
_cell_angle_gamma                79.551(5)
_cell_volume                     669.011
_exptl_crystal_colour            yellow
_exptl_crystal_description       rod
_cell_formula_units_Z            2
loop_
_atom_site_label
_atom_site_type_symbol
_atom_site_fract_x
_atom_site_fract_y
_atom_site_fract_z
N1 N -0.4096(4) 0.3540(4) 0.4105(2)
N2 N -0.1976(4) 0.3009(4) 0.3831(2)
C1 C -0.1482(5) 0.3840(4) 0.2850(3)
C2 C -0.3261(5) 0.4904(4) 0.2449(2)
C3 C -0.4852(5) 0.4667(4) 0.3278(2)
N3 N 0.0638(4) 0.3501(4) 0.2296(2)
O1 O 0.2067(4) 0.2552(3) 0.2780(2)
O2 O 0.0877(4) 0.4152(3) 0.13655(19)
N4 N -0.3410(4) 0.5966(4) 0.1417(2)
O3 O -0.2536(4) 0.7258(3) 0.11544(18)
O4 O -0.4410(4) 0.5503(4) 0.08751(19)
N5 N -0.7090(4) 0.5460(4) 0.3334(2)
O5 O -0.7643(4) 0.6544(4) 0.2567(2)
O6 O -0.8285(4) 0.4979(3) 0.4139(2)
N6 N -0.1849(4) -0.0323(4) 0.27522(19)
N7 N -0.0637(4) 0.0625(4) 0.1882(2)
C4 C -0.2056(5) 0.1090(4) 0.1221(2)
N8 N -0.4058(4) 0.0549(4) 0.1611(2)
C5 C -0.3902(5) -0.0368(4) 0.2596(2)
N9 N -0.5050(4) -0.1211(4) 0.3397(2)
N10 N -0.3551(4) -0.1696(4) 0.4118(2)
H1 H -0.3851 -0.2295 0.4754
C6 C -0.1623(5) -0.1153(4) 0.3736(2)
N11 N -0.1714(5) 0.1969(4) 0.0231(2)
H2 H -0.298(6) 0.267(5) -0.008(3)
H3 H -0.057(6) 0.234(5) 0.004(3)
N12 N -0.5706(5) 0.0745(5) 0.1008(2)
H4 H -0.572(6) -0.028(5) 0.093(3)
H5 H -0.678(6) 0.122(5) 0.125(3)
N13 N 0.0080(4) -0.1307(4) 0.4211(2)
H6 H 0.008(5) -0.192(5) 0.486(3)
H7 H 0.115(6) -0.107(5) 0.386(3)
loop_
_geom_bond_atom_site_label_1
_geom_bond_atom_site_label_2
_geom_bond_site_symmetry_1
_geom_bond_site_symmetry_2
N1 N2 1_555 1_555
N2 C1 1_555 1_555
C1 C2 1_555 1_555
C2 C3 1_555 1_555
C3 N1 1_555 1_555
N3 C1 1_555 1_555
O1 N3 1_555 1_555
O2 N3 1_555 1_555
N4 C2 1_555 1_555
O3 N4 1_555 1_555
O4 N4 1_555 1_555
N5 C3 1_555 1_555
O5 N5 1_555 1_555
O6 N5 1_555 1_555
N6 N7 1_555 1_555
N7 C4 1_555 1_555
C4 N8 1_555 1_555
N8 C5 1_555 1_555
C5 N6 1_555 1_555
N9 C5 1_555 1_555
N10 N9 1_555 1_555
H1 N10 1_555 1_555
C6 N6 1_555 1_555
N11 C4 1_555 1_555
H2 N11 1_555 1_555
H3 N11 1_555 1_555
N12 N8 1_555 1_555
H4 N12 1_555 1_555
H5 N12 1_555 1_555
N13 C6 1_555 1_555
H6 N13 1_555 1_555
H7 N13 1_555 1_555
N10 C6 1_555 1_555

#END
