
#######################################################################
#
#                 Cambridge Crystallographic Data Centre
#                                CCDC 
#
#######################################################################
#
# If this CIF has been generated from an entry in the Cambridge 
# Structural Database, then it will include bibliographic, chemical, 
# crystal, experimental, refinement or atomic coordinate data resulting 
# from the CCDC's data processing and validation procedures.
#
#######################################################################

data_FOYGIL02
_chemical_formula_moiety         'C3 H6 N8'
_chemical_name_systematic        
7H-[1,2,4]triazolo[4,3-b][1,2,4]triazole-3,6,7-triamine
_symmetry_cell_setting           triclinic
_symmetry_space_group_name_H-M   'P -1'
_symmetry_Int_Tables_number      2
_space_group_name_Hall           '-P 1'
loop_
_symmetry_equiv_pos_site_id
_symmetry_equiv_pos_as_xyz
1 x,y,z
2 -x,-y,-z
_cell_length_a                   6.2330(8)
_cell_length_b                   7.0870(10)
_cell_length_c                   7.9804(9)
_cell_angle_alpha                75.591(11)
_cell_angle_beta                 69.581(11)
_cell_angle_gamma                64.735(13)
_cell_volume                     296.684
_exptl_crystal_colour            colorless
_exptl_crystal_description       block
_cell_formula_units_Z            2
loop_
_atom_site_label
_atom_site_type_symbol
_atom_site_fract_x
_atom_site_fract_y
_atom_site_fract_z
N1 N 0.2647(4) 0.8323(4) 0.1048(3)
H1 H 0.1613 0.8258 0.0600
H2 H 0.3892 0.8626 0.0351
N2 N 0.1851(4) 0.6675(4) 0.8226(3)
N3 N -0.1873(4) 0.6411(4) 0.8272(3)
N4 N 0.1097(4) 0.7208(3) 0.5636(3)
N5 N 0.6008(4) 0.8595(4) 0.2579(3)
H3 H 0.7245 0.7816 0.3010
H4 H 0.6392 0.8401 0.1470
N6 N 0.0486(4) 0.7472(4) 0.4036(3)
N7 N 0.3973(4) 0.8044(3) 0.3562(3)
N8 N 0.3799(4) 0.7207(4) 0.6861(3)
C1 C 0.0275(5) 0.6711(4) 0.7452(3)
C2 C 0.2319(5) 0.7952(4) 0.2826(3)
C3 C 0.3183(4) 0.7516(4) 0.5384(4)
H5 H -0.271(5) 0.637(5) 0.765(4)
H6 H -0.208(5) 0.582(4) 0.9358(19)
loop_
_geom_bond_atom_site_label_1
_geom_bond_atom_site_label_2
_geom_bond_site_symmetry_1
_geom_bond_site_symmetry_2
N1 H1 1_555 1_555
H2 N1 1_555 1_555
N2 N8 1_555 1_555
N3 C1 1_555 1_555
N4 N6 1_555 1_555
N5 H3 1_555 1_555
H4 N5 1_555 1_555
N6 C2 1_555 1_555
N7 N5 1_555 1_555
N8 C3 1_555 1_555
C1 N2 1_555 1_555
C2 N1 1_555 1_555
C3 N4 1_555 1_555
H5 N3 1_555 1_555
H6 N3 1_555 1_555
N4 C1 1_555 1_555
N7 C2 1_555 1_555
N7 C3 1_555 1_555

#END
