
#######################################################################
#
#                 Cambridge Crystallographic Data Centre
#                                CCDC 
#
#######################################################################
#
# If this CIF has been generated from an entry in the Cambridge 
# Structural Database, then it will include bibliographic, chemical, 
# crystal, experimental, refinement or atomic coordinate data resulting 
# from the CCDC's data processing and validation procedures.
#
#######################################################################

data_FOYJEK
_chemical_formula_moiety         'C23 H22 Br2 O6,0.5(C2 H6 O1)'
_chemical_name_systematic        
'5,6-bis((4-bromobenzyl)oxy)bicyclo[2.2.1]heptane-2,3-dicarboxylic acid ethanol solvate'
_symmetry_cell_setting           monoclinic
_symmetry_space_group_name_H-M   'P c'
_symmetry_Int_Tables_number      7
_space_group_name_Hall           'P -2yc'
loop_
_symmetry_equiv_pos_site_id
_symmetry_equiv_pos_as_xyz
1 x,y,z
2 x,-y,1/2+z
_cell_length_a                   13.39290(10)
_cell_length_b                   5.46580(10)
_cell_length_c                   33.5433(4)
_cell_angle_alpha                90
_cell_angle_beta                 97.4380(10)
_cell_angle_gamma                90
_cell_volume                     2434.81
_exptl_crystal_colour            colorless
_exptl_crystal_description       block
_cell_formula_units_Z            4
loop_
_atom_site_label
_atom_site_type_symbol
_atom_site_fract_x
_atom_site_fract_y
_atom_site_fract_z
Br3 Br 1.30344(4) 1.03532(14) 1.13914(2)
Br4 Br 0.54966(7) 1.0407(3) 0.82662(4)
O7 O 1.1740(3) 1.1731(6) 0.93899(11)
O8 O 1.0340(3) 0.8743(7) 0.91126(12)
O9 O 0.9834(3) 1.3943(7) 0.79895(15)
O10 O 0.9437(3) 1.0118(7) 0.78004(17)
H23 H 0.8963 1.0776 0.7661
O11 O 1.2829(3) 1.1361(8) 0.77593(14)
O12 O 1.3287(3) 1.4725(7) 0.81103(15)
H24 H 1.3810 1.4790 0.7910
C24 C 1.1432(4) 1.2311(8) 0.89821(15)
H25 H 1.1208 1.4014 0.8951
C25 C 1.1868(3) 1.2636(8) 0.82806(14)
H26 H 1.1548 1.4238 0.8297
C26 C 1.1016(3) 0.9051(8) 0.84941(15)
H27 H 1.0700 0.7457 0.8430
C27 C 1.2703(4) 1.2835(8) 0.80213(15)
C28 C 1.2252(4) 1.3637(9) 0.96150(17)
H28 H 1.1845 1.5111 0.9594
H29 H 1.2884 1.3990 0.9514
C29 C 1.0564(4) 1.0476(8) 0.88199(15)
H30 H 0.9956 1.1360 0.8706
C30 C 1.0059(3) 1.1794(9) 0.79623(15)
C31 C 0.8560(5) 0.9769(11) 0.90982(19)
C32 C 1.2029(4) 1.0640(10) 1.01710(17)
H31 H 1.1625 0.9677 0.9987
C33 C 1.3223(4) 1.3517(11) 1.07270(18)
H32 H 1.3625 1.4470 1.0913
C34 C 1.2136(4) 0.8915(8) 0.86639(16)
H33 H 1.2549 0.8228 0.8475
H34 H 1.2253 0.8055 0.8919
C35 C 1.3045(4) 1.4227(9) 1.03263(18)
H35 H 1.3329 1.5666 1.0245
C36 C 1.2256(3) 1.1720(8) 0.87103(14)
H36 H 1.2935 1.2271 0.8816
C37 C 0.9593(5) 0.9610(13) 0.93438(19)
H37 H 0.9787 1.1216 0.9450
H38 H 0.9560 0.8519 0.9570
C38 C 1.1065(3) 1.0735(8) 0.81235(14)
H39 H 1.1316 0.9777 0.7911
C39 C 1.2446(4) 1.2805(9) 1.00448(15)
C40 C 1.2796(4) 1.1384(10) 1.08456(16)
C41 C 1.2216(4) 0.9920(9) 1.05721(19)
H40 H 1.1952 0.8460 1.0655
C42 C 0.6992(8) 1.182(2) 0.8913(4)
H41 H 0.6554 1.3084 0.8956
C43 C 0.7376(7) 0.829(2) 0.8565(3)
H42 H 0.7203 0.7139 0.8363
C44 C 0.7913(7) 1.1623(19) 0.9145(4)
H43 H 0.8098 1.2801 0.9341
C45 C 0.8276(6) 0.8075(16) 0.8803(3)
H44 H 0.8702 0.6775 0.8765
C46 C 0.6727(5) 1.0125(14) 0.8616(2)
Br1 Br 0.46635(4) 1.61421(12) 0.90429(2)
Br2 Br 1.00495(6) 0.49775(11) 1.02796(3)
O1 O 0.7410(3) 1.2615(6) 1.13653(11)
O2 O 0.4604(3) 1.4929(6) 1.25968(13)
O3 O 0.4232(3) 1.8465(7) 1.22810(13)
O4 O 0.6097(3) 1.5927(6) 1.10645(11)
O5 O 0.7685(3) 1.7883(6) 1.25145(14)
O6 O 0.8118(3) 1.4052(7) 1.26812(15)
C1 C 0.5717(3) 1.6511(8) 1.21504(14)
H1 H 0.6016 1.8149 1.2156
C2 C 0.7165(3) 1.4341(8) 1.16503(14)
H2 H 0.7772 1.5162 1.1779
C3 C 0.6340(4) 1.6281(8) 1.14813(14)
H3 H 0.6576 1.7954 1.1541
C4 C 0.4803(3) 1.6537(8) 1.23677(15)
C5 C 0.5446(3) 1.5643(8) 1.17084(14)
H4 H 0.4790 1.6205 1.1577
C6 C 0.6641(3) 1.2954(8) 1.19617(14)
H5 H 0.6934 1.1348 1.2035
C7 C 0.5437(4) 1.7579(9) 1.04227(15)
C8 C 0.7484(3) 1.5719(9) 1.25146(15)
C9 C 0.5654(4) 1.8025(9) 1.08659(15)
H6 H 0.6107 1.9407 1.0916
H7 H 0.5033 1.8419 1.0972
C10 C 0.6518(3) 1.4627(8) 1.23249(14)
H8 H 0.6234 1.3649 1.2528
C11 C 0.8551(5) 1.1342(10) 1.09177(18)
C12 C 0.8126(5) 1.3484(10) 1.1120(2)
H9 H 0.8662 1.4352 1.1284
H10 H 0.7804 1.4607 1.0919
C13 C 0.5549(3) 1.2858(8) 1.17508(14)
H11 H 0.5490 1.2023 1.1494
H12 H 0.5085 1.2159 1.1919
C14 C 0.4620(5) 1.8790(11) 0.97642(19)
H13 H 0.4214 1.9875 0.9602
C15 C 0.4848(5) 1.9219(10) 1.01760(18)
H14 H 0.4604 2.0621 1.0287
C16 C 0.5793(5) 1.5515(11) 1.02451(18)
H15 H 0.6188 1.4392 1.0404
C17 C 0.5001(4) 1.6757(10) 0.96021(16)
C18 C 0.8113(4) 1.0495(12) 1.0545(2)
H16 H 0.7524 1.1228 1.0424
C19 C 0.9852(5) 0.8280(13) 1.0914(2)
H17 H 1.0431 0.7524 1.1040
C20 C 0.8525(5) 0.8596(11) 1.0349(2)
H18 H 0.8229 0.8054 1.0098
C21 C 0.9411(5) 0.7516(10) 1.0542(2)
C22 C 0.9409(6) 1.0225(13) 1.1098(2)
H19 H 0.9704 1.0773 1.1348
C23 C 0.5571(5) 1.5102(11) 0.9838(2)
H20 H 0.5809 1.3702 0.9724
H21 H 0.367(8) 1.798(16) 1.234(3)
H22 H 0.859(7) 1.503(13) 1.274(3)
loop_
_geom_bond_atom_site_label_1
_geom_bond_atom_site_label_2
_geom_bond_site_symmetry_1
_geom_bond_site_symmetry_2
Br1 C17 1_555 1_555
Br2 C21 1_555 1_555
O1 C2 1_555 1_555
O2 C4 1_555 1_555
O3 C4 1_555 1_555
O4 C3 1_555 1_555
O5 C8 1_555 1_555
O6 C8 1_555 1_555
C1 H1 1_555 1_555
C2 H2 1_555 1_555
C3 C2 1_555 1_555
H3 C3 1_555 1_555
C4 C1 1_555 1_555
C5 C1 1_555 1_555
H4 C5 1_555 1_555
C6 C2 1_555 1_555
H5 C6 1_555 1_555
C7 C9 1_555 1_555
C8 C10 1_555 1_555
C9 O4 1_555 1_555
H6 C9 1_555 1_555
H7 C9 1_555 1_555
C10 C1 1_555 1_555
H8 C10 1_555 1_555
C11 C12 1_555 1_555
C12 O1 1_555 1_555
H9 C12 1_555 1_555
H10 C12 1_555 1_555
C13 C5 1_555 1_555
H11 C13 1_555 1_555
H12 C13 1_555 1_555
C14 H13 1_555 1_555
C15 C7 1_555 1_555
H14 C15 1_555 1_555
C16 C7 1_555 1_555
H15 C16 1_555 1_555
C17 C14 1_555 1_555
C18 C11 1_555 1_555
H16 C18 1_555 1_555
C19 H17 1_555 1_555
C20 C18 1_555 1_555
H18 C20 1_555 1_555
C21 C19 1_555 1_555
C22 C11 1_555 1_555
H19 C22 1_555 1_555
C23 C16 1_555 1_555
H20 C23 1_555 1_555
H21 O3 1_555 1_555
H22 O6 1_555 1_555
Br3 C40 1_555 1_555
Br4 C46 1_555 1_555
O7 C24 1_555 1_555
O8 C29 1_555 1_555
O9 C30 1_555 1_555
O10 H23 1_555 1_555
O11 C27 1_555 1_555
O12 H24 1_555 1_555
C24 H25 1_555 1_555
C25 H26 1_555 1_555
C26 H27 1_555 1_555
C27 O12 1_555 1_555
C28 O7 1_555 1_555
H28 C28 1_555 1_555
H29 C28 1_555 1_555
C29 C24 1_555 1_555
H30 C29 1_555 1_555
C30 O10 1_555 1_555
C31 C37 1_555 1_555
C32 H31 1_555 1_555
C33 H32 1_555 1_555
C34 C26 1_555 1_555
H33 C34 1_555 1_555
H34 C34 1_555 1_555
C35 C33 1_555 1_555
H35 C35 1_555 1_555
C36 C24 1_555 1_555
H36 C36 1_555 1_555
C37 O8 1_555 1_555
H37 C37 1_555 1_555
H38 C37 1_555 1_555
C38 C25 1_555 1_555
H39 C38 1_555 1_555
C39 C28 1_555 1_555
C40 C33 1_555 1_555
C41 C32 1_555 1_555
H40 C41 1_555 1_555
C42 H41 1_555 1_555
C43 H42 1_555 1_555
C44 C31 1_555 1_555
H43 C44 1_555 1_555
C45 C31 1_555 1_555
H44 C45 1_555 1_555
C46 C42 1_555 1_555
C3 C5 1_555 1_555
C6 C10 1_555 1_555
C6 C13 1_555 1_555
C14 C15 1_555 1_555
C17 C23 1_555 1_555
C19 C22 1_555 1_555
C20 C21 1_555 1_555
C25 C27 1_555 1_555
C25 C36 1_555 1_555
C26 C29 1_555 1_555
C26 C38 1_555 1_555
C30 C38 1_555 1_555
C32 C39 1_555 1_555
C34 C36 1_555 1_555
C35 C39 1_555 1_555
C40 C41 1_555 1_555
C42 C44 1_555 1_555
C43 C45 1_555 1_555
C43 C46 1_555 1_555

#END
