
#######################################################################
#
#                 Cambridge Crystallographic Data Centre
#                                CCDC 
#
#######################################################################
#
# If this CIF has been generated from an entry in the Cambridge 
# Structural Database, then it will include bibliographic, chemical, 
# crystal, experimental, refinement or atomic coordinate data resulting 
# from the CCDC's data processing and validation procedures.
#
#######################################################################

data_FOYMUC
_chemical_formula_moiety         'C23 H26 Cl1 N1 O2'
_chemical_name_systematic        
1-Chloroacetyl-3,5-dimethyl-2,6-bis(4-methylphenyl)piperidin-4-one
_symmetry_cell_setting           triclinic
_symmetry_space_group_name_H-M   'P -1'
_symmetry_Int_Tables_number      2
_space_group_name_Hall           '-P 1'
loop_
_symmetry_equiv_pos_site_id
_symmetry_equiv_pos_as_xyz
1 x,y,z
2 -x,-y,-z
_cell_length_a                   11.9590(4)
_cell_length_b                   14.3697(5)
_cell_length_c                   14.7369(5)
_cell_angle_alpha                95.483(2)
_cell_angle_beta                 113.333(2)
_cell_angle_gamma                110.028(2)
_cell_volume                     2104.84
_exptl_crystal_colour            colorless
_exptl_crystal_description       prism
_cell_formula_units_Z            4
_exptl_crystal_recrystallization_method 'absolute ethanol'
loop_
_atom_site_label
_atom_site_type_symbol
_atom_site_fract_x
_atom_site_fract_y
_atom_site_fract_z
C1 C 0.2212(2) 0.0995(2) 0.0523(2)
C2 C 0.1922(3) 0.1653(2) 0.1195(2)
C3 C 0.2815(3) 0.1841(2) 0.2312(2)
C4 C 0.4124(3) 0.1759(2) 0.2578(2)
C5 C 0.4683(2) 0.20196(19) 0.18100(18)
C6 C 0.5862(2) 0.17363(17) 0.20593(16)
C7 C 0.7143(2) 0.25009(18) 0.25178(18)
H1 H 0.7271 0.3186 0.2636
C8 C 0.8241(2) 0.22645(19) 0.28049(19)
H2 H 0.9097 0.2794 0.3114
C9 C 0.8090(2) 0.12612(19) 0.26415(19)
C10 C 0.6804(3) 0.04969(19) 0.21791(19)
H3 H 0.6676 -0.0188 0.2059
C11 C 0.5706(2) 0.07272(18) 0.18922(18)
H4 H 0.4850 0.0198 0.1583
C12 C 0.1894(2) -0.0110(2) 0.05623(19)
C13 C 0.2089(3) -0.0741(2) -0.0074(2)
H5 H 0.2429 -0.0470 -0.0506
C14 C 0.1797(3) -0.1756(2) -0.0089(2)
H6 H 0.1932 -0.2155 -0.0536
C15 C 0.1310(3) -0.2192(2) 0.0540(2)
C16 C 0.1096(3) -0.1573(3) 0.1164(3)
H7 H 0.0758 -0.1848 0.1595
C17 C 0.1368(3) -0.0551(2) 0.1173(2)
H8 H 0.1192 -0.0161 0.1596
C18 C 0.2120(4) 0.2696(3) 0.0958(3)
H9 H 0.1741 0.3031 0.1271
H10 H 0.1683 0.2594 0.0229
H11 H 0.3060 0.3117 0.1226
C19 C 0.5148(3) 0.2378(3) 0.3669(2)
H12 H 0.5358 0.3095 0.3726
H13 H 0.5947 0.2268 0.3842
H14 H 0.4788 0.2164 0.4130
C20 C 0.9289(3) 0.1010(3) 0.2958(3)
H15 H 1.0031 0.1579 0.2990
H16 H 0.9082 0.0410 0.2466
H17 H 0.9520 0.0880 0.3621
C21 C 0.1001(4) -0.3305(3) 0.0533(3)
H18 H 0.0065 -0.3670 0.0333
H19 H 0.1521 -0.3344 0.1207
H20 H 0.1221 -0.3607 0.0055
C22 C 0.3813(2) 0.17949(19) -0.00833(19)
C23 C 0.5232(3) 0.2441(2) 0.0137(2)
H21 H 0.5809 0.2125 0.0505
H22 H 0.5537 0.3117 0.0572
N1 N 0.36212(18) 0.15458(15) 0.07242(15)
O1 O 0.2515(2) 0.2055(2) 0.2969(2)
O2 O 0.28985(19) 0.15071(16) -0.09536(14)
Cl1 Cl 0.53593(8) 0.25704(7) -0.09964(6)
H47 H 0.500(2) 0.2764(19) 0.1925(17)
H48 H 0.392(2) 0.109(2) 0.2520(18)
H51 H 0.173(2) 0.0969(18) -0.016(2)
H52 H 0.106(3) 0.131(2) 0.109(2)
C24 C 0.3809(3) 0.4392(2) 0.6406(2)
C25 C 0.4794(3) 0.3951(2) 0.6395(2)
C26 C 0.4157(3) 0.2791(2) 0.6058(2)
C27 C 0.2722(3) 0.22695(19) 0.5852(2)
C28 C 0.2499(2) 0.27354(17) 0.67189(19)
C29 C 0.1021(2) 0.22939(17) 0.64267(17)
C30 C 0.0510(3) 0.15291(19) 0.68312(19)
H23 H 0.1086 0.1321 0.7315
C31 C -0.0841(3) 0.1067(2) 0.6531(2)
H24 H -0.1162 0.0541 0.6804
C32 C -0.1732(3) 0.1363(2) 0.5835(2)
C33 C -0.1208(3) 0.2129(2) 0.5428(3)
H25 H -0.1782 0.2342 0.4949
C34 C 0.0138(3) 0.2583(2) 0.5713(2)
H26 H 0.0457 0.3093 0.5421
C35 C 0.2860(3) 0.44697(18) 0.5402(2)
C36 C 0.2113(3) 0.5019(2) 0.5423(2)
H27 H 0.2174 0.5291 0.6048
C37 C 0.1282(3) 0.5171(2) 0.4545(3)
H28 H 0.0803 0.5550 0.4588
C38 C 0.1153(3) 0.4772(2) 0.3606(2)
C39 C 0.1861(3) 0.4206(2) 0.3576(2)
H29 H 0.1768 0.3912 0.2946
C40 C 0.2706(3) 0.4060(2) 0.4451(2)
H30 H 0.3181 0.3679 0.4402
C41 C 0.6034(3) 0.4326(3) 0.7439(3)
H31 H 0.5764 0.4150 0.7954
H32 H 0.6508 0.5058 0.7605
H33 H 0.6608 0.4005 0.7411
C42 C 0.2247(4) 0.1112(2) 0.5661(3)
H34 H 0.2419 0.0850 0.5130
H35 H 0.1304 0.0801 0.5454
H36 H 0.2719 0.0954 0.6280
C43 C -0.3202(3) 0.0857(3) 0.5518(4)
H37 H -0.3475 0.1346 0.5754
H38 H -0.3382 0.0290 0.5813
H39 H -0.3692 0.0611 0.4784
C44 C 0.0245(4) 0.4955(3) 0.2646(3)
H40 H 0.0060 0.4472 0.2052
H41 H 0.0678 0.5642 0.2616
H42 H -0.0580 0.4866 0.2662
C45 C 0.3268(3) 0.4469(2) 0.7825(2)
C46 C 0.2764(4) 0.3914(2) 0.8499(2)
H43 H 0.3246 0.3496 0.8748
H44 H 0.1824 0.3458 0.8091
N2 N 0.3131(2) 0.38761(14) 0.69879(15)
O3 O 0.4782(3) 0.2323(2) 0.5967(2)
O4 O 0.3783(2) 0.54087(14) 0.80469(16)
Cl2 Cl 0.29552(13) 0.47463(7) 0.95412(7)
H45 H 0.294(2) 0.2519(17) 0.7266(18)
H46 H 0.220(2) 0.2425(17) 0.5217(18)
H49 H 0.428(3) 0.506(2) 0.681(2)
H50 H 0.511(3) 0.419(2) 0.594(2)
loop_
_geom_bond_atom_site_label_1
_geom_bond_atom_site_label_2
_geom_bond_site_symmetry_1
_geom_bond_site_symmetry_2
C1 C2 1_555 1_555
C2 C3 1_555 1_555
C3 C4 1_555 1_555
C4 C5 1_555 1_555
C5 C6 1_555 1_555
C6 C7 1_555 1_555
C7 H1 1_555 1_555
C8 C7 1_555 1_555
H2 C8 1_555 1_555
C9 C8 1_555 1_555
C10 C9 1_555 1_555
H3 C10 1_555 1_555
C11 C6 1_555 1_555
H4 C11 1_555 1_555
C12 C1 1_555 1_555
C13 C12 1_555 1_555
H5 C13 1_555 1_555
C14 C13 1_555 1_555
H6 C14 1_555 1_555
C15 C14 1_555 1_555
C16 C15 1_555 1_555
H7 C16 1_555 1_555
C17 C12 1_555 1_555
H8 C17 1_555 1_555
C18 C2 1_555 1_555
H9 C18 1_555 1_555
H10 C18 1_555 1_555
H11 C18 1_555 1_555
C19 C4 1_555 1_555
H12 C19 1_555 1_555
H13 C19 1_555 1_555
H14 C19 1_555 1_555
C20 C9 1_555 1_555
H15 C20 1_555 1_555
H16 C20 1_555 1_555
H17 C20 1_555 1_555
C21 C15 1_555 1_555
H18 C21 1_555 1_555
H19 C21 1_555 1_555
H20 C21 1_555 1_555
C22 C23 1_555 1_555
C23 H21 1_555 1_555
H22 C23 1_555 1_555
C24 C25 1_555 1_555
C25 C26 1_555 1_555
C26 C27 1_555 1_555
C27 C28 1_555 1_555
C28 C29 1_555 1_555
C29 C30 1_555 1_555
C30 H23 1_555 1_555
C31 C30 1_555 1_555
H24 C31 1_555 1_555
C32 C31 1_555 1_555
C33 C32 1_555 1_555
H25 C33 1_555 1_555
C34 C29 1_555 1_555
H26 C34 1_555 1_555
C35 C24 1_555 1_555
C36 C35 1_555 1_555
H27 C36 1_555 1_555
C37 C36 1_555 1_555
H28 C37 1_555 1_555
C38 C37 1_555 1_555
C39 C38 1_555 1_555
H29 C39 1_555 1_555
C40 C35 1_555 1_555
H30 C40 1_555 1_555
C41 C25 1_555 1_555
H31 C41 1_555 1_555
H32 C41 1_555 1_555
H33 C41 1_555 1_555
C42 C27 1_555 1_555
H34 C42 1_555 1_555
H35 C42 1_555 1_555
H36 C42 1_555 1_555
C43 C32 1_555 1_555
H37 C43 1_555 1_555
H38 C43 1_555 1_555
H39 C43 1_555 1_555
C44 C38 1_555 1_555
H40 C44 1_555 1_555
H41 C44 1_555 1_555
H42 C44 1_555 1_555
C45 C46 1_555 1_555
C46 H43 1_555 1_555
H44 C46 1_555 1_555
N1 C1 1_555 1_555
N2 C24 1_555 1_555
O1 C3 1_555 1_555
O2 C22 1_555 1_555
O3 C26 1_555 1_555
O4 C45 1_555 1_555
Cl1 C23 1_555 1_555
Cl2 C46 1_555 1_555
H45 C28 1_555 1_555
H46 C27 1_555 1_555
H47 C5 1_555 1_555
H48 C4 1_555 1_555
H49 C24 1_555 1_555
H50 C25 1_555 1_555
H51 C1 1_555 1_555
H52 C2 1_555 1_555
C5 N1 1_555 1_555
C10 C11 1_555 1_555
C16 C17 1_555 1_555
C22 N1 1_555 1_555
C28 N2 1_555 1_555
C33 C34 1_555 1_555
C39 C40 1_555 1_555
C45 N2 1_555 1_555

#END
