
#######################################################################
#
#                 Cambridge Crystallographic Data Centre
#                                CCDC 
#
#######################################################################
#
# If this CIF has been generated from an entry in the Cambridge 
# Structural Database, then it will include bibliographic, chemical, 
# crystal, experimental, refinement or atomic coordinate data resulting 
# from the CCDC's data processing and validation procedures.
#
#######################################################################

data_FOYTOC
_chemical_name_common            '(R,S)-Hesperetin monohydrate'
_chemical_formula_moiety         'C16 H14 O6,H2 O1'
_chemical_name_systematic        
'2,3-Dihydro-5,7-dihydroxy-2-(3-hydroxy-4-methoxyphenyl)-4H-1-benzopyran-4-one monohydrate'
_symmetry_cell_setting           triclinic
_symmetry_space_group_name_H-M   'P -1'
_symmetry_Int_Tables_number      2
_space_group_name_Hall           '-P 1'
loop_
_symmetry_equiv_pos_site_id
_symmetry_equiv_pos_as_xyz
1 x,y,z
2 -x,-y,-z
_cell_length_a                   9.073(4)
_cell_length_b                   12.162(5)
_cell_length_c                   6.856(3)
_cell_angle_alpha                95.49(8)
_cell_angle_beta                 81.32(9)
_cell_angle_gamma                107.16(8)
_cell_volume                     713.526
_exptl_crystal_colour            colorless
_cell_formula_units_Z            2
loop_
_atom_site_label
_atom_site_type_symbol
_atom_site_fract_x
_atom_site_fract_y
_atom_site_fract_z
O1 O 0.2689(4) 0.4660(2) 0.5984(4)
C1 C 0.2533(7) 0.4605(4) 0.3910(7)
C2 C 0.1323(7) 0.3561(4) 0.3324(9)
C3 C 0.1568(6) 0.2484(4) 0.3958(7)
C4 C 0.2668(5) 0.1677(4) 0.6381(6)
C5 C 0.3399(6) 0.1787(4) 0.8034(7)
C6 C 0.3848(5) 0.2882(4) 0.9021(6)
C7 C 0.3599(5) 0.3836(4) 0.8329(6)
C8 C 0.2904(5) 0.3703(4) 0.6634(6)
C9 C 0.2403(5) 0.2626(3) 0.5620(6)
O2 O 0.1034(4) 0.1545(3) 0.3103(5)
O3 O 0.2155(4) 0.0612(2) 0.5482(5)
O4 O 0.4564(4) 0.3032(3) 1.0646(5)
C10 C 0.2280(6) 0.5729(4) 0.3493(7)
C11 C 0.2856(6) 0.6731(4) 0.4628(7)
C12 C 0.2681(5) 0.7757(4) 0.4165(6)
C13 C 0.1981(5) 0.7840(4) 0.2537(6)
C14 C 0.1452(7) 0.6847(4) 0.1381(8)
C15 C 0.1595(7) 0.5818(4) 0.1868(8)
O5 O 0.3247(5) 0.8736(3) 0.5341(5)
O6 O 0.1908(4) 0.8898(2) 0.2195(4)
C16 C 0.1094(8) 0.8989(5) 0.0601(9)
H1 H 0.376(5) 0.448(4) 0.312(6)
H2 H 0.133(6) 0.345(4) 0.207(9)
H3 H 0.036(6) 0.367(5) 0.418(9)
H4 H 0.155(7) 0.059(5) 0.425(9)
H5 H 0.363(6) 0.115(5) 0.879(8)
H6 H 0.475(5) 0.231(4) 1.116(7)
H7 H 0.371(6) 0.477(5) 0.900(7)
H8 H 0.328(5) 0.662(4) 0.574(7)
H9 H 0.281(6) 0.948(6) 0.529(9)
H10 H 0.111(6) 0.687(5) 0.022(8)
H11 H 0.122(5) 0.509(5) 0.092(7)
H12 H 0.011(8) 0.833(6) 0.109(9)
H13 H 0.181(6) 0.883(5) -0.058(9)
H14 H 0.125(5) 0.987(5) 0.065(6)
O7 O 0.4912(8) 0.1024(5) 0.1635(7)
H15 H 0.537(7) 0.103(5) 0.226(9)
H16 H 0.424(10) 0.058(9) 0.180(14)
loop_
_geom_bond_atom_site_label_1
_geom_bond_atom_site_label_2
_geom_bond_site_symmetry_1
_geom_bond_site_symmetry_2
O1 C1 1_555 1_555
C1 C2 1_555 1_555
C2 C3 1_555 1_555
C3 C9 1_555 1_555
C4 C5 1_555 1_555
C5 C6 1_555 1_555
C6 C7 1_555 1_555
C7 C8 1_555 1_555
C8 O1 1_555 1_555
C9 C4 1_555 1_555
O2 C3 1_555 1_555
O3 C4 1_555 1_555
O4 C6 1_555 1_555
C10 C1 1_555 1_555
C11 C10 1_555 1_555
C12 C11 1_555 1_555
C13 C12 1_555 1_555
C14 C13 1_555 1_555
C15 C10 1_555 1_555
O5 C12 1_555 1_555
O6 C13 1_555 1_555
C16 O6 1_555 1_555
H1 C1 1_555 1_555
H2 C2 1_555 1_555
H3 C2 1_555 1_555
H4 O3 1_555 1_555
H5 C5 1_555 1_555
H6 O4 1_555 1_555
H7 C7 1_555 1_555
H8 C11 1_555 1_555
H9 O5 1_555 1_555
H10 C14 1_555 1_555
H11 C15 1_555 1_555
H12 C16 1_555 1_555
H13 C16 1_555 1_555
H14 C16 1_555 1_555
O7 H15 1_555 1_555
H16 O7 1_555 1_555
C8 C9 1_555 1_555
C14 C15 1_555 1_555

#END
