
#######################################################################
#
#                 Cambridge Crystallographic Data Centre
#                                CCDC 
#
#######################################################################
#
# If this CIF has been generated from an entry in the Cambridge 
# Structural Database, then it will include bibliographic, chemical, 
# crystal, experimental, refinement or atomic coordinate data resulting 
# from the CCDC's data processing and validation procedures.
#
#######################################################################

data_FOZCAZ
_chemical_formula_moiety         'C18 H23 N3 S1'
_chemical_name_systematic        
6-(2-(4-(Diethylamino)phenyl)vinyl)-2-(methylsulfanyl)-4-methylpyrimidine
_symmetry_cell_setting           monoclinic
_symmetry_space_group_name_H-M   'P 21'
_symmetry_Int_Tables_number      4
_space_group_name_Hall           'P 2yb'
loop_
_symmetry_equiv_pos_site_id
_symmetry_equiv_pos_as_xyz
1 x,y,z
2 -x,1/2+y,-z
_cell_length_a                   8.823(3)
_cell_length_b                   8.291(3)
_cell_length_c                   12.458(4)
_cell_angle_alpha                90
_cell_angle_beta                 101.812(6)
_cell_angle_gamma                90
_cell_volume                     892.024
_exptl_crystal_colour            'bright yellow'
_chemical_melting_point          '129 deg.C'
_cell_formula_units_Z            2
_exptl_crystal_preparation       fluorescent
loop_
_atom_site_label
_atom_site_type_symbol
_atom_site_fract_x
_atom_site_fract_y
_atom_site_fract_z
N1 N 0.5454(4) 0.5035(5) 0.7502(3)
N2 N 0.3366(4) 0.4545(4) 0.8410(3)
N3 N 1.0735(5) 0.3360(6) 0.2626(4)
S1 S 0.56717(16) 0.64498(19) 0.93773(10)
C1 C 0.4701(5) 0.5192(5) 0.8318(3)
C2 C 0.2719(5) 0.3583(6) 0.7581(4)
C3 C 0.3398(5) 0.3279(6) 0.6709(4)
H1 H 0.2945 0.2573 0.6156
C4 C 0.4780(5) 0.4051(6) 0.6673(3)
C5 C 0.5589(6) 0.3791(6) 0.5775(4)
H2 H 0.5115 0.3128 0.5202
C6 C 0.6936(5) 0.4423(6) 0.5714(3)
H3 H 0.7362 0.5114 0.6285
C7 C 0.7852(5) 0.4192(5) 0.4881(3)
C8 C 0.7339(5) 0.3339(6) 0.3904(4)
H4 H 0.6342 0.2915 0.3760
C9 C 0.8254(5) 0.3107(6) 0.3152(4)
H5 H 0.7853 0.2559 0.2504
C10 C 0.9786(5) 0.3679(6) 0.3338(3)
C11 C 1.0283(5) 0.4561(6) 0.4303(3)
H6 H 1.1276 0.4995 0.4449
C12 C 0.9347(5) 0.4800(6) 0.5032(4)
H7 H 0.9727 0.5398 0.5661
C13 C 0.1219(6) 0.2772(8) 0.7686(5)
H8 H 0.0478 0.3576 0.7787
H9 H 0.1407 0.2058 0.8306
H10 H 0.0821 0.2167 0.7032
C14 C 0.4516(6) 0.6249(8) 1.0389(4)
H11 H 0.4018 0.5214 1.0316
H12 H 0.3745 0.7083 1.0290
H13 H 0.5163 0.6342 1.1107
C15 C 1.2419(8) 0.3777(10) 0.2910(6)
H14 H 1.2807 0.3642 0.3691
H15 H 1.2998 0.3066 0.2524
C16 C 1.2612(10) 0.5394(11) 0.2608(6)
H16 H 1.2093 0.6096 0.3028
H17 H 1.2178 0.5532 0.1841
H18 H 1.3695 0.5653 0.2748
C17 C 1.0238(7) 0.2418(9) 0.1628(5)
H19 H 1.1117 0.1811 0.1488
H20 H 0.9462 0.1648 0.1749
C18 C 0.9608(11) 0.3355(14) 0.0672(7)
H21 H 1.0423 0.3953 0.0450
H22 H 0.8847 0.4090 0.0839
H23 H 0.9132 0.2650 0.0089
loop_
_geom_bond_atom_site_label_1
_geom_bond_atom_site_label_2
_geom_bond_site_symmetry_1
_geom_bond_site_symmetry_2
N1 C1 1_555 1_555
N2 C1 1_555 1_555
N3 C10 1_555 1_555
S1 C1 1_555 1_555
C2 N2 1_555 1_555
C3 C2 1_555 1_555
H1 C3 1_555 1_555
C4 N1 1_555 1_555
C5 C4 1_555 1_555
H2 C5 1_555 1_555
C6 C5 1_555 1_555
H3 C6 1_555 1_555
C7 C6 1_555 1_555
C8 C7 1_555 1_555
H4 C8 1_555 1_555
C9 C8 1_555 1_555
H5 C9 1_555 1_555
C10 C9 1_555 1_555
C11 C10 1_555 1_555
H6 C11 1_555 1_555
C12 C7 1_555 1_555
H7 C12 1_555 1_555
C13 C2 1_555 1_555
H8 C13 1_555 1_555
H9 C13 1_555 1_555
H10 C13 1_555 1_555
C14 S1 1_555 1_555
H11 C14 1_555 1_555
H12 C14 1_555 1_555
H13 C14 1_555 1_555
C15 N3 1_555 1_555
H14 C15 1_555 1_555
H15 C15 1_555 1_555
C16 C15 1_555 1_555
H16 C16 1_555 1_555
H17 C16 1_555 1_555
H18 C16 1_555 1_555
C17 N3 1_555 1_555
H19 C17 1_555 1_555
H20 C17 1_555 1_555
C18 C17 1_555 1_555
H21 C18 1_555 1_555
H22 C18 1_555 1_555
H23 C18 1_555 1_555
C3 C4 1_555 1_555
C11 C12 1_555 1_555

#END
