
#######################################################################
#
#                 Cambridge Crystallographic Data Centre
#                                CCDC 
#
#######################################################################
#
# If this CIF has been generated from an entry in the Cambridge 
# Structural Database, then it will include bibliographic, chemical, 
# crystal, experimental, refinement or atomic coordinate data resulting 
# from the CCDC's data processing and validation procedures.
#
#######################################################################

data_FOZGUW
_chemical_formula_moiety         'C26 H38 N4 O4 P2'
_chemical_name_systematic        
(2S,2'S,4S,4'S,5R,5'R)-N,N'-bis(3,4-Dimethyl-2-oxo-5-phenyl-1,3,2-oxazaphospholan-2-yl-)-(1R,2R)-cyclohexane-1,2-diamine
_symmetry_cell_setting           orthorhombic
_symmetry_space_group_name_H-M   'P 21 21 21'
_symmetry_Int_Tables_number      19
_space_group_name_Hall           'P 2ac 2ab'
loop_
_symmetry_equiv_pos_site_id
_symmetry_equiv_pos_as_xyz
1 x,y,z
2 1/2-x,-y,1/2+z
3 -x,1/2+y,1/2-z
4 1/2+x,1/2-y,-z
_cell_length_a                   6.64870(10)
_cell_length_b                   15.4993(3)
_cell_length_c                   26.63910(10)
_cell_angle_alpha                90
_cell_angle_beta                 90
_cell_angle_gamma                90
_cell_volume                     2745.16
_exptl_crystal_colour            colorless
_exptl_crystal_description       plate
_chemical_melting_point          '260-261 deg.C'
_cell_formula_units_Z            4
loop_
_atom_site_label
_atom_site_type_symbol
_atom_site_fract_x
_atom_site_fract_y
_atom_site_fract_z
P1 P 0.65684(14) 0.75608(6) 0.77342(3)
P2 P 0.20681(14) 0.63537(6) 0.65516(3)
O1 O 0.8087(4) 0.7701(2) 0.73417(9)
O2 O 0.7492(3) 0.7513(2) 0.82913(8)
O3 O 0.3738(4) 0.5735(2) 0.65046(9)
O4 O 0.2503(3) 0.72917(14) 0.63187(8)
N1 N 0.5375(4) 0.6667(2) 0.76278(10)
H1 H 0.5824(4) 0.6348(2) 0.73883(10)
N2 N 0.1485(5) 0.6483(2) 0.71353(10)
H2 H 0.0737(5) 0.6914(2) 0.72147(10)
N3 N 0.4972(4) 0.8333(2) 0.78657(10)
N4 N 0.0090(5) 0.6167(2) 0.62012(11)
C1 C 0.3608(5) 0.6348(2) 0.78997(12)
H3 H 0.2912(5) 0.6847(2) 0.80443(12)
C2 C 0.2161(6) 0.5902(2) 0.75396(12)
H4 H 0.2880(6) 0.5420(2) 0.73835(12)
C3 C 0.0372(7) 0.5533(3) 0.7820(2)
H5 H -0.0492(7) 0.5230(3) 0.7586(2)
H6 H -0.0398(7) 0.6002(3) 0.7966(2)
C4 C 0.1021(9) 0.4915(3) 0.8235(2)
H7 H -0.0155(9) 0.4701(3) 0.8411(2)
H8 H 0.1719(9) 0.4426(3) 0.8089(2)
C5 C 0.2398(8) 0.5375(3) 0.8602(2)
H9 H 0.1665(8) 0.5835(3) 0.8767(2)
H10 H 0.2849(8) 0.4972(3) 0.8857(2)
C6 C 0.4204(7) 0.5748(3) 0.83306(13)
H11 H 0.5013(7) 0.5279(3) 0.81985(13)
H12 H 0.5023(7) 0.6066(3) 0.85685(13)
C7 C 0.5154(5) 0.8652(2) 0.83831(12)
H13 H 0.5094(5) 0.9284(2) 0.83820(12)
C8 C 0.7281(5) 0.8365(2) 0.85209(13)
H14 H 0.8226(5) 0.8755(2) 0.83525(13)
C9 C 0.7839(5) 0.8336(2) 0.90679(13)
C10 C 0.7736(6) 0.9093(2) 0.93416(14)
H15 H 0.7268(6) 0.9594(2) 0.91895(14)
C11 C 0.8323(7) 0.9110(3) 0.98409(15)
H16 H 0.8245(7) 0.9621(3) 1.00230(15)
C12 C 0.9016(7) 0.8377(3) 1.0064(2)
H17 H 0.9415(7) 0.8389(3) 1.0399(2)
C13 C 0.9128(6) 0.7622(3) 0.97975(14)
H18 H 0.9600(6) 0.7124(3) 0.99527(14)
C14 C 0.8545(6) 0.7595(2) 0.93000(13)
H19 H 0.8627(6) 0.7081(2) 0.91210(13)
C15 C -0.0404(5) 0.6879(2) 0.58657(13)
H20 H -0.0801(5) 0.6647(2) 0.55380(13)
C16 C 0.1638(5) 0.7318(2) 0.58185(11)
H21 H 0.2477(5) 0.6956(2) 0.56015(11)
C17 C 0.1677(6) 0.8221(2) 0.56060(12)
C18 C 0.0745(6) 0.8369(3) 0.51526(14)
H22 H 0.0112(6) 0.7915(3) 0.49885(14)
C19 C 0.0730(7) 0.9178(3) 0.49367(15)
H23 H 0.0078(7) 0.9265(3) 0.46321(15)
C20 C 0.1671(8) 0.9849(3) 0.5169(2)
H24 H 0.1671(8) 1.0395(3) 0.5025(2)
C21 C 0.2615(8) 0.9709(3) 0.5618(2)
H25 H 0.3256(8) 1.0165(3) 0.5779(2)
C22 C 0.2634(7) 0.8898(2) 0.58377(14)
H26 H 0.3294(7) 0.8812(2) 0.61415(14)
C23 C 0.3422(7) 0.8647(3) 0.75297(14)
H27 H 0.3546(7) 0.8365(3) 0.72105(14)
H28 H 0.3572(7) 0.9259(3) 0.74858(14)
H29 H 0.2123(7) 0.8527(3) 0.76703(14)
C24 C 0.3527(6) 0.8301(2) 0.87282(13)
H30 H 0.2237(6) 0.8508(2) 0.86191(13)
H31 H 0.3774(6) 0.8493(2) 0.90653(13)
H32 H 0.3541(6) 0.7682(2) 0.87180(13)
C25 C -0.1327(6) 0.5474(2) 0.6297(2)
H33 H -0.0739(6) 0.5068(2) 0.6526(2)
H34 H -0.1647(6) 0.5189(2) 0.5988(2)
H35 H -0.2532(6) 0.5708(2) 0.6442(2)
C26 C -0.2075(6) 0.7458(3) 0.60650(13)
H36 H -0.3306(6) 0.7136(3) 0.60837(13)
H37 H -0.2250(6) 0.7941(3) 0.58433(13)
H38 H -0.1721(6) 0.7663(3) 0.63935(13)
loop_
_geom_bond_atom_site_label_1
_geom_bond_atom_site_label_2
_geom_bond_site_symmetry_1
_geom_bond_site_symmetry_2
P1 O1 1_555 1_555
P2 O3 1_555 1_555
O2 P1 1_555 1_555
O4 P2 1_555 1_555
N1 P1 1_555 1_555
H1 N1 1_555 1_555
N2 P2 1_555 1_555
H2 N2 1_555 1_555
N3 P1 1_555 1_555
N4 P2 1_555 1_555
C1 N1 1_555 1_555
H3 C1 1_555 1_555
C2 N2 1_555 1_555
H4 C2 1_555 1_555
C3 C2 1_555 1_555
H5 C3 1_555 1_555
H6 C3 1_555 1_555
C4 C3 1_555 1_555
H7 C4 1_555 1_555
H8 C4 1_555 1_555
C5 C4 1_555 1_555
H9 C5 1_555 1_555
H10 C5 1_555 1_555
C6 C1 1_555 1_555
H11 C6 1_555 1_555
H12 C6 1_555 1_555
C7 N3 1_555 1_555
H13 C7 1_555 1_555
C8 O2 1_555 1_555
H14 C8 1_555 1_555
C9 C8 1_555 1_555
C10 C9 1_555 1_555
H15 C10 1_555 1_555
C11 C10 1_555 1_555
H16 C11 1_555 1_555
C12 C11 1_555 1_555
H17 C12 1_555 1_555
C13 C12 1_555 1_555
H18 C13 1_555 1_555
C14 C9 1_555 1_555
H19 C14 1_555 1_555
C15 N4 1_555 1_555
H20 C15 1_555 1_555
C16 O4 1_555 1_555
H21 C16 1_555 1_555
C17 C16 1_555 1_555
C18 C17 1_555 1_555
H22 C18 1_555 1_555
C19 C18 1_555 1_555
H23 C19 1_555 1_555
C20 C19 1_555 1_555
H24 C20 1_555 1_555
C21 C20 1_555 1_555
H25 C21 1_555 1_555
C22 C17 1_555 1_555
H26 C22 1_555 1_555
C23 N3 1_555 1_555
H27 C23 1_555 1_555
H28 C23 1_555 1_555
H29 C23 1_555 1_555
C24 C7 1_555 1_555
H30 C24 1_555 1_555
H31 C24 1_555 1_555
H32 C24 1_555 1_555
C25 N4 1_555 1_555
H33 C25 1_555 1_555
H34 C25 1_555 1_555
H35 C25 1_555 1_555
C26 C15 1_555 1_555
H36 C26 1_555 1_555
H37 C26 1_555 1_555
H38 C26 1_555 1_555
C1 C2 1_555 1_555
C5 C6 1_555 1_555
C7 C8 1_555 1_555
C13 C14 1_555 1_555
C15 C16 1_555 1_555
C21 C22 1_555 1_555

#END
