
#######################################################################
#
#                 Cambridge Crystallographic Data Centre
#                                CCDC 
#
#######################################################################
#
# If this CIF has been generated from an entry in the Cambridge 
# Structural Database, then it will include bibliographic, chemical, 
# crystal, experimental, refinement or atomic coordinate data resulting 
# from the CCDC's data processing and validation procedures.
#
#######################################################################

data_FOZGUY
_chemical_formula_moiety         'C16 H15 N1 O1 S1'
_chemical_name_systematic        
1-Methyl-3-((4-methylphenyl)sulfinyl)-1H-indole
_symmetry_cell_setting           monoclinic
_symmetry_space_group_name_H-M   'P 21/n'
_symmetry_Int_Tables_number      14
_space_group_name_Hall           '-P 2yn'
loop_
_symmetry_equiv_pos_site_id
_symmetry_equiv_pos_as_xyz
1 x,y,z
2 1/2-x,1/2+y,1/2-z
3 -x,-y,-z
4 1/2+x,1/2-y,1/2+z
_cell_length_a                   9.629(12)
_cell_length_b                   12.153(15)
_cell_length_c                   12.525(15)
_cell_angle_alpha                90
_cell_angle_beta                 96.945(19)
_cell_angle_gamma                90
_cell_volume                     1454.94
_exptl_crystal_colour            colorless
_exptl_crystal_description       block
_cell_formula_units_Z            4
loop_
_atom_site_label
_atom_site_type_symbol
_atom_site_fract_x
_atom_site_fract_y
_atom_site_fract_z
C1 C 0.2072(2) -0.00593(19) 0.53136(18)
H1 H 0.1666 -0.0297 0.5910
C2 C 0.1852(2) 0.09607(18) 0.48359(17)
C3 C 0.2681(2) 0.09913(18) 0.39333(16)
C4 C 0.2884(3) 0.1775(2) 0.31302(18)
H2 H 0.2432 0.2452 0.3103
C5 C 0.3785(3) 0.1495(3) 0.2379(2)
H3 H 0.3932 0.1998 0.1845
C6 C 0.4477(3) 0.0476(3) 0.2408(2)
H4 H 0.5083 0.0330 0.1901
C7 C 0.4281(3) -0.0316(3) 0.3170(2)
H5 H 0.4727 -0.0995 0.3179
C8 C 0.3368(2) -0.00410(19) 0.39347(18)
C9 C 0.3490(3) -0.1791(2) 0.5085(3)
H6 H 0.4441 -0.1750 0.5416
H7 H 0.3443 -0.2241 0.4452
H8 H 0.2919 -0.2109 0.5582
C10 C 0.2023(2) 0.30310(18) 0.57070(17)
C11 C 0.1953(3) 0.4035(2) 0.51746(19)
H9 H 0.1278 0.4154 0.4590
C12 C 0.2905(3) 0.4865(2) 0.5524(2)
H10 H 0.2855 0.5535 0.5163
C13 C 0.3930(3) 0.4715(2) 0.6403(2)
C14 C 0.3962(3) 0.3709(2) 0.69397(18)
H11 H 0.4627 0.3593 0.7532
C15 C 0.3016(3) 0.2871(2) 0.66070(18)
H12 H 0.3045 0.2209 0.6982
C16 C 0.4971(4) 0.5633(3) 0.6781(3)
H13 H 0.4555 0.6121 0.7254
H14 H 0.5205 0.6037 0.6169
H15 H 0.5804 0.5314 0.7155
N1 N 0.29766(19) -0.06742(16) 0.47862(16)
O1 O -0.02047(18) 0.24280(16) 0.43597(16)
S1 S 0.07374(6) 0.19635(5) 0.53002(5)
loop_
_geom_bond_atom_site_label_1
_geom_bond_atom_site_label_2
_geom_bond_site_symmetry_1
_geom_bond_site_symmetry_2
C1 H1 1_555 1_555
C2 C1 1_555 1_555
C3 C2 1_555 1_555
C4 C3 1_555 1_555
H2 C4 1_555 1_555
C5 C4 1_555 1_555
H3 C5 1_555 1_555
C6 C5 1_555 1_555
H4 C6 1_555 1_555
C7 C6 1_555 1_555
H5 C7 1_555 1_555
C8 C3 1_555 1_555
C9 H6 1_555 1_555
H7 C9 1_555 1_555
H8 C9 1_555 1_555
C10 C11 1_555 1_555
C11 H9 1_555 1_555
C12 C11 1_555 1_555
H10 C12 1_555 1_555
C13 C12 1_555 1_555
C14 C13 1_555 1_555
H11 C14 1_555 1_555
C15 C10 1_555 1_555
H12 C15 1_555 1_555
C16 C13 1_555 1_555
H13 C16 1_555 1_555
H14 C16 1_555 1_555
H15 C16 1_555 1_555
N1 C1 1_555 1_555
O1 S1 1_555 1_555
S1 C2 1_555 1_555
C7 C8 1_555 1_555
C8 N1 1_555 1_555
C9 N1 1_555 1_555
C10 S1 1_555 1_555
C14 C15 1_555 1_555

#END
