
#######################################################################
#
#                 Cambridge Crystallographic Data Centre
#                                CCDC 
#
#######################################################################
#
# If this CIF has been generated from an entry in the Cambridge 
# Structural Database, then it will include bibliographic, chemical, 
# crystal, experimental, refinement or atomic coordinate data resulting 
# from the CCDC's data processing and validation procedures.
#
#######################################################################

data_FOZHUZ
_chemical_formula_moiety         'C21 H17 Cl4 N1 O1'
_chemical_name_systematic        
3,5-bis(2,4-Dichlorobenzylidene)-1-ethylpiperidin-4-one
_symmetry_cell_setting           monoclinic
_symmetry_space_group_name_H-M   'C 2/c'
_symmetry_Int_Tables_number      15
_space_group_name_Hall           '-C 2yn'
loop_
_symmetry_equiv_pos_site_id
_symmetry_equiv_pos_as_xyz
1 x,y,z
2 -x,y,1/2-z
3 1/2+x,1/2+y,z
4 1/2-x,1/2+y,1/2-z
5 -x,-y,-z
6 x,-y,1/2+z
7 1/2-x,1/2-y,-z
8 1/2+x,1/2-y,1/2+z
_cell_length_a                   21.5694(4)
_cell_length_b                   7.03970(10)
_cell_length_c                   25.8262(3)
_cell_angle_alpha                90
_cell_angle_beta                 90.3250(10)
_cell_angle_gamma                90
_cell_volume                     3921.44
_exptl_crystal_colour            yellow
_exptl_crystal_description       block
_cell_formula_units_Z            8
loop_
_atom_site_label
_atom_site_type_symbol
_atom_site_fract_x
_atom_site_fract_y
_atom_site_fract_z
Cl1 Cl -0.19241(2) 1.15148(6) 0.445104(16)
Cl2 Cl -0.19335(2) 0.69887(7) 0.611898(15)
Cl3 Cl -0.07418(2) 0.83938(6) 0.105156(16)
Cl4 Cl 0.02410(2) 0.18471(6) 0.039405(15)
O1 O -0.08114(6) 0.93036(17) 0.29385(5)
N1 N -0.18277(6) 0.4615(2) 0.29696(5)
C1 C -0.16005(8) 0.5105(2) 0.34891(6)
H1 H -0.1292 0.4152 0.3604
H2 H -0.1949 0.5089 0.3736
C2 C -0.13079(7) 0.7046(2) 0.34842(6)
C3 C -0.10184(8) 0.7699(2) 0.29878(6)
C4 C -0.09637(7) 0.6252(2) 0.25649(6)
C5 C -0.12880(8) 0.4375(2) 0.26347(6)
H3 H -0.1422 0.3879 0.2293
H4 H -0.0998 0.3445 0.2792
C6 C -0.21913(9) 0.2841(3) 0.29763(7)
H5 H -0.1948 0.1843 0.3156
H6 H -0.2264 0.2416 0.2616
C7 C -0.28098(9) 0.3067(3) 0.32440(7)
H7 H -0.3031 0.1851 0.3239
H8 H -0.3057 0.4029 0.3063
H9 H -0.2741 0.3466 0.3603
C8 C -0.12908(8) 0.8253(2) 0.38856(6)
H10 H -0.1133 0.9486 0.3816
C9 C -0.14875(7) 0.7891(2) 0.44201(6)
C10 C -0.17475(8) 0.9327(2) 0.47268(6)
C11 C -0.18855(8) 0.9074(2) 0.52447(6)
H11 H -0.2053 1.0084 0.5444
C12 C -0.17733(8) 0.7321(3) 0.54654(6)
C13 C -0.15357(8) 0.5829(2) 0.51783(6)
H12 H -0.1474 0.4617 0.5332
C14 C -0.13903(7) 0.6135(2) 0.46634(6)
H13 H -0.1219 0.5121 0.4468
C15 C -0.06392(8) 0.6745(2) 0.21450(6)
H14 H -0.0506 0.8029 0.2125
C16 C -0.04690(8) 0.5501(2) 0.17118(6)
C17 C -0.04528(8) 0.6158(2) 0.11995(6)
C18 C -0.02324(8) 0.5059(2) 0.07955(6)
H15 H -0.0221 0.5547 0.0453
C19 C -0.00299(8) 0.3240(2) 0.09020(6)
C20 C -0.00435(8) 0.2499(3) 0.13986(6)
H16 H 0.0097 0.1244 0.1467
C21 C -0.02666(8) 0.3633(3) 0.17927(6)
H17 H -0.0283 0.3124 0.2133
loop_
_geom_bond_atom_site_label_1
_geom_bond_atom_site_label_2
_geom_bond_site_symmetry_1
_geom_bond_site_symmetry_2
Cl1 C10 1_555 1_555
Cl2 C12 1_555 1_555
Cl3 C17 1_555 1_555
Cl4 C19 1_555 1_555
O1 C3 1_555 1_555
N1 C1 1_555 1_555
C1 H1 1_555 1_555
H2 C1 1_555 1_555
C2 C1 1_555 1_555
C3 C2 1_555 1_555
C4 C3 1_555 1_555
C5 N1 1_555 1_555
H3 C5 1_555 1_555
H4 C5 1_555 1_555
C6 N1 1_555 1_555
H5 C6 1_555 1_555
H6 C6 1_555 1_555
C7 C6 1_555 1_555
H7 C7 1_555 1_555
H8 C7 1_555 1_555
H9 C7 1_555 1_555
C8 C2 1_555 1_555
H10 C8 1_555 1_555
C9 C8 1_555 1_555
C10 C9 1_555 1_555
C11 C10 1_555 1_555
H11 C11 1_555 1_555
C12 C11 1_555 1_555
C13 C12 1_555 1_555
H12 C13 1_555 1_555
C14 C9 1_555 1_555
H13 C14 1_555 1_555
C15 C4 1_555 1_555
H14 C15 1_555 1_555
C16 C15 1_555 1_555
C17 C16 1_555 1_555
C18 C17 1_555 1_555
H15 C18 1_555 1_555
C19 C18 1_555 1_555
C20 C19 1_555 1_555
H16 C20 1_555 1_555
C21 C16 1_555 1_555
H17 C21 1_555 1_555
C4 C5 1_555 1_555
C13 C14 1_555 1_555
C20 C21 1_555 1_555

#END
