
#######################################################################
#
#                 Cambridge Crystallographic Data Centre
#                                CCDC 
#
#######################################################################
#
# If this CIF has been generated from an entry in the Cambridge 
# Structural Database, then it will include bibliographic, chemical, 
# crystal, experimental, refinement or atomic coordinate data resulting 
# from the CCDC's data processing and validation procedures.
#
#######################################################################

data_FOZHOT
_chemical_formula_moiety         'C20 H15 N5 O2'
_chemical_name_systematic        
(11-Oxo-12-phenyl-8,10,11,12-tetrahydro-9H-chromeno[3,2-e][1,2,4]triazolo[1,5-c]pyrimidin-2-yl)acetonitrile
_symmetry_cell_setting           triclinic
_symmetry_space_group_name_H-M   'P -1'
_symmetry_Int_Tables_number      2
_space_group_name_Hall           '-P 1'
loop_
_symmetry_equiv_pos_site_id
_symmetry_equiv_pos_as_xyz
1 x,y,z
2 -x,-y,-z
_cell_length_a                   7.143(2)
_cell_length_b                   9.347(3)
_cell_length_c                   13.445(5)
_cell_angle_alpha                98.246(4)
_cell_angle_beta                 104.990(4)
_cell_angle_gamma                99.722(4)
_cell_volume                     837.999
_exptl_crystal_colour            colorless
_exptl_crystal_description       block
_cell_formula_units_Z            2
loop_
_atom_site_label
_atom_site_type_symbol
_atom_site_fract_x
_atom_site_fract_y
_atom_site_fract_z
O1 O 0.37570(19) 0.91892(12) 0.12776(9)
O2 O 0.7554(2) 0.80460(14) 0.43787(10)
N1 N 0.20566(19) 0.50993(15) -0.04355(10)
N2 N 0.2189(2) 0.76134(16) -0.02517(11)
N3 N 0.33657(19) 0.38627(14) 0.07574(10)
N4 N 0.1528(2) 0.36446(15) -0.09467(10)
N5 N -0.0116(3) -0.0044(2) -0.21989(16)
C1 C 0.3778(2) 0.66169(17) 0.12493(11)
C2 C 0.3155(2) 0.52039(17) 0.05937(11)
C3 C 0.3246(2) 0.77407(17) 0.07670(12)
C4 C 0.4848(2) 0.68464(17) 0.24037(11)
H1 H 0.6029 0.6421 0.2481
C5 C 0.5509(2) 0.84888(17) 0.28434(12)
C6 C 0.3516(2) 0.60564(16) 0.29751(11)
C7 C 0.4929(2) 0.95177(17) 0.23133(13)
C8 C 0.2349(2) 0.29861(18) -0.01901(12)
C9 C 0.1915(2) 0.65951(18) 0.31395(12)
H2 H 0.1673 0.7468 0.2928
C10 C 0.5454(3) 1.11451(19) 0.27296(15)
H3 H 0.4323 1.1573 0.2464
H4 H 0.6541 1.1599 0.2492
C11 C 0.6907(2) 0.89580(19) 0.39087(13)
C12 C 0.1607(3) 0.62953(19) -0.08321(13)
H5 H 0.0870 0.6168 -0.1531
C13 C 0.2103(3) 0.13403(18) -0.03497(14)
H6 H 0.3402 0.1100 -0.0234
H7 H 0.1522 0.0984 0.0170
C14 C 0.7543(3) 1.0591(2) 0.43627(17)
H8 H 0.7777 1.0738 0.5117
H9 H 0.8788 1.0973 0.4231
C15 C 0.0859(3) 0.0570(2) -0.13941(16)
C16 C 0.0662(3) 0.5841(2) 0.36194(14)
H10 H -0.0409 0.6212 0.3734
C17 C 0.3845(3) 0.4761(2) 0.32943(16)
H11 H 0.4923 0.4390 0.3190
C18 C 0.1007(4) 0.4547(2) 0.39238(15)
H12 H 0.0161 0.4035 0.4238
C19 C 0.6053(3) 1.1455(2) 0.39190(16)
H13 H 0.6612 1.2504 0.4182
H14 H 0.4886 1.1200 0.4152
C20 C 0.2596(4) 0.4007(2) 0.37666(19)
H15 H 0.2833 0.3133 0.3978
loop_
_geom_bond_atom_site_label_1
_geom_bond_atom_site_label_2
_geom_bond_site_symmetry_1
_geom_bond_site_symmetry_2
O1 C3 1_555 1_555
O2 C11 1_555 1_555
N1 N4 1_555 1_555
N2 C3 1_555 1_555
N3 C2 1_555 1_555
N4 C8 1_555 1_555
N5 C15 1_555 1_555
C1 C2 1_555 1_555
C2 N1 1_555 1_555
C3 C1 1_555 1_555
C4 C1 1_555 1_555
H1 C4 1_555 1_555
C5 C4 1_555 1_555
C6 C4 1_555 1_555
C7 O1 1_555 1_555
C8 N3 1_555 1_555
C9 C6 1_555 1_555
H2 C9 1_555 1_555
C10 C7 1_555 1_555
H3 C10 1_555 1_555
H4 C10 1_555 1_555
C11 C5 1_555 1_555
C12 N1 1_555 1_555
H5 C12 1_555 1_555
C13 C8 1_555 1_555
H6 C13 1_555 1_555
H7 C13 1_555 1_555
C14 C11 1_555 1_555
H8 C14 1_555 1_555
H9 C14 1_555 1_555
C15 C13 1_555 1_555
C16 C9 1_555 1_555
H10 C16 1_555 1_555
C17 C6 1_555 1_555
H11 C17 1_555 1_555
C18 C16 1_555 1_555
H12 C18 1_555 1_555
C19 C10 1_555 1_555
H13 C19 1_555 1_555
H14 C19 1_555 1_555
C20 C17 1_555 1_555
H15 C20 1_555 1_555
N2 C12 1_555 1_555
C5 C7 1_555 1_555
C14 C19 1_555 1_555
C18 C20 1_555 1_555

#END
