
#######################################################################
#
#                 Cambridge Crystallographic Data Centre
#                                CCDC 
#
#######################################################################
#
# If this CIF has been generated from an entry in the Cambridge 
# Structural Database, then it will include bibliographic, chemical, 
# crystal, experimental, refinement or atomic coordinate data resulting 
# from the CCDC's data processing and validation procedures.
#
#######################################################################

data_FOZHEJ
_chemical_formula_moiety         'C12 H10 Cl4 N2 O2'
_chemical_name_systematic        
1-(4-Acetyl-6,7-dichloro-3,4-dihydroquinoxalin-1(2H)-yl)-2,2-dichloroethanone
_symmetry_cell_setting           monoclinic
_symmetry_space_group_name_H-M   'P 21/n'
_symmetry_Int_Tables_number      14
_space_group_name_Hall           '-P 2yn'
loop_
_symmetry_equiv_pos_site_id
_symmetry_equiv_pos_as_xyz
1 x,y,z
2 1/2-x,1/2+y,1/2-z
3 -x,-y,-z
4 1/2+x,1/2-y,1/2+z
_cell_length_a                   8.4514(17)
_cell_length_b                   20.122(4)
_cell_length_c                   8.7557(18)
_cell_angle_alpha                90
_cell_angle_beta                 103.66(3)
_cell_angle_gamma                90
_cell_volume                     1446.87
_exptl_crystal_colour            colorless
_exptl_crystal_description       block
_cell_formula_units_Z            4
loop_
_atom_site_label
_atom_site_type_symbol
_atom_site_fract_x
_atom_site_fract_y
_atom_site_fract_z
C1 C 0.6601(2) 0.95720(9) 0.8944(2)
C2 C 0.6832(3) 1.02581(9) 0.9058(2)
H1 H 0.6244 1.0532 0.8269
C3 C 0.7920(3) 1.05379(9) 1.0323(3)
C4 C 0.8859(3) 1.01437(10) 1.1483(2)
C5 C 0.8695(3) 0.94638(9) 1.1361(2)
H2 H 0.9369 0.9193 1.2098
C6 C 0.7538(2) 0.91790(9) 1.0151(2)
C7 C 0.7179(3) 0.82465(9) 0.8410(2)
H3 H 0.7138 0.7765 0.8374
H4 H 0.8085 0.8393 0.7991
C8 C 0.5620(3) 0.85315(10) 0.7465(3)
H5 H 0.5521 0.8429 0.6364
H6 H 0.4714 0.8323 0.7784
C9 C 0.7351(3) 0.80357(9) 1.1187(2)
C10 C 0.7114(3) 0.83195(10) 1.2740(2)
H7 H 0.6977 0.8803 1.2656
C11 C 0.4287(3) 0.95975(10) 0.6615(2)
C12 C 0.3204(3) 0.91904(12) 0.5345(3)
H8 H 0.2352 0.9467 0.4750
H9 H 0.2734 0.8833 0.5814
H10 H 0.3835 0.9012 0.4662
Cl1 Cl 1.02474(8) 1.04826(3) 1.30624(7)
Cl2 Cl 0.80997(9) 1.13913(3) 1.04140(9)
Cl3 Cl 0.88414(9) 0.81214(3) 1.42458(7)
Cl4 Cl 0.53503(9) 0.79502(3) 1.31047(9)
N1 N 0.7388(2) 0.84775(8) 1.00292(19)
N2 N 0.5521(2) 0.92595(8) 0.76523(19)
O1 O 0.7414(3) 0.74421(7) 1.10034(19)
O2 O 0.4070(2) 1.01900(8) 0.6698(2)
loop_
_geom_bond_atom_site_label_1
_geom_bond_atom_site_label_2
_geom_bond_site_symmetry_1
_geom_bond_site_symmetry_2
C1 C2 1_555 1_555
C2 H1 1_555 1_555
C3 C2 1_555 1_555
C4 C3 1_555 1_555
C5 C4 1_555 1_555
H2 C5 1_555 1_555
C6 C1 1_555 1_555
C7 H3 1_555 1_555
H4 C7 1_555 1_555
C8 C7 1_555 1_555
H5 C8 1_555 1_555
H6 C8 1_555 1_555
C9 C10 1_555 1_555
C10 H7 1_555 1_555
C11 C12 1_555 1_555
C12 H8 1_555 1_555
H9 C12 1_555 1_555
H10 C12 1_555 1_555
Cl1 C4 1_555 1_555
Cl2 C3 1_555 1_555
Cl3 C10 1_555 1_555
Cl4 C10 1_555 1_555
N1 C6 1_555 1_555
N2 C1 1_555 1_555
O1 C9 1_555 1_555
O2 C11 1_555 1_555
C5 C6 1_555 1_555
C7 N1 1_555 1_555
C8 N2 1_555 1_555
C9 N1 1_555 1_555
C11 N2 1_555 1_555

#END
