
#######################################################################
#
#                 Cambridge Crystallographic Data Centre
#                                CCDC 
#
#######################################################################
#
# If this CIF has been generated from an entry in the Cambridge 
# Structural Database, then it will include bibliographic, chemical, 
# crystal, experimental, refinement or atomic coordinate data resulting 
# from the CCDC's data processing and validation procedures.
#
#######################################################################

data_FOZLIQ
_chemical_formula_moiety         'C4 H8 N7 O2 1+,C2 H3 N8 O2 1-,H2 O1'
_chemical_name_systematic        
'2-Iminio-5-nitrimino-octahydroimidazo(4,5-d)imidazole 5-(nitroguanidinyl)tetrazolate monohydrate'
_symmetry_cell_setting           triclinic
_symmetry_space_group_name_H-M   'P -1'
_symmetry_Int_Tables_number      2
_space_group_name_Hall           '-P 1'
loop_
_symmetry_equiv_pos_site_id
_symmetry_equiv_pos_as_xyz
1 x,y,z
2 -x,-y,-z
_cell_length_a                   8.2741(4)
_cell_length_b                   8.4920(4)
_cell_length_c                   11.3507(8)
_cell_angle_alpha                102.566(2)
_cell_angle_beta                 98.514(2)
_cell_angle_gamma                108.446(2)
_cell_volume                     717.897
_exptl_crystal_colour            colorless
_exptl_crystal_description       irregular
_cell_formula_units_Z            2
loop_
_atom_site_label
_atom_site_type_symbol
_atom_site_fract_x
_atom_site_fract_y
_atom_site_fract_z
C1 C 0.03243(15) 0.29625(15) 0.37750(11)
N1 N -0.03658(14) 0.40729(14) 0.34431(9)
N2 N -0.07664(14) 0.35343(15) 0.21892(10)
N3 N -0.03300(14) 0.21898(15) 0.18158(10)
N4 N 0.03854(14) 0.17884(14) 0.28068(9)
N5 N 0.09081(14) 0.30810(13) 0.50139(9)
H1 H 0.0773 0.3893 0.5577
N6 N 0.19360(14) 0.08292(14) 0.46286(9)
H2 H 0.1620 0.0685 0.3826
H3 H 0.2432 0.0158 0.4900
C2 C 0.16678(15) 0.20454(15) 0.54218(11)
N7 N 0.20515(14) 0.24601(13) 0.66927(9)
N8 N 0.28506(14) 0.15728(14) 0.72335(10)
O1 O 0.31761(14) 0.20065(13) 0.83919(8)
O2 O 0.32838(13) 0.03966(13) 0.66668(9)
C3 C 0.42624(15) 0.45018(15) 1.29863(11)
N9 N 0.50290(14) 0.34807(14) 1.33779(10)
H4 H 0.5479 0.3618 1.4162
C4 C 0.50304(15) 0.21255(15) 1.23593(11)
H5 H 0.6230 0.2096 1.2364
N10 N 0.37516(14) 0.04394(13) 1.22550(9)
H6 H 0.3776 -0.0123 1.2819
N11 N 0.12737(15) -0.16654(14) 1.08036(10)
H7 H 0.1185 -0.2391 1.1260
H8 H 0.0516 -0.1963 1.0089
C5 C 0.25326(16) -0.01436(15) 1.11874(10)
N12 N 0.27417(14) 0.10450(13) 1.05592(9)
H9 H 0.2046 0.0903 0.9847
C6 C 0.42567(16) 0.25924(15) 1.11992(11)
H10 H 0.5114 0.2874 1.0672
N13 N 0.38186(14) 0.40795(13) 1.17507(10)
H11 H 0.3326 0.4625 1.1324
N14 N 0.40955(14) 0.57332(13) 1.38899(10)
N15 N 0.33859(14) 0.68264(14) 1.35440(10)
O3 O 0.32381(15) 0.78987(13) 1.44077(10)
O4 O 0.29330(14) 0.67859(13) 1.24363(9)
O5 O 0.21659(15) 0.47763(14) 0.95262(9)
H12 H 0.236(2) 0.3973(18) 0.9031(11)
H13 H 0.168(2) 0.524(2) 0.9044(12)
loop_
_geom_bond_atom_site_label_1
_geom_bond_atom_site_label_2
_geom_bond_site_symmetry_1
_geom_bond_site_symmetry_2
C1 N1 1_555 1_555
N1 N2 1_555 1_555
N2 N3 1_555 1_555
N3 N4 1_555 1_555
N4 C1 1_555 1_555
N5 C1 1_555 1_555
H1 N5 1_555 1_555
N6 H2 1_555 1_555
H3 N6 1_555 1_555
C2 N5 1_555 1_555
N7 C2 1_555 1_555
N8 N7 1_555 1_555
O1 N8 1_555 1_555
O2 N8 1_555 1_555
C3 N9 1_555 1_555
N9 H4 1_555 1_555
C4 N9 1_555 1_555
H5 C4 1_555 1_555
N10 C4 1_555 1_555
H6 N10 1_555 1_555
N11 H7 1_555 1_555
H8 N11 1_555 1_555
C5 N10 1_555 1_555
N12 C5 1_555 1_555
H9 N12 1_555 1_555
C6 C4 1_555 1_555
H10 C6 1_555 1_555
N13 C3 1_555 1_555
H11 N13 1_555 1_555
N14 C3 1_555 1_555
N15 N14 1_555 1_555
O3 N15 1_555 1_555
O4 N15 1_555 1_555
O5 H12 1_555 1_555
H13 O5 1_555 1_555
N6 C2 1_555 1_555
N11 C5 1_555 1_555
N12 C6 1_555 1_555
C6 N13 1_555 1_555

#END
