
#######################################################################
#
#                 Cambridge Crystallographic Data Centre
#                                CCDC 
#
#######################################################################
#
# If this CIF has been generated from an entry in the Cambridge 
# Structural Database, then it will include bibliographic, chemical, 
# crystal, experimental, refinement or atomic coordinate data resulting 
# from the CCDC's data processing and validation procedures.
#
#######################################################################

data_FOZQOC
_chemical_formula_moiety         'C24 H21 N5 O4'
_chemical_name_systematic        
9-((2,4-dinitrophenyl)hydrazono)-3-methyl-9a-phenyl-2,3,9,9a-tetrahydro-1H-pyrrolo[1,2-a]indole
_symmetry_cell_setting           triclinic
_symmetry_space_group_name_H-M   'P 1'
_symmetry_Int_Tables_number      1
_space_group_name_Hall           'P 1'
loop_
_symmetry_equiv_pos_site_id
_symmetry_equiv_pos_as_xyz
1 x,y,z
_cell_length_a                   6.4390(3)
_cell_length_b                   8.7291(4)
_cell_length_c                   10.3553(5)
_cell_angle_alpha                110.203(5)
_cell_angle_beta                 94.880(4)
_cell_angle_gamma                95.232(4)
_cell_volume                     539.704
_cell_formula_units_Z            1
loop_
_atom_site_label
_atom_site_type_symbol
_atom_site_fract_x
_atom_site_fract_y
_atom_site_fract_z
N1 N -0.0922(3) 0.8237(2) 0.97082(19)
C1 C 0.1407(4) 0.7442(3) 0.7194(2)
N2 N -0.1379(3) 0.8161(3) 1.0957(2)
N3 N 0.3276(3) 1.0250(2) 0.85935(19)
C2 C 0.2581(3) 1.0029(3) 1.0709(2)
C3 C 0.3914(4) 1.0770(3) 1.0012(2)
C4 C -0.3283(4) 0.7374(3) 1.0997(2)
C5 C 0.3125(4) 1.1512(3) 0.7929(3)
H1 H 0.3009 1.2567 0.8652
C6 C -0.5904(4) 0.6458(3) 1.2230(3)
H2 H -0.6319 0.6392 1.3050
C7 C 0.1267(3) 0.9131(3) 0.8272(2)
C8 C 0.3240(4) 0.7044(3) 0.6626(2)
H3 H 0.4435 0.7818 0.6904
C9 C -0.0358(4) 0.6265(3) 0.6747(3)
H4 H -0.1614 0.6518 0.7102
C10 C 0.3072(4) 1.0380(3) 1.2122(3)
H5 H 0.2217 0.9888 1.2586
N4 N -0.9278(4) 0.4917(3) 1.1002(3)
C11 C -0.6624(4) 0.5845(3) 0.9772(3)
H6 H -0.7539 0.5371 0.8954
N5 N -0.2658(5) 0.8013(4) 1.3553(2)
O1 O -0.0951(4) 0.8797(5) 1.3616(2)
C12 C 0.4831(4) 1.1461(4) 1.2832(3)
H7 H 0.5181 1.1678 1.3774
C13 C 0.1559(5) 0.4335(4) 0.5216(3)
H8 H 0.1610 0.3302 0.4555
C14 C 0.5649(4) 1.1903(3) 1.0739(3)
H9 H 0.6495 1.2429 1.0293
C15 C 0.0836(3) 0.9036(3) 0.9675(2)
C16 C 0.6078(4) 1.2224(4) 1.2148(3)
H10 H 0.7236 1.2974 1.2648
C17 C 0.1043(5) 1.0930(4) 0.6993(3)
H11 H 0.0412 1.1853 0.6886
H12 H 0.1232 1.0174 0.6084
C18 C 0.3312(5) 0.5492(3) 0.5638(3)
H13 H 0.4554 0.5240 0.5262
O2 O -0.9838(5) 0.4950(5) 1.2106(3)
O3 O -1.0382(3) 0.4247(3) 0.9900(3)
O4 O -0.3306(5) 0.7873(5) 1.4572(2)
C19 C -0.0306(4) 1.0070(3) 0.7737(3)
H14 H -0.1461 0.9321 0.7106
H15 H -0.0865 1.0858 0.8497
C20 C -0.3954(4) 0.7258(3) 1.2227(2)
C21 C -0.4696(4) 0.6622(3) 0.9772(2)
H16 H -0.4298 0.6659 0.8940
C22 C -0.0269(5) 0.4716(4) 0.5778(3)
H17 H -0.1453 0.3932 0.5508
C23 C -0.7215(4) 0.5767(3) 1.1017(3)
C24 C 0.4986(5) 1.1748(5) 0.7191(4)
H18 H 0.6237 1.2118 0.7846
H19 H 0.4765 1.2555 0.6773
H20 H 0.5138 1.0723 0.6486
H21 H -0.070(5) 0.875(4) 1.177(3)
loop_
_geom_bond_atom_site_label_1
_geom_bond_atom_site_label_2
_geom_bond_site_symmetry_1
_geom_bond_site_symmetry_2
N1 N2 1_555 1_555
C1 C7 1_555 1_555
N2 C4 1_555 1_555
N3 C3 1_555 1_555
C2 C3 1_555 1_555
C3 C14 1_555 1_555
C4 C20 1_555 1_555
C5 N3 1_555 1_555
H1 C5 1_555 1_555
C6 H2 1_555 1_555
C7 N3 1_555 1_555
C8 C1 1_555 1_555
H3 C8 1_555 1_555
C9 C1 1_555 1_555
H4 C9 1_555 1_555
C10 C2 1_555 1_555
H5 C10 1_555 1_555
N4 O2 1_555 1_555
C11 H6 1_555 1_555
N5 O1 1_555 1_555
C12 C10 1_555 1_555
H7 C12 1_555 1_555
C13 H8 1_555 1_555
C14 H9 1_555 1_555
C15 N1 1_555 1_555
C16 C12 1_555 1_555
H10 C16 1_555 1_555
C17 C5 1_555 1_555
H11 C17 1_555 1_555
H12 C17 1_555 1_555
C18 C8 1_555 1_555
H13 C18 1_555 1_555
O3 N4 1_555 1_555
O4 N5 1_555 1_555
C19 C7 1_555 1_555
H14 C19 1_555 1_555
H15 C19 1_555 1_555
C20 C6 1_555 1_555
C21 C4 1_555 1_555
H16 C21 1_555 1_555
C22 C9 1_555 1_555
H17 C22 1_555 1_555
C23 C6 1_555 1_555
C24 C5 1_555 1_555
H18 C24 1_555 1_555
H19 C24 1_555 1_555
H20 C24 1_555 1_555
H21 N2 1_555 1_555
C2 C15 1_555 1_555
C7 C15 1_555 1_555
N4 C23 1_555 1_555
C11 C21 1_555 1_555
C11 C23 1_555 1_555
N5 C20 1_555 1_555
C13 C18 1_555 1_555
C13 C22 1_555 1_555
C14 C16 1_555 1_555
C17 C19 1_555 1_555

#END
