
#######################################################################
#
#                 Cambridge Crystallographic Data Centre
#                                CCDC 
#
#######################################################################
#
# If this CIF has been generated from an entry in the Cambridge 
# Structural Database, then it will include bibliographic, chemical, 
# crystal, experimental, refinement or atomic coordinate data resulting 
# from the CCDC's data processing and validation procedures.
#
#######################################################################

data_FOZQAM
_chemical_formula_moiety         'C36 H54 N7 O6 P3'
_chemical_name_systematic        
(2S,2'S,2''S,4S,4'S,4''S,5R,5'R,5''R)-N,N',N''-tris(2-(3,4-Dimethyl-2-oxo-5-phenyl-1,3,2-oxazaphospholan-2-yl)aminoethyl)amine
_symmetry_cell_setting           monoclinic
_symmetry_space_group_name_H-M   'P 21'
_symmetry_Int_Tables_number      4
_space_group_name_Hall           'P 2yb'
loop_
_symmetry_equiv_pos_site_id
_symmetry_equiv_pos_as_xyz
1 x,y,z
2 -x,1/2+y,-z
_cell_length_a                   12.428(4)
_cell_length_b                   21.713(10)
_cell_length_c                   16.317(6)
_cell_angle_alpha                90
_cell_angle_beta                 112.22(3)
_cell_angle_gamma                90
_cell_volume                     4076.15
_chemical_melting_point          '127-130 deg.C'
_cell_formula_units_Z            4
loop_
_atom_site_label
_atom_site_type_symbol
_atom_site_fract_x
_atom_site_fract_y
_atom_site_fract_z
P1 P 0.4351(3) 0.38728(14) 0.96537(18)
P2 P 0.40177(23) 0.21147 1.26549(17)
P3 P 0.43785(22) 0.17345(14) 0.80658(17)
O1 O 0.3103(5) 0.3848(3) 0.9158(4)
O2 O 0.5085(6) 0.3880(3) 0.9051(5)
O3 O 0.2776(5) 0.2268(4) 1.2287(4)
O4 O 0.4815(5) 0.2692(3) 1.3129(4)
O5 O 0.3150(5) 0.1896(3) 0.7726(4)
O6 O 0.4679(5) 0.1071(3) 0.7802(4)
N1 N 0.6122(6) 0.2141(4) 1.0995(4)
N2 N 0.4756(7) 0.3313(4) 1.0347(5)
N3 N 0.4936(8) 0.4509(4) 1.0158(5)
N4 N 0.4404(6) 0.1844(4) 1.1892(4)
N5 N 0.4515(7) 0.1670(4) 1.3523(5)
N6 N 0.4936(6) 0.1763(4) 0.9125(4)
N7 N 0.5182(6) 0.2092(4) 0.7627(4)
C1 C 0.6594(8) 0.2741(5) 1.0951(8)
C2 C 0.5876(10) 0.3258(6) 1.1072(9)
C3 C 0.6392(7) 0.1969(5) 1.1919(6)
C4 C 0.5490(9) 0.1557(5) 1.2043(6)
C5 C 0.6518(8) 0.1674(5) 1.0589(6)
C6 C 0.6202(8) 0.1717(6) 0.9629(6)
C7 C 0.5496(9) 0.4877(5) 0.9722(7)
C8 C 0.5438(9) 0.4488(5) 0.8915(7)
C9 C 0.6542(9) 0.4451(5) 0.8740(6)
C10 C 0.6793(9) 0.4913(6) 0.8307(8)
C11 C 0.7792(11) 0.4875(7) 0.8124(9)
C12 C 0.8501(10) 0.4378(7) 0.8352(9)
C13 C 0.8225(11) 0.3906(7) 0.8748(10)
C14 C 0.7248(10) 0.3939(5) 0.8966(8)
C15 C 0.6671(13) 0.5091(9) 1.0329(10)
C16 C 0.4575(11) 0.4778(6) 1.0834(8)
C17 C 0.5261(9) 0.1986(5) 1.4322(6)
C18 C 0.5014(8) 0.2663(5) 1.4074(7)
C19 C 0.5905(9) 0.3114(5) 1.4596(6)
C20 C 0.6017(9) 0.3258(5) 1.5435(7)
C21 C 0.6795(11) 0.3668(7) 1.5936(7)
C22 C 0.7558(10) 0.3951(6) 1.5623(9)
C23 C 0.7490(10) 0.3822(7) 1.4772(9)
C24 C 0.6673(10) 0.3394(6) 1.4295(7)
C25 C 0.6529(10) 0.1817(6) 1.4622(7)
C26 C 0.4226(15) 0.1046(7) 1.3554(9)
C27 C 0.5591(8) 0.1718(5) 0.7069(6)
C28 C 0.4911(8) 0.1110(5) 0.6991(6)
C29 C 0.5411(8) 0.0511(5) 0.6842(6)
C30 C 0.4952(9) 0.0230(5) 0.6021(7)
C31 C 0.5408(11) -0.0327(6) 0.5899(8)
C32 C 0.6271(13) -0.0606(7) 0.6558(9)
C33 C 0.6748(13) -0.0342(6) 0.7383(9)
C34 C 0.6284(11) 0.0219(6) 0.7518(7)
C35 C 0.6894(9) 0.1660(5) 0.7435(6)
C36 C 0.5127(10) 0.2753(5) 0.7499(8)
H1 H 0.421 0.300 1.029
H2 H 0.390 0.192 1.129
H3 H 0.444 0.184 0.945
H4 H 0.660 0.281 1.033
H5 H 0.740 0.279 1.133
H6 H 0.579 0.316 1.163
H7 H 0.632 0.364 1.118
H8 H 0.714 0.176 1.218
H9 H 0.644 0.233 1.229
H10 H 0.574 0.135 1.261
H11 H 0.532 0.121 1.160
H12 H 0.738 0.162 1.089
H13 H 0.623 0.127 1.070
H14 H 0.650 0.139 0.938
H15 H 0.658 0.210 0.951
H16 H 0.504 0.525 0.951
H17 H 0.482 0.468 0.837
H18 H 0.630 0.533 0.818
H19 H 0.791 0.521 0.774
H20 H 0.916 0.439 0.815
H21 H 0.883 0.358 0.894
H22 H 0.708 0.360 0.929
H23 H 0.670 0.534 1.082
H24 H 0.723 0.476 1.055
H25 H 0.706 0.537 1.001
H26 H 0.422 0.449 1.108
H27 H 0.522 0.497 1.130
H28 H 0.401 0.511 1.058
H29 H 0.502 0.190 1.483
H30 H 0.430 0.279 1.415
H31 H 0.542 0.309 1.567
H32 H 0.698 0.376 1.656
H33 H 0.812 0.423 1.596
H34 H 0.795 0.406 1.449
H35 H 0.661 0.326 1.371
H36 H 0.670 0.139 1.481
H37 H 0.685 0.188 1.417
H38 H 0.706 0.205 1.514
H39 H 0.380 0.088 1.299
H40 H 0.501 0.081 1.375
H41 H 0.393 0.095 1.397
H42 H 0.535 0.192 0.647
H43 H 0.413 0.115 0.649
H44 H 0.432 0.043 0.554
H45 H 0.512 -0.053 0.534
H46 H 0.652 -0.103 0.642
H47 H 0.740 -0.055 0.784
H48 H 0.659 0.041 0.810
H49 H 0.727 0.204 0.745
H50 H 0.715 0.149 0.801
H51 H 0.713 0.138 0.706
H52 H 0.483 0.297 0.786
H53 H 0.584 0.293 0.753
H54 H 0.457 0.285 0.686
P4 P 0.78456(24) 0.71174(17) 0.49892(17)
P5 P 0.81201(22) 0.70328(16) 0.04695(17)
P6 P 0.7602(3) 0.98688(15) 0.31977(21)
O7 O 0.6576(5) 0.7112(4) 0.4612(4)
O8 O 0.8436(5) 0.7727(3) 0.5515(4)
O9 O 0.6843(5) 0.7027(4) 0.0094(4)
O10 O 0.8745(5) 0.6411(3) 0.0336(4)
O11 O 0.7034(7) 1.0333(3) 0.2545(5)
O12 O 0.8757(6) 1.0082(4) 0.4000(4)
N8 N 0.9466(7) 0.7801(4) 0.3229(5)
N9 N 0.8353(6) 0.7025(4) 0.4226(5)
N10 N 0.8483(7) 0.6653(4) 0.5838(5)
N11 N 0.8600(6) 0.7176(4) 0.1502(4)
N12 N 0.8754(7) 0.7468(4) -0.0022(5)
N13 N 0.7914(10) 0.9295(4) 0.2709(6)
N14 N 0.6989(7) 0.9643(4) 0.3863(6)
C37 C 0.9946(8) 0.7669(5) 0.4146(7)
C38 C 0.9606(9) 0.7055(6) 0.4390(6)
C39 C 1.0198(10) 0.7568(7) 0.2780(8)
C40 C 0.9790(9) 0.7321(9) 0.2012(7)
C41 C 0.9221(11) 0.8519(10) 0.3033(9)
C42 C 0.8214(11) 0.8585(7) 0.3060(8)
C43 C 0.9085(8) 0.6977(5) 0.6653(6)
C44 C 0.8688(8) 0.7643(5) 0.6456(6)
C45 C 0.9483(8) 0.8127(5) 0.6973(6)
C46 C 0.9325(9) 0.8366(5) 0.7726(7)
C47 C 1.0078(12) 0.8818(6) 0.8219(8)
C48 C 1.0914(12) 0.9049(6) 0.7985(9)
C49 C 1.1099(10) 0.8808(6) 0.7281(8)
C50 C 1.0376(9) 0.8355(6) 0.6759(7)
C51 C 1.0396(9) 0.6878(6) 0.7026(7)
C52 C 0.8384(11) 0.5996(6) 0.5818(8)
C53 C 0.9412(7) 0.7131(5) -0.0460(6)
C54 C 0.8996(8) 0.6468(5) -0.0447(5)
C55 C 0.9851(8) 0.5971(5) -0.0441(5)
C56 C 1.0168(9) 0.5936(5) -0.1169(7)
C57 C 1.0951(10) 0.5476(5) -0.1193(8)
C58 C 1.1365(9) 0.5066(5) -0.0519(8)
C59 C 1.1068(12) 0.5113(6) 0.0191(8)
C60 C 1.0318(10) 0.5584(6) 0.0235(7)
C61 C 1.0699(8) 0.7251(6) -0.0015(7)
C62 C 0.8451(9) 0.8107(6) -0.0243(8)
C63 C 0.7588(9) 0.9802(5) 0.4785(7)
C64 C 0.8473(10) 1.0269(5) 0.4731(7)
C65 C 0.9552(11) 1.0338(5) 0.5593(7)
C66 C 0.9411(15) 1.0560(7) 0.6338(10)
C67 C 1.0452(19) 1.0669(7) 0.7163(9)
C68 C 1.1350(15) 1.0470(8) 0.7004(10)
C69 C 1.1652(14) 1.0285(9) 0.6400(11)
C70 C 1.0609(11) 1.0195(7) 0.5594(8)
C71 C 0.8146(10) 0.9245(5) 0.5335(7)
C72 C 0.5930(10) 0.9301(6) 0.3592(8)
H55 H 0.782 0.697 0.362
H56 H 0.807 0.716 0.183
H57 H 0.797 0.937 0.215
H58 H 1.079 0.770 0.437
H59 H 0.969 0.798 0.446
H60 H 1.005 0.694 0.500
H61 H 0.980 0.673 0.404
H62 H 1.071 0.726 0.321
H63 H 1.074 0.791 0.282
H64 H 1.003 0.760 0.161
H65 H 1.025 0.694 0.201
H66 H 0.925 0.854 0.248
H67 H 0.983 0.869 0.348
H68 H 0.760 0.831 0.269
H69 H 0.819 0.855 0.365
H70 H 0.882 0.682 0.711
H71 H 0.798 0.769 0.656
H72 H 0.868 0.820 0.792
H73 H 1.001 0.904 0.871
H74 H 1.140 0.937 0.831
H75 H 1.179 0.895 0.717
H76 H 1.050 0.819 0.624
H77 H 1.059 0.644 0.714
H78 H 1.072 0.700 0.660
H79 H 1.080 0.708 0.756
H80 H 0.796 0.586 0.520
H81 H 0.916 0.581 0.598
H82 H 0.802 0.583 0.616
H83 H 0.916 0.728 -0.107
H84 H 0.828 0.640 -0.099
H85 H 0.976 0.618 -0.171
H86 H 1.125 0.545 -0.170
H87 H 1.188 0.473 -0.053
H88 H 1.145 0.483 0.070
H89 H 1.004 0.557 0.073
H90 H 1.092 0.766 -0.002
H91 H 1.097 0.712 0.061
H92 H 1.114 0.700 -0.027
H93 H 0.805 0.828 0.007
H94 H 0.914 0.834 -0.018
H95 H 0.796 0.812 -0.089
H96 H 0.703 0.996 0.503
H97 H 0.809 1.066 0.462
H98 H 0.854 1.069 0.632
H99 H 1.043 1.081 0.774
H100 H 1.194 1.069 0.757
H101 H 1.251 1.017 0.662
H102 H 1.071 1.009 0.505
H103 H 0.765 0.892 0.540
H104 H 0.869 0.903 0.511
H105 H 0.866 0.936 0.595
H106 H 0.561 0.924 0.297
H107 H 0.599 0.893 0.389
H108 H 0.533 0.955 0.373
loop_
_geom_bond_atom_site_label_1
_geom_bond_atom_site_label_2
_geom_bond_site_symmetry_1
_geom_bond_site_symmetry_2
P1 O1 1_555 1_555
P2 O3 1_555 1_555
P3 O5 1_555 1_555
O2 P1 1_555 1_555
O4 P2 1_555 1_555
O6 P3 1_555 1_555
N1 C1 1_555 1_555
N2 P1 1_555 1_555
N3 P1 1_555 1_555
N4 P2 1_555 1_555
N5 P2 1_555 1_555
N6 P3 1_555 1_555
N7 P3 1_555 1_555
C1 C2 1_555 1_555
C2 N2 1_555 1_555
C3 N1 1_555 1_555
C4 N4 1_555 1_555
C5 N1 1_555 1_555
C6 N6 1_555 1_555
C7 N3 1_555 1_555
C8 O2 1_555 1_555
C9 C8 1_555 1_555
C10 C9 1_555 1_555
C11 C10 1_555 1_555
C12 C11 1_555 1_555
C13 C12 1_555 1_555
C14 C9 1_555 1_555
C15 C7 1_555 1_555
C16 N3 1_555 1_555
C17 N5 1_555 1_555
C18 O4 1_555 1_555
C19 C18 1_555 1_555
C20 C19 1_555 1_555
C21 C20 1_555 1_555
C22 C21 1_555 1_555
C23 C22 1_555 1_555
C24 C19 1_555 1_555
C25 C17 1_555 1_555
C26 N5 1_555 1_555
C27 N7 1_555 1_555
C28 O6 1_555 1_555
C29 C28 1_555 1_555
C30 C29 1_555 1_555
C31 C30 1_555 1_555
C32 C31 1_555 1_555
C33 C32 1_555 1_555
C34 C29 1_555 1_555
C35 C27 1_555 1_555
C36 N7 1_555 1_555
H1 N2 1_555 1_555
H2 N4 1_555 1_555
H3 N6 1_555 1_555
H4 C1 1_555 1_555
H5 C1 1_555 1_555
H6 C2 1_555 1_555
H7 C2 1_555 1_555
H8 C3 1_555 1_555
H9 C3 1_555 1_555
H10 C4 1_555 1_555
H11 C4 1_555 1_555
H12 C5 1_555 1_555
H13 C5 1_555 1_555
H14 C6 1_555 1_555
H15 C6 1_555 1_555
H16 C7 1_555 1_555
H17 C8 1_555 1_555
H18 C10 1_555 1_555
H19 C11 1_555 1_555
H20 C12 1_555 1_555
H21 C13 1_555 1_555
H22 C14 1_555 1_555
H23 C15 1_555 1_555
H24 C15 1_555 1_555
H25 C15 1_555 1_555
H26 C16 1_555 1_555
H27 C16 1_555 1_555
H28 C16 1_555 1_555
H29 C17 1_555 1_555
H30 C18 1_555 1_555
H31 C20 1_555 1_555
H32 C21 1_555 1_555
H33 C22 1_555 1_555
H34 C23 1_555 1_555
H35 C24 1_555 1_555
H36 C25 1_555 1_555
H37 C25 1_555 1_555
H38 C25 1_555 1_555
H39 C26 1_555 1_555
H40 C26 1_555 1_555
H41 C26 1_555 1_555
H42 C27 1_555 1_555
H43 C28 1_555 1_555
H44 C30 1_555 1_555
H45 C31 1_555 1_555
H46 C32 1_555 1_555
H47 C33 1_555 1_555
H48 C34 1_555 1_555
H49 C35 1_555 1_555
H50 C35 1_555 1_555
H51 C35 1_555 1_555
H52 C36 1_555 1_555
H53 C36 1_555 1_555
H54 C36 1_555 1_555
P4 O7 1_555 1_555
P5 O9 1_555 1_555
P6 O11 1_555 1_555
O8 P4 1_555 1_555
O10 P5 1_555 1_555
O12 P6 1_555 1_555
N8 C37 1_555 1_555
N9 P4 1_555 1_555
N10 P4 1_555 1_555
N11 P5 1_555 1_555
N12 P5 1_555 1_555
N13 P6 1_555 1_555
N14 P6 1_555 1_555
C37 C38 1_555 1_555
C38 N9 1_555 1_555
C39 N8 1_555 1_555
C40 N11 1_555 1_555
C41 N8 1_555 1_555
C42 N13 1_555 1_555
C43 N10 1_555 1_555
C44 O8 1_555 1_555
C45 C44 1_555 1_555
C46 C45 1_555 1_555
C47 C46 1_555 1_555
C48 C47 1_555 1_555
C49 C48 1_555 1_555
C50 C45 1_555 1_555
C51 C43 1_555 1_555
C52 N10 1_555 1_555
C53 N12 1_555 1_555
C54 O10 1_555 1_555
C55 C54 1_555 1_555
C56 C55 1_555 1_555
C57 C56 1_555 1_555
C58 C57 1_555 1_555
C59 C58 1_555 1_555
C60 C55 1_555 1_555
C61 C53 1_555 1_555
C62 N12 1_555 1_555
C63 N14 1_555 1_555
C64 O12 1_555 1_555
C65 C64 1_555 1_555
C66 C65 1_555 1_555
C67 C66 1_555 1_555
C68 C67 1_555 1_555
C69 C68 1_555 1_555
C70 C65 1_555 1_555
C71 C63 1_555 1_555
C72 N14 1_555 1_555
H55 N9 1_555 1_555
H56 N11 1_555 1_555
H57 N13 1_555 1_555
H58 C37 1_555 1_555
H59 C37 1_555 1_555
H60 C38 1_555 1_555
H61 C38 1_555 1_555
H62 C39 1_555 1_555
H63 C39 1_555 1_555
H64 C40 1_555 1_555
H65 C40 1_555 1_555
H66 C41 1_555 1_555
H67 C41 1_555 1_555
H68 C42 1_555 1_555
H69 C42 1_555 1_555
H70 C43 1_555 1_555
H71 C44 1_555 1_555
H72 C46 1_555 1_555
H73 C47 1_555 1_555
H74 C48 1_555 1_555
H75 C49 1_555 1_555
H76 C50 1_555 1_555
H77 C51 1_555 1_555
H78 C51 1_555 1_555
H79 C51 1_555 1_555
H80 C52 1_555 1_555
H81 C52 1_555 1_555
H82 C52 1_555 1_555
H83 C53 1_555 1_555
H84 C54 1_555 1_555
H85 C56 1_555 1_555
H86 C57 1_555 1_555
H87 C58 1_555 1_555
H88 C59 1_555 1_555
H89 C60 1_555 1_555
H90 C61 1_555 1_555
H91 C61 1_555 1_555
H92 C61 1_555 1_555
H93 C62 1_555 1_555
H94 C62 1_555 1_555
H95 C62 1_555 1_555
H96 C63 1_555 1_555
H97 C64 1_555 1_555
H98 C66 1_555 1_555
H99 C67 1_555 1_555
H100 C68 1_555 1_555
H101 C69 1_555 1_555
H102 C70 1_555 1_555
H103 C71 1_555 1_555
H104 C71 1_555 1_555
H105 C71 1_555 1_555
H106 C72 1_555 1_555
H107 C72 1_555 1_555
H108 C72 1_555 1_555
C3 C4 1_555 1_555
C5 C6 1_555 1_555
C7 C8 1_555 1_555
C13 C14 1_555 1_555
C17 C18 1_555 1_555
C23 C24 1_555 1_555
C27 C28 1_555 1_555
C33 C34 1_555 1_555
C39 C40 1_555 1_555
C41 C42 1_555 1_555
C43 C44 1_555 1_555
C49 C50 1_555 1_555
C53 C54 1_555 1_555
C59 C60 1_555 1_555
C63 C64 1_555 1_555
C69 C70 1_555 1_555

#END
