
#######################################################################
#
#                 Cambridge Crystallographic Data Centre
#                                CCDC 
#
#######################################################################
#
# If this CIF has been generated from an entry in the Cambridge 
# Structural Database, then it will include bibliographic, chemical, 
# crystal, experimental, refinement or atomic coordinate data resulting 
# from the CCDC's data processing and validation procedures.
#
#######################################################################

data_FOZRUJ
_chemical_formula_moiety         'C23 H20 F1 N3 O2 S1'
_chemical_name_systematic        
4-(3-(2-Fluorophenyl)-3,3a,4,5-tetrahydro-2H-benzo[g]indazol-2-yl)benzenesulfonamide
_symmetry_cell_setting           triclinic
_symmetry_space_group_name_H-M   'P -1'
_symmetry_Int_Tables_number      2
_space_group_name_Hall           '-P 1'
loop_
_symmetry_equiv_pos_site_id
_symmetry_equiv_pos_as_xyz
1 x,y,z
2 -x,-y,-z
_cell_length_a                   7.8378(8)
_cell_length_b                   8.2817(7)
_cell_length_c                   16.4906(16)
_cell_angle_alpha                77.341(3)
_cell_angle_beta                 84.824(3)
_cell_angle_gamma                74.653(3)
_cell_volume                     1006.56
_exptl_crystal_colour            colorless
_exptl_crystal_description       block
_cell_formula_units_Z            2
loop_
_atom_site_label
_atom_site_type_symbol
_atom_site_fract_x
_atom_site_fract_y
_atom_site_fract_z
S1 S 1.55155(7) -0.04741(8) 0.13431(4)
N1 N 0.6857(2) 0.3512(2) 0.17545(11)
O1 O 1.6529(2) -0.1057(2) 0.20751(11)
O2 O 1.5455(2) -0.1672(2) 0.08438(11)
N2 N 1.6330(2) 0.0975(2) 0.07503(12)
C1 C 0.9939(3) 0.2218(3) 0.20651(13)
N3 N 0.8286(2) 0.3147(3) 0.22694(11)
C2 C 1.1965(3) 0.0786(3) 0.11103(14)
H1 H 1.2180 0.0411 0.0610
C3 C 1.3346(3) 0.0475(3) 0.16411(14)
C4 C 1.3004(3) 0.1022(3) 0.23861(14)
H2 H 1.3920 0.0815 0.2746
C5 C 1.0284(3) 0.1642(3) 0.13179(14)
H3 H 0.9369 0.1840 0.0958
C6 C 0.7664(3) 0.2098(3) 0.37568(14)
C7 C 1.1329(3) 0.1866(3) 0.25992(14)
H4 H 1.1117 0.2210 0.3107
C8 C 0.5536(3) 0.4481(3) 0.20803(14)
C9 C 0.5943(3) 0.4922(3) 0.28622(15)
H5 H 0.6136 0.6075 0.2723
F1 F 0.7953(3) 0.3625(3) 0.47525(10)
C10 C 0.3770(3) 0.5131(3) 0.17463(15)
C11 C 0.3395(3) 0.4956(3) 0.09673(16)
H6 H 0.4297 0.4399 0.0643
C12 C 0.7485(3) 0.0587(4) 0.35987(17)
H7 H 0.7434 0.0485 0.3052
C13 C 0.2407(3) 0.5978(3) 0.22346(17)
C14 C 0.7736(3) 0.3635(3) 0.30762(14)
H8 H 0.8562 0.4224 0.3222
C15 C 0.7755(4) 0.2161(4) 0.45802(17)
C16 C 0.1722(4) 0.5587(3) 0.06680(19)
H9 H 0.1491 0.5450 0.0147
C17 C 0.4380(3) 0.4937(4) 0.34785(16)
H10 H 0.4632 0.5257 0.3978
H11 H 0.4167 0.3806 0.3632
C18 C 0.0729(4) 0.6614(3) 0.1911(2)
H12 H -0.0184 0.7184 0.2225
C19 C 0.2756(4) 0.6216(4) 0.30788(18)
H13 H 0.1730 0.6120 0.3444
H14 H 0.2902 0.7362 0.3026
C20 C 0.0382(4) 0.6426(4) 0.1143(2)
H15 H -0.0755 0.6862 0.0941
C21 C 0.7379(4) -0.0785(4) 0.4240(2)
H16 H 0.7254 -0.1796 0.4124
C22 C 0.7663(5) 0.0842(6) 0.52213(19)
H17 H 0.7736 0.0943 0.5767
C23 C 0.7461(5) -0.0634(6) 0.5053(2)
H18 H 0.7379 -0.1544 0.5486
H19? H 1.5686 0.1421 0.0300
H20? H 1.7440 0.0513 0.0599
H21? H 1.6315 0.1794 0.1024
loop_
_geom_bond_atom_site_label_1
_geom_bond_atom_site_label_2
_geom_bond_site_symmetry_1
_geom_bond_site_symmetry_2
S1 O1 1_555 1_555
N1 N3 1_555 1_555
O2 S1 1_555 1_555
N2 S1 1_555 1_555
C1 N3 1_555 1_555
N3 C14 1_555 1_555
C2 H1 1_555 1_555
C3 S1 1_555 1_555
C4 C3 1_555 1_555
H2 C4 1_555 1_555
C5 C1 1_555 1_555
H3 C5 1_555 1_555
C6 C12 1_555 1_555
C7 C1 1_555 1_555
H4 C7 1_555 1_555
C8 N1 1_555 1_555
C9 C8 1_555 1_555
H5 C9 1_555 1_555
F1 C15 1_555 1_555
C10 C8 1_555 1_555
C11 C10 1_555 1_555
H6 C11 1_555 1_555
C12 H7 1_555 1_555
C13 C10 1_555 1_555
C14 C6 1_555 1_555
H8 C14 1_555 1_555
C15 C6 1_555 1_555
C16 C11 1_555 1_555
H9 C16 1_555 1_555
C17 C9 1_555 1_555
H10 C17 1_555 1_555
H11 C17 1_555 1_555
C18 C13 1_555 1_555
H12 C18 1_555 1_555
C19 C13 1_555 1_555
H13 C19 1_555 1_555
H14 C19 1_555 1_555
C20 C16 1_555 1_555
H15 C20 1_555 1_555
C21 C12 1_555 1_555
H16 C21 1_555 1_555
C22 C15 1_555 1_555
H17 C22 1_555 1_555
C23 C21 1_555 1_555
H18 C23 1_555 1_555
C2 C3 1_555 1_555
C2 C5 1_555 1_555
C4 C7 1_555 1_555
C9 C14 1_555 1_555
C17 C19 1_555 1_555
C18 C20 1_555 1_555
C22 C23 1_555 1_555

#END
