
#######################################################################
#
#                 Cambridge Crystallographic Data Centre
#                                CCDC 
#
#######################################################################
#
# If this CIF has been generated from an entry in the Cambridge 
# Structural Database, then it will include bibliographic, chemical, 
# crystal, experimental, refinement or atomic coordinate data resulting 
# from the CCDC's data processing and validation procedures.
#
#######################################################################

data_FOZROD
_chemical_formula_moiety         'C22 H18 Br1 N3 O3 S1'
_chemical_name_systematic        
4-(3-(4-Bromophenyl)-3a,4-dihydrochromeno[4,3-c]pyrazol-2(3H)-yl)benzenesulfonamide
_symmetry_cell_setting           triclinic
_symmetry_space_group_name_H-M   'P -1'
_symmetry_Int_Tables_number      2
_space_group_name_Hall           '-P 1'
loop_
_symmetry_equiv_pos_site_id
_symmetry_equiv_pos_as_xyz
1 x,y,z
2 -x,-y,-z
_cell_length_a                   7.9215(4)
_cell_length_b                   8.0680(4)
_cell_length_c                   16.8064(10)
_cell_angle_alpha                87.612(2)
_cell_angle_beta                 86.999(2)
_cell_angle_gamma                73.631(2)
_cell_volume                     1028.75
_exptl_crystal_colour            colorless
_exptl_crystal_description       block
_cell_formula_units_Z            2
loop_
_atom_site_label
_atom_site_type_symbol
_atom_site_fract_x
_atom_site_fract_y
_atom_site_fract_z
Br1 Br 0.73800(5) 0.76465(6) -0.02713(2)
S1 S 0.54468(9) -0.04726(8) 0.37182(4)
O1 O 0.6663(3) -0.0400(2) 0.43081(12)
N1 N 0.4038(3) -0.1323(3) 0.41650(14)
N2 N 0.1124(3) 0.7958(3) 0.31828(14)
O2 O 0.6091(3) -0.1448(2) 0.30184(12)
N3 N 0.1422(3) 0.6555(3) 0.26834(14)
C1 C 0.4357(4) 0.1647(3) 0.34034(16)
C2 C 0.2453(4) 0.4946(3) 0.29240(16)
C3 C 0.2548(4) 0.7187(3) 0.13314(17)
C4 C 0.3851(4) 0.1981(4) 0.26287(17)
H1 H 0.4144 0.1095 0.2266
C5 C 0.4021(4) 0.7426(4) 0.16586(18)
H2 H 0.4056 0.7490 0.2208
C6 C 0.3952(4) 0.7213(4) 0.00221(18)
H3 H 0.3930 0.7142 -0.0528
C7 C 0.2992(4) 0.4606(3) 0.37041(16)
H4 H 0.2716 0.5493 0.4067
C8 C 0.0953(4) 0.7109(4) 0.18587(17)
H5 H 0.0361 0.6331 0.1634
C9 C 0.5393(4) 0.7455(4) 0.03673(18)
C10 C 0.3926(4) 0.2976(3) 0.39406(17)
H6 H 0.4272 0.2759 0.4464
C11 C 0.2536(4) 0.7077(4) 0.05090(18)
H7 H 0.1554 0.6908 0.0282
C12 C 0.0128(4) 0.9269(4) 0.28129(19)
C13 C 0.5442(4) 0.7569(4) 0.11791(19)
H8 H 0.6426 0.7742 0.1403
C14 C 0.2919(4) 0.3612(4) 0.23887(17)
H9 H 0.2595 0.3827 0.1862
C15 C -0.0481(4) 1.1021(4) 0.3086(2)
O3 O -0.1572(4) 1.1941(3) 0.1764(2)
C16 C -0.0306(4) 1.1506(4) 0.3851(3)
H10 H 0.0276 1.0674 0.4218
C17 C -0.0377(4) 0.8877(4) 0.20138(19)
H11 H -0.1567 0.8734 0.2061
C18 C -0.1344(5) 1.2295(4) 0.2532(3)
C19 C -0.1848(6) 1.4424(5) 0.3545(4)
H12 H -0.2316 1.5560 0.3701
C20 C -0.0381(5) 1.0392(5) 0.1450(2)
H13 H 0.0797 1.0528 0.1387
H14 H -0.0746 1.0181 0.0931
C21 C -0.0973(5) 1.3191(5) 0.4080(3)
H15 H -0.0831 1.3493 0.4596
C22 C -0.2036(6) 1.3996(5) 0.2788(4)
H16? H 0.3520 -0.0681 0.4575
H17? H 0.3229 -0.1375 0.3826
H18? H 0.4586 -0.2384 0.4341
H19? H -0.3288 1.4325 0.2699
H20? H -0.1528 1.4725 0.2434
loop_
_geom_bond_atom_site_label_1
_geom_bond_atom_site_label_2
_geom_bond_site_symmetry_1
_geom_bond_site_symmetry_2
Br1 C9 1_555 1_555
S1 O1 1_555 1_555
N1 S1 1_555 1_555
N2 N3 1_555 1_555
O2 S1 1_555 1_555
N3 C2 1_555 1_555
C1 S1 1_555 1_555
C2 C7 1_555 1_555
C3 C5 1_555 1_555
C4 C1 1_555 1_555
H1 C4 1_555 1_555
C5 H2 1_555 1_555
C6 H3 1_555 1_555
C7 H4 1_555 1_555
C8 N3 1_555 1_555
H5 C8 1_555 1_555
C9 C6 1_555 1_555
C10 C1 1_555 1_555
H6 C10 1_555 1_555
C11 C3 1_555 1_555
H7 C11 1_555 1_555
C12 N2 1_555 1_555
C13 C5 1_555 1_555
H8 C13 1_555 1_555
C14 C2 1_555 1_555
H9 C14 1_555 1_555
C15 C12 1_555 1_555
O3 C18 1_555 1_555
C16 C15 1_555 1_555
H10 C16 1_555 1_555
C17 C8 1_555 1_555
H11 C17 1_555 1_555
C18 C15 1_555 1_555
C19 H12 1_555 1_555
C20 O3 1_555 1_555
H13 C20 1_555 1_555
H14 C20 1_555 1_555
C21 C16 1_555 1_555
H15 C21 1_555 1_555
C22 C18 1_555 1_555
C3 C8 1_555 1_555
C4 C14 1_555 1_555
C6 C11 1_555 1_555
C7 C10 1_555 1_555
C9 C13 1_555 1_555
C12 C17 1_555 1_555
C17 C20 1_555 1_555
C19 C21 1_555 1_555
C19 C22 1_555 1_555

#END
