
#######################################################################
#
#                 Cambridge Crystallographic Data Centre
#                                CCDC 
#
#######################################################################
#
# If this CIF has been generated from an entry in the Cambridge 
# Structural Database, then it will include bibliographic, chemical, 
# crystal, experimental, refinement or atomic coordinate data resulting 
# from the CCDC's data processing and validation procedures.
#
#######################################################################

data_FOZRAP
_chemical_name_common            
'(R)-methyl 4-fluoro-3-((S)-2-oxocyclohexyl)-2,3-dihydro-1,2-benzothiazole-3-carboxylate 1,1-dioxide'
_chemical_formula_moiety         'C15 H16 F1 N1 O5 S1'
_chemical_name_systematic        
'(R)-methyl 4-fluoro-3-((S)-2-oxocyclohexyl)-2,3-dihydrobenzo-[d]-isothiazole-3-carboxylate 1,1-dioxide'
_symmetry_cell_setting           monoclinic
_symmetry_space_group_name_H-M   'P 21'
_symmetry_Int_Tables_number      4
_space_group_name_Hall           'P 2yb'
loop_
_symmetry_equiv_pos_site_id
_symmetry_equiv_pos_as_xyz
1 x,y,z
2 -x,1/2+y,-z
_cell_length_a                   7.8435(7)
_cell_length_b                   10.6203(9)
_cell_length_c                   9.3466(10)
_cell_angle_alpha                90
_cell_angle_beta                 100.329(9)
_cell_angle_gamma                90
_cell_volume                     765.958
_exptl_crystal_colour            white
_exptl_crystal_description       block
_cell_formula_units_Z            2
_exptl_crystal_recrystallization_method 'ethyl acetate'
loop_
_atom_site_label
_atom_site_type_symbol
_atom_site_fract_x
_atom_site_fract_y
_atom_site_fract_z
S1 S 0.33970(12) 0.28074(8) 0.67585(10)
O1 O 0.2256(4) 0.2109(3) 0.5682(4)
F1 F 0.9505(3) 0.1695(3) 0.8555(3)
O2 O 0.2565(4) 0.3650(3) 0.7611(4)
N1 N 0.4886(4) 0.3496(4) 0.6027(4)
O3 O 0.6536(5) 0.5448(3) 0.7329(4)
O4 O 0.6460(4) 0.1042(3) 0.5121(4)
C1 C 0.7887(5) 0.3034(3) 0.5664(4)
H1 H 0.9058 0.2901 0.6217
C2 C 0.7399(5) 0.1847(4) 0.4781(5)
O5 O 0.8578(5) 0.4357(3) 0.8737(5)
C3 C 0.6536(5) 0.2162(4) 0.7805(4)
C4 C 0.7387(5) 0.4421(4) 0.7749(5)
C5 C 0.7836(6) 0.1439(4) 0.8613(5)
C6 C 0.4855(5) 0.1826(4) 0.7875(4)
C7 C 0.9030(6) 0.3953(5) 0.3521(5)
H2 H 0.9050 0.4709 0.2942
H3 H 1.0214 0.3749 0.3960
C8 C 0.6682(5) 0.3272(3) 0.6803(4)
C9 C 0.4437(6) 0.0842(4) 0.8710(5)
H4 H 0.3288 0.0647 0.8740
C10 C 0.8267(6) 0.2889(5) 0.2560(5)
H5 H 0.8950 0.2751 0.1806
H6 H 0.7096 0.3102 0.2095
C11 C 0.7978(6) 0.4193(4) 0.4706(5)
H7 H 0.6812 0.4439 0.4262
H8 H 0.8493 0.4886 0.5309
C12 C 0.8241(7) 0.1690(5) 0.3455(5)
H9 H 0.7627 0.1041 0.2838
H10 H 0.9424 0.1404 0.3769
C13 C 0.7478(6) 0.0457(5) 0.9461(5)
H11 H 0.8373 -0.0005 1.0006
C14 C 0.7175(8) 0.6628(5) 0.7979(6)
H12 H 0.6422 0.7298 0.7569
H13 H 0.8322 0.6778 0.7791
H14 H 0.7207 0.6593 0.9010
C15 C 0.5770(7) 0.0162(5) 0.9495(5)
H15 H 0.5520 -0.0510 1.0061
H16 H 0.465(6) 0.419(5) 0.582(5)
loop_
_geom_bond_atom_site_label_1
_geom_bond_atom_site_label_2
_geom_bond_site_symmetry_1
_geom_bond_site_symmetry_2
S1 O1 1_555 1_555
F1 C5 1_555 1_555
O2 S1 1_555 1_555
N1 S1 1_555 1_555
O3 C4 1_555 1_555
O4 C2 1_555 1_555
C1 H1 1_555 1_555
C2 C1 1_555 1_555
O5 C4 1_555 1_555
C3 C5 1_555 1_555
C4 C8 1_555 1_555
C5 C13 1_555 1_555
C6 S1 1_555 1_555
C7 H2 1_555 1_555
H3 C7 1_555 1_555
C8 N1 1_555 1_555
C9 C6 1_555 1_555
H4 C9 1_555 1_555
C10 C7 1_555 1_555
H5 C10 1_555 1_555
H6 C10 1_555 1_555
C11 C1 1_555 1_555
H7 C11 1_555 1_555
H8 C11 1_555 1_555
C12 C2 1_555 1_555
H9 C12 1_555 1_555
H10 C12 1_555 1_555
C13 H11 1_555 1_555
C14 O3 1_555 1_555
H12 C14 1_555 1_555
H13 C14 1_555 1_555
H14 C14 1_555 1_555
C15 C9 1_555 1_555
H15 C15 1_555 1_555
H16 N1 1_555 1_555
C1 C8 1_555 1_555
C3 C6 1_555 1_555
C3 C8 1_555 1_555
C7 C11 1_555 1_555
C10 C12 1_555 1_555
C13 C15 1_555 1_555

#END
