
#######################################################################
#
#                 Cambridge Crystallographic Data Centre
#                                CCDC 
#
#######################################################################
#
# If this CIF has been generated from an entry in the Cambridge 
# Structural Database, then it will include bibliographic, chemical, 
# crystal, experimental, refinement or atomic coordinate data resulting 
# from the CCDC's data processing and validation procedures.
#
#######################################################################

data_FOZYEA
_chemical_formula_moiety         'C23 H14 O6 S1'
_chemical_name_systematic        
3,3'-(2-Thienylmethylene)bis(4-hydroxy-2H-chromen-2-one)
_symmetry_cell_setting           monoclinic
_symmetry_space_group_name_H-M   'P 21/n'
_symmetry_Int_Tables_number      14
_space_group_name_Hall           '-P 2yn'
loop_
_symmetry_equiv_pos_site_id
_symmetry_equiv_pos_as_xyz
1 x,y,z
2 1/2-x,1/2+y,1/2-z
3 -x,-y,-z
4 1/2+x,1/2-y,1/2+z
_cell_length_a                   7.7250(8)
_cell_length_b                   8.9250(10)
_cell_length_c                   26.537(2)
_cell_angle_alpha                90
_cell_angle_beta                 96.319(9)
_cell_angle_gamma                90
_cell_volume                     1818.49
_exptl_crystal_colour            colorless
_exptl_crystal_description       prism
_cell_formula_units_Z            4
loop_
_atom_site_label
_atom_site_type_symbol
_atom_site_fract_x
_atom_site_fract_y
_atom_site_fract_z
S1 S 0.91257(5) 0.07872(5) 0.069292(14)
C1 C 0.6963(2) 0.11480(18) 0.14673(6)
H1 H 0.7589 0.1999 0.1614
C2 C 0.8320(2) 0.02086(18) 0.12431(6)
C3 C 0.9278(2) -0.09638(18) 0.14585(6)
H2 H 0.9047 -0.1441 0.1764
C4 C 1.0654(2) -0.1387(2) 0.11751(7)
H3 H 1.1438 -0.2183 0.1271
C5 C 1.0736(2) -0.0543(2) 0.07541(7)
H4 H 1.1579 -0.0672 0.0522
O1 O 0.5325(2) 0.09481(17) 0.27384(6)
O2 O 0.6256(2) 0.28290(19) 0.23041(6)
O3 O 0.5397(3) -0.1951(2) 0.15352(9)
H5 H 0.5286 -0.1497 0.1256
O4 O 0.5665(4) 0.4269(2) 0.14081(9)
H6 H 0.5973 0.3808 0.1679
O5 O 0.3729(2) 0.13991(17) 0.02709(5)
O6 O 0.4921(2) -0.0558(2) 0.06739(6)
C6 C 0.6106(8) 0.0455(4) 0.18944(13)
C7 C 0.5467(3) -0.0955(3) 0.19130(11)
C8 C 0.4787(2) -0.14937(17) 0.23703(5)
C9 C 0.4162(2) -0.29415(15) 0.24176(6)
H7 H 0.4173 -0.3630 0.2145
C10 C 0.3521(3) -0.33822(17) 0.28640(8)
H8 H 0.3093 -0.4372 0.2896
C11 C 0.3504(3) -0.2375(2) 0.32629(6)
H9 H 0.3066 -0.2676 0.3568
C12 C 0.4130(3) -0.0927(2) 0.32156(5)
H10 H 0.4118 -0.0239 0.3488
C13 C 0.4771(3) -0.04865(14) 0.27693(6)
C14 C 0.5922(3) 0.1476(4) 0.23084(11)
C15 C 0.5629(3) 0.1808(3) 0.10485(10)
C16 C 0.5142(3) 0.3285(2) 0.10430(8)
C17 C 0.4001(2) 0.3893(3) 0.06202(7)
C18 C 0.3586(3) 0.5405(3) 0.05690(8)
H11 H 0.3998 0.6091 0.0828
C19 C 0.2568(3) 0.59118(17) 0.01383(11)
H12 H 0.2284 0.6945 0.0103
C20 C 0.1965(2) 0.4907(4) -0.02412(7)
H13 H 0.1269 0.5254 -0.0536
C21 C 0.2380(3) 0.3395(3) -0.01901(8)
H14 H 0.1968 0.2709 -0.0450
C22 C 0.3399(3) 0.28884(16) 0.02406(11)
C23 C 0.4784(6) 0.0819(5) 0.06630(15)
H15? H 0.7655 0.1799 0.1697
O7? O 0.4596(6) -0.2263(5) 0.19466(15)
O8? O 0.5238(12) -0.1645(5) 0.1188(2)
O9? O 0.6278(7) 0.1847(6) 0.2533(2)
H16? H 0.5926 0.2535 0.2331
O10? O 0.4758(14) 0.0458(12) 0.0527(4)
H17? H 0.5753 0.0180 0.0467
O11? O 0.4773(6) 0.4750(5) 0.11303(17)
O12? O 0.6229(8) 0.3984(5) 0.18456(17)
C24? C 0.604(3) 0.0131(15) 0.1835(4)
C25? C 0.5813(8) 0.0497(8) 0.2323(2)
C26? C 0.5008(9) -0.0561(6) 0.2644(2)
C27? C 0.4765(8) -0.0238(5) 0.3144(2)
H18? H 0.5126 0.0702 0.3287
C28? C 0.3994(8) -0.1290(7) 0.34342(16)
H19? H 0.3828 -0.1068 0.3776
C29? C 0.3465(10) -0.2665(7) 0.3225(2)
H20? H 0.2938 -0.3384 0.3424
C30? C 0.3708(9) -0.2989(6) 0.2725(2)
H21? H 0.3347 -0.3929 0.2582
C31? C 0.4479(9) -0.1937(7) 0.24347(16)
C32? C 0.5288(9) -0.1273(9) 0.1640(3)
C33? C 0.5783(12) 0.2231(8) 0.1167(3)
C34? C 0.4856(7) 0.1834(9) 0.0725(2)
C35? C 0.3867(7) 0.3053(7) 0.0459(3)
C36? C 0.2940(9) 0.2793(5) -0.0012(3)
H22? H 0.2890 0.1813 -0.0152
C37? C 0.2086(8) 0.3969(10) -0.02786(16)
H23? H 0.1452 0.3791 -0.0601
C38? C 0.2159(8) 0.5404(7) -0.0074(3)
H24? H 0.1575 0.6207 -0.0256
C39? C 0.3086(9) 0.5663(5) 0.0397(3)
H25? H 0.3136 0.6644 0.0537
C40? C 0.3940(8) 0.4488(10) 0.06635(17)
C41? C 0.5643(14) 0.3666(8) 0.1408(3)
loop_
_geom_bond_atom_site_label_1
_geom_bond_atom_site_label_2
_geom_bond_site_symmetry_1
_geom_bond_site_symmetry_2
S1 C2 1_555 1_555
C1 H1 1_555 1_555
C2 C1 1_555 1_555
C3 C2 1_555 1_555
H2 C3 1_555 1_555
C4 C3 1_555 1_555
H3 C4 1_555 1_555
C5 S1 1_555 1_555
H4 C5 1_555 1_555
O1 C13 1_555 1_555
O2 C14 1_555 1_555
O3 H5 1_555 1_555
O4 H6 1_555 1_555
O5 C22 1_555 1_555
O6 C23 1_555 1_555
C6 C1 1_555 1_555
C7 O3 1_555 1_555
C8 C7 1_555 1_555
C9 C8 1_555 1_555
H7 C9 1_555 1_555
C10 C9 1_555 1_555
H8 C10 1_555 1_555
C11 C10 1_555 1_555
H9 C11 1_555 1_555
C12 C11 1_555 1_555
H10 C12 1_555 1_555
C13 C8 1_555 1_555
C14 O1 1_555 1_555
C15 C1 1_555 1_555
C16 O4 1_555 1_555
C17 C16 1_555 1_555
C18 C17 1_555 1_555
H11 C18 1_555 1_555
C19 C18 1_555 1_555
H12 C19 1_555 1_555
C20 C19 1_555 1_555
H13 C20 1_555 1_555
C21 C20 1_555 1_555
H14 C21 1_555 1_555
C22 C17 1_555 1_555
C23 O5 1_555 1_555
C4 C5 1_555 1_555
C6 C7 1_555 1_555
C6 C14 1_555 1_555
C12 C13 1_555 1_555
C15 C16 1_555 1_555
C15 C23 1_555 1_555
C21 C22 1_555 1_555

#END
