
#######################################################################
#
#                 Cambridge Crystallographic Data Centre
#                                CCDC 
#
#######################################################################
#
# If this CIF has been generated from an entry in the Cambridge 
# Structural Database, then it will include bibliographic, chemical, 
# crystal, experimental, refinement or atomic coordinate data resulting 
# from the CCDC's data processing and validation procedures.
#
#######################################################################

data_FOZZOJ
_chemical_formula_moiety         'C18 H15 N1 O3 S5'
_chemical_name_systematic        
4-(p-Methoxybenzylthio)-5-(p-nitrobenzylthio)-1,3-dithiole-2-thione
_symmetry_cell_setting           triclinic
_symmetry_space_group_name_H-M   'P -1'
_symmetry_Int_Tables_number      2
_space_group_name_Hall           '-P 1'
loop_
_symmetry_equiv_pos_site_id
_symmetry_equiv_pos_as_xyz
1 x,y,z
2 -x,-y,-z
_cell_length_a                   5.292(8)
_cell_length_b                   10.528(12)
_cell_length_c                   19.01(2)
_cell_angle_alpha                102.74(9)
_cell_angle_beta                 96.26(11)
_cell_angle_gamma                98.56(11)
_cell_volume                     1010.43
_exptl_crystal_colour            'dark red'
_exptl_crystal_description       plate
_chemical_melting_point          430K
_cell_formula_units_Z            2
_exptl_crystal_recrystallization_method dichloromethane
loop_
_atom_site_label
_atom_site_type_symbol
_atom_site_fract_x
_atom_site_fract_y
_atom_site_fract_z
S1 S -0.1786(3) -0.04581(17) 0.34867(9)
S2 S -0.2090(3) 0.27268(19) 0.34479(11)
S3 S 0.2841(3) 0.07144(16) 0.46070(10)
S4 S 0.2625(3) 0.34085(16) 0.46024(10)
S5 S 0.6909(3) 0.28266(18) 0.55593(10)
C1 C 0.0378(11) 0.0960(6) 0.3989(3)
C2 C 0.0281(11) 0.2227(6) 0.3988(3)
C3 C 0.4272(11) 0.2339(6) 0.4956(3)
C4 C 0.0140(13) -0.1122(6) 0.2798(4)
H1 H 0.1906 -0.1040 0.3027
H2 H -0.0541 -0.2055 0.2596
C5 C 0.0124(12) -0.0418(6) 0.2198(3)
C6 C 0.2165(13) 0.0526(7) 0.2181(4)
H3 H 0.3601 0.0717 0.2540
C7 C 0.2117(15) 0.1203(8) 0.1632(5)
H4 H 0.3515 0.1840 0.1616
C8 C -0.0039(18) 0.0911(8) 0.1115(4)
C9 C -0.2127(15) -0.0040(8) 0.1122(4)
H5 H -0.3577 -0.0233 0.0767
C10 C -0.1981(14) -0.0687(7) 0.1671(4)
H6 H -0.3366 -0.1334 0.1685
N1 N -0.011(2) 0.1643(10) 0.0541(5)
O1 O 0.167(2) 0.2441(8) 0.0511(5)
O2 O -0.204(2) 0.1393(10) 0.0100(5)
C11 C -0.0230(13) 0.3993(7) 0.3137(4)
H7 H 0.0721 0.4669 0.3551
H8 H 0.1006 0.3620 0.2849
C12 C -0.1969(12) 0.4594(6) 0.2685(4)
C13 C -0.3436(13) 0.5466(7) 0.2999(4)
H9 H -0.3349 0.5684 0.3504
C14 C -0.5019(14) 0.6020(7) 0.2590(5)
H10 H -0.5997 0.6607 0.2819
C15 C -0.5187(17) 0.5727(9) 0.1858(6)
C16 C -0.373(2) 0.4871(9) 0.1509(4)
H11 H -0.3802 0.4682 0.1005
C17 C -0.2173(17) 0.4304(7) 0.1936(5)
H12 H -0.1221 0.3702 0.1708
O3 O -0.6920(12) 0.6439(7) 0.1513(4)
C18 C -0.717(2) 0.6063(11) 0.0772(6)
H13 H -0.5493 0.6019 0.0627
H14 H -0.7926 0.6697 0.0566
H15 H -0.8253 0.5209 0.0602
loop_
_geom_bond_atom_site_label_1
_geom_bond_atom_site_label_2
_geom_bond_site_symmetry_1
_geom_bond_site_symmetry_2
S1 C1 1_555 1_555
S2 C2 1_555 1_555
S3 C1 1_555 1_555
S4 C2 1_555 1_555
S5 C3 1_555 1_555
C1 C2 1_555 1_555
C3 S3 1_555 1_555
C4 S1 1_555 1_555
H1 C4 1_555 1_555
H2 C4 1_555 1_555
C5 C4 1_555 1_555
C6 C5 1_555 1_555
H3 C6 1_555 1_555
C7 C6 1_555 1_555
H4 C7 1_555 1_555
C8 C7 1_555 1_555
C9 C8 1_555 1_555
H5 C9 1_555 1_555
C10 C5 1_555 1_555
H6 C10 1_555 1_555
N1 C8 1_555 1_555
O1 N1 1_555 1_555
O2 N1 1_555 1_555
C11 S2 1_555 1_555
H7 C11 1_555 1_555
H8 C11 1_555 1_555
C12 C11 1_555 1_555
C13 C12 1_555 1_555
H9 C13 1_555 1_555
C14 C13 1_555 1_555
H10 C14 1_555 1_555
C15 C14 1_555 1_555
C16 C15 1_555 1_555
H11 C16 1_555 1_555
C17 C12 1_555 1_555
H12 C17 1_555 1_555
O3 C15 1_555 1_555
C18 O3 1_555 1_555
H13 C18 1_555 1_555
H14 C18 1_555 1_555
H15 C18 1_555 1_555
S4 C3 1_555 1_555
C9 C10 1_555 1_555
C16 C17 1_555 1_555

#END
