
#######################################################################
#
#                 Cambridge Crystallographic Data Centre
#                                CCDC 
#
#######################################################################
#
# If this CIF has been generated from an entry in the Cambridge 
# Structural Database, then it will include bibliographic, chemical, 
# crystal, experimental, refinement or atomic coordinate data resulting 
# from the CCDC's data processing and validation procedures.
#
#######################################################################

data_FOZZUP
_chemical_formula_moiety         'C17 H12 N2 O4 S5'
_chemical_name_systematic        
4,5-bis(p-Nitrobenzylthio)-1,3-dithiole-2-thione
_symmetry_cell_setting           triclinic
_symmetry_space_group_name_H-M   'P -1'
_symmetry_Int_Tables_number      2
_space_group_name_Hall           '-P 1'
loop_
_symmetry_equiv_pos_site_id
_symmetry_equiv_pos_as_xyz
1 x,y,z
2 -x,-y,-z
_cell_length_a                   9.296(8)
_cell_length_b                   13.993(18)
_cell_length_c                   16.186(4)
_cell_angle_alpha                106.68(3)
_cell_angle_beta                 89.63(3)
_cell_angle_gamma                99.38(6)
_cell_volume                     1988.09
_exptl_crystal_colour            red
_exptl_crystal_description       block
_chemical_melting_point          378-379K
_cell_formula_units_Z            4
_exptl_crystal_recrystallization_method chloroform/hexane
loop_
_atom_site_label
_atom_site_type_symbol
_atom_site_fract_x
_atom_site_fract_y
_atom_site_fract_z
S1 S -0.0354(3) 0.5873(2) 0.2679(2)
S2 S 0.0607(3) 0.3543(3) 0.1994(2)
S3 S 0.1295(4) 0.6021(2) 0.4308(2)
S4 S 0.2038(3) 0.4057(2) 0.3774(2)
S5 S 0.2858(4) 0.5311(3) 0.5551(2)
C1 C 0.0675(10) 0.5296(8) 0.3250(7)
C2 C 0.1009(10) 0.4369(8) 0.3001(7)
C3 C 0.2178(11) 0.5126(8) 0.4601(7)
C4 C 0.0881(12) 0.7010(9) 0.2701(9)
H1 H 0.1010 0.7455 0.3288
H2 H 0.1825 0.6844 0.2511
C5 C 0.0300(13) 0.7548(10) 0.2122(10)
C6 C 0.0531(13) 0.7279(10) 0.1261(10)
H3 H 0.0998 0.6731 0.1018
C7 C 0.0070(13) 0.7822(12) 0.0744(9)
H4 H 0.0268 0.7664 0.0161
C8 C -0.0663(13) 0.8574(9) 0.1100(9)
C9 C -0.0941(12) 0.8846(9) 0.1953(9)
H5 H -0.1463 0.9367 0.2190
C10 C -0.0423(12) 0.8325(10) 0.2447(7)
H6 H -0.0575 0.8515 0.3036
N1 N -0.1138(13) 0.9184(11) 0.0562(8)
O1 O -0.0942(10) 0.8850(8) -0.0207(6)
O2 O -0.1707(11) 0.9880(8) 0.0892(8)
C11 C -0.0781(10) 0.2552(8) 0.2173(7)
H7 H -0.1638 0.2839 0.2391
H8 H -0.1061 0.2040 0.1627
C12 C -0.0250(11) 0.2060(8) 0.2808(8)
C13 C 0.0781(10) 0.1433(8) 0.2601(7)
H9 H 0.1145 0.1297 0.2050
C14 C 0.1295(11) 0.0998(8) 0.3188(9)
H10 H 0.1982 0.0571 0.3035
C15 C 0.0766(13) 0.1216(10) 0.3988(9)
C16 C -0.0240(13) 0.1791(9) 0.4232(8)
H11 H -0.0586 0.1910 0.4786
C17 C -0.0780(12) 0.2221(9) 0.3636(9)
H12 H -0.1502 0.2619 0.3797
N2 N 0.1322(13) 0.0790(10) 0.4610(8)
O3 O 0.2044(10) 0.0134(8) 0.4356(7)
O4 O 0.1061(11) 0.1127(8) 0.5357(7)
S6 S 0.5357(3) 0.4100(2) 0.7238(2)
S7 S 0.4358(3) 0.6397(3) 0.7666(2)
S8 S 0.3709(4) 0.3948(2) 0.8815(2)
S9 S 0.2930(3) 0.5903(2) 0.9220(2)
S10 S 0.2157(4) 0.4683(3) 1.0411(2)
C18 C 0.4295(10) 0.4668(9) 0.8076(7)
C19 C 0.4027(11) 0.5598(8) 0.8277(7)
C20 C 0.2751(12) 0.4789(9) 0.9494(9)
C21 C 0.4145(12) 0.2928(9) 0.6728(7)
H13 H 0.4108 0.2475 0.7086
H14 H 0.3167 0.3063 0.6666
C22 C 0.4669(12) 0.2443(10) 0.5870(9)
C23 C 0.4378(13) 0.2728(10) 0.5163(10)
H15 H 0.3893 0.3275 0.5228
C24 C 0.4778(13) 0.2235(10) 0.4351(9)
H16 H 0.4519 0.2413 0.3868
C25 C 0.5574(12) 0.1470(10) 0.4279(8)
C26 C 0.5945(12) 0.1171(8) 0.4966(8)
H17 H 0.6498 0.0660 0.4905
C27 C 0.5453(12) 0.1672(9) 0.5769(7)
H18 H 0.5667 0.1474 0.6250
N3 N 0.5990(12) 0.0902(10) 0.3415(8)
O5 O 0.5774(11) 0.1224(8) 0.2813(6)
O6 O 0.6617(10) 0.0208(7) 0.3372(6)
C28 C 0.5701(10) 0.7391(8) 0.8315(7)
H19 H 0.6567 0.7113 0.8385
H20 H 0.5969 0.7896 0.8013
C29 C 0.5205(10) 0.7896(8) 0.9188(7)
C30 C 0.4168(11) 0.8537(8) 0.9271(7)
H21 H 0.3806 0.8659 0.8784
C31 C 0.3683(11) 0.8984(8) 1.0069(8)
H22 H 0.3004 0.9415 1.0122
C32 C 0.4175(12) 0.8805(9) 1.0754(9)
C33 C 0.5151(14) 0.8194(9) 1.0721(8)
H23 H 0.5451 0.8072 1.1223
C34 C 0.5716(12) 0.7745(9) 0.9943(10)
H24 H 0.6431 0.7345 0.9921
N4 N 0.3634(12) 0.9249(9) 1.1597(8)
O7 O 0.2954(10) 0.9920(7) 1.1645(6)
O8 O 0.3896(10) 0.8946(8) 1.2190(6)
loop_
_geom_bond_atom_site_label_1
_geom_bond_atom_site_label_2
_geom_bond_site_symmetry_1
_geom_bond_site_symmetry_2
S1 C1 1_555 1_555
S2 C2 1_555 1_555
S3 C1 1_555 1_555
S4 C2 1_555 1_555
S5 C3 1_555 1_555
C1 C2 1_555 1_555
C3 S3 1_555 1_555
C4 S1 1_555 1_555
H1 C4 1_555 1_555
H2 C4 1_555 1_555
C5 C4 1_555 1_555
C6 C5 1_555 1_555
H3 C6 1_555 1_555
C7 C6 1_555 1_555
H4 C7 1_555 1_555
C8 C7 1_555 1_555
C9 C8 1_555 1_555
H5 C9 1_555 1_555
C10 C5 1_555 1_555
H6 C10 1_555 1_555
N1 C8 1_555 1_555
O1 N1 1_555 1_555
O2 N1 1_555 1_555
C11 S2 1_555 1_555
H7 C11 1_555 1_555
H8 C11 1_555 1_555
C12 C11 1_555 1_555
C13 C12 1_555 1_555
H9 C13 1_555 1_555
C14 C13 1_555 1_555
H10 C14 1_555 1_555
C15 C14 1_555 1_555
C16 C15 1_555 1_555
H11 C16 1_555 1_555
C17 C12 1_555 1_555
H12 C17 1_555 1_555
N2 C15 1_555 1_555
O3 N2 1_555 1_555
O4 N2 1_555 1_555
S6 C18 1_555 1_555
S7 C19 1_555 1_555
S8 C18 1_555 1_555
S9 C19 1_555 1_555
S10 C20 1_555 1_555
C18 C19 1_555 1_555
C20 S8 1_555 1_555
C21 S6 1_555 1_555
H13 C21 1_555 1_555
H14 C21 1_555 1_555
C22 C21 1_555 1_555
C23 C22 1_555 1_555
H15 C23 1_555 1_555
C24 C23 1_555 1_555
H16 C24 1_555 1_555
C25 C24 1_555 1_555
C26 C25 1_555 1_555
H17 C26 1_555 1_555
C27 C22 1_555 1_555
H18 C27 1_555 1_555
N3 C25 1_555 1_555
O5 N3 1_555 1_555
O6 N3 1_555 1_555
C28 S7 1_555 1_555
H19 C28 1_555 1_555
H20 C28 1_555 1_555
C29 C28 1_555 1_555
C30 C29 1_555 1_555
H21 C30 1_555 1_555
C31 C30 1_555 1_555
H22 C31 1_555 1_555
C32 C31 1_555 1_555
C33 C32 1_555 1_555
H23 C33 1_555 1_555
C34 C29 1_555 1_555
H24 C34 1_555 1_555
N4 C32 1_555 1_555
O7 N4 1_555 1_555
O8 N4 1_555 1_555
S4 C3 1_555 1_555
C9 C10 1_555 1_555
C16 C17 1_555 1_555
S9 C20 1_555 1_555
C26 C27 1_555 1_555
C33 C34 1_555 1_555

#END
