
#######################################################################
#
#                 Cambridge Crystallographic Data Centre
#                                CCDC 
#
#######################################################################
#
# If this CIF has been generated from an entry in the Cambridge 
# Structural Database, then it will include bibliographic, chemical, 
# crystal, experimental, refinement or atomic coordinate data resulting 
# from the CCDC's data processing and validation procedures.
#
#######################################################################

data_FPHTEL
_chemical_formula_moiety         'C12 H10 F2 Te1'
_chemical_name_systematic        Difluoro-diphenyl-tellurium(iv)
_symmetry_cell_setting           monoclinic
_symmetry_space_group_name_H-M   'C 2/c'
_symmetry_Int_Tables_number      15
_space_group_name_Hall           '-C 2yn'
loop_
_symmetry_equiv_pos_site_id
_symmetry_equiv_pos_as_xyz
1 x,y,z
2 1/2+x,1/2+y,z
3 -x,y,1/2-z
4 1/2-x,1/2+y,1/2-z
5 -x,-y,-z
6 1/2-x,1/2-y,-z
7 x,-y,1/2+z
8 1/2+x,1/2-y,1/2+z
_cell_length_a                   14.67(1)
_cell_length_b                   9.61(1)
_cell_length_c                   7.97(1)
_cell_angle_alpha                90
_cell_angle_beta                 101.3(2)
_cell_angle_gamma                90
_cell_volume                     1101.82
_cell_formula_units_Z            4
loop_
_atom_site_label
_atom_site_type_symbol
_atom_site_fract_x
_atom_site_fract_y
_atom_site_fract_z
Te1 Te 0.00000 0.08252 0.25000
F1 F -0.08640 0.09500 0.02190
C1 C -0.17590 0.25180 0.25120
C2 C -0.23180 0.34930 0.31190
C3 C -0.19860 0.42210 0.45980
C4 C -0.10950 0.39920 0.54940
C5 C -0.05290 0.30250 0.49100
C6 C -0.08640 0.22860 0.34170
H1 H -0.20160 0.19860 0.14980
H2 H -0.30520 0.35580 0.25890
H3 H -0.24620 0.48590 0.50080
H4 H -0.08900 0.44440 0.66070
H5 H 0.01210 0.29410 0.54720
F1B F 0.08640 0.09500 0.47810
C6B C 0.08640 0.22860 0.15830
C1B C 0.17590 0.25180 0.24880
C5B C 0.05290 0.30250 0.00900
C2B C 0.23180 0.34930 0.18810
H1B H 0.20160 0.19860 0.35020
C4B C 0.10950 0.39920 -0.04940
H5B H -0.01210 0.29410 -0.04720
C3B C 0.19860 0.42210 0.04020
H2B H 0.30520 0.35580 0.24110
H4B H 0.08900 0.44440 -0.16070
H3B H 0.24620 0.48590 -0.00080
loop_
_geom_bond_atom_site_label_1
_geom_bond_atom_site_label_2
_geom_bond_site_symmetry_1
_geom_bond_site_symmetry_2
Te1 F1 1_555 1_555
C1 C2 1_555 1_555
C2 C3 1_555 1_555
C3 C4 1_555 1_555
C4 C5 1_555 1_555
C5 C6 1_555 1_555
C6 Te1 1_555 1_555
H1 C1 1_555 1_555
H2 C2 1_555 1_555
H3 C3 1_555 1_555
H4 C4 1_555 1_555
H5 C5 1_555 1_555
F1B Te1 1_555 1_555
C6B Te1 1_555 1_555
C1B C6B 1_555 1_555
C5B C6B 1_555 1_555
C2B C1B 1_555 1_555
H1B C1B 1_555 1_555
C4B C5B 1_555 1_555
H5B C5B 1_555 1_555
C3B C2B 1_555 1_555
H2B C2B 1_555 1_555
H4B C4B 1_555 1_555
H3B C3B 1_555 1_555
C1 C6 1_555 1_555
C4B C3B 1_555 1_555

#END
