
#######################################################################
#
#                 Cambridge Crystallographic Data Centre
#                                CCDC 
#
#######################################################################
#
# If this CIF has been generated from an entry in the Cambridge 
# Structural Database, then it will include bibliographic, chemical, 
# crystal, experimental, refinement or atomic coordinate data resulting 
# from the CCDC's data processing and validation procedures.
#
#######################################################################

data_FTHSEC15
_chemical_formula_moiety         'C6 H7 N3 S2'
_chemical_name_systematic        
2-[(thiophen-2-yl)methylidene]hydrazine-1-carbothioamide
_symmetry_cell_setting           monoclinic
_symmetry_space_group_name_H-M   'P 21/n'
_symmetry_Int_Tables_number      14
_space_group_name_Hall           '-P 2yn'
loop_
_symmetry_equiv_pos_site_id
_symmetry_equiv_pos_as_xyz
1 x,y,z
2 1/2-x,1/2+y,1/2-z
3 -x,-y,-z
4 1/2+x,1/2-y,1/2+z
_cell_length_a                   13.676(5)
_cell_length_b                   5.846(2)
_cell_length_c                   21.421(8)
_cell_angle_alpha                90
_cell_angle_beta                 95.877(5)
_cell_angle_gamma                90
_cell_volume                     1703.61
_exptl_crystal_colour            yellow
_exptl_crystal_description       prism
_cell_formula_units_Z            8
_chemical_properties_physical    Photo-sensitive
_exptl_crystal_recrystallization_method ethanol
loop_
_atom_site_label
_atom_site_type_symbol
_atom_site_fract_x
_atom_site_fract_y
_atom_site_fract_z
S1 S 0.85068(10) 0.0975(2) 0.01503(7)
S2 S 1.18133(11) 0.8445(3) 0.16569(7)
N1 N 0.8762(3) 0.5162(7) 0.0632(2)
H1 H 0.8155 0.5217 0.0476
H2 H 0.8790 0.5301 0.1035
N2 N 1.0127(3) 0.2918(7) 0.06386(19)
H3 H 1.0417 0.1687 0.0537
N3 N 1.0662(3) 0.4641(7) 0.09498(18)
C1 C 0.9156(4) 0.3155(8) 0.0494(2)
C2 C 1.1595(4) 0.4289(8) 0.1051(2)
H4 H 1.1864 0.2967 0.0898
C3 C 1.2224(4) 0.5909(8) 0.1397(2)
C4 C 1.3220(4) 0.5656(11) 0.1567(3)
H5 H 1.3581 0.4386 0.1465
C5 C 1.3622(5) 0.7535(13) 0.1910(3)
H6 H 1.4282 0.7643 0.2063
C6 C 1.2958(5) 0.9150(11) 0.1992(3)
H7 H 1.3104 1.0508 0.2208
S3 S 1.35818(12) 0.3263(3) 0.00742(9)
S4 S 1.45288(15) -0.2739(4) -0.24895(9)
N4 N 1.4973(4) 0.2347(9) -0.0639(3)
H8 H 1.5225 0.1518 -0.0913
H9 H 1.5286 0.3524 -0.0482
N5 N 1.3664(4) -0.0071(10) -0.0732(2)
H10 H 1.3162 -0.0643 -0.0577
N6 N 1.4000(4) -0.1029(9) -0.1234(2)
C7 C 1.4122(5) 0.1824(11) -0.0463(3)
C8 C 1.3546(5) -0.2938(12) -0.1430(3)
H11 H 1.3071 -0.3580 -0.1202
C9 C 1.3786(4) -0.3981(10) -0.1981(3)
C10 C 1.3402(5) -0.6042(11) -0.2222(3)
H12 H 1.2985 -0.6980 -0.2019
C11 C 1.3724(6) -0.6529(14) -0.2811(4)
H13 H 1.3548 -0.7831 -0.3046
C12 C 1.4314(6) -0.4879(16) -0.2990(3)
H14 H 1.4585 -0.4933 -0.3371
loop_
_geom_bond_atom_site_label_1
_geom_bond_atom_site_label_2
_geom_bond_site_symmetry_1
_geom_bond_site_symmetry_2
S1 C1 1_555 1_555
S2 C3 1_555 1_555
N1 H1 1_555 1_555
H2 N1 1_555 1_555
N2 H3 1_555 1_555
N3 N2 1_555 1_555
C1 N1 1_555 1_555
C2 N3 1_555 1_555
H4 C2 1_555 1_555
C3 C2 1_555 1_555
C4 C3 1_555 1_555
H5 C4 1_555 1_555
C5 C4 1_555 1_555
H6 C5 1_555 1_555
C6 S2 1_555 1_555
H7 C6 1_555 1_555
S3 C7 1_555 1_555
S4 C9 1_555 1_555
N4 H8 1_555 1_555
H9 N4 1_555 1_555
N5 H10 1_555 1_555
N6 N5 1_555 1_555
C7 N4 1_555 1_555
C8 N6 1_555 1_555
H11 C8 1_555 1_555
C9 C8 1_555 1_555
C10 C9 1_555 1_555
H12 C10 1_555 1_555
C11 C10 1_555 1_555
H13 C11 1_555 1_555
C12 S4 1_555 1_555
H14 C12 1_555 1_555
N2 C1 1_555 1_555
C5 C6 1_555 1_555
N5 C7 1_555 1_555
C11 C12 1_555 1_555

#END
