
#######################################################################
#
#                 Cambridge Crystallographic Data Centre
#                                CCDC 
#
#######################################################################
#
# If this CIF has been generated from an entry in the Cambridge 
# Structural Database, then it will include bibliographic, chemical, 
# crystal, experimental, refinement or atomic coordinate data resulting 
# from the CCDC's data processing and validation procedures.
#
#######################################################################

data_FUBBEJ
_chemical_formula_moiety         '2(C16 H13 F3 N2 O3 S1),C4 H8 O2'
_chemical_name_systematic        
'Hexahydro-6-hydroxy-6-trifluoromethyl-4-phenyl-5-(2-thienoyl)pyrimidin-2-one ethyl acetate solvate'
_symmetry_cell_setting           triclinic
_symmetry_space_group_name_H-M   'P -1'
_symmetry_Int_Tables_number      2
_space_group_name_Hall           '-P 1'
loop_
_symmetry_equiv_pos_site_id
_symmetry_equiv_pos_as_xyz
1 x,y,z
2 -x,-y,-z
_cell_length_a                   13.247(4)
_cell_length_b                   14.329(3)
_cell_length_c                   11.695(3)
_cell_angle_alpha                105.66(2)
_cell_angle_beta                 99.65(3)
_cell_angle_gamma                63.69(2)
_cell_volume                     1913.11
_exptl_crystal_colour            colorless
_exptl_crystal_description       prismatic
_chemical_melting_point          192-195deg.C
_cell_formula_units_Z            2
loop_
_atom_site_label
_atom_site_type_symbol
_atom_site_fract_x
_atom_site_fract_y
_atom_site_fract_z
S1 S 0.1313(1) 0.1664(2) 0.3062(1)
F1 F -0.0044(3) 0.4931(2) 0.6564(3)
F2 F -0.0939(2) 0.4046(2) 0.5528(2)
F3 F -0.1572(2) 0.5102(2) 0.7181(2)
O1 O -0.0639(2) 0.2964(2) 0.7274(3)
O2 O 0.1196(2) 0.3812(2) 1.0282(2)
O3 O 0.0470(3) 0.1641(3) 0.5240(3)
N1 N 0.0262(3) 0.3982(2) 0.8486(3)
N2 N 0.1792(3) 0.2422(3) 0.8724(3)
C1 C 0.0038(3) 0.3504(3) 0.7288(3)
C2 C 0.1086(3) 0.3419(3) 0.9213(3)
C3 C 0.1838(3) 0.1892(3) 0.7468(3)
C4 C 0.1167(3) 0.2743(3) 0.6716(3)
C5 C 0.1017(3) 0.2163(3) 0.5437(3)
C6 C 0.1541(3) 0.2250(3) 0.4489(3)
C7 C 0.2291(4) 0.2796(3) 0.4611(4)
C8 C 0.2547(4) 0.2644(4) 0.3394(5)
C9 C 0.2097(5) 0.2083(5) 0.2547(5)
C10 C -0.0639(4) 0.4401(4) 0.6634(4)
C11 C 0.3063(4) 0.1274(3) 0.7148(3)
C12 C 0.3804(4) 0.1752(5) 0.7484(5)
C13 C 0.4944(5) 0.1171(8) 0.7219(6)
C14 C 0.5296(6) 0.0121(9) 0.6613(8)
C15 C 0.4585(7) -0.0349(5) 0.6278(7)
C16 C 0.3430(5) 0.0227(4) 0.6527(5)
H1 H 0.1464 0.1370 0.7310
H2 H 0.1640 0.3113 0.6734
H3 H 0.2475 0.3110 0.5174
H4 H 0.3004 0.2883 0.3195
H5 H 0.2098 0.2018 0.1632
H6 H 0.3417 0.2547 0.8022
H7 H 0.5432 0.1597 0.7470
H8 H 0.6185 -0.0280 0.6383
H9 H 0.4822 -0.1080 0.5869
H10 H 0.2742 -0.0122 0.6305
H11 H -0.0476 0.2485 0.6561
H12 H -0.0271 0.4667 0.8877
H13 H 0.2386 0.1985 0.9198
S2 S 0.8204(1) 0.3830(1) 0.2264(1)
F4 F 0.2884(2) 0.4892(2) 0.0873(3)
F5 F 0.4475(3) 0.4994(2) 0.1221(3)
F6 F 0.4165(3) 0.4013(3) -0.0400(3)
O4 O 0.4183(2) 0.3808(2) 0.2576(3)
O5 O 0.3671(2) 0.1192(2) 0.0114(2)
O6 O 0.6253(3) 0.3714(3) 0.2985(3)
N3 N 0.3830(3) 0.2755(2) 0.0812(3)
N4 N 0.5377(3) 0.1143(2) 0.0865(3)
C17 C 0.4437(3) 0.3392(3) 0.1370(4)
C18 C 0.4280(3) 0.1666(3) 0.0582(3)
C19 C 0.6053(3) 0.1680(3) 0.1600(3)
C20 C 0.5713(3) 0.2732(3) 0.1196(3)
C21 C 0.6423(4) 0.3298(3) 0.1924(4)
C22 C 0.7343(3) 0.3296(3) 0.1379(4)
C23 C 0.7631(4) 0.2911(4) 0.0189(4)
C24 C 0.8599(4) 0.3082(4) 0.0099(5)
C25 C 0.8964(4) 0.3542(4) 0.1094(6)
C26 C 0.7302(3) 0.0964(3) 0.1513(4)
C27 C 0.8008(4) 0.1065(4) 0.2509(4)
C28 C 0.9153(4) 0.0455(4) 0.2455(5)
C29 C 0.9591(4) -0.0244(5) 0.1411(6)
C30 C 0.8905(4) -0.0348(4) 0.0426(5)
C31 C 0.7735(4) 0.0276(4) 0.0461(4)
C32 C 0.3961(4) 0.4344(4) 0.0758(5)
H14 H 0.5799 0.1952 0.2475
H15 H 0.5955 0.2469 0.0294
H16 H 0.7074 0.2682 -0.0480
H17 H 0.8944 0.2846 -0.0772
H18 H 0.9672 0.3729 0.1292
H19 H 0.7567 0.1736 0.3277
H20 H 0.9742 0.0432 0.3202
H21 H 1.0411 -0.0664 0.1351
H22 H 0.9254 -0.0860 -0.0323
H23 H 0.7193 0.0178 -0.0292
H24 H 0.5011 0.3828 0.2977
H25 H 0.3066 0.3130 0.0839
H26 H 0.5698 0.0344 0.0585
O7 O 0.6884(9) 0.2290(8) 0.7380(10)
O8 O 0.7049(10) 0.2444(8) 0.5653(8)
C33 C 0.822(1) 0.100(1) 0.608(1)
C34 C 0.743(1) 0.186(1) 0.642(1)
C35 C 0.604(2) 0.281(2) 0.610(2)
C36 C 0.572(1) 0.367(1) 0.576(1)
C37? C 0.463(1) 0.368(1) 0.564(1)
loop_
_geom_bond_atom_site_label_1
_geom_bond_atom_site_label_2
_geom_bond_site_symmetry_1
_geom_bond_site_symmetry_2
S1 C6 1_555 1_555
S2 C22 1_555 1_555
F1 C10 1_555 1_555
F2 C10 1_555 1_555
F3 C10 1_555 1_555
F4 C32 1_555 1_555
F5 C32 1_555 1_555
F6 C32 1_555 1_555
O1 C1 1_555 1_555
O2 C2 1_555 1_555
O3 C5 1_555 1_555
O4 C17 1_555 1_555
O5 C18 1_555 1_555
O6 C21 1_555 1_555
O7 C34 1_555 1_555
O8 C34 1_555 1_555
N1 C1 1_555 1_555
N2 C2 1_555 1_555
N3 C17 1_555 1_555
N4 C18 1_555 1_555
C1 C4 1_555 1_555
C2 N1 1_555 1_555
C3 N2 1_555 1_555
C4 C3 1_555 1_555
C5 C4 1_555 1_555
C6 C5 1_555 1_555
C7 C6 1_555 1_555
C8 C7 1_555 1_555
C9 S1 1_555 1_555
C10 C1 1_555 1_555
C11 C3 1_555 1_555
C12 C11 1_555 1_555
C13 C12 1_555 1_555
C14 C13 1_555 1_555
C15 C14 1_555 1_555
C16 C11 1_555 1_555
C17 C20 1_555 1_555
C18 N3 1_555 1_555
C19 N4 1_555 1_555
C20 C19 1_555 1_555
C21 C20 1_555 1_555
C22 C21 1_555 1_555
C23 C22 1_555 1_555
C24 C23 1_555 1_555
C25 S2 1_555 1_555
C26 C19 1_555 1_555
C27 C26 1_555 1_555
C28 C27 1_555 1_555
C29 C28 1_555 1_555
C30 C29 1_555 1_555
C31 C26 1_555 1_555
C32 C17 1_555 1_555
C33 C34 1_555 1_555
C35 O8 1_555 1_555
C36 C35 1_555 1_555
H1 C3 1_555 1_555
H2 C4 1_555 1_555
H3 C7 1_555 1_555
H4 C8 1_555 1_555
H5 C9 1_555 1_555
H6 C12 1_555 1_555
H7 C13 1_555 1_555
H8 C14 1_555 1_555
H9 C15 1_555 1_555
H10 C16 1_555 1_555
H11 O1 1_555 1_555
H12 N1 1_555 1_555
H13 N2 1_555 1_555
H14 C19 1_555 1_555
H15 C20 1_555 1_555
H16 C23 1_555 1_555
H17 C24 1_555 1_555
H18 C25 1_555 1_555
H19 C27 1_555 1_555
H20 C28 1_555 1_555
H21 C29 1_555 1_555
H22 C30 1_555 1_555
H23 C31 1_555 1_555
H24 O4 1_555 1_555
H25 N3 1_555 1_555
H26 N4 1_555 1_555
C8 C9 1_555 1_555
C15 C16 1_555 1_555
C24 C25 1_555 1_555
C30 C31 1_555 1_555

#END
