
#######################################################################
#
#                 Cambridge Crystallographic Data Centre
#                                CCDC 
#
#######################################################################
#
# If this CIF has been generated from an entry in the Cambridge 
# Structural Database, then it will include bibliographic, chemical, 
# crystal, experimental, refinement or atomic coordinate data resulting 
# from the CCDC's data processing and validation procedures.
#
#######################################################################

data_FUBGEP
_chemical_name_common            
4,4,8,8,12,12-Hexa-p-tolyl-4H,8H,12H-12c-aza-dibenzo[cd,mn]pyrene
_chemical_formula_moiety         'C63 H51 N1'
_chemical_name_systematic        
4,4,8,8,12,12-hexakis(4-Methylphenyl)-4H,8H,12H-benzo[1,9]quinolizino[3,4,5,6,7-defg]acridine
_symmetry_cell_setting           rhombohedral
_symmetry_space_group_name_H-M   'R -3'
_symmetry_Int_Tables_number      148
_space_group_name_Hall           '-R 3'
loop_
_symmetry_equiv_pos_site_id
_symmetry_equiv_pos_as_xyz
1 x,y,z
2 -y,x-y,z
3 -x+y,-x,z
4 2/3+x,1/3+y,1/3+z
5 2/3-y,1/3+x-y,1/3+z
6 2/3-x+y,1/3-x,1/3+z
7 1/3+x,2/3+y,2/3+z
8 1/3-y,2/3+x-y,2/3+z
9 1/3-x+y,2/3-x,2/3+z
10 -x,-y,-z
11 y,-x+y,-z
12 x-y,x,-z
13 1/3-x,2/3-y,2/3-z
14 1/3+y,2/3-x+y,2/3-z
15 1/3+x-y,2/3+x,2/3-z
16 2/3-x,1/3-y,1/3-z
17 2/3+y,1/3-x+y,1/3-z
18 2/3+x-y,1/3+x,1/3-z
_cell_length_a                   16.798(3)
_cell_length_b                   16.798(3)
_cell_length_c                   66.084(17)
_cell_angle_alpha                90
_cell_angle_beta                 90
_cell_angle_gamma                120
_cell_volume                     16148.9
_exptl_crystal_colour            colorless
_exptl_crystal_description       block
_cell_formula_units_Z            12
_exptl_crystal_recrystallization_method dichloromethane/ethanol
_exptl_crystal_preparation       'fluorescent; phosphorescent'
loop_
_atom_site_label
_atom_site_type_symbol
_atom_site_fract_x
_atom_site_fract_y
_atom_site_fract_z
C1 C 1.0155(3) 0.5042(3) 0.08274(7)
H1 H 1.0556 0.5256 0.0712
H2 H 1.0379 0.5514 0.0929
H3 H 0.9547 0.4895 0.0787
C2 C 1.0126(2) 0.4186(2) 0.09130(6)
C3 C 1.0119(3) 0.4048(2) 0.11167(6)
H4 H 1.0136 0.4490 0.1204
C4 C 1.0087(2) 0.3270(2) 0.11981(5)
H5 H 1.0084 0.3200 0.1338
C5 C 1.00616(18) 0.26000(18) 0.10727(4)
C6 C 1.0066(2) 0.2743(2) 0.08666(4)
H6 H 1.0044 0.2302 0.0778
C7 C 1.0101(2) 0.3519(2) 0.07886(5)
H7 H 1.0108 0.3593 0.0649
C8 C 1.00390(18) 0.17295(18) 0.11532(4)
C9 C 1.0029(2) 0.16994(19) 0.13889(4)
C10 C 0.9238(3) 0.1348(3) 0.14964(5)
H8 H 0.8683 0.1121 0.1428
C11 C 0.9236(4) 0.1319(4) 0.17058(6)
H9 H 0.8676 0.1072 0.1773
C12 C 1.0005(4) 0.1631(3) 0.18144(5)
C13 C 1.0776(4) 0.1963(5) 0.17095(6)
H10 H 1.1329 0.2187 0.1779
C14 C 1.0794(3) 0.1991(4) 0.14990(5)
H11 H 1.1355 0.2219 0.1433
C15 C 0.9961(5) 0.1564(4) 0.20450(6)
H12 H 1.0029 0.2122 0.2101
H13 H 1.0447 0.1471 0.2094
H14 H 0.9379 0.1055 0.2085
C16 C 0.91886(18) 0.08618(18) 0.10806(4)
C17 C 0.91673(17) 0.00161(17) 0.10935(3)
C18 C 0.83286(17) -0.08012(18) 0.10827(3)
C19 C 0.75440(18) -0.0765(2) 0.10330(4)
H15 H 0.6986 -0.1309 0.1020
C20 C 0.7578(2) 0.0060(2) 0.10023(4)
H16 H 0.7054 0.0073 0.0962
C21 C 0.8384(2) 0.0858(2) 0.10311(4)
H17 H 0.8396 0.1415 0.1017
N1 N 1.0000 0.0000 0.11279(5)
C1A C 0.4958(3) -0.4887(4) 0.08274(7)
C1B C 1.4887(4) -0.0155(3) 0.08274(7)
H1A H 0.4744 -0.4700 0.0712
H1B H 1.4700 -0.0556 0.0712
H2A H 0.4486 -0.5135 0.0929
H2B H 1.5135 -0.0379 0.0929
H3A H 0.5105 -0.5348 0.0787
H3B H 1.5348 0.0453 0.0787
C2A C 0.5814(2) -0.4060(3) 0.09130(6)
C2B C 1.4060(3) -0.0126(2) 0.09130(6)
C3A C 0.5952(2) -0.3929(4) 0.11167(6)
C3B C 1.3929(4) -0.0119(3) 0.11167(6)
H4A H 0.5510 -0.4354 0.1204
H4B H 1.4354 -0.0136 0.1204
C4A C 0.6730(2) -0.3183(3) 0.11981(5)
C4B C 1.3183(3) -0.0087(2) 0.11981(5)
H5A H 0.6800 -0.3116 0.1338
H5B H 1.3116 -0.0084 0.1338
C5A C 0.74000(18) -0.25384(25) 0.10727(4)
C5B C 1.25384(25) -0.00616(18) 0.10727(4)
C6A C 0.7257(2) -0.2677(3) 0.08666(4)
C6B C 1.2677(3) -0.0066(2) 0.08666(4)
H6A H 0.7698 -0.2258 0.0778
H6B H 1.2258 -0.0044 0.0778
C7A C 0.6481(2) -0.3418(3) 0.07886(5)
C7B C 1.3418(3) -0.0101(2) 0.07886(5)
H7A H 0.6407 -0.3485 0.0649
H7B H 1.3485 -0.0108 0.0649
C8A C 0.82705(18) -0.16905(25) 0.11532(4)
C8B C 1.16905(25) -0.00390(18) 0.11532(4)
C9A C 0.83006(19) -0.16704(28) 0.13889(4)
C9B C 1.16704(28) -0.0029(2) 0.13889(4)
C10A C 0.8652(3) -0.2110(4) 0.14964(5)
C10B C 1.2110(4) 0.0762(3) 0.14964(5)
H8A H 0.8879 -0.2438 0.1428
H8B H 1.2438 0.1317 0.1428
C11A C 0.8681(4) -0.2083(6) 0.17058(6)
C11B C 1.2083(6) 0.0764(4) 0.17058(6)
H9A H 0.8928 -0.2396 0.1773
H9B H 1.2396 0.1324 0.1773
C12A C 0.8369(3) -0.1626(5) 0.18144(5)
C12B C 1.1626(5) -0.0005(4) 0.18144(5)
C13A C 0.8037(5) -0.1187(6) 0.17095(6)
C13B C 1.1187(6) -0.0776(4) 0.17095(6)
H10A H 0.7813 -0.0858 0.1779
H10B H 1.0858 -0.1329 0.1779
C14A C 0.8009(4) -0.1197(5) 0.14990(5)
C14B C 1.1197(5) -0.0794(3) 0.14990(5)
H11A H 0.7781 -0.0864 0.1433
H11B H 1.0864 -0.1355 0.1433
C15A C 0.8436(4) -0.1603(6) 0.20450(6)
C15B C 1.1603(6) 0.0039(5) 0.20450(6)
H12A H 0.7878 -0.2093 0.2101
H12B H 1.2093 -0.0029 0.2101
H13A H 0.8529 -0.1024 0.2094
H13B H 1.1024 -0.0447 0.2094
H14A H 0.8945 -0.1676 0.2085
H14B H 1.1676 0.0621 0.2085
C16A C 0.91382(18) -0.16732(25) 0.10806(4)
C16B C 1.16732(25) 0.08114(18) 0.10806(4)
C17A C 0.99839(17) -0.08488(24) 0.10935(3)
C17B C 1.08488(24) 0.08327(17) 0.10935(3)
C18A C 1.08012(18) -0.08702(25) 0.10827(3)
C18B C 1.08702(25) 0.16714(17) 0.10827(3)
C19A C 1.0765(2) -0.16910(27) 0.10330(4)
C19B C 1.16910(27) 0.24560(18) 0.10330(4)
H15A H 1.1309 -0.1705 0.1020
H15B H 1.1705 0.3014 0.1020
C20A C 0.9940(2) -0.2482(3) 0.10023(4)
C20B C 1.2482(3) 0.2422(2) 0.10023(4)
H16A H 0.9927 -0.3019 0.0962
H16B H 1.3019 0.2946 0.0962
C21A C 0.9142(2) -0.2474(3) 0.10311(4)
C21B C 1.2474(3) 0.1616(2) 0.10311(4)
H17A H 0.8585 -0.3019 0.1017
H17B H 1.3019 0.1604 0.1017
C22 C 0.6172(2) 0.1768(3) 0.37616(6)
H18 H 0.5600 0.1214 0.3785
H19 H 0.6077 0.2150 0.3668
H20 H 0.6404 0.2091 0.3887
C23 C 0.6857(2) 0.15324(19) 0.36742(5)
C24 C 0.7474(2) 0.1455(2) 0.37950(5)
H21 H 0.7479 0.1567 0.3933
C25 C 0.8096(2) 0.1214(2) 0.37184(4)
H22 H 0.8500 0.1160 0.3806
C26 C 0.81222(17) 0.10533(17) 0.35141(4)
C27 C 0.75031(17) 0.11331(17) 0.33927(4)
H23 H 0.7497 0.1022 0.3255
C28 C 0.68874(18) 0.13747(19) 0.34700(5)
H24 H 0.6485 0.1432 0.3383
C29 C 0.87734(16) 0.07232(16) 0.34363(3)
C30 C 0.88483(16) 0.07679(16) 0.32022(3)
C31 C 0.86114(17) 0.00089(17) 0.30816(3)
H25 H 0.8372 -0.0568 0.3141
C32 C 0.87254(19) 0.00967(19) 0.28731(4)
H26 H 0.8569 -0.0425 0.2796
C33 C 0.90589(18) 0.09224(19) 0.27766(4)
C34 C 0.92987(19) 0.16866(19) 0.28969(4)
H27 H 0.9535 0.2261 0.2836
C35 C 0.91951(18) 0.16136(18) 0.31034(4)
H28 H 0.9360 0.2139 0.3179
C36 C 0.9193(2) 0.1003(2) 0.25510(4)
H29 H 0.9551 0.0729 0.2511
H30 H 0.9509 0.1640 0.2513
H31 H 0.8605 0.0692 0.2485
C37 C 0.97513(16) 0.13110(16) 0.35106(3)
C38 C 1.01160(19) 0.22348(17) 0.35606(4)
H32 H 0.9721 0.2469 0.3575
C39 C 1.1038(2) 0.28064(18) 0.35895(4)
H33 H 1.1264 0.3411 0.3630
C40 C 1.16265(18) 0.24738(17) 0.35572(4)
H34 H 1.2256 0.2870 0.3570
C41 C 1.13039(16) 0.15624(16) 0.35064(3)
C42 C 1.03520(16) 0.09564(15) 0.34973(3)
N2 N 1.0000 0.0000 0.34637(4)
C22A C 0.8232(3) -0.5596(4) 0.37616(6)
C22B C 1.5596(4) 0.3828(2) 0.37616(6)
H18A H 0.8786 -0.5614 0.3785
H18B H 1.5614 0.4400 0.3785
H19A H 0.7850 -0.6073 0.3668
H19B H 1.6073 0.3923 0.3668
H20A H 0.7909 -0.5687 0.3887
H20B H 1.5687 0.3596 0.3887
C23A C 0.84676(19) -0.46754(28) 0.36742(5)
C23B C 1.46754(28) 0.3143(2) 0.36742(5)
C24A C 0.8545(2) -0.3981(3) 0.37950(5)
C24B C 1.3981(3) 0.2526(2) 0.37950(5)
H21A H 0.8433 -0.4088 0.3933
H21B H 1.4088 0.2521 0.3933
C25A C 0.8786(2) -0.3118(3) 0.37184(4)
C25B C 1.3118(3) 0.1904(2) 0.37184(4)
H22A H 0.8840 -0.2660 0.3806
H22B H 1.2660 0.1500 0.3806
C26A C 0.89467(17) -0.29311(24) 0.35141(4)
C26B C 1.29311(24) 0.18778(17) 0.35141(4)
C27A C 0.88669(17) -0.36300(24) 0.33927(4)
C27B C 1.36300(24) 0.24969(17) 0.33927(4)
H23A H 0.8978 -0.3525 0.3255
H23B H 1.3525 0.2503 0.3255
C28A C 0.86253(19) -0.44873(26) 0.34700(5)
C28B C 1.44873(26) 0.31126(18) 0.34700(5)
H24A H 0.8568 -0.4947 0.3383
H24B H 1.4947 0.3515 0.3383
C29A C 0.92768(16) -0.19498(23) 0.34363(3)
C29B C 1.19498(23) 0.12266(16) 0.34363(3)
C30A C 0.92321(16) -0.19196(23) 0.32022(3)
C30B C 1.19196(23) 0.11517(16) 0.32022(3)
C31A C 0.99911(17) -0.13975(24) 0.30816(3)
C31B C 1.13975(24) 0.13886(17) 0.30816(3)
H25A H 1.0568 -0.1060 0.3141
H25B H 1.1060 0.1628 0.3141
C32A C 0.99033(19) -0.13713(27) 0.28731(4)
C32B C 1.13713(27) 0.12746(19) 0.28731(4)
H26A H 1.0425 -0.1006 0.2796
H26B H 1.1006 0.1431 0.2796
C33A C 0.90776(19) -0.18635(26) 0.27766(4)
C33B C 1.18635(26) 0.09411(18) 0.27766(4)
C34A C 0.83134(19) -0.23879(27) 0.28969(4)
C34B C 1.23879(27) 0.07013(19) 0.28969(4)
H27A H 0.7739 -0.2726 0.2836
H27B H 1.2726 0.0465 0.2836
C35A C 0.83864(18) -0.24185(25) 0.31034(4)
C35B C 1.24185(25) 0.08049(18) 0.31034(4)
H28A H 0.7861 -0.2779 0.3179
H28B H 1.2779 0.0640 0.3179
C36A C 0.8997(2) -0.1810(3) 0.25510(4)
C36B C 1.1810(3) 0.0807(2) 0.25510(4)
H29A H 0.9271 -0.1178 0.2511
H29B H 1.1178 0.0449 0.2511
H30A H 0.8360 -0.2131 0.2513
H30B H 1.2131 0.0491 0.2513
H31A H 0.9308 -0.2087 0.2485
H31B H 1.2087 0.1395 0.2485
C37A C 0.86890(16) -0.15597(23) 0.35106(3)
C37B C 1.15597(23) 0.02487(16) 0.35106(3)
C38A C 0.77652(17) -0.21188(25) 0.35606(4)
C38B C 1.21188(25) -0.01160(19) 0.35606(4)
H32A H 0.7531 -0.2748 0.3575
H32B H 1.2748 0.0279 0.3575
C39A C 0.71936(18) -0.17684(27) 0.35895(4)
C39B C 1.17684(27) -0.1038(2) 0.35895(4)
H33A H 0.6589 -0.2147 0.3630
H33B H 1.2147 -0.1264 0.3630
C40A C 0.75262(17) -0.08473(25) 0.35572(4)
C40B C 1.08473(25) -0.16265(18) 0.35572(4)
H34A H 0.7130 -0.0614 0.3570
H34B H 1.0614 -0.2256 0.3570
C41A C 0.84376(16) -0.02585(23) 0.35064(3)
C41B C 1.02585(23) -0.13039(16) 0.35064(3)
C42A C 0.90436(15) -0.06044(22) 0.34973(3)
C42B C 1.06044(22) -0.03520(16) 0.34973(3)
loop_
_geom_bond_atom_site_label_1
_geom_bond_atom_site_label_2
_geom_bond_site_symmetry_1
_geom_bond_site_symmetry_2
C1 H1 1_555 1_555
H2 C1 1_555 1_555
H3 C1 1_555 1_555
C2 C1 1_555 1_555
C3 C2 1_555 1_555
H4 C3 1_555 1_555
C4 C3 1_555 1_555
H5 C4 1_555 1_555
C5 C4 1_555 1_555
C6 C5 1_555 1_555
H6 C6 1_555 1_555
C7 C2 1_555 1_555
H7 C7 1_555 1_555
C8 C5 1_555 1_555
C9 C8 1_555 1_555
C10 C9 1_555 1_555
H8 C10 1_555 1_555
C11 C10 1_555 1_555
H9 C11 1_555 1_555
C12 C11 1_555 1_555
C13 C12 1_555 1_555
H10 C13 1_555 1_555
C14 C9 1_555 1_555
H11 C14 1_555 1_555
C15 C12 1_555 1_555
H12 C15 1_555 1_555
H13 C15 1_555 1_555
H14 C15 1_555 1_555
C16 C8 1_555 1_555
C17 C16 1_555 1_555
C18 C17 1_555 1_555
C19 C18 1_555 1_555
H15 C19 1_555 1_555
C20 C19 1_555 1_555
H16 C20 1_555 1_555
C21 C16 1_555 1_555
H17 C21 1_555 1_555
C22 H18 1_555 1_555
H19 C22 1_555 1_555
H20 C22 1_555 1_555
C23 C22 1_555 1_555
C24 C23 1_555 1_555
H21 C24 1_555 1_555
C25 C24 1_555 1_555
H22 C25 1_555 1_555
C26 C25 1_555 1_555
C27 C26 1_555 1_555
H23 C27 1_555 1_555
C28 C23 1_555 1_555
H24 C28 1_555 1_555
C29 C26 1_555 1_555
C30 C29 1_555 1_555
C31 C30 1_555 1_555
H25 C31 1_555 1_555
C32 C31 1_555 1_555
H26 C32 1_555 1_555
C33 C32 1_555 1_555
C34 C33 1_555 1_555
H27 C34 1_555 1_555
C35 C30 1_555 1_555
H28 C35 1_555 1_555
C36 C33 1_555 1_555
H29 C36 1_555 1_555
H30 C36 1_555 1_555
H31 C36 1_555 1_555
C37 C29 1_555 1_555
C38 C37 1_555 1_555
H32 C38 1_555 1_555
C39 C38 1_555 1_555
H33 C39 1_555 1_555
C40 C39 1_555 1_555
H34 C40 1_555 1_555
C41 C40 1_555 1_555
C42 C37 1_555 1_555
N1 C17 1_555 1_555
N2 C42 1_555 1_555
C1A H1A 1_555 1_555
C1B H1B 1_555 1_555
H2A C1A 1_555 1_555
H2B C1B 1_555 1_555
H3A C1A 1_555 1_555
H3B C1B 1_555 1_555
C2A C1A 1_555 1_555
C2B C1B 1_555 1_555
C3A C2A 1_555 1_555
C3B C2B 1_555 1_555
H4A C3A 1_555 1_555
H4B C3B 1_555 1_555
C4A C3A 1_555 1_555
C4B C3B 1_555 1_555
H5A C4A 1_555 1_555
H5B C4B 1_555 1_555
C5A C4A 1_555 1_555
C5B C4B 1_555 1_555
C6A C5A 1_555 1_555
C6B C5B 1_555 1_555
H6A C6A 1_555 1_555
H6B C6B 1_555 1_555
C7A C2A 1_555 1_555
C7B C2B 1_555 1_555
H7A C7A 1_555 1_555
H7B C7B 1_555 1_555
C8A C18 1_555 1_555
C8B C5B 1_555 1_555
C9A C8A 1_555 1_555
C9B C8B 1_555 1_555
C10A C9A 1_555 1_555
C10B C9B 1_555 1_555
H8A C10A 1_555 1_555
H8B C10B 1_555 1_555
C11A C10A 1_555 1_555
C11B C10B 1_555 1_555
H9A C11A 1_555 1_555
H9B C11B 1_555 1_555
C12A C11A 1_555 1_555
C12B C11B 1_555 1_555
C13A C12A 1_555 1_555
C13B C12B 1_555 1_555
H10A C13A 1_555 1_555
H10B C13B 1_555 1_555
C14A C9A 1_555 1_555
C14B C9B 1_555 1_555
H11A C14A 1_555 1_555
H11B C14B 1_555 1_555
C15A C12A 1_555 1_555
C15B C12B 1_555 1_555
H12A C15A 1_555 1_555
H12B C15B 1_555 1_555
H13A C15A 1_555 1_555
H13B C15B 1_555 1_555
H14A C15A 1_555 1_555
H14B C15B 1_555 1_555
C16A C8A 1_555 1_555
C16B C8B 1_555 1_555
C17A N1 1_555 1_555
C17B N1 1_555 1_555
C18A C8B 1_555 1_555
C18B C8 1_555 1_555
C19A C18A 1_555 1_555
C19B C18B 1_555 1_555
H15A C19A 1_555 1_555
H15B C19B 1_555 1_555
C20A C19A 1_555 1_555
C20B C19B 1_555 1_555
H16A C20A 1_555 1_555
H16B C20B 1_555 1_555
C21A C16A 1_555 1_555
C21B C16B 1_555 1_555
H17A C21A 1_555 1_555
H17B C21B 1_555 1_555
C22A H18A 1_555 1_555
C22B H18B 1_555 1_555
H19A C22A 1_555 1_555
H19B C22B 1_555 1_555
H20A C22A 1_555 1_555
H20B C22B 1_555 1_555
C23A C22A 1_555 1_555
C23B C22B 1_555 1_555
C24A C23A 1_555 1_555
C24B C23B 1_555 1_555
H21A C24A 1_555 1_555
H21B C24B 1_555 1_555
C25A C24A 1_555 1_555
C25B C24B 1_555 1_555
H22A C25A 1_555 1_555
H22B C25B 1_555 1_555
C26A C25A 1_555 1_555
C26B C25B 1_555 1_555
C27A C26A 1_555 1_555
C27B C26B 1_555 1_555
H23A C27A 1_555 1_555
H23B C27B 1_555 1_555
C28A C23A 1_555 1_555
C28B C23B 1_555 1_555
H24A C28A 1_555 1_555
H24B C28B 1_555 1_555
C29A C26A 1_555 1_555
C29B C41 1_555 1_555
C30A C29A 1_555 1_555
C30B C29B 1_555 1_555
C31A C30A 1_555 1_555
C31B C30B 1_555 1_555
H25A C31A 1_555 1_555
H25B C31B 1_555 1_555
C32A C31A 1_555 1_555
C32B C31B 1_555 1_555
H26A C32A 1_555 1_555
H26B C32B 1_555 1_555
C33A C32A 1_555 1_555
C33B C32B 1_555 1_555
C34A C33A 1_555 1_555
C34B C33B 1_555 1_555
H27A C34A 1_555 1_555
H27B C34B 1_555 1_555
C35A C30A 1_555 1_555
C35B C30B 1_555 1_555
H28A C35A 1_555 1_555
H28B C35B 1_555 1_555
C36A C33A 1_555 1_555
C36B C33B 1_555 1_555
H29A C36A 1_555 1_555
H29B C36B 1_555 1_555
H30A C36A 1_555 1_555
H30B C36B 1_555 1_555
H31A C36A 1_555 1_555
H31B C36B 1_555 1_555
C37A C29A 1_555 1_555
C37B C29B 1_555 1_555
C38A C37A 1_555 1_555
C38B C37B 1_555 1_555
H32A C38A 1_555 1_555
H32B C38B 1_555 1_555
C39A C38A 1_555 1_555
C39B C38B 1_555 1_555
H33A C39A 1_555 1_555
H33B C39B 1_555 1_555
C40A C39A 1_555 1_555
C40B C39B 1_555 1_555
H34A C40A 1_555 1_555
H34B C40B 1_555 1_555
C41A C29 1_555 1_555
C41B C29A 1_555 1_555
C42A N2 1_555 1_555
C42B N2 1_555 1_555
C6 C7 1_555 1_555
C13 C14 1_555 1_555
C20 C21 1_555 1_555
C27 C28 1_555 1_555
C34 C35 1_555 1_555
C41 C42 1_555 1_555
C5A C8A 1_555 1_555
C6A C7A 1_555 1_555
C6B C7B 1_555 1_555
C13A C14A 1_555 1_555
C13B C14B 1_555 1_555
C16A C17A 1_555 1_555
C16B C17B 1_555 1_555
C17A C18A 1_555 1_555
C17B C18B 1_555 1_555
C20A C21A 1_555 1_555
C20B C21B 1_555 1_555
C26B C29B 1_555 1_555
C27A C28A 1_555 1_555
C27B C28B 1_555 1_555
C34A C35A 1_555 1_555
C34B C35B 1_555 1_555
C37A C42A 1_555 1_555
C37B C42B 1_555 1_555
C40A C41A 1_555 1_555
C40B C41B 1_555 1_555
C41A C42A 1_555 1_555
C41B C42B 1_555 1_555

#END
