
#######################################################################
#
#                 Cambridge Crystallographic Data Centre
#                                CCDC 
#
#######################################################################
#
# If this CIF has been generated from an entry in the Cambridge 
# Structural Database, then it will include bibliographic, chemical, 
# crystal, experimental, refinement or atomic coordinate data resulting 
# from the CCDC's data processing and validation procedures.
#
#######################################################################

data_FUBSUS
_chemical_formula_moiety         'C16 H15 O3 P1'
_chemical_name_systematic        
'7,8-dimethyl-3-phenyl-1H-2,1-benzoxaphosphinin-1-ol 1-oxide'
_symmetry_cell_setting           monoclinic
_symmetry_space_group_name_H-M   'P 21/n'
_symmetry_Int_Tables_number      14
_space_group_name_Hall           '-P 2yn'
loop_
_symmetry_equiv_pos_site_id
_symmetry_equiv_pos_as_xyz
1 x,y,z
2 1/2-x,1/2+y,1/2-z
3 -x,-y,-z
4 1/2+x,1/2-y,1/2+z
_cell_length_a                   9.4026(15)
_cell_length_b                   12.2804(19)
_cell_length_c                   12.916(2)
_cell_angle_alpha                90
_cell_angle_beta                 109.620(3)
_cell_angle_gamma                90
_cell_volume                     1404.79
_exptl_crystal_colour            colorless
_exptl_crystal_description       block
_cell_formula_units_Z            4
loop_
_atom_site_label
_atom_site_type_symbol
_atom_site_fract_x
_atom_site_fract_y
_atom_site_fract_z
C1 C 1.0201(3) 0.3027(2) 0.1601(2)
C2 C 1.0573(3) 0.4030(3) 0.1240(2)
H1 H 0.9799 0.4476 0.0769
C3 C 1.2055(4) 0.4373(3) 0.1565(3)
H2 H 1.2293 0.5050 0.1307
C4 C 1.3190(4) 0.3748(4) 0.2259(3)
H3 H 1.4207 0.3993 0.2483
C5 C 1.2841(4) 0.2759(4) 0.2627(3)
H4 H 1.3621 0.2323 0.3106
C6 C 1.1368(3) 0.2404(3) 0.2303(3)
H5 H 1.1143 0.1724 0.2562
C7 C 0.8635(3) 0.2671(2) 0.1271(2)
C8 C 0.8054(3) 0.1843(2) 0.1686(2)
H6 H 0.8726 0.1441 0.2278
C9 C 0.6481(3) 0.1520(2) 0.1299(2)
C10 C 0.5342(3) 0.2176(2) 0.0568(2)
P1 P 0.59581(7) 0.34685(5) 0.02924(5)
O1 O 0.7672(2) 0.32806(15) 0.04063(16)
O2 O 0.5208(2) 0.39464(15) -0.08138(14)
O3 O 0.5978(2) 0.42209(16) 0.12447(15)
H7 H 0.5567 0.4816 0.0992
C11 C 0.3816(3) 0.1840(2) 0.0192(2)
C12 C 0.3445(3) 0.0826(2) 0.0537(2)
C13 C 0.4574(3) 0.0199(2) 0.1255(2)
H8 H 0.4314 -0.0482 0.1490
C14 C 0.6058(3) 0.0528(2) 0.1641(2)
H9 H 0.6797 0.0079 0.2140
C15 C 0.2578(3) 0.2534(3) -0.0568(3)
H10 H 0.2245 0.2217 -0.1307
H11 H 0.2961 0.3272 -0.0595
H12 H 0.1724 0.2564 -0.0294
C16 C 0.1846(3) 0.0420(3) 0.0148(3)
H13 H 0.1812 -0.0310 0.0445
H14 H 0.1467 0.0391 -0.0656
H15 H 0.1215 0.0915 0.0403
loop_
_geom_bond_atom_site_label_1
_geom_bond_atom_site_label_2
_geom_bond_site_symmetry_1
_geom_bond_site_symmetry_2
C1 C2 1_555 1_555
C2 H1 1_555 1_555
C3 C2 1_555 1_555
H2 C3 1_555 1_555
C4 C3 1_555 1_555
H3 C4 1_555 1_555
C5 C4 1_555 1_555
H4 C5 1_555 1_555
C6 C1 1_555 1_555
H5 C6 1_555 1_555
C7 C1 1_555 1_555
C8 C7 1_555 1_555
H6 C8 1_555 1_555
C9 C8 1_555 1_555
C10 C9 1_555 1_555
P1 C10 1_555 1_555
O1 C7 1_555 1_555
O2 P1 1_555 1_555
O3 P1 1_555 1_555
H7 O3 1_555 1_555
C11 C10 1_555 1_555
C12 C11 1_555 1_555
C13 C12 1_555 1_555
H8 C13 1_555 1_555
C14 C9 1_555 1_555
H9 C14 1_555 1_555
C15 C11 1_555 1_555
H10 C15 1_555 1_555
H11 C15 1_555 1_555
H12 C15 1_555 1_555
C16 C12 1_555 1_555
H13 C16 1_555 1_555
H14 C16 1_555 1_555
H15 C16 1_555 1_555
C5 C6 1_555 1_555
P1 O1 1_555 1_555
C13 C14 1_555 1_555

#END
