
#######################################################################
#
#                 Cambridge Crystallographic Data Centre
#                                CCDC 
#
#######################################################################
#
# If this CIF has been generated from an entry in the Cambridge 
# Structural Database, then it will include bibliographic, chemical, 
# crystal, experimental, refinement or atomic coordinate data resulting 
# from the CCDC's data processing and validation procedures.
#
#######################################################################

data_FUBSAY
_chemical_formula_moiety         'C19 H25 N1 O3 S3'
_chemical_name_systematic        
14-methyl-12-((4-methylphenyl)sulfonyl)-1,4-dithia-12-azadispiro[4.1.4.3]tetradecan-8-one
_symmetry_cell_setting           orthorhombic
_symmetry_space_group_name_H-M   'P b c a'
_symmetry_Int_Tables_number      61
_space_group_name_Hall           '-P 2ac 2ab'
loop_
_symmetry_equiv_pos_site_id
_symmetry_equiv_pos_as_xyz
1 x,y,z
2 1/2-x,-y,1/2+z
3 1/2+x,1/2-y,-z
4 -x,1/2+y,1/2-z
5 -x,-y,-z
6 1/2+x,y,1/2-z
7 1/2-x,1/2+y,z
8 x,1/2-y,1/2+z
_cell_length_a                   18.3697(6)
_cell_length_b                   11.9521(3)
_cell_length_c                   18.6381(5)
_cell_angle_alpha                90
_cell_angle_beta                 90
_cell_angle_gamma                90
_cell_volume                     4092.12
_exptl_crystal_colour            colorless
_exptl_crystal_description       block
_cell_formula_units_Z            8
loop_
_atom_site_label
_atom_site_type_symbol
_atom_site_fract_x
_atom_site_fract_y
_atom_site_fract_z
S1 S 0.40680(5) 0.26155(6) 0.44145(4)
S2 S 0.34476(5) 0.05927(6) 0.37714(4)
S3 S 0.36184(5) 0.49058(6) 0.19701(4)
O1 O 0.44041(13) 0.24122(17) 0.13942(11)
O2 O 0.42398(12) 0.48768(17) 0.15065(12)
O3 O 0.34936(14) 0.58966(15) 0.23861(12)
N1 N 0.36618(13) 0.37945(16) 0.24872(12)
C1 C 0.31738(16) 0.3852(2) 0.31089(15)
H1 H 0.2733 0.4246 0.2975
H2 H 0.3409 0.4272 0.3490
C2 C 0.29786(15) 0.2701(2) 0.33816(15)
H3 H 0.2756 0.2293 0.2981
C3 C 0.36769(15) 0.2069(2) 0.35886(13)
C4 C 0.41953(15) 0.2077(2) 0.29519(14)
H4 H 0.3997 0.1584 0.2587
H5 H 0.4653 0.1755 0.3108
C5 C 0.43620(15) 0.3220(2) 0.25933(14)
C6 C 0.47235(17) 0.2870(2) 0.18793(16)
C7 C 0.55238(18) 0.3088(3) 0.19249(18)
H6 H 0.5663 0.3681 0.1597
H7 H 0.5797 0.2419 0.1806
C8 C 0.56668(19) 0.3434(3) 0.2695(2)
H8 H 0.5811 0.2794 0.2981
H9 H 0.6050 0.3992 0.2716
C9 C 0.49579(16) 0.3914(2) 0.29663(17)
H10 H 0.4916 0.4698 0.2840
H11 H 0.4924 0.3841 0.3484
C10 C 0.24109(17) 0.2780(3) 0.39706(19)
H12 H 0.2288 0.2042 0.4133
H13 H 0.1983 0.3142 0.3787
H14 H 0.2603 0.3206 0.4364
C11 C 0.4440(2) 0.1316(3) 0.47076(18)
H15 H 0.4871 0.1138 0.4429
H16 H 0.4580 0.1369 0.5208
C12 C 0.3888(3) 0.0428(3) 0.46157(18)
H17 H 0.3532 0.0472 0.4999
H18 H 0.4120 -0.0301 0.4639
C13 C 0.28325(16) 0.4649(2) 0.14686(14)
C14 C 0.2334(2) 0.5498(2) 0.13569(17)
H19 H 0.2399 0.6189 0.1576
C15 C 0.1745(2) 0.5321(3) 0.09252(19)
H20 H 0.1418 0.5904 0.0849
C16 C 0.16200(17) 0.4308(3) 0.06004(16)
C17 C 0.21145(17) 0.3464(2) 0.07316(16)
H21 H 0.2038 0.2764 0.0527
C18 C 0.27143(17) 0.3627(2) 0.11530(16)
H22 H 0.3042 0.3045 0.1226
C19 C 0.09801(18) 0.4112(3) 0.0116(2)
H23 H 0.1129 0.4196 -0.0375
H24 H 0.0605 0.4646 0.0223
H25 H 0.0797 0.3369 0.0190
loop_
_geom_bond_atom_site_label_1
_geom_bond_atom_site_label_2
_geom_bond_site_symmetry_1
_geom_bond_site_symmetry_2
S1 C3 1_555 1_555
S2 C3 1_555 1_555
S3 O2 1_555 1_555
O1 C6 1_555 1_555
O3 S3 1_555 1_555
N1 S3 1_555 1_555
C1 N1 1_555 1_555
H1 C1 1_555 1_555
H2 C1 1_555 1_555
C2 C1 1_555 1_555
H3 C2 1_555 1_555
C3 C2 1_555 1_555
C4 C3 1_555 1_555
H4 C4 1_555 1_555
H5 C4 1_555 1_555
C5 N1 1_555 1_555
C6 C5 1_555 1_555
C7 C6 1_555 1_555
H6 C7 1_555 1_555
H7 C7 1_555 1_555
C8 C7 1_555 1_555
H8 C8 1_555 1_555
H9 C8 1_555 1_555
C9 C5 1_555 1_555
H10 C9 1_555 1_555
H11 C9 1_555 1_555
C10 C2 1_555 1_555
H12 C10 1_555 1_555
H13 C10 1_555 1_555
H14 C10 1_555 1_555
C11 S1 1_555 1_555
H15 C11 1_555 1_555
H16 C11 1_555 1_555
C12 S2 1_555 1_555
H17 C12 1_555 1_555
H18 C12 1_555 1_555
C13 S3 1_555 1_555
C14 C13 1_555 1_555
H19 C14 1_555 1_555
C15 C14 1_555 1_555
H20 C15 1_555 1_555
C16 C15 1_555 1_555
C17 C16 1_555 1_555
H21 C17 1_555 1_555
C18 C13 1_555 1_555
H22 C18 1_555 1_555
C19 C16 1_555 1_555
H23 C19 1_555 1_555
H24 C19 1_555 1_555
H25 C19 1_555 1_555
C4 C5 1_555 1_555
C8 C9 1_555 1_555
C11 C12 1_555 1_555
C17 C18 1_555 1_555

#END
