
#######################################################################
#
#                 Cambridge Crystallographic Data Centre
#                                CCDC 
#
#######################################################################
#
# If this CIF has been generated from an entry in the Cambridge 
# Structural Database, then it will include bibliographic, chemical, 
# crystal, experimental, refinement or atomic coordinate data resulting 
# from the CCDC's data processing and validation procedures.
#
#######################################################################

data_FUBVAB
_chemical_formula_moiety         'C12 H14 Br1 N1 O3'
_chemical_name_systematic        
(S)-3-((R)-1-(4-bromophenyl)-2-nitroethyl)tetrahydrofuran
_symmetry_cell_setting           monoclinic
_symmetry_space_group_name_H-M   'P 21'
_symmetry_Int_Tables_number      4
_space_group_name_Hall           'P 2yb'
loop_
_symmetry_equiv_pos_site_id
_symmetry_equiv_pos_as_xyz
1 x,y,z
2 -x,1/2+y,-z
_cell_length_a                   7.053(4)
_cell_length_b                   7.478(4)
_cell_length_c                   24.426(14)
_cell_angle_alpha                90
_cell_angle_beta                 89.526(15)
_cell_angle_gamma                90
_cell_volume                     1288.24
_exptl_crystal_colour            colorless
_exptl_crystal_description       block
_cell_formula_units_Z            4
loop_
_atom_site_label
_atom_site_type_symbol
_atom_site_fract_x
_atom_site_fract_y
_atom_site_fract_z
Br1 Br 0.9362(2) 0.8674(3) 0.05619(6)
O1 O 0.0599(13) 0.8155(13) -0.2167(3)
O2 O 0.7790(14) 1.2602(14) -0.2005(4)
O3 O 0.6859(16) 1.4368(15) -0.1353(4)
N1 N 0.6722(15) 1.3173(15) -0.1678(4)
C1 C 0.7942(16) 0.9119(15) -0.0084(4)
C2 C 0.8666(17) 0.862(2) -0.0568(4)
C3 C 0.7687(15) 0.9022(16) -0.1052(4)
C4 C 0.5956(15) 0.9902(15) -0.1045(4)
C5 C 0.5235(18) 1.0398(19) -0.0519(5)
C6 C 0.6221(19) 1.0019(19) -0.0040(5)
C7 C 0.4877(15) 1.0276(15) -0.1582(4)
C8 C 0.2904(15) 0.9453(14) -0.1577(4)
C9 C 0.3080(17) 0.731(2) -0.1528(5)
C10 C 0.148(2) 0.6664(19) -0.1920(5)
C11 C 0.1769(18) 0.9632(17) -0.2130(5)
C12 C 0.4673(16) 1.238(2) -0.1681(4)
Br2 Br -0.43592(19) 0.2242(3) 0.55613(6)
O4 O 0.4404(13) 0.2749(13) 0.2825(3)
O5 O -0.1869(16) -0.3435(16) 0.3648(5)
O6 O -0.2769(14) -0.1679(14) 0.2996(4)
N2 N -0.1734(15) -0.2238(15) 0.3318(4)
C13 C -0.2928(17) 0.1783(17) 0.4908(5)
C14 C -0.1215(19) 0.0915(19) 0.4961(5)
C15 C -0.0205(18) 0.049(2) 0.4472(5)
C16 C -0.0970(15) 0.1011(15) 0.3952(4)
C17 C -0.2674(16) 0.1902(17) 0.3936(4)
C18 C -0.3692(17) 0.234(2) 0.4434(4)
C19 C 0.0103(15) 0.0662(15) 0.3418(4)
C20 C 0.2090(16) 0.1467(15) 0.3430(4)
C21 C 0.1913(18) 0.362(2) 0.3471(5)
C22 C 0.351(2) 0.427(2) 0.3072(6)
C23 C 0.3236(18) 0.1270(18) 0.2860(5)
C24 C 0.0321(16) -0.145(2) 0.3316(5)
loop_
_geom_bond_atom_site_label_1
_geom_bond_atom_site_label_2
_geom_bond_site_symmetry_1
_geom_bond_site_symmetry_2
Br1 C1 1_555 1_555
O1 C10 1_555 1_555
O2 N1 1_555 1_555
O3 N1 1_555 1_555
N1 C12 1_555 1_555
C1 C2 1_555 1_555
C2 C3 1_555 1_555
C3 C4 1_555 1_555
C4 C5 1_555 1_555
C5 C6 1_555 1_555
C6 C1 1_555 1_555
C7 C4 1_555 1_555
C8 C7 1_555 1_555
C9 C8 1_555 1_555
C10 C9 1_555 1_555
C11 O1 1_555 1_555
C12 C7 1_555 1_555
Br2 C13 1_555 1_555
O4 C22 1_555 1_555
O5 N2 1_555 1_555
O6 N2 1_555 1_555
N2 C24 1_555 1_555
C13 C14 1_555 1_555
C14 C15 1_555 1_555
C15 C16 1_555 1_555
C16 C17 1_555 1_555
C17 C18 1_555 1_555
C18 C13 1_555 1_555
C19 C16 1_555 1_555
C20 C19 1_555 1_555
C21 C20 1_555 1_555
C22 C21 1_555 1_555
C23 O4 1_555 1_555
C24 C19 1_555 1_555
C8 C11 1_555 1_555
C20 C23 1_555 1_555

#END
