
#######################################################################
#
#                 Cambridge Crystallographic Data Centre
#                                CCDC 
#
#######################################################################
#
# If this CIF has been generated from an entry in the Cambridge 
# Structural Database, then it will include bibliographic, chemical, 
# crystal, experimental, refinement or atomic coordinate data resulting 
# from the CCDC's data processing and validation procedures.
#
#######################################################################

data_FUCVAA
_chemical_formula_moiety         'C16 H22 O14 2-,C4 H12 N1 1+,H5 N2 1+,H2 O1'
_chemical_name_systematic        
'Hydrazinium tetramethylammonium (2R,3R,11R,12R)-1,4,7,10,13,16-hexa-oxacyclo-octadecane-2,3,11,12-tetracarboxylic acid monohydrate'
_symmetry_cell_setting           monoclinic
_symmetry_space_group_name_H-M   'P 21'
_symmetry_Int_Tables_number      4
_space_group_name_Hall           'P 2yb'
loop_
_symmetry_equiv_pos_site_id
_symmetry_equiv_pos_as_xyz
1 x,y,z
2 -x,1/2+y,-z
_cell_length_a                   12.075(1)
_cell_length_b                   14.436(4)
_cell_length_c                   8.018(1)
_cell_angle_alpha                90
_cell_angle_beta                 95.45(1)
_cell_angle_gamma                90
_cell_volume                     1391.34
_cell_formula_units_Z            2
loop_
_atom_site_label
_atom_site_type_symbol
_atom_site_fract_x
_atom_site_fract_y
_atom_site_fract_z
C1 C 0.2360(4) 0.0000 0.8403(7)
C2 C 0.2207(4) -0.0132(4) 0.6551(7)
O1 O 0.1832(3) 0.0731(3) 0.5854(4)
C3 C 0.1321(6) 0.0680(6) 0.4175(7)
C4 C 0.0944(6) 0.1605(7) 0.364(1)
O2 O 0.1833(5) 0.2233(5) 0.3528(6)
C5 C 0.1532(9) 0.3136(8) 0.299(1)
C6 C 0.1162(6) 0.3795(6) 0.422(1)
O3 O 0.2004(3) 0.3818(4) 0.5585(5)
C7 C 0.1894(4) 0.4510(5) 0.6804(8)
C8 C 0.3039(4) 0.4622(4) 0.7730(7)
O4 O 0.3299(3) 0.3772(3) 0.8556(5)
C9 C 0.4062(7) 0.3830(7) 0.9981(9)
C10 C 0.4151(9) 0.2860(8) 1.076(1)
O5 O 0.4566(5) 0.2250(5) 0.9825(7)
C11 C 0.4617(7) 0.1367(7) 1.057(1)
C12 C 0.3600(6) 0.0795(6) 1.0476(8)
O6 O 0.3212(3) 0.0677(3) 0.8764(4)
C13 C 0.1277(5) 0.0259(5) 0.9143(7)
O7 O 0.0582(4) -0.0410(4) 0.9037(7)
O8 O 0.1130(4) 0.1016(4) 0.9681(7)
C14 C 0.3280(5) -0.0488(5) 0.5902(7)
O9 O 0.3596(4) -0.1269(4) 0.6264(7)
O10 O 0.3781(4) 0.0090(4) 0.5027(6)
C15 C 0.1009(5) 0.4291(5) 0.799(1)
O11 O 0.1009(4) 0.4829(4) 0.9222(6)
O12 O 0.0354(5) 0.3678(5) 0.7644(9)
C16 C 0.3888(4) 0.4922(5) 0.6502(7)
O13 O 0.3733(4) 0.5656(4) 0.5795(6)
O14 O 0.4670(3) 0.4363(4) 0.6367(5)
H1 H 0.2591 -0.0571 0.8922
H2 H 0.1657 -0.0580 0.6219
H3 H 0.1598 0.5060 0.6299
H4 H 0.3073 0.5114 0.8538
H5 H 0.0690 0.0271 0.4119
H6 H 0.1828 0.0458 0.3436
H7 H 0.0449 0.1858 0.4400
H8 H 0.0520 0.1583 0.2543
H9 H 0.0916 0.3095 0.2129
H10 H 0.2137 0.3407 0.2576
H11 H 0.0453 0.3597 0.4635
H12 H 0.1030 0.4401 0.3768
H13 H 0.3841 0.4270 1.0724
H14 H 0.4778 0.3987 0.9629
H15 H 0.3423 0.2700 1.1034
H16 H 0.4612 0.2938 1.1825
H17 H 0.4898 0.1419 1.1736
H18 H 0.5182 0.1010 1.0039
H19 H 0.3040 0.1116 1.1022
H20 H 0.3722 0.0208 1.0972
H21 H 0.0273 -0.0429 0.9570
H22 H 0.5292 0.4569 0.5839
N1 N 0.3547(6) 0.2195(5) 0.6304(9)
N2 N 0.4592(9) 0.2224(9) 0.563(2)
H23 H 0.3046 0.2070 0.5410
H24 H 0.3363 0.2753 0.6854
H25 H 0.3500 0.1694 0.7140
N3 N 0.1864(4) 0.7111(4) 0.1868(7)
C17 C 0.1160(9) 0.7253(9) 0.023(1)
C18 C 0.243(1) 0.8010(9) 0.235(2)
C19 C 0.2677(9) 0.6359(9) 0.173(2)
C20 C 0.113(1) 0.687(1) 0.314(1)
H26 H 0.0781 0.6680 -0.0076
H27 H 0.0590 0.7708 0.0387
H28 H 0.1586 0.7441 -0.0602
H29 H 0.2874 0.7914 0.3421
H30 H 0.2875 0.8196 0.1554
H31 H 0.1878 0.8463 0.2544
H32 H 0.2250 0.5771 0.1431
H33 H 0.3162 0.6454 0.0959
H34 H 0.3060 0.6215 0.2825
H35 H 0.0765 0.6294 0.2785
H36 H 0.1541 0.6783 0.4165
H37 H 0.0585 0.7331 0.3183
O15 O 0.2634(7) -0.2892(7) 0.716(1)
H38 H 0.3339 -0.3339 0.6679
H39 H 0.3066 -0.2305 0.7089
loop_
_geom_bond_atom_site_label_1
_geom_bond_atom_site_label_2
_geom_bond_site_symmetry_1
_geom_bond_site_symmetry_2
C1 C2 1_555 1_555
C2 O1 1_555 1_555
O1 C3 1_555 1_555
C3 C4 1_555 1_555
C4 O2 1_555 1_555
O2 C5 1_555 1_555
C5 C6 1_555 1_555
C6 O3 1_555 1_555
O3 C7 1_555 1_555
C7 C8 1_555 1_555
C8 O4 1_555 1_555
O4 C9 1_555 1_555
C9 C10 1_555 1_555
C10 O5 1_555 1_555
O5 C11 1_555 1_555
C11 C12 1_555 1_555
C12 O6 1_555 1_555
O6 C1 1_555 1_555
C13 C1 1_555 1_555
O7 C13 1_555 1_555
O8 C13 1_555 1_555
C14 C2 1_555 1_555
O9 C14 1_555 1_555
O10 C14 1_555 1_555
C15 C7 1_555 1_555
O11 C15 1_555 1_555
O12 C15 1_555 1_555
C16 C8 1_555 1_555
O13 C16 1_555 1_555
O14 C16 1_555 1_555
H1 C1 1_555 1_555
H2 C2 1_555 1_555
H3 C7 1_555 1_555
H4 C8 1_555 1_555
H5 C3 1_555 1_555
H6 C3 1_555 1_555
H7 C4 1_555 1_555
H8 C4 1_555 1_555
H9 C5 1_555 1_555
H10 C5 1_555 1_555
H11 C6 1_555 1_555
H12 C6 1_555 1_555
H13 C9 1_555 1_555
H14 C9 1_555 1_555
H15 C10 1_555 1_555
H16 C10 1_555 1_555
H17 C11 1_555 1_555
H18 C11 1_555 1_555
H19 C12 1_555 1_555
H20 C12 1_555 1_555
H21 O7 1_555 1_555
H22 O14 1_555 1_555
N1 N2 1_555 1_555
H23 N1 1_555 1_555
H24 N1 1_555 1_555
H25 N1 1_555 1_555
N3 C17 1_555 1_555
C17 H26 1_555 1_555
C18 N3 1_555 1_555
C19 N3 1_555 1_555
C20 N3 1_555 1_555
H27 C17 1_555 1_555
H28 C17 1_555 1_555
H29 C18 1_555 1_555
H30 C18 1_555 1_555
H31 C18 1_555 1_555
H32 C19 1_555 1_555
H33 C19 1_555 1_555
H34 C19 1_555 1_555
H35 C20 1_555 1_555
H36 C20 1_555 1_555
H37 C20 1_555 1_555
O15 H38 1_555 1_555
H39 O15 1_555 1_555

#END
