
#######################################################################
#
#                 Cambridge Crystallographic Data Centre
#                                CCDC 
#
#######################################################################
#
# If this CIF has been generated from an entry in the Cambridge 
# Structural Database, then it will include bibliographic, chemical, 
# crystal, experimental, refinement or atomic coordinate data resulting 
# from the CCDC's data processing and validation procedures.
#
#######################################################################

data_FUDDIS
_chemical_formula_moiety         'C62 H78 N4 P4 Si4 Sr1,0.5(C7 H8)'
_chemical_name_systematic        
"bis(bis(N-(Trimethylsilyl)diphenylphosphinimino)methanide-N,N')-strontium(ii) toluene solvate"
_symmetry_cell_setting           triclinic
_symmetry_space_group_name_H-M   'P -1'
_symmetry_Int_Tables_number      2
_space_group_name_Hall           '-P 1'
loop_
_symmetry_equiv_pos_site_id
_symmetry_equiv_pos_as_xyz
1 x,y,z
2 -x,-y,-z
_cell_length_a                   11.7284(5)
_cell_length_b                   15.3828(6)
_cell_length_c                   19.6810(7)
_cell_angle_alpha                75.855(3)
_cell_angle_beta                 82.328(3)
_cell_angle_gamma                78.864(3)
_cell_volume                     3364.35
_exptl_crystal_colour            colorless
_exptl_crystal_description       block
_cell_formula_units_Z            2
_exptl_crystal_recrystallization_method toluene
loop_
_atom_site_label
_atom_site_type_symbol
_atom_site_fract_x
_atom_site_fract_y
_atom_site_fract_z
C1 C 0.1216(2) 0.90439(16) 0.34657(13)
H1 H 0.1195 0.8717 0.3972
C2 C 0.1410(3) 1.09354(18) 0.33628(14)
C3 C 0.0411(3) 1.0985(2) 0.38170(15)
H2 H 0.0115 1.0445 0.4048
C4 C -0.0165(3) 1.1809(2) 0.39399(18)
H3 H -0.0852 1.1834 0.4256
C5 C 0.0246(4) 1.2583(2) 0.3612(2)
H4 H -0.0159 1.3151 0.3692
C6 C 0.1240(4) 1.2549(2) 0.3166(2)
H5 H 0.1522 1.3095 0.2935
C7 C 0.1841(3) 1.1722(2) 0.30476(17)
H6 H 0.2548 1.1700 0.2749
C8 C 0.3166(2) 0.95101(18) 0.38695(14)
C9 C 0.4342(2) 0.9396(2) 0.36705(17)
H7 H 0.4607 0.9490 0.3185
C10 C 0.5146(3) 0.9147(2) 0.4167(2)
H8 H 0.5959 0.9066 0.4024
C11 C 0.4765(3) 0.9019(2) 0.4862(2)
H9 H 0.5315 0.8848 0.5204
C12 C 0.3607(3) 0.9133(3) 0.50719(18)
H10 H 0.3353 0.9039 0.5559
C13 C 0.2796(3) 0.9386(2) 0.45816(16)
H11 H 0.1986 0.9475 0.4731
C14 C -0.0904(2) 0.83826(19) 0.36798(14)
C15 C -0.1118(3) 0.8471(2) 0.43728(16)
H12 H -0.0736 0.8871 0.4527
C16 C -0.1875(3) 0.7987(3) 0.48385(17)
H13 H -0.2003 0.8046 0.5313
C17 C -0.2443(3) 0.7424(3) 0.4624(2)
H14 H -0.2974 0.7098 0.4946
C18 C -0.2250(3) 0.7326(2) 0.3943(2)
H15 H -0.2651 0.6937 0.3792
C19 C -0.1469(3) 0.7797(2) 0.34771(17)
H16 H -0.1321 0.7715 0.3009
C20 C -0.0874(2) 1.01528(18) 0.28256(14)
C21 C -0.2013(3) 1.0354(2) 0.31095(16)
H17 H -0.2360 0.9897 0.3443
C22 C -0.2646(3) 1.1215(3) 0.29103(19)
H18 H -0.3436 1.1341 0.3094
C23 C -0.2150(4) 1.1885(2) 0.24534(19)
H19 H -0.2588 1.2480 0.2327
C24 C -0.1021(3) 1.1704(2) 0.21749(17)
H20 H -0.0668 1.2173 0.1862
C25 C -0.0396(3) 1.08347(19) 0.23516(15)
H21 H 0.0378 1.0705 0.2142
C26 C 0.2269(4) 1.1511(3) 0.13064(19)
H22 H 0.1960 1.1899 0.1639
H23 H 0.1625 1.1294 0.1163
H24 H 0.2672 1.1861 0.0891
C27 C 0.3804(4) 0.9847(3) 0.10522(18)
H25 H 0.4364 0.9308 0.1240
H26 H 0.4178 1.0220 0.0637
H27 H 0.3130 0.9658 0.0919
C28 C 0.4605(4) 1.0961(3) 0.1897(2)
H28 H 0.4376 1.1318 0.2258
H29 H 0.4897 1.1347 0.1460
H30 H 0.5219 1.0449 0.2058
C29 C 0.0655(4) 0.9287(4) 0.08559(18)
H31 H 0.1444 0.8931 0.0864
H32 H 0.0686 0.9912 0.0877
H33 H 0.0331 0.9292 0.0421
C30 C -0.1755(3) 0.9476(2) 0.15832(19)
H34 H -0.2272 0.9208 0.1981
H35 H -0.2066 0.9493 0.1141
H36 H -0.1709 1.0095 0.1611
C31 C -0.0446(3) 0.7643(2) 0.1504(2)
H37 H -0.0946 0.7359 0.1903
H38 H 0.0321 0.7256 0.1484
H39 H -0.0805 0.7717 0.1067
C32 C 0.2457(2) 0.63812(17) 0.21306(13)
H40 H 0.1728 0.6374 0.1922
C33 C 0.1069(2) 0.55388(18) 0.32565(14)
C34 C 0.0538(3) 0.5200(2) 0.28179(16)
H41 H 0.0929 0.5133 0.2374
C35 C -0.0540(3) 0.4958(2) 0.30088(19)
H42 H -0.0904 0.4744 0.2693
C36 C -0.1097(3) 0.5023(2) 0.36593(19)
H43 H -0.1843 0.4848 0.3798
C37 C -0.0573(3) 0.5341(2) 0.41025(18)
H44 H -0.0954 0.5382 0.4554
C38 C 0.0505(3) 0.5606(2) 0.39065(16)
H45 H 0.0857 0.5833 0.4220
C39 C 0.3524(2) 0.48411(18) 0.31999(13)
C40 C 0.3215(3) 0.3992(2) 0.34393(16)
H46 H 0.2414 0.3932 0.3513
C41 C 0.4061(3) 0.3229(2) 0.3572(2)
H47 H 0.3842 0.2645 0.3736
C42 C 0.5214(3) 0.3312(2) 0.3468(2)
H48 H 0.5796 0.2786 0.3563
C43 C 0.5532(3) 0.4148(2) 0.32274(19)
H49 H 0.6334 0.4204 0.3153
C44 C 0.4691(2) 0.4910(2) 0.30934(16)
H50 H 0.4918 0.5491 0.2925
C45 C 0.3053(2) 0.71075(19) 0.07161(13)
C46 C 0.3441(3) 0.7885(2) 0.03222(15)
H51 H 0.4030 0.8111 0.0482
C47 C 0.2979(4) 0.8336(3) -0.03036(17)
H52 H 0.3253 0.8870 -0.0574
C48 C 0.2134(4) 0.8019(3) -0.05329(17)
H53 H 0.1804 0.8340 -0.0957
C49 C 0.1756(3) 0.7241(3) -0.01576(18)
H54 H 0.1172 0.7018 -0.0325
C50 C 0.2219(3) 0.6777(2) 0.04644(15)
H55 H 0.1964 0.6230 0.0720
C51 C 0.4437(3) 0.5491(2) 0.13223(14)
C52 C 0.3965(3) 0.4708(2) 0.15350(17)
H56 H 0.3246 0.4707 0.1822
C53 C 0.4526(4) 0.3923(3) 0.1334(2)
H57 H 0.4198 0.3382 0.1488
C54 C 0.5549(4) 0.3923(3) 0.0918(2)
H58 H 0.5931 0.3382 0.0779
C55 C 0.6024(4) 0.4692(3) 0.0699(3)
H59 H 0.6743 0.4687 0.0411
C56 C 0.5468(3) 0.5484(3) 0.0892(2)
H60 H 0.5796 0.6024 0.0729
C57 C 0.4546(3) 0.6815(2) 0.42107(18)
H61 H 0.4428 0.7455 0.3960
H62 H 0.5169 0.6467 0.3953
H63 H 0.4764 0.6765 0.4684
C58 C 0.2086(3) 0.6953(2) 0.48575(15)
H64 H 0.1346 0.6727 0.4905
H65 H 0.1964 0.7608 0.4651
H66 H 0.2372 0.6838 0.5322
C59 C 0.3446(2) 0.51467(19) 0.47580(14)
H67 H 0.2733 0.4886 0.4802
H68 H 0.3672 0.5109 0.5228
H69 H 0.4075 0.4807 0.4498
C60 C 0.5805(3) 0.8055(3) 0.23317(19)
H70 H 0.5279 0.8627 0.2172
H71 H 0.6597 0.8179 0.2319
H72 H 0.5540 0.7771 0.2814
C61 C 0.6431(3) 0.7800(3) 0.08473(18)
H73 H 0.6436 0.7400 0.0528
H74 H 0.7231 0.7884 0.0871
H75 H 0.5954 0.8391 0.0672
C62 C 0.6829(3) 0.6222(3) 0.2089(2)
H76 H 0.6860 0.5783 0.1797
H77 H 0.6559 0.5959 0.2575
H78 H 0.7610 0.6369 0.2075
Sr1 Sr 0.25904(2) 0.805495(16) 0.249488(12)
N1 N 0.27350(19) 0.98385(15) 0.24494(11)
N2 N 0.03999(18) 0.86603(15) 0.23510(11)
N3 N 0.27218(19) 0.65579(14) 0.34557(11)
N4 N 0.44090(19) 0.71336(15) 0.17737(11)
P1 P 0.21319(6) 0.98278(4) 0.32129(3)
P2 P 0.00254(5) 0.90388(4) 0.30361(3)
P3 P 0.24822(5) 0.58914(4) 0.30176(3)
P4 P 0.36523(6) 0.65415(5) 0.15418(3)
Si1 Si 0.33125(8) 1.05219(6) 0.17350(4)
Si2 Si -0.02748(7) 0.87749(6) 0.16148(4)
Si3 Si 0.31768(7) 0.63564(5) 0.42772(4)
Si4 Si 0.58045(7) 0.72761(6) 0.17447(4)
C63? C 0.9320(10) 0.5507(7) 0.0254(7)
C64? C 0.9824(14) 0.5209(10) -0.0348(5)
C65? C 1.0713(12) 0.4460(10) -0.0297(5)
C66? C 1.1098(9) 0.4008(7) 0.0356(7)
C67? C 1.0594(10) 0.4306(7) 0.0957(5)
C68? C 0.9705(9) 0.5055(8) 0.0906(5)
loop_
_geom_bond_atom_site_label_1
_geom_bond_atom_site_label_2
_geom_bond_site_symmetry_1
_geom_bond_site_symmetry_2
C1 H1 1_555 1_555
C2 C3 1_555 1_555
C3 H2 1_555 1_555
C4 C3 1_555 1_555
H3 C4 1_555 1_555
C5 C4 1_555 1_555
H4 C5 1_555 1_555
C6 C5 1_555 1_555
H5 C6 1_555 1_555
C7 C2 1_555 1_555
H6 C7 1_555 1_555
C8 C9 1_555 1_555
C9 H7 1_555 1_555
C10 C9 1_555 1_555
H8 C10 1_555 1_555
C11 C10 1_555 1_555
H9 C11 1_555 1_555
C12 C11 1_555 1_555
H10 C12 1_555 1_555
C13 C8 1_555 1_555
H11 C13 1_555 1_555
C14 C15 1_555 1_555
C15 H12 1_555 1_555
C16 C15 1_555 1_555
H13 C16 1_555 1_555
C17 C16 1_555 1_555
H14 C17 1_555 1_555
C18 C17 1_555 1_555
H15 C18 1_555 1_555
C19 C14 1_555 1_555
H16 C19 1_555 1_555
C20 C21 1_555 1_555
C21 H17 1_555 1_555
C22 C21 1_555 1_555
H18 C22 1_555 1_555
C23 C22 1_555 1_555
H19 C23 1_555 1_555
C24 C23 1_555 1_555
H20 C24 1_555 1_555
C25 C20 1_555 1_555
H21 C25 1_555 1_555
C26 H22 1_555 1_555
H23 C26 1_555 1_555
H24 C26 1_555 1_555
C27 H25 1_555 1_555
H26 C27 1_555 1_555
H27 C27 1_555 1_555
C28 H28 1_555 1_555
H29 C28 1_555 1_555
H30 C28 1_555 1_555
C29 H31 1_555 1_555
H32 C29 1_555 1_555
H33 C29 1_555 1_555
C30 H34 1_555 1_555
H35 C30 1_555 1_555
H36 C30 1_555 1_555
C31 H37 1_555 1_555
H38 C31 1_555 1_555
H39 C31 1_555 1_555
C32 H40 1_555 1_555
C33 C34 1_555 1_555
C34 H41 1_555 1_555
C35 C34 1_555 1_555
H42 C35 1_555 1_555
C36 C35 1_555 1_555
H43 C36 1_555 1_555
C37 C36 1_555 1_555
H44 C37 1_555 1_555
C38 C33 1_555 1_555
H45 C38 1_555 1_555
C39 C40 1_555 1_555
C40 H46 1_555 1_555
C41 C40 1_555 1_555
H47 C41 1_555 1_555
C42 C41 1_555 1_555
H48 C42 1_555 1_555
C43 C42 1_555 1_555
H49 C43 1_555 1_555
C44 C39 1_555 1_555
H50 C44 1_555 1_555
C45 C46 1_555 1_555
C46 H51 1_555 1_555
C47 C46 1_555 1_555
H52 C47 1_555 1_555
C48 C47 1_555 1_555
H53 C48 1_555 1_555
C49 C48 1_555 1_555
H54 C49 1_555 1_555
C50 C45 1_555 1_555
H55 C50 1_555 1_555
C51 C52 1_555 1_555
C52 H56 1_555 1_555
C53 C52 1_555 1_555
H57 C53 1_555 1_555
C54 C53 1_555 1_555
H58 C54 1_555 1_555
C55 C54 1_555 1_555
H59 C55 1_555 1_555
C56 C51 1_555 1_555
H60 C56 1_555 1_555
C57 H61 1_555 1_555
H62 C57 1_555 1_555
H63 C57 1_555 1_555
C58 H64 1_555 1_555
H65 C58 1_555 1_555
H66 C58 1_555 1_555
C59 H67 1_555 1_555
H68 C59 1_555 1_555
H69 C59 1_555 1_555
C60 H70 1_555 1_555
H71 C60 1_555 1_555
H72 C60 1_555 1_555
C61 H73 1_555 1_555
H74 C61 1_555 1_555
H75 C61 1_555 1_555
C62 H76 1_555 1_555
H77 C62 1_555 1_555
H78 C62 1_555 1_555
Sr1 N1 1_555 1_555
N1 P1 1_555 1_555
N2 Sr1 1_555 1_555
N3 Sr1 1_555 1_555
N4 Sr1 1_555 1_555
P1 C1 1_555 1_555
P2 C1 1_555 1_555
P3 C32 1_555 1_555
P4 C32 1_555 1_555
Si1 C26 1_555 1_555
Si2 C29 1_555 1_555
Si3 C57 1_555 1_555
Si4 C60 1_555 1_555
C2 P1 1_555 1_555
C6 C7 1_555 1_555
C8 P1 1_555 1_555
C12 C13 1_555 1_555
C14 P2 1_555 1_555
C18 C19 1_555 1_555
C20 P2 1_555 1_555
C24 C25 1_555 1_555
C27 Si1 1_555 1_555
C28 Si1 1_555 1_555
C30 Si2 1_555 1_555
C31 Si2 1_555 1_555
C33 P3 1_555 1_555
C37 C38 1_555 1_555
C39 P3 1_555 1_555
C43 C44 1_555 1_555
C45 P4 1_555 1_555
C49 C50 1_555 1_555
C51 P4 1_555 1_555
C55 C56 1_555 1_555
C58 Si3 1_555 1_555
C59 Si3 1_555 1_555
C61 Si4 1_555 1_555
C62 Si4 1_555 1_555
N1 Si1 1_555 1_555
N2 P2 1_555 1_555
N2 Si2 1_555 1_555
N3 P3 1_555 1_555
N3 Si3 1_555 1_555
N4 P4 1_555 1_555
N4 Si4 1_555 1_555

#END
