
#######################################################################
#
#                 Cambridge Crystallographic Data Centre
#                                CCDC 
#
#######################################################################
#
# If this CIF has been generated from an entry in the Cambridge 
# Structural Database, then it will include bibliographic, chemical, 
# crystal, experimental, refinement or atomic coordinate data resulting 
# from the CCDC's data processing and validation procedures.
#
#######################################################################

data_FUDGAO
_chemical_formula_moiety         'C18 H17 N1 O7'
_chemical_name_systematic        
'(3-acetoxy-6-(1,3-dioxo-1,3-dihydro-2H-isoindol-2-yl)-3,6-dihydro-2H-pyran-2-yl)methyl acetate'
_symmetry_cell_setting           monoclinic
_symmetry_space_group_name_H-M   'P 21'
_symmetry_Int_Tables_number      4
_space_group_name_Hall           'P 2yb'
loop_
_symmetry_equiv_pos_site_id
_symmetry_equiv_pos_as_xyz
1 x,y,z
2 -x,1/2+y,-z
_cell_length_a                   11.4475(7)
_cell_length_b                   5.2192(3)
_cell_length_c                   13.9822(8)
_cell_angle_alpha                90
_cell_angle_beta                 95.930(3)
_cell_angle_gamma                90
_cell_volume                     830.921
_exptl_crystal_colour            colorless
_exptl_crystal_description       needle
_cell_formula_units_Z            2
loop_
_atom_site_label
_atom_site_type_symbol
_atom_site_fract_x
_atom_site_fract_y
_atom_site_fract_z
C1 C 0.5661(2) 0.9491(4) 0.27440(18)
H1 H 0.5697 1.1224 0.2443
C2 C 0.5421(2) 0.9954(4) 0.37621(18)
H2 H 0.6023 1.0649 0.4206
C3 C 0.4386(2) 0.9415(4) 0.40557(18)
H3 H 0.4219 0.9949 0.4677
C4 C 0.3474(2) 0.7974(5) 0.34245(18)
H4 H 0.2899 0.9186 0.3079
C5 C 0.4092(2) 0.6403(4) 0.27101(17)
H5 H 0.4629 0.5118 0.3056
C6 C 0.3224(2) 0.5085(5) 0.19892(18)
H6 H 0.2703 0.3956 0.2325
H7 H 0.2731 0.6373 0.1617
C7 C 0.3255(2) 0.1682(5) 0.08738(18)
C8 C 0.3964(2) 0.0355(5) 0.01877(19)
H8 H 0.3918 0.1315 -0.0417
H9 H 0.3657 -0.138 0.0064
H10 H 0.4785 0.0257 0.0465
C9 C 0.1768(2) 0.6798(5) 0.41890(18)
C10 C 0.1306(2) 0.4779(5) 0.48101(19)
H11 H 0.0482 0.5142 0.4891
H12 H 0.1768 0.4774 0.544
H13 H 0.1365 0.3099 0.4506
C11 C 0.7294(2) 0.6136(4) 0.31378(18)
C12 C 0.8355(2) 0.5459(5) 0.26517(17)
C13 C 0.9160(2) 0.3510(5) 0.2843(2)
H14 H 0.9121 0.2394 0.3376
C14 C 1.0033(2) 0.3241(6) 0.2222(2)
H15 H 1.0598 0.1912 0.233
C15 C 1.0086(2) 0.4896(6) 0.1448(2)
H16 H 1.0687 0.467 0.1034
C16 C 0.9278(2) 0.6873(6) 0.12646(19)
H17 H 0.9322 0.8016 0.0741
C17 C 0.8412(2) 0.7104(5) 0.18759(19)
C18 C 0.7409(2) 0.8912(5) 0.18496(18)
N1 N 0.67955(17) 0.8280(4) 0.26419(15)
O1 O 0.47467(14) 0.8156(3) 0.21873(12)
O2 O 0.38676(15) 0.3593(3) 0.13529(13)
O3 O 0.22544(15) 0.1183(4) 0.10001(15)
O4 O 0.28764(14) 0.6198(3) 0.40109(12)
O5 O 0.12523(15) 0.8681(4) 0.38855(15)
O6 O 0.71242(16) 1.0583(4) 0.12783(13)
O7 O 0.69167(15) 0.5087(3) 0.38127(14)
loop_
_geom_bond_atom_site_label_1
_geom_bond_atom_site_label_2
_geom_bond_site_symmetry_1
_geom_bond_site_symmetry_2
C1 H1 1_555 1_555
C2 C1 1_555 1_555
H2 C2 1_555 1_555
C3 C2 1_555 1_555
H3 C3 1_555 1_555
C4 C3 1_555 1_555
H4 C4 1_555 1_555
C5 C4 1_555 1_555
H5 C5 1_555 1_555
C6 C5 1_555 1_555
H6 C6 1_555 1_555
H7 C6 1_555 1_555
C7 C8 1_555 1_555
C8 H8 1_555 1_555
H9 C8 1_555 1_555
H10 C8 1_555 1_555
C9 C10 1_555 1_555
C10 H11 1_555 1_555
H12 C10 1_555 1_555
H13 C10 1_555 1_555
C11 C12 1_555 1_555
C12 C13 1_555 1_555
C13 H14 1_555 1_555
C14 C13 1_555 1_555
H15 C14 1_555 1_555
C15 C14 1_555 1_555
H16 C15 1_555 1_555
C16 C15 1_555 1_555
H17 C16 1_555 1_555
C17 C12 1_555 1_555
C18 C17 1_555 1_555
N1 C1 1_555 1_555
O1 C1 1_555 1_555
O2 C6 1_555 1_555
O3 C7 1_555 1_555
O4 C4 1_555 1_555
O5 C9 1_555 1_555
O6 C18 1_555 1_555
O7 C11 1_555 1_555
C5 O1 1_555 1_555
C7 O2 1_555 1_555
C9 O4 1_555 1_555
C11 N1 1_555 1_555
C16 C17 1_555 1_555
C18 N1 1_555 1_555

#END
