
#######################################################################
#
#                 Cambridge Crystallographic Data Centre
#                                CCDC 
#
#######################################################################
#
# If this CIF has been generated from an entry in the Cambridge 
# Structural Database, then it will include bibliographic, chemical, 
# crystal, experimental, refinement or atomic coordinate data resulting 
# from the CCDC's data processing and validation procedures.
#
#######################################################################

data_FUDPIF
_chemical_formula_moiety         'C30 H29 N5 O2 S1,C2 H6 O1 S1'
_chemical_name_systematic        
'N-benzyl-8-((1H-indol-7-ylcarbamothioyl)amino)-4-isobutoxyquinoline-2-carboxamide dimethyl sulfoxide solvate'
_symmetry_cell_setting           orthorhombic
_symmetry_space_group_name_H-M   'F d d 2'
_symmetry_Int_Tables_number      43
_space_group_name_Hall           'F 2 -2d'
loop_
_symmetry_equiv_pos_site_id
_symmetry_equiv_pos_as_xyz
1 x,y,z
2 -x,-y,z
3 1/4+x,1/4-y,1/4+z
4 1/4-x,1/4+y,1/4+z
5 x,1/2+y,1/2+z
6 -x,1/2-y,1/2+z
7 1/4+x,3/4-y,3/4+z
8 1/4-x,3/4+y,3/4+z
9 1/2+x,y,1/2+z
10 1/2-x,-y,1/2+z
11 3/4+x,1/4-y,3/4+z
12 3/4-x,1/4+y,3/4+z
13 1/2+x,1/2+y,z
14 1/2-x,1/2-y,z
15 3/4+x,3/4-y,1/4+z
16 3/4-x,3/4+y,1/4+z
_cell_length_a                   28.616(2)
_cell_length_b                   33.622(2)
_cell_length_c                   12.8697(9)
_cell_angle_alpha                90
_cell_angle_beta                 90
_cell_angle_gamma                90
_cell_volume                     12382.3
_exptl_crystal_colour            colorless
_exptl_crystal_description       block
_chemical_melting_point          '441-442 K'
_cell_formula_units_Z            16
_exptl_crystal_recrystallization_method 'dimethyl sulfoxide'
loop_
_atom_site_label
_atom_site_type_symbol
_atom_site_fract_x
_atom_site_fract_y
_atom_site_fract_z
S1 S 0.47978(2) 0.161939(18) 0.93657(5)
O1 O 0.43153(6) -0.05977(5) 1.13860(12)
O2 O 0.44327(5) -0.08389(4) 0.75037(12)
N1 N 0.53942(7) 0.14548(6) 0.60710(15)
H1 H 0.5470 0.1200 0.6385
N2 N 0.45924(6) 0.13209(5) 0.75105(15)
H2 H 0.4506 0.1112 0.7153
N3 N 0.45011(6) 0.08819(5) 0.88104(15)
H3 H 0.4446 0.0713 0.8254
N4 N 0.44449(6) 0.01039(5) 0.87347(14)
N5 N 0.44789(6) -0.02177(5) 0.68207(14)
H4 H 0.4479 0.0049 0.6992
C1 C 0.51011(9) 0.20566(7) 0.5635(2)
C2 C 0.47671(10) 0.23628(7) 0.5690(2)
H5 H 0.4794 0.2591 0.5258
C3 C 0.44007(10) 0.23285(8) 0.6374(3)
H6 H 0.4177 0.2537 0.6418
C4 C 0.43502(9) 0.19931(7) 0.7007(2)
H7 H 0.4094 0.1978 0.7476
C5 C 0.46640(8) 0.16847(6) 0.6964(2)
C6 C 0.50380(8) 0.17191(6) 0.62745(19)
C7 C 0.55176(10) 0.19885(8) 0.5065(2)
H8 H 0.5654 0.2165 0.4574
C8 C 0.56868(9) 0.16267(8) 0.5347(2)
H9 H 0.5965 0.1510 0.5085
C9 C 0.46219(7) 0.12647(6) 0.85458(19)
C10 C 0.44556(7) 0.06931(6) 0.97722(18)
C11 C 0.44141(7) 0.08702(7) 1.07297(19)
H10 H 0.4430 0.1152 1.0788
C12 C 0.43490(8) 0.06368(8) 1.16212(18)
H11 H 0.4317 0.0766 1.2274
C13 C 0.43304(7) 0.02334(7) 1.15889(18)
H12 H 0.4292 0.0084 1.2210
C14 C 0.43695(7) 0.00370(7) 1.06189(18)
C15 C 0.44234(7) 0.02670(7) 0.97041(17)
C16 C 0.44294(7) -0.02893(6) 0.86737(18)
C17 C 0.43954(7) -0.05461(7) 0.95279(17)
H13 H 0.4397 -0.0826 0.9435
C18 C 0.43592(7) -0.03823(7) 1.05026(18)
C19 C 0.42999(8) -0.10241(7) 1.12763(19)
H14 H 0.4577 -0.1116 1.0883
H15 H 0.4017 -0.1102 1.0884
C20 C 0.42931(8) -0.12173(7) 1.2339(2)
H16 H 0.4012 -0.1120 1.2726
C21 C 0.42473(9) -0.16630(7) 1.2176(2)
H17 H 0.4527 -0.1763 1.1823
H18 H 0.3971 -0.1718 1.1750
H19 H 0.4214 -0.1795 1.2851
C22 C 0.47275(9) -0.11140(8) 1.2962(2)
H20 H 0.5003 -0.1231 1.2627
H21 H 0.4697 -0.1220 1.3668
H22 H 0.4763 -0.0824 1.2992
C23 C 0.44503(7) -0.04712(6) 0.76104(17)
C24 C 0.44715(7) -0.03464(7) 0.57482(17)
H23 H 0.4645 -0.0600 0.5692
H24 H 0.4638 -0.0147 0.5321
C25 C 0.39865(7) -0.04054(6) 0.53050(18)
C26 C 0.39327(8) -0.04048(7) 0.42296(19)
H25 H 0.4198 -0.0368 0.3797
C27 C 0.34958(9) -0.04579(8) 0.3781(2)
H26 H 0.3463 -0.0460 0.3047
C28 C 0.31116(8) -0.05074(8) 0.4406(2)
H27 H 0.2813 -0.0546 0.4100
C29 C 0.31537(8) -0.05023(8) 0.5470(2)
H28 H 0.2885 -0.0532 0.5895
C30 C 0.35942(8) -0.04526(7) 0.59235(18)
H29 H 0.3624 -0.0451 0.6659
S2 S 0.40777(2) 0.065234(17) 0.53633(5)
O3 O 0.43682(6) 0.06331(5) 0.63461(14)
C31 C 0.41045(9) 0.11561(7) 0.4926(2)
H30 H 0.3996 0.1333 0.5481
H31 H 0.3904 0.1188 0.4314
H32 H 0.4428 0.1223 0.4743
C32 C 0.34843(10) 0.06456(10) 0.5757(3)
H33 H 0.3413 0.0390 0.6087
H34 H 0.3283 0.0682 0.5148
H35 H 0.3428 0.0861 0.6253
loop_
_geom_bond_atom_site_label_1
_geom_bond_atom_site_label_2
_geom_bond_site_symmetry_1
_geom_bond_site_symmetry_2
S1 C9 1_555 1_555
O1 C18 1_555 1_555
O2 C23 1_555 1_555
N1 H1 1_555 1_555
N2 H2 1_555 1_555
N3 H3 1_555 1_555
N4 C15 1_555 1_555
N5 H4 1_555 1_555
C1 C2 1_555 1_555
C2 H5 1_555 1_555
C3 C2 1_555 1_555
H6 C3 1_555 1_555
C4 C3 1_555 1_555
H7 C4 1_555 1_555
C5 N2 1_555 1_555
C6 N1 1_555 1_555
C7 C1 1_555 1_555
H8 C7 1_555 1_555
C8 N1 1_555 1_555
H9 C8 1_555 1_555
C9 N2 1_555 1_555
C10 N3 1_555 1_555
C11 C10 1_555 1_555
H10 C11 1_555 1_555
C12 C11 1_555 1_555
H11 C12 1_555 1_555
C13 C12 1_555 1_555
H12 C13 1_555 1_555
C14 C13 1_555 1_555
C15 C10 1_555 1_555
C16 N4 1_555 1_555
C17 C16 1_555 1_555
H13 C17 1_555 1_555
C18 C14 1_555 1_555
C19 O1 1_555 1_555
H14 C19 1_555 1_555
H15 C19 1_555 1_555
C20 C19 1_555 1_555
H16 C20 1_555 1_555
C21 C20 1_555 1_555
H17 C21 1_555 1_555
H18 C21 1_555 1_555
H19 C21 1_555 1_555
C22 C20 1_555 1_555
H20 C22 1_555 1_555
H21 C22 1_555 1_555
H22 C22 1_555 1_555
C23 N5 1_555 1_555
C24 N5 1_555 1_555
H23 C24 1_555 1_555
H24 C24 1_555 1_555
C25 C24 1_555 1_555
C26 C25 1_555 1_555
H25 C26 1_555 1_555
C27 C26 1_555 1_555
H26 C27 1_555 1_555
C28 C27 1_555 1_555
H27 C28 1_555 1_555
C29 C28 1_555 1_555
H28 C29 1_555 1_555
C30 C25 1_555 1_555
H29 C30 1_555 1_555
S2 O3 1_555 1_555
C31 S2 1_555 1_555
H30 C31 1_555 1_555
H31 C31 1_555 1_555
H32 C31 1_555 1_555
C32 S2 1_555 1_555
H33 C32 1_555 1_555
H34 C32 1_555 1_555
H35 C32 1_555 1_555
N3 C9 1_555 1_555
C1 C6 1_555 1_555
C4 C5 1_555 1_555
C5 C6 1_555 1_555
C7 C8 1_555 1_555
C14 C15 1_555 1_555
C16 C23 1_555 1_555
C17 C18 1_555 1_555
C29 C30 1_555 1_555

#END
