
#######################################################################
#
#                 Cambridge Crystallographic Data Centre
#                                CCDC 
#
#######################################################################
#
# If this CIF has been generated from an entry in the Cambridge 
# Structural Database, then it will include bibliographic, chemical, 
# crystal, experimental, refinement or atomic coordinate data resulting 
# from the CCDC's data processing and validation procedures.
#
#######################################################################

data_FUDRIH
_chemical_formula_moiety         'C16 H17 N1 O7'
_chemical_name_systematic        
'5-acetoxy-6-(acetoxymethyl)-5,6-dihydro-2H-pyran-2-yl pyridine-2-carboxylate'
_symmetry_cell_setting           orthorhombic
_symmetry_space_group_name_H-M   'P 21 21 21'
_symmetry_Int_Tables_number      19
_space_group_name_Hall           'P 2ac 2ab'
loop_
_symmetry_equiv_pos_site_id
_symmetry_equiv_pos_as_xyz
1 x,y,z
2 1/2-x,-y,1/2+z
3 -x,1/2+y,1/2-z
4 1/2+x,1/2-y,-z
_cell_length_a                   5.4622(9)
_cell_length_b                   14.704(3)
_cell_length_c                   20.875(4)
_cell_angle_alpha                90
_cell_angle_beta                 90
_cell_angle_gamma                90
_cell_volume                     1676.6
_exptl_crystal_colour            colorless
_exptl_crystal_description       needle
_cell_formula_units_Z            4
loop_
_atom_site_label
_atom_site_type_symbol
_atom_site_fract_x
_atom_site_fract_y
_atom_site_fract_z
C1 C 0.3672(9) 0.6495(4) 0.2562(3)
H1 H 0.2269 0.6144 0.2718
C2 C 0.2825(10) 0.7402(4) 0.2329(3)
H2 H 0.1792 0.7746 0.2587
C3 C 0.3499(9) 0.7730(4) 0.1769(3)
H3 H 0.286 0.8284 0.1633
C4 C 0.5271(9) 0.7234(4) 0.1344(3)
H4 H 0.4402 0.694 0.0989
C5 C 0.6662(8) 0.6533(3) 0.1734(3)
H5 H 0.7761 0.6842 0.2035
C6 C 0.5715(10) 0.5997(4) 0.3508(3)
C7 C 0.7597(9) 0.6235(3) 0.3989(3)
C8 C 0.7504(10) 0.5842(3) 0.4582(3)
H6 H 0.6278 0.5429 0.4687
C9 C 0.9274(11) 0.6074(4) 0.5019(3)
H7 H 0.9248 0.5822 0.5428
C10 C 1.1075(11) 0.6676(4) 0.4854(3)
H8 H 1.2293 0.6838 0.5144
C11 C 1.1028(11) 0.7029(4) 0.4253(3)
H9 H 1.2269 0.7431 0.4138
C12 C 0.8109(10) 0.5881(4) 0.1327(3)
H10 H 0.7022 0.5526 0.1058
H11 H 0.9243 0.6209 0.1055
C13 C 1.0903(12) 0.4679(4) 0.1495(4)
C14 C 1.2152(13) 0.4103(4) 0.1980(4)
H12 H 1.2093 0.3478 0.1847
H13 H 1.1343 0.4167 0.2386
H14 H 1.3828 0.4291 0.2021
C15 C 0.6514(11) 0.8316(4) 0.0563(3)
C16 C 0.8507(10) 0.8964(4) 0.0398(3)
H15 H 0.8033 0.9316 0.0032
H16 H 0.9974 0.8631 0.0302
H17 H 0.88 0.9362 0.0755
N1 N 0.9320(8) 0.6839(3) 0.3814(2)
O1 O 0.4893(6) 0.6002(2) 0.20848(17)
O2 O 0.5343(6) 0.6671(2) 0.30848(16)
O3 O 0.4617(8) 0.5291(3) 0.3502(2)
O4 O 0.9424(7) 0.5295(3) 0.17629(18)
O5 O 1.1183(12) 0.4629(4) 0.0933(3)
O6 O 0.7074(6) 0.7858(2) 0.11025(19)
O7 O 0.4627(8) 0.8205(3) 0.0280(2)
loop_
_geom_bond_atom_site_label_1
_geom_bond_atom_site_label_2
_geom_bond_site_symmetry_1
_geom_bond_site_symmetry_2
C1 H1 1_555 1_555
C2 C1 1_555 1_555
H2 C2 1_555 1_555
C3 C2 1_555 1_555
H3 C3 1_555 1_555
C4 C3 1_555 1_555
H4 C4 1_555 1_555
C5 C4 1_555 1_555
H5 C5 1_555 1_555
C6 C7 1_555 1_555
C7 C8 1_555 1_555
C8 H6 1_555 1_555
C9 C8 1_555 1_555
H7 C9 1_555 1_555
C10 C9 1_555 1_555
H8 C10 1_555 1_555
C11 C10 1_555 1_555
H9 C11 1_555 1_555
C12 C5 1_555 1_555
H10 C12 1_555 1_555
H11 C12 1_555 1_555
C13 C14 1_555 1_555
C14 H12 1_555 1_555
H13 C14 1_555 1_555
H14 C14 1_555 1_555
C15 C16 1_555 1_555
C16 H15 1_555 1_555
H16 C16 1_555 1_555
H17 C16 1_555 1_555
N1 C7 1_555 1_555
O1 C1 1_555 1_555
O2 C1 1_555 1_555
O3 C6 1_555 1_555
O4 C12 1_555 1_555
O5 C13 1_555 1_555
O6 C4 1_555 1_555
O7 C15 1_555 1_555
C5 O1 1_555 1_555
C6 O2 1_555 1_555
C11 N1 1_555 1_555
C13 O4 1_555 1_555
C15 O6 1_555 1_555

#END
