
#######################################################################
#
#                 Cambridge Crystallographic Data Centre
#                                CCDC 
#
#######################################################################
#
# If this CIF has been generated from an entry in the Cambridge 
# Structural Database, then it will include bibliographic, chemical, 
# crystal, experimental, refinement or atomic coordinate data resulting 
# from the CCDC's data processing and validation procedures.
#
#######################################################################

data_FUDVUX
_chemical_formula_moiety         'C19 H15 N1 O2'
_chemical_name_systematic        
(4-methoxy-2-(pyridin-2-yl)phenyl)(phenyl)methanone
_symmetry_cell_setting           monoclinic
_symmetry_space_group_name_H-M   'P 21/c'
_symmetry_Int_Tables_number      14
_space_group_name_Hall           '-P 2ybc'
loop_
_symmetry_equiv_pos_site_id
_symmetry_equiv_pos_as_xyz
1 x,y,z
2 -x,1/2+y,1/2-z
3 -x,-y,-z
4 x,1/2-y,1/2+z
_cell_length_a                   12.5510(5)
_cell_length_b                   15.8957(5)
_cell_length_c                   7.8920(3)
_cell_angle_alpha                90
_cell_angle_beta                 107.326(4)
_cell_angle_gamma                90
_cell_volume                     1503.07
_cell_formula_units_Z            4
loop_
_atom_site_label
_atom_site_type_symbol
_atom_site_fract_x
_atom_site_fract_y
_atom_site_fract_z
O1 O 0.27411(10) 0.42078(7) 0.62625(16)
O2 O 0.52239(10) 0.76159(8) 0.94018(18)
N1 N 0.10694(10) 0.59624(8) 0.52849(17)
C1 C 0.30300(14) 0.54990(10) 0.2723(2)
H1 H 0.3576 0.5862 0.3392
C2 C 0.27341(15) 0.55232(12) 0.0888(2)
H2 H 0.3095 0.5894 0.0330
C3 C 0.19155(17) 0.50059(15) -0.0112(2)
H3 H 0.1708 0.5033 -0.1345
C4 C 0.13972(18) 0.44414(16) 0.0722(3)
H4 H 0.0838 0.4090 0.0047
C5 C 0.17068(15) 0.43977(12) 0.2553(2)
H5 H 0.1372 0.4006 0.3106
C6 C 0.25135(12) 0.49353(9) 0.3566(2)
C7 C 0.28500(12) 0.48670(9) 0.5544(2)
C8 C 0.34241(12) 0.56031(9) 0.66158(18)
C9 C 0.44859(13) 0.54719(11) 0.7765(2)
H6 H 0.4779 0.4930 0.7895
C10 C 0.51238(13) 0.61191(12) 0.8724(2)
H7 H 0.5838 0.6015 0.9475
C11 C 0.46839(13) 0.69231(11) 0.8550(2)
C12 C 0.36113(12) 0.70646(10) 0.7445(2)
H8 H 0.3315 0.7605 0.7358
C13 C 0.29713(12) 0.64208(9) 0.64690(18)
C14 C 0.18040(12) 0.65881(9) 0.53770(18)
C15 C 0.14881(14) 0.73518(11) 0.4519(2)
H9 H 0.2013 0.7774 0.4593
C16 C 0.03869(15) 0.74765(12) 0.3556(3)
H10 H 0.0160 0.7982 0.2965
C17 C -0.03710(14) 0.68429(13) 0.3483(2)
H11 H -0.1122 0.6915 0.2868
C18 C 0.00084(13) 0.61011(12) 0.4343(2)
H12 H -0.0504 0.5669 0.4264
C19 C 0.63060(17) 0.75041(15) 1.0631(3)
H13 H 0.6805 0.7290 1.0018
H14 H 0.6263 0.7113 1.1534
H15 H 0.6579 0.8035 1.1167
loop_
_geom_bond_atom_site_label_1
_geom_bond_atom_site_label_2
_geom_bond_site_symmetry_1
_geom_bond_site_symmetry_2
O1 C7 1_555 1_555
O2 C11 1_555 1_555
N1 C14 1_555 1_555
C1 H1 1_555 1_555
C2 C1 1_555 1_555
H2 C2 1_555 1_555
C3 C2 1_555 1_555
H3 C3 1_555 1_555
C4 C3 1_555 1_555
H4 C4 1_555 1_555
C5 C4 1_555 1_555
H5 C5 1_555 1_555
C6 C1 1_555 1_555
C7 C6 1_555 1_555
C8 C7 1_555 1_555
C9 C8 1_555 1_555
H6 C9 1_555 1_555
C10 C9 1_555 1_555
H7 C10 1_555 1_555
C11 C10 1_555 1_555
C12 C11 1_555 1_555
H8 C12 1_555 1_555
C13 C8 1_555 1_555
C14 C13 1_555 1_555
C15 C14 1_555 1_555
H9 C15 1_555 1_555
C16 C15 1_555 1_555
H10 C16 1_555 1_555
C17 C16 1_555 1_555
H11 C17 1_555 1_555
C18 N1 1_555 1_555
H12 C18 1_555 1_555
C19 O2 1_555 1_555
H13 C19 1_555 1_555
H14 C19 1_555 1_555
H15 C19 1_555 1_555
C5 C6 1_555 1_555
C12 C13 1_555 1_555
C17 C18 1_555 1_555

#END
