
#######################################################################
#
#                 Cambridge Crystallographic Data Centre
#                                CCDC 
#
#######################################################################
#
# If this CIF has been generated from an entry in the Cambridge 
# Structural Database, then it will include bibliographic, chemical, 
# crystal, experimental, refinement or atomic coordinate data resulting 
# from the CCDC's data processing and validation procedures.
#
#######################################################################

data_FUDWIM
_chemical_formula_moiety         'C25 H23 Br1 N2 O4 S1'
_chemical_name_systematic        
'methyl 2-((2-benzylidene-1-((4-methylphenyl)sulfonyl)hydrazino)(4-bromophenyl)methyl)acrylate'
_symmetry_cell_setting           monoclinic
_symmetry_space_group_name_H-M   'P 21'
_symmetry_Int_Tables_number      4
_space_group_name_Hall           'P 2yb'
loop_
_symmetry_equiv_pos_site_id
_symmetry_equiv_pos_as_xyz
1 x,y,z
2 -x,1/2+y,-z
_cell_length_a                   6.8450(8)
_cell_length_b                   19.657(2)
_cell_length_c                   9.1980(11)
_cell_angle_alpha                90
_cell_angle_beta                 92.691(2)
_cell_angle_gamma                90
_cell_volume                     1236.25
_exptl_crystal_description       block
_cell_formula_units_Z            2
loop_
_atom_site_label
_atom_site_type_symbol
_atom_site_fract_x
_atom_site_fract_y
_atom_site_fract_z
Br1 Br 0.66284(8) 0.57046(3) -0.09365(5)
C1 C 0.5173(6) 0.6331(2) 0.0163(4)
C2 C 0.3274(5) 0.6483(2) -0.0258(4)
H1 H 0.2697 0.6300 -0.1107
C3 C 0.2241(5) 0.69124(18) 0.0606(3)
H2 H 0.0950 0.7016 0.0332
C4 C 0.3067(4) 0.71959(16) 0.1875(3)
C5 C 0.5022(4) 0.70521(18) 0.2239(3)
H3 H 0.5629 0.7251 0.3059
C6 C 0.6065(5) 0.66152(19) 0.1387(3)
H4 H 0.7364 0.6514 0.1641
C7 C 0.1792(4) 0.76309(17) 0.2804(3)
H5 H 0.0439 0.7534 0.2472
C8 C 0.2059(4) 0.83889(17) 0.2632(3)
C9 C 0.3716(5) 0.8683(2) 0.2347(5)
H6 H 0.3774 0.9154 0.2248
H7 H 0.4833 0.8422 0.2244
C10 C 0.0257(5) 0.87972(18) 0.2801(3)
C11 C -0.1134(7) 0.9889(3) 0.2874(7)
H8 H -0.2000 0.9818 0.2036
H9 H -0.0748 1.0358 0.2921
H10 H -0.1792 0.9771 0.3737
C12 C 0.2604(5) 0.60847(18) 0.4458(4)
C13 C 0.2229(5) 0.5676(2) 0.3259(4)
H11 H 0.1077 0.5725 0.2691
C14 C 0.3608(7) 0.5191(2) 0.2917(5)
H12 H 0.3341 0.4902 0.2132
C15 C 0.5351(6) 0.5124(2) 0.3702(5)
C16 C 0.5679(6) 0.5538(2) 0.4917(5)
H13 H 0.6836 0.5491 0.5479
C17 C 0.4338(5) 0.6012(2) 0.5304(4)
H14 H 0.4578 0.6282 0.6122
C18 C 0.6869(8) 0.4616(3) 0.3289(8)
H15 H 0.6599 0.4184 0.3723
H16 H 0.8140 0.4770 0.3630
H17 H 0.6839 0.4568 0.2249
C19 C 0.3921(5) 0.77275(19) 0.6418(3)
H18 H 0.2904 0.7592 0.6989
C20 C 0.5760(5) 0.79829(18) 0.7112(3)
C21 C 0.5916(6) 0.8030(3) 0.8598(4)
H19 H 0.4880 0.7896 0.9152
C22 C 0.7632(7) 0.8280(3) 0.9279(5)
H20 H 0.7745 0.8308 1.0289
C23 C 0.9125(6) 0.8480(3) 0.8478(5)
H21 H 1.0256 0.8656 0.8935
C24 C 0.8981(5) 0.8427(3) 0.7003(5)
H22 H 1.0026 0.8559 0.6457
C25 C 0.7303(5) 0.8179(2) 0.6314(4)
H23 H 0.7215 0.8145 0.5304
N1 N 0.1917(3) 0.74735(13) 0.4399(3)
N2 N 0.3725(3) 0.76926(14) 0.5053(2)
O1 O -0.1323(3) 0.85546(15) 0.2941(3)
O2 O 0.0581(4) 0.94654(13) 0.2763(4)
O3 O 0.0866(3) 0.67358(15) 0.6433(2)
O4 O -0.0781(3) 0.66519(14) 0.4005(3)
S1 S 0.09612(10) 0.67265(4) 0.48967(8)
loop_
_geom_bond_atom_site_label_1
_geom_bond_atom_site_label_2
_geom_bond_site_symmetry_1
_geom_bond_site_symmetry_2
Br1 C1 1_555 1_555
C1 C2 1_555 1_555
C2 H1 1_555 1_555
C3 C2 1_555 1_555
H2 C3 1_555 1_555
C4 C3 1_555 1_555
C5 C4 1_555 1_555
H3 C5 1_555 1_555
C6 C1 1_555 1_555
H4 C6 1_555 1_555
C7 C4 1_555 1_555
H5 C7 1_555 1_555
C8 C7 1_555 1_555
C9 C8 1_555 1_555
H6 C9 1_555 1_555
H7 C9 1_555 1_555
C10 C8 1_555 1_555
C11 H8 1_555 1_555
H9 C11 1_555 1_555
H10 C11 1_555 1_555
C12 C13 1_555 1_555
C13 H11 1_555 1_555
C14 C13 1_555 1_555
H12 C14 1_555 1_555
C15 C14 1_555 1_555
C16 C15 1_555 1_555
H13 C16 1_555 1_555
C17 C12 1_555 1_555
H14 C17 1_555 1_555
C18 C15 1_555 1_555
H15 C18 1_555 1_555
H16 C18 1_555 1_555
H17 C18 1_555 1_555
C19 H18 1_555 1_555
C20 C19 1_555 1_555
C21 C20 1_555 1_555
H19 C21 1_555 1_555
C22 C21 1_555 1_555
H20 C22 1_555 1_555
C23 C22 1_555 1_555
H21 C23 1_555 1_555
C24 C23 1_555 1_555
H22 C24 1_555 1_555
C25 C20 1_555 1_555
H23 C25 1_555 1_555
N1 C7 1_555 1_555
N2 C19 1_555 1_555
O1 C10 1_555 1_555
O2 C10 1_555 1_555
O3 S1 1_555 1_555
O4 S1 1_555 1_555
S1 C12 1_555 1_555
C5 C6 1_555 1_555
C11 O2 1_555 1_555
C16 C17 1_555 1_555
C24 C25 1_555 1_555
N1 N2 1_555 1_555
N1 S1 1_555 1_555

#END
