
#######################################################################
#
#                 Cambridge Crystallographic Data Centre
#                                CCDC 
#
#######################################################################
#
# If this CIF has been generated from an entry in the Cambridge 
# Structural Database, then it will include bibliographic, chemical, 
# crystal, experimental, refinement or atomic coordinate data resulting 
# from the CCDC's data processing and validation procedures.
#
#######################################################################

data_FUDXIN
_chemical_formula_moiety         'C18 H26 O4 Si1'
_chemical_name_systematic        
6-((t-butyl(dimethyl)silyl)oxy)-8-methoxy-3-oxatricyclo[6.2.2.0^1,5^]dodeca-5,9,11-trien-4-one
_symmetry_cell_setting           triclinic
_symmetry_space_group_name_H-M   'P -1'
_symmetry_Int_Tables_number      2
_space_group_name_Hall           '-P 1'
loop_
_symmetry_equiv_pos_site_id
_symmetry_equiv_pos_as_xyz
1 x,y,z
2 -x,-y,-z
_cell_length_a                   6.1239(5)
_cell_length_b                   16.8945(12)
_cell_length_c                   17.8873(13)
_cell_angle_alpha                91.4680(9)
_cell_angle_beta                 95.3024(10)
_cell_angle_gamma                90.1840(11)
_cell_volume                     1842.07
_exptl_crystal_colour            colorless
_exptl_crystal_description       plate
_cell_formula_units_Z            4
loop_
_atom_site_label
_atom_site_type_symbol
_atom_site_fract_x
_atom_site_fract_y
_atom_site_fract_z
Si1 Si 0.45412(8) 0.27145(3) 0.88225(3)
O1 O 0.24602(19) 0.21266(7) 0.84709(7)
C1 C 0.3473(3) 0.33128(12) 0.95887(11)
H1 H 0.2250 0.3638 0.9382
H2 H 0.4642 0.3657 0.9826
H3 H 0.2962 0.2960 0.9963
C2 C 0.6960(3) 0.21064(12) 0.91355(12)
H4 H 0.6765 0.1891 0.9629
H5 H 0.8285 0.2437 0.9171
H6 H 0.7106 0.1670 0.8772
C3 C 0.5148(3) 0.33728(11) 0.80298(10)
C4 C 0.6582(4) 0.40782(13) 0.83470(13)
H7 H 0.7914 0.3880 0.8626
H8 H 0.5758 0.4403 0.8684
H9 H 0.6986 0.4400 0.7932
C5 C 0.3015(3) 0.36940(13) 0.76344(12)
H10 H 0.3364 0.4062 0.7247
H11 H 0.2185 0.3972 0.8003
H12 H 0.2133 0.3253 0.7401
C6 C 0.6397(4) 0.29174(13) 0.74528(12)
H13 H 0.5520 0.2461 0.7251
H14 H 0.7797 0.2733 0.7696
H15 H 0.6674 0.3267 0.7042
C7 C 0.2138(3) 0.13549(11) 0.82838(10)
C8 C 0.1417(3) 0.12436(10) 0.74549(9)
H16 H 0.2644 0.1412 0.7171
H17 H 0.0185 0.1610 0.7330
C9 C 0.0686(3) 0.04069(10) 0.71627(9)
C10 C -0.1171(3) 0.01277(10) 0.75969(9)
H18 H -0.2649 0.0135 0.7383
C11 C -0.0665(3) -0.01260(10) 0.82832(10)
H19 H -0.1758 -0.0317 0.8578
C12 C 0.1747(3) -0.00996(10) 0.85810(10)
C13 C 0.2285(3) 0.07696(11) 0.87854(9)
C14 C 0.2615(3) 0.08548(12) 0.96033(10)
O2 O 0.2906(2) 0.14380(8) 1.00069(7)
O3 O 0.2475(2) 0.01264(8) 0.99129(7)
C15 C 0.2260(3) -0.04964(11) 0.93407(10)
H20 H 0.1061 -0.0864 0.9435
H21 H 0.3640 -0.0800 0.9342
C16 C 0.3130(3) -0.03933(10) 0.79719(10)
H22 H 0.4327 -0.0741 0.8081
C17 C 0.2609(3) -0.01481(10) 0.72819(10)
H23 H 0.3414 -0.0314 0.6877
O4 O -0.00068(18) 0.05128(7) 0.63860(6)
C18 C -0.0686(3) -0.01999(11) 0.59818(10)
H24 H 0.0593 -0.0536 0.5926
H25 H -0.1374 -0.0070 0.5484
H26 H -0.1743 -0.0483 0.6258
Si2 Si 0.97126(7) 0.31258(3) 0.27971(3)
O5 O 0.74721(18) 0.31502(7) 0.32699(6)
C19 C 1.1707(3) 0.39010(12) 0.31607(11)
H27 H 1.1119 0.4424 0.3031
H28 H 1.3092 0.3822 0.2936
H29 H 1.1966 0.3868 0.3708
C20 C 1.1013(3) 0.21380(12) 0.29224(11)
H30 H 1.1479 0.2067 0.3455
H31 H 1.2292 0.2104 0.2632
H32 H 0.9954 0.1723 0.2746
C21 C 0.8546(3) 0.32678(11) 0.18021(10)
C22 C 1.0384(4) 0.32424(17) 0.12754(12)
H33 H 1.1095 0.2724 0.1300
H34 H 1.1468 0.3657 0.1430
H35 H 0.9764 0.3330 0.0759
C23 C 0.7390(4) 0.40711(13) 0.17376(12)
H36 H 0.6749 0.4135 0.1220
H37 H 0.8455 0.4497 0.1873
H38 H 0.6226 0.4094 0.2079
C24 C 0.6883(4) 0.26084(14) 0.15646(12)
H39 H 0.5700 0.2623 0.1898
H40 H 0.7616 0.2094 0.1598
H41 H 0.6271 0.2687 0.1046
C25 C 0.7244(2) 0.30319(10) 0.40066(9)
C26 C 0.6657(3) 0.21810(10) 0.41528(9)
H42 H 0.7924 0.1846 0.4051
H43 H 0.5420 0.2019 0.3784
C27 C 0.6013(3) 0.19921(9) 0.49466(9)
C28 C 0.4134(3) 0.25185(10) 0.51355(9)
H44 H 0.2674 0.2321 0.5105
C29 C 0.4587(3) 0.32618(10) 0.53439(9)
H45 H 0.3480 0.3613 0.5486
C30 C 0.6963(3) 0.35303(10) 0.53450(9)
C31 C 0.7367(2) 0.36259(10) 0.45207(9)
C32 C 0.7554(3) 0.44791(11) 0.43844(10)
O6 O 0.7660(2) 0.48270(8) 0.38066(7)
O7 O 0.74917(19) 0.48919(7) 0.50466(7)
C33 C 0.7442(3) 0.43671(10) 0.56742(10)
H46 H 0.6285 0.4532 0.5996
H47 H 0.8871 0.4381 0.5983
C34 C 0.8467(3) 0.28980(10) 0.56906(9)
H48 H 0.9703 0.3034 0.6031
C35 C 0.7994(2) 0.21516(10) 0.55009(9)
H49 H 0.8866 0.1731 0.5705
O8 O 0.54143(18) 0.11690(7) 0.49040(6)
C36 C 0.4634(3) 0.09019(11) 0.55868(10)
H50 H 0.5699 0.1047 0.6012
H51 H 0.4447 0.0325 0.5557
H52 H 0.3223 0.1151 0.5658
loop_
_geom_bond_atom_site_label_1
_geom_bond_atom_site_label_2
_geom_bond_site_symmetry_1
_geom_bond_site_symmetry_2
Si1 O1 1_555 1_555
O1 C7 1_555 1_555
C1 Si1 1_555 1_555
H1 C1 1_555 1_555
H2 C1 1_555 1_555
H3 C1 1_555 1_555
C2 Si1 1_555 1_555
H4 C2 1_555 1_555
H5 C2 1_555 1_555
H6 C2 1_555 1_555
C3 Si1 1_555 1_555
C4 C3 1_555 1_555
H7 C4 1_555 1_555
H8 C4 1_555 1_555
H9 C4 1_555 1_555
C5 C3 1_555 1_555
H10 C5 1_555 1_555
H11 C5 1_555 1_555
H12 C5 1_555 1_555
C6 C3 1_555 1_555
H13 C6 1_555 1_555
H14 C6 1_555 1_555
H15 C6 1_555 1_555
C7 C8 1_555 1_555
C8 H16 1_555 1_555
H17 C8 1_555 1_555
C9 C8 1_555 1_555
C10 C9 1_555 1_555
H18 C10 1_555 1_555
C11 C10 1_555 1_555
H19 C11 1_555 1_555
C12 C11 1_555 1_555
C13 C7 1_555 1_555
C14 C13 1_555 1_555
O2 C14 1_555 1_555
O3 C14 1_555 1_555
C15 C12 1_555 1_555
H20 C15 1_555 1_555
H21 C15 1_555 1_555
C16 C12 1_555 1_555
H22 C16 1_555 1_555
C17 C9 1_555 1_555
H23 C17 1_555 1_555
O4 C9 1_555 1_555
C18 O4 1_555 1_555
H24 C18 1_555 1_555
H25 C18 1_555 1_555
H26 C18 1_555 1_555
Si2 O5 1_555 1_555
O5 C25 1_555 1_555
C19 Si2 1_555 1_555
H27 C19 1_555 1_555
H28 C19 1_555 1_555
H29 C19 1_555 1_555
C20 Si2 1_555 1_555
H30 C20 1_555 1_555
H31 C20 1_555 1_555
H32 C20 1_555 1_555
C21 Si2 1_555 1_555
C22 C21 1_555 1_555
H33 C22 1_555 1_555
H34 C22 1_555 1_555
H35 C22 1_555 1_555
C23 C21 1_555 1_555
H36 C23 1_555 1_555
H37 C23 1_555 1_555
H38 C23 1_555 1_555
C24 C21 1_555 1_555
H39 C24 1_555 1_555
H40 C24 1_555 1_555
H41 C24 1_555 1_555
C25 C26 1_555 1_555
C26 H42 1_555 1_555
H43 C26 1_555 1_555
C27 C26 1_555 1_555
C28 C27 1_555 1_555
H44 C28 1_555 1_555
C29 C28 1_555 1_555
H45 C29 1_555 1_555
C30 C29 1_555 1_555
C31 C25 1_555 1_555
C32 C31 1_555 1_555
O6 C32 1_555 1_555
O7 C32 1_555 1_555
C33 C30 1_555 1_555
H46 C33 1_555 1_555
H47 C33 1_555 1_555
C34 C30 1_555 1_555
H48 C34 1_555 1_555
C35 C27 1_555 1_555
H49 C35 1_555 1_555
O8 C27 1_555 1_555
C36 O8 1_555 1_555
H50 C36 1_555 1_555
H51 C36 1_555 1_555
H52 C36 1_555 1_555
C12 C13 1_555 1_555
O3 C15 1_555 1_555
C16 C17 1_555 1_555
C30 C31 1_555 1_555
O7 C33 1_555 1_555
C34 C35 1_555 1_555

#END
