
#######################################################################
#
#                 Cambridge Crystallographic Data Centre
#                                CCDC 
#
#######################################################################
#
# If this CIF has been generated from an entry in the Cambridge 
# Structural Database, then it will include bibliographic, chemical, 
# crystal, experimental, refinement or atomic coordinate data resulting 
# from the CCDC's data processing and validation procedures.
#
#######################################################################

data_FUFBIS
_chemical_formula_moiety         'C21 H20 N2,0.5(C1 H2 Cl2)'
_chemical_name_systematic        
'5-butyl-2-phenylpyrazolo[5,1-a]isoquinoline dichloromethane solvate'
_symmetry_cell_setting           orthorhombic
_symmetry_space_group_name_H-M   'P c a 21'
_symmetry_Int_Tables_number      29
_space_group_name_Hall           'P 2c -2ac'
loop_
_symmetry_equiv_pos_site_id
_symmetry_equiv_pos_as_xyz
1 x,y,z
2 -x,-y,1/2+z
3 1/2+x,-y,z
4 1/2-x,y,1/2+z
_cell_length_a                   11.8040(2)
_cell_length_b                   13.1961(3)
_cell_length_c                   23.5991(4)
_cell_angle_alpha                90
_cell_angle_beta                 90
_cell_angle_gamma                90
_cell_volume                     3675.96
_exptl_crystal_description       block
_cell_formula_units_Z            8
loop_
_atom_site_label
_atom_site_type_symbol
_atom_site_fract_x
_atom_site_fract_y
_atom_site_fract_z
N1 N 0.4966(2) 0.8498(2) 0.53234(12)
N2 N 0.5199(2) 0.7496(2) 0.52804(13)
C1 C 0.4019(3) 0.8955(3) 0.50537(16)
C2 C 0.3931(3) 0.9968(3) 0.51010(17)
H1 H 0.3323 1.0288 0.4925
C3 C 0.4722(3) 1.0578(3) 0.54068(16)
C4 C 0.4624(4) 1.1638(3) 0.54445(18)
H2 H 0.4024 1.1965 0.5266
C5 C 0.5414(4) 1.2200(3) 0.5746(2)
H3 H 0.5343 1.2901 0.5764
C6 C 0.6309(4) 1.1727(4) 0.6019(2)
H4 H 0.6825 1.2112 0.6225
C7 C 0.6442(3) 1.0700(3) 0.59879(17)
H5 H 0.7047 1.0391 0.6171
C8 C 0.5665(3) 1.0110(3) 0.56794(15)
C9 C 0.5769(3) 0.9037(3) 0.56238(15)
C10 C 0.6556(3) 0.8309(3) 0.57840(16)
H6 H 0.7207 0.8411 0.5998
C11 C 0.6177(3) 0.7403(3) 0.55619(15)
C12 C 0.6746(3) 0.6393(3) 0.55812(16)
C13 C 0.7758(3) 0.6281(3) 0.58789(19)
H7 H 0.8073 0.6829 0.6071
C14 C 0.8303(4) 0.5325(3) 0.5885(2)
H8 H 0.8979 0.5243 0.6082
C15 C 0.7850(5) 0.4546(4) 0.5611(3)
H9 H 0.8210 0.3919 0.5623
C16 C 0.6840(5) 0.4644(4) 0.5302(3)
H10 H 0.6547 0.4099 0.5101
C17 C 0.6297(4) 0.5559(3) 0.5304(2)
H11 H 0.5610 0.5624 0.5114
C18 C 0.3245(3) 0.8262(3) 0.47581(18)
H12 H 0.2895 0.7824 0.5038
H13 H 0.3692 0.7834 0.4510
C19 C 0.2318(3) 0.8743(3) 0.44115(17)
H14 H 0.2659 0.9163 0.4121
H15 H 0.1871 0.9180 0.4655
C20 C 0.1534(4) 0.7972(4) 0.4130(2)
H16 H 0.1982 0.7531 0.3889
H17 H 0.1189 0.7554 0.4421
C21 C 0.0609(4) 0.8451(5) 0.3779(2)
H18 H 0.0922 0.8691 0.3428
H19 H 0.0285 0.9008 0.3984
H20 H 0.0032 0.7957 0.3701
N3 N 0.2363(2) 0.8423(2) 0.75639(12)
N4 N 0.2606(2) 0.7420(2) 0.75637(14)
C22 C 0.1421(3) 0.8820(3) 0.78448(16)
C23 C 0.1302(3) 0.9840(3) 0.78156(17)
H21 H 0.0675 1.0130 0.7991
C24 C 0.2076(3) 1.0497(3) 0.75340(15)
C25 C 0.1942(3) 1.1572(3) 0.75209(17)
H22 H 0.1317 1.1865 0.7696
C26 C 0.2711(4) 1.2175(3) 0.72575(19)
H23 H 0.2607 1.2874 0.7256
C27 C 0.3660(3) 1.1756(3) 0.69875(18)
H24 H 0.4186 1.2173 0.6810
C28 C 0.3806(3) 1.0714(3) 0.69882(16)
H25 H 0.4437 1.0438 0.6810
C29 C 0.3022(3) 1.0063(3) 0.72522(14)
C30 C 0.3155(3) 0.8988(3) 0.72723(14)
C31 C 0.3956(3) 0.8311(3) 0.70772(17)
H26 H 0.4601 0.8455 0.6866
C32 C 0.3582(3) 0.7345(3) 0.72699(16)
C33 C 0.4162(3) 0.6361(3) 0.72286(18)
C34 C 0.5154(3) 0.6255(3) 0.6916(2)
H27 H 0.5438 0.6804 0.6714
C35 C 0.5720(4) 0.5334(3) 0.6904(2)
H28 H 0.6382 0.5273 0.6693
C36 C 0.5324(4) 0.4515(4) 0.7195(2)
H29 H 0.5711 0.3901 0.7189
C37 C 0.4330(5) 0.4620(4) 0.7501(3)
H30 H 0.4053 0.4067 0.7702
C38 C 0.3738(4) 0.5520(4) 0.7516(3)
H31 H 0.3061 0.5566 0.7716
C39 C 0.0652(3) 0.8090(3) 0.81365(18)
H32 H 0.1106 0.7661 0.8381
H33 H 0.0309 0.7657 0.7852
C40 C -0.0277(3) 0.8554(3) 0.84853(17)
H34 H -0.0747 0.8972 0.8242
H35 H 0.0057 0.8990 0.8771
C41 C -0.1020(3) 0.7769(4) 0.87766(18)
H36 H -0.0556 0.7364 0.9029
H37 H -0.1340 0.7320 0.8493
C42 C -0.1979(4) 0.8252(4) 0.9115(2)
H38 H -0.2578 0.8447 0.8862
H39 H -0.1700 0.8840 0.9310
H40 H -0.2263 0.7773 0.9386
C43 C 0.4926(11) 0.5302(8) 0.8973(6)
H41 H 0.4804 0.5564 0.8593
H42 H 0.4225 0.5060 0.9139
Cl1 Cl 0.6072(11) 0.4438(8) 0.9027(7)
Cl2 Cl 0.5680(7) 0.6084(6) 0.9399(4)
C44? C 0.743(3) 0.5819(11) 0.8953(12)
H43? H 0.8215 0.6008 0.8899
H44? H 0.7133 0.6051 0.9314
Cl3? Cl 0.6555(7) 0.6028(6) 0.8377(4)
Cl4? Cl 0.7108(10) 0.4604(7) 0.8783(5)
loop_
_geom_bond_atom_site_label_1
_geom_bond_atom_site_label_2
_geom_bond_site_symmetry_1
_geom_bond_site_symmetry_2
N1 N2 1_555 1_555
N2 C11 1_555 1_555
C1 N1 1_555 1_555
C2 C1 1_555 1_555
H1 C2 1_555 1_555
C3 C2 1_555 1_555
C4 C3 1_555 1_555
H2 C4 1_555 1_555
C5 C4 1_555 1_555
H3 C5 1_555 1_555
C6 C5 1_555 1_555
H4 C6 1_555 1_555
C7 C6 1_555 1_555
H5 C7 1_555 1_555
C8 C3 1_555 1_555
C9 N1 1_555 1_555
C10 C9 1_555 1_555
H6 C10 1_555 1_555
C11 C10 1_555 1_555
C12 C11 1_555 1_555
C13 C12 1_555 1_555
H7 C13 1_555 1_555
C14 C13 1_555 1_555
H8 C14 1_555 1_555
C15 C14 1_555 1_555
H9 C15 1_555 1_555
C16 C15 1_555 1_555
H10 C16 1_555 1_555
C17 C12 1_555 1_555
H11 C17 1_555 1_555
C18 C1 1_555 1_555
H12 C18 1_555 1_555
H13 C18 1_555 1_555
C19 C18 1_555 1_555
H14 C19 1_555 1_555
H15 C19 1_555 1_555
C20 C19 1_555 1_555
H16 C20 1_555 1_555
H17 C20 1_555 1_555
C21 C20 1_555 1_555
H18 C21 1_555 1_555
H19 C21 1_555 1_555
H20 C21 1_555 1_555
N3 N4 1_555 1_555
N4 C32 1_555 1_555
C22 N3 1_555 1_555
C23 C22 1_555 1_555
H21 C23 1_555 1_555
C24 C23 1_555 1_555
C25 C24 1_555 1_555
H22 C25 1_555 1_555
C26 C25 1_555 1_555
H23 C26 1_555 1_555
C27 C26 1_555 1_555
H24 C27 1_555 1_555
C28 C27 1_555 1_555
H25 C28 1_555 1_555
C29 C24 1_555 1_555
C30 N3 1_555 1_555
C31 C30 1_555 1_555
H26 C31 1_555 1_555
C32 C31 1_555 1_555
C33 C32 1_555 1_555
C34 C33 1_555 1_555
H27 C34 1_555 1_555
C35 C34 1_555 1_555
H28 C35 1_555 1_555
C36 C35 1_555 1_555
H29 C36 1_555 1_555
C37 C36 1_555 1_555
H30 C37 1_555 1_555
C38 C33 1_555 1_555
H31 C38 1_555 1_555
C39 C22 1_555 1_555
H32 C39 1_555 1_555
H33 C39 1_555 1_555
C40 C39 1_555 1_555
H34 C40 1_555 1_555
H35 C40 1_555 1_555
C41 C40 1_555 1_555
H36 C41 1_555 1_555
H37 C41 1_555 1_555
C42 C41 1_555 1_555
H38 C42 1_555 1_555
H39 C42 1_555 1_555
H40 C42 1_555 1_555
C43 H41 1_555 1_555
H42 C43 1_555 1_555
Cl1 C43 1_555 1_555
Cl2 C43 1_555 1_555
C7 C8 1_555 1_555
C8 C9 1_555 1_555
C16 C17 1_555 1_555
C28 C29 1_555 1_555
C29 C30 1_555 1_555
C37 C38 1_555 1_555

#END
