
#######################################################################
#
#                 Cambridge Crystallographic Data Centre
#                                CCDC 
#
#######################################################################
#
# If this CIF has been generated from an entry in the Cambridge 
# Structural Database, then it will include bibliographic, chemical, 
# crystal, experimental, refinement or atomic coordinate data resulting 
# from the CCDC's data processing and validation procedures.
#
#######################################################################

data_FUFDAM
_chemical_compound_source        'Coleus forskohlii (WILLD.) BRIQ. (Labiatae)'
_chemical_name_common            
'7-(2-Hydroxy-2-propanyl)-1,4a-dimethyldecahydro-1,7-naphthalenediol sesquihydrate'
_chemical_formula_moiety         'C15 H28 O3,1.5(H2 O1)'
_chemical_name_systematic        '4\b,7\b,11-Enantioeudesmantriol sesquihydrate'
_symmetry_cell_setting           monoclinic
_symmetry_space_group_name_H-M   'P 21'
_symmetry_Int_Tables_number      4
_space_group_name_Hall           'P 2yb'
loop_
_symmetry_equiv_pos_site_id
_symmetry_equiv_pos_as_xyz
1 x,y,z
2 -x,1/2+y,-z
_cell_length_a                   12.641(7)
_cell_length_b                   7.443(4)
_cell_length_c                   17.612(10)
_cell_angle_alpha                90
_cell_angle_beta                 95.633(10)
_cell_angle_gamma                90
_cell_volume                     1649.06
_exptl_crystal_colour            colorless
_exptl_crystal_description       needle
_chemical_melting_point          '61-62 deg.C'
_cell_formula_units_Z            4
loop_
_atom_site_label
_atom_site_type_symbol
_atom_site_fract_x
_atom_site_fract_y
_atom_site_fract_z
O1 O 0.4065(4) 0.7722(9) 0.1710(3)
O2 O 0.5607(4) 0.8579(8) 0.3928(3)
O3 O 0.5519(4) 0.4841(8) 0.4131(3)
C1 C 0.5123(7) 0.8248(14) 0.1527(5)
C2 C 0.5006(8) 0.9969(18) 0.1078(6)
C3 C 0.6058(8) 1.0889(18) 0.0973(6)
C4 C 0.6691(8) 1.1191(15) 0.1732(6)
C5 C 0.6884(6) 0.9536(13) 0.2230(5)
C6 C 0.7271(7) 1.0043(13) 0.3035(5)
C7 C 0.7390(6) 0.8522(14) 0.3586(5)
C8 C 0.6369(6) 0.7412(11) 0.3616(5)
C9 C 0.5918(6) 0.6956(12) 0.2813(4)
C10 C 0.5807(6) 0.8582(13) 0.2293(5)
C11 C 0.5455(8) 0.6680(17) 0.1049(6)
C12 C 0.7718(7) 0.8370(17) 0.1888(6)
C13 C 0.6533(6) 0.5780(12) 0.4141(5)
C14 C 0.7302(7) 0.4447(14) 0.3856(6)
C15 C 0.6878(7) 0.6319(15) 0.4966(5)
O4 O 0.3332(4) 0.4258(10) 0.1627(3)
O5 O 0.1784(5) 0.3740(9) 0.3679(4)
O6 O 0.2335(4) 0.7286(9) 0.3986(3)
C16 C 0.2227(7) 0.4106(17) 0.1314(5)
C17 C 0.2190(8) 0.2374(18) 0.0871(6)
C18 C 0.1032(8) 0.1740(20) 0.0652(7)
C19 C 0.0421(8) 0.1607(19) 0.1339(6)
C20 C 0.0407(7) 0.3304(13) 0.1805(5)
C21 C 0(7) 0.2865(16) 0.2575(6)
C22 C 0.0057(6) 0.4411(15) 0.3126(5)
C23 C 0.1181(6) 0.5151(13) 0.3276(5)
C24 C 0.1638(6) 0.5528(12) 0.2536(5)
C25 C 0.1565(6) 0.3936(13) 0.2007(5)
C26 C 0.1986(8) 0.5735(19) 0.0810(6)
C27 C -0.0327(7) 0.4709(19) 0.1383(6)
C28 C 0.1237(6) 0.6773(15) 0.3827(5)
C29 C 0.0697(8) 0.8462(16) 0.3480(7)
C30 C 0.0838(8) 0.6340(20) 0.4585(6)
O7 O 0.4040(4) 0.6337(9) 0.5042(3)
O8 O 0.3632(4) 0.9255(10) 0.3134(4)
O9 O 0.3903(5) 0.3020(10) 0.3134(4)
loop_
_geom_bond_atom_site_label_1
_geom_bond_atom_site_label_2
_geom_bond_site_symmetry_1
_geom_bond_site_symmetry_2
O1 C1 1_555 1_555
O2 C8 1_555 1_555
O3 C13 1_555 1_555
O4 C16 1_555 1_555
O5 C23 1_555 1_555
O6 C28 1_555 1_555
C1 C2 1_555 1_555
C2 C3 1_555 1_555
C3 C4 1_555 1_555
C4 C5 1_555 1_555
C5 C6 1_555 1_555
C6 C7 1_555 1_555
C7 C8 1_555 1_555
C8 C9 1_555 1_555
C9 C10 1_555 1_555
C10 C1 1_555 1_555
C11 C1 1_555 1_555
C12 C5 1_555 1_555
C13 C8 1_555 1_555
C14 C13 1_555 1_555
C15 C13 1_555 1_555
C16 C17 1_555 1_555
C17 C18 1_555 1_555
C18 C19 1_555 1_555
C19 C20 1_555 1_555
C20 C21 1_555 1_555
C21 C22 1_555 1_555
C22 C23 1_555 1_555
C23 C24 1_555 1_555
C24 C25 1_555 1_555
C25 C16 1_555 1_555
C26 C16 1_555 1_555
C27 C20 1_555 1_555
C28 C23 1_555 1_555
C29 C28 1_555 1_555
C30 C28 1_555 1_555
C5 C10 1_555 1_555
C20 C25 1_555 1_555

#END
