
#######################################################################
#
#                 Cambridge Crystallographic Data Centre
#                                CCDC 
#
#######################################################################
#
# If this CIF has been generated from an entry in the Cambridge 
# Structural Database, then it will include bibliographic, chemical, 
# crystal, experimental, refinement or atomic coordinate data resulting 
# from the CCDC's data processing and validation procedures.
#
#######################################################################

data_FUFFOC
_chemical_compound_source        'roots of Uvaria calamistrata (Annonaceae)'
_chemical_name_common            
'(2S*,4S*,6R*)-3,3,6-Trimethyl-4-(3-oxobutyl)-2,4-dicarboxylic anhydride'
_chemical_formula_moiety         'C15 H22 O4'
_chemical_name_systematic        'Uvariadicarboxylic anhydride'
_symmetry_cell_setting           monoclinic
_symmetry_space_group_name_H-M   'P 21'
_symmetry_Int_Tables_number      4
_space_group_name_Hall           'P 2yb'
loop_
_symmetry_equiv_pos_site_id
_symmetry_equiv_pos_as_xyz
1 x,y,z
2 -x,1/2+y,-z
_cell_length_a                   6.517(1)
_cell_length_b                   8.138(2)
_cell_length_c                   14.237(3)
_cell_angle_alpha                90
_cell_angle_beta                 77.84(1)
_cell_angle_gamma                90
_cell_volume                     738.123
_cell_formula_units_Z            2
loop_
_atom_site_label
_atom_site_type_symbol
_atom_site_fract_x
_atom_site_fract_y
_atom_site_fract_z
O1 O 0.8808(5) 0.0349 0.4935(3)
O2 O 0.9840(5) -0.0519(5) 0.3446(2)
O3 O 1.0558(6) -0.1208(7) 0.1925(3)
O4 O 1.6345(7) -0.0534(7) -0.0419(3)
C1 C 1.0166(8) 0.0348(8) 0.4221(4)
C2 C 1.2263(8) 0.1211(8) 0.4145(4)
C3 C 1.3121(7) 0.1756(7) 0.3097(3)
C4 C 1.3404(7) 0.0221(7) 0.2448(3)
C5 C 1.1199(7) -0.0557(8) 0.2552(4)
C6 C 1.4849(7) -0.1103(7) 0.2791(4)
C7 C 1.4152(9) -0.1523(8) 0.3856(4)
C8 C 1.3719(8) -0.0021(10) 0.4508(4)
C9 C 1.4108(7) 0.0589(7) 0.1356(3)
C10 C 1.6437(8) 0.1032(9) 0.0980(4)
C11 C 1.7351(9) 0.0304(8) 0.0020(4)
C12 C 1.9642(9) 0.0699(10) -0.0392(4)
C13 C 1.1542(9) 0.2994(8) 0.2814(4)
C14 C 1.5195(9) 0.2710(8) 0.3069(4)
C15 C 1.5138(10) -0.2646(8) 0.2171(6)
H1 H 1.205 0.227 0.461
H2 H 1.642 -0.053 0.272
H3 H 1.532 -0.232 0.408
H4 H 1.270 -0.228 0.394
H5 H 1.296 -0.044 0.523
H6 H 1.519 0.054 0.453
H7 H 1.379 -0.054 0.096
H8 H 1.313 0.155 0.116
H9 H 1.729 0.059 0.153
H10 H 1.656 0.236 0.096
H11 H 2.048 0.104 0.017
H12 H 1.982 0.170 -0.091
H13 H 2.035 -0.042 -0.074
H14 H 1.136 0.405 0.329
H15 H 1.004 0.243 0.285
H16 H 1.224 0.336 0.209
H17 H 1.649 0.187 0.312
H18 H 1.597 0.362 0.361
H19 H 1.555 0.328 0.236
H20 H 1.621 -0.350 0.241
H21 H 1.577 -0.235 0.142
H22 H 1.359 -0.319 0.226
loop_
_geom_bond_atom_site_label_1
_geom_bond_atom_site_label_2
_geom_bond_site_symmetry_1
_geom_bond_site_symmetry_2
O1 C1 1_555 1_555
O2 C1 1_555 1_555
O3 C5 1_555 1_555
O4 C11 1_555 1_555
C1 C2 1_555 1_555
C2 C3 1_555 1_555
C3 C4 1_555 1_555
C4 C5 1_555 1_555
C5 O2 1_555 1_555
C6 C4 1_555 1_555
C7 C6 1_555 1_555
C8 C2 1_555 1_555
C9 C4 1_555 1_555
C10 C9 1_555 1_555
C11 C10 1_555 1_555
C12 C11 1_555 1_555
C13 C3 1_555 1_555
C14 C3 1_555 1_555
C15 C6 1_555 1_555
H1 C2 1_555 1_555
H2 C6 1_555 1_555
H3 C7 1_555 1_555
H4 C7 1_555 1_555
H5 C8 1_555 1_555
H6 C8 1_555 1_555
H7 C9 1_555 1_555
H8 C9 1_555 1_555
H9 C10 1_555 1_555
H10 C10 1_555 1_555
H11 C12 1_555 1_555
H12 C12 1_555 1_555
H13 C12 1_555 1_555
H14 C13 1_555 1_555
H15 C13 1_555 1_555
H16 C13 1_555 1_555
H17 C14 1_555 1_555
H18 C14 1_555 1_555
H19 C14 1_555 1_555
H20 C15 1_555 1_555
H21 C15 1_555 1_555
H22 C15 1_555 1_555
C7 C8 1_555 1_555

#END
