
#######################################################################
#
#                 Cambridge Crystallographic Data Centre
#                                CCDC 
#
#######################################################################
#
# If this CIF has been generated from an entry in the Cambridge 
# Structural Database, then it will include bibliographic, chemical, 
# crystal, experimental, refinement or atomic coordinate data resulting 
# from the CCDC's data processing and validation procedures.
#
#######################################################################

data_FUFNAX
_chemical_formula_moiety         'C10 H11 N7'
_chemical_name_systematic        
1,1'-(1H-Pyrrole-2,5-diylbis(methylene))bis(1H-1,2,4-triazole)
_symmetry_cell_setting           monoclinic
_symmetry_space_group_name_H-M   'P 21/c'
_symmetry_Int_Tables_number      14
_space_group_name_Hall           '-P 2ybc'
loop_
_symmetry_equiv_pos_site_id
_symmetry_equiv_pos_as_xyz
1 x,y,z
2 -x,1/2+y,1/2-z
3 -x,-y,-z
4 x,1/2-y,1/2+z
_cell_length_a                   9.7208(4)
_cell_length_b                   10.5147(4)
_cell_length_c                   10.3896(5)
_cell_angle_alpha                90
_cell_angle_beta                 91.996(3)
_cell_angle_gamma                90
_cell_volume                     1061.29
_exptl_crystal_colour            colorless
_exptl_crystal_description       needle
_cell_formula_units_Z            4
loop_
_atom_site_label
_atom_site_type_symbol
_atom_site_fract_x
_atom_site_fract_y
_atom_site_fract_z
N1 N 0.76166(17) 0.76390(15) 0.60220(15)
N2 N 0.76946(18) 0.81253(16) 0.48076(16)
N3 N 0.65742(17) 0.22222(15) 0.29969(15)
N4 N 0.48840(17) 0.10743(16) 0.21633(16)
N5 N 0.71602(17) 0.48017(15) 0.45669(15)
H1 H 0.6510 0.5091 0.4067
N6 N 0.61539(19) 0.14664(16) 0.39855(17)
N7 N 0.88412(18) 0.93745(16) 0.62612(16)
C1 C 0.7961(2) 0.37573(18) 0.43229(19)
C2 C 0.8638(2) 0.45953(18) 0.62286(19)
H2 H 0.9118 0.4733 0.7006
C3 C 0.8294(2) 0.83883(19) 0.6854(2)
H3 H 0.8374 0.8241 0.7736
C4 C 0.5817(2) 0.1965(2) 0.1933(2)
H4 H 0.5925 0.2355 0.1140
C5 C 0.7565(2) 0.53090(18) 0.57357(18)
C6 C 0.6880(2) 0.64561(18) 0.6271(2)
H5 H 0.5954 0.6518 0.5896
H6 H 0.6807 0.6351 0.7193
C7 C 0.7827(2) 0.3008(2) 0.3112(2)
H7 H 0.7835 0.3589 0.2388
H8 H 0.8623 0.2457 0.3057
C8 C 0.8882(2) 0.36129(19) 0.53394(19)
H9 H 0.9548 0.2981 0.5428
C9 C 0.5143(2) 0.0805(2) 0.3424(2)
H10 H 0.4646 0.0198 0.3864
C10 C 0.8435(2) 0.9164(2) 0.5015(2)
H11 H 0.8663 0.9713 0.4353
loop_
_geom_bond_atom_site_label_1
_geom_bond_atom_site_label_2
_geom_bond_site_symmetry_1
_geom_bond_site_symmetry_2
N1 N2 1_555 1_555
N2 C10 1_555 1_555
N3 N6 1_555 1_555
N4 C4 1_555 1_555
N5 H1 1_555 1_555
N6 C9 1_555 1_555
N7 C3 1_555 1_555
C1 N5 1_555 1_555
C2 H2 1_555 1_555
C3 N1 1_555 1_555
H3 C3 1_555 1_555
C4 N3 1_555 1_555
H4 C4 1_555 1_555
C5 N5 1_555 1_555
C6 N1 1_555 1_555
H5 C6 1_555 1_555
H6 C6 1_555 1_555
C7 N3 1_555 1_555
H7 C7 1_555 1_555
H8 C7 1_555 1_555
C8 C1 1_555 1_555
H9 C8 1_555 1_555
C9 N4 1_555 1_555
H10 C9 1_555 1_555
C10 N7 1_555 1_555
H11 C10 1_555 1_555
C1 C7 1_555 1_555
C2 C5 1_555 1_555
C2 C8 1_555 1_555
C5 C6 1_555 1_555

#END
