
#######################################################################
#
#                 Cambridge Crystallographic Data Centre
#                                CCDC 
#
#######################################################################
#
# If this CIF has been generated from an entry in the Cambridge 
# Structural Database, then it will include bibliographic, chemical, 
# crystal, experimental, refinement or atomic coordinate data resulting 
# from the CCDC's data processing and validation procedures.
#
#######################################################################

data_FUFTIJ02
_chemical_name_common            'Rhodamine B'
_chemical_formula_moiety         'C28 H30 N2 O3'
_chemical_name_systematic        
3',6'-bis(Diethylamino)-spiro(isobenzofuran-1(3H),9'-(9H)xanthene)-3-one
_symmetry_cell_setting           monoclinic
_symmetry_space_group_name_H-M   'P 21/n'
_symmetry_Int_Tables_number      14
_space_group_name_Hall           '-P 2yn'
loop_
_symmetry_equiv_pos_site_id
_symmetry_equiv_pos_as_xyz
1 x,y,z
2 1/2-x,1/2+y,1/2-z
3 -x,-y,-z
4 1/2+x,1/2-y,1/2+z
_cell_length_a                   16.559(3)
_cell_length_b                   15.657(3)
_cell_length_c                   19.381(2)
_cell_angle_alpha                90
_cell_angle_beta                 100.10(1)
_cell_angle_gamma                90
_cell_volume                     4946.93
_exptl_crystal_colour            'slightly red'
_exptl_crystal_description       prismatic
_cell_formula_units_Z            8
loop_
_atom_site_label
_atom_site_type_symbol
_atom_site_fract_x
_atom_site_fract_y
_atom_site_fract_z
O1 O 0.7490(2) 0.6385(2) 0.1321(2)
O2 O 0.8881(2) 0.5899(2) 0.3086(2)
N1 N 0.8225(3) 0.9298(2) 0.1351(2)
C1 C 0.8074(3) 0.6984(3) 0.1589(3)
C2 C 0.8421(3) 0.8483(3) 0.1574(3)
C3 C 0.9321(3) 0.7453(3) 0.2246(2)
C4 C 0.8942(3) 0.5884(3) 0.2313(2)
C5 C 0.7632(3) 0.5531(3) 0.1500(2)
C6 C 0.7093(3) 0.4105(3) 0.1320(2)
C7 C 0.8361(3) 0.4398(3) 0.2108(2)
C8 C 1.0182(3) 0.5462(3) 0.3032(3)
C9 C 1.1414(3) 0.5039(4) 0.2682(4)
C10 C 1.0245(3) 0.5426(3) 0.1813(3)
C11 C 0.8801(3) 1.0005(3) 0.1503(3)
C12 C 0.7405(4) 0.9508(3) 0.0987(4)
C13 C 0.5791(3) 0.3809(3) 0.0526(3)
C14 C 0.6573(3) 0.2632(3) 0.1178(3)
O4 O 0.9660(2) 0.5611(2) 0.4119(2)
N3 N 0.6513(2) 0.3542(2) 0.0999(2)
C29 C 0.7884(3) 0.7809(3) 0.1356(3)
C30 C 0.9161(3) 0.8280(3) 0.2025(3)
C31 C 0.8785(3) 0.6777(3) 0.2034(2)
C32 C 0.8314(3) 0.5276(3) 0.1963(2)
C33 C 0.7025(3) 0.4985(3) 0.1174(2)
C34 C 0.7777(3) 0.3830(3) 0.1805(3)
C35 C 0.9588(3) 0.5651(3) 0.3488(3)
C36 C 1.0992(4) 0.5184(3) 0.3216(3)
C37 C 1.1057(4) 0.5158(4) 0.1987(4)
C38 C 0.9813(3) 0.5588(3) 0.2353(2)
C39 C 0.8707(4) 1.0463(4) 0.2169(3)
C40 C 0.7300(5) 0.9465(5) 0.0215(4)
C41 C 0.5095(4) 0.4031(4) 0.0893(3)
C42 C 0.7166(4) 0.2158(3) 0.0804(3)
O3 O 0.7173(2) 0.1337(2) -0.1060(2)
N2 N 0.7275(3) 0.6401(3) -0.1275(3)
C15 C 0.6347(3) 0.4534(3) -0.2258(3)
C16 C 0.6965(3) 0.5600(3) -0.1432(3)
C17 C 0.6660(3) 0.4182(3) -0.1065(2)
C18 C 0.6021(3) 0.3041(3) -0.1907(2)
C19 C 0.5695(3) 0.3582(3) -0.3142(2)
C20 C 0.4952(3) 0.2766(4) -0.4098(3)
C21 C 0.5222(3) 0.2210(3) -0.2920(3)
C22 C 0.5850(3) 0.2011(3) -0.1054(2)
C23 C 0.4729(4) 0.1861(4) -0.0462(3)
C24 C 0.4738(3) 0.3006(3) -0.1296(3)
C25 C 0.7532(5) 0.6692(4) -0.0542(4)
C26 C 0.7416(4) 0.6986(4) -0.1828(4)
C27 C 0.4853(6) 0.3285(6) -0.5337(4)
C28 C 0.4140(1) 0.1928(8) -0.5043(6)
O5 O 0.6061(2) 0.4364(2) -0.2962(2)
O6 O 0.6751(2) 0.2444(2) -0.1756(2)
N4 N 0.4626(4) 0.2669(4) -0.4800(3)
C43 C 0.6643(3) 0.5354(3) -0.2124(3)
C44 C 0.6966(3) 0.4987(3) -0.0907(3)
C45 C 0.6335(3) 0.3928(3) -0.1743(2)
C46 C 0.5641(3) 0.2950(3) -0.2660(2)
C47 C 0.5376(3) 0.3502(3) -0.3845(3)
C48 C 0.4891(3) 0.2125(3) -0.3617(3)
C49 C 0.6648(3) 0.1858(3) -0.1258(3)
C50 C 0.5477(4) 0.1567(3) -0.0574(3)
C51 C 0.4368(3) 0.2573(4) -0.0817(3)
C52 C 0.5494(3) 0.2705(3) -0.1409(2)
C53 C 0.8393(5) 0.6480(6) -0.0251(4)
C54 C 0.6727(5) 0.7557(5) -0.2079(5)
C55 C 0.4300(6) 0.3971(8) -0.5463(5)
C56 C 0.399(2) 0.145(1) -0.5277(9)
loop_
_geom_bond_atom_site_label_1
_geom_bond_atom_site_label_2
_geom_bond_site_symmetry_1
_geom_bond_site_symmetry_2
O1 C1 1_555 1_555
O2 C4 1_555 1_555
O3 C49 1_555 1_555
N1 C2 1_555 1_555
N2 C16 1_555 1_555
C1 C29 1_555 1_555
C2 C29 1_555 1_555
C3 C30 1_555 1_555
C4 C31 1_555 1_555
C5 O1 1_555 1_555
C6 N3 1_555 1_555
C7 C32 1_555 1_555
C8 C35 1_555 1_555
C9 C36 1_555 1_555
C10 C37 1_555 1_555
C11 N1 1_555 1_555
C12 N1 1_555 1_555
C13 N3 1_555 1_555
C14 N3 1_555 1_555
C15 O5 1_555 1_555
C16 C43 1_555 1_555
C17 C44 1_555 1_555
C18 O6 1_555 1_555
C19 O5 1_555 1_555
C20 N4 1_555 1_555
C21 C46 1_555 1_555
C22 C49 1_555 1_555
C23 C50 1_555 1_555
C24 C51 1_555 1_555
C25 N2 1_555 1_555
C26 N2 1_555 1_555
C27 N4 1_555 1_555
C28 N4 1_555 1_555
O4 C35 1_555 1_555
O6 C49 1_555 1_555
C30 C2 1_555 1_555
C31 C1 1_555 1_555
C32 C4 1_555 1_555
C33 C5 1_555 1_555
C34 C6 1_555 1_555
C35 O2 1_555 1_555
C36 C8 1_555 1_555
C37 C9 1_555 1_555
C38 C4 1_555 1_555
C39 C11 1_555 1_555
C40 C12 1_555 1_555
C41 C13 1_555 1_555
C42 C14 1_555 1_555
C43 C15 1_555 1_555
C44 C16 1_555 1_555
C45 C15 1_555 1_555
C46 C18 1_555 1_555
C47 C19 1_555 1_555
C48 C20 1_555 1_555
C50 C22 1_555 1_555
C51 C23 1_555 1_555
C52 C18 1_555 1_555
C53 C25 1_555 1_555
C54 C26 1_555 1_555
C55 C27 1_555 1_555
C56 C28 1_555 1_555
C3 C31 1_555 1_555
C5 C32 1_555 1_555
C6 C33 1_555 1_555
C7 C34 1_555 1_555
C8 C38 1_555 1_555
C10 C38 1_555 1_555
C17 C45 1_555 1_555
C18 C45 1_555 1_555
C19 C46 1_555 1_555
C20 C47 1_555 1_555
C21 C48 1_555 1_555
C22 C52 1_555 1_555
C24 C52 1_555 1_555

#END
