
#######################################################################
#
#                 Cambridge Crystallographic Data Centre
#                                CCDC 
#
#######################################################################
#
# If this CIF has been generated from an entry in the Cambridge 
# Structural Database, then it will include bibliographic, chemical, 
# crystal, experimental, refinement or atomic coordinate data resulting 
# from the CCDC's data processing and validation procedures.
#
#######################################################################

data_FUFTIJ
_chemical_name_common            
3,6-bis(Diethylamino)-1',3'-dihydrospiro(xanthene-9,3'-isobenzofuran)-1'-one
_chemical_formula_moiety         'C28 H30 N2 O3'
_chemical_name_systematic        'Rhodamine B'
_symmetry_cell_setting           monoclinic
_symmetry_space_group_name_H-M   'P 21/n'
_symmetry_Int_Tables_number      14
_space_group_name_Hall           '-P 2yn'
loop_
_symmetry_equiv_pos_site_id
_symmetry_equiv_pos_as_xyz
1 x,y,z
2 1/2-x,1/2+y,1/2-z
3 -x,-y,-z
4 1/2+x,1/2-y,1/2+z
_cell_length_a                   16.224(2)
_cell_length_b                   15.523(3)
_cell_length_c                   19.061(4)
_cell_angle_alpha                90
_cell_angle_beta                 99.250(10)
_cell_angle_gamma                90
_cell_volume                     4738
_exptl_crystal_colour            purple
_exptl_crystal_description       'triangular prism'
_chemical_melting_point          '452 K'
_cell_formula_units_Z            8
loop_
_atom_site_label
_atom_site_type_symbol
_atom_site_fract_x
_atom_site_fract_y
_atom_site_fract_z
O1 O 0.24787(5) 0.13678(4) 0.13187(4)
O2 O 0.46129(7) 0.05707(6) 0.41473(4)
O3 O 0.38504(5) 0.08720(5) 0.30950(4)
N1 N 0.32385(6) 0.42888(6) 0.13573(5)
N2 N 0.14961(6) -0.14903(6) 0.09847(5)
C1 C 0.30696(6) 0.19609(6) 0.15865(5)
C2 C 0.28891(7) 0.27924(6) 0.13567(6)
C3 C 0.34369(7) 0.34694(6) 0.15749(5)
C4 C 0.41890(7) 0.32559(7) 0.20212(6)
C5 C 0.43496(7) 0.24203(7) 0.22370(6)
C6 C 0.37946(6) 0.17437(6) 0.20346(5)
C7 C 0.39400(6) 0.08544(6) 0.23255(5)
C8 C 0.33074(6) 0.02427(6) 0.19601(5)
C9 C 0.26227(6) 0.05189(6) 0.14926(5)
C10 C 0.20138(6) -0.00384(6) 0.11672(5)
C11 C 0.20728(6) -0.09206(6) 0.13104(5)
C12 C 0.27617(7) -0.12047(7) 0.18007(6)
C13 C 0.33547(7) -0.06343(7) 0.21086(6)
C14 C 0.45600(7) 0.06168(6) 0.35112(5)
C15 C 0.51810(7) 0.04180(7) 0.30617(5)
C16 C 0.59976(7) 0.01376(7) 0.32504(7)
C17 C 0.64385(8) -0.00191(8) 0.27071(8)
C18 C 0.60817(8) 0.00890(9) 0.20040(7)
C19 C 0.52642(8) 0.03643(9) 0.18203(6)
C20 C 0.48218(6) 0.05432(7) 0.23686(5)
C21 C 0.38153(8) 0.50028(7) 0.15087(6)
C22 C 0.37433(11) 0.54657(10) 0.21911(7)
C23 C 0.23949(8) 0.45132(7) 0.10304(7)
C24 C 0.22513(13) 0.44860(11) 0.02325(8)
C25 C 0.07558(7) -0.12092(7) 0.05214(6)
C26 C 0.00406(9) -0.09828(11) 0.09028(9)
C27 C 0.15402(8) -0.24003(7) 0.11703(7)
C28 C 0.21528(9) -0.28998(8) 0.08163(8)
H1 H 0.2375(11) 0.2895(10) 0.1042(9)
H2 H 0.4582(10) 0.3697(10) 0.2195(8)
H3 H 0.4896(11) 0.2310(11) 0.2554(9)
H4 H 0.1533(10) 0.0217(10) 0.0859(8)
H5 H 0.2824(10) -0.1798(11) 0.1934(8)
H6 H 0.3840(11) -0.0835(11) 0.2428(8)
H7 H 0.6232(9) 0.0074(9) 0.3710(8)
H8 H 0.7013(12) -0.0216(13) 0.2802(10)
H9 H 0.6389(10) -0.0037(11) 0.1616(8)
H10 H 0.4960(10) 0.0490(10) 0.1337(8)
H11 H 0.3704(9) 0.5404(10) 0.1106(8)
H12 H 0.4370(11) 0.4803(11) 0.1506(8)
H13 H 0.4117(12) 0.5948(12) 0.2239(9)
H14 H 0.3958(14) 0.5075(15) 0.2604(12)
H15 H 0.3173(14) 0.5661(13) 0.2214(10)
H16 H 0.1964(10) 0.4151(11) 0.1188(8)
H17 H 0.2281(12) 0.5098(12) 0.1145(9)
H18 H 0.1663(16) 0.4672(15) 0.0029(12)
H19 H 0.2656(13) 0.4836(14) 0.0022(10)
H20 H 0.2433(13) 0.3922(14) 0.0061(10)
H21 H 0.0599(9) -0.1678(10) 0.0180(7)
H22 H 0.0903(9) -0.0713(10) 0.0238(7)
H23 H -0.0129(12) -0.1477(13) 0.1168(10)
H24 H 0.0178(13) -0.0523(14) 0.1253(11)
H25 H -0.0481(13) -0.0817(13) 0.0544(10)
H26 H 0.1665(9) -0.2446(9) 0.1687(8)
H27 H 0.0961(9) -0.2621(9) 0.1030(7)
H28 H 0.2706(13) -0.2744(12) 0.0971(10)
H29 H 0.2061(14) -0.3498(15) 0.0856(11)
H30 H 0.2076(11) -0.2806(11) 0.0291(9)
O4 O 0.89152(5) 0.05992(5) 0.29472(4)
O5 O 0.78133(5) 0.36553(5) 0.10435(5)
O6 O 0.82376(5) 0.25385(5) 0.17473(4)
N3 N 0.76898(7) -0.14295(6) 0.12409(6)
N4 N 1.03973(10) 0.22853(9) 0.47905(6)
C29 C 0.86332(6) 0.04375(6) 0.22430(5)
C30 C 0.83306(7) -0.03861(7) 0.20953(6)
C31 C 0.80044(7) -0.06252(7) 0.13991(6)
C32 C 0.80010(7) 0.00018(7) 0.08647(6)
C33 C 0.83197(7) 0.08054(7) 0.10296(5)
C34 C 0.86465(6) 0.10515(6) 0.17194(5)
C35 C 0.89650(6) 0.19366(6) 0.18848(5)
C36 C 0.93545(7) 0.20189(6) 0.26435(5)
C37 C 0.92877(6) 0.13740(6) 0.31320(5)
C38 C 0.96119(7) 0.14573(7) 0.38442(5)
C39 C 1.00578(8) 0.21939(8) 0.40920(6)
C40 C 1.01439(9) 0.28465(8) 0.35967(7)
C41 C 0.97914(8) 0.27535(7) 0.28990(6)
C42 C 0.83392(7) 0.31272(6) 0.12488(6)
C43 C 0.91513(6) 0.29820(6) 0.10251(5)
C44 C 0.95368(7) 0.34332(7) 0.05423(6)
C45 C 1.02987(7) 0.31357(8) 0.04174(6)
C46 C 1.06614(7) 0.24064(8) 0.07651(6)
C47 C 1.02761(6) 0.19700(7) 0.12564(5)
C48 C 0.95137(6) 0.22714(6) 0.13806(5)
C49 C 0.74282(9) -0.17049(9) 0.05106(7)
C50 C 0.65406(11) -0.14708(13) 0.02145(9)
C51 C 0.75229(9) -0.20179(8) 0.17935(8)
C52 C 0.82486(14) -0.25968(12) 0.20684(15)
C53 C 1.01690(11) 0.17007(12) 0.53301(7)
C54 C 1.07329(11) 0.09322(13) 0.54627(9)
C55 C 1.10806(15) 0.29050(16) 0.50105(11)
C56 C 1.0741(2) 0.3730(2) 0.52510(18)
H31 H 0.8372(11) -0.0748(11) 0.2483(9)
H32 H 0.7774(10) -0.0114(10) 0.0362(8)
H33 H 0.8310(9) 0.1217(10) 0.0633(8)
H34 H 0.9559(10) 0.0981(10) 0.4148(8)
H35 H 1.0451(12) 0.3370(12) 0.3732(9)
H36 H 0.9822(12) 0.3205(12) 0.2582(9)
H37 H 0.9287(11) 0.3920(11) 0.0304(9)
H38 H 1.0594(10) 0.3439(11) 0.0086(8)
H39 H 1.1168(10) 0.2197(10) 0.0643(8)
H40 H 1.0521(9) 0.1460(9) 0.1513(7)
H41 H 0.7809(10) -0.1476(10) 0.0211(8)
H42 H 0.7456(12) -0.2322(13) 0.0511(10)
H43 H 0.6406(14) -0.1707(16) -0.0255(12)
H44 H 0.6466(14) -0.0844(15) 0.0165(11)
H45 H 0.6171(13) -0.1674(13) 0.0525(10)
H46 H 0.7340(10) -0.1701(11) 0.2200(8)
H47 H 0.7033(11) -0.2367(11) 0.1602(8)
H48 H 0.877(2) -0.222(2) 0.2272(15)
H49 H 0.8413(15) -0.2895(15) 0.1705(12)
H50 H 0.8099(18) -0.3034(19) 0.2434(15)
H51 H 1.0210(15) 0.1948(16) 0.5771(13)
H52 H 0.9587(12) 0.1527(11) 0.5224(9)
H53 H 1.0658(13) 0.0523(13) 0.5020(10)
H54 H 1.1320(18) 0.1158(17) 0.5609(14)
H55 H 1.0600(17) 0.0624(18) 0.5882(14)
H56 H 1.1402(14) 0.3082(15) 0.4639(12)
C57? C 1.0548(5) 0.3166(4) 0.5125(3)
C58? C 1.1428(6) 0.3232(13) 0.5181(8)
H57? H 1.1430(12) 0.2984(11) 0.5675(10)
loop_
_geom_bond_atom_site_label_1
_geom_bond_atom_site_label_2
_geom_bond_site_symmetry_1
_geom_bond_site_symmetry_2
O1 C1 1_555 1_555
O2 C14 1_555 1_555
O3 C7 1_555 1_555
N1 C3 1_555 1_555
N2 C11 1_555 1_555
C1 C2 1_555 1_555
C2 C3 1_555 1_555
C3 C4 1_555 1_555
C4 C5 1_555 1_555
C5 C6 1_555 1_555
C6 C1 1_555 1_555
C7 C6 1_555 1_555
C8 C7 1_555 1_555
C9 O1 1_555 1_555
C10 C9 1_555 1_555
C11 C10 1_555 1_555
C12 C11 1_555 1_555
C13 C8 1_555 1_555
C14 O3 1_555 1_555
C15 C14 1_555 1_555
C16 C15 1_555 1_555
C17 C16 1_555 1_555
C18 C17 1_555 1_555
C19 C18 1_555 1_555
C20 C7 1_555 1_555
C21 N1 1_555 1_555
C22 C21 1_555 1_555
C23 N1 1_555 1_555
C24 C23 1_555 1_555
C25 N2 1_555 1_555
C26 C25 1_555 1_555
C27 N2 1_555 1_555
C28 C27 1_555 1_555
H1 C2 1_555 1_555
H2 C4 1_555 1_555
H3 C5 1_555 1_555
H4 C10 1_555 1_555
H5 C12 1_555 1_555
H6 C13 1_555 1_555
H7 C16 1_555 1_555
H8 C17 1_555 1_555
H9 C18 1_555 1_555
H10 C19 1_555 1_555
H11 C21 1_555 1_555
H12 C21 1_555 1_555
H13 C22 1_555 1_555
H14 C22 1_555 1_555
H15 C22 1_555 1_555
H16 C23 1_555 1_555
H17 C23 1_555 1_555
H18 C24 1_555 1_555
H19 C24 1_555 1_555
H20 C24 1_555 1_555
H21 C25 1_555 1_555
H22 C25 1_555 1_555
H23 C26 1_555 1_555
H24 C26 1_555 1_555
H25 C26 1_555 1_555
H26 C27 1_555 1_555
H27 C27 1_555 1_555
H28 C28 1_555 1_555
H29 C28 1_555 1_555
H30 C28 1_555 1_555
O4 C29 1_555 1_555
O5 C42 1_555 1_555
O6 C35 1_555 1_555
N3 C31 1_555 1_555
N4 C39 1_555 1_555
C29 C30 1_555 1_555
C30 C31 1_555 1_555
C31 C32 1_555 1_555
C32 C33 1_555 1_555
C33 C34 1_555 1_555
C34 C29 1_555 1_555
C35 C34 1_555 1_555
C36 C35 1_555 1_555
C37 O4 1_555 1_555
C38 C37 1_555 1_555
C39 C38 1_555 1_555
C40 C39 1_555 1_555
C41 C36 1_555 1_555
C42 O6 1_555 1_555
C43 C42 1_555 1_555
C44 C43 1_555 1_555
C45 C44 1_555 1_555
C46 C45 1_555 1_555
C47 C46 1_555 1_555
C48 C35 1_555 1_555
C49 N3 1_555 1_555
C50 C49 1_555 1_555
C51 N3 1_555 1_555
C52 C51 1_555 1_555
C53 N4 1_555 1_555
C54 C53 1_555 1_555
C55 N4 1_555 1_555
C56 C55 1_555 1_555
H31 C30 1_555 1_555
H32 C32 1_555 1_555
H33 C33 1_555 1_555
H34 C38 1_555 1_555
H35 C40 1_555 1_555
H36 C41 1_555 1_555
H37 C44 1_555 1_555
H38 C45 1_555 1_555
H39 C46 1_555 1_555
H40 C47 1_555 1_555
H41 C49 1_555 1_555
H42 C49 1_555 1_555
H43 C50 1_555 1_555
H44 C50 1_555 1_555
H45 C50 1_555 1_555
H46 C51 1_555 1_555
H47 C51 1_555 1_555
H48 C52 1_555 1_555
H49 C52 1_555 1_555
H50 C52 1_555 1_555
H51 C53 1_555 1_555
H52 C53 1_555 1_555
H53 C54 1_555 1_555
H54 C54 1_555 1_555
H55 C54 1_555 1_555
H56 C55 1_555 1_555
C8 C9 1_555 1_555
C12 C13 1_555 1_555
C15 C20 1_555 1_555
C19 C20 1_555 1_555
C36 C37 1_555 1_555
C40 C41 1_555 1_555
C43 C48 1_555 1_555
C47 C48 1_555 1_555

#END
