
#######################################################################
#
#                 Cambridge Crystallographic Data Centre
#                                CCDC 
#
#######################################################################
#
# If this CIF has been generated from an entry in the Cambridge 
# Structural Database, then it will include bibliographic, chemical, 
# crystal, experimental, refinement or atomic coordinate data resulting 
# from the CCDC's data processing and validation procedures.
#
#######################################################################

data_FUFZUB
_chemical_formula_moiety         'C11 H16 N4 O1 S1'
_chemical_name_systematic        
'4-(N-Hydroxyethyl-N-methylamino)benzaldehyde thiosemicarbazone'
_symmetry_cell_setting           monoclinic
_symmetry_space_group_name_H-M   'P 21/c'
_symmetry_Int_Tables_number      14
_space_group_name_Hall           '-P 2ybc'
loop_
_symmetry_equiv_pos_site_id
_symmetry_equiv_pos_as_xyz
1 x,y,z
2 x,1/2-y,1/2+z
3 -x,-y,-z
4 -x,1/2+y,1/2-z
_cell_length_a                   14.7856(3)
_cell_length_b                   7.75650(10)
_cell_length_c                   11.9571(2)
_cell_angle_alpha                90
_cell_angle_beta                 112.5170(10)
_cell_angle_gamma                90
_cell_volume                     1266.75
_exptl_crystal_colour            yellow
_exptl_crystal_description       slab
_cell_formula_units_Z            4
loop_
_atom_site_label
_atom_site_type_symbol
_atom_site_fract_x
_atom_site_fract_y
_atom_site_fract_z
S1 S 0.36457(5) 0.32764(11) 0.34616(7)
O1 O -0.31787(13) -0.0445(2) 0.42355(18)
H1 H -0.3296 -0.0545 0.3511
N1 N 0.19463(16) 0.4932(3) 0.2487(2)
H2 H 0.1355 0.5131 0.2419
H3 H 0.2191 0.5496 0.2050
N2 N 0.20507(14) 0.2927(3) 0.39183(19)
H4 H 0.2367 0.2166 0.4447
N3 N 0.10843(14) 0.3311(3) 0.3731(2)
N4 N -0.30888(15) 0.3375(3) 0.4342(2)
C1 C 0.24870(18) 0.3743(3) 0.3275(2)
C2 C 0.07703(18) 0.2630(3) 0.4485(2)
H5 H 0.1195 0.1944 0.5100
C3 C -0.02184(17) 0.2877(3) 0.4425(2)
C4 C -0.05077(18) 0.2072(3) 0.5280(2)
H6 H -0.0054 0.1411 0.5885
C5 C -0.14423(18) 0.2225(3) 0.5257(2)
H7 H -0.1605 0.1647 0.5835
C6 C -0.21536(17) 0.3228(3) 0.4385(2)
C7 C -0.18530(18) 0.4109(3) 0.3547(2)
H8 H -0.2296 0.4820 0.2968
C8 C -0.09159(18) 0.3932(3) 0.3573(2)
H9 H -0.0743 0.4528 0.3010
C9 C -0.3813(2) 0.4398(4) 0.3408(3)
H10 H -0.4423 0.4361 0.3517
H11 H -0.3904 0.3938 0.2627
H12 H -0.3592 0.5570 0.3461
C10 C -0.34758(19) 0.2260(3) 0.5034(2)
H13 H -0.3974 0.2886 0.5210
H14 H -0.2952 0.1984 0.5800
C11 C -0.39135(19) 0.0603(3) 0.4398(3)
H15 H -0.4212 -0.0021 0.4871
H16 H -0.4421 0.0862 0.3615
loop_
_geom_bond_atom_site_label_1
_geom_bond_atom_site_label_2
_geom_bond_site_symmetry_1
_geom_bond_site_symmetry_2
S1 C1 1_555 1_555
O1 H1 1_555 1_555
N1 H2 1_555 1_555
H3 N1 1_555 1_555
N2 H4 1_555 1_555
N3 N2 1_555 1_555
N4 C6 1_555 1_555
C1 N1 1_555 1_555
C2 N3 1_555 1_555
H5 C2 1_555 1_555
C3 C2 1_555 1_555
C4 C3 1_555 1_555
H6 C4 1_555 1_555
C5 C4 1_555 1_555
H7 C5 1_555 1_555
C6 C5 1_555 1_555
C7 C6 1_555 1_555
H8 C7 1_555 1_555
C8 C3 1_555 1_555
H9 C8 1_555 1_555
C9 N4 1_555 1_555
H10 C9 1_555 1_555
H11 C9 1_555 1_555
H12 C9 1_555 1_555
C10 N4 1_555 1_555
H13 C10 1_555 1_555
H14 C10 1_555 1_555
C11 O1 1_555 1_555
H15 C11 1_555 1_555
H16 C11 1_555 1_555
N2 C1 1_555 1_555
C7 C8 1_555 1_555
C10 C11 1_555 1_555

#END
