
#######################################################################
#
#                 Cambridge Crystallographic Data Centre
#                                CCDC 
#
#######################################################################
#
# If this CIF has been generated from an entry in the Cambridge 
# Structural Database, then it will include bibliographic, chemical, 
# crystal, experimental, refinement or atomic coordinate data resulting 
# from the CCDC's data processing and validation procedures.
#
#######################################################################

data_FUGTEH
_chemical_formula_moiety         'C25 H23 N3 O2'
_chemical_name_systematic        
(4Z)-4-[(4-Methoxybenzylamino)(phenyl)methylene]-3-methyl-1-phenyl-1H-pyrazol-5(4H)-one
_symmetry_cell_setting           orthorhombic
_symmetry_space_group_name_H-M   'P b c a'
_symmetry_Int_Tables_number      61
_space_group_name_Hall           '-P 2ac 2ab'
loop_
_symmetry_equiv_pos_site_id
_symmetry_equiv_pos_as_xyz
1 x,y,z
2 1/2-x,-y,1/2+z
3 -x,1/2+y,1/2-z
4 1/2+x,1/2-y,-z
5 -x,-y,-z
6 1/2+x,y,1/2-z
7 x,1/2-y,1/2+z
8 1/2-x,1/2+y,z
_cell_length_a                   17.685(4)
_cell_length_b                   11.613(2)
_cell_length_c                   20.568(4)
_cell_angle_alpha                90
_cell_angle_beta                 90
_cell_angle_gamma                90
_cell_volume                     4224.17
_exptl_crystal_colour            yellow
_exptl_crystal_description       block
_cell_formula_units_Z            8
_exptl_crystal_recrystallization_method ethanol
loop_
_atom_site_label
_atom_site_type_symbol
_atom_site_fract_x
_atom_site_fract_y
_atom_site_fract_z
O1 O 0.03774(6) 0.05679(9) 0.39451(5)
O2 O 0.22937(8) -0.44370(11) 0.33811(7)
N1 N 0.04301(7) 0.34722(11) 0.44256(6)
N2 N 0.02452(7) 0.25809(10) 0.39929(6)
N3 N 0.11039(8) -0.01861(11) 0.50035(6)
C1 C -0.01072(8) 0.28454(13) 0.33938(7)
C2 C -0.04472(9) 0.19813(14) 0.30272(7)
H1 H -0.0454 0.1211 0.3182
C3 C -0.07760(10) 0.22525(16) 0.24341(8)
H2 H -0.1002 0.1662 0.2181
C4 C -0.07778(9) 0.33747(17) 0.22084(8)
H3 H -0.0998 0.3554 0.1799
C5 C -0.04572(9) 0.42288(16) 0.25824(9)
H4 H -0.0468 0.5002 0.2432
C6 C -0.01187(9) 0.39786(14) 0.31747(8)
H5 H 0.0103 0.4574 0.3428
C7 C 0.04567(8) 0.15137(13) 0.42300(7)
C8 C 0.07883(8) 0.17516(12) 0.48542(7)
C9 C 0.07448(8) 0.29768(13) 0.49309(7)
C10 C 0.09843(10) 0.37075(15) 0.54929(8)
H6 H 0.0878 0.4518 0.5396
H7 H 0.1528 0.3608 0.5568
H8 H 0.0704 0.3475 0.5883
C11 C 0.11209(8) 0.08831(13) 0.52273(7)
C12 C 0.15154(8) 0.11208(13) 0.58498(7)
C13 C 0.11171(9) 0.12018(16) 0.64250(8)
H9 H 0.0585 0.1095 0.6428
C14 C 0.14969(11) 0.1440(2) 0.69986(9)
H10 H 0.1223 0.1496 0.7395
C15 C 0.22707(11) 0.15964(19) 0.69975(9)
H11 H 0.2527 0.1767 0.7392
C16 C 0.26706(10) 0.15051(18) 0.64253(9)
H12 H 0.3203 0.1609 0.6425
C17 C 0.22957(9) 0.12621(15) 0.58515(8)
H13 H 0.2572 0.1192 0.5458
C18 C 0.14345(10) -0.12099(14) 0.53081(8)
H14 H 0.1058 -0.1578 0.5597
H15 H 0.1877 -0.0986 0.5574
C19 C 0.16749(8) -0.20464(13) 0.47878(7)
C20 C 0.22998(9) -0.18247(13) 0.44036(8)
H16 H 0.2575 -0.1130 0.4464
C21 C 0.25327(9) -0.26025(15) 0.39292(8)
H17 H 0.2965 -0.2448 0.3670
C22 C 0.21200(10) -0.36117(14) 0.38418(8)
C23 C 0.14925(10) -0.38372(14) 0.42166(9)
H18 H 0.1213 -0.4527 0.4152
C24 C 0.12701(9) -0.30591(14) 0.46861(8)
H19 H 0.0836 -0.3216 0.4943
C25 C 0.29322(13) -0.42679(19) 0.30302(11)
H20 H 0.2890 -0.3545 0.2787
H21 H 0.3000 -0.4908 0.2726
H22 H 0.3368 -0.4228 0.3324
H23 H 0.0837(12) -0.0281(18) 0.4599(11)
loop_
_geom_bond_atom_site_label_1
_geom_bond_atom_site_label_2
_geom_bond_site_symmetry_1
_geom_bond_site_symmetry_2
O1 C7 1_555 1_555
O2 C22 1_555 1_555
N1 N2 1_555 1_555
N2 C1 1_555 1_555
N3 C11 1_555 1_555
C1 C2 1_555 1_555
C2 H1 1_555 1_555
C3 C2 1_555 1_555
H2 C3 1_555 1_555
C4 C3 1_555 1_555
H3 C4 1_555 1_555
C5 C4 1_555 1_555
H4 C5 1_555 1_555
C6 C1 1_555 1_555
H5 C6 1_555 1_555
C7 N2 1_555 1_555
C8 C7 1_555 1_555
C9 N1 1_555 1_555
C10 C9 1_555 1_555
H6 C10 1_555 1_555
H7 C10 1_555 1_555
H8 C10 1_555 1_555
C11 C8 1_555 1_555
C12 C11 1_555 1_555
C13 C12 1_555 1_555
H9 C13 1_555 1_555
C14 C13 1_555 1_555
H10 C14 1_555 1_555
C15 C14 1_555 1_555
H11 C15 1_555 1_555
C16 C15 1_555 1_555
H12 C16 1_555 1_555
C17 C12 1_555 1_555
H13 C17 1_555 1_555
C18 N3 1_555 1_555
H14 C18 1_555 1_555
H15 C18 1_555 1_555
C19 C18 1_555 1_555
C20 C19 1_555 1_555
H16 C20 1_555 1_555
C21 C20 1_555 1_555
H17 C21 1_555 1_555
C22 C21 1_555 1_555
C23 C22 1_555 1_555
H18 C23 1_555 1_555
C24 C19 1_555 1_555
H19 C24 1_555 1_555
C25 O2 1_555 1_555
H20 C25 1_555 1_555
H21 C25 1_555 1_555
H22 C25 1_555 1_555
H23 N3 1_555 1_555
C5 C6 1_555 1_555
C8 C9 1_555 1_555
C16 C17 1_555 1_555
C23 C24 1_555 1_555

#END
