
#######################################################################
#
#                 Cambridge Crystallographic Data Centre
#                                CCDC 
#
#######################################################################
#
# If this CIF has been generated from an entry in the Cambridge 
# Structural Database, then it will include bibliographic, chemical, 
# crystal, experimental, refinement or atomic coordinate data resulting 
# from the CCDC's data processing and validation procedures.
#
#######################################################################

data_FUGXAH
_chemical_formula_moiety         'C20 H22 Cl3 N1 O1'
_chemical_name_systematic        
2,4-Dichloro-6-((1R)-1-([(R)-(2-chlorophenyl)(cyclopentyl)methyl]amino)ethyl)phenol
_symmetry_cell_setting           orthorhombic
_symmetry_space_group_name_H-M   'P 21 21 21'
_symmetry_Int_Tables_number      19
_space_group_name_Hall           'P 2ac 2ab'
loop_
_symmetry_equiv_pos_site_id
_symmetry_equiv_pos_as_xyz
1 x,y,z
2 1/2-x,-y,1/2+z
3 -x,1/2+y,1/2-z
4 1/2+x,1/2-y,-z
_cell_length_a                   8.4132(7)
_cell_length_b                   13.6767(10)
_cell_length_c                   17.0018(14)
_cell_angle_alpha                90
_cell_angle_beta                 90
_cell_angle_gamma                90
_cell_volume                     1956.31
_exptl_crystal_colour            colorless
_exptl_crystal_description       plate
_cell_formula_units_Z            4
_exptl_crystal_recrystallization_method hexane
loop_
_atom_site_label
_atom_site_type_symbol
_atom_site_fract_x
_atom_site_fract_y
_atom_site_fract_z
Cl1 Cl 0.74492(12) 0.20053(6) 0.65026(5)
Cl2 Cl 0.77477(11) 0.32755(7) 0.35243(5)
Cl3 Cl 0.17174(12) 0.73428(6) 0.60165(5)
N1 N 0.4064(2) 0.58218(15) 0.51047(11)
H1 H 0.3999 0.6424 0.5201
O1 O 0.6034(2) 0.49741(14) 0.41237(10)
H2 H 0.5277 0.5427 0.4341
C1 C 0.6303(3) 0.42963(19) 0.46839(14)
C2 C 0.5780(3) 0.44142(18) 0.54534(14)
C3 C 0.6114(3) 0.36909(19) 0.60025(16)
H3 H 0.5742 0.3755 0.6515
C4 C 0.6985(3) 0.28820(19) 0.57958(18)
C5 C 0.7529(4) 0.2752(2) 0.50434(17)
H4 H 0.8136 0.2208 0.4910
C6 C 0.7148(3) 0.3454(2) 0.44879(15)
C7 C 0.5002(3) 0.53592(18) 0.57377(14)
H5 H 0.4300 0.5211 0.6182
C8 C 0.6279(4) 0.6086(2) 0.6006(2)
H6 H 0.7007 0.6206 0.5582
H7 H 0.6847 0.5818 0.6446
H8 H 0.5784 0.6689 0.6159
C9 C 0.2437(3) 0.54384(17) 0.49936(12)
H9 H 0.2565 0.4764 0.4809
C10 C 0.1458(3) 0.53736(19) 0.57434(14)
C11 C 0.1105(3) 0.6155(2) 0.62414(15)
C12 C 0.0257(3) 0.6038(3) 0.69294(16)
H10 H 0.0036 0.6578 0.7243
C13 C -0.0256(4) 0.5139(3) 0.71500(17)
H11 H -0.0807 0.5061 0.7620
C14 C 0.0042(4) 0.4338(3) 0.66735(19)
H12 H -0.0323 0.3722 0.6821
C15 C 0.0871(3) 0.4449(2) 0.59875(16)
H13 H 0.1055 0.3905 0.5673
C16 C 0.1623(3) 0.5990(2) 0.43215(14)
H14 H 0.1482 0.6675 0.4478
C17 C -0.0009(4) 0.5558(3) 0.41129(17)
H15 H -0.0032 0.4861 0.4214
H16 H -0.0843 0.5870 0.4417
C18 C -0.0216(4) 0.5764(4) 0.32453(19)
H17 H -0.0591 0.5182 0.2978
H18 H -0.0995 0.6279 0.3170
C19 C 0.1269(4) 0.6057(4) 0.29287(18)
H19 H 0.1208 0.6730 0.2752
H20 H 0.1533 0.5650 0.2480
C20 C 0.2520(3) 0.5960(2) 0.35444(14)
H21 H 0.3275 0.6494 0.3511
H22 H 0.3088 0.5346 0.3487
loop_
_geom_bond_atom_site_label_1
_geom_bond_atom_site_label_2
_geom_bond_site_symmetry_1
_geom_bond_site_symmetry_2
Cl1 C4 1_555 1_555
Cl2 C6 1_555 1_555
Cl3 C11 1_555 1_555
N1 H1 1_555 1_555
O1 H2 1_555 1_555
C1 O1 1_555 1_555
C2 C1 1_555 1_555
C3 C2 1_555 1_555
H3 C3 1_555 1_555
C4 C3 1_555 1_555
C5 C4 1_555 1_555
H4 C5 1_555 1_555
C6 C1 1_555 1_555
C7 N1 1_555 1_555
H5 C7 1_555 1_555
C8 C7 1_555 1_555
H6 C8 1_555 1_555
H7 C8 1_555 1_555
H8 C8 1_555 1_555
C9 N1 1_555 1_555
H9 C9 1_555 1_555
C10 C9 1_555 1_555
C11 C10 1_555 1_555
C12 C11 1_555 1_555
H10 C12 1_555 1_555
C13 C12 1_555 1_555
H11 C13 1_555 1_555
C14 C13 1_555 1_555
H12 C14 1_555 1_555
C15 C10 1_555 1_555
H13 C15 1_555 1_555
C16 C9 1_555 1_555
H14 C16 1_555 1_555
C17 C16 1_555 1_555
H15 C17 1_555 1_555
H16 C17 1_555 1_555
C18 C17 1_555 1_555
H17 C18 1_555 1_555
H18 C18 1_555 1_555
C19 C18 1_555 1_555
H19 C19 1_555 1_555
H20 C19 1_555 1_555
C20 C16 1_555 1_555
H21 C20 1_555 1_555
H22 C20 1_555 1_555
C2 C7 1_555 1_555
C5 C6 1_555 1_555
C14 C15 1_555 1_555
C19 C20 1_555 1_555

#END
