
#######################################################################
#
#                 Cambridge Crystallographic Data Centre
#                                CCDC 
#
#######################################################################
#
# If this CIF has been generated from an entry in the Cambridge 
# Structural Database, then it will include bibliographic, chemical, 
# crystal, experimental, refinement or atomic coordinate data resulting 
# from the CCDC's data processing and validation procedures.
#
#######################################################################

data_FUGXIP
_chemical_name_common            
N-(4-(1,3-Benzothiazol-2-yl)phenyl)-N-methylglycine
_chemical_formula_moiety         'C16 H14 N2 O2 S1'
_chemical_name_systematic        
'2-([4-(1,3-Benzothiazol-2-yl)phenyl](methyl)amino)acetic acid'
_symmetry_cell_setting           orthorhombic
_symmetry_space_group_name_H-M   'P b c a'
_symmetry_Int_Tables_number      61
_space_group_name_Hall           '-P 2ac 2ab'
loop_
_symmetry_equiv_pos_site_id
_symmetry_equiv_pos_as_xyz
1 x,y,z
2 1/2-x,-y,1/2+z
3 -x,1/2+y,1/2-z
4 1/2+x,1/2-y,-z
5 -x,-y,-z
6 1/2+x,y,1/2-z
7 x,1/2-y,1/2+z
8 1/2-x,1/2+y,z
_cell_length_a                   11.9516(10)
_cell_length_b                   9.4390(8)
_cell_length_c                   25.418(2)
_cell_angle_alpha                90
_cell_angle_beta                 90
_cell_angle_gamma                90
_cell_volume                     2867.43
_exptl_crystal_colour            colorless
_exptl_crystal_description       block
_cell_formula_units_Z            8
_exptl_crystal_recrystallization_method methanol
loop_
_atom_site_label
_atom_site_type_symbol
_atom_site_fract_x
_atom_site_fract_y
_atom_site_fract_z
C1 C 0.36303(18) 0.1030(2) 0.62901(9)
C2 C 0.3131(2) -0.0017(3) 0.71444(10)
C3 C 0.2757(3) -0.0521(3) 0.76272(11)
H1 H 0.2112 -0.0160 0.7783
C4 C 0.3367(3) -0.1562(3) 0.78658(11)
H2 H 0.3122 -0.1932 0.8185
C5 C 0.4342(3) -0.2081(3) 0.76424(11)
H3 H 0.4747 -0.2778 0.7817
C6 C 0.4720(2) -0.1582(3) 0.71657(10)
H4 H 0.5374 -0.1937 0.7017
C7 C 0.4106(2) -0.0537(3) 0.69110(10)
C8 C 0.36685(18) 0.1881(2) 0.58153(9)
C9 C 0.28533(19) 0.2883(3) 0.56974(10)
H5 H 0.2251 0.2993 0.5926
C10 C 0.2907(2) 0.3716(3) 0.52558(10)
H6 H 0.2334 0.4357 0.5188
C11 C 0.38126(18) 0.3618(2) 0.49032(9)
C12 C 0.46109(19) 0.2571(3) 0.50147(9)
H7 H 0.5206 0.2438 0.4784
C13 C 0.45351(19) 0.1741(3) 0.54534(10)
H8 H 0.5082 0.1059 0.5512
C14 C 0.3081(2) 0.5541(2) 0.43544(10)
H9 H 0.3419 0.6291 0.4147
H10 H 0.2804 0.5959 0.4678
C15 C 0.21108(19) 0.4931(3) 0.40533(9)
C16 C 0.4788(2) 0.4267(3) 0.40869(11)
H11 H 0.5510 0.4252 0.4252
H12 H 0.4765 0.5013 0.3831
H13 H 0.4655 0.3374 0.3917
N1 N 0.43700(15) 0.0080(2) 0.64281(8)
N2 N 0.39284(16) 0.4510(2) 0.44825(8)
O1 O 0.13080(15) 0.58713(18) 0.39831(8)
H14 H 0.065(2) 0.540(3) 0.3813(11)
O2 O 0.20655(15) 0.37398(19) 0.38956(8)
S1 S 0.25427(6) 0.12637(8) 0.67437(3)
loop_
_geom_bond_atom_site_label_1
_geom_bond_atom_site_label_2
_geom_bond_site_symmetry_1
_geom_bond_site_symmetry_2
C1 C8 1_555 1_555
C2 C3 1_555 1_555
C3 H1 1_555 1_555
C4 C3 1_555 1_555
H2 C4 1_555 1_555
C5 C4 1_555 1_555
H3 C5 1_555 1_555
C6 C5 1_555 1_555
H4 C6 1_555 1_555
C7 C2 1_555 1_555
C8 C9 1_555 1_555
C9 H5 1_555 1_555
C10 C9 1_555 1_555
H6 C10 1_555 1_555
C11 C10 1_555 1_555
C12 C11 1_555 1_555
H7 C12 1_555 1_555
C13 C8 1_555 1_555
H8 C13 1_555 1_555
C14 H9 1_555 1_555
H10 C14 1_555 1_555
C15 C14 1_555 1_555
C16 H11 1_555 1_555
H12 C16 1_555 1_555
H13 C16 1_555 1_555
N1 C1 1_555 1_555
N2 C11 1_555 1_555
O1 C15 1_555 1_555
H14 O1 1_555 1_555
O2 C15 1_555 1_555
S1 C1 1_555 1_555
C2 S1 1_555 1_555
C6 C7 1_555 1_555
C7 N1 1_555 1_555
C12 C13 1_555 1_555
C14 N2 1_555 1_555
C16 N2 1_555 1_555

#END
