
#######################################################################
#
#                 Cambridge Crystallographic Data Centre
#                                CCDC 
#
#######################################################################
#
# If this CIF has been generated from an entry in the Cambridge 
# Structural Database, then it will include bibliographic, chemical, 
# crystal, experimental, refinement or atomic coordinate data resulting 
# from the CCDC's data processing and validation procedures.
#
#######################################################################

data_FUHBOA01
_chemical_formula_moiety         'C15 H11 N1 S1'
_chemical_name_systematic        N-(2-Thienylmethylene)naphthalen-1-amine
_symmetry_cell_setting           orthorhombic
_symmetry_space_group_name_H-M   'A b a 2'
_symmetry_Int_Tables_number      41
_space_group_name_Hall           'A 2 -2ab'
loop_
_symmetry_equiv_pos_site_id
_symmetry_equiv_pos_as_xyz
1 x,y,z
2 -x,-y,z
3 1/2-x,1/2+y,z
4 1/2+x,1/2-y,z
5 x,1/2+y,1/2+z
6 -x,1/2-y,1/2+z
7 1/2-x,y,1/2+z
8 1/2+x,-y,1/2+z
_cell_length_a                   10.7541(18)
_cell_length_b                   20.966(4)
_cell_length_c                   10.5543(16)
_cell_angle_alpha                90
_cell_angle_beta                 90
_cell_angle_gamma                90
_cell_volume                     2379.68
_cell_formula_units_Z            8
loop_
_atom_site_label
_atom_site_type_symbol
_atom_site_fract_x
_atom_site_fract_y
_atom_site_fract_z
C1 C 0.95964(16) 0.83014(8) 0.97874(16)
C2 C 0.98177(18) 0.77330(9) 0.91739(18)
H1 H 1.0545 0.7495 0.9369
C3 C 0.89801(19) 0.75016(9) 0.8264(2)
H2 H 0.9156 0.7113 0.7836
C4 C 0.79145(17) 0.78282(9) 0.79855(19)
H3 H 0.7368 0.7671 0.7351
C5 C 0.76176(17) 0.83995(9) 0.86359(18)
C6 C 0.65008(17) 0.87346(9) 0.84037(18)
H4 H 0.5940 0.8582 0.7778
C7 C 0.62168(18) 0.92727(8) 0.90644(19)
H5 H 0.5457 0.9489 0.8903
C8 C 0.70447(17) 0.95119(10) 0.99884(19)
H6 H 0.6834 0.9885 1.0451
C9 C 0.81500(19) 0.92084(9) 1.0222(2)
H7 H 0.8711 0.9380 1.0828
C10 C 0.84625(16) 0.86390(8) 0.95646(17)
C11 C 1.16051(16) 0.85138(9) 1.04536(17)
H8 H 1.1869 0.8280 0.9731
C12 C 1.25344(18) 0.87896(8) 1.12763(17)
C13 C 1.38038(17) 0.87373(9) 1.11697(19)
H9 H 1.4208 0.8488 1.0541
C14 C 1.44395(17) 0.90947(9) 1.20953(19)
H10 H 1.5320 0.9110 1.2163
C15 C 1.36590(18) 0.94141(10) 1.28795(18)
H11 H 1.3931 0.9680 1.3554
N1 N 1.04382(14) 0.85737(7) 1.06643(14)
S1 S 1.21213(4) 0.92842(2) 1.25150(5)
loop_
_geom_bond_atom_site_label_1
_geom_bond_atom_site_label_2
_geom_bond_site_symmetry_1
_geom_bond_site_symmetry_2
C1 C2 1_555 1_555
C2 H1 1_555 1_555
C3 C2 1_555 1_555
H2 C3 1_555 1_555
C4 C3 1_555 1_555
H3 C4 1_555 1_555
C5 C4 1_555 1_555
C6 C5 1_555 1_555
H4 C6 1_555 1_555
C7 C6 1_555 1_555
H5 C7 1_555 1_555
C8 C7 1_555 1_555
H6 C8 1_555 1_555
C9 C8 1_555 1_555
H7 C9 1_555 1_555
C10 C1 1_555 1_555
C11 H8 1_555 1_555
C12 C11 1_555 1_555
C13 C12 1_555 1_555
H9 C13 1_555 1_555
C14 C13 1_555 1_555
H10 C14 1_555 1_555
C15 C14 1_555 1_555
H11 C15 1_555 1_555
N1 C1 1_555 1_555
S1 C12 1_555 1_555
C5 C10 1_555 1_555
C9 C10 1_555 1_555
C11 N1 1_555 1_555
C15 S1 1_555 1_555

#END
