
#######################################################################
#
#                 Cambridge Crystallographic Data Centre
#                                CCDC 
#
#######################################################################
#
# If this CIF has been generated from an entry in the Cambridge 
# Structural Database, then it will include bibliographic, chemical, 
# crystal, experimental, refinement or atomic coordinate data resulting 
# from the CCDC's data processing and validation procedures.
#
#######################################################################

data_FUHGUL
_chemical_formula_moiety         '2(C8 H8 N2 S1),C8 H14 O4'
_chemical_name_systematic        
'bis(2-Amino-6-methyl-1,3-benzothiazole) octanedioic acid'
_symmetry_cell_setting           monoclinic
_symmetry_space_group_name_H-M   'P 21/c'
_symmetry_Int_Tables_number      14
_space_group_name_Hall           '-P 2ybc'
loop_
_symmetry_equiv_pos_site_id
_symmetry_equiv_pos_as_xyz
1 x,y,z
2 -x,1/2+y,1/2-z
3 -x,-y,-z
4 x,1/2-y,1/2+z
_cell_length_a                   12.4372(12)
_cell_length_b                   7.9165(8)
_cell_length_c                   16.6061(12)
_cell_angle_alpha                90
_cell_angle_beta                 127.992(5)
_cell_angle_gamma                90
_cell_volume                     1288.56
_exptl_crystal_colour            colorless
_exptl_crystal_description       block
_cell_formula_units_Z            2
_exptl_crystal_recrystallization_method methanol/water
loop_
_atom_site_label
_atom_site_type_symbol
_atom_site_fract_x
_atom_site_fract_y
_atom_site_fract_z
S1 S 0.27303(5) -0.11551(6) 1.15536(3)
N1 N 0.23024(15) 0.12817(17) 1.03421(11)
N2 N 0.40617(17) 0.1802(2) 1.20575(12)
H2 H 0.4222 0.2778 1.1924
H3 H 0.4541 0.1450 1.2679
C1 C 0.13613(17) 0.0017(2) 0.97271(13)
C2 C 0.14393(17) -0.1411(2) 1.02435(13)
C3 C 0.0586(2) -0.2780(3) 0.97316(14)
H4 H 0.0656 -0.3730 1.0090
C4 C -0.0376(2) -0.2717(3) 0.86769(15)
C5 C -0.0446(2) -0.1297(3) 0.81731(15)
H5 H -0.1090 -0.1260 0.7465
C6 C 0.03990(19) 0.0074(3) 0.86719(13)
H6 H 0.0325 0.1020 0.8308
C7 C 0.30726(18) 0.0837(2) 1.13027(13)
C8 C -0.1328(3) -0.4193(4) 0.81008(19)
H7 H -0.1898 -0.3967 0.7381
H8 H -0.1888 -0.4354 0.8311
H9 H -0.0803 -0.5196 0.8246
O1 O 0.41522(14) 0.48915(16) 1.10448(9)
O2 O 0.24755(15) 0.39416(17) 0.95120(9)
H1 H 0.2495 0.3168 0.9849
C9 C 0.33968(18) 0.5053(2) 1.01209(13)
C10 C 0.34445(19) 0.6517(2) 0.95779(13)
H10 H 0.2554 0.7052 0.9163
H11 H 0.3616 0.6092 0.9118
C11 C 0.45049(18) 0.7847(2) 1.02578(12)
H12 H 0.5402 0.7330 1.0659
H13 H 0.4351 0.8265 1.0728
C12 C 0.44826(18) 0.9325(2) 0.96670(13)
H14 H 0.4649 0.8906 0.9204
H15 H 0.3580 0.9825 0.9257
O1B O 0.58478(14) 1.51085(16) 0.89552(9)
O2B O 0.75245(15) 1.60584(17) 1.04880(9)
H1B H 0.7505 1.6832 1.0151
C9B C 0.66032(18) 1.4947(2) 0.98791(13)
C10B C 0.65555(19) 1.3483(2) 1.04221(13)
H10B H 0.7446 1.2948 1.0837
H11B H 0.6384 1.3908 1.0882
C11B C 0.54951(18) 1.2153(2) 0.97422(12)
H12B H 0.4598 1.2670 0.9341
H13B H 0.5649 1.1735 0.9272
C12B C 0.55174(18) 1.0675(2) 1.03330(13)
H14B H 0.5351 1.1094 1.0796
H15B H 0.6420 1.0175 1.0743
loop_
_geom_bond_atom_site_label_1
_geom_bond_atom_site_label_2
_geom_bond_site_symmetry_1
_geom_bond_site_symmetry_2
S1 C2 1_555 1_555
O1 C9 1_555 1_555
O2 H1 1_555 1_555
N1 C1 1_555 1_555
N2 H2 1_555 1_555
H3 N2 1_555 1_555
C1 C2 1_555 1_555
C2 C3 1_555 1_555
C3 H4 1_555 1_555
C4 C3 1_555 1_555
C5 C4 1_555 1_555
H5 C5 1_555 1_555
C6 C1 1_555 1_555
H6 C6 1_555 1_555
C7 S1 1_555 1_555
C8 C4 1_555 1_555
H7 C8 1_555 1_555
H8 C8 1_555 1_555
H9 C8 1_555 1_555
C9 O2 1_555 1_555
C10 C9 1_555 1_555
H10 C10 1_555 1_555
H11 C10 1_555 1_555
C11 C10 1_555 1_555
H12 C11 1_555 1_555
H13 C11 1_555 1_555
C12 C11 1_555 1_555
H14 C12 1_555 1_555
H15 C12 1_555 1_555
O1B C9B 1_555 1_555
O2B H1B 1_555 1_555
C9B O2B 1_555 1_555
C10B C9B 1_555 1_555
H10B C10B 1_555 1_555
H11B C10B 1_555 1_555
C11B C10B 1_555 1_555
H12B C11B 1_555 1_555
H13B C11B 1_555 1_555
C12B C12 1_555 1_555
H14B C12B 1_555 1_555
H15B C12B 1_555 1_555
N1 C7 1_555 1_555
N2 C7 1_555 1_555
C5 C6 1_555 1_555
C11B C12B 1_555 1_555

#END
