
#######################################################################
#
#                 Cambridge Crystallographic Data Centre
#                                CCDC 
#
#######################################################################
#
# If this CIF has been generated from an entry in the Cambridge 
# Structural Database, then it will include bibliographic, chemical, 
# crystal, experimental, refinement or atomic coordinate data resulting 
# from the CCDC's data processing and validation procedures.
#
#######################################################################

data_FUHGAR
_chemical_formula_moiety         'C17 H18 N2 O4 S1'
_chemical_name_systematic        
trans-4,5-Dihydroxy-1,3-bis(4-methoxyphenyl)imidazolidine-2-thione
_symmetry_cell_setting           monoclinic
_symmetry_space_group_name_H-M   'P 21/c'
_symmetry_Int_Tables_number      14
_space_group_name_Hall           '-P 2ybc'
loop_
_symmetry_equiv_pos_site_id
_symmetry_equiv_pos_as_xyz
1 x,y,z
2 -x,1/2+y,1/2-z
3 -x,-y,-z
4 x,1/2-y,1/2+z
_cell_length_a                   13.9807(12)
_cell_length_b                   12.1789(11)
_cell_length_c                   10.0958(9)
_cell_angle_alpha                90
_cell_angle_beta                 93.8150(10)
_cell_angle_gamma                90
_cell_volume                     1715.2
_exptl_crystal_colour            colorless
_exptl_crystal_description       block
_cell_formula_units_Z            4
_exptl_crystal_recrystallization_method ethanol
loop_
_atom_site_label
_atom_site_type_symbol
_atom_site_fract_x
_atom_site_fract_y
_atom_site_fract_z
N1 N 0.1894(5) 0.8182(5) 0.8627(11)
C1 C 0.2878(3) 0.8426(4) 0.8958(3)
C2 C 0.3522(2) 0.8265(2) 0.7987(3)
H1 H 0.3295 0.8116 0.7119
C3 C 0.4492(2) 0.8325(3) 0.8299(3)
H2 H 0.4920 0.8229 0.7640
C4 C 0.4833(2) 0.8528(2) 0.9598(3)
C5 C 0.4205(2) 0.8754(3) 1.0555(3)
H3 H 0.4432 0.8936 1.1413
C6 C 0.3222(2) 0.8705(2) 1.0222(3)
H4 H 0.2793 0.8863 1.0862
C7 C 0.6212(9) 0.861(2) 1.1138(17)
H5 H 0.5976 0.9264 1.1523
H6 H 0.6898 0.8640 1.1139
H7 H 0.6031 0.7982 1.1648
O1 O 0.58130(14) 0.8499(2) 0.9808(3)
S1 S 0.12664(3) 1.02415(4) 0.81566(5)
O2 O 0.06318(10) 0.66792(11) 0.68364(12)
H8 H 0.0227 0.6199 0.6696
O3 O 0.15350(10) 0.68187(11) 1.02357(12)
H9 H 0.1261 0.7311 1.0616
O4 O -0.33055(13) 0.9381(2) 0.6034(2)
N2 N 0.03525(10) 0.82649(12) 0.81002(15)
C8 C 0.11643(11) 0.88826(14) 0.83077(16)
C9 C 0.05733(13) 0.70931(15) 0.81329(17)
H10 H 0.0101 0.6685 0.8611
C10 C 0.15534(13) 0.70725(14) 0.88879(17)
H11 H 0.1963 0.6541 0.8466
C11 C -0.05667(12) 0.86336(15) 0.75615(17)
C12 C -0.06968(13) 0.90132(16) 0.62842(18)
H12 H -0.0168 0.9098 0.5782
C13 C -0.16006(14) 0.92724(17) 0.5726(2)
H13 H -0.1680 0.9526 0.4857
C14 C -0.23823(14) 0.9148(2) 0.6480(2)
C15 C -0.22540(15) 0.8775(2) 0.7771(2)
H14 H -0.2782 0.8698 0.8277
C16 C -0.13567(14) 0.8517(2) 0.8319(2)
H15 H -0.1277 0.8267 0.9190
C17 C -0.34805(19) 0.9682(3) 0.4689(3)
H16 H -0.3167 1.0367 0.4531
H17 H -0.4158 0.9761 0.4489
H18 H -0.3235 0.9124 0.4132
C18? C 0.2843(11) 0.8530(16) 0.9341(14)
C19? C 0.3624(6) 0.8085(8) 0.8804(9)
C20? C 0.4518(7) 0.8206(10) 0.9478(12)
C21? C 0.4586(7) 0.8747(9) 1.0675(13)
C22? C 0.3778(6) 0.9179(8) 1.1206(9)
C23? C 0.2897(7) 0.9037(8) 1.0563(9)
C24? C 0.629(3) 0.854(7) 1.100(6)
H19? H 0.3560 0.7707 0.8003
H20? H 0.5064 0.7924 0.9123
H21? H 0.3837 0.9566 1.2001
H22? H 0.2345 0.9277 1.0941
H23? H 0.6417 0.7791 1.1256
H24? H 0.6805 0.8998 1.1347
H25? H 0.6243 0.8588 1.0044
N3? N 0.1897(16) 0.8218(15) 0.883(4)
O5? O 0.5427(4) 0.8885(6) 1.1491(8)
loop_
_geom_bond_atom_site_label_1
_geom_bond_atom_site_label_2
_geom_bond_site_symmetry_1
_geom_bond_site_symmetry_2
N1 C1 1_555 1_555
C1 C2 1_555 1_555
C2 H1 1_555 1_555
C3 C2 1_555 1_555
H2 C3 1_555 1_555
C4 C3 1_555 1_555
C5 C4 1_555 1_555
H3 C5 1_555 1_555
C6 C1 1_555 1_555
H4 C6 1_555 1_555
C7 H5 1_555 1_555
H6 C7 1_555 1_555
H7 C7 1_555 1_555
O1 C4 1_555 1_555
S1 C8 1_555 1_555
O2 H8 1_555 1_555
O3 H9 1_555 1_555
O4 C14 1_555 1_555
N2 C8 1_555 1_555
C8 N1 1_555 1_555
C9 O2 1_555 1_555
H10 C9 1_555 1_555
C10 N1 1_555 1_555
H11 C10 1_555 1_555
C11 N2 1_555 1_555
C12 C11 1_555 1_555
H12 C12 1_555 1_555
C13 C12 1_555 1_555
H13 C13 1_555 1_555
C14 C13 1_555 1_555
C15 C14 1_555 1_555
H14 C15 1_555 1_555
C16 C11 1_555 1_555
H15 C16 1_555 1_555
C17 O4 1_555 1_555
H16 C17 1_555 1_555
H17 C17 1_555 1_555
H18 C17 1_555 1_555
C5 C6 1_555 1_555
C7 O1 1_555 1_555
O3 C10 1_555 1_555
N2 C9 1_555 1_555
C9 C10 1_555 1_555
C15 C16 1_555 1_555

#END
