
#######################################################################
#
#                 Cambridge Crystallographic Data Centre
#                                CCDC 
#
#######################################################################
#
# If this CIF has been generated from an entry in the Cambridge 
# Structural Database, then it will include bibliographic, chemical, 
# crystal, experimental, refinement or atomic coordinate data resulting 
# from the CCDC's data processing and validation procedures.
#
#######################################################################

data_FUHJEY
_chemical_formula_moiety         'C9 H9 Cl1 N4 O1 S1'
_chemical_name_systematic        
1-(1-[(2-Chlorothiazol-5-yl)methyl]-5-methyl-1H-1,2,3-triazol-4-yl)ethanone
_symmetry_cell_setting           orthorhombic
_symmetry_space_group_name_H-M   'P b c a'
_symmetry_Int_Tables_number      61
_space_group_name_Hall           '-P 2ac 2ab'
loop_
_symmetry_equiv_pos_site_id
_symmetry_equiv_pos_as_xyz
1 x,y,z
2 1/2-x,-y,1/2+z
3 -x,1/2+y,1/2-z
4 1/2+x,1/2-y,-z
5 -x,-y,-z
6 1/2+x,y,1/2-z
7 x,1/2-y,1/2+z
8 1/2-x,1/2+y,z
_cell_length_a                   10.5421(6)
_cell_length_b                   11.1494(6)
_cell_length_c                   19.8557(10)
_cell_angle_alpha                90
_cell_angle_beta                 90
_cell_angle_gamma                90
_cell_volume                     2333.8
_exptl_crystal_colour            colorless
_exptl_crystal_description       block
_cell_formula_units_Z            8
_exptl_crystal_recrystallization_method 'acetone/petroleum ether'
loop_
_atom_site_label
_atom_site_type_symbol
_atom_site_fract_x
_atom_site_fract_y
_atom_site_fract_z
C1 C 0.06077(19) 0.5833(2) 0.07494(12)
C2 C 0.1710(2) 0.4540(2) 0.13106(13)
H1 H 0.1838 0.3914 0.1613
C3 C 0.26783(19) 0.50485(18) 0.09799(9)
C4 C 0.40502(19) 0.47144(17) 0.10133(10)
H2 H 0.4171 0.4137 0.1373
H3 H 0.4291 0.4331 0.0594
C5 C 0.50309(18) 0.64274(16) 0.16817(9)
C6 C 0.59612(18) 0.72323(17) 0.14998(9)
C7 C 0.4283(3) 0.6266(2) 0.23107(11)
H4 H 0.3395 0.6336 0.2211
H5 H 0.4519 0.6872 0.2631
H6 H 0.4452 0.5488 0.2497
C8 C 0.6563(2) 0.81698(19) 0.19098(11)
C9 C 0.7538(2) 0.8946(2) 0.15856(13)
H7 H 0.7830 0.9533 0.1903
H8 H 0.7173 0.9344 0.1203
H9 H 0.8239 0.8460 0.1441
Cl1 Cl -0.06811(6) 0.66155(7) 0.04706(5)
N1 N 0.05217(18) 0.4984(2) 0.11826(11)
N2 N 0.48829(14) 0.57468(14) 0.11306(7)
N3 N 0.56710(16) 0.61037(18) 0.06291(9)
N4 N 0.63206(16) 0.70047(17) 0.08532(8)
O1 O 0.6277(2) 0.82866(17) 0.24974(9)
S1 S 0.21063(5) 0.61575(6) 0.04596(3)
loop_
_geom_bond_atom_site_label_1
_geom_bond_atom_site_label_2
_geom_bond_site_symmetry_1
_geom_bond_site_symmetry_2
C1 Cl1 1_555 1_555
C2 H1 1_555 1_555
C3 C2 1_555 1_555
C4 C3 1_555 1_555
H2 C4 1_555 1_555
H3 C4 1_555 1_555
C5 C6 1_555 1_555
C6 C8 1_555 1_555
C7 C5 1_555 1_555
H4 C7 1_555 1_555
H5 C7 1_555 1_555
H6 C7 1_555 1_555
C8 C9 1_555 1_555
C9 H7 1_555 1_555
H8 C9 1_555 1_555
H9 C9 1_555 1_555
N1 C1 1_555 1_555
N2 C4 1_555 1_555
N3 N2 1_555 1_555
N4 C6 1_555 1_555
O1 C8 1_555 1_555
S1 C1 1_555 1_555
C2 N1 1_555 1_555
C3 S1 1_555 1_555
C5 N2 1_555 1_555
N3 N4 1_555 1_555

#END
