
#######################################################################
#
#                 Cambridge Crystallographic Data Centre
#                                CCDC 
#
#######################################################################
#
# If this CIF has been generated from an entry in the Cambridge 
# Structural Database, then it will include bibliographic, chemical, 
# crystal, experimental, refinement or atomic coordinate data resulting 
# from the CCDC's data processing and validation procedures.
#
#######################################################################

data_FUHPUV
_chemical_name_common            
'2-(4-Isopropylbenzyl)-2-aza-5,10,15,20-tetraphenyl-21-carbaporphyrin unknown solvate'
_chemical_formula_moiety         'C54 H42 N4'
_chemical_name_systematic        
'4-(4-Isopropylbenzyl)-2,7,12,17-tetraphenyl-4,21,22,23-tetra-azapentacyclo[16.2.1.1^3,6^.1^8,11^.1^13,16^]tetracosa-1,3(24),5,7,9,11(23),12,14,16,18(21),19-undecaene unknown solvate'
_symmetry_cell_setting           monoclinic
_symmetry_space_group_name_H-M   'C 2/c'
_symmetry_Int_Tables_number      15
_space_group_name_Hall           '-C 2yn'
loop_
_symmetry_equiv_pos_site_id
_symmetry_equiv_pos_as_xyz
1 x,y,z
2 -x,y,1/2-z
3 1/2+x,1/2+y,z
4 1/2-x,1/2+y,1/2-z
5 -x,-y,-z
6 x,-y,1/2+z
7 1/2-x,1/2-y,-z
8 1/2+x,1/2-y,1/2+z
_cell_length_a                   34.5067(18)
_cell_length_b                   13.8984(5)
_cell_length_c                   19.9732(9)
_cell_angle_alpha                90
_cell_angle_beta                 109.408(5)
_cell_angle_gamma                90
_cell_volume                     9034.6
_exptl_crystal_colour            blue
_exptl_crystal_description       parallelepiped
_cell_formula_units_Z            8
loop_
_atom_site_label
_atom_site_type_symbol
_atom_site_fract_x
_atom_site_fract_y
_atom_site_fract_z
N1 N 0.12199(6) 0.84318(13) 0.36973(10)
N2 N 0.16059(5) 1.03029(12) 0.36313(9)
H1 H 0.1369 1.0127 0.3640
N3 N 0.08597(5) 1.13211(13) 0.36043(10)
N4 N -0.01854(6) 0.94865(14) 0.32782(10)
C1 C 0.10048(7) 0.76228(16) 0.37907(13)
C2 C 0.12690(8) 0.67810(17) 0.39179(14)
H2 H 0.1199 0.6159 0.4005
C3 C 0.16330(8) 0.70701(16) 0.38853(13)
H3 H 0.1863 0.6689 0.3941
C4 C 0.15955(7) 0.81070(16) 0.37451(12)
C5 C 0.19219(7) 0.86849(15) 0.36793(11)
C6 C 0.19192(6) 0.96815(15) 0.36394(11)
C7 C 0.22563(7) 1.02796(16) 0.36133(12)
H4 H 0.2509 1.0061 0.3605
C8 C 0.21420(7) 1.12059(16) 0.36027(12)
H5 H 0.2306 1.1734 0.3594
C9 C 0.17265(6) 1.12503(15) 0.36069(11)
C10 C 0.15042(6) 1.20801(15) 0.36103(12)
C11 C 0.10973(7) 1.21082(15) 0.36472(11)
C12 C 0.08893(7) 1.29825(17) 0.37476(13)
H6 H 0.0991 1.3607 0.3786
C13 C 0.05195(7) 1.27020(16) 0.37742(13)
H7 H 0.0320 1.3097 0.3847
C14 C 0.04941(7) 1.16687(16) 0.36677(11)
C15 C 0.01534(6) 1.11149(16) 0.36311(11)
C16 C 0.01616(6) 1.00841(16) 0.35905(11)
C17 C 0.04990(7) 0.94778(15) 0.38097(11)
H8 H 0.0770 0.9669 0.4026
C18 C 0.03624(7) 0.85212(15) 0.36505(12)
C19 C -0.00630(7) 0.85811(16) 0.33198(12)
H9 H -0.0236 0.8057 0.3153
C20 C 0.05939(7) 0.76389(16) 0.37457(12)
C21 C 0.22922(7) 0.81569(16) 0.36420(12)
C22 C 0.22721(8) 0.76582(19) 0.30298(13)
H10 H 0.2034 0.7690 0.2636
C23 C 0.26020(9) 0.7113(2) 0.29968(16)
H11 H 0.2582 0.6773 0.2586
C24 C 0.29591(9) 0.70751(19) 0.35731(16)
H12 H 0.3182 0.6716 0.3549
C25 C 0.29858(8) 0.7570(2) 0.41860(16)
H13 H 0.3226 0.7543 0.4575
C26 C 0.26549(8) 0.81082(19) 0.42223(14)
H14 H 0.2675 0.8440 0.4637
C27 C 0.17052(6) 1.30220(16) 0.35696(13)
C28 C 0.17819(7) 1.32751(18) 0.29492(14)
H15 H 0.1713 1.2849 0.2569
C29 C 0.19595(8) 1.41516(19) 0.28917(17)
H16 H 0.2010 1.4310 0.2476
C30 C 0.20621(8) 1.4792(2) 0.34547(19)
H17 H 0.2176 1.5386 0.3414
C31 C 0.19947(8) 1.45454(18) 0.40801(18)
H18 H 0.2067 1.4971 0.4461
C32 C 0.18189(7) 1.36641(17) 0.41391(15)
H19 H 0.1777 1.3501 0.4561
C33 C -0.02232(6) 1.16132(15) 0.36695(12)
C34 C -0.04188(7) 1.23195(17) 0.31765(13)
H20 H -0.0319 1.2473 0.2811
C35 C -0.07628(7) 1.27962(18) 0.32300(15)
H21 H -0.0890 1.3273 0.2905
C36 C -0.09136(8) 1.2555(2) 0.37707(15)
H22 H -0.1143 1.2873 0.3807
C37 C -0.07269(8) 1.1846(2) 0.42552(14)
H23 H -0.0832 1.1684 0.4613
C38 C -0.03817(7) 1.13767(18) 0.42059(12)
H24 H -0.0255 1.0901 0.4533
C39 C 0.03744(7) 0.67378(16) 0.37931(12)
C40 C 0.01427(7) 0.66914(17) 0.42461(14)
H25 H 0.0133 0.7223 0.4523
C41 C -0.00730(8) 0.58690(18) 0.42914(15)
H26 H -0.0226 0.5853 0.4596
C42 C -0.00616(8) 0.50671(18) 0.38834(15)
H27 H -0.0204 0.4511 0.3918
C43 C 0.01619(8) 0.51057(18) 0.34285(14)
H28 H 0.0169 0.4573 0.3151
C44 C 0.03775(8) 0.59295(17) 0.33782(14)
H29 H 0.0526 0.5944 0.3065
C45 C -0.06182(7) 0.97295(17) 0.29297(12)
H30 H -0.0725 0.9356 0.2497
H31 H -0.0639 1.0404 0.2798
C46 C -0.08818(7) 0.95427(17) 0.33917(12)
C47 C -0.12963(8) 0.9790(2) 0.31198(13)
H32 H -0.1398 1.0084 0.2677
C48 C -0.15567(8) 0.9604(2) 0.34987(13)
H33 H -0.1832 0.9772 0.3307
C49 C -0.14139(7) 0.91666(19) 0.41654(13)
C50 C -0.10001(8) 0.89343(19) 0.44385(13)
H34 H -0.0896 0.8654 0.4886
C51 C -0.07364(7) 0.91146(18) 0.40518(13)
H35 H -0.0461 0.8945 0.4241
C52 C -0.17016(8) 0.8971(2) 0.45799(13)
H36 H -0.1534 0.8743 0.5052
C53 C -0.19174(9) 0.9896(2) 0.46821(14)
H37 H -0.1716 1.0380 0.4896
H38 H -0.2077 0.9767 0.4985
H39 H -0.2095 1.0120 0.4230
C54 C -0.20131(8) 0.8183(2) 0.42360(16)
H40 H -0.1870 0.7613 0.4178
H41 H -0.2190 0.8398 0.3780
H42 H -0.2174 0.8043 0.4534
loop_
_geom_bond_atom_site_label_1
_geom_bond_atom_site_label_2
_geom_bond_site_symmetry_1
_geom_bond_site_symmetry_2
N1 C1 1_555 1_555
N2 H1 1_555 1_555
N3 C11 1_555 1_555
N4 C16 1_555 1_555
C1 C2 1_555 1_555
C2 H2 1_555 1_555
C3 C2 1_555 1_555
H3 C3 1_555 1_555
C4 N1 1_555 1_555
C5 C4 1_555 1_555
C6 N2 1_555 1_555
C7 C6 1_555 1_555
H4 C7 1_555 1_555
C8 C7 1_555 1_555
H5 C8 1_555 1_555
C9 N2 1_555 1_555
C10 C9 1_555 1_555
C11 C10 1_555 1_555
C12 C11 1_555 1_555
H6 C12 1_555 1_555
C13 C12 1_555 1_555
H7 C13 1_555 1_555
C14 N3 1_555 1_555
C15 C14 1_555 1_555
C16 C15 1_555 1_555
C17 C16 1_555 1_555
H8 C17 1_555 1_555
C18 C17 1_555 1_555
C19 N4 1_555 1_555
H9 C19 1_555 1_555
C20 C1 1_555 1_555
C21 C5 1_555 1_555
C22 C21 1_555 1_555
H10 C22 1_555 1_555
C23 C22 1_555 1_555
H11 C23 1_555 1_555
C24 C23 1_555 1_555
H12 C24 1_555 1_555
C25 C24 1_555 1_555
H13 C25 1_555 1_555
C26 C21 1_555 1_555
H14 C26 1_555 1_555
C27 C10 1_555 1_555
C28 C27 1_555 1_555
H15 C28 1_555 1_555
C29 C28 1_555 1_555
H16 C29 1_555 1_555
C30 C29 1_555 1_555
H17 C30 1_555 1_555
C31 C30 1_555 1_555
H18 C31 1_555 1_555
C32 C27 1_555 1_555
H19 C32 1_555 1_555
C33 C15 1_555 1_555
C34 C33 1_555 1_555
H20 C34 1_555 1_555
C35 C34 1_555 1_555
H21 C35 1_555 1_555
C36 C35 1_555 1_555
H22 C36 1_555 1_555
C37 C36 1_555 1_555
H23 C37 1_555 1_555
C38 C33 1_555 1_555
H24 C38 1_555 1_555
C39 C20 1_555 1_555
C40 C39 1_555 1_555
H25 C40 1_555 1_555
C41 C40 1_555 1_555
H26 C41 1_555 1_555
C42 C41 1_555 1_555
H27 C42 1_555 1_555
C43 C42 1_555 1_555
H28 C43 1_555 1_555
C44 C39 1_555 1_555
H29 C44 1_555 1_555
C45 N4 1_555 1_555
H30 C45 1_555 1_555
H31 C45 1_555 1_555
C46 C45 1_555 1_555
C47 C46 1_555 1_555
H32 C47 1_555 1_555
C48 C47 1_555 1_555
H33 C48 1_555 1_555
C49 C48 1_555 1_555
C50 C49 1_555 1_555
H34 C50 1_555 1_555
C51 C46 1_555 1_555
H35 C51 1_555 1_555
C52 C49 1_555 1_555
H36 C52 1_555 1_555
C53 C52 1_555 1_555
H37 C53 1_555 1_555
H38 C53 1_555 1_555
H39 C53 1_555 1_555
C54 C52 1_555 1_555
H40 C54 1_555 1_555
H41 C54 1_555 1_555
H42 C54 1_555 1_555
C3 C4 1_555 1_555
C5 C6 1_555 1_555
C8 C9 1_555 1_555
C13 C14 1_555 1_555
C18 C19 1_555 1_555
C18 C20 1_555 1_555
C25 C26 1_555 1_555
C31 C32 1_555 1_555
C37 C38 1_555 1_555
C43 C44 1_555 1_555
C50 C51 1_555 1_555

#END
