
#######################################################################
#
#                 Cambridge Crystallographic Data Centre
#                                CCDC 
#
#######################################################################
#
# If this CIF has been generated from an entry in the Cambridge 
# Structural Database, then it will include bibliographic, chemical, 
# crystal, experimental, refinement or atomic coordinate data resulting 
# from the CCDC's data processing and validation procedures.
#
#######################################################################

data_FUHQOP
_chemical_formula_moiety         'C28 H30 Cl1 N1 O2'
_chemical_name_systematic        
N-[(R)-(2-chlorophenyl)(cyclopentyl)methyl]-N-[(R)-(2-hydroxy-5-methylphenyl)(phenyl)methyl]acetamide
_symmetry_cell_setting           orthorhombic
_symmetry_space_group_name_H-M   'P 21 21 21'
_symmetry_Int_Tables_number      19
_space_group_name_Hall           'P 2ac 2ab'
loop_
_symmetry_equiv_pos_site_id
_symmetry_equiv_pos_as_xyz
1 x,y,z
2 1/2-x,-y,1/2+z
3 -x,1/2+y,1/2-z
4 1/2+x,1/2-y,-z
_cell_length_a                   8.8038(8)
_cell_length_b                   11.3417(10)
_cell_length_c                   25.485(2)
_cell_angle_alpha                90
_cell_angle_beta                 90
_cell_angle_gamma                90
_cell_volume                     2544.68
_exptl_crystal_colour            colorless
_exptl_crystal_description       block
_cell_formula_units_Z            4
_exptl_crystal_recrystallization_method 'n-hexane/ethyl acetate'
loop_
_atom_site_label
_atom_site_type_symbol
_atom_site_fract_x
_atom_site_fract_y
_atom_site_fract_z
Cl1 Cl 0.8441(4) 1.17857(19) 0.06402(7)
O1 O 0.2924(3) 0.8872(3) 0.12767(13)
H1 H 0.2020 0.9041 0.1256
O2 O 1.0028(3) 0.9464(3) 0.13070(14)
N1 N 0.7501(3) 0.9350(2) 0.13768(11)
C1 C 0.3627(4) 0.9125(3) 0.08087(15)
C2 C 0.5208(3) 0.9060(3) 0.08034(14)
C3 C 0.5941(4) 0.9335(3) 0.03418(15)
H2 H 0.6996 0.9297 0.0333
C4 C 0.5179(5) 0.9666(4) -0.01089(15)
C5 C 0.3620(6) 0.9721(4) -0.00895(17)
H3 H 0.3081 0.9942 -0.0387
C6 C 0.2852(4) 0.9457(4) 0.03610(19)
H4 H 0.1797 0.9501 0.0366
C7 C 0.6058(8) 0.9962(6) -0.06040(18)
H5 H 0.6982 0.9512 -0.0613
H6 H 0.6297 1.0788 -0.0607
H7 H 0.5453 0.9773 -0.0906
C8 C 0.6007(3) 0.8750(3) 0.13155(14)
H8 H 0.5365 0.9094 0.1590
C9 C 0.6029(4) 0.7431(4) 0.14369(18)
C10 C 0.5359(5) 0.6629(4) 0.1108(3)
H9 H 0.4909 0.6891 0.0799
C11 C 0.5336(7) 0.5430(5) 0.1227(4)
H10 H 0.4850 0.4906 0.1003
C12 C 0.6012(8) 0.5029(6) 0.1664(4)
H11 H 0.6032 0.4224 0.1733
C13 C 0.6684(7) 0.5812(6) 0.2016(3)
H12 H 0.7133 0.5534 0.2322
C14 C 0.6677(5) 0.7034(5) 0.1903(2)
H13 H 0.7102 0.7568 0.2139
C15 C 0.8845(4) 0.8931(4) 0.12091(16)
C16 C 0.8935(4) 0.7808(4) 0.0899(2)
H14 H 0.9720 0.7875 0.0639
H15 H 0.7979 0.7666 0.0729
H16 H 0.9162 0.7163 0.1130
C17 C 0.7476(4) 1.0531(3) 0.16311(13)
H17 H 0.8468 1.0892 0.1564
C18 C 0.6322(6) 1.1299(4) 0.13737(15)
C19 C 0.6669(10) 1.1861(4) 0.0904(2)
C20 C 0.5516(12) 1.2498(6) 0.0618(3)
H18 H 0.5730 1.2880 0.0304
C21 C 0.4125(12) 1.2510(7) 0.0828(4)
H19 H 0.3363 1.2890 0.0640
C22 C 0.3740(9) 1.2019(6) 0.1287(4)
H20 H 0.2755 1.2079 0.1416
C23 C 0.4846(6) 1.1424(5) 0.1564(3)
H21 H 0.4599 1.1095 0.1887
C24 C 0.7295(5) 1.0460(4) 0.22294(17)
H22 H 0.6317 1.0095 0.2316
C25 C 0.8582(7) 0.9781(6) 0.24986(19)
H23 H 0.8233 0.8997 0.2591
H24 H 0.9432 0.9701 0.2259
C26 C 0.9037(9) 1.0362(7) 0.2938(3)
H25 H 1.0137 1.0356 0.2958
H26 H 0.8646 0.9959 0.3246
C27 C 0.8506(8) 1.1554(7) 0.2936(2)
H27 H 0.9355 1.2091 0.2893
H28 H 0.8008 1.1733 0.3266
C28 C 0.7391(7) 1.1699(5) 0.24837(19)
H29 H 0.7759 1.2276 0.2233
H30 H 0.6404 1.1948 0.2611
loop_
_geom_bond_atom_site_label_1
_geom_bond_atom_site_label_2
_geom_bond_site_symmetry_1
_geom_bond_site_symmetry_2
Cl1 C19 1_555 1_555
O1 H1 1_555 1_555
O2 C15 1_555 1_555
N1 C8 1_555 1_555
C1 O1 1_555 1_555
C2 C1 1_555 1_555
C3 C2 1_555 1_555
H2 C3 1_555 1_555
C4 C3 1_555 1_555
C5 C4 1_555 1_555
H3 C5 1_555 1_555
C6 C1 1_555 1_555
H4 C6 1_555 1_555
C7 C4 1_555 1_555
H5 C7 1_555 1_555
H6 C7 1_555 1_555
H7 C7 1_555 1_555
C8 C2 1_555 1_555
H8 C8 1_555 1_555
C9 C8 1_555 1_555
C10 C9 1_555 1_555
H9 C10 1_555 1_555
C11 C10 1_555 1_555
H10 C11 1_555 1_555
C12 C11 1_555 1_555
H11 C12 1_555 1_555
C13 C12 1_555 1_555
H12 C13 1_555 1_555
C14 C9 1_555 1_555
H13 C14 1_555 1_555
C15 N1 1_555 1_555
C16 C15 1_555 1_555
H14 C16 1_555 1_555
H15 C16 1_555 1_555
H16 C16 1_555 1_555
C17 N1 1_555 1_555
H17 C17 1_555 1_555
C18 C17 1_555 1_555
C19 C18 1_555 1_555
C20 C19 1_555 1_555
H18 C20 1_555 1_555
C21 C20 1_555 1_555
H19 C21 1_555 1_555
C22 C21 1_555 1_555
H20 C22 1_555 1_555
C23 C18 1_555 1_555
H21 C23 1_555 1_555
C24 C17 1_555 1_555
H22 C24 1_555 1_555
C25 C24 1_555 1_555
H23 C25 1_555 1_555
H24 C25 1_555 1_555
C26 C25 1_555 1_555
H25 C26 1_555 1_555
H26 C26 1_555 1_555
C27 C26 1_555 1_555
H27 C27 1_555 1_555
H28 C27 1_555 1_555
C28 C24 1_555 1_555
H29 C28 1_555 1_555
H30 C28 1_555 1_555
C5 C6 1_555 1_555
C13 C14 1_555 1_555
C22 C23 1_555 1_555
C27 C28 1_555 1_555

#END
