
#######################################################################
#
#                 Cambridge Crystallographic Data Centre
#                                CCDC 
#
#######################################################################
#
# If this CIF has been generated from an entry in the Cambridge 
# Structural Database, then it will include bibliographic, chemical, 
# crystal, experimental, refinement or atomic coordinate data resulting 
# from the CCDC's data processing and validation procedures.
#
#######################################################################

data_FUHQEF
_chemical_formula_moiety         'C16 H8 Cl2 F2 N4 O2 S1'
_chemical_name_systematic        
N-(N-[5-(2,4-Dichlorophenyl)-1,3,4-thiadiazol-2-yl]carbamoyl)-2,6-difluorobenzamide
_symmetry_cell_setting           monoclinic
_symmetry_space_group_name_H-M   'P 21/c'
_symmetry_Int_Tables_number      14
_space_group_name_Hall           '-P 2ybc'
loop_
_symmetry_equiv_pos_site_id
_symmetry_equiv_pos_as_xyz
1 x,y,z
2 -x,1/2+y,1/2-z
3 -x,-y,-z
4 x,1/2-y,1/2+z
_cell_length_a                   8.1600(16)
_cell_length_b                   7.6100(15)
_cell_length_c                   27.102(5)
_cell_angle_alpha                90
_cell_angle_beta                 92.42(3)
_cell_angle_gamma                90
_cell_volume                     1681.47
_exptl_crystal_colour            yellow
_exptl_crystal_description       block
_chemical_melting_point          '498 K'
_cell_formula_units_Z            4
_exptl_crystal_recrystallization_method dimethylformamide/water
loop_
_atom_site_label
_atom_site_type_symbol
_atom_site_fract_x
_atom_site_fract_y
_atom_site_fract_z
S1 S 0.24677(10) 0.99323(10) 0.44933(3)
Cl1 Cl 0.07127(15) 1.02058(11) 0.34523(3)
Cl2 Cl -0.13977(11) 1.65344(11) 0.29072(3)
F1 F 0.6408(2) 0.7102(3) 0.70051(7)
F2 F 0.4085(3) 0.2644(2) 0.60078(7)
O1 O 0.3906(3) 0.7670(3) 0.63370(8)
O2 O 0.3952(3) 0.6786(3) 0.48524(7)
N1 N 0.4499(3) 0.6085(3) 0.56566(8)
H1 H 0.4957 0.5131 0.5562
N2 N 0.3126(3) 0.8663(3) 0.54369(9)
H2 H 0.3102 0.8843 0.5750
N3 N 0.1602(3) 1.1185(3) 0.53201(9)
N4 N 0.0980(3) 1.2319(3) 0.49659(9)
C1 C 0.6387(4) 0.2440(5) 0.71587(13)
H3 H 0.6765 0.1602 0.7386
C2 C 0.5527(4) 0.1908(4) 0.67364(13)
H4 H 0.5324 0.0724 0.6675
C3 C 0.4981(4) 0.3162(4) 0.64105(11)
C4 C 0.5219(3) 0.4949(4) 0.64808(10)
C5 C 0.6099(4) 0.5392(4) 0.69135(11)
C6 C 0.6695(4) 0.4191(5) 0.72498(12)
H5 H 0.7292 0.4546 0.7532
C7 C 0.4482(4) 0.6364(4) 0.61606(10)
C8 C 0.3853(4) 0.7180(4) 0.52848(11)
C9 C 0.2414(3) 0.9916(4) 0.51268(10)
C10 C 0.1319(3) 1.1852(4) 0.45196(10)
C11 C 0.0728(3) 1.2949(4) 0.40993(10)
C12 C 0.0397(4) 1.2367(4) 0.36183(11)
C13 C -0.0232(4) 1.3465(4) 0.32543(11)
H6 H -0.0431 1.3052 0.2934
C14 C -0.0561(4) 1.5183(4) 0.33714(10)
C15 C -0.0260(4) 1.5824(4) 0.38409(11)
H7 H -0.0488 1.6988 0.3916
C16 C 0.0386(4) 1.4703(4) 0.41965(11)
H8 H 0.0601 1.5134 0.4514
loop_
_geom_bond_atom_site_label_1
_geom_bond_atom_site_label_2
_geom_bond_site_symmetry_1
_geom_bond_site_symmetry_2
S1 C9 1_555 1_555
Cl1 C12 1_555 1_555
Cl2 C14 1_555 1_555
F1 C5 1_555 1_555
F2 C3 1_555 1_555
O1 C7 1_555 1_555
O2 C8 1_555 1_555
N1 H1 1_555 1_555
N2 H2 1_555 1_555
N3 N4 1_555 1_555
N4 C10 1_555 1_555
C1 H3 1_555 1_555
C2 C1 1_555 1_555
H4 C2 1_555 1_555
C3 C2 1_555 1_555
C4 C3 1_555 1_555
C5 C4 1_555 1_555
C6 C1 1_555 1_555
H5 C6 1_555 1_555
C7 N1 1_555 1_555
C8 N1 1_555 1_555
C9 N2 1_555 1_555
C10 S1 1_555 1_555
C11 C10 1_555 1_555
C12 C11 1_555 1_555
C13 C12 1_555 1_555
H6 C13 1_555 1_555
C14 C13 1_555 1_555
C15 C14 1_555 1_555
H7 C15 1_555 1_555
C16 C11 1_555 1_555
H8 C16 1_555 1_555
N2 C8 1_555 1_555
N3 C9 1_555 1_555
C4 C7 1_555 1_555
C5 C6 1_555 1_555
C15 C16 1_555 1_555

#END
