
#######################################################################
#
#                 Cambridge Crystallographic Data Centre
#                                CCDC 
#
#######################################################################
#
# If this CIF has been generated from an entry in the Cambridge 
# Structural Database, then it will include bibliographic, chemical, 
# crystal, experimental, refinement or atomic coordinate data resulting 
# from the CCDC's data processing and validation procedures.
#
#######################################################################

data_FUJCUI
_chemical_name_common            'Cesium-bis(18-crown-6) ceside'
_chemical_formula_moiety         'C24 H48 Cs1 O12 1+,Cs1 1-'
_chemical_name_systematic        
"Cesium-bis(1,4,7,10,13,16-hexaoxacyclo-octadecane-O,O',O'',O''',O'''',O''''') ceside"
_symmetry_cell_setting           orthorhombic
_symmetry_space_group_name_H-M   'P b c a'
_symmetry_Int_Tables_number      61
_space_group_name_Hall           '-P 2ac 2ab'
loop_
_symmetry_equiv_pos_site_id
_symmetry_equiv_pos_as_xyz
1 x,y,z
2 1/2-x,-y,1/2+z
3 1/2+x,1/2-y,-z
4 -x,1/2+y,1/2-z
5 -x,-y,-z
6 1/2+x,y,1/2-z
7 1/2-x,1/2+y,z
8 x,1/2-y,1/2+z
_cell_length_a                   16.212(8)
_cell_length_b                   16.374(6)
_cell_length_c                   31.315(14)
_cell_angle_alpha                90
_cell_angle_beta                 90
_cell_angle_gamma                90
_cell_volume                     8312.73
_exptl_crystal_colour            bronze
_chemical_melting_point          -20deg.C(dec.)
_cell_formula_units_Z            8
_chemical_properties_physical    'air- and moisture-sensitive'
loop_
_atom_site_label
_atom_site_type_symbol
_atom_site_fract_x
_atom_site_fract_y
_atom_site_fract_z
Cs1 Cs 0.34763(4) 0.42001(3) 0.36264(2)
O1 O 0.4636(5) 0.5064(4) 0.4312(2)
O2 O 0.5077(5) 0.5372(4) 0.3433(3)
O3 O 0.3824(5) 0.5604(4) 0.2809(2)
O4 O 0.2260(5) 0.4780(4) 0.2890(2)
O5 O 0.1829(4) 0.5353(3) 0.3710(2)
O6 O 0.3044(5) 0.5816(4) 0.4324(2)
O7 O 0.2389(5) 0.3601(4) 0.4383(2)
O8 O 0.1887(5) 0.2994(4) 0.3561(3)
O9 O 0.3060(5) 0.2581(4) 0.2921(2)
O10 O 0.4609(6) 0.3390(4) 0.2906(3)
O11 O 0.5152(5) 0.3048(4) 0.3755(3)
O12 O 0.3970(5) 0.2826(4) 0.4419(2)
C1 C 0.5458(9) 0.5090(8) 0.4142(5)
C2 C 0.5552(8) 0.5658(7) 0.3771(4)
C3 C 0.5151(7) 0.5891(6) 0.3072(4)
C4 C 0.4660(8) 0.5557(6) 0.2720(4)
C5 C 0.3314(8) 0.5337(6) 0.2461(3)
C6 C 0.2441(9) 0.5365(7) 0.2582(3)
C7 C 0.1442(7) 0.4824(6) 0.3051(4)
C8 C 0.1317(7) 0.5500(6) 0.3357(4)
C9 C 0.1711(7) 0.5952(5) 0.4043(4)
C10 C 0.2213(8) 0.5729(7) 0.4434(3)
C11 C 0.3562(8) 0.5664(6) 0.4688(3)
C12 C 0.4430(9) 0.5756(7) 0.4555(4)
C13 C 0.1575(7) 0.3491(6) 0.4252(4)
C14 C 0.1424(8) 0.2817(6) 0.3936(4)
C15 C 0.1755(7) 0.2393(6) 0.3240(4)
C16 C 0.2221(8) 0.2639(6) 0.2852(3)
C17 C 0.353(1) 0.2775(7) 0.2546(4)
C18 C 0.439(1) 0.2727(7) 0.2649(4)
C19 C 0.5440(9) 0.3389(7) 0.3043(5)
C20 C 0.5597(9) 0.2791(8) 0.3383(5)
C21 C 0.5255(8) 0.2539(7) 0.4097(4)
C22 C 0.4847(8) 0.2837(7) 0.4484(4)
C23 C 0.3549(9) 0.3105(7) 0.4777(3)
C24 C 0.265(1) 0.3028(7) 0.4706(3)
H1 H 0.563 0.455 0.407
H2 H 0.580 0.530 0.436
H3 H 0.541 0.621 0.384
H4 H 0.611 0.563 0.368
H5 H 0.571 0.592 0.299
H6 H 0.496 0.642 0.314
H7 H 0.477 0.586 0.247
H8 H 0.480 0.500 0.267
H9 H 0.346 0.479 0.239
H10 H 0.340 0.568 0.222
H11 H 0.231 0.589 0.269
H12 H 0.212 0.525 0.233
H13 H 0.131 0.432 0.319
H14 H 0.108 0.490 0.282
H15 H 0.146 0.601 0.323
H16 H 0.076 0.552 0.344
H17 H 0.114 0.598 0.411
H18 H 0.189 0.647 0.394
H19 H 0.208 0.609 0.466
H20 H 0.210 0.518 0.452
H21 H 0.346 0.513 0.480
H22 H 0.345 0.605 0.490
H23 H 0.452 0.625 0.440
H24 H 0.477 0.576 0.480
H25 H 0.138 0.399 0.413
H26 H 0.126 0.337 0.450
H27 H 0.159 0.231 0.405
H28 H 0.085 0.280 0.387
H29 H 0.119 0.237 0.317
H30 H 0.193 0.187 0.334
H31 H 0.207 0.228 0.263
H32 H 0.209 0.319 0.278
H33 H 0.338 0.330 0.245
H34 H 0.341 0.238 0.233
H35 H 0.450 0.223 0.280
H36 H 0.471 0.274 0.239
H37 H 0.558 0.391 0.315
H38 H 0.578 0.326 0.281
H39 H 0.538 0.228 0.330
H40 H 0.617 0.274 0.344
H41 H 0.583 0.248 0.415
H42 H 0.503 0.202 0.403
H43 H 0.499 0.251 0.472
H44 H 0.502 0.338 0.454
H45 H 0.370 0.365 0.484
H46 H 0.369 0.277 0.501
H47 H 0.251 0.249 0.462
H48 H 0.237 0.315 0.496
Cs2 Cs 0.35442(8) 0.42456(9) 0.09779(3)
loop_
_geom_bond_atom_site_label_1
_geom_bond_atom_site_label_2
_geom_bond_site_symmetry_1
_geom_bond_site_symmetry_2
Cs1 O1 1_555 1_555
O1 C1 1_555 1_555
O2 Cs1 1_555 1_555
O3 Cs1 1_555 1_555
O4 Cs1 1_555 1_555
O5 Cs1 1_555 1_555
O6 Cs1 1_555 1_555
O7 Cs1 1_555 1_555
O8 Cs1 1_555 1_555
O9 Cs1 1_555 1_555
O10 Cs1 1_555 1_555
O11 Cs1 1_555 1_555
O12 Cs1 1_555 1_555
C1 C2 1_555 1_555
C2 O2 1_555 1_555
C3 O2 1_555 1_555
C4 O3 1_555 1_555
C5 O3 1_555 1_555
C6 O4 1_555 1_555
C7 O4 1_555 1_555
C8 O5 1_555 1_555
C9 O5 1_555 1_555
C10 O6 1_555 1_555
C11 O6 1_555 1_555
C12 O1 1_555 1_555
C13 O7 1_555 1_555
C14 O8 1_555 1_555
C15 O8 1_555 1_555
C16 O9 1_555 1_555
C17 O9 1_555 1_555
C18 O10 1_555 1_555
C19 O10 1_555 1_555
C20 O11 1_555 1_555
C21 O11 1_555 1_555
C22 O12 1_555 1_555
C23 O12 1_555 1_555
C24 O7 1_555 1_555
H1 C1 1_555 1_555
H2 C1 1_555 1_555
H3 C2 1_555 1_555
H4 C2 1_555 1_555
H5 C3 1_555 1_555
H6 C3 1_555 1_555
H7 C4 1_555 1_555
H8 C4 1_555 1_555
H9 C5 1_555 1_555
H10 C5 1_555 1_555
H11 C6 1_555 1_555
H12 C6 1_555 1_555
H13 C7 1_555 1_555
H14 C7 1_555 1_555
H15 C8 1_555 1_555
H16 C8 1_555 1_555
H17 C9 1_555 1_555
H18 C9 1_555 1_555
H19 C10 1_555 1_555
H20 C10 1_555 1_555
H21 C11 1_555 1_555
H22 C11 1_555 1_555
H23 C12 1_555 1_555
H24 C12 1_555 1_555
H25 C13 1_555 1_555
H26 C13 1_555 1_555
H27 C14 1_555 1_555
H28 C14 1_555 1_555
H29 C15 1_555 1_555
H30 C15 1_555 1_555
H31 C16 1_555 1_555
H32 C16 1_555 1_555
H33 C17 1_555 1_555
H34 C17 1_555 1_555
H35 C18 1_555 1_555
H36 C18 1_555 1_555
H37 C19 1_555 1_555
H38 C19 1_555 1_555
H39 C20 1_555 1_555
H40 C20 1_555 1_555
H41 C21 1_555 1_555
H42 C21 1_555 1_555
H43 C22 1_555 1_555
H44 C22 1_555 1_555
H45 C23 1_555 1_555
H46 C23 1_555 1_555
H47 C24 1_555 1_555
H48 C24 1_555 1_555
C3 C4 1_555 1_555
C5 C6 1_555 1_555
C7 C8 1_555 1_555
C9 C10 1_555 1_555
C11 C12 1_555 1_555
C13 C14 1_555 1_555
C15 C16 1_555 1_555
C17 C18 1_555 1_555
C19 C20 1_555 1_555
C21 C22 1_555 1_555
C23 C24 1_555 1_555

#END
