
#######################################################################
#
#                 Cambridge Crystallographic Data Centre
#                                CCDC 
#
#######################################################################
#
# If this CIF has been generated from an entry in the Cambridge 
# Structural Database, then it will include bibliographic, chemical, 
# crystal, experimental, refinement or atomic coordinate data resulting 
# from the CCDC's data processing and validation procedures.
#
#######################################################################

data_FUJDAP
_chemical_name_common            'Cesium-(cryptand(2.2.2)) ceside'
_chemical_formula_moiety         'C18 H36 Cs1 N2 O6 1+,Cs1 1-'
_chemical_name_systematic        
"Cesium-(4,7,13,16,21,24-Hexaoxa-1,10-diazabicyclo(8.8.8)hexacosane-O,O',O'',O''',O'''',O''''',N,N') ceside"
_symmetry_cell_setting           monoclinic
_symmetry_space_group_name_H-M   'P 21/n'
_symmetry_Int_Tables_number      14
_space_group_name_Hall           '-P 2yn'
loop_
_symmetry_equiv_pos_site_id
_symmetry_equiv_pos_as_xyz
1 x,y,z
2 1/2-x,1/2+y,1/2-z
3 -x,-y,-z
4 1/2+x,1/2-y,1/2+z
_cell_length_a                   13.371(2)
_cell_length_b                   11.252(2)
_cell_length_c                   21.529(3)
_cell_angle_alpha                90
_cell_angle_beta                 94.80(1)
_cell_angle_gamma                90
_cell_volume                     3227.69
_exptl_crystal_colour            bronze
_chemical_melting_point          -20deg.C(dec.)
_cell_formula_units_Z            4
_chemical_properties_physical    'air- and moisture-sensitive'
loop_
_atom_site_label
_atom_site_type_symbol
_atom_site_fract_x
_atom_site_fract_y
_atom_site_fract_z
Cs1 Cs 0.2363(1) 0.0587(2) 0.58667(7)
O1 O 0.345(1) 0.276(1) 0.6304(7)
O2 O 0.459(1) 0.063(2) 0.5946(7)
O3 O 0.220(1) -0.136(1) 0.6801(7)
O4 O 0.082(1) 0.066(2) 0.6780(6)
O5 O 0.114(1) 0.155(2) 0.4818(7)
O6 O 0.194(1) -0.081(1) 0.4703(6)
N1 N 0.117(1) 0.290(2) 0.6012(8)
N2 N 0.345(2) -0.178(2) 0.5732(9)
C1 C 0.187(1) 0.379(2) 0.629(1)
C2 C 0.293(2) 0.376(2) 0.608(1)
C3 C 0.444(2) 0.270(2) 0.615(1)
C4 C 0.490(2) 0.158(2) 0.635(1)
C5 C 0.496(2) -0.048(2) 0.612(1)
C6 C 0.453(2) -0.146(2) 0.571(1)
C7 C 0.332(2) -0.254(2) 0.625(1)
C8 C 0.232(2) -0.248(2) 0.649(1)
C9 C 0.130(2) -0.132(2) 0.708(1)
C10 C 0.107(2) -0.006(2) 0.7288(9)
C11 C 0.068(2) 0.190(3) 0.696(1)
C12 C 0.040(2) 0.263(2) 0.641(1)
C13 C 0.082(2) 0.336(2) 0.538(1)
C14 C 0.038(2) 0.239(2) 0.495(1)
C15 C 0.082(2) 0.077(3) 0.432(1)
C16 C 0.172(2) -0.002(2) 0.4214(9)
C17 C 0.279(2) -0.149(2) 0.461(1)
C18 C 0.304(2) -0.231(2) 0.513(1)
H1 H 0.192 0.365 0.672
H2 H 0.159 0.456 0.620
H3 H 0.288 0.372 0.563
H4 H 0.329 0.446 0.621
H5 H 0.482 0.334 0.633
H6 H 0.444 0.274 0.571
H7 H 0.561 0.164 0.637
H8 H 0.469 0.142 0.675
H9 H 0.475 -0.065 0.652
H10 H 0.567 -0.052 0.614
H11 H 0.458 -0.115 0.531
H12 H 0.492 -0.217 0.576
H13 H 0.380 -0.230 0.657
H14 H 0.344 -0.334 0.613
H15 H 0.184 -0.252 0.614
H16 H 0.222 -0.312 0.677
H17 H 0.133 -0.184 0.743
H18 H 0.076 -0.154 0.679
H19 H 0.053 -0.008 0.755
H20 H 0.166 0.023 0.752
H21 H 0.129 0.221 0.715
H22 H 0.018 0.194 0.724
H23 H -0.011 0.220 0.617
H24 H 0.013 0.336 0.654
H25 H 0.135 0.374 0.519
H26 H 0.031 0.391 0.544
H27 H -0.014 0.199 0.515
H28 H 0.012 0.273 0.457
H29 H 0.059 0.121 0.396
H30 H 0.029 0.027 0.444
H31 H 0.156 -0.044 0.384
H32 H 0.228 0.048 0.417
H33 H 0.333 -0.096 0.458
H34 H 0.267 -0.193 0.424
H35 H 0.247 -0.278 0.519
H36 H 0.357 -0.281 0.501
Cs2 Cs 0.7442(2) 0.0689(3) 0.8196(1)
loop_
_geom_bond_atom_site_label_1
_geom_bond_atom_site_label_2
_geom_bond_site_symmetry_1
_geom_bond_site_symmetry_2
Cs1 O1 1_555 1_555
O1 C2 1_555 1_555
O2 Cs1 1_555 1_555
O3 Cs1 1_555 1_555
O4 Cs1 1_555 1_555
O5 Cs1 1_555 1_555
O6 Cs1 1_555 1_555
N1 Cs1 1_555 1_555
N2 Cs1 1_555 1_555
C1 N1 1_555 1_555
C2 C1 1_555 1_555
C3 O1 1_555 1_555
C4 O2 1_555 1_555
C5 O2 1_555 1_555
C6 N2 1_555 1_555
C7 N2 1_555 1_555
C8 O3 1_555 1_555
C9 O3 1_555 1_555
C10 O4 1_555 1_555
C11 O4 1_555 1_555
C12 N1 1_555 1_555
C13 N1 1_555 1_555
C14 O5 1_555 1_555
C15 O5 1_555 1_555
C16 O6 1_555 1_555
C17 O6 1_555 1_555
C18 N2 1_555 1_555
H1 C1 1_555 1_555
H2 C1 1_555 1_555
H3 C2 1_555 1_555
H4 C2 1_555 1_555
H5 C3 1_555 1_555
H6 C3 1_555 1_555
H7 C4 1_555 1_555
H8 C4 1_555 1_555
H9 C5 1_555 1_555
H10 C5 1_555 1_555
H11 C6 1_555 1_555
H12 C6 1_555 1_555
H13 C7 1_555 1_555
H14 C7 1_555 1_555
H15 C8 1_555 1_555
H16 C8 1_555 1_555
H17 C9 1_555 1_555
H18 C9 1_555 1_555
H19 C10 1_555 1_555
H20 C10 1_555 1_555
H21 C11 1_555 1_555
H22 C11 1_555 1_555
H23 C12 1_555 1_555
H24 C12 1_555 1_555
H25 C13 1_555 1_555
H26 C13 1_555 1_555
H27 C14 1_555 1_555
H28 C14 1_555 1_555
H29 C15 1_555 1_555
H30 C15 1_555 1_555
H31 C16 1_555 1_555
H32 C16 1_555 1_555
H33 C17 1_555 1_555
H34 C17 1_555 1_555
H35 C18 1_555 1_555
H36 C18 1_555 1_555
C3 C4 1_555 1_555
C5 C6 1_555 1_555
C7 C8 1_555 1_555
C9 C10 1_555 1_555
C11 C12 1_555 1_555
C13 C14 1_555 1_555
C15 C16 1_555 1_555
C17 C18 1_555 1_555

#END
