
#######################################################################
#
#                 Cambridge Crystallographic Data Centre
#                                CCDC 
#
#######################################################################
#
# If this CIF has been generated from an entry in the Cambridge 
# Structural Database, then it will include bibliographic, chemical, 
# crystal, experimental, refinement or atomic coordinate data resulting 
# from the CCDC's data processing and validation procedures.
#
#######################################################################

data_FUJFEW
_chemical_formula_moiety         'C13 H7 F6 N3'
_chemical_name_systematic        
2,4-bis(trifluoromethyl)-9-methyl-pyrimido[4,5-b]indole
_symmetry_cell_setting           monoclinic
_symmetry_space_group_name_H-M   'P 21'
_symmetry_Int_Tables_number      4
_space_group_name_Hall           'P 2yb'
loop_
_symmetry_equiv_pos_site_id
_symmetry_equiv_pos_as_xyz
1 x,y,z
2 -x,1/2+y,-z
_cell_length_a                   9.6729(19)
_cell_length_b                   7.0980(14)
_cell_length_c                   10.370(2)
_cell_angle_alpha                90
_cell_angle_beta                 113.51(3)
_cell_angle_gamma                90
_cell_volume                     652.884
_exptl_crystal_colour            yellow
_exptl_crystal_description       needle
_chemical_melting_point          '452-453 K'
_cell_formula_units_Z            2
loop_
_atom_site_label
_atom_site_type_symbol
_atom_site_fract_x
_atom_site_fract_y
_atom_site_fract_z
F1 F 0.3621(7) 0.0463(13) 0.2262(7)
N1 N 0.6502(5) 0.1820(10) 0.3754(4)
N2 N 0.8902(5) 0.1804(8) 0.5689(4)
N3 N 0.6562(5) 0.1832(11) 0.1458(4)
F2 F 0.9577(12) 0.0305(13) 0.1085(9)
F3 F 0.7829(6) 0.1701(17) -0.0316(5)
C1 C 0.8905(5) 0.1784(10) 0.3483(5)
C2 C 0.8080(6) 0.1690(10) 0.2043(5)
C3 C 1.0453(5) 0.1774(11) 0.4502(5)
C4 C 0.8004(5) 0.1784(11) 0.4285(4)
C5 C 1.0391(6) 0.1830(11) 0.5829(5)
C6 C 1.1670(6) 0.1771(12) 0.7082(6)
H1 H 1.1603 0.1756 0.7952
C7 C 1.3136(7) 0.1766(15) 0.5665(9)
H2 H 1.4081 0.1753 0.5628
F4 F 0.3633(8) 0.3275(14) 0.1798(19)
C8 C 0.8796(7) 0.1698(14) 0.0994(6)
F5 F 0.9702(11) 0.3233(12) 0.1188(9)
C9 C 0.5888(6) 0.1762(14) 0.2361(6)
C10 C 1.1855(7) 0.1817(12) 0.4413(8)
H3 H 1.1931 0.1878 0.3548
C11 C 0.8327(8) 0.1818(17) 0.6787(6)
H4 H 0.9156 0.1851 0.7690
H5 H 0.7740 0.0703 0.6716
H6 H 0.7706 0.2911 0.6681
C12 C 1.3045(8) 0.1735(15) 0.6966(8)
H7 H 1.3927 0.1689 0.7777
C13 C 0.4171(9) 0.191(2) 0.1769(8)
F6 F 0.3612(9) 0.1312(12) 0.0411(8)
loop_
_geom_bond_atom_site_label_1
_geom_bond_atom_site_label_2
_geom_bond_site_symmetry_1
_geom_bond_site_symmetry_2
F1 C13 1_555 1_555
N1 C4 1_555 1_555
N2 C4 1_555 1_555
N3 C2 1_555 1_555
F2 C8 1_555 1_555
F3 C8 1_555 1_555
C1 C2 1_555 1_555
C2 C8 1_555 1_555
C3 C1 1_555 1_555
C4 C1 1_555 1_555
C5 N2 1_555 1_555
C6 C5 1_555 1_555
H1 C6 1_555 1_555
C7 H2 1_555 1_555
F4 C13 1_555 1_555
C8 F5 1_555 1_555
C9 N1 1_555 1_555
C10 C3 1_555 1_555
H3 C10 1_555 1_555
C11 N2 1_555 1_555
H4 C11 1_555 1_555
H5 C11 1_555 1_555
H6 C11 1_555 1_555
C12 C6 1_555 1_555
H7 C12 1_555 1_555
C13 C9 1_555 1_555
F6 C13 1_555 1_555
N3 C9 1_555 1_555
C3 C5 1_555 1_555
C7 C10 1_555 1_555
C7 C12 1_555 1_555

#END
