
#######################################################################
#
#                 Cambridge Crystallographic Data Centre
#                                CCDC 
#
#######################################################################
#
# If this CIF has been generated from an entry in the Cambridge 
# Structural Database, then it will include bibliographic, chemical, 
# crystal, experimental, refinement or atomic coordinate data resulting 
# from the CCDC's data processing and validation procedures.
#
#######################################################################

data_FUJJEB
_chemical_formula_moiety         'C15 H16 O7 S1,H2 O1'
_chemical_name_systematic        
'2-hydroxy-3-(((5-hydroxy-7-methoxy-2-methyl-4-oxo-4H-chromen-6-yl)methyl)sulfanyl)propanoic acid monohydrate'
_symmetry_cell_setting           orthorhombic
_symmetry_space_group_name_H-M   'P 21 21 21'
_symmetry_Int_Tables_number      19
_space_group_name_Hall           'P 2ac 2ab'
loop_
_symmetry_equiv_pos_site_id
_symmetry_equiv_pos_as_xyz
1 x,y,z
2 1/2-x,-y,1/2+z
3 -x,1/2+y,1/2-z
4 1/2+x,1/2-y,-z
_cell_length_a                   4.5675(5)
_cell_length_b                   7.6532(8)
_cell_length_c                   45.491(3)
_cell_angle_alpha                90
_cell_angle_beta                 90
_cell_angle_gamma                90
_cell_volume                     1590.18
_exptl_crystal_colour            'light yellow'
_cell_formula_units_Z            4
loop_
_atom_site_label
_atom_site_type_symbol
_atom_site_fract_x
_atom_site_fract_y
_atom_site_fract_z
O1 O 1.1853(6) 0.4982(4) 0.94241(5)
O2 O 1.0403(7) -0.0246(4) 0.95010(6)
O3 O 1.4045(8) -0.0771(3) 0.90708(6)
H1 H 1.2896 -0.1009 0.9203
O4 O 1.8675(7) 0.4099(3) 0.86532(6)
O5 O 1.5063(8) 0.4542(4) 0.75876(6)
O6 O 1.3957(8) 0.5334(4) 0.80433(6)
H2 H 1.3181 0.6164 0.7960
O7 O 1.8243(6) 0.1769(3) 0.77747(6)
H3 H 1.7060 0.1331 0.7661
S1 S 1.5831(2) -0.02551(12) 0.83341(2)
C1 C 0.9952(10) 0.4336(6) 0.96278(9)
C2 C 0.9415(10) 0.2634(5) 0.96569(9)
H4 H 0.8087 0.2256 0.9798
C3 C 1.0866(10) 0.1364(5) 0.94720(8)
C4 C 1.2849(9) 0.2055(5) 0.92583(8)
C5 C 1.4426(10) 0.0987(5) 0.90582(9)
C6 C 1.6314(9) 0.1686(4) 0.88557(7)
C7 C 1.6702(9) 0.3515(5) 0.88520(8)
C8 C 1.5221(8) 0.4601(5) 0.90422(7)
H5 H 1.5514 0.5803 0.9038
C9 C 1.3286(9) 0.3858(5) 0.92402(8)
C10 C 0.8623(13) 0.5782(6) 0.97994(10)
H6 H 0.7069 0.5330 0.9919
H7 H 0.7853 0.6645 0.9667
H8 H 1.0087 0.6306 0.9922
C11 C 1.7965(9) 0.0547(5) 0.86460(9)
H9 H 1.8726 -0.0450 0.8753
H10 H 1.9626 0.1199 0.8571
C12 C 1.9116(12) 0.5937(5) 0.86320(10)
H11 H 1.7290 0.6498 0.8587
H12 H 2.0504 0.6180 0.8479
H13 H 1.9850 0.6372 0.8816
C13 C 1.5201(9) 0.4315(5) 0.78471(9)
C14 C 1.6742(9) 0.2766(5) 0.79870(8)
H14 H 1.8198 0.3225 0.8125
C15 C 1.4512(9) 0.1712(5) 0.81640(8)
H15 H 1.2906 0.1404 0.8034
H16 H 1.3724 0.2462 0.8317
O8 O 1.0706(10) 0.7788(4) 0.78503(7)
H17 H 1.0480 0.7645 0.7666
H18 H 0.9205 0.8301 0.7919
loop_
_geom_bond_atom_site_label_1
_geom_bond_atom_site_label_2
_geom_bond_site_symmetry_1
_geom_bond_site_symmetry_2
O1 C1 1_555 1_555
O2 C3 1_555 1_555
O3 H1 1_555 1_555
O4 C7 1_555 1_555
O5 C13 1_555 1_555
O6 H2 1_555 1_555
O7 H3 1_555 1_555
S1 C11 1_555 1_555
C1 C2 1_555 1_555
C2 H4 1_555 1_555
C3 C2 1_555 1_555
C4 C3 1_555 1_555
C5 O3 1_555 1_555
C6 C5 1_555 1_555
C7 C6 1_555 1_555
C8 C7 1_555 1_555
H5 C8 1_555 1_555
C9 O1 1_555 1_555
C10 C1 1_555 1_555
H6 C10 1_555 1_555
H7 C10 1_555 1_555
H8 C10 1_555 1_555
C11 C6 1_555 1_555
H9 C11 1_555 1_555
H10 C11 1_555 1_555
C12 O4 1_555 1_555
H11 C12 1_555 1_555
H12 C12 1_555 1_555
H13 C12 1_555 1_555
C13 O6 1_555 1_555
C14 O7 1_555 1_555
H14 C14 1_555 1_555
C15 S1 1_555 1_555
H15 C15 1_555 1_555
H16 C15 1_555 1_555
O8 H17 1_555 1_555
H18 O8 1_555 1_555
C4 C5 1_555 1_555
C4 C9 1_555 1_555
C8 C9 1_555 1_555
C13 C14 1_555 1_555
C14 C15 1_555 1_555

#END
