
#######################################################################
#
#                 Cambridge Crystallographic Data Centre
#                                CCDC 
#
#######################################################################
#
# If this CIF has been generated from an entry in the Cambridge 
# Structural Database, then it will include bibliographic, chemical, 
# crystal, experimental, refinement or atomic coordinate data resulting 
# from the CCDC's data processing and validation procedures.
#
#######################################################################

data_FUJNOP
_chemical_formula_moiety         'C42 H48 N4 O4 Si1'
_chemical_name_systematic        
2,2'-((Dimethylsilanediyl)di-4,1-phenylene)bis(5-(4-(hexyloxy)phenyl)-1,3,4-oxadiazole)
_symmetry_cell_setting           monoclinic
_symmetry_space_group_name_H-M   'P 21/c'
_symmetry_Int_Tables_number      14
_space_group_name_Hall           '-P 2ybc'
loop_
_symmetry_equiv_pos_site_id
_symmetry_equiv_pos_as_xyz
1 x,y,z
2 -x,1/2+y,1/2-z
3 -x,-y,-z
4 x,1/2-y,1/2+z
_cell_length_a                   9.3852(19)
_cell_length_b                   17.367(3)
_cell_length_c                   25.626(7)
_cell_angle_alpha                90
_cell_angle_beta                 109.22(3)
_cell_angle_gamma                90
_cell_volume                     3944.04
_exptl_crystal_colour            colorless
_exptl_crystal_description       block
_cell_formula_units_Z            4
loop_
_atom_site_label
_atom_site_type_symbol
_atom_site_fract_x
_atom_site_fract_y
_atom_site_fract_z
Si1 Si 0.17036(8) 0.45663(5) 0.74618(3)
O1 O 0.56644(17) 0.68895(9) 0.62121(6)
O2 O 0.6600(2) 0.96025(10) 0.47079(7)
O3 O 0.00107(19) 0.73701(11) 0.91127(7)
O4 O -0.3130(2) 1.02867(11) 0.98123(8)
N1 N 0.7478(3) 0.60536(14) 0.65816(9)
N2 N 0.8020(2) 0.66065(14) 0.62886(9)
N3 N 0.1642(2) 0.66965(15) 0.97659(9)
N4 N 0.1185(3) 0.73322(15) 1.00095(9)
C1 C 0.2568(3) 0.36300(17) 0.77700(13)
H1 H 0.2775 0.3324 0.7491
H2 H 0.1880 0.3359 0.7911
H3 H 0.3491 0.3727 0.8066
C2 C -0.0102(3) 0.43942(17) 0.68904(11)
H4 H -0.0560 0.4879 0.6750
H5 H -0.0773 0.4103 0.7028
H6 H 0.0096 0.4112 0.6600
C3 C 0.3040(3) 0.50767(15) 0.71804(9)
C4 C 0.2594(3) 0.57137(16) 0.68326(11)
H7 H 0.1602 0.5884 0.6739
C5 C 0.3573(3) 0.61011(15) 0.66215(11)
H8 H 0.3232 0.6525 0.6392
C6 C 0.5051(3) 0.58642(15) 0.67484(9)
C7 C 0.5520(3) 0.52328(17) 0.70892(11)
H9 H 0.6511 0.5062 0.7179
C8 C 0.4540(3) 0.48548(18) 0.72974(11)
H10 H 0.4892 0.4432 0.7527
C9 C 0.6101(3) 0.62400(15) 0.65256(9)
C10 C 0.6912(3) 0.70764(15) 0.60778(9)
C11 C 0.6872(2) 0.77417(14) 0.57349(9)
C12 C 0.5608(3) 0.82148(14) 0.55657(10)
H11 H 0.4782 0.8110 0.5679
C13 C 0.5578(3) 0.88335(15) 0.52338(10)
H12 H 0.4740 0.9156 0.5130
C14 C 0.6774(3) 0.89859(14) 0.50511(10)
C15 C 0.8053(3) 0.85321(16) 0.52197(11)
H13 H 0.8876 0.8641 0.5106
C16 C 0.8079(3) 0.79117(15) 0.55612(11)
H14 H 0.8933 0.7601 0.5677
C17 C 0.7717(3) 0.97533(16) 0.44571(12)
H15 H 0.7858 0.9305 0.4254
H16 H 0.8673 0.9876 0.4737
C18 C 0.7175(3) 1.04292(17) 0.40685(12)
H17 H 0.6172 1.0317 0.3817
H18 H 0.7102 1.0879 0.4282
C19 C 0.8170(4) 1.06075(19) 0.37450(13)
H19 H 0.8062 1.0206 0.3471
H20 H 0.9208 1.0602 0.3990
C20 C 0.7849(4) 1.13813(18) 0.34524(13)
H21 H 0.6787 1.1405 0.3234
H22 H 0.8047 1.1785 0.3728
C21 C 0.8744(5) 1.1533(2) 0.30882(16)
H23 H 0.8459 1.1161 0.2789
H24 H 0.9800 1.1447 0.3297
C22 C 0.8584(5) 1.2316(2) 0.28463(16)
H25 H 0.7533 1.2437 0.2682
H26 H 0.9065 1.2334 0.2569
H27 H 0.9051 1.2683 0.3131
C23 C 0.1383(3) 0.52009(15) 0.80002(9)
C24 C 0.0395(3) 0.58194(18) 0.78706(11)
H28 H -0.0173 0.5899 0.7502
C25 C 0.0211(3) 0.63209(17) 0.82576(10)
H29 H -0.0469 0.6726 0.8147
C26 C 0.1036(3) 0.62252(15) 0.88122(10)
C27 C 0.2008(3) 0.56003(18) 0.89558(11)
H30 H 0.2558 0.5515 0.9326
C28 C 0.2174(3) 0.51035(17) 0.85611(11)
H31 H 0.2835 0.4690 0.8672
C29 C 0.0932(3) 0.67406(16) 0.92407(11)
C30 C 0.0225(3) 0.77104(17) 0.96138(11)
C31 C -0.0596(3) 0.83929(16) 0.96578(11)
C32 C -0.1705(3) 0.87206(17) 0.92055(11)
H32 H -0.1895 0.8510 0.8855
C33 C -0.2514(3) 0.93471(18) 0.92715(11)
H33 H -0.3247 0.9558 0.8966
C34 C -0.2253(3) 0.96706(17) 0.97888(11)
C35 C -0.1146(3) 0.93667(16) 1.02436(11)
H34 H -0.0953 0.9583 1.0592
C36 C -0.0338(3) 0.87409(18) 1.01706(11)
H35 H 0.0412 0.8541 1.0476
C37 C -0.2961(3) 1.05944(17) 1.03473(12)
H36 H -0.1918 1.0742 1.0529
H37 H -0.3221 1.0203 1.0571
C38 C -0.3960(3) 1.12804(16) 1.02989(12)
H38 H -0.5002 1.1133 1.0115
H39 H -0.3698 1.1672 1.0076
C39 C -0.3792(3) 1.16064(18) 1.08626(12)
H40 H -0.4056 1.1206 1.1078
H41 H -0.2736 1.1730 1.1044
C40 C -0.4700(3) 1.23025(18) 1.08789(12)
H42 H -0.5753 1.2195 1.0679
H43 H -0.4387 1.2720 1.0690
C41 C -0.4554(4) 1.2562(2) 1.14570(14)
H44 H -0.4817 1.2132 1.1649
H45 H -0.3503 1.2685 1.1649
C42 C -0.5462(6) 1.3221(3) 1.15026(19)
H46 H -0.5098 1.3675 1.1374
H47 H -0.5393 1.3290 1.1882
H48 H -0.6495 1.3133 1.1282
loop_
_geom_bond_atom_site_label_1
_geom_bond_atom_site_label_2
_geom_bond_site_symmetry_1
_geom_bond_site_symmetry_2
Si1 C1 1_555 1_555
O1 C9 1_555 1_555
O2 C14 1_555 1_555
O3 C29 1_555 1_555
O4 C34 1_555 1_555
N1 N2 1_555 1_555
N2 C10 1_555 1_555
N3 N4 1_555 1_555
N4 C30 1_555 1_555
C1 H1 1_555 1_555
H2 C1 1_555 1_555
H3 C1 1_555 1_555
C2 Si1 1_555 1_555
H4 C2 1_555 1_555
H5 C2 1_555 1_555
H6 C2 1_555 1_555
C3 Si1 1_555 1_555
C4 C3 1_555 1_555
H7 C4 1_555 1_555
C5 C4 1_555 1_555
H8 C5 1_555 1_555
C6 C5 1_555 1_555
C7 C6 1_555 1_555
H9 C7 1_555 1_555
C8 C3 1_555 1_555
H10 C8 1_555 1_555
C9 N1 1_555 1_555
C10 O1 1_555 1_555
C11 C10 1_555 1_555
C12 C11 1_555 1_555
H11 C12 1_555 1_555
C13 C12 1_555 1_555
H12 C13 1_555 1_555
C14 C13 1_555 1_555
C15 C14 1_555 1_555
H13 C15 1_555 1_555
C16 C11 1_555 1_555
H14 C16 1_555 1_555
C17 O2 1_555 1_555
H15 C17 1_555 1_555
H16 C17 1_555 1_555
C18 C17 1_555 1_555
H17 C18 1_555 1_555
H18 C18 1_555 1_555
C19 C18 1_555 1_555
H19 C19 1_555 1_555
H20 C19 1_555 1_555
C20 C19 1_555 1_555
H21 C20 1_555 1_555
H22 C20 1_555 1_555
C21 C20 1_555 1_555
H23 C21 1_555 1_555
H24 C21 1_555 1_555
C22 C21 1_555 1_555
H25 C22 1_555 1_555
H26 C22 1_555 1_555
H27 C22 1_555 1_555
C23 Si1 1_555 1_555
C24 C23 1_555 1_555
H28 C24 1_555 1_555
C25 C24 1_555 1_555
H29 C25 1_555 1_555
C26 C25 1_555 1_555
C27 C26 1_555 1_555
H30 C27 1_555 1_555
C28 C23 1_555 1_555
H31 C28 1_555 1_555
C29 N3 1_555 1_555
C30 O3 1_555 1_555
C31 C30 1_555 1_555
C32 C31 1_555 1_555
H32 C32 1_555 1_555
C33 C32 1_555 1_555
H33 C33 1_555 1_555
C34 C33 1_555 1_555
C35 C34 1_555 1_555
H34 C35 1_555 1_555
C36 C31 1_555 1_555
H35 C36 1_555 1_555
C37 O4 1_555 1_555
H36 C37 1_555 1_555
H37 C37 1_555 1_555
C38 C37 1_555 1_555
H38 C38 1_555 1_555
H39 C38 1_555 1_555
C39 C38 1_555 1_555
H40 C39 1_555 1_555
H41 C39 1_555 1_555
C40 C39 1_555 1_555
H42 C40 1_555 1_555
H43 C40 1_555 1_555
C41 C40 1_555 1_555
H44 C41 1_555 1_555
H45 C41 1_555 1_555
C42 C41 1_555 1_555
H46 C42 1_555 1_555
H47 C42 1_555 1_555
H48 C42 1_555 1_555
C6 C9 1_555 1_555
C7 C8 1_555 1_555
C15 C16 1_555 1_555
C26 C29 1_555 1_555
C27 C28 1_555 1_555
C35 C36 1_555 1_555

#END
