
#######################################################################
#
#                 Cambridge Crystallographic Data Centre
#                                CCDC 
#
#######################################################################
#
# If this CIF has been generated from an entry in the Cambridge 
# Structural Database, then it will include bibliographic, chemical, 
# crystal, experimental, refinement or atomic coordinate data resulting 
# from the CCDC's data processing and validation procedures.
#
#######################################################################

data_FUJNUV
_chemical_formula_moiety         'C30 H24 N4 O2 Si1'
_chemical_name_systematic        
2,2'-((Dimethylsilanediyl)di-4,1-phenylene)bis(5-phenyl-1,3,4-oxadiazole)
_symmetry_cell_setting           triclinic
_symmetry_space_group_name_H-M   'P -1'
_symmetry_Int_Tables_number      2
_space_group_name_Hall           '-P 1'
loop_
_symmetry_equiv_pos_site_id
_symmetry_equiv_pos_as_xyz
1 x,y,z
2 -x,-y,-z
_cell_length_a                   9.128(4)
_cell_length_b                   11.240(6)
_cell_length_c                   13.412(9)
_cell_angle_alpha                82.89(2)
_cell_angle_beta                 75.95(2)
_cell_angle_gamma                87.15(2)
_cell_volume                     1324.35
_cell_formula_units_Z            2
loop_
_atom_site_label
_atom_site_type_symbol
_atom_site_fract_x
_atom_site_fract_y
_atom_site_fract_z
C1 C 1.7344(2) 1.02123(18) 0.32885(19)
H1 H 1.7100 1.0123 0.2668
C2 C 1.8233(3) 1.11530(19) 0.3348(2)
H2 H 1.8584 1.1699 0.2767
C3 C 1.8593(3) 1.1278(2) 0.4265(2)
H3 H 1.9196 1.1907 0.4302
C4 C 1.8071(3) 1.0483(2) 0.5126(2)
H4 H 1.8320 1.0574 0.5744
C5 C 1.7178(2) 0.95489(19) 0.50769(19)
H5 H 1.6817 0.9015 0.5664
C6 C 1.6818(2) 0.94035(17) 0.41569(17)
C7 C 1.5892(2) 0.84113(17) 0.40809(16)
C8 C 1.4442(2) 0.69240(17) 0.45932(16)
C9 C 1.3490(2) 0.60439(16) 0.53243(16)
C10 C 1.3313(2) 0.60287(17) 0.63820(17)
H6 H 1.3848 0.6556 0.6636
C11 C 1.2342(2) 0.52291(17) 0.70566(17)
H7 H 1.2240 0.5226 0.7764
C12 C 1.1504(2) 0.44201(16) 0.67143(16)
C13 C 1.1725(2) 0.44535(19) 0.56489(17)
H8 H 1.1195 0.3925 0.5392
C14 C 1.2695(2) 0.52370(19) 0.49586(18)
H9 H 1.2820 0.5227 0.4251
C15 C 1.1008(3) 0.2724(2) 0.8719(2)
H10 H 1.0280 0.2249 0.9231
H11 H 1.1341 0.3352 0.9031
H12 H 1.1857 0.2225 0.8442
C16 C 0.9552(2) 0.22369(18) 0.69592(19)
H13 H 0.9053 0.2619 0.6448
H14 H 0.8875 0.1692 0.7442
H15 H 1.0430 0.1802 0.6627
C17 C 0.8435(2) 0.43422(16) 0.82089(15)
C18 C 0.8501(2) 0.5216(2) 0.88502(19)
H16 H 0.9385 0.5281 0.9065
C19 C 0.7302(3) 0.5988(2) 0.91779(19)
H17 H 0.7384 0.6560 0.9606
C20 C 0.5971(2) 0.59038(17) 0.88630(15)
C21 C 0.5856(2) 0.50129(18) 0.82647(17)
H18 H 0.4957 0.4930 0.8072
C22 C 0.7057(2) 0.42466(17) 0.79518(16)
H19 H 0.6947 0.3647 0.7557
C23 C 0.4728(2) 0.67644(18) 0.91397(16)
C24 C 0.3498(2) 0.82023(18) 0.98691(16)
C25 C 0.3149(2) 0.91356(17) 1.05578(15)
C26 C 0.3962(2) 0.92394(19) 1.12907(17)
H20 H 0.4769 0.8716 1.1342
C27 C 0.3571(3) 1.0123(2) 1.19453(19)
H21 H 0.4118 1.0191 1.2436
C28 C 0.2383(3) 1.0899(2) 1.1877(2)
H22 H 0.2121 1.1487 1.2323
C29 C 0.1577(3) 1.0803(2) 1.1142(2)
H23 H 0.0775 1.1332 1.1093
C30 C 0.1947(3) 0.99368(19) 1.04873(19)
H24 H 0.1399 0.9880 0.9995
N1 N 1.5596(2) 0.80867(16) 0.32645(15)
N2 N 1.4636(2) 0.71074(17) 0.36058(15)
N3 N 0.3565(2) 0.69656(18) 0.87522(17)
N4 N 0.2750(2) 0.79180(18) 0.92351(17)
O1 O 1.52131(14) 0.77132(11) 0.49584(11)
O2 O 0.47664(14) 0.75119(12) 0.98525(10)
Si1 Si 1.01292(6) 0.33935(5) 0.76581(4)
loop_
_geom_bond_atom_site_label_1
_geom_bond_atom_site_label_2
_geom_bond_site_symmetry_1
_geom_bond_site_symmetry_2
C1 H1 1_555 1_555
C2 C1 1_555 1_555
H2 C2 1_555 1_555
C3 C2 1_555 1_555
H3 C3 1_555 1_555
C4 C3 1_555 1_555
H4 C4 1_555 1_555
C5 C4 1_555 1_555
H5 C5 1_555 1_555
C6 C1 1_555 1_555
C7 C6 1_555 1_555
C8 C9 1_555 1_555
C9 C10 1_555 1_555
C10 H6 1_555 1_555
C11 C10 1_555 1_555
H7 C11 1_555 1_555
C12 C11 1_555 1_555
C13 C12 1_555 1_555
H8 C13 1_555 1_555
C14 C9 1_555 1_555
H9 C14 1_555 1_555
C15 H10 1_555 1_555
H11 C15 1_555 1_555
H12 C15 1_555 1_555
C16 H13 1_555 1_555
H14 C16 1_555 1_555
H15 C16 1_555 1_555
C17 C18 1_555 1_555
C18 H16 1_555 1_555
C19 C18 1_555 1_555
H17 C19 1_555 1_555
C20 C19 1_555 1_555
C21 C20 1_555 1_555
H18 C21 1_555 1_555
C22 C17 1_555 1_555
H19 C22 1_555 1_555
C23 C20 1_555 1_555
C24 C25 1_555 1_555
C25 C26 1_555 1_555
C26 H20 1_555 1_555
C27 C26 1_555 1_555
H21 C27 1_555 1_555
C28 C27 1_555 1_555
H22 C28 1_555 1_555
C29 C28 1_555 1_555
H23 C29 1_555 1_555
C30 C25 1_555 1_555
H24 C30 1_555 1_555
N1 C7 1_555 1_555
N2 C8 1_555 1_555
N3 C23 1_555 1_555
N4 C24 1_555 1_555
O1 C7 1_555 1_555
O2 C23 1_555 1_555
Si1 C12 1_555 1_555
C5 C6 1_555 1_555
C8 O1 1_555 1_555
C13 C14 1_555 1_555
C15 Si1 1_555 1_555
C16 Si1 1_555 1_555
C17 Si1 1_555 1_555
C21 C22 1_555 1_555
C24 O2 1_555 1_555
C29 C30 1_555 1_555
N1 N2 1_555 1_555
N3 N4 1_555 1_555

#END
