
#######################################################################
#
#                 Cambridge Crystallographic Data Centre
#                                CCDC 
#
#######################################################################
#
# If this CIF has been generated from an entry in the Cambridge 
# Structural Database, then it will include bibliographic, chemical, 
# crystal, experimental, refinement or atomic coordinate data resulting 
# from the CCDC's data processing and validation procedures.
#
#######################################################################

data_FUJQUW
_chemical_name_common            
'trans-2,3-Dibenzoyl-2-butenedioic acid diethyl ester'
_chemical_formula_moiety         'C22 H20 O6'
_chemical_name_systematic        'Diethyl trans-2,3-dibenzoyl-2-butenedioate'
_chemical_properties_biological  'possible biological activity'
_symmetry_cell_setting           triclinic
_symmetry_space_group_name_H-M   'P -1'
_symmetry_Int_Tables_number      2
_space_group_name_Hall           '-P 1'
loop_
_symmetry_equiv_pos_site_id
_symmetry_equiv_pos_as_xyz
1 x,y,z
2 -x,-y,-z
_cell_length_a                   8.828(6)
_cell_length_b                   15.174(5)
_cell_length_c                   16.420(7)
_cell_angle_alpha                113.52(3)
_cell_angle_beta                 99.27(4)
_cell_angle_gamma                83.53(4)
_cell_volume                     1987.63
_exptl_crystal_colour            colorless
_exptl_crystal_description       block
_cell_formula_units_Z            4
_exptl_crystal_recrystallization_method 'formyl acetoacetate'
loop_
_atom_site_label
_atom_site_type_symbol
_atom_site_fract_x
_atom_site_fract_y
_atom_site_fract_z
O1 O 0.00662(8) 0.50155(5) 0.12518(4)
O2 O 0.20153(8) 0.39634(5) 0.08928(4)
O3 O -0.15387(7) 0.49208(5) 0.28150(5)
O4 O 0.29288(6) 0.51417(4) 0.42116(4)
O5 O 0.07138(6) 0.59348(4) 0.45891(3)
O6 O 0.44367(7) 0.51032(5) 0.25929(5)
C1 C 0.12183(9) 0.46319(5) 0.14712(5)
C2 C 0.18923(8) 0.48043(5) 0.23955(5)
C3 C 0.10007(8) 0.52521(5) 0.30725(4)
C4 C 0.16661(8) 0.54263(5) 0.39989(5)
C5 C 0.15276(12) 0.36875(9) -0.00669(7)
H1 H 0.0607 0.4061 -0.0172
H2 H 0.1327 0.3009 -0.0355
C6 C 0.28599(15) 0.39035(9) -0.04097(8)
H3 H 0.2630 0.3736 -0.1044
H4 H 0.3761 0.3535 -0.0290
H5 H 0.3041 0.4577 -0.0115
C7 C 0.12746(10) 0.61271(7) 0.55240(5)
H6 H 0.2190 0.6493 0.5710
H7 H 0.1527 0.5528 0.5608
C8 C 0.00133(11) 0.66939(6) 0.60635(6)
H8 H 0.0344 0.6834 0.6687
H9 H -0.0886 0.6325 0.5873
H10 H -0.0225 0.7285 0.5975
C9 C 0.40709(7) 0.35697(5) 0.25058(4)
C10 C 0.56257(9) 0.32814(6) 0.25347(5)
H11 H 0.6344 0.3707 0.2578
C11 C 0.61092(10) 0.23801(6) 0.25006(6)
H12 H 0.7148 0.2189 0.2506
C12 C 0.50469(11) 0.17523(6) 0.24574(6)
H13 H 0.5376 0.1147 0.2455
C13 C 0.35100(10) 0.20222(6) 0.24180(6)
H14 H 0.2798 0.1594 0.2376
C14 C 0.30173(8) 0.29194(5) 0.24396(5)
H15 H 0.1972 0.3095 0.2410
C15 C 0.35294(8) 0.45200(5) 0.25282(5)
C16 C -0.11949(8) 0.64702(5) 0.29435(4)
C17 C -0.27624(9) 0.67151(6) 0.28460(5)
H16 H -0.3474 0.6274 0.2774
C18 C -0.32579(10) 0.76161(6) 0.28559(6)
H17 H -0.4305 0.7782 0.2803
C19 C -0.22442(11) 0.82591(6) 0.29404(6)
H18 H -0.2603 0.8856 0.2933
C20 C -0.06708(10) 0.80406(6) 0.30380(6)
H19 H 0.0023 0.8488 0.3099
C21 C -0.01497(9) 0.71435(5) 0.30438(5)
H20 H 0.0900 0.6991 0.3115
C22 C -0.06356(9) 0.55232(5) 0.29246(5)
O7 O 0.28058(7) -0.02632(5) -0.02297(5)
O8 O 0.23038(5) 0.13180(4) 0.01489(3)
O9 O -0.02822(7) 0.16621(4) 0.14567(4)
C23 C 0.19269(8) 0.04491(5) 0.00059(5)
C24 C 0.03379(8) 0.04454(5) 0.01468(5)
C25 C 0.38731(9) 0.14387(6) 0.00614(6)
H21 H 0.4574 0.1040 0.0306
H22 H 0.4122 0.2104 0.0404
C26 C 0.40877(12) 0.11695(8) -0.08979(7)
H23 H 0.5142 0.1233 -0.0935
H24 H 0.3437 0.1588 -0.1132
H25 H 0.3822 0.0515 -0.1241
C27 C -0.12743(8) 0.19704(5) 0.01826(5)
C28 C -0.19498(10) 0.28516(6) 0.06529(6)
H26 H -0.1871 0.3079 0.1274
C29 C -0.27430(12) 0.34027(7) 0.02128(7)
H27 H -0.3196 0.3998 0.0540
C30 C -0.28707(12) 0.30865(7) -0.06912(8)
H28 H -0.3416 0.3465 -0.0979
C31 C -0.21962(11) 0.22045(7) -0.11912(7)
H29 H -0.2276 0.1987 -0.1811
C32 C -0.13982(10) 0.16535(6) -0.07437(6)
H30 H -0.0938 0.1061 -0.1070
C33 C -0.04359(8) 0.13709(5) 0.06365(5)
C24A C -0.03379(8) -0.04454(5) -0.01468(5)
C23A C -0.19269(8) -0.04491(5) -0.00059(5)
O7A O -0.28058(7) 0.02632(5) 0.02297(5)
O8A O -0.23038(5) -0.13180(4) -0.01489(3)
C25A C -0.38731(9) -0.14387(6) -0.00614(6)
H21A H -0.4574 -0.1040 -0.0306
H22A H -0.4122 -0.2104 -0.0404
C26A C -0.40877(12) -0.11695(8) 0.08979(7)
H23A H -0.5142 -0.1233 0.0935
H24A H -0.3437 -0.1588 0.1132
H25A H -0.3822 -0.0515 0.1241
C33A C 0.04359(8) -0.13709(5) -0.06365(5)
O9A O 0.02822(7) -0.16621(4) -0.14567(4)
C27A C 0.12743(8) -0.19704(5) -0.01826(5)
C28A C 0.19498(10) -0.28516(6) -0.06529(6)
H26A H 0.1871 -0.3079 -0.1274
C29A C 0.27430(12) -0.34027(7) -0.02128(7)
H27A H 0.3196 -0.3998 -0.0540
C30A C 0.28707(12) -0.30865(7) 0.06912(8)
H28A H 0.3416 -0.3465 0.0979
C31A C 0.21962(11) -0.22045(7) 0.11912(7)
H29A H 0.2276 -0.1987 0.1811
C32A C 0.13982(10) -0.16535(6) 0.07437(6)
H30A H 0.0938 -0.1061 0.1070
O10 O 0.34255(7) 0.85144(4) 0.40777(4)
O11 O 0.51699(7) 0.80945(4) 0.50126(4)
O12 O 0.53995(7) 1.00782(4) 0.67139(4)
C34 C 0.44906(9) 0.87216(6) 0.47036(5)
C35 C 0.51740(9) 0.96528(6) 0.51851(5)
C36 C 0.46692(11) 0.71254(6) 0.46203(6)
H31 H 0.4504 0.6903 0.3973
H32 H 0.3714 0.7096 0.4827
C37 C 0.59145(13) 0.65127(7) 0.49072(7)
H33 H 0.5465 0.6007 0.4982
H34 H 0.6479 0.6901 0.5464
H35 H 0.6598 0.6237 0.4459
C38 C 0.77690(8) 0.95936(5) 0.61405(5)
C39 C 0.85644(9) 0.92821(6) 0.53976(5)
H36 H 0.8035 0.9212 0.4839
C40 C 1.01386(10) 0.90758(7) 0.54853(6)
H37 H 1.0660 0.8863 0.4986
C41 C 1.09319(10) 0.91872(6) 0.63161(6)
H38 H 1.1992 0.9068 0.6378
C42 C 1.01562(11) 0.94735(6) 0.70486(6)
H39 H 1.0686 0.9530 0.7603
C43 C 0.85847(9) 0.96784(6) 0.69610(5)
H40 H 0.8068 0.9876 0.7461
C44 C 0.61051(9) 0.98141(5) 0.60530(5)
C35A C 0.48260(9) 1.03472(6) 0.48149(5)
C34A C 0.55094(9) 1.12784(6) 0.52964(5)
O10A O 0.65745(7) 1.14856(4) 0.59223(4)
O11A O 0.48301(7) 1.19055(4) 0.49874(4)
C36A C 0.53308(11) 1.28746(6) 0.53797(6)
H31A H 0.5496 1.3097 0.6027
H32A H 0.6286 1.2904 0.5173
C37A C 0.40855(13) 1.34873(7) 0.50928(7)
H33A H 0.4535 1.3993 0.5018
H34A H 0.3521 1.3099 0.4536
H35A H 0.3402 1.3763 0.5541
C44A C 0.38949(9) 1.01859(5) 0.39470(5)
O12A O 0.46005(7) 0.99218(4) 0.32861(4)
C38A C 0.22310(8) 1.04064(5) 0.38595(5)
C39A C 0.14356(9) 1.07179(6) 0.46024(5)
H36A H 0.1965 1.0788 0.5161
C40A C -0.01386(10) 1.09242(7) 0.45147(6)
H37A H -0.0660 1.1137 0.5014
C41A C -0.09319(10) 1.08128(6) 0.36839(6)
H38A H -0.1992 1.0932 0.3622
C42A C -0.01562(11) 1.05265(6) 0.29514(6)
H39A H -0.0686 1.0470 0.2397
C43A C 0.14153(9) 1.03216(6) 0.30390(5)
H40A H 0.1932 1.0124 0.2539
loop_
_geom_bond_atom_site_label_1
_geom_bond_atom_site_label_2
_geom_bond_site_symmetry_1
_geom_bond_site_symmetry_2
O1 C1 1_555 1_555
O2 C1 1_555 1_555
O3 C22 1_555 1_555
O4 C4 1_555 1_555
O5 C4 1_555 1_555
O6 C15 1_555 1_555
C1 C2 1_555 1_555
C2 C3 1_555 1_555
C3 C4 1_555 1_555
C5 O2 1_555 1_555
H1 C5 1_555 1_555
H2 C5 1_555 1_555
C6 C5 1_555 1_555
H3 C6 1_555 1_555
H4 C6 1_555 1_555
H5 C6 1_555 1_555
C7 O5 1_555 1_555
H6 C7 1_555 1_555
H7 C7 1_555 1_555
C8 C7 1_555 1_555
H8 C8 1_555 1_555
H9 C8 1_555 1_555
H10 C8 1_555 1_555
C9 C10 1_555 1_555
C10 H11 1_555 1_555
C11 C10 1_555 1_555
H12 C11 1_555 1_555
C12 C11 1_555 1_555
H13 C12 1_555 1_555
C13 C12 1_555 1_555
H14 C13 1_555 1_555
C14 C9 1_555 1_555
H15 C14 1_555 1_555
C15 C2 1_555 1_555
C16 C17 1_555 1_555
C17 H16 1_555 1_555
C18 C17 1_555 1_555
H17 C18 1_555 1_555
C19 C18 1_555 1_555
H18 C19 1_555 1_555
C20 C19 1_555 1_555
H19 C20 1_555 1_555
C21 C16 1_555 1_555
H20 C21 1_555 1_555
C22 C3 1_555 1_555
O7 C23 1_555 1_555
O8 C23 1_555 1_555
O9 C33 1_555 1_555
C23 C24 1_555 1_555
C24 C33 1_555 1_555
C25 O8 1_555 1_555
H21 C25 1_555 1_555
H22 C25 1_555 1_555
C26 C25 1_555 1_555
H23 C26 1_555 1_555
H24 C26 1_555 1_555
H25 C26 1_555 1_555
C27 C28 1_555 1_555
C28 H26 1_555 1_555
C29 C28 1_555 1_555
H27 C29 1_555 1_555
C30 C29 1_555 1_555
H28 C30 1_555 1_555
C31 C30 1_555 1_555
H29 C31 1_555 1_555
C32 C27 1_555 1_555
H30 C32 1_555 1_555
C33 C27 1_555 1_555
O10 C34 1_555 1_555
O11 C34 1_555 1_555
O12 C44 1_555 1_555
C34 C35 1_555 1_555
C35 C44 1_555 1_555
C36 O11 1_555 1_555
H31 C36 1_555 1_555
H32 C36 1_555 1_555
C37 C36 1_555 1_555
H33 C37 1_555 1_555
H34 C37 1_555 1_555
H35 C37 1_555 1_555
C38 C39 1_555 1_555
C39 H36 1_555 1_555
C40 C39 1_555 1_555
H37 C40 1_555 1_555
C41 C40 1_555 1_555
H38 C41 1_555 1_555
C42 C41 1_555 1_555
H39 C42 1_555 1_555
C43 C38 1_555 1_555
H40 C43 1_555 1_555
C44 C38 1_555 1_555
C24A C24 1_555 1_555
C23A C24A 1_555 1_555
O7A C23A 1_555 1_555
O8A C23A 1_555 1_555
C25A O8A 1_555 1_555
H21A C25A 1_555 1_555
H22A C25A 1_555 1_555
C26A C25A 1_555 1_555
H23A C26A 1_555 1_555
H24A C26A 1_555 1_555
H25A C26A 1_555 1_555
C33A C24A 1_555 1_555
O9A C33A 1_555 1_555
C27A C33A 1_555 1_555
C28A C27A 1_555 1_555
H26A C28A 1_555 1_555
C29A C28A 1_555 1_555
H27A C29A 1_555 1_555
C30A C29A 1_555 1_555
H28A C30A 1_555 1_555
C31A C30A 1_555 1_555
H29A C31A 1_555 1_555
C32A C27A 1_555 1_555
H30A C32A 1_555 1_555
C35A C35 1_555 1_555
C34A C35A 1_555 1_555
O10A C34A 1_555 1_555
O11A C34A 1_555 1_555
C36A O11A 1_555 1_555
H31A C36A 1_555 1_555
H32A C36A 1_555 1_555
C37A C36A 1_555 1_555
H33A C37A 1_555 1_555
H34A C37A 1_555 1_555
H35A C37A 1_555 1_555
C44A C35A 1_555 1_555
O12A C44A 1_555 1_555
C38A C44A 1_555 1_555
C39A C38A 1_555 1_555
H36A C39A 1_555 1_555
C40A C39A 1_555 1_555
H37A C40A 1_555 1_555
C41A C40A 1_555 1_555
H38A C41A 1_555 1_555
C42A C41A 1_555 1_555
H39A C42A 1_555 1_555
C43A C38A 1_555 1_555
H40A C43A 1_555 1_555
C9 C15 1_555 1_555
C13 C14 1_555 1_555
C16 C22 1_555 1_555
C20 C21 1_555 1_555
C31 C32 1_555 1_555
C42 C43 1_555 1_555
C31A C32A 1_555 1_555
C42A C43A 1_555 1_555

#END
