
#######################################################################
#
#                 Cambridge Crystallographic Data Centre
#                                CCDC 
#
#######################################################################
#
# If this CIF has been generated from an entry in the Cambridge 
# Structural Database, then it will include bibliographic, chemical, 
# crystal, experimental, refinement or atomic coordinate data resulting 
# from the CCDC's data processing and validation procedures.
#
#######################################################################

data_FUJRUY
_chemical_formula_moiety         'C25 H22 O2'
_chemical_name_systematic        
3-(Methoxy(phenyl)methyl)-5,5-diphenylpenta-3,4-dien-2-one
_symmetry_cell_setting           orthorhombic
_symmetry_space_group_name_H-M   'P b c a'
_symmetry_Int_Tables_number      61
_space_group_name_Hall           '-P 2ac 2ab'
loop_
_symmetry_equiv_pos_site_id
_symmetry_equiv_pos_as_xyz
1 x,y,z
2 1/2-x,-y,1/2+z
3 -x,1/2+y,1/2-z
4 1/2+x,1/2-y,-z
5 -x,-y,-z
6 1/2+x,y,1/2-z
7 x,1/2-y,1/2+z
8 1/2-x,1/2+y,z
_cell_length_a                   19.5589(7)
_cell_length_b                   8.1704(3)
_cell_length_c                   24.0587(9)
_cell_angle_alpha                90
_cell_angle_beta                 90
_cell_angle_gamma                90
_cell_volume                     3844.68
_exptl_crystal_colour            colorless
_exptl_crystal_description       block
_cell_formula_units_Z            8
_exptl_crystal_recrystallization_method dichloromethane/n-hexane
loop_
_atom_site_label
_atom_site_type_symbol
_atom_site_fract_x
_atom_site_fract_y
_atom_site_fract_z
O1 O 0.16466(6) 0.36263(14) -0.00992(5)
O2 O 0.01482(5) 0.59326(12) 0.07550(4)
C1 C 0.13139(7) 0.57238(17) 0.15836(6)
H1 H 0.0969 0.5003 0.1715
C2 C 0.17806(8) 0.63834(19) 0.19530(6)
H2 H 0.1754 0.6118 0.2337
C3 C 0.22872(7) 0.74299(19) 0.17648(7)
H3 H 0.2608 0.7881 0.2019
C4 C 0.23242(7) 0.78141(19) 0.12079(7)
H4 H 0.2671 0.8533 0.1078
C5 C 0.18571(7) 0.71536(17) 0.08373(6)
H5 H 0.1887 0.7419 0.0454
C6 C 0.13478(6) 0.61107(16) 0.10212(6)
C7 C 0.08246(7) 0.54259(16) 0.06167(6)
H6 H 0.0936 0.5829 0.0235
C8 C 0.08284(6) 0.35664(16) 0.06117(5)
C9 C 0.04495(6) 0.27227(16) 0.09601(5)
C10 C 0.00580(6) 0.20445(16) 0.13391(5)
C11 C 0.03650(7) 0.16090(16) 0.18892(5)
C12 C 0.10069(7) 0.08889(18) 0.19251(6)
H7 H 0.1248 0.0614 0.1595
C13 C 0.12976(8) 0.0569(2) 0.24385(7)
H8 H 0.1739 0.0085 0.2458
C14 C 0.09523(8) 0.09459(19) 0.29198(6)
H9 H 0.1153 0.0727 0.3271
C15 C 0.03097(8) 0.1647(2) 0.28876(6)
H10 H 0.0068 0.1902 0.3219
C16 C 0.00172(7) 0.19782(18) 0.23774(6)
H11 H -0.0424 0.2461 0.2360
C17 C -0.06869(7) 0.17833(16) 0.12424(5)
C18 C -0.10293(7) 0.04708(17) 0.14871(6)
H12 H -0.0785 -0.0275 0.1716
C19 C -0.17240(7) 0.02473(19) 0.13984(6)
H13 H -0.1952 -0.0657 0.1564
C20 C -0.20862(7) 0.1336(2) 0.10702(6)
H14 H -0.2562 0.1185 0.1011
C21 C -0.17501(7) 0.26452(19) 0.08286(6)
H15 H -0.1997 0.3394 0.0603
C22 C -0.10569(7) 0.28712(17) 0.09137(5)
H16 H -0.0831 0.3776 0.0747
C23 C 0.13058(7) 0.27825(17) 0.02088(6)
C24 C 0.13681(8) 0.09599(18) 0.02047(6)
H17 H 0.1699 0.0629 -0.0079
H18 H 0.0922 0.0473 0.0121
H19 H 0.1524 0.0582 0.0570
C25 C 0.00538(8) 0.76376(18) 0.06731(6)
H20 H -0.0416 0.7937 0.0772
H21 H 0.0138 0.7909 0.0282
H22 H 0.0374 0.8245 0.0909
loop_
_geom_bond_atom_site_label_1
_geom_bond_atom_site_label_2
_geom_bond_site_symmetry_1
_geom_bond_site_symmetry_2
O1 C23 1_555 1_555
O2 C7 1_555 1_555
C1 H1 1_555 1_555
C2 C1 1_555 1_555
H2 C2 1_555 1_555
C3 C2 1_555 1_555
H3 C3 1_555 1_555
C4 C3 1_555 1_555
H4 C4 1_555 1_555
C5 C4 1_555 1_555
H5 C5 1_555 1_555
C6 C1 1_555 1_555
C7 C6 1_555 1_555
H6 C7 1_555 1_555
C8 C7 1_555 1_555
C9 C8 1_555 1_555
C10 C9 1_555 1_555
C11 C10 1_555 1_555
C12 C11 1_555 1_555
H7 C12 1_555 1_555
C13 C12 1_555 1_555
H8 C13 1_555 1_555
C14 C13 1_555 1_555
H9 C14 1_555 1_555
C15 C14 1_555 1_555
H10 C15 1_555 1_555
C16 C11 1_555 1_555
H11 C16 1_555 1_555
C17 C10 1_555 1_555
C18 C17 1_555 1_555
H12 C18 1_555 1_555
C19 C18 1_555 1_555
H13 C19 1_555 1_555
C20 C19 1_555 1_555
H14 C20 1_555 1_555
C21 C20 1_555 1_555
H15 C21 1_555 1_555
C22 C17 1_555 1_555
H16 C22 1_555 1_555
C23 C8 1_555 1_555
C24 C23 1_555 1_555
H17 C24 1_555 1_555
H18 C24 1_555 1_555
H19 C24 1_555 1_555
C25 O2 1_555 1_555
H20 C25 1_555 1_555
H21 C25 1_555 1_555
H22 C25 1_555 1_555
C5 C6 1_555 1_555
C15 C16 1_555 1_555
C21 C22 1_555 1_555

#END
