
#######################################################################
#
#                 Cambridge Crystallographic Data Centre
#                                CCDC 
#
#######################################################################
#
# If this CIF has been generated from an entry in the Cambridge 
# Structural Database, then it will include bibliographic, chemical, 
# crystal, experimental, refinement or atomic coordinate data resulting 
# from the CCDC's data processing and validation procedures.
#
#######################################################################

data_FUJSOT
_chemical_formula_moiety         'C20 H21 N3 O2'
_chemical_name_systematic        
2a,3,4,5,9,14,14b,15-Octahydro-8H-cyclopenta[2'',3'']pyrrolo[1'',2'':4',5']pyrazino[1',2':1,2]pyrido-[3,4-b]indole-1,6(2H)-dione
_symmetry_cell_setting           monoclinic
_symmetry_space_group_name_H-M   'P 21/c'
_symmetry_Int_Tables_number      14
_space_group_name_Hall           '-P 2ybc'
loop_
_symmetry_equiv_pos_site_id
_symmetry_equiv_pos_as_xyz
1 x,y,z
2 -x,1/2+y,1/2-z
3 -x,-y,-z
4 x,1/2-y,1/2+z
_cell_length_a                   11.3899(5)
_cell_length_b                   8.9061(4)
_cell_length_c                   16.9450(7)
_cell_angle_alpha                90
_cell_angle_beta                 94.3181(18)
_cell_angle_gamma                90
_cell_volume                     1714.01
_exptl_crystal_colour            colorless
_cell_formula_units_Z            4
loop_
_atom_site_label
_atom_site_type_symbol
_atom_site_fract_x
_atom_site_fract_y
_atom_site_fract_z
O1 O 0.34298(8) 0.89267(13) 0.13795(6)
O2 O 0.13257(9) 0.77350(12) 0.35566(6)
N1 N -0.18120(9) 0.95950(13) 0.11420(6)
N2 N 0.14307(8) 0.89328(12) 0.12736(6)
N3 N 0.14719(8) 0.98091(11) 0.27689(6)
C1 C -0.43872(13) 0.75508(19) 0.02164(9)
C2 C -0.37642(13) 0.63677(19) -0.00912(9)
C3 C -0.25562(13) 0.63027(17) 0.00094(8)
C4 C -0.19480(11) 0.74529(15) 0.04293(7)
C5 C -0.25989(11) 0.86419(15) 0.07344(7)
C6 C -0.38205(12) 0.87062(18) 0.06283(9)
C7 C -0.07296(11) 0.77445(14) 0.06559(7)
C8 C -0.06916(10) 0.90474(14) 0.10734(7)
C9 C 0.03722(12) 0.69290(16) 0.04979(9)
C10 C 0.13866(12) 0.80346(17) 0.05418(8)
C11 C 0.03748(10) 0.97545(14) 0.14779(7)
C12 C 0.25048(10) 0.93707(15) 0.16098(7)
C13 C 0.24276(10) 1.04153(14) 0.23277(7)
C14 C 0.02976(11) 0.97022(16) 0.23808(7)
C15 C 0.34467(11) 1.02987(15) 0.29587(8)
C16 C 0.32642(12) 0.87559(17) 0.33007(9)
C17 C 0.19251(11) 0.86776(14) 0.32455(7)
C18 C 0.25069(13) 1.20662(16) 0.20892(10)
C19 C 0.38564(15) 1.2307(2) 0.21078(13)
C20 C 0.44786(13) 1.10257(19) 0.25883(10)
H1 H -0.1946(13) 1.054(2) 0.1273(9)
H2 H -0.5255(16) 0.7597(19) 0.0155(10)
H3 H -0.4185(14) 0.5559(19) -0.0387(10)
H4 H -0.2119(13) 0.5490(18) -0.0216(9)
H5 H -0.4238(15) 0.954(2) 0.0838(10)
H6 H 0.0313(13) 0.6496(18) -0.0030(10)
H7 H 0.0541(14) 0.6095(19) 0.0894(10)
H8 H 0.2157(15) 0.7531(19) 0.0537(9)
H9 H 0.1303(13) 0.8747(18) 0.0081(9)
H10 H 0.0425(11) 1.0802(17) 0.1312(8)
H11 H -0.0203(12) 1.0534(17) 0.2538(9)
H12 H -0.0043(13) 0.8727(17) 0.2528(9)
H13 H 0.3240(12) 1.1014(16) 0.3374(8)
H14 H 0.3585(14) 0.8603(19) 0.3843(10)
H15 H 0.3547(14) 0.7927(19) 0.2955(10)
H16 H 0.2164(15) 1.270(2) 0.2500(11)
H17 H 0.2113(14) 1.2318(19) 0.1555(10)
H18 H 0.4099(18) 1.230(2) 0.1553(13)
H19 H 0.409(2) 1.326(3) 0.2333(14)
H20 H 0.4875(14) 1.0331(19) 0.2232(10)
H21 H 0.5084(15) 1.1449(19) 0.2992(10)
loop_
_geom_bond_atom_site_label_1
_geom_bond_atom_site_label_2
_geom_bond_site_symmetry_1
_geom_bond_site_symmetry_2
O1 C12 1_555 1_555
O2 C17 1_555 1_555
N1 C5 1_555 1_555
N2 C10 1_555 1_555
N3 C13 1_555 1_555
C1 C2 1_555 1_555
C2 C3 1_555 1_555
C3 C4 1_555 1_555
C4 C5 1_555 1_555
C5 C6 1_555 1_555
C6 C1 1_555 1_555
C7 C4 1_555 1_555
C8 N1 1_555 1_555
C9 C7 1_555 1_555
C10 C9 1_555 1_555
C11 N2 1_555 1_555
C12 N2 1_555 1_555
C13 C12 1_555 1_555
C14 N3 1_555 1_555
C15 C13 1_555 1_555
C16 C15 1_555 1_555
C17 N3 1_555 1_555
C18 C13 1_555 1_555
C19 C18 1_555 1_555
C20 C15 1_555 1_555
H1 N1 1_555 1_555
H2 C1 1_555 1_555
H3 C2 1_555 1_555
H4 C3 1_555 1_555
H5 C6 1_555 1_555
H6 C9 1_555 1_555
H7 C9 1_555 1_555
H8 C10 1_555 1_555
H9 C10 1_555 1_555
H10 C11 1_555 1_555
H11 C14 1_555 1_555
H12 C14 1_555 1_555
H13 C15 1_555 1_555
H14 C16 1_555 1_555
H15 C16 1_555 1_555
H16 C18 1_555 1_555
H17 C18 1_555 1_555
H18 C19 1_555 1_555
H19 C19 1_555 1_555
H20 C20 1_555 1_555
H21 C20 1_555 1_555
C7 C8 1_555 1_555
C8 C11 1_555 1_555
C11 C14 1_555 1_555
C16 C17 1_555 1_555
C19 C20 1_555 1_555

#END
