
#######################################################################
#
#                 Cambridge Crystallographic Data Centre
#                                CCDC 
#
#######################################################################
#
# If this CIF has been generated from an entry in the Cambridge 
# Structural Database, then it will include bibliographic, chemical, 
# crystal, experimental, refinement or atomic coordinate data resulting 
# from the CCDC's data processing and validation procedures.
#
#######################################################################

data_FUJSEJ
_chemical_formula_moiety         
'2(C16 H36 N1 1+),C92 H92 N6 O2,O4 S1 2-,3(C4 H8 O2)'
_chemical_name_systematic        
"bis(Tetra-n-butylammonium) 4,4'-((3,8-di-t-butyl-11,12-dihydroindolo[2,3-a]carbazole-1,10-diyl)bis(ethyne-2,1-diyl(3,8-di-t-butyl-11,12-dihydroindolo[2,3-a]carbazole-10,1-diyl)))bis(2-methylbut-3-yn-2-ol) sulfate ethyl acetate solvate"
_symmetry_cell_setting           monoclinic
_symmetry_space_group_name_H-M   'P 21/c'
_symmetry_Int_Tables_number      14
_space_group_name_Hall           '-P 2ybc'
loop_
_symmetry_equiv_pos_site_id
_symmetry_equiv_pos_as_xyz
1 x,y,z
2 -x,1/2+y,1/2-z
3 -x,-y,-z
4 x,1/2-y,1/2+z
_cell_length_a                   18.123(4)
_cell_length_b                   40.036(8)
_cell_length_c                   17.059(3)
_cell_angle_alpha                90
_cell_angle_beta                 92.11(3)
_cell_angle_gamma                90
_cell_volume                     12369.1
_exptl_crystal_colour            'pale yellow'
_exptl_crystal_description       block
_cell_formula_units_Z            4
loop_
_atom_site_label
_atom_site_type_symbol
_atom_site_fract_x
_atom_site_fract_y
_atom_site_fract_z
O1 O 0.88518(12) 0.39091(6) 0.62010(13)
H1 H 0.855(2) 0.3903(13) 0.580(2)
O2 O 0.58516(12) 0.33619(5) 0.31823(12)
H2 H 0.627(2) 0.3359(11) 0.354(3)
N1 N 0.59595(13) 0.40325(6) 0.59989(13)
H3 H 0.635(2) 0.4034(11) 0.578(2)
N2 N 0.54458(13) 0.40690(5) 0.41909(13)
H4 H 0.596(2) 0.4046(10) 0.418(2)
N3 N 0.80483(12) 0.39949(5) 0.26291(13)
H5 H 0.7789(16) 0.3914(7) 0.2988(18)
N4 N 0.92848(12) 0.36231(6) 0.37377(13)
H6 H 0.893(2) 0.3641(9) 0.403(2)
N5 N 0.79136(12) 0.31860(6) 0.64652(13)
H7 H 0.7825(18) 0.3277(8) 0.599(2)
N6 N 0.61695(12) 0.31940(5) 0.61215(13)
H8 H 0.6364(17) 0.3262(8) 0.572(2)
C1 C 0.86048(16) 0.41306(8) 0.67961(18)
C2 C 0.8646(2) 0.44897(10) 0.6517(3)
H9 H 0.9147 0.4538 0.6350
H10 H 0.8525 0.4640 0.6947
H11 H 0.8293 0.4523 0.6075
C3 C 0.91195(18) 0.40667(10) 0.7500(2)
H12 H 0.9089 0.3831 0.7652
H13 H 0.8975 0.4208 0.7938
H14 H 0.9627 0.4120 0.7365
C4 C 0.78323(16) 0.40569(8) 0.70011(16)
C5 C 0.72106(16) 0.40188(7) 0.71950(16)
C6 C 0.64500(15) 0.39851(7) 0.73838(16)
C7 C 0.62304(17) 0.39446(7) 0.81570(16)
H15 H 0.6600 0.3931 0.8566
C8 C 0.54864(17) 0.39239(7) 0.83503(16)
C9 C 0.49453(16) 0.39458(7) 0.77490(17)
H16 H 0.4439 0.3936 0.7871
C10 C 0.51403(15) 0.39821(6) 0.69697(16)
C11 C 0.47287(15) 0.40063(6) 0.62265(16)
C12 C 0.39711(15) 0.40022(7) 0.60112(16)
H17 H 0.3616 0.3979 0.6404
C13 C 0.37418(15) 0.40313(7) 0.52365(16)
H18 H 0.3230 0.4034 0.5093
C14 C 0.42771(14) 0.40570(6) 0.46539(16)
C15 C 0.42303(14) 0.40769(6) 0.38067(16)
C16 C 0.36414(14) 0.40957(7) 0.32570(16)
H19 H 0.3149 0.4100 0.3430
C17 C 0.37681(14) 0.41083(7) 0.24571(16)
C18 C 0.44987(14) 0.41047(7) 0.22186(16)
H20 H 0.4586 0.4112 0.1673
C19 C 0.51074(14) 0.40906(6) 0.27486(16)
C20 C 0.49618(14) 0.40759(6) 0.35491(15)
C21 C 0.50338(14) 0.40541(6) 0.48595(15)
C22 C 0.52628(14) 0.40335(6) 0.56485(15)
C23 C 0.58940(15) 0.39988(6) 0.67955(16)
C24 C 0.52642(18) 0.38840(8) 0.92093(17)
C25 C 0.5936(2) 0.38174(10) 0.97765(19)
H21 H 0.6263 0.4012 0.9785
H22 H 0.6206 0.3621 0.9597
H23 H 0.5763 0.3776 1.0305
C26 C 0.4886(2) 0.42028(9) 0.9471(2)
H24 H 0.4440 0.4241 0.9141
H25 H 0.5224 0.4392 0.9421
H26 H 0.4752 0.4180 1.0020
C27 C 0.4742(2) 0.35870(9) 0.9284(2)
H27 H 0.4612 0.3561 0.9834
H28 H 0.4986 0.3383 0.9108
H29 H 0.4293 0.3626 0.8960
C28 C 0.31106(15) 0.41266(9) 0.18645(18)
C29 C 0.2653(2) 0.44405(12) 0.2026(2)
H30 H 0.2212 0.4443 0.1677
H31 H 0.2951 0.4640 0.1933
H32 H 0.2505 0.4439 0.2573
C30 C 0.2625(2) 0.38205(12) 0.1961(2)
H33 H 0.2910 0.3619 0.1853
H34 H 0.2197 0.3834 0.1594
H35 H 0.2456 0.3812 0.2500
C31 C 0.33493(17) 0.41411(9) 0.10190(18)
H36 H 0.3633 0.3940 0.0901
H37 H 0.3657 0.4339 0.0947
H38 H 0.2911 0.4154 0.0665
C32 C 0.58357(14) 0.41127(7) 0.24533(15)
C33 C 0.64172(14) 0.41622(6) 0.21612(15)
C34 C 0.70566(14) 0.42633(6) 0.17537(15)
C35 C 0.69682(14) 0.44607(7) 0.10743(16)
H39 H 0.6482 0.4523 0.0907
C36 C 0.75566(15) 0.45701(7) 0.06317(17)
C37 C 0.82662(15) 0.44683(7) 0.08587(16)
H40 H 0.8674 0.4533 0.0560
C38 C 0.83783(14) 0.42705(7) 0.15271(16)
C39 C 0.90314(14) 0.41186(7) 0.18777(16)
C40 C 0.97590(14) 0.40948(7) 0.16239(16)
H41 H 0.9899 0.4208 0.1164
C41 C 1.02652(14) 0.39055(7) 0.20476(16)
H42 H 1.0753 0.3879 0.1872
C42 C 1.00508(14) 0.37511(7) 0.27474(15)
C43 C 1.04504(14) 0.35439(7) 0.33103(15)
C44 C 1.11630(14) 0.34177(7) 0.33462(15)
H43 H 1.1486 0.3464 0.2933
C45 C 1.14117(14) 0.32238(7) 0.39823(15)
C46 C 1.09196(14) 0.31692(7) 0.45848(15)
H44 H 1.1085 0.3040 0.5024
C47 C 1.02017(14) 0.32940(7) 0.45734(15)
C48 C 0.99609(13) 0.34771(7) 0.39165(14)
C49 C 0.93352(14) 0.37873(6) 0.30287(15)
C50 C 0.88023(13) 0.39585(6) 0.25634(15)
C51 C 0.77818(14) 0.41772(6) 0.19900(15)
C52 C 0.74455(16) 0.47977(8) -0.00879(18)
C53 C 0.7917(2) 0.51139(9) 0.0036(2)
H45 H 0.7851 0.5261 -0.0421
H46 H 0.8438 0.5051 0.0102
H47 H 0.7761 0.5232 0.0506
C54 C 0.6645(2) 0.48994(12) -0.0238(3)
H48 H 0.6607 0.5045 -0.0700
H49 H 0.6469 0.5020 0.0219
H50 H 0.6342 0.4699 -0.0331
C55 C 0.7712(2) 0.46148(10) -0.0816(2)
H51 H 0.7396 0.4420 -0.0924
H52 H 0.8223 0.4541 -0.0720
H53 H 0.7686 0.4766 -0.1267
C56 C 1.22091(14) 0.30937(7) 0.40344(16)
C57 C 1.24225(17) 0.29457(9) 0.32486(18)
H54 H 1.2923 0.2853 0.3298
H55 H 1.2407 0.3121 0.2847
H56 H 1.2075 0.2768 0.3096
C58 C 1.23211(17) 0.28227(8) 0.4658(2)
H57 H 1.2832 0.2743 0.4658
H58 H 1.1984 0.2636 0.4541
H59 H 1.2219 0.2915 0.5175
C59 C 1.27204(16) 0.33844(8) 0.4255(2)
H60 H 1.2585 0.3476 0.4763
H61 H 1.2672 0.3559 0.3853
H62 H 1.3232 0.3305 0.4290
C60 C 0.97716(14) 0.32434(7) 0.52516(15)
C61 C 0.95060(14) 0.32068(7) 0.58797(15)
C62 C 0.92972(14) 0.31575(7) 0.66694(15)
C63 C 0.98543(15) 0.31000(7) 0.72441(16)
H63 H 1.0354 0.3107 0.7094
C64 C 0.97109(15) 0.30320(7) 0.80282(16)
C65 C 0.89777(15) 0.30260(7) 0.82478(15)
H64 H 0.8866 0.2981 0.8777
C66 C 0.84033(14) 0.30866(7) 0.76922(15)
C67 C 0.76116(14) 0.30865(6) 0.77341(14)
C68 C 0.71288(15) 0.30287(7) 0.83529(15)
H65 H 0.7322 0.2987 0.8869
C69 C 0.63807(15) 0.30326(6) 0.82036(15)
H66 H 0.6053 0.2994 0.8615
C70 C 0.61005(14) 0.30949(6) 0.74357(14)
C71 C 0.53609(14) 0.31011(6) 0.70853(14)
C72 C 0.46636(14) 0.30512(6) 0.73843(15)
H67 H 0.4615 0.3010 0.7928
C73 C 0.40388(15) 0.30624(7) 0.68858(16)
C74 C 0.41322(14) 0.31198(7) 0.60805(15)
H68 H 0.3706 0.3127 0.5740
C75 C 0.48205(14) 0.31666(6) 0.57610(14)
C76 C 0.54355(14) 0.31619(6) 0.62804(14)
C77 C 0.65759(14) 0.31564(6) 0.68160(14)
C78 C 0.73380(14) 0.31521(6) 0.69669(14)
C79 C 0.85675(14) 0.31508(6) 0.69059(14)
C80 C 1.03355(15) 0.29578(8) 0.86349(16)
C81 C 1.0295(2) 0.32002(14) 0.9328(3)
C82 C 1.0236(2) 0.25944(12) 0.8953(3)
C83 C 1.1105(2) 0.29763(14) 0.8300(3)
C84 C 0.32623(15) 0.30049(8) 0.71858(17)
C85 C 0.32692(18) 0.29623(10) 0.80771(18)
H69 H 0.3492 0.3160 0.8329
H70 H 0.3558 0.2764 0.8226
H71 H 0.2762 0.2936 0.8247
C86 C 0.27674(19) 0.33005(10) 0.6956(2)
H72 H 0.2957 0.3503 0.7215
H73 H 0.2264 0.3257 0.7120
H74 H 0.2764 0.3331 0.6386
C87 C 0.29452(18) 0.26832(9) 0.68204(19)
H75 H 0.2436 0.2653 0.6980
H76 H 0.3245 0.2492 0.7000
H77 H 0.2953 0.2699 0.6247
C88 C 0.49342(14) 0.31918(6) 0.49350(15)
C89 C 0.51182(15) 0.31877(7) 0.42646(15)
C90 C 0.53324(16) 0.31246(7) 0.34469(15)
C91 C 0.46664(18) 0.31618(9) 0.28876(17)
H78 H 0.4457 0.3386 0.2941
H79 H 0.4294 0.2994 0.3013
H80 H 0.4818 0.3129 0.2348
C92 C 0.5654(2) 0.27728(9) 0.3421(2)
H81 H 0.5776 0.2718 0.2881
H82 H 0.5290 0.2612 0.3605
H83 H 0.6102 0.2762 0.3760
S1 S 0.73621(3) 0.371801(17) 0.45880(4)
O3 O 0.69184(10) 0.40153(5) 0.47624(12)
O4 O 0.81643(12) 0.38124(6) 0.47151(14)
O5 O 0.71966(13) 0.34346(7) 0.50735(14)
O6 O 0.72407(18) 0.36391(7) 0.37451(14)
N7 N 0.31831(14) 0.50101(6) 0.63670(15)
C93 C 0.34162(18) 0.48998(7) 0.55620(19)
H84 H 0.3728 0.4698 0.5624
H85 H 0.2969 0.4836 0.5246
C94 C 0.38375(18) 0.51593(8) 0.5110(2)
H86 H 0.4320 0.5202 0.5382
H87 H 0.3556 0.5371 0.5094
C95 C 0.39615(18) 0.50410(8) 0.4277(2)
H88 H 0.4330 0.5189 0.4039
H89 H 0.4171 0.4813 0.4298
C96 C 0.3266(2) 0.50369(13) 0.3750(2)
H90 H 0.2920 0.4871 0.3945
H91 H 0.3394 0.4980 0.3214
H92 H 0.3034 0.5258 0.3754
C97 C 0.38497(16) 0.50994(7) 0.68965(19)
H93 H 0.4128 0.5279 0.6641
H94 H 0.3670 0.5190 0.7394
C98 C 0.43778(18) 0.48137(8) 0.7090(2)
H95 H 0.4543 0.4712 0.6597
H96 H 0.4118 0.4640 0.7387
C99 C 0.50474(18) 0.49368(9) 0.7575(2)
H97 H 0.5287 0.5119 0.7286
H98 H 0.5408 0.4752 0.7635
C100 C 0.48602(19) 0.50637(9) 0.8388(2)
H99 H 0.4556 0.5265 0.8335
H100 H 0.5317 0.5116 0.8688
H101 H 0.4587 0.4891 0.8663
C101 C 0.27546(19) 0.47230(9) 0.6704(2)
H102 H 0.3074 0.4522 0.6715
H103 H 0.2326 0.4675 0.6345
C102 C 0.24747(19) 0.47787(9) 0.7525(2)
H104 H 0.2899 0.4813 0.7898
H105 H 0.2165 0.4982 0.7528
C103 C 0.2030(2) 0.44844(11) 0.7780(3)
H106 H 0.1679 0.4420 0.7348
H107 H 0.1739 0.4550 0.8235
C104 C 0.2508(4) 0.41873(13) 0.8003(4)
H108 H 0.2773 0.4112 0.7544
H109 H 0.2197 0.4006 0.8188
H110 H 0.2865 0.4252 0.8421
C105 C 0.27085(18) 0.53264(9) 0.6305(2)
H111 H 0.2560 0.5387 0.6839
H112 H 0.3022 0.5510 0.6116
C106 C 0.20115(18) 0.53108(12) 0.5774(2)
C107 C 0.12984(19) 0.52612(15) 0.6196(2)
C108 C 0.0634(2) 0.53310(14) 0.5621(3)
N8 N 0.80679(18) 0.30026(7) 0.17106(14)
C109 C 0.74039(18) 0.27934(8) 0.14641(18)
H113 H 0.7401 0.2591 0.1798
H114 H 0.7464 0.2719 0.0917
C110 C 0.66596(19) 0.29633(8) 0.15107(19)
H115 H 0.6650 0.3166 0.1178
H116 H 0.6582 0.3033 0.2058
C111 C 0.6044(2) 0.27295(9) 0.12389(18)
H117 H 0.5564 0.2834 0.1354
H118 H 0.6085 0.2520 0.1546
C112 C 0.6043(3) 0.26430(11) 0.0371(2)
H119 H 0.6035 0.2849 0.0061
H120 H 0.5605 0.2509 0.0231
H121 H 0.6488 0.2515 0.0262
C113 C 0.8070(2) 0.30901(8) 0.25836(17)
H122 H 0.8525 0.3218 0.2717
H123 H 0.7645 0.3239 0.2674
C114 C 0.8031(2) 0.27963(8) 0.31390(17)
H124 H 0.7524 0.2704 0.3125
H125 H 0.8372 0.2618 0.2975
C115 C 0.8242(2) 0.29084(9) 0.39569(17)
H126 H 0.7970 0.3116 0.4068
H127 H 0.8776 0.2962 0.3981
C116 C 0.80924(19) 0.26582(8) 0.45907(16)
H128 H 0.7564 0.2606 0.4583
H129 H 0.8243 0.2752 0.5103
H130 H 0.8373 0.2454 0.4499
C117 C 0.8747(2) 0.28005(8) 0.15323(19)
H131 H 0.8727 0.2589 0.1832
H132 H 0.8717 0.2741 0.0969
C118 C 0.9491(2) 0.29582(11) 0.1705(2)
H133 H 0.9561 0.2992 0.2278
H134 H 0.9510 0.3179 0.1447
C119 C 1.0108(2) 0.27391(10) 0.1414(2)
H135 H 1.0084 0.2519 0.1675
H136 H 1.0027 0.2703 0.0843
C120 C 1.0867(3) 0.28839(13) 0.1561(3)
H137 H 1.0893 0.3105 0.1315
H138 H 1.1235 0.2736 0.1337
H139 H 1.0968 0.2905 0.2128
C121 C 0.8055(2) 0.33353(8) 0.12696(18)
H140 H 0.8509 0.3461 0.1419
H141 H 0.7629 0.3468 0.1440
C122 C 0.8004(3) 0.33029(9) 0.0371(2)
C123 C 0.8023(3) 0.36518(10) 0.0016(2)
C124 C 0.8818(3) 0.37461(16) -0.0165(4)
O7 O 0.16656(19) 0.44822(9) 0.5210(2)
O8 O 0.07995(14) 0.41032(7) 0.49524(16)
C125 C 0.1378(2) 0.43299(12) 0.3878(2)
H142 H 0.1592 0.4545 0.3736
H143 H 0.0891 0.4305 0.3615
H144 H 0.1702 0.4149 0.3714
C126 C 0.1299(2) 0.43147(10) 0.4758(2)
C127 C 0.0655(2) 0.40682(10) 0.5789(2)
H145 H 0.0146 0.3984 0.5848
H146 H 0.0693 0.4290 0.6045
C128 C 0.1197(3) 0.38301(11) 0.6185(3)
H147 H 0.1162 0.3611 0.5928
H148 H 0.1081 0.3807 0.6739
H149 H 0.1699 0.3918 0.6145
O9 O -0.02270(17) 0.45655(9) 0.97894(18)
O10 O 0.03693(17) 0.46301(8) 0.86856(17)
C129 C 0.0715(3) 0.41738(12) 0.9493(4)
H150 H 0.1213 0.4249 0.9653
H151 H 0.0737 0.4043 0.9010
H152 H 0.0517 0.4035 0.9909
C130 C 0.0219(2) 0.44736(11) 0.9352(2)
C131 C -0.0074(3) 0.49175(13) 0.8515(2)
H153 H 0.0004 0.5089 0.8928
H154 H -0.0603 0.4857 0.8483
C132 C 0.0174(4) 0.50469(14) 0.7730(3)
H155 H 0.0685 0.5125 0.7786
H156 H -0.0146 0.5232 0.7557
H157 H 0.0142 0.4867 0.7342
O11 O 0.2248(3) 0.3042(2) 0.0195(5)
O12 O 0.3287(3) 0.32988(14) 0.0290(3)
C133 C 0.2395(4) 0.35724(18) -0.0490(5)
C134 C 0.2575(4) 0.32788(19) 0.0051(4)
C135 C 0.3520(6) 0.3018(2) 0.0723(7)
C136 C 0.4061(4) 0.27899(16) 0.0338(4)
C137? C 0.1321(4) 0.5500(4) 0.6002(10)
C138? C 0.8262(5) 0.3714(2) -0.0823(3)
C139? C 1.0796(10) 0.3285(3) 0.8696(12)
C140? C 1.0074(8) 0.2851(4) 0.9438(6)
C141? C 1.0828(10) 0.2692(5) 0.8292(10)
O13? O 0.7854(5) 0.3663(2) 0.5262(5)
O14? O 0.6755(5) 0.3428(2) 0.4652(5)
O15? O 0.7679(7) 0.3672(3) 0.3856(5)
O16? O 0.3766(8) 0.3218(4) 0.1004(9)
O17? O 0.3003(7) 0.2942(3) 0.0116(9)
loop_
_geom_bond_atom_site_label_1
_geom_bond_atom_site_label_2
_geom_bond_site_symmetry_1
_geom_bond_site_symmetry_2
O1 H1 1_555 1_555
O2 H2 1_555 1_555
N1 H3 1_555 1_555
N2 H4 1_555 1_555
N3 H5 1_555 1_555
N4 H6 1_555 1_555
N5 H7 1_555 1_555
N6 H8 1_555 1_555
C1 O1 1_555 1_555
C2 C1 1_555 1_555
H9 C2 1_555 1_555
H10 C2 1_555 1_555
H11 C2 1_555 1_555
C3 C1 1_555 1_555
H12 C3 1_555 1_555
H13 C3 1_555 1_555
H14 C3 1_555 1_555
C4 C1 1_555 1_555
C5 C4 1_555 1_555
C6 C5 1_555 1_555
C7 C6 1_555 1_555
H15 C7 1_555 1_555
C8 C7 1_555 1_555
C9 C8 1_555 1_555
H16 C9 1_555 1_555
C10 C9 1_555 1_555
C11 C10 1_555 1_555
C12 C11 1_555 1_555
H17 C12 1_555 1_555
C13 C12 1_555 1_555
H18 C13 1_555 1_555
C14 C13 1_555 1_555
C15 C14 1_555 1_555
C16 C15 1_555 1_555
H19 C16 1_555 1_555
C17 C16 1_555 1_555
C18 C17 1_555 1_555
H20 C18 1_555 1_555
C19 C18 1_555 1_555
C20 N2 1_555 1_555
C21 N2 1_555 1_555
C22 N1 1_555 1_555
C23 N1 1_555 1_555
C24 C8 1_555 1_555
C25 C24 1_555 1_555
H21 C25 1_555 1_555
H22 C25 1_555 1_555
H23 C25 1_555 1_555
C26 C24 1_555 1_555
H24 C26 1_555 1_555
H25 C26 1_555 1_555
H26 C26 1_555 1_555
C27 C24 1_555 1_555
H27 C27 1_555 1_555
H28 C27 1_555 1_555
H29 C27 1_555 1_555
C28 C17 1_555 1_555
C29 C28 1_555 1_555
H30 C29 1_555 1_555
H31 C29 1_555 1_555
H32 C29 1_555 1_555
C30 C28 1_555 1_555
H33 C30 1_555 1_555
H34 C30 1_555 1_555
H35 C30 1_555 1_555
C31 C28 1_555 1_555
H36 C31 1_555 1_555
H37 C31 1_555 1_555
H38 C31 1_555 1_555
C32 C19 1_555 1_555
C33 C32 1_555 1_555
C34 C33 1_555 1_555
C35 C34 1_555 1_555
H39 C35 1_555 1_555
C36 C35 1_555 1_555
C37 C36 1_555 1_555
H40 C37 1_555 1_555
C38 C37 1_555 1_555
C39 C38 1_555 1_555
C40 C39 1_555 1_555
H41 C40 1_555 1_555
C41 C40 1_555 1_555
H42 C41 1_555 1_555
C42 C41 1_555 1_555
C43 C42 1_555 1_555
C44 C43 1_555 1_555
H43 C44 1_555 1_555
C45 C44 1_555 1_555
C46 C45 1_555 1_555
H44 C46 1_555 1_555
C47 C46 1_555 1_555
C48 N4 1_555 1_555
C49 N4 1_555 1_555
C50 N3 1_555 1_555
C51 N3 1_555 1_555
C52 C36 1_555 1_555
C53 C52 1_555 1_555
H45 C53 1_555 1_555
H46 C53 1_555 1_555
H47 C53 1_555 1_555
C54 C52 1_555 1_555
H48 C54 1_555 1_555
H49 C54 1_555 1_555
H50 C54 1_555 1_555
C55 C52 1_555 1_555
H51 C55 1_555 1_555
H52 C55 1_555 1_555
H53 C55 1_555 1_555
C56 C45 1_555 1_555
C57 C56 1_555 1_555
H54 C57 1_555 1_555
H55 C57 1_555 1_555
H56 C57 1_555 1_555
C58 C56 1_555 1_555
H57 C58 1_555 1_555
H58 C58 1_555 1_555
H59 C58 1_555 1_555
C59 C56 1_555 1_555
H60 C59 1_555 1_555
H61 C59 1_555 1_555
H62 C59 1_555 1_555
C60 C47 1_555 1_555
C61 C60 1_555 1_555
C62 C61 1_555 1_555
C63 C62 1_555 1_555
H63 C63 1_555 1_555
C64 C63 1_555 1_555
C65 C64 1_555 1_555
H64 C65 1_555 1_555
C66 C65 1_555 1_555
C67 C66 1_555 1_555
C68 C67 1_555 1_555
H65 C68 1_555 1_555
C69 C68 1_555 1_555
H66 C69 1_555 1_555
C70 C69 1_555 1_555
C71 C70 1_555 1_555
C72 C71 1_555 1_555
H67 C72 1_555 1_555
C73 C72 1_555 1_555
C74 C73 1_555 1_555
H68 C74 1_555 1_555
C75 C74 1_555 1_555
C76 N6 1_555 1_555
C77 N6 1_555 1_555
C78 N5 1_555 1_555
C79 N5 1_555 1_555
C80 C64 1_555 1_555
C81 C80 1_555 1_555
C82 C80 1_555 1_555
C83 C80 1_555 1_555
C84 C73 1_555 1_555
C85 C84 1_555 1_555
H69 C85 1_555 1_555
H70 C85 1_555 1_555
H71 C85 1_555 1_555
C86 C84 1_555 1_555
H72 C86 1_555 1_555
H73 C86 1_555 1_555
H74 C86 1_555 1_555
C87 C84 1_555 1_555
H75 C87 1_555 1_555
H76 C87 1_555 1_555
H77 C87 1_555 1_555
C88 C75 1_555 1_555
C89 C88 1_555 1_555
C90 O2 1_555 1_555
C91 C90 1_555 1_555
H78 C91 1_555 1_555
H79 C91 1_555 1_555
H80 C91 1_555 1_555
C92 C90 1_555 1_555
H81 C92 1_555 1_555
H82 C92 1_555 1_555
H83 C92 1_555 1_555
S1 O3 1_555 1_555
O4 S1 1_555 1_555
O5 S1 1_555 1_555
O6 S1 1_555 1_555
N7 C93 1_555 1_555
C93 H84 1_555 1_555
H85 C93 1_555 1_555
C94 C93 1_555 1_555
H86 C94 1_555 1_555
H87 C94 1_555 1_555
C95 C94 1_555 1_555
H88 C95 1_555 1_555
H89 C95 1_555 1_555
C96 C95 1_555 1_555
H90 C96 1_555 1_555
H91 C96 1_555 1_555
H92 C96 1_555 1_555
C97 N7 1_555 1_555
H93 C97 1_555 1_555
H94 C97 1_555 1_555
C98 C97 1_555 1_555
H95 C98 1_555 1_555
H96 C98 1_555 1_555
C99 C98 1_555 1_555
H97 C99 1_555 1_555
H98 C99 1_555 1_555
C100 C99 1_555 1_555
H99 C100 1_555 1_555
H100 C100 1_555 1_555
H101 C100 1_555 1_555
C101 N7 1_555 1_555
H102 C101 1_555 1_555
H103 C101 1_555 1_555
C102 C101 1_555 1_555
H104 C102 1_555 1_555
H105 C102 1_555 1_555
C103 C102 1_555 1_555
H106 C103 1_555 1_555
H107 C103 1_555 1_555
C104 C103 1_555 1_555
H108 C104 1_555 1_555
H109 C104 1_555 1_555
H110 C104 1_555 1_555
C105 N7 1_555 1_555
H111 C105 1_555 1_555
H112 C105 1_555 1_555
C106 C105 1_555 1_555
C107 C106 1_555 1_555
C108 C107 1_555 1_555
N8 C109 1_555 1_555
C109 H113 1_555 1_555
H114 C109 1_555 1_555
C110 C109 1_555 1_555
H115 C110 1_555 1_555
H116 C110 1_555 1_555
C111 C110 1_555 1_555
H117 C111 1_555 1_555
H118 C111 1_555 1_555
C112 C111 1_555 1_555
H119 C112 1_555 1_555
H120 C112 1_555 1_555
H121 C112 1_555 1_555
C113 N8 1_555 1_555
H122 C113 1_555 1_555
H123 C113 1_555 1_555
C114 C113 1_555 1_555
H124 C114 1_555 1_555
H125 C114 1_555 1_555
C115 C114 1_555 1_555
H126 C115 1_555 1_555
H127 C115 1_555 1_555
C116 C115 1_555 1_555
H128 C116 1_555 1_555
H129 C116 1_555 1_555
H130 C116 1_555 1_555
C117 N8 1_555 1_555
H131 C117 1_555 1_555
H132 C117 1_555 1_555
C118 C117 1_555 1_555
H133 C118 1_555 1_555
H134 C118 1_555 1_555
C119 C118 1_555 1_555
H135 C119 1_555 1_555
H136 C119 1_555 1_555
C120 C119 1_555 1_555
H137 C120 1_555 1_555
H138 C120 1_555 1_555
H139 C120 1_555 1_555
C121 N8 1_555 1_555
H140 C121 1_555 1_555
H141 C121 1_555 1_555
C122 C121 1_555 1_555
C123 C122 1_555 1_555
C124 C123 1_555 1_555
O7 C126 1_555 1_555
O8 C126 1_555 1_555
C125 H142 1_555 1_555
H143 C125 1_555 1_555
H144 C125 1_555 1_555
C126 C125 1_555 1_555
C127 O8 1_555 1_555
H145 C127 1_555 1_555
H146 C127 1_555 1_555
C128 C127 1_555 1_555
H147 C128 1_555 1_555
H148 C128 1_555 1_555
H149 C128 1_555 1_555
O9 C130 1_555 1_555
O10 C130 1_555 1_555
C129 H150 1_555 1_555
H151 C129 1_555 1_555
H152 C129 1_555 1_555
C130 C129 1_555 1_555
C131 O10 1_555 1_555
H153 C131 1_555 1_555
H154 C131 1_555 1_555
C132 C131 1_555 1_555
H155 C132 1_555 1_555
H156 C132 1_555 1_555
H157 C132 1_555 1_555
O11 C134 1_555 1_555
O12 C134 1_555 1_555
C133 C134 1_555 1_555
C135 O12 1_555 1_555
C136 C135 1_555 1_555
C6 C23 1_555 1_555
C10 C23 1_555 1_555
C11 C22 1_555 1_555
C14 C21 1_555 1_555
C15 C20 1_555 1_555
C19 C20 1_555 1_555
C21 C22 1_555 1_555
C34 C51 1_555 1_555
C38 C51 1_555 1_555
C39 C50 1_555 1_555
C42 C49 1_555 1_555
C43 C48 1_555 1_555
C47 C48 1_555 1_555
C49 C50 1_555 1_555
C62 C79 1_555 1_555
C66 C79 1_555 1_555
C67 C78 1_555 1_555
C70 C77 1_555 1_555
C71 C76 1_555 1_555
C75 C76 1_555 1_555
C77 C78 1_555 1_555
C89 C90 1_555 1_555

#END
