
#######################################################################
#
#                 Cambridge Crystallographic Data Centre
#                                CCDC 
#
#######################################################################
#
# If this CIF has been generated from an entry in the Cambridge 
# Structural Database, then it will include bibliographic, chemical, 
# crystal, experimental, refinement or atomic coordinate data resulting 
# from the CCDC's data processing and validation procedures.
#
#######################################################################

data_FUJVIQ
_chemical_formula_moiety         'C27 H39 B11'
_chemical_name_systematic        
1-(Dimesitylboryl)-4-(2-methyl-1,2-dicarbadodecaboran-1-yl)benzene
_symmetry_cell_setting           monoclinic
_symmetry_space_group_name_H-M   'P 21/n'
_symmetry_Int_Tables_number      14
_space_group_name_Hall           '-P 2yn'
loop_
_symmetry_equiv_pos_site_id
_symmetry_equiv_pos_as_xyz
1 x,y,z
2 1/2-x,1/2+y,1/2-z
3 -x,-y,-z
4 1/2+x,1/2-y,1/2+z
_cell_length_a                   7.9560(4)
_cell_length_b                   27.7402(15)
_cell_length_c                   13.6954(8)
_cell_angle_alpha                90
_cell_angle_beta                 93.533(3)
_cell_angle_gamma                90
_cell_volume                     3016.84
_exptl_crystal_colour            colorless
_exptl_crystal_description       cubic
_cell_formula_units_Z            4
loop_
_atom_site_label
_atom_site_type_symbol
_atom_site_fract_x
_atom_site_fract_y
_atom_site_fract_z
B1 B 0.1713(2) 0.09893(6) 0.22537(13)
C1 C 0.24747(19) 0.08490(5) 0.12501(11)
C2 C 0.1442(2) 0.07438(6) 0.03988(12)
C3 C 0.2165(2) 0.06277(6) -0.04723(12)
H1 H 0.1459 0.0553 -0.1018
C4 C 0.3881(2) 0.06191(6) -0.05585(13)
C5 C 0.4889(2) 0.07209(7) 0.02751(13)
H2 H 0.6052 0.0719 0.0236
C6 C 0.4234(2) 0.08267(6) 0.11699(12)
C7 C 0.2109(2) 0.06953(6) 0.32276(12)
C8 C 0.1712(2) 0.01989(6) 0.32731(13)
C9 C 0.1968(3) -0.00527(7) 0.41498(15)
H3 H 0.1673 -0.0377 0.4169
C10 C 0.2647(3) 0.01644(8) 0.49920(14)
C11 C 0.3061(3) 0.06455(8) 0.49470(13)
H4 H 0.3529 0.0796 0.5507
C12 C 0.2804(2) 0.09158(7) 0.40902(12)
C13 C 0.0456(2) 0.14304(6) 0.22769(11)
C14 C -0.0636(2) 0.14832(6) 0.30344(12)
H5 H -0.0551 0.1269 0.3557
C15 C -0.1837(2) 0.18439(6) 0.30305(12)
H6 H -0.2547 0.1865 0.3544
C16 C -0.1994(2) 0.21751(6) 0.22656(12)
C17 C -0.0885(2) 0.21378(6) 0.15180(13)
H7 H -0.0946 0.2360 0.1008
C18 C 0.0306(2) 0.17736(6) 0.15287(12)
H8 H 0.1030 0.1757 0.1022
C19 C -0.1744(3) 0.30845(8) 0.36377(17)
H9 H -0.1661 0.2803 0.4045
H10 H -0.1863 0.3365 0.4038
H11 H -0.0744 0.3114 0.3284
C20 C -0.0456(2) 0.07241(7) 0.03983(14)
H12 H -0.0935 0.0963 -0.0044
H13 H -0.0798 0.0787 0.1046
H14 H -0.0840 0.0410 0.0193
C21 C 0.4648(3) 0.05045(10) -0.15147(16)
H15 H 0.3803 0.0369 -0.1964
H16 H 0.5548 0.0277 -0.1400
H17 H 0.5081 0.0795 -0.1787
C22 C 0.5467(2) 0.09186(8) 0.20275(14)
H18 H 0.6571 0.0819 0.1866
H19 H 0.5135 0.0739 0.2583
H20 H 0.5479 0.1256 0.2180
C23 C 0.0924(3) -0.00675(7) 0.23994(15)
H21 H 0.0902 -0.0406 0.2539
H22 H 0.1575 -0.0012 0.1843
H23 H -0.0204 0.0046 0.2261
C24 C 0.2932(4) -0.01215(11) 0.59251(17)
H24 H 0.4093 -0.0096 0.6157
H25 H 0.2657 -0.0454 0.5801
H26 H 0.2230 0.0004 0.6411
C25 C 0.3358(3) 0.14371(8) 0.41087(15)
H27 H 0.2575 0.1626 0.4454
H28 H 0.3390 0.1554 0.3451
H29 H 0.4459 0.1462 0.4433
B2 B -0.4352(3) 0.26933(8) 0.10845(17)
B3 B -0.2937(3) 0.31025(8) 0.16972(17)
B4 B -0.4712(3) 0.25981(8) 0.31471(18)
B5 B -0.5455(3) 0.23799(8) 0.19846(19)
B6 B -0.6433(3) 0.28681(9) 0.1335(2)
B7 B -0.4876(3) 0.33138(9) 0.1159(2)
B8 B -0.4137(3) 0.35267(8) 0.2319(2)
B9 B -0.5228(4) 0.32170(9) 0.3214(2)
B10 B -0.6643(3) 0.28054(9) 0.2616(2)
B11 B -0.6291(3) 0.33853(9) 0.2101(2)
C26 C -0.3386(2) 0.25464(6) 0.21933(13)
C27 C -0.3256(2) 0.30401(6) 0.29248(14)
H30 H -0.160(3) 0.3161(7) 0.1525(14)
H31 H -0.448(2) 0.2397(7) 0.3796(14)
H32 H -0.393(3) 0.2504(7) 0.0448(14)
H33 H -0.356(3) 0.3872(8) 0.2454(15)
H34 H -0.749(3) 0.2820(8) 0.0817(16)
H35 H -0.569(2) 0.1995(7) 0.1904(13)
H36 H -0.731(3) 0.3659(7) 0.2071(14)
H37 H -0.489(3) 0.3527(9) 0.0517(18)
H38 H -0.530(3) 0.3368(8) 0.3926(17)
H39 H -0.782(3) 0.2691(8) 0.2963(15)
loop_
_geom_bond_atom_site_label_1
_geom_bond_atom_site_label_2
_geom_bond_site_symmetry_1
_geom_bond_site_symmetry_2
B1 C1 1_555 1_555
C1 C2 1_555 1_555
C2 C3 1_555 1_555
C3 H1 1_555 1_555
C4 C3 1_555 1_555
C5 C4 1_555 1_555
H2 C5 1_555 1_555
C6 C1 1_555 1_555
C7 B1 1_555 1_555
C8 C7 1_555 1_555
C9 C8 1_555 1_555
H3 C9 1_555 1_555
C10 C9 1_555 1_555
C11 C10 1_555 1_555
H4 C11 1_555 1_555
C12 C7 1_555 1_555
C13 B1 1_555 1_555
C14 C13 1_555 1_555
H5 C14 1_555 1_555
C15 C14 1_555 1_555
H6 C15 1_555 1_555
C16 C15 1_555 1_555
C17 C16 1_555 1_555
H7 C17 1_555 1_555
C18 C13 1_555 1_555
H8 C18 1_555 1_555
C19 H9 1_555 1_555
H10 C19 1_555 1_555
H11 C19 1_555 1_555
C20 C2 1_555 1_555
H12 C20 1_555 1_555
H13 C20 1_555 1_555
H14 C20 1_555 1_555
C21 C4 1_555 1_555
H15 C21 1_555 1_555
H16 C21 1_555 1_555
H17 C21 1_555 1_555
C22 C6 1_555 1_555
H18 C22 1_555 1_555
H19 C22 1_555 1_555
H20 C22 1_555 1_555
C23 C8 1_555 1_555
H21 C23 1_555 1_555
H22 C23 1_555 1_555
H23 C23 1_555 1_555
C24 C10 1_555 1_555
H24 C24 1_555 1_555
H25 C24 1_555 1_555
H26 C24 1_555 1_555
C25 C12 1_555 1_555
H27 C25 1_555 1_555
H28 C25 1_555 1_555
H29 C25 1_555 1_555
B2 B3 1_555 1_555
B3 B7 1_555 1_555
B4 B5 1_555 1_555
B5 B2 1_555 1_555
B6 B2 1_555 1_555
B7 B2 1_555 1_555
B8 B3 1_555 1_555
B9 B4 1_555 1_555
B10 B4 1_555 1_555
B11 B6 1_555 1_555
C26 C16 1_555 1_555
C27 C19 1_555 1_555
H30 B3 1_555 1_555
H31 B4 1_555 1_555
H32 B2 1_555 1_555
H33 B8 1_555 1_555
H34 B6 1_555 1_555
H35 B5 1_555 1_555
H36 B11 1_555 1_555
H37 B7 1_555 1_555
H38 B9 1_555 1_555
H39 B10 1_555 1_555
C5 C6 1_555 1_555
C11 C12 1_555 1_555
C17 C18 1_555 1_555
B2 C26 1_555 1_555
B3 C26 1_555 1_555
B3 C27 1_555 1_555
B4 C26 1_555 1_555
B4 C27 1_555 1_555
B5 B6 1_555 1_555
B5 B10 1_555 1_555
B5 C26 1_555 1_555
B6 B7 1_555 1_555
B6 B10 1_555 1_555
B7 B8 1_555 1_555
B7 B11 1_555 1_555
B8 B9 1_555 1_555
B8 B11 1_555 1_555
B8 C27 1_555 1_555
B9 B10 1_555 1_555
B9 B11 1_555 1_555
B9 C27 1_555 1_555
B10 B11 1_555 1_555
C26 C27 1_555 1_555

#END
