
#######################################################################
#
#                 Cambridge Crystallographic Data Centre
#                                CCDC 
#
#######################################################################
#
# If this CIF has been generated from an entry in the Cambridge 
# Structural Database, then it will include bibliographic, chemical, 
# crystal, experimental, refinement or atomic coordinate data resulting 
# from the CCDC's data processing and validation procedures.
#
#######################################################################

data_FUJVEM
_chemical_formula_moiety         'C32 H41 B11'
_chemical_name_systematic        
1-(Dimesitylboryl)-4-(2-phenyl-1,2-dicarbadodecaboran-1-yl)benzene
_symmetry_cell_setting           monoclinic
_symmetry_space_group_name_H-M   'P 21/c'
_symmetry_Int_Tables_number      14
_space_group_name_Hall           '-P 2ybc'
loop_
_symmetry_equiv_pos_site_id
_symmetry_equiv_pos_as_xyz
1 x,y,z
2 -x,1/2+y,1/2-z
3 -x,-y,-z
4 x,1/2-y,1/2+z
_cell_length_a                   11.3388(7)
_cell_length_b                   21.7577(12)
_cell_length_c                   13.6469(8)
_cell_angle_alpha                90
_cell_angle_beta                 101.822(4)
_cell_angle_gamma                90
_cell_volume                     3295.36
_exptl_crystal_colour            colorless
_exptl_crystal_description       cubic
_cell_formula_units_Z            4
_exptl_crystal_recrystallization_method 'ethyl acetate/methanol'
loop_
_atom_site_label
_atom_site_type_symbol
_atom_site_fract_x
_atom_site_fract_y
_atom_site_fract_z
C1 C 0.72606(18) 0.13692(8) 0.76214(15)
C2 C 0.63819(18) 0.08447(9) 0.75644(15)
C3 C 0.87950(18) 0.24050(9) 0.77031(15)
C4 C 0.7308(2) 0.17066(9) 0.67669(15)
H1 H 0.6816 0.1597 0.6160
C5 C 0.8668(2) 0.35833(9) 0.91458(17)
C6 C 0.8077(2) 0.22032(9) 0.68046(16)
H2 H 0.8117 0.2409 0.6215
C7 C 0.5080(2) 0.15341(12) 0.86885(17)
C8 C 1.0808(2) 0.36642(9) 0.92146(16)
C9 C 0.80230(19) 0.15393(9) 0.85104(16)
H3 H 0.8043 0.1307 0.9085
C10 C 0.96767(19) 0.34269(9) 0.87282(15)
C11 C 0.8753(2) 0.20519(10) 0.85492(16)
H4 H 0.9232 0.2165 0.9160
C12 C 1.00838(19) 0.32243(9) 0.68331(16)
C13 C 0.51681(18) 0.09471(9) 0.81266(15)
C14 C 1.0909(2) 0.40209(10) 1.00705(17)
H5 H 1.1669 0.4158 1.0387
C15 C 1.0935(2) 0.28550(10) 0.64812(17)
C16 C 0.8822(3) 0.39659(11) 0.99820(19)
H6 H 0.8143 0.4082 1.0221
C17 C 0.9931(3) 0.41816(11) 1.04732(18)
C18 C 0.9779(2) 0.37946(10) 0.63529(16)
B1 B 0.9535(2) 0.30190(11) 0.77548(19)
C19 C 0.7404(2) 0.33695(11) 0.8713(2)
H7 H 0.7289 0.2964 0.8956
H8 H 0.7280 0.3361 0.7996
H9 H 0.6837 0.3647 0.8913
C20 C 1.1476(2) 0.30703(13) 0.57172(19)
H10 H 1.2050 0.2825 0.5507
C21 C 1.0339(2) 0.39790(11) 0.55880(17)
H11 H 1.0126 0.4356 0.5281
B2 B 0.4959(2) 0.09687(12) 0.68378(18)
C22 C 1.1196(2) 0.36299(14) 0.52622(18)
B3 B 0.3919(3) 0.05928(13) 0.7444(2)
C23 C 1.1312(3) 0.22341(11) 0.6941(2)
H12 H 1.0650 0.1952 0.6777
H13 H 1.1543 0.2275 0.7655
H14 H 1.1982 0.2082 0.6682
C24 C 1.1952(2) 0.35199(13) 0.8851(2)
H15 H 1.2632 0.3683 0.9315
H16 H 1.1912 0.3703 0.8205
H17 H 1.2037 0.3083 0.8802
C25 C 0.4707(2) 0.20781(12) 0.8196(2)
H18 H 0.4539 0.2088 0.7499
B4 B 0.5945(3) 0.04134(13) 0.6508(2)
B5 B 0.4392(3) 0.02417(14) 0.6415(2)
C26 C 1.0069(3) 0.45672(13) 1.14059(19)
H19 H 1.0147 0.4304 1.1980
H20 H 0.9372 0.4824 1.1365
H21 H 1.0774 0.4820 1.1468
C27 C 0.5325(3) 0.15309(17) 0.9724(2)
H22 H 0.5571 0.1171 1.0073
B6 B 0.6299(3) 0.04370(13) 0.8638(2)
B7 B 0.4269(3) -0.01980(14) 0.7485(3)
C28 C 0.5199(4) 0.2072(3) 1.0241(4)
H23 H 0.5375 0.2073 1.0937
C29 C 0.8820(3) 0.41998(11) 0.6632(2)
H24 H 0.8746 0.4569 0.6239
H25 H 0.9040 0.4303 0.7330
H26 H 0.8065 0.3985 0.6505
C30 C 0.4825(4) 0.2597(3) 0.9742(6)
H27 H 0.4732 0.2953 1.0096
B8 B 0.4745(3) 0.02643(14) 0.8553(2)
B9 B 0.5509(3) -0.03066(14) 0.6902(3)
B10 B 0.5730(3) -0.02903(15) 0.8223(3)
C31 C 0.4584(3) 0.26055(16) 0.8726(4)
H28 H 0.4334 0.2968 0.8386
B11 B 0.6767(3) 0.00834(12) 0.7618(3)
C32 C 1.1791(3) 0.38520(17) 0.4425(2)
H29 H 1.2170 0.4242 0.4605
H30 H 1.1193 0.3895 0.3820
H31 H 1.2387 0.3559 0.4322
H32 H 0.4778(18) 0.1417(9) 0.6468(15)
H33 H 0.306(2) 0.0810(9) 0.7456(15)
H34 H 0.638(2) 0.0537(10) 0.5917(17)
H35 H 0.438(2) 0.0284(10) 0.9234(18)
H36 H 0.771(3) 0.0000(11) 0.7695(18)
H37 H 0.356(2) -0.0544(11) 0.7469(17)
H38 H 0.691(2) 0.0567(9) 0.9349(17)
H39 H 0.377(2) 0.0203(11) 0.5697(19)
H40 H 0.600(3) -0.0672(13) 0.867(2)
H41 H 0.558(2) -0.0729(13) 0.6506(19)
loop_
_geom_bond_atom_site_label_1
_geom_bond_atom_site_label_2
_geom_bond_site_symmetry_1
_geom_bond_site_symmetry_2
C1 C2 1_555 1_555
C2 C13 1_555 1_555
C3 C6 1_555 1_555
C4 C1 1_555 1_555
H1 C4 1_555 1_555
C5 C10 1_555 1_555
C6 C4 1_555 1_555
H2 C6 1_555 1_555
C7 C13 1_555 1_555
C8 C10 1_555 1_555
C9 C1 1_555 1_555
H3 C9 1_555 1_555
C10 B1 1_555 1_555
C11 C3 1_555 1_555
H4 C11 1_555 1_555
C12 C15 1_555 1_555
C13 B2 1_555 1_555
C14 C8 1_555 1_555
H5 C14 1_555 1_555
C15 C20 1_555 1_555
C16 C5 1_555 1_555
H6 C16 1_555 1_555
C17 C14 1_555 1_555
C18 C12 1_555 1_555
B1 C3 1_555 1_555
C19 C5 1_555 1_555
H7 C19 1_555 1_555
H8 C19 1_555 1_555
H9 C19 1_555 1_555
C20 H10 1_555 1_555
C21 C18 1_555 1_555
H11 C21 1_555 1_555
B2 C2 1_555 1_555
C22 C20 1_555 1_555
B3 C13 1_555 1_555
C23 C15 1_555 1_555
H12 C23 1_555 1_555
H13 C23 1_555 1_555
H14 C23 1_555 1_555
C24 C8 1_555 1_555
H15 C24 1_555 1_555
H16 C24 1_555 1_555
H17 C24 1_555 1_555
C25 C7 1_555 1_555
H18 C25 1_555 1_555
B4 C2 1_555 1_555
B5 B2 1_555 1_555
C26 C17 1_555 1_555
H19 C26 1_555 1_555
H20 C26 1_555 1_555
H21 C26 1_555 1_555
C27 C7 1_555 1_555
H22 C27 1_555 1_555
B6 C2 1_555 1_555
B7 B3 1_555 1_555
C28 C27 1_555 1_555
H23 C28 1_555 1_555
C29 C18 1_555 1_555
H24 C29 1_555 1_555
H25 C29 1_555 1_555
H26 C29 1_555 1_555
C30 C28 1_555 1_555
H27 C30 1_555 1_555
B8 C13 1_555 1_555
B9 B4 1_555 1_555
B10 B6 1_555 1_555
C31 C25 1_555 1_555
H28 C31 1_555 1_555
B11 C2 1_555 1_555
C32 C22 1_555 1_555
H29 C32 1_555 1_555
H30 C32 1_555 1_555
H31 C32 1_555 1_555
H32 B2 1_555 1_555
H33 B3 1_555 1_555
H34 B4 1_555 1_555
H35 B8 1_555 1_555
H36 B11 1_555 1_555
H37 B7 1_555 1_555
H38 B6 1_555 1_555
H39 B5 1_555 1_555
H40 B10 1_555 1_555
H41 B9 1_555 1_555
C9 C11 1_555 1_555
C12 B1 1_555 1_555
C13 B6 1_555 1_555
C16 C17 1_555 1_555
C21 C22 1_555 1_555
B2 B3 1_555 1_555
B2 B4 1_555 1_555
B3 B5 1_555 1_555
B3 B8 1_555 1_555
B4 B5 1_555 1_555
B4 B11 1_555 1_555
B5 B7 1_555 1_555
B5 B9 1_555 1_555
B6 B8 1_555 1_555
B6 B11 1_555 1_555
B7 B8 1_555 1_555
B7 B9 1_555 1_555
B7 B10 1_555 1_555
C30 C31 1_555 1_555
B8 B10 1_555 1_555
B9 B10 1_555 1_555
B9 B11 1_555 1_555
B10 B11 1_555 1_555

#END
