
#######################################################################
#
#                 Cambridge Crystallographic Data Centre
#                                CCDC 
#
#######################################################################
#
# If this CIF has been generated from an entry in the Cambridge 
# Structural Database, then it will include bibliographic, chemical, 
# crystal, experimental, refinement or atomic coordinate data resulting 
# from the CCDC's data processing and validation procedures.
#
#######################################################################

data_FUJWAI01
_chemical_compound_source        'shrub Andrographis paniculata'
_chemical_formula_moiety         'C26 H40 O8,H2 O1'
_chemical_name_systematic        'Neoandrographolide monohydrate'
_symmetry_cell_setting           monoclinic
_symmetry_space_group_name_H-M   'P 21'
_symmetry_Int_Tables_number      4
_space_group_name_Hall           'P 2yb'
loop_
_symmetry_equiv_pos_site_id
_symmetry_equiv_pos_as_xyz
1 x,y,z
2 -x,1/2+y,-z
_cell_length_a                   7.351(2)
_cell_length_b                   6.207(1)
_cell_length_c                   28.456(6)
_cell_angle_alpha                90
_cell_angle_beta                 95.22(2)
_cell_angle_gamma                90
_cell_volume                     1293
_exptl_crystal_colour            colorless
_cell_formula_units_Z            2
loop_
_atom_site_label
_atom_site_type_symbol
_atom_site_fract_x
_atom_site_fract_y
_atom_site_fract_z
O1 O -0.3213(4) 1.2974(6) 0.0385(1)
O2 O -0.0769(5) 1.4748(6) 0.0707(1)
O3 O 0.6492(4) 0.9725(5) 0.3510(1)
O4 O 0.5484(4) 0.6735(5) 0.3868(1)
O5 O 0.9437(4) 1.0114(6) 0.4192(1)
O6 O 0.9233(4) 0.7663(5) 0.5042(1)
O7 O 0.6994(4) 0.3808(5) 0.4954(1)
O8 O 0.2755(4) 0.4687(6) 0.4367(1)
C1 C -0.1427(6) 1.3084(9) 0.0553(2)
C2 C -0.3589(6) 1.0781(9) 0.0230(2)
C3 C -0.1827(6) 0.9665(9) 0.0321(1)
C4 C -0.0567(6) 1.0957(8) 0.0512(1)
C5 C 0.1383(5) 1.0590(8) 0.0695(1)
C6 C 0.1511(5) 1.0100(8) 0.1228(1)
C7 C 0.3492(5) 1.0013(8) 0.1459(1)
C8 C 0.4597(5) 0.8118(8) 0.1305(1)
C9 C 0.6591(5) 0.8328(8) 0.1457(1)
C10 C 0.6883(5) 0.8553(7) 0.1999(1)
C11 C 0.5747(5) 1.0413(7) 0.2171(1)
C12 C 0.3652(5) 1.0135(7) 0.2016(1)
C13 C 0.3929(6) 0.6393(8) 0.1084(1)
C14 C 0.2792(5) 0.8050(7) 0.2201(1)
C15 C 0.2638(5) 1.2088(7) 0.2174(1)
C16 C 0.3038(6) 1.2626(8) 0.2705(1)
C17 C 0.5077(5) 1.2938(8) 0.2824(1)
C18 C 0.6250(5) 1.1017(7) 0.2702(1)
C19 C 0.8263(6) 1.1740(9) 0.2773(2)
C20 C 0.6016(6) 0.9092(7) 0.3030(1)
C21 C 0.7052(5) 0.8032(8) 0.3797(1)
C22 C 0.7879(5) 0.8884(8) 0.4273(1)
C23 C 0.8336(5) 0.6964(7) 0.4600(1)
C24 C 0.6651(5) 0.5622(7) 0.4651(1)
C25 C 0.5873(5) 0.4864(8) 0.4154(1)
C26 C 0.4137(5) 0.3580(9) 0.4156(2)
H1 H 1.0038(60) 1.0514(85) 0.4442(13)
H2 H 0.8460(56) 0.8502(79) 0.5222(15)
H3 H 0.8147(45) 0.3423(81) 0.4929(14)
H4 H 0.2161(60) 0.5581(76) 0.4089(14)
H7 H -0.4498 1.0140 0.0408
H8 H -0.4002 1.0748 -0.0100
H9 H -0.1631 0.8178 0.0248
H10 H 0.1863 0.9396 0.0531
H11 H 0.2083 1.1860 0.0643
H12 H 0.0946 0.8729 0.1272
H13 H 0.0865 1.1200 0.1382
H14 H 0.4011 1.1304 0.1342
H15 H 0.7223 0.7071 0.1361
H16 H 0.7062 0.9581 0.1312
H17 H 0.8152 0.8832 0.2088
H18 H 0.6532 0.7235 0.2142
H19 H 0.6088 1.1690 0.2010
H20 H 0.4725 0.5230 0.1015
H21 H 0.2643 0.6298 0.0990
H22 H 0.3566 0.6823 0.2168
H23 H 0.1669 0.7862 0.2005
H24 H 0.2537 0.8188 0.2524
H25 H 0.2980 1.3308 0.1994
H26 H 0.1351 1.1831 0.2111
H27 H 0.2621 1.1462 0.2890
H28 H 0.2407 1.3924 0.2775
H29 H 0.5453 1.4170 0.2653
H30 H 0.5291 1.3205 0.3156
H31 H 0.9115 1.0614 0.2719
H32 H 0.8490 1.2254 0.3091
H33 H 0.8407 1.2903 0.2557
H34 H 0.6795 0.7934 0.2948
H35 H 0.4767 0.8622 0.2995
H36 H 0.7946 0.7182 0.3655
H37 H 0.7049 0.9806 0.4420
H38 H 0.9192 0.6046 0.4461
H39 H 0.5779 0.6495 0.4796
H40 H 0.6777 0.3947 0.4035
H41 H 0.4397 0.2270 0.4328
H42 H 0.3705 0.3244 0.3835
O9 O 0.1744(5) 0.7739(9) 0.3686(1)
H5 H 0.2936(51) 0.8344(85) 0.3746(16)
H6 H 0.1827(69) 0.8169(97) 0.3431(13)
loop_
_geom_bond_atom_site_label_1
_geom_bond_atom_site_label_2
_geom_bond_site_symmetry_1
_geom_bond_site_symmetry_2
O1 C1 1_555 1_555
O2 C1 1_555 1_555
O3 C20 1_555 1_555
O4 C21 1_555 1_555
O5 C22 1_555 1_555
O6 C23 1_555 1_555
O7 C24 1_555 1_555
O8 C26 1_555 1_555
O9 H5 1_555 1_555
C1 C4 1_555 1_555
C2 O1 1_555 1_555
C3 C2 1_555 1_555
C4 C3 1_555 1_555
C5 C4 1_555 1_555
C6 C5 1_555 1_555
C7 C6 1_555 1_555
C8 C7 1_555 1_555
C9 C8 1_555 1_555
C10 C9 1_555 1_555
C11 C10 1_555 1_555
C12 C7 1_555 1_555
C13 C8 1_555 1_555
C14 C12 1_555 1_555
C15 C12 1_555 1_555
C16 C15 1_555 1_555
C17 C16 1_555 1_555
C18 C11 1_555 1_555
C19 C18 1_555 1_555
C20 C18 1_555 1_555
C21 O3 1_555 1_555
C22 C21 1_555 1_555
C23 C22 1_555 1_555
C24 C23 1_555 1_555
C25 O4 1_555 1_555
C26 C25 1_555 1_555
H1 O5 1_555 1_555
H2 O6 1_555 1_555
H3 O7 1_555 1_555
H4 O8 1_555 1_555
H6 O9 1_555 1_555
H7 C2 1_555 1_555
H8 C2 1_555 1_555
H9 C3 1_555 1_555
H10 C5 1_555 1_555
H11 C5 1_555 1_555
H12 C6 1_555 1_555
H13 C6 1_555 1_555
H14 C7 1_555 1_555
H15 C9 1_555 1_555
H16 C9 1_555 1_555
H17 C10 1_555 1_555
H18 C10 1_555 1_555
H19 C11 1_555 1_555
H20 C13 1_555 1_555
H21 C13 1_555 1_555
H22 C14 1_555 1_555
H23 C14 1_555 1_555
H24 C14 1_555 1_555
H25 C15 1_555 1_555
H26 C15 1_555 1_555
H27 C16 1_555 1_555
H28 C16 1_555 1_555
H29 C17 1_555 1_555
H30 C17 1_555 1_555
H31 C19 1_555 1_555
H32 C19 1_555 1_555
H33 C19 1_555 1_555
H34 C20 1_555 1_555
H35 C20 1_555 1_555
H36 C21 1_555 1_555
H37 C22 1_555 1_555
H38 C23 1_555 1_555
H39 C24 1_555 1_555
H40 C25 1_555 1_555
H41 C26 1_555 1_555
H42 C26 1_555 1_555
C11 C12 1_555 1_555
C17 C18 1_555 1_555
C24 C25 1_555 1_555

#END
