
#######################################################################
#
#                 Cambridge Crystallographic Data Centre
#                                CCDC 
#
#######################################################################
#
# If this CIF has been generated from an entry in the Cambridge 
# Structural Database, then it will include bibliographic, chemical, 
# crystal, experimental, refinement or atomic coordinate data resulting 
# from the CCDC's data processing and validation procedures.
#
#######################################################################

data_FULDUN
_chemical_formula_moiety         'C29 H25 Br1 N2 O3,C1 H2 Cl2'
_chemical_name_systematic        
"ethyl 7'-bromo-1'-methyl-2'-oxo-2-phenyl-1,1',2,2',4,9-hexahydrospiro[carbazole-3,3'-indole]-4-carboxylate dichloromethane solvate"
_symmetry_cell_setting           orthorhombic
_symmetry_space_group_name_H-M   'P 21 21 21'
_symmetry_Int_Tables_number      19
_space_group_name_Hall           'P 2ac 2ab'
loop_
_symmetry_equiv_pos_site_id
_symmetry_equiv_pos_as_xyz
1 x,y,z
2 1/2+x,1/2-y,-z
3 -x,1/2+y,1/2-z
4 1/2-x,-y,1/2+z
_cell_length_a                   9.856(4)
_cell_length_b                   15.543(7)
_cell_length_c                   17.398(7)
_cell_angle_alpha                90
_cell_angle_beta                 90
_cell_angle_gamma                90
_cell_volume                     2665.23
_exptl_crystal_colour            colorless
_exptl_crystal_description       block
_cell_formula_units_Z            4
loop_
_atom_site_label
_atom_site_type_symbol
_atom_site_fract_x
_atom_site_fract_y
_atom_site_fract_z
Br1 Br -0.1257 -0.0501 -0.0204
O1 O 0.3274 0.1769 -0.0145
O2 O 0.5833 -0.1080 -0.0890
O3 O 0.4862 -0.0709 -0.2031
N1 N 0.7224 0.1874 -0.0842
H1 H 0.7769 0.2212 -0.0578
N2 N 0.1664 0.0712 -0.0194
C1 C 0.7128 0.1840 -0.1658
C2 C 0.7826 0.2373 -0.2157
H2 H 0.8456 0.2790 -0.1979
C3 C 0.7543 0.2259 -0.2953
H3 H 0.8064 0.2557 -0.3327
C4 C 0.6468 0.1692 -0.3190
H4 H 0.6227 0.1652 -0.3718
C5 C 0.5727 0.1162 -0.2601
H5 H 0.5067 0.0749 -0.2749
C6 C 0.6043 0.1298 -0.1829
C7 C 0.5576 0.0949 -0.1123
C8 C 0.6312 0.1285 -0.0528
C9 C 0.6044 0.1120 0.0303
H6 H 0.5580 0.1624 0.0530
H7 H 0.6915 0.1039 0.0576
C10 C 0.5179 0.0337 0.0405
H8 H 0.5798 -0.0153 0.0280
C11 C 0.3970 0.0243 -0.0186
C12 C 0.4516 0.0260 -0.1021
H9 H 0.3737 0.0406 -0.1366
C13 C 0.5099 -0.0595 -0.1294
C14 C 0.5598 -0.1370 -0.2422
H10 H 0.5299 -0.1940 -0.2234
H11 H 0.6579 -0.1310 -0.2312
C15 C 0.5371 -0.1312 -0.3243
H12 H 0.5783 -0.1811 -0.3498
H13 H 0.5784 -0.0783 -0.3440
H14 H 0.4394 -0.1305 -0.3346
C16 C 0.2982 0.1025 -0.0126
C17 C 0.3024 -0.0518 -0.0007
C18 C 0.3282 -0.1356 0.0072
H15 H 0.4192 -0.1557 0.0072
C19 C 0.2224 -0.1929 0.0153
H16 H 0.2390 -0.2513 0.0282
C20 C 0.0914 -0.1631 0.0043
H17 H 0.0191 -0.2036 0.0051
C21 C 0.0615 -0.0792 -0.0074
C22 C 0.1664 -0.0194 -0.0083
C23 C 0.0493 0.1278 -0.0234
H18 H -0.0078 0.1190 0.0220
H19 H -0.0032 0.1148 -0.0698
H20 H 0.0798 0.1878 -0.0251
C24 C 0.4854 0.0219 0.1214
C25 C 0.3679 0.0430 0.1556
H21 H 0.2959 0.0630 0.1239
C26 C 0.3432 0.0375 0.2381
H22 H 0.2575 0.0512 0.2600
C27 C 0.4445 0.0129 0.2797
H23 H 0.4297 0.0084 0.3335
C28 C 0.5752 -0.0080 0.2524
H24 H 0.6473 -0.0235 0.2859
C29 C 0.5910 -0.0044 0.1733
H25 H 0.6765 -0.0201 0.1523
Cl1 Cl -0.0951(3) -0.2144(2) -0.1750(2)
Cl2 Cl -0.2112(4) -0.3044(2) -0.3069(2)
C30 C -0.159(2) -0.3122(11) -0.2099(9)
H26 H -0.2378 -0.3298 -0.1780
H27 H -0.0888 -0.3571 -0.2053
loop_
_geom_bond_atom_site_label_1
_geom_bond_atom_site_label_2
_geom_bond_site_symmetry_1
_geom_bond_site_symmetry_2
Br1 C21 1_555 1_555
O1 C16 1_555 1_555
O2 C13 1_555 1_555
O3 C13 1_555 1_555
N1 H1 1_555 1_555
N2 C16 1_555 1_555
C1 N1 1_555 1_555
C2 C1 1_555 1_555
H2 C2 1_555 1_555
C3 C2 1_555 1_555
H3 C3 1_555 1_555
C4 C3 1_555 1_555
H4 C4 1_555 1_555
C5 C4 1_555 1_555
H5 C5 1_555 1_555
C6 C1 1_555 1_555
C7 C6 1_555 1_555
C8 N1 1_555 1_555
C9 C8 1_555 1_555
H6 C9 1_555 1_555
H7 C9 1_555 1_555
C10 C9 1_555 1_555
H8 C10 1_555 1_555
C11 C10 1_555 1_555
C12 C7 1_555 1_555
H9 C12 1_555 1_555
C13 C12 1_555 1_555
C14 O3 1_555 1_555
H10 C14 1_555 1_555
H11 C14 1_555 1_555
C15 C14 1_555 1_555
H12 C15 1_555 1_555
H13 C15 1_555 1_555
H14 C15 1_555 1_555
C16 C11 1_555 1_555
C17 C11 1_555 1_555
C18 C17 1_555 1_555
H15 C18 1_555 1_555
C19 C18 1_555 1_555
H16 C19 1_555 1_555
C20 C19 1_555 1_555
H17 C20 1_555 1_555
C21 C20 1_555 1_555
C22 N2 1_555 1_555
C23 N2 1_555 1_555
H18 C23 1_555 1_555
H19 C23 1_555 1_555
H20 C23 1_555 1_555
C24 C10 1_555 1_555
C25 C24 1_555 1_555
H21 C25 1_555 1_555
C26 C25 1_555 1_555
H22 C26 1_555 1_555
C27 C26 1_555 1_555
H23 C27 1_555 1_555
C28 C27 1_555 1_555
H24 C28 1_555 1_555
C29 C24 1_555 1_555
H25 C29 1_555 1_555
Cl1 C30 1_555 1_555
Cl2 C30 1_555 1_555
C30 H26 1_555 1_555
H27 C30 1_555 1_555
C5 C6 1_555 1_555
C7 C8 1_555 1_555
C11 C12 1_555 1_555
C17 C22 1_555 1_555
C21 C22 1_555 1_555
C28 C29 1_555 1_555

#END
