
#######################################################################
#
#                 Cambridge Crystallographic Data Centre
#                                CCDC 
#
#######################################################################
#
# If this CIF has been generated from an entry in the Cambridge 
# Structural Database, then it will include bibliographic, chemical, 
# crystal, experimental, refinement or atomic coordinate data resulting 
# from the CCDC's data processing and validation procedures.
#
#######################################################################

data_FULMAC
_chemical_formula_moiety         'C18 H12 F1 N1 O3'
_chemical_name_systematic        2'-Fluoro-4-nitro-1,1':3',1''-terphenyl-5'-ol
_symmetry_cell_setting           monoclinic
_symmetry_space_group_name_H-M   'P 21/c'
_symmetry_Int_Tables_number      14
_space_group_name_Hall           '-P 2ybc'
loop_
_symmetry_equiv_pos_site_id
_symmetry_equiv_pos_as_xyz
1 x,y,z
2 -x,1/2+y,1/2-z
3 -x,-y,-z
4 x,1/2-y,1/2+z
_cell_length_a                   3.798(6)
_cell_length_b                   11.416(15)
_cell_length_c                   31.20(4)
_cell_angle_alpha                90
_cell_angle_beta                 90.82(2)
_cell_angle_gamma                90
_cell_volume                     1352.63
_cell_formula_units_Z            4
loop_
_atom_site_label
_atom_site_type_symbol
_atom_site_fract_x
_atom_site_fract_y
_atom_site_fract_z
C1 C 0.5503(11) 0.4270(4) 0.42432(13)
C2 C 0.6326(12) 0.3484(4) 0.45493(13)
H1 H 0.7457 0.3714 0.4802
C3 C 0.5452(11) 0.2339(4) 0.44788(12)
H2 H 0.5974 0.1782 0.4688
C4 C 0.3831(10) 0.2003(4) 0.41079(12)
C5 C 0.3025(12) 0.2829(4) 0.38067(13)
H3 H 0.1893 0.2609 0.3553
C6 C 0.3866(12) 0.3971(4) 0.38754(13)
H4 H 0.3316 0.4537 0.3671
C7 C 0.2840(10) 0.0770(4) 0.40380(12)
C8 C 0.1709(11) 0.0090(4) 0.43698(12)
H5 H 0.1637 0.0398 0.4646
C9 C 0.0691(12) -0.1032(4) 0.42976(12)
C10 C 0.0783(11) -0.1502(4) 0.38973(13)
H6 H 0.0048 -0.2270 0.3853
C11 C 0.1952(11) -0.0851(4) 0.35597(12)
C12 C 0.2990(11) 0.0254(4) 0.36433(12)
C13 C 0.2122(8) -0.1350(3) 0.31337(6)
C14 C 0.3411(9) -0.2479(3) 0.30781(8)
H7 H 0.4200 -0.2908 0.3314
C15 C 0.3522(9) -0.2965(2) 0.26701(10)
H8 H 0.4385 -0.3721 0.2633
C16 C 0.2344(10) -0.2324(3) 0.23178(7)
H9 H 0.2418 -0.2649 0.2045
C17 C 0.1054(9) -0.1195(3) 0.23734(7)
H10 H 0.0266 -0.0765 0.2138
C18 C 0.0943(8) -0.0708(2) 0.27813(8)
H11 H 0.0081 0.0047 0.2819
F1 F 0.4349(8) 0.0892(2) 0.33219(7)
N1 N 0.6450(11) 0.5489(4) 0.43130(14)
O1 O 0.5516(15) 0.6189(4) 0.40549(16)
O2 O 0.8157(12) 0.5745(4) 0.46182(13)
O3 O -0.0407(10) -0.1660(3) 0.46402(9)
H12 H -0.1454 -0.2247 0.4556
loop_
_geom_bond_atom_site_label_1
_geom_bond_atom_site_label_2
_geom_bond_site_symmetry_1
_geom_bond_site_symmetry_2
C1 C2 1_555 1_555
C2 H1 1_555 1_555
C3 C2 1_555 1_555
H2 C3 1_555 1_555
C4 C3 1_555 1_555
C5 C4 1_555 1_555
H3 C5 1_555 1_555
C6 C1 1_555 1_555
H4 C6 1_555 1_555
C7 C4 1_555 1_555
C8 C7 1_555 1_555
H5 C8 1_555 1_555
C9 C8 1_555 1_555
C10 C9 1_555 1_555
H6 C10 1_555 1_555
C11 C10 1_555 1_555
C12 C7 1_555 1_555
C13 C11 1_555 1_555
C14 C13 1_555 1_555
H7 C14 1_555 1_555
C15 C14 1_555 1_555
H8 C15 1_555 1_555
C16 C15 1_555 1_555
H9 C16 1_555 1_555
C17 C16 1_555 1_555
H10 C17 1_555 1_555
C18 C13 1_555 1_555
H11 C18 1_555 1_555
F1 C12 1_555 1_555
N1 C1 1_555 1_555
O1 N1 1_555 1_555
O2 N1 1_555 1_555
O3 C9 1_555 1_555
H12 O3 1_555 1_555
C5 C6 1_555 1_555
C11 C12 1_555 1_555
C17 C18 1_555 1_555

#END
