
#######################################################################
#
#                 Cambridge Crystallographic Data Centre
#                                CCDC 
#
#######################################################################
#
# If this CIF has been generated from an entry in the Cambridge 
# Structural Database, then it will include bibliographic, chemical, 
# crystal, experimental, refinement or atomic coordinate data resulting 
# from the CCDC's data processing and validation procedures.
#
#######################################################################

data_FULPEH02
_chemical_formula_moiety         'C20 H24 N2 O6'
_chemical_name_systematic        
'Isobutyl methyl 2,6-dimethyl-4-(3-nitrophenyl)-1,4-dihydropyridine-3,5-dicarboxylate'
_symmetry_cell_setting           monoclinic
_symmetry_space_group_name_H-M   'P 21/c'
_symmetry_Int_Tables_number      14
_space_group_name_Hall           '-P 2ybc'
loop_
_symmetry_equiv_pos_site_id
_symmetry_equiv_pos_as_xyz
1 x,y,z
2 -x,1/2+y,1/2-z
3 -x,-y,-z
4 x,1/2-y,1/2+z
_cell_length_a                   9.3045(2)
_cell_length_b                   16.5991(5)
_cell_length_c                   13.0018(3)
_cell_angle_alpha                90
_cell_angle_beta                 91.539(2)
_cell_angle_gamma                90
_cell_volume                     2007.36
_exptl_crystal_colour            yellow
_exptl_crystal_description       thick
_cell_formula_units_Z            4
loop_
_atom_site_label
_atom_site_type_symbol
_atom_site_fract_x
_atom_site_fract_y
_atom_site_fract_z
N1 N 1.0453(3) 0.40257(18) 0.30797(18)
N2 N 0.8875(2) 0.33228(12) 0.84916(15)
H1 H 0.8517 0.3584 0.8996
C1 C 0.9639(3) 0.40013(16) 0.40316(18)
C2 C 1.0015(3) 0.34344(14) 0.47694(18)
H2 H 1.0741 0.3064 0.4648
C3 C 0.9303(3) 0.34221(13) 0.56933(17)
C4 C 0.8205(3) 0.39818(15) 0.58211(19)
H3 H 0.7705 0.3984 0.6431
C5 C 0.7845(4) 0.45301(16) 0.5065(2)
H4 H 0.7108 0.4896 0.5174
C6 C 0.8552(4) 0.45491(16) 0.4152(2)
H5 H 0.8304 0.4917 0.3637
C7 C 0.9744(2) 0.28276(14) 0.65426(17)
H6 H 1.0261 0.2383 0.6223
C8 C 0.8433(2) 0.24744(13) 0.70630(16)
C9 C 0.8006(2) 0.27627(13) 0.79807(16)
C10 C 1.0273(3) 0.34861(15) 0.82405(19)
C11 C 1.0764(3) 0.32215(15) 0.73309(19)
C12 C 0.6686(3) 0.25600(16) 0.85561(18)
H7 H 0.6131 0.2168 0.8176
H8 H 0.6122 0.3038 0.8644
H9 H 0.6958 0.2344 0.9218
C13 C 1.1092(4) 0.3933(2) 0.9072(2)
H10 H 1.2059 0.4025 0.8861
H11 H 1.1107 0.3620 0.9693
H12 H 1.0632 0.4441 0.9194
C14 C 0.7729(3) 0.18304(14) 0.64820(17)
C15 C 0.5838(3) 0.08651(18) 0.6362(2)
H13 H 0.6429 0.0383 0.6378
H14 H 0.5660 0.1017 0.5650
C16 C 0.4457(3) 0.07107(18) 0.6874(2)
H15 H 0.3893 0.1209 0.6864
C17 C 0.4675(4) 0.0447(2) 0.7972(3)
H16 H 0.5192 0.0856 0.8350
H17 H 0.5214 -0.0046 0.7994
H18 H 0.3757 0.0363 0.8275
C18 C 1.2266(3) 0.33158(19) 0.7068(3)
C19 C 0.3624(4) 0.0071(3) 0.6271(3)
H19 H 0.3477 0.0248 0.5573
H20 H 0.2711 -0.0014 0.6579
H21 H 0.4160 -0.0423 0.6280
C20 C 1.4027(4) 0.3053(3) 0.5794(3)
H22 H 1.4097 0.2772 0.5152
H23 H 1.4704 0.2830 0.6286
H24 H 1.4238 0.3613 0.5692
O1 O 1.0027(3) 0.44703(19) 0.23827(18)
O2 O 1.1494(3) 0.35936(18) 0.30257(19)
O3 O 0.8145(2) 0.15805(11) 0.56643(13)
O4 O 0.65699(19) 0.15170(11) 0.69171(13)
O5 O 1.3183(3) 0.3684(2) 0.7556(3)
O6 O 1.2574(2) 0.29695(15) 0.61747(18)
loop_
_geom_bond_atom_site_label_1
_geom_bond_atom_site_label_2
_geom_bond_site_symmetry_1
_geom_bond_site_symmetry_2
N1 C1 1_555 1_555
N2 H1 1_555 1_555
C1 C2 1_555 1_555
C2 H2 1_555 1_555
C3 C2 1_555 1_555
C4 C3 1_555 1_555
H3 C4 1_555 1_555
C5 C4 1_555 1_555
H4 C5 1_555 1_555
C6 C1 1_555 1_555
H5 C6 1_555 1_555
C7 C3 1_555 1_555
H6 C7 1_555 1_555
C8 C7 1_555 1_555
C9 N2 1_555 1_555
C10 N2 1_555 1_555
C11 C7 1_555 1_555
C12 C9 1_555 1_555
H7 C12 1_555 1_555
H8 C12 1_555 1_555
H9 C12 1_555 1_555
C13 C10 1_555 1_555
H10 C13 1_555 1_555
H11 C13 1_555 1_555
H12 C13 1_555 1_555
C14 C8 1_555 1_555
C15 H13 1_555 1_555
H14 C15 1_555 1_555
C16 C15 1_555 1_555
H15 C16 1_555 1_555
C17 C16 1_555 1_555
H16 C17 1_555 1_555
H17 C17 1_555 1_555
H18 C17 1_555 1_555
C18 C11 1_555 1_555
C19 C16 1_555 1_555
H19 C19 1_555 1_555
H20 C19 1_555 1_555
H21 C19 1_555 1_555
C20 H22 1_555 1_555
H23 C20 1_555 1_555
H24 C20 1_555 1_555
O1 N1 1_555 1_555
O2 N1 1_555 1_555
O3 C14 1_555 1_555
O4 C14 1_555 1_555
O5 C18 1_555 1_555
O6 C18 1_555 1_555
C5 C6 1_555 1_555
C8 C9 1_555 1_555
C10 C11 1_555 1_555
C15 O4 1_555 1_555
C20 O6 1_555 1_555

#END
