
#######################################################################
#
#                 Cambridge Crystallographic Data Centre
#                                CCDC 
#
#######################################################################
#
# If this CIF has been generated from an entry in the Cambridge 
# Structural Database, then it will include bibliographic, chemical, 
# crystal, experimental, refinement or atomic coordinate data resulting 
# from the CCDC's data processing and validation procedures.
#
#######################################################################

data_FULQAF
_chemical_formula_moiety         'C11 H13 N3 O4'
_chemical_name_systematic        
'(E)-Methyl 3-((4-nitrophenyl)hydrazono)butanoate'
_symmetry_cell_setting           triclinic
_symmetry_space_group_name_H-M   'P -1'
_symmetry_Int_Tables_number      2
_space_group_name_Hall           '-P 1'
loop_
_symmetry_equiv_pos_site_id
_symmetry_equiv_pos_as_xyz
1 x,y,z
2 -x,-y,-z
_cell_length_a                   5.6323(2)
_cell_length_b                   9.9695(3)
_cell_length_c                   11.0286(4)
_cell_angle_alpha                91.859(2)
_cell_angle_beta                 102.034(2)
_cell_angle_gamma                98.898(3)
_cell_volume                     597.029
_exptl_crystal_colour            yellow
_exptl_crystal_description       plate
_chemical_melting_point          '114-115 deg.C'
_cell_formula_units_Z            2
_exptl_crystal_recrystallization_method ethanol
loop_
_atom_site_label
_atom_site_type_symbol
_atom_site_fract_x
_atom_site_fract_y
_atom_site_fract_z
N1 N 0.4454(2) 0.60058(11) 0.71682(10)
N2 N 0.5372(2) 0.48347(12) 0.74713(11)
H1 H 0.637(3) 0.4493(18) 0.7092(16)
N3 N 0.1596(2) 0.15122(12) 1.08506(10)
O1 O 0.2489(2) 0.69733(11) 0.40741(9)
O2 O 0.17379(18) 0.90284(9) 0.46050(9)
O3 O 0.2442(2) 0.04527(10) 1.10935(10)
O4 O 0.00020(19) 0.18754(11) 1.13440(10)
C1 C 0.5446(3) 0.67593(14) 0.64244(12)
C2 C 0.4356(3) 0.80240(14) 0.61297(13)
H2 H 0.5673 0.8797 0.6225
H3 H 0.3347 0.8179 0.6718
C3 C 0.2803(2) 0.79276(13) 0.48252(12)
C4 C 0.4359(2) 0.40168(13) 0.82798(12)
C5 C 0.5274(2) 0.28088(14) 0.85802(12)
H4 H 0.6499 0.2563 0.8211
C6 C 0.4376(3) 0.19823(14) 0.94184(12)
H5 H 0.4988 0.1185 0.9620
C7 C 0.2539(2) 0.23656(13) 0.99555(12)
C8 C 0.1588(2) 0.35486(13) 0.96637(12)
H6 H 0.0350 0.3781 1.0030
C9 C 0.2490(3) 0.43790(13) 0.88262(12)
H7 H 0.1862 0.5173 0.8626
C10 C 0.7560(3) 0.64844(16) 0.58728(14)
H8 H 0.8955 0.6429 0.6528
H9 H 0.7979 0.7209 0.5364
H10 H 0.7097 0.5640 0.5375
C11 C 0.0055(3) 0.89971(16) 0.34069(13)
H11 H 0.0947 0.8963 0.2757
H12 H -0.0695 0.9801 0.3362
H13 H -0.1198 0.8207 0.3311
loop_
_geom_bond_atom_site_label_1
_geom_bond_atom_site_label_2
_geom_bond_site_symmetry_1
_geom_bond_site_symmetry_2
N1 N2 1_555 1_555
N2 H1 1_555 1_555
N3 O3 1_555 1_555
O1 C3 1_555 1_555
O2 C3 1_555 1_555
O4 N3 1_555 1_555
C1 N1 1_555 1_555
C2 C1 1_555 1_555
H2 C2 1_555 1_555
H3 C2 1_555 1_555
C3 C2 1_555 1_555
C4 N2 1_555 1_555
C5 C4 1_555 1_555
H4 C5 1_555 1_555
C6 C5 1_555 1_555
H5 C6 1_555 1_555
C7 N3 1_555 1_555
C8 C7 1_555 1_555
H6 C8 1_555 1_555
C9 C4 1_555 1_555
H7 C9 1_555 1_555
C10 C1 1_555 1_555
H8 C10 1_555 1_555
H9 C10 1_555 1_555
H10 C10 1_555 1_555
C11 O2 1_555 1_555
H11 C11 1_555 1_555
H12 C11 1_555 1_555
H13 C11 1_555 1_555
C6 C7 1_555 1_555
C8 C9 1_555 1_555

#END
