
#######################################################################
#
#                 Cambridge Crystallographic Data Centre
#                                CCDC 
#
#######################################################################
#
# If this CIF has been generated from an entry in the Cambridge 
# Structural Database, then it will include bibliographic, chemical, 
# crystal, experimental, refinement or atomic coordinate data resulting 
# from the CCDC's data processing and validation procedures.
#
#######################################################################

data_FULQEJ
_chemical_formula_moiety         'C21 H19 N3 O1'
_chemical_name_systematic        
(E)-3,N-Diphenyl-3-(phenylhydrazono)propanamide
_symmetry_cell_setting           monoclinic
_symmetry_space_group_name_H-M   'P 21/c'
_symmetry_Int_Tables_number      14
_space_group_name_Hall           '-P 2ybc'
loop_
_symmetry_equiv_pos_site_id
_symmetry_equiv_pos_as_xyz
1 x,y,z
2 -x,1/2+y,1/2-z
3 -x,-y,-z
4 x,1/2-y,1/2+z
_cell_length_a                   10.4255(8)
_cell_length_b                   19.4034(15)
_cell_length_c                   9.3368(5)
_cell_angle_alpha                90
_cell_angle_beta                 113.780(4)
_cell_angle_gamma                90
_cell_volume                     1728.39
_exptl_crystal_colour            colorless
_exptl_crystal_description       needle
_chemical_melting_point          '123-125 deg.C'
_cell_formula_units_Z            4
_exptl_crystal_recrystallization_method ethanol
loop_
_atom_site_label
_atom_site_type_symbol
_atom_site_fract_x
_atom_site_fract_y
_atom_site_fract_z
O1 O -0.9779(3) -0.27392(12) -0.8202(3)
N1 N -0.9774(3) -0.11081(16) -0.6575(3)
H1 H -0.951(4) -0.1760(19) -0.562(4)
N2 N -0.8657(3) -0.11432(14) -0.7007(3)
N3 N -1.0332(3) -0.29075(14) -0.6092(3)
H2 H -1.0090 -0.2783 -0.5111
C1 C -0.7876(4) -0.16851(17) -0.6630(4)
C2 C -0.8201(4) -0.22677(18) -0.5745(4)
H3 H -0.8345 -0.2078 -0.4837
H4 H -0.7397 -0.2590 -0.5347
C3 C -0.9520(4) -0.26572(17) -0.6816(4)
C4 C -1.0565(4) -0.05072(18) -0.6881(4)
C5 C -1.1536(4) -0.0442(2) -0.6214(5)
H5 H -1.1619 -0.0798 -0.5558
C6 C -1.2373(4) 0.0127(2) -0.6492(5)
H6 H -1.3024 0.0169 -0.6022
C7 C -1.2266(4) 0.0635(2) -0.7452(5)
H7 H -1.2859 0.1028 -0.7666
C8 C -1.1292(4) 0.0580(2) -0.8114(5)
H8 H -1.1221 0.0940 -0.8768
C9 C -1.0424(4) 0.00128(19) -0.7842(4)
H9 H -0.9756 -0.0022 -0.8293
C10 C -0.6735(4) -0.17127(16) -0.7153(4)
C11 C -0.5841(4) -0.22866(19) -0.6877(4)
H10 H -0.5983 -0.2676 -0.6341
C12 C -0.4767(4) -0.2292(2) -0.7372(4)
H11 H -0.4185 -0.2689 -0.7165
C13 C -0.4496(4) -0.1747(2) -0.8155(4)
H12 H -0.3745 -0.1762 -0.8484
C14 C -0.5375(4) -0.1168(2) -0.8448(4)
H13 H -0.5225 -0.0784 -0.8994
C15 C -0.6445(4) -0.11513(19) -0.7955(4)
H14 H -0.7014 -0.0751 -0.8156
C16 C -1.1520(3) -0.33449(16) -0.6736(4)
C17 C -1.2327(4) -0.34207(18) -0.8348(4)
H15 H -1.2096 -0.3166 -0.9082
C18 C -1.3450(4) -0.3865(2) -0.8862(4)
H16 H -1.3991 -0.3917 -0.9953
C19 C -1.3802(4) -0.4237(2) -0.7805(5)
H17 H -1.4573 -0.4547 -0.8168
C20 C -1.3019(4) -0.4154(2) -0.6217(5)
H18 H -1.3269 -0.4402 -0.5489
C21 C -1.1883(4) -0.37163(18) -0.5680(4)
H19 H -1.1346 -0.3668 -0.4588
loop_
_geom_bond_atom_site_label_1
_geom_bond_atom_site_label_2
_geom_bond_site_symmetry_1
_geom_bond_site_symmetry_2
O1 C3 1_555 1_555
N1 H1 1_555 1_555
N2 N1 1_555 1_555
N3 H2 1_555 1_555
C1 N2 1_555 1_555
C2 C1 1_555 1_555
H3 C2 1_555 1_555
H4 C2 1_555 1_555
C3 N3 1_555 1_555
C4 N1 1_555 1_555
C5 C4 1_555 1_555
H5 C5 1_555 1_555
C6 C5 1_555 1_555
H6 C6 1_555 1_555
C7 C6 1_555 1_555
H7 C7 1_555 1_555
C8 C7 1_555 1_555
H8 C8 1_555 1_555
C9 C4 1_555 1_555
H9 C9 1_555 1_555
C10 C1 1_555 1_555
C11 C10 1_555 1_555
H10 C11 1_555 1_555
C12 C11 1_555 1_555
H11 C12 1_555 1_555
C13 C12 1_555 1_555
H12 C13 1_555 1_555
C14 C13 1_555 1_555
H13 C14 1_555 1_555
C15 C10 1_555 1_555
H14 C15 1_555 1_555
C16 N3 1_555 1_555
C17 C16 1_555 1_555
H15 C17 1_555 1_555
C18 C17 1_555 1_555
H16 C18 1_555 1_555
C19 C18 1_555 1_555
H17 C19 1_555 1_555
C20 C19 1_555 1_555
H18 C20 1_555 1_555
C21 C16 1_555 1_555
H19 C21 1_555 1_555
C2 C3 1_555 1_555
C8 C9 1_555 1_555
C14 C15 1_555 1_555
C20 C21 1_555 1_555

#END
