
#######################################################################
#
#                 Cambridge Crystallographic Data Centre
#                                CCDC 
#
#######################################################################
#
# If this CIF has been generated from an entry in the Cambridge 
# Structural Database, then it will include bibliographic, chemical, 
# crystal, experimental, refinement or atomic coordinate data resulting 
# from the CCDC's data processing and validation procedures.
#
#######################################################################

data_FULTIR
_chemical_formula_moiety         'C22 H16 F4 O3'
_chemical_name_systematic        
"Ethyl 2'-fluoro-5'-hydroxy-4''-(trifluoromethyl)-1,1':3',1''-terphenyl-4'-carboxylate"
_symmetry_cell_setting           triclinic
_symmetry_space_group_name_H-M   'P -1'
_symmetry_Int_Tables_number      2
_space_group_name_Hall           '-P 1'
loop_
_symmetry_equiv_pos_site_id
_symmetry_equiv_pos_as_xyz
1 x,y,z
2 -x,-y,-z
_cell_length_a                   7.668(3)
_cell_length_b                   11.450(4)
_cell_length_c                   11.497(4)
_cell_angle_alpha                97.960(6)
_cell_angle_beta                 98.584(6)
_cell_angle_gamma                103.944(6)
_cell_volume                     952.561
_cell_formula_units_Z            2
loop_
_atom_site_label
_atom_site_type_symbol
_atom_site_fract_x
_atom_site_fract_y
_atom_site_fract_z
C1 C 0.4676(3) 0.42499(17) 0.32260(18)
H1 H 0.5499 0.4643 0.2795
C2 C 0.5182(3) 0.3475(2) 0.3950(2)
H2 H 0.6342 0.3348 0.4003
C3 C 0.3980(4) 0.2894(2) 0.4591(2)
H3 H 0.4321 0.2365 0.5071
C4 C 0.2276(3) 0.30914(18) 0.45251(18)
H4 H 0.1471 0.2704 0.4970
C5 C 0.1748(3) 0.38611(17) 0.38017(17)
H5 H 0.0588 0.3987 0.3760
C6 C 0.2942(2) 0.44496(15) 0.31342(16)
C7 C 0.2401(2) 0.52381(15) 0.22979(15)
C8 C 0.2965(2) 0.52229(15) 0.12034(16)
H6 H 0.3682 0.4706 0.0997
C9 C 0.2495(2) 0.59495(16) 0.04112(15)
C10 C 0.1367(2) 0.67173(15) 0.06756(15)
C11 C 0.0797(2) 0.67692(15) 0.17954(15)
C12 C 0.1338(2) 0.60382(16) 0.25553(15)
C13 C 0.0801(3) 0.73936(17) -0.02565(17)
C14 C -0.1254(3) 0.8494(2) -0.09950(18)
H7 H -0.1559 0.7965 -0.1773
H8 H -0.0343 0.9235 -0.1028
C15 C -0.2916(4) 0.8795(3) -0.0663(3)
H9 H -0.3814 0.8053 -0.0646
H10 H -0.3409 0.9218 -0.1240
H11 H -0.2599 0.9307 0.0114
C16 C -0.0266(2) 0.76203(15) 0.22296(14)
C17 C 0.0642(2) 0.87995(17) 0.27948(18)
H12 H 0.1912 0.9052 0.2913
C18 C -0.0303(2) 0.96112(17) 0.31885(18)
H13 H 0.0329 1.0405 0.3567
C19 C -0.2183(2) 0.92453(16) 0.30208(15)
C20 C -0.3105(2) 0.80600(18) 0.24804(17)
H14 H -0.4373 0.7805 0.2378
C21 C -0.2154(2) 0.72516(17) 0.20917(17)
H15 H -0.2784 0.6452 0.1734
C22 C -0.3203(3) 1.0139(2) 0.3411(2)
F1 F 0.08270(18) 0.61337(11) 0.36388(10)
F2 F -0.3379(14) 1.0852(8) 0.2632(6)
F3 F -0.4849(5) 0.9628(5) 0.3536(9)
F4 F -0.2468(8) 1.0856(7) 0.4436(5)
O1 O 0.3144(2) 0.58668(13) -0.06226(12)
H16 H 0.2802 0.6335 -0.1026
O2 O 0.1481(2) 0.74641(16) -0.11428(13)
O3 O -0.05564(19) 0.78764(12) -0.00793(11)
F5? F -0.2230(6) 1.1263(3) 0.3651(9)
F6? F -0.4623(10) 1.0089(7) 0.2641(7)
F7? F -0.3835(15) 0.9916(7) 0.4362(7)
loop_
_geom_bond_atom_site_label_1
_geom_bond_atom_site_label_2
_geom_bond_site_symmetry_1
_geom_bond_site_symmetry_2
C1 H1 1_555 1_555
C2 C1 1_555 1_555
H2 C2 1_555 1_555
C3 C2 1_555 1_555
H3 C3 1_555 1_555
C4 C3 1_555 1_555
H4 C4 1_555 1_555
C5 C4 1_555 1_555
H5 C5 1_555 1_555
C6 C1 1_555 1_555
C7 C6 1_555 1_555
C8 C7 1_555 1_555
H6 C8 1_555 1_555
C9 C8 1_555 1_555
C10 C9 1_555 1_555
C11 C10 1_555 1_555
C12 C7 1_555 1_555
C13 C10 1_555 1_555
C14 H7 1_555 1_555
H8 C14 1_555 1_555
C15 C14 1_555 1_555
H9 C15 1_555 1_555
H10 C15 1_555 1_555
H11 C15 1_555 1_555
C16 C11 1_555 1_555
C17 C16 1_555 1_555
H12 C17 1_555 1_555
C18 C17 1_555 1_555
H13 C18 1_555 1_555
C19 C18 1_555 1_555
C20 C19 1_555 1_555
H14 C20 1_555 1_555
C21 C16 1_555 1_555
H15 C21 1_555 1_555
C22 C19 1_555 1_555
F1 C12 1_555 1_555
F2 C22 1_555 1_555
F3 C22 1_555 1_555
F4 C22 1_555 1_555
O1 C9 1_555 1_555
H16 O1 1_555 1_555
O2 C13 1_555 1_555
O3 C13 1_555 1_555
C5 C6 1_555 1_555
C11 C12 1_555 1_555
C14 O3 1_555 1_555
C20 C21 1_555 1_555

#END
