
#######################################################################
#
#                 Cambridge Crystallographic Data Centre
#                                CCDC 
#
#######################################################################
#
# If this CIF has been generated from an entry in the Cambridge 
# Structural Database, then it will include bibliographic, chemical, 
# crystal, experimental, refinement or atomic coordinate data resulting 
# from the CCDC's data processing and validation procedures.
#
#######################################################################

data_FULWAM
_chemical_formula_moiety         'C20 H12 B1 F2 N3'
_chemical_name_systematic        
8,8-Difluoro-8H-7\l^5^,8\l^5^-naphtho[2'',3'':4',5']imidazo[1',2':3,4][1,3,2]diazaborinino[5,6,1-ij]quinoline
_symmetry_cell_setting           monoclinic
_symmetry_space_group_name_H-M   'P 21/n'
_symmetry_Int_Tables_number      14
_space_group_name_Hall           '-P 2yn'
loop_
_symmetry_equiv_pos_site_id
_symmetry_equiv_pos_as_xyz
1 x,y,z
2 1/2-x,1/2+y,1/2-z
3 -x,-y,-z
4 1/2+x,1/2-y,1/2+z
_cell_length_a                   8.943(3)
_cell_length_b                   12.473(5)
_cell_length_c                   13.726(5)
_cell_angle_alpha                90
_cell_angle_beta                 94.045(5)
_cell_angle_gamma                90
_cell_volume                     1527.27
_exptl_crystal_colour            colorless
_exptl_crystal_description       block
_cell_formula_units_Z            4
loop_
_atom_site_label
_atom_site_type_symbol
_atom_site_fract_x
_atom_site_fract_y
_atom_site_fract_z
F1 F 0.25464(14) 0.34541(9) 1.14090(9)
F2 F 0.32037(14) 0.22679(10) 1.02837(10)
N1 N 0.10131(18) 0.33374(12) 0.99132(12)
N2 N 0.10352(18) 0.18683(13) 1.11395(12)
N3 N -0.08120(19) 0.34541(13) 0.86872(12)
B1 B 0.2010(3) 0.2786(2) 1.06807(18)
C1 C 0.1305(2) 0.42544(15) 0.93877(14)
C2 C 0.2440(2) 0.50019(17) 0.95048(15)
H1 H 0.3183 0.4947 1.0011
C3 C 0.2431(2) 0.58497(16) 0.88299(15)
C4 C 0.3549(2) 0.66552(17) 0.88875(17)
H2 H 0.4302 0.6631 0.9390
C5 C 0.3546(3) 0.74550(19) 0.82301(18)
H3 H 0.4302 0.7968 0.8279
C6 C 0.2423(3) 0.75215(19) 0.7478(2)
H4 H 0.2431 0.8081 0.7030
C7 C 0.1318(3) 0.67759(18) 0.73941(17)
H5 H 0.0571 0.6833 0.6890
C8 C 0.1284(2) 0.59135(16) 0.80612(16)
C9 C 0.0149(2) 0.51355(16) 0.79709(15)
H6 H -0.0604 0.5176 0.7469
C10 C 0.0170(2) 0.43222(15) 0.86291(15)
C11 C -0.0244(2) 0.29139(16) 0.94477(15)
C12 C -0.0899(2) 0.19309(15) 0.98160(15)
C13 C -0.2149(2) 0.14871(18) 0.93662(17)
H7 H -0.2579 0.1800 0.8799
C14 C -0.2802(3) 0.05751(19) 0.97344(18)
H8 H -0.3653 0.0283 0.9407
C15 C -0.2213(3) 0.01083(18) 1.05638(17)
H9 H -0.2667 -0.0497 1.0806
C16 C -0.0917(2) 0.05347(16) 1.10625(16)
C17 C -0.0258(3) 0.00965(18) 1.19283(16)
H10 H -0.0670 -0.0513 1.2193
C18 C 0.0972(3) 0.05519(18) 1.23825(17)
H11 H 0.1390 0.0275 1.2969
C19 C 0.1597(2) 0.14304(18) 1.19642(15)
H12 H 0.2455 0.1731 1.2275
C20 C -0.0248(2) 0.14502(15) 1.06713(14)
loop_
_geom_bond_atom_site_label_1
_geom_bond_atom_site_label_2
_geom_bond_site_symmetry_1
_geom_bond_site_symmetry_2
F1 B1 1_555 1_555
F2 B1 1_555 1_555
N1 B1 1_555 1_555
N2 B1 1_555 1_555
N3 C10 1_555 1_555
C1 N1 1_555 1_555
C2 C1 1_555 1_555
H1 C2 1_555 1_555
C3 C2 1_555 1_555
C4 C3 1_555 1_555
H2 C4 1_555 1_555
C5 C4 1_555 1_555
H3 C5 1_555 1_555
C6 C5 1_555 1_555
H4 C6 1_555 1_555
C7 C6 1_555 1_555
H5 C7 1_555 1_555
C8 C3 1_555 1_555
C9 C8 1_555 1_555
H6 C9 1_555 1_555
C10 C1 1_555 1_555
C11 N1 1_555 1_555
C12 C11 1_555 1_555
C13 C12 1_555 1_555
H7 C13 1_555 1_555
C14 C13 1_555 1_555
H8 C14 1_555 1_555
C15 C14 1_555 1_555
H9 C15 1_555 1_555
C16 C15 1_555 1_555
C17 C16 1_555 1_555
H10 C17 1_555 1_555
C18 C17 1_555 1_555
H11 C18 1_555 1_555
C19 N2 1_555 1_555
H12 C19 1_555 1_555
C20 N2 1_555 1_555
N3 C11 1_555 1_555
C7 C8 1_555 1_555
C9 C10 1_555 1_555
C12 C20 1_555 1_555
C16 C20 1_555 1_555
C18 C19 1_555 1_555

#END
