
#######################################################################
#
#                 Cambridge Crystallographic Data Centre
#                                CCDC 
#
#######################################################################
#
# If this CIF has been generated from an entry in the Cambridge 
# Structural Database, then it will include bibliographic, chemical, 
# crystal, experimental, refinement or atomic coordinate data resulting 
# from the CCDC's data processing and validation procedures.
#
#######################################################################

data_FUMKUV
_chemical_formula_moiety         'C22 H15 I1 N4 O1'
_chemical_name_systematic        
2-iodo-1,3-diphenyl-3-(5-phenyl-1H-tetrazol-1-yl)prop-2-en-1-one
_symmetry_cell_setting           orthorhombic
_symmetry_space_group_name_H-M   'A b a 2'
_symmetry_Int_Tables_number      41
_space_group_name_Hall           'A 2 -2ab'
loop_
_symmetry_equiv_pos_site_id
_symmetry_equiv_pos_as_xyz
1 x,y,z
2 -x,-y,z
3 1/2+x,1/2-y,z
4 1/2-x,1/2+y,z
5 x,1/2+y,1/2+z
6 -x,1/2-y,1/2+z
7 1/2+x,-y,1/2+z
8 1/2-x,y,1/2+z
_cell_length_a                   22.3839(14)
_cell_length_b                   36.433(2)
_cell_length_c                   10.0332(7)
_cell_angle_alpha                90
_cell_angle_beta                 90
_cell_angle_gamma                90
_cell_volume                     8182.2
_exptl_crystal_colour            colorless
_exptl_crystal_description       prismatic
_cell_formula_units_Z            16
_chemical_properties_physical    Moisture-sensitive
_exptl_crystal_recrystallization_method 'ethyl acetate/pentane'
loop_
_atom_site_label
_atom_site_type_symbol
_atom_site_fract_x
_atom_site_fract_y
_atom_site_fract_z
I1 I 0.58527(2) 0.80821(2) 0.25596(5)
N1 N 0.6391(2) 0.69568(13) 0.3340(5)
N2 N 0.6480(2) 0.68187(15) 0.2103(5)
N3 N 0.6585(2) 0.64744(15) 0.2256(5)
N4 N 0.6583(2) 0.63789(14) 0.3580(6)
O1 O 0.5562(3) 0.74235(14) 0.0517(5)
C1 C 0.4923(3) 0.6965(2) 0.3288(8)
H1 H 0.5014 0.7137 0.3940
C2 C 0.4553(3) 0.6671(3) 0.3589(9)
H2 H 0.4396 0.6649 0.4443
C3 C 0.4416(3) 0.6417(2) 0.2646(11)
H3 H 0.4174 0.6218 0.2861
C4 C 0.4637(3) 0.6455(2) 0.1370(9)
H4 H 0.4539 0.6284 0.0714
C5 C 0.5003(3) 0.67454(18) 0.1075(7)
H5 H 0.5151 0.6771 0.0213
C6 C 0.5158(2) 0.70018(17) 0.2029(6)
C7 C 0.5539(3) 0.73170(17) 0.1660(6)
C8 C 0.5903(2) 0.75080(13) 0.2720(6)
C9 C 0.6293(2) 0.73460(15) 0.3516(6)
C10 C 0.6462(2) 0.66838(16) 0.4239(6)
C11 C 0.6430(3) 0.67087(17) 0.5677(6)
C12 C 0.6850(3) 0.65165(19) 0.6437(7)
H6 H 0.7139 0.6375 0.6018
C13 C 0.6834(3) 0.6537(2) 0.7814(8)
H7 H 0.7109 0.6406 0.8317
C14 C 0.6412(4) 0.6751(3) 0.8446(8)
H8 H 0.6409 0.6768 0.9371
C15 C 0.5998(3) 0.6938(2) 0.7712(9)
H9 H 0.5712 0.7081 0.8139
C16 C 0.6002(3) 0.6916(2) 0.6335(8)
H10 H 0.5714 0.7041 0.5846
C17 C 0.6700(2) 0.75128(14) 0.4527(6)
C18 C 0.7299(2) 0.74189(15) 0.4516(7)
H11 H 0.7444 0.7255 0.3884
C19 C 0.7679(3) 0.75703(18) 0.5451(7)
H12 H 0.8083 0.7512 0.5439
C20 C 0.7460(3) 0.78082(19) 0.6401(7)
H13 H 0.7717 0.7909 0.7030
C21 C 0.6866(3) 0.7896(2) 0.6424(7)
H14 H 0.6718 0.8055 0.7071
C22 C 0.6485(3) 0.77476(18) 0.5474(7)
H15 H 0.6082 0.7808 0.5482
I2 I 0.35673(2) 0.43873(2) 0.46967(5)
N5 N 0.3928(2) 0.55040(14) 0.6039(5)
N6 N 0.4374(3) 0.55045(17) 0.6951(7)
N7 N 0.4395(2) 0.58318(17) 0.7442(8)
N8 N 0.3979(2) 0.60509(15) 0.6871(6)
O2 O 0.2896(2) 0.50737(16) 0.7217(6)
C23 C 0.3175(3) 0.4552(2) 0.9175(8)
H16 H 0.2794 0.4653 0.9216
C24 C 0.3366(4) 0.4319(3) 1.0164(9)
H17 H 0.3117 0.4268 1.0882
C25 C 0.3918(3) 0.4163(2) 1.0101(8)
H18 H 0.4040 0.3999 1.0760
C26 C 0.4291(3) 0.4245(2) 0.9078(8)
H19 H 0.4671 0.4142 0.9053
C27 C 0.4112(3) 0.4480(2) 0.8073(7)
H20 H 0.4369 0.4532 0.7370
C28 C 0.3549(3) 0.46362(18) 0.8115(7)
C29 C 0.3328(3) 0.48802(18) 0.7070(7)
C30 C 0.3622(2) 0.48917(15) 0.5714(6)
C31 C 0.3843(3) 0.51934(15) 0.5168(6)
C32 C 0.3685(2) 0.58443(16) 0.6004(6)
C33 C 0.3177(2) 0.59672(15) 0.5217(6)
C34 C 0.3112(3) 0.63369(16) 0.4944(7)
H21 H 0.3400 0.6502 0.5235
C35 C 0.2626(3) 0.64609(19) 0.4247(7)
H22 H 0.2586 0.6710 0.4067
C36 C 0.2200(4) 0.6219(2) 0.3814(9)
H23 H 0.1873 0.6304 0.3332
C37 C 0.2255(4) 0.5858(2) 0.4088(11)
H24 H 0.1960 0.5696 0.3803
C38 C 0.2738(3) 0.57261(18) 0.4779(11)
H25 H 0.2771 0.5476 0.4954
C39 C 0.4054(3) 0.52592(17) 0.3794(8)
C40 C 0.4612(3) 0.5407(2) 0.3583(9)
H26 H 0.4851 0.5469 0.4306
C41 C 0.4820(4) 0.5463(3) 0.2294(11)
H27 H 0.5204 0.5553 0.2156
C42 C 0.4463(6) 0.5388(3) 0.1239(12)
H28 H 0.4599 0.5430 0.0376
C43 C 0.3908(6) 0.5250(3) 0.1443(10)
H29 H 0.3663 0.5201 0.0716
C44 C 0.3703(3) 0.5181(2) 0.2717(9)
H30 H 0.3325 0.5080 0.2842
loop_
_geom_bond_atom_site_label_1
_geom_bond_atom_site_label_2
_geom_bond_site_symmetry_1
_geom_bond_site_symmetry_2
I1 C8 1_555 1_555
N1 N2 1_555 1_555
N2 N3 1_555 1_555
N3 N4 1_555 1_555
N4 C10 1_555 1_555
O1 C7 1_555 1_555
C1 H1 1_555 1_555
C2 C1 1_555 1_555
H2 C2 1_555 1_555
C3 C2 1_555 1_555
H3 C3 1_555 1_555
C4 C3 1_555 1_555
H4 C4 1_555 1_555
C5 C4 1_555 1_555
H5 C5 1_555 1_555
C6 C1 1_555 1_555
C7 C6 1_555 1_555
C8 C7 1_555 1_555
C9 N1 1_555 1_555
C10 N1 1_555 1_555
C11 C10 1_555 1_555
C12 C11 1_555 1_555
H6 C12 1_555 1_555
C13 C12 1_555 1_555
H7 C13 1_555 1_555
C14 C13 1_555 1_555
H8 C14 1_555 1_555
C15 C14 1_555 1_555
H9 C15 1_555 1_555
C16 C11 1_555 1_555
H10 C16 1_555 1_555
C17 C9 1_555 1_555
C18 C17 1_555 1_555
H11 C18 1_555 1_555
C19 C18 1_555 1_555
H12 C19 1_555 1_555
C20 C19 1_555 1_555
H13 C20 1_555 1_555
C21 C20 1_555 1_555
H14 C21 1_555 1_555
C22 C17 1_555 1_555
H15 C22 1_555 1_555
I2 C30 1_555 1_555
N5 N6 1_555 1_555
N6 N7 1_555 1_555
N7 N8 1_555 1_555
N8 C32 1_555 1_555
O2 C29 1_555 1_555
C23 H16 1_555 1_555
C24 C23 1_555 1_555
H17 C24 1_555 1_555
C25 C24 1_555 1_555
H18 C25 1_555 1_555
C26 C25 1_555 1_555
H19 C26 1_555 1_555
C27 C26 1_555 1_555
H20 C27 1_555 1_555
C28 C23 1_555 1_555
C29 C28 1_555 1_555
C30 C29 1_555 1_555
C31 N5 1_555 1_555
C32 N5 1_555 1_555
C33 C32 1_555 1_555
C34 C33 1_555 1_555
H21 C34 1_555 1_555
C35 C34 1_555 1_555
H22 C35 1_555 1_555
C36 C35 1_555 1_555
H23 C36 1_555 1_555
C37 C36 1_555 1_555
H24 C37 1_555 1_555
C38 C33 1_555 1_555
H25 C38 1_555 1_555
C39 C31 1_555 1_555
C40 C39 1_555 1_555
H26 C40 1_555 1_555
C41 C40 1_555 1_555
H27 C41 1_555 1_555
C42 C41 1_555 1_555
H28 C42 1_555 1_555
C43 C42 1_555 1_555
H29 C43 1_555 1_555
C44 C39 1_555 1_555
H30 C44 1_555 1_555
C5 C6 1_555 1_555
C8 C9 1_555 1_555
C15 C16 1_555 1_555
C21 C22 1_555 1_555
C27 C28 1_555 1_555
C30 C31 1_555 1_555
C37 C38 1_555 1_555
C43 C44 1_555 1_555

#END
