
#######################################################################
#
#                 Cambridge Crystallographic Data Centre
#                                CCDC 
#
#######################################################################
#
# If this CIF has been generated from an entry in the Cambridge 
# Structural Database, then it will include bibliographic, chemical, 
# crystal, experimental, refinement or atomic coordinate data resulting 
# from the CCDC's data processing and validation procedures.
#
#######################################################################

data_FUMKAA
_chemical_formula_moiety         'C21 H14 O4'
_chemical_name_systematic        
2-(2-Hydroxybenzoyl)-3-methyl-9H-xanthen-9-one
_symmetry_cell_setting           monoclinic
_symmetry_space_group_name_H-M   'P 21/c'
_symmetry_Int_Tables_number      14
_space_group_name_Hall           '-P 2ybc'
loop_
_symmetry_equiv_pos_site_id
_symmetry_equiv_pos_as_xyz
1 x,y,z
2 -x,1/2+y,1/2-z
3 -x,-y,-z
4 x,1/2-y,1/2+z
_cell_length_a                   12.377(2)
_cell_length_b                   15.318(2)
_cell_length_c                   8.3322(14)
_cell_angle_alpha                90
_cell_angle_beta                 94.579(3)
_cell_angle_gamma                90
_cell_volume                     1574.67
_exptl_crystal_colour            colorless
_exptl_crystal_description       prismatic
_cell_formula_units_Z            4
loop_
_atom_site_label
_atom_site_type_symbol
_atom_site_fract_x
_atom_site_fract_y
_atom_site_fract_z
O1 O 0.11523(10) 0.08830(12) 0.17278(16)
O2 O -0.03009(11) 0.10741(13) 0.3780(2)
O3 O 0.47072(12) 0.25136(11) -0.0370(2)
O4 O 0.62249(9) 0.03559(8) 0.16481(13)
C1 C 0.18672(14) 0.09363(13) 0.2833(2)
C2 C 0.16244(13) 0.11806(11) 0.44630(19)
C3 C 0.24426(14) 0.13755(12) 0.5652(2)
H1 H 0.3161 0.1356 0.5403
C4 C 0.22130(16) 0.15953(13) 0.7183(2)
H2 H 0.2770 0.1719 0.7966
C5 C 0.11498(17) 0.16311(14) 0.7548(2)
H3 H 0.0989 0.1781 0.8584
C6 C 0.03264(16) 0.14497(14) 0.6406(2)
H4 H -0.0388 0.1472 0.6673
C7 C 0.05475(14) 0.12349(13) 0.4863(2)
C8 C 0.30260(13) 0.07664(12) 0.24948(18)
C9 C 0.35256(14) 0.13369(12) 0.15270(19)
H5 H 0.3131 0.1804 0.1072
C10 C 0.46075(13) 0.12402(11) 0.12008(19)
C11 C 0.51556(13) 0.05168(11) 0.18617(18)
C12 C 0.46544(13) -0.00803(12) 0.27965(19)
H6 H 0.5038 -0.0565 0.3200
C13 C 0.35918(13) 0.00327(12) 0.31403(18)
C14 C 0.51626(15) 0.18703(14) 0.0242(2)
C15 C 0.63119(14) 0.16847(12) 0.00924(19)
C16 C 0.69575(16) 0.22410(14) -0.0751(2)
H7 H 0.6650 0.2734 -0.1255
C17 C 0.80385(17) 0.20710(16) -0.0848(2)
H8 H 0.8465 0.2453 -0.1391
C18 C 0.84882(16) 0.13268(17) -0.0129(2)
H9 H 0.9220 0.1209 -0.0202
C19 C 0.78738(14) 0.07611(15) 0.0687(2)
H10 H 0.8180 0.0259 0.1159
C20 C 0.67915(13) 0.09497(13) 0.07947(18)
C21 C 0.30684(15) -0.06332(13) 0.4149(2)
H11 H 0.3505 -0.1152 0.4226
H12 H 0.2361 -0.0773 0.3660
H13 H 0.3004 -0.0401 0.5208
H14 H -0.0036(19) 0.0974(17) 0.287(2)
loop_
_geom_bond_atom_site_label_1
_geom_bond_atom_site_label_2
_geom_bond_site_symmetry_1
_geom_bond_site_symmetry_2
O1 C1 1_555 1_555
O2 C7 1_555 1_555
O3 C14 1_555 1_555
O4 C11 1_555 1_555
C1 C2 1_555 1_555
C2 C3 1_555 1_555
C3 H1 1_555 1_555
C4 C3 1_555 1_555
H2 C4 1_555 1_555
C5 C4 1_555 1_555
H3 C5 1_555 1_555
C6 C5 1_555 1_555
H4 C6 1_555 1_555
C7 C2 1_555 1_555
C8 C1 1_555 1_555
C9 C8 1_555 1_555
H5 C9 1_555 1_555
C10 C9 1_555 1_555
C11 C10 1_555 1_555
C12 C11 1_555 1_555
H6 C12 1_555 1_555
C13 C8 1_555 1_555
C14 C10 1_555 1_555
C15 C14 1_555 1_555
C16 C15 1_555 1_555
H7 C16 1_555 1_555
C17 C16 1_555 1_555
H8 C17 1_555 1_555
C18 C17 1_555 1_555
H9 C18 1_555 1_555
C19 C18 1_555 1_555
H10 C19 1_555 1_555
C20 O4 1_555 1_555
C21 C13 1_555 1_555
H11 C21 1_555 1_555
H12 C21 1_555 1_555
H13 C21 1_555 1_555
H14 O2 1_555 1_555
C6 C7 1_555 1_555
C12 C13 1_555 1_555
C15 C20 1_555 1_555
C19 C20 1_555 1_555

#END
