
#######################################################################
#
#                 Cambridge Crystallographic Data Centre
#                                CCDC 
#
#######################################################################
#
# If this CIF has been generated from an entry in the Cambridge 
# Structural Database, then it will include bibliographic, chemical, 
# crystal, experimental, refinement or atomic coordinate data resulting 
# from the CCDC's data processing and validation procedures.
#
#######################################################################

data_FUMLAC
_chemical_formula_moiety         'C17 H16 I2 N2 O3 S1'
_chemical_name_systematic        
4-(diiodomethyl)-1-((4-methylphenyl)sulfonyl)-2-phenyl-4,5-dihydro-1H-imidazol-4-ol
_symmetry_cell_setting           triclinic
_symmetry_space_group_name_H-M   'P -1'
_symmetry_Int_Tables_number      2
_space_group_name_Hall           '-P 1'
loop_
_symmetry_equiv_pos_site_id
_symmetry_equiv_pos_as_xyz
1 x,y,z
2 -x,-y,-z
_cell_length_a                   7.2509(8)
_cell_length_b                   11.4870(14)
_cell_length_c                   12.2569(15)
_cell_angle_alpha                97.897(2)
_cell_angle_beta                 91.846(2)
_cell_angle_gamma                103.895(2)
_cell_volume                     979.359
_exptl_crystal_colour            colorless
_exptl_crystal_description       prismatic
_cell_formula_units_Z            2
loop_
_atom_site_label
_atom_site_type_symbol
_atom_site_fract_x
_atom_site_fract_y
_atom_site_fract_z
I1 I 0.81221(6) 0.83802(5) 0.04200(4)
I2 I 0.33447(7) 0.82061(5) -0.04387(5)
S1 S 0.6145(2) 0.76139(15) 0.40396(12)
N1 N 0.5996(7) 0.5802(4) 0.1193(4)
N2 N 0.5351(7) 0.6717(4) 0.2836(4)
O1 O 0.2861(5) 0.5673(4) 0.0573(3)
H1 H 0.2897 0.5369 -0.0069
O2 O 0.6815(8) 0.6911(5) 0.4752(4)
O3 O 0.4614(7) 0.8142(5) 0.4336(4)
C1 C 0.4358(8) 0.7231(6) 0.2027(5)
H2 H 0.4938 0.8088 0.2042
H3 H 0.3022 0.7124 0.2165
C2 C 0.4607(8) 0.6494(5) 0.0927(5)
C3 C 0.6321(8) 0.5933(5) 0.2242(4)
C4 C 0.7538(8) 0.5270(5) 0.2751(5)
C5 C 0.9278(9) 0.5266(6) 0.2322(5)
H4 H 0.9666 0.5690 0.1741
C6 C 1.0434(10) 0.4627(6) 0.2763(6)
H5 H 1.1614 0.4629 0.2487
C7 C 0.9833(12) 0.3988(7) 0.3613(7)
H6 H 1.0627 0.3580 0.3928
C8 C 0.8040(12) 0.3953(6) 0.4000(6)
H7 H 0.7611 0.3486 0.4546
C9 C 0.6907(11) 0.4601(6) 0.3583(6)
H8 H 0.5722 0.4594 0.3856
C10 C 0.5313(8) 0.7222(5) 0.0010(5)
H9 H 0.5395 0.6639 -0.0639
C11 C 0.8053(9) 0.8747(6) 0.3726(5)
C12 C 0.9847(10) 0.8528(7) 0.3703(6)
H10 H 1.0047 0.7807 0.3886
C13 C 1.1333(11) 0.9397(7) 0.3404(6)
H11 H 1.2546 0.9262 0.3393
C14 C 1.1042(11) 1.0472(7) 0.3118(5)
C15 C 0.9278(12) 1.0678(7) 0.3164(6)
H12 H 0.9083 1.1402 0.2983
C16 C 0.7753(11) 0.9822(6) 0.3478(6)
H13 H 0.6553 0.9976 0.3519
C17 C 1.2690(14) 1.1378(9) 0.2762(7)
H14 H 1.2325 1.2119 0.2706
H15 H 1.3045 1.1057 0.2057
H16 H 1.3751 1.1537 0.3296
loop_
_geom_bond_atom_site_label_1
_geom_bond_atom_site_label_2
_geom_bond_site_symmetry_1
_geom_bond_site_symmetry_2
I1 C10 1_555 1_555
I2 C10 1_555 1_555
S1 N2 1_555 1_555
N1 C2 1_555 1_555
N2 C1 1_555 1_555
O1 H1 1_555 1_555
O2 S1 1_555 1_555
O3 S1 1_555 1_555
C1 H2 1_555 1_555
H3 C1 1_555 1_555
C2 O1 1_555 1_555
C3 N1 1_555 1_555
C4 C3 1_555 1_555
C5 C4 1_555 1_555
H4 C5 1_555 1_555
C6 C5 1_555 1_555
H5 C6 1_555 1_555
C7 C6 1_555 1_555
H6 C7 1_555 1_555
C8 C7 1_555 1_555
H7 C8 1_555 1_555
C9 C4 1_555 1_555
H8 C9 1_555 1_555
C10 C2 1_555 1_555
H9 C10 1_555 1_555
C11 S1 1_555 1_555
C12 C11 1_555 1_555
H10 C12 1_555 1_555
C13 C12 1_555 1_555
H11 C13 1_555 1_555
C14 C13 1_555 1_555
C15 C14 1_555 1_555
H12 C15 1_555 1_555
C16 C11 1_555 1_555
H13 C16 1_555 1_555
C17 C14 1_555 1_555
H14 C17 1_555 1_555
H15 C17 1_555 1_555
H16 C17 1_555 1_555
N2 C3 1_555 1_555
C1 C2 1_555 1_555
C8 C9 1_555 1_555
C15 C16 1_555 1_555

#END
