
#######################################################################
#
#                 Cambridge Crystallographic Data Centre
#                                CCDC 
#
#######################################################################
#
# If this CIF has been generated from an entry in the Cambridge 
# Structural Database, then it will include bibliographic, chemical, 
# crystal, experimental, refinement or atomic coordinate data resulting 
# from the CCDC's data processing and validation procedures.
#
#######################################################################

data_FUMMAD
_chemical_formula_moiety         'C70 H92 N4 O2 Si4'
_chemical_name_systematic        
5,9,14,18-tetrakis((triisopropylsilyl)ethynyl)benzo[b]benzo[6,7]quinoxalino[2,3-i]phenazine-7,16-dione
_symmetry_cell_setting           triclinic
_symmetry_space_group_name_H-M   'P -1'
_symmetry_Int_Tables_number      2
_space_group_name_Hall           '-P 1'
loop_
_symmetry_equiv_pos_site_id
_symmetry_equiv_pos_as_xyz
1 x,y,z
2 -x,-y,-z
_cell_length_a                   10.1577(4)
_cell_length_b                   10.6488(4)
_cell_length_c                   17.1688(6)
_cell_angle_alpha                84.169(2)
_cell_angle_beta                 88.405(2)
_cell_angle_gamma                63.987(2)
_cell_volume                     1660.04
_cell_formula_units_Z            1
loop_
_atom_site_label
_atom_site_type_symbol
_atom_site_fract_x
_atom_site_fract_y
_atom_site_fract_z
C1 C 0.3324(3) 0.1053(3) 0.41599(18)
H1 H 0.2749 0.0557 0.4275
C2 C 0.3603(4) 0.1703(4) 0.4731(2)
H2 H 0.3231 0.1648 0.5240
C3 C 0.4450(4) 0.2466(4) 0.45703(19)
H3 H 0.4640 0.2915 0.4974
C4 C 0.4986(3) 0.2556(3) 0.38462(19)
H4 H 0.5544 0.3073 0.3749
C5 C 0.4726(3) 0.1886(3) 0.32250(17)
C6 C 0.3879(3) 0.1104(3) 0.33899(17)
C7 C 0.3624(3) 0.0408(3) 0.28016(17)
C8 C 0.4201(3) 0.0470(3) 0.20487(17)
C9 C 0.4426(3) -0.0059(3) 0.07857(17)
C10 C 0.5326(3) 0.0663(3) 0.06287(17)
C11 C 0.5990(3) 0.0709(3) -0.01601(18)
C12 C 0.5053(3) 0.1238(3) 0.18876(17)
C13 C 0.5319(3) 0.1935(3) 0.24771(17)
C14 C 0.6195(3) 0.2671(3) 0.22994(17)
C15 C 0.6936(4) 0.3286(3) 0.21408(18)
C16 C 0.6962(4) 0.5753(4) 0.1153(2)
H5 H 0.6043 0.6365 0.1414
C17 C 0.6474(8) 0.5291(6) 0.0442(3)
H6 H 0.5732 0.6116 0.0138
H7 H 0.6057 0.4640 0.0620
H8 H 0.7319 0.4821 0.0113
C18 C 0.7726(4) 0.6680(4) 0.0900(2)
H9 H 0.8604 0.6148 0.0606
H10 H 0.8007 0.6977 0.1364
H11 H 0.7058 0.7509 0.0567
C19 C 0.9887(4) 0.2987(4) 0.1575(2)
H12 H 1.0264 0.2174 0.1989
C20 C 0.9823(6) 0.2377(6) 0.0803(3)
H13 H 0.9653 0.3091 0.0361
H14 H 0.9022 0.2097 0.0825
H15 H 1.0753 0.1555 0.0736
C21 C 1.1013(4) 0.3593(4) 0.1528(3)
H16 H 1.1941 0.2905 0.1336
H17 H 1.1171 0.3806 0.2050
H18 H 1.0644 0.4456 0.1168
C22 C 0.8221(5) 0.4903(5) 0.2859(2)
H19 H 0.8797 0.5459 0.2757
C23 C 0.9093(7) 0.3657(6) 0.3467(2)
H20 H 0.9146 0.4009 0.3965
H21 H 1.0086 0.3126 0.3278
H22 H 0.8601 0.3042 0.3544
C24 C 0.6725(6) 0.5884(6) 0.3166(3)
H23 H 0.6130 0.5370 0.3268
H24 H 0.6225 0.6685 0.2774
H25 H 0.6864 0.6223 0.3653
C25 C 0.2792(3) -0.0381(3) 0.29392(17)
C26 C 0.2099(3) -0.1057(3) 0.30236(18)
C27 C 0.1096(4) -0.2748(5) 0.2104(2)
H26 H 0.0534 -0.3323 0.2142
C28 C 0.0339(6) -0.1522(6) 0.1470(2)
H27 H 0.0842 -0.0916 0.1432
H28 H -0.0685 -0.0977 0.1608
H29 H 0.0377 -0.1890 0.0965
C29 C 0.2649(6) -0.3691(6) 0.1862(4)
H30 H 0.2610 -0.4094 0.1380
H31 H 0.3131 -0.4448 0.2280
H32 H 0.3203 -0.3135 0.1771
C30 C 0.1988(4) -0.3594(4) 0.3865(3)
H33 H 0.2834 -0.4281 0.3586
C31 C 0.1117(4) -0.4416(4) 0.4140(2)
H34 H 0.1716 -0.5215 0.4513
H35 H 0.0854 -0.4759 0.3688
H36 H 0.0224 -0.3800 0.4395
C32 C 0.2693(6) -0.3297(6) 0.4530(2)
H37 H 0.1933 -0.2692 0.4867
H38 H 0.3284 -0.2822 0.4324
H39 H 0.3323 -0.4181 0.4834
C33 C -0.0879(3) -0.0858(3) 0.33156(19)
H40 H -0.1166 -0.0017 0.2923
C34 C -0.1965(3) -0.1483(3) 0.3204(2)
H41 H -0.1691 -0.2343 0.3560
H42 H -0.1936 -0.1703 0.2662
H43 H -0.2957 -0.0800 0.3321
C35 C -0.1032(4) -0.0328(4) 0.4129(2)
H44 H -0.2039 0.0380 0.4192
H45 H -0.0354 0.0090 0.4180
H46 H -0.0800 -0.1117 0.4534
N1 N 0.3898(3) -0.0167(3) 0.14799(14)
N2 N 0.5630(3) 0.1295(3) 0.11650(14)
O1 O 0.6767(4) 0.1286(4) -0.02902(16)
Si1 Si 0.80380(10) 0.42615(10) 0.19096(5)
Si2 Si 0.10474(9) -0.21010(9) 0.30961(5)
C1A C 0.6676(3) -0.1053(3) -0.41599(18)
H1A H 0.7251 -0.0557 -0.4275
C2A C 0.6397(4) -0.1703(4) -0.4731(2)
H2A H 0.6769 -0.1648 -0.5240
C3A C 0.5550(4) -0.2466(4) -0.45703(19)
H3A H 0.5360 -0.2915 -0.4974
C4A C 0.5014(3) -0.2556(3) -0.38462(19)
H4A H 0.4456 -0.3073 -0.3749
C5A C 0.5274(3) -0.1886(3) -0.32250(17)
C6A C 0.6121(3) -0.1104(3) -0.33899(17)
C7A C 0.6376(3) -0.0408(3) -0.28016(17)
C8A C 0.5799(3) -0.0470(3) -0.20487(17)
C9A C 0.5574(3) 0.0059(3) -0.07857(17)
C10A C 0.4674(3) -0.0663(3) -0.06287(17)
C11A C 0.4010(3) -0.0709(3) 0.01601(18)
C12A C 0.4947(3) -0.1238(3) -0.18876(17)
C13A C 0.4681(3) -0.1935(3) -0.24771(17)
C14A C 0.3805(3) -0.2671(3) -0.22994(17)
C15A C 0.3064(4) -0.3286(3) -0.21408(18)
C16A C 0.3038(4) -0.5753(4) -0.1153(2)
H5A H 0.3957 -0.6365 -0.1414
C17A C 0.3526(8) -0.5291(6) -0.0442(3)
H6A H 0.4268 -0.6116 -0.0138
H7A H 0.3943 -0.4640 -0.0620
H8A H 0.2681 -0.4821 -0.0113
C18A C 0.2274(4) -0.6680(4) -0.0900(2)
H9A H 0.1396 -0.6148 -0.0606
H10A H 0.1993 -0.6977 -0.1364
H11A H 0.2942 -0.7509 -0.0567
C19A C 0.0113(4) -0.2987(4) -0.1575(2)
H12A H -0.0264 -0.2174 -0.1989
C20A C 0.0177(6) -0.2377(6) -0.0803(3)
H13A H 0.0347 -0.3091 -0.0361
H14A H 0.0978 -0.2097 -0.0825
H15A H -0.0753 -0.1555 -0.0736
C21A C -0.1013(4) -0.3593(4) -0.1528(3)
H16A H -0.1941 -0.2905 -0.1336
H17A H -0.1171 -0.3806 -0.2050
H18A H -0.0644 -0.4456 -0.1168
C22A C 0.1779(5) -0.4903(5) -0.2859(2)
H19A H 0.1203 -0.5459 -0.2757
C23A C 0.0907(7) -0.3657(6) -0.3467(2)
H20A H 0.0854 -0.4009 -0.3965
H21A H -0.0086 -0.3126 -0.3278
H22A H 0.1399 -0.3042 -0.3544
C24A C 0.3275(6) -0.5884(6) -0.3166(3)
H23A H 0.3870 -0.5370 -0.3268
H24A H 0.3775 -0.6685 -0.2774
H25A H 0.3136 -0.6223 -0.3653
C25A C 0.7208(3) 0.0381(3) -0.29392(17)
C26A C 0.7901(3) 0.1057(3) -0.30236(18)
C27A C 0.8904(4) 0.2748(5) -0.2104(2)
H26A H 0.9466 0.3323 -0.2142
C28A C 0.9661(6) 0.1522(6) -0.1470(2)
H27A H 0.9158 0.0916 -0.1432
H28A H 1.0685 0.0977 -0.1608
H29A H 0.9623 0.1890 -0.0965
C29A C 0.7351(6) 0.3691(6) -0.1862(4)
H30A H 0.7390 0.4094 -0.1380
H31A H 0.6869 0.4448 -0.2280
H32A H 0.6797 0.3135 -0.1771
C30A C 0.8012(4) 0.3594(4) -0.3865(3)
H33A H 0.7166 0.4281 -0.3586
C31A C 0.8883(4) 0.4416(4) -0.4140(2)
H34A H 0.8284 0.5215 -0.4513
H35A H 0.9146 0.4759 -0.3688
H36A H 0.9776 0.3800 -0.4395
C32A C 0.7307(6) 0.3297(6) -0.4530(2)
H37A H 0.8067 0.2692 -0.4867
H38A H 0.6716 0.2822 -0.4324
H39A H 0.6677 0.4181 -0.4834
C33A C 1.0879(3) 0.0858(3) -0.33156(19)
H40A H 1.1166 0.0017 -0.2923
C34A C 1.1965(3) 0.1483(3) -0.3204(2)
H41A H 1.1691 0.2343 -0.3560
H42A H 1.1936 0.1703 -0.2662
H43A H 1.2957 0.0800 -0.3321
C35A C 1.1032(4) 0.0328(4) -0.4129(2)
H44A H 1.2039 -0.0380 -0.4192
H45A H 1.0354 -0.0090 -0.4180
H46A H 1.0800 0.1117 -0.4534
N1A N 0.6102(3) 0.0167(3) -0.14799(14)
N2A N 0.4370(3) -0.1295(3) -0.11650(14)
O1A O 0.3233(4) -0.1286(4) 0.02902(16)
Si1A Si 0.19620(10) -0.42615(10) -0.19096(5)
Si2A Si 0.89526(9) 0.21010(9) -0.30961(5)
loop_
_geom_bond_atom_site_label_1
_geom_bond_atom_site_label_2
_geom_bond_site_symmetry_1
_geom_bond_site_symmetry_2
C1 H1 1_555 1_555
C2 C1 1_555 1_555
H2 C2 1_555 1_555
C3 C2 1_555 1_555
H3 C3 1_555 1_555
C4 C3 1_555 1_555
H4 C4 1_555 1_555
C5 C4 1_555 1_555
C6 C1 1_555 1_555
C7 C6 1_555 1_555
C8 C7 1_555 1_555
C9 C10 1_555 1_555
C10 C11 1_555 1_555
C11 O1 1_555 1_555
C12 C8 1_555 1_555
C13 C5 1_555 1_555
C14 C13 1_555 1_555
C15 C14 1_555 1_555
C16 H5 1_555 1_555
C17 C16 1_555 1_555
H6 C17 1_555 1_555
H7 C17 1_555 1_555
H8 C17 1_555 1_555
C18 C16 1_555 1_555
H9 C18 1_555 1_555
H10 C18 1_555 1_555
H11 C18 1_555 1_555
C19 H12 1_555 1_555
C20 C19 1_555 1_555
H13 C20 1_555 1_555
H14 C20 1_555 1_555
H15 C20 1_555 1_555
C21 C19 1_555 1_555
H16 C21 1_555 1_555
H17 C21 1_555 1_555
H18 C21 1_555 1_555
C22 H19 1_555 1_555
C23 C22 1_555 1_555
H20 C23 1_555 1_555
H21 C23 1_555 1_555
H22 C23 1_555 1_555
C24 C22 1_555 1_555
H23 C24 1_555 1_555
H24 C24 1_555 1_555
H25 C24 1_555 1_555
C25 C7 1_555 1_555
C26 C25 1_555 1_555
C27 H26 1_555 1_555
C28 C27 1_555 1_555
H27 C28 1_555 1_555
H28 C28 1_555 1_555
H29 C28 1_555 1_555
C29 C27 1_555 1_555
H30 C29 1_555 1_555
H31 C29 1_555 1_555
H32 C29 1_555 1_555
C30 H33 1_555 1_555
C31 C30 1_555 1_555
H34 C31 1_555 1_555
H35 C31 1_555 1_555
H36 C31 1_555 1_555
C32 C30 1_555 1_555
H37 C32 1_555 1_555
H38 C32 1_555 1_555
H39 C32 1_555 1_555
C33 H40 1_555 1_555
C34 C33 1_555 1_555
H41 C34 1_555 1_555
H42 C34 1_555 1_555
H43 C34 1_555 1_555
C35 C33 1_555 1_555
H44 C35 1_555 1_555
H45 C35 1_555 1_555
H46 C35 1_555 1_555
N1 C8 1_555 1_555
N2 C10 1_555 1_555
Si1 C15 1_555 1_555
Si2 C26 1_555 1_555
C1A H1A 1_555 1_555
C2A C1A 1_555 1_555
H2A C2A 1_555 1_555
C3A C2A 1_555 1_555
H3A C3A 1_555 1_555
C4A C3A 1_555 1_555
H4A C4A 1_555 1_555
C5A C4A 1_555 1_555
C6A C1A 1_555 1_555
C7A C6A 1_555 1_555
C8A C7A 1_555 1_555
C9A C11 1_555 1_555
C10A C9A 1_555 1_555
C11A C9 1_555 1_555
C12A C8A 1_555 1_555
C13A C5A 1_555 1_555
C14A C13A 1_555 1_555
C15A C14A 1_555 1_555
C16A H5A 1_555 1_555
C17A C16A 1_555 1_555
H6A C17A 1_555 1_555
H7A C17A 1_555 1_555
H8A C17A 1_555 1_555
C18A C16A 1_555 1_555
H9A C18A 1_555 1_555
H10A C18A 1_555 1_555
H11A C18A 1_555 1_555
C19A H12A 1_555 1_555
C20A C19A 1_555 1_555
H13A C20A 1_555 1_555
H14A C20A 1_555 1_555
H15A C20A 1_555 1_555
C21A C19A 1_555 1_555
H16A C21A 1_555 1_555
H17A C21A 1_555 1_555
H18A C21A 1_555 1_555
C22A H19A 1_555 1_555
C23A C22A 1_555 1_555
H20A C23A 1_555 1_555
H21A C23A 1_555 1_555
H22A C23A 1_555 1_555
C24A C22A 1_555 1_555
H23A C24A 1_555 1_555
H24A C24A 1_555 1_555
H25A C24A 1_555 1_555
C25A C7A 1_555 1_555
C26A C25A 1_555 1_555
C27A H26A 1_555 1_555
C28A C27A 1_555 1_555
H27A C28A 1_555 1_555
H28A C28A 1_555 1_555
H29A C28A 1_555 1_555
C29A C27A 1_555 1_555
H30A C29A 1_555 1_555
H31A C29A 1_555 1_555
H32A C29A 1_555 1_555
C30A H33A 1_555 1_555
C31A C30A 1_555 1_555
H34A C31A 1_555 1_555
H35A C31A 1_555 1_555
H36A C31A 1_555 1_555
C32A C30A 1_555 1_555
H37A C32A 1_555 1_555
H38A C32A 1_555 1_555
H39A C32A 1_555 1_555
C33A H40A 1_555 1_555
C34A C33A 1_555 1_555
H41A C34A 1_555 1_555
H42A C34A 1_555 1_555
H43A C34A 1_555 1_555
C35A C33A 1_555 1_555
H44A C35A 1_555 1_555
H45A C35A 1_555 1_555
H46A C35A 1_555 1_555
N1A C8A 1_555 1_555
N2A C10A 1_555 1_555
O1A C11A 1_555 1_555
Si1A C15A 1_555 1_555
Si2A C26A 1_555 1_555
C5 C6 1_555 1_555
C9 N1 1_555 1_555
C12 C13 1_555 1_555
C12 N2 1_555 1_555
C16 Si1 1_555 1_555
C19 Si1 1_555 1_555
C22 Si1 1_555 1_555
C27 Si2 1_555 1_555
C30 Si2 1_555 1_555
C33 Si2 1_555 1_555
C5A C6A 1_555 1_555
C9A N1A 1_555 1_555
C10A C11A 1_555 1_555
C12A C13A 1_555 1_555
C12A N2A 1_555 1_555
C16A Si1A 1_555 1_555
C19A Si1A 1_555 1_555
C22A Si1A 1_555 1_555
C27A Si2A 1_555 1_555
C30A Si2A 1_555 1_555
C33A Si2A 1_555 1_555

#END
