
#######################################################################
#
#                 Cambridge Crystallographic Data Centre
#                                CCDC 
#
#######################################################################
#
# If this CIF has been generated from an entry in the Cambridge 
# Structural Database, then it will include bibliographic, chemical, 
# crystal, experimental, refinement or atomic coordinate data resulting 
# from the CCDC's data processing and validation procedures.
#
#######################################################################

data_FUMRUC
_chemical_formula_moiety         'C19 H19 Br1 N2 O2'
_chemical_name_systematic        
(3-(4-bromophenyl)-6-ethoxy-5,6-dihydropyridazin-1(4H)-yl)(phenyl)methanone
_symmetry_cell_setting           orthorhombic
_symmetry_space_group_name_H-M   'P 21 21 21'
_symmetry_Int_Tables_number      19
_space_group_name_Hall           'P 2ac 2ab'
loop_
_symmetry_equiv_pos_site_id
_symmetry_equiv_pos_as_xyz
1 x,y,z
2 1/2-x,-y,1/2+z
3 -x,1/2+y,1/2-z
4 1/2+x,1/2-y,-z
_cell_length_a                   5.5598(9)
_cell_length_b                   16.478(3)
_cell_length_c                   19.769(3)
_cell_angle_alpha                90
_cell_angle_beta                 90
_cell_angle_gamma                90
_cell_volume                     1811.12
_exptl_crystal_description       block
_cell_formula_units_Z            4
loop_
_atom_site_label
_atom_site_type_symbol
_atom_site_fract_x
_atom_site_fract_y
_atom_site_fract_z
Br1 Br 0.89933(15) 0.39400(3) 1.06196(3)
C1 C 0.7764(9) 0.3640(2) 0.97627(18)
C2 C 0.8809(8) 0.3003(2) 0.94231(18)
H1 H 1.0132 0.2735 0.9605
C3 C 0.7872(7) 0.2768(2) 0.88132(17)
H2 H 0.8589 0.2342 0.8580
C4 C 0.5880(6) 0.31505(17) 0.85349(15)
C5 C 0.4881(7) 0.3792(2) 0.88963(18)
H3 H 0.3550 0.4062 0.8722
C6 C 0.5824(9) 0.4034(2) 0.95079(18)
H4 H 0.5137 0.4463 0.9744
C7 C 0.4908(6) 0.2892(2) 0.78735(16)
C8 C 0.3548(8) 0.2503(2) 0.65614(19)
H5 H 0.2823 0.2158 0.6213
C9 C 0.1634(7) 0.2816(3) 0.7029(2)
H6 H 0.0756 0.2363 0.7223
H7 H 0.0506 0.3148 0.6777
C10 C 0.2762(7) 0.3313(2) 0.75868(18)
H8 H 0.3239 0.3838 0.7409
H9 H 0.1589 0.3403 0.7942
C11 C 0.5901(13) 0.3046(3) 0.5662(2)
H10 H 0.4894 0.2728 0.5361
H11 H 0.7324 0.2726 0.5760
C12 C 0.660(2) 0.3747(3) 0.5327(3)
H12 H 0.5199 0.4031 0.5170
H13 H 0.7597 0.3607 0.4949
H14 H 0.7485 0.4088 0.5632
C13 C 0.6311(7) 0.1343(2) 0.66958(17)
C14 C 0.7965(6) 0.08645(19) 0.71334(17)
C15 C 0.7550(7) 0.0685(2) 0.78055(18)
H15 H 0.6187 0.0885 0.8021
C16 C 0.9167(8) 0.0205(2) 0.81591(19)
H16 H 0.8870 0.0081 0.8610
C17 C 1.1188(8) -0.0087(2) 0.7853(3)
H17 H 1.2287 -0.0394 0.8098
C18 C 1.1590(8) 0.0071(3) 0.7190(3)
H18 H 1.2960 -0.0133 0.6980
C19 C 0.9993(7) 0.0530(2) 0.6827(2)
H19 H 1.0265 0.0620 0.6369
N1 N 0.6018(6) 0.22968(16) 0.75852(13)
N2 N 0.5253(5) 0.20342(17) 0.69590(13)
O1 O 0.4659(6) 0.31759(16) 0.62596(13)
O2 O 0.5886(6) 0.11344(16) 0.61212(13)
loop_
_geom_bond_atom_site_label_1
_geom_bond_atom_site_label_2
_geom_bond_site_symmetry_1
_geom_bond_site_symmetry_2
Br1 C1 1_555 1_555
C1 C2 1_555 1_555
C2 H1 1_555 1_555
C3 C2 1_555 1_555
H2 C3 1_555 1_555
C4 C3 1_555 1_555
C5 C4 1_555 1_555
H3 C5 1_555 1_555
C6 C1 1_555 1_555
H4 C6 1_555 1_555
C7 C4 1_555 1_555
C8 H5 1_555 1_555
C9 C8 1_555 1_555
H6 C9 1_555 1_555
H7 C9 1_555 1_555
C10 C7 1_555 1_555
H8 C10 1_555 1_555
H9 C10 1_555 1_555
C11 H10 1_555 1_555
H11 C11 1_555 1_555
C12 C11 1_555 1_555
H12 C12 1_555 1_555
H13 C12 1_555 1_555
H14 C12 1_555 1_555
C13 C14 1_555 1_555
C14 C15 1_555 1_555
C15 H15 1_555 1_555
C16 C15 1_555 1_555
H16 C16 1_555 1_555
C17 C16 1_555 1_555
H17 C17 1_555 1_555
C18 C17 1_555 1_555
H18 C18 1_555 1_555
C19 C14 1_555 1_555
H19 C19 1_555 1_555
N1 C7 1_555 1_555
N2 C8 1_555 1_555
O1 C8 1_555 1_555
O2 C13 1_555 1_555
C5 C6 1_555 1_555
C9 C10 1_555 1_555
C11 O1 1_555 1_555
C13 N2 1_555 1_555
C18 C19 1_555 1_555
N1 N2 1_555 1_555

#END
