
#######################################################################
#
#                 Cambridge Crystallographic Data Centre
#                                CCDC 
#
#######################################################################
#
# If this CIF has been generated from an entry in the Cambridge 
# Structural Database, then it will include bibliographic, chemical, 
# crystal, experimental, refinement or atomic coordinate data resulting 
# from the CCDC's data processing and validation procedures.
#
#######################################################################

data_FUMROU
_chemical_formula_moiety         'C44 H40 N4 O8,C6 H5 N1 O2'
_chemical_name_systematic        
"N,N',N'',N'''-bis(Octane-1,8-diyl)-bis(1,4,5,8-napthalenetetracarboxylic acid di-imide) nitrobenzene clathrate"
_symmetry_cell_setting           triclinic
_symmetry_space_group_name_H-M   'P 1'
_symmetry_Int_Tables_number      1
_space_group_name_Hall           'P 1'
loop_
_symmetry_equiv_pos_site_id
_symmetry_equiv_pos_as_xyz
1 x,y,z
_cell_length_a                   13.202(6)
_cell_length_b                   10.701(5)
_cell_length_c                   8.683(4)
_cell_angle_alpha                105.61(5)
_cell_angle_beta                 113.63(5)
_cell_angle_gamma                94.77(5)
_cell_volume                     1056.71
_exptl_crystal_colour            colorless
_cell_formula_units_Z            1
loop_
_atom_site_label
_atom_site_type_symbol
_atom_site_fract_x
_atom_site_fract_y
_atom_site_fract_z
C1 C -0.2048(9) 0.7472(10) -0.4082(14)
O1 O -0.2059(6) 0.7173(7) -0.5582(10)
N1 N -0.3125(8) 0.7769(8) -0.4146(11)
C2 C -0.3307(9) 0.8213(11) -0.2596(15)
O2 O -0.4192(7) 0.8379(8) -0.2622(11)
C3 C -0.2361(11) 0.8959(10) 0.0758(16)
C4 C -0.1392(12) 0.9237(10) 0.2318(17)
C5 C 0.0644(11) 0.9359(9) 0.4129(13)
O3 O 0.0603(7) 0.9859(10) 0.5544(9)
N2 N 0.1656(8) 0.9120(8) 0.4063(10)
C6 C 0.1779(9) 0.8601(9) 0.2486(13)
O4 O 0.2651(7) 0.8339(8) 0.2590(10)
C7 C 0.0881(9) 0.8003(9) -0.0725(12)
C8 C -0.0076(9) 0.7675(9) -0.2386(13)
C9 C -0.1094(8) 0.7821(8) -0.2456(11)
C10 C -0.1224(9) 0.8338(9) -0.0886(12)
C11 C -0.2286(8) 0.8476(9) -0.0857(14)
C12 C -0.0344(9) 0.9089(9) 0.2451(11)
C13 C -0.0246(9) 0.8586(8) 0.0769(12)
C14 C 0.0828(8) 0.8331(9) 0.0829(12)
C15 C -0.4260(11) 0.7466(13) -0.5938(14)
C16 C -0.4171(9) 0.8783(10) -0.6570(14)
C17 C -0.5057(12) 0.8415(14) -0.8434(16)
C18 C -0.5098(12) 0.9654(15) -0.8998(18)
C19 C -0.5588(11) 1.0678(13) -0.8097(17)
C20 C -0.4906(19) 1.2274(24) -0.7470(30)
C21 C -0.4107(15) 1.2453(18) -0.6219(19)
C22 C -0.3432(9) 1.4043(12) -0.5765(14)
C23 C 0.1420(9) 1.5792(9) 0.4189(13)
O5 O 0.1348(6) 1.6288(8) 0.5587(9)
N3 N 0.2412(7) 1.5737(8) 0.4100(10)
C24 C 0.2474(10) 1.5221(9) 0.2493(15)
O6 O 0.3443(6) 1.5055(8) 0.2651(10)
C25 C 0.1567(9) 1.4518(11) -0.0713(14)
C26 C 0.0592(9) 1.4228(11) -0.2433(14)
C27 C -0.1413(11) 1.4054(13) -0.4080(16)
O7 O -0.1434(8) 1.3556(8) -0.5554(10)
N4 N -0.2402(8) 1.4342(9) -0.4051(12)
C28 C -0.2498(11) 1.4900(11) -0.2535(15)
O8 O -0.3430(7) 1.5162(7) -0.2605(10)
C29 C -0.1591(9) 1.5572(8) 0.0811(13)
C30 C -0.0656(8) 1.5731(9) 0.2416(13)
C31 C 0.0386(8) 1.5529(8) 0.2418(13)
C32 C 0.0461(8) 1.5161(7) 0.0804(11)
C33 C 0.1519(9) 1.4957(9) 0.0869(12)
C34 C -0.0385(9) 1.4422(9) -0.2359(12)
C35 C -0.0465(9) 1.4871(8) -0.0814(12)
C36 C -0.1497(8) 1.5051(8) -0.0785(11)
C37 C 0.3355(9) 1.6059(12) 0.5800(15)
C38 C 0.3652(15) 1.4886(26) 0.6320(19)
C39 C 0.3960(24) 1.4975(14) 0.7829(33)
C40 C 0.4433(9) 1.4113(19) 0.8845(16)
C41 C 0.4800(9) 1.2821(9) 0.7982(15)
C42 C 0.3634(9) 1.1871(8) 0.7169(24)
C43 C 0.3729(13) 1.0481(10) 0.6237(32)
C44 C 0.2702(8) 0.9448(8) 0.5825(12)
H1 H -0.316 0.910 0.077
H2 H -0.147 0.961 0.355
H3 H 0.170 0.798 -0.071
H4 H 0.001 0.731 -0.361
H5 H -0.431 0.658 -0.695
H6 H -0.500 0.734 -0.569
H7 H -0.334 0.905 -0.650
H8 H -0.432 0.962 -0.573
H9 H -0.485 0.766 -0.929
H10 H -0.587 0.804 -0.852
H11 H -0.561 0.935 -1.042
H12 H -0.425 1.012 -0.868
H13 H -0.648 1.053 -0.897
H14 H -0.549 1.051 -0.688
H15 H -0.547 1.292 -0.732
H16 H -0.469 1.238 -0.851
H17 H -0.433 1.244 -0.516
H18 H -0.358 1.175 -0.634
H19 H -0.396 1.475 -0.566
H20 H -0.319 1.407 -0.681
H21 H 0.237 1.438 -0.069
H22 H 0.065 1.388 -0.368
H23 H -0.236 1.584 0.080
H24 H -0.073 1.601 0.365
H25 H 0.408 1.659 0.578
H26 H 0.315 1.669 0.679
H27 H 0.432 1.463 0.596
H28 H 0.291 1.409 0.554
H29 H 0.459 1.589 0.853
H30 H 0.322 1.511 0.804
H31 H 0.518 1.473 1.002
H32 H 0.381 1.377 0.923
H33 H 0.510 1.318 0.716
H34 H 0.328 1.212 0.811
H35 H 0.377 1.272 0.677
H36 H 0.401 1.029 0.520
H37 H 0.514 1.178 0.759
H38 H 0.249 0.941 0.690
H39 H 0.327 0.879 0.573
C45 C 0.0264(7) 1.1362(11) -0.0974(13)
C46 C 0.1313(7) 1.1544(11) 0.0444(13)
C47 C 0.1439(7) 1.1984(11) 0.2192(13)
C48 C 0.0508(7) 1.2241(11) 0.2513(13)
C49 C -0.0541(7) 1.2060(11) 0.1094(13)
C50 C -0.0668(7) 1.1619(11) -0.0654(13)
N5 N -0.1785(7) 1.1426(11) -0.2163(13)
O9 O -0.2585(7) 1.1648(11) -0.1886(13)
O10 O -0.1892(7) 1.1048(11) -0.3664(13)
H40 H 0.017 1.102 -0.231
H41 H 0.203 1.134 0.020
H42 H 0.225 1.212 0.329
H43 H 0.061 1.258 0.386
H44 H -0.126 1.225 0.133
H45? H 0.518 1.353 0.932
H46? H 0.355 0.956 0.647
H47? H 0.462 1.112 0.884
H48? H 0.291 1.098 0.474
H49? H 0.251 1.034 0.613
H50? H -0.044 1.247 0.236
H51? H -0.248 1.228 0.048
H52? H -0.324 1.146 -0.280
H53? H -0.198 1.081 -0.422
H54? H 0.004 1.099 -0.234
loop_
_geom_bond_atom_site_label_1
_geom_bond_atom_site_label_2
_geom_bond_site_symmetry_1
_geom_bond_site_symmetry_2
C1 O1 1_555 1_555
N1 C1 1_555 1_555
C2 N1 1_555 1_555
O2 C2 1_555 1_555
C3 C4 1_555 1_555
C4 C12 1_555 1_555
C5 O3 1_555 1_555
N2 C5 1_555 1_555
C6 N2 1_555 1_555
O4 C6 1_555 1_555
C7 C8 1_555 1_555
C8 C9 1_555 1_555
C9 C1 1_555 1_555
C10 C9 1_555 1_555
C11 C2 1_555 1_555
C12 C5 1_555 1_555
C13 C10 1_555 1_555
C14 C6 1_555 1_555
C15 N1 1_555 1_555
C16 C15 1_555 1_555
C17 C16 1_555 1_555
C18 C17 1_555 1_555
C19 C18 1_555 1_555
C20 C19 1_555 1_555
C21 C20 1_555 1_555
C22 C21 1_555 1_555
C23 O5 1_555 1_555
N3 C23 1_555 1_555
C24 N3 1_555 1_555
O6 C24 1_555 1_555
C25 C26 1_555 1_555
C26 C34 1_555 1_555
C27 O7 1_555 1_555
N4 C22 1_555 1_555
C28 N4 1_555 1_555
O8 C28 1_555 1_555
C29 C30 1_555 1_555
C30 C31 1_555 1_555
C31 C23 1_555 1_555
C32 C31 1_555 1_555
C33 C24 1_555 1_555
C34 C27 1_555 1_555
C35 C32 1_555 1_555
C36 C28 1_555 1_555
C37 N3 1_555 1_555
C38 C37 1_555 1_555
C39 C38 1_555 1_555
C40 C39 1_555 1_555
C41 C40 1_555 1_555
C42 C41 1_555 1_555
C43 C42 1_555 1_555
C44 N2 1_555 1_555
H1 C3 1_555 1_555
H2 C4 1_555 1_555
H3 C7 1_555 1_555
H4 C8 1_555 1_555
H5 C15 1_555 1_555
H6 C15 1_555 1_555
H7 C16 1_555 1_555
H8 C16 1_555 1_555
H9 C17 1_555 1_555
H10 C17 1_555 1_555
H11 C18 1_555 1_555
H12 C18 1_555 1_555
H13 C19 1_555 1_555
H14 C19 1_555 1_555
H15 C20 1_555 1_555
H16 C20 1_555 1_555
H17 C21 1_555 1_555
H18 C21 1_555 1_555
H19 C22 1_555 1_555
H20 C22 1_555 1_555
H21 C25 1_555 1_555
H22 C26 1_555 1_555
H23 C29 1_555 1_555
H24 C30 1_555 1_555
H25 C37 1_555 1_555
H26 C37 1_555 1_555
H27 C38 1_555 1_555
H28 C38 1_555 1_555
H29 C39 1_555 1_555
H30 C39 1_555 1_555
H31 C40 1_555 1_555
H32 C40 1_555 1_555
H33 C41 1_555 1_555
H34 C42 1_555 1_555
H35 C42 1_555 1_555
H36 C43 1_555 1_555
H37 C41 1_555 1_555
H38 C44 1_555 1_555
H39 C44 1_555 1_555
C45 C46 1_555 1_555
C46 C47 1_555 1_555
C47 C48 1_555 1_555
C48 C49 1_555 1_555
C49 C50 1_555 1_555
C50 C45 1_555 1_555
N5 C50 1_555 1_555
O9 N5 1_555 1_555
O10 N5 1_555 1_555
H40 C45 1_555 1_555
H41 C46 1_555 1_555
H42 C47 1_555 1_555
H43 C48 1_555 1_555
H44 C49 1_555 1_555
C3 C11 1_555 1_555
C7 C14 1_555 1_555
C10 C11 1_555 1_555
C12 C13 1_555 1_555
C13 C14 1_555 1_555
C25 C33 1_555 1_555
C27 N4 1_555 1_555
C29 C36 1_555 1_555
C32 C33 1_555 1_555
C34 C35 1_555 1_555
C35 C36 1_555 1_555
C43 C44 1_555 1_555

#END
