
#######################################################################
#
#                 Cambridge Crystallographic Data Centre
#                                CCDC 
#
#######################################################################
#
# If this CIF has been generated from an entry in the Cambridge 
# Structural Database, then it will include bibliographic, chemical, 
# crystal, experimental, refinement or atomic coordinate data resulting 
# from the CCDC's data processing and validation procedures.
#
#######################################################################

data_FUMSEL
_chemical_formula_moiety         'C22 H14 N2'
_chemical_name_systematic        Cyclo-octa(2,1-b;3,4-b')diquinoline
_symmetry_cell_setting           monoclinic
_symmetry_space_group_name_H-M   'C 2/c'
_symmetry_Int_Tables_number      15
_space_group_name_Hall           '-C 2yn'
loop_
_symmetry_equiv_pos_site_id
_symmetry_equiv_pos_as_xyz
1 x,y,z
2 1/2+x,1/2+y,z
3 -x,y,1/2-z
4 1/2-x,1/2+y,1/2-z
5 -x,-y,-z
6 1/2-x,1/2-y,-z
7 x,-y,1/2+z
8 1/2+x,1/2-y,1/2+z
_cell_length_a                   17.383(5)
_cell_length_b                   7.509(2)
_cell_length_c                   16.016(3)
_cell_angle_alpha                90
_cell_angle_beta                 130.75(1)
_cell_angle_gamma                90
_cell_volume                     1583.73
_cell_formula_units_Z            4
loop_
_atom_site_label
_atom_site_type_symbol
_atom_site_fract_x
_atom_site_fract_y
_atom_site_fract_z
N1 N 0.0908(1) 0.2691(2) 0.2628(1)
C1 C 0.0201(2) -0.2795(3) 0.3063(2)
C2 C 0.0796(2) -0.1556(3) 0.3805(2)
C3 C 0.1195(1) 0.0002(3) 0.3629(2)
C4 C 0.0565(1) 0.1335(2) 0.2824(2)
C5 C 0.2223(2) 0.0202(3) 0.4263(2)
C6 C 0.2624(1) 0.1597(3) 0.4070(2)
C7 C 0.1934(2) 0.2814(3) 0.3225(2)
C8 C 0.2314(2) 0.4194(4) 0.2985(2)
C9 C 0.3328(2) 0.4343(4) 0.3558(2)
C10 C 0.4012(2) 0.3149(4) 0.4406(2)
C11 C 0.3679(2) 0.1825(4) 0.4665(2)
H1 H 0.0008 -0.3767 0.3282
H2 H 0.0984 -0.1664 0.4516
H3 H 0.2673 -0.0631 0.4845
H4 H 0.1856 0.5040 0.2415
H5 H 0.3575 0.5272 0.3375
H6 H 0.4725 0.3269 0.4801
H7 H 0.4159 0.1037 0.5264
C4B C -0.0565(1) 0.1335(2) 0.2176(2)
C1B C -0.0201(2) -0.2795(3) 0.1937(2)
N1B N -0.0908(1) 0.2691(2) 0.2372(1)
C3B C -0.1195(1) 0.0002(3) 0.1371(2)
C2B C -0.0796(2) -0.1556(3) 0.1195(2)
H1B H -0.0008 -0.3767 0.1718
C7B C -0.1934(2) 0.2814(3) 0.1775(2)
C5B C -0.2223(2) 0.0202(3) 0.0737(2)
H2B H -0.0984 -0.1664 0.0484
C6B C -0.2624(1) 0.1597(3) 0.0930(2)
C8B C -0.2314(2) 0.4194(4) 0.2015(2)
H3B H -0.2673 -0.0631 0.0155
C11B C -0.3679(2) 0.1825(4) 0.0335(2)
C9B C -0.3328(2) 0.4343(4) 0.1442(2)
H4B H -0.1856 0.5040 0.2585
C10B C -0.4012(2) 0.3149(4) 0.0594(2)
H7B H -0.4159 0.1037 -0.0264
H5B H -0.3575 0.5272 0.1625
H6B H -0.4725 0.3269 0.0199
loop_
_geom_bond_atom_site_label_1
_geom_bond_atom_site_label_2
_geom_bond_site_symmetry_1
_geom_bond_site_symmetry_2
N1 C4 1_555 1_555
C1 C2 1_555 1_555
C2 C3 1_555 1_555
C3 C4 1_555 1_555
C4 C4B 1_555 1_555
C5 C3 1_555 1_555
C6 C5 1_555 1_555
C7 N1 1_555 1_555
C8 C7 1_555 1_555
C9 C8 1_555 1_555
C10 C9 1_555 1_555
C11 C6 1_555 1_555
H1 C1 1_555 1_555
H2 C2 1_555 1_555
H3 C5 1_555 1_555
H4 C8 1_555 1_555
H5 C9 1_555 1_555
H6 C10 1_555 1_555
H7 C11 1_555 1_555
C4B N1B 1_555 1_555
C1B C1 1_555 1_555
N1B C7B 1_555 1_555
C3B C4B 1_555 1_555
C2B C1B 1_555 1_555
H1B C1B 1_555 1_555
C7B C6B 1_555 1_555
C5B C3B 1_555 1_555
H2B C2B 1_555 1_555
C6B C5B 1_555 1_555
C8B C7B 1_555 1_555
H3B C5B 1_555 1_555
C11B C6B 1_555 1_555
C9B C8B 1_555 1_555
H4B C8B 1_555 1_555
C10B C11B 1_555 1_555
H7B C11B 1_555 1_555
H5B C9B 1_555 1_555
H6B C10B 1_555 1_555
C6 C7 1_555 1_555
C10 C11 1_555 1_555
C3B C2B 1_555 1_555
C9B C10B 1_555 1_555

#END
