
#######################################################################
#
#                 Cambridge Crystallographic Data Centre
#                                CCDC 
#
#######################################################################
#
# If this CIF has been generated from an entry in the Cambridge 
# Structural Database, then it will include bibliographic, chemical, 
# crystal, experimental, refinement or atomic coordinate data resulting 
# from the CCDC's data processing and validation procedures.
#
#######################################################################

data_FUMVAM
_chemical_formula_moiety         'C19 H16 O2'
_chemical_name_systematic        2-benzylidene-3-(2-oxopropyl)indan-1-one
_symmetry_cell_setting           orthorhombic
_symmetry_space_group_name_H-M   'P c a 21'
_symmetry_Int_Tables_number      29
_space_group_name_Hall           'P 2c -2ac'
loop_
_symmetry_equiv_pos_site_id
_symmetry_equiv_pos_as_xyz
1 x,y,z
2 -x,-y,1/2+z
3 1/2-x,y,1/2+z
4 1/2+x,-y,z
_cell_length_a                   11.2513(11)
_cell_length_b                   16.593(2)
_cell_length_c                   8.0237(9)
_cell_angle_alpha                90
_cell_angle_beta                 90
_cell_angle_gamma                90
_cell_volume                     1497.97
_exptl_crystal_colour            'light colorless'
_exptl_crystal_description       plate
_cell_formula_units_Z            4
loop_
_atom_site_label
_atom_site_type_symbol
_atom_site_fract_x
_atom_site_fract_y
_atom_site_fract_z
O1 O 0.6937(3) 0.6875(2) 0.1576(4)
O2 O 0.2821(4) 0.7610(2) 0.7029(5)
C1 C 0.6662(4) 0.8960(3) 0.4330(6)
H1 H 0.6832 0.8421 0.4121
C2 C 0.7446(5) 0.9549(3) 0.3816(6)
H2 H 0.8142 0.9402 0.3271
C3 C 0.7213(5) 1.0341(3) 0.4097(7)
H3 H 0.7736 1.0733 0.3713
C4 C 0.6204(5) 1.0562(3) 0.4947(6)
H4 H 0.6056 1.1103 0.5171
C5 C 0.5409(4) 0.9978(3) 0.5469(6)
H5 H 0.4724 1.0130 0.6036
C6 C 0.5620(4) 0.9167(3) 0.5158(5)
C7 C 0.4724(4) 0.8578(3) 0.5689(5)
H6 H 0.4164 0.8781 0.6431
C8 C 0.4568(4) 0.7800(3) 0.5297(5)
C9 C 0.3564(5) 0.7347(3) 0.6050(6)
C10 C 0.3658(4) 0.6515(3) 0.5444(6)
C11 C 0.4627(4) 0.6451(3) 0.4382(6)
C12 C 0.5242(4) 0.7254(3) 0.4126(5)
H7 H 0.6078 0.7219 0.4460
C13 C 0.4908(5) 0.5715(3) 0.3690(7)
H8 H 0.5572 0.5659 0.3008
C14 C 0.4177(7) 0.5055(4) 0.4031(9)
H9 H 0.4355 0.4559 0.3553
C15 C 0.3202(6) 0.5121(4) 0.5054(10)
H10 H 0.2724 0.4675 0.5260
C16 C 0.2940(5) 0.5854(4) 0.5773(8)
H11 H 0.2286 0.5905 0.6473
C17 C 0.5141(4) 0.7544(3) 0.2312(5)
H12 H 0.4351 0.7416 0.1908
H13 H 0.5224 0.8126 0.2297
C18 C 0.6037(4) 0.7190(3) 0.1120(6)
C19 C 0.5728(5) 0.7285(3) -0.0674(6)
H14 H 0.6355 0.7068 -0.1349
H15 H 0.5628 0.7847 -0.0925
H16 H 0.5001 0.7003 -0.0905
loop_
_geom_bond_atom_site_label_1
_geom_bond_atom_site_label_2
_geom_bond_site_symmetry_1
_geom_bond_site_symmetry_2
O1 C18 1_555 1_555
O2 C9 1_555 1_555
C1 H1 1_555 1_555
C2 C1 1_555 1_555
H2 C2 1_555 1_555
C3 C2 1_555 1_555
H3 C3 1_555 1_555
C4 C3 1_555 1_555
H4 C4 1_555 1_555
C5 C4 1_555 1_555
H5 C5 1_555 1_555
C6 C1 1_555 1_555
C7 C6 1_555 1_555
H6 C7 1_555 1_555
C8 C7 1_555 1_555
C9 C8 1_555 1_555
C10 C9 1_555 1_555
C11 C10 1_555 1_555
C12 C8 1_555 1_555
H7 C12 1_555 1_555
C13 C11 1_555 1_555
H8 C13 1_555 1_555
C14 C13 1_555 1_555
H9 C14 1_555 1_555
C15 C14 1_555 1_555
H10 C15 1_555 1_555
C16 C10 1_555 1_555
H11 C16 1_555 1_555
C17 C12 1_555 1_555
H12 C17 1_555 1_555
H13 C17 1_555 1_555
C18 C17 1_555 1_555
C19 C18 1_555 1_555
H14 C19 1_555 1_555
H15 C19 1_555 1_555
H16 C19 1_555 1_555
C5 C6 1_555 1_555
C11 C12 1_555 1_555
C15 C16 1_555 1_555

#END
