
#######################################################################
#
#                 Cambridge Crystallographic Data Centre
#                                CCDC 
#
#######################################################################
#
# If this CIF has been generated from an entry in the Cambridge 
# Structural Database, then it will include bibliographic, chemical, 
# crystal, experimental, refinement or atomic coordinate data resulting 
# from the CCDC's data processing and validation procedures.
#
#######################################################################

data_FUMWEQ
_chemical_formula_moiety         'C30 H28 Br1 N2 P1'
_chemical_name_systematic        
8-Bromo-7,9-dimesityl-8,9-dihydro-7H-acenaphtho[1,2-d][1,3,2]diazaphosphole
_symmetry_cell_setting           monoclinic
_symmetry_space_group_name_H-M   'P 21/c'
_symmetry_Int_Tables_number      14
_space_group_name_Hall           '-P 2ybc'
loop_
_symmetry_equiv_pos_site_id
_symmetry_equiv_pos_as_xyz
1 x,y,z
2 -x,1/2+y,1/2-z
3 -x,-y,-z
4 x,1/2-y,1/2+z
_cell_length_a                   11.4785(12)
_cell_length_b                   17.6796(18)
_cell_length_c                   37.784(4)
_cell_angle_alpha                90
_cell_angle_beta                 93.030(2)
_cell_angle_gamma                90
_cell_volume                     7656.99
_exptl_crystal_colour            red
_exptl_crystal_description       prism
_cell_formula_units_Z            12
loop_
_atom_site_label
_atom_site_type_symbol
_atom_site_fract_x
_atom_site_fract_y
_atom_site_fract_z
Br1 Br 0.66111(9) 0.17805(6) 0.30214(3)
P1 P 0.5495(2) 0.16495(14) 0.35475(6)
N1 N 0.4524(6) 0.0971(4) 0.34409(18)
N2 N 0.4471(6) 0.2319(4) 0.34906(17)
C1 C 0.3455(7) 0.1262(5) 0.3308(2)
C2 C 0.3433(7) 0.2023(5) 0.3335(2)
C3 C 0.2271(7) 0.2321(5) 0.3210(2)
C4 C 0.1649(7) 0.1657(5) 0.3110(2)
C5 C 0.2336(7) 0.0989(5) 0.3160(2)
C6 C 0.1838(7) 0.0311(5) 0.3080(2)
H1 H 0.2270 -0.0143 0.3116
C7 C 0.0667(8) 0.0285(5) 0.2941(2)
H2 H 0.0319 -0.0189 0.2882
C8 C 0.0032(7) 0.0931(5) 0.2890(2)
H3 H -0.0749 0.0901 0.2795
C9 C 0.0521(7) 0.1649(5) 0.2979(2)
C10 C -0.0044(8) 0.2361(5) 0.2946(2)
H4 H -0.0830 0.2390 0.2855
C11 C 0.0540(8) 0.3001(6) 0.3046(2)
H5 H 0.0146 0.3472 0.3022
C12 C 0.1710(8) 0.2995(5) 0.3183(2)
H6 H 0.2092 0.3451 0.3255
C13 C 0.4680(7) 0.0173(5) 0.3505(2)
C14 C 0.4605(7) -0.0098(5) 0.3847(2)
C15 C 0.4684(8) -0.0858(6) 0.3902(2)
H7 H 0.4625 -0.1047 0.4136
C16 C 0.4848(7) -0.1368(5) 0.3628(3)
C17 C 0.4949(7) -0.1085(5) 0.3294(3)
H8 H 0.5074 -0.1426 0.3105
C18 C 0.4873(7) -0.0308(5) 0.3221(2)
C19 C 0.4410(9) 0.0427(5) 0.4154(2)
H9 H 0.4379 0.0131 0.4373
H10 H 0.3672 0.0698 0.4111
H11 H 0.5052 0.0791 0.4178
C20 C 0.4884(8) -0.2203(5) 0.3695(3)
H12 H 0.4798 -0.2300 0.3948
H13 H 0.5632 -0.2407 0.3625
H14 H 0.4246 -0.2449 0.3556
C21 C 0.4990(8) -0.0022(5) 0.2853(2)
H15 H 0.5123 -0.0449 0.2694
H16 H 0.5651 0.0328 0.2849
H17 H 0.4273 0.0241 0.2773
C22 C 0.4670(7) 0.3101(5) 0.3577(2)
C23 C 0.4775(8) 0.3311(6) 0.3932(2)
C24 C 0.4948(8) 0.4089(6) 0.4009(3)
H18 H 0.5028 0.4247 0.4249
C25 C 0.5004(8) 0.4627(6) 0.3740(3)
C26 C 0.4900(8) 0.4388(5) 0.3395(3)
H19 H 0.4930 0.4754 0.3211
C27 C 0.4751(7) 0.3634(5) 0.3303(3)
C28 C 0.4701(9) 0.2732(5) 0.4229(2)
H20 H 0.4798 0.2987 0.4458
H21 H 0.5319 0.2354 0.4209
H22 H 0.3939 0.2481 0.4209
C29 C 0.5191(9) 0.5455(5) 0.3840(3)
H23 H 0.5246 0.5503 0.4099
H24 H 0.4533 0.5756 0.3743
H25 H 0.5915 0.5637 0.3743
C30 C 0.4664(8) 0.3427(5) 0.2915(2)
H26 H 0.4558 0.2879 0.2891
H27 H 0.5382 0.3578 0.2805
H28 H 0.3997 0.3688 0.2798
Br2 Br 1.38193(9) 0.16189(6) 0.21784(3)
P2 P 1.2645(2) 0.15861(15) 0.16173(7)
N3 N 1.1667(6) 0.2277(4) 0.16821(18)
N4 N 1.1638(6) 0.0912(4) 0.16892(18)
C31 C 1.0662(7) 0.2000(5) 0.1820(2)
C32 C 1.0642(7) 0.1230(5) 0.1821(2)
C33 C 0.9534(7) 0.0947(5) 0.1943(2)
C34 C 0.8885(7) 0.1615(5) 0.2013(2)
C35 C 0.9541(7) 0.2280(5) 0.1941(2)
C36 C 0.9015(8) 0.2965(5) 0.1981(2)
H29 H 0.9417 0.3420 0.1932
C37 C 0.7866(8) 0.2987(5) 0.2096(2)
H30 H 0.7513 0.3465 0.2132
C38 C 0.7247(7) 0.2347(5) 0.2155(2)
H31 H 0.6462 0.2384 0.2221
C39 C 0.7771(7) 0.1619(5) 0.2119(2)
C40 C 0.7238(8) 0.0896(5) 0.2161(2)
H32 H 0.6461 0.0866 0.2235
C41 C 0.7834(8) 0.0251(5) 0.2096(2)
H33 H 0.7462 -0.0223 0.2125
C42 C 0.8990(8) 0.0265(5) 0.1985(2)
H34 H 0.9387 -0.0194 0.1940
C43 C 1.1803(7) 0.3068(5) 0.1591(2)
C44 C 1.1836(7) 0.3280(5) 0.1234(2)
C45 C 1.1862(8) 0.4041(6) 0.1146(3)
H35 H 1.1867 0.4182 0.0903
C46 C 1.1881(8) 0.4588(6) 0.1398(3)
C47 C 1.1929(7) 0.4378(5) 0.1744(3)
H36 H 1.1991 0.4760 0.1921
C48 C 1.1890(7) 0.3617(5) 0.1851(2)
C49 C 1.1814(8) 0.2715(5) 0.0942(2)
H37 H 1.1837 0.2978 0.0714
H38 H 1.1097 0.2415 0.0946
H39 H 1.2492 0.2381 0.0973
C50 C 1.1842(9) 0.5409(5) 0.1290(3)
H40 H 1.1866 0.5728 0.1502
H41 H 1.1121 0.5508 0.1147
H42 H 1.2515 0.5524 0.1150
C51 C 1.1939(7) 0.3410(5) 0.2241(2)
H43 H 1.2002 0.3872 0.2384
H44 H 1.2620 0.3088 0.2296
H45 H 1.1228 0.3136 0.2295
C52 C 1.1700(7) 0.0139(5) 0.1560(2)
C53 C 1.1401(7) 0.0018(5) 0.1204(2)
C54 C 1.1419(7) -0.0721(6) 0.1080(3)
H46 H 1.1186 -0.0810 0.0838
C55 C 1.1766(8) -0.1348(5) 0.1294(3)
C56 C 1.2053(7) -0.1178(5) 0.1648(3)
H47 H 1.2277 -0.1582 0.1803
C57 C 1.2029(7) -0.0453(5) 0.1786(2)
C58 C 1.1042(8) 0.0648(5) 0.0955(2)
H48 H 1.0868 0.0441 0.0717
H49 H 1.1679 0.1016 0.0946
H50 H 1.0346 0.0898 0.1039
C59 C 1.1735(9) -0.2140(5) 0.1150(3)
H51 H 1.1502 -0.2129 0.0897
H52 H 1.1171 -0.2441 0.1276
H53 H 1.2511 -0.2369 0.1184
C60 C 1.2315(8) -0.0303(5) 0.2176(2)
H54 H 1.2245 0.0240 0.2223
H55 H 1.3115 -0.0468 0.2238
H56 H 1.1771 -0.0583 0.2318
Br3 Br 1.00776(9) 0.23833(6) -0.00543(3)
P3 P 0.9004(2) 0.24154(14) 0.05062(7)
N5 N 0.7959(6) 0.1757(4) 0.04413(17)
N6 N 0.8039(6) 0.3125(4) 0.04168(18)
C61 C 0.6926(7) 0.2091(5) 0.0315(2)
C62 C 0.6946(7) 0.2852(5) 0.0297(2)
C63 C 0.5786(7) 0.3144(5) 0.0202(2)
C64 C 0.5076(7) 0.2484(5) 0.0183(2)
C65 C 0.5731(7) 0.1804(5) 0.0244(2)
C66 C 0.5146(8) 0.1132(5) 0.0226(2)
H57 H 0.5557 0.0668 0.0257
C67 C 0.3925(8) 0.1134(6) 0.0159(3)
H58 H 0.3515 0.0667 0.0152
C68 C 0.3310(8) 0.1801(5) 0.0104(2)
H59 H 0.2489 0.1780 0.0058
C69 C 0.3875(8) 0.2514(5) 0.0115(2)
C70 C 0.3352(8) 0.3226(5) 0.0060(2)
H60 H 0.2533 0.3269 0.0013
C71 C 0.4045(8) 0.3856(5) 0.0074(2)
H61 H 0.3687 0.4336 0.0036
C72 C 0.5261(7) 0.3830(5) 0.0142(2)
H62 H 0.5710 0.4281 0.0146
C73 C 0.8091(7) 0.0966(5) 0.0543(2)
C74 C 0.7964(7) 0.0779(5) 0.0898(2)
C75 C 0.8082(7) 0.0019(5) 0.0996(2)
H63 H 0.7997 -0.0116 0.1236
C76 C 0.8319(7) -0.0542(5) 0.0756(3)
C77 C 0.8416(7) -0.0328(5) 0.0406(3)
H64 H 0.8566 -0.0709 0.0237
C78 C 0.8303(7) 0.0423(5) 0.0289(2)
C79 C 0.7727(8) 0.1382(5) 0.1168(2)
H65 H 0.7669 0.1149 0.1401
H66 H 0.6993 0.1639 0.1099
H67 H 0.8367 0.1750 0.1177
C80 C 0.8412(8) -0.1371(5) 0.0864(3)
H68 H 0.8332 -0.1416 0.1120
H69 H 0.9172 -0.1570 0.0803
H70 H 0.7790 -0.1660 0.0738
C81 C 0.8361(8) 0.0622(5) -0.0094(2)
H71 H 0.8516 0.0164 -0.0230
H72 H 0.8988 0.0989 -0.0123
H73 H 0.7615 0.0842 -0.0181
C82 C 0.8285(7) 0.3913(5) 0.0493(3)
C83 C 0.8410(7) 0.4121(5) 0.0844(2)
C84 C 0.8635(8) 0.4886(5) 0.0913(3)
H74 H 0.8733 0.5049 0.1152
C85 C 0.8720(8) 0.5408(5) 0.0650(3)
C86 C 0.8613(7) 0.5180(5) 0.0305(3)
H75 H 0.8699 0.5538 0.0121
C87 C 0.8376(7) 0.4422(5) 0.0220(2)
C88 C 0.8311(9) 0.3589(5) 0.1146(2)
H76 H 0.8435 0.3866 0.1369
H77 H 0.8901 0.3191 0.1132
H78 H 0.7532 0.3361 0.1134
C89 C 0.8947(9) 0.6213(5) 0.0746(3)
H79 H 0.8981 0.6516 0.0529
H80 H 0.9692 0.6251 0.0884
H81 H 0.8318 0.6401 0.0888
C90 C 0.8235(8) 0.4199(5) -0.0166(2)
H82 H 0.8336 0.4646 -0.0315
H83 H 0.7453 0.3988 -0.0215
H84 H 0.8822 0.3819 -0.0218
loop_
_geom_bond_atom_site_label_1
_geom_bond_atom_site_label_2
_geom_bond_site_symmetry_1
_geom_bond_site_symmetry_2
Br1 P1 1_555 1_555
P1 N1 1_555 1_555
N1 C1 1_555 1_555
N2 P1 1_555 1_555
C1 C2 1_555 1_555
C2 N2 1_555 1_555
C3 C2 1_555 1_555
C4 C3 1_555 1_555
C5 C1 1_555 1_555
C6 C5 1_555 1_555
H1 C6 1_555 1_555
C7 C6 1_555 1_555
H2 C7 1_555 1_555
C8 C7 1_555 1_555
H3 C8 1_555 1_555
C9 C4 1_555 1_555
C10 C9 1_555 1_555
H4 C10 1_555 1_555
C11 C10 1_555 1_555
H5 C11 1_555 1_555
C12 C3 1_555 1_555
H6 C12 1_555 1_555
C13 N1 1_555 1_555
C14 C13 1_555 1_555
C15 C14 1_555 1_555
H7 C15 1_555 1_555
C16 C15 1_555 1_555
C17 C16 1_555 1_555
H8 C17 1_555 1_555
C18 C13 1_555 1_555
C19 C14 1_555 1_555
H9 C19 1_555 1_555
H10 C19 1_555 1_555
H11 C19 1_555 1_555
C20 C16 1_555 1_555
H12 C20 1_555 1_555
H13 C20 1_555 1_555
H14 C20 1_555 1_555
C21 C18 1_555 1_555
H15 C21 1_555 1_555
H16 C21 1_555 1_555
H17 C21 1_555 1_555
C22 N2 1_555 1_555
C23 C22 1_555 1_555
C24 C23 1_555 1_555
H18 C24 1_555 1_555
C25 C24 1_555 1_555
C26 C25 1_555 1_555
H19 C26 1_555 1_555
C27 C22 1_555 1_555
C28 C23 1_555 1_555
H20 C28 1_555 1_555
H21 C28 1_555 1_555
H22 C28 1_555 1_555
C29 C25 1_555 1_555
H23 C29 1_555 1_555
H24 C29 1_555 1_555
H25 C29 1_555 1_555
C30 C27 1_555 1_555
H26 C30 1_555 1_555
H27 C30 1_555 1_555
H28 C30 1_555 1_555
Br2 P2 1_555 1_555
P2 N3 1_555 1_555
N3 C31 1_555 1_555
N4 P2 1_555 1_555
C31 C32 1_555 1_555
C32 N4 1_555 1_555
C33 C32 1_555 1_555
C34 C33 1_555 1_555
C35 C31 1_555 1_555
C36 C35 1_555 1_555
H29 C36 1_555 1_555
C37 C36 1_555 1_555
H30 C37 1_555 1_555
C38 C37 1_555 1_555
H31 C38 1_555 1_555
C39 C34 1_555 1_555
C40 C39 1_555 1_555
H32 C40 1_555 1_555
C41 C40 1_555 1_555
H33 C41 1_555 1_555
C42 C33 1_555 1_555
H34 C42 1_555 1_555
C43 N3 1_555 1_555
C44 C43 1_555 1_555
C45 C44 1_555 1_555
H35 C45 1_555 1_555
C46 C45 1_555 1_555
C47 C46 1_555 1_555
H36 C47 1_555 1_555
C48 C43 1_555 1_555
C49 C44 1_555 1_555
H37 C49 1_555 1_555
H38 C49 1_555 1_555
H39 C49 1_555 1_555
C50 C46 1_555 1_555
H40 C50 1_555 1_555
H41 C50 1_555 1_555
H42 C50 1_555 1_555
C51 C48 1_555 1_555
H43 C51 1_555 1_555
H44 C51 1_555 1_555
H45 C51 1_555 1_555
C52 N4 1_555 1_555
C53 C52 1_555 1_555
C54 C53 1_555 1_555
H46 C54 1_555 1_555
C55 C54 1_555 1_555
C56 C55 1_555 1_555
H47 C56 1_555 1_555
C57 C52 1_555 1_555
C58 C53 1_555 1_555
H48 C58 1_555 1_555
H49 C58 1_555 1_555
H50 C58 1_555 1_555
C59 C55 1_555 1_555
H51 C59 1_555 1_555
H52 C59 1_555 1_555
H53 C59 1_555 1_555
C60 C57 1_555 1_555
H54 C60 1_555 1_555
H55 C60 1_555 1_555
H56 C60 1_555 1_555
Br3 P3 1_555 1_555
P3 N5 1_555 1_555
N5 C61 1_555 1_555
N6 P3 1_555 1_555
C61 C62 1_555 1_555
C62 N6 1_555 1_555
C63 C62 1_555 1_555
C64 C63 1_555 1_555
C65 C61 1_555 1_555
C66 C65 1_555 1_555
H57 C66 1_555 1_555
C67 C66 1_555 1_555
H58 C67 1_555 1_555
C68 C67 1_555 1_555
H59 C68 1_555 1_555
C69 C64 1_555 1_555
C70 C69 1_555 1_555
H60 C70 1_555 1_555
C71 C70 1_555 1_555
H61 C71 1_555 1_555
C72 C63 1_555 1_555
H62 C72 1_555 1_555
C73 N5 1_555 1_555
C74 C73 1_555 1_555
C75 C74 1_555 1_555
H63 C75 1_555 1_555
C76 C75 1_555 1_555
C77 C76 1_555 1_555
H64 C77 1_555 1_555
C78 C73 1_555 1_555
C79 C74 1_555 1_555
H65 C79 1_555 1_555
H66 C79 1_555 1_555
H67 C79 1_555 1_555
C80 C76 1_555 1_555
H68 C80 1_555 1_555
H69 C80 1_555 1_555
H70 C80 1_555 1_555
C81 C78 1_555 1_555
H71 C81 1_555 1_555
H72 C81 1_555 1_555
H73 C81 1_555 1_555
C82 N6 1_555 1_555
C83 C82 1_555 1_555
C84 C83 1_555 1_555
H74 C84 1_555 1_555
C85 C84 1_555 1_555
C86 C85 1_555 1_555
H75 C86 1_555 1_555
C87 C82 1_555 1_555
C88 C83 1_555 1_555
H76 C88 1_555 1_555
H77 C88 1_555 1_555
H78 C88 1_555 1_555
C89 C85 1_555 1_555
H79 C89 1_555 1_555
H80 C89 1_555 1_555
H81 C89 1_555 1_555
C90 C87 1_555 1_555
H82 C90 1_555 1_555
H83 C90 1_555 1_555
H84 C90 1_555 1_555
C4 C5 1_555 1_555
C8 C9 1_555 1_555
C11 C12 1_555 1_555
C17 C18 1_555 1_555
C26 C27 1_555 1_555
C34 C35 1_555 1_555
C38 C39 1_555 1_555
C41 C42 1_555 1_555
C47 C48 1_555 1_555
C56 C57 1_555 1_555
C64 C65 1_555 1_555
C68 C69 1_555 1_555
C71 C72 1_555 1_555
C77 C78 1_555 1_555
C86 C87 1_555 1_555

#END
