
#######################################################################
#
#                 Cambridge Crystallographic Data Centre
#                                CCDC 
#
#######################################################################
#
# If this CIF has been generated from an entry in the Cambridge 
# Structural Database, then it will include bibliographic, chemical, 
# crystal, experimental, refinement or atomic coordinate data resulting 
# from the CCDC's data processing and validation procedures.
#
#######################################################################

data_FUMXOC
_chemical_formula_moiety         'C22 H40 B10 O2 Si2'
_chemical_name_systematic        
1,7-bis([(4-methoxyphenyl)(dimethyl)silyl]methyl)-1,7-dicarba-closo-dodecaborane
_symmetry_cell_setting           orthorhombic
_symmetry_space_group_name_H-M   'P n a 21'
_symmetry_Int_Tables_number      33
_space_group_name_Hall           'P 2c -2n'
loop_
_symmetry_equiv_pos_site_id
_symmetry_equiv_pos_as_xyz
1 x,y,z
2 -x,-y,1/2+z
3 1/2+x,1/2-y,z
4 1/2-x,1/2+y,1/2+z
_cell_length_a                   35.830(7)
_cell_length_b                   12.211(2)
_cell_length_c                   6.5889(13)
_cell_angle_alpha                90
_cell_angle_beta                 90
_cell_angle_gamma                90
_cell_volume                     2882.78
_exptl_crystal_colour            colorless
_exptl_crystal_description       Plate
_cell_formula_units_Z            4
loop_
_atom_site_label
_atom_site_type_symbol
_atom_site_fract_x
_atom_site_fract_y
_atom_site_fract_z
Si1 Si 0.16413(2) 0.16182(6) 0.41617(16)
Si2 Si 0.40279(2) 0.27306(6) 0.41735(13)
O1 O 0.04360(7) 0.47512(18) 0.7026(4)
O2 O 0.48488(6) 0.69353(17) 0.6151(4)
C1 C 0.01946(11) 0.4429(3) 0.8634(6)
H1 H 0.0089 0.3725 0.8332
H2 H -0.0002 0.4958 0.8781
H3 H 0.0334 0.4385 0.9876
C2 C 0.07127(9) 0.4023(2) 0.6494(5)
C3 C 0.09249(10) 0.4297(2) 0.4810(5)
H4 H 0.0883 0.4956 0.4141
C4 C 0.11980(9) 0.3594(2) 0.4125(6)
H5 H 0.1338 0.3790 0.2994
C5 C 0.12714(8) 0.2586(3) 0.5088(5)
C6 C 0.10558(9) 0.2355(3) 0.6783(5)
H6 H 0.1098 0.1702 0.7471
C7 C 0.07805(9) 0.3052(3) 0.7500(5)
H7 H 0.0643 0.2867 0.8647
C8 C 0.15936(10) 0.1421(3) 0.1362(5)
H8 H 0.1352 0.1118 0.1064
H9 H 0.1784 0.0929 0.0893
H10 H 0.1620 0.2114 0.0689
C9 C 0.15856(10) 0.0295(3) 0.5556(6)
H11 H 0.1659 0.0392 0.6945
H12 H 0.1740 -0.0254 0.4935
H13 H 0.1329 0.0069 0.5504
C10 C 0.20941(8) 0.2327(2) 0.4832(5)
H14 H 0.2087 0.3043 0.4195
H15 H 0.2090 0.2451 0.6286
C11 C 0.24740(8) 0.1830(2) 0.4334(5)
C12 C 0.32153(8) 0.2171(2) 0.4348(5)
C13 C 0.35214(8) 0.3001(2) 0.4840(5)
H16 H 0.3512 0.3131 0.6292
H17 H 0.3452 0.3683 0.4187
C14 C 0.41002(10) 0.2424(3) 0.1429(5)
H18 H 0.4013 0.1698 0.1138
H19 H 0.4361 0.2474 0.1112
H20 H 0.3964 0.2943 0.0623
C15 C 0.42214(9) 0.1621(3) 0.5817(5)
H21 H 0.4186 0.1811 0.7218
H22 H 0.4483 0.1535 0.5546
H23 H 0.4094 0.0946 0.5532
C16 C 0.42742(8) 0.4047(2) 0.4808(5)
C17 C 0.44902(9) 0.4617(2) 0.3374(5)
H24 H 0.4506 0.4348 0.2057
C18 C 0.46794(9) 0.5568(2) 0.3869(5)
H25 H 0.4823 0.5924 0.2898
C19 C 0.46535(8) 0.5985(2) 0.5815(5)
C20 C 0.44385(9) 0.5458(3) 0.7266(5)
H26 H 0.4417 0.5742 0.8570
C21 C 0.42559(9) 0.4500(3) 0.6735(5)
H27 H 0.4114 0.4144 0.7717
C22 C 0.48132(11) 0.7426(3) 0.8108(6)
H28 H 0.4939 0.8121 0.8116
H29 H 0.4923 0.6956 0.9111
H30 H 0.4554 0.7533 0.8415
B1 B 0.26136(10) 0.1690(3) 0.1845(6)
H31 H 0.2437 0.1899 0.0534
B2 B 0.28089(10) 0.2701(3) 0.3424(5)
H32 H 0.2763 0.3578 0.3138
B3 B 0.28339(9) 0.2180(3) 0.5922(5)
H33 H 0.2804 0.2715 0.7254
B4 B 0.26548(10) 0.0833(3) 0.5906(6)
H34 H 0.2505 0.0489 0.7217
B5 B 0.31455(10) 0.1063(3) 0.5923(6)
H35 H 0.3321 0.0873 0.7248
B6 B 0.33114(11) 0.0885(3) 0.3402(6)
H36 H 0.3594 0.0574 0.3096
B7 B 0.31021(10) 0.1919(3) 0.1859(5)
H37 H 0.3249 0.2280 0.0556
B8 B 0.29257(11) 0.0553(3) 0.1819(6)
H38 H 0.2956 0.0022 0.0480
B9 B 0.29521(10) 0.0024(3) 0.4343(7)
H39 H 0.2999 -0.0851 0.4645
B10 B 0.25239(11) 0.0521(3) 0.3377(6)
H40 H 0.2289 -0.0031 0.3052
loop_
_geom_bond_atom_site_label_1
_geom_bond_atom_site_label_2
_geom_bond_site_symmetry_1
_geom_bond_site_symmetry_2
Si1 C5 1_555 1_555
Si2 C13 1_555 1_555
O1 C1 1_555 1_555
O2 C19 1_555 1_555
C1 H1 1_555 1_555
H2 C1 1_555 1_555
H3 C1 1_555 1_555
C2 O1 1_555 1_555
C3 C2 1_555 1_555
H4 C3 1_555 1_555
C4 C3 1_555 1_555
H5 C4 1_555 1_555
C5 C4 1_555 1_555
C6 C5 1_555 1_555
H6 C6 1_555 1_555
C7 C2 1_555 1_555
H7 C7 1_555 1_555
C8 Si1 1_555 1_555
H8 C8 1_555 1_555
H9 C8 1_555 1_555
H10 C8 1_555 1_555
C9 Si1 1_555 1_555
H11 C9 1_555 1_555
H12 C9 1_555 1_555
H13 C9 1_555 1_555
C10 Si1 1_555 1_555
H14 C10 1_555 1_555
H15 C10 1_555 1_555
C11 C10 1_555 1_555
C12 C13 1_555 1_555
C13 H16 1_555 1_555
H17 C13 1_555 1_555
C14 Si2 1_555 1_555
H18 C14 1_555 1_555
H19 C14 1_555 1_555
H20 C14 1_555 1_555
C15 Si2 1_555 1_555
H21 C15 1_555 1_555
H22 C15 1_555 1_555
H23 C15 1_555 1_555
C16 Si2 1_555 1_555
C17 C16 1_555 1_555
H24 C17 1_555 1_555
C18 C17 1_555 1_555
H25 C18 1_555 1_555
C19 C18 1_555 1_555
C20 C19 1_555 1_555
H26 C20 1_555 1_555
C21 C16 1_555 1_555
H27 C21 1_555 1_555
C22 O2 1_555 1_555
H28 C22 1_555 1_555
H29 C22 1_555 1_555
H30 C22 1_555 1_555
B1 C11 1_555 1_555
H31 B1 1_555 1_555
B2 C11 1_555 1_555
H32 B2 1_555 1_555
B3 C11 1_555 1_555
H33 B3 1_555 1_555
B4 C11 1_555 1_555
H34 B4 1_555 1_555
B5 C12 1_555 1_555
H35 B5 1_555 1_555
B6 C12 1_555 1_555
H36 B6 1_555 1_555
B7 C12 1_555 1_555
H37 B7 1_555 1_555
B8 B1 1_555 1_555
H38 B8 1_555 1_555
B9 B4 1_555 1_555
H39 B9 1_555 1_555
B10 C11 1_555 1_555
H40 B10 1_555 1_555
C6 C7 1_555 1_555
C12 B2 1_555 1_555
C12 B3 1_555 1_555
C20 C21 1_555 1_555
B1 B2 1_555 1_555
B1 B7 1_555 1_555
B1 B10 1_555 1_555
B2 B3 1_555 1_555
B2 B7 1_555 1_555
B3 B4 1_555 1_555
B3 B5 1_555 1_555
B4 B5 1_555 1_555
B4 B10 1_555 1_555
B5 B6 1_555 1_555
B5 B9 1_555 1_555
B6 B7 1_555 1_555
B6 B8 1_555 1_555
B6 B9 1_555 1_555
B7 B8 1_555 1_555
B8 B9 1_555 1_555
B8 B10 1_555 1_555
B9 B10 1_555 1_555

#END
