
#######################################################################
#
#                 Cambridge Crystallographic Data Centre
#                                CCDC 
#
#######################################################################
#
# If this CIF has been generated from an entry in the Cambridge 
# Structural Database, then it will include bibliographic, chemical, 
# crystal, experimental, refinement or atomic coordinate data resulting 
# from the CCDC's data processing and validation procedures.
#
#######################################################################

data_FUNDUN02
_chemical_formula_moiety         'C6 H7 N3 O1 S1'
_chemical_name_systematic        
2-[(thiophen-2-yl)methylidene]hydrazine-1-carboxamide
_symmetry_cell_setting           monoclinic
_symmetry_space_group_name_H-M   'P 21/c'
_symmetry_Int_Tables_number      14
_space_group_name_Hall           '-P 2ybc'
loop_
_symmetry_equiv_pos_site_id
_symmetry_equiv_pos_as_xyz
1 x,y,z
2 -x,1/2+y,1/2-z
3 -x,-y,-z
4 x,1/2-y,1/2+z
_cell_length_a                   11.708(3)
_cell_length_b                   5.4645(9)
_cell_length_c                   12.461(3)
_cell_angle_alpha                90
_cell_angle_beta                 100.72(2)
_cell_angle_gamma                90
_cell_volume                     783.321
_exptl_crystal_colour            'light colorless'
_exptl_crystal_description       block
_cell_formula_units_Z            4
_exptl_crystal_recrystallization_method ethanol
loop_
_atom_site_label
_atom_site_type_symbol
_atom_site_fract_x
_atom_site_fract_y
_atom_site_fract_z
S1 S 0.66626(16) 0.1602(3) 0.81757(16)
O1 O 1.0020(4) 0.8864(7) 1.1371(3)
N1 N 0.9067(5) 0.5204(8) 1.1407(4)
H1 H 0.9474 0.5142 1.2057
H2 H 0.8341 0.5289 1.1444
C1 C 0.9369(5) 0.7214(9) 1.0891(5)
N2 N 0.8923(4) 0.7494(8) 0.9834(4)
H3 H 0.9073 0.8782 0.9489
C2 C 0.7937(5) 0.5870(10) 0.8272(5)
H4 H 0.8234 0.7183 0.7937
N3 N 0.8206(4) 0.5650(7) 0.9298(4)
C3 C 0.7189(5) 0.4164(9) 0.7612(5)
C4 C 0.6770(5) 0.4287(10) 0.6497(5)
H5 H 0.6958 0.5514 0.6043
C5 C 0.6013(7) 0.2292(16) 0.6138(7)
H6 H 0.561(6) 0.277(13) 0.532(6)
C6 C 0.5879(7) 0.0708(13) 0.6940(8)
H7 H 0.5419 -0.0690 0.6833
loop_
_geom_bond_atom_site_label_1
_geom_bond_atom_site_label_2
_geom_bond_site_symmetry_1
_geom_bond_site_symmetry_2
S1 C3 1_555 1_555
O1 C1 1_555 1_555
N1 H1 1_555 1_555
H2 N1 1_555 1_555
C1 N1 1_555 1_555
N2 C1 1_555 1_555
H3 N2 1_555 1_555
C2 H4 1_555 1_555
N3 N2 1_555 1_555
C3 C2 1_555 1_555
C4 C3 1_555 1_555
H5 C4 1_555 1_555
C5 C4 1_555 1_555
H6 C5 1_555 1_555
C6 S1 1_555 1_555
H7 C6 1_555 1_555
C2 N3 1_555 1_555
C5 C6 1_555 1_555

#END
