
#######################################################################
#
#                 Cambridge Crystallographic Data Centre
#                                CCDC 
#
#######################################################################
#
# If this CIF has been generated from an entry in the Cambridge 
# Structural Database, then it will include bibliographic, chemical, 
# crystal, experimental, refinement or atomic coordinate data resulting 
# from the CCDC's data processing and validation procedures.
#
#######################################################################

data_FUNJIJ
_chemical_formula_moiety         'C20 H22 O5'
_chemical_name_systematic        
(S,S)-9,10-Dihydroxy-4,6,6,9-tetramethyl-7,8,9,10-tetrahydro-6H,11H-isochromeno[4,3-c]chromen-11-one
_symmetry_cell_setting           orthorhombic
_symmetry_space_group_name_H-M   'P 21 21 2'
_symmetry_Int_Tables_number      18
_space_group_name_Hall           'P 2 2ab'
loop_
_symmetry_equiv_pos_site_id
_symmetry_equiv_pos_as_xyz
1 x,y,z
2 1/2+x,1/2-y,-z
3 1/2-x,1/2+y,-z
4 -x,-y,z
_cell_length_a                   13.7242(3)
_cell_length_b                   22.2290(5)
_cell_length_c                   5.57330(10)
_cell_angle_alpha                90
_cell_angle_beta                 90
_cell_angle_gamma                90
_cell_volume                     1700.28
_exptl_crystal_colour            colorless
_exptl_crystal_description       needle
_cell_formula_units_Z            4
loop_
_atom_site_label
_atom_site_type_symbol
_atom_site_fract_x
_atom_site_fract_y
_atom_site_fract_z
O1 O 0.73282(8) 0.36032(5) 0.5963(2)
O2 O 0.60825(9) 0.11152(5) 0.9035(2)
H1 H 0.5895 0.1382 0.9998
O3 O 0.57756(8) 0.18731(5) 0.3283(2)
H2 H 0.5995 0.2199 0.2741
O4 O 0.69891(8) 0.28301(5) 0.3680(2)
O5 O 0.50907(8) 0.32116(5) 1.0561(2)
C1 C 0.76120(13) 0.48771(7) 0.9880(4)
H3 H 0.8019 0.5221 1.0028
C2 C 0.77555(12) 0.44774(8) 0.8020(3)
H4 H 0.8256 0.4541 0.6869
C3 C 0.71461(12) 0.39789(7) 0.7881(3)
C4 C 0.67921(11) 0.30935(7) 0.5529(3)
C5 C 0.60514(11) 0.29329(7) 0.7258(3)
C6 C 0.55452(11) 0.23498(7) 0.7150(3)
C7 C 0.60019(11) 0.18277(7) 0.5782(3)
H5 H 0.6725 0.1849 0.5977
C8 C 0.56478(12) 0.12174(7) 0.6733(3)
C9 C 0.45376(12) 0.12248(7) 0.6880(3)
H6 H 0.4267 0.1297 0.5260
H7 H 0.4306 0.0826 0.7429
C10 C 0.41613(11) 0.17062(7) 0.8584(3)
H8 H 0.3463 0.1779 0.8248
H9 H 0.4216 0.1558 1.0253
C11 C 0.47079(11) 0.22894(7) 0.8366(3)
C12 C 0.60146(12) 0.07084(7) 0.5158(3)
H10 H 0.6724 0.0739 0.4987
H11 H 0.5709 0.0736 0.3572
H12 H 0.5848 0.0322 0.5897
C13 C 0.63982(11) 0.38687(7) 0.9506(3)
C14 C 0.58331(11) 0.33252(7) 0.9069(3)
C15 C 0.42844(11) 0.28442(7) 0.9594(3)
C16 C 0.36700(11) 0.27004(7) 1.1788(3)
H13 H 0.4049 0.2452 1.2901
H14 H 0.3084 0.2481 1.1293
H15 H 0.3480 0.3075 1.2586
C17 C 0.37131(11) 0.32361(7) 0.7843(3)
H16 H 0.3469 0.3593 0.8681
H17 H 0.3162 0.3006 0.7199
H18 H 0.4140 0.3360 0.6524
C18 C 0.62442(12) 0.42868(7) 1.1394(3)
C19 C 0.68720(13) 0.47781(7) 1.1540(3)
H19 H 0.6792 0.5056 1.2820
C20 C 0.54420(12) 0.42331(7) 1.3230(3)
H20 H 0.5525 0.4545 1.4458
H21 H 0.5471 0.3835 1.3984
H22 H 0.4809 0.4285 1.2441
loop_
_geom_bond_atom_site_label_1
_geom_bond_atom_site_label_2
_geom_bond_site_symmetry_1
_geom_bond_site_symmetry_2
O1 C3 1_555 1_555
O2 H1 1_555 1_555
O3 H2 1_555 1_555
O4 C4 1_555 1_555
O5 C14 1_555 1_555
C1 H3 1_555 1_555
C2 C1 1_555 1_555
H4 C2 1_555 1_555
C3 C2 1_555 1_555
C4 O1 1_555 1_555
C5 C4 1_555 1_555
C6 C5 1_555 1_555
C7 O3 1_555 1_555
H5 C7 1_555 1_555
C8 O2 1_555 1_555
C9 C8 1_555 1_555
H6 C9 1_555 1_555
H7 C9 1_555 1_555
C10 C9 1_555 1_555
H8 C10 1_555 1_555
H9 C10 1_555 1_555
C11 C6 1_555 1_555
C12 C8 1_555 1_555
H10 C12 1_555 1_555
H11 C12 1_555 1_555
H12 C12 1_555 1_555
C13 C3 1_555 1_555
C14 C5 1_555 1_555
C15 O5 1_555 1_555
C16 C15 1_555 1_555
H13 C16 1_555 1_555
H14 C16 1_555 1_555
H15 C16 1_555 1_555
C17 C15 1_555 1_555
H16 C17 1_555 1_555
H17 C17 1_555 1_555
H18 C17 1_555 1_555
C18 C13 1_555 1_555
C19 C1 1_555 1_555
H19 C19 1_555 1_555
C20 C18 1_555 1_555
H20 C20 1_555 1_555
H21 C20 1_555 1_555
H22 C20 1_555 1_555
C6 C7 1_555 1_555
C7 C8 1_555 1_555
C10 C11 1_555 1_555
C11 C15 1_555 1_555
C13 C14 1_555 1_555
C18 C19 1_555 1_555

#END
