
#######################################################################
#
#                 Cambridge Crystallographic Data Centre
#                                CCDC 
#
#######################################################################
#
# If this CIF has been generated from an entry in the Cambridge 
# Structural Database, then it will include bibliographic, chemical, 
# crystal, experimental, refinement or atomic coordinate data resulting 
# from the CCDC's data processing and validation procedures.
#
#######################################################################

data_FUNJUV
_chemical_compound_source        'Ainsliaea fragrans Champ'
_chemical_formula_moiety         'C20 H26 O4'
_chemical_name_systematic        
rac-4-Hydroxy-3-(3-hydroxy-3,7-dimethyloct-6-en-2-yl)-5-methyl-2H-chromen-2-one
_symmetry_cell_setting           triclinic
_symmetry_space_group_name_H-M   'P -1'
_symmetry_Int_Tables_number      2
_space_group_name_Hall           '-P 1'
loop_
_symmetry_equiv_pos_site_id
_symmetry_equiv_pos_as_xyz
1 x,y,z
2 -x,-y,-z
_cell_length_a                   7.2247(2)
_cell_length_b                   7.6916(2)
_cell_length_c                   16.5807(3)
_cell_angle_alpha                79.1020(10)
_cell_angle_beta                 82.8350(10)
_cell_angle_gamma                89.8210(10)
_cell_volume                     897.501
_exptl_crystal_colour            colorless
_exptl_crystal_description       needles
_chemical_melting_point          '457.1 K'
_cell_formula_units_Z            2
_exptl_crystal_recrystallization_method 'methanol /dichloromethane/water'
loop_
_atom_site_label
_atom_site_type_symbol
_atom_site_fract_x
_atom_site_fract_y
_atom_site_fract_z
C1 C 0.2500(3) 0.8087(3) 1.04254(11)
C2 C 0.2325(3) 0.9099(3) 1.10283(11)
H1 H 0.2224 0.8535 1.1580
C3 C 0.2294(3) 1.0914(3) 1.08440(12)
H2 H 0.2195 1.1557 1.1269
C4 C 0.2408(3) 1.1781(3) 1.00419(12)
H3 H 0.2366 1.3009 0.9911
C5 C 0.2587(2) 1.0780(2) 0.94308(11)
C6 C 0.2651(3) 0.8969(2) 0.95844(10)
C7 C 0.2520(6) 0.6106(3) 1.07016(13)
H4 H 0.2472 0.5821 1.1293
H5 H 0.3642 0.5654 1.0450
H6 H 0.1457 0.5582 1.0538
C8 C 0.3080(12) 1.1027(9) 0.7967(5)
O1 O 0.2682(16) 1.1739(9) 0.8667(4)
O2 O 0.285(3) 1.2082(15) 0.7319(5)
C9 C 0.3264(7) 0.9160(7) 0.8069(3)
C10 C 0.3159(7) 0.8167(8) 0.8853(4)
O3 O 0.3372(6) 0.6427(5) 0.9008(3)
H7 H 0.3571 0.6071 0.8569
C11 C 0.3882(5) 0.8504(4) 0.72608(16)
H8 H 0.3578 0.9457 0.6818
C12 C 0.5980(8) 0.8342(8) 0.7115(3)
H9 H 0.6367 0.7396 0.7521
H10 H 0.6566 0.9432 0.7159
H11 H 0.6337 0.8094 0.6571
C13 C 0.2912(7) 0.6853(7) 0.7123(3)
C14 C 0.0788(8) 0.6931(8) 0.7405(4)
H12 H 0.0148 0.6001 0.7232
H13 H 0.0329 0.8056 0.7162
H14 H 0.0573 0.6783 0.7998
O4 O 0.3924(6) 0.5406(6) 0.7633(3)
H15 H 0.3494 0.4438 0.7603
C15 C 0.333(3) 0.6576(15) 0.6222(5)
H16 H 0.4648 0.6355 0.6107
H17 H 0.2648 0.5527 0.6168
C16 C 0.2824(15) 0.8114(13) 0.5576(4)
H18 H 0.1562 0.8468 0.5735
H19 H 0.3655 0.9112 0.5558
C17 C 0.2953(16) 0.7666(19) 0.4729(7)
H20 H 0.4137 0.7600 0.4445
C18 C 0.1503(11) 0.7359(16) 0.4357(6)
C19 C -0.0534(12) 0.7405(14) 0.4695(7)
H21 H -0.0656 0.7965 0.5169
H22 H -0.1035 0.6218 0.4854
H23 H -0.1206 0.8062 0.4277
C20 C 0.1855(14) 0.6799(13) 0.3528(5)
H24 H 0.3148 0.6994 0.3312
H25 H 0.1100 0.7482 0.3151
H26 H 0.1539 0.5565 0.3593
C21? C 0.2560(19) 1.0929(15) 0.7951(8)
O5? O 0.276(3) 1.1760(15) 0.8608(7)
O6? O 0.317(5) 1.198(2) 0.7288(10)
C22? C 0.2504(10) 0.9051(11) 0.8083(5)
C23? C 0.2421(11) 0.8088(12) 0.8866(6)
O7? O 0.2313(12) 0.6344(9) 0.9025(5)
H27? H 0.2320 0.5981 0.8590
C24? C 0.2300(6) 0.8331(5) 0.7300(2)
H28? H 0.2506 0.9383 0.6859
C25? C 0.0277(14) 0.7828(15) 0.7294(7)
H29? H -0.0073 0.6822 0.7725
H30? H 0.0120 0.7538 0.6767
H31? H -0.0499 0.8806 0.7384
C26? C 0.3805(10) 0.7054(9) 0.7034(4)
C27? C 0.5757(15) 0.7656(19) 0.7037(8)
H32? H 0.5966 0.7692 0.7594
H33? H 0.5960 0.8817 0.6702
H34? H 0.6604 0.6847 0.6818
O8? O 0.3083(10) 0.5404(11) 0.7666(5)
H35? H 0.3253 0.4523 0.7457
C28? C 0.350(5) 0.652(2) 0.6205(8)
H36? H 0.4450 0.5688 0.6080
H37? H 0.2302 0.5900 0.6286
C29? C 0.352(2) 0.7982(19) 0.5459(8)
H38? H 0.2477 0.8745 0.5550
H39? H 0.4657 0.8689 0.5406
C30? C 0.343(3) 0.736(3) 0.4664(11)
H40? H 0.4558 0.6970 0.4434
C31? C 0.204(2) 0.726(3) 0.4231(11)
C32? C 0.007(2) 0.770(3) 0.4573(14)
H41? H -0.0753 0.6712 0.4598
H42? H -0.0345 0.8719 0.4217
H43? H 0.0082 0.7950 0.5118
C33? C 0.211(4) 0.680(4) 0.3385(12)
H44? H 0.3306 0.6324 0.3234
H45? H 0.1917 0.7846 0.2988
H46? H 0.1149 0.5934 0.3392
loop_
_geom_bond_atom_site_label_1
_geom_bond_atom_site_label_2
_geom_bond_site_symmetry_1
_geom_bond_site_symmetry_2
C1 C2 1_555 1_555
C2 H1 1_555 1_555
C3 C2 1_555 1_555
H2 C3 1_555 1_555
C4 C3 1_555 1_555
H3 C4 1_555 1_555
C5 C4 1_555 1_555
C6 C1 1_555 1_555
C7 C1 1_555 1_555
H4 C7 1_555 1_555
H5 C7 1_555 1_555
H6 C7 1_555 1_555
C8 O1 1_555 1_555
O1 C5 1_555 1_555
O2 C8 1_555 1_555
C9 C8 1_555 1_555
C10 C6 1_555 1_555
O3 C10 1_555 1_555
H7 O3 1_555 1_555
C11 C9 1_555 1_555
H8 C11 1_555 1_555
C12 C11 1_555 1_555
H9 C12 1_555 1_555
H10 C12 1_555 1_555
H11 C12 1_555 1_555
C13 C11 1_555 1_555
C14 C13 1_555 1_555
H12 C14 1_555 1_555
H13 C14 1_555 1_555
H14 C14 1_555 1_555
O4 C13 1_555 1_555
H15 O4 1_555 1_555
C15 C13 1_555 1_555
H16 C15 1_555 1_555
H17 C15 1_555 1_555
C16 C15 1_555 1_555
H18 C16 1_555 1_555
H19 C16 1_555 1_555
C17 C16 1_555 1_555
H20 C17 1_555 1_555
C18 C17 1_555 1_555
C19 C18 1_555 1_555
H21 C19 1_555 1_555
H22 C19 1_555 1_555
H23 C19 1_555 1_555
C20 C18 1_555 1_555
H24 C20 1_555 1_555
H25 C20 1_555 1_555
H26 C20 1_555 1_555
C5 C6 1_555 1_555
C9 C10 1_555 1_555

#END
