
#######################################################################
#
#                 Cambridge Crystallographic Data Centre
#                                CCDC 
#
#######################################################################
#
# If this CIF has been generated from an entry in the Cambridge 
# Structural Database, then it will include bibliographic, chemical, 
# crystal, experimental, refinement or atomic coordinate data resulting 
# from the CCDC's data processing and validation procedures.
#
#######################################################################

data_FUNLUX
_chemical_formula_moiety         'C30 H28 N3 1+,C2 H6 O1 S1,Br1 1-'
_chemical_name_systematic        
'3-(3-(9H-carbazol-9-yl)propyl)-1-(4-methylbenzyl)-1H-3,1-benzimidazol-3-ium bromide dimethyl sulfoxide solvate'
_symmetry_cell_setting           monoclinic
_symmetry_space_group_name_H-M   'P 21/c'
_symmetry_Int_Tables_number      14
_space_group_name_Hall           '-P 2ybc'
loop_
_symmetry_equiv_pos_site_id
_symmetry_equiv_pos_as_xyz
1 x,y,z
2 -x,1/2+y,1/2-z
3 -x,-y,-z
4 x,1/2-y,1/2+z
_cell_length_a                   14.9093(17)
_cell_length_b                   12.5673(14)
_cell_length_c                   17.2574(19)
_cell_angle_alpha                90
_cell_angle_beta                 112.6450(10)
_cell_angle_gamma                90
_cell_volume                     2984.24
_exptl_crystal_colour            colorless
_exptl_crystal_description       BLOCK
_cell_formula_units_Z            4
loop_
_atom_site_label
_atom_site_type_symbol
_atom_site_fract_x
_atom_site_fract_y
_atom_site_fract_z
N1 N 0.36400(16) 0.36220(17) 0.97016(15)
N2 N 0.36906(17) 0.46462(18) 1.07396(15)
N3 N 0.13467(18) 0.16308(19) 0.73394(16)
C1 C 0.3629(2) 0.3648(2) 1.04649(19)
H1 H 0.3585 0.3052 1.0767
C2 C 0.37482(19) 0.5312(2) 1.01198(18)
C3 C 0.3841(2) 0.6408(2) 1.0093(2)
H2 H 0.3853 0.6845 1.0532
C4 C 0.3913(2) 0.6809(3) 0.9380(2)
H3 H 0.3965 0.7541 0.9332
C5 C 0.3910(2) 0.6162(3) 0.8726(2)
H4 H 0.3981 0.6472 0.8263
C6 C 0.3806(2) 0.5069(2) 0.87430(19)
H5 H 0.3794 0.4633 0.8303
C7 C 0.37196(19) 0.4665(2) 0.94600(18)
C8 C 0.0580(2) 0.1149(2) 0.74663(19)
C9 C 0.0595(2) 0.0521(2) 0.8130(2)
H6 H 0.1177 0.0357 0.8571
C10 C -0.0285(3) 0.0143(3) 0.8119(2)
H7 H -0.0292 -0.0280 0.8559
C11 C -0.1151(3) 0.0386(3) 0.7462(3)
H8 H -0.1732 0.0125 0.7469
C12 C -0.1167(3) 0.1002(3) 0.6806(2)
H9 H -0.1754 0.1156 0.6369
C13 C -0.0297(2) 0.1403(2) 0.6790(2)
C14 C -0.0042(3) 0.2082(2) 0.6237(2)
C15 C -0.0570(3) 0.2583(3) 0.5481(2)
H10 H -0.1242 0.2509 0.5229
C16 C -0.0071(4) 0.3194(3) 0.5112(2)
H11 H -0.0418 0.3541 0.4609
C17 C 0.0921(4) 0.3304(3) 0.5468(3)
H12 H 0.1230 0.3714 0.5196
C18 C 0.1472(3) 0.2821(3) 0.6220(2)
H13 H 0.2143 0.2901 0.6463
C19 C 0.0975(3) 0.2206(2) 0.6598(2)
C20 C 0.2336(2) 0.1662(2) 0.79423(19)
H14 H 0.2773 0.1745 0.7651
H15 H 0.2491 0.0995 0.8249
C21 C 0.2484(2) 0.2576(2) 0.8555(2)
H16 H 0.2299 0.3237 0.8243
H17 H 0.2060 0.2476 0.8857
C22 C 0.3518(2) 0.2666(2) 0.91770(19)
H18 H 0.3687 0.2038 0.9532
H19 H 0.3952 0.2705 0.8879
C23 C 0.2767(2) 0.5441(2) 1.15218(19)
C24 C 0.1889(2) 0.5038(3) 1.1004(2)
H20 H 0.1864 0.4494 1.0631
C25 C 0.1033(3) 0.5436(3) 1.1031(2)
H21 H 0.0444 0.5144 1.0678
C26 C 0.1028(3) 0.6246(3) 1.1562(2)
C27 C 0.1909(3) 0.6643(3) 1.2062(3)
H22 H 0.1934 0.7195 1.2429
C28 C 0.2767(3) 0.6256(3) 1.2046(3)
H23 H 0.3354 0.6554 1.2397
C29 C 0.3718(2) 0.4974(2) 1.15652(18)
H24 H 0.4229 0.5498 1.1804
H25 H 0.3877 0.4362 1.1936
C30 C 0.0093(3) 0.6648(3) 1.1586(3)
H26 H 0.0070 0.6487 1.2122
H27 H -0.0443 0.6311 1.1150
H28 H 0.0053 0.7404 1.1501
O1 O 0.3157(3) 1.0448(3) -0.0066(2)
S1 S 0.35490(14) 0.94847(11) 0.04261(9)
C31 C 0.3077(5) 0.9462(5) 0.1206(4)
H29 H 0.3178 1.0142 0.1481
H30 H 0.3400 0.8920 0.1610
H31 H 0.2394 0.9311 0.0958
C32 C 0.4776(4) 0.9766(4) 0.1104(3)
H32 H 0.5178 0.9778 0.0783
H33 H 0.5005 0.9224 0.1528
H34 H 0.4805 1.0445 0.1367
Br1 Br 0.45209(3) 0.22244(3) 0.24280(2)
loop_
_geom_bond_atom_site_label_1
_geom_bond_atom_site_label_2
_geom_bond_site_symmetry_1
_geom_bond_site_symmetry_2
N1 C1 1_555 1_555
N2 C1 1_555 1_555
N3 C8 1_555 1_555
C1 H1 1_555 1_555
C2 N2 1_555 1_555
C3 C2 1_555 1_555
H2 C3 1_555 1_555
C4 C3 1_555 1_555
H3 C4 1_555 1_555
C5 C4 1_555 1_555
H4 C5 1_555 1_555
C6 C5 1_555 1_555
H5 C6 1_555 1_555
C7 N1 1_555 1_555
C8 C9 1_555 1_555
C9 H6 1_555 1_555
C10 C9 1_555 1_555
H7 C10 1_555 1_555
C11 C10 1_555 1_555
H8 C11 1_555 1_555
C12 C11 1_555 1_555
H9 C12 1_555 1_555
C13 C8 1_555 1_555
C14 C13 1_555 1_555
C15 C14 1_555 1_555
H10 C15 1_555 1_555
C16 C15 1_555 1_555
H11 C16 1_555 1_555
C17 C16 1_555 1_555
H12 C17 1_555 1_555
C18 C17 1_555 1_555
H13 C18 1_555 1_555
C19 N3 1_555 1_555
C20 N3 1_555 1_555
H14 C20 1_555 1_555
H15 C20 1_555 1_555
C21 C20 1_555 1_555
H16 C21 1_555 1_555
H17 C21 1_555 1_555
C22 N1 1_555 1_555
H18 C22 1_555 1_555
H19 C22 1_555 1_555
C23 C24 1_555 1_555
C24 H20 1_555 1_555
C25 C24 1_555 1_555
H21 C25 1_555 1_555
C26 C25 1_555 1_555
C27 C26 1_555 1_555
H22 C27 1_555 1_555
C28 C23 1_555 1_555
H23 C28 1_555 1_555
C29 N2 1_555 1_555
H24 C29 1_555 1_555
H25 C29 1_555 1_555
C30 C26 1_555 1_555
H26 C30 1_555 1_555
H27 C30 1_555 1_555
H28 C30 1_555 1_555
O1 S1 1_555 1_555
S1 C31 1_555 1_555
C31 H29 1_555 1_555
H30 C31 1_555 1_555
H31 C31 1_555 1_555
C32 S1 1_555 1_555
H32 C32 1_555 1_555
H33 C32 1_555 1_555
H34 C32 1_555 1_555
C2 C7 1_555 1_555
C6 C7 1_555 1_555
C12 C13 1_555 1_555
C14 C19 1_555 1_555
C18 C19 1_555 1_555
C21 C22 1_555 1_555
C23 C29 1_555 1_555
C27 C28 1_555 1_555

#END
