
#######################################################################
#
#                 Cambridge Crystallographic Data Centre
#                                CCDC 
#
#######################################################################
#
# If this CIF has been generated from an entry in the Cambridge 
# Structural Database, then it will include bibliographic, chemical, 
# crystal, experimental, refinement or atomic coordinate data resulting 
# from the CCDC's data processing and validation procedures.
#
#######################################################################

data_FUNMAE
_chemical_formula_moiety         'C28 H28 N3 O2 1+,2(H2 O1),Br1 1-'
_chemical_name_systematic        
'1-(4-(9H-carbazol-9-yl)butyl)-3-(2-(4-methoxyphenyl)-2-oxoethyl)-1H-imidazol-3-ium bromide dihydrate'
_symmetry_cell_setting           monoclinic
_symmetry_space_group_name_H-M   'P 21/c'
_symmetry_Int_Tables_number      14
_space_group_name_Hall           '-P 2ybc'
loop_
_symmetry_equiv_pos_site_id
_symmetry_equiv_pos_as_xyz
1 x,y,z
2 -x,1/2+y,1/2-z
3 -x,-y,-z
4 x,1/2-y,1/2+z
_cell_length_a                   17.043(3)
_cell_length_b                   12.876(3)
_cell_length_c                   12.422(2)
_cell_angle_alpha                90
_cell_angle_beta                 109.493(3)
_cell_angle_gamma                90
_cell_volume                     2569.71
_exptl_crystal_colour            colorless
_exptl_crystal_description       piece
_cell_formula_units_Z            4
loop_
_atom_site_label
_atom_site_type_symbol
_atom_site_fract_x
_atom_site_fract_y
_atom_site_fract_z
Br1 Br 0.33835(3) 0.49417(3) 0.83576(4)
O1 O 0.9030(2) 0.0569(3) -0.0129(3)
O2 O 0.6040(2) 0.1162(3) 0.1782(3)
C1 C 0.7656(3) 0.0346(4) 0.0008(4)
H1 H 0.7496 -0.0142 -0.0599
N1 N 0.6328(2) 0.2471(3) 0.3531(3)
C2 C 0.5770(3) 0.3227(3) 0.3371(4)
H2 H 0.5724 0.3814 0.2890
N2 N 0.5289(2) 0.3027(3) 0.3997(3)
N3 N 0.2041(2) 0.3333(3) 0.1608(3)
C3 C 0.8860(3) -0.0244(4) -0.0958(4)
H3 H 0.8670 -0.0862 -0.0657
H4 H 0.9368 -0.0410 -0.1127
H5 H 0.8426 -0.0017 -0.1659
C4 C 0.8441(3) 0.0792(3) 0.0347(4)
C5 C 0.7104(3) 0.0625(3) 0.0569(4)
H6 H 0.6566 0.0318 0.0343
C6 C 0.7325(3) 0.1346(3) 0.1458(4)
C7 C 0.6718(3) 0.1580(3) 0.2038(4)
C8 C 0.6957(3) 0.2400(3) 0.2977(4)
H7 H 0.7500 0.2218 0.3552
H8 H 0.7016 0.3082 0.2645
C9 C 0.4595(3) 0.3671(4) 0.4085(4)
H9 H 0.4628 0.4371 0.3773
H10 H 0.4648 0.3750 0.4899
C10 C 0.3753(3) 0.3187(4) 0.3436(4)
H11 H 0.3310 0.3594 0.3590
H12 H 0.3735 0.2473 0.3722
C11 C 0.3576(3) 0.3146(4) 0.2148(4)
H13 H 0.4008 0.2717 0.1991
H14 H 0.3613 0.3856 0.1865
C12 C 0.2716(3) 0.2692(4) 0.1497(4)
H15 H 0.2654 0.2629 0.0678
H16 H 0.2674 0.1987 0.1790
C13 C 0.1793(3) 0.4276(3) 0.1047(4)
C14 C 0.1132(3) 0.4687(3) 0.1351(4)
C15 C 0.0764(3) 0.5621(3) 0.0873(4)
H17 H 0.0324 0.5914 0.1081
C16 C 0.1054(3) 0.6114(4) 0.0085(4)
H18 H 0.0808 0.6749 -0.0253
C17 C 0.1548(3) 0.3138(3) 0.2283(4)
C18 C 0.1558(3) 0.2300(4) 0.2999(4)
H19 H 0.1950 0.1752 0.3104
C19 C 0.0981(3) 0.2300(4) 0.3543(4)
H20 H 0.0972 0.1731 0.4026
C20 C 0.0400(3) 0.3103(4) 0.3419(4)
H21 H 0.0016 0.3075 0.3824
C21 C 0.0386(3) 0.3935(4) 0.2709(4)
H22 H -0.0013 0.4474 0.2606
C22 C 0.0974(3) 0.3966(3) 0.2145(4)
C23 C 0.1702(3) 0.5685(4) -0.0216(4)
H23 H 0.1886 0.6035 -0.0762
C24 C 0.2087(3) 0.4769(3) 0.0252(4)
H24 H 0.2532 0.4487 0.0045
C25 C 0.5545(3) 0.2109(4) 0.4562(4)
H25 H 0.5308 0.1778 0.5065
C26 C 0.6195(3) 0.1761(3) 0.4274(4)
H26 H 0.6502 0.1142 0.4536
C27 C 0.8117(3) 0.1796(3) 0.1777(4)
H27 H 0.8271 0.2300 0.2368
C28 C 0.8675(3) 0.1518(3) 0.1249(4)
H28 H 0.9216 0.1813 0.1489
O3 O 0.5637(2) 0.5786(3) 0.3388(3)
H29 H 0.584(4) 0.580(4) 0.288(4)
H30 H 0.553(4) 0.5169(15) 0.343(5)
O4 O 0.4685(10) 0.4409(12) 0.0897(15)
H31 H 0.444(14) 0.428(16) 0.135(17)
H32 H 0.471(19) 0.5052(19) 0.09(2)
loop_
_geom_bond_atom_site_label_1
_geom_bond_atom_site_label_2
_geom_bond_site_symmetry_1
_geom_bond_site_symmetry_2
O1 C3 1_555 1_555
O2 C7 1_555 1_555
C1 H1 1_555 1_555
N1 C2 1_555 1_555
C2 H2 1_555 1_555
N2 C2 1_555 1_555
N3 C12 1_555 1_555
C3 H3 1_555 1_555
H4 C3 1_555 1_555
H5 C3 1_555 1_555
C4 O1 1_555 1_555
C5 C1 1_555 1_555
H6 C5 1_555 1_555
C6 C5 1_555 1_555
C7 C6 1_555 1_555
C8 N1 1_555 1_555
H7 C8 1_555 1_555
H8 C8 1_555 1_555
C9 N2 1_555 1_555
H9 C9 1_555 1_555
H10 C9 1_555 1_555
C10 C9 1_555 1_555
H11 C10 1_555 1_555
H12 C10 1_555 1_555
C11 C10 1_555 1_555
H13 C11 1_555 1_555
H14 C11 1_555 1_555
C12 C11 1_555 1_555
H15 C12 1_555 1_555
H16 C12 1_555 1_555
C13 N3 1_555 1_555
C14 C13 1_555 1_555
C15 C14 1_555 1_555
H17 C15 1_555 1_555
C16 C15 1_555 1_555
H18 C16 1_555 1_555
C17 N3 1_555 1_555
C18 C17 1_555 1_555
H19 C18 1_555 1_555
C19 C18 1_555 1_555
H20 C19 1_555 1_555
C20 C19 1_555 1_555
H21 C20 1_555 1_555
C21 C20 1_555 1_555
H22 C21 1_555 1_555
C22 C14 1_555 1_555
C23 C16 1_555 1_555
H23 C23 1_555 1_555
C24 C13 1_555 1_555
H24 C24 1_555 1_555
C25 N2 1_555 1_555
H25 C25 1_555 1_555
C26 N1 1_555 1_555
H26 C26 1_555 1_555
C27 C6 1_555 1_555
H27 C27 1_555 1_555
C28 C4 1_555 1_555
H28 C28 1_555 1_555
O3 H29 1_555 1_555
H30 O3 1_555 1_555
O4 H31 1_555 1_555
H32 O4 1_555 1_555
C1 C4 1_555 1_555
C7 C8 1_555 1_555
C17 C22 1_555 1_555
C21 C22 1_555 1_555
C23 C24 1_555 1_555
C25 C26 1_555 1_555
C27 C28 1_555 1_555

#END
