
#######################################################################
#
#                 Cambridge Crystallographic Data Centre
#                                CCDC 
#
#######################################################################
#
# If this CIF has been generated from an entry in the Cambridge 
# Structural Database, then it will include bibliographic, chemical, 
# crystal, experimental, refinement or atomic coordinate data resulting 
# from the CCDC's data processing and validation procedures.
#
#######################################################################

data_FUNREN
_chemical_formula_moiety         'C20 H30 N2 O6 P2'
_chemical_name_systematic        
"tetraethyl (2,2'-bipyridine-5,5'-diylbis(methylene))bis(phosphonate)"
_symmetry_cell_setting           triclinic
_symmetry_space_group_name_H-M   'P -1'
_symmetry_Int_Tables_number      2
_space_group_name_Hall           '-P 1'
loop_
_symmetry_equiv_pos_site_id
_symmetry_equiv_pos_as_xyz
1 x,y,z
2 -x,-y,-z
_cell_length_a                   5.7161(3)
_cell_length_b                   8.1335(4)
_cell_length_c                   12.5778(5)
_cell_angle_alpha                80.084(3)
_cell_angle_beta                 79.004(3)
_cell_angle_gamma                83.736(2)
_cell_volume                     563.693
_exptl_crystal_colour            colorless
_exptl_crystal_description       blocks
_cell_formula_units_Z            1
loop_
_atom_site_label
_atom_site_type_symbol
_atom_site_fract_x
_atom_site_fract_y
_atom_site_fract_z
C1 C 0.0315(2) 0.92213(15) 0.97484(11)
C2 C 0.2448(2) 0.82566(17) 0.98604(12)
H1 H 0.3548 0.8591 1.0245
C3 C 0.2934(2) 0.68009(17) 0.94005(12)
H2 H 0.4379 0.6126 0.9468
C4 C 0.1308(2) 0.63288(16) 0.88409(11)
C5 C -0.0746(2) 0.73943(17) 0.87482(12)
H3 H -0.1848 0.7103 0.8347
N1 N -0.1265(2) 0.88078(14) 0.91898(10)
C6 C 0.1699(2) 0.47220(16) 0.83562(11)
H4 H 0.0228 0.4545 0.8098
H5 H 0.1988 0.3773 0.8937
P1 P 0.41784(6) 0.47241(4) 0.72306(3)
O1 O 0.64599(17) 0.49818(13) 0.75268(9)
O2 O 0.41144(17) 0.30388(12) 0.67710(8)
C7 C 0.5016(3) 0.14536(18) 0.73417(14)
H6 H 0.4381 0.1356 0.8137
H7 H 0.6783 0.1386 0.7233
C8 C 0.4211(3) 0.0069(2) 0.68780(15)
H8 H 0.4795 -0.1016 0.7249
H9 H 0.2460 0.0145 0.6992
H10 H 0.4852 0.0175 0.6091
O3 O 0.35271(17) 0.60988(12) 0.62726(8)
C9 C 0.1553(2) 0.59693(18) 0.57098(12)
H11 H 0.0375 0.5241 0.6192
H12 H 0.2165 0.5470 0.5036
C10 C 0.0387(3) 0.7691(2) 0.54225(16)
H13 H -0.0940 0.7624 0.5044
H14 H -0.0222 0.8173 0.6094
H15 H 0.1562 0.8402 0.4941
C1A C -0.0315(2) 1.07787(15) 1.02516(11)
C2A C -0.2448(2) 1.17434(17) 1.01396(12)
H1A H -0.3548 1.1409 0.9755
C3A C -0.2934(2) 1.31991(17) 1.05995(12)
H2A H -0.4379 1.3874 1.0532
C4A C -0.1308(2) 1.36712(16) 1.11591(11)
C5A C 0.0746(2) 1.26057(17) 1.12518(12)
H3A H 0.1848 1.2897 1.1653
N1A N 0.1265(2) 1.11922(14) 1.08102(10)
C6A C -0.1699(2) 1.52780(16) 1.16438(11)
H4A H -0.0228 1.5455 1.1902
H5A H -0.1988 1.6227 1.1063
P1A P -0.41784(6) 1.52759(4) 1.27694(3)
O1A O -0.64599(17) 1.50182(13) 1.24732(9)
O2A O -0.41144(17) 1.69612(12) 1.32290(8)
C7A C -0.5016(3) 1.85464(18) 1.26583(14)
H6A H -0.4381 1.8644 1.1863
H7A H -0.6783 1.8614 1.2767
C8A C -0.4211(3) 1.9931(2) 1.31220(15)
H8A H -0.4795 2.1016 1.2751
H9A H -0.2460 1.9855 1.3008
H10A H -0.4852 1.9825 1.3909
O3A O -0.35271(17) 1.39012(12) 1.37274(8)
C9A C -0.1553(2) 1.40307(18) 1.42902(12)
H11A H -0.0375 1.4759 1.3808
H12A H -0.2165 1.4530 1.4964
C10A C -0.0387(3) 1.2309(2) 1.45775(16)
H13A H 0.0940 1.2376 1.4956
H14A H 0.0222 1.1827 1.3906
H15A H -0.1562 1.1598 1.5059
loop_
_geom_bond_atom_site_label_1
_geom_bond_atom_site_label_2
_geom_bond_site_symmetry_1
_geom_bond_site_symmetry_2
C1 C2 1_555 1_555
C2 H1 1_555 1_555
C3 C2 1_555 1_555
H2 C3 1_555 1_555
C4 C3 1_555 1_555
C5 C4 1_555 1_555
H3 C5 1_555 1_555
N1 C1 1_555 1_555
C6 C4 1_555 1_555
H4 C6 1_555 1_555
H5 C6 1_555 1_555
P1 C6 1_555 1_555
O1 P1 1_555 1_555
O2 P1 1_555 1_555
C7 O2 1_555 1_555
H6 C7 1_555 1_555
H7 C7 1_555 1_555
C8 C7 1_555 1_555
H8 C8 1_555 1_555
H9 C8 1_555 1_555
H10 C8 1_555 1_555
O3 P1 1_555 1_555
C9 O3 1_555 1_555
H11 C9 1_555 1_555
H12 C9 1_555 1_555
C10 C9 1_555 1_555
H13 C10 1_555 1_555
H14 C10 1_555 1_555
H15 C10 1_555 1_555
C1A C1 1_555 1_555
C2A C1A 1_555 1_555
H1A C2A 1_555 1_555
C3A C2A 1_555 1_555
H2A C3A 1_555 1_555
C4A C3A 1_555 1_555
C5A C4A 1_555 1_555
H3A C5A 1_555 1_555
N1A C1A 1_555 1_555
C6A C4A 1_555 1_555
H4A C6A 1_555 1_555
H5A C6A 1_555 1_555
P1A C6A 1_555 1_555
O1A P1A 1_555 1_555
O2A P1A 1_555 1_555
C7A O2A 1_555 1_555
H6A C7A 1_555 1_555
H7A C7A 1_555 1_555
C8A C7A 1_555 1_555
H8A C8A 1_555 1_555
H9A C8A 1_555 1_555
H10A C8A 1_555 1_555
O3A P1A 1_555 1_555
C9A O3A 1_555 1_555
H11A C9A 1_555 1_555
H12A C9A 1_555 1_555
C10A C9A 1_555 1_555
H13A C10A 1_555 1_555
H14A C10A 1_555 1_555
H15A C10A 1_555 1_555
C5 N1 1_555 1_555
C5A N1A 1_555 1_555

#END
