
#######################################################################
#
#                 Cambridge Crystallographic Data Centre
#                                CCDC 
#
#######################################################################
#
# If this CIF has been generated from an entry in the Cambridge 
# Structural Database, then it will include bibliographic, chemical, 
# crystal, experimental, refinement or atomic coordinate data resulting 
# from the CCDC's data processing and validation procedures.
#
#######################################################################

data_FUNSOY
_chemical_formula_moiety         'C16 H11 F6 N1 O1'
_chemical_name_systematic        
N-methyl-3-(trifluoromethyl)-N-(2-(trifluoromethyl)phenyl)benzamide
_symmetry_cell_setting           monoclinic
_symmetry_space_group_name_H-M   'P 21/c'
_symmetry_Int_Tables_number      14
_space_group_name_Hall           '-P 2ybc'
loop_
_symmetry_equiv_pos_site_id
_symmetry_equiv_pos_as_xyz
1 x,y,z
2 -x,1/2+y,1/2-z
3 -x,-y,-z
4 x,1/2-y,1/2+z
_cell_length_a                   9.0978(7)
_cell_length_b                   22.1735(15)
_cell_length_c                   7.9449(5)
_cell_angle_alpha                90
_cell_angle_beta                 101.946(4)
_cell_angle_gamma                90
_cell_volume                     1568.02
_exptl_crystal_colour            colorless
_exptl_crystal_description       PLATE
_cell_formula_units_Z            4
loop_
_atom_site_label
_atom_site_type_symbol
_atom_site_fract_x
_atom_site_fract_y
_atom_site_fract_z
F1 F 1.2266(3) 1.02422(8) 0.3365(2)
F2 F 1.09903(19) 0.95574(8) 0.41593(18)
F3 F 1.3307(2) 0.94338(11) 0.4417(2)
F4 F 0.5500(15) 0.8791(5) -0.2700(9)
F5 F 0.536(2) 0.7898(8) -0.2006(9)
F6 F 0.7214(12) 0.8196(7) -0.2701(14)
N1 N 1.16325(18) 0.83598(7) 0.2715(2)
O1 O 1.05170(19) 0.79096(7) 0.4661(2)
C1 C 0.8909(2) 0.84509(8) 0.2467(3)
C2 C 0.8049(3) 0.87858(10) 0.3374(3)
H1 H 0.8436 0.8884 0.4519
C3 C 0.6633(3) 0.89752(12) 0.2604(4)
H2 H 0.6073 0.9205 0.3223
C4 C 0.6041(3) 0.88263(12) 0.0927(4)
H3 H 0.5086 0.8959 0.0402
C5 C 0.6868(2) 0.84780(11) 0.0017(3)
C6 C 0.8302(2) 0.82908(10) 0.0784(3)
H4 H 0.8858 0.8058 0.0168
C7 C 1.1641(2) 0.87709(8) 0.1324(2)
C8 C 1.1877(2) 0.93878(9) 0.1611(2)
C9 C 1.1933(3) 0.97574(10) 0.0228(3)
H5 H 1.2080 1.0170 0.0405
C10 C 1.1775(3) 0.95272(13) -0.1408(3)
H6 H 1.1807 0.9783 -0.2327
C11 C 1.1574(3) 0.89254(12) -0.1680(3)
H7 H 1.1479 0.8769 -0.2782
C12 C 1.1510(2) 0.85484(10) -0.0325(3)
H8 H 1.1376 0.8137 -0.0521
C13 C 1.0414(2) 0.82216(9) 0.3367(3)
C14 C 1.3062(3) 0.80568(13) 0.3421(4)
H9 H 1.3287 0.8096 0.4651
H10 H 1.3849 0.8239 0.2958
H11 H 1.2984 0.7637 0.3115
C15 C 1.2119(3) 0.96509(11) 0.3368(3)
C16 C 0.6233(4) 0.83016(19) -0.1798(4)
F7? F 0.700(2) 0.8494(9) -0.2839(15)
F8? F 0.4795(8) 0.8371(7) -0.2274(13)
F9? F 0.6274(12) 0.7670(4) -0.1935(11)
loop_
_geom_bond_atom_site_label_1
_geom_bond_atom_site_label_2
_geom_bond_site_symmetry_1
_geom_bond_site_symmetry_2
F1 C15 1_555 1_555
F2 C15 1_555 1_555
F3 C15 1_555 1_555
F4 C16 1_555 1_555
F5 C16 1_555 1_555
F6 C16 1_555 1_555
N1 C7 1_555 1_555
O1 C13 1_555 1_555
C1 C2 1_555 1_555
C2 H1 1_555 1_555
C3 C2 1_555 1_555
H2 C3 1_555 1_555
C4 C3 1_555 1_555
H3 C4 1_555 1_555
C5 C4 1_555 1_555
C6 C1 1_555 1_555
H4 C6 1_555 1_555
C7 C8 1_555 1_555
C8 C9 1_555 1_555
C9 H5 1_555 1_555
C10 C9 1_555 1_555
H6 C10 1_555 1_555
C11 C10 1_555 1_555
H7 C11 1_555 1_555
C12 C7 1_555 1_555
H8 C12 1_555 1_555
C13 N1 1_555 1_555
C14 N1 1_555 1_555
H9 C14 1_555 1_555
H10 C14 1_555 1_555
H11 C14 1_555 1_555
C15 C8 1_555 1_555
C16 C5 1_555 1_555
C1 C13 1_555 1_555
C5 C6 1_555 1_555
C11 C12 1_555 1_555

#END
