
#######################################################################
#
#                 Cambridge Crystallographic Data Centre
#                                CCDC 
#
#######################################################################
#
# If this CIF has been generated from an entry in the Cambridge 
# Structural Database, then it will include bibliographic, chemical, 
# crystal, experimental, refinement or atomic coordinate data resulting 
# from the CCDC's data processing and validation procedures.
#
#######################################################################

data_FUNSEO
_chemical_formula_moiety         'C15 H12 F3 N1 O1'
_chemical_name_systematic        
N-methyl-N-(2-(trifluoromethyl)phenyl)benzamide
_symmetry_cell_setting           orthorhombic
_symmetry_space_group_name_H-M   'P b c a'
_symmetry_Int_Tables_number      61
_space_group_name_Hall           '-P 2ac 2ab'
loop_
_symmetry_equiv_pos_site_id
_symmetry_equiv_pos_as_xyz
1 x,y,z
2 1/2-x,-y,1/2+z
3 1/2+x,1/2-y,-z
4 -x,1/2+y,1/2-z
5 -x,-y,-z
6 1/2+x,y,1/2-z
7 1/2-x,1/2+y,z
8 x,1/2-y,1/2+z
_cell_length_a                   9.6555(7)
_cell_length_b                   13.7420(11)
_cell_length_c                   19.3339(15)
_cell_angle_alpha                90
_cell_angle_beta                 90
_cell_angle_gamma                90
_cell_volume                     2565.34
_exptl_crystal_colour            colorless
_exptl_crystal_description       plate
_cell_formula_units_Z            8
loop_
_atom_site_label
_atom_site_type_symbol
_atom_site_fract_x
_atom_site_fract_y
_atom_site_fract_z
F1 F 0.4413(10) 0.2276(9) 0.4403(6)
F2 F 0.5934(15) 0.1721(9) 0.5142(5)
F3 F 0.4770(14) 0.2964(11) 0.5421(7)
N1 N 0.33411(15) 0.23231(11) 0.65181(8)
O1 O 0.49722(14) 0.32005(10) 0.70724(8)
C1 C 0.56400(18) 0.16039(13) 0.67604(9)
C2 C 0.70293(18) 0.18368(14) 0.66740(10)
H1 H 0.7296 0.2495 0.6605
C3 C 0.8026(2) 0.11133(15) 0.66881(10)
H2 H 0.8972 0.1276 0.6619
C4 C 0.7654(2) 0.01529(14) 0.68031(9)
H3 H 0.8341 -0.0342 0.6815
C5 C 0.6268(2) -0.00807(14) 0.69004(9)
H4 H 0.6006 -0.0737 0.6984
C6 C 0.52662(19) 0.06408(13) 0.68756(9)
H5 H 0.4319 0.0476 0.6938
C7 C 0.29412(17) 0.15629(13) 0.60503(9)
C8 C 0.19010(18) 0.09305(13) 0.62624(10)
H6 H 0.1515 0.1001 0.6712
C9 C 0.1417(2) 0.02023(14) 0.58336(10)
H7 H 0.0698 -0.0219 0.5985
C10 C 0.1986(2) 0.00904(15) 0.51832(11)
H8 H 0.1671 -0.0416 0.4888
C11 C 0.3008(2) 0.07133(15) 0.49648(10)
H9 H 0.3399 0.0629 0.4518
C12 C 0.34843(18) 0.14667(13) 0.53850(9)
C13 C 0.46275(18) 0.24347(13) 0.67879(10)
C14 C 0.2302(2) 0.30884(13) 0.66235(10)
H10 H 0.2657 0.3568 0.6954
H11 H 0.1449 0.2799 0.6805
H12 H 0.2107 0.3410 0.6182
C15 C 0.4568(2) 0.21230(15) 0.50843(11)
F4? F 0.4351(12) 0.2226(10) 0.4411(7)
F5? F 0.572(2) 0.1846(16) 0.5149(7)
F6? F 0.437(5) 0.3055(12) 0.5266(19)
loop_
_geom_bond_atom_site_label_1
_geom_bond_atom_site_label_2
_geom_bond_site_symmetry_1
_geom_bond_site_symmetry_2
F1 C15 1_555 1_555
F2 C15 1_555 1_555
F3 C15 1_555 1_555
N1 C7 1_555 1_555
O1 C13 1_555 1_555
C1 C2 1_555 1_555
C2 H1 1_555 1_555
C3 C2 1_555 1_555
H2 C3 1_555 1_555
C4 C3 1_555 1_555
H3 C4 1_555 1_555
C5 C4 1_555 1_555
H4 C5 1_555 1_555
C6 C1 1_555 1_555
H5 C6 1_555 1_555
C7 C8 1_555 1_555
C8 H6 1_555 1_555
C9 C8 1_555 1_555
H7 C9 1_555 1_555
C10 C9 1_555 1_555
H8 C10 1_555 1_555
C11 C10 1_555 1_555
H9 C11 1_555 1_555
C12 C7 1_555 1_555
C13 N1 1_555 1_555
C14 N1 1_555 1_555
H10 C14 1_555 1_555
H11 C14 1_555 1_555
H12 C14 1_555 1_555
C15 C12 1_555 1_555
C1 C13 1_555 1_555
C5 C6 1_555 1_555
C11 C12 1_555 1_555

#END
