
#######################################################################
#
#                 Cambridge Crystallographic Data Centre
#                                CCDC 
#
#######################################################################
#
# If this CIF has been generated from an entry in the Cambridge 
# Structural Database, then it will include bibliographic, chemical, 
# crystal, experimental, refinement or atomic coordinate data resulting 
# from the CCDC's data processing and validation procedures.
#
#######################################################################

data_FUNTIT
_chemical_formula_moiety         'C16 H11 F6 N1 O1'
_chemical_name_systematic        
N-methyl-4-(trifluoromethyl)-N-(4-(trifluoromethyl)phenyl)benzamide
_symmetry_cell_setting           triclinic
_symmetry_space_group_name_H-M   'P -1'
_symmetry_Int_Tables_number      2
_space_group_name_Hall           '-P 1'
loop_
_symmetry_equiv_pos_site_id
_symmetry_equiv_pos_as_xyz
1 x,y,z
2 -x,-y,-z
_cell_length_a                   8.9977(4)
_cell_length_b                   10.8088(5)
_cell_length_c                   16.6720(9)
_cell_angle_alpha                105.291(2)
_cell_angle_beta                 98.901(2)
_cell_angle_gamma                102.688(2)
_cell_volume                     1486.36
_exptl_crystal_colour            colorless
_exptl_crystal_description       PLATE
_cell_formula_units_Z            4
loop_
_atom_site_label
_atom_site_type_symbol
_atom_site_fract_x
_atom_site_fract_y
_atom_site_fract_z
F1 F 0.33637(11) 0.23731(11) -0.45401(5)
F2 F 0.19446(14) 0.04185(10) -0.47057(6)
F3 F 0.08732(12) 0.19440(13) -0.48329(6)
F4 F 0.71779(11) -0.10793(8) -0.09260(6)
F5 F 0.86353(10) 0.03619(10) 0.02308(5)
F6 F 0.88012(10) 0.06675(9) -0.09764(6)
N1 N 0.20781(12) 0.31681(11) -0.08255(6)
O1 O 0.34402(11) 0.40115(9) 0.05462(5)
C1 C 0.44326(13) 0.24803(12) -0.03609(7)
C2 C 0.59366(14) 0.30003(12) 0.01621(8)
H1 H 0.6223 0.3870 0.0561
C3 C 0.70135(14) 0.22617(13) 0.01048(8)
H2 H 0.8042 0.2625 0.0454
C4 C 0.65726(14) 0.09800(12) -0.04712(7)
C5 C 0.50760(14) 0.04386(12) -0.09861(7)
H3 H 0.4783 -0.0442 -0.1371
C6 C 0.40080(14) 0.11953(12) -0.09344(7)
H4 H 0.2986 0.0835 -0.1291
C7 C 0.21011(14) 0.27841(12) -0.17132(7)
C8 C 0.33812(14) 0.33698(12) -0.19852(7)
H5 H 0.4256 0.4011 -0.1582
C9 C 0.33797(14) 0.30157(12) -0.28508(8)
H6 H 0.4260 0.3405 -0.3038
C10 C 0.20952(14) 0.20963(13) -0.34380(7)
C11 C 0.07998(15) 0.15164(14) -0.31680(8)
H7 H -0.0081 0.0888 -0.3574
C12 C 0.08018(14) 0.18596(13) -0.23060(8)
H8 H -0.0078 0.1467 -0.2119
C13 C 0.33001(14) 0.32975(12) -0.01860(7)
C14 C 0.08501(15) 0.37919(15) -0.05855(9)
H9 H 0.0747 0.3772 -0.0012
H10 H -0.0146 0.3302 -0.0995
H11 H 0.1129 0.4719 -0.0590
C15 C 0.20742(16) 0.17128(15) -0.43724(8)
C16 C 0.77791(15) 0.02233(13) -0.05363(8)
F7 F 0.7966(9) 0.2954(8) 0.4429(4)
F8 F 0.8380(9) 0.5041(9) 0.4749(5)
F9 F 0.8772(10) 0.4005(11) 0.3586(5)
F10 F 0.5602(5) 0.9995(5) 0.3129(3)
F11 F 0.3410(8) 1.0361(3) 0.2913(3)
F12 F 0.4499(12) 1.0376(9) 0.4186(5)
N2 N 0.14463(13) 0.32974(10) 0.26137(7)
O2 O -0.03037(13) 0.38822(11) 0.17582(7)
C17 C 0.19464(14) 0.55971(12) 0.25796(8)
C18 C 0.24625(14) 0.62036(12) 0.19968(8)
H12 H 0.2302 0.5692 0.1416
C19 C 0.32102(14) 0.75517(13) 0.22637(8)
H13 H 0.3573 0.7967 0.1868
C20 C 0.34313(15) 0.83019(12) 0.31137(8)
C21 C 0.29337(16) 0.77049(13) 0.37031(8)
H14 H 0.3094 0.8219 0.4283
C22 C 0.21973(16) 0.63450(13) 0.34342(8)
H15 H 0.1864 0.5924 0.3834
C23 C 0.30572(15) 0.34875(12) 0.29844(8)
C24 C 0.41686(16) 0.36319(13) 0.24986(8)
H16 H 0.3866 0.3635 0.1928
C25 C 0.57205(16) 0.37708(13) 0.28488(8)
H17 H 0.6486 0.3875 0.2520
C26 C 0.61503(15) 0.37563(13) 0.36821(8)
C27 C 0.50350(15) 0.36005(13) 0.41666(8)
H18 H 0.5335 0.3587 0.4736
C28 C 0.34910(15) 0.34652(13) 0.38180(8)
H19 H 0.2726 0.3357 0.4146
C29 C 0.09511(16) 0.41794(13) 0.22668(8)
C30 C 0.03816(17) 0.19636(13) 0.24264(10)
H20 H -0.0703 0.2009 0.2310
H21 H 0.0571 0.1639 0.2919
H22 H 0.0567 0.1353 0.1926
C31 C 0.78166(17) 0.39245(15) 0.40844(9)
C32 C 0.41707(18) 0.97668(14) 0.33693(9)
F13? F 0.8078(12) 0.2814(10) 0.4179(14)
F14? F 0.8316(10) 0.4842(10) 0.4832(4)
F15? F 0.8787(12) 0.4264(18) 0.3595(7)
F16? F 0.515(2) 1.0181(9) 0.3006(6)
F17? F 0.4721(16) 1.0314(14) 0.4195(7)
F18? F 0.2967(9) 1.0404(4) 0.3304(14)
loop_
_geom_bond_atom_site_label_1
_geom_bond_atom_site_label_2
_geom_bond_site_symmetry_1
_geom_bond_site_symmetry_2
F1 C15 1_555 1_555
F2 C15 1_555 1_555
F3 C15 1_555 1_555
F4 C16 1_555 1_555
F5 C16 1_555 1_555
F6 C16 1_555 1_555
N1 C7 1_555 1_555
O1 C13 1_555 1_555
C1 C2 1_555 1_555
C2 H1 1_555 1_555
C3 C2 1_555 1_555
H2 C3 1_555 1_555
C4 C3 1_555 1_555
C5 C4 1_555 1_555
H3 C5 1_555 1_555
C6 C1 1_555 1_555
H4 C6 1_555 1_555
C7 C8 1_555 1_555
C8 H5 1_555 1_555
C9 C8 1_555 1_555
H6 C9 1_555 1_555
C10 C9 1_555 1_555
C11 C10 1_555 1_555
H7 C11 1_555 1_555
C12 C7 1_555 1_555
H8 C12 1_555 1_555
C13 N1 1_555 1_555
C14 N1 1_555 1_555
H9 C14 1_555 1_555
H10 C14 1_555 1_555
H11 C14 1_555 1_555
C15 C10 1_555 1_555
C16 C4 1_555 1_555
F7 C31 1_555 1_555
F8 C31 1_555 1_555
F9 C31 1_555 1_555
F10 C32 1_555 1_555
F11 C32 1_555 1_555
F12 C32 1_555 1_555
N2 C23 1_555 1_555
O2 C29 1_555 1_555
C17 C18 1_555 1_555
C18 H12 1_555 1_555
C19 C18 1_555 1_555
H13 C19 1_555 1_555
C20 C19 1_555 1_555
C21 C20 1_555 1_555
H14 C21 1_555 1_555
C22 C17 1_555 1_555
H15 C22 1_555 1_555
C23 C24 1_555 1_555
C24 H16 1_555 1_555
C25 C24 1_555 1_555
H17 C25 1_555 1_555
C26 C25 1_555 1_555
C27 C26 1_555 1_555
H18 C27 1_555 1_555
C28 C23 1_555 1_555
H19 C28 1_555 1_555
C29 N2 1_555 1_555
C30 N2 1_555 1_555
H20 C30 1_555 1_555
H21 C30 1_555 1_555
H22 C30 1_555 1_555
C31 C26 1_555 1_555
C32 C20 1_555 1_555
C1 C13 1_555 1_555
C5 C6 1_555 1_555
C11 C12 1_555 1_555
C17 C29 1_555 1_555
C21 C22 1_555 1_555
C27 C28 1_555 1_555

#END
