
#######################################################################
#
#                 Cambridge Crystallographic Data Centre
#                                CCDC 
#
#######################################################################
#
# If this CIF has been generated from an entry in the Cambridge 
# Structural Database, then it will include bibliographic, chemical, 
# crystal, experimental, refinement or atomic coordinate data resulting 
# from the CCDC's data processing and validation procedures.
#
#######################################################################

data_FUNTAL
_chemical_formula_moiety         'C16 H11 F6 N1 O1'
_chemical_name_systematic        
N-methyl-4-(trifluoromethyl)-N-(3-(trifluoromethyl)phenyl)benzamide
_symmetry_cell_setting           monoclinic
_symmetry_space_group_name_H-M   'P 21/c'
_symmetry_Int_Tables_number      14
_space_group_name_Hall           '-P 2ybc'
loop_
_symmetry_equiv_pos_site_id
_symmetry_equiv_pos_as_xyz
1 x,y,z
2 -x,1/2+y,1/2-z
3 -x,-y,-z
4 x,1/2-y,1/2+z
_cell_length_a                   11.2958(5)
_cell_length_b                   14.0246(4)
_cell_length_c                   10.4868(3)
_cell_angle_alpha                90
_cell_angle_beta                 115.258(4)
_cell_angle_gamma                90
_cell_volume                     1502.48
_exptl_crystal_colour            colorless
_exptl_crystal_description       BLOCK
_cell_formula_units_Z            4
loop_
_atom_site_label
_atom_site_type_symbol
_atom_site_fract_x
_atom_site_fract_y
_atom_site_fract_z
F1 F 0.0796(2) 0.45044(12) -0.33040(17)
F2 F 0.25422(16) 0.38258(18) -0.30812(19)
F3 F 0.1241(2) 0.31267(14) -0.24063(15)
F4 F 0.98971(19) 0.2855(2) 0.4454(2)
F5 F 0.88196(17) 0.16645(10) 0.3237(3)
F6 F 0.88754(17) 0.29536(17) 0.22174(19)
N1 N 0.30145(13) 0.40617(10) 0.26879(15)
O1 O 0.41176(13) 0.36857(10) 0.50019(13)
C1 C 0.52991(16) 0.35398(12) 0.36187(18)
C2 C 0.65031(17) 0.38792(12) 0.45768(18)
H1 H 0.6545 0.4317 0.5286
C3 C 0.76470(17) 0.35867(12) 0.45113(19)
H2 H 0.8469 0.3826 0.5166
C4 C 0.75793(17) 0.29409(12) 0.34802(18)
C5 C 0.63788(17) 0.26063(12) 0.25070(18)
H3 H 0.6340 0.2172 0.1795
C6 C 0.52361(17) 0.29028(12) 0.25692(18)
H4 H 0.4413 0.2674 0.1901
C7 C 0.30891(16) 0.44486(12) 0.14594(18)
C8 C 0.24026(16) 0.40200(12) 0.01552(19)
H5 H 0.1888 0.3467 0.0072
C9 C 0.24779(16) 0.44087(12) -0.10225(18)
C10 C 0.32124(18) 0.52225(13) -0.09102(19)
H6 H 0.3260 0.5484 -0.1723
C11 C 0.38730(18) 0.56512(13) 0.0386(2)
H7 H 0.4367 0.6214 0.0464
C12 C 0.38199(17) 0.52641(12) 0.15763(19)
H8 H 0.4283 0.5557 0.2470
C13 C 0.40988(17) 0.37834(12) 0.38342(18)
C14 C 0.17628(17) 0.41702(14) 0.2788(2)
H9 H 0.1842 0.3905 0.3685
H10 H 0.1075 0.3830 0.2006
H11 H 0.1537 0.4848 0.2740
C15 C 0.17777(18) 0.39592(14) -0.2436(2)
C16 C 0.87920(19) 0.26082(14) 0.3379(2)
F7? F 0.158(2) 0.4442(14) -0.351(2)
F8? F 0.2538(19) 0.3205(15) -0.259(2)
F9? F 0.071(2) 0.3610(18) -0.265(2)
F10? F 0.967(3) 0.318(2) 0.409(3)
F11? F 0.9243(16) 0.1835(16) 0.423(3)
F12? F 0.8711(18) 0.243(2) 0.230(3)
loop_
_geom_bond_atom_site_label_1
_geom_bond_atom_site_label_2
_geom_bond_site_symmetry_1
_geom_bond_site_symmetry_2
F1 C15 1_555 1_555
F2 C15 1_555 1_555
F3 C15 1_555 1_555
F4 C16 1_555 1_555
F5 C16 1_555 1_555
F6 C16 1_555 1_555
N1 C7 1_555 1_555
O1 C13 1_555 1_555
C1 C2 1_555 1_555
C2 H1 1_555 1_555
C3 C2 1_555 1_555
H2 C3 1_555 1_555
C4 C3 1_555 1_555
C5 C4 1_555 1_555
H3 C5 1_555 1_555
C6 C1 1_555 1_555
H4 C6 1_555 1_555
C7 C8 1_555 1_555
C8 H5 1_555 1_555
C9 C8 1_555 1_555
C10 C9 1_555 1_555
H6 C10 1_555 1_555
C11 C10 1_555 1_555
H7 C11 1_555 1_555
C12 C7 1_555 1_555
H8 C12 1_555 1_555
C13 N1 1_555 1_555
C14 N1 1_555 1_555
H9 C14 1_555 1_555
H10 C14 1_555 1_555
H11 C14 1_555 1_555
C15 C9 1_555 1_555
C16 C4 1_555 1_555
C1 C13 1_555 1_555
C5 C6 1_555 1_555
C11 C12 1_555 1_555

#END
