
#######################################################################
#
#                 Cambridge Crystallographic Data Centre
#                                CCDC 
#
#######################################################################
#
# If this CIF has been generated from an entry in the Cambridge 
# Structural Database, then it will include bibliographic, chemical, 
# crystal, experimental, refinement or atomic coordinate data resulting 
# from the CCDC's data processing and validation procedures.
#
#######################################################################

data_FUNVIV
_chemical_formula_moiety         'C18 H16 Br1 N1 O4'
_chemical_name_systematic        
2-(1-(3-Bromophenyl)-2-nitroethyl)-2-ethyl-1-benzofuran-3(2H)-one
_symmetry_cell_setting           monoclinic
_symmetry_space_group_name_H-M   'P 21'
_symmetry_Int_Tables_number      4
_space_group_name_Hall           'P 2yb'
loop_
_symmetry_equiv_pos_site_id
_symmetry_equiv_pos_as_xyz
1 x,y,z
2 -x,1/2+y,-z
_cell_length_a                   9.528(3)
_cell_length_b                   7.509(2)
_cell_length_c                   11.706(4)
_cell_angle_alpha                90
_cell_angle_beta                 99.729(7)
_cell_angle_gamma                90
_cell_volume                     825.469
_exptl_crystal_colour            colorless
_exptl_crystal_description       prism
_cell_formula_units_Z            2
loop_
_atom_site_label
_atom_site_type_symbol
_atom_site_fract_x
_atom_site_fract_y
_atom_site_fract_z
Br1 Br -0.09782(2) 0.28668(4) -0.06925(2)
O1 O 0.41338(15) 0.2688(3) 0.17556(12)
O2 O 0.56480(16) 0.3052(4) 0.47305(12)
O3 O 0.1355(2) 0.0455(3) 0.47307(16)
O4 O 0.12000(19) -0.1740(2) 0.35235(16)
N1 N 0.1692(2) -0.0313(3) 0.39010(18)
C1 C 0.5369(3) 0.1733(3) 0.1855(2)
C2 C 0.6163(3) 0.1703(3) 0.2963(2)
C3 C 0.7449(3) 0.0765(4) 0.3185(2)
H1 H 0.8011 0.0748 0.3938
C4 C 0.7870(3) -0.0127(3) 0.2282(3)
H2 H 0.8729 -0.0795 0.2416
C5 C 0.7076(3) -0.0078(4) 0.1180(3)
H3 H 0.7410 -0.0703 0.0572
C6 C 0.5807(3) 0.0856(4) 0.0936(2)
H4 H 0.5265 0.0894 0.0176
C7 C 0.5374(2) 0.2727(5) 0.36968(17)
C8 C 0.4012(2) 0.3372(3) 0.29099(19)
C9 C 0.2706(2) 0.2541(3) 0.33144(18)
H5 H 0.2743 0.2919 0.4138
C10 C 0.2816(3) 0.0508(3) 0.3326(2)
H6 H 0.2717 0.0065 0.2520
H7 H 0.3766 0.0148 0.3742
C11 C 0.3915(3) 0.5400(3) 0.2858(2)
H8 H 0.3130 0.5740 0.2229
H9 H 0.3668 0.5840 0.3596
C12 C 0.5267(3) 0.6321(3) 0.2652(2)
H10 H 0.5082 0.7596 0.2526
H11 H 0.5579 0.5807 0.1968
H12 H 0.6013 0.6157 0.3331
C13 C 0.1283(2) 0.3179(3) 0.26541(18)
C14 C 0.0856(2) 0.2775(5) 0.14829(16)
H13 H 0.1454 0.2086 0.1082
C15 C -0.0442(3) 0.3384(3) 0.09109(19)
C16 C -0.1342(3) 0.4381(3) 0.1464(2)
H14 H -0.2230 0.4788 0.1055
C17 C -0.0926(3) 0.4775(3) 0.2625(2)
H15 H -0.1531 0.5458 0.3022
C18 C 0.0381(3) 0.4172(3) 0.3216(2)
H16 H 0.0656 0.4445 0.4015
loop_
_geom_bond_atom_site_label_1
_geom_bond_atom_site_label_2
_geom_bond_site_symmetry_1
_geom_bond_site_symmetry_2
Br1 C15 1_555 1_555
O1 C1 1_555 1_555
O2 C7 1_555 1_555
O3 N1 1_555 1_555
O4 N1 1_555 1_555
N1 C10 1_555 1_555
C1 C2 1_555 1_555
C2 C3 1_555 1_555
C3 H1 1_555 1_555
C4 C3 1_555 1_555
H2 C4 1_555 1_555
C5 C4 1_555 1_555
H3 C5 1_555 1_555
C6 C1 1_555 1_555
H4 C6 1_555 1_555
C7 C2 1_555 1_555
C8 O1 1_555 1_555
C9 C8 1_555 1_555
H5 C9 1_555 1_555
C10 C9 1_555 1_555
H6 C10 1_555 1_555
H7 C10 1_555 1_555
C11 C8 1_555 1_555
H8 C11 1_555 1_555
H9 C11 1_555 1_555
C12 C11 1_555 1_555
H10 C12 1_555 1_555
H11 C12 1_555 1_555
H12 C12 1_555 1_555
C13 C9 1_555 1_555
C14 C13 1_555 1_555
H13 C14 1_555 1_555
C15 C14 1_555 1_555
C16 C15 1_555 1_555
H14 C16 1_555 1_555
C17 C16 1_555 1_555
H15 C17 1_555 1_555
C18 C13 1_555 1_555
H16 C18 1_555 1_555
C5 C6 1_555 1_555
C7 C8 1_555 1_555
C17 C18 1_555 1_555

#END
