
#######################################################################
#
#                 Cambridge Crystallographic Data Centre
#                                CCDC 
#
#######################################################################
#
# If this CIF has been generated from an entry in the Cambridge 
# Structural Database, then it will include bibliographic, chemical, 
# crystal, experimental, refinement or atomic coordinate data resulting 
# from the CCDC's data processing and validation procedures.
#
#######################################################################

data_FUNYIY
_chemical_formula_moiety         'C39 H31 N9 O3 S2'
_chemical_name_systematic        
'4-((2-Thienylcarbonyl)amino)-3-(8,14,20-trimethyl-2,8,14,20,25,26,27,28-octa-azapentacyclo[19.3.1.1^3,7^.1^9,13^.1^15,19^]octacosa-1(25),3(28),4,6,9(27),10,12,15(26),16,18,21,23-dodecaen-2-yl)phenyl thiophene-2-carboxylate'
_symmetry_cell_setting           triclinic
_symmetry_space_group_name_H-M   'P -1'
_symmetry_Int_Tables_number      2
_space_group_name_Hall           '-P 1'
loop_
_symmetry_equiv_pos_site_id
_symmetry_equiv_pos_as_xyz
1 x,y,z
2 -x,-y,-z
_cell_length_a                   10.219(2)
_cell_length_b                   13.065(3)
_cell_length_c                   14.060(3)
_cell_angle_alpha                91.882(3)
_cell_angle_beta                 103.377(4)
_cell_angle_gamma                102.778(3)
_cell_volume                     1774.01
_exptl_crystal_colour            colorless
_exptl_crystal_description       block
_cell_formula_units_Z            2
loop_
_atom_site_label
_atom_site_type_symbol
_atom_site_fract_x
_atom_site_fract_y
_atom_site_fract_z
S1 S 0.91771(11) -0.02004(8) 0.80344(7)
S2 S 0.89826(9) 0.36601(7) 0.03796(6)
O1 O 0.9779(2) 0.04979(17) 0.61411(15)
O2 O 0.82727(19) 0.27830(15) 0.21135(13)
O3 O 0.5943(2) 0.23586(18) 0.15421(15)
N1 N 0.6753(2) 0.30147(16) 0.51268(15)
N2 N 0.6493(2) 0.42431(16) 0.62229(15)
N3 N 0.5987(2) 0.54315(18) 0.72504(16)
N4 N 0.4143(3) 0.43045(19) 0.77159(16)
N5 N 0.2446(3) 0.3061(2) 0.82249(19)
N6 N 0.3345(2) 0.17957(18) 0.76010(16)
N7 N 0.4261(2) 0.06380(18) 0.68516(18)
N8 N 0.5434(2) 0.18135(16) 0.59373(16)
N9 N 0.8223(2) 0.15398(17) 0.58725(16)
H1 H 0.7649 0.1786 0.6146
C1 C 0.7374(3) 0.38893(19) 0.58090(18)
C2 C 0.8786(3) 0.4344(2) 0.6024(2)
H2 H 0.9394 0.4066 0.5726
C3 C 0.9255(3) 0.5215(2) 0.6689(2)
H3 H 1.0214 0.5547 0.6860
C4 C 0.8371(3) 0.5624(2) 0.7119(2)
H4 H 0.8700 0.6235 0.7571
C5 C 0.6970(3) 0.5100(2) 0.68600(18)
C6 C 0.6433(4) 0.6151(3) 0.8151(2)
H5 H 0.6955 0.6834 0.8020
H6 H 0.7023 0.5853 0.8666
H7 H 0.5619 0.6247 0.8367
C7 C 0.4605(3) 0.4800(2) 0.69980(19)
C8 C 0.3813(3) 0.4712(2) 0.6040(2)
H8 H 0.4166 0.5089 0.5552
C9 C 0.2505(3) 0.4064(2) 0.5817(2)
H9 H 0.1936 0.3993 0.5169
C10 C 0.2024(3) 0.3518(2) 0.6538(2)
H10 H 0.1130 0.3056 0.6396
C11 C 0.2878(3) 0.3663(2) 0.7469(2)
C12 C 0.2321(5) 0.3662(3) 0.9080(3)
H11 H 0.1652 0.3226 0.9388
H12 H 0.2003 0.4293 0.8873
H13 H 0.3224 0.3871 0.9552
C13 C 0.2880(3) 0.2124(2) 0.8346(2)
C14 C 0.2857(4) 0.1573(3) 0.9179(2)
H14 H 0.2517 0.1810 0.9699
C15 C 0.3351(4) 0.0667(3) 0.9213(2)
H15 H 0.3368 0.0283 0.9776
C16 C 0.3816(3) 0.0310(3) 0.8454(2)
H16 H 0.4138 -0.0319 0.8476
C17 C 0.3795(3) 0.0912(2) 0.7647(2)
C18 C 0.4961(3) -0.0219(2) 0.6859(3)
H17 H 0.4327 -0.0882 0.6921
H18 H 0.5775 -0.0080 0.7415
H19 H 0.5251 -0.0272 0.6245
C19 C 0.4215(3) 0.1277(2) 0.6053(2)
C20 C 0.2966(3) 0.1304(2) 0.5418(2)
H20 H 0.2115 0.0929 0.5531
C21 C 0.2985(3) 0.1883(2) 0.4624(2)
H21 H 0.2144 0.1895 0.4167
C22 C 0.4241(3) 0.2453(2) 0.44889(19)
H22 H 0.4282 0.2861 0.3945
C23 C 0.5421(3) 0.24022(19) 0.51752(18)
C24 C 0.7521(3) 0.2576(2) 0.45522(19)
C25 C 0.8251(3) 0.1823(2) 0.49219(19)
C26 C 0.8956(3) 0.1398(2) 0.43264(19)
H23 H 0.9469 0.0897 0.4566
C27 C 0.8910(3) 0.1705(2) 0.3389(2)
H24 H 0.9376 0.1402 0.2983
C28 C 0.8193(3) 0.2447(2) 0.30423(19)
C29 C 0.7504(3) 0.2892(2) 0.36198(19)
H25 H 0.7021 0.3411 0.3379
C30 C 0.8976(3) 0.0929(2) 0.6427(2)
C31 C 0.8738(3) 0.0823(2) 0.7417(2)
C32 C 0.8201(4) 0.1416(3) 0.7957(2)
H26 H 0.7892 0.2023 0.7740
C33 C 0.8146(4) 0.1038(3) 0.8886(2)
H27 H 0.7806 0.1364 0.9362
C34 C 0.8627(4) 0.0170(3) 0.9012(2)
H28 H 0.8659 -0.0200 0.9585
C35 C 0.7077(3) 0.2716(2) 0.1413(2)
C36 C 0.7357(3) 0.3101(2) 0.0501(2)
C37 C 0.6361(3) 0.3084(3) -0.0357(2)
H29 H 0.5394 0.2827 -0.0432
C38 C 0.6977(4) 0.3502(3) -0.1110(2)
H30 H 0.6467 0.3530 -0.1761
C39 C 0.8349(4) 0.3853(3) -0.0808(2)
H31 H 0.8911 0.4178 -0.1217
loop_
_geom_bond_atom_site_label_1
_geom_bond_atom_site_label_2
_geom_bond_site_symmetry_1
_geom_bond_site_symmetry_2
S1 C31 1_555 1_555
S2 C36 1_555 1_555
O1 C30 1_555 1_555
O2 C28 1_555 1_555
O3 C35 1_555 1_555
N1 C1 1_555 1_555
N2 C1 1_555 1_555
N3 C5 1_555 1_555
N4 C7 1_555 1_555
N5 C11 1_555 1_555
N6 C13 1_555 1_555
N7 C17 1_555 1_555
N8 C19 1_555 1_555
N9 H1 1_555 1_555
C1 C2 1_555 1_555
C2 H2 1_555 1_555
C3 C2 1_555 1_555
H3 C3 1_555 1_555
C4 C3 1_555 1_555
H4 C4 1_555 1_555
C5 N2 1_555 1_555
C6 N3 1_555 1_555
H5 C6 1_555 1_555
H6 C6 1_555 1_555
H7 C6 1_555 1_555
C7 N3 1_555 1_555
C8 C7 1_555 1_555
H8 C8 1_555 1_555
C9 C8 1_555 1_555
H9 C9 1_555 1_555
C10 C9 1_555 1_555
H10 C10 1_555 1_555
C11 N4 1_555 1_555
C12 N5 1_555 1_555
H11 C12 1_555 1_555
H12 C12 1_555 1_555
H13 C12 1_555 1_555
C13 N5 1_555 1_555
C14 C13 1_555 1_555
H14 C14 1_555 1_555
C15 C14 1_555 1_555
H15 C15 1_555 1_555
C16 C15 1_555 1_555
H16 C16 1_555 1_555
C17 N6 1_555 1_555
C18 N7 1_555 1_555
H17 C18 1_555 1_555
H18 C18 1_555 1_555
H19 C18 1_555 1_555
C19 N7 1_555 1_555
C20 C19 1_555 1_555
H20 C20 1_555 1_555
C21 C20 1_555 1_555
H21 C21 1_555 1_555
C22 C21 1_555 1_555
H22 C22 1_555 1_555
C23 N1 1_555 1_555
C24 N1 1_555 1_555
C25 N9 1_555 1_555
C26 C25 1_555 1_555
H23 C26 1_555 1_555
C27 C26 1_555 1_555
H24 C27 1_555 1_555
C28 C27 1_555 1_555
C29 C24 1_555 1_555
H25 C29 1_555 1_555
C30 N9 1_555 1_555
C31 C30 1_555 1_555
C32 C31 1_555 1_555
H26 C32 1_555 1_555
C33 C32 1_555 1_555
H27 C33 1_555 1_555
C34 S1 1_555 1_555
H28 C34 1_555 1_555
C35 O2 1_555 1_555
C36 C35 1_555 1_555
C37 C36 1_555 1_555
H29 C37 1_555 1_555
C38 C37 1_555 1_555
H30 C38 1_555 1_555
C39 S2 1_555 1_555
H31 C39 1_555 1_555
N8 C23 1_555 1_555
C4 C5 1_555 1_555
C10 C11 1_555 1_555
C16 C17 1_555 1_555
C22 C23 1_555 1_555
C24 C25 1_555 1_555
C28 C29 1_555 1_555
C33 C34 1_555 1_555
C38 C39 1_555 1_555

#END
