
#######################################################################
#
#                 Cambridge Crystallographic Data Centre
#                                CCDC 
#
#######################################################################
#
# If this CIF has been generated from an entry in the Cambridge 
# Structural Database, then it will include bibliographic, chemical, 
# crystal, experimental, refinement or atomic coordinate data resulting 
# from the CCDC's data processing and validation procedures.
#
#######################################################################

data_FUNZAP
_chemical_formula_moiety         'C34 H30'
_chemical_name_systematic        (3.2.3.2.0^1,18^)(1,3)Benzenophane-2,19-diene
_symmetry_cell_setting           orthorhombic
_symmetry_space_group_name_H-M   'P 21 21 2'
_symmetry_Int_Tables_number      18
_space_group_name_Hall           'P 2 2ab'
loop_
_symmetry_equiv_pos_site_id
_symmetry_equiv_pos_as_xyz
1 x,y,z
2 1/2+x,1/2-y,-z
3 1/2-x,1/2+y,-z
4 -x,-y,z
_cell_length_a                   14.037(2)
_cell_length_b                   14.502(2)
_cell_length_c                   5.944(6)
_cell_angle_alpha                90
_cell_angle_beta                 90
_cell_angle_gamma                90
_cell_volume                     1209.99
_exptl_crystal_colour            colorless
_chemical_melting_point          210deg.C
_cell_formula_units_Z            2
loop_
_atom_site_label
_atom_site_type_symbol
_atom_site_fract_x
_atom_site_fract_y
_atom_site_fract_z
C1 C -0.14504(53) 0.23982(67) -0.0402(11)
C2 C -0.06883(39) 0.25852(56) 0.1370(10)
C3 C -0.04456(46) 0.18732(54) 0.2823(10)
C4 C 0.01442(46) 0.20732(58) 0.4643(12)
C5 C 0.04312(44) 0.29528(55) 0.5070(11)
C6 C 0.01957(35) 0.36789(49) 0.3615(10)
C7 C -0.03575(40) 0.34600(51) 0.1746(10)
C8 C 0.04539(38) 0.46645(51) 0.4080(10)
C9 C 0.10336(44) 0.48035(53) 0.6202(11)
C10 C 0.18983(44) 0.51344(56) 0.6341(12)
C11 C 0.24640(41) 0.55151(58) 0.4443(10)
C12 C 0.23208(39) 0.63961(57) 0.3624(11)
C13 C 0.27481(41) 0.67269(59) 0.1720(12)
H1 H -0.1405(44) 0.2948(43) -0.154(11)
H2 H -0.1347(43) 0.1785(43) -0.129(11)
H3 H -0.0709(5) 0.1182(5) 0.2548(11)
H4 H 0.0379(5) 0.1520(6) 0.5727(12)
H5 H 0.0845(4) 0.3093(5) 0.6563(12)
H6 H -0.0530(4) 0.3996(5) 0.0554(10)
H7 H 0.0835(43) 0.4957(46) 0.270(10)
H8 H 0.0695(4) 0.4610(5) 0.7764(11)
H9 H 0.2230(4) 0.5134(6) 0.7981(13)
H10 H 0.1848(4) 0.6848(6) 0.4542(12)
H11 H 0.3734(4) 0.6347(7) -0.0948(13)
H12 H 0.4156(5) 0.4879(7) 0.0701(16)
H13 H 0.3271(4) 0.4247(6) 0.3851(14)
H14 H -0.2886(41) 0.2032(42) -0.055(10)
H15 H -0.2470(44) 0.1793(42) 0.199(11)
C14 C 0.34020(45) 0.61273(68) 0.0601(13)
C15 C 0.36046(49) 0.52875(73) 0.1482(6)
C16 C 0.31344(45) 0.49436(62) 0.3292(14)
C17 C -0.24590(50) 0.23390(66) 0.0689(13)
C8C C -0.04539(38) 0.53355(51) 0.4080(10)
C17C C 0.24590(50) 0.76610(66) 0.0689(13)
C13C C -0.27481(41) 0.32731(59) 0.1720(12)
C6C C -0.01957(35) 0.63211(49) 0.3615(10)
C9C C -0.10336(44) 0.51965(53) 0.6202(11)
H7C H -0.0835(43) 0.5043(46) 0.270(10)
C1C C 0.14504(53) 0.76018(67) -0.0402(11)
H14C H 0.2886(41) 0.7968(42) -0.055(10)
H15C H 0.2470(44) 0.8207(42) 0.199(11)
C12C C -0.23208(39) 0.36039(57) 0.3624(11)
C14C C -0.34020(45) 0.38727(68) 0.0601(13)
C5C C -0.04312(44) 0.70472(55) 0.5070(11)
C7C C 0.03575(40) 0.65400(51) 0.1746(10)
C10C C -0.18983(44) 0.48656(56) 0.6341(12)
H8C H -0.0695(4) 0.5390(5) 0.7764(11)
C2C C 0.06883(39) 0.74148(56) 0.1370(10)
H1C H 0.1405(44) 0.7052(43) -0.154(11)
H2C H 0.1347(43) 0.8215(43) -0.129(11)
C11C C -0.24640(41) 0.44849(58) 0.4443(10)
H10C H -0.1848(4) 0.3152(6) 0.4542(12)
H11C H -0.3734(4) 0.3653(7) -0.0948(13)
C15C C -0.36046(49) 0.47125(73) 0.1482(6)
C4C C -0.01442(46) 0.79268(58) 0.4643(12)
H5C H -0.0845(4) 0.6907(5) 0.6563(12)
H6C H 0.0530(4) 0.6004(5) 0.0554(10)
H9C H -0.2230(4) 0.4866(6) 0.7981(13)
C3C C 0.04456(46) 0.81268(54) 0.2823(10)
C16C C -0.31344(45) 0.50564(62) 0.3292(14)
H12C H -0.4156(5) 0.5121(7) 0.0701(16)
H4C H -0.0379(5) 0.8480(6) 0.5727(12)
H3C H 0.0709(5) 0.8818(5) 0.2548(11)
H13C H -0.3271(4) 0.5753(6) 0.3851(14)
loop_
_geom_bond_atom_site_label_1
_geom_bond_atom_site_label_2
_geom_bond_site_symmetry_1
_geom_bond_site_symmetry_2
C1 C2 1_555 1_555
C2 C3 1_555 1_555
C3 C4 1_555 1_555
C4 C5 1_555 1_555
C5 C6 1_555 1_555
C6 C7 1_555 1_555
C7 C2 1_555 1_555
C8 C6 1_555 1_555
C9 C8 1_555 1_555
C10 C9 1_555 1_555
C11 C10 1_555 1_555
C12 C11 1_555 1_555
C13 C12 1_555 1_555
H1 C1 1_555 1_555
H2 C1 1_555 1_555
H3 C3 1_555 1_555
H4 C4 1_555 1_555
H5 C5 1_555 1_555
H6 C7 1_555 1_555
H7 C8 1_555 1_555
H8 C9 1_555 1_555
H9 C10 1_555 1_555
H10 C12 1_555 1_555
H11 C14 1_555 1_555
H12 C15 1_555 1_555
H13 C16 1_555 1_555
H14 C17 1_555 1_555
H15 C17 1_555 1_555
C14 C13 1_555 1_555
C15 C14 1_555 1_555
C16 C11 1_555 1_555
C17 C1 1_555 1_555
C8C C8 1_555 1_555
C17C C13 1_555 1_555
C13C C17 1_555 1_555
C6C C8C 1_555 1_555
C9C C8C 1_555 1_555
H7C C8C 1_555 1_555
C1C C17C 1_555 1_555
H14C C17C 1_555 1_555
H15C C17C 1_555 1_555
C12C C13C 1_555 1_555
C14C C13C 1_555 1_555
C5C C6C 1_555 1_555
C7C C6C 1_555 1_555
C10C C9C 1_555 1_555
H8C C9C 1_555 1_555
C2C C1C 1_555 1_555
H1C C1C 1_555 1_555
H2C C1C 1_555 1_555
C11C C12C 1_555 1_555
H10C C12C 1_555 1_555
H11C C14C 1_555 1_555
C15C C14C 1_555 1_555
C4C C5C 1_555 1_555
H5C C5C 1_555 1_555
H6C C7C 1_555 1_555
H9C C10C 1_555 1_555
C3C C2C 1_555 1_555
C16C C11C 1_555 1_555
H12C C15C 1_555 1_555
H4C C4C 1_555 1_555
H3C C3C 1_555 1_555
H13C C16C 1_555 1_555
C15 C16 1_555 1_555
C7C C2C 1_555 1_555
C10C C11C 1_555 1_555
C15C C16C 1_555 1_555
C4C C3C 1_555 1_555

#END
