
#######################################################################
#
#                 Cambridge Crystallographic Data Centre
#                                CCDC 
#
#######################################################################
#
# If this CIF has been generated from an entry in the Cambridge 
# Structural Database, then it will include bibliographic, chemical, 
# crystal, experimental, refinement or atomic coordinate data resulting 
# from the CCDC's data processing and validation procedures.
#
#######################################################################

data_FUNZEV
_chemical_formula_moiety         'C29 H25 N9 O2,0.5(C1 H2 Cl2)'
_chemical_name_systematic        
'2,8,14-Trimethyl-20-(2-nitrophenyl)-2,8,14,20,25,26,27,28-octaazapentacyclo[19.3.1.1^3,7^.1^9,13^.1^15,19^]octacosa-1(25),3(28),4,6,9(27),10,12,15(26),16,18,21,23-dodecaene dichloromethane solvate'
_symmetry_cell_setting           monoclinic
_symmetry_space_group_name_H-M   'C 2/c'
_symmetry_Int_Tables_number      15
_space_group_name_Hall           '-C 2yn'
loop_
_symmetry_equiv_pos_site_id
_symmetry_equiv_pos_as_xyz
1 x,y,z
2 -x,y,1/2-z
3 1/2+x,1/2+y,z
4 1/2-x,1/2+y,1/2-z
5 -x,-y,-z
6 x,-y,1/2+z
7 1/2-x,1/2-y,-z
8 1/2+x,1/2-y,1/2+z
_cell_length_a                   25.464(3)
_cell_length_b                   9.7246(11)
_cell_length_c                   24.244(3)
_cell_angle_alpha                90
_cell_angle_beta                 113.352(8)
_cell_angle_gamma                90
_cell_volume                     5511.71
_exptl_crystal_colour            yellow
_exptl_crystal_description       block
_cell_formula_units_Z            8
loop_
_atom_site_label
_atom_site_type_symbol
_atom_site_fract_x
_atom_site_fract_y
_atom_site_fract_z
O1 O 0.31546(8) 0.82072(19) 0.10683(8)
O2 O 0.39294(8) 0.7499(2) 0.17652(9)
N1 N 0.26951(7) 1.04518(18) 0.13906(8)
N2 N 0.24007(7) 1.25583(18) 0.09307(8)
N3 N 0.20399(8) 1.45445(18) 0.04012(8)
N4 N 0.11773(7) 1.38986(18) 0.04721(8)
N5 N 0.03532(8) 1.3236(2) 0.06173(9)
N6 N 0.06021(7) 1.09847(19) 0.09100(8)
N7 N 0.08933(7) 0.87491(19) 0.11376(8)
N8 N 0.17959(7) 0.95469(18) 0.12324(8)
N9 N 0.34684(8) 0.8090(2) 0.15962(9)
C1 C 0.28111(8) 1.1854(2) 0.13567(9)
C2 C 0.33301(9) 1.2441(2) 0.17397(10)
H1 H 0.3614 1.1919 0.2044
C3 C 0.34082(10) 1.3819(2) 0.16516(11)
H2 H 0.3755 1.4255 0.1901
C4 C 0.29927(10) 1.4576(2) 0.12086(11)
H3 H 0.3049 1.5521 0.1147
C5 C 0.24886(9) 1.3898(2) 0.08556(10)
C6 C 0.19970(11) 1.6044(2) 0.03875(12)
H4 H 0.2341 1.6440 0.0364
H5 H 0.1961 1.6368 0.0754
H6 H 0.1660 1.6328 0.0036
C7 C 0.15083(9) 1.3809(2) 0.01604(10)
C8 C 0.13733(10) 1.3034(2) -0.03535(10)
H7 H 0.1617 1.3022 -0.0566
C9 C 0.08724(10) 1.2274(3) -0.05516(10)
H8 H 0.0764 1.1735 -0.0906
C10 C 0.05316(9) 1.2307(2) -0.02285(10)
H9 H 0.0191 1.1777 -0.0349
C11 C 0.07024(9) 1.3141(2) 0.02805(9)
C12 C 0.02446(12) 1.4595(3) 0.08008(13)
H10 H -0.0165 1.4696 0.0706
H11 H 0.0365 1.5298 0.0585
H12 H 0.0461 1.4706 0.1234
C13 C 0.03081(8) 1.2099(2) 0.09450(10)
C14 C -0.00199(9) 1.2128(3) 0.12903(10)
H13 H -0.0238 1.2915 0.1298
C15 C -0.00137(10) 1.0972(3) 0.16188(11)
H14 H -0.0230 1.0966 0.1860
C16 C 0.03000(10) 0.9815(3) 0.16069(11)
H15 H 0.0314 0.9027 0.1844
C17 C 0.05950(9) 0.9867(2) 0.12271(10)
C18 C 0.10815(12) 0.7657(3) 0.15874(13)
H16 H 0.0749 0.7259 0.1636
H17 H 0.1345 0.8038 0.1972
H18 H 0.1277 0.6941 0.1456
C19 C 0.12843(9) 0.9068(2) 0.08603(10)
C20 C 0.21563(8) 0.9922(2) 0.09834(9)
C21 C 0.20331(9) 0.9822(2) 0.03733(9)
H19 H 0.2303 1.0103 0.0215
C22 C 0.15075(9) 0.9300(2) 0.00038(10)
H20 H 0.1411 0.9206 -0.0415
C23 C 0.11199(9) 0.8914(2) 0.02494(10)
H21 H 0.0754 0.8555 0.0004
C24 C 0.29341(8) 0.9768(2) 0.19582(9)
C25 C 0.28106(10) 1.0217(3) 0.24379(10)
H22 H 0.2589 1.1027 0.2395
C26 C 0.30029(10) 0.9509(3) 0.29745(11)
H23 H 0.2909 0.9835 0.3294
C27 C 0.33309(10) 0.8327(3) 0.30559(11)
H24 H 0.3450 0.7828 0.3422
C28 C 0.34820(10) 0.7889(3) 0.25989(11)
H25 H 0.3720 0.7104 0.2652
C29 C 0.32829(9) 0.8608(2) 0.20562(10)
Cl1 Cl 0.03848(4) 0.56654(11) 0.31341(4)
C30 C 0.0000 0.4675(6) 0.2500
H26 H -0.0261 0.4093 0.2589
Cl1A Cl -0.03848(4) 0.56654(11) 0.18659(4)
H26A H 0.0261 0.4093 0.2411
loop_
_geom_bond_atom_site_label_1
_geom_bond_atom_site_label_2
_geom_bond_site_symmetry_1
_geom_bond_site_symmetry_2
O1 N9 1_555 1_555
O2 N9 1_555 1_555
N1 C1 1_555 1_555
N2 C1 1_555 1_555
N3 C5 1_555 1_555
N4 C7 1_555 1_555
N5 C11 1_555 1_555
N6 C13 1_555 1_555
N7 C17 1_555 1_555
N8 C19 1_555 1_555
N9 C29 1_555 1_555
C1 C2 1_555 1_555
C2 H1 1_555 1_555
C3 C2 1_555 1_555
H2 C3 1_555 1_555
C4 C3 1_555 1_555
H3 C4 1_555 1_555
C5 N2 1_555 1_555
C6 N3 1_555 1_555
H4 C6 1_555 1_555
H5 C6 1_555 1_555
H6 C6 1_555 1_555
C7 N3 1_555 1_555
C8 C7 1_555 1_555
H7 C8 1_555 1_555
C9 C8 1_555 1_555
H8 C9 1_555 1_555
C10 C9 1_555 1_555
H9 C10 1_555 1_555
C11 N4 1_555 1_555
C12 N5 1_555 1_555
H10 C12 1_555 1_555
H11 C12 1_555 1_555
H12 C12 1_555 1_555
C13 N5 1_555 1_555
C14 C13 1_555 1_555
H13 C14 1_555 1_555
C15 C14 1_555 1_555
H14 C15 1_555 1_555
C16 C15 1_555 1_555
H15 C16 1_555 1_555
C17 N6 1_555 1_555
C18 N7 1_555 1_555
H16 C18 1_555 1_555
H17 C18 1_555 1_555
H18 C18 1_555 1_555
C19 N7 1_555 1_555
C20 N1 1_555 1_555
C21 C20 1_555 1_555
H19 C21 1_555 1_555
C22 C21 1_555 1_555
H20 C22 1_555 1_555
C23 C19 1_555 1_555
H21 C23 1_555 1_555
C24 N1 1_555 1_555
C25 C24 1_555 1_555
H22 C25 1_555 1_555
C26 C25 1_555 1_555
H23 C26 1_555 1_555
C27 C26 1_555 1_555
H24 C27 1_555 1_555
C28 C27 1_555 1_555
H25 C28 1_555 1_555
C29 C24 1_555 1_555
Cl1 C30 1_555 1_555
C30 H26 1_555 1_555
Cl1A C30 1_555 1_555
H26A C30 1_555 1_555
N8 C20 1_555 1_555
C4 C5 1_555 1_555
C10 C11 1_555 1_555
C16 C17 1_555 1_555
C22 C23 1_555 1_555
C28 C29 1_555 1_555

#END
