
#######################################################################
#
#                 Cambridge Crystallographic Data Centre
#                                CCDC 
#
#######################################################################
#
# If this CIF has been generated from an entry in the Cambridge 
# Structural Database, then it will include bibliographic, chemical, 
# crystal, experimental, refinement or atomic coordinate data resulting 
# from the CCDC's data processing and validation procedures.
#
#######################################################################

data_FUPHOO
_chemical_formula_moiety         'C19 H36 O1 P1 1+,Cl1 1-,0.5(C7 H8)'
_chemical_name_systematic        
'Tricyclohexyl(hydroxymethyl)phosphonium chloride toluene solvate'
_symmetry_cell_setting           tetragonal
_symmetry_space_group_name_H-M   'P -4 21 c'
_symmetry_Int_Tables_number      114
_space_group_name_Hall           'P -4 2n'
loop_
_symmetry_equiv_pos_site_id
_symmetry_equiv_pos_as_xyz
1 x,y,z
2 -x,-y,z
3 y,-x,-z
4 -y,x,-z
5 1/2-x,1/2+y,1/2-z
6 1/2+x,1/2-y,1/2-z
7 1/2-y,1/2-x,1/2+z
8 1/2+y,1/2+x,1/2+z
_cell_length_a                   15.0494(7)
_cell_length_b                   15.0494(7)
_cell_length_c                   20.1228(15)
_cell_angle_alpha                90
_cell_angle_beta                 90
_cell_angle_gamma                90
_cell_volume                     4557.5
_exptl_crystal_colour            colorless
_exptl_crystal_description       irregular
_cell_formula_units_Z            8
loop_
_atom_site_label
_atom_site_type_symbol
_atom_site_fract_x
_atom_site_fract_y
_atom_site_fract_z
P1 P 0.33738(8) 0.83562(8) 0.97861(6)
O1 O 0.49813(18) 0.86219(18) 1.02690(14)
H1 H 0.5489 0.8668 1.0099
C1 C 0.2885(3) 0.8189(3) 1.0595(2)
H2 H 0.2303 0.7884 1.0521
C2 C 0.3416(3) 0.7601(3) 1.1077(2)
H3 H 0.3528 0.7016 1.0868
H4 H 0.3997 0.7882 1.1170
C3 C 0.2910(3) 0.7472(3) 1.1724(2)
H5 H 0.3275 0.7112 1.2032
H6 H 0.2355 0.7140 1.1633
C4 C 0.2680(3) 0.8361(3) 1.2056(2)
H7 H 0.2319 0.8251 1.2459
H8 H 0.3234 0.8665 1.2193
C5 C 0.2165(3) 0.8951(3) 1.1578(2)
H9 H 0.2055 0.9535 1.1789
H10 H 0.1582 0.8675 1.1481
C6 C 0.2674(3) 0.9086(3) 1.0928(2)
H11 H 0.3235 0.9406 1.1020
H12 H 0.2314 0.9454 1.0622
C7 C 0.2570(3) 0.8944(3) 0.92713(19)
H13 H 0.2587 0.9573 0.9432
C8 C 0.1588(3) 0.8651(2) 0.9353(2)
H14 H 0.1508 0.8044 0.9173
H15 H 0.1427 0.8643 0.9830
C9 C 0.0995(3) 0.9297(3) 0.8982(2)
H16 H 0.0371 0.9097 0.9019
H17 H 0.1039 0.9890 0.9194
C10 C 0.1237(3) 0.9380(3) 0.8255(2)
H18 H 0.0853 0.9832 0.8044
H19 H 0.1128 0.8805 0.8030
C11 C 0.2205(3) 0.9641(3) 0.8166(2)
H20 H 0.2297 1.0250 0.8340
H21 H 0.2353 0.9644 0.7687
C12 C 0.2825(3) 0.8995(3) 0.85315(19)
H22 H 0.3448 0.9199 0.8488
H23 H 0.2779 0.8397 0.8329
C13 C 0.3771(3) 0.7296(3) 0.9459(2)
H24 H 0.4099 0.7002 0.9831
C14 C 0.3001(3) 0.6670(3) 0.9278(2)
H25 H 0.2597 0.6609 0.9663
H26 H 0.2658 0.6927 0.8905
C15 C 0.3352(3) 0.5752(3) 0.9078(2)
H27 H 0.3653 0.5474 0.9462
H28 H 0.2848 0.5367 0.8947
C16 C 0.4001(3) 0.5834(3) 0.8501(2)
H29 H 0.3685 0.6067 0.8106
H30 H 0.4238 0.5239 0.8389
C17 C 0.4773(3) 0.6456(3) 0.8676(2)
H31 H 0.5169 0.6518 0.8286
H32 H 0.5123 0.6194 0.9044
C18 C 0.4436(3) 0.7381(3) 0.8885(2)
H33 H 0.4944 0.7754 0.9027
H34 H 0.4146 0.7675 0.8502
C19 C 0.4353(3) 0.9074(3) 0.9866(2)
H35 H 0.4610 0.9197 0.9422
H36 H 0.4186 0.9646 1.0074
C20 C 0.4953(8) 1.0023(8) 0.6659(3)
H37 H 0.5086 0.9860 0.6214
C21 C 0.4328(7) 1.0682(7) 0.6786(3)
H38 H 0.4034 1.0969 0.6428
C22 C 0.4134(6) 1.0920(6) 0.7438(4)
H39 H 0.3707 1.1371 0.7525
C23 C 0.4564(8) 1.0500(8) 0.7962(2)
H40 H 0.4432 1.0663 0.8407
C24 C 0.4811(7) 1.0159(7) 0.7835(3)
H41 H 0.4517 1.0446 0.8193
C25 C 0.5383(6) 0.9603(6) 0.7183(4)
C26 C 0.3924(10) 1.1132(10) 0.7054(6)
H42 H 0.3435 1.1075 0.7373
H43 H 0.3692 1.1074 0.6601
H44 H 0.4205 1.1716 0.7106
C20A C 0.5047(8) 0.9977(8) 0.6659(3)
H37A H 0.4914 1.0140 0.6214
C21A C 0.5672(7) 0.9318(7) 0.6786(3)
H38A H 0.5966 0.9031 0.6428
C22A C 0.5866(6) 0.9080(6) 0.7438(4)
H39A H 0.6293 0.8629 0.7525
C23A C 0.5436(8) 0.9500(8) 0.7962(2)
H40A H 0.5568 0.9337 0.8407
C24A C 0.5189(7) 0.9841(7) 0.7835(3)
H41A H 0.5483 0.9554 0.8193
C25A C 0.4617(6) 1.0397(6) 0.7183(4)
C26A C 0.6076(10) 0.8868(10) 0.7054(6)
H42A H 0.6565 0.8925 0.7373
H43A H 0.6308 0.8926 0.6601
H44A H 0.5795 0.8284 0.7106
Cl1 Cl 0.65961(9) 0.88614(7) 0.94435(6)
loop_
_geom_bond_atom_site_label_1
_geom_bond_atom_site_label_2
_geom_bond_site_symmetry_1
_geom_bond_site_symmetry_2
P1 C1 1_555 1_555
O1 H1 1_555 1_555
C1 H2 1_555 1_555
C2 C1 1_555 1_555
H3 C2 1_555 1_555
H4 C2 1_555 1_555
C3 C2 1_555 1_555
H5 C3 1_555 1_555
H6 C3 1_555 1_555
C4 C3 1_555 1_555
H7 C4 1_555 1_555
H8 C4 1_555 1_555
C5 C4 1_555 1_555
H9 C5 1_555 1_555
H10 C5 1_555 1_555
C6 C1 1_555 1_555
H11 C6 1_555 1_555
H12 C6 1_555 1_555
C7 P1 1_555 1_555
H13 C7 1_555 1_555
C8 C7 1_555 1_555
H14 C8 1_555 1_555
H15 C8 1_555 1_555
C9 C8 1_555 1_555
H16 C9 1_555 1_555
H17 C9 1_555 1_555
C10 C9 1_555 1_555
H18 C10 1_555 1_555
H19 C10 1_555 1_555
C11 C10 1_555 1_555
H20 C11 1_555 1_555
H21 C11 1_555 1_555
C12 C7 1_555 1_555
H22 C12 1_555 1_555
H23 C12 1_555 1_555
C13 P1 1_555 1_555
H24 C13 1_555 1_555
C14 C13 1_555 1_555
H25 C14 1_555 1_555
H26 C14 1_555 1_555
C15 C14 1_555 1_555
H27 C15 1_555 1_555
H28 C15 1_555 1_555
C16 C15 1_555 1_555
H29 C16 1_555 1_555
H30 C16 1_555 1_555
C17 C16 1_555 1_555
H31 C17 1_555 1_555
H32 C17 1_555 1_555
C18 C13 1_555 1_555
H33 C18 1_555 1_555
H34 C18 1_555 1_555
C19 P1 1_555 1_555
H35 C19 1_555 1_555
H36 C19 1_555 1_555
C20 H37 1_555 1_555
H37 C20A 1_555 1_555
C21 C20 1_555 1_555
H38 C21 1_555 1_555
C22 C21 1_555 1_555
H39 C22 1_555 1_555
C23 C22 1_555 1_555
H40 C23 1_555 1_555
C24 C22 1_555 1_555
H41 C23 1_555 1_555
C25 C20 1_555 1_555
C26 C21 1_555 1_555
H42 C22 1_555 1_555
H43 C21 1_555 1_555
H44 C26 1_555 1_555
C20A C20 1_555 1_555
H37A C20 1_555 1_555
C21A C20 1_555 1_555
H38A C21A 1_555 1_555
C22A C25 1_555 1_555
H39A C22A 1_555 1_555
C23A C24 1_555 1_555
H40A C23A 1_555 1_555
C24A C23 1_555 1_555
H41A C23A 1_555 1_555
C25A C20 1_555 1_555
C26A C25 1_555 1_555
H42A C22A 1_555 1_555
H43A C21A 1_555 1_555
H44A C26A 1_555 1_555
O1 C19 1_555 1_555
C5 C6 1_555 1_555
C11 C12 1_555 1_555
C17 C18 1_555 1_555
H37 H37A 1_555 1_555
C21 C20A 1_555 1_555
C21 C25A 1_555 1_555
H38 C26 1_555 1_555
H38 H43 1_555 1_555
C22 C26 1_555 1_555
C22 C25A 1_555 1_555
H39 C26 1_555 1_555
H39 H42 1_555 1_555
C23 C24 1_555 1_555
C23 C25A 1_555 1_555
H40 H41 1_555 1_555
C24 H41 1_555 1_555
C24 C24A 1_555 1_555
C24 C25A 1_555 1_555
C25 C20A 1_555 1_555
C25 C21A 1_555 1_555
C25 C23A 1_555 1_555
C25 C24A 1_555 1_555
C25 C25A 1_555 1_555
C26 H42 1_555 1_555
C26 H43 1_555 1_555
C26 C25A 1_555 1_555
C20A H37A 1_555 1_555
C20A C21A 1_555 1_555
C20A C25A 1_555 1_555
C21A C22A 1_555 1_555
C21A C26A 1_555 1_555
H38A C26A 1_555 1_555
H38A H43A 1_555 1_555
C22A C23A 1_555 1_555
C22A C24A 1_555 1_555
C22A C26A 1_555 1_555
H39A C26A 1_555 1_555
H39A H42A 1_555 1_555
C23A C24A 1_555 1_555
H40A H41A 1_555 1_555
C24A H41A 1_555 1_555
C26A H42A 1_555 1_555
C26A H43A 1_555 1_555

#END
