
#######################################################################
#
#                 Cambridge Crystallographic Data Centre
#                                CCDC 
#
#######################################################################
#
# If this CIF has been generated from an entry in the Cambridge 
# Structural Database, then it will include bibliographic, chemical, 
# crystal, experimental, refinement or atomic coordinate data resulting 
# from the CCDC's data processing and validation procedures.
#
#######################################################################

data_FUPPIR
_chemical_formula_moiety         'C42 H48 N4 O2 Si2'
_chemical_name_systematic        
6,13-bis((Tri-isopropylsilyl)ethynyl)[1,4]benzoxazino[2,3-b]phenoxazine-1,8-dicarbonitrile
_symmetry_cell_setting           triclinic
_symmetry_space_group_name_H-M   'P -1'
_symmetry_Int_Tables_number      2
_space_group_name_Hall           '-P 1'
loop_
_symmetry_equiv_pos_site_id
_symmetry_equiv_pos_as_xyz
1 x,y,z
2 -x,-y,-z
_cell_length_a                   8.733(4)
_cell_length_b                   13.910(7)
_cell_length_c                   17.420(10)
_cell_angle_alpha                68.839(12)
_cell_angle_beta                 78.009(12)
_cell_angle_gamma                89.630(11)
_cell_volume                     1924.91
_cell_formula_units_Z            2
loop_
_atom_site_label
_atom_site_type_symbol
_atom_site_fract_x
_atom_site_fract_y
_atom_site_fract_z
C1 C 0.2087(6) 0.0938(4) -0.3866(3)
H1 H 0.1292 0.1365 -0.3695
C2 C 0.2309(8) 0.1275(5) -0.4822(3)
H2 H 0.2634 0.1999 -0.5083
H3 H 0.1335 0.1149 -0.4955
H4 H 0.3096 0.0889 -0.5027
C3 C 0.3568(7) 0.1211(5) -0.3641(4)
H5 H 0.4417 0.0859 -0.3841
H6 H 0.3404 0.1001 -0.3039
H7 H 0.3822 0.1944 -0.3899
Si1 Si 0.12471(17) -0.04465(12) -0.32786(7)
O1 O -0.2021(4) 0.0384(3) -0.10793(16)
C4 C -0.1015(6) 0.0194(4) -0.0546(2)
C5 C -0.1394(6) 0.0500(4) 0.0174(3)
N1 N -0.2656(5) 0.0984(3) 0.0334(2)
C6 C -0.3659(6) 0.1158(4) -0.0215(2)
C7 C -0.3374(6) 0.0852(4) -0.0899(3)
C8 C -0.5773(6) 0.1466(4) -0.1272(3)
H8 H -0.6480 0.1561 -0.1621
C9 C -0.5366(6) 0.1994(4) 0.0625(3)
N2 N -0.5624(5) 0.2311(4) 0.1167(2)
C10 C -0.6091(6) 0.1804(4) -0.0597(3)
H9 H -0.7005 0.2130 -0.0500
C11 C -0.5049(6) 0.1656(4) -0.0070(3)
C12 C 0.0312(6) -0.0270(4) -0.0737(2)
C13 C -0.4416(6) 0.0991(4) -0.1425(3)
H10 H -0.4201 0.0766 -0.1875
C14 C 0.0943(5) -0.0589(4) -0.2161(2)
C15 C 0.0675(5) -0.0492(4) -0.1494(2)
C16 C 0.4141(6) -0.1462(5) -0.3266(3)
H11 H 0.4640 -0.2068 -0.3297
H12 H 0.4015 -0.1463 -0.2705
H13 H 0.4779 -0.0856 -0.3660
C17 C -0.0736(6) -0.0634(4) -0.3478(3)
H14 H -0.0609 -0.0452 -0.4087
C18 C 0.2524(5) -0.1461(4) -0.3483(3)
H15 H 0.1971 -0.2128 -0.3106
C19 C 0.2686(7) -0.1442(5) -0.4386(3)
H16 H 0.3269 -0.0815 -0.4782
H17 H 0.1661 -0.1474 -0.4499
H18 H 0.3228 -0.2025 -0.4439
C20 C -0.1897(7) 0.0088(5) -0.3217(4)
H19 H -0.2875 0.0006 -0.3364
H20 H -0.1470 0.0792 -0.3505
H21 H -0.2070 -0.0084 -0.2618
C21 C -0.1408(6) -0.1756(4) -0.3046(3)
H22 H -0.1515 -0.1966 -0.2448
H23 H -0.0714 -0.2189 -0.3253
H24 H -0.2419 -0.1818 -0.3167
C1A C -0.2087(6) -0.0938(4) 0.3866(3)
H1A H -0.1292 -0.1365 0.3695
C2A C -0.2309(8) -0.1275(5) 0.4822(3)
H2A H -0.2634 -0.1999 0.5083
H3A H -0.1335 -0.1149 0.4955
H4A H -0.3096 -0.0889 0.5027
C3A C -0.3568(7) -0.1211(5) 0.3641(4)
H5A H -0.4417 -0.0859 0.3841
H6A H -0.3404 -0.1001 0.3039
H7A H -0.3822 -0.1944 0.3899
Si1A Si -0.12471(17) 0.04465(12) 0.32786(7)
O1A O 0.2021(4) -0.0384(3) 0.10793(16)
C4A C 0.1015(6) -0.0194(4) 0.0546(2)
C5A C 0.1394(6) -0.0500(4) -0.0174(3)
N1A N 0.2656(5) -0.0984(3) -0.0334(2)
C6A C 0.3659(6) -0.1158(4) 0.0215(2)
C7A C 0.3374(6) -0.0852(4) 0.0899(3)
C8A C 0.5773(6) -0.1466(4) 0.1272(3)
H8A H 0.6480 -0.1561 0.1621
C9A C 0.5366(6) -0.1994(4) -0.0625(3)
N2A N 0.5624(5) -0.2311(4) -0.1167(2)
C10A C 0.6091(6) -0.1804(4) 0.0597(3)
H9A H 0.7005 -0.2130 0.0500
C11A C 0.5049(6) -0.1656(4) 0.0070(3)
C12A C -0.0312(6) 0.0270(4) 0.0737(2)
C13A C 0.4416(6) -0.0991(4) 0.1425(3)
H10A H 0.4201 -0.0766 0.1875
C14A C -0.0943(5) 0.0589(4) 0.2161(2)
C15A C -0.0675(5) 0.0492(4) 0.1494(2)
C16A C -0.4141(6) 0.1462(5) 0.3266(3)
H11A H -0.4640 0.2068 0.3297
H12A H -0.4015 0.1463 0.2705
H13A H -0.4779 0.0856 0.3660
C17A C 0.0736(6) 0.0634(4) 0.3478(3)
H14A H 0.0609 0.0452 0.4087
C18A C -0.2524(5) 0.1461(4) 0.3483(3)
H15A H -0.1971 0.2128 0.3106
C19A C -0.2686(7) 0.1442(5) 0.4386(3)
H16A H -0.3269 0.0815 0.4782
H17A H -0.1661 0.1474 0.4499
H18A H -0.3228 0.2025 0.4439
C20A C 0.1897(7) -0.0088(5) 0.3217(4)
H19A H 0.2875 -0.0006 0.3364
H20A H 0.1470 -0.0792 0.3505
H21A H 0.2070 0.0084 0.2618
C21A C 0.1408(6) 0.1756(4) 0.3046(3)
H22A H 0.1515 0.1966 0.2448
H23A H 0.0714 0.2189 0.3253
H24A H 0.2419 0.1818 0.3167
Si2 Si 0.37791(16) 0.54688(12) 0.32859(7)
O2 O 0.2127(4) 0.4591(3) 0.11100(15)
N3 N 0.2605(5) 0.4051(3) -0.0334(2)
C22 C 0.3563(5) 0.4796(4) 0.0557(2)
C23 C -0.1780(6) 0.3530(4) 0.1338(3)
H25 H -0.2764 0.3431 0.1698
C24 C 0.3728(6) 0.4505(4) -0.0176(2)
C25 C -0.1577(6) 0.3220(4) 0.0656(3)
H26 H -0.2419 0.2902 0.0565
C26 C 0.1161(6) 0.3845(4) 0.0232(2)
C27 C 0.0904(5) 0.4133(4) 0.0938(2)
C28 C 0.4729(6) 0.5250(4) 0.0743(2)
C29 C -0.0122(6) 0.3383(4) 0.0107(3)
C30 C 0.3077(6) 0.6732(4) 0.3314(2)
H27 H 0.3922 0.7255 0.2944
C31 C 0.4169(5) 0.5531(4) 0.2190(2)
C32 C 0.5717(6) 0.5242(4) 0.3600(3)
H28 H 0.5554 0.5194 0.4188
N4 N 0.0206(5) 0.2767(4) -0.1155(3)
C33 C 0.1615(6) 0.7064(4) 0.2957(3)
H29 H 0.0723 0.6608 0.3322
H30 H 0.1772 0.7033 0.2405
H31 H 0.1432 0.7758 0.2922
C34 C 0.0089(6) 0.3043(4) -0.0607(3)
C35 C 0.4476(5) 0.5447(4) 0.1513(3)
C36 C 0.2362(5) 0.4297(4) 0.3907(2)
H32 H 0.2894 0.3711 0.3818
C37 C -0.0537(6) 0.3985(4) 0.1489(3)
H33 H -0.0665 0.4187 0.1951
C38 C 0.6968(6) 0.6136(4) 0.3065(3)
H34 H 0.7961 0.5956 0.3210
H35 H 0.6668 0.6748 0.3173
H36 H 0.7054 0.6263 0.2478
C39 C 0.2035(6) 0.4052(4) 0.4867(2)
H37 H 0.1468 0.4589 0.4994
H38 H 0.3012 0.4011 0.5044
H39 H 0.1423 0.3403 0.5161
C40 C 0.2862(6) 0.6810(4) 0.4188(3)
H40 H 0.2734 0.7516 0.4136
H41 H 0.3770 0.6580 0.4414
H42 H 0.1948 0.6384 0.4559
C41 C 0.6325(6) 0.4222(4) 0.3564(3)
H43 H 0.6419 0.4225 0.3004
H44 H 0.5603 0.3658 0.3957
H45 H 0.7334 0.4143 0.3707
C42 C 0.0832(6) 0.4320(4) 0.3602(3)
H46 H 0.0270 0.3651 0.3873
H47 H 0.1071 0.4497 0.3002
H48 H 0.0198 0.4825 0.3740
Si2A Si 0.62209(16) 0.45312(12) -0.32859(7)
O2A O 0.7873(4) 0.5409(3) -0.11100(15)
N3A N 0.7395(5) 0.5949(3) 0.0334(2)
C22A C 0.6437(5) 0.5204(4) -0.0557(2)
C23A C 1.1780(6) 0.6470(4) -0.1338(3)
H25A H 1.2764 0.6569 -0.1698
C24A C 0.6272(6) 0.5495(4) 0.0176(2)
C25A C 1.1577(6) 0.6780(4) -0.0656(3)
H26A H 1.2419 0.7098 -0.0565
C26A C 0.8839(6) 0.6155(4) -0.0232(2)
C27A C 0.9096(5) 0.5867(4) -0.0938(2)
C28A C 0.5271(6) 0.4750(4) -0.0743(2)
C29A C 1.0122(6) 0.6617(4) -0.0107(3)
C30A C 0.6923(6) 0.3268(4) -0.3314(2)
H27A H 0.6078 0.2745 -0.2944
C31A C 0.5831(5) 0.4469(4) -0.2190(2)
C32A C 0.4283(6) 0.4758(4) -0.3600(3)
H28A H 0.4446 0.4806 -0.4188
N4A N 0.9794(5) 0.7233(4) 0.1155(3)
C33A C 0.8385(6) 0.2936(4) -0.2957(3)
H29A H 0.9277 0.3392 -0.3322
H30A H 0.8228 0.2967 -0.2405
H31A H 0.8568 0.2242 -0.2922
C34A C 0.9911(6) 0.6957(4) 0.0607(3)
C35A C 0.5524(5) 0.4553(4) -0.1513(3)
C36A C 0.7638(5) 0.5703(4) -0.3907(2)
H32A H 0.7106 0.6289 -0.3818
C37A C 1.0537(6) 0.6015(4) -0.1489(3)
H33A H 1.0665 0.5813 -0.1951
C38A C 0.3032(6) 0.3864(4) -0.3065(3)
H34A H 0.2039 0.4044 -0.3210
H35A H 0.3332 0.3252 -0.3173
H36A H 0.2946 0.3737 -0.2478
C39A C 0.7965(6) 0.5948(4) -0.4867(2)
H37A H 0.8532 0.5411 -0.4994
H38A H 0.6988 0.5989 -0.5044
H39A H 0.8577 0.6597 -0.5161
C40A C 0.7138(6) 0.3190(4) -0.4188(3)
H40A H 0.7266 0.2484 -0.4136
H41A H 0.6230 0.3420 -0.4414
H42A H 0.8052 0.3616 -0.4559
C41A C 0.3675(6) 0.5778(4) -0.3564(3)
H43A H 0.3581 0.5775 -0.3004
H44A H 0.4397 0.6342 -0.3957
H45A H 0.2666 0.5857 -0.3707
C42A C 0.9168(6) 0.5680(4) -0.3602(3)
H46A H 0.9730 0.6349 -0.3873
H47A H 0.8929 0.5503 -0.3002
H48A H 0.9802 0.5175 -0.3740
loop_
_geom_bond_atom_site_label_1
_geom_bond_atom_site_label_2
_geom_bond_site_symmetry_1
_geom_bond_site_symmetry_2
C1 H1 1_555 1_555
C2 C1 1_555 1_555
H2 C2 1_555 1_555
H3 C2 1_555 1_555
H4 C2 1_555 1_555
C3 C1 1_555 1_555
H5 C3 1_555 1_555
H6 C3 1_555 1_555
H7 C3 1_555 1_555
Si1 C1 1_555 1_555
O1 C4 1_555 1_555
C4 C5 1_555 1_555
C5 N1 1_555 1_555
N1 C6 1_555 1_555
C6 C7 1_555 1_555
C7 O1 1_555 1_555
C8 H8 1_555 1_555
C9 N2 1_555 1_555
C10 C8 1_555 1_555
H9 C10 1_555 1_555
C11 C6 1_555 1_555
C12 C4 1_555 1_555
C13 C7 1_555 1_555
H10 C13 1_555 1_555
C14 Si1 1_555 1_555
C15 C12 1_555 1_555
C16 H11 1_555 1_555
H12 C16 1_555 1_555
H13 C16 1_555 1_555
C17 Si1 1_555 1_555
H14 C17 1_555 1_555
C18 Si1 1_555 1_555
H15 C18 1_555 1_555
C19 C18 1_555 1_555
H16 C19 1_555 1_555
H17 C19 1_555 1_555
H18 C19 1_555 1_555
C20 C17 1_555 1_555
H19 C20 1_555 1_555
H20 C20 1_555 1_555
H21 C20 1_555 1_555
C21 C17 1_555 1_555
H22 C21 1_555 1_555
H23 C21 1_555 1_555
H24 C21 1_555 1_555
Si2 C30 1_555 1_555
O2 C22 1_555 1_555
N3 C24 1_555 1_555
C22 C24 1_555 1_555
C23 H25 1_555 1_555
C24 C28A 1_555 1_555
C25 C23 1_555 1_555
H26 C25 1_555 1_555
C26 N3 1_555 1_555
C27 O2 1_555 1_555
C28 C22 1_555 1_555
C29 C25 1_555 1_555
C30 H27 1_555 1_555
C31 Si2 1_555 1_555
C32 Si2 1_555 1_555
H28 C32 1_555 1_555
N4 C34 1_555 1_555
C33 C30 1_555 1_555
H29 C33 1_555 1_555
H30 C33 1_555 1_555
H31 C33 1_555 1_555
C34 C29 1_555 1_555
C35 C28 1_555 1_555
C36 Si2 1_555 1_555
H32 C36 1_555 1_555
C37 C23 1_555 1_555
H33 C37 1_555 1_555
C38 C32 1_555 1_555
H34 C38 1_555 1_555
H35 C38 1_555 1_555
H36 C38 1_555 1_555
C39 C36 1_555 1_555
H37 C39 1_555 1_555
H38 C39 1_555 1_555
H39 C39 1_555 1_555
C40 C30 1_555 1_555
H40 C40 1_555 1_555
H41 C40 1_555 1_555
H42 C40 1_555 1_555
C41 C32 1_555 1_555
H43 C41 1_555 1_555
H44 C41 1_555 1_555
H45 C41 1_555 1_555
C42 C36 1_555 1_555
H46 C42 1_555 1_555
H47 C42 1_555 1_555
H48 C42 1_555 1_555
C1A H1A 1_555 1_555
C2A C1A 1_555 1_555
H2A C2A 1_555 1_555
H3A C2A 1_555 1_555
H4A C2A 1_555 1_555
C3A C1A 1_555 1_555
H5A C3A 1_555 1_555
H6A C3A 1_555 1_555
H7A C3A 1_555 1_555
Si1A C1A 1_555 1_555
O1A C4A 1_555 1_555
C4A C5A 1_555 1_555
C5A C12 1_555 1_555
N1A C5A 1_555 1_555
C6A N1A 1_555 1_555
C7A O1A 1_555 1_555
C8A H8A 1_555 1_555
C9A N2A 1_555 1_555
C10A C8A 1_555 1_555
H9A C10A 1_555 1_555
C11A C6A 1_555 1_555
C12A C5 1_555 1_555
C13A C7A 1_555 1_555
H10A C13A 1_555 1_555
C14A Si1A 1_555 1_555
C15A C12A 1_555 1_555
C16A H11A 1_555 1_555
H12A C16A 1_555 1_555
H13A C16A 1_555 1_555
C17A Si1A 1_555 1_555
H14A C17A 1_555 1_555
C18A Si1A 1_555 1_555
H15A C18A 1_555 1_555
C19A C18A 1_555 1_555
H16A C19A 1_555 1_555
H17A C19A 1_555 1_555
H18A C19A 1_555 1_555
C20A C17A 1_555 1_555
H19A C20A 1_555 1_555
H20A C20A 1_555 1_555
H21A C20A 1_555 1_555
C21A C17A 1_555 1_555
H22A C21A 1_555 1_555
H23A C21A 1_555 1_555
H24A C21A 1_555 1_555
Si2A C30A 1_555 1_555
O2A C22A 1_555 1_555
N3A C24A 1_555 1_555
C22A C24A 1_555 1_555
C23A H25A 1_555 1_555
C24A C28 1_555 1_555
C25A C23A 1_555 1_555
H26A C25A 1_555 1_555
C26A N3A 1_555 1_555
C27A O2A 1_555 1_555
C28A C22A 1_555 1_555
C29A C25A 1_555 1_555
C30A H27A 1_555 1_555
C31A Si2A 1_555 1_555
C32A Si2A 1_555 1_555
H28A C32A 1_555 1_555
N4A C34A 1_555 1_555
C33A C30A 1_555 1_555
H29A C33A 1_555 1_555
H30A C33A 1_555 1_555
H31A C33A 1_555 1_555
C34A C29A 1_555 1_555
C35A C28A 1_555 1_555
C36A Si2A 1_555 1_555
H32A C36A 1_555 1_555
C37A C23A 1_555 1_555
H33A C37A 1_555 1_555
C38A C32A 1_555 1_555
H34A C38A 1_555 1_555
H35A C38A 1_555 1_555
H36A C38A 1_555 1_555
C39A C36A 1_555 1_555
H37A C39A 1_555 1_555
H38A C39A 1_555 1_555
H39A C39A 1_555 1_555
C40A C30A 1_555 1_555
H40A C40A 1_555 1_555
H41A C40A 1_555 1_555
H42A C40A 1_555 1_555
C41A C32A 1_555 1_555
H43A C41A 1_555 1_555
H44A C41A 1_555 1_555
H45A C41A 1_555 1_555
C42A C36A 1_555 1_555
H46A C42A 1_555 1_555
H47A C42A 1_555 1_555
H48A C42A 1_555 1_555
C8 C13 1_555 1_555
C9 C11 1_555 1_555
C10 C11 1_555 1_555
C14 C15 1_555 1_555
C16 C18 1_555 1_555
C26 C27 1_555 1_555
C26 C29 1_555 1_555
C27 C37 1_555 1_555
C31 C35 1_555 1_555
C4A C12A 1_555 1_555
C6A C7A 1_555 1_555
C8A C13A 1_555 1_555
C9A C11A 1_555 1_555
C10A C11A 1_555 1_555
C14A C15A 1_555 1_555
C16A C18A 1_555 1_555
C26A C27A 1_555 1_555
C26A C29A 1_555 1_555
C27A C37A 1_555 1_555
C31A C35A 1_555 1_555

#END
