
#######################################################################
#
#                 Cambridge Crystallographic Data Centre
#                                CCDC 
#
#######################################################################
#
# If this CIF has been generated from an entry in the Cambridge 
# Structural Database, then it will include bibliographic, chemical, 
# crystal, experimental, refinement or atomic coordinate data resulting 
# from the CCDC's data processing and validation procedures.
#
#######################################################################

data_FUPPEM
_chemical_formula_moiety         'C16 H14 B1 F2 N3 O4'
_chemical_name_systematic        
1-(3-(4,4-difluoro-4-bora-3a,4a-diaza-s-indacen-8-yl)propionyloxy)pyrrolidine-2,5-dione
_symmetry_cell_setting           triclinic
_symmetry_space_group_name_H-M   'P -1'
_symmetry_Int_Tables_number      2
_space_group_name_Hall           '-P 1'
loop_
_symmetry_equiv_pos_site_id
_symmetry_equiv_pos_as_xyz
1 x,y,z
2 -x,-y,-z
_cell_length_a                   6.614(4)
_cell_length_b                   9.211(6)
_cell_length_c                   13.474(9)
_cell_angle_alpha                89.016(9)
_cell_angle_beta                 89.595(8)
_cell_angle_gamma                83.854(9)
_cell_volume                     816.007
_exptl_crystal_colour            red
_exptl_crystal_description       slice
_cell_formula_units_Z            2
loop_
_atom_site_label
_atom_site_type_symbol
_atom_site_fract_x
_atom_site_fract_y
_atom_site_fract_z
B1 B 0.8229(5) 0.8581(4) 0.5932(2)
C1 C 0.3796(5) 0.6400(3) 0.6297(2)
H1 H 0.2678 0.5967 0.6076
C2 C 0.5001(5) 0.7267(3) 0.5732(2)
H2 H 0.4800 0.7510 0.5064
C3 C 0.3743(5) 0.7513(3) 1.2814(2)
C4 C 0.0469(5) 0.6594(3) 1.2647(2)
H3 H 0.0342 0.5559 1.2596
H4 H -0.0833 0.7089 1.2848
C5 C 1.1801(5) 0.9623(3) 0.7861(2)
H5 H 1.2882 1.0101 0.8076
C6 C 1.0643(4) 0.8774(3) 0.8437(2)
H6 H 1.0802 0.8565 0.9112
C7 C 0.1139(5) 0.7202(3) 1.1677(2)
C8 C 0.2113(4) 0.6853(3) 1.3391(2)
H7 H 0.1560 0.7512 1.3903
H8 H 0.2656 0.5939 1.3703
C9 C 1.1059(4) 0.9633(3) 0.6903(2)
H9 H 1.1592 1.0118 0.6367
C10 C 0.6107(5) 0.7963(3) 0.9682(2)
H10 H 0.6995 0.8682 0.9875
H11 H 0.4993 0.8465 0.9304
C11 C 0.4576(4) 0.6312(3) 0.7239(2)
H12 H 0.4079 0.5807 0.7776
C12 C 0.7293(4) 0.6827(3) 0.9030(2)
H13 H 0.8606 0.6530 0.9327
H14 H 0.6560 0.5972 0.8995
C13 C 0.5283(4) 0.7288(3) 1.0590(2)
C14 C 0.6267(4) 0.7122(3) 0.72470(19)
C15 C 0.9171(4) 0.8283(3) 0.7808(2)
C16 C 0.7602(4) 0.7412(3) 0.7996(2)
F1 F 0.7456(3) 0.9875(2) 0.54915(16)
F2 F 0.9405(3) 0.7755(3) 0.52486(15)
N1 N 0.2945(4) 0.7758(3) 1.18614(17)
N2 N 0.6487(4) 0.7696(2) 0.62925(17)
N3 N 0.9469(3) 0.8850(2) 0.68509(16)
O1 O 0.0357(4) 0.7238(3) 1.0867(2)
O2 O 0.5384(4) 0.7802(3) 1.30583(19)
O3 O 0.5557(4) 0.6068(2) 1.08790(16)
O4 O 0.4028(3) 0.8354(2) 1.10971(16)
loop_
_geom_bond_atom_site_label_1
_geom_bond_atom_site_label_2
_geom_bond_site_symmetry_1
_geom_bond_site_symmetry_2
B1 F1 1_555 1_555
C1 H1 1_555 1_555
C2 C1 1_555 1_555
H2 C2 1_555 1_555
C3 C8 1_555 1_555
C4 H3 1_555 1_555
H4 C4 1_555 1_555
C5 H5 1_555 1_555
C6 C5 1_555 1_555
H6 C6 1_555 1_555
C7 C4 1_555 1_555
C8 C4 1_555 1_555
H7 C8 1_555 1_555
H8 C8 1_555 1_555
C9 C5 1_555 1_555
H9 C9 1_555 1_555
C10 H10 1_555 1_555
H11 C10 1_555 1_555
C11 C1 1_555 1_555
H12 C11 1_555 1_555
C12 C10 1_555 1_555
H13 C12 1_555 1_555
H14 C12 1_555 1_555
C13 C10 1_555 1_555
C14 C11 1_555 1_555
C15 C6 1_555 1_555
C16 C12 1_555 1_555
F2 B1 1_555 1_555
N1 C3 1_555 1_555
N2 B1 1_555 1_555
N3 B1 1_555 1_555
O1 C7 1_555 1_555
O2 C3 1_555 1_555
O3 C13 1_555 1_555
O4 C13 1_555 1_555
C2 N2 1_555 1_555
C7 N1 1_555 1_555
C9 N3 1_555 1_555
C14 C16 1_555 1_555
C14 N2 1_555 1_555
C15 C16 1_555 1_555
C15 N3 1_555 1_555
N1 O4 1_555 1_555

#END
