
#######################################################################
#
#                 Cambridge Crystallographic Data Centre
#                                CCDC 
#
#######################################################################
#
# If this CIF has been generated from an entry in the Cambridge 
# Structural Database, then it will include bibliographic, chemical, 
# crystal, experimental, refinement or atomic coordinate data resulting 
# from the CCDC's data processing and validation procedures.
#
#######################################################################

data_FUPQUE
_chemical_name_common            
'3-(4-(benzyloxy)-3,5-dichlorophenyl)-1-methoxy-1-oxopropan-2-aminium chloride'
_chemical_formula_moiety         'C17 H18 Cl2 N1 O3 1+,Cl1 1-'
_chemical_name_systematic        
'methyl (S)-2-amino-3-(4-(benzyloxy)-3,5-dichlorophenyl)propanoate chloride'
_symmetry_cell_setting           monoclinic
_symmetry_space_group_name_H-M   'P 21'
_symmetry_Int_Tables_number      4
_space_group_name_Hall           'P 2yb'
loop_
_symmetry_equiv_pos_site_id
_symmetry_equiv_pos_as_xyz
1 x,y,z
2 -x,1/2+y,-z
_cell_length_a                   5.1110(2)
_cell_length_b                   8.7806(3)
_cell_length_c                   22.2962(9)
_cell_angle_alpha                90
_cell_angle_beta                 95.846(4)
_cell_angle_gamma                90
_cell_volume                     995.397
_exptl_crystal_colour            colorless
_cell_formula_units_Z            2
loop_
_atom_site_label
_atom_site_type_symbol
_atom_site_fract_x
_atom_site_fract_y
_atom_site_fract_z
Cl1 Cl 1.3736(2) 0.24148(15) 0.46160(6)
Cl2 Cl 0.7303(6) -0.2681(3) 0.78625(10)
Cl3 Cl 1.3967(7) 0.2052(5) 0.82327(11)
C1 C 0.8702(8) 0.0865(5) 0.5757(2)
H1 H 0.7105 0.0351 0.5860
N1 N 0.8818(7) 0.0783(4) 0.51013(16)
H2 H 0.8867 -0.0188 0.4988
H3 H 1.0256 0.1258 0.5006
H4 H 0.7401 0.1229 0.4913
C2 C 0.8613(8) 0.2528(6) 0.5944(2)
O1 O 1.0507(11) -0.0374(7) 0.85984(18)
C3 C 1.1106(9) 0.0070(6) 0.6077(2)
H5 H 1.1248 -0.0938 0.5906
H6 H 1.2669 0.0637 0.6002
C4 C 1.0698(13) -0.0286(8) 0.7991(3)
C5 C 0.9459(12) -0.1180(6) 0.6980(3)
H7 H 0.8510 -0.1857 0.6721
C6 C 1.2220(14) 0.0795(10) 0.7755(3)
C7 C 1.2357(13) 0.0918(8) 0.7139(3)
H8 H 1.3367 0.1684 0.6990
C8 C 1.2432(18) -0.1093(12) 0.9586(3)
C9 C 1.212(2) -0.0847(13) 1.0805(4)
H9 H 1.1973 -0.0755 1.1216
C10 C 1.1021(9) -0.0077(6) 0.6750(2)
C11 C 1.408(2) -0.0194(16) 0.9938(5)
H10 H 1.5393 0.0327 0.9762
C12 C 1.066(3) -0.1911(17) 0.9864(4)
H11 H 0.9495 -0.2553 0.9636
C13 C 1.259(2) -0.1245(19) 0.8919(3)
H12 H 1.4276 -0.0878 0.8818
H13 H 1.2419 -0.2307 0.8803
C14 C 1.054(3) -0.1809(15) 1.0467(4)
H14 H 0.9353 -0.2413 1.0649
C15 C 0.9313(15) -0.1275(7) 0.7598(3)
C16 C 1.392(3) -0.0013(17) 1.0542(5)
H15 H 1.5025 0.0664 1.0768
O2 O 0.7098(8) 0.2714(4) 0.63817(18)
O3 O 0.9822(9) 0.3497(5) 0.5736(2)
C17 C 0.705(2) 0.4255(9) 0.6630(4)
H16 H 0.5888 0.4282 0.6943
H17 H 0.6431 0.4954 0.6316
H18 H 0.8787 0.4540 0.6794
loop_
_geom_bond_atom_site_label_1
_geom_bond_atom_site_label_2
_geom_bond_site_symmetry_1
_geom_bond_site_symmetry_2
Cl2 C15 1_555 1_555
Cl3 C6 1_555 1_555
C1 H1 1_555 1_555
N1 C1 1_555 1_555
H2 N1 1_555 1_555
H3 N1 1_555 1_555
H4 N1 1_555 1_555
C2 C1 1_555 1_555
O1 C4 1_555 1_555
C3 C1 1_555 1_555
H5 C3 1_555 1_555
H6 C3 1_555 1_555
C4 C6 1_555 1_555
C5 H7 1_555 1_555
C6 C7 1_555 1_555
C7 H8 1_555 1_555
C8 C11 1_555 1_555
C9 H9 1_555 1_555
C10 C3 1_555 1_555
C11 H10 1_555 1_555
C12 C8 1_555 1_555
H11 C12 1_555 1_555
C13 O1 1_555 1_555
H12 C13 1_555 1_555
H13 C13 1_555 1_555
C14 C9 1_555 1_555
H14 C14 1_555 1_555
C15 C4 1_555 1_555
C16 C9 1_555 1_555
H15 C16 1_555 1_555
O2 C2 1_555 1_555
O3 C2 1_555 1_555
C17 O2 1_555 1_555
H16 C17 1_555 1_555
H17 C17 1_555 1_555
H18 C17 1_555 1_555
C5 C10 1_555 1_555
C5 C15 1_555 1_555
C7 C10 1_555 1_555
C8 C13 1_555 1_555
C11 C16 1_555 1_555
C12 C14 1_555 1_555

#END
