
#######################################################################
#
#                 Cambridge Crystallographic Data Centre
#                                CCDC 
#
#######################################################################
#
# If this CIF has been generated from an entry in the Cambridge 
# Structural Database, then it will include bibliographic, chemical, 
# crystal, experimental, refinement or atomic coordinate data resulting 
# from the CCDC's data processing and validation procedures.
#
#######################################################################

data_FUPTIV
_chemical_formula_moiety         'C15 H14 O2'
_chemical_name_systematic        
5-methyl-2-phenylbicyclo[3.2.1]oct-2-ene-6,8-dione
_symmetry_cell_setting           monoclinic
_symmetry_space_group_name_H-M   'P 21/n'
_symmetry_Int_Tables_number      14
_space_group_name_Hall           '-P 2yn'
loop_
_symmetry_equiv_pos_site_id
_symmetry_equiv_pos_as_xyz
1 x,y,z
2 1/2-x,1/2+y,1/2-z
3 -x,-y,-z
4 1/2+x,1/2-y,1/2+z
_cell_length_a                   12.495(3)
_cell_length_b                   6.0403(12)
_cell_length_c                   16.070(3)
_cell_angle_alpha                90
_cell_angle_beta                 104.06(3)
_cell_angle_gamma                90
_cell_volume                     1176.52
_cell_formula_units_Z            4
loop_
_atom_site_label
_atom_site_type_symbol
_atom_site_fract_x
_atom_site_fract_y
_atom_site_fract_z
C1 C 0.38807(18) 0.9900(3) 0.85371(14)
C2 C 0.4079(2) 0.8076(4) 0.90783(17)
H1 H 0.4614 0.7051 0.9026
C3 C 0.3081(2) 1.1389(4) 0.86533(19)
H2 H 0.2940 1.2645 0.8310
C4 C 0.3487(3) 0.7762(5) 0.96977(17)
H3 H 0.3632 0.6527 1.0053
C5 C 0.2701(2) 0.9230(5) 0.97918(19)
H4 H 0.2308 0.9010 1.0208
C6 C 0.2496(2) 1.1056(5) 0.9260(2)
H5 H 0.1955 1.2067 0.9314
C7 C 0.55870(16) 0.7971(3) 0.65552(13)
C8 C 0.56259(16) 0.9180(3) 0.79901(13)
H6 H 0.5983 0.8898 0.8594
C9 C 0.58178(16) 1.0461(3) 0.66136(13)
C10 C 0.62781(15) 1.0746(3) 0.75643(13)
C11 C 0.46661(17) 1.1611(3) 0.64324(14)
H7 H 0.4765 1.3186 0.6360
H8 H 0.4213 1.1045 0.5897
C12 C 0.55426(18) 0.7089(3) 0.74243(13)
H9 H 0.6153 0.6091 0.7646
H10 H 0.4855 0.6311 0.7395
C13 C 0.44869(17) 1.0223(3) 0.78627(14)
C14 C 0.40673(17) 1.1282(3) 0.71201(15)
H11 H 0.3356 1.1847 0.7029
C15 C 0.65022(19) 1.1312(4) 0.60266(15)
H12 H 0.6708 1.2821 0.6170
H13 H 0.6079 1.1234 0.5443
H14 H 0.7154 1.0422 0.6094
O1 O 0.69883(12) 1.2027(2) 0.79159(10)
O2 O 0.54426(15) 0.6912(2) 0.59054(10)
loop_
_geom_bond_atom_site_label_1
_geom_bond_atom_site_label_2
_geom_bond_site_symmetry_1
_geom_bond_site_symmetry_2
C1 C2 1_555 1_555
C2 H1 1_555 1_555
C3 C1 1_555 1_555
H2 C3 1_555 1_555
C4 C2 1_555 1_555
H3 C4 1_555 1_555
C5 C4 1_555 1_555
H4 C5 1_555 1_555
C6 C3 1_555 1_555
H5 C6 1_555 1_555
C7 C9 1_555 1_555
C8 H6 1_555 1_555
C9 C10 1_555 1_555
C10 C8 1_555 1_555
C11 C9 1_555 1_555
H7 C11 1_555 1_555
H8 C11 1_555 1_555
C12 C7 1_555 1_555
H9 C12 1_555 1_555
H10 C12 1_555 1_555
C13 C1 1_555 1_555
C14 C11 1_555 1_555
H11 C14 1_555 1_555
C15 C9 1_555 1_555
H12 C15 1_555 1_555
H13 C15 1_555 1_555
H14 C15 1_555 1_555
O1 C10 1_555 1_555
O2 C7 1_555 1_555
C5 C6 1_555 1_555
C8 C12 1_555 1_555
C8 C13 1_555 1_555
C13 C14 1_555 1_555

#END
