
#######################################################################
#
#                 Cambridge Crystallographic Data Centre
#                                CCDC 
#
#######################################################################
#
# If this CIF has been generated from an entry in the Cambridge 
# Structural Database, then it will include bibliographic, chemical, 
# crystal, experimental, refinement or atomic coordinate data resulting 
# from the CCDC's data processing and validation procedures.
#
#######################################################################

data_FUQCUP
_chemical_formula_moiety         'C14 H22 O3 S2 Si2'
_chemical_name_systematic        
Spiro((2,5-dihydrofuran-2-one)-5,2'-(1',4'-bis(trimethylsilyl)-3',7'-dithiabicyclo(2.2.1)hept-5'-en-7'-one))
_symmetry_cell_setting           monoclinic
_symmetry_space_group_name_H-M   'P 21/a'
_symmetry_Int_Tables_number      14
_space_group_name_Hall           '-P 2yab'
loop_
_symmetry_equiv_pos_site_id
_symmetry_equiv_pos_as_xyz
1 x,y,z
2 1/2-x,1/2+y,-z
3 -x,-y,-z
4 1/2+x,1/2-y,z
_cell_length_a                   12.267(1)
_cell_length_b                   11.548(1)
_cell_length_c                   13.242(1)
_cell_angle_alpha                90
_cell_angle_beta                 91.13(1)
_cell_angle_gamma                90
_cell_volume                     1875.49
_exptl_crystal_colour            brown
_exptl_crystal_description       block
_cell_formula_units_Z            4
_exptl_crystal_recrystallization_method chloroform
loop_
_atom_site_label
_atom_site_type_symbol
_atom_site_fract_x
_atom_site_fract_y
_atom_site_fract_z
S1 S 0.80069(4) 0.11237(4) 0.16911(3)
S2 S 0.76248(4) 0.27045(4) 0.33245(4)
Si1 Si 0.85593(5) -0.11109(5) 0.29235(4)
Si2 Si 0.83590(4) 0.38073(5) 0.12735(4)
O1 O 0.6795(1) 0.1060(1) 0.1616(1)
O2 O 0.84070(10) 0.1142(1) 0.46815(9)
O3 O 0.8085(1) 0.0521(1) 0.6256(1)
C1 C 0.8459(1) 0.2549(1) 0.2203(1)
C2 C 0.9591(1) 0.2177(2) 0.2526(1)
C3 C 0.9616(1) 0.1117(2) 0.2905(1)
C4 C 0.8506(1) 0.0552(1) 0.2920(1)
C5 C 0.7813(1) 0.1191(2) 0.3719(1)
C6 C 0.6728(2) 0.0654(2) 0.3959(2)
C7 C 0.6704(2) 0.0348(2) 0.4917(2)
C8 C 0.7760(2) 0.0645(2) 0.5402(1)
C9 C 0.7209(2) -0.1725(2) 0.2577(2)
C10 C 0.9027(2) -0.1638(2) 0.4178(2)
C11 C 0.9589(3) -0.1479(2) 0.1970(2)
C12 C 0.6920(2) 0.4058(3) 0.0909(3)
C13 C 0.8961(2) 0.5095(2) 0.1914(2)
C14 C 0.9200(2) 0.3399(2) 0.0191(2)
H1 H 1.025(1) 0.265(2) 0.244(1)
H2 H 1.024(1) 0.074(1) 0.310(1)
H3 H 0.621(2) 0.061(2) 0.339(2)
H4 H 0.606(2) 0.002(2) 0.534(2)
H5 H 0.689(3) -0.127(3) 0.201(3)
H6 H 0.666(3) -0.157(4) 0.312(2)
H7 H 0.726(3) -0.245(3) 0.245(3)
H8 H 0.855(2) -0.155(3) 0.461(3)
H9 H 0.925(3) -0.245(3) 0.404(3)
H10 H 0.972(2) -0.123(3) 0.428(3)
H11 H 0.979(4) -0.232(3) 0.203(4)
H12 H 1.036(4) -0.114(4) 0.222(4)
H13 H 0.941(4) -0.123(5) 0.144(4)
H14 H 0.670(4) 0.339(3) 0.066(4)
H15 H 0.653(4) 0.424(4) 0.155(3)
H16 H 0.685(4) 0.471(4) 0.051(3)
H17 H 0.858(4) 0.540(5) 0.253(3)
H18 H 0.900(4) 0.580(4) 0.149(3)
H19 H 0.970(3) 0.498(4) 0.216(4)
H20 H 0.915(3) 0.402(3) -0.033(3)
H21 H 0.986(3) 0.332(3) 0.043(3)
H22 H 0.890(3) 0.273(3) -0.014(3)
loop_
_geom_bond_atom_site_label_1
_geom_bond_atom_site_label_2
_geom_bond_site_symmetry_1
_geom_bond_site_symmetry_2
S1 O1 1_555 1_555
S2 C1 1_555 1_555
Si1 C4 1_555 1_555
Si2 C1 1_555 1_555
O2 C5 1_555 1_555
O3 C8 1_555 1_555
C1 S1 1_555 1_555
C2 C1 1_555 1_555
C3 C2 1_555 1_555
C4 S1 1_555 1_555
C5 S2 1_555 1_555
C6 C5 1_555 1_555
C7 C6 1_555 1_555
C8 O2 1_555 1_555
C9 Si1 1_555 1_555
C10 Si1 1_555 1_555
C11 Si1 1_555 1_555
C12 Si2 1_555 1_555
C13 Si2 1_555 1_555
C14 Si2 1_555 1_555
H1 C2 1_555 1_555
H2 C3 1_555 1_555
H3 C6 1_555 1_555
H4 C7 1_555 1_555
H5 C9 1_555 1_555
H6 C9 1_555 1_555
H7 C9 1_555 1_555
H8 C10 1_555 1_555
H9 C10 1_555 1_555
H10 C10 1_555 1_555
H11 C11 1_555 1_555
H12 C11 1_555 1_555
H13 C11 1_555 1_555
H14 C12 1_555 1_555
H15 C12 1_555 1_555
H16 C12 1_555 1_555
H17 C13 1_555 1_555
H18 C13 1_555 1_555
H19 C13 1_555 1_555
H20 C14 1_555 1_555
H21 C14 1_555 1_555
H22 C14 1_555 1_555
C3 C4 1_555 1_555
C4 C5 1_555 1_555
C7 C8 1_555 1_555

#END
