
#######################################################################
#
#                 Cambridge Crystallographic Data Centre
#                                CCDC 
#
#######################################################################
#
# If this CIF has been generated from an entry in the Cambridge 
# Structural Database, then it will include bibliographic, chemical, 
# crystal, experimental, refinement or atomic coordinate data resulting 
# from the CCDC's data processing and validation procedures.
#
#######################################################################

data_FUQJAC
_chemical_formula_moiety         'C22 H22 O5'
_chemical_name_systematic        
2,6-bis(3-Methoxy-4-hydroxybenzylidene)cyclohexanone
_symmetry_cell_setting           monoclinic
_symmetry_space_group_name_H-M   'P 21/c'
_symmetry_Int_Tables_number      14
_space_group_name_Hall           '-P 2ybc'
loop_
_symmetry_equiv_pos_site_id
_symmetry_equiv_pos_as_xyz
1 x,y,z
2 -x,1/2+y,1/2-z
3 -x,-y,-z
4 x,1/2-y,1/2+z
_cell_length_a                   15.937(2)
_cell_length_b                   13.819(1)
_cell_length_c                   8.288(1)
_cell_angle_alpha                90
_cell_angle_beta                 91.710(7)
_cell_angle_gamma                90
_cell_volume                     1824.48
_exptl_crystal_colour            yellow-green
_exptl_crystal_description       needles
_cell_formula_units_Z            4
_exptl_crystal_recrystallization_method ethanol
loop_
_atom_site_label
_atom_site_type_symbol
_atom_site_fract_x
_atom_site_fract_y
_atom_site_fract_z
C1 C 0.5674(2) 0.4447(2) -0.1976(3)
C2 C 0.5049(2) 0.4922(2) -0.2844(3)
C3 C 0.4216(2) 0.4723(2) -0.2558(3)
C4 C 0.3995(2) 0.4015(2) -0.1435(3)
C5 C 0.4637(2) 0.3537(2) -0.0563(3)
C6 C 0.5462(2) 0.3759(2) -0.0830(3)
C7 C 0.3102(6) 0.3873(2) -0.1140(3)
C8 C 0.2686(2) 0.3089(2) -0.0627(3)
C9 C 0.1778(2) 0.3216(2) -0.0315(3)
C10 C 0.1274(2) 0.2384(2) 0.0226(3)
C11 C 0.1636(2) 0.1377(2) 0.0108(3)
C12 C 0.2412(2) 0.1324(2) -0.0924(4)
C13 C 0.3054(2) 0.2093(2) -0.0408(4)
C14 C 0.0526(2) 0.2613(2) 0.0849(3)
C15 C -0.0107(2) 0.2047(2) 0.1661(3)
C16 C -0.0795(2) 0.2572(2) 0.2228(3)
C17 C -0.1409(2) 0.2131(2) 0.3114(3)
C18 C -0.1352(2) 0.1142(2) 0.3450(3)
C19 C -0.0687(2) 0.0617(2) 0.2876(4)
C20 C -0.0064(2) 0.1057(2) 0.2000(4)
O1 O 0.6488(1) 0.4654(2) -0.2271(3)
O2 O 0.6149(1) 0.3368(2) -0.0032(3)
C21 C 0.6018(2) 0.2641(3) 0.1120(5)
O3 O 0.1454(1) 0.4035(1) -0.0438(3)
O4 O -0.1958(1) 0.0742(2) 0.4360(3)
O5 O -0.2087(1) 0.2594(2) 0.3738(8)
C22 C -0.2087(2) 0.3620(3) 0.3710(5)
loop_
_geom_bond_atom_site_label_1
_geom_bond_atom_site_label_2
_geom_bond_site_symmetry_1
_geom_bond_site_symmetry_2
C1 C2 1_555 1_555
C2 C3 1_555 1_555
C3 C4 1_555 1_555
C4 C5 1_555 1_555
C5 C6 1_555 1_555
C6 C1 1_555 1_555
C7 C4 1_555 1_555
C8 C7 1_555 1_555
C9 C8 1_555 1_555
C10 C9 1_555 1_555
C11 C10 1_555 1_555
C12 C11 1_555 1_555
C13 C8 1_555 1_555
C14 C10 1_555 1_555
C15 C14 1_555 1_555
C16 C15 1_555 1_555
C17 C16 1_555 1_555
C18 C17 1_555 1_555
C19 C18 1_555 1_555
C20 C15 1_555 1_555
O1 C1 1_555 1_555
O2 C6 1_555 1_555
C21 O2 1_555 1_555
O3 C9 1_555 1_555
O4 C18 1_555 1_555
O5 C17 1_555 1_555
C22 O5 1_555 1_555
C12 C13 1_555 1_555
C19 C20 1_555 1_555

#END
