
#######################################################################
#
#                 Cambridge Crystallographic Data Centre
#                                CCDC 
#
#######################################################################
#
# If this CIF has been generated from an entry in the Cambridge 
# Structural Database, then it will include bibliographic, chemical, 
# crystal, experimental, refinement or atomic coordinate data resulting 
# from the CCDC's data processing and validation procedures.
#
#######################################################################

data_FUQLUY
_chemical_formula_moiety         'C9 H8 N2 O6 S2'
_chemical_name_systematic        
"2,4-Dinitrophenyl-2'-methoxycarbonylmethyl disulfide"
_symmetry_cell_setting           triclinic
_symmetry_space_group_name_H-M   'P -1'
_symmetry_Int_Tables_number      2
_space_group_name_Hall           '-P 1'
loop_
_symmetry_equiv_pos_site_id
_symmetry_equiv_pos_as_xyz
1 x,y,z
2 -x,-y,-z
_cell_length_a                   8.1655(3)
_cell_length_b                   8.2415(3)
_cell_length_c                   9.3887(4)
_cell_angle_alpha                72.1417(15)
_cell_angle_beta                 83.3965(14)
_cell_angle_gamma                80.332(3)
_cell_volume                     591.479
_exptl_crystal_colour            yellow
_exptl_crystal_description       needle
_cell_formula_units_Z            2
loop_
_atom_site_label
_atom_site_type_symbol
_atom_site_fract_x
_atom_site_fract_y
_atom_site_fract_z
S1 S 0.31637(7) 0.86272(8) 0.91373(7)
S2 S 0.09158(7) 0.89766(8) 0.82419(7)
C1 C 0.4109(3) 1.0481(3) 0.7967(3)
C2 C 0.3239(3) 1.2169(3) 0.8142(3)
O1 O 0.2542(2) 1.3296(2) 0.7165(2)
O2 O 0.3370(2) 1.2272(2) 0.95141(18)
C3 C 0.2645(3) 1.3890(3) 0.9787(3)
C4 C 0.1368(3) 0.8092(3) 0.6714(3)
C5 C 0.0110(2) 0.7859(3) 0.5912(3)
N1 N -0.1648(2) 0.8353(3) 0.6329(2)
O3 O -0.19512(18) 0.9202(2) 0.7223(2)
O4 O -0.27220(19) 0.7932(2) 0.5763(2)
C6 C 0.0430(3) 0.7170(3) 0.4719(3)
C7 C 0.2073(3) 0.6735(3) 0.4288(3)
N2 N 0.2445(2) 0.6046(3) 0.3001(2)
O5 O 0.1278(2) 0.5881(3) 0.2372(2)
O6 O 0.39156(19) 0.5679(2) 0.2617(2)
C8 C 0.3360(3) 0.6936(3) 0.5019(3)
C9 C 0.3011(3) 0.7597(3) 0.6213(3)
H1 H 0.5280 1.0337 0.8215
H2 H 0.4116 1.0512 0.6904
H3 H 0.2800 1.3831 1.0822
H4 H 0.1453 1.4105 0.9628
H5 H 0.3193 1.4827 0.9094
H9 H -0.0449 0.7005 0.4219
H10 H 0.4482 0.6619 0.4698
H11 H 0.3906 0.7724 0.6715
H6? H 0.2165 1.4678 0.8874
H7? H 0.3511 1.4403 1.0068
H8? H 0.1771 1.3682 1.0602
loop_
_geom_bond_atom_site_label_1
_geom_bond_atom_site_label_2
_geom_bond_site_symmetry_1
_geom_bond_site_symmetry_2
S1 S2 1_555 1_555
S2 C4 1_555 1_555
C1 S1 1_555 1_555
C2 C1 1_555 1_555
O1 C2 1_555 1_555
O2 C2 1_555 1_555
C3 O2 1_555 1_555
C4 C5 1_555 1_555
C5 N1 1_555 1_555
N1 O3 1_555 1_555
O4 N1 1_555 1_555
C6 C5 1_555 1_555
C7 C6 1_555 1_555
N2 C7 1_555 1_555
O5 N2 1_555 1_555
O6 N2 1_555 1_555
C8 C7 1_555 1_555
C9 C4 1_555 1_555
H1 C1 1_555 1_555
H2 C1 1_555 1_555
H3 C3 1_555 1_555
H4 C3 1_555 1_555
H5 C3 1_555 1_555
H9 C6 1_555 1_555
H10 C8 1_555 1_555
H11 C9 1_555 1_555
C8 C9 1_555 1_555

#END
