
#######################################################################
#
#                 Cambridge Crystallographic Data Centre
#                                CCDC 
#
#######################################################################
#
# If this CIF has been generated from an entry in the Cambridge 
# Structural Database, then it will include bibliographic, chemical, 
# crystal, experimental, refinement or atomic coordinate data resulting 
# from the CCDC's data processing and validation procedures.
#
#######################################################################

data_FUQLEI
_chemical_formula_moiety         'C13 H11 N1 O2 S2'
_chemical_name_systematic        "2-Nitro-4'-methyldiphenyl disulfide"
_symmetry_cell_setting           monoclinic
_symmetry_space_group_name_H-M   'P 21/c'
_symmetry_Int_Tables_number      14
_space_group_name_Hall           '-P 2ybc'
loop_
_symmetry_equiv_pos_site_id
_symmetry_equiv_pos_as_xyz
1 x,y,z
2 x,1/2-y,1/2+z
3 -x,-y,-z
4 -x,1/2+y,1/2-z
_cell_length_a                   6.6384(2)
_cell_length_b                   24.4389(7)
_cell_length_c                   7.9478(3)
_cell_angle_alpha                90
_cell_angle_beta                 93.6346(10)
_cell_angle_gamma                90
_cell_volume                     1286.82
_exptl_crystal_colour            yellow
_exptl_crystal_description       block
_cell_formula_units_Z            4
loop_
_atom_site_label
_atom_site_type_symbol
_atom_site_fract_x
_atom_site_fract_y
_atom_site_fract_z
S1 S 0.20408(10) 0.56546(3) 0.30150(9)
S2 S 0.05205(9) 0.63845(3) 0.31321(9)
C1 C 0.3654(3) 0.56755(9) 0.4884(3)
C2 C 0.2964(4) 0.55147(11) 0.6414(4)
C3 C 0.4224(4) 0.55274(11) 0.7852(4)
C4 C 0.6219(4) 0.56912(10) 0.7816(3)
C5 C 0.6889(4) 0.58499(12) 0.6283(4)
C6 C 0.5642(3) 0.58387(11) 0.4836(3)
C7 C 0.7634(4) 0.56926(12) 0.9382(4)
C8 C 0.2108(3) 0.68762(10) 0.2224(3)
C9 C 0.1752(4) 0.74342(12) 0.2309(3)
C10 C 0.3051(5) 0.78207(12) 0.1674(4)
C11 C 0.4735(5) 0.76482(14) 0.0911(4)
C12 C 0.5092(4) 0.71019(13) 0.0762(3)
C13 C 0.3817(4) 0.67193(12) 0.1400(3)
N1 N -0.0005(5) 0.76411(14) 0.3107(3)
O1 O -0.1195(3) 0.73069(12) 0.3618(3)
O2 O -0.0218(4) 0.81352(12) 0.3256(3)
H1 H 0.1637 0.5397 0.6469
H2 H 0.3727 0.5424 0.8873
H3 H 0.8216 0.5967 0.6227
H4 H 0.6140 0.5942 0.3816
H5 H 0.8942 0.5818 0.9101
H6 H 0.7745 0.5328 0.9832
H7 H 0.7116 0.5932 1.0208
H11 H 0.2778 0.8192 0.1768
H12 H 0.5625 0.7902 0.0500
H13 H 0.6216 0.6985 0.0219
H14 H 0.4100 0.6349 0.1281
H8? H 0.6926 0.5568 1.0326
H9? H 0.8124 0.6057 0.9596
H10? H 0.8753 0.5453 0.9220
loop_
_geom_bond_atom_site_label_1
_geom_bond_atom_site_label_2
_geom_bond_site_symmetry_1
_geom_bond_site_symmetry_2
S1 S2 1_555 1_555
S2 C8 1_555 1_555
C1 S1 1_555 1_555
C2 C1 1_555 1_555
C3 C2 1_555 1_555
C4 C3 1_555 1_555
C5 C4 1_555 1_555
C6 C1 1_555 1_555
C7 C4 1_555 1_555
C8 C9 1_555 1_555
C9 C10 1_555 1_555
C10 C11 1_555 1_555
C11 C12 1_555 1_555
C12 C13 1_555 1_555
C13 C8 1_555 1_555
N1 C9 1_555 1_555
O1 N1 1_555 1_555
O2 N1 1_555 1_555
H1 C2 1_555 1_555
H2 C3 1_555 1_555
H3 C5 1_555 1_555
H4 C6 1_555 1_555
H5 C7 1_555 1_555
H6 C7 1_555 1_555
H7 C7 1_555 1_555
H11 C10 1_555 1_555
H12 C11 1_555 1_555
H13 C12 1_555 1_555
H14 C13 1_555 1_555
C5 C6 1_555 1_555

#END
