
#######################################################################
#
#                 Cambridge Crystallographic Data Centre
#                                CCDC 
#
#######################################################################
#
# If this CIF has been generated from an entry in the Cambridge 
# Structural Database, then it will include bibliographic, chemical, 
# crystal, experimental, refinement or atomic coordinate data resulting 
# from the CCDC's data processing and validation procedures.
#
#######################################################################

data_FURDAZ
_chemical_formula_moiety         'C19 H16 F1 N2 O2 S1 1+,Cl1 1-'
_chemical_name_systematic        
'4-(4-fluorophenyl)-3-(methoxycarbonyl)-2-methyl-1,4-dihydropyrimido[2,1-b][1,3]benzothiazol-5-ium chloride'
_symmetry_cell_setting           monoclinic
_symmetry_space_group_name_H-M   'P 21/c'
_symmetry_Int_Tables_number      14
_space_group_name_Hall           '-P 2ybc'
loop_
_symmetry_equiv_pos_site_id
_symmetry_equiv_pos_as_xyz
1 x,y,z
2 -x,1/2+y,1/2-z
3 -x,-y,-z
4 x,1/2-y,1/2+z
_cell_length_a                   12.629(3)
_cell_length_b                   6.7018(16)
_cell_length_c                   22.365(5)
_cell_angle_alpha                90
_cell_angle_beta                 104.819(4)
_cell_angle_gamma                90
_cell_volume                     1829.95
_exptl_crystal_colour            colorless
_exptl_crystal_description       hexagonal
_cell_formula_units_Z            4
loop_
_atom_site_label
_atom_site_type_symbol
_atom_site_fract_x
_atom_site_fract_y
_atom_site_fract_z
S1 S 0.42219(4) 0.27100(8) -0.06760(2)
F1 F -0.19113(14) -0.0278(4) -0.22688(11)
O1 O 0.16886(17) -0.5772(3) -0.05458(10)
O2 O 0.16390(16) -0.4662(3) 0.03852(9)
N1 N 0.30969(14) -0.0517(3) -0.09630(8)
N2 N 0.34027(15) 0.0360(3) 0.00708(8)
C1 C 0.35150(16) 0.0694(3) -0.04945(9)
C2 C 0.23629(17) -0.2195(3) -0.09215(10)
H1 H 0.2614 -0.3385 -0.1100
C3 C 0.24162(18) -0.2603(3) -0.02451(10)
C4 C 0.28947(17) -0.1348(3) 0.02131(10)
C5 C 0.39314(17) 0.1841(3) -0.14428(9)
C6 C 0.33346(17) 0.0090(3) -0.15173(9)
C7 C 0.30513(19) -0.0892(4) -0.20792(11)
H2 H 0.2655 -0.2077 -0.2129
C8 C 0.3381(2) -0.0040(4) -0.25623(11)
H3 H 0.3199 -0.0665 -0.2946
C9 C 0.3973(2) 0.1712(4) -0.24929(11)
H4 H 0.4186 0.2239 -0.2829
C10 C 0.42540(19) 0.2692(4) -0.19324(10)
H5 H 0.4646 0.3882 -0.1885
C11 C 0.12027(18) -0.1703(3) -0.12911(10)
C12 C 0.0598(2) -0.3024(4) -0.17198(11)
H6 H 0.0902 -0.4240 -0.1788
C13 C -0.0459(2) -0.2545(6) -0.20490(13)
H7 H -0.0870 -0.3433 -0.2336
C14 C -0.0880(2) -0.0768(6) -0.19448(15)
C15 C -0.0314(2) 0.0578(5) -0.15295(16)
H8 H -0.0625 0.1794 -0.1468
C16 C 0.0737(2) 0.0091(4) -0.12015(12)
H9 H 0.1137 0.0992 -0.0915
C17 C 0.18915(19) -0.4505(4) -0.01554(12)
C18 C 0.1203(3) -0.6575(5) 0.05161(18)
H10 H 0.0647 -0.7006 0.0161
H11 H 0.0891 -0.6438 0.0863
H12 H 0.1782 -0.7543 0.0610
C19 C 0.3000(2) -0.1557(4) 0.08928(11)
H13 H 0.2292 -0.1403 0.0973
H14 H 0.3486 -0.0549 0.1113
H15 H 0.3287 -0.2853 0.1028
H16 H 0.3718(19) 0.122(3) 0.0359(10)
Cl1 Cl 0.45394(6) 0.34287(10) 0.09548(3)
loop_
_geom_bond_atom_site_label_1
_geom_bond_atom_site_label_2
_geom_bond_site_symmetry_1
_geom_bond_site_symmetry_2
S1 C1 1_555 1_555
F1 C14 1_555 1_555
O1 C17 1_555 1_555
O2 C17 1_555 1_555
N1 C1 1_555 1_555
N2 C1 1_555 1_555
C2 N1 1_555 1_555
H1 C2 1_555 1_555
C3 C2 1_555 1_555
C4 N2 1_555 1_555
C5 S1 1_555 1_555
C6 N1 1_555 1_555
C7 C6 1_555 1_555
H2 C7 1_555 1_555
C8 C7 1_555 1_555
H3 C8 1_555 1_555
C9 C8 1_555 1_555
H4 C9 1_555 1_555
C10 C5 1_555 1_555
H5 C10 1_555 1_555
C11 C2 1_555 1_555
C12 C11 1_555 1_555
H6 C12 1_555 1_555
C13 C12 1_555 1_555
H7 C13 1_555 1_555
C14 C13 1_555 1_555
C15 C14 1_555 1_555
H8 C15 1_555 1_555
C16 C11 1_555 1_555
H9 C16 1_555 1_555
C17 C3 1_555 1_555
C18 O2 1_555 1_555
H10 C18 1_555 1_555
H11 C18 1_555 1_555
H12 C18 1_555 1_555
C19 C4 1_555 1_555
H13 C19 1_555 1_555
H14 C19 1_555 1_555
H15 C19 1_555 1_555
H16 N2 1_555 1_555
C3 C4 1_555 1_555
C5 C6 1_555 1_555
C9 C10 1_555 1_555
C15 C16 1_555 1_555

#END
