
#######################################################################
#
#                 Cambridge Crystallographic Data Centre
#                                CCDC 
#
#######################################################################
#
# If this CIF has been generated from an entry in the Cambridge 
# Structural Database, then it will include bibliographic, chemical, 
# crystal, experimental, refinement or atomic coordinate data resulting 
# from the CCDC's data processing and validation procedures.
#
#######################################################################

data_FURHOR
_chemical_formula_moiety         'C24 H40 O16,3.5(H2 O1)'
_chemical_name_systematic        
'2-((4,5-dihydroxy-2-((6-hydroxy-2-methyl-5-((3,4,5-trihydroxy-6-methyltetrahydro-2H-pyran-2-yl)oxy)-3,6-dihydro-2H-pyran-3-yl)oxy)-6-methyltetrahydro-2H-pyran-3-yl)oxy)-6-methyltetrahydro-2H-pyran-3,4,5-triol hydrate'
_symmetry_cell_setting           triclinic
_symmetry_space_group_name_H-M   'P 1'
_symmetry_Int_Tables_number      1
_space_group_name_Hall           'P 1'
loop_
_symmetry_equiv_pos_site_id
_symmetry_equiv_pos_as_xyz
1 x,y,z
_cell_length_a                   9.2541(4)
_cell_length_b                   12.590(1)
_cell_length_c                   13.7790(9)
_cell_angle_alpha                101.687(6)
_cell_angle_beta                 97.020(5)
_cell_angle_gamma                92.713(5)
_cell_volume                     1556.01
_cell_formula_units_Z            2
loop_
_atom_site_label
_atom_site_type_symbol
_atom_site_fract_x
_atom_site_fract_y
_atom_site_fract_z
O1 O 0.3042(3) 0.5796(2) 0.6575(2)
O2 O 0.3646(3) 0.4357(2) 0.7232(2)
O3 O 0.3100(3) 0.3159(2) 0.5145(2)
O4 O 0.2150(3) 0.1222(2) 0.1738(2)
O5 O 0.1805(3) -0.0270(2) 0.2417(2)
O6 O 0.3547(4) 0.1607(2) 0.5696(2)
O7 O 0.1405(3) 0.7285(3) 0.9165(3)
O8 O 0.1903(4) 0.4998(3) 0.8775(3)
O9 O -0.0948(3) -0.1785(3) -0.0133(2)
O10 O -0.0297(4) 0.0515(3) 0.0283(3)
C1 C -0.0478(4) -0.1160(4) 0.0852(3)
O11 O 0.2358(4) 0.0978(3) 0.7409(3)
O12 O 0.4314(3) 0.3682(2) 0.2858(2)
C2 C 0.2570(5) 0.5097(4) 0.7179(3)
O13 O -0.0690(3) -0.2728(3) 0.1621(3)
O14 O 0.2157(4) 0.3470(3) 0.1758(3)
O15 O 0.3247(6) 0.3007(4) 0.8615(3)
C3 C 0.2020(5) 0.6599(4) 0.6455(4)
C4 C 0.2465(5) 0.5740(4) 0.8230(3)
O16 O 0.3301(3) 0.7926(3) 0.7844(3)
C5 C 0.2775(5) 0.2012(4) 0.2528(3)
C6 C 0.3814(5) 0.2753(3) 0.5937(3)
C7 C 0.3899(6) 0.2678(4) 0.7733(4)
C8 C 0.0780(5) -0.1107(4) 0.2566(3)
C9 C 0.1468(4) 0.6654(4) 0.8191(3)
C10 C 0.2960(5) 0.1992(4) 0.3492(3)
C11 C 0.1110(4) 0.0439(4) 0.1868(3)
C12 C 0.0498(5) -0.0174(4) 0.0807(3)
C13 C 0.1580(6) -0.1711(4) 0.3291(4)
C14 C 0.3358(5) 0.2952(4) 0.2122(3)
C15 C 0.3768(5) 0.2916(4) 0.4244(3)
C16 C 0.4354(5) 0.1104(4) 0.6429(4)
C17 C 0.3810(5) 0.3952(4) 0.3831(3)
C18 C 0.3227(5) 0.3211(3) 0.6894(3)
C19 C 0.0256(4) -0.1836(4) 0.1539(4)
C20 C 0.1932(5) 0.7337(4) 0.7469(4)
C21 C 0.2494(7) 0.7175(5) 0.5680(4)
C22 C 0.4214(9) -0.0104(5) 0.6001(6)
C23 C 0.3784(5) 0.1432(4) 0.7411(4)
C24 C 0.4849(6) 0.4853(4) 0.4459(4)
H1 H 0.220(3) 0.762(5) 0.938(2)
H2 H 0.242(5) 0.449(3) 0.876(5)
H3 H -0.176(3) -0.209(5) -0.0151(14)
H4 H -0.082(6) 0.0146(4) -0.021(3)
H5 H -0.1350(4) -0.0894(4) 0.1132(3)
H6 H 0.2390(11) 0.052(5) 0.776(5)
H7 H 0.1626(5) 0.4713(4) 0.6875(3)
H8 H -0.1511(19) -0.2527(14) 0.168(5)
H9 H 0.240(2) 0.4112(14) 0.179(5)
H10 H 0.332(10) 0.3673(5) 0.878(4)
H11 H 0.1055(5) 0.6223(4) 0.6199(4)
H12 H 0.3440(5) 0.6043(4) 0.8555(3)
H13 H 0.3171(5) 0.852(2) 0.819(4)
H14 H 0.4866(5) 0.2947(3) 0.6012(3)
H15 H 0.4937(6) 0.2924(4) 0.7887(4)
H16 H -0.0052(5) -0.0773(4) 0.2851(3)
H17 H 0.0483(4) 0.6323(4) 0.7923(3)
H18 H 0.2582(5) 0.1393(4) 0.3703(3)
H19 H 0.0334(4) 0.0786(4) 0.2213(3)
H20 H 0.1314(5) -0.0419(4) 0.0449(3)
H21 H 0.233(3) -0.210(3) 0.2982(12)
H22 H 0.201(4) -0.1200(6) 0.3884(14)
H23 H 0.0904(11) -0.222(3) 0.347(3)
H24 H 0.3890(5) 0.2664(4) 0.1565(3)
H25 H 0.4771(5) 0.2730(4) 0.4412(3)
H26 H 0.5386(5) 0.1365(4) 0.6512(4)
H27 H 0.2826(5) 0.4206(4) 0.3754(3)
H28 H 0.2161(5) 0.3086(3) 0.6800(3)
H29 H 0.1112(4) -0.2126(4) 0.1255(4)
H30 H 0.1195(5) 0.7855(4) 0.7382(4)
H31 H 0.346(2) 0.751(3) 0.5904(17)
H32 H 0.249(5) 0.6659(8) 0.5062(11)
H33 H 0.183(3) 0.772(3) 0.558(3)
H34 H 0.3213(14) -0.0374(10) 0.594(4)
H35 H 0.453(6) -0.0241(6) 0.535(2)
H36 H 0.481(5) -0.0465(7) 0.644(2)
H37 H 0.4429(5) 0.1159(4) 0.7909(4)
H38 H 0.5818(10) 0.4610(12) 0.452(3)
H39 H 0.484(4) 0.5471(13) 0.4150(17)
H40 H 0.456(3) 0.505(2) 0.5113(11)
O17 O 0.8471(3) 0.4299(2) 0.7498(2)
O18 O 0.8168(3) 0.5787(2) 0.6774(2)
O19 O 0.7887(4) 0.2049(3) 0.7493(3)
O20 O 0.6372(3) -0.2388(3) 0.1428(3)
O21 O 0.6886(3) -0.0325(3) 0.2732(2)
O22 O 0.4055(3) -0.1751(3) 0.0147(2)
O23 O 0.6268(3) 0.7300(3) 0.9196(2)
O24 O 0.7485(3) 0.1113(2) 0.2081(2)
O25 O 0.6221(4) 0.8244(3) 0.7430(3)
O26 O 0.6710(4) 0.4547(3) 0.2080(3)
O27 O 0.8485(3) 0.3804(2) 0.3677(2)
O28 O 0.7956(3) 0.2232(2) 0.4169(2)
O29 O 0.4995(4) 0.0530(3) 0.0557(3)
O30 O 0.9756(3) 0.1707(3) 0.6501(2)
C25 C 0.4580(4) -0.1124(4) 0.1119(3)
O31 O 0.6322(4) 0.4955(3) 0.8717(3)
C26 C 0.6373(4) 0.6693(3) 0.8220(3)
C27 C 0.8715(4) 0.3444(3) 0.6749(3)
C28 C 0.7174(5) 0.5680(3) 0.8298(3)
C29 C 0.7495(4) 0.5066(3) 0.7283(3)
C30 C 0.7251(5) 0.6621(4) 0.6586(3)
C31 C 0.8992(4) 0.2455(4) 0.5072(3)
C32 C 0.7070(4) 0.7357(3) 0.7581(3)
O32 O 0.6706(4) 0.2497(3) 0.0784(3)
C33 C 0.7400(4) 0.2250(3) 0.2436(3)
C34 C 0.5212(5) -0.1820(4) 0.1820(3)
C35 C 0.6310(4) 0.0391(4) 0.2139(3)
C36 C 0.9140(5) 0.2486(4) 0.7186(3)
C37 C 0.7938(7) 0.7231(5) 0.5886(4)
C38 C 0.5685(4) -0.0211(4) 0.1081(3)
C39 C 0.9090(5) 0.4315(4) 0.2954(3)
C40 C 0.8927(5) 0.1436(4) 0.5515(3)
C41 C 0.7824(5) 0.2810(4) 0.1627(3)
C42 C 0.8654(5) 0.3436(4) 0.5777(3)
C43 C 0.8046(5) 0.4041(4) 0.1986(3)
C44 C 0.9590(6) 0.0489(4) 0.4928(4)
C45 C 0.8458(5) 0.2655(3) 0.3397(3)
C46 C 0.5776(5) -0.1120(4) 0.2843(4)
C47 C 0.9357(8) 0.5495(5) 0.3395(5)
C48 C 0.6461(8) -0.1746(5) 0.3581(4)
H41 H 0.8110(14) 0.156(4) 0.779(5)
H42 H 0.6068(17) -0.3010(17) 0.115(4)
H43 H 0.4742(9) -0.201(5) -0.012(2)
H44 H 0.705(2) 0.764(4) 0.943(2)
H45 H 0.545(4) 0.819(3) 0.766(5)
H46 H 0.654(4) 0.488(5) 0.163(3)
H47 H 0.555(3) 0.107(2) 0.062(4)
H48 H 0.3744(4) -0.0791(4) 0.1397(3)
H49 H 0.616(7) 0.527(2) 0.927(2)
H50 H 0.5378(4) 0.6453(3) 0.7892(3)
H51 H 0.8100(5) 0.5897(3) 0.8738(3)
H52 H 0.6596(4) 0.4702(3) 0.6878(3)
H53 H 0.6292(5) 0.6286(4) 0.6256(3)
H54 H 0.9974(4) 0.2572(4) 0.4897(3)
H55 H 0.8039(4) 0.7652(3) 0.7925(3)
H56 H 0.706(2) 0.252(7) 0.0268(6)
H57 H 0.6401(4) 0.2400(3) 0.2559(3)
H58 H 0.4443(5) -0.2350(4) 0.1894(3)
H59 H 0.5554(4) 0.0794(4) 0.2460(3)
H60 H 0.9867(5) 0.2745(4) 0.7778(3)
H61 H 0.889(2) 0.755(3) 0.6198(15)
H62 H 0.803(5) 0.6735(9) 0.5271(14)
H63 H 0.733(3) 0.780(3) 0.575(3)
H64 H 0.6480(4) -0.0515(4) 0.0730(3)
H65 H 1.0025(5) 0.4015(4) 0.2833(3)
H66 H 0.7910(5) 0.1227(4) 0.5567(3)
H67 H 0.8743(5) 0.2539(4) 0.1428(3)
H68 H 0.8397(5) 0.4051(4) 0.5539(3)
H69 H 0.8514(5) 0.4329(4) 0.1482(3)
H70 H 1.0600(14) 0.0682(13) 0.491(3)
H71 H 0.951(4) -0.0122(12) 0.5242(19)
H72 H 0.908(3) 0.030(2) 0.4259(10)
H73 H 0.9439(5) 0.2430(3) 0.3300(3)
H74 H 0.4968(5) -0.0741(4) 0.3118(4)
H75 H 0.8451(11) 0.5793(10) 0.354(4)
H76 H 1.002(5) 0.5600(5) 0.400(2)
H77 H 0.977(6) 0.5854(8) 0.2930(17)
H78 H 0.729(3) -0.208(3) 0.3336(18)
H79 H 0.677(5) -0.1258(9) 0.4213(11)
H80 H 0.5761(19) -0.230(3) 0.366(3)
O33 O 0.2666(4) 0.9815(3) 0.8962(3)
H81 H 0.250(8) 1.039(3) 0.875(4)
H82 H 0.284(9) 0.932(4) 0.848(3)
O34 O 0.5420(4) 0.5525(3) 0.0627(3)
O35 O 0.8328(6) 0.3422(4) 0.9530(3)
O36 O 0.0005(5) 0.5444(4) 0.0268(3)
O37 O 0.7959(8) 0.0280(5) 0.8359(5)
H83 H 0.779(18) 0.029(11) 0.895(4)
H84 H 0.765(17) -0.033(7) 0.799(8)
O38 O 0.2764(5) 0.5498(4) 0.1427(4)
O39 O 0.1069(5) 0.2372(4) 0.9757(3)
loop_
_geom_bond_atom_site_label_1
_geom_bond_atom_site_label_2
_geom_bond_site_symmetry_1
_geom_bond_site_symmetry_2
O1 C2 1_555 1_555
O2 C2 1_555 1_555
O3 C6 1_555 1_555
O4 C5 1_555 1_555
O5 C8 1_555 1_555
O6 C6 1_555 1_555
O7 C9 1_555 1_555
O8 C4 1_555 1_555
O9 C1 1_555 1_555
O10 C12 1_555 1_555
C1 C12 1_555 1_555
O11 C23 1_555 1_555
O12 C14 1_555 1_555
C2 C4 1_555 1_555
O13 C19 1_555 1_555
O14 C14 1_555 1_555
O15 C7 1_555 1_555
C3 O1 1_555 1_555
C4 C9 1_555 1_555
O16 C20 1_555 1_555
C5 C10 1_555 1_555
C6 C18 1_555 1_555
C7 C18 1_555 1_555
C8 C13 1_555 1_555
C9 C20 1_555 1_555
C10 C15 1_555 1_555
C11 O4 1_555 1_555
C12 C11 1_555 1_555
C13 H21 1_555 1_555
C14 C5 1_555 1_555
C15 O3 1_555 1_555
C16 O6 1_555 1_555
C17 O12 1_555 1_555
C18 O2 1_555 1_555
C19 C1 1_555 1_555
C20 C3 1_555 1_555
C21 C3 1_555 1_555
C22 C16 1_555 1_555
C23 C7 1_555 1_555
C24 C17 1_555 1_555
H1 O7 1_555 1_555
H2 O8 1_555 1_555
H3 O9 1_555 1_555
H4 O10 1_555 1_555
H5 C1 1_555 1_555
H6 O11 1_555 1_555
H7 C2 1_555 1_555
H8 O13 1_555 1_555
H9 O14 1_555 1_555
H10 O15 1_555 1_555
H11 C3 1_555 1_555
H12 C4 1_555 1_555
H13 O16 1_555 1_555
H14 C6 1_555 1_555
H15 C7 1_555 1_555
H16 C8 1_555 1_555
H17 C9 1_555 1_555
H18 C10 1_555 1_555
H19 C11 1_555 1_555
H20 C12 1_555 1_555
H22 C13 1_555 1_555
H23 C13 1_555 1_555
H24 C14 1_555 1_555
H25 C15 1_555 1_555
H26 C16 1_555 1_555
H27 C17 1_555 1_555
H28 C18 1_555 1_555
H29 C19 1_555 1_555
H30 C20 1_555 1_555
H31 C21 1_555 1_555
H32 C21 1_555 1_555
H33 C21 1_555 1_555
H34 C22 1_555 1_555
H35 C22 1_555 1_555
H36 C22 1_555 1_555
H37 C23 1_555 1_555
H38 C24 1_555 1_555
H39 C24 1_555 1_555
H40 C24 1_555 1_555
O17 C27 1_555 1_555
O18 C29 1_555 1_555
O19 C36 1_555 1_555
O20 C34 1_555 1_555
O21 C35 1_555 1_555
O22 C25 1_555 1_555
O23 C26 1_555 1_555
O24 C33 1_555 1_555
O25 C32 1_555 1_555
O26 C43 1_555 1_555
O27 C39 1_555 1_555
O28 C31 1_555 1_555
O29 C38 1_555 1_555
O30 C36 1_555 1_555
C25 C34 1_555 1_555
O31 C28 1_555 1_555
C26 C28 1_555 1_555
C27 C36 1_555 1_555
C28 C29 1_555 1_555
C29 O17 1_555 1_555
C30 O18 1_555 1_555
C31 C40 1_555 1_555
C32 C26 1_555 1_555
O32 C41 1_555 1_555
C33 C41 1_555 1_555
C34 C46 1_555 1_555
C35 O24 1_555 1_555
C36 H60 1_555 1_555
C37 C30 1_555 1_555
C38 C25 1_555 1_555
C39 C43 1_555 1_555
C40 O30 1_555 1_555
C41 C43 1_555 1_555
C42 C27 1_555 1_555
C43 H69 1_555 1_555
C44 C40 1_555 1_555
C45 O27 1_555 1_555
C46 O21 1_555 1_555
C47 C39 1_555 1_555
C48 C46 1_555 1_555
H41 O19 1_555 1_555
H42 O20 1_555 1_555
H43 O22 1_555 1_555
H44 O23 1_555 1_555
H45 O25 1_555 1_555
H46 O26 1_555 1_555
H47 O29 1_555 1_555
H48 C25 1_555 1_555
H49 O31 1_555 1_555
H50 C26 1_555 1_555
H51 C28 1_555 1_555
H52 C29 1_555 1_555
H53 C30 1_555 1_555
H54 C31 1_555 1_555
H55 C32 1_555 1_555
H56 O32 1_555 1_555
H57 C33 1_555 1_555
H58 C34 1_555 1_555
H59 C35 1_555 1_555
H61 C37 1_555 1_555
H62 C37 1_555 1_555
H63 C37 1_555 1_555
H64 C38 1_555 1_555
H65 C39 1_555 1_555
H66 C40 1_555 1_555
H67 C41 1_555 1_555
H68 C42 1_555 1_555
H70 C44 1_555 1_555
H71 C44 1_555 1_555
H72 C44 1_555 1_555
H73 C45 1_555 1_555
H74 C46 1_555 1_555
H75 C47 1_555 1_555
H76 C47 1_555 1_555
H77 C47 1_555 1_555
H78 C48 1_555 1_555
H79 C48 1_555 1_555
H80 C48 1_555 1_555
O33 H81 1_555 1_555
H82 O33 1_555 1_555
O37 H83 1_555 1_555
H84 O37 1_555 1_555
O5 C11 1_555 1_555
C8 C19 1_555 1_555
C15 C17 1_555 1_555
C16 C23 1_555 1_555
O28 C45 1_555 1_555
C30 C32 1_555 1_555
C31 C42 1_555 1_555
C33 C45 1_555 1_555
C35 C38 1_555 1_555

#END
