
#######################################################################
#
#                 Cambridge Crystallographic Data Centre
#                                CCDC 
#
#######################################################################
#
# If this CIF has been generated from an entry in the Cambridge 
# Structural Database, then it will include bibliographic, chemical, 
# crystal, experimental, refinement or atomic coordinate data resulting 
# from the CCDC's data processing and validation procedures.
#
#######################################################################

data_FUSDOO
_chemical_formula_moiety         'C66 H38 N6 O4,C4 H10 O1'
_chemical_name_systematic        
'2,18-bis(diphenylmethylene)-7,13,23,29-tetraoxa-35,40-diazaheptacyclo[28.2.2.2^3,6^.2^14,17^.2^19,22^.1^8,12^.1^24,28^]dotetraconta-1(32),3,5,8(40),9,11,14,16,19,21,24(35),25,27,30,33,36,38,41-octadecaene-9,11,25,27-tetracarbonitrile diethyl ether solvate'
_symmetry_cell_setting           triclinic
_symmetry_space_group_name_H-M   'P -1'
_symmetry_Int_Tables_number      2
_space_group_name_Hall           '-P 1'
loop_
_symmetry_equiv_pos_site_id
_symmetry_equiv_pos_as_xyz
1 x,y,z
2 -x,-y,-z
_cell_length_a                   12.2726(17)
_cell_length_b                   15.102(2)
_cell_length_c                   15.213(2)
_cell_angle_alpha                90.795(2)
_cell_angle_beta                 101.799(2)
_cell_angle_gamma                93.906(2)
_cell_volume                     2752.49
_cell_formula_units_Z            2
loop_
_atom_site_label
_atom_site_type_symbol
_atom_site_fract_x
_atom_site_fract_y
_atom_site_fract_z
C1 C 0.5303(2) 0.35861(16) 0.40350(16)
C2 C 0.5585(2) 0.38846(16) 0.32326(17)
C3 C 0.4893(2) 0.35696(17) 0.24353(17)
H1 H 0.5044 0.3762 0.1877
C4 C 0.3985(2) 0.29781(17) 0.24471(16)
C5 C 0.3835(2) 0.26992(16) 0.32938(17)
C6 C 0.6545(2) 0.44931(18) 0.32556(18)
C7 C 0.3162(2) 0.27069(18) 0.16626(18)
C8 C 0.5722(2) 0.36678(16) 0.56453(17)
C9 C 0.6598(2) 0.33782(17) 0.62664(17)
H2 H 0.7312 0.3351 0.6122
C10 C 0.6428(2) 0.31283(16) 0.71006(16)
H3 H 0.7030 0.2930 0.7531
C11 C 0.5377(2) 0.31642(16) 0.73181(16)
C12 C 0.4526(2) 0.34954(17) 0.66916(17)
H4 H 0.3816 0.3542 0.6839
C13 C 0.4690(2) 0.37597(16) 0.58547(17)
H5 H 0.4106 0.3998 0.5436
C14 C 0.5146(2) 0.28463(17) 0.81916(16)
C15 C 0.5503(2) 0.20790(17) 0.85604(16)
C16 C 0.6079(2) 0.14176(16) 0.81147(17)
C17 C 0.5669(2) 0.11321(19) 0.72235(19)
H6 H 0.5019 0.1369 0.6887
C18 C 0.6209(3) 0.0499(2) 0.6824(2)
H7 H 0.5920 0.0305 0.6220
C19 C 0.7155(3) 0.01580(19) 0.7299(2)
H8 H 0.7528 -0.0262 0.7020
C20 C 0.7566(2) 0.04260(17) 0.81850(19)
H9 H 0.8216 0.0186 0.8517
C21 C 0.7024(2) 0.10476(17) 0.85881(18)
H10 H 0.7305 0.1223 0.9199
C22 C 0.5310(2) 0.18140(17) 0.94632(17)
C23 C 0.5845(2) 0.22653(19) 1.02466(18)
H11 H 0.6346 0.2768 1.0222
C24 C 0.5647(3) 0.1981(2) 1.1074(2)
H12 H 0.6040 0.2277 1.1613
C25 C 0.4884(3) 0.1274(2) 1.1114(2)
H13 H 0.4737 0.1097 1.1678
C26 C 0.4342(3) 0.0831(2) 1.0344(2)
H14 H 0.3808 0.0351 1.0368
C27 C 0.4574(2) 0.10851(18) 0.95217(19)
H15 H 0.4224 0.0755 0.8991
C28 C 0.4431(2) 0.34150(17) 0.86150(16)
C29 C 0.4684(2) 0.43250(17) 0.87398(16)
H16 H 0.5350 0.4584 0.8594
C30 C 0.3980(2) 0.48613(17) 0.90729(16)
H17 H 0.4161 0.5482 0.9158
C31 C 0.3013(2) 0.44821(17) 0.92797(16)
C32 C 0.2747(2) 0.35826(17) 0.91933(17)
H18 H 0.2092 0.3326 0.9359
C33 C 0.3466(2) 0.30599(18) 0.88558(18)
H19 H 0.3289 0.2437 0.8788
C34 C 0.1257(2) 0.51106(17) 0.92192(16)
C35 C 0.0700(2) 0.58264(16) 0.94752(17)
C36 C -0.0409(2) 0.58688(17) 0.90728(18)
H20 H -0.0811 0.6344 0.9224
C37 C -0.0939(2) 0.52205(17) 0.84489(18)
C38 C -0.0294(2) 0.45388(16) 0.82447(17)
C39 C 0.1272(2) 0.64825(18) 1.01326(19)
C40 C -0.2088(2) 0.52162(19) 0.8034(2)
C41 C -0.0203(2) 0.32151(16) 0.73901(17)
C42 C 0.0716(2) 0.34035(17) 0.70209(17)
H21 H 0.0995 0.4000 0.6974
C43 C 0.1224(2) 0.27037(17) 0.67190(17)
H22 H 0.1864 0.2826 0.6467
C44 C 0.0823(2) 0.18216(16) 0.67737(16)
C45 C -0.0124(2) 0.16641(16) 0.71426(16)
H23 H -0.0425 0.1072 0.7175
C46 C -0.0632(2) 0.23580(17) 0.74609(17)
H24 H -0.1264 0.2245 0.7724
C47 C 0.13879(19) 0.10948(16) 0.63969(16)
C48 C 0.1510(2) 0.02750(16) 0.67584(16)
C49 C 0.1211(2) 0.00180(17) 0.76294(17)
C50 C 0.1633(2) 0.0504(2) 0.84224(18)
H25 H 0.2105 0.1029 0.8416
C51 C 0.1365(3) 0.0223(2) 0.92308(19)
H26 H 0.1655 0.0556 0.9772
C52 C 0.0680(3) -0.0537(2) 0.9241(2)
H27 H 0.0506 -0.0731 0.9791
C53 C 0.0251(3) -0.1011(2) 0.8463(2)
H28 H -0.0234 -0.1527 0.8470
C54 C 0.0521(2) -0.07393(19) 0.76636(19)
H29 H 0.0227 -0.1080 0.7128
C55 C 0.2023(2) -0.04336(17) 0.63138(16)
C56 C 0.1629(2) -0.07032(17) 0.54200(17)
H30 H 0.0980 -0.0462 0.5088
C57 C 0.2161(2) -0.13134(18) 0.50043(18)
H31 H 0.1881 -0.1486 0.4392
C58 C 0.3108(2) -0.16736(19) 0.54880(19)
H32 H 0.3494 -0.2080 0.5205
C59 C 0.3482(2) -0.1433(2) 0.63854(18)
H33 H 0.4122 -0.1683 0.6720
C60 C 0.2937(2) -0.08326(17) 0.68036(18)
H34 H 0.3187 -0.0692 0.7426
C61 C 0.18404(19) 0.13463(16) 0.55839(16)
C62 C 0.1168(2) 0.17707(17) 0.48815(17)
H35 H 0.0425 0.1878 0.4919
C63 C 0.1569(2) 0.20337(17) 0.41374(17)
H36 H 0.1112 0.2325 0.3665
C64 C 0.2650(2) 0.18665(16) 0.40909(16)
C65 C 0.3339(2) 0.14464(17) 0.47704(17)
H37 H 0.4079 0.1335 0.4726
C66 C 0.2924(2) 0.11950(17) 0.55126(17)
H38 H 0.3390 0.0912 0.5987
N1 N 0.44628(17) 0.29974(13) 0.40622(13)
N2 N 0.7327(2) 0.49635(17) 0.32856(16)
N3 N 0.2456(2) 0.25051(17) 0.10567(16)
N4 N 0.07752(16) 0.44893(13) 0.86221(13)
N5 N 0.1719(2) 0.69961(17) 1.06711(17)
N6 N -0.3022(2) 0.52046(17) 0.7707(2)
O1 O 0.59508(14) 0.39282(12) 0.48057(11)
O2 O 0.23411(13) 0.50801(11) 0.96225(11)
O3 O -0.08155(13) 0.39039(11) 0.76464(12)
O4 O 0.29773(14) 0.20986(12) 0.32850(11)
C67 C 1.1571(4) 0.4580(3) 0.4243(3)
H39 H 1.2064 0.4155 0.4071
H40 H 1.1894 0.4827 0.4846
H41 H 1.1488 0.5061 0.3813
C68 C 1.0454(4) 0.4120(3) 0.4239(3)
H42 H 1.0528 0.3643 0.4683
H43 H 0.9947 0.4547 0.4403
C69 C 0.8997(3) 0.3196(2) 0.3335(2)
H44 H 0.8488 0.3501 0.3646
H45 H 0.9172 0.2632 0.3639
C70 C 0.8460(3) 0.3016(3) 0.2377(3)
H46 H 0.8190 0.3566 0.2106
H47 H 0.7831 0.2571 0.2336
H48 H 0.9006 0.2792 0.2056
O5 O 1.00084(19) 0.37510(15) 0.33642(15)
loop_
_geom_bond_atom_site_label_1
_geom_bond_atom_site_label_2
_geom_bond_site_symmetry_1
_geom_bond_site_symmetry_2
C1 C2 1_555 1_555
C2 C3 1_555 1_555
C3 H1 1_555 1_555
C4 C3 1_555 1_555
C5 C4 1_555 1_555
C6 C2 1_555 1_555
C7 C4 1_555 1_555
C8 C9 1_555 1_555
C9 H2 1_555 1_555
C10 C9 1_555 1_555
H3 C10 1_555 1_555
C11 C10 1_555 1_555
C12 C11 1_555 1_555
H4 C12 1_555 1_555
C13 C8 1_555 1_555
H5 C13 1_555 1_555
C14 C11 1_555 1_555
C15 C14 1_555 1_555
C16 C15 1_555 1_555
C17 C16 1_555 1_555
H6 C17 1_555 1_555
C18 C17 1_555 1_555
H7 C18 1_555 1_555
C19 C18 1_555 1_555
H8 C19 1_555 1_555
C20 C19 1_555 1_555
H9 C20 1_555 1_555
C21 C16 1_555 1_555
H10 C21 1_555 1_555
C22 C15 1_555 1_555
C23 C22 1_555 1_555
H11 C23 1_555 1_555
C24 C23 1_555 1_555
H12 C24 1_555 1_555
C25 C24 1_555 1_555
H13 C25 1_555 1_555
C26 C25 1_555 1_555
H14 C26 1_555 1_555
C27 C22 1_555 1_555
H15 C27 1_555 1_555
C28 C14 1_555 1_555
C29 C28 1_555 1_555
H16 C29 1_555 1_555
C30 C29 1_555 1_555
H17 C30 1_555 1_555
C31 C30 1_555 1_555
C32 C31 1_555 1_555
H18 C32 1_555 1_555
C33 C28 1_555 1_555
H19 C33 1_555 1_555
C34 C35 1_555 1_555
C35 C36 1_555 1_555
C36 H20 1_555 1_555
C37 C36 1_555 1_555
C38 C37 1_555 1_555
C39 C35 1_555 1_555
C40 C37 1_555 1_555
C41 C42 1_555 1_555
C42 H21 1_555 1_555
C43 C42 1_555 1_555
H22 C43 1_555 1_555
C44 C43 1_555 1_555
C45 C44 1_555 1_555
H23 C45 1_555 1_555
C46 C41 1_555 1_555
H24 C46 1_555 1_555
C47 C44 1_555 1_555
C48 C47 1_555 1_555
C49 C48 1_555 1_555
C50 C49 1_555 1_555
H25 C50 1_555 1_555
C51 C50 1_555 1_555
H26 C51 1_555 1_555
C52 C51 1_555 1_555
H27 C52 1_555 1_555
C53 C52 1_555 1_555
H28 C53 1_555 1_555
C54 C49 1_555 1_555
H29 C54 1_555 1_555
C55 C48 1_555 1_555
C56 C55 1_555 1_555
H30 C56 1_555 1_555
C57 C56 1_555 1_555
H31 C57 1_555 1_555
C58 C57 1_555 1_555
H32 C58 1_555 1_555
C59 C58 1_555 1_555
H33 C59 1_555 1_555
C60 C55 1_555 1_555
H34 C60 1_555 1_555
C61 C47 1_555 1_555
C62 C61 1_555 1_555
H35 C62 1_555 1_555
C63 C62 1_555 1_555
H36 C63 1_555 1_555
C64 C63 1_555 1_555
C65 C64 1_555 1_555
H37 C65 1_555 1_555
C66 C61 1_555 1_555
H38 C66 1_555 1_555
N1 C1 1_555 1_555
N2 C6 1_555 1_555
N3 C7 1_555 1_555
N4 C34 1_555 1_555
N5 C39 1_555 1_555
N6 C40 1_555 1_555
O1 C1 1_555 1_555
O2 C31 1_555 1_555
O3 C38 1_555 1_555
O4 C5 1_555 1_555
C67 H39 1_555 1_555
H40 C67 1_555 1_555
H41 C67 1_555 1_555
C68 C67 1_555 1_555
H42 C68 1_555 1_555
H43 C68 1_555 1_555
C69 H44 1_555 1_555
H45 C69 1_555 1_555
C70 C69 1_555 1_555
H46 C70 1_555 1_555
H47 C70 1_555 1_555
H48 C70 1_555 1_555
O5 C68 1_555 1_555
C5 N1 1_555 1_555
C8 O1 1_555 1_555
C12 C13 1_555 1_555
C20 C21 1_555 1_555
C26 C27 1_555 1_555
C32 C33 1_555 1_555
C34 O2 1_555 1_555
C38 N4 1_555 1_555
C41 O3 1_555 1_555
C45 C46 1_555 1_555
C53 C54 1_555 1_555
C59 C60 1_555 1_555
C64 O4 1_555 1_555
C65 C66 1_555 1_555
C69 O5 1_555 1_555

#END
