
#######################################################################
#
#                 Cambridge Crystallographic Data Centre
#                                CCDC 
#
#######################################################################
#
# If this CIF has been generated from an entry in the Cambridge 
# Structural Database, then it will include bibliographic, chemical, 
# crystal, experimental, refinement or atomic coordinate data resulting 
# from the CCDC's data processing and validation procedures.
#
#######################################################################

data_FUSJEI
_chemical_formula_moiety         'C9 H7 O2 1-,C11 H18 N1 1+'
_chemical_name_systematic        '1-(4-Isopropylphenyl)ethylammonium cinnamate'
_symmetry_cell_setting           orthorhombic
_symmetry_space_group_name_H-M   'P 21 21 21'
_symmetry_Int_Tables_number      19
_space_group_name_Hall           'P 2ac 2ab'
loop_
_symmetry_equiv_pos_site_id
_symmetry_equiv_pos_as_xyz
1 x,y,z
2 1/2+x,1/2-y,-z
3 -x,1/2+y,1/2-z
4 1/2-x,-y,1/2+z
_cell_length_a                   13.868(1)
_cell_length_b                   20.457(1)
_cell_length_c                   6.471(1)
_cell_angle_alpha                90
_cell_angle_beta                 90
_cell_angle_gamma                90
_cell_volume                     1835.81
_exptl_crystal_colour            colorless
_cell_formula_units_Z            4
loop_
_atom_site_label
_atom_site_type_symbol
_atom_site_fract_x
_atom_site_fract_y
_atom_site_fract_z
O1 O 0.1563(2) 0.3929(1) 0.1739(3)
O2 O 0.1974(1) 0.4288(1) 0.4829(3)
C1 C 0.1507(2) 0.3916(1) 0.3665(4)
C2 C 0.0843(2) 0.3424(2) 0.4530(5)
C3 C 0.0883(2) 0.3184(1) 0.6391(5)
C4 C 0.0203(2) 0.2704(1) 0.7306(5)
C5 C 0.0337(3) 0.2519(2) 0.9316(6)
C6 C -0.0295(3) 0.2108(2) 1.0291(6)
C7 C -0.1097(3) 0.1875(2) 0.9314(7)
C8 C -0.1244(3) 0.2047(2) 0.7290(7)
C9 C -0.0598(2) 0.2456(2) 0.6311(6)
H1 H 0.040(2) 0.326(2) 0.349(6)
H2 H 0.154(2) 0.332(2) 0.739(5)
H3 H 0.081(2) 0.264(1) 0.996(4)
H4 H -0.019(2) 0.211(1) 1.155(6)
H5 H -0.161(2) 0.162(2) 0.995(6)
H6 H -0.190(2) 0.183(2) 0.650(6)
H7 H -0.068(2) 0.255(1) 0.513(4)
N1 N 0.3393(1) 0.5147(1) 0.3670(3)
C10 C 0.4261(2) 0.4720(1) 0.3692(5)
C11 C 0.4405(2) 0.4462(2) 0.5870(6)
C12 C 0.5135(2) 0.5070(1) 0.2826(4)
C13 C 0.5500(2) 0.5638(1) 0.3730(5)
C14 C 0.6303(2) 0.5943(1) 0.2901(5)
C15 C 0.6769(2) 0.5692(1) 0.1179(5)
C16 C 0.6408(2) 0.5129(2) 0.0307(5)
C17 C 0.5603(2) 0.4823(2) 0.1111(5)
C18 C 0.7651(2) 0.6018(2) 0.0205(5)
C19 C 0.8151(2) 0.6501(2) 0.1580(7)
C20 C 0.7381(3) 0.6332(2) -0.1884(6)
H8 H 0.332(2) 0.533(1) 0.255(4)
H9 H 0.343(2) 0.544(1) 0.467(4)
H10 H 0.282(2) 0.488(1) 0.384(5)
H11 H 0.414(2) 0.432(1) 0.261(4)
H12 H 0.497(2) 0.413(1) 0.591(5)
H13 H 0.459(2) 0.469(1) 0.664(5)
H14 H 0.385(2) 0.424(1) 0.643(5)
H15 H 0.519(2) 0.582(1) 0.494(4)
H16 H 0.657(2) 0.641(1) 0.368(5)
H17 H 0.681(2) 0.497(1) -0.092(5)
H18 H 0.531(3) 0.435(1) 0.054(6)
H19 H 0.819(3) 0.564(1) -0.003(6)
H20 H 0.763(3) 0.680(2) 0.187(7)
H21 H 0.836(3) 0.632(2) 0.326(7)
H22 H 0.873(2) 0.665(2) 0.081(6)
H23 H 0.797(3) 0.650(2) -0.238(8)
H24 H 0.690(2) 0.670(2) -0.184(6)
H25 H 0.695(4) 0.600(2) -0.278(8)
loop_
_geom_bond_atom_site_label_1
_geom_bond_atom_site_label_2
_geom_bond_site_symmetry_1
_geom_bond_site_symmetry_2
O1 C1 1_555 1_555
O2 C1 1_555 1_555
C1 C2 1_555 1_555
C2 C3 1_555 1_555
C3 C4 1_555 1_555
C4 C5 1_555 1_555
C5 C6 1_555 1_555
C6 C7 1_555 1_555
C7 C8 1_555 1_555
C8 C9 1_555 1_555
C9 C4 1_555 1_555
H1 C2 1_555 1_555
H2 C3 1_555 1_555
H3 C5 1_555 1_555
H4 C6 1_555 1_555
H5 C7 1_555 1_555
H6 C8 1_555 1_555
H7 C9 1_555 1_555
N1 C10 1_555 1_555
C10 C11 1_555 1_555
C11 H12 1_555 1_555
C12 C10 1_555 1_555
C13 C12 1_555 1_555
C14 C13 1_555 1_555
C15 C14 1_555 1_555
C16 C15 1_555 1_555
C17 C12 1_555 1_555
C18 C15 1_555 1_555
C19 C18 1_555 1_555
C20 C18 1_555 1_555
H8 N1 1_555 1_555
H9 N1 1_555 1_555
H10 N1 1_555 1_555
H11 C10 1_555 1_555
H13 C11 1_555 1_555
H14 C11 1_555 1_555
H15 C13 1_555 1_555
H16 C14 1_555 1_555
H17 C16 1_555 1_555
H18 C17 1_555 1_555
H19 C18 1_555 1_555
H20 C19 1_555 1_555
H21 C19 1_555 1_555
H22 C19 1_555 1_555
H23 C20 1_555 1_555
H24 C20 1_555 1_555
H25 C20 1_555 1_555
C16 C17 1_555 1_555

#END
