
#######################################################################
#
#                 Cambridge Crystallographic Data Centre
#                                CCDC 
#
#######################################################################
#
# If this CIF has been generated from an entry in the Cambridge 
# Structural Database, then it will include bibliographic, chemical, 
# crystal, experimental, refinement or atomic coordinate data resulting 
# from the CCDC's data processing and validation procedures.
#
#######################################################################

data_FUSQIV
_chemical_compound_source        'seeds of Caesalpinia minax Hance'
_chemical_name_common            'Neocaesalpin B monohydrate'
_chemical_formula_moiety         'C24 H34 O8,H2 O1'
_chemical_name_systematic        
'4a,10a-Dihydroxy-4,4,7,11b-tetramethyl-9-oxo-1,2,3,4,4a,5,6,6a,7,9,10a,11,11a,11b-tetradecahydrophenanthro[3,2-b]furan-1,2-diyl diacetate monohydrate'
_chemical_properties_biological  'COX-2 inhibitory activity'
_symmetry_cell_setting           monoclinic
_symmetry_space_group_name_H-M   'P 21'
_symmetry_Int_Tables_number      4
_space_group_name_Hall           'P 2yb'
loop_
_symmetry_equiv_pos_site_id
_symmetry_equiv_pos_as_xyz
1 x,y,z
2 -x,1/2+y,-z
_cell_length_a                   6.7833(5)
_cell_length_b                   12.2913(7)
_cell_length_c                   14.6874(7)
_cell_angle_alpha                90
_cell_angle_beta                 101.192(5)
_cell_angle_gamma                90
_cell_volume                     1201.28
_exptl_crystal_colour            colorless
_exptl_crystal_description       block
_cell_formula_units_Z            2
loop_
_atom_site_label
_atom_site_type_symbol
_atom_site_fract_x
_atom_site_fract_y
_atom_site_fract_z
O1 O 0.5377(4) 0.7113(2) 0.63104(16)
O2 O 0.2842(5) 0.7695(3) 0.5201(2)
O3 O 0.2705(4) 0.5354(3) 0.59942(18)
O4 O -0.0355(5) 0.5884(4) 0.6185(2)
O5 O 0.8514(3) 0.6773(2) 0.78607(18)
H1 H 0.8109 0.6708 0.7300
O6 O 0.3450(4) 1.1204(3) 0.7148(2)
O7 O 0.2299(5) 1.2638(3) 0.7818(3)
O8 O 0.6260(4) 1.0443(3) 0.67256(19)
H2 H 0.7005 1.0974 0.6813
C1 C 0.4027(5) 0.6900(4) 0.6947(3)
H3 H 0.2780 0.7310 0.6744
C2 C 0.3544(6) 0.5702(4) 0.6937(3)
H4 H 0.2568 0.5565 0.7336
C3 C 0.5398(6) 0.5014(4) 0.7259(3)
H5 H 0.6327 0.5124 0.6842
H6 H 0.5017 0.4253 0.7229
C4 C 0.6471(6) 0.5291(4) 0.8260(3)
C5 C 0.6902(5) 0.6537(4) 0.8340(3)
C6 C 0.7763(6) 0.6916(4) 0.9333(3)
H7 H 0.6743 0.6835 0.9709
H8 H 0.8890 0.6455 0.9597
C7 C 0.8450(6) 0.8084(4) 0.9368(3)
H9 H 0.9628 0.8133 0.9087
H10 H 0.8847 0.8300 1.0013
C8 C 0.6863(5) 0.8886(4) 0.8876(3)
H11 H 0.5798 0.8914 0.9241
C9 C 0.5866(5) 0.8484(4) 0.7884(3)
H12 H 0.6904 0.8471 0.7504
C10 C 0.5064(5) 0.7305(4) 0.7933(2)
C11 C 0.4230(6) 0.9287(4) 0.7438(3)
H13 H 0.3648 0.9045 0.6815
H14 H 0.3170 0.9305 0.7796
C12 C 0.5087(6) 1.0412(4) 0.7397(3)
C13 C 0.6136(6) 1.0764(4) 0.8349(3)
C14 C 0.7731(6) 1.0045(4) 0.8874(3)
H15 H 0.8019 1.0301 0.9518
C15 C 0.5224(6) 1.1649(4) 0.8593(3)
H16 H 0.5611 1.2029 0.9146
C16 C 0.3524(6) 1.1928(4) 0.7856(3)
C17 C 0.9690(6) 1.0139(5) 0.8498(3)
H17 H 1.0765 0.9798 0.8924
H18 H 1.0004 1.0893 0.8430
H19 H 0.9524 0.9785 0.7905
C18 C 0.8467(7) 0.4652(5) 0.8445(4)
H20 H 0.8189 0.3886 0.8410
H21 H 0.9212 0.4828 0.9052
H22 H 0.9243 0.4844 0.7987
C19 C 0.5223(8) 0.4853(4) 0.8954(3)
H23 H 0.3922 0.5190 0.8836
H24 H 0.5898 0.5017 0.9576
H25 H 0.5073 0.4079 0.8883
C20 C 0.3366(6) 0.7294(4) 0.8512(3)
H26 H 0.2324 0.7792 0.8244
H27 H 0.3909 0.7509 0.9139
H28 H 0.2818 0.6573 0.8510
C21 C 0.4610(7) 0.7504(4) 0.5463(3)
C22 C 0.6199(8) 0.7677(6) 0.4911(3)
H29 H 0.7487 0.7509 0.5285
H30 H 0.6183 0.8422 0.4714
H31 H 0.5955 0.7211 0.4376
C23 C 0.0703(6) 0.5495(4) 0.5706(3)
C24 C 0.0022(7) 0.5111(5) 0.4731(3)
H32 H 0.1109 0.5172 0.4402
H33 H -0.1085 0.5551 0.4430
H34 H -0.0397 0.4366 0.4734
O9 O 0.8268(5) 0.2362(3) 0.6754(2)
H35 H 0.8120 0.2407 0.6160
H36 H 0.9459 0.2371 0.7065
loop_
_geom_bond_atom_site_label_1
_geom_bond_atom_site_label_2
_geom_bond_site_symmetry_1
_geom_bond_site_symmetry_2
O1 C1 1_555 1_555
O2 C21 1_555 1_555
O3 C2 1_555 1_555
O4 C23 1_555 1_555
O5 H1 1_555 1_555
O6 C12 1_555 1_555
O7 C16 1_555 1_555
O8 H2 1_555 1_555
C1 H3 1_555 1_555
C2 C1 1_555 1_555
H4 C2 1_555 1_555
C3 C2 1_555 1_555
H5 C3 1_555 1_555
H6 C3 1_555 1_555
C4 C3 1_555 1_555
C5 O5 1_555 1_555
C6 C5 1_555 1_555
H7 C6 1_555 1_555
H8 C6 1_555 1_555
C7 C6 1_555 1_555
H9 C7 1_555 1_555
H10 C7 1_555 1_555
C8 C7 1_555 1_555
H11 C8 1_555 1_555
C9 C8 1_555 1_555
H12 C9 1_555 1_555
C10 C1 1_555 1_555
C11 C9 1_555 1_555
H13 C11 1_555 1_555
H14 C11 1_555 1_555
C12 O8 1_555 1_555
C13 C12 1_555 1_555
C14 C8 1_555 1_555
H15 C14 1_555 1_555
C15 C13 1_555 1_555
H16 C15 1_555 1_555
C16 O6 1_555 1_555
C17 C14 1_555 1_555
H17 C17 1_555 1_555
H18 C17 1_555 1_555
H19 C17 1_555 1_555
C18 C4 1_555 1_555
H20 C18 1_555 1_555
H21 C18 1_555 1_555
H22 C18 1_555 1_555
C19 C4 1_555 1_555
H23 C19 1_555 1_555
H24 C19 1_555 1_555
H25 C19 1_555 1_555
C20 C10 1_555 1_555
H26 C20 1_555 1_555
H27 C20 1_555 1_555
H28 C20 1_555 1_555
C21 O1 1_555 1_555
C22 C21 1_555 1_555
H29 C22 1_555 1_555
H30 C22 1_555 1_555
H31 C22 1_555 1_555
C23 O3 1_555 1_555
C24 C23 1_555 1_555
H32 C24 1_555 1_555
H33 C24 1_555 1_555
H34 C24 1_555 1_555
O9 H35 1_555 1_555
H36 O9 1_555 1_555
C4 C5 1_555 1_555
C5 C10 1_555 1_555
C9 C10 1_555 1_555
C11 C12 1_555 1_555
C13 C14 1_555 1_555
C15 C16 1_555 1_555

#END
