
#######################################################################
#
#                 Cambridge Crystallographic Data Centre
#                                CCDC 
#
#######################################################################
#
# If this CIF has been generated from an entry in the Cambridge 
# Structural Database, then it will include bibliographic, chemical, 
# crystal, experimental, refinement or atomic coordinate data resulting 
# from the CCDC's data processing and validation procedures.
#
#######################################################################

data_FUSVIA
_chemical_formula_moiety         'C19 H18 N2 O3,C1 H2 Cl2'
_chemical_name_systematic        
'3-((2R,4S)-2-Methyl-4-(nitromethyl)-3,4-dihydro-2H-chromen-2-yl)-1H-indole dichloromethane solvate'
_symmetry_cell_setting           orthorhombic
_symmetry_space_group_name_H-M   'P 21 21 21'
_symmetry_Int_Tables_number      19
_space_group_name_Hall           'P 2ac 2ab'
loop_
_symmetry_equiv_pos_site_id
_symmetry_equiv_pos_as_xyz
1 x,y,z
2 1/2+x,1/2-y,-z
3 -x,1/2+y,1/2-z
4 1/2-x,-y,1/2+z
_cell_length_a                   8.3161(19)
_cell_length_b                   14.510(2)
_cell_length_c                   16.406(2)
_cell_angle_alpha                90
_cell_angle_beta                 90
_cell_angle_gamma                90
_cell_volume                     1979.66
_exptl_crystal_colour            colorless
_exptl_crystal_description       prism
_chemical_melting_point          '64-66 deg.C'
_cell_formula_units_Z            4
loop_
_atom_site_label
_atom_site_type_symbol
_atom_site_fract_x
_atom_site_fract_y
_atom_site_fract_z
Cl1 Cl 0.48945(11) 0.36913(6) 0.08167(5)
Cl2 Cl 0.19360(11) 0.40765(7) 0.16880(7)
C1 C 0.3826(4) 0.4493(2) 0.1416(2)
H1 H 0.4450 0.4631 0.1915
H2 H 0.3699 0.5074 0.1106
O1 O 0.4560(3) 0.48856(14) 0.47729(11)
O2 O 0.1098(3) 0.77569(14) 0.32058(16)
O3 O 0.2006(3) 0.69368(18) 0.22183(13)
N1 N 0.7103(3) 0.42581(19) 0.26712(18)
N2 N 0.1341(3) 0.70127(15) 0.28720(14)
C2 C 0.5047(3) 0.56472(16) 0.42535(13)
C3 C 0.3569(3) 0.62171(16) 0.40205(14)
H3 H 0.3053 0.6462 0.4519
H4 H 0.3902 0.6746 0.3678
C4 C 0.2368(3) 0.56204(15) 0.35520(14)
H5 H 0.2896 0.5402 0.3040
C5 C 0.1975(3) 0.47872(16) 0.40702(15)
C6 C 0.3092(4) 0.44778(17) 0.46428(15)
C7 C 0.2752(4) 0.3731(2) 0.51515(19)
H6 H 0.3528 0.3523 0.5535
C8 C 0.1279(5) 0.3297(2) 0.5093(2)
H7 H 0.1036 0.2795 0.5444
C9 C 0.0162(5) 0.3585(2) 0.4530(3)
H8 H -0.0845 0.3280 0.4490
C10 C 0.0509(4) 0.4322(2) 0.4022(2)
H9 H -0.0267 0.4513 0.3632
C11 C 0.0849(3) 0.61586(17) 0.33199(17)
H10 H 0.0149 0.5774 0.2969
H11 H 0.0240 0.6325 0.3817
C12 C 0.6216(4) 0.6208(2) 0.47690(16)
H12 H 0.6634 0.6723 0.4446
H13 H 0.7110 0.5814 0.4943
H14 H 0.5656 0.6448 0.5250
C13 C 0.5891(3) 0.52537(17) 0.35161(15)
C14 C 0.6255(4) 0.43482(19) 0.3383(2)
H15 H 0.5963 0.3854 0.3733
C15 C 0.7311(3) 0.5107(2) 0.23222(18)
C16 C 0.6553(3) 0.57622(19) 0.28375(15)
C17 C 0.6610(4) 0.6693(2) 0.26080(18)
H16 H 0.6135 0.7150 0.2945
C18 C 0.7362(4) 0.6942(3) 0.1888(2)
H17 H 0.7392 0.7573 0.1733
C19 C 0.8076(5) 0.6280(3) 0.13855(19)
H18 H 0.8579 0.6468 0.0893
C20 C 0.8064(4) 0.5362(3) 0.15934(19)
H19 H 0.8553 0.4914 0.1252
H20 H 0.747(6) 0.380(4) 0.248(3)
loop_
_geom_bond_atom_site_label_1
_geom_bond_atom_site_label_2
_geom_bond_site_symmetry_1
_geom_bond_site_symmetry_2
Cl1 C1 1_555 1_555
Cl2 C1 1_555 1_555
C1 H1 1_555 1_555
H2 C1 1_555 1_555
O1 C2 1_555 1_555
O2 N2 1_555 1_555
O3 N2 1_555 1_555
N1 C14 1_555 1_555
N2 C11 1_555 1_555
C2 C3 1_555 1_555
C3 H3 1_555 1_555
H4 C3 1_555 1_555
C4 C3 1_555 1_555
H5 C4 1_555 1_555
C5 C4 1_555 1_555
C6 O1 1_555 1_555
C7 C6 1_555 1_555
H6 C7 1_555 1_555
C8 C7 1_555 1_555
H7 C8 1_555 1_555
C9 C8 1_555 1_555
H8 C9 1_555 1_555
C10 C5 1_555 1_555
H9 C10 1_555 1_555
C11 C4 1_555 1_555
H10 C11 1_555 1_555
H11 C11 1_555 1_555
C12 C2 1_555 1_555
H12 C12 1_555 1_555
H13 C12 1_555 1_555
H14 C12 1_555 1_555
C13 C2 1_555 1_555
C14 C13 1_555 1_555
H15 C14 1_555 1_555
C15 N1 1_555 1_555
C16 C13 1_555 1_555
C17 C16 1_555 1_555
H16 C17 1_555 1_555
C18 C17 1_555 1_555
H17 C18 1_555 1_555
C19 C18 1_555 1_555
H18 C19 1_555 1_555
C20 C15 1_555 1_555
H19 C20 1_555 1_555
H20 N1 1_555 1_555
C5 C6 1_555 1_555
C9 C10 1_555 1_555
C15 C16 1_555 1_555
C19 C20 1_555 1_555

#END
