
#######################################################################
#
#                 Cambridge Crystallographic Data Centre
#                                CCDC 
#
#######################################################################
#
# If this CIF has been generated from an entry in the Cambridge 
# Structural Database, then it will include bibliographic, chemical, 
# crystal, experimental, refinement or atomic coordinate data resulting 
# from the CCDC's data processing and validation procedures.
#
#######################################################################

data_FUTHUY
_chemical_formula_moiety         'C21 H22 N2 O3'
_chemical_name_systematic        
(Z)-1,2,4,6-Tetramethyl-7,7-diphenyl-8-oxa-2,4-diazabicyclo(4.2.0)octane-3,5-dione
_symmetry_cell_setting           triclinic
_symmetry_space_group_name_H-M   'P -1'
_symmetry_Int_Tables_number      2
_space_group_name_Hall           '-P 1'
loop_
_symmetry_equiv_pos_site_id
_symmetry_equiv_pos_as_xyz
1 x,y,z
2 -x,-y,-z
_cell_length_a                   7.7039(8)
_cell_length_b                   9.8680(12)
_cell_length_c                   12.6926(18)
_cell_angle_alpha                105.832(3)
_cell_angle_beta                 93.959(2)
_cell_angle_gamma                96.639(2)
_cell_volume                     916.967
_exptl_crystal_colour            colorless
_exptl_crystal_description       block
_cell_formula_units_Z            2
_exptl_crystal_preparation       'irradiated product'
loop_
_atom_site_label
_atom_site_type_symbol
_atom_site_fract_x
_atom_site_fract_y
_atom_site_fract_z
N1 N 0.3317(2) 0.02037(18) 0.19061(14)
N2 N 0.4161(2) 0.18649(18) 0.36472(12)
O1 O 0.29147(16) 0.39577(13) 0.36670(10)
O2 O 0.2569(2) 0.08455(19) 0.03857(12)
O3 O 0.3501(2) -0.04734(17) 0.34804(14)
C1 C 0.1652(2) 0.3266(2) 0.27026(14)
C2 C 0.3245(2) 0.2720(2) 0.20552(15)
C3 C 0.3015(3) 0.1189(2) 0.13729(17)
C4 C 0.3641(3) 0.0495(2) 0.30590(18)
C5 C 0.4236(2) 0.3084(2) 0.32099(15)
C6 C 0.0687(2) 0.4336(2) 0.23338(15)
C7 C 0.0723(3) 0.5694(2) 0.30114(19)
H1 H 0.1409 0.5981 0.3687
C8 C -0.0254(4) 0.6634(3) 0.2696(2)
H2 H -0.0232 0.7544 0.3165
C9 C -0.1254(3) 0.6236(3) 0.1699(2)
H3 H -0.1905 0.6875 0.1490
C10 C -0.1293(3) 0.4898(3) 0.10133(19)
H4 H -0.1972 0.4623 0.0335
C11 C -0.0325(3) 0.3956(2) 0.13264(17)
H5 H -0.0353 0.3048 0.0852
C12 C 0.0338(2) 0.2136(2) 0.29364(14)
C13 C 0.0057(3) 0.2182(2) 0.40116(16)
H6 H 0.0696 0.2893 0.4592
C14 C -0.1171(3) 0.1177(3) 0.42294(18)
H7 H -0.1335 0.1208 0.4954
C15 C -0.2144(3) 0.0138(2) 0.33838(19)
H8 H -0.2969 -0.0531 0.3534
C16 C -0.1896(3) 0.0088(2) 0.23082(18)
H9 H -0.2562 -0.0611 0.1732
C17 C -0.0660(3) 0.1074(2) 0.20860(16)
H10 H -0.0492 0.1029 0.1359
C18 C 0.3926(3) 0.3672(3) 0.13674(18)
H11 H 0.5075 0.3479 0.1179
H12 H 0.3987 0.4651 0.1783
H13 H 0.3143 0.3487 0.0706
C19 C 0.3021(4) -0.1309(3) 0.1261(2)
H14 H 0.1784 -0.1648 0.1148
H15 H 0.3615 -0.1855 0.1654
H16 H 0.3470 -0.1407 0.0561
C20 C 0.4456(3) 0.2146(3) 0.48422(16)
H17 H 0.3368 0.1914 0.5122
H18 H 0.4895 0.3134 0.5172
H19 H 0.5298 0.1574 0.5018
C21 C 0.6052(3) 0.3925(2) 0.34524(18)
H20 H 0.6054 0.4748 0.3188
H21 H 0.6874 0.3343 0.3091
H22 H 0.6384 0.4219 0.4233
loop_
_geom_bond_atom_site_label_1
_geom_bond_atom_site_label_2
_geom_bond_site_symmetry_1
_geom_bond_site_symmetry_2
N1 C3 1_555 1_555
N2 C4 1_555 1_555
O1 C1 1_555 1_555
O2 C3 1_555 1_555
O3 C4 1_555 1_555
C1 C2 1_555 1_555
C2 C3 1_555 1_555
C4 N1 1_555 1_555
C5 N2 1_555 1_555
C6 C1 1_555 1_555
C7 C6 1_555 1_555
H1 C7 1_555 1_555
C8 C7 1_555 1_555
H2 C8 1_555 1_555
C9 C8 1_555 1_555
H3 C9 1_555 1_555
C10 C9 1_555 1_555
H4 C10 1_555 1_555
C11 C6 1_555 1_555
H5 C11 1_555 1_555
C12 C1 1_555 1_555
C13 C12 1_555 1_555
H6 C13 1_555 1_555
C14 C13 1_555 1_555
H7 C14 1_555 1_555
C15 C14 1_555 1_555
H8 C15 1_555 1_555
C16 C15 1_555 1_555
H9 C16 1_555 1_555
C17 C12 1_555 1_555
H10 C17 1_555 1_555
C18 C2 1_555 1_555
H11 C18 1_555 1_555
H12 C18 1_555 1_555
H13 C18 1_555 1_555
C19 N1 1_555 1_555
H14 C19 1_555 1_555
H15 C19 1_555 1_555
H16 C19 1_555 1_555
C20 N2 1_555 1_555
H17 C20 1_555 1_555
H18 C20 1_555 1_555
H19 C20 1_555 1_555
C21 C5 1_555 1_555
H20 C21 1_555 1_555
H21 C21 1_555 1_555
H22 C21 1_555 1_555
O1 C5 1_555 1_555
C2 C5 1_555 1_555
C10 C11 1_555 1_555
C16 C17 1_555 1_555

#END
