
#######################################################################
#
#                 Cambridge Crystallographic Data Centre
#                                CCDC 
#
#######################################################################
#
# If this CIF has been generated from an entry in the Cambridge 
# Structural Database, then it will include bibliographic, chemical, 
# crystal, experimental, refinement or atomic coordinate data resulting 
# from the CCDC's data processing and validation procedures.
#
#######################################################################

data_FUTNEP
_chemical_formula_moiety         'C22 H18 Cl2 N2 O2'
_chemical_name_systematic        
1-Benzyl-3-((2,6-dichlorophenyl)amino)-3-(hydroxymethyl)-1,3-dihydro-2H-indol-2-one
_symmetry_cell_setting           monoclinic
_symmetry_space_group_name_H-M   'P 21/n'
_symmetry_Int_Tables_number      14
_space_group_name_Hall           '-P 2yn'
loop_
_symmetry_equiv_pos_site_id
_symmetry_equiv_pos_as_xyz
1 x,y,z
2 1/2-x,1/2+y,1/2-z
3 -x,-y,-z
4 1/2+x,1/2-y,1/2+z
_cell_length_a                   14.8608(5)
_cell_length_b                   7.7619(3)
_cell_length_c                   17.4366(6)
_cell_angle_alpha                90
_cell_angle_beta                 106.7820(10)
_cell_angle_gamma                90
_cell_volume                     1925.62
_exptl_crystal_colour            colorless
_exptl_crystal_description       block
_cell_formula_units_Z            4
loop_
_atom_site_label
_atom_site_type_symbol
_atom_site_fract_x
_atom_site_fract_y
_atom_site_fract_z
Cl1 Cl 0.39527(5) 0.67209(10) 0.10790(5)
Cl2 Cl 0.02611(5) 0.80568(11) 0.05121(6)
O1 O 0.38680(16) 0.9883(3) 0.27221(11)
N1 N 0.43476(14) 1.0950(3) 0.16789(12)
N2 N 0.22992(16) 0.8493(3) 0.13892(12)
H1 H 0.2158 0.8185 0.1814
C1 C 0.11745(19) 0.7049(3) 0.02652(16)
C2 C 0.0968(2) 0.5932(4) -0.03856(17)
H2 H 0.0348 0.5741 -0.0686
C3 C 0.1691(3) 0.5119(4) -0.05771(18)
H3 H 0.1560 0.4368 -0.1011
C4 C 0.2603(2) 0.5392(4) -0.01416(18)
H4 H 0.3089 0.4837 -0.0280
C5 C 0.2796(2) 0.6495(3) 0.05041(16)
C6 C 0.20945(17) 0.7387(3) 0.07251(14)
C7 C 0.27533(17) 1.0180(3) 0.13703(14)
C8 C 0.30224(17) 1.0627(3) 0.06288(13)
C9 C 0.25062(19) 1.0637(3) -0.01655(14)
H5 H 0.1878 1.0303 -0.0321
C10 C 0.2947(2) 1.1159(3) -0.07317(15)
H6 H 0.2613 1.1156 -0.1272
C11 C 0.3872(2) 1.1680(3) -0.05005(16)
H7 H 0.4151 1.2033 -0.0888
C12 C 0.43947(19) 1.1688(3) 0.02965(15)
H8 H 0.5017 1.2053 0.0453
C13 C 0.39598(17) 1.1139(3) 0.08462(14)
C14 C 0.37082(19) 1.0277(3) 0.20220(15)
C15 C 0.53461(18) 1.1129(3) 0.20920(16)
H9 H 0.5703 1.0581 0.1773
H10 H 0.5484 1.0525 0.2600
C16 C 0.56680(17) 1.2980(3) 0.22480(14)
C17 C 0.63865(18) 1.3605(4) 0.19833(15)
H11 H 0.6666 1.2901 0.1686
C18 C 0.6700(2) 1.5282(4) 0.21558(17)
H12 H 0.7190 1.5696 0.1975
C19 C 0.6296(2) 1.6322(4) 0.2586(2)
H13 H 0.6514 1.7441 0.2706
C20 C 0.5566(2) 1.5725(4) 0.2844(2)
H14 H 0.5284 1.6444 0.3134
C21 C 0.5250(2) 1.4060(4) 0.26757(18)
H15 H 0.4753 1.3661 0.2850
C22 C 0.2091(2) 1.1583(4) 0.1531(2)
H16 H 0.2433 1.2659 0.1661
H17 H 0.1574 1.1763 0.1050
O2 O 0.1745(3) 1.1133(5) 0.2141(2)
H18 H 0.1522 1.1984 0.2296
H19? H 0.1545 1.1691 0.1067
H20? H 0.1875 1.1232 0.1982
O3? O 0.2522(5) 1.3094(8) 0.1680(4)
H21? H 0.2204 1.3762 0.1856
loop_
_geom_bond_atom_site_label_1
_geom_bond_atom_site_label_2
_geom_bond_site_symmetry_1
_geom_bond_site_symmetry_2
Cl1 C5 1_555 1_555
Cl2 C1 1_555 1_555
O1 C14 1_555 1_555
N1 C13 1_555 1_555
N2 H1 1_555 1_555
C1 C2 1_555 1_555
C2 H2 1_555 1_555
C3 C2 1_555 1_555
H3 C3 1_555 1_555
C4 C3 1_555 1_555
H4 C4 1_555 1_555
C5 C4 1_555 1_555
C6 N2 1_555 1_555
C7 N2 1_555 1_555
C8 C7 1_555 1_555
C9 C8 1_555 1_555
H5 C9 1_555 1_555
C10 C9 1_555 1_555
H6 C10 1_555 1_555
C11 C10 1_555 1_555
H7 C11 1_555 1_555
C12 C11 1_555 1_555
H8 C12 1_555 1_555
C13 C8 1_555 1_555
C14 N1 1_555 1_555
C15 N1 1_555 1_555
H9 C15 1_555 1_555
H10 C15 1_555 1_555
C16 C15 1_555 1_555
C17 C16 1_555 1_555
H11 C17 1_555 1_555
C18 C17 1_555 1_555
H12 C18 1_555 1_555
C19 C18 1_555 1_555
H13 C19 1_555 1_555
C20 C19 1_555 1_555
H14 C20 1_555 1_555
C21 C16 1_555 1_555
H15 C21 1_555 1_555
C22 C7 1_555 1_555
H16 C22 1_555 1_555
H17 C22 1_555 1_555
O2 C22 1_555 1_555
H18 O2 1_555 1_555
C1 C6 1_555 1_555
C5 C6 1_555 1_555
C7 C14 1_555 1_555
C12 C13 1_555 1_555
C20 C21 1_555 1_555

#END
