
#######################################################################
#
#                 Cambridge Crystallographic Data Centre
#                                CCDC 
#
#######################################################################
#
# If this CIF has been generated from an entry in the Cambridge 
# Structural Database, then it will include bibliographic, chemical, 
# crystal, experimental, refinement or atomic coordinate data resulting 
# from the CCDC's data processing and validation procedures.
#
#######################################################################

data_FUTROD
_chemical_formula_moiety         'C16 H13 N1 S1'
_chemical_name_systematic        2-(5-(4-Methylphenyl)-2-thienyl)pyridine
_symmetry_cell_setting           orthorhombic
_symmetry_space_group_name_H-M   'P n a 21'
_symmetry_Int_Tables_number      33
_space_group_name_Hall           'P 2c -2n'
loop_
_symmetry_equiv_pos_site_id
_symmetry_equiv_pos_as_xyz
1 x,y,z
2 -x,-y,1/2+z
3 1/2-x,1/2+y,1/2+z
4 1/2+x,1/2-y,z
_cell_length_a                   21.5783(13)
_cell_length_b                   10.3365(6)
_cell_length_c                   5.9411(2)
_cell_angle_alpha                90
_cell_angle_beta                 90
_cell_angle_gamma                90
_cell_volume                     1325.13
_cell_formula_units_Z            4
loop_
_atom_site_label
_atom_site_type_symbol
_atom_site_fract_x
_atom_site_fract_y
_atom_site_fract_z
S1 S 0.39701(3) 0.92146(6) -0.01191(12)
N1 N 0.29892(12) 1.1068(2) -0.1292(5)
C1 C 0.25598(15) 1.1872(3) -0.2094(6)
H1 H 0.2401 1.1706 -0.3520
C2 C 0.23363(17) 1.2931(3) -0.0951(8)
H2 H 0.2036 1.3463 -0.1585
C3 C 0.25677(18) 1.3177(3) 0.1128(8)
H3 H 0.2424 1.3883 0.1948
C4 C 0.30166(15) 1.2378(3) 0.2025(6)
H4 H 0.3183 1.2541 0.3441
C5 C 0.32154(12) 1.1317(2) 0.0756(5)
C6 C 0.36864(12) 1.0435(2) 0.1610(5)
C7 C 0.39746(13) 1.0392(3) 0.3643(5)
H5 H 0.3884 1.0963 0.4807
C8 C 0.44188(13) 0.9413(3) 0.3832(5)
H6 H 0.4653 0.9280 0.5126
C9 C 0.44778(12) 0.8673(2) 0.1948(4)
C10 C 0.49194(11) 0.7626(2) 0.1494(5)
C11 C 0.53789(14) 0.7324(3) 0.3043(5)
H7 H 0.5395 0.7768 0.4403
C12 C 0.58143(14) 0.6371(3) 0.2595(6)
H8 H 0.6118 0.6188 0.3658
C13 C 0.58037(14) 0.5688(3) 0.0595(6)
C14 C 0.53485(15) 0.5981(3) -0.0936(6)
H9 H 0.5333 0.5532 -0.2292
C15 C 0.49154(13) 0.6923(3) -0.0513(5)
H10 H 0.4613 0.7097 -0.1585
C16 C 0.62784(18) 0.4641(3) 0.0124(9)
H11 H 0.6322 0.4530 -0.1472
H12 H 0.6144 0.3843 0.0790
H13 H 0.6670 0.4889 0.0757
loop_
_geom_bond_atom_site_label_1
_geom_bond_atom_site_label_2
_geom_bond_site_symmetry_1
_geom_bond_site_symmetry_2
S1 C6 1_555 1_555
N1 C1 1_555 1_555
C1 H1 1_555 1_555
C2 C1 1_555 1_555
H2 C2 1_555 1_555
C3 C2 1_555 1_555
H3 C3 1_555 1_555
C4 C3 1_555 1_555
H4 C4 1_555 1_555
C5 N1 1_555 1_555
C6 C5 1_555 1_555
C7 C6 1_555 1_555
H5 C7 1_555 1_555
C8 C7 1_555 1_555
H6 C8 1_555 1_555
C9 S1 1_555 1_555
C10 C9 1_555 1_555
C11 C10 1_555 1_555
H7 C11 1_555 1_555
C12 C11 1_555 1_555
H8 C12 1_555 1_555
C13 C12 1_555 1_555
C14 C13 1_555 1_555
H9 C14 1_555 1_555
C15 C10 1_555 1_555
H10 C15 1_555 1_555
C16 C13 1_555 1_555
H11 C16 1_555 1_555
H12 C16 1_555 1_555
H13 C16 1_555 1_555
C4 C5 1_555 1_555
C8 C9 1_555 1_555
C14 C15 1_555 1_555

#END
