
#######################################################################
#
#                 Cambridge Crystallographic Data Centre
#                                CCDC 
#
#######################################################################
#
# If this CIF has been generated from an entry in the Cambridge 
# Structural Database, then it will include bibliographic, chemical, 
# crystal, experimental, refinement or atomic coordinate data resulting 
# from the CCDC's data processing and validation procedures.
#
#######################################################################

data_FUVCOQ
_chemical_formula_moiety         'C45 H57 N1 O14,C4 H8 O2'
_chemical_name_systematic        'Cabazitaxel 1,4-dioxane solvate'
_chemical_properties_biological  'Cabazitaxel is an anticancer drug'
_symmetry_cell_setting           monoclinic
_symmetry_space_group_name_H-M   'P 21'
_symmetry_Int_Tables_number      4
_space_group_name_Hall           'P 2yb'
loop_
_symmetry_equiv_pos_site_id
_symmetry_equiv_pos_as_xyz
1 x,y,z
2 -x,1/2+y,-z
_cell_length_a                   11.950(3)
_cell_length_b                   17.399(9)
_cell_length_c                   12.573(3)
_cell_angle_alpha                90
_cell_angle_beta                 109.800(5)
_cell_angle_gamma                90
_cell_volume                     2459.61
_exptl_crystal_colour            colorless
_exptl_crystal_description       Prism
_cell_formula_units_Z            2
_chemical_properties_physical    Heat-sensitive
_exptl_crystal_recrystallization_method dioxane
loop_
_atom_site_label
_atom_site_type_symbol
_atom_site_fract_x
_atom_site_fract_y
_atom_site_fract_z
N1 N 0.1604(2) 0.55046(15) 0.5566(2)
H1 H 0.1465 0.5525 0.4849
O1 O -0.00661(17) 0.30552(11) 0.92330(18)
H2 H -0.0340 0.2782 0.9616
O2 O -0.1305(3) 0.5112(2) 0.5376(2)
O3 O 0.13838(14) 0.39944(11) 1.07257(15)
O4 O -0.0564(2) 0.63663(17) 0.46305(19)
H3 H -0.1133 0.6080 0.4348
O5 O 0.18424(14) 0.54969(11) 1.06768(15)
O6 O 0.2308(2) 0.47680(16) 0.71355(19)
O7 O 0.18289(19) 0.56241(13) 1.31933(16)
O8 O 0.2332(3) 0.43701(15) 0.5416(2)
O9 O -0.21029(19) 0.62446(13) 1.1625(2)
O10 O -0.2886(2) 0.46200(15) 1.1191(2)
O11 O -0.40627(17) 0.48096(15) 0.8998(2)
O12 O -0.02763(16) 0.53658(12) 0.71844(15)
O13 O 0.13989(19) 0.29434(14) 1.1784(2)
O14 O 0.07552(18) 0.65435(13) 0.99349(18)
C1 C -0.0467(2) 0.38278(15) 0.9251(2)
C2 C -0.0599(3) 0.5496(2) 0.6078(2)
C3 C 0.0125(2) 0.41240(15) 1.0495(2)
H4 H -0.0142 0.3801 1.1002
C4 C -0.0059(3) 0.62108(19) 0.5800(2)
H5 H -0.0245 0.6640 0.6216
C5 C -0.0040(2) 0.49873(15) 1.0753(2)
H6 H -0.0324 0.5249 1.0020
C6 C 0.1295(3) 0.61591(19) 0.6118(2)
H7 H 0.1627 0.6069 0.6935
C7 C 0.1164(2) 0.53638(16) 1.1425(2)
C8 C 0.2098(3) 0.48711(19) 0.6126(3)
C9 C 0.1188(2) 0.60691(17) 1.2182(2)
H8 H 0.1703 0.6471 1.2054
C10 C 0.2685(6) 0.3574(3) 0.5755(4)
C11 C 0.0038(3) 0.64154(18) 1.2214(2)
H9 H 0.0033 0.6961 1.2054
H10 H 0.0003 0.6358 1.2970
C12 C -0.1063(2) 0.60441(16) 1.1368(2)
H11 H -0.1154 0.6240 1.0612
C13 C 0.1827(3) 0.69021(19) 0.5874(2)
C14 C -0.0997(2) 0.51530(16) 1.1340(2)
C15 C 0.2574(3) 0.6930(2) 0.5239(3)
H12 H 0.2772 0.6476 0.4954
C16 C -0.2286(2) 0.49036(17) 1.0683(2)
C17 C 0.3027(4) 0.7614(3) 0.5021(3)
H13 H 0.3518 0.7616 0.4584
C18 C -0.2870(2) 0.50607(18) 0.9406(3)
H14 H -0.2872 0.5618 0.9295
C19 C 0.2772(5) 0.8282(3) 0.5431(4)
H15 H 0.3079 0.8743 0.5277
C20 C -0.4893(4) 0.5319(4) 0.9155(8)
H16 H -0.5674 0.5099 0.8851
H17 H -0.4870 0.5793 0.8773
H18 H -0.4708 0.5415 0.9948
C21 C -0.2185(2) 0.47037(17) 0.8718(2)
C22 C 0.2062(5) 0.8271(3) 0.6070(5)
H19 H 0.1875 0.8731 0.6348
C23 C -0.1782(2) 0.51381(17) 0.8042(2)
C24 C 0.1610(4) 0.7592(2) 0.6319(4)
H20 H 0.1155 0.7596 0.6791
C25 C -0.0916(2) 0.47675(17) 0.7552(2)
H21 H -0.1356 0.4447 0.6903
C26 C 0.0001(2) 0.42749(17) 0.8429(2)
H22 H 0.0645 0.4606 0.8868
H23 H 0.0331 0.3909 0.8033
C27 C -0.1854(2) 0.38477(16) 0.8864(2)
C28 C -0.2309(3) 0.33987(19) 0.9685(3)
H24 H -0.2119 0.2864 0.9664
H25 H -0.3155 0.3458 0.9468
H26 H -0.1937 0.3593 1.0438
C29 C -0.2404(3) 0.3425(2) 0.7720(3)
H27 H -0.1853 0.3434 0.7314
H28 H -0.3128 0.3677 0.7281
H29 H -0.2573 0.2902 0.7856
C30 C -0.2084(3) 0.5964(2) 0.7763(3)
H30 H -0.2767 0.6099 0.7961
H31 H -0.2255 0.6044 0.6968
H32 H -0.1422 0.6280 0.8182
C31 C -0.0672(3) 0.48058(19) 1.2525(3)
H33 H -0.0640 0.4256 1.2477
H34 H -0.1263 0.4947 1.2850
H35 H 0.0090 0.4997 1.2992
C32 C 0.1972(3) 0.49850(18) 1.2507(2)
H36 H 0.1659 0.4504 1.2678
H37 H 0.2784 0.4920 1.2523
C33 C 0.1882(2) 0.33575(16) 1.1300(2)
C34 C 0.3106(2) 0.32502(17) 1.1280(3)
C35 C 0.3516(3) 0.3641(2) 1.0525(3)
H38 H 0.3030 0.3997 1.0028
C36 C 0.4660(3) 0.3498(3) 1.0511(4)
H39 H 0.4936 0.3759 1.0003
C37 C 0.5361(3) 0.2989(3) 1.1223(5)
H40 H 0.6118 0.2893 1.1200
C38 C 0.4977(3) 0.2603(3) 1.1991(4)
H41 H 0.5483 0.2257 1.2490
C39 C 0.3849(3) 0.2725(2) 1.2029(3)
H42 H 0.3589 0.2461 1.2545
C40 C 0.1569(2) 0.61177(17) 0.9999(2)
C41 C 0.2414(3) 0.6198(2) 0.9363(3)
H43 H 0.3210 0.6247 0.9887
H44 H 0.2213 0.6647 0.8893
H45 H 0.2362 0.5752 0.8900
C42 C -0.2558(4) 0.6982(2) 1.1229(4)
H46 H -0.2791 0.6995 1.0420
H47 H -0.1955 0.7362 1.1547
H48 H -0.3235 0.7088 1.1451
C43 C 0.394(2) 0.3578(12) 0.655(3)
H49 H 0.4410 0.3914 0.6260
H50 H 0.4260 0.3066 0.6614
H51 H 0.3964 0.3756 0.7277
C44 C 0.293(4) 0.3270(12) 0.4724(16)
H52 H 0.2186 0.3143 0.4147
H53 H 0.3413 0.2818 0.4927
H54 H 0.3331 0.3655 0.4445
C45 C 0.182(2) 0.3234(8) 0.627(3)
H55 H 0.1809 0.3542 0.6900
H56 H 0.2054 0.2720 0.6518
H57 H 0.1033 0.3227 0.5711
O15 O 0.4999(4) 0.4899(3) 1.3706(4)
C50 C 0.5748(7) 0.5052(5) 1.3099(7)
H70 H 0.5599 0.4685 1.2487
H71 H 0.6567 0.4994 1.3590
C51 C 0.5572(11) 0.5807(7) 1.2650(11)
H72 H 0.4736 0.5916 1.2259
H73 H 0.6012 0.5888 1.2138
O16 O 0.6078(10) 0.6284(5) 1.3729(11)
C52 C 0.5211(12) 0.6175(7) 1.4272(12)
H74 H 0.5373 0.6522 1.4910
H75 H 0.4417 0.6281 1.3752
C53 C 0.5289(10) 0.5420(7) 1.4647(8)
H76 H 0.4747 0.5342 1.5062
H77 H 0.6090 0.5318 1.5155
C46? C -0.4792(19) 0.5271(14) 0.819(3)
H58? H -0.5584 0.5066 0.7953
H59? H -0.4516 0.5297 0.7562
H60? H -0.4792 0.5777 0.8500
C47? C 0.3717(18) 0.3547(12) 0.6824(17)
H61? H 0.4310 0.3908 0.6783
H62? H 0.4048 0.3039 0.6932
H63? H 0.3461 0.3679 0.7446
C48? C 0.241(5) 0.3184(11) 0.4619(15)
H64? H 0.1590 0.3257 0.4179
H65? H 0.2578 0.2644 0.4731
H66? H 0.2901 0.3402 0.4227
C49? C 0.160(2) 0.3163(13) 0.584(3)
H67? H 0.1535 0.3261 0.6569
H68? H 0.1682 0.2620 0.5751
H69? H 0.0901 0.3346 0.5261
H78? H 0.5269 0.5768 1.1832
H79? H 0.6341 0.6057 1.2858
O17? O 0.474(3) 0.633(2) 1.3005(19)
H80? H 0.5998 0.6400 1.4574
H81? H 0.4705 0.6452 1.4603
loop_
_geom_bond_atom_site_label_1
_geom_bond_atom_site_label_2
_geom_bond_site_symmetry_1
_geom_bond_site_symmetry_2
N1 H1 1_555 1_555
O1 H2 1_555 1_555
O2 C2 1_555 1_555
O3 C3 1_555 1_555
O4 H3 1_555 1_555
O5 C7 1_555 1_555
O6 C8 1_555 1_555
O7 C9 1_555 1_555
O8 C8 1_555 1_555
O9 C12 1_555 1_555
O10 C16 1_555 1_555
O11 C18 1_555 1_555
O12 C2 1_555 1_555
O13 C33 1_555 1_555
O14 C40 1_555 1_555
C1 O1 1_555 1_555
C2 C4 1_555 1_555
C3 C1 1_555 1_555
H4 C3 1_555 1_555
C4 O4 1_555 1_555
H5 C4 1_555 1_555
C5 C3 1_555 1_555
H6 C5 1_555 1_555
C6 N1 1_555 1_555
H7 C6 1_555 1_555
C7 C5 1_555 1_555
C8 N1 1_555 1_555
C9 C7 1_555 1_555
H8 C9 1_555 1_555
C10 O8 1_555 1_555
C11 C9 1_555 1_555
H9 C11 1_555 1_555
H10 C11 1_555 1_555
C12 C11 1_555 1_555
H11 C12 1_555 1_555
C13 C6 1_555 1_555
C14 C5 1_555 1_555
C15 C13 1_555 1_555
H12 C15 1_555 1_555
C16 C14 1_555 1_555
C17 C15 1_555 1_555
H13 C17 1_555 1_555
C18 C16 1_555 1_555
H14 C18 1_555 1_555
C19 C17 1_555 1_555
H15 C19 1_555 1_555
C20 O11 1_555 1_555
H16 C20 1_555 1_555
H17 C20 1_555 1_555
H18 C20 1_555 1_555
C21 C18 1_555 1_555
C22 C19 1_555 1_555
H19 C22 1_555 1_555
C23 C21 1_555 1_555
C24 C13 1_555 1_555
H20 C24 1_555 1_555
C25 O12 1_555 1_555
H21 C25 1_555 1_555
C26 C1 1_555 1_555
H22 C26 1_555 1_555
H23 C26 1_555 1_555
C27 C1 1_555 1_555
C28 C27 1_555 1_555
H24 C28 1_555 1_555
H25 C28 1_555 1_555
H26 C28 1_555 1_555
C29 C27 1_555 1_555
H27 C29 1_555 1_555
H28 C29 1_555 1_555
H29 C29 1_555 1_555
C30 C23 1_555 1_555
H30 C30 1_555 1_555
H31 C30 1_555 1_555
H32 C30 1_555 1_555
C31 C14 1_555 1_555
H33 C31 1_555 1_555
H34 C31 1_555 1_555
H35 C31 1_555 1_555
C32 O7 1_555 1_555
H36 C32 1_555 1_555
H37 C32 1_555 1_555
C33 O3 1_555 1_555
C34 C33 1_555 1_555
C35 C34 1_555 1_555
H38 C35 1_555 1_555
C36 C35 1_555 1_555
H39 C36 1_555 1_555
C37 C36 1_555 1_555
H40 C37 1_555 1_555
C38 C37 1_555 1_555
H41 C38 1_555 1_555
C39 C34 1_555 1_555
H42 C39 1_555 1_555
C40 O5 1_555 1_555
C41 C40 1_555 1_555
H43 C41 1_555 1_555
H44 C41 1_555 1_555
H45 C41 1_555 1_555
C42 O9 1_555 1_555
H46 C42 1_555 1_555
H47 C42 1_555 1_555
H48 C42 1_555 1_555
C43 C10 1_555 1_555
H49 C43 1_555 1_555
H50 C43 1_555 1_555
H51 C43 1_555 1_555
C44 C10 1_555 1_555
H52 C44 1_555 1_555
H53 C44 1_555 1_555
H54 C44 1_555 1_555
C45 C10 1_555 1_555
H55 C45 1_555 1_555
H56 C45 1_555 1_555
H57 C45 1_555 1_555
O15 C50 1_555 1_555
C50 H70 1_555 1_555
H71 C50 1_555 1_555
C51 C50 1_555 1_555
H72 C51 1_555 1_555
H73 C51 1_555 1_555
O16 C51 1_555 1_555
C52 O16 1_555 1_555
H74 C52 1_555 1_555
H75 C52 1_555 1_555
C53 O15 1_555 1_555
H76 C53 1_555 1_555
H77 C53 1_555 1_555
C4 C6 1_555 1_555
C7 C32 1_555 1_555
C12 C14 1_555 1_555
C21 C27 1_555 1_555
C22 C24 1_555 1_555
C23 C25 1_555 1_555
C25 C26 1_555 1_555
C38 C39 1_555 1_555
C52 C53 1_555 1_555

#END
