
#######################################################################
#
#                 Cambridge Crystallographic Data Centre
#                                CCDC 
#
#######################################################################
#
# If this CIF has been generated from an entry in the Cambridge 
# Structural Database, then it will include bibliographic, chemical, 
# crystal, experimental, refinement or atomic coordinate data resulting 
# from the CCDC's data processing and validation procedures.
#
#######################################################################

data_FUVCIK
_chemical_formula_moiety         'C45 H57 N1 O14,C4 H10 O1'
_chemical_name_systematic        'Cabazitaxel 2-butanol solvate'
_chemical_properties_biological  'Cabazitaxel is an anticancer drug'
_symmetry_cell_setting           monoclinic
_symmetry_space_group_name_H-M   'P 21'
_symmetry_Int_Tables_number      4
_space_group_name_Hall           'P 2yb'
loop_
_symmetry_equiv_pos_site_id
_symmetry_equiv_pos_as_xyz
1 x,y,z
2 -x,1/2+y,-z
_cell_length_a                   11.834(3)
_cell_length_b                   17.330(9)
_cell_length_c                   12.614(3)
_cell_angle_alpha                90
_cell_angle_beta                 107.360(5)
_cell_angle_gamma                90
_cell_volume                     2469.08
_exptl_crystal_colour            colorless
_exptl_crystal_description       Prism
_cell_formula_units_Z            2
_chemical_properties_physical    Heat-sensitive
_exptl_crystal_recrystallization_method 2-butanol
loop_
_atom_site_label
_atom_site_type_symbol
_atom_site_fract_x
_atom_site_fract_y
_atom_site_fract_z
O1 O -1.00523(14) -0.20683(9) -0.06835(13)
H1 H -1.0438 -0.2358 -0.0411
C1 C -1.04605(18) -0.12971(12) -0.06634(16)
O2 O -1.1201(3) -0.00377(17) -0.44895(16)
C2 C -1.0526(3) 0.03626(17) -0.38232(19)
O3 O -0.86537(12) -0.11353(9) 0.07913(12)
O4 O -1.04912(18) 0.12427(13) -0.52748(14)
H2 H -1.1207 0.1165 -0.5463
C3 C -0.99123(17) -0.09912(12) 0.05560(16)
H3 H -1.0215 -0.1304 0.1059
C4 C -1.0014(2) 0.11003(16) -0.41370(18)
H4 H -1.0215 0.1531 -0.3723
C5 C -1.00679(17) -0.01201(12) 0.07947(16)
H5 H -1.0324 0.0136 0.0069
N1 N -0.8337(2) 0.03973(13) -0.44227(16)
H6 H -0.8449 0.0418 -0.5128
C6 C -0.8656(2) 0.10573(15) -0.38736(17)
H7 H -0.8323 0.0978 -0.3071
O5 O -0.81717(13) 0.03735(9) 0.06814(12)
O6 O -0.7641(2) -0.03312(13) -0.28818(15)
C7 C -0.88796(19) 0.02575(13) 0.14375(16)
C8 C -0.7871(2) -0.02463(16) -0.38764(19)
O7 O -0.82370(18) 0.05376(11) 0.31614(13)
O8 O -0.7710(2) -0.07772(13) -0.45927(17)
C9 C -0.8869(2) 0.09784(14) 0.21695(17)
H8 H -0.8353 0.1378 0.2017
C10 C -0.7441(4) -0.1584(2) -0.4245(3)
C11 C -1.0021(2) 0.13292(15) 0.22197(19)
H9 H -1.0015 0.1878 0.2070
H10 H -1.0085 0.1266 0.2964
O9 O -1.21634(17) 0.12034(11) 0.16025(15)
C12 C -0.8150(2) 0.18042(16) -0.41635(18)
C13 C -1.1098(2) 0.09628(13) 0.13879(17)
H11 H -1.1126 0.1144 0.0644
C14 C -1.10471(19) 0.00689(13) 0.13843(17)
C15 C -0.7404(3) 0.18206(19) -0.4818(2)
H12 H -0.7194 0.1360 -0.5087
O10 O -1.29558(18) -0.04416(14) 0.12857(19)
C16 C -1.2335(2) -0.01922(15) 0.0762(2)
C17 C -0.6960(4) 0.2510(2) -0.5083(3)
H13 H -0.6452 0.2505 -0.5520
O11 O -1.40613(16) -0.03223(14) -0.0846(2)
C18 C -1.28770(19) -0.00476(16) -0.0491(2)
H14 H -1.2896 0.0511 -0.0616
C19 C -0.7258(4) 0.3190(2) -0.4713(4)
H15 H -0.6975 0.3652 -0.4908
C20 C -1.21603(19) -0.04093(14) -0.11729(18)
C21 C -0.7980(5) 0.3186(2) -0.4048(5)
H16 H -0.8180 0.3650 -0.3780
C22 C -1.1736(2) 0.00269(14) -0.18442(17)
C23 C -0.8417(4) 0.2504(2) -0.3769(4)
H17 H -0.8900 0.2515 -0.3307
O12 O -1.02010(15) 0.02424(10) -0.27283(12)
C24 C -1.0847(2) -0.03521(14) -0.23316(18)
H18 H -1.1273 -0.0677 -0.2959
C25 C -0.9949(2) -0.08490(14) -0.14818(17)
H19 H -0.9314 -0.0519 -0.1056
H20 H -0.9609 -0.1218 -0.1878
C26 C -1.18387(19) -0.12678(14) -0.10297(18)
C27 C -1.2329(2) -0.17111(16) -0.0203(2)
H21 H -1.3178 -0.1688 -0.0444
H22 H -1.2034 -0.1482 0.0520
H23 H -1.2079 -0.2240 -0.0169
C28 C -1.2359(3) -0.17019(17) -0.2146(2)
H24 H -1.3120 -0.1490 -0.2533
H25 H -1.2443 -0.2239 -0.2001
H26 H -1.1836 -0.1645 -0.2594
C29 C -1.2009(3) 0.08570(18) -0.2113(3)
H27 H -1.2577 0.1032 -0.1759
H28 H -1.2329 0.0918 -0.2903
H29 H -1.1296 0.1156 -0.1850
C30 C -1.0760(2) -0.02686(15) 0.25649(19)
H30 H -1.1378 -0.0134 0.2881
H31 H -1.0021 -0.0062 0.3018
H32 H -1.0701 -0.0820 0.2531
C31 C -0.8101(2) -0.01139(15) 0.25000(18)
H33 H -0.8430 -0.0587 0.2693
H34 H -0.7291 -0.0193 0.2497
O13 O -0.87262(16) -0.21852(12) 0.18289(16)
C32 C -0.8193(2) -0.17732(13) 0.13774(18)
C33 C -0.6938(2) -0.18723(14) 0.14064(19)
C34 C -0.6451(3) -0.14670(19) 0.0705(3)
H35 H -0.6907 -0.1112 0.0204
C35 C -0.5282(3) -0.1593(3) 0.0753(4)
H36 H -0.4953 -0.1317 0.0286
C36 C -0.4611(3) -0.2111(3) 0.1468(4)
H37 H -0.3829 -0.2192 0.1485
C37 C -0.5080(3) -0.2521(3) 0.2173(3)
H38 H -0.4614 -0.2875 0.2667
C38 C -0.6250(3) -0.24035(19) 0.2145(2)
H39 H -0.6570 -0.2679 0.2619
O14 O -0.92401(17) 0.14225(11) -0.00648(15)
C39 C -0.8427(2) 0.09824(14) -0.00064(17)
C40 C -0.7567(3) 0.1046(2) -0.0662(2)
H40 H -0.7765 0.1485 -0.1146
H41 H -0.7602 0.0587 -0.1096
H42 H -0.6781 0.1108 -0.0164
C41 C -1.2608(3) 0.1924(2) 0.1105(3)
H43 H -1.3322 0.2050 0.1280
H44 H -1.2774 0.1888 0.0314
H45 H -1.2029 0.2320 0.1387
C42 C -1.4948(5) 0.0169(5) -0.0847(7)
H46 H -1.5693 -0.0096 -0.1107
H47 H -1.4940 0.0597 -0.1328
H48 H -1.4841 0.0354 -0.0106
C43 C -0.6286(11) -0.1663(8) -0.3332(11)
H49 H -0.5651 -0.1474 -0.3590
H50 H -0.6150 -0.2196 -0.3128
H51 H -0.6321 -0.1369 -0.2698
C44 C -0.8488(13) -0.1870(8) -0.3878(14)
H52 H -0.9205 -0.1814 -0.4480
H53 H -0.8543 -0.1571 -0.3254
H54 H -0.8372 -0.2403 -0.3668
C45 C -0.7603(19) -0.2021(6) -0.5329(7)
H55 H -0.6985 -0.1878 -0.5641
H56 H -0.8357 -0.1892 -0.5843
H57 H -0.7568 -0.2566 -0.5187
O15 O -1.2945(2) 0.10867(19) 0.3517(2)
H70 H -1.2815 0.1064 0.2915
C50 C -1.3855(4) 0.0566(4) 0.3528(4)
H71 H -1.3553 0.0038 0.3557
C51 C -1.4862(6) 0.0668(8) 0.2482(6)
H72 H -1.4607 0.0528 0.1853
H73 H -1.5113 0.1197 0.2414
H74 H -1.5511 0.0343 0.2509
C52 C -1.4155(6) 0.0733(6) 0.4583(5)
H75 H -1.4538 0.1234 0.4513
H76 H -1.3424 0.0767 0.5189
C53 C -1.4948(11) 0.0146(9) 0.4882(12)
H77 H -1.5124 0.0307 0.5543
H78 H -1.4554 -0.0345 0.5009
H79 H -1.5670 0.0101 0.4284
C46? C -1.4792(7) 0.0098(8) -0.1652(9)
H58? H -1.5572 -0.0122 -0.1848
H59? H -1.4510 0.0100 -0.2292
H60? H -1.4818 0.0617 -0.1397
C47? C -0.6112(16) -0.152(2) -0.364(4)
H61? H -0.5716 -0.1307 -0.4138
H62? H -0.5797 -0.2022 -0.3404
H63? H -0.5990 -0.1189 -0.3008
C48? C -0.824(3) -0.190(2) -0.360(3)
H64? H -0.7815 -0.1907 -0.2826
H65? H -0.8485 -0.2411 -0.3853
H66? H -0.8922 -0.1572 -0.3726
C49? C -0.710(4) -0.181(2) -0.528(2)
H67? H -0.6402 -0.1534 -0.5294
H68? H -0.7737 -0.1687 -0.5933
H69? H -0.6946 -0.2356 -0.5267
loop_
_geom_bond_atom_site_label_1
_geom_bond_atom_site_label_2
_geom_bond_site_symmetry_1
_geom_bond_site_symmetry_2
O1 H1 1_555 1_555
C1 O1 1_555 1_555
O2 C2 1_555 1_555
C2 C4 1_555 1_555
O3 C3 1_555 1_555
O4 H2 1_555 1_555
C3 C1 1_555 1_555
H3 C3 1_555 1_555
C4 O4 1_555 1_555
H4 C4 1_555 1_555
C5 C3 1_555 1_555
H5 C5 1_555 1_555
N1 H6 1_555 1_555
C6 C4 1_555 1_555
H7 C6 1_555 1_555
O5 C7 1_555 1_555
O6 C8 1_555 1_555
C7 C5 1_555 1_555
C8 N1 1_555 1_555
O7 C9 1_555 1_555
O8 C8 1_555 1_555
C9 C7 1_555 1_555
H8 C9 1_555 1_555
C10 O8 1_555 1_555
C11 C9 1_555 1_555
H9 C11 1_555 1_555
H10 C11 1_555 1_555
O9 C13 1_555 1_555
C12 C6 1_555 1_555
C13 C11 1_555 1_555
H11 C13 1_555 1_555
C14 C5 1_555 1_555
C15 C12 1_555 1_555
H12 C15 1_555 1_555
O10 C16 1_555 1_555
C16 C14 1_555 1_555
C17 C15 1_555 1_555
H13 C17 1_555 1_555
O11 C18 1_555 1_555
C18 C16 1_555 1_555
H14 C18 1_555 1_555
C19 C17 1_555 1_555
H15 C19 1_555 1_555
C20 C18 1_555 1_555
C21 C19 1_555 1_555
H16 C21 1_555 1_555
C22 C20 1_555 1_555
C23 C12 1_555 1_555
H17 C23 1_555 1_555
O12 C2 1_555 1_555
C24 C22 1_555 1_555
H18 C24 1_555 1_555
C25 C1 1_555 1_555
H19 C25 1_555 1_555
H20 C25 1_555 1_555
C26 C1 1_555 1_555
C27 C26 1_555 1_555
H21 C27 1_555 1_555
H22 C27 1_555 1_555
H23 C27 1_555 1_555
C28 C26 1_555 1_555
H24 C28 1_555 1_555
H25 C28 1_555 1_555
H26 C28 1_555 1_555
C29 C22 1_555 1_555
H27 C29 1_555 1_555
H28 C29 1_555 1_555
H29 C29 1_555 1_555
C30 C14 1_555 1_555
H30 C30 1_555 1_555
H31 C30 1_555 1_555
H32 C30 1_555 1_555
C31 C7 1_555 1_555
H33 C31 1_555 1_555
H34 C31 1_555 1_555
O13 C32 1_555 1_555
C32 O3 1_555 1_555
C33 C32 1_555 1_555
C34 C33 1_555 1_555
H35 C34 1_555 1_555
C35 C34 1_555 1_555
H36 C35 1_555 1_555
C36 C35 1_555 1_555
H37 C36 1_555 1_555
C37 C36 1_555 1_555
H38 C37 1_555 1_555
C38 C33 1_555 1_555
H39 C38 1_555 1_555
O14 C39 1_555 1_555
C39 O5 1_555 1_555
C40 C39 1_555 1_555
H40 C40 1_555 1_555
H41 C40 1_555 1_555
H42 C40 1_555 1_555
C41 O9 1_555 1_555
H43 C41 1_555 1_555
H44 C41 1_555 1_555
H45 C41 1_555 1_555
C42 O11 1_555 1_555
H46 C42 1_555 1_555
H47 C42 1_555 1_555
H48 C42 1_555 1_555
C43 C10 1_555 1_555
H49 C43 1_555 1_555
H50 C43 1_555 1_555
H51 C43 1_555 1_555
C44 C10 1_555 1_555
H52 C44 1_555 1_555
H53 C44 1_555 1_555
H54 C44 1_555 1_555
C45 C10 1_555 1_555
H55 C45 1_555 1_555
H56 C45 1_555 1_555
H57 C45 1_555 1_555
O15 H70 1_555 1_555
C50 O15 1_555 1_555
H71 C50 1_555 1_555
C51 C50 1_555 1_555
H72 C51 1_555 1_555
H73 C51 1_555 1_555
H74 C51 1_555 1_555
C52 C50 1_555 1_555
H75 C52 1_555 1_555
H76 C52 1_555 1_555
C53 C52 1_555 1_555
H77 C53 1_555 1_555
H78 C53 1_555 1_555
H79 C53 1_555 1_555
N1 C6 1_555 1_555
O7 C31 1_555 1_555
C13 C14 1_555 1_555
C20 C26 1_555 1_555
C21 C23 1_555 1_555
O12 C24 1_555 1_555
C24 C25 1_555 1_555
C37 C38 1_555 1_555

#END
