
#######################################################################
#
#                 Cambridge Crystallographic Data Centre
#                                CCDC 
#
#######################################################################
#
# If this CIF has been generated from an entry in the Cambridge 
# Structural Database, then it will include bibliographic, chemical, 
# crystal, experimental, refinement or atomic coordinate data resulting 
# from the CCDC's data processing and validation procedures.
#
#######################################################################

data_FUVKIQ
_chemical_formula_moiety         'C22 H9 F15 N2'
_chemical_name_systematic        
2-Fluoro-3-pentafluoroethyl-1-phenyl-2,3,4-tris(trifluoromethyl)-2,3-dihydropyrrolo(3,2-c)quinoline
_symmetry_cell_setting           orthorhombic
_symmetry_space_group_name_H-M   'P 21 21 21'
_symmetry_Int_Tables_number      19
_space_group_name_Hall           'P 2ac 2ab'
loop_
_symmetry_equiv_pos_site_id
_symmetry_equiv_pos_as_xyz
1 x,y,z
2 1/2+x,1/2-y,-z
3 -x,1/2+y,1/2-z
4 1/2-x,-y,1/2+z
_cell_length_a                   11.381(5)
_cell_length_b                   19.110(6)
_cell_length_c                   9.982(5)
_cell_angle_alpha                90
_cell_angle_beta                 90
_cell_angle_gamma                90
_cell_volume                     2170.99
_exptl_crystal_colour            colorless
_cell_formula_units_Z            4
loop_
_atom_site_label
_atom_site_type_symbol
_atom_site_fract_x
_atom_site_fract_y
_atom_site_fract_z
N1 N 0.4519(4) 0.1675(2) 0.9216(4)
C1 C 0.3864(5) 0.1821(3) 1.0387(5)
C2 C 0.4261(4) 0.1251(3) 1.1426(6)
C3 C 0.4751(4) 0.0680(2) 1.0496(5)
C4 C 0.4938(4) 0.0987(2) 0.9256(5)
C5 C 0.5132(4) -0.0015(3) 1.0653(5)
N2 N 0.5652(4) -0.0368(2) 0.9693(5)
C6 C 0.5859(4) -0.0055(3) 0.8498(5)
C7 C 0.6456(5) -0.0476(3) 0.7522(6)
C8 C 0.6711(5) -0.0210(4) 0.6302(6)
C9 C 0.6430(6) 0.0510(4) 0.6044(6)
C10 C 0.5855(6) 0.0913(3) 0.6940(6)
C11 C 0.5538(5) 0.0640(3) 0.8217(5)
C12 C 0.4219(5) 0.2027(3) 0.7970(6)
C13 C 0.3247(6) 0.1827(3) 0.7271(6)
C14 C 0.2977(7) 0.2172(4) 0.6076(7)
C15 C 0.3656(9) 0.2692(4) 0.5619(6)
C16 C 0.4653(8) 0.2883(3) 0.6326(8)
C17 C 0.4950(7) 0.2555(3) 0.7523(7)
C18 C 0.3932(7) 0.2627(3) 1.0724(7)
C19 C 0.5318(6) 0.1488(4) 1.2291(6)
C20 C 0.4994(7) -0.0488(4) 1.1866(7)
C21 C 0.3197(5) 0.1075(3) 1.2395(6)
C22 C 0.2199(6) 0.0593(3) 1.1877(8)
F1 F 0.4997(4) 0.2859(2) 1.0712(5)
F2 F 0.3311(4) 0.2975(2) 0.9830(4)
F3 F 0.3440(4) 0.2773(2) 1.1901(4)
F4 F 0.6152(3) 0.1755(2) 1.1501(4)
F5 F 0.5034(3) 0.1990(2) 1.3171(4)
F6 F 0.5790(4) 0.0966(2) 1.2954(4)
F7 F 0.4614(13) -0.1112(4) 1.1533(9)
F8 F 0.4252(10) -0.0282(5) 1.2780(9)
F9 F 0.6016(9) -0.0616(8) 1.2469(14)
F10 F 0.2676(3) 0.1720(2) 1.0158(3)
F11 F 0.3625(4) 0.0782(2) 1.3524(4)
F12 F 0.2668(3) 0.1664(2) 1.2795(4)
F13 F 0.2470(4) 0.0224(2) 1.0809(5)
F14 F 0.1882(4) 0.0159(3) 1.2847(6)
F15 F 0.1254(3) 0.0947(3) 1.1591(6)
H1 H 0.6700 -0.1009 0.7848
H2 H 0.7076 -0.0431 0.5735
H3 H 0.6760 0.0738 0.5224
H4 H 0.5725 0.1425 0.6515
H5 H 0.2721 0.1485 0.7551
H6 H 0.2256 0.1959 0.5707
H7 H 0.3405 0.2977 0.4857
H8 H 0.5213 0.3305 0.5999
H9 H 0.5772 0.2708 0.7946
loop_
_geom_bond_atom_site_label_1
_geom_bond_atom_site_label_2
_geom_bond_site_symmetry_1
_geom_bond_site_symmetry_2
N1 C1 1_555 1_555
C1 C2 1_555 1_555
C2 C3 1_555 1_555
C3 C4 1_555 1_555
C4 N1 1_555 1_555
C5 C3 1_555 1_555
N2 C5 1_555 1_555
C6 N2 1_555 1_555
C7 C6 1_555 1_555
C8 C7 1_555 1_555
C9 C8 1_555 1_555
C10 C9 1_555 1_555
C11 C4 1_555 1_555
C12 N1 1_555 1_555
C13 C12 1_555 1_555
C14 C13 1_555 1_555
C15 C14 1_555 1_555
C16 C15 1_555 1_555
C17 C12 1_555 1_555
C18 C1 1_555 1_555
C19 C2 1_555 1_555
C20 C5 1_555 1_555
C21 C2 1_555 1_555
C22 C21 1_555 1_555
F1 C18 1_555 1_555
F2 C18 1_555 1_555
F3 C18 1_555 1_555
F4 C19 1_555 1_555
F5 C19 1_555 1_555
F6 C19 1_555 1_555
F7 C20 1_555 1_555
F8 C20 1_555 1_555
F9 C20 1_555 1_555
F10 C1 1_555 1_555
F11 C21 1_555 1_555
F12 C21 1_555 1_555
F13 C22 1_555 1_555
F14 C22 1_555 1_555
F15 C22 1_555 1_555
H1 C7 1_555 1_555
H2 C8 1_555 1_555
H3 C9 1_555 1_555
H4 C10 1_555 1_555
H5 C13 1_555 1_555
H6 C14 1_555 1_555
H7 C15 1_555 1_555
H8 C16 1_555 1_555
H9 C17 1_555 1_555
C6 C11 1_555 1_555
C10 C11 1_555 1_555
C16 C17 1_555 1_555

#END
