
#######################################################################
#
#                 Cambridge Crystallographic Data Centre
#                                CCDC 
#
#######################################################################
#
# If this CIF has been generated from an entry in the Cambridge 
# Structural Database, then it will include bibliographic, chemical, 
# crystal, experimental, refinement or atomic coordinate data resulting 
# from the CCDC's data processing and validation procedures.
#
#######################################################################

data_FUVRAR
_chemical_formula_moiety         'C22 H24 Cl1 N1 O4'
_chemical_name_systematic        
'Methyl 1,4-di-t-butyl-2-chloro-3-oxo-3H-phenoxazine-7-carboxylate'
_symmetry_cell_setting           monoclinic
_symmetry_space_group_name_H-M   'P 21/c'
_symmetry_Int_Tables_number      14
_space_group_name_Hall           '-P 2ybc'
loop_
_symmetry_equiv_pos_site_id
_symmetry_equiv_pos_as_xyz
1 x,y,z
2 -x,1/2+y,1/2-z
3 -x,-y,-z
4 x,1/2-y,1/2+z
_cell_length_a                   6.1420(3)
_cell_length_b                   19.2023(10)
_cell_length_c                   16.6775(9)
_cell_angle_alpha                90
_cell_angle_beta                 96.8260(10)
_cell_angle_gamma                90
_cell_volume                     1953.01
_exptl_crystal_colour            orange
_exptl_crystal_description       bar
_cell_formula_units_Z            4
loop_
_atom_site_label
_atom_site_type_symbol
_atom_site_fract_x
_atom_site_fract_y
_atom_site_fract_z
O1 O 1.7784(2) 0.71876(7) 0.61707(10)
Cl1 Cl 0.23567(8) 0.73198(3) 0.23073(3)
O2 O 1.0770(2) 0.75916(6) 0.43352(8)
N1 N 0.9201(2) 0.62758(7) 0.38567(9)
O3 O 1.8066(2) 0.60223(7) 0.61666(8)
C1 C 0.8164(3) 0.68284(8) 0.35666(10)
O4 O 0.4542(2) 0.85212(7) 0.28700(10)
C2 C 1.1872(3) 0.70123(9) 0.46308(10)
C3 C 1.4951(3) 0.65175(9) 0.54345(10)
C4 C 1.1036(3) 0.63560(9) 0.44215(10)
C5 C 0.4939(3) 0.73044(9) 0.28491(11)
C6 C 0.7438(3) 0.80939(9) 0.37985(10)
C7 C 0.5560(3) 0.80197(9) 0.31725(12)
C8 C 0.6259(3) 0.67389(9) 0.29436(10)
C9 C 1.7061(3) 0.66271(9) 0.59580(11)
C10 C 0.8746(3) 0.75271(8) 0.38960(10)
C11 C 1.3830(3) 0.71052(9) 0.51232(11)
H1 H 1.4381 0.7549 0.5243
C12 C 1.2168(3) 0.57705(9) 0.47519(11)
H2 H 1.1617 0.5327 0.4632
C13 C 0.8211(3) 0.58228(10) 0.22143(12)
H3 H 0.8695 0.6182 0.1876
H4 H 0.8042 0.5395 0.1916
H5 H 0.9277 0.5761 0.2679
C14 C 1.4098(3) 0.58525(9) 0.52549(11)
H6 H 1.4840 0.5463 0.5477
C15 C 0.7855(3) 0.87991(9) 0.42324(11)
C16 C 0.5996(3) 0.60327(9) 0.24899(10)
C17 C 0.5181(3) 0.54697(10) 0.30361(12)
H7 H 0.3803 0.5611 0.3202
H8 H 0.6235 0.5408 0.3504
H9 H 0.4995 0.5039 0.2744
C18 C 2.0144(3) 0.60870(11) 0.66689(12)
H10 H 2.0745 0.5632 0.6789
H11 H 1.9926 0.6319 0.7163
H12 H 2.1141 0.6353 0.6388
C19 C 0.8954(3) 0.93007(10) 0.36915(12)
H13 H 0.9213 0.9739 0.3963
H14 H 0.8014 0.9370 0.3196
H15 H 1.0325 0.9107 0.3576
C20 C 0.5671(3) 0.91135(10) 0.44262(14)
H16 H 0.4983 0.8799 0.4766
H17 H 0.4723 0.9187 0.3933
H18 H 0.5947 0.9550 0.4700
C21 C 0.4402(3) 0.60569(10) 0.17026(12)
H19 H 0.4872 0.6408 0.1352
H20 H 0.2953 0.6165 0.1827
H21 H 0.4388 0.5612 0.1439
C22 C 0.9301(4) 0.87339(10) 0.50511(12)
H22 H 0.8625 0.8418 0.5393
H23 H 0.9458 0.9183 0.5304
H24 H 1.0720 0.8560 0.4965
loop_
_geom_bond_atom_site_label_1
_geom_bond_atom_site_label_2
_geom_bond_site_symmetry_1
_geom_bond_site_symmetry_2
O1 C9 1_555 1_555
Cl1 C5 1_555 1_555
O2 C2 1_555 1_555
N1 C1 1_555 1_555
O3 C9 1_555 1_555
C1 C8 1_555 1_555
O4 C7 1_555 1_555
C2 C4 1_555 1_555
C3 C9 1_555 1_555
C4 N1 1_555 1_555
C5 C7 1_555 1_555
C6 C7 1_555 1_555
C8 C5 1_555 1_555
C10 O2 1_555 1_555
C11 C2 1_555 1_555
H1 C11 1_555 1_555
C12 C4 1_555 1_555
H2 C12 1_555 1_555
C13 H3 1_555 1_555
H4 C13 1_555 1_555
H5 C13 1_555 1_555
C14 C3 1_555 1_555
H6 C14 1_555 1_555
C15 C6 1_555 1_555
C16 C8 1_555 1_555
C17 C16 1_555 1_555
H7 C17 1_555 1_555
H8 C17 1_555 1_555
H9 C17 1_555 1_555
C18 O3 1_555 1_555
H10 C18 1_555 1_555
H11 C18 1_555 1_555
H12 C18 1_555 1_555
C19 C15 1_555 1_555
H13 C19 1_555 1_555
H14 C19 1_555 1_555
H15 C19 1_555 1_555
C20 C15 1_555 1_555
H16 C20 1_555 1_555
H17 C20 1_555 1_555
H18 C20 1_555 1_555
C21 C16 1_555 1_555
H19 C21 1_555 1_555
H20 C21 1_555 1_555
H21 C21 1_555 1_555
C22 C15 1_555 1_555
H22 C22 1_555 1_555
H23 C22 1_555 1_555
H24 C22 1_555 1_555
C1 C10 1_555 1_555
C3 C11 1_555 1_555
C6 C10 1_555 1_555
C12 C14 1_555 1_555
C13 C16 1_555 1_555

#END
