
#######################################################################
#
#                 Cambridge Crystallographic Data Centre
#                                CCDC 
#
#######################################################################
#
# If this CIF has been generated from an entry in the Cambridge 
# Structural Database, then it will include bibliographic, chemical, 
# crystal, experimental, refinement or atomic coordinate data resulting 
# from the CCDC's data processing and validation procedures.
#
#######################################################################

data_FUVZUT
_chemical_name_common            
'(1)-(octamethoxy-butoxy-((2-aminoethyl)aminocarbonylmethoxy)pillar(5)arene) pseudorotaxane unknown solvate'
_chemical_formula_moiety         'C51 H62 N2 O11'
_chemical_name_systematic        
'(1)-(N-(2-aminoethyl)-2-((34-butoxy-9,14,19,24,26,28,30,32-octamethoxyhexacyclo[21.2.2.2^3,6^.2^8,11^.2^13,16^.2^18,21^]pentatriaconta-1(25),3,5,8,10,13,15,18,20,23,26,28,30,32,34-pentadecaen-4-yl)oxy)acetamide) pseudorotaxane unknown solvate'
_symmetry_cell_setting           monoclinic
_symmetry_space_group_name_H-M   'C 2/c'
_symmetry_Int_Tables_number      15
_space_group_name_Hall           '-C 2yn'
loop_
_symmetry_equiv_pos_site_id
_symmetry_equiv_pos_as_xyz
1 x,y,z
2 -x,y,1/2-z
3 1/2+x,1/2+y,z
4 1/2-x,1/2+y,1/2-z
5 -x,-y,-z
6 x,-y,1/2+z
7 1/2-x,1/2-y,-z
8 1/2+x,1/2-y,1/2+z
_cell_length_a                   20.974(3)
_cell_length_b                   14.061(2)
_cell_length_c                   35.363(6)
_cell_angle_alpha                90
_cell_angle_beta                 91.214(5)
_cell_angle_gamma                90
_cell_volume                     10426.8
_exptl_crystal_colour            colorless
_exptl_crystal_description       block
_cell_formula_units_Z            8
loop_
_atom_site_label
_atom_site_type_symbol
_atom_site_fract_x
_atom_site_fract_y
_atom_site_fract_z
C1 C -0.06776(10) 0.99389(17) 0.10372(6)
H1 H -0.0925 1.0401 0.0893
H2 H -0.0970 0.9468 0.1134
C2 C -0.03495(9) 1.04306(17) 0.13640(6)
C3 C -0.01204(10) 0.99127(17) 0.16702(6)
C4 C 0.02151(10) 1.03591(18) 0.19624(6)
H3 H 0.0369 0.9998 0.2165
C5 C 0.03252(9) 1.13249(18) 0.19588(6)
C6 C 0.00775(10) 1.18458(17) 0.16583(7)
C7 C -0.02545(10) 1.13968(18) 0.13668(6)
H4 H -0.0418 1.1760 0.1167
C8 C -0.00493(18) 0.8373(2) 0.19537(10)
H5 H 0.0405 0.8428 0.1987
H6 H -0.0158 0.7726 0.1896
H7 H -0.0253 0.8561 0.2183
C9 C 0.02492(15) 1.3294(2) 0.13255(9)
H8 H 0.0554 1.2967 0.1174
H9 H 0.0395 1.3930 0.1375
H10 H -0.0154 1.3316 0.1192
C10 C 0.07090(10) 1.18021(18) 0.22715(6)
H11 H 0.0568 1.2456 0.2296
H12 H 0.0632 1.1480 0.2509
C11 C 0.14147(10) 1.17901(17) 0.21969(6)
C12 C 0.18080(11) 1.11020(19) 0.23623(6)
C13 C 0.24539(11) 1.10819(19) 0.22846(7)
H13 H 0.2713 1.0628 0.2402
C14 C 0.27235(10) 1.17248(18) 0.20347(6)
C15 C 0.23318(11) 1.24130(17) 0.18732(6)
C16 C 0.16898(11) 1.24296(17) 0.19575(6)
H14 H 0.1434 1.2896 0.1846
C17 C 0.1872(2) 0.9967(3) 0.28616(12)
H15 H 0.2123 0.9493 0.2739
H16 H 0.1591 0.9665 0.3036
H17 H 0.2148 1.0400 0.2996
C18 C 0.22386(16) 1.3647(2) 0.14147(10)
H18 H 0.1956 1.3284 0.1254
H19 H 0.2504 1.4043 0.1262
H20 H 0.1993 1.4039 0.1579
C19 C 0.34202(10) 1.16534(19) 0.19334(7)
H21 H 0.3664 1.1424 0.2151
H22 H 0.3578 1.2281 0.1870
C20 C 0.35180(9) 1.09890(19) 0.16019(6)
C21 C 0.35976(10) 1.0023(2) 0.16483(7)
C22 C 0.36635(10) 0.94369(18) 0.13398(7)
H23 H 0.3720 0.8788 0.1378
C23 C 0.36476(9) 0.97889(16) 0.09723(6)
C24 C 0.35631(10) 1.07592(17) 0.09255(6)
C25 C 0.35045(9) 1.13481(17) 0.12353(6)
H24 H 0.3455 1.1999 0.1198
C26 C 0.3738(2) 0.8748(3) 0.20847(10)
H25 H 0.4147 0.8597 0.1984
H26 H 0.3417 0.8357 0.1965
H27 H 0.3744 0.8633 0.2352
C27 C 0.33472(13) 1.20275(18) 0.04881(7)
H28 H 0.2933 1.2120 0.0593
H29 H 0.3325 1.2138 0.0220
H30 H 0.3644 1.2464 0.0604
C28 C 0.36934(10) 0.91361(17) 0.06369(6)
H31 H 0.3930 0.9454 0.0441
H32 H 0.3931 0.8572 0.0712
C29 C 0.30556(10) 0.88381(15) 0.04761(6)
C30 C 0.27370(11) 0.80477(15) 0.06112(6)
C31 C 0.21378(10) 0.78149(14) 0.04667(6)
H33 H 0.1932 0.7280 0.0559
C32 C 0.18403(10) 0.83538(14) 0.01916(6)
C33 C 0.21636(10) 0.91417(15) 0.00531(6)
C34 C 0.27605(10) 0.93724(15) 0.01929(6)
H34 H 0.2971 0.9898 0.0095
C35 C 0.27509(15) 0.67335(19) 0.10369(9)
H35 H 0.2361 0.6926 0.1152
H36 H 0.3026 0.6441 0.1224
H37 H 0.2658 0.6287 0.0838
C36 C 0.21354(15) 1.05104(18) -0.03514(8)
H38 H 0.2181 1.0945 -0.0143
H39 H 0.1872 1.0793 -0.0546
H40 H 0.2548 1.0370 -0.0450
C37 C 0.11728(10) 0.81172(15) 0.00535(6)
H41 H 0.1116 0.7433 0.0052
H42 H 0.1112 0.8346 -0.0203
C38 C 0.06798(9) 0.85685(15) 0.03054(6)
C39 C 0.03275(11) 0.80434(16) 0.05548(6)
C40 C -0.01097(10) 0.84792(17) 0.07839(6)
H43 H -0.0345 0.8108 0.0948
C41 C -0.02089(9) 0.94528(16) 0.07764(6)
C42 C 0.01554(9) 0.99789(14) 0.05303(6)
C43 C 0.05891(9) 0.95410(14) 0.02983(6)
H44 H 0.0825 0.9910 0.0134
C44 C 0.02528(19) 0.6517(2) 0.08337(10)
H45 H -0.0185 0.6664 0.0895
H46 H 0.0517 0.6631 0.1058
C45 C 0.0302(3) 0.5490(6) 0.0721(3)
H47 H 0.0196 0.5100 0.0937
H48 H -0.0013 0.5364 0.0523
C46 C 0.0938(3) 0.5194(4) 0.0585(2)
H49 H 0.1051 0.5611 0.0378
H50 H 0.1248 0.5300 0.0788
C47 C 0.1008(4) 0.4198(6) 0.0454(3)
H51 H 0.0843 0.3773 0.0641
H52 H 0.1451 0.4062 0.0417
H53 H 0.0775 0.4114 0.0220
C48 C 0.05291(11) 1.15361(15) 0.03679(7)
H54 H 0.0379 1.2189 0.0371
H55 H 0.0563 1.1346 0.0105
C49 C 0.11813(11) 1.15042(15) 0.05496(7)
C50 C 0.18183(11) 1.0907(2) 0.10789(7)
H56 H 0.1966 1.1457 0.1221
H57 H 0.2130 1.0770 0.0888
C51 C 0.17711(15) 1.0077(2) 0.13387(10)
H58 H 0.2193 0.9967 0.1447
H59 H 0.1500 1.0265 0.1545
N1 N 0.12203(8) 1.11252(13) 0.08979(5)
H60 H 0.0874 1.1010 0.1016
N2 N 0.15466(15) 0.9211(2) 0.12045(8)
H61 H 0.1434 0.9152 0.0970
H62 H 0.1520 0.8734 0.1355
O1 O -0.02540(9) 0.89592(13) 0.16589(5)
O2 O 0.01795(10) 1.28102(13) 0.16688(5)
O3 O 0.15163(9) 1.04612(16) 0.25940(6)
O4 O 0.26201(8) 1.30317(13) 0.16304(5)
O5 O 0.35992(10) 0.97028(16) 0.20158(5)
O6 O 0.35537(8) 1.10769(11) 0.05590(4)
O7 O 0.30561(8) 0.75351(12) 0.08860(5)
O8 O 0.18483(8) 0.96599(11) -0.02257(4)
O9 O 0.04406(11) 0.70823(12) 0.05544(6)
O10 O 0.00647(6) 1.09528(10) 0.05404(4)
O11 O 0.16379(9) 1.18062(14) 0.03848(6)
H63? H -0.0204 0.6419 0.0812
H64? H 0.0346 0.6819 0.1075
C52? C 0.0584(5) 0.5587(10) 0.0818(4)
H65? H 0.0422 0.5161 0.1009
H66? H 0.1038 0.5670 0.0863
C53? C 0.0449(5) 0.5153(6) 0.0399(3)
H67? H -0.0002 0.5213 0.0338
H68? H 0.0681 0.5527 0.0217
C54? C 0.0632(5) 0.4167(10) 0.0364(5)
H69? H 0.0584 0.3852 0.0602
H70? H 0.1069 0.4130 0.0289
H71? H 0.0364 0.3865 0.0176
loop_
_geom_bond_atom_site_label_1
_geom_bond_atom_site_label_2
_geom_bond_site_symmetry_1
_geom_bond_site_symmetry_2
C1 H1 1_555 1_555
H2 C1 1_555 1_555
C2 C1 1_555 1_555
C3 C2 1_555 1_555
C4 C3 1_555 1_555
H3 C4 1_555 1_555
C5 C4 1_555 1_555
C6 C5 1_555 1_555
C7 C2 1_555 1_555
H4 C7 1_555 1_555
C8 H5 1_555 1_555
H6 C8 1_555 1_555
H7 C8 1_555 1_555
C9 H8 1_555 1_555
H9 C9 1_555 1_555
H10 C9 1_555 1_555
C10 C5 1_555 1_555
H11 C10 1_555 1_555
H12 C10 1_555 1_555
C11 C10 1_555 1_555
C12 C11 1_555 1_555
C13 C12 1_555 1_555
H13 C13 1_555 1_555
C14 C13 1_555 1_555
C15 C14 1_555 1_555
C16 C11 1_555 1_555
H14 C16 1_555 1_555
C17 H15 1_555 1_555
H16 C17 1_555 1_555
H17 C17 1_555 1_555
C18 H18 1_555 1_555
H19 C18 1_555 1_555
H20 C18 1_555 1_555
C19 C14 1_555 1_555
H21 C19 1_555 1_555
H22 C19 1_555 1_555
C20 C19 1_555 1_555
C21 C20 1_555 1_555
C22 C21 1_555 1_555
H23 C22 1_555 1_555
C23 C22 1_555 1_555
C24 C23 1_555 1_555
C25 C20 1_555 1_555
H24 C25 1_555 1_555
C26 H25 1_555 1_555
H26 C26 1_555 1_555
H27 C26 1_555 1_555
C27 H28 1_555 1_555
H29 C27 1_555 1_555
H30 C27 1_555 1_555
C28 C23 1_555 1_555
H31 C28 1_555 1_555
H32 C28 1_555 1_555
C29 C28 1_555 1_555
C30 C29 1_555 1_555
C31 C30 1_555 1_555
H33 C31 1_555 1_555
C32 C31 1_555 1_555
C33 C32 1_555 1_555
C34 C29 1_555 1_555
H34 C34 1_555 1_555
C35 H35 1_555 1_555
H36 C35 1_555 1_555
H37 C35 1_555 1_555
C36 H38 1_555 1_555
H39 C36 1_555 1_555
H40 C36 1_555 1_555
C37 C32 1_555 1_555
H41 C37 1_555 1_555
H42 C37 1_555 1_555
C38 C37 1_555 1_555
C39 C38 1_555 1_555
C40 C39 1_555 1_555
H43 C40 1_555 1_555
C41 C1 1_555 1_555
C42 C41 1_555 1_555
C43 C38 1_555 1_555
H44 C43 1_555 1_555
C44 H45 1_555 1_555
H46 C44 1_555 1_555
C45 C44 1_555 1_555
H47 C45 1_555 1_555
H48 C45 1_555 1_555
C46 C45 1_555 1_555
H49 C46 1_555 1_555
H50 C46 1_555 1_555
C47 C46 1_555 1_555
H51 C47 1_555 1_555
H52 C47 1_555 1_555
H53 C47 1_555 1_555
C48 H54 1_555 1_555
H55 C48 1_555 1_555
C49 C48 1_555 1_555
C50 H56 1_555 1_555
H57 C50 1_555 1_555
C51 C50 1_555 1_555
H58 C51 1_555 1_555
H59 C51 1_555 1_555
N1 C49 1_555 1_555
H60 N1 1_555 1_555
N2 C51 1_555 1_555
H61 N2 1_555 1_555
H62 N2 1_555 1_555
O1 C3 1_555 1_555
O2 C6 1_555 1_555
O3 C12 1_555 1_555
O4 C15 1_555 1_555
O5 C21 1_555 1_555
O6 C24 1_555 1_555
O7 C30 1_555 1_555
O8 C33 1_555 1_555
O9 C39 1_555 1_555
O10 C42 1_555 1_555
O11 C49 1_555 1_555
C6 C7 1_555 1_555
C8 O1 1_555 1_555
C9 O2 1_555 1_555
C15 C16 1_555 1_555
C17 O3 1_555 1_555
C18 O4 1_555 1_555
C24 C25 1_555 1_555
C26 O5 1_555 1_555
C27 O6 1_555 1_555
C33 C34 1_555 1_555
C35 O7 1_555 1_555
C36 O8 1_555 1_555
C40 C41 1_555 1_555
C42 C43 1_555 1_555
C44 O9 1_555 1_555
C48 O10 1_555 1_555
C50 N1 1_555 1_555

#END
