
#######################################################################
#
#                 Cambridge Crystallographic Data Centre
#                                CCDC 
#
#######################################################################
#
# If this CIF has been generated from an entry in the Cambridge 
# Structural Database, then it will include bibliographic, chemical, 
# crystal, experimental, refinement or atomic coordinate data resulting 
# from the CCDC's data processing and validation procedures.
#
#######################################################################

data_FUWBAC
_chemical_name_common            
'(1)-(octamethoxy-butoxy-((3-aminopropyl)aminocarbonylmethoxy)pillar(5)arene) pseudorotaxane'
_chemical_formula_moiety         'C52 H64 N2 O11'
_chemical_name_systematic        
'(1)-(N-(3-aminopropyl)-2-((34-butoxy-9,14,19,24,26,28,30,32-octamethoxyhexacyclo[21.2.2.2^3,6^.2^8,11^.2^13,16^.2^18,21^]pentatriaconta-1(25),3,5,8,10,13,15,18,20,23,26,28,30,32,34-pentadecaen-4-yl)oxy)acetamide) pseudorotaxane'
_symmetry_cell_setting           monoclinic
_symmetry_space_group_name_H-M   'P 21/c'
_symmetry_Int_Tables_number      14
_space_group_name_Hall           '-P 2ybc'
loop_
_symmetry_equiv_pos_site_id
_symmetry_equiv_pos_as_xyz
1 x,y,z
2 -x,1/2+y,1/2-z
3 -x,-y,-z
4 x,1/2-y,1/2+z
_cell_length_a                   12.1948(12)
_cell_length_b                   27.854(3)
_cell_length_c                   16.6118(13)
_cell_angle_alpha                90
_cell_angle_beta                 122.505(5)
_cell_angle_gamma                90
_cell_volume                     4758.65
_exptl_crystal_colour            colorless
_exptl_crystal_description       block
_cell_formula_units_Z            4
loop_
_atom_site_label
_atom_site_type_symbol
_atom_site_fract_x
_atom_site_fract_y
_atom_site_fract_z
C1 C 0.1684(8) 0.8969(3) -0.3427(5)
H1 H 0.2605 0.8915 -0.3073
H2 H 0.1486 0.9258 -0.3797
H3 H 0.1246 0.8702 -0.3846
C2 C 0.1236(18) 0.9020(4) -0.2750(9)
H4 H 0.1780 0.9262 -0.2286
H5 H 0.0361 0.9149 -0.3112
C3 C 0.1215(13) 0.8655(3) -0.2278(7)
H6 H 0.2092 0.8528 -0.1928
H7 H 0.0678 0.8415 -0.2751
C4 C 0.0793(7) 0.8666(2) -0.1594(4)
H8 H -0.0145 0.8640 -0.1928
H9 H 0.1181 0.8403 -0.1145
C5 C 0.1088(5) 0.9938(2) 0.2385(4)
H10 H 0.0609 1.0029 0.2675
H11 H 0.1027 1.0202 0.1982
C6 C 0.2468(8) 0.9872(3) 0.3150(5)
C7 C 0.4249(10) 0.9267(5) 0.3957(10)
H12 H 0.4244 0.9029 0.4381
H13 H 0.4762 0.9540 0.4337
C8 C 0.4860(10) 0.9045(5) 0.3400(11)
H14 H 0.5146 0.9313 0.3186
H15 H 0.5638 0.8873 0.3869
C9 C 0.4101(12) 0.8707(5) 0.2538(10)
H16 H 0.3301 0.8877 0.2106
H17 H 0.3854 0.8438 0.2780
C10 C 0.1007(5) 0.9210(2) -0.0399(4)
C11 C 0.1569(4) 0.96245(17) 0.0110(4)
C12 C 0.1389(4) 0.97320(17) 0.0841(3)
H18 H 0.1756 1.0012 0.1191
C13 C 0.0680(4) 0.94378(17) 0.1072(3)
C14 C 0.0135(4) 0.90159(17) 0.0572(3)
C15 C 0.0274(5) 0.89079(19) -0.0178(3)
H19 H -0.0118 0.8634 -0.0542
C16 C 0.2391(5) 0.99411(19) -0.0106(4)
H20 H 0.2136 0.9890 -0.0763
H21 H 0.2228 1.0275 -0.0039
C17 C 0.3826(5) 0.98380(16) 0.0549(4)
C18 C 0.4569(5) 1.00781(16) 0.1390(4)
C19 C 0.5890(5) 0.99841(16) 0.1977(3)
H22 H 0.6385 1.0155 0.2543
C20 C 0.6489(4) 0.96388(15) 0.1736(3)
C21 C 0.5735(4) 0.93924(15) 0.0886(3)
C22 C 0.4425(4) 0.94925(16) 0.0296(3)
H23 H 0.3933 0.9328 -0.0278
C23 C 0.5632(5) 0.87651(19) -0.0128(4)
H24 H 0.4984 0.8595 -0.0080
H25 H 0.6191 0.8539 -0.0172
H26 H 0.5215 0.8964 -0.0687
C24 C 0.4604(8) 1.0608(3) 0.2543(6)
H27 H 0.4923 1.0352 0.3002
H28 H 0.4026 1.0807 0.2621
H29 H 0.5323 1.0797 0.2637
C25 C 0.7913(4) 0.95251(16) 0.2406(3)
H30 H 0.8276 0.9423 0.2039
H31 H 0.8370 0.9813 0.2754
C26 C 0.8117(4) 0.91360(16) 0.3105(3)
C27 C 0.8254(4) 0.92468(16) 0.3971(3)
C28 C 0.8381(4) 0.88797(17) 0.4587(3)
H32 H 0.8470 0.8958 0.5163
C29 C 0.8377(4) 0.84058(17) 0.4360(3)
C30 C 0.8258(4) 0.82923(16) 0.3501(3)
C31 C 0.8130(4) 0.86578(16) 0.2888(3)
H33 H 0.8051 0.8579 0.2316
C32 C 0.8147(7) 0.7687(2) 0.2434(5)
H34 H 0.7344 0.7815 0.1917
H35 H 0.8141 0.7343 0.2379
H36 H 0.8859 0.7817 0.2412
C33 C 0.8412(8) 0.9854(2) 0.5046(5)
H37 H 0.7678 0.9742 0.5061
H38 H 0.8476 1.0197 0.5120
H39 H 0.9191 0.9708 0.5557
C34 C -0.0545(4) 0.86668(18) 0.0870(3)
H40 H -0.1045 0.8846 0.1066
H41 H -0.1143 0.8469 0.0328
C35 C 0.1323(6) 0.7539(2) 0.0410(5)
H42 H 0.2221 0.7632 0.0758
H43 H 0.0993 0.7534 -0.0261
H44 H 0.1244 0.7224 0.0611
C36 C 0.0982(5) 0.79530(17) 0.1523(4)
C37 C 0.0423(4) 0.83488(16) 0.1683(4)
C38 C 0.0831(5) 0.84540(17) 0.2615(4)
H45 H 0.0476 0.8718 0.2738
C39 C 0.1760(5) 0.81768(17) 0.3379(4)
C40 C 0.2266(5) 0.77716(18) 0.3204(4)
C41 C 0.1877(5) 0.76676(17) 0.2286(5)
H46 H 0.2218 0.7399 0.2165
C42 C 0.1818(6) 0.8692(3) 0.4532(4)
H47 H 0.2068 0.8965 0.4312
H48 H 0.2210 0.8715 0.5209
H49 H 0.0889 0.8686 0.4220
C43 C 0.4968(10) 0.6925(4) 0.2569(9)
H50 H 0.5207 0.7209 0.2371
H51 H 0.4299 0.6757 0.2017
H52 H 0.5714 0.6721 0.2921
C44 C 0.3286(5) 0.74648(19) 0.4033(5)
H53 H 0.3207 0.7510 0.4579
H54 H 0.3124 0.7129 0.3853
C45 C 0.4650(5) 0.75924(19) 0.4312(4)
C46 C 0.5214(6) 0.73905(17) 0.3847(5)
C47 C 0.6455(5) 0.75228(17) 0.4106(4)
H55 H 0.6827 0.7381 0.3801
C48 C 0.7153(5) 0.78612(17) 0.4811(4)
C49 C 0.6589(5) 0.8062(2) 0.5271(4)
C50 C 0.5369(5) 0.7926(2) 0.5032(4)
H56 H 0.5016 0.8059 0.5357
C51 C 0.6768(8) 0.8640(3) 0.6413(5)
H57 H 0.5966 0.8789 0.5939
H58 H 0.7361 0.8881 0.6837
H59 H 0.6604 0.8412 0.6769
C52 C 0.8464(5) 0.80122(18) 0.5033(4)
H60 H 0.8909 0.7736 0.4983
H61 H 0.8975 0.8128 0.5685
N1 N 0.2912(7) 0.9421(4) 0.3249(6)
H62 H 0.2375 0.9206 0.2870
N2 N 0.4534(14) 0.8453(5) 0.1819(12)
H63 H 0.5288 0.8503 0.1909
H64 H 0.3984 0.8271 0.1359
O1 O 0.4497(4) 0.70568(14) 0.3162(4)
O2 O 0.8291(3) 0.78111(11) 0.3313(2)
O3 O 0.0595(4) 0.78737(12) 0.0591(3)
O4 O 0.1213(5) 0.91087(15) -0.1116(3)
O5 O 0.6376(3) 0.90550(11) 0.0691(2)
O6 O 0.2231(4) 0.82773(15) 0.4321(3)
O7 O 0.7324(4) 0.83994(17) 0.5956(3)
O8 O 0.8249(4) 0.97295(12) 0.4163(2)
O9 O 0.0480(3) 0.95316(12) 0.1802(2)
O10 O 0.3933(4) 1.04136(14) 0.1617(3)
O11 O 0.3118(7) 1.0210(3) 0.3671(4)
loop_
_geom_bond_atom_site_label_1
_geom_bond_atom_site_label_2
_geom_bond_site_symmetry_1
_geom_bond_site_symmetry_2
C1 H1 1_555 1_555
H2 C1 1_555 1_555
H3 C1 1_555 1_555
C2 C1 1_555 1_555
H4 C2 1_555 1_555
H5 C2 1_555 1_555
C3 C2 1_555 1_555
H6 C3 1_555 1_555
H7 C3 1_555 1_555
C4 C3 1_555 1_555
H8 C4 1_555 1_555
H9 C4 1_555 1_555
C5 H10 1_555 1_555
H11 C5 1_555 1_555
C6 C5 1_555 1_555
C7 H12 1_555 1_555
H13 C7 1_555 1_555
C8 C7 1_555 1_555
H14 C8 1_555 1_555
H15 C8 1_555 1_555
C9 C8 1_555 1_555
H16 C9 1_555 1_555
H17 C9 1_555 1_555
C10 C11 1_555 1_555
C11 C12 1_555 1_555
C12 H18 1_555 1_555
C13 C12 1_555 1_555
C14 C13 1_555 1_555
C15 C10 1_555 1_555
H19 C15 1_555 1_555
C16 C11 1_555 1_555
H20 C16 1_555 1_555
H21 C16 1_555 1_555
C17 C16 1_555 1_555
C18 C17 1_555 1_555
C19 C18 1_555 1_555
H22 C19 1_555 1_555
C20 C19 1_555 1_555
C21 C20 1_555 1_555
C22 C17 1_555 1_555
H23 C22 1_555 1_555
C23 H24 1_555 1_555
H25 C23 1_555 1_555
H26 C23 1_555 1_555
C24 H27 1_555 1_555
H28 C24 1_555 1_555
H29 C24 1_555 1_555
C25 C20 1_555 1_555
H30 C25 1_555 1_555
H31 C25 1_555 1_555
C26 C25 1_555 1_555
C27 C26 1_555 1_555
C28 C27 1_555 1_555
H32 C28 1_555 1_555
C29 C28 1_555 1_555
C30 C29 1_555 1_555
C31 C26 1_555 1_555
H33 C31 1_555 1_555
C32 H34 1_555 1_555
H35 C32 1_555 1_555
H36 C32 1_555 1_555
C33 H37 1_555 1_555
H38 C33 1_555 1_555
H39 C33 1_555 1_555
C34 C14 1_555 1_555
H40 C34 1_555 1_555
H41 C34 1_555 1_555
C35 H42 1_555 1_555
H43 C35 1_555 1_555
H44 C35 1_555 1_555
C36 C37 1_555 1_555
C37 C34 1_555 1_555
C38 C37 1_555 1_555
H45 C38 1_555 1_555
C39 C38 1_555 1_555
C40 C39 1_555 1_555
C41 C36 1_555 1_555
H46 C41 1_555 1_555
C42 H47 1_555 1_555
H48 C42 1_555 1_555
H49 C42 1_555 1_555
C43 H50 1_555 1_555
H51 C43 1_555 1_555
H52 C43 1_555 1_555
C44 C40 1_555 1_555
H53 C44 1_555 1_555
H54 C44 1_555 1_555
C45 C44 1_555 1_555
C46 C45 1_555 1_555
C47 C46 1_555 1_555
H55 C47 1_555 1_555
C48 C47 1_555 1_555
C49 C48 1_555 1_555
C50 C45 1_555 1_555
H56 C50 1_555 1_555
C51 H57 1_555 1_555
H58 C51 1_555 1_555
H59 C51 1_555 1_555
C52 C29 1_555 1_555
H60 C52 1_555 1_555
H61 C52 1_555 1_555
N1 C6 1_555 1_555
H62 N1 1_555 1_555
N2 C9 1_555 1_555
H63 N2 1_555 1_555
H64 N2 1_555 1_555
O1 C43 1_555 1_555
O2 C30 1_555 1_555
O3 C35 1_555 1_555
O4 C4 1_555 1_555
O5 C21 1_555 1_555
O6 C39 1_555 1_555
O7 C49 1_555 1_555
O8 C27 1_555 1_555
O9 C5 1_555 1_555
O10 C18 1_555 1_555
O11 C6 1_555 1_555
C7 N1 1_555 1_555
C10 O4 1_555 1_555
C13 O9 1_555 1_555
C14 C15 1_555 1_555
C21 C22 1_555 1_555
C23 O5 1_555 1_555
C24 O10 1_555 1_555
C30 C31 1_555 1_555
C32 O2 1_555 1_555
C33 O8 1_555 1_555
C36 O3 1_555 1_555
C40 C41 1_555 1_555
C42 O6 1_555 1_555
C46 O1 1_555 1_555
C48 C52 1_555 1_555
C49 C50 1_555 1_555
C51 O7 1_555 1_555

#END
