
#######################################################################
#
#                 Cambridge Crystallographic Data Centre
#                                CCDC 
#
#######################################################################
#
# If this CIF has been generated from an entry in the Cambridge 
# Structural Database, then it will include bibliographic, chemical, 
# crystal, experimental, refinement or atomic coordinate data resulting 
# from the CCDC's data processing and validation procedures.
#
#######################################################################

data_FUWDEI
_chemical_formula_moiety         'C25 H29 Br1 N2 O6 S1'
_chemical_name_systematic        
'dimethyl (2-((4-bromophenyl)sulfonyl)-4-(piperidin-1-yl)-1,2,3,4-tetrahydroisoquinolin-1-yl)malonate'
_symmetry_cell_setting           monoclinic
_symmetry_space_group_name_H-M   'P 21/c'
_symmetry_Int_Tables_number      14
_space_group_name_Hall           '-P 2ybc'
loop_
_symmetry_equiv_pos_site_id
_symmetry_equiv_pos_as_xyz
1 x,y,z
2 -x,1/2+y,1/2-z
3 -x,-y,-z
4 x,1/2-y,1/2+z
_cell_length_a                   19.0969(16)
_cell_length_b                   11.1460(10)
_cell_length_c                   26.1021(17)
_cell_angle_alpha                90
_cell_angle_beta                 112.987(5)
_cell_angle_gamma                90
_cell_volume                     5114.76
_exptl_crystal_colour            colorless
_exptl_crystal_description       block
_cell_formula_units_Z            8
loop_
_atom_site_label
_atom_site_type_symbol
_atom_site_fract_x
_atom_site_fract_y
_atom_site_fract_z
Br1 Br 0.78720(2) 0.79627(2) 0.78827(2)
S1 S 0.43481(3) 0.75554(5) 0.74805(2)
O1 O 0.42666(8) 0.65064(15) 0.77672(6)
O2 O 0.41379(8) 0.87105(15) 0.76126(6)
O3 O 0.22520(9) 0.85953(19) 0.67364(7)
O4 O 0.20306(10) 0.67994(19) 0.62960(9)
O5 O 0.25635(10) 1.03093(18) 0.58844(8)
O6 O 0.19865(10) 0.90208(19) 0.51859(7)
N1 N 0.38357(9) 0.73416(16) 0.68182(7)
N2 N 0.44242(10) 0.54139(16) 0.58595(7)
C1 C 0.53160(11) 0.76340(19) 0.75764(8)
C2 C 0.55824(11) 0.8656(2) 0.74110(8)
H1 H 0.5243 0.9294 0.7237
C3 C 0.63474(12) 0.8746(2) 0.75002(9)
H2 H 0.6536 0.9446 0.7390
C4 C 0.68303(11) 0.7802(2) 0.77520(9)
C5 C 0.65704(12) 0.6775(2) 0.79121(9)
H3 H 0.6909 0.6133 0.8081
C6 C 0.58059(12) 0.6690(2) 0.78238(9)
H4 H 0.5619 0.5987 0.7933
C7 C 0.39243(11) 0.6219(2) 0.65539(8)
H5 H 0.3426 0.5986 0.6266
H6 H 0.4087 0.5574 0.6838
C8 C 0.45077(11) 0.63242(19) 0.62845(8)
H7 H 0.5019 0.6190 0.6589
C9 C 0.45298(15) 0.4198(2) 0.60879(10)
H8 H 0.4095 0.3981 0.6186
H9 H 0.4999 0.4164 0.6431
C10 C 0.45871(16) 0.3310(2) 0.56638(10)
H10 H 0.4629 0.2486 0.5815
H11 H 0.5052 0.3479 0.5595
C11 C 0.38953(15) 0.3388(2) 0.51173(10)
H12 H 0.3970 0.2864 0.4837
H13 H 0.3438 0.3107 0.5173
C12 C 0.37791(13) 0.4678(2) 0.49099(9)
H14 H 0.3304 0.4735 0.4572
H15 H 0.4207 0.4922 0.4809
C13 C 0.37327(12) 0.5520(2) 0.53557(9)
H16 H 0.3673 0.6358 0.5219
H17 H 0.3285 0.5313 0.5440
C14 C 0.45301(11) 0.7567(2) 0.60547(8)
C15 C 0.50176(12) 0.7749(2) 0.57752(9)
H18 H 0.5295 0.7092 0.5718
C16 C 0.50983(13) 0.8872(2) 0.55835(9)
H19 H 0.5422 0.8982 0.5389
C17 C 0.47069(13) 0.9838(2) 0.56749(9)
H20 H 0.4774 1.0615 0.5551
C18 C 0.42197(13) 0.9680(2) 0.59452(9)
H21 H 0.3949 1.0345 0.6004
C19 C 0.41243(11) 0.8538(2) 0.61327(8)
C20 C 0.36039(11) 0.8377(2) 0.64389(8)
H22 H 0.3635 0.9114 0.6665
C21 C 0.27598(12) 0.8182(2) 0.60429(9)
H23 H 0.2718 0.7493 0.5787
C22 C 0.23177(12) 0.7912(2) 0.64043(10)
C23 C 0.16094(19) 0.6420(4) 0.66283(17)
H24 H 0.1956 0.6369 0.7020
H25 H 0.1381 0.5632 0.6500
H26 H 0.1208 0.7005 0.6588
C24 C 0.24383(12) 0.9310(2) 0.57089(9)
C25 C 0.16283(18) 1.0030(3) 0.48323(12)
H27 H 0.1292 1.0442 0.4979
H28 H 0.1330 0.9744 0.4454
H29 H 0.2020 1.0589 0.4824
Br2 Br 0.05285(2) 0.93305(4) 0.56701(2)
S2 S -0.00929(3) 0.96392(6) 0.78950(2)
O7 O -0.06078(9) 0.86925(19) 0.78661(7)
O8 O -0.02785(9) 1.08550(18) 0.79711(7)
O9 O 0.06662(11) 0.8502(2) 0.95037(8)
O10 O 0.01753(10) 1.0351(2) 0.93597(8)
O11 O 0.19579(10) 1.0838(2) 1.02491(7)
O12 O 0.16337(12) 1.21675(19) 0.95466(8)
N3 N 0.07089(10) 0.93360(18) 0.84072(7)
N4 N 0.22512(10) 0.71994(18) 0.84380(8)
C26 C 0.00710(12) 0.9566(2) 0.72763(9)
C27 C -0.02532(13) 0.8651(2) 0.69013(9)
H30 H -0.0569 0.8073 0.6974
C28 C -0.01147(14) 0.8580(3) 0.64172(10)
H31 H -0.0336 0.7960 0.6153
C29 C 0.03465(13) 0.9422(3) 0.63304(10)
C30 C 0.06739(15) 1.0337(3) 0.66992(11)
H32 H 0.0993 1.0908 0.6626
C31 C 0.05319(14) 1.0415(3) 0.71763(10)
H33 H 0.0748 1.1045 0.7435
C32 C 0.10642(12) 0.8171(2) 0.84301(9)
H34 H 0.0676 0.7598 0.8193
H35 H 0.1255 0.7868 0.8817
C33 C 0.17254(11) 0.8216(2) 0.82355(9)
H36 H 0.1493 0.8145 0.7821
C34 C 0.18782(14) 0.6051(2) 0.82451(11)
H37 H 0.1574 0.6090 0.7839
H38 H 0.1529 0.5876 0.8433
C35 C 0.24620(16) 0.5061(3) 0.83676(13)
H39 H 0.2787 0.5207 0.8157
H40 H 0.2200 0.4283 0.8243
C36 C 0.29547(18) 0.4999(3) 0.89839(14)
H41 H 0.3362 0.4397 0.9051
H42 H 0.2643 0.4751 0.9192
C37 C 0.33061(17) 0.6227(3) 0.91866(14)
H43 H 0.3594 0.6203 0.9595
H44 H 0.3666 0.6428 0.9011
C38 C 0.26913(15) 0.7188(2) 0.90430(11)
H45 H 0.2350 0.7019 0.9238
H46 H 0.2929 0.7983 0.9166
C39 C 0.21539(12) 0.9401(2) 0.83646(9)
C40 C 0.27886(12) 0.9520(2) 0.82259(9)
H47 H 0.2955 0.8853 0.8077
C41 C 0.31733(14) 1.0592(2) 0.83039(10)
H48 H 0.3610 1.0657 0.8216
C42 C 0.29275(14) 1.1572(2) 0.85084(10)
H49 H 0.3188 1.2316 0.8554
C43 C 0.23000(13) 1.1473(2) 0.86481(9)
H50 H 0.2132 1.2151 0.8790
C44 C 0.19158(12) 1.0390(2) 0.85827(9)
C45 C 0.12215(12) 1.0297(2) 0.87292(9)
H51 H 0.0939 1.1074 0.8630
C46 C 0.14134(13) 1.0043(3) 0.93542(9)
H52 H 0.1805 0.9394 0.9492
C47 C 0.06812(15) 0.9659(3) 0.94114(10)
C48 C 0.16813(13) 1.1161(3) 0.97108(10)
C49 C 0.21682(19) 1.1831(4) 1.06433(12)
H53 H 0.2547 1.2335 1.0579
H54 H 0.2384 1.1515 1.1024
H55 H 0.1716 1.2311 1.0592
C50 C -0.0052(2) 0.8078(4) 0.95037(15)
H56 H -0.0148 0.8462 0.9808
H57 H -0.0030 0.7206 0.9555
H58 H -0.0464 0.8280 0.9148
loop_
_geom_bond_atom_site_label_1
_geom_bond_atom_site_label_2
_geom_bond_site_symmetry_1
_geom_bond_site_symmetry_2
Br1 C4 1_555 1_555
S1 O1 1_555 1_555
O2 S1 1_555 1_555
O3 C22 1_555 1_555
O4 C22 1_555 1_555
O5 C24 1_555 1_555
O6 C24 1_555 1_555
N1 S1 1_555 1_555
N2 C8 1_555 1_555
C1 S1 1_555 1_555
C2 C1 1_555 1_555
H1 C2 1_555 1_555
C3 C2 1_555 1_555
H2 C3 1_555 1_555
C4 C3 1_555 1_555
C5 C4 1_555 1_555
H3 C5 1_555 1_555
C6 C1 1_555 1_555
H4 C6 1_555 1_555
C7 N1 1_555 1_555
H5 C7 1_555 1_555
H6 C7 1_555 1_555
C8 C7 1_555 1_555
H7 C8 1_555 1_555
C9 N2 1_555 1_555
H8 C9 1_555 1_555
H9 C9 1_555 1_555
C10 C9 1_555 1_555
H10 C10 1_555 1_555
H11 C10 1_555 1_555
C11 C10 1_555 1_555
H12 C11 1_555 1_555
H13 C11 1_555 1_555
C12 C11 1_555 1_555
H14 C12 1_555 1_555
H15 C12 1_555 1_555
C13 N2 1_555 1_555
H16 C13 1_555 1_555
H17 C13 1_555 1_555
C14 C8 1_555 1_555
C15 C14 1_555 1_555
H18 C15 1_555 1_555
C16 C15 1_555 1_555
H19 C16 1_555 1_555
C17 C16 1_555 1_555
H20 C17 1_555 1_555
C18 C17 1_555 1_555
H21 C18 1_555 1_555
C19 C14 1_555 1_555
C20 N1 1_555 1_555
H22 C20 1_555 1_555
C21 C20 1_555 1_555
H23 C21 1_555 1_555
C22 C21 1_555 1_555
C23 O4 1_555 1_555
H24 C23 1_555 1_555
H25 C23 1_555 1_555
H26 C23 1_555 1_555
C24 C21 1_555 1_555
C25 O6 1_555 1_555
H27 C25 1_555 1_555
H28 C25 1_555 1_555
H29 C25 1_555 1_555
Br2 C29 1_555 1_555
S2 O7 1_555 1_555
O8 S2 1_555 1_555
O9 C47 1_555 1_555
O10 C47 1_555 1_555
O11 C48 1_555 1_555
O12 C48 1_555 1_555
N3 S2 1_555 1_555
N4 C33 1_555 1_555
C26 S2 1_555 1_555
C27 C26 1_555 1_555
H30 C27 1_555 1_555
C28 C27 1_555 1_555
H31 C28 1_555 1_555
C29 C28 1_555 1_555
C30 C29 1_555 1_555
H32 C30 1_555 1_555
C31 C26 1_555 1_555
H33 C31 1_555 1_555
C32 N3 1_555 1_555
H34 C32 1_555 1_555
H35 C32 1_555 1_555
C33 C32 1_555 1_555
H36 C33 1_555 1_555
C34 N4 1_555 1_555
H37 C34 1_555 1_555
H38 C34 1_555 1_555
C35 C34 1_555 1_555
H39 C35 1_555 1_555
H40 C35 1_555 1_555
C36 C35 1_555 1_555
H41 C36 1_555 1_555
H42 C36 1_555 1_555
C37 C36 1_555 1_555
H43 C37 1_555 1_555
H44 C37 1_555 1_555
C38 N4 1_555 1_555
H45 C38 1_555 1_555
H46 C38 1_555 1_555
C39 C33 1_555 1_555
C40 C39 1_555 1_555
H47 C40 1_555 1_555
C41 C40 1_555 1_555
H48 C41 1_555 1_555
C42 C41 1_555 1_555
H49 C42 1_555 1_555
C43 C42 1_555 1_555
H50 C43 1_555 1_555
C44 C39 1_555 1_555
C45 N3 1_555 1_555
H51 C45 1_555 1_555
C46 C45 1_555 1_555
H52 C46 1_555 1_555
C47 C46 1_555 1_555
C48 C46 1_555 1_555
C49 O11 1_555 1_555
H53 C49 1_555 1_555
H54 C49 1_555 1_555
H55 C49 1_555 1_555
C50 O9 1_555 1_555
H56 C50 1_555 1_555
H57 C50 1_555 1_555
H58 C50 1_555 1_555
C5 C6 1_555 1_555
C12 C13 1_555 1_555
C18 C19 1_555 1_555
C19 C20 1_555 1_555
C30 C31 1_555 1_555
C37 C38 1_555 1_555
C43 C44 1_555 1_555
C44 C45 1_555 1_555

#END
