
#######################################################################
#
#                 Cambridge Crystallographic Data Centre
#                                CCDC 
#
#######################################################################
#
# If this CIF has been generated from an entry in the Cambridge 
# Structural Database, then it will include bibliographic, chemical, 
# crystal, experimental, refinement or atomic coordinate data resulting 
# from the CCDC's data processing and validation procedures.
#
#######################################################################

data_FUWFAG
_chemical_formula_moiety         'C25 H17 N1 O1'
_chemical_name_systematic        (4-(9H-Carbazol-9-yl)phenyl)(phenyl)methanone
_symmetry_cell_setting           triclinic
_symmetry_space_group_name_H-M   'P -1'
_symmetry_Int_Tables_number      2
_space_group_name_Hall           '-P 1'
loop_
_symmetry_equiv_pos_site_id
_symmetry_equiv_pos_as_xyz
1 x,y,z
2 -x,-y,-z
_cell_length_a                   7.3459(3)
_cell_length_b                   9.2717(5)
_cell_length_c                   13.0330(7)
_cell_angle_alpha                94.434(4)
_cell_angle_beta                 94.714(4)
_cell_angle_gamma                100.535(4)
_cell_volume                     865.879
_exptl_crystal_colour            colorless
_exptl_crystal_description       block
_cell_formula_units_Z            2
_exptl_crystal_preparation       Luminescent
loop_
_atom_site_label
_atom_site_type_symbol
_atom_site_fract_x
_atom_site_fract_y
_atom_site_fract_z
O1 O 0.24103(15) 0.56106(10) -0.05291(6)
N1 N 0.28603(13) 0.80667(9) 0.41727(7)
C1 C 0.22665(15) 0.32532(13) 0.00541(8)
C2 C 0.14307(16) 0.25080(14) -0.08913(9)
H1 H 0.0891 0.3029 -0.1398
C3 C 0.13906(17) 0.10161(14) -0.10884(10)
H2 H 0.0787 0.0510 -0.1722
C4 C 0.22240(18) 0.02529(14) -0.03690(10)
H3 H 0.2214 -0.0769 -0.0515
C5 C 0.30722(18) 0.09867(14) 0.05640(10)
H4 H 0.3658 0.0469 0.1055
C6 C 0.30688(16) 0.24727(13) 0.07827(9)
H5 H 0.3616 0.2962 0.1432
C7 C 0.24103(16) 0.48803(13) 0.02134(8)
C8 C 0.25883(15) 0.56405(12) 0.12799(8)
C9 C 0.36892(15) 0.70466(12) 0.14760(8)
H6 H 0.4356 0.7472 0.0944
C10 C 0.38207(15) 0.78274(12) 0.24345(8)
H7 H 0.4616 0.8766 0.2568
C11 C 0.27871(14) 0.72390(11) 0.32076(8)
C12 C 0.16584(15) 0.58425(12) 0.30122(8)
H8 H 0.0937 0.5442 0.3531
C13 C 0.15894(15) 0.50410(12) 0.20637(8)
H9 H 0.0857 0.4076 0.1945
C14 C 0.25818(14) 0.95209(11) 0.43152(8)
C15 C 0.22968(15) 1.04976(12) 0.35811(9)
H10 H 0.2345 1.0240 0.2865
C16 C 0.19415(16) 1.18525(13) 0.39339(10)
H11 H 0.1751 1.2540 0.3451
C17 C 0.18550(16) 1.22364(12) 0.49826(10)
H12 H 0.1593 1.3173 0.5200
C18 C 0.21450(15) 1.12729(12) 0.57078(9)
H13 H 0.2091 1.1541 0.6421
C19 C 0.25197(14) 0.98976(12) 0.53766(8)
C20 C 0.27852(14) 0.86244(12) 0.59037(8)
C21 C 0.28425(15) 0.83218(13) 0.69370(8)
H14 H 0.2698 0.9052 0.7461
C22 C 0.31115(16) 0.69501(13) 0.71919(9)
H15 H 0.3121 0.6730 0.7892
C23 C 0.33701(16) 0.58857(13) 0.64255(9)
H16 H 0.3589 0.4959 0.6617
C24 C 0.33145(15) 0.61520(12) 0.53941(8)
H17 H 0.3493 0.5426 0.4876
C25 C 0.29868(14) 0.75221(11) 0.51416(8)
loop_
_geom_bond_atom_site_label_1
_geom_bond_atom_site_label_2
_geom_bond_site_symmetry_1
_geom_bond_site_symmetry_2
O1 C7 1_555 1_555
N1 C11 1_555 1_555
C1 C2 1_555 1_555
C2 H1 1_555 1_555
C3 C2 1_555 1_555
H2 C3 1_555 1_555
C4 C3 1_555 1_555
H3 C4 1_555 1_555
C5 C4 1_555 1_555
H4 C5 1_555 1_555
C6 C1 1_555 1_555
H5 C6 1_555 1_555
C7 C1 1_555 1_555
C8 C7 1_555 1_555
C9 C8 1_555 1_555
H6 C9 1_555 1_555
C10 C9 1_555 1_555
H7 C10 1_555 1_555
C11 C10 1_555 1_555
C12 C11 1_555 1_555
H8 C12 1_555 1_555
C13 C8 1_555 1_555
H9 C13 1_555 1_555
C14 N1 1_555 1_555
C15 C14 1_555 1_555
H10 C15 1_555 1_555
C16 C15 1_555 1_555
H11 C16 1_555 1_555
C17 C16 1_555 1_555
H12 C17 1_555 1_555
C18 C17 1_555 1_555
H13 C18 1_555 1_555
C19 C14 1_555 1_555
C20 C19 1_555 1_555
C21 C20 1_555 1_555
H14 C21 1_555 1_555
C22 C21 1_555 1_555
H15 C22 1_555 1_555
C23 C22 1_555 1_555
H16 C23 1_555 1_555
C24 C23 1_555 1_555
H17 C24 1_555 1_555
C25 N1 1_555 1_555
C5 C6 1_555 1_555
C12 C13 1_555 1_555
C18 C19 1_555 1_555
C20 C25 1_555 1_555
C24 C25 1_555 1_555

#END
