
#######################################################################
#
#                 Cambridge Crystallographic Data Centre
#                                CCDC 
#
#######################################################################
#
# If this CIF has been generated from an entry in the Cambridge 
# Structural Database, then it will include bibliographic, chemical, 
# crystal, experimental, refinement or atomic coordinate data resulting 
# from the CCDC's data processing and validation procedures.
#
#######################################################################

data_FUWGUA
_chemical_formula_moiety         'C25 H25 N1 O8'
_chemical_name_systematic        
'6-(2-Nitro-1-phenylethyl)-1,3-benzodioxol-5-yl 4,7,7-trimethyl-3-oxo-2-oxabicyclo[2.2.1]heptane-1-carboxylate'
_symmetry_cell_setting           monoclinic
_symmetry_space_group_name_H-M   'P 21'
_symmetry_Int_Tables_number      4
_space_group_name_Hall           'P 2yb'
loop_
_symmetry_equiv_pos_site_id
_symmetry_equiv_pos_as_xyz
1 x,y,z
2 -x,1/2+y,-z
_cell_length_a                   11.907(2)
_cell_length_b                   7.6346(15)
_cell_length_c                   13.821(3)
_cell_angle_alpha                90
_cell_angle_beta                 115.42(3)
_cell_angle_gamma                90
_cell_volume                     1134.76
_exptl_crystal_colour            colorless
_exptl_crystal_description       block
_cell_formula_units_Z            2
_exptl_crystal_recrystallization_method 'n-hexane/ethyl acetate'
loop_
_atom_site_label
_atom_site_type_symbol
_atom_site_fract_x
_atom_site_fract_y
_atom_site_fract_z
O1 O 0.45366(10) 0.64972(17) 1.16675(8)
O2 O 0.48750(12) 0.6370(2) 1.33867(9)
O3 O 0.30117(10) 0.61917(16) 0.88418(8)
O4 O 0.43864(16) 0.8135(2) 0.98991(10)
O5 O 0.51795(13) 0.54079(19) 0.65992(10)
O6 O 0.40689(13) 0.75974(16) 0.54330(10)
O7 O 0.10443(14) 1.1578(2) 0.87423(13)
O8 O 0.0726(2) 1.3372(2) 0.74685(17)
N1 N 0.11929(17) 1.2067(2) 0.79650(16)
C1 C 0.34500(15) 0.6126(2) 1.06671(12)
C2 C 0.23698(16) 0.6885(2) 1.08874(13)
C3 C 0.27928(16) 0.5811(2) 1.19414(13)
C4 C 0.2795(2) 0.3916(3) 1.15376(16)
H1 H 0.3357 0.3153 1.2125
H2 H 0.1948 0.3409 1.1233
C5 C 0.3272(2) 0.4137(3) 1.06635(15)
H3 H 0.4066 0.3507 1.0855
H4 H 0.2652 0.3720 0.9958
C6 C 0.41604(16) 0.6262(3) 1.24630(13)
C7 C 0.21370(19) 0.6081(4) 1.26603(15)
H5 H 0.2527 0.5343 1.3299
H6 H 0.1258 0.5762 1.2270
H7 H 0.2203 0.7314 1.2876
C8 C 0.10721(15) 0.6434(3) 1.00286(13)
H8 H 0.0456 0.6652 1.0309
H9 H 0.1046 0.5196 0.9832
H10 H 0.0883 0.7164 0.9395
C9 C 0.2454(2) 0.8859(2) 1.10838(15)
H11 H 0.2366 0.9470 1.0431
H12 H 0.3262 0.9145 1.1670
H13 H 0.1788 0.9229 1.1276
C10 C 0.37017(17) 0.6943(3) 0.97935(13)
C11 C 0.32652(15) 0.6689(2) 0.79608(12)
C12 C 0.25938(16) 0.8039(2) 0.72941(12)
C13 C 0.28286(16) 0.8407(2) 0.63944(12)
H14 H 0.2381 0.9303 0.5903
C14 C 0.37037(17) 0.7459(2) 0.62474(13)
C15 C 0.43517(16) 0.6142(3) 0.69329(12)
C16 C 0.41503(16) 0.5699(3) 0.78064(14)
H15 H 0.4589 0.4773 0.8276
C17 C 0.4938(2) 0.6221(3) 0.56122(15)
H16 H 0.4596 0.5353 0.5025
H17 H 0.5719 0.6696 0.5628
C18 C 0.16264(16) 0.9082(2) 0.74863(13)
H18 H 0.1644 0.8669 0.8180
C19 C 0.03252(16) 0.8737(2) 0.66172(13)
C20 C -0.02040(18) 0.9717(3) 0.56845(14)
H19 H 0.0235 1.0681 0.5578
C21 C -0.13752(19) 0.9287(3) 0.49087(16)
H20 H -0.1733 0.9961 0.4270
C22 C -0.20281(19) 0.7902(3) 0.50475(17)
H21 H -0.2832 0.7624 0.4511
C23 C -0.1509(2) 0.6921(3) 0.59679(17)
H22 H -0.1953 0.5960 0.6071
C24 C -0.03321(18) 0.7340(2) 0.67481(15)
H23 H 0.0026 0.6654 0.7382
C25 C 0.20217(18) 1.1007(2) 0.76317(15)
H24 H 0.2891 1.1104 0.8182
H25 H 0.1984 1.1472 0.6950
loop_
_geom_bond_atom_site_label_1
_geom_bond_atom_site_label_2
_geom_bond_site_symmetry_1
_geom_bond_site_symmetry_2
O1 C1 1_555 1_555
O2 C6 1_555 1_555
O3 C10 1_555 1_555
O4 C10 1_555 1_555
O5 C15 1_555 1_555
O6 C14 1_555 1_555
O7 N1 1_555 1_555
O8 N1 1_555 1_555
N1 C25 1_555 1_555
C1 C2 1_555 1_555
C2 C3 1_555 1_555
C3 C4 1_555 1_555
C4 H1 1_555 1_555
H2 C4 1_555 1_555
C5 C1 1_555 1_555
H3 C5 1_555 1_555
H4 C5 1_555 1_555
C6 O1 1_555 1_555
C7 C3 1_555 1_555
H5 C7 1_555 1_555
H6 C7 1_555 1_555
H7 C7 1_555 1_555
C8 C2 1_555 1_555
H8 C8 1_555 1_555
H9 C8 1_555 1_555
H10 C8 1_555 1_555
C9 C2 1_555 1_555
H11 C9 1_555 1_555
H12 C9 1_555 1_555
H13 C9 1_555 1_555
C10 C1 1_555 1_555
C11 O3 1_555 1_555
C12 C11 1_555 1_555
C13 C12 1_555 1_555
H14 C13 1_555 1_555
C14 C13 1_555 1_555
C15 C14 1_555 1_555
C16 C11 1_555 1_555
H15 C16 1_555 1_555
C17 O5 1_555 1_555
H16 C17 1_555 1_555
H17 C17 1_555 1_555
C18 C12 1_555 1_555
H18 C18 1_555 1_555
C19 C18 1_555 1_555
C20 C19 1_555 1_555
H19 C20 1_555 1_555
C21 C20 1_555 1_555
H20 C21 1_555 1_555
C22 C21 1_555 1_555
H21 C22 1_555 1_555
C23 C22 1_555 1_555
H22 C23 1_555 1_555
C24 C19 1_555 1_555
H23 C24 1_555 1_555
C25 C18 1_555 1_555
H24 C25 1_555 1_555
H25 C25 1_555 1_555
O6 C17 1_555 1_555
C3 C6 1_555 1_555
C4 C5 1_555 1_555
C15 C16 1_555 1_555
C23 C24 1_555 1_555

#END
