
#######################################################################
#
#                 Cambridge Crystallographic Data Centre
#                                CCDC 
#
#######################################################################
#
# If this CIF has been generated from an entry in the Cambridge 
# Structural Database, then it will include bibliographic, chemical, 
# crystal, experimental, refinement or atomic coordinate data resulting 
# from the CCDC's data processing and validation procedures.
#
#######################################################################

data_FUWKIR
_chemical_formula_moiety         'C16 H12 N2 O2 S1'
_chemical_name_systematic        
10-Phenyl-4,10,13-thiadiazatetracyclo(5.5.1.0^2,6^.0^8,12^)trideca-2,5-diene-9,11-dione
_symmetry_cell_setting           monoclinic
_symmetry_space_group_name_H-M   'P 21/n'
_symmetry_Int_Tables_number      14
_space_group_name_Hall           '-P 2yn'
loop_
_symmetry_equiv_pos_site_id
_symmetry_equiv_pos_as_xyz
1 x,y,z
2 1/2-x,1/2+y,1/2-z
3 -x,-y,-z
4 1/2+x,1/2-y,1/2+z
_cell_length_a                   8.792(2)
_cell_length_b                   17.644(3)
_cell_length_c                   9.450(2)
_cell_angle_alpha                90
_cell_angle_beta                 110.89(2)
_cell_angle_gamma                90
_cell_volume                     1369.58
_exptl_crystal_colour            'light pink'
_cell_formula_units_Z            4
loop_
_atom_site_label
_atom_site_type_symbol
_atom_site_fract_x
_atom_site_fract_y
_atom_site_fract_z
S1 S 0.2249(1) 0.9142(1) 0.1307(1)
O1 O 0.3029(2) 0.9977(1) -0.5531(2)
O2 O 0.3550(2) 1.2148(1) -0.2817(2)
N1 N 0.3492(2) 1.1145(1) -0.4394(2)
N2 N 0.0746(2) 1.0533(1) -0.3131(2)
C1 C 0.4950(3) 1.1575(1) -0.5996(2)
C2 C 0.4967(3) 1.1945(1) -0.7294(3)
C3 C 0.3551(3) 1.2276(2) -0.8268(3)
C4 C 0.2152(3) 1.2242(2) -0.7958(3)
C5 C 0.2122(3) 1.1884(1) -0.6669(2)
C6 C 0.3528(2) 1.1554(1) -0.5698(2)
C7 C 0.3261(2) 1.0363(1) -0.4413(2)
C8 C 0.3509(2) 1.1473(1) -0.3039(2)
C9 C 0.3300(2) 1.0111(1) -0.2889(2)
C10 C 0.3443(2) 1.0845(1) -0.1967(2)
C11 C 0.1827(2) 1.0859(1) -0.1659(2)
C12 C 0.1961(2) 1.0217(1) -0.0549(2)
C13 C 0.2215(2) 1.0103(1) 0.0945(2)
C14 C 0.1940(3) 0.8906(1) -0.0554(2)
C15 C 0.1820(2) 0.9541(1) -0.1385(2)
C16 C 0.1618(2) 0.9794(1) -0.2972(2)
H1 H -0.0212(32) 1.0417(14) -0.3108(28)
H2 H 0.5918 1.1338 -0.5318
H3 H 0.5952 1.1970 -0.7511
H4 H 0.3554 1.2529 -0.9166
H5 H 0.1177 1.2471 -0.8643
H6 H 0.1136 1.1866 -0.6452
H7 H 0.4149 0.9742 -0.2493
H8 H 0.4359 1.0889 -0.1038
H9 H 0.1530 1.1332 -0.1327
H10 H 0.2395(28) 1.0456(14) 0.1715(27)
H11 H 0.1942(27) 0.8398(15) -0.0806(24)
H12 H 0.1155 0.9403 -0.3705
loop_
_geom_bond_atom_site_label_1
_geom_bond_atom_site_label_2
_geom_bond_site_symmetry_1
_geom_bond_site_symmetry_2
S1 C13 1_555 1_555
O1 C7 1_555 1_555
O2 C8 1_555 1_555
N1 C6 1_555 1_555
N2 C11 1_555 1_555
C1 C2 1_555 1_555
C2 C3 1_555 1_555
C3 C4 1_555 1_555
C4 C5 1_555 1_555
C5 C6 1_555 1_555
C6 C1 1_555 1_555
C7 N1 1_555 1_555
C8 N1 1_555 1_555
C9 C7 1_555 1_555
C10 C8 1_555 1_555
C11 C10 1_555 1_555
C12 C11 1_555 1_555
C13 C12 1_555 1_555
C14 S1 1_555 1_555
C15 C12 1_555 1_555
C16 N2 1_555 1_555
H1 N2 1_555 1_555
H2 C1 1_555 1_555
H3 C2 1_555 1_555
H4 C3 1_555 1_555
H5 C4 1_555 1_555
H6 C5 1_555 1_555
H7 C9 1_555 1_555
H8 C10 1_555 1_555
H9 C11 1_555 1_555
H10 C13 1_555 1_555
H11 C14 1_555 1_555
H12 C16 1_555 1_555
C9 C10 1_555 1_555
C9 C16 1_555 1_555
C14 C15 1_555 1_555
C15 C16 1_555 1_555

#END
