
#######################################################################
#
#                 Cambridge Crystallographic Data Centre
#                                CCDC 
#
#######################################################################
#
# If this CIF has been generated from an entry in the Cambridge 
# Structural Database, then it will include bibliographic, chemical, 
# crystal, experimental, refinement or atomic coordinate data resulting 
# from the CCDC's data processing and validation procedures.
#
#######################################################################

data_FUWRIA
_chemical_formula_moiety         'C16 H15 N1 O3,4(H2 O1)'
_chemical_name_systematic        
'4-Formyl-2-methoxy-6-(2-(1-methylpyridinium-4-yl)vinyl)phenolate tetrahydrate'
_symmetry_cell_setting           monoclinic
_symmetry_space_group_name_H-M   'P 21'
_symmetry_Int_Tables_number      4
_space_group_name_Hall           'P 2yb'
loop_
_symmetry_equiv_pos_site_id
_symmetry_equiv_pos_as_xyz
1 x,y,z
2 -x,1/2+y,-z
_cell_length_a                   6.3846(13)
_cell_length_b                   16.788(4)
_cell_length_c                   7.9738(16)
_cell_angle_alpha                90
_cell_angle_beta                 92.052(4)
_cell_angle_gamma                90
_cell_volume                     854.121
_exptl_crystal_colour            red
_exptl_crystal_description       block
_cell_formula_units_Z            2
loop_
_atom_site_label
_atom_site_type_symbol
_atom_site_fract_x
_atom_site_fract_y
_atom_site_fract_z
O1 O 0.7323(3) 0.30660(12) 0.5722(3)
H1 H 0.646(5) 0.318(2) 0.498(4)
H2 H 0.655(7) 0.301(3) 0.663(5)
O2 O 0.4593(3) 0.30182(13) 0.8329(3)
H3 H 0.449(6) 0.276(2) 0.933(5)
H4 H 0.362(6) 0.292(2) 0.776(5)
O3 O 0.1592(3) 0.27750(10) 0.5809(2)
H5 H 0.216(5) 0.3038(19) 0.507(4)
H6 H 0.033(6) 0.285(2) 0.569(4)
O4 O 0.4088(2) 0.36786(8) 0.36620(19)
O5 O 0.0493(2) 0.36259(9) 0.1999(2)
O6 O -0.0749(3) 0.65664(11) 0.0157(2)
N1 N 1.3339(2) 0.53701(10) 0.7658(2)
C1 C 1.5302(3) 0.52542(15) 0.8670(3)
H7 H 1.6105 0.5738 0.8676
H8 H 1.6103 0.4833 0.8192
H9 H 1.4972 0.5117 0.9799
C2 C 1.2752(3) 0.60990(13) 0.7119(3)
H10 H 1.3600 0.6536 0.7371
C3 C 1.0911(3) 0.62035(12) 0.6199(3)
H11 H 1.0524 0.6712 0.5844
C4 C 0.9608(3) 0.55551(11) 0.5788(2)
C5 C 1.0290(3) 0.48061(12) 0.6368(3)
H12 H 0.9485 0.4357 0.6121
C6 C 1.2126(3) 0.47301(13) 0.7293(3)
H13 H 1.2545 0.4230 0.7676
C7 C 0.7670(3) 0.56736(12) 0.4790(2)
H14 H 0.7303 0.6188 0.4459
C8 C 0.6402(3) 0.50710(11) 0.4336(2)
H15 H 0.6834 0.4569 0.4702
C9 C 0.4443(3) 0.50904(11) 0.3349(2)
C10 C 0.3561(3) 0.57918(11) 0.2682(3)
H16 H 0.4244 0.6274 0.2872
C11 C 0.1689(3) 0.57795(12) 0.1742(3)
C12 C 0.0615(3) 0.50505(12) 0.1457(3)
H17 H -0.0631 0.5042 0.0816
C13 C 0.1413(3) 0.43594(11) 0.2124(2)
C14 C 0.3389(3) 0.43441(11) 0.3084(2)
C15 C 0.0841(3) 0.65153(13) 0.1053(3)
H18 H 0.1560 0.6984 0.1311
C16 C -0.1413(3) 0.35674(14) 0.1017(3)
H19 H -0.2447 0.3912 0.1477
H20 H -0.1908 0.3028 0.1031
H21 H -0.1168 0.3723 -0.0117
O7 O 0.6015(2) 0.73905(10) 0.8497(2)
H22 H 0.725(6) 0.716(2) 0.878(4)
H23 H 0.621(5) 0.784(2) 0.780(4)
loop_
_geom_bond_atom_site_label_1
_geom_bond_atom_site_label_2
_geom_bond_site_symmetry_1
_geom_bond_site_symmetry_2
O1 H1 1_555 1_555
H2 O1 1_555 1_555
O2 H3 1_555 1_555
H4 O2 1_555 1_555
O3 H5 1_555 1_555
H6 O3 1_555 1_555
O4 C14 1_555 1_555
O5 C13 1_555 1_555
O6 C15 1_555 1_555
N1 C1 1_555 1_555
C1 H7 1_555 1_555
H8 C1 1_555 1_555
H9 C1 1_555 1_555
C2 N1 1_555 1_555
H10 C2 1_555 1_555
C3 C2 1_555 1_555
H11 C3 1_555 1_555
C4 C3 1_555 1_555
C5 C4 1_555 1_555
H12 C5 1_555 1_555
C6 N1 1_555 1_555
H13 C6 1_555 1_555
C7 C4 1_555 1_555
H14 C7 1_555 1_555
C8 C7 1_555 1_555
H15 C8 1_555 1_555
C9 C8 1_555 1_555
C10 C9 1_555 1_555
H16 C10 1_555 1_555
C11 C10 1_555 1_555
C12 C11 1_555 1_555
H17 C12 1_555 1_555
C13 C12 1_555 1_555
C14 C9 1_555 1_555
C15 C11 1_555 1_555
H18 C15 1_555 1_555
C16 O5 1_555 1_555
H19 C16 1_555 1_555
H20 C16 1_555 1_555
H21 C16 1_555 1_555
O7 H22 1_555 1_555
H23 O7 1_555 1_555
C5 C6 1_555 1_555
C13 C14 1_555 1_555

#END
