
#######################################################################
#
#                 Cambridge Crystallographic Data Centre
#                                CCDC 
#
#######################################################################
#
# If this CIF has been generated from an entry in the Cambridge 
# Structural Database, then it will include bibliographic, chemical, 
# crystal, experimental, refinement or atomic coordinate data resulting 
# from the CCDC's data processing and validation procedures.
#
#######################################################################

data_FUWTEX
_chemical_formula_moiety         'C19 H17 N1 O4 S1'
_chemical_name_systematic        
(2-Phenyl-1,3-thiazol-4-yl)(3,4,5-trimethoxyphenyl)methanone
_chemical_properties_biological  
'tested for activity against melanoma and prostate cancer cells'
_symmetry_cell_setting           monoclinic
_symmetry_space_group_name_H-M   'P 21/n'
_symmetry_Int_Tables_number      14
_space_group_name_Hall           '-P 2yn'
loop_
_symmetry_equiv_pos_site_id
_symmetry_equiv_pos_as_xyz
1 x,y,z
2 1/2-x,1/2+y,1/2-z
3 -x,-y,-z
4 1/2+x,1/2-y,1/2+z
_cell_length_a                   11.7752(7)
_cell_length_b                   7.4150(5)
_cell_length_c                   19.8247(12)
_cell_angle_alpha                90
_cell_angle_beta                 106.911(2)
_cell_angle_gamma                90
_cell_volume                     1656.11
_exptl_crystal_colour            colorless
_exptl_crystal_description       blocky
_chemical_melting_point          '133-135 deg.C'
_cell_formula_units_Z            4
loop_
_atom_site_label
_atom_site_type_symbol
_atom_site_fract_x
_atom_site_fract_y
_atom_site_fract_z
C1 C 0.70338(12) 0.70740(17) 0.79742(7)
C2 C 0.81928(11) 0.75070(18) 0.83644(7)
H1 H 0.8779 0.7753 0.8134
C3 C 0.84775(11) 0.75733(18) 0.90965(7)
O1 O 0.95680(8) 0.80262(13) 0.95350(5)
C4 C 1.04091(12) 0.8736(2) 0.92085(7)
H2 H 1.0638 0.7789 0.8928
H3 H 1.1114 0.9158 0.9573
H4 H 1.0051 0.9745 0.8901
C5 C 0.76173(12) 0.71777(17) 0.94338(7)
O2 O 0.78842(8) 0.73409(13) 1.01540(5)
C6 C 0.84768(12) 0.5806(2) 1.05360(7)
H5 H 0.7928 0.4781 1.0455
H6 H 0.8745 0.6088 1.1041
H7 H 0.9163 0.5498 1.0374
C7 C 0.64629(12) 0.67262(17) 0.90374(7)
O3 O 0.56973(8) 0.63880(14) 0.94249(5)
C8 C 0.45101(12) 0.5898(2) 0.90402(8)
H8 H 0.4120 0.6922 0.8752
H9 H 0.4068 0.5567 0.9371
H10 H 0.4529 0.4869 0.8733
C9 C 0.61652(11) 0.66800(17) 0.83065(7)
H11 H 0.5380 0.6384 0.8035
C10 C 0.66280(12) 0.71453(17) 0.71859(7)
O4 O 0.55687(8) 0.72665(14) 0.68723(5)
C11 C 0.74801(12) 0.70464(18) 0.67581(7)
C12 C 0.71269(12) 0.73520(18) 0.60453(7)
H12 H 0.6355 0.7730 0.5780
S1 S 0.82799(3) 0.69534(4) 0.570321(16)
C13 C 0.91762(11) 0.63758(17) 0.65439(7)
N1 N 0.86428(10) 0.64960(15) 0.70330(6)
C14 C 1.04126(11) 0.57742(17) 0.66782(7)
C15 C 1.10303(12) 0.59481(18) 0.61756(7)
H13 H 1.0649 0.6464 0.5728
C16 C 1.21999(12) 0.53673(19) 0.63306(7)
H14 H 1.2618 0.5496 0.5989
C17 C 1.27623(12) 0.45988(19) 0.69816(7)
H15 H 1.3564 0.4211 0.7087
C18 C 1.21458(12) 0.44000(19) 0.74787(7)
H16 H 1.2525 0.3859 0.7921
C19 C 1.09828(11) 0.49859(18) 0.73314(7)
H17 H 1.0570 0.4853 0.7675
loop_
_geom_bond_atom_site_label_1
_geom_bond_atom_site_label_2
_geom_bond_site_symmetry_1
_geom_bond_site_symmetry_2
C1 C2 1_555 1_555
C2 H1 1_555 1_555
C3 C2 1_555 1_555
O1 C3 1_555 1_555
C4 O1 1_555 1_555
H2 C4 1_555 1_555
H3 C4 1_555 1_555
H4 C4 1_555 1_555
C5 C3 1_555 1_555
O2 C5 1_555 1_555
C6 O2 1_555 1_555
H5 C6 1_555 1_555
H6 C6 1_555 1_555
H7 C6 1_555 1_555
C7 C5 1_555 1_555
O3 C7 1_555 1_555
C8 O3 1_555 1_555
H8 C8 1_555 1_555
H9 C8 1_555 1_555
H10 C8 1_555 1_555
C9 C1 1_555 1_555
H11 C9 1_555 1_555
C10 C1 1_555 1_555
O4 C10 1_555 1_555
C11 C10 1_555 1_555
C12 C11 1_555 1_555
H12 C12 1_555 1_555
S1 C12 1_555 1_555
C13 S1 1_555 1_555
N1 C11 1_555 1_555
C14 C13 1_555 1_555
C15 C14 1_555 1_555
H13 C15 1_555 1_555
C16 C15 1_555 1_555
H14 C16 1_555 1_555
C17 C16 1_555 1_555
H15 C17 1_555 1_555
C18 C17 1_555 1_555
H16 C18 1_555 1_555
C19 C14 1_555 1_555
H17 C19 1_555 1_555
C7 C9 1_555 1_555
C13 N1 1_555 1_555
C18 C19 1_555 1_555

#END
