
#######################################################################
#
#                 Cambridge Crystallographic Data Centre
#                                CCDC 
#
#######################################################################
#
# If this CIF has been generated from an entry in the Cambridge 
# Structural Database, then it will include bibliographic, chemical, 
# crystal, experimental, refinement or atomic coordinate data resulting 
# from the CCDC's data processing and validation procedures.
#
#######################################################################

data_FUWVAU
_chemical_name_common            'Trimethoprim acetate'
_chemical_formula_moiety         'C14 H19 N4 O3 1+,C2 H3 O2 1-'
_chemical_name_systematic        
'2,4-Diamino-5-(3,4,5-trimethoxybenzyl)-1H-pyridinium acetate'
_chemical_properties_biological  
'potent inhibitory activity against bacterial dihydrofolic acid reductase'
_symmetry_cell_setting           monoclinic
_symmetry_space_group_name_H-M   'P 21/c'
_symmetry_Int_Tables_number      14
_space_group_name_Hall           '-P 2ybc'
loop_
_symmetry_equiv_pos_site_id
_symmetry_equiv_pos_as_xyz
1 x,y,z
2 -x,1/2+y,1/2-z
3 -x,-y,-z
4 x,1/2-y,1/2+z
_cell_length_a                   11.085(4)
_cell_length_b                   19.137(6)
_cell_length_c                   9.641(3)
_cell_angle_alpha                90
_cell_angle_beta                 122.73(3)
_cell_angle_gamma                90
_cell_volume                     1720.46
_cell_formula_units_Z            4
loop_
_atom_site_label
_atom_site_type_symbol
_atom_site_fract_x
_atom_site_fract_y
_atom_site_fract_z
O1 O 0.2507(2) 0.5737(1) 0.9807(2)
O2 O 0.4694(2) 0.6177(1) 1.1154(2)
C1 C 0.3521(3) 0.6069(1) 1.0989(3)
C2 C 0.3300(3) 0.6321(2) 1.2314(3)
H1 H 0.335(3) 0.599(2) 1.288(4)
H2 H 0.237(3) 0.651(2) 1.183(4)
H3 H 0.401(3) 0.669(2) 1.294(4)
O3 O 0.3165(2) 0.1837(1) 0.7001(2)
O4 O 0.1611(2) 0.1085(1) 0.4318(2)
O5 O -0.0465(2) 0.1668(1) 0.1447(2)
N1 N 0.2937(2) 0.5185(1) 0.7639(2)
N2 N 0.5010(2) 0.5800(1) 0.8589(2)
N3 N 0.4140(2) 0.5139(1) 0.6228(2)
N4 N 0.3282(2) 0.4464(1) 0.3931(2)
C3 C 0.4023(2) 0.5365(1) 0.7467(3)
C4 C 0.3130(2) 0.4691(1) 0.5145(3)
C5 C 0.1941(2) 0.4482(1) 0.5232(3)
C6 C 0.1921(2) 0.4745(1) 0.6521(3)
C7 C 0.0753(2) 0.4021(1) 0.3961(3)
C8 C 0.1057(2) 0.3241(1) 0.4059(3)
C9 C 0.2082(2) 0.2930(1) 0.5534(3)
C10 C 0.2216(2) 0.2204(1) 0.5605(3)
C11 C 0.1365(2) 0.1798(1) 0.4217(3)
C12 C 0.0341(2) 0.2117(1) 0.2740(3)
C13 C 0.0187(2) 0.2838(1) 0.2656(3)
C14 C 0.4176(3) 0.2229(1) 0.8424(3)
C15 C 0.0570(3) 0.0670(1) 0.4372(3)
C16 C -0.1622(3) 0.1963(1) -0.0033(3)
H4 H 0.282(3) 0.540(1) 0.857(3)
H5 H 0.492(2) 0.594(1) 0.946(3)
H6 H 0.586(2) 0.589(1) 0.860(3)
H7 H 0.417(2) 0.459(1) 0.399(3)
H8 H 0.274(2) 0.413(1) 0.328(3)
H9 H 0.114(2) 0.463(2) 0.664(2)
H10 H 0.048(2) 0.418(1) 0.286(2)
H11 H -0.009(2) 0.406(1) 0.412(2)
H12 H 0.272(2) 0.322(1) 0.652(2)
H13 H 0.474(3) 0.254(1) 0.815(3)
H14 H 0.366(3) 0.246(1) 0.881(3)
H15 H 0.488(3) 0.184(1) 0.927(3)
H16 H 0.040(3) 0.067(1) 0.330(3)
H17 H 0.025(2) 0.089(1) 0.505(3)
H18 H 0.100(2) 0.020(1) 0.475(3)
H19 H -0.127(3) 0.231(1) -0.054(3)
H20 H -0.229(2) 0.220(1) 0.018(3)
H21 H -0.214(3) 0.157(1) -0.072(3)
H22 H -0.059(2) 0.305(1) 0.167(2)
loop_
_geom_bond_atom_site_label_1
_geom_bond_atom_site_label_2
_geom_bond_site_symmetry_1
_geom_bond_site_symmetry_2
O1 C1 1_555 1_555
O2 C1 1_555 1_555
C1 C2 1_555 1_555
C2 H1 1_555 1_555
H2 C2 1_555 1_555
H3 C2 1_555 1_555
O3 C10 1_555 1_555
O4 C11 1_555 1_555
O5 C12 1_555 1_555
N1 C3 1_555 1_555
N2 C3 1_555 1_555
N3 C3 1_555 1_555
N4 C4 1_555 1_555
C4 N3 1_555 1_555
C5 C4 1_555 1_555
C6 N1 1_555 1_555
C7 C5 1_555 1_555
C8 C7 1_555 1_555
C9 C8 1_555 1_555
C10 C9 1_555 1_555
C11 C10 1_555 1_555
C12 C11 1_555 1_555
C13 C8 1_555 1_555
C14 O3 1_555 1_555
C15 O4 1_555 1_555
C16 O5 1_555 1_555
H4 N1 1_555 1_555
H5 N2 1_555 1_555
H6 N2 1_555 1_555
H7 N4 1_555 1_555
H8 N4 1_555 1_555
H9 C6 1_555 1_555
H10 C7 1_555 1_555
H11 C7 1_555 1_555
H12 C9 1_555 1_555
H13 C14 1_555 1_555
H14 C14 1_555 1_555
H15 C14 1_555 1_555
H16 C15 1_555 1_555
H17 C15 1_555 1_555
H18 C15 1_555 1_555
H19 C16 1_555 1_555
H20 C16 1_555 1_555
H21 C16 1_555 1_555
H22 C13 1_555 1_555
C5 C6 1_555 1_555
C12 C13 1_555 1_555

#END
