
#######################################################################
#
#                 Cambridge Crystallographic Data Centre
#                                CCDC 
#
#######################################################################
#
# If this CIF has been generated from an entry in the Cambridge 
# Structural Database, then it will include bibliographic, chemical, 
# crystal, experimental, refinement or atomic coordinate data resulting 
# from the CCDC's data processing and validation procedures.
#
#######################################################################

data_FUWWOL02
_chemical_formula_moiety         'C12 H24 O6,C12 H20 N1 1+,B1 F4 1-'
_chemical_name_systematic        
'18-Crown-6 2,6-di-isopropylanilinium tetrafluoroborate'
_symmetry_cell_setting           orthorhombic
_symmetry_space_group_name_H-M   'P n a 21'
_symmetry_Int_Tables_number      33
_space_group_name_Hall           'P 2c -2n'
loop_
_symmetry_equiv_pos_site_id
_symmetry_equiv_pos_as_xyz
1 x,y,z
2 -x,-y,1/2+z
3 1/2+x,1/2-y,z
4 1/2-x,1/2+y,1/2+z
_cell_length_a                   18.757(5)
_cell_length_b                   17.392(5)
_cell_length_c                   16.703(4)
_cell_angle_alpha                90
_cell_angle_beta                 90
_cell_angle_gamma                90
_cell_volume                     5448.88
_exptl_crystal_colour            colorless
_exptl_crystal_description       block
_cell_formula_units_Z            8
loop_
_atom_site_label
_atom_site_type_symbol
_atom_site_fract_x
_atom_site_fract_y
_atom_site_fract_z
C1 C 0.07106(12) 0.09208(12) 0.64219(13)
C2 C 0.00706(11) 0.12839(12) 0.66408(13)
C3 C -0.06034(12) 0.09748(13) 0.64821(14)
C4 C -0.06264(12) 0.02548(12) 0.61097(14)
H1 H -0.1074 0.0026 0.5992
C5 C -0.00034(12) -0.01276(13) 0.59109(14)
H2 H -0.0030 -0.0623 0.5673
C6 C 0.06588(12) 0.01997(12) 0.60529(14)
H3 H 0.1079 -0.0066 0.5899
C7 C -0.13031(11) 0.13840(12) 0.66692(14)
H4 H -0.1190 0.1848 0.6999
C8 C -0.18144(13) 0.08786(14) 0.71505(16)
H5 H -0.1582 0.0714 0.7647
H6 H -0.1944 0.0425 0.6833
H7 H -0.2245 0.1172 0.7279
C9 C -0.16620(13) 0.16582(14) 0.58923(16)
H8 H -0.1329 0.1982 0.5590
H9 H -0.2090 0.1956 0.6024
H10 H -0.1796 0.1212 0.5568
C10 C 0.14449(11) 0.12673(12) 0.65676(15)
H11 H 0.1379 0.1775 0.6840
C11 C 0.18895(12) 0.07488(14) 0.71246(15)
H12 H 0.1629 0.0665 0.7626
H13 H 0.2347 0.0998 0.7240
H14 H 0.1975 0.0253 0.6862
C12 C 0.18426(13) 0.14084(14) 0.57790(15)
H15 H 0.1555 0.1741 0.5433
H16 H 0.1927 0.0916 0.5509
H17 H 0.2300 0.1658 0.5891
N1 N 0.01237(9) 0.20337(10) 0.70436(11)
H18 H -0.0268 0.2249 0.7254
H19 H 0.0294 0.2372 0.6687
H20 H 0.0431 0.1993 0.7454
C13 C 0.15695(12) 0.25080(14) 0.85706(14)
H21 H 0.2010 0.2269 0.8359
H22 H 0.1632 0.2596 0.9152
C14 C 0.14298(13) 0.32548(14) 0.81524(15)
H23 H 0.0978 0.3482 0.8348
H24 H 0.1821 0.3622 0.8264
C15 C 0.11960(13) 0.37882(13) 0.68744(15)
H25 H 0.1562 0.4191 0.6956
H26 H 0.0732 0.3989 0.7066
C16 C 0.11461(13) 0.35833(13) 0.59953(15)
H27 H 0.1072 0.4058 0.5680
H28 H 0.1602 0.3350 0.5821
C17 C -0.00382(12) 0.33883(13) 0.54410(14)
H29 H -0.0337 0.2971 0.5217
H30 H 0.0129 0.3710 0.4989
C18 C -0.04860(13) 0.38727(13) 0.59895(15)
H31 H -0.0194 0.4291 0.6222
H32 H -0.0884 0.4108 0.5686
C19 C -0.10522(13) 0.38343(13) 0.72502(15)
H33 H -0.1398 0.4213 0.7037
H34 H -0.0668 0.4118 0.7529
C20 C -0.14188(13) 0.33042(14) 0.78262(15)
H35 H -0.1651 0.3607 0.8255
H36 H -0.1791 0.3006 0.7543
C21 C -0.12320(13) 0.22942(14) 0.87438(15)
H37 H -0.1586 0.1957 0.8479
H38 H -0.1481 0.2601 0.9158
C22 C -0.06558(13) 0.18169(14) 0.91225(15)
H39 H -0.0289 0.2154 0.9364
H40 H -0.0860 0.1489 0.9550
C23 C 0.02670(13) 0.09239(13) 0.87596(15)
H41 H 0.0419 0.0587 0.8313
H42 H 0.0132 0.0589 0.9214
C24 C 0.08912(13) 0.14166(13) 0.90103(14)
H43 H 0.0803 0.1640 0.9546
H44 H 0.1330 0.1102 0.9037
O1 O 0.05710(8) 0.30542(8) 0.58347(10)
O2 O -0.07596(8) 0.33958(8) 0.66101(10)
O3 O -0.09071(8) 0.27937(9) 0.81663(10)
O4 O -0.03454(8) 0.13494(9) 0.85123(9)
O5 O 0.09721(8) 0.20128(9) 0.84330(10)
O6 O 0.13833(9) 0.31133(9) 0.73098(10)
C25 C 0.50932(11) 0.13157(12) 0.32503(13)
C26 C 0.57747(12) 0.10262(12) 0.34072(13)
C27 C 0.58132(12) 0.03127(12) 0.37935(14)
H45 H 0.6267 0.0102 0.3919
C28 C 0.52021(12) -0.00920(13) 0.39960(14)
H46 H 0.5241 -0.0583 0.4241
C29 C 0.45343(12) 0.02191(12) 0.38420(14)
H47 H 0.4119 -0.0057 0.3995
C30 C 0.44633(12) 0.09347(12) 0.34642(13)
C31 C 0.64643(12) 0.14463(13) 0.32097(15)
H48 H 0.6341 0.1898 0.2866
C32 C 0.68185(13) 0.17527(14) 0.39735(15)
H49 H 0.6479 0.2075 0.4267
H50 H 0.7238 0.2059 0.3830
H51 H 0.6965 0.1320 0.4311
C33 C 0.69803(13) 0.09339(15) 0.27366(15)
H52 H 0.6743 0.0744 0.2253
H53 H 0.7126 0.0497 0.3070
H54 H 0.7402 0.1233 0.2585
C34 C 0.37190(12) 0.12455(13) 0.33054(14)
H55 H 0.3769 0.1748 0.3020
C35 C 0.33092(13) 0.13912(14) 0.40861(16)
H56 H 0.3580 0.1747 0.4424
H57 H 0.3243 0.0904 0.4371
H58 H 0.2843 0.1615 0.3962
C36 C 0.32986(13) 0.06996(14) 0.27613(15)
H59 H 0.3568 0.0608 0.2268
H60 H 0.2837 0.0931 0.2629
H61 H 0.3222 0.0210 0.3039
N2 N 0.50267(9) 0.20637(10) 0.28398(11)
H62 H 0.4692 0.2041 0.2456
H63 H 0.5395 0.2283 0.2584
H64 H 0.4862 0.2395 0.3208
C37 C 0.43245(13) 0.13929(13) 0.08443(15)
H65 H 0.4418 0.1642 0.0322
H66 H 0.3910 0.1045 0.0785
C38 C 0.49756(13) 0.09457(13) 0.11178(15)
H67 H 0.4833 0.0597 0.1558
H68 H 0.5145 0.0623 0.0668
C39 C 0.64171(13) 0.23756(14) 0.11596(15)
H69 H 0.6779 0.2036 0.1408
H70 H 0.6656 0.2697 0.0751
C40 C 0.58412(13) 0.19032(14) 0.07807(15)
H71 H 0.5466 0.2242 0.0559
H72 H 0.6040 0.1590 0.0339
C41 C 0.66118(13) 0.33351(13) 0.21368(15)
H73 H 0.6878 0.3630 0.1727
H74 H 0.6956 0.3015 0.2438
C42 C 0.62372(13) 0.38784(13) 0.26976(15)
H75 H 0.6587 0.4233 0.2944
H76 H 0.5885 0.4189 0.2397
C43 C 0.55929(13) 0.39370(13) 0.39046(14)
H77 H 0.5315 0.4355 0.3651
H78 H 0.5980 0.4171 0.4225
C44 C 0.51151(12) 0.34589(13) 0.44369(15)
H79 H 0.5403 0.3047 0.4687
H80 H 0.4928 0.3789 0.4872
C45 C 0.39712(12) 0.36443(13) 0.37976(15)
H81 H 0.4043 0.4136 0.4085
H82 H 0.3505 0.3432 0.3964
C46 C 0.39581(13) 0.37960(13) 0.29097(16)
H83 H 0.3611 0.4208 0.2786
H84 H 0.4435 0.3965 0.2726
C47 C 0.37052(13) 0.32033(14) 0.16622(15)
H85 H 0.4152 0.3428 0.1450
H86 H 0.3308 0.3557 0.1534
C48 C 0.35738(13) 0.24309(14) 0.12867(15)
H87 H 0.3141 0.2193 0.1519
H88 H 0.3502 0.2488 0.0702
O7 O 0.55476(8) 0.14136(9) 0.13855(10)
O8 O 0.60923(8) 0.28550(9) 0.17590(10)
O9 O 0.58843(8) 0.34455(9) 0.33071(10)
O10 O 0.45264(8) 0.31151(9) 0.40222(10)
O11 O 0.37588(9) 0.31033(9) 0.25113(10)
O12 O 0.41847(8) 0.19586(9) 0.14426(10)
B1 B 0.74878(15) 0.95352(12) 0.49899(19)
F1 F 0.79961(8) 0.91514(9) 0.54346(10)
F2 F 0.70535(8) 0.99651(9) 0.54910(11)
F3 F 0.70728(9) 0.90108(10) 0.45776(11)
F4 F 0.78279(10) 1.00164(10) 0.44489(11)
B2 B 0.24794(16) 0.91946(13) 0.4933(2)
F5 F 0.23809(9) 0.83999(7) 0.49134(11)
F6 F 0.24484(11) 0.94425(10) 0.57120(10)
F7 F 0.19486(11) 0.95549(11) 0.45033(15)
F8 F 0.31352(9) 0.93678(9) 0.46201(12)
loop_
_geom_bond_atom_site_label_1
_geom_bond_atom_site_label_2
_geom_bond_site_symmetry_1
_geom_bond_site_symmetry_2
C1 C2 1_555 1_555
C2 C3 1_555 1_555
C3 C4 1_555 1_555
C4 H1 1_555 1_555
C5 C4 1_555 1_555
H2 C5 1_555 1_555
C6 C1 1_555 1_555
H3 C6 1_555 1_555
C7 C3 1_555 1_555
H4 C7 1_555 1_555
C8 C7 1_555 1_555
H5 C8 1_555 1_555
H6 C8 1_555 1_555
H7 C8 1_555 1_555
C9 C7 1_555 1_555
H8 C9 1_555 1_555
H9 C9 1_555 1_555
H10 C9 1_555 1_555
C10 C1 1_555 1_555
H11 C10 1_555 1_555
C11 C10 1_555 1_555
H12 C11 1_555 1_555
H13 C11 1_555 1_555
H14 C11 1_555 1_555
C12 C10 1_555 1_555
H15 C12 1_555 1_555
H16 C12 1_555 1_555
H17 C12 1_555 1_555
N1 C2 1_555 1_555
H18 N1 1_555 1_555
H19 N1 1_555 1_555
H20 N1 1_555 1_555
C13 H21 1_555 1_555
H22 C13 1_555 1_555
C14 C13 1_555 1_555
H23 C14 1_555 1_555
H24 C14 1_555 1_555
C15 H25 1_555 1_555
H26 C15 1_555 1_555
C16 C15 1_555 1_555
H27 C16 1_555 1_555
H28 C16 1_555 1_555
C17 H29 1_555 1_555
H30 C17 1_555 1_555
C18 C17 1_555 1_555
H31 C18 1_555 1_555
H32 C18 1_555 1_555
C19 H33 1_555 1_555
H34 C19 1_555 1_555
C20 C19 1_555 1_555
H35 C20 1_555 1_555
H36 C20 1_555 1_555
C21 H37 1_555 1_555
H38 C21 1_555 1_555
C22 C21 1_555 1_555
H39 C22 1_555 1_555
H40 C22 1_555 1_555
C23 H41 1_555 1_555
H42 C23 1_555 1_555
C24 C23 1_555 1_555
H43 C24 1_555 1_555
H44 C24 1_555 1_555
O1 C16 1_555 1_555
O2 C18 1_555 1_555
O3 C20 1_555 1_555
O4 C22 1_555 1_555
O5 C13 1_555 1_555
O6 C14 1_555 1_555
C25 C26 1_555 1_555
C26 C27 1_555 1_555
C27 H45 1_555 1_555
C28 C27 1_555 1_555
H46 C28 1_555 1_555
C29 C28 1_555 1_555
H47 C29 1_555 1_555
C30 C25 1_555 1_555
C31 C26 1_555 1_555
H48 C31 1_555 1_555
C32 C31 1_555 1_555
H49 C32 1_555 1_555
H50 C32 1_555 1_555
H51 C32 1_555 1_555
C33 C31 1_555 1_555
H52 C33 1_555 1_555
H53 C33 1_555 1_555
H54 C33 1_555 1_555
C34 C30 1_555 1_555
H55 C34 1_555 1_555
C35 C34 1_555 1_555
H56 C35 1_555 1_555
H57 C35 1_555 1_555
H58 C35 1_555 1_555
C36 C34 1_555 1_555
H59 C36 1_555 1_555
H60 C36 1_555 1_555
H61 C36 1_555 1_555
N2 C25 1_555 1_555
H62 N2 1_555 1_555
H63 N2 1_555 1_555
H64 N2 1_555 1_555
C37 H65 1_555 1_555
H66 C37 1_555 1_555
C38 C37 1_555 1_555
H67 C38 1_555 1_555
H68 C38 1_555 1_555
C39 H69 1_555 1_555
H70 C39 1_555 1_555
C40 C39 1_555 1_555
H71 C40 1_555 1_555
H72 C40 1_555 1_555
C41 H73 1_555 1_555
H74 C41 1_555 1_555
C42 C41 1_555 1_555
H75 C42 1_555 1_555
H76 C42 1_555 1_555
C43 H77 1_555 1_555
H78 C43 1_555 1_555
C44 C43 1_555 1_555
H79 C44 1_555 1_555
H80 C44 1_555 1_555
C45 H81 1_555 1_555
H82 C45 1_555 1_555
C46 C45 1_555 1_555
H83 C46 1_555 1_555
H84 C46 1_555 1_555
C47 H85 1_555 1_555
H86 C47 1_555 1_555
C48 C47 1_555 1_555
H87 C48 1_555 1_555
H88 C48 1_555 1_555
O7 C38 1_555 1_555
O8 C39 1_555 1_555
O9 C42 1_555 1_555
O10 C44 1_555 1_555
O11 C46 1_555 1_555
O12 C37 1_555 1_555
B1 F1 1_555 1_555
F2 B1 1_555 1_555
F3 B1 1_555 1_555
F4 B1 1_555 1_555
B2 F5 1_555 1_555
F6 B2 1_555 1_555
F7 B2 1_555 1_555
F8 B2 1_555 1_555
C5 C6 1_555 1_555
C15 O6 1_555 1_555
C17 O1 1_555 1_555
C19 O2 1_555 1_555
C21 O3 1_555 1_555
C23 O4 1_555 1_555
C24 O5 1_555 1_555
C29 C30 1_555 1_555
C40 O7 1_555 1_555
C41 O8 1_555 1_555
C43 O9 1_555 1_555
C45 O10 1_555 1_555
C47 O11 1_555 1_555
C48 O12 1_555 1_555

#END
