
#######################################################################
#
#                 Cambridge Crystallographic Data Centre
#                                CCDC 
#
#######################################################################
#
# If this CIF has been generated from an entry in the Cambridge 
# Structural Database, then it will include bibliographic, chemical, 
# crystal, experimental, refinement or atomic coordinate data resulting 
# from the CCDC's data processing and validation procedures.
#
#######################################################################

data_FUWYED
_chemical_formula_moiety         'C19 H20 N2 O4 S1'
_chemical_name_systematic        
13-Methylene-6-((4-nitrophenyl)sulfonyl)-6-azatetracyclo[5.5.1.0^1,9^.0^3,7^]tridec-8-ene
_symmetry_cell_setting           monoclinic
_symmetry_space_group_name_H-M   'P 21/n'
_symmetry_Int_Tables_number      14
_space_group_name_Hall           '-P 2yn'
loop_
_symmetry_equiv_pos_site_id
_symmetry_equiv_pos_as_xyz
1 x,y,z
2 1/2-x,1/2+y,1/2-z
3 -x,-y,-z
4 1/2+x,1/2-y,1/2+z
_cell_length_a                   12.593(2)
_cell_length_b                   11.569(3)
_cell_length_c                   13.603(3)
_cell_angle_alpha                90
_cell_angle_beta                 116.52(1)
_cell_angle_gamma                90
_cell_volume                     1773.27
_exptl_crystal_colour            colorless
_exptl_crystal_description       Block
_cell_formula_units_Z            4
loop_
_atom_site_label
_atom_site_type_symbol
_atom_site_fract_x
_atom_site_fract_y
_atom_site_fract_z
S1 S 0.70170(3) 0.37764(3) 0.66699(3)
O1 O 0.64147(10) 0.48616(9) 0.63362(9)
O2 O 0.77874(10) 0.35590(11) 0.78053(9)
O3 O 0.23215(12) 0.03364(14) 0.49978(12)
O4 O 0.37058(13) -0.09431(12) 0.56940(13)
N1 N 0.78029(11) 0.36075(11) 0.60177(10)
N2 N 0.33660(13) 0.00535(14) 0.54419(12)
C1 C 0.59267(13) 0.26706(13) 0.62604(12)
C2 C 0.47567(13) 0.29282(14) 0.55489(12)
H1 H 0.4539 0.3686 0.5260
C3 C 0.39070(14) 0.20618(15) 0.52654(12)
H2 H 0.3099 0.2215 0.4780
C4 C 0.42639(14) 0.09720(15) 0.57049(12)
C5 C 0.54265(14) 0.06965(15) 0.63966(13)
H3 H 0.5642 -0.0068 0.6668
C6 C 0.62700(14) 0.15617(14) 0.66849(13)
H4 H 0.7077 0.1402 0.7168
C7 C 0.87798(14) 0.27451(15) 0.63544(13)
H5 H 0.8473 0.1946 0.6288
H6 H 0.9387 0.2879 0.7119
C8 C 0.92829(14) 0.29693(15) 0.55330(13)
H7 H 0.9836 0.3635 0.5764
H8 H 0.9702 0.2280 0.5451
C9 C 0.81775(13) 0.32319(14) 0.44714(13)
H9 H 0.7735 0.2502 0.4145
C10 C 0.82474(14) 0.39938(14) 0.35659(13)
H10 H 0.7924 0.3583 0.2853
H11 H 0.9075 0.4229 0.3769
C11 C 0.74485(13) 0.40078(13) 0.48930(12)
C12 C 0.61724(13) 0.40254(14) 0.40065(12)
H12 H 0.5500 0.3680 0.4032
C13 C 0.62022(13) 0.46320(14) 0.31840(12)
C14 C 0.74617(13) 0.50627(14) 0.35162(12)
C15 C 0.78598(12) 0.52077(13) 0.47372(12)
C16 C 0.84206(14) 0.60325(14) 0.54416(13)
H13 H 0.8659 0.6712 0.5201
H14 H 0.8588 0.5950 0.6192
C17 C 0.73311(15) 0.60554(15) 0.27265(14)
H15 H 0.7648 0.5832 0.2206
H16 H 0.7759 0.6751 0.3136
C18 C 0.59876(16) 0.62851(17) 0.21133(15)
H17 H 0.5753 0.6884 0.2498
H18 H 0.5765 0.6552 0.1355
C19 C 0.53780(15) 0.51310(16) 0.20987(13)
H19 H 0.4575 0.5252 0.2044
H20 H 0.5320 0.4632 0.1485
loop_
_geom_bond_atom_site_label_1
_geom_bond_atom_site_label_2
_geom_bond_site_symmetry_1
_geom_bond_site_symmetry_2
S1 O1 1_555 1_555
O2 S1 1_555 1_555
O3 N2 1_555 1_555
O4 N2 1_555 1_555
N1 S1 1_555 1_555
N2 C4 1_555 1_555
C1 S1 1_555 1_555
C2 C1 1_555 1_555
H1 C2 1_555 1_555
C3 C2 1_555 1_555
H2 C3 1_555 1_555
C4 C3 1_555 1_555
C5 C4 1_555 1_555
H3 C5 1_555 1_555
C6 C1 1_555 1_555
H4 C6 1_555 1_555
C7 N1 1_555 1_555
H5 C7 1_555 1_555
H6 C7 1_555 1_555
C8 C7 1_555 1_555
H7 C8 1_555 1_555
H8 C8 1_555 1_555
C9 C8 1_555 1_555
H9 C9 1_555 1_555
C10 C9 1_555 1_555
H10 C10 1_555 1_555
H11 C10 1_555 1_555
C11 N1 1_555 1_555
C12 C11 1_555 1_555
H12 C12 1_555 1_555
C13 C12 1_555 1_555
C14 C10 1_555 1_555
C15 C11 1_555 1_555
C16 C15 1_555 1_555
H13 C16 1_555 1_555
H14 C16 1_555 1_555
C17 C14 1_555 1_555
H15 C17 1_555 1_555
H16 C17 1_555 1_555
C18 C17 1_555 1_555
H17 C18 1_555 1_555
H18 C18 1_555 1_555
C19 C13 1_555 1_555
H19 C19 1_555 1_555
H20 C19 1_555 1_555
C5 C6 1_555 1_555
C9 C11 1_555 1_555
C13 C14 1_555 1_555
C14 C15 1_555 1_555
C18 C19 1_555 1_555

#END
