
#######################################################################
#
#                 Cambridge Crystallographic Data Centre
#                                CCDC 
#
#######################################################################
#
# If this CIF has been generated from an entry in the Cambridge 
# Structural Database, then it will include bibliographic, chemical, 
# crystal, experimental, refinement or atomic coordinate data resulting 
# from the CCDC's data processing and validation procedures.
#
#######################################################################

data_FUWYUT
_chemical_formula_moiety         'C22 H22 N2 O5 S1'
_chemical_name_systematic        
N-Benzyl-N-(3a-hydroxy-1-methylene-1,3a,4,5,6,6a-hexahydropentalen-2-yl)-4-nitrobenzenesulfonamide
_symmetry_cell_setting           monoclinic
_symmetry_space_group_name_H-M   'P 21/c'
_symmetry_Int_Tables_number      14
_space_group_name_Hall           '-P 2ybc'
loop_
_symmetry_equiv_pos_site_id
_symmetry_equiv_pos_as_xyz
1 x,y,z
2 -x,1/2+y,1/2-z
3 -x,-y,-z
4 x,1/2-y,1/2+z
_cell_length_a                   8.6141(10)
_cell_length_b                   20.396(2)
_cell_length_c                   12.2349(14)
_cell_angle_alpha                90
_cell_angle_beta                 106.345(2)
_cell_angle_gamma                90
_cell_volume                     2062.71
_exptl_crystal_colour            colorless
_exptl_crystal_description       plate
_cell_formula_units_Z            4
loop_
_atom_site_label
_atom_site_type_symbol
_atom_site_fract_x
_atom_site_fract_y
_atom_site_fract_z
S1 S 0.20503(7) 0.46376(3) 0.33757(4)
O1 O 0.29600(18) 0.46269(7) 0.45569(12)
O2 O 0.06557(18) 0.42334(7) 0.29747(12)
O3 O 0.7760(2) 0.44014(9) 0.07101(14)
O4 O 0.5688(2) 0.40800(9) -0.06192(13)
O5 O 0.63222(17) 0.66244(7) 0.42593(13)
H1 H 0.6539 0.6253 0.4560
N1 N 0.6327(2) 0.42582(9) 0.03538(15)
N2 N 0.1488(2) 0.53999(8) 0.30645(14)
C1 C 0.3382(3) 0.44574(10) 0.25451(17)
C2 C 0.2730(3) 0.42002(10) 0.14579(18)
H2 H 0.1622 0.4078 0.1210
C3 C 0.3709(3) 0.41240(10) 0.07408(18)
H3 H 0.3289 0.3950 -0.0004
C4 C 0.5313(3) 0.43087(10) 0.11422(17)
C5 C 0.5996(3) 0.45442(10) 0.22314(18)
H4 H 0.7115 0.4649 0.2486
C6 C 0.5016(3) 0.46235(10) 0.29417(18)
H5 H 0.5449 0.4789 0.3692
C7 C 0.0606(3) 0.55245(10) 0.18458(17)
H6 H -0.0196 0.5172 0.1565
H7 H 0.1383 0.5517 0.1384
C8 C -0.0245(3) 0.61760(11) 0.17024(17)
C9 C -0.1284(3) 0.63418(12) 0.23430(19)
H8 H -0.1447 0.6044 0.2898
C10 C -0.2085(3) 0.69378(13) 0.2180(2)
H9 H -0.2777 0.7051 0.2633
C11 C -0.1880(3) 0.73686(13) 0.1357(2)
H10 H -0.2435 0.7777 0.1242
C12 C -0.0872(3) 0.72045(12) 0.0706(2)
H11 H -0.0749 0.7496 0.0130
C13 C -0.0035(3) 0.66154(11) 0.08867(18)
H12 H 0.0687 0.6511 0.0451
C14 C 0.2622(2) 0.59016(10) 0.36106(17)
C15 C 0.2524(3) 0.62191(10) 0.46649(17)
C16 C 0.1439(3) 0.60911(11) 0.52220(19)
H13 H 0.0631 0.5768 0.4941
H14 H 0.1471 0.6323 0.5901
C17 C 0.3829(3) 0.67437(11) 0.49431(19)
H15 H 0.4652 0.6651 0.5685
C18 C 0.4609(3) 0.67222(10) 0.39302(18)
C19 C 0.3732(2) 0.61746(10) 0.31902(17)
H16 H 0.3946 0.6039 0.2504
C20 C 0.4244(3) 0.73952(11) 0.3349(2)
H17 H 0.5161 0.7701 0.3638
H18 H 0.4023 0.7354 0.2512
C21 C 0.2751(3) 0.76307(12) 0.3662(2)
H19 H 0.1763 0.7406 0.3205
H20 H 0.2607 0.8110 0.3559
C22 C 0.3147(3) 0.74402(11) 0.4921(2)
H21 H 0.2164 0.7444 0.5187
H22 H 0.3959 0.7741 0.5401
loop_
_geom_bond_atom_site_label_1
_geom_bond_atom_site_label_2
_geom_bond_site_symmetry_1
_geom_bond_site_symmetry_2
S1 O1 1_555 1_555
O2 S1 1_555 1_555
O3 N1 1_555 1_555
O4 N1 1_555 1_555
O5 H1 1_555 1_555
N1 C4 1_555 1_555
N2 S1 1_555 1_555
C1 S1 1_555 1_555
C2 C1 1_555 1_555
H2 C2 1_555 1_555
C3 C2 1_555 1_555
H3 C3 1_555 1_555
C4 C3 1_555 1_555
C5 C4 1_555 1_555
H4 C5 1_555 1_555
C6 C1 1_555 1_555
H5 C6 1_555 1_555
C7 N2 1_555 1_555
H6 C7 1_555 1_555
H7 C7 1_555 1_555
C8 C7 1_555 1_555
C9 C8 1_555 1_555
H8 C9 1_555 1_555
C10 C9 1_555 1_555
H9 C10 1_555 1_555
C11 C10 1_555 1_555
H10 C11 1_555 1_555
C12 C11 1_555 1_555
H11 C12 1_555 1_555
C13 C8 1_555 1_555
H12 C13 1_555 1_555
C14 N2 1_555 1_555
C15 C14 1_555 1_555
C16 C15 1_555 1_555
H13 C16 1_555 1_555
H14 C16 1_555 1_555
C17 C15 1_555 1_555
H15 C17 1_555 1_555
C18 O5 1_555 1_555
C19 C14 1_555 1_555
H16 C19 1_555 1_555
C20 C18 1_555 1_555
H17 C20 1_555 1_555
H18 C20 1_555 1_555
C21 C20 1_555 1_555
H19 C21 1_555 1_555
H20 C21 1_555 1_555
C22 C17 1_555 1_555
H21 C22 1_555 1_555
H22 C22 1_555 1_555
C5 C6 1_555 1_555
C12 C13 1_555 1_555
C17 C18 1_555 1_555
C18 C19 1_555 1_555
C21 C22 1_555 1_555

#END
