
#######################################################################
#
#                 Cambridge Crystallographic Data Centre
#                                CCDC 
#
#######################################################################
#
# If this CIF has been generated from an entry in the Cambridge 
# Structural Database, then it will include bibliographic, chemical, 
# crystal, experimental, refinement or atomic coordinate data resulting 
# from the CCDC's data processing and validation procedures.
#
#######################################################################

data_FUWYOM
_chemical_formula_moiety         'C38 H39 N1 O14,0.5(C1 H2 Cl2)'
_chemical_name_systematic        
'Tetramethyl 3,4-bis(benzyloxy)-2-((benzyloxy)methyl)-3,4-dihydro-2H-[1,2]oxazolo[2,3-b]pyrano[3,2-c][1,2]oxazole-5,6,10,10(10aH)-tetracarboxylate dichloromethane solvate'
_symmetry_cell_setting           monoclinic
_symmetry_space_group_name_H-M   'C 2'
_symmetry_Int_Tables_number      5
_space_group_name_Hall           'C 2y'
loop_
_symmetry_equiv_pos_site_id
_symmetry_equiv_pos_as_xyz
1 x,y,z
2 -x,y,-z
3 1/2+x,1/2+y,z
4 1/2-x,1/2+y,-z
_cell_length_a                   22.716(15)
_cell_length_b                   14.315(10)
_cell_length_c                   16.085(11)
_cell_angle_alpha                90
_cell_angle_beta                 129.531(11)
_cell_angle_gamma                90
_cell_volume                     4034.19
_exptl_crystal_colour            colorless
_exptl_crystal_description       prismatic
_cell_formula_units_Z            4
loop_
_atom_site_label
_atom_site_type_symbol
_atom_site_fract_x
_atom_site_fract_y
_atom_site_fract_z
N1 N 0.23633(17) 0.2748(2) 0.4374(2)
O1 O 0.29529(14) 0.2031(2) 0.5084(2)
O2 O 0.11161(15) 0.36094(19) 0.2207(2)
O3 O 0.16598(14) 0.22917(19) 0.3939(2)
O4 O 0.44104(19) 0.1014(3) 0.5721(3)
O5 O 0.34095(18) 0.0059(2) 0.4940(3)
O6 O 0.2647(2) 0.2239(2) 0.1957(3)
O7 O 0.3435(2) 0.1103(2) 0.3128(3)
O8 O 0.34078(15) 0.39240(19) 0.4616(2)
O9 O 0.25262(17) 0.54128(19) 0.3024(2)
O10 O 0.07786(18) 0.5518(2) 0.2333(2)
O11 O 0.01417(17) 0.2519(3) 0.2624(3)
O12 O 0.00015(17) 0.1889(3) 0.1226(3)
O13 O 0.1425(2) 0.0801(2) 0.1991(3)
O14 O 0.14087(19) 0.0481(2) 0.3341(3)
C1 C 0.3166(2) 0.1646(3) 0.4535(3)
C2 C 0.2853(2) 0.2050(3) 0.3592(3)
C3 C 0.2368(2) 0.2867(2) 0.3440(3)
C4 C 0.2731(2) 0.3811(3) 0.3530(3)
H1 H 0.2878 0.3781 0.3075
C5 C 0.2204(2) 0.4633(3) 0.3163(3)
H2 H 0.2138 0.4778 0.3695
C6 C 0.1436(2) 0.4411(3) 0.2076(3)
H3 H 0.1525 0.4243 0.1573
C7 C 0.1522(2) 0.2771(3) 0.2431(3)
H4 H 0.1461 0.2545 0.1805
C8 C 0.1245(2) 0.2061(3) 0.2821(3)
C9 C 0.3743(3) 0.0876(3) 0.5130(4)
C10 C 0.3912(4) -0.0747(4) 0.5496(5)
H5 H 0.4214 -0.0828 0.5276
H6 H 0.3610 -0.1297 0.5317
H7 H 0.4241 -0.0646 0.6261
C11 C 0.2951(2) 0.1824(3) 0.2790(4)
C12 C 0.3607(4) 0.0857(4) 0.2431(6)
H8 H 0.3149 0.0654 0.1746
H9 H 0.3976 0.0361 0.2755
H10 H 0.3810 0.1392 0.2330
C13 C 0.4096(3) 0.3974(5) 0.4767(5)
H11 H 0.4070 0.4487 0.4351
H12 H 0.4172 0.3399 0.4526
C14 C 0.4739(2) 0.4121(4) 0.5935(4)
C15 C 0.5092(4) 0.3374(5) 0.6570(6)
H13 H 0.4934 0.2779 0.6274
C16 C 0.5695(5) 0.3477(7) 0.7670(8)
H14 H 0.5941 0.2951 0.8101
C17 C 0.5925(5) 0.4349(10) 0.8115(8)
H15 H 0.6315 0.4426 0.8851
C18 C 0.5561(5) 0.5115(7) 0.7439(9)
H16 H 0.5715 0.5715 0.7721
C19 C 0.4984(3) 0.4995(4) 0.6374(6)
H17 H 0.4748 0.5516 0.5931
C20 C 0.2707(3) 0.6208(3) 0.3689(5)
H18 H 0.3094 0.6046 0.4444
H19 H 0.2256 0.6424 0.3576
C21 C 0.2995(3) 0.6944(3) 0.3385(5)
C22 C 0.3672(5) 0.6872(6) 0.3590(9)
H20 H 0.3978 0.6354 0.3972
C23 C 0.3926(7) 0.7523(7) 0.3262(10)
H21 H 0.4388 0.7430 0.3407
C24 C 0.3524(10) 0.8279(8) 0.2743(12)
H22 H 0.3685 0.8709 0.2491
C25 C 0.2868(10) 0.8413(7) 0.2586(14)
H23 H 0.2605 0.8974 0.2293
C26 C 0.2576(6) 0.7716(5) 0.2862(9)
H24 H 0.2101 0.7790 0.2683
C27 C 0.0864(3) 0.5195(3) 0.1586(4)
H25 H 0.1035 0.5703 0.1387
H26 H 0.0376 0.4976 0.0939
C28 C 0.0195(4) 0.6209(5) 0.1867(5)
H27 H 0.0276 0.6672 0.1508
H28 H 0.0239 0.6523 0.2439
C29 C -0.0600(4) 0.5825(7) 0.1069(5)
C30 C -0.1184(5) 0.6409(9) 0.0261(6)
H29 H -0.1088 0.7028 0.0206
C31 C -0.1915(6) 0.6034(17) -0.0459(8)
H30 H -0.2310 0.6414 -0.1001
C32 C -0.2072(9) 0.5135(19) -0.0398(16)
H31 H -0.2568 0.4913 -0.0894
C33 C -0.1505(7) 0.4548(12) 0.0390(10)
H32 H -0.1605 0.3928 0.0436
C34 C -0.0766(4) 0.4928(8) 0.1125(6)
H33 H -0.0375 0.4548 0.1672
C35 C 0.0395(2) 0.2193(3) 0.2239(4)
C36 C -0.0821(3) 0.1985(6) 0.0513(5)
H34 H -0.1005 0.1798 0.0885
H35 H -0.1046 0.1596 -0.0109
H36 H -0.0957 0.2625 0.0291
C37 C 0.1375(2) 0.1038(3) 0.2656(3)
C38 C 0.1499(4) -0.0513(3) 0.3258(5)
H37 H 0.1025 -0.0765 0.2633
H38 H 0.1643 -0.0827 0.3891
H39 H 0.1888 -0.0602 0.3195
C39? C 0.5000 0.454(2) 1.0000
Cl1? Cl 0.5464(15) 0.3502(19) 1.011(3)
loop_
_geom_bond_atom_site_label_1
_geom_bond_atom_site_label_2
_geom_bond_site_symmetry_1
_geom_bond_site_symmetry_2
N1 O1 1_555 1_555
O1 C1 1_555 1_555
O2 C6 1_555 1_555
O3 N1 1_555 1_555
O4 C9 1_555 1_555
O5 C9 1_555 1_555
O6 C11 1_555 1_555
O7 C11 1_555 1_555
O8 C4 1_555 1_555
O9 C5 1_555 1_555
O10 C27 1_555 1_555
O11 C35 1_555 1_555
O12 C35 1_555 1_555
O13 C37 1_555 1_555
O14 C37 1_555 1_555
C1 C2 1_555 1_555
C2 C3 1_555 1_555
C3 N1 1_555 1_555
C4 C3 1_555 1_555
H1 C4 1_555 1_555
C5 C4 1_555 1_555
H2 C5 1_555 1_555
C6 C5 1_555 1_555
H3 C6 1_555 1_555
C7 O2 1_555 1_555
H4 C7 1_555 1_555
C8 O3 1_555 1_555
C9 C1 1_555 1_555
C10 O5 1_555 1_555
H5 C10 1_555 1_555
H6 C10 1_555 1_555
H7 C10 1_555 1_555
C11 C2 1_555 1_555
C12 O7 1_555 1_555
H8 C12 1_555 1_555
H9 C12 1_555 1_555
H10 C12 1_555 1_555
C13 O8 1_555 1_555
H11 C13 1_555 1_555
H12 C13 1_555 1_555
C14 C13 1_555 1_555
C15 C14 1_555 1_555
H13 C15 1_555 1_555
C16 C15 1_555 1_555
H14 C16 1_555 1_555
C17 C16 1_555 1_555
H15 C17 1_555 1_555
C18 C17 1_555 1_555
H16 C18 1_555 1_555
C19 C14 1_555 1_555
H17 C19 1_555 1_555
C20 O9 1_555 1_555
H18 C20 1_555 1_555
H19 C20 1_555 1_555
C21 C20 1_555 1_555
C22 C21 1_555 1_555
H20 C22 1_555 1_555
C23 C22 1_555 1_555
H21 C23 1_555 1_555
C24 C23 1_555 1_555
H22 C24 1_555 1_555
C25 C24 1_555 1_555
H23 C25 1_555 1_555
C26 C21 1_555 1_555
H24 C26 1_555 1_555
C27 C6 1_555 1_555
H25 C27 1_555 1_555
H26 C27 1_555 1_555
C28 O10 1_555 1_555
H27 C28 1_555 1_555
H28 C28 1_555 1_555
C29 C28 1_555 1_555
C30 C29 1_555 1_555
H29 C30 1_555 1_555
C31 C30 1_555 1_555
H30 C31 1_555 1_555
C32 C31 1_555 1_555
H31 C32 1_555 1_555
C33 C32 1_555 1_555
H32 C33 1_555 1_555
C34 C29 1_555 1_555
H33 C34 1_555 1_555
C35 C8 1_555 1_555
C36 O12 1_555 1_555
H34 C36 1_555 1_555
H35 C36 1_555 1_555
H36 C36 1_555 1_555
C37 C8 1_555 1_555
C38 O14 1_555 1_555
H37 C38 1_555 1_555
H38 C38 1_555 1_555
H39 C38 1_555 1_555
C3 C7 1_555 1_555
C7 C8 1_555 1_555
C18 C19 1_555 1_555
C25 C26 1_555 1_555
C33 C34 1_555 1_555

#END
