
#######################################################################
#
#                 Cambridge Crystallographic Data Centre
#                                CCDC 
#
#######################################################################
#
# If this CIF has been generated from an entry in the Cambridge 
# Structural Database, then it will include bibliographic, chemical, 
# crystal, experimental, refinement or atomic coordinate data resulting 
# from the CCDC's data processing and validation procedures.
#
#######################################################################

data_FUWYIH
_chemical_formula_moiety         'C21 H20 N2 O5 S1'
_chemical_name_systematic        
N-Benzyl-4-nitro-N-(1-(5-oxocyclopent-1-en-1-yl)prop-1-en-1-yl)benzenesulfonamide
_symmetry_cell_setting           monoclinic
_symmetry_space_group_name_H-M   'P 21/n'
_symmetry_Int_Tables_number      14
_space_group_name_Hall           '-P 2yn'
loop_
_symmetry_equiv_pos_site_id
_symmetry_equiv_pos_as_xyz
1 x,y,z
2 1/2-x,1/2+y,1/2-z
3 -x,-y,-z
4 1/2+x,1/2-y,1/2+z
_cell_length_a                   11.4124(3)
_cell_length_b                   12.0079(4)
_cell_length_c                   14.6814(4)
_cell_angle_alpha                90
_cell_angle_beta                 107.6791(16)
_cell_angle_gamma                90
_cell_volume                     1916.91
_exptl_crystal_colour            colorless
_exptl_crystal_description       plate
_cell_formula_units_Z            4
loop_
_atom_site_label
_atom_site_type_symbol
_atom_site_fract_x
_atom_site_fract_y
_atom_site_fract_z
S1 S 0.19547(3) 0.58584(3) 0.17663(2)
O1 O 0.09412(9) 0.64552(9) 0.11358(7)
O2 O 0.29746(9) 0.64577(9) 0.23808(7)
O3 O 0.32969(10) 0.28984(10) -0.15827(7)
O4 O 0.50734(10) 0.28146(11) -0.05037(9)
O5 O -0.26519(9) 0.43533(9) 0.18131(7)
N1 N 0.39925(11) 0.30986(11) -0.07806(9)
N2 N 0.13945(10) 0.50236(10) 0.23975(8)
C1 C 0.25773(12) 0.49816(12) 0.10544(10)
C2 C 0.17743(13) 0.44145(12) 0.02899(10)
H1 H 0.0911 0.4461 0.0180
C3 C 0.22373(13) 0.37844(12) -0.03078(10)
H2 H 0.1703 0.3402 -0.0839
C4 C 0.35012(13) 0.37237(12) -0.01134(10)
C5 C 0.43178(13) 0.42448(12) 0.06597(10)
H3 H 0.5180 0.4162 0.0786
C6 C 0.38442(13) 0.48929(12) 0.12482(10)
H4 H 0.4382 0.5273 0.1779
C7 C 0.22478(13) 0.43602(12) 0.31740(10)
H5 H 0.3038 0.4273 0.3034
H6 H 0.1896 0.3608 0.3181
C8 C 0.24930(12) 0.48778(12) 0.41520(10)
C9 C 0.35206(13) 0.55402(13) 0.45379(10)
H7 H 0.4069 0.5684 0.4178
C10 C 0.37547(15) 0.59946(14) 0.54443(11)
H8 H 0.4467 0.6438 0.5705
C11 C 0.29535(15) 0.58033(14) 0.59692(11)
H9 H 0.3115 0.6111 0.6591
C12 C 0.19166(15) 0.51610(14) 0.55829(11)
H10 H 0.1356 0.5042 0.5937
C13 C 0.16854(14) 0.46876(13) 0.46809(11)
H11 H 0.0978 0.4236 0.4426
C14 C 0.00913(12) 0.49885(12) 0.22877(9)
C15 C -0.05478(12) 0.39854(12) 0.18197(9)
C16 C -0.18881(13) 0.37595(12) 0.16240(10)
C17 C -0.21690(13) 0.26534(13) 0.11134(11)
H12 H -0.2752 0.2753 0.0464
H13 H -0.2535 0.2132 0.1474
C18 C -0.09399(13) 0.22093(13) 0.10582(11)
H14 H -0.0717 0.1507 0.1423
H15 H -0.0967 0.2075 0.0387
C19 C -0.00493(13) 0.31163(12) 0.14954(10)
H16 H 0.0798 0.3081 0.1540
C20 C -0.04500(13) 0.58177(12) 0.26120(10)
H17 H -0.1306 0.5737 0.2523
C21 C 0.01363(14) 0.68558(13) 0.30977(11)
H18 H -0.0053 0.6944 0.3702
H19 H -0.0182 0.7498 0.2684
H20 H 0.1029 0.6808 0.3227
loop_
_geom_bond_atom_site_label_1
_geom_bond_atom_site_label_2
_geom_bond_site_symmetry_1
_geom_bond_site_symmetry_2
S1 O1 1_555 1_555
O2 S1 1_555 1_555
O3 N1 1_555 1_555
O4 N1 1_555 1_555
O5 C16 1_555 1_555
N1 C4 1_555 1_555
N2 S1 1_555 1_555
C1 S1 1_555 1_555
C2 C1 1_555 1_555
H1 C2 1_555 1_555
C3 C2 1_555 1_555
H2 C3 1_555 1_555
C4 C3 1_555 1_555
C5 C4 1_555 1_555
H3 C5 1_555 1_555
C6 C1 1_555 1_555
H4 C6 1_555 1_555
C7 N2 1_555 1_555
H5 C7 1_555 1_555
H6 C7 1_555 1_555
C8 C7 1_555 1_555
C9 C8 1_555 1_555
H7 C9 1_555 1_555
C10 C9 1_555 1_555
H8 C10 1_555 1_555
C11 C10 1_555 1_555
H9 C11 1_555 1_555
C12 C11 1_555 1_555
H10 C12 1_555 1_555
C13 C8 1_555 1_555
H11 C13 1_555 1_555
C14 N2 1_555 1_555
C15 C14 1_555 1_555
C16 C15 1_555 1_555
C17 C16 1_555 1_555
H12 C17 1_555 1_555
H13 C17 1_555 1_555
C18 C17 1_555 1_555
H14 C18 1_555 1_555
H15 C18 1_555 1_555
C19 C15 1_555 1_555
H16 C19 1_555 1_555
C20 C14 1_555 1_555
H17 C20 1_555 1_555
C21 C20 1_555 1_555
H18 C21 1_555 1_555
H19 C21 1_555 1_555
H20 C21 1_555 1_555
C5 C6 1_555 1_555
C12 C13 1_555 1_555
C18 C19 1_555 1_555

#END
