
#######################################################################
#
#                 Cambridge Crystallographic Data Centre
#                                CCDC 
#
#######################################################################
#
# If this CIF has been generated from an entry in the Cambridge 
# Structural Database, then it will include bibliographic, chemical, 
# crystal, experimental, refinement or atomic coordinate data resulting 
# from the CCDC's data processing and validation procedures.
#
#######################################################################

data_FUXNAN
_chemical_formula_moiety         'C7 H8 N2 O2'
_chemical_name_systematic        N-Methyl-p-nitroaniline
_symmetry_cell_setting           monoclinic
_symmetry_space_group_name_H-M   'P 21/n'
_symmetry_Int_Tables_number      14
_space_group_name_Hall           '-P 2yn'
loop_
_symmetry_equiv_pos_site_id
_symmetry_equiv_pos_as_xyz
1 x,y,z
2 1/2-x,1/2+y,1/2-z
3 -x,-y,-z
4 1/2+x,1/2-y,1/2+z
_cell_length_a                   10.073(3)
_cell_length_b                   6.930(4)
_cell_length_c                   10.812(3)
_cell_angle_alpha                90
_cell_angle_beta                 101.95(2)
_cell_angle_gamma                90
_cell_volume                     738.385
_cell_formula_units_Z            4
loop_
_atom_site_label
_atom_site_type_symbol
_atom_site_fract_x
_atom_site_fract_y
_atom_site_fract_z
C1 C 0.1123(2) 0.1748(4) 0.1262(2)
C2 C 0.1421(2) -0.0185(4) 0.1350(2)
C3 C 0.2207(3) -0.1008(4) 0.0595(2)
C4 C 0.2730(2) 0.0153(4) -0.0271(2)
C5 C 0.2414(3) 0.2104(4) -0.0331(2)
C6 C 0.1621(3) 0.2920(4) 0.0414(3)
C7 C 0.3849(3) -0.2627(5) -0.1081(3)
N1 N 0.0263(2) 0.2606(4) 0.2015(2)
N2 N 0.3502(2) -0.0616(3) -0.1038(2)
O1 O -0.0029(2) 0.4323(3) 0.1894(2)
O2 O -0.0156(2) 0.1565(4) 0.2786(2)
H1 H 0.377(3) 0.028(5) -0.152(2)
H2 H 0.444(3) -0.276(4) -0.163(3)
H3 H 0.433(2) -0.311(4) -0.027(2)
H4 H 0.303(3) -0.341(5) -0.132(3)
H5 H 0.108 -0.095 0.194
H6 H 0.240 -0.236 0.065
H7 H 0.275 0.290 -0.091
H8 H 0.142 0.427 0.036
loop_
_geom_bond_atom_site_label_1
_geom_bond_atom_site_label_2
_geom_bond_site_symmetry_1
_geom_bond_site_symmetry_2
C1 C2 1_555 1_555
C2 C3 1_555 1_555
C3 C4 1_555 1_555
C4 C5 1_555 1_555
C5 C6 1_555 1_555
C6 C1 1_555 1_555
C7 N2 1_555 1_555
N1 C1 1_555 1_555
N2 C4 1_555 1_555
O1 N1 1_555 1_555
O2 N1 1_555 1_555
H1 N2 1_555 1_555
H2 C7 1_555 1_555
H3 C7 1_555 1_555
H4 C7 1_555 1_555
H5 C2 1_555 1_555
H6 C3 1_555 1_555
H7 C5 1_555 1_555
H8 C6 1_555 1_555

#END
