
#######################################################################
#
#                 Cambridge Crystallographic Data Centre
#                                CCDC 
#
#######################################################################
#
# If this CIF has been generated from an entry in the Cambridge 
# Structural Database, then it will include bibliographic, chemical, 
# crystal, experimental, refinement or atomic coordinate data resulting 
# from the CCDC's data processing and validation procedures.
#
#######################################################################

data_FUXTID
_chemical_formula_moiety         'C21 H25 N2 1+,2(C1 H1 Cl3),I1 1-'
_chemical_name_systematic        
'1,3-dimesityl-1H-imidazol-3-ium iodide chloroform solvate'
_symmetry_cell_setting           monoclinic
_symmetry_space_group_name_H-M   'P 21/n'
_symmetry_Int_Tables_number      14
_space_group_name_Hall           '-P 2yn'
loop_
_symmetry_equiv_pos_site_id
_symmetry_equiv_pos_as_xyz
1 x,y,z
2 1/2-x,1/2+y,1/2-z
3 -x,-y,-z
4 1/2+x,1/2-y,1/2+z
_cell_length_a                   12.0005(5)
_cell_length_b                   9.4272(4)
_cell_length_c                   25.9285(11)
_cell_angle_alpha                90
_cell_angle_beta                 101.1782(10)
_cell_angle_gamma                90
_cell_volume                     2877.67
_exptl_crystal_colour            colorless
_exptl_crystal_description       plate
_cell_formula_units_Z            4
loop_
_atom_site_label
_atom_site_type_symbol
_atom_site_fract_x
_atom_site_fract_y
_atom_site_fract_z
C1 C 0.74181(17) 0.1260(2) 0.89521(8)
C2 C 0.76090(17) 0.3523(2) 0.91733(8)
H1 H 0.7800 0.4361 0.9375
C3 C 0.71000(17) 0.3456(2) 0.86637(8)
H2 H 0.6860 0.4238 0.8438
C4 C 0.83076(16) 0.1736(2) 0.98836(7)
C5 C 0.75998(17) 0.1254(2) 1.02133(8)
C6 C 0.81073(18) 0.0947(2) 1.07296(8)
H3 H 0.7646 0.0620 1.0964
C7 C 0.92684(19) 0.1103(2) 1.09133(8)
C8 C 0.99348(18) 0.1584(2) 1.05699(9)
H4 H 1.0729 0.1693 1.0693
C9 C 0.94726(17) 0.1913(2) 1.00494(8)
C10 C 0.63350(18) 0.1073(3) 1.00271(10)
H5 H 0.6031 0.1889 0.9811
H6 H 0.5965 0.1010 1.0332
H7 H 0.6188 0.0203 0.9818
C11 C 0.9787(2) 0.0742(3) 1.14766(9)
H8 H 1.0598 0.0981 1.1546
H9 H 0.9696 -0.0274 1.1536
H10 H 0.9405 0.1286 1.1714
C12 C 1.02287(19) 0.2441(3) 0.96889(10)
H11 H 1.0077 0.1897 0.9361
H12 H 1.1026 0.2321 0.9860
H13 H 1.0074 0.3447 0.9612
C13 C 0.64492(17) 0.1506(2) 0.80177(8)
C14 C 0.70354(17) 0.1611(2) 0.76042(8)
C15 C 0.64730(19) 0.1166(2) 0.71111(8)
H14 H 0.6849 0.1230 0.6821
C16 C 0.53759(19) 0.0630(2) 0.70320(8)
C17 C 0.48267(18) 0.0548(2) 0.74561(8)
H15 H 0.4075 0.0183 0.7402
C18 C 0.53431(17) 0.0984(2) 0.79569(8)
C19 C 0.8231(2) 0.2181(3) 0.76735(10)
H16 H 0.8478 0.2166 0.7335
H17 H 0.8741 0.1589 0.7926
H18 H 0.8250 0.3157 0.7805
C20 C 0.4789(2) 0.0142(3) 0.64929(9)
H19 H 0.4815 -0.0895 0.6475
H20 H 0.5174 0.0549 0.6227
H21 H 0.3995 0.0458 0.6427
C21 C 0.47295(18) 0.0894(3) 0.84091(9)
H22 H 0.3923 0.0700 0.8275
H23 H 0.4808 0.1796 0.8601
H24 H 0.5057 0.0128 0.8646
N1 N 0.78026(14) 0.21401(17) 0.93497(6)
N2 N 0.69911(14) 0.20372(18) 0.85302(6)
H25 H 0.7418(18) 0.028(3) 0.8967(8)
C22 C 0.8979(2) 0.8509(3) 0.29021(10)
H26 H 0.9723 0.8038 0.3042
Cl1 Cl 0.92095(9) 1.03413(9) 0.28775(3)
Cl2 Cl 0.80362(6) 0.80780(11) 0.33130(3)
Cl3 Cl 0.84669(7) 0.78733(8) 0.22595(3)
C23 C 0.64462(17) 0.6164(2) 0.04159(9)
H27 H 0.6186 0.6489 0.0045
Cl4 Cl 0.71208(6) 0.75843(7) 0.07919(3)
Cl5 Cl 0.74079(5) 0.47534(6) 0.04221(2)
Cl6 Cl 0.52613(4) 0.55951(7) 0.06655(2)
I1 I 0.66375(2) 0.73868(2) 0.89973(2)
loop_
_geom_bond_atom_site_label_1
_geom_bond_atom_site_label_2
_geom_bond_site_symmetry_1
_geom_bond_site_symmetry_2
C1 N1 1_555 1_555
C2 H1 1_555 1_555
C3 C2 1_555 1_555
H2 C3 1_555 1_555
C4 C5 1_555 1_555
C5 C6 1_555 1_555
C6 H3 1_555 1_555
C7 C6 1_555 1_555
C8 C7 1_555 1_555
H4 C8 1_555 1_555
C9 C4 1_555 1_555
C10 C5 1_555 1_555
H5 C10 1_555 1_555
H6 C10 1_555 1_555
H7 C10 1_555 1_555
C11 C7 1_555 1_555
H8 C11 1_555 1_555
H9 C11 1_555 1_555
H10 C11 1_555 1_555
C12 C9 1_555 1_555
H11 C12 1_555 1_555
H12 C12 1_555 1_555
H13 C12 1_555 1_555
C13 C14 1_555 1_555
C14 C15 1_555 1_555
C15 H14 1_555 1_555
C16 C15 1_555 1_555
C17 C16 1_555 1_555
H15 C17 1_555 1_555
C18 C13 1_555 1_555
C19 C14 1_555 1_555
H16 C19 1_555 1_555
H17 C19 1_555 1_555
H18 C19 1_555 1_555
C20 C16 1_555 1_555
H19 C20 1_555 1_555
H20 C20 1_555 1_555
H21 C20 1_555 1_555
C21 C18 1_555 1_555
H22 C21 1_555 1_555
H23 C21 1_555 1_555
H24 C21 1_555 1_555
N1 C2 1_555 1_555
N2 C1 1_555 1_555
H25 C1 1_555 1_555
C22 H26 1_555 1_555
Cl1 C22 1_555 1_555
Cl2 C22 1_555 1_555
Cl3 C22 1_555 1_555
C23 H27 1_555 1_555
Cl4 C23 1_555 1_555
Cl5 C23 1_555 1_555
Cl6 C23 1_555 1_555
C3 N2 1_555 1_555
C4 N1 1_555 1_555
C8 C9 1_555 1_555
C13 N2 1_555 1_555
C17 C18 1_555 1_555

#END
