
#######################################################################
#
#                 Cambridge Crystallographic Data Centre
#                                CCDC 
#
#######################################################################
#
# If this CIF has been generated from an entry in the Cambridge 
# Structural Database, then it will include bibliographic, chemical, 
# crystal, experimental, refinement or atomic coordinate data resulting 
# from the CCDC's data processing and validation procedures.
#
#######################################################################

data_FUXVUR
_chemical_formula_moiety         'C27 H27 Cl1 I1 N1 O4 S2'
_chemical_name_systematic        
4-((4-chlorophenyl)(iodo)methylene)-3-methyl-1-((4-methylphenyl)sulfonyl)-3-(((4-methylphenyl)sulfonyl)methyl)pyrrolidine
_symmetry_cell_setting           monoclinic
_symmetry_space_group_name_H-M   'P 21/n'
_symmetry_Int_Tables_number      14
_space_group_name_Hall           '-P 2yn'
loop_
_symmetry_equiv_pos_site_id
_symmetry_equiv_pos_as_xyz
1 x,y,z
2 1/2-x,1/2+y,1/2-z
3 -x,-y,-z
4 1/2+x,1/2-y,1/2+z
_cell_length_a                   15.9991(4)
_cell_length_b                   9.4815(2)
_cell_length_c                   18.3873(5)
_cell_angle_alpha                90
_cell_angle_beta                 95.082(3)
_cell_angle_gamma                90
_cell_volume                     2778.31
_exptl_crystal_colour            'light colorless'
_exptl_crystal_description       block
_cell_formula_units_Z            4
loop_
_atom_site_label
_atom_site_type_symbol
_atom_site_fract_x
_atom_site_fract_y
_atom_site_fract_z
I1 I 0.427128(18) 0.18560(3) 0.292237(16)
Cl1 Cl 0.77230(8) 0.5491(2) 0.15977(11)
S1 S 0.33575(6) 0.78977(11) 0.09916(6)
S2 S 0.11725(6) 0.33800(12) 0.11595(6)
O1 O 0.30256(19) 0.7661(3) 0.02489(16)
O2 O 0.29723(17) 0.8939(3) 0.14222(17)
O3 O 0.07401(18) 0.4516(3) 0.07924(18)
O4 O 0.09356(18) 0.2904(3) 0.18504(17)
N1 N 0.21469(19) 0.3889(4) 0.13077(18)
C1 C 0.2731(2) 0.3092(4) 0.1816(2)
H1 H 0.2725 0.2096 0.1694
H2 H 0.2592 0.3203 0.2315
C2 C 0.3575(2) 0.3745(4) 0.1710(2)
C3 C 0.3448(2) 0.4861(4) 0.1103(2)
C4 C 0.2607(2) 0.4404(5) 0.0706(2)
H3 H 0.2320 0.5193 0.0458
H4 H 0.2684 0.3662 0.0354
C5 C 0.3339(2) 0.6288(4) 0.1492(2)
H5 H 0.3776 0.6347 0.1892
H6 H 0.2808 0.6251 0.1708
C6 C 0.4133(2) 0.4891(4) 0.0563(2)
H7 H 0.3940 0.5438 0.0142
H8 H 0.4251 0.3945 0.0416
H9 H 0.4634 0.5307 0.0797
C7 C 0.4284(2) 0.3390(4) 0.2084(2)
C8 C 0.5145(2) 0.3923(4) 0.1992(2)
C9 C 0.6220(3) 0.5698(5) 0.2143(3)
H10 H 0.6401 0.6576 0.2319
C10 C 0.5426(3) 0.5198(5) 0.2260(2)
H11 H 0.5079 0.5743 0.2527
C11 C 0.6729(3) 0.4865(6) 0.1762(3)
C12 C 0.6471(3) 0.3575(6) 0.1500(3)
H12 H 0.6822 0.3025 0.1239
C13 C 0.5693(3) 0.3105(5) 0.1626(3)
H13 H 0.5524 0.2213 0.1462
C14 C 0.4431(3) 0.8344(4) 0.0994(2)
C15 C 0.4836(3) 0.8248(5) 0.0371(3)
H14 H 0.4553 0.7933 -0.0063
C16 C 0.5680(4) 0.8629(5) 0.0397(4)
H15 H 0.5960 0.8567 -0.0024
C17 C 0.6105(3) 0.9094(5) 0.1033(4)
C18 C 0.5680(3) 0.9192(5) 0.1651(3)
H16 H 0.5962 0.9506 0.2085
C19 C 0.4843(3) 0.8830(4) 0.1636(3)
H17 H 0.4560 0.8912 0.2055
C20 C 0.7029(3) 0.9476(6) 0.1052(4)
H18 H 0.7354 0.8822 0.1359
H19 H 0.7113 1.0414 0.1242
H20 H 0.7205 0.9435 0.0567
C21 C 0.1132(2) 0.1921(4) 0.0571(2)
C22 C 0.0953(2) 0.2094(5) -0.0177(2)
H21 H 0.0847 0.2987 -0.0374
C23 C 0.0935(2) 0.0928(5) -0.0623(2)
H22 H 0.0820 0.1044 -0.1124
C24 C 0.1082(2) -0.0420(5) -0.0344(3)
C25 C 0.1237(2) -0.0558(5) 0.0403(2)
H23 H 0.1323 -0.1453 0.0602
C26 C 0.1266(2) 0.0592(5) 0.0862(2)
H24 H 0.1375 0.0472 0.1364
C27 C 0.1072(3) -0.1695(5) -0.0826(3)
H25 H 0.0726 -0.1514 -0.1269
H26 H 0.0851 -0.2484 -0.0578
H27 H 0.1633 -0.1904 -0.0939
loop_
_geom_bond_atom_site_label_1
_geom_bond_atom_site_label_2
_geom_bond_site_symmetry_1
_geom_bond_site_symmetry_2
I1 C7 1_555 1_555
Cl1 C11 1_555 1_555
S1 O1 1_555 1_555
S2 O3 1_555 1_555
O2 S1 1_555 1_555
O4 S2 1_555 1_555
N1 S2 1_555 1_555
C1 N1 1_555 1_555
H1 C1 1_555 1_555
H2 C1 1_555 1_555
C2 C1 1_555 1_555
C3 C2 1_555 1_555
C4 N1 1_555 1_555
H3 C4 1_555 1_555
H4 C4 1_555 1_555
C5 S1 1_555 1_555
H5 C5 1_555 1_555
H6 C5 1_555 1_555
C6 C3 1_555 1_555
H7 C6 1_555 1_555
H8 C6 1_555 1_555
H9 C6 1_555 1_555
C7 C2 1_555 1_555
C8 C7 1_555 1_555
C9 H10 1_555 1_555
C10 C8 1_555 1_555
H11 C10 1_555 1_555
C11 C9 1_555 1_555
C12 C11 1_555 1_555
H12 C12 1_555 1_555
C13 C8 1_555 1_555
H13 C13 1_555 1_555
C14 S1 1_555 1_555
C15 C14 1_555 1_555
H14 C15 1_555 1_555
C16 C15 1_555 1_555
H15 C16 1_555 1_555
C17 C16 1_555 1_555
C18 C17 1_555 1_555
H16 C18 1_555 1_555
C19 C14 1_555 1_555
H17 C19 1_555 1_555
C20 C17 1_555 1_555
H18 C20 1_555 1_555
H19 C20 1_555 1_555
H20 C20 1_555 1_555
C21 S2 1_555 1_555
C22 C21 1_555 1_555
H21 C22 1_555 1_555
C23 C22 1_555 1_555
H22 C23 1_555 1_555
C24 C23 1_555 1_555
C25 C24 1_555 1_555
H23 C25 1_555 1_555
C26 C21 1_555 1_555
H24 C26 1_555 1_555
C27 C24 1_555 1_555
H25 C27 1_555 1_555
H26 C27 1_555 1_555
H27 C27 1_555 1_555
C3 C4 1_555 1_555
C3 C5 1_555 1_555
C9 C10 1_555 1_555
C12 C13 1_555 1_555
C18 C19 1_555 1_555
C25 C26 1_555 1_555

#END
