
#######################################################################
#
#                 Cambridge Crystallographic Data Centre
#                                CCDC 
#
#######################################################################
#
# If this CIF has been generated from an entry in the Cambridge 
# Structural Database, then it will include bibliographic, chemical, 
# crystal, experimental, refinement or atomic coordinate data resulting 
# from the CCDC's data processing and validation procedures.
#
#######################################################################

data_FUXYAA
_chemical_formula_moiety         'C12 H16 N2 O5 S1'
_chemical_name_systematic        
6-methyl-1-((4-nitrophenyl)sulfonyl)piperidin-3-ol
_symmetry_cell_setting           triclinic
_symmetry_space_group_name_H-M   'P -1'
_symmetry_Int_Tables_number      2
_space_group_name_Hall           '-P 1'
loop_
_symmetry_equiv_pos_site_id
_symmetry_equiv_pos_as_xyz
1 x,y,z
2 -x,-y,-z
_cell_length_a                   10.1102(6)
_cell_length_b                   11.8677(7)
_cell_length_c                   12.8084(8)
_cell_angle_alpha                114.094(2)
_cell_angle_beta                 94.621(3)
_cell_angle_gamma                97.477(3)
_cell_volume                     1375.74
_exptl_crystal_colour            colorless
_exptl_crystal_description       Block
_cell_formula_units_Z            4
loop_
_atom_site_label
_atom_site_type_symbol
_atom_site_fract_x
_atom_site_fract_y
_atom_site_fract_z
N1 N 0.34004(14) 0.85257(14) 0.12220(12)
C1 C 0.35102(18) 0.76025(16) 0.17002(15)
H1 H 0.2877 0.7697 0.2258
H2 H 0.4423 0.7776 0.2116
C2 C 0.32169(18) 0.62572(17) 0.07794(16)
H3 H 0.3454 0.5693 0.1132
O1 O 0.18167(13) 0.58927(14) 0.02951(12)
H4 H 0.1355 0.5900 0.0804
C3 C 0.40250(19) 0.61109(17) -0.01972(16)
H5 H 0.3761 0.5257 -0.0810
H6 H 0.4986 0.6238 0.0088
C4 C 0.3795(2) 0.70505(18) -0.06890(16)
H7 H 0.2846 0.6877 -0.1030
H8 H 0.4348 0.6951 -0.1304
C5 C 0.41486(18) 0.83958(17) 0.02356(16)
H9 H 0.3843 0.8948 -0.0105
C6 C 0.5652(2) 0.88432(19) 0.06734(19)
H10 H 0.5808 0.9709 0.1244
H11 H 0.6131 0.8781 0.0031
H12 H 0.5973 0.8324 0.1024
S1 S 0.22686(4) 0.94012(4) 0.15113(4)
O2 O 0.18727(13) 0.94961(13) 0.25883(11)
O3 O 0.27757(13) 1.05104(12) 0.13783(12)
C7 C 0.08283(17) 0.86185(16) 0.04395(15)
C8 C -0.02459(19) 0.79511(19) 0.06761(17)
H13 H -0.0224 0.7937 0.1406
C9 C -0.13496(19) 0.73067(19) -0.01705(18)
H14 H -0.2092 0.6856 -0.0025
C10 C -0.13365(18) 0.73409(17) -0.12295(16)
C11 C -0.02824(19) 0.80103(18) -0.14764(17)
H15 H -0.0311 0.8022 -0.2207
C12 C 0.08134(19) 0.86620(18) -0.06275(16)
H16 H 0.1542 0.9130 -0.0771
N2 N -0.24972(17) 0.66390(15) -0.21451(16)
O4 O -0.34716(15) 0.61257(16) -0.18980(15)
O5 O -0.24231(18) 0.65802(16) -0.31083(14)
N3 N 0.13057(14) 0.26993(13) 0.64408(13)
C13 C 0.14358(18) 0.40590(16) 0.68222(17)
H17 H 0.1583 0.4269 0.6171
H18 H 0.2218 0.4490 0.7428
C14 C 0.0180(2) 0.45004(19) 0.72833(18)
H19 H 0.0243 0.5397 0.7442
O6 O 0.00310(15) 0.43620(16) 0.83187(13)
H20 H 0.0675 0.4812 0.8826
C15 C -0.1068(2) 0.3745(2) 0.64058(19)
H21 H -0.1875 0.3972 0.6759
H22 H -0.1071 0.3958 0.5743
C16 C -0.11222(19) 0.23436(19) 0.59875(17)
H23 H -0.1898 0.1899 0.5378
H24 H -0.1260 0.2115 0.6630
C17 C 0.01551(18) 0.19145(17) 0.55188(16)
H25 H 0.0113 0.1035 0.5412
C18 C 0.0302(2) 0.1946(2) 0.43625(18)
H26 H 0.0316 0.2794 0.4435
H27 H -0.0452 0.1387 0.3791
H28 H 0.1138 0.1679 0.4122
S2 S 0.25959(5) 0.21303(4) 0.66815(4)
O7 O 0.32241(14) 0.29204(14) 0.78443(11)
O8 O 0.21751(14) 0.08168(12) 0.63309(13)
C19 C 0.37829(17) 0.23062(17) 0.57833(16)
C20 C 0.45298(19) 0.34868(18) 0.60608(18)
H29 H 0.4427 0.4179 0.6731
C21 C 0.5421(2) 0.36370(18) 0.53486(18)
H30 H 0.5919 0.4432 0.5515
C22 C 0.55664(19) 0.25975(18) 0.43885(16)
C23 C 0.4859(2) 0.14175(19) 0.41084(18)
H31 H 0.4992 0.0723 0.3453
C24 C 0.3947(2) 0.12761(18) 0.48148(17)
H32 H 0.3440 0.0481 0.4636
N4 N 0.65409(19) 0.27539(19) 0.36347(16)
O9 O 0.7077(2) 0.37998(19) 0.38313(18)
O10 O 0.6779(2) 0.18309(19) 0.28623(17)
loop_
_geom_bond_atom_site_label_1
_geom_bond_atom_site_label_2
_geom_bond_site_symmetry_1
_geom_bond_site_symmetry_2
N1 C1 1_555 1_555
C1 H1 1_555 1_555
H2 C1 1_555 1_555
C2 C1 1_555 1_555
H3 C2 1_555 1_555
O1 C2 1_555 1_555
H4 O1 1_555 1_555
C3 C2 1_555 1_555
H5 C3 1_555 1_555
H6 C3 1_555 1_555
C4 C3 1_555 1_555
H7 C4 1_555 1_555
H8 C4 1_555 1_555
C5 N1 1_555 1_555
H9 C5 1_555 1_555
C6 C5 1_555 1_555
H10 C6 1_555 1_555
H11 C6 1_555 1_555
H12 C6 1_555 1_555
S1 N1 1_555 1_555
O2 S1 1_555 1_555
O3 S1 1_555 1_555
C7 S1 1_555 1_555
C8 C7 1_555 1_555
H13 C8 1_555 1_555
C9 C8 1_555 1_555
H14 C9 1_555 1_555
C10 C9 1_555 1_555
C11 C10 1_555 1_555
H15 C11 1_555 1_555
C12 C7 1_555 1_555
H16 C12 1_555 1_555
N2 C10 1_555 1_555
O4 N2 1_555 1_555
O5 N2 1_555 1_555
N3 C13 1_555 1_555
C13 H17 1_555 1_555
H18 C13 1_555 1_555
C14 C13 1_555 1_555
H19 C14 1_555 1_555
O6 C14 1_555 1_555
H20 O6 1_555 1_555
C15 C14 1_555 1_555
H21 C15 1_555 1_555
H22 C15 1_555 1_555
C16 C15 1_555 1_555
H23 C16 1_555 1_555
H24 C16 1_555 1_555
C17 N3 1_555 1_555
H25 C17 1_555 1_555
C18 C17 1_555 1_555
H26 C18 1_555 1_555
H27 C18 1_555 1_555
H28 C18 1_555 1_555
S2 N3 1_555 1_555
O7 S2 1_555 1_555
O8 S2 1_555 1_555
C19 S2 1_555 1_555
C20 C19 1_555 1_555
H29 C20 1_555 1_555
C21 C20 1_555 1_555
H30 C21 1_555 1_555
C22 C21 1_555 1_555
C23 C22 1_555 1_555
H31 C23 1_555 1_555
C24 C19 1_555 1_555
H32 C24 1_555 1_555
N4 C22 1_555 1_555
O9 N4 1_555 1_555
O10 N4 1_555 1_555
C4 C5 1_555 1_555
C11 C12 1_555 1_555
C16 C17 1_555 1_555
C23 C24 1_555 1_555

#END
