
#######################################################################
#
#                 Cambridge Crystallographic Data Centre
#                                CCDC 
#
#######################################################################
#
# If this CIF has been generated from an entry in the Cambridge 
# Structural Database, then it will include bibliographic, chemical, 
# crystal, experimental, refinement or atomic coordinate data resulting 
# from the CCDC's data processing and validation procedures.
#
#######################################################################

data_FUXYED
_chemical_formula_moiety         '2(C27 H33 N7 S3),2(C8 H20 N1 1+),C1 O3 2-'
_chemical_name_systematic        
"bis(1,1',1''-(nitrilotriethane-2,1-diyl)tris[3-phenyl(thiourea)]) bis(tetra-n-butylammonium) bicarbonate"
_symmetry_cell_setting           monoclinic
_symmetry_space_group_name_H-M   'C c'
_symmetry_Int_Tables_number      9
_space_group_name_Hall           'C -2yc'
loop_
_symmetry_equiv_pos_site_id
_symmetry_equiv_pos_as_xyz
1 x,y,z
2 x,-y,1/2+z
3 1/2+x,1/2+y,z
4 1/2+x,1/2-y,1/2+z
_cell_length_a                   24.1742(5)
_cell_length_b                   24.4456(7)
_cell_length_c                   12.7595(4)
_cell_angle_alpha                90
_cell_angle_beta                 93.313(2)
_cell_angle_gamma                90
_cell_volume                     7527.66
_exptl_crystal_colour            colorless
_exptl_crystal_description       slab
_cell_formula_units_Z            4
loop_
_atom_site_label
_atom_site_type_symbol
_atom_site_fract_x
_atom_site_fract_y
_atom_site_fract_z
S1 S -0.28231(7) 0.30650(7) -0.01147(14)
S2 S -0.17509(7) 0.03022(6) -0.05119(13)
S3 S -0.17469(8) 0.37110(7) -0.39158(14)
N1 N -0.1743(2) 0.2825(2) 0.0223(4)
H1 H -0.1442 0.2729 -0.0087
N2 N -0.2167(2) 0.2438(2) -0.1214(4)
H2 H -0.1852 0.2262 -0.1265
N3 N -0.11428(19) 0.12073(19) 0.0006(4)
H3 H -0.0946 0.1478 -0.0235
N4 N -0.1401(2) 0.1104(2) -0.1705(4)
H4 H -0.1187 0.1389 -0.1792
N5 N -0.1165(2) 0.36047(19) -0.2068(4)
H5 H -0.0983 0.3384 -0.1626
N6 N -0.1217(2) 0.2847(2) -0.3081(4)
H6 H -0.1026 0.2696 -0.2549
N7 N -0.1944(2) 0.18553(18) -0.3105(4)
C1 C -0.1647(2) 0.3020(2) 0.1265(5)
C2 C -0.2017(3) 0.2965(2) 0.2035(5)
H7 H -0.2378 0.2827 0.1866
C3 C -0.1858(3) 0.3113(2) 0.3079(5)
H8 H -0.2111 0.3069 0.3615
C4 C -0.1335(3) 0.3323(2) 0.3322(5)
H9 H -0.1231 0.3426 0.4024
C5 C -0.0963(3) 0.3384(2) 0.2546(5)
H10 H -0.0604 0.3529 0.2714
C6 C -0.1115(2) 0.3233(2) 0.1521(5)
H11 H -0.0859 0.3273 0.0989
C7 C -0.2222(2) 0.2762(2) -0.0378(5)
C8 C -0.2601(3) 0.2361(3) -0.2045(5)
H12 H -0.2612 0.2682 -0.2519
H13 H -0.2965 0.2331 -0.1732
C9 C -0.2490(3) 0.1843(2) -0.2672(5)
H14 H -0.2516 0.1520 -0.2210
H15 H -0.2778 0.1807 -0.3253
C10 C -0.1126(2) 0.1158(2) 0.1122(5)
C11 C -0.1075(2) 0.0659(3) 0.1629(5)
H16 H -0.1031 0.0331 0.1244
C12 C -0.1092(3) 0.0650(3) 0.2717(6)
H17 H -0.1058 0.0311 0.3078
C13 C -0.1156(3) 0.1128(4) 0.3287(6)
H18 H -0.1194 0.1116 0.4024
C14 C -0.1164(3) 0.1627(3) 0.2750(6)
H19 H -0.1178 0.1960 0.3131
C15 C -0.1152(3) 0.1639(3) 0.1685(5)
H20 H -0.1162 0.1980 0.1327
C16 C -0.1417(2) 0.0898(2) -0.0737(5)
C17 C -0.1711(3) 0.0890(2) -0.2626(5)
H21 H -0.2084 0.0774 -0.2430
H22 H -0.1519 0.0564 -0.2890
C18 C -0.1767(3) 0.1314(2) -0.3475(5)
H23 H -0.1406 0.1353 -0.3797
H24 H -0.2040 0.1184 -0.4028
C19 C -0.1211(3) 0.4155(2) -0.1726(5)
C20 C -0.1323(3) 0.4250(3) -0.0687(5)
H25 H -0.1388 0.3949 -0.0239
C21 C -0.1341(3) 0.4781(3) -0.0289(6)
H26 H -0.1413 0.4842 0.0425
C22 C -0.1251(3) 0.5219(3) -0.0956(6)
H27 H -0.1255 0.5582 -0.0690
C23 C -0.1156(3) 0.5131(3) -0.1990(7)
H28 H -0.1112 0.5433 -0.2447
C24 C -0.1125(3) 0.4594(3) -0.2375(6)
H29 H -0.1043 0.4533 -0.3086
C25 C -0.1363(3) 0.3371(3) -0.2982(5)
C26 C -0.1347(3) 0.2510(3) -0.3994(5)
H30 H -0.1067 0.2216 -0.4025
H31 H -0.1329 0.2736 -0.4635
C27 C -0.1921(3) 0.2255(3) -0.3971(5)
H32 H -0.2199 0.2545 -0.3882
H33 H -0.2013 0.2069 -0.4648
S4 S 0.05039(7) 0.02232(6) -0.09602(13)
S5 S 0.18740(7) 0.26841(7) -0.12409(14)
S6 S 0.07823(7) 0.35920(7) 0.26355(13)
N8 N -0.00203(19) 0.11806(18) -0.1426(4)
H34 H -0.0169 0.1477 -0.1168
N9 N 0.0200(2) 0.1030(2) 0.0293(4)
H35 H 0.0012 0.1333 0.0385
N10 N 0.0759(2) 0.2670(2) -0.1527(4)
H36 H 0.0449 0.2644 -0.1202
N11 N 0.1116(2) 0.2239(2) -0.0085(4)
H37 H 0.0776 0.2119 -0.0030
N12 N 0.0260(2) 0.35338(19) 0.0716(4)
H38 H 0.0130 0.3314 0.0214
N13 N 0.0223(2) 0.2768(2) 0.1711(4)
H39 H 0.0055 0.2625 0.1145
N14 N 0.0802(2) 0.16937(19) 0.1804(4)
C28 C -0.0069(2) 0.1137(3) -0.2521(5)
C29 C -0.0209(2) 0.0654(3) -0.3060(5)
H40 H -0.0275 0.0329 -0.2677
C30 C -0.0252(3) 0.0645(3) -0.4145(5)
H41 H -0.0337 0.0313 -0.4506
C31 C -0.0173(3) 0.1119(4) -0.4701(6)
H42 H -0.0204 0.1112 -0.5447
C32 C -0.0049(3) 0.1602(3) -0.4187(6)
H43 H 0.0007 0.1927 -0.4577
C33 C -0.0005(3) 0.1615(3) -0.3098(5)
H44 H 0.0070 0.1951 -0.2744
C34 C 0.0222(2) 0.0835(2) -0.0699(5)
C35 C 0.0467(3) 0.0772(2) 0.1212(5)
H45 H 0.0833 0.0628 0.1037
H46 H 0.0239 0.0460 0.1431
C36 C 0.0542(3) 0.1178(2) 0.2110(5)
H47 H 0.0175 0.1259 0.2380
H48 H 0.0773 0.1008 0.2687
C37 C 0.0698(2) 0.2863(2) -0.2577(5)
C38 C 0.0244(2) 0.3195(3) -0.2833(5)
H49 H 0.0013 0.3310 -0.2296
C39 C 0.0120(3) 0.3360(3) -0.3861(5)
H50 H -0.0193 0.3584 -0.4028
C40 C 0.0455(3) 0.3196(3) -0.4631(6)
H51 H 0.0377 0.3314 -0.5334
C41 C 0.0903(3) 0.2863(3) -0.4399(5)
H52 H 0.1130 0.2749 -0.4943
C42 C 0.1028(2) 0.2691(2) -0.3377(5)
H53 H 0.1335 0.2457 -0.3222
C43 C 0.1229(3) 0.2516(3) -0.0939(5)
C44 C 0.1529(3) 0.2121(3) 0.0773(6)
H54 H 0.1570 0.2443 0.1241
H55 H 0.1892 0.2047 0.0481
C45 C 0.1352(3) 0.1628(3) 0.1401(5)
H56 H 0.1353 0.1299 0.0948
H57 H 0.1626 0.1568 0.1998
C46 C 0.0291(2) 0.4092(3) 0.0450(5)
C47 C 0.0430(3) 0.4228(3) -0.0544(6)
H58 H 0.0541 0.3950 -0.1008
C48 C 0.0409(3) 0.4776(3) -0.0885(7)
H59 H 0.0492 0.4864 -0.1584
C49 C 0.0269(3) 0.5182(3) -0.0210(6)
H60 H 0.0264 0.5554 -0.0428
C50 C 0.0135(3) 0.5041(3) 0.0796(6)
H61 H 0.0035 0.5321 0.1265
C51 C 0.0144(3) 0.4505(3) 0.1134(6)
H62 H 0.0051 0.4417 0.1827
C52 C 0.0407(2) 0.3292(2) 0.1652(5)
C53 C 0.0286(3) 0.2425(3) 0.2650(5)
H63 H -0.0037 0.2177 0.2672
H64 H 0.0291 0.2661 0.3282
C54 C 0.0805(3) 0.2094(2) 0.2670(5)
H65 H 0.1126 0.2342 0.2620
H66 H 0.0850 0.1897 0.3348
N15 N -0.3012(2) 0.07215(19) 0.1758(4)
C55 C -0.2817(3) 0.0128(2) 0.1772(5)
H67 H -0.2649 0.0048 0.1099
H68 H -0.2523 0.0084 0.2340
C56 C -0.3267(3) -0.0290(3) 0.1932(6)
H69 H -0.3435 -0.0219 0.2600
H70 H -0.3106 -0.0658 0.1944
H71 H -0.3552 -0.0264 0.1356
C57 C -0.3476(2) 0.0806(3) 0.0925(5)
H72 H -0.3795 0.0579 0.1108
H73 H -0.3593 0.1193 0.0944
C58 C -0.3339(3) 0.0670(3) -0.0178(5)
H74 H -0.2997 0.0858 -0.0344
H75 H -0.3643 0.0789 -0.0666
H76 H -0.3288 0.0274 -0.0242
C59 C -0.3240(3) 0.0888(3) 0.2779(5)
H77 H -0.3568 0.0659 0.2897
H78 H -0.3368 0.1272 0.2716
C60 C -0.2835(3) 0.0844(3) 0.3751(5)
H79 H -0.2706 0.0465 0.3830
H80 H -0.3024 0.0953 0.4378
H81 H -0.2517 0.1085 0.3665
C61 C -0.2508(2) 0.1060(2) 0.1508(5)
H82 H -0.2230 0.1032 0.2107
H83 H -0.2342 0.0898 0.0888
C62 C -0.2619(3) 0.1653(2) 0.1289(6)
H84 H -0.2861 0.1689 0.0649
H85 H -0.2268 0.1842 0.1192
H86 H -0.2800 0.1816 0.1881
N16 N -0.3098(2) 0.4631(2) 0.1906(5)
C63 C -0.3665(3) 0.4512(3) 0.1368(6)
H87 H -0.3925 0.4430 0.1919
H88 H -0.3798 0.4850 0.1008
C64 C -0.3701(3) 0.4050(3) 0.0576(8)
H89 H -0.3429 0.4110 0.0047
H90 H -0.4074 0.4040 0.0232
H91 H -0.3624 0.3702 0.0935
C65 C -0.2879(4) 0.4150(4) 0.2479(8)
H92 H -0.2554 0.4265 0.2933
H93 H -0.2746 0.3885 0.1963
C66 C -0.3283(4) 0.3854(4) 0.3164(8)
H94 H -0.3410 0.4106 0.3696
H95 H -0.3097 0.3541 0.3510
H96 H -0.3603 0.3724 0.2724
C67 C -0.2675(3) 0.4775(3) 0.1119(7)
H97 H -0.2632 0.4460 0.0643
H98 H -0.2313 0.4841 0.1499
C68 C -0.2835(3) 0.5285(3) 0.0455(6)
H99 H -0.3165 0.5204 -0.0003
H100 H -0.2528 0.5385 0.0025
H101 H -0.2915 0.5590 0.0921
C69 C -0.3180(3) 0.5119(3) 0.2627(5)
H102 H -0.3417 0.5389 0.2235
H103 H -0.3388 0.4991 0.3227
C70 C -0.2662(3) 0.5415(3) 0.3066(6)
H104 H -0.2422 0.5156 0.3462
H105 H -0.2769 0.5711 0.3531
H106 H -0.2463 0.5568 0.2486
C71 C -0.0515(2) 0.2443(2) -0.0668(5)
O1 O -0.09448(15) 0.22122(16) -0.1092(3)
O2 O -0.01266(16) 0.21578(16) -0.0204(4)
O3 O -0.0460(2) 0.29599(15) -0.0718(4)
loop_
_geom_bond_atom_site_label_1
_geom_bond_atom_site_label_2
_geom_bond_site_symmetry_1
_geom_bond_site_symmetry_2
S1 C7 1_555 1_555
S2 C16 1_555 1_555
S3 C25 1_555 1_555
N1 H1 1_555 1_555
N2 H2 1_555 1_555
N3 H3 1_555 1_555
N4 H4 1_555 1_555
N5 H5 1_555 1_555
N6 H6 1_555 1_555
N7 C9 1_555 1_555
C1 N1 1_555 1_555
C2 C1 1_555 1_555
H7 C2 1_555 1_555
C3 C2 1_555 1_555
H8 C3 1_555 1_555
C4 C3 1_555 1_555
H9 C4 1_555 1_555
C5 C4 1_555 1_555
H10 C5 1_555 1_555
C6 C1 1_555 1_555
H11 C6 1_555 1_555
C7 N1 1_555 1_555
C8 N2 1_555 1_555
H12 C8 1_555 1_555
H13 C8 1_555 1_555
C9 C8 1_555 1_555
H14 C9 1_555 1_555
H15 C9 1_555 1_555
C10 N3 1_555 1_555
C11 C10 1_555 1_555
H16 C11 1_555 1_555
C12 C11 1_555 1_555
H17 C12 1_555 1_555
C13 C12 1_555 1_555
H18 C13 1_555 1_555
C14 C13 1_555 1_555
H19 C14 1_555 1_555
C15 C10 1_555 1_555
H20 C15 1_555 1_555
C16 N3 1_555 1_555
C17 N4 1_555 1_555
H21 C17 1_555 1_555
H22 C17 1_555 1_555
C18 N7 1_555 1_555
H23 C18 1_555 1_555
H24 C18 1_555 1_555
C19 N5 1_555 1_555
C20 C19 1_555 1_555
H25 C20 1_555 1_555
C21 C20 1_555 1_555
H26 C21 1_555 1_555
C22 C21 1_555 1_555
H27 C22 1_555 1_555
C23 C22 1_555 1_555
H28 C23 1_555 1_555
C24 C19 1_555 1_555
H29 C24 1_555 1_555
C25 N5 1_555 1_555
C26 N6 1_555 1_555
H30 C26 1_555 1_555
H31 C26 1_555 1_555
C27 N7 1_555 1_555
H32 C27 1_555 1_555
H33 C27 1_555 1_555
S4 C34 1_555 1_555
S5 C43 1_555 1_555
S6 C52 1_555 1_555
N8 H34 1_555 1_555
N9 H35 1_555 1_555
N10 H36 1_555 1_555
N11 H37 1_555 1_555
N12 H38 1_555 1_555
N13 H39 1_555 1_555
N14 C36 1_555 1_555
C28 N8 1_555 1_555
C29 C28 1_555 1_555
H40 C29 1_555 1_555
C30 C29 1_555 1_555
H41 C30 1_555 1_555
C31 C30 1_555 1_555
H42 C31 1_555 1_555
C32 C31 1_555 1_555
H43 C32 1_555 1_555
C33 C28 1_555 1_555
H44 C33 1_555 1_555
C34 N8 1_555 1_555
C35 N9 1_555 1_555
H45 C35 1_555 1_555
H46 C35 1_555 1_555
C36 C35 1_555 1_555
H47 C36 1_555 1_555
H48 C36 1_555 1_555
C37 N10 1_555 1_555
C38 C37 1_555 1_555
H49 C38 1_555 1_555
C39 C38 1_555 1_555
H50 C39 1_555 1_555
C40 C39 1_555 1_555
H51 C40 1_555 1_555
C41 C40 1_555 1_555
H52 C41 1_555 1_555
C42 C37 1_555 1_555
H53 C42 1_555 1_555
C43 N10 1_555 1_555
C44 N11 1_555 1_555
H54 C44 1_555 1_555
H55 C44 1_555 1_555
C45 N14 1_555 1_555
H56 C45 1_555 1_555
H57 C45 1_555 1_555
C46 N12 1_555 1_555
C47 C46 1_555 1_555
H58 C47 1_555 1_555
C48 C47 1_555 1_555
H59 C48 1_555 1_555
C49 C48 1_555 1_555
H60 C49 1_555 1_555
C50 C49 1_555 1_555
H61 C50 1_555 1_555
C51 C46 1_555 1_555
H62 C51 1_555 1_555
C52 N12 1_555 1_555
C53 N13 1_555 1_555
H63 C53 1_555 1_555
H64 C53 1_555 1_555
C54 N14 1_555 1_555
H65 C54 1_555 1_555
H66 C54 1_555 1_555
N15 C55 1_555 1_555
C55 H67 1_555 1_555
H68 C55 1_555 1_555
C56 C55 1_555 1_555
H69 C56 1_555 1_555
H70 C56 1_555 1_555
H71 C56 1_555 1_555
C57 N15 1_555 1_555
H72 C57 1_555 1_555
H73 C57 1_555 1_555
C58 C57 1_555 1_555
H74 C58 1_555 1_555
H75 C58 1_555 1_555
H76 C58 1_555 1_555
C59 N15 1_555 1_555
H77 C59 1_555 1_555
H78 C59 1_555 1_555
C60 C59 1_555 1_555
H79 C60 1_555 1_555
H80 C60 1_555 1_555
H81 C60 1_555 1_555
C61 N15 1_555 1_555
H82 C61 1_555 1_555
H83 C61 1_555 1_555
C62 C61 1_555 1_555
H84 C62 1_555 1_555
H85 C62 1_555 1_555
H86 C62 1_555 1_555
N16 C63 1_555 1_555
C63 H87 1_555 1_555
H88 C63 1_555 1_555
C64 C63 1_555 1_555
H89 C64 1_555 1_555
H90 C64 1_555 1_555
H91 C64 1_555 1_555
C65 N16 1_555 1_555
H92 C65 1_555 1_555
H93 C65 1_555 1_555
C66 C65 1_555 1_555
H94 C66 1_555 1_555
H95 C66 1_555 1_555
H96 C66 1_555 1_555
C67 N16 1_555 1_555
H97 C67 1_555 1_555
H98 C67 1_555 1_555
C68 C67 1_555 1_555
H99 C68 1_555 1_555
H100 C68 1_555 1_555
H101 C68 1_555 1_555
C69 N16 1_555 1_555
H102 C69 1_555 1_555
H103 C69 1_555 1_555
C70 C69 1_555 1_555
H104 C70 1_555 1_555
H105 C70 1_555 1_555
H106 C70 1_555 1_555
C71 O1 1_555 1_555
O2 C71 1_555 1_555
O3 C71 1_555 1_555
N2 C7 1_555 1_555
N4 C16 1_555 1_555
N6 C25 1_555 1_555
C5 C6 1_555 1_555
C14 C15 1_555 1_555
C17 C18 1_555 1_555
C23 C24 1_555 1_555
C26 C27 1_555 1_555
N9 C34 1_555 1_555
N11 C43 1_555 1_555
N13 C52 1_555 1_555
C32 C33 1_555 1_555
C41 C42 1_555 1_555
C44 C45 1_555 1_555
C50 C51 1_555 1_555
C53 C54 1_555 1_555

#END
