
#######################################################################
#
#                 Cambridge Crystallographic Data Centre
#                                CCDC 
#
#######################################################################
#
# If this CIF has been generated from an entry in the Cambridge 
# Structural Database, then it will include bibliographic, chemical, 
# crystal, experimental, refinement or atomic coordinate data resulting 
# from the CCDC's data processing and validation procedures.
#
#######################################################################

data_FUXYIH
_chemical_formula_moiety         
'2(C21 H45 N7 O3),2(C16 H36 N1 1+),O4 S1 2-,2(H2 O1)'
_chemical_name_systematic        
"bis(1,1',1''-(nitrilotriethane-2,1-diyl)tris(3-butylurea)) bis(tetra-n-butylammonium) sulfate dihydrate"
_symmetry_cell_setting           triclinic
_symmetry_space_group_name_H-M   'P -1'
_symmetry_Int_Tables_number      2
_space_group_name_Hall           '-P 1'
loop_
_symmetry_equiv_pos_site_id
_symmetry_equiv_pos_as_xyz
1 x,y,z
2 -x,-y,-z
_cell_length_a                   13.3171(4)
_cell_length_b                   14.1510(6)
_cell_length_c                   24.6875(10)
_cell_angle_alpha                90.1722(16)
_cell_angle_beta                 103.847(3)
_cell_angle_gamma                90.899(2)
_cell_volume                     4516.5
_exptl_crystal_colour            colorless
_exptl_crystal_description       slab
_cell_formula_units_Z            2
loop_
_atom_site_label
_atom_site_type_symbol
_atom_site_fract_x
_atom_site_fract_y
_atom_site_fract_z
O1 O -0.07993(16) 0.00673(15) 0.19418(9)
O2 O 0.20815(19) 0.16712(18) 0.47045(10)
O3 O -0.02878(16) 0.50643(15) 0.25769(10)
N1 N -0.04625(19) 0.21925(17) 0.32577(10)
N2 N 0.04502(19) 0.06983(18) 0.26554(11)
H1 H 0.1077 0.0947 0.2757
N3 N 0.0662(2) 0.0726(2) 0.17653(11)
H2 H 0.1285 0.0958 0.1911
N4 N 0.16630(19) 0.26028(18) 0.39371(11)
H3 H 0.1859 0.2839 0.3649
N5 N 0.00769(19) 0.35301(18) 0.24253(11)
H4 H 0.0533 0.3138 0.2351
N6 N 0.1374(2) 0.46483(18) 0.26262(13)
H5 H 0.1788 0.4189 0.2584
C1 C -0.0938(2) 0.1272(2) 0.30686(14)
H6 H -0.1377 0.1331 0.2686
H7 H -0.1386 0.1069 0.3315
C2 C -0.0125(2) 0.0529(2) 0.30729(14)
H8 H 0.0361 0.0523 0.3446
H9 H -0.0467 -0.0101 0.3007
C3 C 0.0047(2) 0.0483(2) 0.21108(14)
C4 C 0.0328(3) 0.0617(2) 0.11646(14)
H10 H -0.0100 0.0033 0.1076
H11 H 0.0943 0.0547 0.1009
C5 C -0.0283(3) 0.1437(3) 0.08933(16)
H12 H 0.0126 0.2026 0.1007
H13 H -0.0923 0.1477 0.1029
C6 C -0.0576(3) 0.1367(3) 0.02497(16)
H14 H -0.0839 0.0720 0.0137
H15 H -0.1141 0.1812 0.0101
C7 C 0.0313(3) 0.1588(3) -0.00019(18)
H16 H 0.0548 0.2242 0.0088
H17 H 0.0094 0.1508 -0.0408
H18 H 0.0881 0.1158 0.0149
C8 C -0.0183(2) 0.2264(2) 0.38681(13)
H19 H -0.0009 0.1630 0.4028
H20 H -0.0784 0.2493 0.3999
C9 C 0.0731(2) 0.2933(2) 0.40729(14)
H21 H 0.0562 0.3561 0.3904
H22 H 0.0856 0.3007 0.4483
C10 C 0.2238(2) 0.1930(2) 0.42527(13)
N7 N 0.3008(2) 0.15824(19) 0.40438(11)
H23 H 0.3010 0.1711 0.3696
C11 C 0.3834(8) 0.1007(6) 0.4365(6)
H24 H 0.3965 0.1197 0.4762
H25 H 0.4473 0.1144 0.4239
C12 C 0.3621(6) -0.0043(5) 0.4321(3)
H26 H 0.2985 -0.0182 0.4450
H27 H 0.4199 -0.0368 0.4574
C13 C 0.3486(6) -0.0444(5) 0.3738(3)
H28 H 0.2828 -0.0220 0.3498
H29 H 0.4057 -0.0209 0.3578
C14 C 0.3478(12) -0.1505(6) 0.3736(5)
H30 H 0.4160 -0.1729 0.3935
H31 H 0.3318 -0.1739 0.3350
H32 H 0.2953 -0.1740 0.3923
C15 C -0.1104(2) 0.2979(2) 0.29977(13)
H33 H -0.0922 0.3550 0.3235
H34 H -0.1841 0.2820 0.2972
C16 C -0.0956(2) 0.3189(2) 0.24174(13)
H35 H -0.1101 0.2606 0.2187
H36 H -0.1461 0.3669 0.2240
C17 C 0.0349(2) 0.4451(2) 0.25470(14)
C18 C 0.1817(3) 0.5583(2) 0.27768(15)
H37 H 0.1253 0.6028 0.2782
H38 H 0.2172 0.5800 0.2489
C19 C 0.2587(3) 0.5606(3) 0.33449(18)
H39 H 0.3161 0.5178 0.3331
H40 H 0.2882 0.6254 0.3414
C20 C 0.2145(4) 0.5327(3) 0.38257(19)
H41 H 0.2708 0.5339 0.4170
H42 H 0.1878 0.4668 0.3766
C21 C 0.1286(4) 0.5950(4) 0.3912(2)
H43 H 0.1529 0.6609 0.3948
H44 H 0.1081 0.5759 0.4251
H45 H 0.0691 0.5885 0.3591
O4 O 0.63406(16) 0.46244(16) 0.30348(9)
O5 O 0.55996(17) -0.03078(16) 0.22184(11)
O6 O 0.29113(18) 0.33330(18) 0.04052(9)
N8 N 0.55817(19) 0.26504(18) 0.16422(10)
N9 N 0.49165(19) 0.40579(18) 0.24048(11)
H46 H 0.4284 0.3826 0.2354
N10 N 0.51950(19) 0.11701(19) 0.24595(11)
H47 H 0.4736 0.1524 0.2563
N11 N 0.3970(2) -0.0006(2) 0.23050(14)
H48 H 0.3557 0.0416 0.2394
N12 N 0.33781(19) 0.22047(19) 0.10686(11)
H49 H 0.3199 0.1881 0.1335
C22 C 0.6086(2) 0.3558(2) 0.18275(13)
H50 H 0.6434 0.3799 0.1542
H51 H 0.6621 0.3469 0.2178
C23 C 0.5316(2) 0.4277(2) 0.19246(13)
H52 H 0.5656 0.4909 0.1978
H53 H 0.4734 0.4302 0.1590
C24 C 0.5489(2) 0.4200(2) 0.29275(14)
N13 N 0.5069(2) 0.3862(2) 0.33372(11)
H54 H 0.4447 0.3600 0.3249
C25 C 0.5616(3) 0.3922(3) 0.39142(14)
H55 H 0.5889 0.4573 0.4002
H56 H 0.6210 0.3490 0.3982
C26 C 0.4917(3) 0.3661(3) 0.42929(14)
H57 H 0.4334 0.4105 0.4229
H58 H 0.4625 0.3019 0.4192
C27 C 0.5455(3) 0.3681(3) 0.48994(15)
H59 H 0.5779 0.4313 0.4998
H60 H 0.6012 0.3209 0.4970
C28 C 0.4706(4) 0.3466(3) 0.52705(18)
H61 H 0.4140 0.3918 0.5191
H62 H 0.5076 0.3521 0.5664
H63 H 0.4423 0.2823 0.5194
C29 C 0.6248(2) 0.1850(2) 0.18590(13)
H64 H 0.6973 0.2018 0.1862
H65 H 0.6039 0.1298 0.1608
C30 C 0.6183(2) 0.1583(2) 0.24423(14)
H66 H 0.6733 0.1128 0.2596
H67 H 0.6310 0.2155 0.2683
C31 C 0.4953(3) 0.0260(2) 0.23224(15)
C32 C 0.3554(3) -0.0947(2) 0.21488(18)
H68 H 0.3228 -0.1188 0.2443
H69 H 0.4130 -0.1370 0.2131
C33 C 0.2760(3) -0.0989(3) 0.1592(2)
H70 H 0.2502 -0.1649 0.1524
H71 H 0.2166 -0.0595 0.1620
C34 C 0.3145(4) -0.0664(3) 0.1096(2)
H72 H 0.3391 0.0000 0.1159
H73 H 0.2560 -0.0681 0.0762
C35 C 0.4013(4) -0.1255(4) 0.0981(2)
H74 H 0.4619 -0.1200 0.1297
H75 H 0.4196 -0.1028 0.0642
H76 H 0.3786 -0.1918 0.0930
C36 C 0.5181(2) 0.2606(2) 0.10439(13)
H77 H 0.5737 0.2404 0.0868
H78 H 0.4969 0.3246 0.0905
C37 C 0.4263(2) 0.1929(2) 0.08696(14)
H79 H 0.4062 0.1888 0.0457
H80 H 0.4474 0.1291 0.1013
C38 C 0.2817(3) 0.2967(2) 0.08448(13)
N14 N 0.2138(2) 0.3275(2) 0.11358(12)
H81 H 0.2000 0.2920 0.1402
C39 C 0.1628(6) 0.4193(4) 0.1014(5)
H82 H 0.0960 0.4160 0.1123
H83 H 0.1472 0.4294 0.0606
C40 C 0.2237(5) 0.5042(4) 0.1300(2)
H84 H 0.2828 0.5162 0.1130
H85 H 0.2521 0.4889 0.1698
C41 C 0.1609(4) 0.5950(4) 0.1267(2)
H86 H 0.0985 0.5817 0.1407
H87 H 0.2030 0.6434 0.1515
C42 C 0.1277(5) 0.6350(4) 0.0679(2)
H88 H 0.1891 0.6497 0.0540
H89 H 0.0883 0.6926 0.0687
H90 H 0.0843 0.5882 0.0432
S1 S 0.27805(6) 0.23586(5) 0.25774(3)
O7 O 0.18637(15) 0.22850(15) 0.28105(9)
O8 O 0.37244(15) 0.21653(15) 0.30173(9)
O9 O 0.26912(16) 0.16693(15) 0.21192(9)
O10 O 0.28556(16) 0.33239(15) 0.23633(9)
N15 N 0.24915(18) 0.22211(18) 0.62429(10)
C43 C 0.3050(2) 0.1448(2) 0.60006(13)
H91 H 0.2719 0.1386 0.5598
H92 H 0.3772 0.1666 0.6033
C44 C 0.3079(3) 0.0485(2) 0.62542(15)
H93 H 0.2369 0.0272 0.6257
H94 H 0.3495 0.0510 0.6645
C45 C 0.3548(3) -0.0200(2) 0.59219(17)
H95 H 0.3181 -0.0139 0.5525
H96 H 0.4275 0.0001 0.5954
C46 C 0.3543(3) -0.1225(2) 0.60683(17)
H97 H 0.3987 -0.1318 0.6442
H98 H 0.3804 -0.1595 0.5796
H99 H 0.2835 -0.1434 0.6062
C47 C 0.3045(2) 0.2472(2) 0.68369(13)
H100 H 0.3066 0.1897 0.7067
H101 H 0.2628 0.2943 0.6979
C48 C 0.4141(2) 0.2863(2) 0.69239(13)
H102 H 0.4574 0.2403 0.6784
H103 H 0.4136 0.3457 0.6712
C49 C 0.4590(2) 0.3053(2) 0.75407(13)
H104 H 0.4145 0.3504 0.7678
H105 H 0.4590 0.2456 0.7749
C50 C 0.5684(2) 0.3454(2) 0.76561(15)
H106 H 0.6121 0.3023 0.7506
H107 H 0.5959 0.3525 0.8060
H108 H 0.5679 0.4072 0.7478
C51 C 0.2448(2) 0.3057(2) 0.58521(13)
H109 H 0.3165 0.3241 0.5847
H110 H 0.2096 0.2844 0.5470
C52 C 0.1907(3) 0.3927(2) 0.59883(14)
H111 H 0.2304 0.4210 0.6344
H112 H 0.1209 0.3750 0.6032
C53 C 0.1818(3) 0.4641(2) 0.55205(14)
H113 H 0.2513 0.4770 0.5457
H114 H 0.1379 0.4367 0.5172
C54 C 0.1356(3) 0.5563(3) 0.56509(16)
H115 H 0.0652 0.5445 0.5694
H116 H 0.1336 0.6008 0.5345
H117 H 0.1782 0.5833 0.5998
C55 C 0.1406(2) 0.1892(2) 0.62573(13)
H118 H 0.1100 0.2362 0.6466
H119 H 0.1447 0.1285 0.6459
C56 C 0.0698(10) 0.1761(11) 0.5671(5)
H120 H 0.1088 0.1477 0.5419
H121 H 0.0439 0.2381 0.5518
C57 C -0.0220(9) 0.1106(10) 0.5712(5)
H122 H 0.0063 0.0507 0.5886
H123 H -0.0593 0.1407 0.5968
C58 C -0.0993(12) 0.0869(13) 0.5176(7)
H124 H -0.1459 0.1401 0.5067
H125 H -0.1396 0.0305 0.5229
H126 H -0.0628 0.0745 0.4883
N16 N 0.76991(18) 0.71414(18) 0.11560(10)
C59 C 0.8308(2) 0.7331(2) 0.17560(12)
H127 H 0.7944 0.7823 0.1918
H128 H 0.8289 0.6746 0.1973
C60 C 0.9425(2) 0.7643(2) 0.18376(13)
H129 H 0.9465 0.8245 0.1639
H130 H 0.9810 0.7161 0.1682
C61 C 0.9902(2) 0.7776(2) 0.24543(14)
H131 H 0.9486 0.8231 0.2609
H132 H 0.9877 0.7165 0.2645
C62 C 1.1011(3) 0.8132(2) 0.25743(15)
H133 H 1.1426 0.7688 0.2418
H134 H 1.1288 0.8184 0.2979
H135 H 1.1036 0.8753 0.2404
C63 C 0.7687(2) 0.8000(2) 0.07890(13)
H136 H 0.8411 0.8164 0.0787
H137 H 0.7328 0.7818 0.0403
C64 C 0.7186(3) 0.8875(2) 0.09424(14)
H138 H 0.7531 0.9077 0.1327
H139 H 0.6448 0.8742 0.0926
C65 C 0.7283(3) 0.9660(2) 0.05323(15)
H140 H 0.8024 0.9767 0.0542
H141 H 0.6931 0.9450 0.0150
C66 C 0.6825(3) 1.0579(3) 0.06578(18)
H142 H 0.6086 1.0484 0.0636
H143 H 0.6917 1.1055 0.0385
H144 H 0.7175 1.0796 0.1034
C67 C 0.6616(2) 0.6853(2) 0.11898(13)
H145 H 0.6663 0.6279 0.1422
H146 H 0.6338 0.7361 0.1385
C68 C 0.5853(2) 0.6656(2) 0.06406(14)
H147 H 0.6196 0.6297 0.0392
H148 H 0.5617 0.7261 0.0457
C69 C 0.4924(3) 0.6090(3) 0.07287(15)
H149 H 0.5156 0.5460 0.0876
H150 H 0.4635 0.6416 0.1011
C70 C 0.4079(3) 0.5964(3) 0.01964(16)
H151 H 0.3781 0.6579 0.0076
H152 H 0.3538 0.5538 0.0266
H153 H 0.4375 0.5694 -0.0096
C71 C 0.8194(2) 0.6367(2) 0.08851(13)
H154 H 0.7834 0.6336 0.0485
H155 H 0.8920 0.6561 0.0907
C72 C 0.8199(3) 0.5388(2) 0.11181(14)
H156 H 0.7491 0.5195 0.1139
H157 H 0.8654 0.5371 0.1499
C73 C 0.8593(3) 0.4716(2) 0.07354(14)
H158 H 0.8160 0.4778 0.0351
H159 H 0.9310 0.4906 0.0730
C74 C 0.8582(3) 0.3694(3) 0.09083(17)
H160 H 0.9045 0.3619 0.1279
H161 H 0.8817 0.3297 0.0638
H162 H 0.7877 0.3503 0.0920
O11 O 0.76630(18) 0.55491(16) 0.24809(10)
H163 H 0.727(2) 0.518(2) 0.2613(16)
H164 H 0.8250(16) 0.531(2) 0.2530(16)
O12 O 0.76902(18) 0.92945(16) 0.24447(10)
H165 H 0.7080(14) 0.947(2) 0.2355(13)
H166 H 0.807(2) 0.960(2) 0.2265(14)
C75? C 0.3564(11) 0.0763(7) 0.4300(8)
C76? C 0.3190(8) -0.0118(6) 0.3958(4)
C77? C 0.3757(7) -0.0986(6) 0.4260(4)
C78? C 0.3389(16) -0.1859(9) 0.3926(6)
C79? C 0.1410(17) 0.4002(11) 0.0916(15)
C80? C 0.2008(14) 0.4920(10) 0.1085(7)
C81? C 0.1279(10) 0.5738(8) 0.0950(7)
C82? C 0.1834(11) 0.6677(9) 0.1083(6)
C83? C 0.1406(2) 0.1892(2) 0.62573(13)
C84? C 0.0722(11) 0.1500(15) 0.5716(6)
C85? C -0.0409(10) 0.1463(13) 0.5762(7)
C86? C -0.1124(15) 0.1230(15) 0.5195(9)
H167? H 0.3458 0.0683 0.4681
H168? H 0.4313 0.0860 0.4332
H169? H 0.3332 -0.0057 0.3584
H170? H 0.2434 -0.0202 0.3910
H171? H 0.4513 -0.0903 0.4307
H172? H 0.3618 -0.1045 0.4635
H173? H 0.2639 -0.1930 0.3874
H174? H 0.3731 -0.2410 0.4123
H175? H 0.3556 -0.1809 0.3561
H176? H 0.2143 0.3027 0.1463
H177? H 0.0800 0.3961 0.1079
H178? H 0.1175 0.3949 0.0505
H179? H 0.2334 0.4915 0.1490
H180? H 0.2562 0.4987 0.0882
H181? H 0.0927 0.5715 0.0548
H182? H 0.0743 0.5677 0.1165
H183? H 0.2243 0.6677 0.1471
H184? H 0.1327 0.7183 0.1035
H185? H 0.2294 0.6780 0.0832
H186? H 0.1048 0.2432 0.6379
H187? H 0.1466 0.1398 0.6546
H188? H 0.0946 0.0857 0.5645
H189? H 0.0785 0.1908 0.5401
H190? H -0.0492 0.0976 0.6036
H191? H -0.0595 0.2081 0.5896
H192? H -0.1151 0.1774 0.4948
H193? H -0.1820 0.1083 0.5242
H194? H -0.0860 0.0682 0.5032
H195? H 0.3171 0.1851 0.3755
N17? N 0.2138(2) 0.3275(2) 0.11358(12)
N18? N 0.3008(2) 0.15824(19) 0.40438(11)
loop_
_geom_bond_atom_site_label_1
_geom_bond_atom_site_label_2
_geom_bond_site_symmetry_1
_geom_bond_site_symmetry_2
O1 C3 1_555 1_555
O2 C10 1_555 1_555
O3 C17 1_555 1_555
N1 C1 1_555 1_555
N2 H1 1_555 1_555
N3 H2 1_555 1_555
N4 H3 1_555 1_555
N5 H4 1_555 1_555
N6 H5 1_555 1_555
C1 H6 1_555 1_555
H7 C1 1_555 1_555
C2 N2 1_555 1_555
H8 C2 1_555 1_555
H9 C2 1_555 1_555
C3 N2 1_555 1_555
C4 N3 1_555 1_555
H10 C4 1_555 1_555
H11 C4 1_555 1_555
C5 C4 1_555 1_555
H12 C5 1_555 1_555
H13 C5 1_555 1_555
C6 C5 1_555 1_555
H14 C6 1_555 1_555
H15 C6 1_555 1_555
C7 C6 1_555 1_555
H16 C7 1_555 1_555
H17 C7 1_555 1_555
H18 C7 1_555 1_555
C8 N1 1_555 1_555
H19 C8 1_555 1_555
H20 C8 1_555 1_555
C9 N4 1_555 1_555
H21 C9 1_555 1_555
H22 C9 1_555 1_555
C10 N4 1_555 1_555
N7 C10 1_555 1_555
H23 N7 1_555 1_555
C11 N7 1_555 1_555
H24 C11 1_555 1_555
H25 C11 1_555 1_555
C12 C11 1_555 1_555
H26 C12 1_555 1_555
H27 C12 1_555 1_555
C13 C12 1_555 1_555
H28 C13 1_555 1_555
H29 C13 1_555 1_555
C14 C13 1_555 1_555
H30 C14 1_555 1_555
H31 C14 1_555 1_555
H32 C14 1_555 1_555
C15 N1 1_555 1_555
H33 C15 1_555 1_555
H34 C15 1_555 1_555
C16 N5 1_555 1_555
H35 C16 1_555 1_555
H36 C16 1_555 1_555
C17 N5 1_555 1_555
C18 N6 1_555 1_555
H37 C18 1_555 1_555
H38 C18 1_555 1_555
C19 C18 1_555 1_555
H39 C19 1_555 1_555
H40 C19 1_555 1_555
C20 C19 1_555 1_555
H41 C20 1_555 1_555
H42 C20 1_555 1_555
C21 C20 1_555 1_555
H43 C21 1_555 1_555
H44 C21 1_555 1_555
H45 C21 1_555 1_555
O4 C24 1_555 1_555
O5 C31 1_555 1_555
O6 C38 1_555 1_555
N8 C22 1_555 1_555
N9 H46 1_555 1_555
N10 H47 1_555 1_555
N11 H48 1_555 1_555
N12 H49 1_555 1_555
C22 H50 1_555 1_555
H51 C22 1_555 1_555
C23 N9 1_555 1_555
H52 C23 1_555 1_555
H53 C23 1_555 1_555
C24 N9 1_555 1_555
N13 C24 1_555 1_555
H54 N13 1_555 1_555
C25 N13 1_555 1_555
H55 C25 1_555 1_555
H56 C25 1_555 1_555
C26 C25 1_555 1_555
H57 C26 1_555 1_555
H58 C26 1_555 1_555
C27 C26 1_555 1_555
H59 C27 1_555 1_555
H60 C27 1_555 1_555
C28 C27 1_555 1_555
H61 C28 1_555 1_555
H62 C28 1_555 1_555
H63 C28 1_555 1_555
C29 N8 1_555 1_555
H64 C29 1_555 1_555
H65 C29 1_555 1_555
C30 N10 1_555 1_555
H66 C30 1_555 1_555
H67 C30 1_555 1_555
C31 N10 1_555 1_555
C32 N11 1_555 1_555
H68 C32 1_555 1_555
H69 C32 1_555 1_555
C33 C32 1_555 1_555
H70 C33 1_555 1_555
H71 C33 1_555 1_555
C34 C33 1_555 1_555
H72 C34 1_555 1_555
H73 C34 1_555 1_555
C35 C34 1_555 1_555
H74 C35 1_555 1_555
H75 C35 1_555 1_555
H76 C35 1_555 1_555
C36 N8 1_555 1_555
H77 C36 1_555 1_555
H78 C36 1_555 1_555
C37 N12 1_555 1_555
H79 C37 1_555 1_555
H80 C37 1_555 1_555
C38 N12 1_555 1_555
N14 C38 1_555 1_555
H81 N14 1_555 1_555
C39 N14 1_555 1_555
H82 C39 1_555 1_555
H83 C39 1_555 1_555
C40 C39 1_555 1_555
H84 C40 1_555 1_555
H85 C40 1_555 1_555
C41 C40 1_555 1_555
H86 C41 1_555 1_555
H87 C41 1_555 1_555
C42 C41 1_555 1_555
H88 C42 1_555 1_555
H89 C42 1_555 1_555
H90 C42 1_555 1_555
S1 O7 1_555 1_555
O8 S1 1_555 1_555
O9 S1 1_555 1_555
O10 S1 1_555 1_555
N15 C43 1_555 1_555
C43 H91 1_555 1_555
H92 C43 1_555 1_555
C44 C43 1_555 1_555
H93 C44 1_555 1_555
H94 C44 1_555 1_555
C45 C44 1_555 1_555
H95 C45 1_555 1_555
H96 C45 1_555 1_555
C46 C45 1_555 1_555
H97 C46 1_555 1_555
H98 C46 1_555 1_555
H99 C46 1_555 1_555
C47 N15 1_555 1_555
H100 C47 1_555 1_555
H101 C47 1_555 1_555
C48 C47 1_555 1_555
H102 C48 1_555 1_555
H103 C48 1_555 1_555
C49 C48 1_555 1_555
H104 C49 1_555 1_555
H105 C49 1_555 1_555
C50 C49 1_555 1_555
H106 C50 1_555 1_555
H107 C50 1_555 1_555
H108 C50 1_555 1_555
C51 N15 1_555 1_555
H109 C51 1_555 1_555
H110 C51 1_555 1_555
C52 C51 1_555 1_555
H111 C52 1_555 1_555
H112 C52 1_555 1_555
C53 C52 1_555 1_555
H113 C53 1_555 1_555
H114 C53 1_555 1_555
C54 C53 1_555 1_555
H115 C54 1_555 1_555
H116 C54 1_555 1_555
H117 C54 1_555 1_555
C55 N15 1_555 1_555
H118 C55 1_555 1_555
H119 C55 1_555 1_555
C56 C55 1_555 1_555
H120 C56 1_555 1_555
H121 C56 1_555 1_555
C57 C56 1_555 1_555
H122 C57 1_555 1_555
H123 C57 1_555 1_555
C58 C57 1_555 1_555
H124 C58 1_555 1_555
H125 C58 1_555 1_555
H126 C58 1_555 1_555
N16 C59 1_555 1_555
C59 H127 1_555 1_555
H128 C59 1_555 1_555
C60 C59 1_555 1_555
H129 C60 1_555 1_555
H130 C60 1_555 1_555
C61 C60 1_555 1_555
H131 C61 1_555 1_555
H132 C61 1_555 1_555
C62 C61 1_555 1_555
H133 C62 1_555 1_555
H134 C62 1_555 1_555
H135 C62 1_555 1_555
C63 N16 1_555 1_555
H136 C63 1_555 1_555
H137 C63 1_555 1_555
C64 C63 1_555 1_555
H138 C64 1_555 1_555
H139 C64 1_555 1_555
C65 C64 1_555 1_555
H140 C65 1_555 1_555
H141 C65 1_555 1_555
C66 C65 1_555 1_555
H142 C66 1_555 1_555
H143 C66 1_555 1_555
H144 C66 1_555 1_555
C67 N16 1_555 1_555
H145 C67 1_555 1_555
H146 C67 1_555 1_555
C68 C67 1_555 1_555
H147 C68 1_555 1_555
H148 C68 1_555 1_555
C69 C68 1_555 1_555
H149 C69 1_555 1_555
H150 C69 1_555 1_555
C70 C69 1_555 1_555
H151 C70 1_555 1_555
H152 C70 1_555 1_555
H153 C70 1_555 1_555
C71 N16 1_555 1_555
H154 C71 1_555 1_555
H155 C71 1_555 1_555
C72 C71 1_555 1_555
H156 C72 1_555 1_555
H157 C72 1_555 1_555
C73 C72 1_555 1_555
H158 C73 1_555 1_555
H159 C73 1_555 1_555
C74 C73 1_555 1_555
H160 C74 1_555 1_555
H161 C74 1_555 1_555
H162 C74 1_555 1_555
O11 H163 1_555 1_555
H164 O11 1_555 1_555
O12 H165 1_555 1_555
H166 O12 1_555 1_555
N3 C3 1_555 1_555
N6 C17 1_555 1_555
C1 C2 1_555 1_555
C8 C9 1_555 1_555
C15 C16 1_555 1_555
N11 C31 1_555 1_555
C22 C23 1_555 1_555
C29 C30 1_555 1_555
C36 C37 1_555 1_555

#END
