
#######################################################################
#
#                 Cambridge Crystallographic Data Centre
#                                CCDC 
#
#######################################################################
#
# If this CIF has been generated from an entry in the Cambridge 
# Structural Database, then it will include bibliographic, chemical, 
# crystal, experimental, refinement or atomic coordinate data resulting 
# from the CCDC's data processing and validation procedures.
#
#######################################################################

data_FUXYEE
_chemical_formula_moiety         'C22 H30 N2 O4 S1 Si1'
_chemical_name_systematic        
2-benzyl-5-(diethylsilyl)-1-((4-nitrophenyl)sulfonyl)piperidine
_symmetry_cell_setting           monoclinic
_symmetry_space_group_name_H-M   'C 2/c'
_symmetry_Int_Tables_number      15
_space_group_name_Hall           '-C 2yn'
loop_
_symmetry_equiv_pos_site_id
_symmetry_equiv_pos_as_xyz
1 x,y,z
2 -x,y,1/2-z
3 1/2+x,1/2+y,z
4 1/2-x,1/2+y,1/2-z
5 -x,-y,-z
6 x,-y,1/2+z
7 1/2-x,1/2-y,-z
8 1/2+x,1/2-y,1/2+z
_cell_length_a                   55.519(2)
_cell_length_b                   5.7867(2)
_cell_length_c                   14.4737(5)
_cell_angle_alpha                90
_cell_angle_beta                 102.8931(18)
_cell_angle_gamma                90
_cell_volume                     4532.76
_exptl_crystal_colour            colorless
_exptl_crystal_description       platy
_cell_formula_units_Z            8
loop_
_atom_site_label
_atom_site_type_symbol
_atom_site_fract_x
_atom_site_fract_y
_atom_site_fract_z
S1 S 0.129293(7) 0.39514(7) 0.12713(3)
Si1 Si 0.058389(8) 0.31346(9) 0.09357(3)
H1 H 0.0684 0.4527 0.0854
N1 N 0.11861(2) 0.2764(2) 0.21056(8)
N2 N 0.23492(3) 0.1642(4) 0.14681(12)
O1 O 0.11667(2) 0.2950(3) 0.03891(8)
O2 O 0.12936(2) 0.6408(2) 0.13928(10)
O3 O 0.23949(3) -0.0216(5) 0.11600(17)
O4 O 0.25057(3) 0.3068(4) 0.17913(17)
C1 C 0.11988(3) 0.3957(3) 0.30214(10)
H2 H 0.1292 0.5433 0.3012
C2 C 0.09364(3) 0.4569(3) 0.31116(12)
H3 H 0.0943 0.5200 0.3752
H4 H 0.0869 0.5784 0.2644
C3 C 0.07646(3) 0.2477(3) 0.29479(12)
H5 H 0.0596 0.2962 0.2982
H6 H 0.0822 0.1320 0.3452
C4 C 0.07580(3) 0.1380(3) 0.19759(11)
H7 H 0.0666 -0.0111 0.1964
C5 C 0.10218(3) 0.0741(3) 0.19151(11)
H8 H 0.1085 -0.0489 0.2382
H9 H 0.1021 0.0131 0.1275
C6 C 0.13373(3) 0.2510(3) 0.38623(11)
H10 H 0.1317 0.3246 0.4458
H11 H 0.1261 0.0957 0.3828
C7 C 0.16091(3) 0.2240(3) 0.38962(10)
C8 C 0.17019(3) 0.0254(3) 0.35587(11)
H12 H 0.1592 -0.0947 0.3290
C9 C 0.19536(3) 0.0007(3) 0.36103(12)
H13 H 0.2015 -0.1367 0.3385
C10 C 0.21154(3) 0.1756(3) 0.39893(12)
H14 H 0.2287 0.1589 0.4024
C11 C 0.20254(3) 0.3752(3) 0.43186(11)
H15 H 0.2136 0.4962 0.4576
C12 C 0.17748(3) 0.3986(3) 0.42740(10)
H16 H 0.1715 0.5359 0.4505
C13 C 0.02794(4) 0.4089(4) 0.11678(16)
H17 H 0.0311 0.5070 0.1743
H18 H 0.0194 0.5055 0.0630
C14 C 0.01090(4) 0.2121(6) 0.1304(2)
H19 H -0.0044 0.2757 0.1428
H20 H 0.0191 0.1167 0.1842
H21 H 0.0071 0.1172 0.0729
C15 C 0.05383(4) 0.1312(4) -0.01547(14)
H22 H 0.0703 0.0888 -0.0263
H23 H 0.0454 -0.0136 -0.0041
C16 C 0.03895(4) 0.2440(5) -0.10465(15)
H24 H 0.0392 0.1449 -0.1594
H25 H 0.0462 0.3945 -0.1136
H26 H 0.0219 0.2656 -0.0986
C17 C 0.16078(3) 0.3173(2) 0.14089(9)
C18 C 0.16666(3) 0.1081(3) 0.10384(10)
H27 H 0.1540 0.0016 0.0771
C19 C 0.19109(3) 0.0569(3) 0.10628(11)
H28 H 0.1955 -0.0845 0.0812
C20 C 0.20894(3) 0.2165(3) 0.14618(11)
C21 C 0.20356(3) 0.4225(3) 0.18480(12)
H29 H 0.2163 0.5269 0.2128
C22 C 0.17902(3) 0.4732(3) 0.18170(11)
H30 H 0.1747 0.6143 0.2074
loop_
_geom_bond_atom_site_label_1
_geom_bond_atom_site_label_2
_geom_bond_site_symmetry_1
_geom_bond_site_symmetry_2
S1 N1 1_555 1_555
Si1 H1 1_555 1_555
N1 C1 1_555 1_555
N2 O3 1_555 1_555
O1 S1 1_555 1_555
O2 S1 1_555 1_555
O4 N2 1_555 1_555
C1 H2 1_555 1_555
C2 C1 1_555 1_555
H3 C2 1_555 1_555
H4 C2 1_555 1_555
C3 C2 1_555 1_555
H5 C3 1_555 1_555
H6 C3 1_555 1_555
C4 Si1 1_555 1_555
H7 C4 1_555 1_555
C5 N1 1_555 1_555
H8 C5 1_555 1_555
H9 C5 1_555 1_555
C6 C1 1_555 1_555
H10 C6 1_555 1_555
H11 C6 1_555 1_555
C7 C6 1_555 1_555
C8 C7 1_555 1_555
H12 C8 1_555 1_555
C9 C8 1_555 1_555
H13 C9 1_555 1_555
C10 C9 1_555 1_555
H14 C10 1_555 1_555
C11 C10 1_555 1_555
H15 C11 1_555 1_555
C12 C7 1_555 1_555
H16 C12 1_555 1_555
C13 Si1 1_555 1_555
H17 C13 1_555 1_555
H18 C13 1_555 1_555
C14 C13 1_555 1_555
H19 C14 1_555 1_555
H20 C14 1_555 1_555
H21 C14 1_555 1_555
C15 Si1 1_555 1_555
H22 C15 1_555 1_555
H23 C15 1_555 1_555
C16 C15 1_555 1_555
H24 C16 1_555 1_555
H25 C16 1_555 1_555
H26 C16 1_555 1_555
C17 S1 1_555 1_555
C18 C17 1_555 1_555
H27 C18 1_555 1_555
C19 C18 1_555 1_555
H28 C19 1_555 1_555
C20 N2 1_555 1_555
C21 C20 1_555 1_555
H29 C21 1_555 1_555
C22 C17 1_555 1_555
H30 C22 1_555 1_555
C3 C4 1_555 1_555
C4 C5 1_555 1_555
C11 C12 1_555 1_555
C19 C20 1_555 1_555
C21 C22 1_555 1_555

#END
