
#######################################################################
#
#                 Cambridge Crystallographic Data Centre
#                                CCDC 
#
#######################################################################
#
# If this CIF has been generated from an entry in the Cambridge 
# Structural Database, then it will include bibliographic, chemical, 
# crystal, experimental, refinement or atomic coordinate data resulting 
# from the CCDC's data processing and validation procedures.
#
#######################################################################

data_FUXZED
_chemical_formula_moiety         'C8 H8 N2 O4 S1'
_chemical_name_systematic        
2,2'-bis(Methoxymethylene)-2,2'-sulfonyldiacetonitrile
_symmetry_cell_setting           monoclinic
_symmetry_space_group_name_H-M   'C 2/c'
_symmetry_Int_Tables_number      15
_space_group_name_Hall           '-C 2yn'
loop_
_symmetry_equiv_pos_site_id
_symmetry_equiv_pos_as_xyz
1 x,y,z
2 1/2+x,1/2+y,z
3 -x,y,1/2-z
4 1/2-x,1/2+y,1/2-z
5 -x,-y,-z
6 1/2-x,1/2-y,-z
7 x,-y,1/2+z
8 1/2+x,1/2-y,1/2+z
_cell_length_a                   18.031(5)
_cell_length_b                   9.372(3)
_cell_length_c                   13.455(6)
_cell_angle_alpha                90
_cell_angle_beta                 108.08(5)
_cell_angle_gamma                90
_cell_volume                     2161.45
_exptl_crystal_colour            colorless
_chemical_melting_point          478-481K
_cell_formula_units_Z            8
loop_
_atom_site_label
_atom_site_type_symbol
_atom_site_fract_x
_atom_site_fract_y
_atom_site_fract_z
S1 S 0.29586(1) 0.8163(1) 0.2250(1)
O1 O 0.2305(1) 0.8110(3) 0.1327(2)
O2 O 0.2843(2) 0.8256(3) 0.3247(2)
O3 O 0.4233(1) 1.1601(3) 0.2859(2)
O4 O 0.3698(1) 0.4642(2) 0.1345(2)
N1 N 0.3823(3) 0.9837(4) 0.0419(2)
N2 N 0.4763(2) 0.6386(4) 0.3796(2)
C1 C 0.3536(2) 0.9602(4) 0.2149(2)
C2 C 0.3821(2) 1.0514(4) 0.2947(2)
C3 C 0.3527(2) 0.6672(4) 0.2225(2)
C4 C 0.3308(2) 0.5794(4) 0.1399(2)
C5 C 0.3701(2) 0.9741(4) 0.1192(2)
C6 C 0.4530(2) 1.2503(5) 0.3776(3)
C7 C 0.4210(2) 0.6483(4) 0.3090(3)
C8 C 0.3406(2) 0.3811(5) 0.0403(3)
H1 H 0.372(2) 1.041(3) 0.353(2)
H2 H 0.286(1) 0.598(3) 0.092(2)
H3 H 0.4863(2) 1.337(1) 0.3599(3)
H4 H 0.4900(2) 1.188(1) 0.4413(3)
H5 H 0.4048(2) 1.293(1) 0.3998(3)
H6 H 0.3774(2) 0.289(1) 0.0448(3)
H7 H 0.3408(2) 0.446(1) -0.0262(3)
H8 H 0.2818(2) 0.347(1) 0.0318(3)
loop_
_geom_bond_atom_site_label_1
_geom_bond_atom_site_label_2
_geom_bond_site_symmetry_1
_geom_bond_site_symmetry_2
S1 O1 1_555 1_555
O2 S1 1_555 1_555
O3 C2 1_555 1_555
O4 C4 1_555 1_555
N1 C5 1_555 1_555
N2 C7 1_555 1_555
C1 S1 1_555 1_555
C2 C1 1_555 1_555
C3 S1 1_555 1_555
C4 C3 1_555 1_555
C5 C1 1_555 1_555
C6 O3 1_555 1_555
C7 C3 1_555 1_555
C8 O4 1_555 1_555
H1 C2 1_555 1_555
H2 C4 1_555 1_555
H3 C6 1_555 1_555
H4 C6 1_555 1_555
H5 C6 1_555 1_555
H6 C8 1_555 1_555
H7 C8 1_555 1_555
H8 C8 1_555 1_555

#END
