
#######################################################################
#
#                 Cambridge Crystallographic Data Centre
#                                CCDC 
#
#######################################################################
#
# If this CIF has been generated from an entry in the Cambridge 
# Structural Database, then it will include bibliographic, chemical, 
# crystal, experimental, refinement or atomic coordinate data resulting 
# from the CCDC's data processing and validation procedures.
#
#######################################################################

data_FUYHOW
_chemical_formula_moiety         'C17 H17 N1 O2'
_chemical_name_systematic        6-(3-Methoxybenzyl)-5-methyl-o-anisonitrile
_symmetry_cell_setting           monoclinic
_symmetry_space_group_name_H-M   'P 21/c'
_symmetry_Int_Tables_number      14
_space_group_name_Hall           '-P 2ybc'
loop_
_symmetry_equiv_pos_site_id
_symmetry_equiv_pos_as_xyz
1 x,y,z
2 -x,1/2+y,1/2-z
3 -x,-y,-z
4 x,1/2-y,1/2+z
_cell_length_a                   7.038(2)
_cell_length_b                   26.372(6)
_cell_length_c                   7.779(2)
_cell_angle_alpha                90
_cell_angle_beta                 100.93(2)
_cell_angle_gamma                90
_cell_volume                     1417.64
_exptl_crystal_colour            colorless
_cell_formula_units_Z            4
loop_
_atom_site_label
_atom_site_type_symbol
_atom_site_fract_x
_atom_site_fract_y
_atom_site_fract_z
C1 C 0.6643(4) 0.41298(10) 1.2153(3)
C2 C 0.4818(4) 0.43568(10) 1.1723(3)
C3 C 0.3839(4) 0.44081(11) 0.9994(3)
C4 C 0.4694(5) 0.42240(12) 0.8671(4)
C5 C 0.6475(5) 0.39953(12) 0.9092(4)
C6 C 0.7478(4) 0.39451(11) 1.0796(4)
C7 C 0.7644(4) 0.40818(11) 1.4038(4)
C8 C 0.7455(4) 0.35610(11) 1.4771(3)
C9 C 0.5657(4) 0.33390(12) 1.4639(4)
C10 C 0.5455(4) 0.28644(13) 1.5288(4)
C11 C 0.7041(5) 0.26019(14) 1.6150(4)
C12 C 0.8839(6) 0.28254(14) 1.6292(5)
C13 C 0.9064(5) 0.32924(12) 1.5614(4)
O1 O 0.2119(3) 0.46458(8) 0.9782(2)
O2 O 0.3600(3) 0.26800(10) 1.4997(4)
C14 C 0.9435(5) 0.36909(14) 1.1142(5)
C15 C 0.3839(4) 0.45278(12) 1.3088(4)
C16 C 0.0956(5) 0.46653(14) 0.8052(4)
N1 N 0.3019(4) 0.46469(12) 1.4145(3)
C17 C 0.3336(7) 0.21588(17) 1.5197(7)
H1 H 0.398(1) 0.426(1) 0.732(1)
H2 H 0.712(1) 0.385(1) 0.804(1)
H3 H 0.916(1) 0.416(1) 1.413(1)
H4 H 0.701(1) 0.435(1) 1.481(1)
H5 H 0.438(1) 0.354(1) 1.401(1)
H6 H 0.688(1) 0.223(1) 1.670(1)
H7 H 1.010(1) 0.262(1) 1.696(1)
H8 H 1.049(1) 0.345(1) 1.573(1)
H9 H 1.000(1) 0.368(1) 1.253(1)
H10 H 1.042(1) 0.390(1) 1.049(1)
H11 H 0.929(1) 0.331(1) 1.065(1)
H12 H -0.037(1) 0.487(1) 0.809(1)
H13 H 0.062(1) 0.429(1) 0.758(1)
H14 H 0.174(1) 0.486(1) 0.718(1)
H15 H 0.181(1) 0.207(1) 1.493(1)
H16 H 0.395(1) 0.205(1) 1.652(1)
H17 H 0.405(1) 0.196(1) 1.430(1)
loop_
_geom_bond_atom_site_label_1
_geom_bond_atom_site_label_2
_geom_bond_site_symmetry_1
_geom_bond_site_symmetry_2
C1 C2 1_555 1_555
C2 C3 1_555 1_555
C3 C4 1_555 1_555
C4 C5 1_555 1_555
C5 C6 1_555 1_555
C6 C1 1_555 1_555
C7 C1 1_555 1_555
C8 C7 1_555 1_555
C9 C8 1_555 1_555
C10 C9 1_555 1_555
C11 C10 1_555 1_555
C12 C11 1_555 1_555
C13 C8 1_555 1_555
O1 C3 1_555 1_555
O2 C10 1_555 1_555
C14 C6 1_555 1_555
C15 C2 1_555 1_555
C16 O1 1_555 1_555
N1 C15 1_555 1_555
C17 O2 1_555 1_555
H1 C4 1_555 1_555
H2 C5 1_555 1_555
H3 C7 1_555 1_555
H4 C7 1_555 1_555
H5 C9 1_555 1_555
H6 C11 1_555 1_555
H7 C12 1_555 1_555
H8 C13 1_555 1_555
H9 C14 1_555 1_555
H10 C14 1_555 1_555
H11 C14 1_555 1_555
H12 C16 1_555 1_555
H13 C16 1_555 1_555
H14 C16 1_555 1_555
H15 C17 1_555 1_555
H16 C17 1_555 1_555
H17 C17 1_555 1_555
C12 C13 1_555 1_555

#END
