
#######################################################################
#
#                 Cambridge Crystallographic Data Centre
#                                CCDC 
#
#######################################################################
#
# If this CIF has been generated from an entry in the Cambridge 
# Structural Database, then it will include bibliographic, chemical, 
# crystal, experimental, refinement or atomic coordinate data resulting 
# from the CCDC's data processing and validation procedures.
#
#######################################################################

data_FUYNIX
_chemical_formula_moiety         'C24 H25 N1 O3'
_chemical_name_systematic        
'Ethyl 5-oxo-4-phenyl-1,2,3,3a,4,5,5a,6,10b,10c-decahydronaphtho[3,2,1-cd]indole-9-carboxylate'
_symmetry_cell_setting           triclinic
_symmetry_space_group_name_H-M   'P -1'
_symmetry_Int_Tables_number      2
_space_group_name_Hall           '-P 1'
loop_
_symmetry_equiv_pos_site_id
_symmetry_equiv_pos_as_xyz
1 x,y,z
2 -x,-y,-z
_cell_length_a                   6.6640(6)
_cell_length_b                   11.8366(11)
_cell_length_c                   13.6581(12)
_cell_angle_alpha                108.3450(10)
_cell_angle_beta                 102.7280(10)
_cell_angle_gamma                100.2130(10)
_cell_volume                     961.412
_cell_formula_units_Z            2
loop_
_atom_site_label
_atom_site_type_symbol
_atom_site_fract_x
_atom_site_fract_y
_atom_site_fract_z
C1 C 0.9515(3) 0.39477(19) 1.11832(17)
H1 H 0.8336 0.4328 1.1069
C2 C 0.9696(3) 0.31472(18) 1.00993(16)
H2 H 0.9423 0.3579 0.9598
C3 C 1.2036(3) 0.31778(19) 1.03646(17)
H3 H 1.2258 0.2601 1.0733
C4 C 0.8272(3) 0.18330(19) 0.95455(17)
H4 H 0.6853 0.1876 0.9193
C5 C 0.9117(3) 0.1102(2) 0.86654(17)
C6 C 1.3109(3) 0.4472(2) 1.11690(18)
C7 C 1.1941(4) 0.6055(2) 1.24587(17)
C8 C 1.1155(3) 0.1524(2) 0.85744(18)
C9 C 0.7810(4) -0.0033(2) 0.79282(19)
H5 H 0.6457 -0.0310 0.7981
C10 C 0.8018(4) 0.1204(2) 1.0355(2)
H6 H 0.6902 0.0435 0.9992
H7 H 0.9339 0.1012 1.0620
C11 C 0.9238(4) 0.3224(2) 1.19137(19)
H8 H 1.0563 0.3029 1.2169
H9 H 0.8900 0.3725 1.2537
C12 C 1.2662(3) 0.2756(2) 0.93370(19)
H10 H 1.4112 0.2680 0.9503
H11 H 1.2604 0.3361 0.8997
C13 C 1.0281(4) 0.6325(2) 1.2871(2)
H12 H 0.8964 0.5743 1.2604
C14 C 0.8474(4) -0.0767(2) 0.71128(19)
C15 C 1.1784(4) 0.0778(2) 0.7749(2)
H13 H 1.3130 0.1051 0.7685
C16 C 1.3906(4) 0.6942(2) 1.2875(2)
H14 H 1.5044 0.6781 1.2615
C17 C 1.0566(5) 0.7451(3) 1.3675(2)
H15 H 0.9442 0.7619 1.3945
C18 C 0.7456(4) 0.2034(2) 1.1305(2)
H16 H 0.6134 0.2226 1.1042
H17 H 0.7249 0.1604 1.1788
C19 C 1.2502(5) 0.8322(3) 1.4076(2)
H18 H 1.2694 0.9081 1.4613
C20 C 0.7116(5) -0.1998(3) 0.6341(2)
C21 C 1.4151(5) 0.8056(3) 1.3673(2)
H19 H 1.5464 0.8643 1.3947
C22 C 0.3614(7) -0.3457(3) 0.5762(3)
H20 H 0.2167 -0.3418 0.5751
H21 H 0.3721 -0.3684 0.5032
C23 C 0.4233(7) -0.4278(4) 0.6239(3)
H22 H 0.5627 -0.4342 0.6192
H23 H 0.3230 -0.5076 0.5870
H24 H 0.4267 -0.3978 0.6984
N1 N 1.1598(3) 0.49023(16) 1.16187(15)
O1 O 1.4976(3) 0.50138(17) 1.13893(15)
O2 O 0.5219(4) -0.2252(2) 0.6506(2)
O3 O 0.7632(4) -0.2673(2) 0.56438(17)
C24 C 1.0484(4) -0.0345(2) 0.7026(2)
H25 H 1.0945 -0.0821 0.6480
loop_
_geom_bond_atom_site_label_1
_geom_bond_atom_site_label_2
_geom_bond_site_symmetry_1
_geom_bond_site_symmetry_2
C1 H1 1_555 1_555
C2 C1 1_555 1_555
H2 C2 1_555 1_555
C3 C2 1_555 1_555
H3 C3 1_555 1_555
C4 C2 1_555 1_555
H4 C4 1_555 1_555
C5 C4 1_555 1_555
C6 C3 1_555 1_555
C7 C13 1_555 1_555
C8 C5 1_555 1_555
C9 C5 1_555 1_555
H5 C9 1_555 1_555
C10 C4 1_555 1_555
H6 C10 1_555 1_555
H7 C10 1_555 1_555
C11 C1 1_555 1_555
H8 C11 1_555 1_555
H9 C11 1_555 1_555
C12 C3 1_555 1_555
H10 C12 1_555 1_555
H11 C12 1_555 1_555
C13 H12 1_555 1_555
C14 C9 1_555 1_555
C15 C8 1_555 1_555
H13 C15 1_555 1_555
C16 C7 1_555 1_555
H14 C16 1_555 1_555
C17 C13 1_555 1_555
H15 C17 1_555 1_555
C18 C10 1_555 1_555
H16 C18 1_555 1_555
H17 C18 1_555 1_555
C19 C17 1_555 1_555
H18 C19 1_555 1_555
C20 C14 1_555 1_555
C21 C16 1_555 1_555
H19 C21 1_555 1_555
C22 H20 1_555 1_555
H21 C22 1_555 1_555
C23 C22 1_555 1_555
H22 C23 1_555 1_555
H23 C23 1_555 1_555
H24 C23 1_555 1_555
N1 C1 1_555 1_555
O1 C6 1_555 1_555
O2 C20 1_555 1_555
O3 C20 1_555 1_555
C24 C14 1_555 1_555
H25 C24 1_555 1_555
C6 N1 1_555 1_555
C7 N1 1_555 1_555
C8 C12 1_555 1_555
C11 C18 1_555 1_555
C15 C24 1_555 1_555
C19 C21 1_555 1_555
C22 O2 1_555 1_555

#END
