
#######################################################################
#
#                 Cambridge Crystallographic Data Centre
#                                CCDC 
#
#######################################################################
#
# If this CIF has been generated from an entry in the Cambridge 
# Structural Database, then it will include bibliographic, chemical, 
# crystal, experimental, refinement or atomic coordinate data resulting 
# from the CCDC's data processing and validation procedures.
#
#######################################################################

data_FUYNUJ
_chemical_formula_moiety         'C25 H23 N1 O1'
_chemical_name_systematic        
4-Phenyl-2,3,3a,4,5a,6,12b,12c-octahydrophenanthro[3,2,1-cd]indol-5(1H)-one
_symmetry_cell_setting           monoclinic
_symmetry_space_group_name_H-M   'C 2/c'
_symmetry_Int_Tables_number      15
_space_group_name_Hall           '-C 2yn'
loop_
_symmetry_equiv_pos_site_id
_symmetry_equiv_pos_as_xyz
1 x,y,z
2 -x,y,1/2-z
3 1/2+x,1/2+y,z
4 1/2-x,1/2+y,1/2-z
5 -x,-y,-z
6 x,-y,1/2+z
7 1/2-x,1/2-y,-z
8 1/2+x,1/2-y,1/2+z
_cell_length_a                   26.655(2)
_cell_length_b                   15.9017(14)
_cell_length_c                   10.2336(9)
_cell_angle_alpha                90
_cell_angle_beta                 99.0370(10)
_cell_angle_gamma                90
_cell_volume                     4283.77
_cell_formula_units_Z            8
loop_
_atom_site_label
_atom_site_type_symbol
_atom_site_fract_x
_atom_site_fract_y
_atom_site_fract_z
C1 C 0.13863(16) -0.2077(3) 0.3782(4)
C2 C 0.13940(14) -0.1212(3) 0.4168(3)
C3 C 0.09543(16) -0.0831(3) 0.4374(4)
C4 C 0.18841(14) 0.0139(3) 0.4866(4)
H1 H 0.2173 0.0182 0.5584
C5 C 0.09244(15) 0.0089(3) 0.4706(4)
H2 H 0.0672 0.0148 0.5301
C6 C 0.18934(15) -0.0752(3) 0.4359(4)
H3 H 0.2018 -0.0741 0.3518
H4 H 0.2135 -0.1072 0.4973
C7 C 0.19686(15) 0.0813(3) 0.3883(4)
C8 C 0.14567(16) 0.1404(3) 0.5351(4)
H5 H 0.1653 0.1633 0.6163
C9 C 0.18198(19) -0.2515(3) 0.3506(4)
H6 H 0.2130 -0.2238 0.3580
C10 C 0.17951(15) 0.2350(3) 0.3702(4)
C11 C 0.14331(16) 0.0430(3) 0.5444(4)
H7 H 0.1472 0.0262 0.6375
C12 C 0.18701(17) 0.3031(3) 0.4534(4)
H8 H 0.1889 0.2955 0.5441
C13 C 0.17719(18) 0.2455(3) 0.2370(4)
H9 H 0.1719 0.1994 0.1804
C14 C 0.19171(17) 0.3822(3) 0.4036(5)
H10 H 0.1958 0.4280 0.4607
C15 C 0.07392(16) 0.0616(3) 0.3465(4)
H11 H 0.0428 0.0374 0.2999
H12 H 0.0992 0.0596 0.2880
C16 C 0.09195(19) -0.2536(3) 0.3659(5)
C17 C 0.04998(18) -0.1300(3) 0.4232(5)
H13 H 0.0202 -0.1033 0.4367
C18 C 0.1787(2) -0.3346(3) 0.3129(5)
H14 H 0.2077 -0.3625 0.2958
C19 C 0.06417(19) 0.1540(3) 0.3803(5)
H15 H 0.0733 0.1898 0.3111
H16 H 0.0282 0.1615 0.3822
C20 C 0.04833(19) -0.2112(3) 0.3909(6)
H17 H 0.0177 -0.2402 0.3847
C21 C 0.19048(19) 0.3944(3) 0.2716(5)
H18 H 0.1947 0.4480 0.2389
C22 C 0.0933(2) 0.1810(3) 0.5101(5)
H19 H 0.0746 0.1655 0.5805
H20 H 0.0970 0.2417 0.5109
C23 C 0.1829(2) 0.3265(3) 0.1861(5)
H21 H 0.1815 0.3344 0.0956
C24 C 0.0917(2) -0.3386(3) 0.3252(6)
H22 H 0.0613 -0.3683 0.3158
C25 C 0.1327(3) -0.3775(4) 0.2999(6)
H23 H 0.1310 -0.4335 0.2734
N1 N 0.17323(13) 0.1537(2) 0.4233(3)
O1 O 0.22051(11) 0.07396(18) 0.2975(3)
loop_
_geom_bond_atom_site_label_1
_geom_bond_atom_site_label_2
_geom_bond_site_symmetry_1
_geom_bond_site_symmetry_2
C1 C2 1_555 1_555
C2 C3 1_555 1_555
C3 C5 1_555 1_555
C4 H1 1_555 1_555
C5 H2 1_555 1_555
C6 C2 1_555 1_555
H3 C6 1_555 1_555
H4 C6 1_555 1_555
C7 C4 1_555 1_555
C8 H5 1_555 1_555
C9 C1 1_555 1_555
H6 C9 1_555 1_555
C10 C12 1_555 1_555
C11 C4 1_555 1_555
H7 C11 1_555 1_555
C12 H8 1_555 1_555
C13 C10 1_555 1_555
H9 C13 1_555 1_555
C14 C12 1_555 1_555
H10 C14 1_555 1_555
C15 C5 1_555 1_555
H11 C15 1_555 1_555
H12 C15 1_555 1_555
C16 C1 1_555 1_555
C17 C3 1_555 1_555
H13 C17 1_555 1_555
C18 C9 1_555 1_555
H14 C18 1_555 1_555
C19 C15 1_555 1_555
H15 C19 1_555 1_555
H16 C19 1_555 1_555
C20 C16 1_555 1_555
H17 C20 1_555 1_555
C21 C14 1_555 1_555
H18 C21 1_555 1_555
C22 C8 1_555 1_555
H19 C22 1_555 1_555
H20 C22 1_555 1_555
C23 C13 1_555 1_555
H21 C23 1_555 1_555
C24 C16 1_555 1_555
H22 C24 1_555 1_555
C25 C18 1_555 1_555
H23 C25 1_555 1_555
N1 C7 1_555 1_555
O1 C7 1_555 1_555
C4 C6 1_555 1_555
C5 C11 1_555 1_555
C8 C11 1_555 1_555
C8 N1 1_555 1_555
C10 N1 1_555 1_555
C17 C20 1_555 1_555
C19 C22 1_555 1_555
C21 C23 1_555 1_555
C24 C25 1_555 1_555

#END
