
#######################################################################
#
#                 Cambridge Crystallographic Data Centre
#                                CCDC 
#
#######################################################################
#
# If this CIF has been generated from an entry in the Cambridge 
# Structural Database, then it will include bibliographic, chemical, 
# crystal, experimental, refinement or atomic coordinate data resulting 
# from the CCDC's data processing and validation procedures.
#
#######################################################################

data_FUYPAR
_chemical_formula_moiety         'C22 H21 N1 O2'
_chemical_name_systematic        
5-Oxo-4-phenyl-1,2,3,3a,4,5,5a,6,10b,10c-decahydronaphtho[3,2,1-cd]indole-9-carbaldehyde
_symmetry_cell_setting           monoclinic
_symmetry_space_group_name_H-M   'P 21/c'
_symmetry_Int_Tables_number      14
_space_group_name_Hall           '-P 2ybc'
loop_
_symmetry_equiv_pos_site_id
_symmetry_equiv_pos_as_xyz
1 x,y,z
2 -x,1/2+y,1/2-z
3 -x,-y,-z
4 x,1/2-y,1/2+z
_cell_length_a                   10.9297(10)
_cell_length_b                   16.1350(14)
_cell_length_c                   9.9891(9)
_cell_angle_alpha                90
_cell_angle_beta                 103.9420(10)
_cell_angle_gamma                90
_cell_volume                     1709.69
_cell_formula_units_Z            4
loop_
_atom_site_label
_atom_site_type_symbol
_atom_site_fract_x
_atom_site_fract_y
_atom_site_fract_z
C1 C -0.0775(2) 0.16408(16) 1.3706(2)
H1 H -0.1436 0.1632 1.4144
C2 C 0.0269(3) 0.11669(14) 1.41894(19)
H2 H 0.0319 0.0839 1.4966
C3 C 0.1266(2) 0.11640(11) 1.35415(16)
H3 H 0.1975 0.0839 1.3884
C4 C 0.11871(16) 0.16508(9) 1.23837(14)
C5 C 0.01292(15) 0.21361(11) 1.19157(16)
H4 H 0.0073 0.2472 1.1147
C6 C -0.08447(18) 0.21292(13) 1.25722(19)
H5 H -0.1552 0.2458 1.2242
C7 C 0.17668(13) 0.15872(8) 1.00943(13)
H6 H 0.1223 0.2057 0.9719
C8 C 0.10961(14) 0.07765(10) 0.96117(15)
H7 H 0.1502 0.0329 1.0203
H8 H 0.0228 0.0811 0.9685
C9 C 0.11212(15) 0.05890(12) 0.81284(16)
H9 H 0.0685 0.1024 0.7530
H10 H 0.0686 0.0071 0.7844
C10 C 0.24736(14) 0.05273(10) 0.79872(16)
H11 H 0.2472 0.0379 0.7046
H12 H 0.2908 0.0093 0.8589
C11 C 0.31779(13) 0.13462(9) 0.83598(14)
H13 H 0.2798 0.1753 0.7653
C12 C 0.30408(13) 0.16769(8) 0.97432(14)
H14 H 0.3250 0.2268 0.9780
C13 C 0.39431(13) 0.12584(9) 1.09458(14)
H15 H 0.3873 0.0659 1.0791
C14 C 0.33830(15) 0.14563(9) 1.21465(15)
C15 C 0.52837(15) 0.15072(11) 1.09724(18)
H16 H 0.5406 0.2090 1.1208
H17 H 0.5867 0.1188 1.1667
C16 C 0.55414(14) 0.13530(9) 0.95717(17)
C17 C 0.67943(16) 0.12793(11) 0.9466(2)
H18 H 0.7443 0.1340 1.0255
C18 C 0.70879(17) 0.11210(12) 0.8230(2)
H19 H 0.7927 0.1071 0.8193
C19 C 0.61393(16) 0.10361(11) 0.7042(2)
C20 C 0.48951(15) 0.11229(10) 0.71259(17)
H20 H 0.4256 0.1077 0.6324
C21 C 0.45715(14) 0.12768(9) 0.83674(16)
C22 C 0.64230(19) 0.08579(15) 0.5712(2)
H21 H 0.5747 0.0819 0.4944
N1 N 0.21330(11) 0.16335(7) 1.16223(11)
O1 O 0.39154(12) 0.14423(9) 1.33685(11)
O2 O 0.74664(15) 0.07584(13) 0.55366(18)
loop_
_geom_bond_atom_site_label_1
_geom_bond_atom_site_label_2
_geom_bond_site_symmetry_1
_geom_bond_site_symmetry_2
C1 H1 1_555 1_555
C2 C1 1_555 1_555
H2 C2 1_555 1_555
C3 C2 1_555 1_555
H3 C3 1_555 1_555
C4 C3 1_555 1_555
C5 C4 1_555 1_555
H4 C5 1_555 1_555
C6 C1 1_555 1_555
H5 C6 1_555 1_555
C7 H6 1_555 1_555
C8 C7 1_555 1_555
H7 C8 1_555 1_555
H8 C8 1_555 1_555
C9 C8 1_555 1_555
H9 C9 1_555 1_555
H10 C9 1_555 1_555
C10 C9 1_555 1_555
H11 C10 1_555 1_555
H12 C10 1_555 1_555
C11 C10 1_555 1_555
H13 C11 1_555 1_555
C12 C7 1_555 1_555
H14 C12 1_555 1_555
C13 C12 1_555 1_555
H15 C13 1_555 1_555
C14 C13 1_555 1_555
C15 C13 1_555 1_555
H16 C15 1_555 1_555
H17 C15 1_555 1_555
C16 C15 1_555 1_555
C17 C16 1_555 1_555
H18 C17 1_555 1_555
C18 C17 1_555 1_555
H19 C18 1_555 1_555
C19 C18 1_555 1_555
C20 C19 1_555 1_555
H20 C20 1_555 1_555
C21 C11 1_555 1_555
C22 C19 1_555 1_555
H21 C22 1_555 1_555
N1 C4 1_555 1_555
O1 C14 1_555 1_555
O2 C22 1_555 1_555
C5 C6 1_555 1_555
C7 N1 1_555 1_555
C11 C12 1_555 1_555
C14 N1 1_555 1_555
C16 C21 1_555 1_555
C20 C21 1_555 1_555

#END
