
#######################################################################
#
#                 Cambridge Crystallographic Data Centre
#                                CCDC 
#
#######################################################################
#
# If this CIF has been generated from an entry in the Cambridge 
# Structural Database, then it will include bibliographic, chemical, 
# crystal, experimental, refinement or atomic coordinate data resulting 
# from the CCDC's data processing and validation procedures.
#
#######################################################################

data_FUYPEV
_chemical_formula_moiety         'C25 H23 N1 O1'
_chemical_name_systematic        
3-Benzyl-1,2,2a,3,4a,5,11b,11c-octahydro-4H-cyclopenta[cd]naphtho[2,1-f]isoindol-4-one
_symmetry_cell_setting           monoclinic
_symmetry_space_group_name_H-M   'P 21/n'
_symmetry_Int_Tables_number      14
_space_group_name_Hall           '-P 2yn'
loop_
_symmetry_equiv_pos_site_id
_symmetry_equiv_pos_as_xyz
1 x,y,z
2 1/2-x,1/2+y,1/2-z
3 -x,-y,-z
4 1/2+x,1/2-y,1/2+z
_cell_length_a                   11.564(2)
_cell_length_b                   9.6180(19)
_cell_length_c                   16.392(3)
_cell_angle_alpha                90
_cell_angle_beta                 98.61(3)
_cell_angle_gamma                90
_cell_volume                     1802.61
_cell_formula_units_Z            4
loop_
_atom_site_label
_atom_site_type_symbol
_atom_site_fract_x
_atom_site_fract_y
_atom_site_fract_z
O1 O 0.3931(2) 0.1772(3) 0.84741(17)
N1 N 0.2349(3) 0.1059(3) 0.90392(19)
C1 C 0.2949(4) 0.1982(5) 0.4331(3)
H1 H 0.3108 0.2375 0.3841
C2 C 0.3840(4) 0.1381(5) 0.4882(3)
H2 H 0.4590 0.1333 0.4744
C3 C 0.3634(4) 0.0863(4) 0.5618(3)
H3 H 0.4249 0.0488 0.5982
C4 C 0.2502(3) 0.0887(4) 0.5838(2)
C5 C 0.1604(3) 0.1486(4) 0.5269(2)
C6 C 0.1851(4) 0.1988(4) 0.4516(2)
H4 H 0.1245 0.2334 0.4133
C7 C 0.2238(3) 0.0356(4) 0.6604(2)
C8 C 0.1113(3) 0.0419(4) 0.6773(2)
C9 C 0.0239(3) 0.1028(4) 0.6198(2)
H5 H -0.0519 0.1082 0.6320
C10 C 0.0469(4) 0.1536(5) 0.5475(2)
H6 H -0.0133 0.1926 0.5106
C11 C 0.3184(3) -0.0328(4) 0.7188(2)
H7 H 0.3905 0.0187 0.7185
H8 H 0.3306 -0.1258 0.6988
C12 C 0.2944(3) -0.0431(4) 0.8068(2)
H9 H 0.3477 -0.1125 0.8356
C13 C 0.1713(3) -0.0806(4) 0.8189(2)
H10 H 0.1629 -0.1817 0.8227
C14 C 0.0736(3) -0.0199(4) 0.7535(2)
H11 H 0.0205 -0.0969 0.7350
C15 C 0.3150(3) 0.0930(4) 0.8523(2)
C16 C 0.1538(4) -0.0113(4) 0.9003(2)
H12 H 0.1732 -0.0742 0.9474
C17 C 0.0269(3) 0.0317(5) 0.8883(3)
H13 H -0.0233 -0.0462 0.8967
H14 H 0.0138 0.1061 0.9259
C18 C 0.0057(3) 0.0803(5) 0.8004(2)
H15 H 0.0337 0.1747 0.7961
H16 H -0.0771 0.0775 0.7787
C19 C 0.2354(3) 0.2178(4) 0.9618(2)
H17 H 0.1598 0.2634 0.9522
H18 H 0.2936 0.2853 0.9511
C20 C 0.2603(3) 0.1765(4) 1.0506(2)
C21 C 0.3381(4) 0.0700(5) 1.0763(3)
H19 H 0.3738 0.0224 1.0375
C22 C 0.3631(4) 0.0339(5) 1.1574(3)
H20 H 0.4173 -0.0361 1.1734
C23 C 0.3092(4) 0.0994(6) 1.2152(3)
H21 H 0.3250 0.0734 1.2704
C24 C 0.2323(4) 0.2032(6) 1.1909(3)
H22 H 0.1949 0.2479 1.2300
C25 C 0.2084(4) 0.2438(5) 1.1096(3)
H23 H 0.1571 0.3170 1.0945
loop_
_geom_bond_atom_site_label_1
_geom_bond_atom_site_label_2
_geom_bond_site_symmetry_1
_geom_bond_site_symmetry_2
O1 C15 1_555 1_555
N1 C15 1_555 1_555
C1 H1 1_555 1_555
C2 C1 1_555 1_555
H2 C2 1_555 1_555
C3 C2 1_555 1_555
H3 C3 1_555 1_555
C4 C3 1_555 1_555
C5 C4 1_555 1_555
C6 C1 1_555 1_555
H4 C6 1_555 1_555
C7 C4 1_555 1_555
C8 C7 1_555 1_555
C9 C8 1_555 1_555
H5 C9 1_555 1_555
C10 C5 1_555 1_555
H6 C10 1_555 1_555
C11 C7 1_555 1_555
H7 C11 1_555 1_555
H8 C11 1_555 1_555
C12 C11 1_555 1_555
H9 C12 1_555 1_555
C13 C12 1_555 1_555
H10 C13 1_555 1_555
C14 C8 1_555 1_555
H11 C14 1_555 1_555
C15 C12 1_555 1_555
C16 N1 1_555 1_555
H12 C16 1_555 1_555
C17 C16 1_555 1_555
H13 C17 1_555 1_555
H14 C17 1_555 1_555
C18 C14 1_555 1_555
H15 C18 1_555 1_555
H16 C18 1_555 1_555
C19 N1 1_555 1_555
H17 C19 1_555 1_555
H18 C19 1_555 1_555
C20 C19 1_555 1_555
C21 C20 1_555 1_555
H19 C21 1_555 1_555
C22 C21 1_555 1_555
H20 C22 1_555 1_555
C23 C22 1_555 1_555
H21 C23 1_555 1_555
C24 C23 1_555 1_555
H22 C24 1_555 1_555
C25 C20 1_555 1_555
H23 C25 1_555 1_555
C5 C6 1_555 1_555
C9 C10 1_555 1_555
C13 C14 1_555 1_555
C13 C16 1_555 1_555
C17 C18 1_555 1_555
C24 C25 1_555 1_555

#END
