
#######################################################################
#
#                 Cambridge Crystallographic Data Centre
#                                CCDC 
#
#######################################################################
#
# If this CIF has been generated from an entry in the Cambridge 
# Structural Database, then it will include bibliographic, chemical, 
# crystal, experimental, refinement or atomic coordinate data resulting 
# from the CCDC's data processing and validation procedures.
#
#######################################################################

data_FUYPOF
_chemical_formula_moiety         'C21 H18 O4'
_chemical_name_systematic        
5-Methoxy-4a,5,8,8a-tetrahydro-4H-spiro[naphthalene-1,2'-naphtho[1,8-de][1,3]dioxin]-4-one
_symmetry_cell_setting           orthorhombic
_symmetry_space_group_name_H-M   'P n a 21'
_symmetry_Int_Tables_number      33
_space_group_name_Hall           'P 2c -2n'
loop_
_symmetry_equiv_pos_site_id
_symmetry_equiv_pos_as_xyz
1 x,y,z
2 -x,-y,1/2+z
3 1/2+x,1/2-y,z
4 1/2-x,1/2+y,1/2+z
_cell_length_a                   13.5156(9)
_cell_length_b                   12.5095(8)
_cell_length_c                   9.6532(6)
_cell_angle_alpha                90
_cell_angle_beta                 90
_cell_angle_gamma                90
_cell_volume                     1632.1
_exptl_crystal_colour            colorless
_exptl_crystal_description       block
_cell_formula_units_Z            4
loop_
_atom_site_label
_atom_site_type_symbol
_atom_site_fract_x
_atom_site_fract_y
_atom_site_fract_z
O1 O -0.14683(10) 0.20830(13) 0.70715(17)
O2 O -0.01527(10) 0.09955(11) 0.51543(17)
O3 O 0.15652(9) 0.21745(10) 0.96808(14)
O4 O 0.14761(10) 0.40636(10) 0.95468(14)
C1 C 0.09973(13) 0.30805(14) 0.9217(2)
C2 C -0.00148(14) 0.30388(15) 0.9861(2)
H1 H -0.0101 0.3296 1.0779
C3 C -0.07886(14) 0.26532(15) 0.9185(2)
H2 H -0.1412 0.2641 0.9640
C4 C -0.07241(13) 0.22372(16) 0.7744(2)
C5 C 0.03239(14) 0.20245(15) 0.7240(2)
H3 H 0.0579 0.1380 0.7737
C6 C 0.04473(14) 0.18353(17) 0.5684(2)
H4 H 0.1154 0.1635 0.5517
C7 C 0.02461(14) 0.28375(18) 0.4889(2)
H5 H 0.0050 0.2780 0.3947
C8 C 0.03298(15) 0.38000(18) 0.5440(2)
H6 H 0.0198 0.4400 0.4865
C9 C 0.06202(14) 0.40066(16) 0.6917(2)
H7 H 0.0045 0.4300 0.7426
H8 H 0.1154 0.4548 0.6940
C10 C 0.09781(13) 0.29856(15) 0.7646(2)
H9 H 0.1668 0.2835 0.7325
C11 C 0.02177(19) -0.0024(2) 0.5459(3)
H10 H 0.0881 -0.0100 0.5062
H11 H -0.0221 -0.0567 0.5063
H12 H 0.0252 -0.0117 0.6466
C12 C 0.18985(13) 0.22145(15) 1.1026(2)
C13 C 0.21413(14) 0.12928(16) 1.1711(2)
H13 H 0.2024 0.0614 1.1301
C14 C 0.25686(16) 0.13738(17) 1.3038(2)
H14 H 0.2743 0.0739 1.3519
C15 C 0.27388(14) 0.23393(17) 1.3651(2)
H15 H 0.3032 0.2367 1.4545
C16 C 0.24811(13) 0.33003(16) 1.2966(2)
C17 C 0.26502(14) 0.43270(16) 1.3526(2)
H16 H 0.2948 0.4398 1.4413
C18 C 0.23853(14) 0.52196(16) 1.2795(2)
H17 H 0.2491 0.5904 1.3194
C19 C 0.19595(13) 0.51484(16) 1.1463(2)
H18 H 0.1777 0.5776 1.0971
C20 C 0.18141(13) 0.41618(15) 1.0892(2)
C21 C 0.20534(13) 0.32260(16) 1.1636(2)
loop_
_geom_bond_atom_site_label_1
_geom_bond_atom_site_label_2
_geom_bond_site_symmetry_1
_geom_bond_site_symmetry_2
O1 C4 1_555 1_555
O2 C6 1_555 1_555
O3 C1 1_555 1_555
O4 C1 1_555 1_555
C1 C2 1_555 1_555
C2 H1 1_555 1_555
C3 C2 1_555 1_555
H2 C3 1_555 1_555
C4 C3 1_555 1_555
C5 C4 1_555 1_555
H3 C5 1_555 1_555
C6 C5 1_555 1_555
H4 C6 1_555 1_555
C7 C6 1_555 1_555
H5 C7 1_555 1_555
C8 C7 1_555 1_555
H6 C8 1_555 1_555
C9 C8 1_555 1_555
H7 C9 1_555 1_555
H8 C9 1_555 1_555
C10 C1 1_555 1_555
H9 C10 1_555 1_555
C11 O2 1_555 1_555
H10 C11 1_555 1_555
H11 C11 1_555 1_555
H12 C11 1_555 1_555
C12 O3 1_555 1_555
C13 C12 1_555 1_555
H13 C13 1_555 1_555
C14 C13 1_555 1_555
H14 C14 1_555 1_555
C15 C14 1_555 1_555
H15 C15 1_555 1_555
C16 C15 1_555 1_555
C17 C16 1_555 1_555
H16 C17 1_555 1_555
C18 C17 1_555 1_555
H17 C18 1_555 1_555
C19 C18 1_555 1_555
H18 C19 1_555 1_555
C20 O4 1_555 1_555
C21 C12 1_555 1_555
C5 C10 1_555 1_555
C9 C10 1_555 1_555
C16 C21 1_555 1_555
C19 C20 1_555 1_555
C20 C21 1_555 1_555

#END
