
#######################################################################
#
#                 Cambridge Crystallographic Data Centre
#                                CCDC 
#
#######################################################################
#
# If this CIF has been generated from an entry in the Cambridge 
# Structural Database, then it will include bibliographic, chemical, 
# crystal, experimental, refinement or atomic coordinate data resulting 
# from the CCDC's data processing and validation procedures.
#
#######################################################################

data_FUYRUO
_chemical_formula_moiety         'C152 H110 N12,27(C9 H12)'
_chemical_name_systematic        
"tris(13,14-(9,10-Dihydroanthracene-9,10-diyl)-2,9-di-t-butyl-4,7,11,16-tetraazadibenzo[hi,qr]pentacene)[5,6-d:5',6'-k:5'',6''-r]triptycene 1,3,5-trimethylbenzene solvate"
_symmetry_cell_setting           monoclinic
_symmetry_space_group_name_H-M   'P 21/c'
_symmetry_Int_Tables_number      14
_space_group_name_Hall           '-P 2ybc'
loop_
_symmetry_equiv_pos_site_id
_symmetry_equiv_pos_as_xyz
1 x,y,z
2 -x,1/2+y,1/2-z
3 -x,-y,-z
4 x,1/2-y,1/2+z
_cell_length_a                   25.401(2)
_cell_length_b                   42.899(4)
_cell_length_c                   28.811(2)
_cell_angle_alpha                90
_cell_angle_beta                 102.835(2)
_cell_angle_gamma                90
_cell_volume                     30610.3
_exptl_crystal_colour            yellow
_exptl_crystal_description       polyhedron
_cell_formula_units_Z            4
loop_
_atom_site_label
_atom_site_type_symbol
_atom_site_fract_x
_atom_site_fract_y
_atom_site_fract_z
C1 C 0.3868(4) 0.7224(2) 0.2082(4)
H1 H 0.3755 0.7224 0.1727
C2 C 0.4171(4) 0.7227(2) 0.2996(4)
H2 H 0.4288 0.7228 0.3351
C3 C -0.2761(5) 0.7260(3) 0.2518(5)
H3 H -0.2885 0.7256 0.2164
C4 C -0.2457(5) 0.7262(3) 0.3423(5)
H4 H -0.2339 0.7265 0.3778
C5 C 0.7479(5) 0.3870(3) 0.1869(5)
H5 H 0.7403 0.3883 0.1514
C6 C 0.7681(5) 0.3835(3) 0.2783(5)
H6 H 0.7760 0.3817 0.3137
C7 C 0.7410(5) 1.0613(3) 0.1932(5)
H7 H 0.7273 1.0627 0.1580
C8 C 0.7766(5) 1.0579(3) 0.2851(5)
H8 H 0.7905 1.0568 0.3204
C9 C 0.3385(4) 0.7224(3) 0.2315(4)
C10 C 0.2860(4) 0.7211(3) 0.2104(4)
H9 H 0.2752 0.7201 0.1767
C11 C 0.2462(4) 0.7214(3) 0.2386(4)
N1 N 0.1928(4) 0.7209(3) 0.2161(3)
C12 C 0.1578(4) 0.7210(3) 0.2436(4)
C13 C 0.0993(4) 0.7194(3) 0.2205(4)
C14 C 0.0826(5) 0.7181(3) 0.1723(4)
H10 H 0.1091 0.7172 0.1537
C15 C 0.0288(5) 0.7181(4) 0.1492(4)
C16 C -0.0084(5) 0.7189(3) 0.1784(4)
H11 H -0.0458 0.7186 0.1639
C17 C 0.0072(4) 0.7201(3) 0.2275(4)
C18 C -0.0329(4) 0.7211(4) 0.2574(4)
N2 N -0.0854(4) 0.7224(3) 0.2349(4)
C19 C -0.1214(4) 0.7235(4) 0.2632(4)
C20 C -0.1781(5) 0.7245(4) 0.2404(5)
H12 H -0.1901 0.7237 0.2068
C21 C -0.2138(5) 0.7267(4) 0.2694(4)
C22 C -0.1977(4) 0.7254(4) 0.3171(5)
C23 C -0.1446(5) 0.7249(4) 0.3403(5)
H13 H -0.1345 0.7257 0.3741
C24 C -0.1048(4) 0.7231(4) 0.3125(4)
N3 N -0.0519(4) 0.7225(3) 0.3353(4)
C25 C -0.0160(4) 0.7225(4) 0.3070(4)
C26 C 0.0417(4) 0.7222(3) 0.3305(4)
C27 C 0.0585(5) 0.7208(3) 0.3793(4)
H14 H 0.0322 0.7200 0.3982
C28 C 0.1132(5) 0.7204(3) 0.4017(4)
C29 C 0.1501(5) 0.7211(3) 0.3723(4)
H15 H 0.1876 0.7218 0.3865
C30 C 0.1341(4) 0.7207(3) 0.3243(4)
C31 C 0.1751(4) 0.7209(3) 0.2936(4)
N4 N 0.2267(4) 0.7219(3) 0.3169(3)
C32 C 0.2631(4) 0.7224(3) 0.2884(4)
C33 C 0.3192(4) 0.7228(3) 0.3098(4)
H16 H 0.3309 0.7235 0.3435
C34 C 0.3556(4) 0.7222(3) 0.2825(4)
C35 C 0.0097(6) 0.7161(4) 0.0954(5)
C36 C 0.0474(7) 0.7054(5) 0.0683(6)
H17 H 0.0812 0.7171 0.0777
H18 H 0.0545 0.6831 0.0744
H19 H 0.0321 0.7086 0.0343
C37 C -0.0389(7) 0.6976(4) 0.0791(6)
H20 H -0.0663 0.7039 0.0965
H21 H -0.0528 0.7009 0.0450
H22 H -0.0303 0.6755 0.0851
C38 C -0.0064(8) 0.7470(4) 0.0761(7)
H23 H -0.0323 0.7560 0.0929
H24 H 0.0255 0.7605 0.0803
H25 H -0.0231 0.7452 0.0421
C39 C 0.1303(5) 0.7217(4) 0.4554(4)
C40 C 0.1807(6) 0.7049(4) 0.4734(6)
H26 H 0.2079 0.7117 0.4562
H27 H 0.1936 0.7093 0.5075
H28 H 0.1744 0.6825 0.4688
C41 C 0.1443(8) 0.7534(4) 0.4723(6)
H29 H 0.1711 0.7620 0.4560
H30 H 0.1119 0.7665 0.4656
H31 H 0.1594 0.7530 0.5067
C42 C 0.0907(6) 0.7112(4) 0.4815(6)
H32 H 0.0566 0.7223 0.4698
H33 H 0.0849 0.6888 0.4768
H34 H 0.1041 0.7156 0.5155
C43 C 0.0621(4) 0.7198(3) 0.2505(4)
C44 C 0.0795(4) 0.7222(3) 0.3010(4)
C45 C 0.4208(5) 0.6939(3) 0.2270(4)
C46 C 0.4372(5) 0.6716(3) 0.2013(4)
H35 H 0.4252 0.6715 0.1676
C47 C 0.4724(5) 0.6483(3) 0.2245(4)
N5 N 0.4885(4) 0.6252(2) 0.1982(3)
C48 C 0.5209(5) 0.6035(3) 0.2221(4)
C49 C 0.5392(5) 0.5780(3) 0.1935(4)
C50 C 0.5221(5) 0.5776(3) 0.1452(4)
H36 H 0.4996 0.5939 0.1298
C51 C 0.5374(6) 0.5535(3) 0.1178(4)
C52 C 0.5725(5) 0.5308(3) 0.1422(4)
H37 H 0.5849 0.5149 0.1243
C53 C 0.5899(5) 0.5306(3) 0.1908(4)
C54 C 0.6249(5) 0.5057(3) 0.2157(4)
N6 N 0.6414(4) 0.4837(2) 0.1889(4)
C55 C 0.6743(5) 0.4617(3) 0.2130(4)
C56 C 0.6931(5) 0.4375(3) 0.1872(5)
H38 H 0.6844 0.4377 0.1534
C57 C 0.7234(5) 0.4139(3) 0.2109(4)
C58 C 0.7362(5) 0.4129(3) 0.2594(4)
C59 C 0.7202(5) 0.4359(3) 0.2863(5)
H39 H 0.7300 0.4350 0.3201
C60 C 0.6886(5) 0.4609(3) 0.2629(4)
N7 N 0.6702(4) 0.4825(2) 0.2890(4)
C61 C 0.6416(5) 0.5059(3) 0.2654(4)
C62 C 0.6231(5) 0.5307(3) 0.2936(4)
C63 C 0.6415(5) 0.5327(3) 0.3427(4)
H40 H 0.6650 0.5169 0.3587
C64 C 0.6270(6) 0.5570(3) 0.3694(4)
C65 C 0.5943(5) 0.5805(3) 0.3449(4)
H41 H 0.5857 0.5980 0.3619
C66 C 0.5744(5) 0.5787(3) 0.2970(4)
C67 C 0.5385(5) 0.6041(3) 0.2714(4)
N8 N 0.5230(4) 0.6258(2) 0.2979(3)
C68 C 0.4894(5) 0.6483(3) 0.2744(4)
C69 C 0.4727(5) 0.6725(3) 0.3013(4)
H42 H 0.4845 0.6732 0.3350
C70 C 0.4394(5) 0.6946(3) 0.2776(4)
C71 C 0.5176(6) 0.5516(3) 0.0642(5)
C72 C 0.4992(7) 0.5810(4) 0.0405(6)
H43 H 0.5285 0.5964 0.0476
H44 H 0.4888 0.5776 0.0060
H45 H 0.4680 0.5887 0.0519
C73 C 0.5582(6) 0.5407(4) 0.0389(6)
H46 H 0.5902 0.5542 0.0468
H47 H 0.5685 0.5192 0.0483
H48 H 0.5432 0.5415 0.0045
C74 C 0.4718(7) 0.5311(4) 0.0512(6)
H49 H 0.4810 0.5106 0.0659
H50 H 0.4412 0.5399 0.0624
H51 H 0.4620 0.5288 0.0165
C75 C 0.6470(6) 0.5579(4) 0.4227(5)
C76 C 0.6639(8) 0.5884(4) 0.4421(7)
H52 H 0.6347 0.6034 0.4315
H53 H 0.6727 0.5873 0.4770
H54 H 0.6959 0.5950 0.4310
C77 C 0.6933(7) 0.5380(4) 0.4408(6)
H55 H 0.6853 0.5167 0.4292
H56 H 0.7247 0.5458 0.4297
H57 H 0.7014 0.5381 0.4757
C78 C 0.6054(7) 0.5486(5) 0.4478(7)
H58 H 0.5915 0.5280 0.4367
H59 H 0.6211 0.5478 0.4821
H60 H 0.5759 0.5638 0.4414
C79 C 0.5724(5) 0.5544(3) 0.2184(4)
C80 C 0.5903(5) 0.5548(3) 0.2690(4)
C81 C 0.4192(5) 0.7514(3) 0.2268(4)
C82 C 0.4340(5) 0.7743(3) 0.2013(4)
H61 H 0.4226 0.7743 0.1676
C83 C 0.4672(5) 0.7991(3) 0.2252(4)
N9 N 0.4819(4) 0.8231(2) 0.1988(3)
C84 C 0.5131(5) 0.8448(3) 0.2231(4)
C85 C 0.5307(5) 0.8709(3) 0.1948(4)
C86 C 0.5117(5) 0.8719(3) 0.1466(4)
H62 H 0.4880 0.8560 0.1311
C87 C 0.5268(5) 0.8959(3) 0.1201(4)
C88 C 0.5606(5) 0.9191(3) 0.1445(4)
H63 H 0.5714 0.9356 0.1267
C89 C 0.5791(5) 0.9191(3) 0.1939(4)
C90 C 0.6166(5) 0.9430(3) 0.2201(4)
N10 N 0.6320(4) 0.9655(3) 0.1934(4)
C91 C 0.6673(5) 0.9862(3) 0.2177(4)
C92 C 0.6845(5) 1.0111(3) 0.1917(5)
H64 H 0.6724 1.0124 0.1581
C93 C 0.7190(5) 1.0330(3) 0.2166(5)
C94 C 0.7372(5) 1.0312(3) 0.2644(5)
C95 C 0.7209(5) 1.0082(3) 0.2901(5)
H65 H 0.7343 1.0074 0.3236
C96 C 0.6840(5) 0.9853(3) 0.2673(4)
N11 N 0.6701(4) 0.9623(3) 0.2943(4)
C97 C 0.6357(5) 0.9414(3) 0.2693(4)
C98 C 0.6195(5) 0.9154(3) 0.2961(4)
C99 C 0.6339(5) 0.9151(3) 0.3454(4)
H66 H 0.6558 0.9314 0.3616
C100 C 0.6169(6) 0.8912(3) 0.3719(4)
C101 C 0.5827(5) 0.8683(3) 0.3471(4)
H67 H 0.5701 0.8521 0.3643
C102 C 0.5672(5) 0.8689(3) 0.2992(4)
C103 C 0.5302(5) 0.8448(3) 0.2731(4)
N12 N 0.5163(4) 0.8218(2) 0.2992(3)
C104 C 0.4836(5) 0.7990(3) 0.2752(4)
C105 C 0.4667(5) 0.7747(3) 0.3014(4)
H68 H 0.4764 0.7745 0.3352
C106 C 0.4364(5) 0.7516(3) 0.2773(4)
C107 C 0.5060(6) 0.8991(3) 0.0665(4)
C108 C 0.4718(6) 0.8734(3) 0.0438(5)
H69 H 0.4427 0.8700 0.0605
H70 H 0.4564 0.8787 0.0104
H71 H 0.4936 0.8545 0.0452
C109 C 0.4745(7) 0.9275(4) 0.0564(6)
H72 H 0.4446 0.9270 0.0728
H73 H 0.4976 0.9455 0.0675
H74 H 0.4600 0.9293 0.0220
C110 C 0.5479(6) 0.9031(4) 0.0404(6)
H75 H 0.5715 0.8848 0.0452
H76 H 0.5315 0.9055 0.0065
H77 H 0.5691 0.9217 0.0520
C111 C 0.6356(6) 0.8893(3) 0.4257(5)
C112 C 0.5959(6) 0.8774(4) 0.4505(6)
H78 H 0.5835 0.8568 0.4378
H79 H 0.6122 0.8756 0.4846
H80 H 0.5651 0.8917 0.4459
C113 C 0.6494(7) 0.9191(4) 0.4481(6)
H81 H 0.6188 0.9334 0.4387
H82 H 0.6578 0.9165 0.4828
H83 H 0.6809 0.9276 0.4382
C114 C 0.6815(7) 0.8694(4) 0.4406(6)
H84 H 0.6735 0.8488 0.4260
H85 H 0.7127 0.8784 0.4308
H86 H 0.6896 0.8673 0.4754
C115 C 0.5642(5) 0.8944(3) 0.2210(4)
C116 C 0.5828(5) 0.8930(3) 0.2714(4)
C117 C -0.2939(6) 0.6974(3) 0.2766(5)
C118 C -0.3232(7) 0.6733(3) 0.2516(5)
H87 H -0.3340 0.6734 0.2178
C119 C -0.3357(7) 0.6490(4) 0.2791(6)
H88 H -0.3558 0.6317 0.2638
C120 C -0.3203(7) 0.6493(4) 0.3265(6)
H89 H -0.3298 0.6320 0.3437
C121 C -0.2909(7) 0.6736(3) 0.3521(5)
H90 H -0.2794 0.6736 0.3858
C122 C -0.2799(6) 0.6980(3) 0.3237(5)
C123 C -0.2954(6) 0.7544(3) 0.2749(5)
C124 C -0.3269(6) 0.7787(3) 0.2507(5)
H91 H -0.3396 0.7783 0.2171
C125 C -0.3392(7) 0.8039(4) 0.2780(6)
H92 H -0.3594 0.8211 0.2628
C126 C -0.3224(7) 0.8033(4) 0.3246(6)
H93 H -0.3310 0.8205 0.3424
C127 C -0.2930(6) 0.7791(3) 0.3492(5)
H94 H -0.2828 0.7790 0.3830
C128 C -0.2789(6) 0.7548(3) 0.3223(5)
C129 C 0.8082(5) 0.3870(4) 0.2110(5)
C130 C 0.8488(5) 0.3881(4) 0.1859(5)
H95 H 0.8416 0.3889 0.1522
C131 C 0.9008(6) 0.3879(4) 0.2138(5)
H96 H 0.9303 0.3886 0.1985
C132 C 0.9112(6) 0.3867(4) 0.2606(5)
H97 H 0.9478 0.3871 0.2776
C133 C 0.8708(5) 0.3849(4) 0.2862(5)
H98 H 0.8782 0.3835 0.3199
C134 C 0.8188(5) 0.3853(3) 0.2580(5)
C135 C 0.7252(6) 0.3576(3) 0.2060(5)
C136 C 0.6953(6) 0.3353(3) 0.1772(5)
H99 H 0.6872 0.3367 0.1434
C137 C 0.6779(6) 0.3105(3) 0.2013(5)
H100 H 0.6594 0.2938 0.1832
C138 C 0.6858(6) 0.3093(3) 0.2477(5)
H101 H 0.6698 0.2930 0.2621
C139 C 0.7175(6) 0.3315(3) 0.2762(5)
H102 H 0.7271 0.3296 0.3099
C140 C 0.7343(5) 0.3565(3) 0.2526(5)
C141 C 0.7260(6) 1.0894(3) 0.2214(5)
C142 C 0.6990(7) 1.1156(3) 0.1993(5)
H103 H 0.6886 1.1179 0.1657
C143 C 0.6888(7) 1.1383(4) 0.2318(6)
H104 H 0.6684 1.1563 0.2195
C144 C 0.7062(7) 1.1357(4) 0.2782(6)
H105 H 0.6973 1.1518 0.2978
C145 C 0.7367(7) 1.1107(3) 0.3001(5)
H106 H 0.7510 1.1094 0.3334
C146 C 0.7444(6) 1.0876(3) 0.2679(5)
C147 C 0.8027(5) 1.0576(4) 0.2092(5)
C148 C 0.8375(6) 1.0574(4) 0.1781(5)
H107 H 0.8249 1.0590 0.1446
C149 C 0.8924(6) 1.0548(4) 0.1996(6)
H108 H 0.9178 1.0538 0.1798
C150 C 0.9103(6) 1.0535(4) 0.2458(6)
H109 H 0.9480 1.0512 0.2582
C151 C 0.8759(5) 1.0555(4) 0.2780(5)
H110 H 0.8890 1.0559 0.3115
C152 C 0.8210(5) 1.0567(4) 0.2562(5)
C153 C 0.5990(5) 0.7253(3) 0.3880(3)
C154 C 0.6091(5) 0.7529(2) 0.4138(4)
H111 H 0.6095 0.7722 0.3977
C155 C 0.6186(5) 0.7523(3) 0.4632(4)
C156 C 0.6180(5) 0.7241(3) 0.4868(3)
H112 H 0.6245 0.7237 0.5206
C157 C 0.6079(5) 0.6965(2) 0.4611(4)
C158 C 0.5984(5) 0.6971(2) 0.4117(4)
H113 H 0.5915 0.6783 0.3941
C159 C 0.5895(6) 0.7258(4) 0.3345(4)
H114 H 0.5941 0.7047 0.3229
H115 H 0.6156 0.7399 0.3249
H116 H 0.5528 0.7331 0.3209
C160 C 0.6278(8) 0.7833(3) 0.4892(6)
H117 H 0.6601 0.7808 0.5148
H118 H 0.5971 0.7891 0.5029
H119 H 0.6341 0.7996 0.4673
C161 C 0.6023(9) 0.6648(4) 0.4847(7)
H120 H 0.5822 0.6502 0.4613
H121 H 0.5817 0.6691 0.5090
H122 H 0.6373 0.6557 0.4999
C162 C 0.5424(4) 0.7250(3) 0.1648(3)
C163 C 0.5398(4) 0.6974(2) 0.1391(4)
H123 H 0.5471 0.6781 0.1553
C164 C 0.5263(5) 0.6981(2) 0.0896(4)
C165 C 0.5155(4) 0.7264(3) 0.0659(3)
H124 H 0.5063 0.7269 0.0321
C166 C 0.5181(4) 0.7540(2) 0.0916(4)
C167 C 0.5316(4) 0.7533(2) 0.1411(4)
H125 H 0.5334 0.7722 0.1587
C168 C 0.5573(6) 0.7239(4) 0.2191(4)
H126 H 0.5853 0.7391 0.2327
H127 H 0.5695 0.7029 0.2296
H128 H 0.5241 0.7288 0.2297
C169 C 0.5267(8) 0.6677(3) 0.0621(6)
H129 H 0.5020 0.6690 0.0307
H130 H 0.5153 0.6507 0.0803
H131 H 0.5634 0.6636 0.0580
C170 C 0.5035(7) 0.7847(3) 0.0654(5)
H132 H 0.5013 0.8014 0.0882
H133 H 0.4689 0.7830 0.0423
H134 H 0.5322 0.7895 0.0488
C171 C 0.4216(7) 0.5569(4) 0.2598(5)
C172 C 0.4179(7) 0.5814(4) 0.2906(6)
H135 H 0.3994 0.5999 0.2786
C173 C 0.4412(7) 0.5787(4) 0.3388(6)
C174 C 0.4683(7) 0.5515(4) 0.3564(5)
H136 H 0.4843 0.5497 0.3893
C175 C 0.4721(7) 0.5270(4) 0.3256(6)
C176 C 0.4487(7) 0.5297(4) 0.2774(6)
H137 H 0.4512 0.5130 0.2564
C177 C 0.3975(9) 0.5568(5) 0.2057(6)
H138 H 0.4078 0.5386 0.1894
H139 H 0.4078 0.5758 0.1911
H140 H 0.3583 0.5567 0.2030
C178 C 0.4420(10) 0.6047(5) 0.3777(7)
H141 H 0.4209 0.5972 0.4000
H142 H 0.4237 0.6226 0.3599
H143 H 0.4780 0.6111 0.3954
C179 C 0.5005(11) 0.4964(5) 0.3428(8)
H144 H 0.5097 0.4824 0.3188
H145 H 0.4709 0.4874 0.3550
H146 H 0.5321 0.4992 0.3690
C180 C 0.6974(6) 0.7894(3) 0.1256(5)
C181 C 0.6762(4) 0.7594(4) 0.1208(5)
H147 H 0.6395 0.7560 0.1216
C182 C 0.7089(6) 0.7344(3) 0.1148(5)
C183 C 0.7626(6) 0.7394(3) 0.1136(5)
H148 H 0.7849 0.7223 0.1095
C184 C 0.7838(5) 0.7694(4) 0.1184(5)
C185 C 0.7511(6) 0.7944(3) 0.1245(5)
H149 H 0.7656 0.8149 0.1278
C186 C 0.6614(8) 0.8170(4) 0.1272(8)
H150 H 0.6841 0.8356 0.1351
H151 H 0.6470 0.8110 0.1548
H152 H 0.6315 0.8216 0.1002
C187 C 0.6887(8) 0.7012(4) 0.1122(8)
H153 H 0.6973 0.6890 0.0861
H154 H 0.6494 0.7024 0.1082
H155 H 0.7045 0.6911 0.1426
C188 C 0.8432(6) 0.7747(5) 0.1217(8)
H156 H 0.8475 0.7936 0.1038
H157 H 0.8551 0.7566 0.1061
H158 H 0.8651 0.7765 0.1542
C189 C 0.4460(5) 0.7792(3) 0.4286(4)
C190 C 0.3924(5) 0.7857(2) 0.4287(4)
H159 H 0.3798 0.8066 0.4257
C191 C 0.3573(4) 0.7616(3) 0.4333(4)
C192 C 0.3757(5) 0.7310(3) 0.4378(4)
H160 H 0.3517 0.7146 0.4409
C193 C 0.4293(5) 0.7245(2) 0.4376(4)
C194 C 0.4644(4) 0.7486(3) 0.4330(4)
H161 H 0.5010 0.7441 0.4329
C195 C 0.4838(7) 0.8067(4) 0.4264(7)
H162 H 0.5179 0.7990 0.4202
H163 H 0.4909 0.8181 0.4566
H164 H 0.4666 0.8207 0.4005
C196 C 0.2988(6) 0.7684(5) 0.4356(8)
H165 H 0.2778 0.7491 0.4328
H166 H 0.2847 0.7818 0.4081
H167 H 0.2959 0.7793 0.4648
C197 C 0.4500(7) 0.6913(3) 0.4413(7)
H168 H 0.4895 0.6921 0.4474
H169 H 0.4360 0.6792 0.4124
H170 H 0.4390 0.6815 0.4684
C198 C 0.0378(5) 0.6389(4) 0.2668(6)
C199 C 0.0516(5) 0.6372(3) 0.2229(4)
H171 H 0.0241 0.6359 0.1946
C200 C 0.1056(6) 0.6374(3) 0.2203(4)
C201 C 0.1458(5) 0.6393(3) 0.2617(5)
H172 H 0.1827 0.6395 0.2599
C202 C 0.1320(5) 0.6411(3) 0.3057(4)
C203 C 0.0780(6) 0.6409(3) 0.3083(4)
H173 H 0.0685 0.6421 0.3383
C204 C -0.0211(6) 0.6375(6) 0.2691(8)
H174 H -0.0285 0.6503 0.2951
H175 H -0.0267 0.6154 0.2756
H176 H -0.0456 0.6435 0.2392
C205 C 0.1212(8) 0.6398(5) 0.1719(6)
H177 H 0.1606 0.6393 0.1766
H178 H 0.1074 0.6595 0.1565
H179 H 0.1055 0.6223 0.1518
C206 C 0.1787(7) 0.6411(5) 0.3502(6)
H180 H 0.1642 0.6375 0.3786
H181 H 0.1976 0.6612 0.3533
H182 H 0.2040 0.6244 0.3472
C207 C 0.2561(4) 0.8106(3) 0.5835(5)
C208 C 0.2836(6) 0.8388(3) 0.5861(5)
H183 H 0.2662 0.8576 0.5918
C209 C 0.3365(6) 0.8395(3) 0.5805(5)
C210 C 0.3620(4) 0.8121(4) 0.5723(5)
H184 H 0.3982 0.8125 0.5684
C211 C 0.3345(6) 0.7839(3) 0.5697(5)
C212 C 0.2816(5) 0.7831(3) 0.5753(5)
H185 H 0.2628 0.7639 0.5735
C213 C 0.1994(7) 0.8111(5) 0.5927(8)
H186 H 0.1832 0.7906 0.5837
H187 H 0.1795 0.8271 0.5715
H188 H 0.1975 0.8157 0.6256
C214 C 0.3644(8) 0.8719(4) 0.5904(8)
H189 H 0.3970 0.8696 0.5777
H190 H 0.3747 0.8765 0.6245
H191 H 0.3423 0.8889 0.5738
C215 C 0.3621(8) 0.7533(4) 0.5635(7)
H192 H 0.3387 0.7362 0.5690
H193 H 0.3964 0.7523 0.5871
H194 H 0.3690 0.7514 0.5315
C216 C 0.7149(7) 0.4145(4) 0.4135(6)
C217 C 0.6788(6) 0.3898(5) 0.4030(6)
H195 H 0.6410 0.3936 0.3973
C218 C 0.6978(7) 0.3596(4) 0.4009(6)
C219 C 0.7530(7) 0.3540(4) 0.4093(6)
H196 H 0.7660 0.3334 0.4078
C220 C 0.7892(6) 0.3787(5) 0.4197(6)
C221 C 0.7701(7) 0.4089(4) 0.4219(6)
H197 H 0.7949 0.4258 0.4290
C222 C 0.6913(10) 0.4465(5) 0.4194(10)
H198 H 0.7223 0.4598 0.4331
H199 H 0.6680 0.4445 0.4421
H200 H 0.6709 0.4559 0.3898
C223 C 0.6585(9) 0.3320(5) 0.3984(10)
H201 H 0.6795 0.3127 0.4030
H202 H 0.6309 0.3308 0.3687
H203 H 0.6410 0.3350 0.4252
C224 C 0.8495(7) 0.3728(6) 0.4275(9)
H204 H 0.8694 0.3922 0.4260
H205 H 0.8561 0.3584 0.4030
H206 H 0.8618 0.3633 0.4590
C225 C 0.7353(9) 0.9027(5) 0.2136(7)
C226 C 0.7751(9) 0.9209(5) 0.2419(6)
H207 H 0.7864 0.9167 0.2750
C227 C 0.7983(8) 0.9453(5) 0.2217(7)
C228 C 0.7818(9) 0.9514(4) 0.1733(7)
H208 H 0.7977 0.9680 0.1595
C229 C 0.7420(9) 0.9331(5) 0.1450(6)
C230 C 0.7187(8) 0.9088(5) 0.1652(7)
H209 H 0.6915 0.8963 0.1459
C231 C 0.7140(12) 0.8739(6) 0.2343(10)
H210 H 0.6767 0.8699 0.2174
H211 H 0.7150 0.8781 0.2680
H212 H 0.7363 0.8556 0.2318
C232 C 0.8386(11) 0.9657(6) 0.2539(9)
H213 H 0.8620 0.9741 0.2341
H214 H 0.8604 0.9536 0.2802
H215 H 0.8207 0.9828 0.2667
C233 C 0.7295(14) 0.9355(8) 0.0907(7)
H216 H 0.6925 0.9356 0.0715
H217 H 0.7475 0.9161 0.0849
H218 H 0.7493 0.9533 0.0819
loop_
_geom_bond_atom_site_label_1
_geom_bond_atom_site_label_2
_geom_bond_site_symmetry_1
_geom_bond_site_symmetry_2
C1 H1 1_555 1_555
C2 H2 1_555 1_555
C3 H3 1_555 1_555
C4 H4 1_555 1_555
C5 H5 1_555 1_555
C6 H6 1_555 1_555
C7 H7 1_555 1_555
C8 H8 1_555 1_555
C9 C1 1_555 1_555
C10 C9 1_555 1_555
H9 C10 1_555 1_555
C11 C10 1_555 1_555
N1 C11 1_555 1_555
C12 N1 1_555 1_555
C13 C12 1_555 1_555
C14 C13 1_555 1_555
H10 C14 1_555 1_555
C15 C14 1_555 1_555
C16 C15 1_555 1_555
H11 C16 1_555 1_555
C17 C16 1_555 1_555
C18 C17 1_555 1_555
N2 C18 1_555 1_555
C19 N2 1_555 1_555
C20 C19 1_555 1_555
H12 C20 1_555 1_555
C21 C3 1_555 1_555
C22 C4 1_555 1_555
C23 C22 1_555 1_555
H13 C23 1_555 1_555
C24 C19 1_555 1_555
N3 C24 1_555 1_555
C25 C18 1_555 1_555
C26 C25 1_555 1_555
C27 C26 1_555 1_555
H14 C27 1_555 1_555
C28 C27 1_555 1_555
C29 C28 1_555 1_555
H15 C29 1_555 1_555
C30 C29 1_555 1_555
C31 C12 1_555 1_555
N4 C31 1_555 1_555
C32 C11 1_555 1_555
C33 C32 1_555 1_555
H16 C33 1_555 1_555
C34 C2 1_555 1_555
C35 C15 1_555 1_555
C36 C35 1_555 1_555
H17 C36 1_555 1_555
H18 C36 1_555 1_555
H19 C36 1_555 1_555
C37 C35 1_555 1_555
H20 C37 1_555 1_555
H21 C37 1_555 1_555
H22 C37 1_555 1_555
C38 C35 1_555 1_555
H23 C38 1_555 1_555
H24 C38 1_555 1_555
H25 C38 1_555 1_555
C39 C28 1_555 1_555
C40 C39 1_555 1_555
H26 C40 1_555 1_555
H27 C40 1_555 1_555
H28 C40 1_555 1_555
C41 C39 1_555 1_555
H29 C41 1_555 1_555
H30 C41 1_555 1_555
H31 C41 1_555 1_555
C42 C39 1_555 1_555
H32 C42 1_555 1_555
H33 C42 1_555 1_555
H34 C42 1_555 1_555
C43 C13 1_555 1_555
C44 C26 1_555 1_555
C45 C1 1_555 1_555
C46 C45 1_555 1_555
H35 C46 1_555 1_555
C47 C46 1_555 1_555
N5 C47 1_555 1_555
C48 N5 1_555 1_555
C49 C48 1_555 1_555
C50 C49 1_555 1_555
H36 C50 1_555 1_555
C51 C50 1_555 1_555
C52 C51 1_555 1_555
H37 C52 1_555 1_555
C53 C52 1_555 1_555
C54 C53 1_555 1_555
N6 C54 1_555 1_555
C55 N6 1_555 1_555
C56 C55 1_555 1_555
H38 C56 1_555 1_555
C57 C5 1_555 1_555
C58 C6 1_555 1_555
C59 C58 1_555 1_555
H39 C59 1_555 1_555
C60 C55 1_555 1_555
N7 C60 1_555 1_555
C61 C54 1_555 1_555
C62 C61 1_555 1_555
C63 C62 1_555 1_555
H40 C63 1_555 1_555
C64 C63 1_555 1_555
C65 C64 1_555 1_555
H41 C65 1_555 1_555
C66 C65 1_555 1_555
C67 C48 1_555 1_555
N8 C67 1_555 1_555
C68 C47 1_555 1_555
C69 C68 1_555 1_555
H42 C69 1_555 1_555
C70 C2 1_555 1_555
C71 C51 1_555 1_555
C72 C71 1_555 1_555
H43 C72 1_555 1_555
H44 C72 1_555 1_555
H45 C72 1_555 1_555
C73 C71 1_555 1_555
H46 C73 1_555 1_555
H47 C73 1_555 1_555
H48 C73 1_555 1_555
C74 C71 1_555 1_555
H49 C74 1_555 1_555
H50 C74 1_555 1_555
H51 C74 1_555 1_555
C75 C64 1_555 1_555
C76 C75 1_555 1_555
H52 C76 1_555 1_555
H53 C76 1_555 1_555
H54 C76 1_555 1_555
C77 C75 1_555 1_555
H55 C77 1_555 1_555
H56 C77 1_555 1_555
H57 C77 1_555 1_555
C78 C75 1_555 1_555
H58 C78 1_555 1_555
H59 C78 1_555 1_555
H60 C78 1_555 1_555
C79 C49 1_555 1_555
C80 C62 1_555 1_555
C81 C1 1_555 1_555
C82 C81 1_555 1_555
H61 C82 1_555 1_555
C83 C82 1_555 1_555
N9 C83 1_555 1_555
C84 N9 1_555 1_555
C85 C84 1_555 1_555
C86 C85 1_555 1_555
H62 C86 1_555 1_555
C87 C86 1_555 1_555
C88 C87 1_555 1_555
H63 C88 1_555 1_555
C89 C88 1_555 1_555
C90 C89 1_555 1_555
N10 C90 1_555 1_555
C91 N10 1_555 1_555
C92 C91 1_555 1_555
H64 C92 1_555 1_555
C93 C7 1_555 1_555
C94 C8 1_555 1_555
C95 C94 1_555 1_555
H65 C95 1_555 1_555
C96 C91 1_555 1_555
N11 C96 1_555 1_555
C97 C90 1_555 1_555
C98 C97 1_555 1_555
C99 C98 1_555 1_555
H66 C99 1_555 1_555
C100 C99 1_555 1_555
C101 C100 1_555 1_555
H67 C101 1_555 1_555
C102 C101 1_555 1_555
C103 C84 1_555 1_555
N12 C103 1_555 1_555
C104 C83 1_555 1_555
C105 C104 1_555 1_555
H68 C105 1_555 1_555
C106 C2 1_555 1_555
C107 C87 1_555 1_555
C108 C107 1_555 1_555
H69 C108 1_555 1_555
H70 C108 1_555 1_555
H71 C108 1_555 1_555
C109 C107 1_555 1_555
H72 C109 1_555 1_555
H73 C109 1_555 1_555
H74 C109 1_555 1_555
C110 C107 1_555 1_555
H75 C110 1_555 1_555
H76 C110 1_555 1_555
H77 C110 1_555 1_555
C111 C100 1_555 1_555
C112 C111 1_555 1_555
H78 C112 1_555 1_555
H79 C112 1_555 1_555
H80 C112 1_555 1_555
C113 C111 1_555 1_555
H81 C113 1_555 1_555
H82 C113 1_555 1_555
H83 C113 1_555 1_555
C114 C111 1_555 1_555
H84 C114 1_555 1_555
H85 C114 1_555 1_555
H86 C114 1_555 1_555
C115 C85 1_555 1_555
C116 C98 1_555 1_555
C117 C3 1_555 1_555
C118 C117 1_555 1_555
H87 C118 1_555 1_555
C119 C118 1_555 1_555
H88 C119 1_555 1_555
C120 C119 1_555 1_555
H89 C120 1_555 1_555
C121 C120 1_555 1_555
H90 C121 1_555 1_555
C122 C4 1_555 1_555
C123 C3 1_555 1_555
C124 C123 1_555 1_555
H91 C124 1_555 1_555
C125 C124 1_555 1_555
H92 C125 1_555 1_555
C126 C125 1_555 1_555
H93 C126 1_555 1_555
C127 C126 1_555 1_555
H94 C127 1_555 1_555
C128 C4 1_555 1_555
C129 C5 1_555 1_555
C130 C129 1_555 1_555
H95 C130 1_555 1_555
C131 C130 1_555 1_555
H96 C131 1_555 1_555
C132 C131 1_555 1_555
H97 C132 1_555 1_555
C133 C132 1_555 1_555
H98 C133 1_555 1_555
C134 C6 1_555 1_555
C135 C5 1_555 1_555
C136 C135 1_555 1_555
H99 C136 1_555 1_555
C137 C136 1_555 1_555
H100 C137 1_555 1_555
C138 C137 1_555 1_555
H101 C138 1_555 1_555
C139 C138 1_555 1_555
H102 C139 1_555 1_555
C140 C6 1_555 1_555
C141 C7 1_555 1_555
C142 C141 1_555 1_555
H103 C142 1_555 1_555
C143 C142 1_555 1_555
H104 C143 1_555 1_555
C144 C143 1_555 1_555
H105 C144 1_555 1_555
C145 C144 1_555 1_555
H106 C145 1_555 1_555
C146 C8 1_555 1_555
C147 C7 1_555 1_555
C148 C147 1_555 1_555
H107 C148 1_555 1_555
C149 C148 1_555 1_555
H108 C149 1_555 1_555
C150 C149 1_555 1_555
H109 C150 1_555 1_555
C151 C150 1_555 1_555
H110 C151 1_555 1_555
C152 C8 1_555 1_555
C153 C154 1_555 1_555
C154 H111 1_555 1_555
C155 C154 1_555 1_555
C156 C155 1_555 1_555
H112 C156 1_555 1_555
C157 C156 1_555 1_555
C158 C153 1_555 1_555
H113 C158 1_555 1_555
C159 C153 1_555 1_555
H114 C159 1_555 1_555
H115 C159 1_555 1_555
H116 C159 1_555 1_555
C160 C155 1_555 1_555
H117 C160 1_555 1_555
H118 C160 1_555 1_555
H119 C160 1_555 1_555
C161 C157 1_555 1_555
H120 C161 1_555 1_555
H121 C161 1_555 1_555
H122 C161 1_555 1_555
C162 C163 1_555 1_555
C163 H123 1_555 1_555
C164 C163 1_555 1_555
C165 C164 1_555 1_555
H124 C165 1_555 1_555
C166 C165 1_555 1_555
C167 C162 1_555 1_555
H125 C167 1_555 1_555
C168 C162 1_555 1_555
H126 C168 1_555 1_555
H127 C168 1_555 1_555
H128 C168 1_555 1_555
C169 C164 1_555 1_555
H129 C169 1_555 1_555
H130 C169 1_555 1_555
H131 C169 1_555 1_555
C170 C166 1_555 1_555
H132 C170 1_555 1_555
H133 C170 1_555 1_555
H134 C170 1_555 1_555
C171 C172 1_555 1_555
C172 H135 1_555 1_555
C173 C172 1_555 1_555
C174 C173 1_555 1_555
H136 C174 1_555 1_555
C175 C174 1_555 1_555
C176 C171 1_555 1_555
H137 C176 1_555 1_555
C177 C171 1_555 1_555
H138 C177 1_555 1_555
H139 C177 1_555 1_555
H140 C177 1_555 1_555
C178 C173 1_555 1_555
H141 C178 1_555 1_555
H142 C178 1_555 1_555
H143 C178 1_555 1_555
C179 C175 1_555 1_555
H144 C179 1_555 1_555
H145 C179 1_555 1_555
H146 C179 1_555 1_555
C180 C181 1_555 1_555
C181 H147 1_555 1_555
C182 C181 1_555 1_555
C183 C182 1_555 1_555
H148 C183 1_555 1_555
C184 C183 1_555 1_555
C185 C180 1_555 1_555
H149 C185 1_555 1_555
C186 C180 1_555 1_555
H150 C186 1_555 1_555
H151 C186 1_555 1_555
H152 C186 1_555 1_555
C187 C182 1_555 1_555
H153 C187 1_555 1_555
H154 C187 1_555 1_555
H155 C187 1_555 1_555
C188 C184 1_555 1_555
H156 C188 1_555 1_555
H157 C188 1_555 1_555
H158 C188 1_555 1_555
C189 C190 1_555 1_555
C190 H159 1_555 1_555
C191 C190 1_555 1_555
C192 C191 1_555 1_555
H160 C192 1_555 1_555
C193 C192 1_555 1_555
C194 C189 1_555 1_555
H161 C194 1_555 1_555
C195 C189 1_555 1_555
H162 C195 1_555 1_555
H163 C195 1_555 1_555
H164 C195 1_555 1_555
C196 C191 1_555 1_555
H165 C196 1_555 1_555
H166 C196 1_555 1_555
H167 C196 1_555 1_555
C197 C193 1_555 1_555
H168 C197 1_555 1_555
H169 C197 1_555 1_555
H170 C197 1_555 1_555
C198 C199 1_555 1_555
C199 H171 1_555 1_555
C200 C199 1_555 1_555
C201 C200 1_555 1_555
H172 C201 1_555 1_555
C202 C201 1_555 1_555
C203 C198 1_555 1_555
H173 C203 1_555 1_555
C204 C198 1_555 1_555
H174 C204 1_555 1_555
H175 C204 1_555 1_555
H176 C204 1_555 1_555
C205 C200 1_555 1_555
H177 C205 1_555 1_555
H178 C205 1_555 1_555
H179 C205 1_555 1_555
C206 C202 1_555 1_555
H180 C206 1_555 1_555
H181 C206 1_555 1_555
H182 C206 1_555 1_555
C207 C208 1_555 1_555
C208 H183 1_555 1_555
C209 C208 1_555 1_555
C210 C209 1_555 1_555
H184 C210 1_555 1_555
C211 C210 1_555 1_555
C212 C207 1_555 1_555
H185 C212 1_555 1_555
C213 C207 1_555 1_555
H186 C213 1_555 1_555
H187 C213 1_555 1_555
H188 C213 1_555 1_555
C214 C209 1_555 1_555
H189 C214 1_555 1_555
H190 C214 1_555 1_555
H191 C214 1_555 1_555
C215 C211 1_555 1_555
H192 C215 1_555 1_555
H193 C215 1_555 1_555
H194 C215 1_555 1_555
C216 C217 1_555 1_555
C217 H195 1_555 1_555
C218 C217 1_555 1_555
C219 C218 1_555 1_555
H196 C219 1_555 1_555
C220 C219 1_555 1_555
C221 C216 1_555 1_555
H197 C221 1_555 1_555
C222 C216 1_555 1_555
H198 C222 1_555 1_555
H199 C222 1_555 1_555
H200 C222 1_555 1_555
C223 C218 1_555 1_555
H201 C223 1_555 1_555
H202 C223 1_555 1_555
H203 C223 1_555 1_555
C224 C220 1_555 1_555
H204 C224 1_555 1_555
H205 C224 1_555 1_555
H206 C224 1_555 1_555
C225 C226 1_555 1_555
C226 H207 1_555 1_555
C227 C226 1_555 1_555
C228 C227 1_555 1_555
H208 C228 1_555 1_555
C229 C228 1_555 1_555
C230 C225 1_555 1_555
H209 C230 1_555 1_555
C231 C225 1_555 1_555
H210 C231 1_555 1_555
H211 C231 1_555 1_555
H212 C231 1_555 1_555
C232 C227 1_555 1_555
H213 C232 1_555 1_555
H214 C232 1_555 1_555
H215 C232 1_555 1_555
C233 C229 1_555 1_555
H216 C233 1_555 1_555
H217 C233 1_555 1_555
H218 C233 1_555 1_555
C9 C34 1_555 1_555
C17 C43 1_555 1_555
C20 C21 1_555 1_555
C21 C22 1_555 1_555
C23 C24 1_555 1_555
N3 C25 1_555 1_555
C30 C31 1_555 1_555
C30 C44 1_555 1_555
N4 C32 1_555 1_555
C33 C34 1_555 1_555
C43 C44 1_555 1_555
C45 C70 1_555 1_555
C53 C79 1_555 1_555
C56 C57 1_555 1_555
C57 C58 1_555 1_555
C59 C60 1_555 1_555
N7 C61 1_555 1_555
C66 C67 1_555 1_555
C66 C80 1_555 1_555
N8 C68 1_555 1_555
C69 C70 1_555 1_555
C79 C80 1_555 1_555
C81 C106 1_555 1_555
C89 C115 1_555 1_555
C92 C93 1_555 1_555
C93 C94 1_555 1_555
C95 C96 1_555 1_555
N11 C97 1_555 1_555
C102 C103 1_555 1_555
C102 C116 1_555 1_555
N12 C104 1_555 1_555
C105 C106 1_555 1_555
C115 C116 1_555 1_555
C117 C122 1_555 1_555
C121 C122 1_555 1_555
C123 C128 1_555 1_555
C127 C128 1_555 1_555
C129 C134 1_555 1_555
C133 C134 1_555 1_555
C135 C140 1_555 1_555
C139 C140 1_555 1_555
C141 C146 1_555 1_555
C145 C146 1_555 1_555
C147 C152 1_555 1_555
C151 C152 1_555 1_555
C157 C158 1_555 1_555
C166 C167 1_555 1_555
C175 C176 1_555 1_555
C184 C185 1_555 1_555
C193 C194 1_555 1_555
C202 C203 1_555 1_555
C211 C212 1_555 1_555
C220 C221 1_555 1_555
C229 C230 1_555 1_555

#END
