
#######################################################################
#
#                 Cambridge Crystallographic Data Centre
#                                CCDC 
#
#######################################################################
#
# If this CIF has been generated from an entry in the Cambridge 
# Structural Database, then it will include bibliographic, chemical, 
# crystal, experimental, refinement or atomic coordinate data resulting 
# from the CCDC's data processing and validation procedures.
#
#######################################################################

data_FUYSEZ
_chemical_formula_moiety         'C152 H110 N12,10(C9 H12)'
_chemical_name_systematic        
"tris(13,14-(9,10-Dihydroanthracene-9,10-diyl)-2,9-di-t-butyl-4,7,11,16-tetraazadibenzo[hi,qr]pentacene)[5,6-d:5',6'-k:5'',6''-r]triptycene 1,3,5-trimethylbenzene solvate"
_symmetry_cell_setting           monoclinic
_symmetry_space_group_name_H-M   'C 2/c'
_symmetry_Int_Tables_number      15
_space_group_name_Hall           '-C 2yn'
loop_
_symmetry_equiv_pos_site_id
_symmetry_equiv_pos_as_xyz
1 x,y,z
2 -x,y,1/2-z
3 1/2+x,1/2+y,z
4 1/2-x,1/2+y,1/2-z
5 -x,-y,-z
6 x,-y,1/2+z
7 1/2-x,1/2-y,-z
8 1/2+x,1/2-y,1/2+z
_cell_length_a                   38.1940(16)
_cell_length_b                   63.822(3)
_cell_length_c                   11.3050(5)
_cell_angle_alpha                90
_cell_angle_beta                 107.190(2)
_cell_angle_gamma                90
_cell_volume                     26326.3
_exptl_crystal_colour            yellow
_exptl_crystal_description       polyhedron
_cell_formula_units_Z            4
loop_
_atom_site_label
_atom_site_type_symbol
_atom_site_fract_x
_atom_site_fract_y
_atom_site_fract_z
C1 C 0.48006(12) 0.18554(7) -0.1736(5)
H1 H 0.4648 0.1856 -0.1154
N1 N 0.57470(11) 0.14551(7) 0.1395(4)
C2 C 0.51632(12) 0.17442(7) -0.1221(5)
N2 N 0.61892(11) 0.14662(7) -0.0218(4)
N3 N 0.71168(10) 0.08434(7) 0.5766(4)
C3 C 0.53854(12) 0.17469(7) -0.2038(5)
N4 N 0.75683(10) 0.08512(6) 0.4176(4)
C4 C 0.57238(12) 0.16553(7) -0.1701(5)
H2 H 0.5870 0.1658 -0.2250
N5 N 0.47706(11) 0.26329(6) -0.1717(4)
C5 C 0.58572(13) 0.15567(8) -0.0530(5)
C6 C 0.56327(13) 0.15516(8) 0.0263(5)
N6 N 0.47625(11) 0.37654(6) -0.1748(4)
C7 C 0.52839(13) 0.16493(8) -0.0087(5)
H3 H 0.5136 0.1649 0.0458
C8 C 0.60761(13) 0.13673(8) 0.1685(5)
C9 C 0.62977(13) 0.13693(8) 0.0884(5)
C10 C 0.62070(13) 0.12588(8) 0.2877(5)
C11 C 0.59937(14) 0.12565(8) 0.3694(5)
H4 H 0.5767 0.1329 0.3474
C12 C 0.61071(13) 0.11490(8) 0.4834(5)
C13 C 0.64443(13) 0.10454(8) 0.5110(5)
H5 H 0.6528 0.0971 0.5870
C14 C 0.66598(13) 0.10466(8) 0.4322(5)
C15 C 0.65444(13) 0.11540(8) 0.3189(5)
C16 C 0.67692(13) 0.11598(8) 0.2363(5)
C17 C 0.66570(13) 0.12673(8) 0.1250(5)
C18 C 0.68833(14) 0.12700(9) 0.0464(5)
H6 H 0.6802 0.1345 -0.0295
C19 C 0.72175(13) 0.11693(9) 0.0748(5)
C20 C 0.73282(13) 0.10621(8) 0.1883(5)
H7 H 0.7557 0.0991 0.2105
C21 C 0.71178(13) 0.10557(8) 0.2692(5)
C22 C 0.70146(13) 0.09396(8) 0.4678(5)
C23 C 0.72384(13) 0.09423(8) 0.3870(5)
C24 C 0.58756(14) 0.11453(9) 0.5729(5)
C25 C 0.61162(15) 0.12112(10) 0.7020(5)
H8 H 0.6208 0.1354 0.6981
H9 H 0.5971 0.1208 0.7603
H10 H 0.6323 0.1114 0.7300
C26 C 0.55517(15) 0.12966(10) 0.5334(6)
H11 H 0.5643 0.1440 0.5306
H12 H 0.5394 0.1257 0.4512
H13 H 0.5411 0.1290 0.5931
C27 C 0.57316(16) 0.09270(10) 0.5768(6)
H14 H 0.5583 0.0923 0.6340
H15 H 0.5581 0.0886 0.4938
H16 H 0.5938 0.0829 0.6052
C28 C 0.74453(14) 0.11777(10) -0.0141(6)
C29 C 0.75771(19) 0.14051(11) -0.0235(7)
H17 H 0.7724 0.1409 -0.0813
H18 H 0.7364 0.1497 -0.0536
H19 H 0.7726 0.1452 0.0584
C30 C 0.72115(17) 0.11037(11) -0.1427(6)
H20 H 0.7358 0.1109 -0.2006
H21 H 0.7129 0.0960 -0.1370
H22 H 0.6998 0.1195 -0.1725
C31 C 0.77851(16) 0.10305(12) 0.0261(6)
H23 H 0.7924 0.1041 -0.0339
H24 H 0.7941 0.1072 0.1081
H25 H 0.7703 0.0886 0.0293
C32 C 0.74510(13) 0.07492(8) 0.6101(5)
C33 C 0.76788(13) 0.07545(8) 0.5294(5)
C34 C 0.75766(13) 0.06494(8) 0.7261(5)
H26 H 0.7426 0.0646 0.7797
C35 C 0.80246(13) 0.06568(8) 0.5684(5)
H27 H 0.8177 0.0655 0.5154
C36 C 0.79126(13) 0.05573(8) 0.7615(5)
C37 C 0.81405(13) 0.05649(8) 0.6815(5)
C38 C 0.80933(13) 0.04484(8) 0.8841(5)
H28 H 0.7934 0.0445 0.9402
C39 C 0.85067(13) 0.04578(8) 0.7387(5)
H29 H 0.8671 0.0461 0.6842
C40 C 0.81931(12) 0.02307(8) 0.8490(5)
C41 C 0.80885(13) 0.00408(9) 0.8885(5)
H30 H 0.7940 0.0038 0.9427
C42 C 0.82032(13) -0.01435(9) 0.8476(6)
H31 H 0.8139 -0.0274 0.8756
C43 C 0.84118(13) -0.01377(9) 0.7659(5)
H32 H 0.8483 -0.0266 0.7367
C44 C 0.85179(13) 0.00491(8) 0.7262(5)
H33 H 0.8660 0.0051 0.6698
C45 C 0.84142(12) 0.02360(8) 0.7699(5)
C46 C 0.84494(13) 0.05621(8) 0.9394(5)
C47 C 0.85564(14) 0.06616(8) 1.0560(5)
H34 H 0.8403 0.0658 1.1085
C48 C 0.88932(16) 0.07648(9) 1.0924(6)
H35 H 0.8971 0.0832 1.1707
C49 C 0.91155(16) 0.07694(9) 1.0146(6)
H36 H 0.9345 0.0840 1.0405
C50 C 0.90053(14) 0.06709(9) 0.8982(6)
H37 H 0.9157 0.0675 0.8451
C51 C 0.86711(13) 0.05675(8) 0.8625(5)
C52 C 0.48890(12) 0.20756(7) -0.2098(5)
C53 C 0.47777(13) 0.22577(8) -0.1686(5)
H38 H 0.4631 0.2256 -0.1137
C54 C 0.48877(12) 0.24498(8) -0.2103(5)
C55 C 0.48826(13) 0.28099(8) -0.2122(5)
C56 C 0.47538(15) 0.30098(8) -0.1736(5)
C57 C 0.45193(17) 0.30119(9) -0.1035(6)
H39 H 0.4443 0.2882 -0.0786
C58 C 0.43854(17) 0.31980(9) -0.0661(7)
C59 C 0.45105(16) 0.33849(9) -0.1049(6)
H40 H 0.4427 0.3514 -0.0812
C60 C 0.47487(14) 0.33909(8) -0.1756(5)
C61 C 0.48762(14) 0.31971(8) -0.2115(5)
C62 C 0.4121(2) 0.31909(10) 0.0105(8)
C63 C 0.4012(2) 0.34058(11) 0.0440(10)
H41 H 0.3842 0.3391 0.0934
H42 H 0.4231 0.3482 0.0921
H43 H 0.3894 0.3484 -0.0319
C64 C 0.4281(3) 0.30575(14) 0.1275(10)
H44 H 0.4107 0.3054 0.1762
H45 H 0.4324 0.2914 0.1035
H46 H 0.4513 0.3119 0.1773
C65 C 0.3768(2) 0.30770(14) -0.0642(10)
H47 H 0.3595 0.3072 -0.0152
H48 H 0.3656 0.3153 -0.1415
H49 H 0.3828 0.2934 -0.0833
C66 C 0.48749(13) 0.35875(8) -0.2129(5)
C67 C 0.48821(12) 0.39486(8) -0.2113(5)
C68 C 0.47671(13) 0.41410(8) -0.1720(5)
H50 H 0.4613 0.4143 -0.1196
C69 C 0.48822(12) 0.43237(8) -0.2111(5)
C70 C 0.47783(12) 0.45445(7) -0.1821(5)
H51 H 0.4609 0.4547 -0.1294
C71 C 0.51470(13) 0.46536(8) -0.1213(6)
C72 C 0.52531(13) 0.47490(8) -0.0054(6)
H52 H 0.5091 0.4752 0.0442
C73 C 0.55951(13) 0.48389(8) 0.0363(6)
H53 H 0.5669 0.4904 0.1153
C74 C 0.58335(14) 0.48349(8) -0.0364(6)
H54 H 0.6070 0.4896 -0.0062
C75 C 0.57295(13) 0.47438(8) -0.1497(6)
H55 H 0.5892 0.4743 -0.1991
C76 C 0.53786(13) 0.46499(8) -0.1950(6)
C1A C 0.51994(12) 0.18554(7) -0.3264(5)
H1A H 0.5352 0.1856 -0.3846
N1A N 0.42530(11) 0.14551(7) -0.6395(4)
C2A C 0.48368(12) 0.17442(7) -0.3779(5)
N2A N 0.38108(11) 0.14662(7) -0.4782(4)
N3A N 0.28832(10) 0.08434(7) -1.0766(4)
C3A C 0.46146(12) 0.17469(7) -0.2962(5)
N4A N 0.24317(10) 0.08512(6) -0.9176(4)
C4A C 0.42762(12) 0.16553(7) -0.3299(5)
H2A H 0.4130 0.1658 -0.2750
N5A N 0.52294(11) 0.26329(6) -0.3283(4)
C5A C 0.41428(13) 0.15567(8) -0.4470(5)
C6A C 0.43673(13) 0.15516(8) -0.5263(5)
N6A N 0.52375(11) 0.37654(6) -0.3252(4)
C7A C 0.47161(13) 0.16493(8) -0.4913(5)
H3A H 0.4864 0.1649 -0.5458
C8A C 0.39239(13) 0.13673(8) -0.6685(5)
C9A C 0.37023(13) 0.13693(8) -0.5884(5)
C10A C 0.37930(13) 0.12588(8) -0.7877(5)
C11A C 0.40063(14) 0.12565(8) -0.8694(5)
H4A H 0.4233 0.1329 -0.8474
C12A C 0.38929(13) 0.11490(8) -0.9834(5)
C13A C 0.35557(13) 0.10454(8) -1.0110(5)
H5A H 0.3472 0.0971 -1.0870
C14A C 0.33402(13) 0.10466(8) -0.9322(5)
C15A C 0.34556(13) 0.11540(8) -0.8189(5)
C16A C 0.32308(13) 0.11598(8) -0.7363(5)
C17A C 0.33430(13) 0.12673(8) -0.6250(5)
C18A C 0.31167(14) 0.12700(9) -0.5464(5)
H6A H 0.3198 0.1345 -0.4705
C19A C 0.27825(13) 0.11693(9) -0.5748(5)
C20A C 0.26718(13) 0.10621(8) -0.6883(5)
H7A H 0.2443 0.0991 -0.7105
C21A C 0.28822(13) 0.10557(8) -0.7692(5)
C22A C 0.29854(13) 0.09396(8) -0.9678(5)
C23A C 0.27616(13) 0.09423(8) -0.8870(5)
C24A C 0.41244(14) 0.11453(9) -1.0729(5)
C25A C 0.38838(15) 0.12112(10) -1.2020(5)
H8A H 0.3792 0.1354 -1.1981
H9A H 0.4029 0.1208 -1.2603
H10A H 0.3677 0.1114 -1.2300
C26A C 0.44483(15) 0.12966(10) -1.0334(6)
H11A H 0.4357 0.1440 -1.0306
H12A H 0.4606 0.1257 -0.9512
H13A H 0.4589 0.1290 -1.0931
C27A C 0.42684(16) 0.09270(10) -1.0768(6)
H14A H 0.4417 0.0923 -1.1340
H15A H 0.4419 0.0886 -0.9938
H16A H 0.4062 0.0829 -1.1052
C28A C 0.25547(14) 0.11777(10) -0.4859(6)
C29A C 0.24229(19) 0.14051(11) -0.4765(7)
H17A H 0.2276 0.1409 -0.4187
H18A H 0.2636 0.1497 -0.4464
H19A H 0.2274 0.1452 -0.5584
C30A C 0.27885(17) 0.11037(11) -0.3573(6)
H20A H 0.2642 0.1109 -0.2994
H21A H 0.2871 0.0960 -0.3630
H22A H 0.3002 0.1195 -0.3275
C31A C 0.22149(16) 0.10305(12) -0.5261(6)
H23A H 0.2076 0.1041 -0.4661
H24A H 0.2059 0.1072 -0.6081
H25A H 0.2297 0.0886 -0.5293
C32A C 0.25490(13) 0.07492(8) -1.1101(5)
C33A C 0.23212(13) 0.07545(8) -1.0294(5)
C34A C 0.24234(13) 0.06494(8) -1.2261(5)
H26A H 0.2574 0.0646 -1.2797
C35A C 0.19754(13) 0.06568(8) -1.0684(5)
H27A H 0.1823 0.0655 -1.0154
C36A C 0.20874(13) 0.05573(8) -1.2615(5)
C37A C 0.18595(13) 0.05649(8) -1.1815(5)
C38A C 0.19067(13) 0.04484(8) -1.3841(5)
H28A H 0.2066 0.0445 -1.4402
C39A C 0.14933(13) 0.04578(8) -1.2387(5)
H29A H 0.1329 0.0461 -1.1842
C40A C 0.18069(12) 0.02307(8) -1.3490(5)
C41A C 0.19115(13) 0.00408(9) -1.3885(5)
H30A H 0.2060 0.0038 -1.4427
C42A C 0.17968(13) -0.01435(9) -1.3476(6)
H31A H 0.1861 -0.0274 -1.3756
C43A C 0.15882(13) -0.01377(9) -1.2659(5)
H32A H 0.1517 -0.0266 -1.2367
C44A C 0.14821(13) 0.00491(8) -1.2262(5)
H33A H 0.1340 0.0051 -1.1698
C45A C 0.15858(12) 0.02360(8) -1.2699(5)
C46A C 0.15506(13) 0.05621(8) -1.4394(5)
C47A C 0.14436(14) 0.06616(8) -1.5560(5)
H34A H 0.1597 0.0658 -1.6085
C48A C 0.11068(16) 0.07648(9) -1.5924(6)
H35A H 0.1029 0.0832 -1.6707
C49A C 0.08845(16) 0.07694(9) -1.5146(6)
H36A H 0.0655 0.0840 -1.5405
C50A C 0.09947(14) 0.06709(9) -1.3982(6)
H37A H 0.0843 0.0675 -1.3451
C51A C 0.13289(13) 0.05675(8) -1.3625(5)
C52A C 0.51110(12) 0.20756(7) -0.2902(5)
C53A C 0.52223(13) 0.22577(8) -0.3314(5)
H38A H 0.5369 0.2256 -0.3863
C54A C 0.51123(12) 0.24498(8) -0.2897(5)
C55A C 0.51174(13) 0.28099(8) -0.2878(5)
C56A C 0.52462(15) 0.30098(8) -0.3264(5)
C57A C 0.54807(17) 0.30119(9) -0.3965(6)
H39A H 0.5557 0.2882 -0.4214
C58A C 0.56146(17) 0.31980(9) -0.4339(7)
C59A C 0.54895(16) 0.33849(9) -0.3951(6)
H40A H 0.5573 0.3514 -0.4188
C60A C 0.52513(14) 0.33909(8) -0.3244(5)
C61A C 0.51238(14) 0.31971(8) -0.2885(5)
C62A C 0.5879(2) 0.31909(10) -0.5105(8)
C63A C 0.5988(2) 0.34058(11) -0.5440(10)
H41A H 0.6158 0.3391 -0.5934
H42A H 0.5769 0.3482 -0.5921
H43A H 0.6106 0.3484 -0.4681
C64A C 0.5719(3) 0.30575(14) -0.6275(10)
H44A H 0.5893 0.3054 -0.6762
H45A H 0.5676 0.2914 -0.6035
H46A H 0.5487 0.3119 -0.6773
C65A C 0.6232(2) 0.30770(14) -0.4358(10)
H47A H 0.6405 0.3072 -0.4848
H48A H 0.6344 0.3153 -0.3585
H49A H 0.6172 0.2934 -0.4167
C66A C 0.51251(13) 0.35875(8) -0.2871(5)
C67A C 0.51179(12) 0.39486(8) -0.2887(5)
C68A C 0.52329(13) 0.41410(8) -0.3280(5)
H50A H 0.5387 0.4143 -0.3804
C69A C 0.51178(12) 0.43237(8) -0.2889(5)
C70A C 0.52217(12) 0.45445(7) -0.3179(5)
H51A H 0.5391 0.4547 -0.3706
C71A C 0.48530(13) 0.46536(8) -0.3787(6)
C72A C 0.47469(13) 0.47490(8) -0.4946(6)
H52A H 0.4909 0.4752 -0.5442
C73A C 0.44049(13) 0.48389(8) -0.5363(6)
H53A H 0.4331 0.4904 -0.6153
C74A C 0.41665(14) 0.48349(8) -0.4636(6)
H54A H 0.3930 0.4896 -0.4938
C75A C 0.42705(13) 0.47438(8) -0.3503(6)
H55A H 0.4108 0.4743 -0.3009
C76A C 0.46214(13) 0.46499(8) -0.3050(6)
C77 C 0.61542(17) 0.06104(10) 0.2614(5)
C78 C 0.63224(12) 0.06273(9) 0.1683(6)
H56 H 0.6547 0.0556 0.1761
C79 C 0.61621(16) 0.07477(11) 0.0639(5)
C80 C 0.58337(17) 0.08513(10) 0.0526(5)
H57 H 0.5724 0.0934 -0.0188
C81 C 0.56655(13) 0.08344(10) 0.1457(6)
C82 C 0.58257(17) 0.07139(11) 0.2501(5)
H58 H 0.5711 0.0702 0.3138
C83 C 0.6330(3) 0.04869(15) 0.3740(8)
H59 H 0.6404 0.0350 0.3502
H60 H 0.6157 0.0467 0.4220
H61 H 0.6547 0.0562 0.4245
C84 C 0.6317(3) 0.07840(16) -0.0413(10)
H62 H 0.6129 0.0846 -0.1110
H63 H 0.6397 0.0650 -0.0671
H64 H 0.6527 0.0879 -0.0149
C85 C 0.5334(2) 0.09453(16) 0.1384(11)
H65 H 0.5172 0.0941 0.0531
H66 H 0.5392 0.1091 0.1637
H67 H 0.5211 0.0879 0.1935
C86 C 0.39615(18) 0.34765(11) -0.4171(6)
C87 C 0.39014(17) 0.32631(12) -0.4082(6)
H68 H 0.3740 0.3215 -0.3642
C88 C 0.4078(2) 0.31197(9) -0.4636(7)
C89 C 0.4314(2) 0.31897(15) -0.5280(6)
H69 H 0.4434 0.3092 -0.5659
C90 C 0.43740(18) 0.34031(17) -0.5369(6)
C91 C 0.4198(2) 0.35465(11) -0.4815(7)
H70 H 0.4239 0.3692 -0.4876
C92 C 0.3781(3) 0.3634(2) -0.3523(12)
H71 H 0.3583 0.3565 -0.3282
H72 H 0.3680 0.3750 -0.4087
H73 H 0.3964 0.3688 -0.2783
C93 C 0.4023(4) 0.28846(17) -0.4536(14)
H74 H 0.3998 0.2852 -0.3717
H75 H 0.4235 0.2810 -0.4649
H76 H 0.3800 0.2841 -0.5176
C94 C 0.4643(4) 0.3475(3) -0.6048(13)
H77 H 0.4604 0.3393 -0.6810
H78 H 0.4894 0.3454 -0.5516
H79 H 0.4603 0.3624 -0.6257
C95 C 0.61856(14) 0.58492(10) 0.0508(5)
C96 C 0.60923(16) 0.56383(9) 0.0354(6)
H80 H 0.6235 0.5537 0.0905
C97 C 0.57900(17) 0.55755(8) -0.0607(6)
C98 C 0.55810(16) 0.57237(11) -0.1414(6)
H81 H 0.5374 0.5681 -0.2071
C99 C 0.5674(2) 0.59345(10) -0.1260(7)
C100 C 0.5977(2) 0.59973(7) -0.0299(7)
H82 H 0.6040 0.6141 -0.0193
C101 C 0.6511(2) 0.59203(18) 0.1536(9)
H83 H 0.6435 0.5953 0.2270
H84 H 0.6616 0.6046 0.1274
H85 H 0.6696 0.5809 0.1736
C102 C 0.5684(4) 0.53487(14) -0.0850(14)
H86 H 0.5459 0.5339 -0.1546
H87 H 0.5642 0.5287 -0.0110
H88 H 0.5882 0.5273 -0.1052
C103 C 0.5492(7) 0.6098(3) -0.221(2)
H89 H 0.5245 0.6051 -0.2663
H90 H 0.5636 0.6118 -0.2786
H91 H 0.5477 0.6230 -0.1787
C104 C 0.72243(11) 0.00080(5) 0.4629(4)
C105 C 0.70236(11) -0.00661(7) 0.3471(3)
H92 H 0.6945 0.0028 0.2792
C106 C 0.69370(10) -0.02777(8) 0.3307(3)
C107 C 0.70513(11) -0.04152(5) 0.4300(4)
H93 H 0.6992 -0.0560 0.4187
C108 C 0.72520(11) -0.03411(6) 0.5458(4)
C109 C 0.73385(10) -0.01295(7) 0.5623(3)
H94 H 0.7476 -0.0079 0.6414
C110 C 0.7324(2) 0.02386(10) 0.4802(9)
H95 H 0.7205 0.0315 0.4035
H96 H 0.7590 0.0254 0.5007
H97 H 0.7240 0.0296 0.5476
C111 C 0.6701(2) -0.03567(17) 0.2039(7)
H98 H 0.6819 -0.0320 0.1407
H99 H 0.6459 -0.0291 0.1834
H100 H 0.6675 -0.0509 0.2068
C112 C 0.7389(3) -0.04875(13) 0.6569(8)
H101 H 0.7236 -0.0614 0.6435
H102 H 0.7374 -0.0416 0.7319
H103 H 0.7644 -0.0527 0.6664
C113 C 0.82687(17) 0.13227(7) 0.7006(6)
C114 C 0.8120(2) 0.13142(9) 0.5727(6)
H104 H 0.8096 0.1183 0.5311
C115 C 0.8007(2) 0.14973(12) 0.5056(5)
C116 C 0.8043(2) 0.16888(9) 0.5665(6)
H105 H 0.7966 0.1814 0.5207
C117 C 0.81915(17) 0.16973(7) 0.6945(6)
C118 C 0.83043(15) 0.15143(9) 0.7615(5)
H106 H 0.8406 0.1520 0.8490
C119 C 0.8408(2) 0.11254(12) 0.7660(9)
H107 H 0.8200 0.1037 0.7695
H108 H 0.8560 0.1157 0.8503
H109 H 0.8554 0.1051 0.7216
C120 C 0.7886(3) 0.14834(18) 0.3642(9)
H110 H 0.8081 0.1419 0.3365
H111 H 0.7835 0.1624 0.3290
H112 H 0.7664 0.1398 0.3364
C121 C 0.8216(4) 0.19019(15) 0.7614(11)
H113 H 0.8073 0.2008 0.7048
H114 H 0.8473 0.1946 0.7914
H115 H 0.8118 0.1885 0.8319
loop_
_geom_bond_atom_site_label_1
_geom_bond_atom_site_label_2
_geom_bond_site_symmetry_1
_geom_bond_site_symmetry_2
C1 H1 1_555 1_555
N1 C6 1_555 1_555
C2 C1 1_555 1_555
N2 C5 1_555 1_555
N3 C22 1_555 1_555
C3 C2 1_555 1_555
N4 C23 1_555 1_555
C4 C3 1_555 1_555
H2 C4 1_555 1_555
N5 C54 1_555 1_555
C5 C4 1_555 1_555
C6 C5 1_555 1_555
N6 C66 1_555 1_555
C7 C2 1_555 1_555
H3 C7 1_555 1_555
C8 N1 1_555 1_555
C9 N2 1_555 1_555
C10 C8 1_555 1_555
C11 C10 1_555 1_555
H4 C11 1_555 1_555
C12 C11 1_555 1_555
C13 C12 1_555 1_555
H5 C13 1_555 1_555
C14 C13 1_555 1_555
C15 C10 1_555 1_555
C16 C15 1_555 1_555
C17 C9 1_555 1_555
C18 C17 1_555 1_555
H6 C18 1_555 1_555
C19 C18 1_555 1_555
C20 C19 1_555 1_555
H7 C20 1_555 1_555
C21 C16 1_555 1_555
C22 C14 1_555 1_555
C23 C21 1_555 1_555
C24 C12 1_555 1_555
C25 C24 1_555 1_555
H8 C25 1_555 1_555
H9 C25 1_555 1_555
H10 C25 1_555 1_555
C26 C24 1_555 1_555
H11 C26 1_555 1_555
H12 C26 1_555 1_555
H13 C26 1_555 1_555
C27 C24 1_555 1_555
H14 C27 1_555 1_555
H15 C27 1_555 1_555
H16 C27 1_555 1_555
C28 C19 1_555 1_555
C29 C28 1_555 1_555
H17 C29 1_555 1_555
H18 C29 1_555 1_555
H19 C29 1_555 1_555
C30 C28 1_555 1_555
H20 C30 1_555 1_555
H21 C30 1_555 1_555
H22 C30 1_555 1_555
C31 C28 1_555 1_555
H23 C31 1_555 1_555
H24 C31 1_555 1_555
H25 C31 1_555 1_555
C32 N3 1_555 1_555
C33 N4 1_555 1_555
C34 C32 1_555 1_555
H26 C34 1_555 1_555
C35 C33 1_555 1_555
H27 C35 1_555 1_555
C36 C34 1_555 1_555
C37 C35 1_555 1_555
C38 C36 1_555 1_555
H28 C38 1_555 1_555
C39 C37 1_555 1_555
H29 C39 1_555 1_555
C40 C38 1_555 1_555
C41 C40 1_555 1_555
H30 C41 1_555 1_555
C42 C41 1_555 1_555
H31 C42 1_555 1_555
C43 C42 1_555 1_555
H32 C43 1_555 1_555
C44 C43 1_555 1_555
H33 C44 1_555 1_555
C45 C39 1_555 1_555
C46 C38 1_555 1_555
C47 C46 1_555 1_555
H34 C47 1_555 1_555
C48 C47 1_555 1_555
H35 C48 1_555 1_555
C49 C48 1_555 1_555
H36 C49 1_555 1_555
C50 C49 1_555 1_555
H37 C50 1_555 1_555
C51 C39 1_555 1_555
C52 C1 1_555 1_555
C53 C52 1_555 1_555
H38 C53 1_555 1_555
C54 C53 1_555 1_555
C55 N5 1_555 1_555
C56 C55 1_555 1_555
C57 C56 1_555 1_555
H39 C57 1_555 1_555
C58 C57 1_555 1_555
C59 C58 1_555 1_555
H40 C59 1_555 1_555
C60 C59 1_555 1_555
C61 C56 1_555 1_555
C62 C58 1_555 1_555
C63 C62 1_555 1_555
H41 C63 1_555 1_555
H42 C63 1_555 1_555
H43 C63 1_555 1_555
C64 C62 1_555 1_555
H44 C64 1_555 1_555
H45 C64 1_555 1_555
H46 C64 1_555 1_555
C65 C62 1_555 1_555
H47 C65 1_555 1_555
H48 C65 1_555 1_555
H49 C65 1_555 1_555
C66 C60 1_555 1_555
C67 N6 1_555 1_555
C68 C67 1_555 1_555
H50 C68 1_555 1_555
C69 C68 1_555 1_555
C70 C69 1_555 1_555
H51 C70 1_555 1_555
C71 C70 1_555 1_555
C72 C71 1_555 1_555
H52 C72 1_555 1_555
C73 C72 1_555 1_555
H53 C73 1_555 1_555
C74 C73 1_555 1_555
H54 C74 1_555 1_555
C75 C74 1_555 1_555
H55 C75 1_555 1_555
C76 C71 1_555 1_555
C77 C78 1_555 1_555
C78 H56 1_555 1_555
C79 C78 1_555 1_555
C80 C79 1_555 1_555
H57 C80 1_555 1_555
C81 C80 1_555 1_555
C82 C77 1_555 1_555
H58 C82 1_555 1_555
C83 C77 1_555 1_555
H59 C83 1_555 1_555
H60 C83 1_555 1_555
H61 C83 1_555 1_555
C84 C79 1_555 1_555
H62 C84 1_555 1_555
H63 C84 1_555 1_555
H64 C84 1_555 1_555
C85 C81 1_555 1_555
H65 C85 1_555 1_555
H66 C85 1_555 1_555
H67 C85 1_555 1_555
C86 C87 1_555 1_555
C87 H68 1_555 1_555
C88 C87 1_555 1_555
C89 C88 1_555 1_555
H69 C89 1_555 1_555
C90 C89 1_555 1_555
C91 C86 1_555 1_555
H70 C91 1_555 1_555
C92 C86 1_555 1_555
H71 C92 1_555 1_555
H72 C92 1_555 1_555
H73 C92 1_555 1_555
C93 C88 1_555 1_555
H74 C93 1_555 1_555
H75 C93 1_555 1_555
H76 C93 1_555 1_555
C94 C90 1_555 1_555
H77 C94 1_555 1_555
H78 C94 1_555 1_555
H79 C94 1_555 1_555
C95 C96 1_555 1_555
C96 H80 1_555 1_555
C97 C96 1_555 1_555
C98 C97 1_555 1_555
H81 C98 1_555 1_555
C99 C98 1_555 1_555
C100 C95 1_555 1_555
H82 C100 1_555 1_555
C101 C95 1_555 1_555
H83 C101 1_555 1_555
H84 C101 1_555 1_555
H85 C101 1_555 1_555
C102 C97 1_555 1_555
H86 C102 1_555 1_555
H87 C102 1_555 1_555
H88 C102 1_555 1_555
C103 C99 1_555 1_555
H89 C103 1_555 1_555
H90 C103 1_555 1_555
H91 C103 1_555 1_555
C104 C105 1_555 1_555
C105 H92 1_555 1_555
C106 C105 1_555 1_555
C107 C106 1_555 1_555
H93 C107 1_555 1_555
C108 C107 1_555 1_555
C109 C104 1_555 1_555
H94 C109 1_555 1_555
C110 C104 1_555 1_555
H95 C110 1_555 1_555
H96 C110 1_555 1_555
H97 C110 1_555 1_555
C111 C106 1_555 1_555
H98 C111 1_555 1_555
H99 C111 1_555 1_555
H100 C111 1_555 1_555
C112 C108 1_555 1_555
H101 C112 1_555 1_555
H102 C112 1_555 1_555
H103 C112 1_555 1_555
C113 C114 1_555 1_555
C114 H104 1_555 1_555
C115 C114 1_555 1_555
C116 C115 1_555 1_555
H105 C116 1_555 1_555
C117 C116 1_555 1_555
C118 C113 1_555 1_555
H106 C118 1_555 1_555
C119 C113 1_555 1_555
H107 C119 1_555 1_555
H108 C119 1_555 1_555
H109 C119 1_555 1_555
C120 C115 1_555 1_555
H110 C120 1_555 1_555
H111 C120 1_555 1_555
H112 C120 1_555 1_555
C121 C117 1_555 1_555
H113 C121 1_555 1_555
H114 C121 1_555 1_555
H115 C121 1_555 1_555
C1A C3 1_555 1_555
H1A C1A 1_555 1_555
N1A C6A 1_555 1_555
C2A C1A 1_555 1_555
N2A C5A 1_555 1_555
N3A C22A 1_555 1_555
C3A C1 1_555 1_555
N4A C23A 1_555 1_555
C4A C3A 1_555 1_555
H2A C4A 1_555 1_555
N5A C54A 1_555 1_555
C5A C4A 1_555 1_555
C6A C5A 1_555 1_555
N6A C66A 1_555 1_555
C7A C2A 1_555 1_555
H3A C7A 1_555 1_555
C8A N1A 1_555 1_555
C9A N2A 1_555 1_555
C10A C8A 1_555 1_555
C11A C10A 1_555 1_555
H4A C11A 1_555 1_555
C12A C11A 1_555 1_555
C13A C12A 1_555 1_555
H5A C13A 1_555 1_555
C14A C13A 1_555 1_555
C15A C10A 1_555 1_555
C16A C15A 1_555 1_555
C17A C9A 1_555 1_555
C18A C17A 1_555 1_555
H6A C18A 1_555 1_555
C19A C18A 1_555 1_555
C20A C19A 1_555 1_555
H7A C20A 1_555 1_555
C21A C16A 1_555 1_555
C22A C14A 1_555 1_555
C23A C21A 1_555 1_555
C24A C12A 1_555 1_555
C25A C24A 1_555 1_555
H8A C25A 1_555 1_555
H9A C25A 1_555 1_555
H10A C25A 1_555 1_555
C26A C24A 1_555 1_555
H11A C26A 1_555 1_555
H12A C26A 1_555 1_555
H13A C26A 1_555 1_555
C27A C24A 1_555 1_555
H14A C27A 1_555 1_555
H15A C27A 1_555 1_555
H16A C27A 1_555 1_555
C28A C19A 1_555 1_555
C29A C28A 1_555 1_555
H17A C29A 1_555 1_555
H18A C29A 1_555 1_555
H19A C29A 1_555 1_555
C30A C28A 1_555 1_555
H20A C30A 1_555 1_555
H21A C30A 1_555 1_555
H22A C30A 1_555 1_555
C31A C28A 1_555 1_555
H23A C31A 1_555 1_555
H24A C31A 1_555 1_555
H25A C31A 1_555 1_555
C32A N3A 1_555 1_555
C33A N4A 1_555 1_555
C34A C32A 1_555 1_555
H26A C34A 1_555 1_555
C35A C33A 1_555 1_555
H27A C35A 1_555 1_555
C36A C34A 1_555 1_555
C37A C35A 1_555 1_555
C38A C36A 1_555 1_555
H28A C38A 1_555 1_555
C39A C37A 1_555 1_555
H29A C39A 1_555 1_555
C40A C38A 1_555 1_555
C41A C40A 1_555 1_555
H30A C41A 1_555 1_555
C42A C41A 1_555 1_555
H31A C42A 1_555 1_555
C43A C42A 1_555 1_555
H32A C43A 1_555 1_555
C44A C43A 1_555 1_555
H33A C44A 1_555 1_555
C45A C39A 1_555 1_555
C46A C38A 1_555 1_555
C47A C46A 1_555 1_555
H34A C47A 1_555 1_555
C48A C47A 1_555 1_555
H35A C48A 1_555 1_555
C49A C48A 1_555 1_555
H36A C49A 1_555 1_555
C50A C49A 1_555 1_555
H37A C50A 1_555 1_555
C51A C39A 1_555 1_555
C52A C52 1_555 1_555
C53A C52A 1_555 1_555
H38A C53A 1_555 1_555
C54A C54 1_555 1_555
C55A C55 1_555 1_555
C56A C55A 1_555 1_555
C57A C56A 1_555 1_555
H39A C57A 1_555 1_555
C58A C57A 1_555 1_555
C59A C58A 1_555 1_555
H40A C59A 1_555 1_555
C60A C59A 1_555 1_555
C61A C61 1_555 1_555
C62A C58A 1_555 1_555
C63A C62A 1_555 1_555
H41A C63A 1_555 1_555
H42A C63A 1_555 1_555
H43A C63A 1_555 1_555
C64A C62A 1_555 1_555
H44A C64A 1_555 1_555
H45A C64A 1_555 1_555
H46A C64A 1_555 1_555
C65A C62A 1_555 1_555
H47A C65A 1_555 1_555
H48A C65A 1_555 1_555
H49A C65A 1_555 1_555
C66A C66 1_555 1_555
C67A C67 1_555 1_555
C68A C67A 1_555 1_555
H50A C68A 1_555 1_555
C69A C69 1_555 1_555
C70A C76 1_555 1_555
H51A C70A 1_555 1_555
C71A C70A 1_555 1_555
C72A C71A 1_555 1_555
H52A C72A 1_555 1_555
C73A C72A 1_555 1_555
H53A C73A 1_555 1_555
C74A C73A 1_555 1_555
H54A C74A 1_555 1_555
C75A C74A 1_555 1_555
H55A C75A 1_555 1_555
C76A C70 1_555 1_555
C6 C7 1_555 1_555
C8 C9 1_555 1_555
C14 C15 1_555 1_555
C16 C17 1_555 1_555
C20 C21 1_555 1_555
C22 C23 1_555 1_555
C32 C33 1_555 1_555
C36 C37 1_555 1_555
C40 C45 1_555 1_555
C44 C45 1_555 1_555
C46 C51 1_555 1_555
C50 C51 1_555 1_555
C60 C61 1_555 1_555
C75 C76 1_555 1_555
C81 C82 1_555 1_555
C90 C91 1_555 1_555
C99 C100 1_555 1_555
C108 C109 1_555 1_555
C117 C118 1_555 1_555
C1A C52A 1_555 1_555
C2A C3A 1_555 1_555
N5A C55A 1_555 1_555
C6A C7A 1_555 1_555
N6A C67A 1_555 1_555
C8A C9A 1_555 1_555
C14A C15A 1_555 1_555
C16A C17A 1_555 1_555
C20A C21A 1_555 1_555
C22A C23A 1_555 1_555
C32A C33A 1_555 1_555
C36A C37A 1_555 1_555
C40A C45A 1_555 1_555
C44A C45A 1_555 1_555
C46A C51A 1_555 1_555
C50A C51A 1_555 1_555
C53A C54A 1_555 1_555
C56A C61A 1_555 1_555
C60A C61A 1_555 1_555
C60A C66A 1_555 1_555
C68A C69A 1_555 1_555
C69A C70A 1_555 1_555
C71A C76A 1_555 1_555
C75A C76A 1_555 1_555

#END
