
#######################################################################
#
#                 Cambridge Crystallographic Data Centre
#                                CCDC 
#
#######################################################################
#
# If this CIF has been generated from an entry in the Cambridge 
# Structural Database, then it will include bibliographic, chemical, 
# crystal, experimental, refinement or atomic coordinate data resulting 
# from the CCDC's data processing and validation procedures.
#
#######################################################################

data_FUYYII
_chemical_formula_moiety         'C80 H128 Mg1 Na2 O9,C4 H8 O1'
_chemical_name_systematic        
"(\m~3~-\h^6^-2,2'-Ethylidenebis(4,6-di-t-butylphenolato))-(\m~2~-2,2'-ethylidenebis(4,6-di-t-butylphenolato))-pentakis(tetrahydrofuran)-magnesium-di-sodium tetrahydrofuran solvate"
_symmetry_cell_setting           monoclinic
_symmetry_space_group_name_H-M   'P 21/c'
_symmetry_Int_Tables_number      14
_space_group_name_Hall           '-P 2ybc'
loop_
_symmetry_equiv_pos_site_id
_symmetry_equiv_pos_as_xyz
1 x,y,z
2 -x,1/2+y,1/2-z
3 -x,-y,-z
4 x,1/2-y,1/2+z
_cell_length_a                   23.0690(9)
_cell_length_b                   19.8537(8)
_cell_length_c                   20.7583(8)
_cell_angle_alpha                90
_cell_angle_beta                 115.221(2)
_cell_angle_gamma                90
_cell_volume                     8601.07
_exptl_crystal_colour            colorless
_exptl_crystal_description       block
_cell_formula_units_Z            4
loop_
_atom_site_label
_atom_site_type_symbol
_atom_site_fract_x
_atom_site_fract_y
_atom_site_fract_z
Mg1 Mg 0.24883(4) 0.10384(5) 0.35176(5)
Na1 Na 0.16192(6) 0.16959(6) 0.45891(7)
Na2 Na 0.27979(7) -0.06423(8) 0.38222(11)
O1 O 0.23438(10) 0.04065(13) 0.27681(12)
O2 O 0.31600(10) 0.16478(10) 0.36450(12)
O3 O 0.17323(8) 0.14773(9) 0.35233(10)
O4 O 0.26748(8) 0.03788(9) 0.42975(10)
O5 O 0.06448(11) 0.21283(14) 0.45310(14)
O6 O 0.21696(11) 0.24411(13) 0.54695(13)
O7 O 0.23950(18) -0.14924(19) 0.4531(3)
O8 O 0.38012(13) -0.12407(16) 0.44783(17)
O9 O 0.25788(16) -0.14514(15) 0.29124(18)
C1 C 0.25434(14) 0.03027(16) 0.22619(16)
C2 C 0.21106(14) 0.01387(18) 0.15488(18)
C3 C 0.23610(15) -0.00324(18) 0.10765(17)
H1 H 0.2077 -0.0153 0.0617
C4 C 0.30125(15) -0.00358(17) 0.12448(17)
C5 C 0.34169(15) 0.01522(15) 0.19227(17)
H2 H 0.3855 0.0165 0.2047
C6 C 0.32025(13) 0.03263(14) 0.24357(15)
C7 C 0.36877(13) 0.05405(14) 0.31771(15)
H3 H 0.3467 0.0511 0.3488
C8 C 0.39017(13) 0.12651(16) 0.32062(15)
C9 C 0.43750(14) 0.14275(17) 0.29893(17)
H4 H 0.4542 0.1085 0.2813
C10 C 0.46116(14) 0.20699(18) 0.30218(18)
C11 C 0.43665(15) 0.25620(17) 0.33026(18)
H5 H 0.4526 0.2997 0.3337
C12 C 0.38918(13) 0.24441(16) 0.35381(16)
C13 C 0.36344(13) 0.17841(15) 0.34671(15)
C14 C 0.23584(13) 0.04027(13) 0.47042(15)
C15 C 0.26739(13) 0.05259(15) 0.54454(16)
C16 C 0.23136(14) 0.05097(15) 0.58394(16)
H6 H 0.2527 0.0577 0.6328
C17 C 0.16614(14) 0.04005(16) 0.55521(16)
C18 C 0.13555(14) 0.03105(15) 0.48163(17)
H7 H 0.0914 0.0251 0.4602
C19 C 0.16826(13) 0.03062(14) 0.43912(15)
C20 C 0.13215(13) 0.01578(14) 0.35992(15)
H8 H 0.1648 0.0129 0.3415
C21 C 0.08598(12) 0.07112(15) 0.31694(14)
C22 C -0.02012(13) 0.10581(17) 0.23083(16)
C23 C 0.00448(14) 0.16993(17) 0.23257(16)
H9 H -0.0232 0.2031 0.2045
C24 C 0.06836(13) 0.18770(15) 0.27385(16)
C25 C 0.11065(13) 0.13625(15) 0.31500(15)
C26 C 0.13812(16) 0.0156(2) 0.1313(2)
C27 C 0.11783(18) 0.0853(3) 0.1446(3)
H10 H 0.1333 0.1186 0.1223
H11 H 0.1355 0.0936 0.1949
H12 H 0.0719 0.0875 0.1249
C28 C 0.11918(19) -0.0368(3) 0.1734(3)
H13 H 0.0737 -0.0352 0.1587
H14 H 0.1409 -0.0269 0.2234
H15 H 0.1312 -0.0809 0.1646
C29 C 0.10081(18) -0.0011(3) 0.0527(2)
H16 H 0.1126 0.0297 0.0247
H17 H 0.0557 0.0027 0.0397
H18 H 0.1105 -0.0463 0.0440
C30 C 0.32537(18) -0.0258(2) 0.0690(2)
C31 C 0.3072(3) -0.0992(2) 0.0487(3)
H19 H 0.3308 -0.1276 0.0888
H20 H 0.3172 -0.1113 0.0098
H21 H 0.2621 -0.1050 0.0346
C32 C 0.3960(2) -0.0171(4) 0.0945(3)
H22 H 0.4179 -0.0414 0.1382
H23 H 0.4066 0.0298 0.1024
H24 H 0.4088 -0.0342 0.0593
C33 C 0.2907(3) 0.0148(3) 0.0006(3)
H25 H 0.2989 0.0620 0.0107
H26 H 0.2455 0.0066 -0.0182
H27 H 0.3061 0.0014 -0.0339
C34 C 0.51294(17) 0.2230(2) 0.2765(2)
C35 C 0.4861(3) 0.2068(5) 0.1972(4)
H28 H 0.5194 0.2114 0.1813
H29 H 0.4518 0.2374 0.1711
H30 H 0.4702 0.1614 0.1892
C36 C 0.5698(3) 0.1817(5) 0.3140(4)
H31 H 0.5918 0.1972 0.3622
H32 H 0.5977 0.1853 0.2906
H33 H 0.5572 0.1356 0.3138
C37 C 0.5279(4) 0.2955(3) 0.2783(6)
H34 H 0.5469 0.3108 0.3267
H35 H 0.4891 0.3202 0.2520
H36 H 0.5572 0.3026 0.2572
C38 C 0.36569(16) 0.30195(17) 0.3849(2)
C39 C 0.29522(19) 0.3174(2) 0.3359(3)
H37 H 0.2702 0.2772 0.3289
H38 H 0.2919 0.3333 0.2908
H39 H 0.2796 0.3514 0.3574
C40 C 0.3718(2) 0.2839(2) 0.4587(2)
H40 H 0.3485 0.2431 0.4561
H41 H 0.3546 0.3197 0.4764
H42 H 0.4162 0.2773 0.4902
C41 C 0.4037(2) 0.3672(2) 0.3936(3)
H43 H 0.4014 0.3809 0.3482
H44 H 0.4476 0.3598 0.4261
H45 H 0.3858 0.4019 0.4120
C42 C 0.34006(14) 0.06680(17) 0.58188(17)
C43 C 0.36430(18) 0.0771(3) 0.66246(19)
H46 H 0.3418 0.1140 0.6712
H47 H 0.4093 0.0869 0.6830
H48 H 0.3570 0.0369 0.6836
C44 C 0.37741(16) 0.0081(2) 0.5705(2)
H49 H 0.3663 0.0033 0.5206
H50 H 0.3669 -0.0326 0.5881
H51 H 0.4225 0.0167 0.5956
C45 C 0.35460(17) 0.1309(2) 0.5513(2)
H52 H 0.3295 0.1673 0.5565
H53 H 0.3441 0.1244 0.5018
H54 H 0.3993 0.1415 0.5765
C46 C 0.12898(17) 0.0352(2) 0.60141(19)
C47 C 0.1711(2) 0.0543(3) 0.6794(2)
H55 H 0.2011 0.0188 0.7020
H56 H 0.1444 0.0610 0.7040
H57 H 0.1939 0.0951 0.6809
C48 C 0.1039(3) -0.0355(3) 0.5975(3)
H58 H 0.1391 -0.0658 0.6212
H59 H 0.0812 -0.0487 0.5486
H60 H 0.0754 -0.0372 0.6203
C49 C 0.0732(2) 0.0866(3) 0.5758(3)
H61 H 0.0564 0.0902 0.6108
H62 H 0.0400 0.0718 0.5314
H63 H 0.0887 0.1298 0.5694
C50 C -0.08926(15) 0.0900(2) 0.17975(18)
C51 C -0.1059(2) 0.0168(3) 0.1808(3)
H64 H -0.0985 0.0041 0.2283
H65 H -0.0795 -0.0102 0.1656
H66 H -0.1501 0.0097 0.1493
C52 C -0.13471(19) 0.1321(3) 0.2002(3)
H67 H -0.1297 0.1193 0.2469
H68 H -0.1782 0.1242 0.1665
H69 H -0.1247 0.1790 0.2001
C53 C -0.0998(2) 0.1092(3) 0.1042(2)
H70 H -0.0692 0.0861 0.0923
H71 H -0.0946 0.1569 0.1017
H72 H -0.1424 0.0965 0.0713
C54 C 0.09174(15) 0.25821(16) 0.26877(18)
C55 C 0.13311(18) 0.25499(19) 0.2272(2)
H73 H 0.1680 0.2243 0.2505
H74 H 0.1497 0.2990 0.2257
H75 H 0.1075 0.2397 0.1796
C56 C 0.13098(18) 0.28940(17) 0.3418(2)
H76 H 0.1688 0.2629 0.3669
H77 H 0.1057 0.2905 0.3685
H78 H 0.1431 0.3344 0.3359
C57 C 0.03688(18) 0.30849(19) 0.2290(2)
H79 H 0.0085 0.3101 0.2519
H80 H 0.0136 0.2941 0.1805
H81 H 0.0545 0.3525 0.2299
C58 C 0.42526(15) 0.00481(18) 0.34788(18)
H82 H 0.4546 0.0192 0.3946
H83 H 0.4468 0.0038 0.3173
H84 H 0.4097 -0.0394 0.3507
C59 C 0.10119(15) -0.05410(15) 0.34876(18)
H85 H 0.1327 -0.0866 0.3767
H86 H 0.0846 -0.0661 0.2993
H87 H 0.0669 -0.0534 0.3633
C60 C 0.0029(2) 0.1887(3) 0.4077(3)
H88 H -0.0013 0.1849 0.3593
H89 H -0.0041 0.1446 0.4233
C61 C 0.0571(2) 0.2715(3) 0.4885(3)
H90 H 0.0746 0.2636 0.5394
H91 H 0.0796 0.3091 0.4799
C62 C 0.2779(3) 0.2851(3) 0.6605(3)
H92 H 0.3140 0.2633 0.6984
H93 H 0.2601 0.3182 0.6814
C63 C 0.2984(3) 0.3174(3) 0.6102(3)
H94 H 0.3049 0.3653 0.6196
H95 H 0.3379 0.2976 0.6132
C64 C 0.2295(2) 0.2356(2) 0.6198(2)
H96 H 0.2450 0.1904 0.6356
H97 H 0.1907 0.2427 0.6262
C65 C 0.2460(2) 0.3052(2) 0.5407(2)
H98 H 0.2154 0.3418 0.5276
H99 H 0.2621 0.3011 0.5047
C66 C 0.2135(7) -0.1698(5) 0.5451(6)
H100 H 0.1803 -0.1422 0.5487
H101 H 0.2398 -0.1884 0.5918
C67 C 0.2080(4) -0.2123(3) 0.4428(5)
H102 H 0.1719 -0.2136 0.3962
H103 H 0.2373 -0.2483 0.4452
C68 C 0.4496(3) -0.2123(4) 0.4610(4)
H104 H 0.4526 -0.2309 0.4193
H105 H 0.4656 -0.2454 0.4990
C69 C 0.2198(4) -0.2283(5) 0.2075(5)
H106 H 0.2206 -0.2771 0.2100
H107 H 0.1831 -0.2148 0.1645
C70 C 0.3832(3) -0.1946(3) 0.4446(4)
H108 H 0.3548 -0.2105 0.3975
H109 H 0.3703 -0.2151 0.4789
C71 C 0.2146(3) -0.1999(3) 0.2702(3)
H110 H 0.1713 -0.1848 0.2581
H111 H 0.2265 -0.2331 0.3079
C72 C 0.2945(3) -0.1473(3) 0.2493(4)
H112 H 0.2864 -0.1072 0.2201
H113 H 0.3399 -0.1495 0.2803
C73 C 0.2505(4) -0.1317(3) 0.5215(4)
H114 H 0.2407 -0.0843 0.5229
H115 H 0.2955 -0.1383 0.5529
C74 C 0.4867(3) -0.1487(4) 0.4834(3)
H116 H 0.5258 -0.1552 0.5265
H117 H 0.4975 -0.1314 0.4462
C75 C 0.44265(19) -0.1039(3) 0.4960(2)
H118 H 0.4479 -0.1080 0.5448
H119 H 0.4504 -0.0575 0.4874
C76 C 0.02151(13) 0.05814(16) 0.27497(15)
H120 H 0.0057 0.0154 0.2767
C77 C -0.0084(4) 0.2857(5) 0.4617(7)
H121 H -0.0176 0.3296 0.4390
H122 H -0.0223 0.2854 0.4997
C78 C -0.0405(3) 0.2336(7) 0.4106(7)
H123 H -0.0707 0.2105 0.4240
H124 H -0.0642 0.2536 0.3640
C79 C 0.2752(4) -0.2048(4) 0.2062(5)
H125 H 0.2678 -0.1936 0.1578
H126 H 0.3083 -0.2390 0.2239
C80 C 0.1862(6) -0.2214(6) 0.4963(6)
H127 H 0.1398 -0.2189 0.4761
H128 H 0.1996 -0.2650 0.5190
O10 O 0.403(2) 0.5835(19) 0.4016(15)
C81 C 0.3487(13) 0.5531(9) 0.3054(11)
H129 H 0.3434 0.5530 0.2565
H130 H 0.3281 0.5131 0.3126
C82 C 0.4139(11) 0.5508(7) 0.3508(17)
H131 H 0.4302 0.5054 0.3643
H132 H 0.4403 0.5759 0.3334
C83 C 0.3193(9) 0.6086(13) 0.3163(18)
H133 H 0.2805 0.5972 0.3211
H134 H 0.3099 0.6419 0.2790
C84 C 0.376(2) 0.6326(10) 0.390(2)
H135 H 0.4000 0.6700 0.3846
H136 H 0.3601 0.6434 0.4259
loop_
_geom_bond_atom_site_label_1
_geom_bond_atom_site_label_2
_geom_bond_site_symmetry_1
_geom_bond_site_symmetry_2
Mg1 O1 1_555 1_555
Na1 O3 1_555 1_555
Na2 O1 1_555 1_555
O1 C1 1_555 1_555
O2 Mg1 1_555 1_555
O3 Mg1 1_555 1_555
O4 Mg1 1_555 1_555
O5 Na1 1_555 1_555
O6 Na1 1_555 1_555
O7 Na2 1_555 1_555
O8 Na2 1_555 1_555
O9 Na2 1_555 1_555
C1 C2 1_555 1_555
C2 C3 1_555 1_555
C3 H1 1_555 1_555
C4 C3 1_555 1_555
C5 C4 1_555 1_555
H2 C5 1_555 1_555
C6 C1 1_555 1_555
C7 C6 1_555 1_555
H3 C7 1_555 1_555
C8 C7 1_555 1_555
C9 C8 1_555 1_555
H4 C9 1_555 1_555
C10 C9 1_555 1_555
C11 C10 1_555 1_555
H5 C11 1_555 1_555
C12 C11 1_555 1_555
C13 O2 1_555 1_555
C14 Na1 1_555 1_555
C15 Na1 1_555 1_555
C16 Na1 1_555 1_555
H6 C16 1_555 1_555
C17 Na1 1_555 1_555
C18 Na1 1_555 1_555
H7 C18 1_555 1_555
C19 Na1 1_555 1_555
C20 C19 1_555 1_555
H8 C20 1_555 1_555
C21 C20 1_555 1_555
C22 C23 1_555 1_555
C23 H9 1_555 1_555
C24 C23 1_555 1_555
C25 O3 1_555 1_555
C26 C2 1_555 1_555
C27 C26 1_555 1_555
H10 C27 1_555 1_555
H11 C27 1_555 1_555
H12 C27 1_555 1_555
C28 C26 1_555 1_555
H13 C28 1_555 1_555
H14 C28 1_555 1_555
H15 C28 1_555 1_555
C29 C26 1_555 1_555
H16 C29 1_555 1_555
H17 C29 1_555 1_555
H18 C29 1_555 1_555
C30 C4 1_555 1_555
C31 C30 1_555 1_555
H19 C31 1_555 1_555
H20 C31 1_555 1_555
H21 C31 1_555 1_555
C32 C30 1_555 1_555
H22 C32 1_555 1_555
H23 C32 1_555 1_555
H24 C32 1_555 1_555
C33 C30 1_555 1_555
H25 C33 1_555 1_555
H26 C33 1_555 1_555
H27 C33 1_555 1_555
C34 C10 1_555 1_555
C35 C34 1_555 1_555
H28 C35 1_555 1_555
H29 C35 1_555 1_555
H30 C35 1_555 1_555
C36 C34 1_555 1_555
H31 C36 1_555 1_555
H32 C36 1_555 1_555
H33 C36 1_555 1_555
C37 C34 1_555 1_555
H34 C37 1_555 1_555
H35 C37 1_555 1_555
H36 C37 1_555 1_555
C38 C12 1_555 1_555
C39 C38 1_555 1_555
H37 C39 1_555 1_555
H38 C39 1_555 1_555
H39 C39 1_555 1_555
C40 C38 1_555 1_555
H40 C40 1_555 1_555
H41 C40 1_555 1_555
H42 C40 1_555 1_555
C41 C38 1_555 1_555
H43 C41 1_555 1_555
H44 C41 1_555 1_555
H45 C41 1_555 1_555
C42 C15 1_555 1_555
C43 C42 1_555 1_555
H46 C43 1_555 1_555
H47 C43 1_555 1_555
H48 C43 1_555 1_555
C44 C42 1_555 1_555
H49 C44 1_555 1_555
H50 C44 1_555 1_555
H51 C44 1_555 1_555
C45 C42 1_555 1_555
H52 C45 1_555 1_555
H53 C45 1_555 1_555
H54 C45 1_555 1_555
C46 C17 1_555 1_555
C47 C46 1_555 1_555
H55 C47 1_555 1_555
H56 C47 1_555 1_555
H57 C47 1_555 1_555
C48 C46 1_555 1_555
H58 C48 1_555 1_555
H59 C48 1_555 1_555
H60 C48 1_555 1_555
C49 C46 1_555 1_555
H61 C49 1_555 1_555
H62 C49 1_555 1_555
H63 C49 1_555 1_555
C50 C22 1_555 1_555
C51 C50 1_555 1_555
H64 C51 1_555 1_555
H65 C51 1_555 1_555
H66 C51 1_555 1_555
C52 C50 1_555 1_555
H67 C52 1_555 1_555
H68 C52 1_555 1_555
H69 C52 1_555 1_555
C53 C50 1_555 1_555
H70 C53 1_555 1_555
H71 C53 1_555 1_555
H72 C53 1_555 1_555
C54 C24 1_555 1_555
C55 C54 1_555 1_555
H73 C55 1_555 1_555
H74 C55 1_555 1_555
H75 C55 1_555 1_555
C56 C54 1_555 1_555
H76 C56 1_555 1_555
H77 C56 1_555 1_555
H78 C56 1_555 1_555
C57 C54 1_555 1_555
H79 C57 1_555 1_555
H80 C57 1_555 1_555
H81 C57 1_555 1_555
C58 C7 1_555 1_555
H82 C58 1_555 1_555
H83 C58 1_555 1_555
H84 C58 1_555 1_555
C59 C20 1_555 1_555
H85 C59 1_555 1_555
H86 C59 1_555 1_555
H87 C59 1_555 1_555
C60 O5 1_555 1_555
H88 C60 1_555 1_555
H89 C60 1_555 1_555
C61 O5 1_555 1_555
H90 C61 1_555 1_555
H91 C61 1_555 1_555
C62 H92 1_555 1_555
H93 C62 1_555 1_555
C63 C62 1_555 1_555
H94 C63 1_555 1_555
H95 C63 1_555 1_555
C64 O6 1_555 1_555
H96 C64 1_555 1_555
H97 C64 1_555 1_555
C65 O6 1_555 1_555
H98 C65 1_555 1_555
H99 C65 1_555 1_555
C66 H100 1_555 1_555
H101 C66 1_555 1_555
C67 O7 1_555 1_555
H102 C67 1_555 1_555
H103 C67 1_555 1_555
C68 H104 1_555 1_555
H105 C68 1_555 1_555
C69 H106 1_555 1_555
H107 C69 1_555 1_555
C70 O8 1_555 1_555
H108 C70 1_555 1_555
H109 C70 1_555 1_555
C71 O9 1_555 1_555
H110 C71 1_555 1_555
H111 C71 1_555 1_555
C72 O9 1_555 1_555
H112 C72 1_555 1_555
H113 C72 1_555 1_555
C73 O7 1_555 1_555
H114 C73 1_555 1_555
H115 C73 1_555 1_555
C74 C68 1_555 1_555
H116 C74 1_555 1_555
H117 C74 1_555 1_555
C75 O8 1_555 1_555
H118 C75 1_555 1_555
H119 C75 1_555 1_555
C76 C21 1_555 1_555
H120 C76 1_555 1_555
C77 C61 1_555 1_555
H121 C77 1_555 1_555
H122 C77 1_555 1_555
C78 C60 1_555 1_555
H123 C78 1_555 1_555
H124 C78 1_555 1_555
C79 C69 1_555 1_555
H125 C79 1_555 1_555
H126 C79 1_555 1_555
C80 C66 1_555 1_555
H127 C80 1_555 1_555
H128 C80 1_555 1_555
O10 C82 1_555 1_555
C81 H129 1_555 1_555
H130 C81 1_555 1_555
C82 C81 1_555 1_555
H131 C82 1_555 1_555
H132 C82 1_555 1_555
C83 C81 1_555 1_555
H133 C83 1_555 1_555
H134 C83 1_555 1_555
C84 O10 1_555 1_555
H135 C84 1_555 1_555
H136 C84 1_555 1_555
Na2 O4 1_555 1_555
O4 C14 1_555 1_555
C5 C6 1_555 1_555
C8 C13 1_555 1_555
C12 C13 1_555 1_555
C14 C15 1_555 1_555
C14 C19 1_555 1_555
C15 C16 1_555 1_555
C16 C17 1_555 1_555
C17 C18 1_555 1_555
C18 C19 1_555 1_555
C21 C25 1_555 1_555
C22 C76 1_555 1_555
C24 C25 1_555 1_555
C62 C64 1_555 1_555
C63 C65 1_555 1_555
C66 C73 1_555 1_555
C67 C80 1_555 1_555
C68 C70 1_555 1_555
C69 C71 1_555 1_555
C72 C79 1_555 1_555
C74 C75 1_555 1_555
C77 C78 1_555 1_555
C83 C84 1_555 1_555

#END
