
#######################################################################
#
#                 Cambridge Crystallographic Data Centre
#                                CCDC 
#
#######################################################################
#
# If this CIF has been generated from an entry in the Cambridge 
# Structural Database, then it will include bibliographic, chemical, 
# crystal, experimental, refinement or atomic coordinate data resulting 
# from the CCDC's data processing and validation procedures.
#
#######################################################################

data_FUYYEE
_chemical_formula_moiety         'C80 H128 K2 Mg1 O9,C4 H8 O1'
_chemical_name_systematic        
"(\m~3~-\h^6^-2,2'-Ethylidenebis(4,6-di-t-butylphenolato))-(\m~2~-2,2'-ethylidenebis(4,6-di-t-butylphenolato))-pentakis(tetrahydrofuran)-magnesium-di-potassium tetrahydrofuran solvate"
_symmetry_cell_setting           orthorhombic
_symmetry_space_group_name_H-M   'P b c a'
_symmetry_Int_Tables_number      61
_space_group_name_Hall           '-P 2ac 2ab'
loop_
_symmetry_equiv_pos_site_id
_symmetry_equiv_pos_as_xyz
1 x,y,z
2 1/2-x,-y,1/2+z
3 -x,1/2+y,1/2-z
4 1/2+x,1/2-y,-z
5 -x,-y,-z
6 1/2+x,y,1/2-z
7 x,1/2-y,1/2+z
8 1/2-x,1/2+y,z
_cell_length_a                   20.2262(5)
_cell_length_b                   21.5029(5)
_cell_length_c                   41.5337(11)
_cell_angle_alpha                90
_cell_angle_beta                 90
_cell_angle_gamma                90
_cell_volume                     18063.9
_exptl_crystal_colour            colorless
_exptl_crystal_description       block
_cell_formula_units_Z            8
loop_
_atom_site_label
_atom_site_type_symbol
_atom_site_fract_x
_atom_site_fract_y
_atom_site_fract_z
O1 O 0.903(3) 0.456(3) 0.0481(15)
C1 C 0.858(3) 0.444(2) 0.0738(13)
C2 C 0.8735(17) 0.385(2) 0.0870(8)
C3 C 0.928(2) 0.360(2) 0.0695(12)
C4 C 0.9458(15) 0.404(4) 0.0454(11)
Mg1 Mg 0.39302(6) 0.45894(6) 0.13014(3)
K1 K 0.56404(5) 0.46121(5) 0.10931(3)
K2 K 0.32626(6) 0.61343(5) 0.17177(3)
O2 O 0.45603(13) 0.39275(13) 0.13461(6)
O3 O 0.33016(13) 0.44261(14) 0.09759(7)
O4 O 0.45266(12) 0.52673(12) 0.11777(6)
O5 O 0.35461(13) 0.48839(13) 0.16966(7)
O6 O 0.6374(2) 0.4736(3) 0.05333(10)
O7 O 0.6449(3) 0.5604(3) 0.12423(14)
O8 O 0.6644(2) 0.3841(2) 0.12473(13)
O9 O 0.2746(3) 0.6650(3) 0.22480(12)
O10 O 0.2376(3) 0.6841(2) 0.14464(11)
C5 C 0.46935(19) 0.3380(2) 0.12120(10)
C6 C 0.4880(2) 0.2871(2) 0.14100(10)
C7 C 0.5051(2) 0.2313(2) 0.12603(12)
H1 H 0.5179 0.1980 0.1389
C8 C 0.5039(2) 0.2227(2) 0.09279(12)
C9 C 0.4836(2) 0.2731(2) 0.07442(11)
H2 H 0.4820 0.2689 0.0522
C10 C 0.46574(18) 0.3296(2) 0.08801(10)
C11 C 0.44013(19) 0.3829(2) 0.06641(9)
H3 H 0.4422 0.4213 0.0791
C12 C 0.3679(2) 0.3728(2) 0.05692(10)
C13 C 0.3518(2) 0.3319(2) 0.03245(10)
H4 H 0.3856 0.3095 0.0227
C14 C 0.2867(3) 0.3226(2) 0.02153(11)
C15 C 0.2394(2) 0.3566(2) 0.03647(12)
H5 H 0.1960 0.3512 0.0296
C16 C 0.2506(2) 0.3994(2) 0.06158(12)
C17 C 0.3172(2) 0.4057(2) 0.07278(11)
C18 C 0.4886(3) 0.2921(2) 0.17773(11)
C19 C 0.5063(4) 0.2302(3) 0.19423(13)
H6 H 0.4745 0.1991 0.1884
H7 H 0.5060 0.2358 0.2172
H8 H 0.5496 0.2172 0.1875
C20 C 0.5406(3) 0.3417(3) 0.18859(13)
H9 H 0.5301 0.3811 0.1790
H10 H 0.5839 0.3289 0.1818
H11 H 0.5396 0.3456 0.2116
C21 C 0.4200(3) 0.3089(3) 0.19024(13)
H12 H 0.3889 0.2777 0.1836
H13 H 0.4070 0.3485 0.1817
H14 H 0.4210 0.3110 0.2133
C22 C 0.5248(3) 0.1605(2) 0.07807(13)
C23 C 0.5241(5) 0.1622(4) 0.04187(18)
H15 H 0.5526 0.1950 0.0345
H16 H 0.4799 0.1697 0.0345
H17 H 0.5395 0.1231 0.0336
C24 C 0.5967(3) 0.1451(3) 0.08819(18)
H18 H 0.6261 0.1761 0.0797
H19 H 0.6087 0.1050 0.0799
H20 H 0.5997 0.1447 0.1113
C25 C 0.4818(4) 0.1077(3) 0.0927(2)
H21 H 0.4363 0.1141 0.0869
H22 H 0.4859 0.1082 0.1157
H23 H 0.4965 0.0683 0.0846
C26 C 0.4847(2) 0.3921(2) 0.03648(11)
H24 H 0.4637 0.3741 0.0180
H25 H 0.5266 0.3722 0.0400
H26 H 0.4915 0.4358 0.0329
C27 C 0.2723(3) 0.2756(3) -0.00421(14)
C28 C 0.2968(7) 0.2124(4) 0.0048(3)
H27 H 0.2869 0.1836 -0.0122
H28 H 0.2754 0.1991 0.0243
H29 H 0.3437 0.2139 0.0082
C29 C 0.3037(9) 0.2930(7) -0.0335(2)
H30 H 0.2885 0.3334 -0.0399
H31 H 0.2932 0.2632 -0.0499
H32 H 0.3507 0.2941 -0.0303
C30 C 0.2019(5) 0.2641(6) -0.0093(3)
H33 H 0.1803 0.3024 -0.0149
H34 H 0.1828 0.2478 0.0101
H35 H 0.1964 0.2346 -0.0264
C31 C 0.1934(2) 0.4354(3) 0.07660(14)
C32 C 0.1839(3) 0.4169(3) 0.11171(16)
H36 H 0.1742 0.3733 0.1130
H37 H 0.1478 0.4401 0.1207
H38 H 0.2235 0.4257 0.1235
C33 C 0.1283(3) 0.4255(4) 0.05924(19)
H39 H 0.1168 0.3822 0.0599
H40 H 0.1326 0.4386 0.0372
H41 H 0.0943 0.4494 0.0696
C34 C 0.2075(3) 0.5061(3) 0.07496(17)
H42 H 0.2133 0.5183 0.0529
H43 H 0.2470 0.5153 0.0869
H44 H 0.1710 0.5285 0.0841
C35 C 0.45703(18) 0.5808(2) 0.13307(10)
C36 C 0.4469(2) 0.6381(2) 0.11709(10)
C37 C 0.4519(2) 0.6927(2) 0.13466(12)
H45 H 0.4449 0.7300 0.1239
C38 C 0.4666(3) 0.6952(2) 0.16730(14)
C39 C 0.4764(2) 0.6388(2) 0.18235(11)
H46 H 0.4862 0.6388 0.2042
C40 C 0.47233(19) 0.5824(2) 0.16663(11)
C41 C 0.48494(19) 0.52212(18) 0.18524(10)
H47 H 0.4817 0.4881 0.1696
C42 C 0.4327(2) 0.50997(18) 0.21091(10)
C43 C 0.4465(2) 0.51469(19) 0.24344(12)
H48 H 0.4885 0.5278 0.2495
C44 C 0.4013(3) 0.5009(2) 0.26739(11)
C45 C 0.3398(3) 0.4840(2) 0.25740(12)
H49 H 0.3084 0.4756 0.2732
C46 C 0.3202(2) 0.4782(2) 0.22496(12)
C47 C 0.3687(2) 0.49160(18) 0.20088(11)
C48 C 0.4305(3) 0.6393(2) 0.08046(11)
C49 C 0.3633(3) 0.6092(3) 0.07534(12)
H50 H 0.3646 0.5670 0.0830
H51 H 0.3527 0.6095 0.0528
H52 H 0.3303 0.6320 0.0870
C50 C 0.4829(3) 0.6055(3) 0.06145(12)
H53 H 0.4855 0.5631 0.0686
H54 H 0.5249 0.6254 0.0646
H55 H 0.4717 0.6063 0.0390
C51 C 0.4260(4) 0.7070(3) 0.06745(14)
H56 H 0.4160 0.7060 0.0449
H57 H 0.4675 0.7277 0.0708
H58 H 0.3917 0.7289 0.0787
C52 C 0.4724(4) 0.7578(3) 0.18469(16)
C53 C 0.5289(6) 0.7601(4) 0.2042(3)
H59 H 0.5677 0.7608 0.1909
H60 H 0.5300 0.7242 0.2179
H61 H 0.5276 0.7971 0.2172
C54 C 0.4439(4) 0.8101(3) 0.1691(2)
H62 H 0.4702 0.8211 0.1507
H63 H 0.4425 0.8445 0.1838
H64 H 0.3999 0.8001 0.1623
C55 C 0.4160(6) 0.7563(4) 0.2136(3)
H65 H 0.4176 0.7945 0.2255
H66 H 0.4247 0.7220 0.2278
H67 H 0.3729 0.7514 0.2042
C56 C 0.5560(2) 0.5215(2) 0.19816(12)
H68 H 0.5863 0.5285 0.1808
H69 H 0.5651 0.4818 0.2078
H70 H 0.5611 0.5536 0.2140
C57 C 0.4189(3) 0.5059(3) 0.30284(12)
C58 C 0.4890(5) 0.4998(8) 0.30884(18)
H71 H 0.4972 0.5031 0.3315
H72 H 0.5123 0.5322 0.2977
H73 H 0.5039 0.4600 0.3013
C59 C 0.3997(10) 0.5653(7) 0.3151(2)
H74 H 0.4103 0.5677 0.3376
H75 H 0.3529 0.5707 0.3123
H76 H 0.4229 0.5974 0.3036
C60 C 0.3877(7) 0.4565(6) 0.32227(19)
H77 H 0.3997 0.4616 0.3445
H78 H 0.4025 0.4166 0.3148
H79 H 0.3405 0.4591 0.3202
C61 C 0.2511(3) 0.4560(3) 0.21557(13)
C62 C 0.2151(3) 0.5029(3) 0.19430(15)
H80 H 0.2408 0.5107 0.1753
H81 H 0.2090 0.5410 0.2060
H82 H 0.1727 0.4864 0.1883
C63 C 0.2559(3) 0.3933(3) 0.19775(15)
H83 H 0.2819 0.3984 0.1786
H84 H 0.2124 0.3794 0.1921
H85 H 0.2765 0.3631 0.2115
C64 C 0.2069(3) 0.4442(4) 0.24614(15)
H86 H 0.2014 0.4825 0.2577
H87 H 0.2279 0.4141 0.2598
H88 H 0.1644 0.4289 0.2395
C65 C 0.6233(4) 0.5160(4) 0.0282(2)
H89 H 0.6259 0.5585 0.0358
H90 H 0.5794 0.5087 0.0195
C66 C 0.6725(7) 0.5043(6) 0.0046(3)
H91 H 0.6526 0.4840 -0.0139
H92 H 0.6915 0.5433 -0.0025
C67 C 0.7197(6) 0.4682(8) 0.0168(3)
H93 H 0.7585 0.4926 0.0221
H94 H 0.7322 0.4362 0.0015
C68 C 0.6920(6) 0.4416(7) 0.0445(3)
H95 H 0.6805 0.3986 0.0403
H96 H 0.7241 0.4424 0.0619
C69 C 0.7118(6) 0.5566(5) 0.1269(4)
H97 H 0.7240 0.5314 0.1454
H98 H 0.7309 0.5381 0.1078
C70 C 0.7332(6) 0.6159(7) 0.1307(5)
H99 H 0.7587 0.6284 0.1120
H100 H 0.7616 0.6187 0.1495
C71 C 0.6757(6) 0.6578(5) 0.1346(4)
H101 H 0.6717 0.6717 0.1567
H102 H 0.6793 0.6937 0.1206
C72 C 0.6265(5) 0.6234(6) 0.1265(3)
H103 H 0.6094 0.6373 0.1059
H104 H 0.5916 0.6278 0.1424
C73 C 0.7177(5) 0.3862(4) 0.1446(3)
H105 H 0.7055 0.4051 0.1650
H106 H 0.7525 0.4110 0.1350
C74 C 0.7409(6) 0.3230(6) 0.1499(4)
H107 H 0.7874 0.3192 0.1446
H108 H 0.7345 0.3107 0.1722
C75 C 0.7011(7) 0.2853(6) 0.1287(4)
H109 H 0.7293 0.2605 0.1148
H110 H 0.6735 0.2573 0.1411
C76 C 0.6619(4) 0.3244(4) 0.1103(2)
H111 H 0.6168 0.3093 0.1098
H112 H 0.6784 0.3263 0.0884
C77 C 0.2218(7) 0.7055(6) 0.2273(3)
H113 H 0.2294 0.7419 0.2139
H114 H 0.1816 0.6854 0.2200
C78 C 0.2157(9) 0.7228(10) 0.2587(5)
H115 H 0.1747 0.7070 0.2677
H116 H 0.2160 0.7677 0.2607
C79 C 0.2697(13) 0.6971(10) 0.2745(3)
H117 H 0.2553 0.6791 0.2948
H118 H 0.3015 0.7296 0.2794
C80 C 0.3004(7) 0.6510(5) 0.2559(3)
H119 H 0.2878 0.6096 0.2628
H120 H 0.3481 0.6549 0.2564
C81 C 0.2548(4) 0.7459(4) 0.13607(19)
H121 H 0.2498 0.7734 0.1544
H122 H 0.3004 0.7478 0.1288
C82 C 0.2122(5) 0.7635(5) 0.1114(3)
H123 H 0.2368 0.7827 0.0940
H124 H 0.1798 0.7930 0.1192
C83 C 0.1804(4) 0.7082(6) 0.1004(2)
H125 H 0.1347 0.7167 0.0947
H126 H 0.2030 0.6915 0.0817
C84 C 0.1837(4) 0.6657(3) 0.1267(2)
H127 H 0.1436 0.6677 0.1395
H128 H 0.1894 0.6235 0.1190
loop_
_geom_bond_atom_site_label_1
_geom_bond_atom_site_label_2
_geom_bond_site_symmetry_1
_geom_bond_site_symmetry_2
O1 C1 1_555 1_555
C1 C2 1_555 1_555
C2 C3 1_555 1_555
C3 C4 1_555 1_555
C4 O1 1_555 1_555
Mg1 O2 1_555 1_555
K1 O2 1_555 1_555
K2 O5 1_555 1_555
O2 C5 1_555 1_555
O3 Mg1 1_555 1_555
O4 Mg1 1_555 1_555
O5 Mg1 1_555 1_555
O6 K1 1_555 1_555
O7 K1 1_555 1_555
O8 K1 1_555 1_555
O9 K2 1_555 1_555
O10 K2 1_555 1_555
C5 C6 1_555 1_555
C6 C7 1_555 1_555
C7 H1 1_555 1_555
C8 C7 1_555 1_555
C9 C8 1_555 1_555
H2 C9 1_555 1_555
C10 C5 1_555 1_555
C11 C10 1_555 1_555
H3 C11 1_555 1_555
C12 C11 1_555 1_555
C13 C12 1_555 1_555
H4 C13 1_555 1_555
C14 C13 1_555 1_555
C15 C14 1_555 1_555
H5 C15 1_555 1_555
C16 C15 1_555 1_555
C17 O3 1_555 1_555
C18 C6 1_555 1_555
C19 C18 1_555 1_555
H6 C19 1_555 1_555
H7 C19 1_555 1_555
H8 C19 1_555 1_555
C20 C18 1_555 1_555
H9 C20 1_555 1_555
H10 C20 1_555 1_555
H11 C20 1_555 1_555
C21 C18 1_555 1_555
H12 C21 1_555 1_555
H13 C21 1_555 1_555
H14 C21 1_555 1_555
C22 C8 1_555 1_555
C23 C22 1_555 1_555
H15 C23 1_555 1_555
H16 C23 1_555 1_555
H17 C23 1_555 1_555
C24 C22 1_555 1_555
H18 C24 1_555 1_555
H19 C24 1_555 1_555
H20 C24 1_555 1_555
C25 C22 1_555 1_555
H21 C25 1_555 1_555
H22 C25 1_555 1_555
H23 C25 1_555 1_555
C26 C11 1_555 1_555
H24 C26 1_555 1_555
H25 C26 1_555 1_555
H26 C26 1_555 1_555
C27 C14 1_555 1_555
C28 C27 1_555 1_555
H27 C28 1_555 1_555
H28 C28 1_555 1_555
H29 C28 1_555 1_555
C29 C27 1_555 1_555
H30 C29 1_555 1_555
H31 C29 1_555 1_555
H32 C29 1_555 1_555
C30 C27 1_555 1_555
H33 C30 1_555 1_555
H34 C30 1_555 1_555
H35 C30 1_555 1_555
C31 C16 1_555 1_555
C32 C31 1_555 1_555
H36 C32 1_555 1_555
H37 C32 1_555 1_555
H38 C32 1_555 1_555
C33 C31 1_555 1_555
H39 C33 1_555 1_555
H40 C33 1_555 1_555
H41 C33 1_555 1_555
C34 C31 1_555 1_555
H42 C34 1_555 1_555
H43 C34 1_555 1_555
H44 C34 1_555 1_555
C35 K2 1_555 1_555
C36 K2 1_555 1_555
C37 K2 1_555 1_555
H45 C37 1_555 1_555
C38 K2 1_555 1_555
C39 K2 1_555 1_555
H46 C39 1_555 1_555
C40 K2 1_555 1_555
C41 C40 1_555 1_555
H47 C41 1_555 1_555
C42 C41 1_555 1_555
C43 C42 1_555 1_555
H48 C43 1_555 1_555
C44 C43 1_555 1_555
C45 C44 1_555 1_555
H49 C45 1_555 1_555
C46 C45 1_555 1_555
C47 O5 1_555 1_555
C48 C36 1_555 1_555
C49 C48 1_555 1_555
H50 C49 1_555 1_555
H51 C49 1_555 1_555
H52 C49 1_555 1_555
C50 C48 1_555 1_555
H53 C50 1_555 1_555
H54 C50 1_555 1_555
H55 C50 1_555 1_555
C51 C48 1_555 1_555
H56 C51 1_555 1_555
H57 C51 1_555 1_555
H58 C51 1_555 1_555
C52 C38 1_555 1_555
C53 C52 1_555 1_555
H59 C53 1_555 1_555
H60 C53 1_555 1_555
H61 C53 1_555 1_555
C54 C52 1_555 1_555
H62 C54 1_555 1_555
H63 C54 1_555 1_555
H64 C54 1_555 1_555
C55 C52 1_555 1_555
H65 C55 1_555 1_555
H66 C55 1_555 1_555
H67 C55 1_555 1_555
C56 C41 1_555 1_555
H68 C56 1_555 1_555
H69 C56 1_555 1_555
H70 C56 1_555 1_555
C57 C44 1_555 1_555
C58 C57 1_555 1_555
H71 C58 1_555 1_555
H72 C58 1_555 1_555
H73 C58 1_555 1_555
C59 C57 1_555 1_555
H74 C59 1_555 1_555
H75 C59 1_555 1_555
H76 C59 1_555 1_555
C60 C57 1_555 1_555
H77 C60 1_555 1_555
H78 C60 1_555 1_555
H79 C60 1_555 1_555
C61 C46 1_555 1_555
C62 C61 1_555 1_555
H80 C62 1_555 1_555
H81 C62 1_555 1_555
H82 C62 1_555 1_555
C63 C61 1_555 1_555
H83 C63 1_555 1_555
H84 C63 1_555 1_555
H85 C63 1_555 1_555
C64 C61 1_555 1_555
H86 C64 1_555 1_555
H87 C64 1_555 1_555
H88 C64 1_555 1_555
C65 O6 1_555 1_555
H89 C65 1_555 1_555
H90 C65 1_555 1_555
C66 C65 1_555 1_555
H91 C66 1_555 1_555
H92 C66 1_555 1_555
C67 C66 1_555 1_555
H93 C67 1_555 1_555
H94 C67 1_555 1_555
C68 O6 1_555 1_555
H95 C68 1_555 1_555
H96 C68 1_555 1_555
C69 O7 1_555 1_555
H97 C69 1_555 1_555
H98 C69 1_555 1_555
C70 C69 1_555 1_555
H99 C70 1_555 1_555
H100 C70 1_555 1_555
C71 C70 1_555 1_555
H101 C71 1_555 1_555
H102 C71 1_555 1_555
C72 O7 1_555 1_555
H103 C72 1_555 1_555
H104 C72 1_555 1_555
C73 O8 1_555 1_555
H105 C73 1_555 1_555
H106 C73 1_555 1_555
C74 C73 1_555 1_555
H107 C74 1_555 1_555
H108 C74 1_555 1_555
C75 C74 1_555 1_555
H109 C75 1_555 1_555
H110 C75 1_555 1_555
C76 O8 1_555 1_555
H111 C76 1_555 1_555
H112 C76 1_555 1_555
C77 O9 1_555 1_555
H113 C77 1_555 1_555
H114 C77 1_555 1_555
C78 C77 1_555 1_555
H115 C78 1_555 1_555
H116 C78 1_555 1_555
C79 C78 1_555 1_555
H117 C79 1_555 1_555
H118 C79 1_555 1_555
C80 O9 1_555 1_555
H119 C80 1_555 1_555
H120 C80 1_555 1_555
C81 O10 1_555 1_555
H121 C81 1_555 1_555
H122 C81 1_555 1_555
C82 C81 1_555 1_555
H123 C82 1_555 1_555
H124 C82 1_555 1_555
C83 C82 1_555 1_555
H125 C83 1_555 1_555
H126 C83 1_555 1_555
C84 O10 1_555 1_555
H127 C84 1_555 1_555
H128 C84 1_555 1_555
K1 O4 1_555 1_555
O4 C35 1_555 1_555
C9 C10 1_555 1_555
C12 C17 1_555 1_555
C16 C17 1_555 1_555
C35 C36 1_555 1_555
C35 C40 1_555 1_555
C36 C37 1_555 1_555
C37 C38 1_555 1_555
C38 C39 1_555 1_555
C39 C40 1_555 1_555
C42 C47 1_555 1_555
C46 C47 1_555 1_555
C67 C68 1_555 1_555
C71 C72 1_555 1_555
C75 C76 1_555 1_555
C79 C80 1_555 1_555
C83 C84 1_555 1_555

#END
