
#######################################################################
#
#                 Cambridge Crystallographic Data Centre
#                                CCDC 
#
#######################################################################
#
# If this CIF has been generated from an entry in the Cambridge 
# Structural Database, then it will include bibliographic, chemical, 
# crystal, experimental, refinement or atomic coordinate data resulting 
# from the CCDC's data processing and validation procedures.
#
#######################################################################

data_FUZDOU
_chemical_formula_moiety         'C20 H19 N1 O7'
_chemical_name_systematic        
'Methyl 2-(1-(2-cyanophenoxy)-2-methoxy-2-oxoethyl)-4,5-dimethoxybenzoate'
_symmetry_cell_setting           triclinic
_symmetry_space_group_name_H-M   'P -1'
_symmetry_Int_Tables_number      2
_space_group_name_Hall           '-P 1'
loop_
_symmetry_equiv_pos_site_id
_symmetry_equiv_pos_as_xyz
1 x,y,z
2 -x,-y,-z
_cell_length_a                   8.7674(12)
_cell_length_b                   10.0605(14)
_cell_length_c                   11.1943(15)
_cell_angle_alpha                72.845(2)
_cell_angle_beta                 82.103(3)
_cell_angle_gamma                84.848(2)
_cell_volume                     933.244
_exptl_crystal_colour            colorless
_exptl_crystal_description       prismatic
_cell_formula_units_Z            2
loop_
_atom_site_label
_atom_site_type_symbol
_atom_site_fract_x
_atom_site_fract_y
_atom_site_fract_z
O1 O 0.71492(16) 0.74374(15) -0.01427(14)
O2 O 0.81775(15) 0.48999(15) 0.07660(15)
O3 O 0.39995(15) 0.21057(13) 0.32692(14)
O4 O 0.1293(2) 0.30605(17) 0.48818(17)
O5 O 0.32748(15) 0.43908(15) 0.46434(13)
O6 O 0.09609(16) 0.55208(15) 0.25709(15)
O7 O 0.15491(16) 0.76033(15) 0.12783(15)
N1 N 0.7266(3) 0.0138(3) 0.2974(3)
C1 C 0.3555(2) 0.58808(19) 0.16491(17)
C2 C 0.4567(2) 0.6871(2) 0.08872(19)
H1 H 0.4194 0.7785 0.0563
C3 C 0.6091(2) 0.6529(2) 0.06073(18)
C4 C 0.6661(2) 0.5156(2) 0.10981(18)
C5 C 0.5672(2) 0.4182(2) 0.18685(18)
H2 H 0.6057 0.3275 0.2203
C6 C 0.4121(2) 0.45152(19) 0.21597(17)
C7 C 0.3083(2) 0.33917(18) 0.29939(19)
H3 H 0.2236 0.3308 0.2538
C8 C 0.2421(2) 0.36022(19) 0.42672(19)
C9 C 0.2762(3) 0.4569(3) 0.5879(2)
H4 H 0.1715 0.4944 0.5901
H5 H 0.3410 0.5197 0.6046
H6 H 0.2820 0.3683 0.6506
C10 C 0.1909(2) 0.6286(2) 0.18939(19)
C11 C -0.0054(3) 0.8046(3) 0.1490(3)
H7 H -0.0677 0.7533 0.1158
H8 H -0.0192 0.9023 0.1076
H9 H -0.0358 0.7874 0.2377
C12 C 0.6736(3) 0.8877(2) -0.0366(2)
H10 H 0.5874 0.9115 -0.0847
H11 H 0.7594 0.9410 -0.0825
H12 H 0.6459 0.9082 0.0424
C13 C 0.8845(2) 0.3562(2) 0.1336(2)
H13 H 0.8749 0.3401 0.2231
H14 H 0.9916 0.3516 0.1016
H15 H 0.8322 0.2864 0.1146
C14 C 0.3324(2) 0.08657(19) 0.34844(18)
C15 C 0.1765(2) 0.0679(2) 0.3642(2)
H16 H 0.1064 0.1437 0.3602
C16 C 0.1245(3) -0.0631(2) 0.3860(2)
H17 H 0.0191 -0.0747 0.3954
C17 C 0.2252(3) -0.1765(2) 0.3940(3)
H18 H 0.1883 -0.2649 0.4113
C18 C 0.3806(3) -0.1593(2) 0.3766(2)
H19 H 0.4495 -0.2360 0.3806
C19 C 0.4364(3) -0.0270(2) 0.3528(2)
C20 C 0.5979(3) -0.0048(2) 0.3249(2)
loop_
_geom_bond_atom_site_label_1
_geom_bond_atom_site_label_2
_geom_bond_site_symmetry_1
_geom_bond_site_symmetry_2
O1 C3 1_555 1_555
O2 C4 1_555 1_555
O3 C7 1_555 1_555
O4 C8 1_555 1_555
O5 C8 1_555 1_555
O6 C10 1_555 1_555
O7 C10 1_555 1_555
N1 C20 1_555 1_555
C1 C2 1_555 1_555
C2 H1 1_555 1_555
C3 C2 1_555 1_555
C4 C3 1_555 1_555
C5 C4 1_555 1_555
H2 C5 1_555 1_555
C6 C1 1_555 1_555
C7 C6 1_555 1_555
H3 C7 1_555 1_555
C8 C7 1_555 1_555
C9 O5 1_555 1_555
H4 C9 1_555 1_555
H5 C9 1_555 1_555
H6 C9 1_555 1_555
C10 C1 1_555 1_555
C11 O7 1_555 1_555
H7 C11 1_555 1_555
H8 C11 1_555 1_555
H9 C11 1_555 1_555
C12 O1 1_555 1_555
H10 C12 1_555 1_555
H11 C12 1_555 1_555
H12 C12 1_555 1_555
C13 O2 1_555 1_555
H13 C13 1_555 1_555
H14 C13 1_555 1_555
H15 C13 1_555 1_555
C14 O3 1_555 1_555
C15 C14 1_555 1_555
H16 C15 1_555 1_555
C16 C15 1_555 1_555
H17 C16 1_555 1_555
C17 C16 1_555 1_555
H18 C17 1_555 1_555
C18 C17 1_555 1_555
H19 C18 1_555 1_555
C19 C14 1_555 1_555
C20 C19 1_555 1_555
C5 C6 1_555 1_555
C18 C19 1_555 1_555

#END
