
#######################################################################
#
#                 Cambridge Crystallographic Data Centre
#                                CCDC 
#
#######################################################################
#
# If this CIF has been generated from an entry in the Cambridge 
# Structural Database, then it will include bibliographic, chemical, 
# crystal, experimental, refinement or atomic coordinate data resulting 
# from the CCDC's data processing and validation procedures.
#
#######################################################################

data_FUZGEN
_chemical_formula_moiety         'C13 H10 Cl1 N3'
_chemical_name_systematic        2-(2-Amino-5-chlorophenyl)-1H-benzimidazole
_symmetry_cell_setting           orthorhombic
_symmetry_space_group_name_H-M   'P n a 21'
_symmetry_Int_Tables_number      33
_space_group_name_Hall           'P 2c -2n'
loop_
_symmetry_equiv_pos_site_id
_symmetry_equiv_pos_as_xyz
1 x,y,z
2 -x,-y,1/2+z
3 1/2+x,1/2-y,z
4 1/2-x,1/2+y,1/2+z
_cell_length_a                   8.6850(17)
_cell_length_b                   6.6480(13)
_cell_length_c                   19.264(4)
_cell_angle_alpha                90
_cell_angle_beta                 90
_cell_angle_gamma                90
_cell_volume                     1112.26
_exptl_crystal_colour            colorless
_exptl_crystal_description       block
_chemical_melting_point          '466-468 K'
_cell_formula_units_Z            4
_exptl_crystal_recrystallization_method acetonitrile
loop_
_atom_site_label
_atom_site_type_symbol
_atom_site_fract_x
_atom_site_fract_y
_atom_site_fract_z
Cl1 Cl 0.65451(15) 0.67426(18) 0.58275(7)
N1 N 0.4946(4) 1.2799(5) 0.36925(19)
H1 H 0.5790 1.3518 0.3608
H2 H 0.4632 1.2212 0.3302
C1 C 0.6052(5) 0.8505(6) 0.5196(2)
C2 C 0.5021(5) 0.7992(5) 0.4688(2)
H3 H 0.4588 0.6712 0.4687
N2 N 0.3357(4) 0.6763(5) 0.34401(17)
H4 H 0.3723 0.5741 0.3658
N3 N 0.2857(4) 0.9963(4) 0.31661(17)
C3 C 0.4612(4) 0.9371(5) 0.4172(2)
C4 C 0.5286(4) 1.1314(5) 0.4183(2)
C5 C 0.6321(5) 1.1766(6) 0.4715(2)
H5 H 0.6762 1.3040 0.4729
C6 C 0.6713(5) 1.0375(7) 0.5221(2)
H6 H 0.7407 1.0705 0.5571
C7 C 0.3603(4) 0.8740(5) 0.3601(2)
C8 C 0.2416(4) 0.6706(6) 0.2866(2)
C9 C 0.1845(4) 0.5116(7) 0.2472(2)
H7 H 0.2068 0.3785 0.2581
C10 C 0.0931(5) 0.5610(7) 0.1909(2)
H8 H 0.0529 0.4590 0.1633
C11 C 0.0603(5) 0.7605(7) 0.1748(2)
H9 H -0.0030 0.7890 0.1371
C12 C 0.1194(5) 0.9161(7) 0.2134(2)
H10 H 0.0981 1.0490 0.2019
C13 C 0.2114(4) 0.8702(6) 0.2699(2)
loop_
_geom_bond_atom_site_label_1
_geom_bond_atom_site_label_2
_geom_bond_site_symmetry_1
_geom_bond_site_symmetry_2
Cl1 C1 1_555 1_555
N1 H1 1_555 1_555
H2 N1 1_555 1_555
C1 C2 1_555 1_555
C2 H3 1_555 1_555
N2 H4 1_555 1_555
N3 C7 1_555 1_555
C3 C2 1_555 1_555
C4 N1 1_555 1_555
C5 C4 1_555 1_555
H5 C5 1_555 1_555
C6 C1 1_555 1_555
H6 C6 1_555 1_555
C7 N2 1_555 1_555
C8 N2 1_555 1_555
C9 C8 1_555 1_555
H7 C9 1_555 1_555
C10 C9 1_555 1_555
H8 C10 1_555 1_555
C11 C10 1_555 1_555
H9 C11 1_555 1_555
C12 C11 1_555 1_555
H10 C12 1_555 1_555
C13 N3 1_555 1_555
C3 C4 1_555 1_555
C3 C7 1_555 1_555
C5 C6 1_555 1_555
C8 C13 1_555 1_555
C12 C13 1_555 1_555

#END
