
#######################################################################
#
#                 Cambridge Crystallographic Data Centre
#                                CCDC 
#
#######################################################################
#
# If this CIF has been generated from an entry in the Cambridge 
# Structural Database, then it will include bibliographic, chemical, 
# crystal, experimental, refinement or atomic coordinate data resulting 
# from the CCDC's data processing and validation procedures.
#
#######################################################################

data_FUZPOH
_chemical_formula_moiety         'C11 H12 N4 O2'
_chemical_name_systematic        
'ethyl (5-(pyridin-3-yl)-4H-1,2,4-triazol-3-yl)acetate'
_symmetry_cell_setting           monoclinic
_symmetry_space_group_name_H-M   'P 21/c'
_symmetry_Int_Tables_number      14
_space_group_name_Hall           '-P 2ybc'
loop_
_symmetry_equiv_pos_site_id
_symmetry_equiv_pos_as_xyz
1 x,y,z
2 -x,1/2+y,1/2-z
3 -x,-y,-z
4 x,1/2-y,1/2+z
_cell_length_a                   6.017(2)
_cell_length_b                   23.777(9)
_cell_length_c                   8.961(4)
_cell_angle_alpha                90
_cell_angle_beta                 115.647(5)
_cell_angle_gamma                90
_cell_volume                     1155.71
_exptl_crystal_colour            colorless
_exptl_crystal_description       block
_cell_formula_units_Z            4
loop_
_atom_site_label
_atom_site_type_symbol
_atom_site_fract_x
_atom_site_fract_y
_atom_site_fract_z
C1 C 0.3164(7) 0.44903(17) 0.0755(5)
H1 H 0.1636 0.4640 0.0565
C2 C 0.5207(6) 0.47256(15) 0.2004(4)
C3 C 0.7494(8) 0.44981(19) 0.2287(6)
H2 H 0.8943 0.4641 0.3114
C4 C 0.7545(9) 0.4056(2) 0.1306(7)
H3 H 0.9035 0.3892 0.1465
C5 C 0.5379(10) 0.38625(19) 0.0100(6)
H4 H 0.5454 0.3566 -0.0553
C6 C 0.5069(6) 0.51902(15) 0.2998(5)
C7 C 0.3439(7) 0.58406(15) 0.3824(4)
C8 C 0.1497(7) 0.62112(16) 0.3849(5)
H5 H 0.1939 0.6325 0.4982
H6 H -0.0032 0.6001 0.3465
C9 C 0.1081(9) 0.67237(19) 0.2806(6)
C10 C -0.1180(13) 0.7585(2) 0.2024(9)
H7 H 0.0261 0.7827 0.2475
H8 H -0.1579 0.7517 0.0869
C11 C -0.3109(13) 0.7852(3) 0.2134(9)
H9 H -0.4509 0.7605 0.1752
H10 H -0.3518 0.8185 0.1463
H11 H -0.2658 0.7953 0.3266
N1 N 0.3190(7) 0.40662(16) -0.0206(4)
N2 N 0.2888(4) 0.54412(11) 0.2646(3)
H12 H 0.1472 0.5365 0.1853
N3 N 0.5725(7) 0.58380(14) 0.4820(4)
N4 N 0.6824(6) 0.54054(14) 0.4285(4)
O1 O 0.2100(7) 0.68257(15) 0.1960(5)
O2 O -0.0609(7) 0.70490(13) 0.2924(5)
loop_
_geom_bond_atom_site_label_1
_geom_bond_atom_site_label_2
_geom_bond_site_symmetry_1
_geom_bond_site_symmetry_2
C1 H1 1_555 1_555
C2 C1 1_555 1_555
C3 C2 1_555 1_555
H2 C3 1_555 1_555
C4 C3 1_555 1_555
H3 C4 1_555 1_555
C5 C4 1_555 1_555
H4 C5 1_555 1_555
C6 C2 1_555 1_555
C7 C8 1_555 1_555
C8 H5 1_555 1_555
H6 C8 1_555 1_555
C9 C8 1_555 1_555
C10 H7 1_555 1_555
H8 C10 1_555 1_555
C11 C10 1_555 1_555
H9 C11 1_555 1_555
H10 C11 1_555 1_555
H11 C11 1_555 1_555
N1 C1 1_555 1_555
N2 C6 1_555 1_555
H12 N2 1_555 1_555
N3 C7 1_555 1_555
N4 C6 1_555 1_555
O1 C9 1_555 1_555
O2 C9 1_555 1_555
C5 N1 1_555 1_555
C7 N2 1_555 1_555
C10 O2 1_555 1_555
N3 N4 1_555 1_555

#END
