
#######################################################################
#
#                 Cambridge Crystallographic Data Centre
#                                CCDC 
#
#######################################################################
#
# If this CIF has been generated from an entry in the Cambridge 
# Structural Database, then it will include bibliographic, chemical, 
# crystal, experimental, refinement or atomic coordinate data resulting 
# from the CCDC's data processing and validation procedures.
#
#######################################################################

data_FUZPOG
_chemical_compound_source        'mangrove endophytic fungus Phoma sp. SK3RW1M'
_chemical_formula_moiety         'C16 H14 O5'
_chemical_name_systematic        
1-Hydroxy-8-(hydroxymethyl)-6-methoxy-3-methyl-9H-xanthen-9-one
_chemical_properties_biological  
'tested for activity against KB and KBv200 cells'
_symmetry_cell_setting           triclinic
_symmetry_space_group_name_H-M   'P -1'
_symmetry_Int_Tables_number      2
_space_group_name_Hall           '-P 1'
loop_
_symmetry_equiv_pos_site_id
_symmetry_equiv_pos_as_xyz
1 x,y,z
2 -x,-y,-z
_cell_length_a                   8.2950(16)
_cell_length_b                   11.080(2)
_cell_length_c                   14.567(3)
_cell_angle_alpha                75.472(3)
_cell_angle_beta                 87.308(3)
_cell_angle_gamma                84.711(3)
_cell_volume                     1290.11
_exptl_crystal_colour            yellow
_exptl_crystal_description       block
_cell_formula_units_Z            4
_exptl_crystal_recrystallization_method chloroform
loop_
_atom_site_label
_atom_site_type_symbol
_atom_site_fract_x
_atom_site_fract_y
_atom_site_fract_z
O1 O 0.2350(4) 0.6564(3) 0.5342(2)
O2 O -0.2463(4) 0.7733(3) 0.4973(3)
O3 O -0.1646(4) 0.9812(4) 0.3899(3)
H1 H -0.225(10) 0.915(8) 0.425(6)
O7 O 0.1218(4) 0.2650(3) 0.7321(2)
O10 O -0.4219(4) 0.4529(3) 0.6707(3)
H4 H -0.421(8) 0.465(6) 0.736(5)
C1 C 0.1196(5) 0.5792(4) 0.5771(3)
C2 C 0.1838(6) 0.4643(4) 0.6305(3)
H5 H 0.2975 0.4445 0.6348
C3 C 0.0771(6) 0.3800(4) 0.6770(3)
C4 C -0.0919(5) 0.4098(4) 0.6706(3)
H6 H -0.1633 0.3501 0.7032
C5 C -0.1540(5) 0.5232(4) 0.6184(3)
C6 C -0.0470(5) 0.6141(4) 0.5685(3)
C7 C -0.1007(6) 0.7367(4) 0.5103(3)
C8 C 0.0268(6) 0.8149(4) 0.4656(3)
C9 C -0.0084(6) 0.9367(4) 0.4070(3)
C10 C 0.1150(6) 1.0100(4) 0.3690(4)
H7 H 0.0892 1.0916 0.3300
C11 C 0.2757(6) 0.9683(5) 0.3862(4)
C12 C 0.3145(6) 0.8472(5) 0.4417(3)
H8 H 0.4243 0.8159 0.4526
C13 C 0.1898(6) 0.7738(4) 0.4802(3)
C14 C 0.4090(7) 1.0511(5) 0.3462(4)
H9 H 0.3619 1.1320 0.3091
H10 H 0.4814 1.0113 0.3053
H11 H 0.4705 1.0641 0.3983
C15 C -0.3367(6) 0.5524(5) 0.6143(4)
H12 H -0.3663 0.6290 0.6367
H13 H -0.3702 0.5692 0.5477
C16 C 0.2924(6) 0.2290(5) 0.7417(4)
H14 H 0.3086 0.1443 0.7829
H15 H 0.3427 0.2876 0.7697
H16 H 0.3421 0.2305 0.6791
O4 O 0.1949(4) 0.3116(3) 0.9487(2)
O5 O -0.2924(4) 0.2930(3) 1.0053(3)
O6 O -0.2316(5) 0.0739(4) 1.1155(3)
H2 H -0.285(10) 0.144(8) 1.077(6)
O8 O 0.1227(4) 0.7210(3) 0.7520(2)
O9 O -0.4419(4) 0.4583(4) 0.8644(3)
H3 H -0.410(9) 0.386(7) 0.899(5)
C17 C 0.1391(6) 0.2076(4) 1.0092(3)
C18 C 0.2551(7) 0.1137(5) 1.0479(4)
H17 H 0.3667 0.1227 1.0326
C19 C 0.2055(8) 0.0049(5) 1.1103(4)
C20 C 0.0423(8) -0.0065(5) 1.1327(4)
H18 H 0.0097 -0.0804 1.1756
C21 C -0.0741(7) 0.0881(5) 1.0934(4)
C22 C -0.0265(6) 0.2000(4) 1.0298(3)
C23 C -0.1426(6) 0.3013(5) 0.9881(3)
C24 C -0.0777(5) 0.4123(4) 0.9265(3)
C25 C -0.1741(6) 0.5241(4) 0.8829(3)
C26 C -0.1008(6) 0.6225(4) 0.8261(3)
H19 H -0.1654 0.6962 0.7969
C27 C 0.0687(6) 0.6174(4) 0.8097(3)
C28 C 0.1648(6) 0.5120(4) 0.8523(3)
H20 H 0.2791 0.5080 0.8429
C29 C 0.0898(6) 0.4116(4) 0.9094(3)
C30 C 0.3282(9) -0.0989(5) 1.1530(4)
H21 H 0.2734 -0.1676 1.1946
H22 H 0.4036 -0.0682 1.1900
H23 H 0.3883 -0.1290 1.1024
C31 C -0.3546(6) 0.5414(5) 0.9001(4)
H24 H -0.3772 0.5275 0.9691
H25 H -0.3937 0.6288 0.8694
C32 C 0.2937(6) 0.7255(5) 0.7355(4)
H26 H 0.3158 0.8059 0.6924
H27 H 0.3357 0.6573 0.7070
H28 H 0.3467 0.7164 0.7959
loop_
_geom_bond_atom_site_label_1
_geom_bond_atom_site_label_2
_geom_bond_site_symmetry_1
_geom_bond_site_symmetry_2
O1 C1 1_555 1_555
O2 C7 1_555 1_555
O3 H1 1_555 1_555
O4 C17 1_555 1_555
O5 C23 1_555 1_555
O6 H2 1_555 1_555
O7 C3 1_555 1_555
O8 C27 1_555 1_555
O9 H3 1_555 1_555
O10 H4 1_555 1_555
C1 C2 1_555 1_555
C2 H5 1_555 1_555
C3 C2 1_555 1_555
C4 C3 1_555 1_555
H6 C4 1_555 1_555
C5 C4 1_555 1_555
C6 C1 1_555 1_555
C7 C6 1_555 1_555
C8 C7 1_555 1_555
C9 O3 1_555 1_555
C10 C9 1_555 1_555
H7 C10 1_555 1_555
C11 C10 1_555 1_555
C12 C11 1_555 1_555
H8 C12 1_555 1_555
C13 O1 1_555 1_555
C14 C11 1_555 1_555
H9 C14 1_555 1_555
H10 C14 1_555 1_555
H11 C14 1_555 1_555
C15 O10 1_555 1_555
H12 C15 1_555 1_555
H13 C15 1_555 1_555
C16 O7 1_555 1_555
H14 C16 1_555 1_555
H15 C16 1_555 1_555
H16 C16 1_555 1_555
C17 C18 1_555 1_555
C18 H17 1_555 1_555
C19 C18 1_555 1_555
C20 C19 1_555 1_555
H18 C20 1_555 1_555
C21 O6 1_555 1_555
C22 C17 1_555 1_555
C23 C22 1_555 1_555
C24 C23 1_555 1_555
C25 C24 1_555 1_555
C26 C25 1_555 1_555
H19 C26 1_555 1_555
C27 C26 1_555 1_555
C28 C27 1_555 1_555
H20 C28 1_555 1_555
C29 O4 1_555 1_555
C30 C19 1_555 1_555
H21 C30 1_555 1_555
H22 C30 1_555 1_555
H23 C30 1_555 1_555
C31 O9 1_555 1_555
H24 C31 1_555 1_555
H25 C31 1_555 1_555
C32 O8 1_555 1_555
H26 C32 1_555 1_555
H27 C32 1_555 1_555
H28 C32 1_555 1_555
C5 C6 1_555 1_555
C5 C15 1_555 1_555
C8 C9 1_555 1_555
C8 C13 1_555 1_555
C12 C13 1_555 1_555
C20 C21 1_555 1_555
C21 C22 1_555 1_555
C24 C29 1_555 1_555
C25 C31 1_555 1_555
C28 C29 1_555 1_555

#END
