
#######################################################################
#
#                 Cambridge Crystallographic Data Centre
#                                CCDC 
#
#######################################################################
#
# If this CIF has been generated from an entry in the Cambridge 
# Structural Database, then it will include bibliographic, chemical, 
# crystal, experimental, refinement or atomic coordinate data resulting 
# from the CCDC's data processing and validation procedures.
#
#######################################################################

data_FUZQEX
_chemical_formula_moiety         'C19 H12 F3 N3 O4'
_chemical_name_systematic        
N-(2,6-Difluorobenzoyl)-2-(5-(4-fluorophenyl)-2-furoyl)hydrazinecarboxamide
_chemical_properties_biological  bioactivity
_symmetry_cell_setting           triclinic
_symmetry_space_group_name_H-M   'P -1'
_symmetry_Int_Tables_number      2
_space_group_name_Hall           '-P 1'
loop_
_symmetry_equiv_pos_site_id
_symmetry_equiv_pos_as_xyz
1 x,y,z
2 -x,-y,-z
_cell_length_a                   6.8462(12)
_cell_length_b                   11.552(2)
_cell_length_c                   11.667(2)
_cell_angle_alpha                107.173(13)
_cell_angle_beta                 104.549(12)
_cell_angle_gamma                93.363(13)
_cell_volume                     844.457
_exptl_crystal_colour            colorless
_exptl_crystal_description       block
_cell_formula_units_Z            2
loop_
_atom_site_label
_atom_site_type_symbol
_atom_site_fract_x
_atom_site_fract_y
_atom_site_fract_z
F1 F 0.1839(3) -0.70569(18) 0.48452(18)
F2 F 0.8288(3) -0.09615(17) -0.26605(17)
F3 F 0.3402(3) 0.16337(17) -0.33163(17)
O1 O 0.1285(3) -0.37777(17) 0.13460(17)
O2 O 0.3662(3) -0.26955(18) 0.02889(19)
O3 O 0.2428(3) 0.06497(18) 0.01246(18)
O4 O 0.3995(3) -0.14941(19) -0.29298(19)
N1 N 0.1031(3) -0.1797(2) -0.0536(2)
H1 H -0.0226 -0.1644 -0.0583
N2 N 0.2200(3) -0.1306(2) -0.1140(2)
H2 H 0.2568 -0.1790 -0.1763
N3 N 0.3836(3) 0.0313(2) -0.1492(2)
H3 H 0.4147 0.1111 -0.1291
C1 C 0.1312(6) -0.6393(3) 0.4047(3)
C2 C 0.2793(5) -0.5986(3) 0.3596(3)
H4 H 0.4137 -0.6183 0.3805
C3 C 0.2258(5) -0.5277(3) 0.2823(3)
H5 H 0.3258 -0.4975 0.2506
C4 C 0.0292(5) -0.4999(3) 0.2504(3)
C5 C -0.1173(5) -0.5466(3) 0.2960(3)
H6 H -0.2535 -0.5302 0.2731
C6 C -0.0657(5) -0.6166(3) 0.3744(3)
H7 H -0.1645 -0.6479 0.4062
C7 C -0.0290(4) -0.4256(3) 0.1688(3)
C8 C 0.0420(4) -0.3112(2) 0.0595(3)
C9 C -0.1600(4) -0.3166(3) 0.0468(3)
H8 H -0.2534 -0.2786 -0.0003
C10 C -0.2060(5) -0.3900(3) 0.1174(3)
H9 H -0.3362 -0.4104 0.1269
C11 C 0.1875(4) -0.2522(3) 0.0130(3)
C12 C 0.2770(4) -0.0091(3) -0.0771(2)
C13 C 0.4452(4) -0.0387(3) -0.2472(3)
C14 C 0.5790(4) 0.0307(3) -0.2965(2)
C15 C 0.7629(5) -0.0047(3) -0.3097(3)
C16 C 0.8855(5) 0.0503(3) -0.3616(3)
H10 H 1.0134 0.0249 -0.3666
C17 C 0.8183(5) 0.1434(3) -0.4061(3)
H11 H 0.8997 0.1813 -0.4437
C18 C 0.6354(5) 0.1817(3) -0.3968(3)
H12 H 0.5889 0.2454 -0.4279
C19 C 0.5205(4) 0.1260(3) -0.3414(3)
loop_
_geom_bond_atom_site_label_1
_geom_bond_atom_site_label_2
_geom_bond_site_symmetry_1
_geom_bond_site_symmetry_2
F1 C1 1_555 1_555
F2 C15 1_555 1_555
F3 C19 1_555 1_555
O1 C7 1_555 1_555
O2 C11 1_555 1_555
O3 C12 1_555 1_555
O4 C13 1_555 1_555
N1 H1 1_555 1_555
N2 N1 1_555 1_555
H2 N2 1_555 1_555
N3 H3 1_555 1_555
C1 C2 1_555 1_555
C2 H4 1_555 1_555
C3 C2 1_555 1_555
H5 C3 1_555 1_555
C4 C3 1_555 1_555
C5 C4 1_555 1_555
H6 C5 1_555 1_555
C6 C1 1_555 1_555
H7 C6 1_555 1_555
C7 C4 1_555 1_555
C8 O1 1_555 1_555
C9 C8 1_555 1_555
H8 C9 1_555 1_555
C10 C7 1_555 1_555
H9 C10 1_555 1_555
C11 N1 1_555 1_555
C12 N2 1_555 1_555
C13 N3 1_555 1_555
C14 C13 1_555 1_555
C15 C14 1_555 1_555
C16 C15 1_555 1_555
H10 C16 1_555 1_555
C17 C16 1_555 1_555
H11 C17 1_555 1_555
C18 C17 1_555 1_555
H12 C18 1_555 1_555
C19 C14 1_555 1_555
N3 C12 1_555 1_555
C5 C6 1_555 1_555
C8 C11 1_555 1_555
C9 C10 1_555 1_555
C18 C19 1_555 1_555

#END
