
#######################################################################
#
#                 Cambridge Crystallographic Data Centre
#                                CCDC 
#
#######################################################################
#
# If this CIF has been generated from an entry in the Cambridge 
# Structural Database, then it will include bibliographic, chemical, 
# crystal, experimental, refinement or atomic coordinate data resulting 
# from the CCDC's data processing and validation procedures.
#
#######################################################################

data_FUZSUP
_chemical_name_common            'Camellisin C methanol solvate hemihydrate'
_chemical_formula_moiety         'C30 H46 O7,1.5(C1 H4 O1),0.5(H2 O1)'
_chemical_name_systematic        
'3,11,12,21-Tetrahydroxy-22-oxours-12-en-23-oic acid methanol solvate hemihydrate'
_symmetry_cell_setting           triclinic
_symmetry_space_group_name_H-M   'P 1'
_symmetry_Int_Tables_number      1
_space_group_name_Hall           'P 1'
loop_
_symmetry_equiv_pos_site_id
_symmetry_equiv_pos_as_xyz
1 x,y,z
_cell_length_a                   11.1828(12)
_cell_length_b                   12.0281(13)
_cell_length_c                   13.6749(15)
_cell_angle_alpha                110.2639(10)
_cell_angle_beta                 90.015(2)
_cell_angle_gamma                114.4298(10)
_cell_volume                     1548.71
_exptl_crystal_colour            colorless
_exptl_crystal_description       block
_cell_formula_units_Z            2
loop_
_atom_site_label
_atom_site_type_symbol
_atom_site_fract_x
_atom_site_fract_y
_atom_site_fract_z
O1 O 0.0324(4) 0.8731(4) 1.1628(3)
H1 H 0.0697 0.9219 1.2238
O2 O -0.0207(4) 0.8387(4) 0.9595(3)
O3 O 0.1520(4) 0.8992(4) 0.8788(3)
H2 H 0.2307 0.9148 0.8887
O4 O 0.1015(3) 0.3273(3) 0.8811(3)
H3 H 0.0287 0.3032 0.8474
O5 O 0.2424(3) 0.2100(3) 0.7744(3)
H4 H 0.1825 0.1824 0.7253
O6 O 0.7261(4) 0.2573(5) 0.6312(3)
O7 O 0.8460(3) 0.2357(4) 0.7783(3)
H5 H 0.9183 0.2761 0.8176
C1 C 0.0954(5) 0.5774(5) 1.0144(4)
H6 H 0.0335 0.4847 0.9804
H7 H 0.1555 0.5862 1.0707
C2 C 0.0179(5) 0.6550(5) 1.0621(4)
H8 H -0.0265 0.6253 1.1155
H9 H -0.0500 0.6377 1.0074
C3 C 0.1077(5) 0.8039(6) 1.1125(4)
H10 H 0.1731 0.8176 1.1685
C4 C 0.1870(5) 0.8581(5) 1.0340(4)
C5 C 0.2653(4) 0.7753(5) 0.9864(4)
H11 H 0.3199 0.7861 1.0481
C6 C 0.3655(4) 0.8257(5) 0.9185(4)
H12 H 0.4121 0.9213 0.9495
H13 H 0.3199 0.7994 0.8482
C7 C 0.4644(4) 0.7675(5) 0.9121(4)
H14 H 0.5076 0.7929 0.9831
H15 H 0.5326 0.8046 0.8735
C8 C 0.3995(4) 0.6161(4) 0.8577(3)
C9 C 0.2747(4) 0.5529(4) 0.9063(3)
H16 H 0.3096 0.5588 0.9745
C10 C 0.1780(4) 0.6229(5) 0.9317(3)
C11 C 0.2054(4) 0.4055(5) 0.8370(4)
H17 H 0.1649 0.3957 0.7691
C12 C 0.3014(4) 0.3449(5) 0.8151(4)
C13 C 0.4343(4) 0.4109(4) 0.8309(3)
C14 C 0.5032(4) 0.5609(4) 0.8734(3)
C15 C 0.6218(5) 0.6107(5) 0.8147(5)
H18 H 0.5869 0.6054 0.7474
H19 H 0.6796 0.7029 0.8563
C16 C 0.7042(5) 0.5336(5) 0.7947(4)
H20 H 0.7499 0.5492 0.8618
H21 H 0.7713 0.5658 0.7535
C17 C 0.6181(4) 0.3833(5) 0.7352(4)
C18 C 0.5158(4) 0.3317(5) 0.8054(3)
H22 H 0.4532 0.2410 0.7606
C19 C 0.5787(4) 0.3229(5) 0.9024(3)
H23 H 0.6401 0.4128 0.9498
C20 C 0.6576(4) 0.2431(5) 0.8703(4)
H24 H 0.5968 0.1546 0.8202
C21 C 0.7667(4) 0.3055(5) 0.8130(4)
H25 H 0.8255 0.3957 0.8614
C22 C 0.7057(5) 0.3124(5) 0.7170(4)
C23 C 0.0921(5) 0.8612(5) 0.9536(4)
C24 C 0.2871(6) 1.0035(5) 1.0970(5)
H26 H 0.2393 1.0542 1.1267
H27 H 0.3411 1.0386 1.0506
H28 H 0.3430 1.0078 1.1529
C25 C 0.0805(4) 0.5858(5) 0.8329(4)
H29 H 0.0253 0.6307 0.8525
H30 H 0.0256 0.4921 0.8042
H31 H 0.1302 0.6115 0.7808
C26 C 0.3601(5) 0.5818(5) 0.7391(4)
H32 H 0.2981 0.6154 0.7305
H33 H 0.3194 0.4876 0.7022
H34 H 0.4382 0.6209 0.7107
C27 C 0.5644(5) 0.6154(5) 0.9911(4)
H35 H 0.6258 0.5806 0.9981
H36 H 0.4948 0.5894 1.0312
H37 H 0.6106 0.7100 1.0171
C28 C 0.5450(6) 0.3526(6) 0.6282(4)
H38 H 0.6087 0.3848 0.5857
H39 H 0.4871 0.3949 0.6383
H40 H 0.4933 0.2589 0.5931
C29 C 0.4699(5) 0.2656(6) 0.9625(4)
H41 H 0.5091 0.2608 1.0225
H42 H 0.4065 0.1786 0.9167
H43 H 0.4256 0.3212 0.9861
C30 C 0.7186(6) 0.2276(7) 0.9609(5)
H44 H 0.6497 0.1872 0.9965
H45 H 0.7816 0.3128 1.0097
H46 H 0.7632 0.1729 0.9337
O8 O 1.0317(5) 0.3091(5) 0.4938(4)
H47 H 1.0691 0.2974 0.4422
O9 O 1.0780(4) 0.3363(5) 0.3081(3)
O10 O 0.9071(4) 0.2845(5) 0.1939(3)
H48 H 0.9617 0.2865 0.1538
O11 O 0.9438(3) 0.8432(3) 0.5401(2)
H49 H 1.0178 0.8660 0.5229
O12 O 0.8016(4) 0.9568(4) 0.5007(4)
H50 H 0.7435 0.9825 0.5074
O13 O 0.3200(4) 0.9049(4) 0.3281(3)
O14 O 0.1986(3) 0.9258(3) 0.4923(3)
H51 H 0.2014 0.9520 0.4439
C31 C 0.9544(5) 0.5951(5) 0.5213(4)
H52 H 1.0127 0.6889 0.5447
H53 H 0.8934 0.5827 0.5712
C32 C 1.0372(5) 0.5240(6) 0.5229(4)
H54 H 1.0829 0.5561 0.5944
H55 H 1.1041 0.5425 0.4781
C33 C 0.9512(6) 0.3756(6) 0.4842(4)
H56 H 0.8863 0.3611 0.5321
C34 C 0.8706(5) 0.3155(5) 0.3719(4)
C35 C 0.7893(4) 0.3962(5) 0.3735(4)
H57 H 0.7360 0.3856 0.4294
C36 C 0.6853(5) 0.3413(5) 0.2752(4)
H58 H 0.7288 0.3647 0.2191
H59 H 0.6396 0.2458 0.2505
C37 C 0.5857(4) 0.3983(5) 0.3027(4)
H60 H 0.5430 0.3740 0.3587
H61 H 0.5173 0.3592 0.2413
C38 C 0.6486(4) 0.5498(5) 0.3385(3)
C39 C 0.7734(4) 0.6153(5) 0.4261(3)
H62 H 0.7385 0.6099 0.4909
C40 C 0.8729(4) 0.5479(5) 0.4106(3)
C41 C 0.8424(4) 0.7636(4) 0.4458(4)
H63 H 0.8839 0.7742 0.3845
C42 C 0.7430(5) 0.8202(5) 0.4597(4)
C43 C 0.6120(4) 0.7535(4) 0.4357(3)
C44 C 0.5444(4) 0.6025(4) 0.3869(3)
C45 C 0.4255(4) 0.5541(5) 0.2990(4)
H64 H 0.4603 0.5604 0.2352
H65 H 0.3683 0.4616 0.2837
C46 C 0.3414(4) 0.6290(5) 0.3255(4)
H66 H 0.2969 0.6140 0.3838
H67 H 0.2734 0.5953 0.2649
C47 C 0.4263(4) 0.7799(5) 0.3562(3)
C48 C 0.5281(4) 0.8300(4) 0.4577(4)
H68 H 0.5898 0.9213 0.4692
C49 C 0.4643(5) 0.8368(5) 0.5593(4)
H69 H 0.4018 0.7465 0.5500
C50 C 0.3846(5) 0.9192(5) 0.5771(4)
H70 H 0.4455 1.0092 0.5846
C51 C 0.2783(4) 0.8579(5) 0.4796(4)
H71 H 0.2199 0.7675 0.4727
C52 C 0.3382(4) 0.8491(5) 0.3821(4)
C53 C 0.9642(6) 0.3159(5) 0.2894(4)
C54 C 0.7766(7) 0.1704(6) 0.3476(6)
H72 H 0.8280 0.1231 0.3473
H73 H 0.7221 0.1327 0.2796
H74 H 0.7208 0.1644 0.4007
C55 C 0.9687(4) 0.5835(5) 0.3345(4)
H75 H 1.0252 0.5400 0.3281
H76 H 1.0225 0.6773 0.3614
H77 H 0.9186 0.5554 0.2664
C56 C 0.6878(5) 0.5812(5) 0.2400(4)
H78 H 0.7505 0.5480 0.2123
H79 H 0.7275 0.6751 0.2589
H80 H 0.6098 0.5402 0.1873
C57 C 0.4854(5) 0.5507(4) 0.4734(4)
H81 H 0.4232 0.5847 0.5009
H82 H 0.5559 0.5793 0.5296
H83 H 0.4405 0.4560 0.4435
C58 C 0.4969(5) 0.8080(6) 0.2674(4)
H84 H 0.4324 0.7756 0.2058
H85 H 0.5541 0.7649 0.2514
H86 H 0.5493 0.9016 0.2885
C59 C 0.5722(6) 0.8902(6) 0.6553(4)
H87 H 0.6195 0.8370 0.6416
H88 H 0.5311 0.8871 0.7165
H89 H 0.6333 0.9798 0.6677
C60 C 0.3207(6) 0.9256(6) 0.6758(4)
H90 H 0.2732 0.9781 0.6841
H91 H 0.3887 0.9648 0.7366
H92 H 0.2599 0.8380 0.6692
O15 O 0.0808(6) 0.2897(6) 0.0663(4)
H93 H 0.0787 0.2956 0.0084
C61 C 0.1487(7) 0.2173(8) 0.0689(6)
H94 H 0.2429 0.2729 0.0829
H95 H 0.1257 0.1452 0.0020
H96 H 0.1247 0.1833 0.1237
O16 O 0.1334(6) 0.0515(6) 0.3765(4)
H97 H 0.0760 0.0276 0.3265
C62 C 0.2466(10) 0.1693(9) 0.3810(7)
H98 H 0.2197 0.2119 0.3437
H99 H 0.3139 0.1465 0.3490
H100 H 0.2818 0.2282 0.4535
O17 O 0.8893(7) 0.9551(10) 0.7958(6)
H101 H 0.9124 1.0033 0.8586
C63 C 0.9918(6) 0.9291(8) 0.7581(4)
H102 H 1.0081 0.9488 0.6957
H103 H 0.9689 0.8376 0.7411
H104 H 1.0706 0.9828 0.8110
O18 O 0.0426(7) 0.1595(6) 0.6009(6)
H105 H -0.014(3) 0.179(4) 0.634(3)
loop_
_geom_bond_atom_site_label_1
_geom_bond_atom_site_label_2
_geom_bond_site_symmetry_1
_geom_bond_site_symmetry_2
O1 H1 1_555 1_555
O2 C23 1_555 1_555
O3 H2 1_555 1_555
O4 H3 1_555 1_555
O5 H4 1_555 1_555
O6 C22 1_555 1_555
O7 H5 1_555 1_555
C1 H6 1_555 1_555
H7 C1 1_555 1_555
C2 C1 1_555 1_555
H8 C2 1_555 1_555
H9 C2 1_555 1_555
C3 O1 1_555 1_555
H10 C3 1_555 1_555
C4 C3 1_555 1_555
C5 C4 1_555 1_555
H11 C5 1_555 1_555
C6 C5 1_555 1_555
H12 C6 1_555 1_555
H13 C6 1_555 1_555
C7 C6 1_555 1_555
H14 C7 1_555 1_555
H15 C7 1_555 1_555
C8 C7 1_555 1_555
C9 C8 1_555 1_555
H16 C9 1_555 1_555
C10 C1 1_555 1_555
C11 O4 1_555 1_555
H17 C11 1_555 1_555
C12 O5 1_555 1_555
C13 C12 1_555 1_555
C14 C8 1_555 1_555
C15 C14 1_555 1_555
H18 C15 1_555 1_555
H19 C15 1_555 1_555
C16 C15 1_555 1_555
H20 C16 1_555 1_555
H21 C16 1_555 1_555
C17 C16 1_555 1_555
C18 C13 1_555 1_555
H22 C18 1_555 1_555
C19 C18 1_555 1_555
H23 C19 1_555 1_555
C20 C19 1_555 1_555
H24 C20 1_555 1_555
C21 O7 1_555 1_555
H25 C21 1_555 1_555
C22 C17 1_555 1_555
C23 O3 1_555 1_555
C24 C4 1_555 1_555
H26 C24 1_555 1_555
H27 C24 1_555 1_555
H28 C24 1_555 1_555
C25 C10 1_555 1_555
H29 C25 1_555 1_555
H30 C25 1_555 1_555
H31 C25 1_555 1_555
C26 C8 1_555 1_555
H32 C26 1_555 1_555
H33 C26 1_555 1_555
H34 C26 1_555 1_555
C27 C14 1_555 1_555
H35 C27 1_555 1_555
H36 C27 1_555 1_555
H37 C27 1_555 1_555
C28 C17 1_555 1_555
H38 C28 1_555 1_555
H39 C28 1_555 1_555
H40 C28 1_555 1_555
C29 C19 1_555 1_555
H41 C29 1_555 1_555
H42 C29 1_555 1_555
H43 C29 1_555 1_555
C30 C20 1_555 1_555
H44 C30 1_555 1_555
H45 C30 1_555 1_555
H46 C30 1_555 1_555
O8 H47 1_555 1_555
O9 C53 1_555 1_555
O10 H48 1_555 1_555
O11 H49 1_555 1_555
O12 H50 1_555 1_555
O13 C52 1_555 1_555
O14 H51 1_555 1_555
C31 H52 1_555 1_555
H53 C31 1_555 1_555
C32 C31 1_555 1_555
H54 C32 1_555 1_555
H55 C32 1_555 1_555
C33 O8 1_555 1_555
H56 C33 1_555 1_555
C34 C33 1_555 1_555
C35 C34 1_555 1_555
H57 C35 1_555 1_555
C36 C35 1_555 1_555
H58 C36 1_555 1_555
H59 C36 1_555 1_555
C37 C36 1_555 1_555
H60 C37 1_555 1_555
H61 C37 1_555 1_555
C38 C37 1_555 1_555
C39 C38 1_555 1_555
H62 C39 1_555 1_555
C40 C31 1_555 1_555
C41 O11 1_555 1_555
H63 C41 1_555 1_555
C42 O12 1_555 1_555
C43 C42 1_555 1_555
C44 C38 1_555 1_555
C45 C44 1_555 1_555
H64 C45 1_555 1_555
H65 C45 1_555 1_555
C46 C45 1_555 1_555
H66 C46 1_555 1_555
H67 C46 1_555 1_555
C47 C46 1_555 1_555
C48 C43 1_555 1_555
H68 C48 1_555 1_555
C49 C48 1_555 1_555
H69 C49 1_555 1_555
C50 C49 1_555 1_555
H70 C50 1_555 1_555
C51 O14 1_555 1_555
H71 C51 1_555 1_555
C52 C47 1_555 1_555
C53 O10 1_555 1_555
C54 C34 1_555 1_555
H72 C54 1_555 1_555
H73 C54 1_555 1_555
H74 C54 1_555 1_555
C55 C40 1_555 1_555
H75 C55 1_555 1_555
H76 C55 1_555 1_555
H77 C55 1_555 1_555
C56 C38 1_555 1_555
H78 C56 1_555 1_555
H79 C56 1_555 1_555
H80 C56 1_555 1_555
C57 C44 1_555 1_555
H81 C57 1_555 1_555
H82 C57 1_555 1_555
H83 C57 1_555 1_555
C58 C47 1_555 1_555
H84 C58 1_555 1_555
H85 C58 1_555 1_555
H86 C58 1_555 1_555
C59 C49 1_555 1_555
H87 C59 1_555 1_555
H88 C59 1_555 1_555
H89 C59 1_555 1_555
C60 C50 1_555 1_555
H90 C60 1_555 1_555
H91 C60 1_555 1_555
H92 C60 1_555 1_555
O15 H93 1_555 1_555
C61 O15 1_555 1_555
H94 C61 1_555 1_555
H95 C61 1_555 1_555
H96 C61 1_555 1_555
O16 H97 1_555 1_555
C62 O16 1_555 1_555
H98 C62 1_555 1_555
H99 C62 1_555 1_555
H100 C62 1_555 1_555
O17 H101 1_555 1_555
C63 O17 1_555 1_555
H102 C63 1_555 1_555
H103 C63 1_555 1_555
H104 C63 1_555 1_555
O18 H105 1_555 1_555
C2 C3 1_555 1_555
C4 C23 1_555 1_555
C5 C10 1_555 1_555
C9 C10 1_555 1_555
C9 C11 1_555 1_555
C11 C12 1_555 1_555
C13 C14 1_555 1_555
C17 C18 1_555 1_555
C20 C21 1_555 1_555
C21 C22 1_555 1_555
C32 C33 1_555 1_555
C34 C53 1_555 1_555
C35 C40 1_555 1_555
C39 C40 1_555 1_555
C39 C41 1_555 1_555
C41 C42 1_555 1_555
C43 C44 1_555 1_555
C47 C48 1_555 1_555
C50 C51 1_555 1_555
C51 C52 1_555 1_555

#END
