
#######################################################################
#
#                 Cambridge Crystallographic Data Centre
#                                CCDC 
#
#######################################################################
#
# If this CIF has been generated from an entry in the Cambridge 
# Structural Database, then it will include bibliographic, chemical, 
# crystal, experimental, refinement or atomic coordinate data resulting 
# from the CCDC's data processing and validation procedures.
#
#######################################################################

data_FUZTAW
_chemical_name_common            'Wattisine A acetone solvate'
_chemical_formula_moiety         'C36 H38 N2 O6,C3 H6 O1'
_chemical_name_systematic        
"6,7'-dimethoxy-2,2'-dimethyltubocuraran-6',12'-diol acetone solvate"
_symmetry_cell_setting           monoclinic
_symmetry_space_group_name_H-M   'P 21'
_symmetry_Int_Tables_number      4
_space_group_name_Hall           'P 2yb'
loop_
_symmetry_equiv_pos_site_id
_symmetry_equiv_pos_as_xyz
1 x,y,z
2 -x,1/2+y,-z
_cell_length_a                   9.85860(10)
_cell_length_b                   14.7828(2)
_cell_length_c                   12.43800(10)
_cell_angle_alpha                90
_cell_angle_beta                 104.3950(10)
_cell_angle_gamma                90
_cell_volume                     1755.78
_exptl_crystal_colour            colorless
_exptl_crystal_description       block
_chemical_melting_point          '214-216 deg.C'
_cell_formula_units_Z            2
loop_
_atom_site_label
_atom_site_type_symbol
_atom_site_fract_x
_atom_site_fract_y
_atom_site_fract_z
C1 C 0.4576(2) 0.35914(12) 0.60252(13)
H1 H 0.5203 0.4097 0.6210
H2 H 0.5075 0.3042 0.6273
H3 H 0.3823 0.3660 0.6382
O1 O 0.79998(11) 0.40043(7) 0.42752(8)
O2 O 0.62165(11) 0.03077(7) 0.23239(10)
O3 O 0.82422(13) -0.08504(9) 0.26231(11)
O4 O 0.76526(12) 0.71352(7) 0.49478(11)
H4 H 0.7115 0.7510 0.5099
C2 C 0.49934(14) 0.53371(9) 0.45887(11)
O5 O 0.34795(13) -0.02508(8) 0.16822(11)
H5 H 0.4184 -0.0501 0.1589
N1 N 0.40049(13) 0.35549(8) 0.48164(9)
C3 C 0.71567(14) 0.47491(9) 0.43478(11)
C4 C 0.76478(16) 0.42143(10) 0.22733(13)
H6 H 0.7095 0.4725 0.2265
C5 C 0.54545(13) 0.18228(9) 0.26749(11)
H7 H 0.6375 0.2028 0.2867
C6 C 0.69940(15) 0.63285(9) 0.47387(12)
C7 C 0.51762(13) 0.09421(9) 0.23323(11)
O6 O 0.91218(12) 0.57148(9) 0.44101(11)
C8 C 0.56116(14) 0.61881(9) 0.47678(11)
H8 H 0.5085 0.6675 0.4911
C9 C 0.27389(15) 0.11787(12) 0.21615(14)
H9 H 0.1825 0.0963 0.2016
C10 C 0.71227(14) 0.11514(10) 0.09550(12)
H10 H 0.6418 0.1583 0.0873
C11 C 0.51404(13) 0.36487(9) 0.42393(10)
H11 H 0.5884 0.3224 0.4586
C12 C 0.81104(14) 0.12169(11) 0.03193(12)
C13 C 0.82386(13) 0.37801(9) 0.32573(12)
C14 C 0.43689(13) 0.24106(9) 0.27376(10)
C15 C 0.35147(15) 0.52230(10) 0.47148(13)
H12 H 0.2906 0.5644 0.4221
H13 H 0.3497 0.5379 0.5469
C16 C 0.77739(15) 0.55946(11) 0.45017(12)
C17 C 0.71851(14) 0.04531(10) 0.17012(12)
C18 C 0.92013(17) -0.01401(12) 0.11944(15)
H14 H 0.9902 -0.0574 0.1272
C19 C 0.82578(16) -0.01924(11) 0.18517(13)
C20 C 0.57688(14) 0.45977(9) 0.43826(11)
C21 C 0.29351(15) 0.42672(10) 0.44629(13)
H15 H 0.2191 0.4173 0.4835
H16 H 0.2532 0.4212 0.3671
C22 C 0.90926(14) 0.30271(11) 0.32821(13)
H17 H 0.9500 0.2740 0.3950
C23 C 0.78863(18) 0.38800(11) 0.12903(13)
H18 H 0.7471 0.4165 0.0623
C24 C 0.87339(16) 0.31275(11) 0.12856(14)
C25 C 0.46537(15) 0.34003(9) 0.30000(11)
H19 H 0.3805 0.3737 0.2678
H20 H 0.5364 0.3601 0.2636
C26 C 0.81347(17) 0.20298(12) -0.04110(13)
H21 H 0.7176 0.2260 -0.0666
C27 C 0.93246(15) 0.27142(11) 0.22954(14)
H22 H 0.9894 0.2211 0.2309
N2 N 0.86718(16) 0.18361(12) -0.14016(11)
C28 C 0.30179(14) 0.20675(11) 0.24879(12)
H23 H 0.2282 0.2444 0.2541
C29 C 1.0011(2) 0.05699(18) -0.04081(19)
H24 H 1.0819 0.0957 -0.0137
H25 H 1.0343 -0.0035 -0.0507
C30 C 0.38030(15) 0.06109(10) 0.20504(11)
C31 C 0.91190(16) 0.05498(13) 0.04205(14)
C32 C 0.9062(2) 0.27918(13) 0.02270(16)
H26 H 1.0025 0.2582 0.0410
H27 H 0.9005 0.3303 -0.0271
C33 C 0.7731(3) 0.2162(2) -0.24196(18)
H28 H 0.8196 0.2137 -0.3012
H29 H 0.7468 0.2775 -0.2318
H30 H 0.6909 0.1789 -0.2601
C34 C 0.9144(3) 0.09257(18) -0.15009(18)
H31 H 0.9699 0.0912 -0.2045
H32 H 0.8339 0.0536 -0.1764
C35 C 1.0137(2) 0.5721(2) 0.5426(2)
H33 H 0.9821 0.6092 0.5948
H34 H 1.0999 0.5959 0.5317
H35 H 1.0287 0.5115 0.5707
C36 C 0.9397(3) -0.14659(18) 0.2884(2)
H36 H 0.9416 -0.1816 0.2238
H37 H 0.9295 -0.1863 0.3470
H38 H 1.0255 -0.1132 0.3119
O7 O 0.4901(2) 0.32545(13) 0.86473(16)
C37 C 0.4084(3) 0.27966(19) 0.89733(18)
C38 C 0.3646(5) 0.1913(3) 0.8414(4)
H39 H 0.2695 0.1956 0.7979
H40 H 0.3713 0.1448 0.8964
H41 H 0.4246 0.1766 0.7938
C39 C 0.3524(5) 0.3075(4) 0.9897(3)
H42 H 0.3807 0.3685 1.0102
H43 H 0.3873 0.2681 1.0518
H44 H 0.2520 0.3042 0.9682
loop_
_geom_bond_atom_site_label_1
_geom_bond_atom_site_label_2
_geom_bond_site_symmetry_1
_geom_bond_site_symmetry_2
C1 H1 1_555 1_555
H2 C1 1_555 1_555
H3 C1 1_555 1_555
O1 C3 1_555 1_555
O2 C7 1_555 1_555
O3 C19 1_555 1_555
O4 H4 1_555 1_555
C2 C8 1_555 1_555
O5 H5 1_555 1_555
N1 C1 1_555 1_555
C3 C16 1_555 1_555
C4 H6 1_555 1_555
C5 H7 1_555 1_555
C6 O4 1_555 1_555
C7 C5 1_555 1_555
O6 C16 1_555 1_555
C8 C6 1_555 1_555
H8 C8 1_555 1_555
C9 H9 1_555 1_555
C10 H10 1_555 1_555
C11 N1 1_555 1_555
H11 C11 1_555 1_555
C12 C10 1_555 1_555
C13 O1 1_555 1_555
C14 C5 1_555 1_555
C15 C2 1_555 1_555
H12 C15 1_555 1_555
H13 C15 1_555 1_555
C16 C6 1_555 1_555
C17 O2 1_555 1_555
C18 H14 1_555 1_555
C19 C17 1_555 1_555
C20 C2 1_555 1_555
C21 N1 1_555 1_555
H15 C21 1_555 1_555
H16 C21 1_555 1_555
C22 C13 1_555 1_555
H17 C22 1_555 1_555
C23 C4 1_555 1_555
H18 C23 1_555 1_555
C24 C23 1_555 1_555
C25 C11 1_555 1_555
H19 C25 1_555 1_555
H20 C25 1_555 1_555
C26 C12 1_555 1_555
H21 C26 1_555 1_555
C27 C22 1_555 1_555
H22 C27 1_555 1_555
N2 C26 1_555 1_555
C28 C9 1_555 1_555
H23 C28 1_555 1_555
C29 H24 1_555 1_555
H25 C29 1_555 1_555
C30 O5 1_555 1_555
C31 C12 1_555 1_555
C32 C24 1_555 1_555
H26 C32 1_555 1_555
H27 C32 1_555 1_555
C33 N2 1_555 1_555
H28 C33 1_555 1_555
H29 C33 1_555 1_555
H30 C33 1_555 1_555
C34 N2 1_555 1_555
H31 C34 1_555 1_555
H32 C34 1_555 1_555
C35 O6 1_555 1_555
H33 C35 1_555 1_555
H34 C35 1_555 1_555
H35 C35 1_555 1_555
C36 O3 1_555 1_555
H36 C36 1_555 1_555
H37 C36 1_555 1_555
H38 C36 1_555 1_555
O7 C37 1_555 1_555
C37 C38 1_555 1_555
C38 H39 1_555 1_555
H40 C38 1_555 1_555
H41 C38 1_555 1_555
C39 C37 1_555 1_555
H42 C39 1_555 1_555
H43 C39 1_555 1_555
H44 C39 1_555 1_555
C3 C20 1_555 1_555
C4 C13 1_555 1_555
C7 C30 1_555 1_555
C9 C30 1_555 1_555
C10 C17 1_555 1_555
C11 C20 1_555 1_555
C14 C25 1_555 1_555
C14 C28 1_555 1_555
C15 C21 1_555 1_555
C18 C19 1_555 1_555
C18 C31 1_555 1_555
C24 C27 1_555 1_555
C26 C32 1_555 1_555
C29 C31 1_555 1_555
C29 C34 1_555 1_555

#END
