
#######################################################################
#
#                 Cambridge Crystallographic Data Centre
#                                CCDC 
#
#######################################################################
#
# If this CIF has been generated from an entry in the Cambridge 
# Structural Database, then it will include bibliographic, chemical, 
# crystal, experimental, refinement or atomic coordinate data resulting 
# from the CCDC's data processing and validation procedures.
#
#######################################################################

data_FUZTIE
_chemical_compound_source        Changweikang
_chemical_name_common            'changweikangic acid A'
_chemical_formula_moiety         'C14 H22 O3'
_chemical_name_systematic        
'1-Hydroxy-5,5,8a-trimethyl-1,4,4a,5,6,7,8,8a-octahydronaphthalene-2-carboxylic acid'
_chemical_properties_biological  'inhibitory activity evaluated'
_symmetry_cell_setting           triclinic
_symmetry_space_group_name_H-M   'P 1'
_symmetry_Int_Tables_number      1
_space_group_name_Hall           'P 1'
loop_
_symmetry_equiv_pos_site_id
_symmetry_equiv_pos_as_xyz
1 x,y,z
_cell_length_a                   7.4784(7)
_cell_length_b                   7.4915(7)
_cell_length_c                   12.8876(13)
_cell_angle_alpha                100.4210(10)
_cell_angle_beta                 90.8170(10)
_cell_angle_gamma                107.985(2)
_cell_volume                     673.513
_cell_formula_units_Z            2
loop_
_atom_site_label
_atom_site_type_symbol
_atom_site_fract_x
_atom_site_fract_y
_atom_site_fract_z
O1 O 0.5554(4) 0.7882(4) 0.6097(2)
H1 H 0.5918 0.9002 0.6408
O2 O 0.8622(5) 0.8379(5) 0.6044(3)
O3 O 0.8392(4) 0.3797(4) 0.59506(19)
H2 H 0.9456 0.3711 0.5996
C1 C 0.9319(6) 0.2097(6) 0.3898(3)
H5 H 1.0499 0.3036 0.3802
H6 H 0.9472 0.1680 0.4554
C2 C 0.8896(7) 0.0391(7) 0.2986(4)
H7 H 0.8835 0.0810 0.2321
H8 H 0.9896 -0.0182 0.2977
C3 C 0.7038(7) -0.1069(6) 0.3111(3)
H9 H 0.7145 -0.1526 0.3760
H10 H 0.6795 -0.2153 0.2528
C4 C 0.5343(6) -0.0312(5) 0.3143(3)
C5 C 0.5853(5) 0.1528(5) 0.4019(3)
H11 H 0.5949 0.1083 0.4681
C6 C 0.4265(5) 0.2438(6) 0.4151(3)
H12 H 0.3821 0.2528 0.3457
H13 H 0.3220 0.1596 0.4444
C7 C 0.4814(5) 0.4367(5) 0.4839(3)
H14 H 0.3872 0.4912 0.5019
C8 C 0.6574(5) 0.5362(5) 0.5212(3)
C9 C 0.8158(5) 0.4549(5) 0.5023(3)
H15 H 0.9309 0.5591 0.4971
C10 C 0.7767(5) 0.3042(5) 0.3986(3)
C11 C 0.7011(6) 0.7329(5) 0.5834(3)
C12 C 0.4861(7) -0.0040(7) 0.2045(3)
H16 H 0.5963 0.0759 0.1789
H17 H 0.3890 0.0556 0.2078
H18 H 0.4423 -0.1262 0.1574
C13 C 0.3635(8) -0.1828(7) 0.3458(4)
H19 H 0.2539 -0.1423 0.3426
H20 H 0.3881 -0.1978 0.4165
H21 H 0.3419 -0.3026 0.2978
C14 C 0.7841(6) 0.4166(6) 0.3089(3)
H22 H 0.8921 0.5298 0.3227
H23 H 0.6716 0.4521 0.3054
H24 H 0.7932 0.3380 0.2429
O4 O 0.1688(4) 0.3209(5) 0.6615(3)
O5 O 0.1956(5) 0.0505(5) 0.6954(3)
H3 H 0.1056 0.0019 0.6512
O6 O 0.6369(4) 0.1389(4) 0.7140(2)
H4 H 0.6792 0.2231 0.6799
C15 C 0.8035(6) 0.1963(6) 0.9222(3)
H25 H 0.7263 0.0843 0.9468
H26 H 0.8533 0.1526 0.8568
C16 C 0.9671(6) 0.3062(7) 1.0043(4)
H27 H 0.9184 0.3405 1.0718
H28 H 1.0434 0.2255 1.0133
C17 C 1.0878(6) 0.4857(7) 0.9701(4)
H29 H 1.1421 0.4491 0.9049
H30 H 1.1908 0.5524 1.0236
C18 C 0.9808(5) 0.6231(6) 0.9525(3)
C19 C 0.8029(5) 0.5105(5) 0.8754(3)
H31 H 0.8529 0.4766 0.8074
C20 C 0.6822(6) 0.6320(6) 0.8539(3)
H32 H 0.6526 0.6952 0.9209
H33 H 0.7543 0.7304 0.8176
C21 C 0.5035(5) 0.5199(6) 0.7892(3)
H34 H 0.4333 0.5871 0.7629
C22 C 0.4376(5) 0.3303(6) 0.7665(3)
C23 C 0.5444(5) 0.2097(5) 0.8013(3)
H35 H 0.4520 0.0987 0.8210
C24 C 0.6789(5) 0.3169(5) 0.8998(3)
C25 C 0.2544(6) 0.2360(7) 0.7018(3)
C26 C 0.9369(7) 0.7224(7) 1.0593(4)
H36 H 1.0521 0.7870 1.1028
H37 H 0.8552 0.6286 1.0939
H38 H 0.8760 0.8136 1.0481
C27 C 1.1108(7) 0.7769(7) 0.8988(4)
H39 H 1.0497 0.8692 0.8901
H40 H 1.1371 0.7178 0.8308
H41 H 1.2267 0.8396 0.9420
C28 C 0.5552(6) 0.3389(6) 0.9936(3)
H42 H 0.4967 0.4340 0.9869
H43 H 0.6326 0.3775 1.0589
H44 H 0.4597 0.2188 0.9933
loop_
_geom_bond_atom_site_label_1
_geom_bond_atom_site_label_2
_geom_bond_site_symmetry_1
_geom_bond_site_symmetry_2
O1 H1 1_555 1_555
O2 C11 1_555 1_555
O3 H2 1_555 1_555
O4 C25 1_555 1_555
O5 H3 1_555 1_555
O6 H4 1_555 1_555
C1 H5 1_555 1_555
H6 C1 1_555 1_555
C2 C1 1_555 1_555
H7 C2 1_555 1_555
H8 C2 1_555 1_555
C3 C2 1_555 1_555
H9 C3 1_555 1_555
H10 C3 1_555 1_555
C4 C3 1_555 1_555
C5 C4 1_555 1_555
H11 C5 1_555 1_555
C6 C5 1_555 1_555
H12 C6 1_555 1_555
H13 C6 1_555 1_555
C7 C6 1_555 1_555
H14 C7 1_555 1_555
C8 C7 1_555 1_555
C9 O3 1_555 1_555
H15 C9 1_555 1_555
C10 C1 1_555 1_555
C11 O1 1_555 1_555
C12 C4 1_555 1_555
H16 C12 1_555 1_555
H17 C12 1_555 1_555
H18 C12 1_555 1_555
C13 C4 1_555 1_555
H19 C13 1_555 1_555
H20 C13 1_555 1_555
H21 C13 1_555 1_555
C14 C10 1_555 1_555
H22 C14 1_555 1_555
H23 C14 1_555 1_555
H24 C14 1_555 1_555
C15 H25 1_555 1_555
H26 C15 1_555 1_555
C16 C15 1_555 1_555
H27 C16 1_555 1_555
H28 C16 1_555 1_555
C17 C16 1_555 1_555
H29 C17 1_555 1_555
H30 C17 1_555 1_555
C18 C17 1_555 1_555
C19 C18 1_555 1_555
H31 C19 1_555 1_555
C20 C19 1_555 1_555
H32 C20 1_555 1_555
H33 C20 1_555 1_555
C21 C20 1_555 1_555
H34 C21 1_555 1_555
C22 C21 1_555 1_555
C23 O6 1_555 1_555
H35 C23 1_555 1_555
C24 C15 1_555 1_555
C25 O5 1_555 1_555
C26 C18 1_555 1_555
H36 C26 1_555 1_555
H37 C26 1_555 1_555
H38 C26 1_555 1_555
C27 C18 1_555 1_555
H39 C27 1_555 1_555
H40 C27 1_555 1_555
H41 C27 1_555 1_555
C28 C24 1_555 1_555
H42 C28 1_555 1_555
H43 C28 1_555 1_555
H44 C28 1_555 1_555
C5 C10 1_555 1_555
C8 C9 1_555 1_555
C8 C11 1_555 1_555
C9 C10 1_555 1_555
C19 C24 1_555 1_555
C22 C23 1_555 1_555
C22 C25 1_555 1_555
C23 C24 1_555 1_555

#END
