
#######################################################################
#
#                 Cambridge Crystallographic Data Centre
#                                CCDC 
#
#######################################################################
#
# If this CIF has been generated from an entry in the Cambridge 
# Structural Database, then it will include bibliographic, chemical, 
# crystal, experimental, refinement or atomic coordinate data resulting 
# from the CCDC's data processing and validation procedures.
#
#######################################################################

data_FUZTEB
_chemical_name_common            
10-isopropyl-8-methyl-4-oxatricyclo[5.2.2.0$2,6!]undec-8-ene-3,5-dione
_chemical_formula_moiety         'C14 H18 O3'
_chemical_name_systematic        
(1R,2R,3S,4R,7R)-7-isopropyl-6-methylbicyclo[2.2.2]oct-5-ene-2,3-dicarboxylic
_symmetry_cell_setting           orthorhombic
_symmetry_space_group_name_H-M   'P 21 21 21'
_symmetry_Int_Tables_number      19
_space_group_name_Hall           'P 2ac 2ab'
loop_
_symmetry_equiv_pos_site_id
_symmetry_equiv_pos_as_xyz
1 x,y,z
2 1/2-x,-y,1/2+z
3 1/2+x,1/2-y,-z
4 -x,1/2+y,1/2-z
_cell_length_a                   6.87300(10)
_cell_length_b                   8.31600(10)
_cell_length_c                   22.2562(3)
_cell_angle_alpha                90
_cell_angle_beta                 90
_cell_angle_gamma                90
_cell_volume                     1272.07
_chemical_melting_point          '126-126.5 deg.C'
_cell_formula_units_Z            4
loop_
_atom_site_label
_atom_site_type_symbol
_atom_site_fract_x
_atom_site_fract_y
_atom_site_fract_z
O1 O -0.52143(13) 0.12928(12) 0.42072(5)
O2 O -0.35320(16) 0.18929(13) 0.50329(5)
O3 O -0.6715(2) 0.13535(17) 0.33145(6)
C1 C -0.24120(17) 0.47352(13) 0.42132(5)
H1 H -0.1621 0.4770 0.4579
C2 C -0.24437(18) 0.35778(15) 0.32295(5)
C3 C -0.55853(17) 0.38580(17) 0.37551(6)
H2 H -0.6822 0.4442 0.3777
C4 C -0.44595(17) 0.40430(15) 0.43448(5)
H3 H -0.5169 0.4738 0.4625
C5 C -0.14739(15) 0.36998(14) 0.37436(5)
H4 H -0.0295 0.3179 0.3808
C6 C -0.27050(18) 0.64460(14) 0.39509(5)
H5 H -0.3489 0.7064 0.4237
C7 C -0.43400(19) 0.45062(17) 0.32327(5)
H6 H -0.5023 0.4390 0.2849
C8 C -0.3891(2) 0.62750(17) 0.33636(6)
H7 H -0.5099 0.6870 0.3400
H8 H -0.3158 0.6728 0.3032
C9 C -0.0777(2) 0.73505(14) 0.38545(6)
H9 H -0.0079 0.6826 0.3524
C10 C -0.43119(18) 0.23631(16) 0.45884(6)
C11 C -0.1806(3) 0.2677(2) 0.26818(6)
H10 H -0.2687 0.1804 0.2608
H11 H -0.0519 0.2260 0.2744
H12 H -0.1802 0.3389 0.2342
C12 C -0.59484(19) 0.20867(19) 0.37079(7)
C13 C 0.0531(3) 0.7323(2) 0.44042(8)
H13 H -0.0163 0.7748 0.4743
H14 H 0.1664 0.7968 0.4330
H15 H 0.0920 0.6237 0.4487
C14 C -0.1175(3) 0.90906(19) 0.36713(9)
H16 H -0.1992 0.9105 0.3321
H17 H 0.0033 0.9619 0.3583
H18 H -0.1818 0.9640 0.3995
loop_
_geom_bond_atom_site_label_1
_geom_bond_atom_site_label_2
_geom_bond_site_symmetry_1
_geom_bond_site_symmetry_2
O1 C10 1_555 1_555
O2 C10 1_555 1_555
O3 C12 1_555 1_555
C1 H1 1_555 1_555
C2 C5 1_555 1_555
C3 H2 1_555 1_555
C4 C1 1_555 1_555
H3 C4 1_555 1_555
C5 C1 1_555 1_555
H4 C5 1_555 1_555
C6 C1 1_555 1_555
H5 C6 1_555 1_555
C7 C2 1_555 1_555
H6 C7 1_555 1_555
C8 C6 1_555 1_555
H7 C8 1_555 1_555
H8 C8 1_555 1_555
C9 C6 1_555 1_555
H9 C9 1_555 1_555
C10 C4 1_555 1_555
C11 C2 1_555 1_555
H10 C11 1_555 1_555
H11 C11 1_555 1_555
H12 C11 1_555 1_555
C12 O1 1_555 1_555
C13 C9 1_555 1_555
H13 C13 1_555 1_555
H14 C13 1_555 1_555
H15 C13 1_555 1_555
C14 C9 1_555 1_555
H16 C14 1_555 1_555
H17 C14 1_555 1_555
H18 C14 1_555 1_555
C3 C4 1_555 1_555
C3 C7 1_555 1_555
C3 C12 1_555 1_555
C7 C8 1_555 1_555

#END
