
#######################################################################
#
#                 Cambridge Crystallographic Data Centre
#                                CCDC 
#
#######################################################################
#
# If this CIF has been generated from an entry in the Cambridge 
# Structural Database, then it will include bibliographic, chemical, 
# crystal, experimental, refinement or atomic coordinate data resulting 
# from the CCDC's data processing and validation procedures.
#
#######################################################################

data_FUZWOM
_chemical_formula_moiety         'C15 H24 N2 O3 P2 S1'
_chemical_name_systematic        
cis-4,5-Dioxo-4-ethoxy-1-n-propyl-3-isopropyl-2-phenyl-2-thio-1,3,2,4-diazadiphospholane
_chemical_properties_biological  'herbicidal and fungicidal activity'
_symmetry_cell_setting           monoclinic
_symmetry_space_group_name_H-M   'P 21/n'
_symmetry_Int_Tables_number      14
_space_group_name_Hall           '-P 2yn'
loop_
_symmetry_equiv_pos_site_id
_symmetry_equiv_pos_as_xyz
1 x,y,z
2 1/2-x,1/2+y,1/2-z
3 -x,-y,-z
4 1/2+x,1/2-y,1/2+z
_cell_length_a                   8.654(3)
_cell_length_b                   15.390(2)
_cell_length_c                   15.235(3)
_cell_angle_alpha                90
_cell_angle_beta                 101.48(2)
_cell_angle_gamma                90
_cell_volume                     1988.48
_exptl_crystal_colour            colorless
_cell_formula_units_Z            4
loop_
_atom_site_label
_atom_site_type_symbol
_atom_site_fract_x
_atom_site_fract_y
_atom_site_fract_z
P1 P 0.2124(2) 0.0509(1) 0.2864(1)
P2 P 0.4555(3) 0.0263(2) 0.1871(1)
S1 S 0.1623(3) 0.1480(2) 0.3546(1)
O1 O 0.2273(7) 0.0455(5) 0.0401(3)
O2 O 0.4852(6) -0.0731(4) 0.1752(3)
O3 O 0.5793(4) 0.0829(4) 0.1686(4)
C1 C -0.019(1) 0.0751(6) 0.1326(5)
C2 C 0.1374(8) -0.0513(5) 0.3174(5)
C3 C 0.163(1) -0.1270(6) 0.2733(5)
C4 C 0.107(1) -0.2056(6) 0.2986(6)
C5 C 0.030(1) -0.2096(6) 0.3696(6)
C6 C 0.0065(9) -0.1355(6) 0.4124(6)
C7 C 0.0592(9) -0.0561(5) 0.3883(5)
C8 C -0.044(1) 0.1716(9) 0.1008(9)
C9 C -0.147(2) 0.193(1) 0.043(1)
N1 N 0.1481(7) 0.0593(4) 0.1728(4)
N2 N 0.4043(7) 0.0363(4) 0.2859(4)
C10 C 0.2587(9) 0.0457(6) 0.1213(5)
C11 C 0.5147(9) 0.0336(7) 0.3761(6)
C12 C 0.609(1) -0.0510(9) 0.3857(7)
C13 C 0.615(1) 0.112(1) 0.3907(8)
C14 C 0.573(1) -0.1048(8) 0.1097(7)
C15 C 0.674(2) -0.166(1) 0.1393(9)
loop_
_geom_bond_atom_site_label_1
_geom_bond_atom_site_label_2
_geom_bond_site_symmetry_1
_geom_bond_site_symmetry_2
P1 S1 1_555 1_555
P2 O2 1_555 1_555
O1 C10 1_555 1_555
O2 C14 1_555 1_555
O3 P2 1_555 1_555
C1 C8 1_555 1_555
C2 P1 1_555 1_555
C3 C2 1_555 1_555
C4 C3 1_555 1_555
C5 C4 1_555 1_555
C6 C5 1_555 1_555
C7 C2 1_555 1_555
C8 C9 1_555 1_555
N1 P1 1_555 1_555
N2 P1 1_555 1_555
C10 P2 1_555 1_555
C11 N2 1_555 1_555
C12 C11 1_555 1_555
C13 C11 1_555 1_555
C14 C15 1_555 1_555
P2 N2 1_555 1_555
C1 N1 1_555 1_555
C6 C7 1_555 1_555
N1 C10 1_555 1_555

#END
