
#######################################################################
#
#                 Cambridge Crystallographic Data Centre
#                                CCDC 
#
#######################################################################
#
# If this CIF has been generated from an entry in the Cambridge 
# Structural Database, then it will include bibliographic, chemical, 
# crystal, experimental, refinement or atomic coordinate data resulting 
# from the CCDC's data processing and validation procedures.
#
#######################################################################

data_GABNUV
_chemical_formula_moiety         'C16 H20 I1 N1 O5'
_chemical_name_systematic        1-(t-butoxycarbonyl)-4-(4-iodophenoxy)proline
_symmetry_cell_setting           orthorhombic
_symmetry_space_group_name_H-M   'P 21 21 21'
_symmetry_Int_Tables_number      19
_space_group_name_Hall           'P 2ac 2ab'
loop_
_symmetry_equiv_pos_site_id
_symmetry_equiv_pos_as_xyz
1 x,y,z
2 1/2+x,1/2-y,-z
3 -x,1/2+y,1/2-z
4 1/2-x,-y,1/2+z
_cell_length_a                   6.4983(17)
_cell_length_b                   10.457(3)
_cell_length_c                   27.274(7)
_cell_angle_alpha                90
_cell_angle_beta                 90
_cell_angle_gamma                90
_cell_volume                     1853.34
_exptl_crystal_colour            colorless
_exptl_crystal_description       plate
_cell_formula_units_Z            4
loop_
_atom_site_label
_atom_site_type_symbol
_atom_site_fract_x
_atom_site_fract_y
_atom_site_fract_z
I1 I 0.76825(8) 0.72164(5) 0.04001(2)
N1 N -0.1490(8) 0.6642(5) 0.2856(2)
O1 O -0.1332(7) 0.6410(5) 0.36591(17)
O2 O -0.3665(6) 0.7812(5) 0.33309(17)
O3 O 0.2428(7) 0.7360(4) 0.30754(16)
H1 H 0.3675 0.7553 0.3110
O4 O 0.3739(7) 0.5449(5) 0.2883(2)
O5 O 0.0688(6) 0.7486(4) 0.19643(16)
C1 C 0.0128(10) 0.5698(6) 0.2800(3)
H2 H -0.0201 0.4937 0.3008
C2 C -0.0051(11) 0.5323(6) 0.2259(2)
H3 H 0.1309 0.5092 0.2122
H4 H -0.1005 0.4594 0.2216
C3 C -0.0901(10) 0.6532(6) 0.2015(3)
H5 H -0.1582 0.6339 0.1695
C4 C -0.2400(10) 0.7043(6) 0.2386(2)
H6 H -0.2506 0.7985 0.2365
H7 H -0.3783 0.6664 0.2340
C5 C -0.2283(10) 0.7014(6) 0.3288(2)
C6 C 0.2280(11) 0.6161(6) 0.2922(2)
C7 C 0.2193(9) 0.7337(6) 0.1611(2)
C8 C 0.2195(12) 0.6406(6) 0.1254(2)
H8 H 0.1117 0.5793 0.1242
C9 C 0.3768(11) 0.6366(7) 0.0914(3)
H9 H 0.3781 0.5714 0.0672
C10 C 0.5309(9) 0.7259(7) 0.0924(2)
C11 C 0.5317(10) 0.8190(7) 0.1281(2)
H10 H 0.6390 0.8806 0.1292
C12 C 0.3760(10) 0.8222(7) 0.1624(2)
H11 H 0.3767 0.8862 0.1871
C13 C -0.1761(12) 0.6723(7) 0.4175(3)
C14 C -0.0356(16) 0.5820(9) 0.4443(3)
H12 H -0.0783 0.4937 0.4379
H13 H -0.0429 0.5992 0.4796
H14 H 0.1060 0.5944 0.4329
C15 C -0.1151(16) 0.8111(8) 0.4265(3)
H15 H -0.1984 0.8673 0.4057
H16 H 0.0308 0.8226 0.4187
H17 H -0.1387 0.8327 0.4611
C16 C -0.3992(14) 0.6461(11) 0.4294(3)
H18 H -0.4330 0.5578 0.4205
H19 H -0.4868 0.7050 0.4108
H20 H -0.4224 0.6586 0.4646
loop_
_geom_bond_atom_site_label_1
_geom_bond_atom_site_label_2
_geom_bond_site_symmetry_1
_geom_bond_site_symmetry_2
I1 C10 1_555 1_555
N1 C1 1_555 1_555
O1 C5 1_555 1_555
O2 C5 1_555 1_555
O3 H1 1_555 1_555
O4 C6 1_555 1_555
O5 C3 1_555 1_555
C1 H2 1_555 1_555
C2 C1 1_555 1_555
H3 C2 1_555 1_555
H4 C2 1_555 1_555
C3 C2 1_555 1_555
H5 C3 1_555 1_555
C4 N1 1_555 1_555
H6 C4 1_555 1_555
H7 C4 1_555 1_555
C5 N1 1_555 1_555
C6 O3 1_555 1_555
C7 O5 1_555 1_555
C8 C7 1_555 1_555
H8 C8 1_555 1_555
C9 C8 1_555 1_555
H9 C9 1_555 1_555
C10 C9 1_555 1_555
C11 C10 1_555 1_555
H10 C11 1_555 1_555
C12 C7 1_555 1_555
H11 C12 1_555 1_555
C13 O1 1_555 1_555
C14 C13 1_555 1_555
H12 C14 1_555 1_555
H13 C14 1_555 1_555
H14 C14 1_555 1_555
C15 C13 1_555 1_555
H15 C15 1_555 1_555
H16 C15 1_555 1_555
H17 C15 1_555 1_555
C16 C13 1_555 1_555
H18 C16 1_555 1_555
H19 C16 1_555 1_555
H20 C16 1_555 1_555
C1 C6 1_555 1_555
C3 C4 1_555 1_555
C11 C12 1_555 1_555

#END
