
#######################################################################
#
#                 Cambridge Crystallographic Data Centre
#                                CCDC 
#
#######################################################################
#
# If this CIF has been generated from an entry in the Cambridge 
# Structural Database, then it will include bibliographic, chemical, 
# crystal, experimental, refinement or atomic coordinate data resulting 
# from the CCDC's data processing and validation procedures.
#
#######################################################################

data_GABPAD
_chemical_formula_moiety         'C26 H22 I1 N1 O5,C1 H4 O1'
_chemical_name_systematic        
'1-((9H-fluoren-9-ylmethoxy)carbonyl)-4-(4-iodophenoxy)proline methanol solvate'
_symmetry_cell_setting           monoclinic
_symmetry_space_group_name_H-M   'P 21'
_symmetry_Int_Tables_number      4
_space_group_name_Hall           'P 2yb'
loop_
_symmetry_equiv_pos_site_id
_symmetry_equiv_pos_as_xyz
1 x,y,z
2 -x,1/2+y,-z
_cell_length_a                   9.8340(9)
_cell_length_b                   8.9990(8)
_cell_length_c                   14.7646(14)
_cell_angle_alpha                90
_cell_angle_beta                 106.4220(14)
_cell_angle_gamma                90
_cell_volume                     1253.31
_exptl_crystal_colour            colorless
_exptl_crystal_description       plate
_cell_formula_units_Z            2
loop_
_atom_site_label
_atom_site_type_symbol
_atom_site_fract_x
_atom_site_fract_y
_atom_site_fract_z
I1 I 1.05011(3) 0.59476(4) 0.16072(2)
N1 N 0.4139(3) 0.4205(3) 0.4748(2)
O1 O 0.4131(3) 0.4099(3) 0.62584(18)
O2 O 0.2182(3) 0.4935(3) 0.51450(18)
O3 O 0.7959(3) 0.3787(3) 0.5606(2)
H1 H 0.865(5) 0.430(5) 0.579(3)
O4 O 0.6641(2) 0.5827(3) 0.55182(16)
O5 O 0.5401(3) 0.5457(2) 0.33157(18)
C1 C 0.5513(4) 0.3465(4) 0.4952(2)
H2 H 0.5539 0.2589 0.5373
C2 C 0.5545(4) 0.2946(4) 0.3961(3)
H3 H 0.6526 0.2944 0.3907
H4 H 0.5143 0.1935 0.3824
C3 C 0.4644(4) 0.4071(4) 0.3300(3)
H5 H 0.4272 0.3671 0.2644
C4 C 0.3456(4) 0.4406(4) 0.3741(2)
H6 H 0.3105 0.5436 0.3601
H7 H 0.2655 0.3707 0.3512
C5 C 0.3391(3) 0.4441(4) 0.5367(2)
C6 C 0.6734(4) 0.4513(4) 0.5389(2)
C7 C 0.6541(4) 0.5422(4) 0.2940(3)
C8 C 0.6403(5) 0.4942(5) 0.2028(3)
H8 H 0.5534 0.4530 0.1658
C9 C 0.7558(5) 0.5071(5) 0.1656(3)
H9 H 0.7474 0.4753 0.1029
C10 C 0.8819(4) 0.5661(4) 0.2200(3)
C11 C 0.8963(4) 0.6114(5) 0.3117(2)
H10 H 0.9834 0.6517 0.3491
C12 C 0.7816(3) 0.5973(6) 0.3486(2)
H11 H 0.7912 0.6258 0.4121
C13 C 0.3440(4) 0.4551(4) 0.6960(2)
H12 H 0.2526 0.4022 0.6852
H13 H 0.3245 0.5632 0.6907
C14 C 0.4395(4) 0.4191(4) 0.7940(2)
H14 H 0.4494 0.3093 0.8041
C15 C 0.5841(4) 0.4946(4) 0.8164(3)
C16 C 0.6938(4) 0.4699(5) 0.7772(3)
H15 H 0.6870 0.3952 0.7307
C17 C 0.8148(4) 0.5576(6) 0.8077(3)
H16 H 0.8918 0.5421 0.7819
C18 C 0.8244(5) 0.6662(6) 0.8746(4)
H17 H 0.9072 0.7259 0.8932
C19 C 0.7156(5) 0.6902(5) 0.9154(3)
H18 H 0.7243 0.7640 0.9627
C20 C 0.5941(3) 0.6049(6) 0.8861(2)
C21 C 0.4647(3) 0.6010(6) 0.9161(2)
C22 C 0.4236(5) 0.6853(5) 0.9830(3)
H19 H 0.4852 0.7589 1.0187
C23 C 0.2924(5) 0.6605(5) 0.9968(3)
H20 H 0.2632 0.7185 1.0418
C24 C 0.2025(5) 0.5516(5) 0.9457(3)
H21 H 0.1130 0.5353 0.9566
C25 C 0.2420(4) 0.4660(5) 0.8785(3)
H22 H 0.1802 0.3923 0.8431
C26 C 0.3742(4) 0.4911(4) 0.8647(3)
O6 O 0.0135(3) 0.5578(4) 0.5994(3)
H23 H 0.078(5) 0.539(5) 0.576(4)
C27 C 0.0175(6) 0.7098(6) 0.6215(5)
H24 H -0.0635 0.7347 0.6450
H25 H 0.0129 0.7683 0.5648
H26 H 0.1058 0.7324 0.6703
loop_
_geom_bond_atom_site_label_1
_geom_bond_atom_site_label_2
_geom_bond_site_symmetry_1
_geom_bond_site_symmetry_2
I1 C10 1_555 1_555
N1 C1 1_555 1_555
O1 C5 1_555 1_555
O2 C5 1_555 1_555
O3 H1 1_555 1_555
O4 C6 1_555 1_555
O5 C3 1_555 1_555
C1 H2 1_555 1_555
C2 C1 1_555 1_555
H3 C2 1_555 1_555
H4 C2 1_555 1_555
C3 C2 1_555 1_555
H5 C3 1_555 1_555
C4 N1 1_555 1_555
H6 C4 1_555 1_555
H7 C4 1_555 1_555
C5 N1 1_555 1_555
C6 O3 1_555 1_555
C7 O5 1_555 1_555
C8 C7 1_555 1_555
H8 C8 1_555 1_555
C9 C8 1_555 1_555
H9 C9 1_555 1_555
C10 C9 1_555 1_555
C11 C10 1_555 1_555
H10 C11 1_555 1_555
C12 C7 1_555 1_555
H11 C12 1_555 1_555
C13 O1 1_555 1_555
H12 C13 1_555 1_555
H13 C13 1_555 1_555
C14 C13 1_555 1_555
H14 C14 1_555 1_555
C15 C14 1_555 1_555
C16 C15 1_555 1_555
H15 C16 1_555 1_555
C17 C16 1_555 1_555
H16 C17 1_555 1_555
C18 C17 1_555 1_555
H17 C18 1_555 1_555
C19 C18 1_555 1_555
H18 C19 1_555 1_555
C20 C15 1_555 1_555
C21 C20 1_555 1_555
C22 C21 1_555 1_555
H19 C22 1_555 1_555
C23 C22 1_555 1_555
H20 C23 1_555 1_555
C24 C23 1_555 1_555
H21 C24 1_555 1_555
C25 C24 1_555 1_555
H22 C25 1_555 1_555
C26 C14 1_555 1_555
O6 H23 1_555 1_555
C27 O6 1_555 1_555
H24 C27 1_555 1_555
H25 C27 1_555 1_555
H26 C27 1_555 1_555
C1 C6 1_555 1_555
C3 C4 1_555 1_555
C11 C12 1_555 1_555
C19 C20 1_555 1_555
C21 C26 1_555 1_555
C25 C26 1_555 1_555

#END
