
#######################################################################
#
#                 Cambridge Crystallographic Data Centre
#                                CCDC 
#
#######################################################################
#
# If this CIF has been generated from an entry in the Cambridge 
# Structural Database, then it will include bibliographic, chemical, 
# crystal, experimental, refinement or atomic coordinate data resulting 
# from the CCDC's data processing and validation procedures.
#
#######################################################################

data_GABVOX
_chemical_formula_moiety         'C20 H15 N3 O2'
_chemical_name_systematic        
3-(5,6-Dihydrobenzimidazo[1,2-c]quinazolin-6-yl)benzene-1,2-diol
_symmetry_cell_setting           monoclinic
_symmetry_space_group_name_H-M   'P 21/n'
_symmetry_Int_Tables_number      14
_space_group_name_Hall           '-P 2yn'
loop_
_symmetry_equiv_pos_site_id
_symmetry_equiv_pos_as_xyz
1 x,y,z
2 1/2-x,1/2+y,1/2-z
3 -x,-y,-z
4 1/2+x,1/2-y,1/2+z
_cell_length_a                   8.7597(3)
_cell_length_b                   10.1181(3)
_cell_length_c                   17.5586(5)
_cell_angle_alpha                90
_cell_angle_beta                 92.549(2)
_cell_angle_gamma                90
_cell_volume                     1554.71
_exptl_crystal_colour            brown
_exptl_crystal_description       prism
_cell_formula_units_Z            4
loop_
_atom_site_label
_atom_site_type_symbol
_atom_site_fract_x
_atom_site_fract_y
_atom_site_fract_z
O1 O 0.94715(15) 0.62512(14) 0.43953(7)
H1 H 0.9640 0.6620 0.3979
O2 O 0.77128(14) 0.49491(13) 0.53636(7)
H2 H 0.8610 0.4725 0.5274
C1 C 0.8450(2) 0.6989(2) 0.47817(9)
C2 C 0.8282(2) 0.8344(2) 0.47082(10)
H3 H 0.8866 0.8817 0.4356
C3 C 0.7252(2) 0.9010(2) 0.51531(11)
H4 H 0.7132 0.9939 0.5100
C4 C 0.6399(2) 0.8327(2) 0.56736(11)
H5 H 0.5706 0.8791 0.5977
C5 C 0.6558(2) 0.6963(2) 0.57515(10)
C6 C 0.7574(2) 0.62982(19) 0.53007(10)
C7 C 0.5660(3) 0.6154(2) 0.63134(12)
H6 H 0.5721 0.5228 0.6231
N1 N 0.3898(3) 0.6234(3) 0.61107(14)
H7 H 0.3488 0.5682 0.5772
N2 N 0.5844(4) 0.6597(3) 0.70601(14)
N3 N 0.5471(3) 0.7583(3) 0.81778(15)
C8 C 0.7197(5) 0.6450(5) 0.7495(3)
C9 C 0.6950(6) 0.7074(5) 0.8190(3)
C10 C 0.8110(7) 0.7115(5) 0.8758(3)
H8 H 0.7951 0.7508 0.9239
C11 C 0.9510(6) 0.6562(6) 0.8593(3)
H9 H 1.0334 0.6602 0.8963
C12 C 0.9730(7) 0.5943(5) 0.7890(4)
H10 H 1.0700 0.5570 0.7799
C13 C 0.8574(6) 0.5859(4) 0.7323(2)
H11 H 0.8715 0.5427 0.6851
C14 C 0.4871(5) 0.7296(4) 0.7490(2)
C15 C 0.3386(4) 0.7668(4) 0.7171(4)
C16 C 0.2974(7) 0.7150(5) 0.6450(3)
C17 C 0.1563(7) 0.7526(5) 0.6097(3)
H12 H 0.1277 0.7205 0.5602
C18 C 0.0594(6) 0.8362(5) 0.6470(3)
H13 H -0.0364 0.8593 0.6232
C19 C 0.0999(11) 0.8876(8) 0.7192(4)
H14 H 0.0328 0.9452 0.7443
C20 C 0.2399(8) 0.8526(7) 0.7531(5)
H15 H 0.2693 0.8876 0.8018
H16? H 0.5301 0.5358 0.6082
N4? N 0.7003(5) 0.5358(4) 0.6884(2)
H17? H 0.7185 0.4516 0.6804
N5? N 0.5039(7) 0.6920(5) 0.6929(3)
N6? N 0.4524(6) 0.7995(5) 0.8004(2)
C21? C 0.3549(9) 0.7423(8) 0.6814(6)
C22? C 0.3246(11) 0.8088(9) 0.7480(5)
C23? C 0.1892(14) 0.8754(15) 0.7562(10)
H18? H 0.1673 0.9217 0.8015
C24? C 0.0865(18) 0.8702(14) 0.6930(7)
H19? H -0.0085 0.9147 0.6964
C25? C 0.1141(12) 0.8052(11) 0.6268(5)
H20? H 0.0399 0.8066 0.5856
C26? C 0.2516(13) 0.7366(8) 0.6195(6)
H21? H 0.2729 0.6889 0.5745
C27? C 0.5550(9) 0.7308(7) 0.7653(5)
C28? C 0.7080(9) 0.6917(8) 0.7905(6)
C29? C 0.7803(13) 0.6000(8) 0.7463(4)
C30? C 0.9308(12) 0.5622(10) 0.7677(6)
H22? H 0.9821 0.4982 0.7387
C31? C 1.0039(10) 0.6191(8) 0.8316(6)
H23? H 1.1061 0.5944 0.8454
C32? C 0.9302(11) 0.7110(9) 0.8754(6)
H24? H 0.9804 0.7479 0.9195
C33? C 0.7855(13) 0.7476(10) 0.8544(5)
H25? H 0.7355 0.8123 0.8836
loop_
_geom_bond_atom_site_label_1
_geom_bond_atom_site_label_2
_geom_bond_site_symmetry_1
_geom_bond_site_symmetry_2
O1 H1 1_555 1_555
O2 H2 1_555 1_555
C1 O1 1_555 1_555
C2 C1 1_555 1_555
H3 C2 1_555 1_555
C3 C2 1_555 1_555
H4 C3 1_555 1_555
C4 C3 1_555 1_555
H5 C4 1_555 1_555
C5 C4 1_555 1_555
C6 O2 1_555 1_555
C7 C5 1_555 1_555
H6 C7 1_555 1_555
N1 C7 1_555 1_555
H7 N1 1_555 1_555
N2 C7 1_555 1_555
N3 C9 1_555 1_555
C8 N2 1_555 1_555
C9 C8 1_555 1_555
C10 C9 1_555 1_555
H8 C10 1_555 1_555
C11 C10 1_555 1_555
H9 C11 1_555 1_555
C12 C11 1_555 1_555
H10 C12 1_555 1_555
C13 C8 1_555 1_555
H11 C13 1_555 1_555
C14 N2 1_555 1_555
C15 C14 1_555 1_555
C16 N1 1_555 1_555
C17 C16 1_555 1_555
H12 C17 1_555 1_555
C18 C17 1_555 1_555
H13 C18 1_555 1_555
C19 C18 1_555 1_555
H14 C19 1_555 1_555
C20 C15 1_555 1_555
H15 C20 1_555 1_555
C1 C6 1_555 1_555
C5 C6 1_555 1_555
N3 C14 1_555 1_555
C12 C13 1_555 1_555
C15 C16 1_555 1_555
C19 C20 1_555 1_555

#END
