
#######################################################################
#
#                 Cambridge Crystallographic Data Centre
#                                CCDC 
#
#######################################################################
#
# If this CIF has been generated from an entry in the Cambridge 
# Structural Database, then it will include bibliographic, chemical, 
# crystal, experimental, refinement or atomic coordinate data resulting 
# from the CCDC's data processing and validation procedures.
#
#######################################################################

data_GABVIR
_chemical_formula_moiety         'C36 H39 N5 O4,H2 O1'
_chemical_name_systematic        
"Ethyl 5-((3',6'-bis(ethylamino)-2',7'-dimethyl-3-oxospiro[isoindole-1,9'-xanthen]-2(3H)-yl)carbonoimidoyl)-3,4-dimethyl-1H-pyrrole-2-carboxylate monohydrate"
_symmetry_cell_setting           monoclinic
_symmetry_space_group_name_H-M   'C 2/c'
_symmetry_Int_Tables_number      15
_space_group_name_Hall           '-C 2yn'
loop_
_symmetry_equiv_pos_site_id
_symmetry_equiv_pos_as_xyz
1 x,y,z
2 -x,y,1/2-z
3 1/2+x,1/2+y,z
4 1/2-x,1/2+y,1/2-z
5 -x,-y,-z
6 x,-y,1/2+z
7 1/2-x,1/2-y,-z
8 1/2+x,1/2-y,1/2+z
_cell_length_a                   17.676(7)
_cell_length_b                   16.681(7)
_cell_length_c                   23.600(9)
_cell_angle_alpha                90
_cell_angle_beta                 94.701(9)
_cell_angle_gamma                90
_cell_volume                     6935.13
_cell_formula_units_Z            8
loop_
_atom_site_label
_atom_site_type_symbol
_atom_site_fract_x
_atom_site_fract_y
_atom_site_fract_z
C1 C 0.1631(5) 0.6432(4) 0.1642(5)
H1 H 0.2118 0.6325 0.1839
H2 H 0.1565 0.7000 0.1596
H3 H 0.1603 0.6179 0.1276
C2 C 0.1127(4) 0.6162(4) 0.1921(3)
H4 H 0.0643 0.6252 0.1705
H5 H 0.1125 0.6473 0.2268
C3 C 0.0996(2) 0.5140(3) 0.26015(19)
C4 C 0.09776(19) 0.4273(2) 0.27126(15)
C5 C 0.1126(2) 0.3593(2) 0.23933(14)
C6 C 0.1387(2) 0.3559(3) 0.18002(16)
H6 H 0.1078 0.3910 0.1556
H7 H 0.1340 0.3021 0.1659
H8 H 0.1907 0.3726 0.1809
C7 C 0.1003(2) 0.2924(2) 0.27393(14)
C8 C 0.1095(3) 0.2060(2) 0.25811(18)
H9 H 0.0704 0.1915 0.2293
H10 H 0.1055 0.1730 0.2910
H11 H 0.1583 0.1983 0.2439
C9 C 0.07658(18) 0.32113(19) 0.32524(14)
C10 C 0.05347(18) 0.2766(2) 0.37306(14)
H12 H 0.0546 0.2209 0.3727
C11 C -0.00938(18) 0.3181(2) 0.50791(14)
C12 C -0.03085(18) 0.26184(19) 0.55188(13)
C13 C -0.05295(19) 0.2778(2) 0.60598(15)
H13 H -0.0573 0.3301 0.6191
C14 C -0.0684(2) 0.2122(2) 0.63974(16)
H14 H -0.0840 0.2205 0.6760
C15 C -0.0607(2) 0.1350(2) 0.61989(16)
H15 H -0.0709 0.0922 0.6434
C16 C -0.0383(2) 0.1194(2) 0.56594(15)
H16 H -0.0337 0.0671 0.5530
C17 C -0.02308(17) 0.18431(19) 0.53193(13)
C18 C 0.00561(17) 0.18330(18) 0.47261(13)
C19 C 0.08331(17) 0.14488(18) 0.47333(13)
C20 C 0.14111(19) 0.1636(2) 0.51550(14)
H17 H 0.1307 0.2010 0.5430
C21 C 0.21257(19) 0.1297(2) 0.51846(15)
C22 C 0.2729(2) 0.1532(3) 0.56472(18)
H18 H 0.2858 0.1076 0.5883
H19 H 0.2538 0.1953 0.5874
H20 H 0.3172 0.1718 0.5478
C23 C 0.22825(19) 0.0715(2) 0.47720(15)
C24 C 0.3180(2) -0.0296(2) 0.44339(17)
H21 H 0.3729 -0.0336 0.4445
H22 H 0.2994 -0.0177 0.4045
C25 C 0.2868(3) -0.1097(3) 0.4595(2)
H23 H 0.3085 -0.1246 0.4967
H24 H 0.2994 -0.1494 0.4324
H25 H 0.2326 -0.1062 0.4598
C26 C 0.17215(18) 0.0534(2) 0.43441(14)
H26 H 0.1822 0.0167 0.4063
C27 C 0.10127(19) 0.08955(19) 0.43324(13)
C28 C -0.02601(17) 0.08659(18) 0.39077(13)
C29 C -0.0764(2) 0.0477(2) 0.35197(15)
H27 H -0.0584 0.0098 0.3275
C30 C -0.1533(2) 0.0648(2) 0.34920(16)
C31 C -0.17980(19) 0.1233(2) 0.38637(15)
C32 C -0.12791(18) 0.1592(2) 0.42500(14)
H28 H -0.1457 0.1965 0.4500
C33 C -0.04914(17) 0.14280(18) 0.42894(13)
C34 C -0.2631(2) 0.1458(3) 0.38234(19)
H29 H -0.2705 0.1904 0.4070
H30 H -0.2924 0.1009 0.3936
H31 H -0.2792 0.1603 0.3439
C35 C -0.1823(3) -0.0294(3) 0.2638(2)
H32 H -0.2217 -0.0312 0.2327
H33 H -0.1353 -0.0121 0.2491
C36 C -0.1730(4) -0.1071(4) 0.2902(3)
H34 H -0.1367 -0.1034 0.3226
H35 H -0.1551 -0.1445 0.2634
H36 H -0.2208 -0.1250 0.3020
N1 N 0.07603(15) 0.40322(16) 0.32302(11)
H37 H 0.0640 0.4346 0.3498
N2 N 0.03119(14) 0.31405(15) 0.41634(11)
N3 N 0.00886(14) 0.27273(14) 0.46246(11)
N4 N -0.20474(19) 0.0280(2) 0.31028(15)
H38 H -0.2522 0.0379 0.3123
N5 N 0.29860(18) 0.0370(2) 0.47948(14)
H39 H 0.3334 0.0557 0.5035
O1 O 0.08524(19) 0.56480(19) 0.29461(14)
O2 O 0.11727(17) 0.53158(19) 0.20757(13)
O3 O 0.04983(12) 0.06615(13) 0.38834(9)
O4 O -0.00709(14) 0.39207(14) 0.51017(10)
O5 O 0.06453(15) 0.48660(14) 0.42729(10)
loop_
_geom_bond_atom_site_label_1
_geom_bond_atom_site_label_2
_geom_bond_site_symmetry_1
_geom_bond_site_symmetry_2
C1 H1 1_555 1_555
H2 C1 1_555 1_555
H3 C1 1_555 1_555
C2 C1 1_555 1_555
H4 C2 1_555 1_555
H5 C2 1_555 1_555
C3 C4 1_555 1_555
C4 C5 1_555 1_555
C5 C6 1_555 1_555
C6 H6 1_555 1_555
H7 C6 1_555 1_555
H8 C6 1_555 1_555
C7 C5 1_555 1_555
C8 C7 1_555 1_555
H9 C8 1_555 1_555
H10 C8 1_555 1_555
H11 C8 1_555 1_555
C9 C7 1_555 1_555
C10 C9 1_555 1_555
H12 C10 1_555 1_555
C11 C12 1_555 1_555
C12 C13 1_555 1_555
C13 H13 1_555 1_555
C14 C13 1_555 1_555
H14 C14 1_555 1_555
C15 C14 1_555 1_555
H15 C15 1_555 1_555
C16 C15 1_555 1_555
H16 C16 1_555 1_555
C17 C12 1_555 1_555
C18 C17 1_555 1_555
C19 C18 1_555 1_555
C20 C19 1_555 1_555
H17 C20 1_555 1_555
C21 C20 1_555 1_555
C22 C21 1_555 1_555
H18 C22 1_555 1_555
H19 C22 1_555 1_555
H20 C22 1_555 1_555
C23 C21 1_555 1_555
C24 H21 1_555 1_555
H22 C24 1_555 1_555
C25 C24 1_555 1_555
H23 C25 1_555 1_555
H24 C25 1_555 1_555
H25 C25 1_555 1_555
C26 C23 1_555 1_555
H26 C26 1_555 1_555
C27 C19 1_555 1_555
C28 C29 1_555 1_555
C29 H27 1_555 1_555
C30 C29 1_555 1_555
C31 C30 1_555 1_555
C32 C31 1_555 1_555
H28 C32 1_555 1_555
C33 C18 1_555 1_555
C34 C31 1_555 1_555
H29 C34 1_555 1_555
H30 C34 1_555 1_555
H31 C34 1_555 1_555
C35 H32 1_555 1_555
H33 C35 1_555 1_555
C36 C35 1_555 1_555
H34 C36 1_555 1_555
H35 C36 1_555 1_555
H36 C36 1_555 1_555
N1 C4 1_555 1_555
H37 N1 1_555 1_555
N2 C10 1_555 1_555
N3 C11 1_555 1_555
N4 C30 1_555 1_555
H38 N4 1_555 1_555
N5 C23 1_555 1_555
H39 N5 1_555 1_555
O1 C3 1_555 1_555
O2 C2 1_555 1_555
O3 C27 1_555 1_555
O4 C11 1_555 1_555
C3 O2 1_555 1_555
C9 N1 1_555 1_555
C16 C17 1_555 1_555
C18 N3 1_555 1_555
C24 N5 1_555 1_555
C26 C27 1_555 1_555
C28 C33 1_555 1_555
C28 O3 1_555 1_555
C32 C33 1_555 1_555
C35 N4 1_555 1_555
N2 N3 1_555 1_555

#END
