
#######################################################################
#
#                 Cambridge Crystallographic Data Centre
#                                CCDC 
#
#######################################################################
#
# If this CIF has been generated from an entry in the Cambridge 
# Structural Database, then it will include bibliographic, chemical, 
# crystal, experimental, refinement or atomic coordinate data resulting 
# from the CCDC's data processing and validation procedures.
#
#######################################################################

data_GABXOY
_chemical_compound_source        'venom of Bufo bufo gargarizans'
_chemical_name_common            'Bufogargarizin A hydrate'
_chemical_formula_moiety         'C25 H30 O8,1.25(H2 O1)'
_chemical_name_systematic        
'5b,8-Dihydroxy-3a-methyl-10-oxo-3-(2-oxo-2H-pyran-5-yl)hexadecahydrocyclohepta[6,7]-as-indaceno[1,8b-b]oxiren-2-yl acetate hydrate'
_symmetry_cell_setting           monoclinic
_symmetry_space_group_name_H-M   'P 21'
_symmetry_Int_Tables_number      4
_space_group_name_Hall           'P 2yb'
loop_
_symmetry_equiv_pos_site_id
_symmetry_equiv_pos_as_xyz
1 x,y,z
2 -x,1/2+y,-z
_cell_length_a                   12.8228(3)
_cell_length_b                   9.8015(3)
_cell_length_c                   18.9778(3)
_cell_angle_alpha                90
_cell_angle_beta                 97.542(2)
_cell_angle_gamma                90
_cell_volume                     2364.55
_chemical_melting_point          '164-165 deg.C'
_cell_formula_units_Z            4
loop_
_atom_site_label
_atom_site_type_symbol
_atom_site_fract_x
_atom_site_fract_y
_atom_site_fract_z
O1 O 0.0130(3) -0.1433(5) 0.9111(2)
O2 O 0.2730(5) 0.1398(6) 0.9884(3)
O3 O 0.4909(11) -0.1623(15) 0.0892(8)
O4 O 0.2212(4) -0.0932(6) 0.9145(3)
H1 H 0.1590 -0.0959 0.8977
O5 O 0.3288(4) -0.5698(5) 0.9779(3)
H2 H 0.2811 -0.6216 0.9624
O6 O 0.5179(4) -0.3072(8) 0.8547(3)
O7 O 0.4565(3) 0.2545(5) 0.7669(2)
O8 O 0.2417(4) 0.6432(6) 0.5923(3)
O9 O 0.3170(4) 0.8463(6) 0.6188(3)
O10 O 0.4843(3) 0.2932(4) 0.61465(19)
O11 O 0.3963(4) 0.2806(5) 0.5051(2)
C1 C 0.2435(5) -0.2871(8) 0.8422(4)
H5 H 0.1730 -0.2785 0.8171
H6 H 0.2875 -0.3238 0.8090
C2 C 0.2404(5) -0.3890(8) 0.9007(3)
H7 H 0.1851 -0.4540 0.8852
H8 H 0.2196 -0.3410 0.9413
C3 C 0.3422(4) -0.4720(9) 0.9272(4)
H9 H 0.3630 -0.5200 0.8859
C4 C 0.4326(5) -0.3724(8) 0.9542(4)
H10 H 0.4129 -0.3213 0.9941
H11 H 0.4950 -0.4250 0.9711
C5 C 0.4586(4) -0.2751(9) 0.8992(4)
C6 C 0.4059(5) -0.1364(9) 0.8948(3)
H12 H 0.4092 -0.1031 0.9437
C7 C 0.4548(5) -0.0245(10) 0.8529(4)
H13 H 0.5039 0.0307 0.8841
H14 H 0.4910 -0.0635 0.8159
C8 C 0.3610(5) 0.0585(8) 0.8216(3)
H15 H 0.3361 0.1099 0.8604
C9 C 0.2785(4) -0.0487(8) 0.7973(4)
H16 H 0.3047 -0.1016 0.7595
C10 C 0.2838(5) -0.1427(8) 0.8636(3)
C11 C 0.1727(5) 0.0085(8) 0.7672(4)
H17 H 0.1432 0.0610 0.8031
H18 H 0.1245 -0.0650 0.7516
C12 C 0.1893(4) 0.1006(7) 0.7038(4)
H19 H 0.1219 0.1387 0.6842
H20 H 0.2140 0.0446 0.6673
C13 C 0.2689(4) 0.2206(7) 0.7218(3)
C14 C 0.3689(4) 0.1592(8) 0.7600(3)
C15 C 0.4500(4) 0.1510(7) 0.7122(3)
H21 H 0.5000 0.0749 0.7158
C16 C 0.4047(4) 0.2064(7) 0.6402(3)
H22 H 0.3882 0.1304 0.6071
C17 C 0.3014(4) 0.2822(7) 0.6510(3)
H23 H 0.2476 0.2540 0.6122
C18 C 0.2213(6) 0.3251(8) 0.7678(5)
H24 H 0.2702 0.3985 0.7791
H25 H 0.2065 0.2823 0.8109
H26 H 0.1573 0.3602 0.7423
C19 C 0.3102(4) 0.4353(8) 0.6470(3)
C20 C 0.2399(5) 0.5037(7) 0.6011(4)
H27 H 0.1873 0.4542 0.5740
C21 C 0.3885(4) 0.5160(7) 0.6885(3)
H28 H 0.4372 0.4738 0.7222
C22 C 0.3926(4) 0.6530(8) 0.6795(3)
H29 H 0.4456 0.7021 0.7065
C23 C 0.3188(5) 0.7246(9) 0.6300(4)
C24 C 0.4676(5) 0.3246(6) 0.5446(3)
C25 C 0.5471(5) 0.4230(7) 0.5260(3)
H30 H 0.5339 0.4436 0.4762
H31 H 0.6161 0.3840 0.5368
H32 H 0.5431 0.5053 0.5529
O12 O 0.3076(3) -0.0300(5) 0.1069(2)
H3 H 0.3686 -0.0339 0.1262
O13 O 0.1653(3) -0.5181(5) 0.0555(2)
H4 H 0.2142 -0.5677 0.0715
O14 O 0.0024(3) -0.1987(6) 0.1693(3)
O15 O 0.0607(3) 0.3108(4) 0.23499(19)
O16 O 0.2529(4) 0.6817(5) 0.4229(3)
O17 O 0.1885(5) 0.8873(6) 0.3914(3)
O18 O 0.0035(3) 0.3283(4) 0.38376(19)
O19 O 0.0769(4) 0.3021(5) 0.4958(2)
C26 C 0.2747(4) -0.2323(7) 0.1737(3)
H33 H 0.3482 -0.2285 0.1937
H34 H 0.2354 -0.2645 0.2107
C27 C 0.2630(4) -0.3358(7) 0.1142(4)
H35 H 0.2744 -0.2901 0.0705
H36 H 0.3177 -0.4041 0.1242
C28 C 0.1580(4) -0.4071(6) 0.1023(3)
H37 H 0.1436 -0.4440 0.1480
C29 C 0.0665(5) -0.3156(7) 0.0736(4)
H38 H 0.0760 -0.2845 0.0264
H39 H 0.0016 -0.3674 0.0700
C30 C 0.0588(4) -0.1941(8) 0.1213(3)
C31 C 0.1248(5) -0.0739(7) 0.1113(3)
H40 H 0.1304 -0.0635 0.0605
C32 C 0.0771(6) 0.0591(9) 0.1388(4)
H41 H 0.0519 0.1192 0.0996
H42 H 0.0193 0.0382 0.1652
C33 C 0.1696(4) 0.1256(7) 0.1877(3)
H43 H 0.2125 0.1781 0.1583
C34 C 0.2326(4) 0.0037(7) 0.2185(3)
H44 H 0.1891 -0.0441 0.2494
C35 C 0.2383(4) -0.0885(7) 0.1533(3)
C36 C 0.3327(4) 0.0462(7) 0.2648(3)
H45 H 0.3689 -0.0341 0.2854
H46 H 0.3789 0.0925 0.2360
C37 C 0.3075(4) 0.1394(6) 0.3229(3)
H47 H 0.3730 0.1712 0.3492
H48 H 0.2707 0.0875 0.3555
C38 C 0.2401(4) 0.2647(6) 0.2972(3)
C39 C 0.1458(4) 0.2125(6) 0.2476(3)
C40 C 0.0534(4) 0.2026(7) 0.2859(3)
H49 H 0.0024 0.1286 0.2751
C41 C 0.0858(4) 0.2476(6) 0.3627(3)
H50 H 0.0974 0.1674 0.3936
C42 C 0.1919(4) 0.3266(7) 0.3619(3)
H51 H 0.2380 0.2974 0.4046
C43 C 0.3058(5) 0.3689(7) 0.2619(4)
H52 H 0.2626 0.4454 0.2456
H53 H 0.3328 0.3271 0.2222
H54 H 0.3634 0.3993 0.2958
C44 C 0.1843(4) 0.4770(7) 0.3668(3)
C45 C 0.2506(5) 0.5461(8) 0.4146(3)
H55 H 0.2991 0.4954 0.4446
C46 C 0.1100(4) 0.5642(7) 0.3223(3)
H56 H 0.0617 0.5239 0.2877
C47 C 0.1090(4) 0.6998(6) 0.3295(3)
H57 H 0.0597 0.7509 0.3003
C48 C 0.1822(5) 0.7684(7) 0.3814(3)
C49 C 0.0101(5) 0.3550(7) 0.4545(3)
C50 C -0.0690(5) 0.4525(7) 0.4707(3)
H58 H -0.0612 0.4685 0.5210
H59 H -0.1378 0.4165 0.4553
H60 H -0.0600 0.5367 0.4464
loop_
_geom_bond_atom_site_label_1
_geom_bond_atom_site_label_2
_geom_bond_site_symmetry_1
_geom_bond_site_symmetry_2
O4 H1 1_555 1_555
O5 H2 1_555 1_555
O6 C5 1_555 1_555
O7 C14 1_555 1_555
O8 C20 1_555 1_555
O9 C23 1_555 1_555
O10 C16 1_555 1_555
O11 C24 1_555 1_555
O12 H3 1_555 1_555
O13 H4 1_555 1_555
O14 C30 1_555 1_555
O15 C39 1_555 1_555
O16 C45 1_555 1_555
O17 C48 1_555 1_555
O18 C41 1_555 1_555
O19 C49 1_555 1_555
C1 H5 1_555 1_555
H6 C1 1_555 1_555
C2 C1 1_555 1_555
H7 C2 1_555 1_555
H8 C2 1_555 1_555
C3 O5 1_555 1_555
H9 C3 1_555 1_555
C4 C3 1_555 1_555
H10 C4 1_555 1_555
H11 C4 1_555 1_555
C5 C4 1_555 1_555
C6 C5 1_555 1_555
H12 C6 1_555 1_555
C7 C6 1_555 1_555
H13 C7 1_555 1_555
H14 C7 1_555 1_555
C8 C7 1_555 1_555
H15 C8 1_555 1_555
C9 C8 1_555 1_555
H16 C9 1_555 1_555
C10 O4 1_555 1_555
C11 C9 1_555 1_555
H17 C11 1_555 1_555
H18 C11 1_555 1_555
C12 C11 1_555 1_555
H19 C12 1_555 1_555
H20 C12 1_555 1_555
C13 C12 1_555 1_555
C14 C8 1_555 1_555
C15 O7 1_555 1_555
H21 C15 1_555 1_555
C16 C15 1_555 1_555
H22 C16 1_555 1_555
C17 C13 1_555 1_555
H23 C17 1_555 1_555
C18 C13 1_555 1_555
H24 C18 1_555 1_555
H25 C18 1_555 1_555
H26 C18 1_555 1_555
C19 C17 1_555 1_555
C20 C19 1_555 1_555
H27 C20 1_555 1_555
C21 C19 1_555 1_555
H28 C21 1_555 1_555
C22 C21 1_555 1_555
H29 C22 1_555 1_555
C23 O8 1_555 1_555
C24 O10 1_555 1_555
C25 C24 1_555 1_555
H30 C25 1_555 1_555
H31 C25 1_555 1_555
H32 C25 1_555 1_555
C26 H33 1_555 1_555
H34 C26 1_555 1_555
C27 C26 1_555 1_555
H35 C27 1_555 1_555
H36 C27 1_555 1_555
C28 O13 1_555 1_555
H37 C28 1_555 1_555
C29 C28 1_555 1_555
H38 C29 1_555 1_555
H39 C29 1_555 1_555
C30 C29 1_555 1_555
C31 C30 1_555 1_555
H40 C31 1_555 1_555
C32 C31 1_555 1_555
H41 C32 1_555 1_555
H42 C32 1_555 1_555
C33 C32 1_555 1_555
H43 C33 1_555 1_555
C34 C33 1_555 1_555
H44 C34 1_555 1_555
C35 O12 1_555 1_555
C36 C34 1_555 1_555
H45 C36 1_555 1_555
H46 C36 1_555 1_555
C37 C36 1_555 1_555
H47 C37 1_555 1_555
H48 C37 1_555 1_555
C38 C37 1_555 1_555
C39 C33 1_555 1_555
C40 O15 1_555 1_555
H49 C40 1_555 1_555
C41 C40 1_555 1_555
H50 C41 1_555 1_555
C42 C38 1_555 1_555
H51 C42 1_555 1_555
C43 C38 1_555 1_555
H52 C43 1_555 1_555
H53 C43 1_555 1_555
H54 C43 1_555 1_555
C44 C42 1_555 1_555
C45 C44 1_555 1_555
H55 C45 1_555 1_555
C46 C44 1_555 1_555
H56 C46 1_555 1_555
C47 C46 1_555 1_555
H57 C47 1_555 1_555
C48 O16 1_555 1_555
C49 O18 1_555 1_555
C50 C49 1_555 1_555
H58 C50 1_555 1_555
H59 C50 1_555 1_555
H60 C50 1_555 1_555
C1 C10 1_555 1_555
C2 C3 1_555 1_555
C6 C10 1_555 1_555
C9 C10 1_555 1_555
C13 C14 1_555 1_555
C14 C15 1_555 1_555
C16 C17 1_555 1_555
C22 C23 1_555 1_555
C26 C35 1_555 1_555
C27 C28 1_555 1_555
C31 C35 1_555 1_555
C34 C35 1_555 1_555
C38 C39 1_555 1_555
C39 C40 1_555 1_555
C41 C42 1_555 1_555
C47 C48 1_555 1_555

#END
