
#######################################################################
#
#                 Cambridge Crystallographic Data Centre
#                                CCDC 
#
#######################################################################
#
# If this CIF has been generated from an entry in the Cambridge 
# Structural Database, then it will include bibliographic, chemical, 
# crystal, experimental, refinement or atomic coordinate data resulting 
# from the CCDC's data processing and validation procedures.
#
#######################################################################

data_GACCAR
_chemical_formula_moiety         '2(C9 H22 N1 1+),C2 O4 2-,4(H2 O1)'
_chemical_name_systematic        'bis(tripropylammonium) oxalate tetrahydrate'
_symmetry_cell_setting           monoclinic
_symmetry_space_group_name_H-M   'C 2/c'
_symmetry_Int_Tables_number      15
_space_group_name_Hall           '-C 2yn'
loop_
_symmetry_equiv_pos_site_id
_symmetry_equiv_pos_as_xyz
1 x,y,z
2 -x,y,1/2-z
3 1/2+x,1/2+y,z
4 1/2-x,1/2+y,1/2-z
5 -x,-y,-z
6 x,-y,1/2+z
7 1/2-x,1/2-y,-z
8 1/2+x,1/2-y,1/2+z
_cell_length_a                   15.918(5)
_cell_length_b                   13.599(4)
_cell_length_c                   14.497(5)
_cell_angle_alpha                90
_cell_angle_beta                 120.782(5)
_cell_angle_gamma                90
_cell_volume                     2696.05
_exptl_crystal_colour            colorless
_exptl_crystal_description       block
_cell_formula_units_Z            4
loop_
_atom_site_label
_atom_site_type_symbol
_atom_site_fract_x
_atom_site_fract_y
_atom_site_fract_z
C1 C 0.29424(12) 0.39839(12) 0.14219(13)
H1 H 0.2727 0.4031 0.0650
H2 H 0.3530 0.3559 0.1771
C2 C 0.32161(13) 0.50045(13) 0.19171(14)
H3 H 0.3650 0.4949 0.2705
H4 H 0.2619 0.5364 0.1769
C3 C 0.37375(15) 0.55674(14) 0.14449(16)
H5 H 0.3292 0.5656 0.0672
H6 H 0.4313 0.5196 0.1567
H7 H 0.3943 0.6212 0.1792
C4 C 0.24159(12) 0.33366(12) 0.26777(12)
H8 H 0.1815 0.3166 0.2686
H9 H 0.2675 0.3957 0.3084
C5 C 0.31652(13) 0.25313(12) 0.32495(13)
H10 H 0.3795 0.2724 0.3320
H11 H 0.2940 0.1916 0.2826
C6 C 0.33060(14) 0.23602(14) 0.43607(14)
H12 H 0.2671 0.2231 0.4292
H13 H 0.3600 0.2946 0.4806
H14 H 0.3738 0.1794 0.4698
C7 C 0.17947(12) 0.26037(12) 0.08454(13)
H15 H 0.2344 0.2133 0.1104
H16 H 0.1591 0.2783 0.0098
C8 C 0.09476(13) 0.21045(13) 0.08521(15)
H17 H 0.0405 0.2578 0.0629
H18 H 0.1157 0.1876 0.1587
C9 C 0.05988(15) 0.12317(13) 0.00849(17)
H19 H 0.0410 0.1458 -0.0638
H20 H 0.0034 0.0926 0.0070
H21 H 0.1128 0.0749 0.0329
N1 N 0.21458(10) 0.35123(10) 0.15313(10)
H22 H 0.1585 0.3984 0.1220
C10 C -0.00961(12) 0.49830(12) 0.04767(12)
O1 O 0.05580(9) 0.45860(9) 0.13318(9)
O2 O -0.08821(9) 0.53408(10) 0.03098(9)
C10D C 0.00961(12) 0.50170(12) -0.04767(12)
O1D O -0.05580(9) 0.54140(9) -0.13318(9)
O2D O 0.08821(9) 0.46592(10) -0.03098(9)
O3 O -0.14537(10) 0.57428(10) 0.17553(10)
H23 H -0.1203 0.5386 0.2311
H24 H -0.1275 0.5535 0.1327
O4 O 0.0000 0.73013(14) 0.2500
O5 O 0.0000 0.32568(14) 0.2500
H25? H 0.0067 0.3613 0.2059
H26? H -0.0123 0.3620 0.2895
H27? H -0.0493 0.6934 0.2305
H28? H 0.0509 0.6951 0.2773
loop_
_geom_bond_atom_site_label_1
_geom_bond_atom_site_label_2
_geom_bond_site_symmetry_1
_geom_bond_site_symmetry_2
C1 H1 1_555 1_555
H2 C1 1_555 1_555
C2 C1 1_555 1_555
H3 C2 1_555 1_555
H4 C2 1_555 1_555
C3 C2 1_555 1_555
H5 C3 1_555 1_555
H6 C3 1_555 1_555
H7 C3 1_555 1_555
C4 H8 1_555 1_555
H9 C4 1_555 1_555
C5 C4 1_555 1_555
H10 C5 1_555 1_555
H11 C5 1_555 1_555
C6 C5 1_555 1_555
H12 C6 1_555 1_555
H13 C6 1_555 1_555
H14 C6 1_555 1_555
C7 H15 1_555 1_555
H16 C7 1_555 1_555
C8 C7 1_555 1_555
H17 C8 1_555 1_555
H18 C8 1_555 1_555
C9 C8 1_555 1_555
H19 C9 1_555 1_555
H20 C9 1_555 1_555
H21 C9 1_555 1_555
N1 C1 1_555 1_555
H22 N1 1_555 1_555
C10 O1 1_555 1_555
O2 C10 1_555 1_555
O3 H23 1_555 1_555
H24 O3 1_555 1_555
C10D C10 1_555 1_555
O1D C10D 1_555 1_555
O2D C10D 1_555 1_555
C4 N1 1_555 1_555
C7 N1 1_555 1_555

#END
