
#######################################################################
#
#                 Cambridge Crystallographic Data Centre
#                                CCDC 
#
#######################################################################
#
# If this CIF has been generated from an entry in the Cambridge 
# Structural Database, then it will include bibliographic, chemical, 
# crystal, experimental, refinement or atomic coordinate data resulting 
# from the CCDC's data processing and validation procedures.
#
#######################################################################

data_GACNOP
_chemical_formula_moiety         'C1 H9 N6 1+,C3 N5 O6 1-'
_chemical_name_systematic        
'triaminoguanidinium 3,4,5-trinitropyrazol-1-ide'
_symmetry_cell_setting           triclinic
_symmetry_space_group_name_H-M   'P -1'
_symmetry_Int_Tables_number      2
_space_group_name_Hall           '-P 1'
loop_
_symmetry_equiv_pos_site_id
_symmetry_equiv_pos_as_xyz
1 x,y,z
2 -x,-y,-z
_cell_length_a                   7.4774(17)
_cell_length_b                   9.402(2)
_cell_length_c                   9.848(2)
_cell_angle_alpha                65.955(3)
_cell_angle_beta                 81.813(3)
_cell_angle_gamma                70.094(3)
_cell_volume                     594.48
_exptl_crystal_colour            yellow
_exptl_crystal_description       prism
_cell_formula_units_Z            2
loop_
_atom_site_label
_atom_site_type_symbol
_atom_site_fract_x
_atom_site_fract_y
_atom_site_fract_z
N1 N -0.38467(13) 1.12605(11) 0.43551(10)
N2 N -0.34684(13) 1.07374(11) 0.32207(10)
C1 C -0.21493(15) 0.92584(12) 0.37027(12)
C2 C -0.16369(14) 0.87639(12) 0.51679(11)
C3 C -0.27761(14) 1.00960(12) 0.55111(12)
N3 N -0.15723(13) 0.83584(11) 0.27425(10)
O1 O -0.17100(13) 0.91532(11) 0.13924(9)
O2 O -0.10033(13) 0.68533(10) 0.33346(10)
N4 N -0.02471(12) 0.72827(10) 0.60586(10)
O3 O -0.06447(13) 0.65590(10) 0.73611(9)
O4 O 0.12816(11) 0.68299(10) 0.54681(10)
N5 N -0.28082(13) 1.04002(11) 0.68406(10)
O5 O -0.42155(12) 1.14140(11) 0.70791(10)
O6 O -0.13908(12) 0.96359(10) 0.76393(9)
C4 C 0.4339(5) 0.6221(4) 0.1159(3)
N6 N 0.33510(16) 0.55232(13) 0.23476(12)
H1 H 0.2193 0.5549 0.2233
N7 N 0.4133(4) 0.4776(4) 0.3729(3)
H2 H 0.448(3) 0.370(3) 0.413(2)
H3 H 0.339(3) 0.516(3) 0.435(2)
N8 N 0.35977(16) 0.69150(14) -0.01778(12)
H4 H 0.4256 0.7313 -0.0975
N9 N 0.1614(7) 0.6997(6) -0.0285(5)
H5 H 0.098(3) 0.802(3) -0.053(3)
H6 H 0.170(3) 0.677(3) -0.108(3)
N10 N 0.61077(16) 0.61333(14) 0.13569(13)
H7 H 0.6702 0.5522 0.2211
N11 N 0.6964(4) 0.7084(5) 0.0107(4)
H8 H 0.712(3) 0.783(3) 0.028(2)
H9 H 0.805(3) 0.646(3) -0.004(2)
C5? C 0.4062(19) 0.616(2) 0.1276(14)
N12? N 0.2255(8) 0.6217(7) 0.1075(6)
H10? H 0.1533 0.5769 0.1795
N13? N 0.1733(19) 0.7024(14) -0.0321(13)
N14? N 0.4923(8) 0.7013(7) 0.0016(6)
H11? H 0.4373 0.7563 -0.0861
N15? N 0.682(2) 0.691(2) 0.029(2)
N16? N 0.4900(8) 0.5352(6) 0.2513(6)
H12? H 0.6151 0.5052 0.2478
N17? N 0.4116(15) 0.4898(15) 0.3880(12)
loop_
_geom_bond_atom_site_label_1
_geom_bond_atom_site_label_2
_geom_bond_site_symmetry_1
_geom_bond_site_symmetry_2
N1 N2 1_555 1_555
N2 C1 1_555 1_555
C1 C2 1_555 1_555
C2 C3 1_555 1_555
C3 N1 1_555 1_555
N3 C1 1_555 1_555
O1 N3 1_555 1_555
O2 N3 1_555 1_555
N4 C2 1_555 1_555
O3 N4 1_555 1_555
O4 N4 1_555 1_555
N5 C3 1_555 1_555
O5 N5 1_555 1_555
O6 N5 1_555 1_555
C4 N6 1_555 1_555
N6 H1 1_555 1_555
N7 N6 1_555 1_555
H2 N7 1_555 1_555
H3 N7 1_555 1_555
N8 C4 1_555 1_555
H4 N8 1_555 1_555
N9 N8 1_555 1_555
H5 N9 1_555 1_555
H6 N9 1_555 1_555
N10 C4 1_555 1_555
H7 N10 1_555 1_555
N11 N10 1_555 1_555
H8 N11 1_555 1_555
H9 N11 1_555 1_555

#END
