
#######################################################################
#
#                 Cambridge Crystallographic Data Centre
#                                CCDC 
#
#######################################################################
#
# If this CIF has been generated from an entry in the Cambridge 
# Structural Database, then it will include bibliographic, chemical, 
# crystal, experimental, refinement or atomic coordinate data resulting 
# from the CCDC's data processing and validation procedures.
#
#######################################################################

data_GACTEM
_chemical_formula_moiety         'C10 H10 N4 O1'
_chemical_name_systematic        
1-anilino-5-methyl-1H-1,2,3-triazole-4-carbaldehyde
_symmetry_cell_setting           orthorhombic
_symmetry_space_group_name_H-M   'P b c a'
_symmetry_Int_Tables_number      61
_space_group_name_Hall           '-P 2ac 2ab'
loop_
_symmetry_equiv_pos_site_id
_symmetry_equiv_pos_as_xyz
1 x,y,z
2 1/2+x,1/2-y,-z
3 -x,1/2+y,1/2-z
4 1/2-x,-y,1/2+z
5 -x,-y,-z
6 1/2-x,1/2+y,z
7 x,1/2-y,1/2+z
8 1/2+x,y,1/2-z
_cell_length_a                   10.2208(5)
_cell_length_b                   10.8693(6)
_cell_length_c                   18.1059(6)
_cell_angle_alpha                90
_cell_angle_beta                 90
_cell_angle_gamma                90
_cell_volume                     2011.44
_exptl_crystal_colour            colorless
_exptl_crystal_description       block
_cell_formula_units_Z            8
loop_
_atom_site_label
_atom_site_type_symbol
_atom_site_fract_x
_atom_site_fract_y
_atom_site_fract_z
O1 O 0.79842(12) 0.40421(12) 0.54426(7)
N1 N 0.91541(13) 0.88492(13) 0.41939(7)
H1 H 0.8472(13) 0.9349(14) 0.4211(10)
N2 N 0.88217(12) 0.76712(12) 0.44112(7)
N3 N 0.81206(12) 0.69078(13) 0.39631(7)
N4 N 0.79436(12) 0.58967(13) 0.43324(7)
C1 C 0.85041(15) 0.60189(15) 0.50173(8)
C2 C 0.90728(15) 0.71584(15) 0.50683(8)
C3 C 0.98009(17) 0.77895(18) 0.56623(9)
H2 H 1.0446 0.8348 0.5444
H3 H 1.0250 0.7178 0.5969
H4 H 0.9189 0.8261 0.5968
C4 C 0.99103(15) 0.89324(15) 0.35369(8)
C5 C 1.08721(16) 0.80734(16) 0.33814(9)
H5 H 1.1020 0.7401 0.3706
C6 C 1.16142(17) 0.82057(18) 0.27480(10)
H6 H 1.2264 0.7611 0.2633
C7 C 1.14220(17) 0.91920(18) 0.22815(10)
H7 H 1.1929 0.9271 0.1844
C8 C 1.04906(16) 1.00614(17) 0.24536(9)
H8 H 1.0377 1.0756 0.2142
C9 C 0.97184(15) 0.99312(15) 0.30771(9)
H9 H 0.9063 1.0523 0.3188
C10 C 0.84565(17) 0.50441(17) 0.55572(10)
H10 H 0.8818 0.5199 0.6032
loop_
_geom_bond_atom_site_label_1
_geom_bond_atom_site_label_2
_geom_bond_site_symmetry_1
_geom_bond_site_symmetry_2
O1 C10 1_555 1_555
N1 H1 1_555 1_555
N2 N1 1_555 1_555
N3 N2 1_555 1_555
N4 N3 1_555 1_555
C1 N4 1_555 1_555
C2 N2 1_555 1_555
C3 C2 1_555 1_555
H2 C3 1_555 1_555
H3 C3 1_555 1_555
H4 C3 1_555 1_555
C4 N1 1_555 1_555
C5 C4 1_555 1_555
H5 C5 1_555 1_555
C6 C5 1_555 1_555
H6 C6 1_555 1_555
C7 C6 1_555 1_555
H7 C7 1_555 1_555
C8 C7 1_555 1_555
H8 C8 1_555 1_555
C9 C4 1_555 1_555
H9 C9 1_555 1_555
C10 C1 1_555 1_555
H10 C10 1_555 1_555
C1 C2 1_555 1_555
C8 C9 1_555 1_555

#END
