
#######################################################################
#
#                 Cambridge Crystallographic Data Centre
#                                CCDC 
#
#######################################################################
#
# If this CIF has been generated from an entry in the Cambridge 
# Structural Database, then it will include bibliographic, chemical, 
# crystal, experimental, refinement or atomic coordinate data resulting 
# from the CCDC's data processing and validation procedures.
#
#######################################################################

data_GACXEQ
_chemical_formula_moiety         'C6 H6 Br1 N1'
_chemical_name_systematic        2-Bromo-5-methylpyridine
_symmetry_cell_setting           monoclinic
_symmetry_space_group_name_H-M   'P 21/m'
_symmetry_Int_Tables_number      11
_space_group_name_Hall           '-P 2yb'
loop_
_symmetry_equiv_pos_site_id
_symmetry_equiv_pos_as_xyz
1 x,y,z
2 -x,1/2+y,-z
3 -x,-y,-z
4 x,1/2-y,z
_cell_length_a                   6.1889(18)
_cell_length_b                   6.614(2)
_cell_length_c                   7.835(2)
_cell_angle_alpha                90
_cell_angle_beta                 93.503(9)
_cell_angle_gamma                90
_cell_volume                     320.114
_exptl_crystal_colour            colorless
_exptl_crystal_description       block
_cell_formula_units_Z            2
loop_
_atom_site_label
_atom_site_type_symbol
_atom_site_fract_x
_atom_site_fract_y
_atom_site_fract_z
Br1 Br 0.28961(6) 0.250 0.03206(4)
N1 N 0.3705(5) 0.250 0.3819(4)
C1 C 0.4724(6) 0.250 0.2391(4)
C2 C 0.6941(6) 0.250 0.2276(5)
H1 H 0.7573(6) 0.250 0.1201(5)
C3 C 0.8195(6) 0.250 0.3790(5)
H2 H 0.9729(6) 0.250 0.3775(5)
C4 C 0.7211(6) 0.250 0.5348(5)
C5 C 0.4962(6) 0.250 0.5274(4)
H3 H 0.4270(6) 0.250 0.6323(4)
C6 C 0.8515(7) 0.250 0.7021(5)
H4 H 0.751(5) 0.250 0.794(3)
H5 H 0.944(4) 0.130(3) 0.714(3)
H5C H 0.944(4) 0.370(3) 0.714(3)
loop_
_geom_bond_atom_site_label_1
_geom_bond_atom_site_label_2
_geom_bond_site_symmetry_1
_geom_bond_site_symmetry_2
Br1 C1 1_555 1_555
N1 C1 1_555 1_555
C1 C2 1_555 1_555
C2 H1 1_555 1_555
C3 C2 1_555 1_555
H2 C3 1_555 1_555
C4 C3 1_555 1_555
C5 N1 1_555 1_555
H3 C5 1_555 1_555
C6 C4 1_555 1_555
H4 C6 1_555 1_555
H5 C6 1_555 1_555
H5C C6 1_555 1_555
C4 C5 1_555 1_555

#END
