
#######################################################################
#
#                 Cambridge Crystallographic Data Centre
#                                CCDC 
#
#######################################################################
#
# If this CIF has been generated from an entry in the Cambridge 
# Structural Database, then it will include bibliographic, chemical, 
# crystal, experimental, refinement or atomic coordinate data resulting 
# from the CCDC's data processing and validation procedures.
#
#######################################################################

data_GACXUE
_chemical_formula_moiety         'C12 H20 N1 O3 1+,C20 H17 O8 1-,H2 O1'
_chemical_name_systematic        
'(R)-\a-(((1,1-Dimethylethyl)ammonio)methyl)-(3,5-dihydroxyphenyl)methanol (2S,3S)-di-O-toluoyl tartrate monohydrate'
_symmetry_cell_setting           orthorhombic
_symmetry_space_group_name_H-M   'P 21 21 21'
_symmetry_Int_Tables_number      19
_space_group_name_Hall           'P 2ac 2ab'
loop_
_symmetry_equiv_pos_site_id
_symmetry_equiv_pos_as_xyz
1 x,y,z
2 1/2-x,-y,1/2+z
3 -x,1/2+y,1/2-z
4 1/2+x,1/2-y,-z
_cell_length_a                   7.917(2)
_cell_length_b                   19.736(5)
_cell_length_c                   21.320(5)
_cell_angle_alpha                90
_cell_angle_beta                 90
_cell_angle_gamma                90
_cell_volume                     3331.25
_exptl_crystal_colour            colorless
_exptl_crystal_description       column
_chemical_melting_point          165.8-167.0deg.C
_cell_formula_units_Z            4
_exptl_crystal_recrystallization_method methanol/dichloromethane
loop_
_atom_site_label
_atom_site_type_symbol
_atom_site_fract_x
_atom_site_fract_y
_atom_site_fract_z
O1 O 0.4739(6) 0.69070(16) 0.82550(18)
H1 H 0.4903 0.6497 0.8251
O2 O 0.2116(5) 0.63451(15) 1.02008(16)
H2 H 0.2471 0.5969 1.0106
O3 O 0.3731(6) 0.90585(17) 0.9593(3)
H3 H 0.4528 0.8793 0.9591
N1 N 0.1166(5) 0.97887(17) 0.91201(16)
H4 H 0.2218 0.9940 0.9198
H5 H 0.0565 0.9845 0.9475
C1 C 0.3436(7) 0.7757(2) 0.8859(2)
H6 H 0.3733 0.8074 0.8555
C2 C 0.3862(7) 0.7078(3) 0.8783(2)
C3 C 0.3462(7) 0.6608(2) 0.9226(2)
H7 H 0.3799 0.6159 0.9179
C4 C 0.2557(7) 0.6804(2) 0.9742(2)
C5 C 0.2106(7) 0.7485(2) 0.9836(2)
H8 H 0.1511 0.7617 1.0191
C6 C 0.2572(7) 0.7954(2) 0.9386(2)
C7 C 0.2227(8) 0.8701(2) 0.9516(3)
H9 H 0.1564 0.8738 0.9903
C8 C 0.1277(7) 0.9049(2) 0.8994(2)
H10 H 0.1853 0.8973 0.8599
H11 H 0.0149 0.8860 0.8962
C9 C 0.0388(8) 1.0250(3) 0.8616(3)
C10 C 0.0442(7) 1.0965(2) 0.8893(2)
H12 H -0.0239 1.0980 0.9266
H13 H 0.0011 1.1282 0.8592
H14 H 0.1586 1.1080 0.8996
C11 C -0.1423(7) 1.0033(3) 0.8517(3)
H15 H -0.1447 0.9584 0.8346
H16 H -0.1965 1.0340 0.8232
H17 H -0.2009 1.0038 0.8912
C12 C 0.1471(9) 1.0202(3) 0.8028(2)
H18 H 0.1408 0.9751 0.7861
H19 H 0.2623 1.0306 0.8131
H20 H 0.1067 1.0519 0.7721
O4 O 0.0642(4) 0.40385(15) 1.00079(15)
O5 O -0.0431(5) 0.44813(16) 1.08938(16)
O6 O -0.1661(5) 0.50889(19) 0.89630(18)
O7 O -0.2491(5) 0.4350(2) 0.96996(17)
H21 H -0.3406 0.4381 0.9521
O8 O 0.3721(4) 0.51630(15) 0.99113(14)
O9 O 0.4588(5) 0.43158(17) 0.92916(16)
O10 O 0.1515(4) 0.41376(15) 0.87870(15)
O11 O 0.2939(5) 0.46668(16) 0.80198(16)
C13 C 0.1763(8) 0.1458(2) 1.1832(2)
H22 H 0.1351 0.1480 1.2255
H23 H 0.2959 0.1377 1.1837
H24 H 0.1206 0.1096 1.1614
C14 C 0.1403(8) 0.2127(3) 1.1501(3)
C15 C 0.1840(8) 0.2240(2) 1.0890(3)
H25 H 0.2391 0.1900 1.0668
C16 C 0.1484(8) 0.2849(2) 1.0589(2)
H26 H 0.1813 0.2915 1.0174
C17 C 0.0641(7) 0.3355(2) 1.0907(2)
C18 C 0.0191(8) 0.3246(3) 1.1531(3)
H27 H -0.0365 0.3584 1.1754
C19 C 0.0571(8) 0.2634(3) 1.1818(3)
H28 H 0.0257 0.2565 1.2234
C20 C 0.0222(7) 0.4011(3) 1.0619(3)
C21 C 0.0379(6) 0.4670(2) 0.9675(2)
H29 H 0.0532 0.5043 0.9974
C22 C -0.1392(7) 0.4717(3) 0.9411(3)
C23 C 0.1741(7) 0.4714(2) 0.9198(2)
H30 H 0.1586 0.5131 0.8954
C24 C 0.3510(7) 0.4720(3) 0.9487(2)
C25 C 0.2230(7) 0.4172(3) 0.8206(2)
C26 C 0.1894(7) 0.3543(3) 0.7836(2)
C27 C 0.2588(8) 0.3517(3) 0.7240(2)
H31 H 0.3309 0.3858 0.7102
C28 C 0.2197(8) 0.2978(3) 0.6851(2)
H32 H 0.2627 0.2972 0.6445
C29 C 0.1192(8) 0.2452(3) 0.7047(3)
C30 C 0.0557(8) 0.2484(3) 0.7651(3)
H33 H -0.0117 0.2132 0.7798
C31 C 0.0900(8) 0.3025(3) 0.8042(3)
H34 H 0.0454 0.3036 0.8445
C32 C 0.0765(9) 0.1857(3) 0.6621(3)
H35 H 0.0034 0.1549 0.6840
H36 H 0.1785 0.1627 0.6505
H37 H 0.0206 0.2020 0.6251
O12 O 0.5636(8) 0.5599(2) 0.8230(2)
H38 H 0.486(4) 0.534(2) 0.814(2)
H39 H 0.628(7) 0.532(3) 0.838(3)
loop_
_geom_bond_atom_site_label_1
_geom_bond_atom_site_label_2
_geom_bond_site_symmetry_1
_geom_bond_site_symmetry_2
O1 H1 1_555 1_555
O2 H2 1_555 1_555
O3 H3 1_555 1_555
N1 H4 1_555 1_555
H5 N1 1_555 1_555
C1 H6 1_555 1_555
C2 O1 1_555 1_555
C3 C2 1_555 1_555
H7 C3 1_555 1_555
C4 O2 1_555 1_555
C5 C4 1_555 1_555
H8 C5 1_555 1_555
C6 C1 1_555 1_555
C7 O3 1_555 1_555
H9 C7 1_555 1_555
C8 N1 1_555 1_555
H10 C8 1_555 1_555
H11 C8 1_555 1_555
C9 N1 1_555 1_555
C10 C9 1_555 1_555
H12 C10 1_555 1_555
H13 C10 1_555 1_555
H14 C10 1_555 1_555
C11 C9 1_555 1_555
H15 C11 1_555 1_555
H16 C11 1_555 1_555
H17 C11 1_555 1_555
C12 C9 1_555 1_555
H18 C12 1_555 1_555
H19 C12 1_555 1_555
H20 C12 1_555 1_555
O4 C20 1_555 1_555
O5 C20 1_555 1_555
O6 C22 1_555 1_555
O7 H21 1_555 1_555
O8 C24 1_555 1_555
O9 C24 1_555 1_555
O10 C23 1_555 1_555
O11 C25 1_555 1_555
C13 H22 1_555 1_555
H23 C13 1_555 1_555
H24 C13 1_555 1_555
C14 C13 1_555 1_555
C15 C14 1_555 1_555
H25 C15 1_555 1_555
C16 C15 1_555 1_555
H26 C16 1_555 1_555
C17 C16 1_555 1_555
C18 C17 1_555 1_555
H27 C18 1_555 1_555
C19 C14 1_555 1_555
H28 C19 1_555 1_555
C20 C17 1_555 1_555
C21 O4 1_555 1_555
H29 C21 1_555 1_555
C22 O7 1_555 1_555
C23 C21 1_555 1_555
H30 C23 1_555 1_555
C24 C23 1_555 1_555
C25 O10 1_555 1_555
C26 C25 1_555 1_555
C27 C26 1_555 1_555
H31 C27 1_555 1_555
C28 C27 1_555 1_555
H32 C28 1_555 1_555
C29 C28 1_555 1_555
C30 C29 1_555 1_555
H33 C30 1_555 1_555
C31 C26 1_555 1_555
H34 C31 1_555 1_555
C32 C29 1_555 1_555
H35 C32 1_555 1_555
H36 C32 1_555 1_555
H37 C32 1_555 1_555
O12 H38 1_555 1_555
H39 O12 1_555 1_555
C1 C2 1_555 1_555
C3 C4 1_555 1_555
C5 C6 1_555 1_555
C6 C7 1_555 1_555
C7 C8 1_555 1_555
C18 C19 1_555 1_555
C21 C22 1_555 1_555
C30 C31 1_555 1_555

#END
