
#######################################################################
#
#                 Cambridge Crystallographic Data Centre
#                                CCDC 
#
#######################################################################
#
# If this CIF has been generated from an entry in the Cambridge 
# Structural Database, then it will include bibliographic, chemical, 
# crystal, experimental, refinement or atomic coordinate data resulting 
# from the CCDC's data processing and validation procedures.
#
#######################################################################

data_GACYEP
_chemical_formula_moiety         'C12 H20 N1 O3 1+,C20 H17 O8 1-'
_chemical_name_systematic        
'(S)-\a-(((1,1-Dimethylethyl)ammonio)methyl)-3,5-dihydroxyphenylmethanol (2S,3S)-di-O-toluoyl tartrate'
_symmetry_cell_setting           monoclinic
_symmetry_space_group_name_H-M   'P 21'
_symmetry_Int_Tables_number      4
_space_group_name_Hall           'P 2yb'
loop_
_symmetry_equiv_pos_site_id
_symmetry_equiv_pos_as_xyz
1 x,y,z
2 -x,1/2+y,-z
_cell_length_a                   7.506(1)
_cell_length_b                   18.714(3)
_cell_length_c                   11.590(2)
_cell_angle_alpha                90
_cell_angle_beta                 103.03(1)
_cell_angle_gamma                90
_cell_volume                     1586.1
_exptl_crystal_colour            colorless
_exptl_crystal_description       plate
_chemical_melting_point          193.0-195.0deg.C
_cell_formula_units_Z            2
_exptl_crystal_recrystallization_method methanol/dichloromethane
loop_
_atom_site_label
_atom_site_type_symbol
_atom_site_fract_x
_atom_site_fract_y
_atom_site_fract_z
O1 O 0.9891(3) 0.52123(18) 1.17154(19)
H1 H 0.9329 0.5170 1.2242
O2 O 0.3851(3) 0.5135(2) 0.9361(3)
H2 H 0.3298 0.5032 0.8688
O3 O 1.0737(4) 0.47913(16) 0.7576(2)
H3 H 1.0849 0.4646 0.6929
N1 N 0.9940(3) 0.60468(14) 0.6013(2)
H4 H 0.8895 0.6051 0.5450
H5 H 1.0577 0.5659 0.5883
C1 C 0.9437(4) 0.51777(19) 0.9646(3)
H6 H 1.0698 0.5192 0.9730
C2 C 0.8701(4) 0.5188(2) 1.0645(3)
C3 C 0.6821(4) 0.5167(2) 1.0527(3)
H7 H 0.6329 0.5169 1.1195
C4 C 0.5689(4) 0.5143(2) 0.9413(3)
C5 C 0.6412(4) 0.5129(2) 0.8407(3)
H8 H 0.5641 0.5108 0.7657
C6 C 0.8312(4) 0.51466(18) 0.8537(3)
C7 C 0.9078(4) 0.51852(19) 0.7432(2)
H9 H 0.8178 0.4990 0.6760
C8 C 0.9452(5) 0.59535(19) 0.7182(3)
H10 H 0.8376 0.6237 0.7197
H11 H 1.0448 0.6129 0.7802
C9 C 1.1041(4) 0.67066(18) 0.5837(3)
C10 C 1.1031(6) 0.6710(2) 0.4532(3)
H12 H 1.1536 0.6270 0.4325
H13 H 1.1752 0.7104 0.4362
H14 H 0.9797 0.6760 0.4081
C11 C 1.0103(6) 0.7369(2) 0.6175(4)
H15 H 0.8879 0.7395 0.5700
H16 H 1.0771 0.7786 0.6042
H17 H 1.0066 0.7343 0.6996
C12 C 1.2961(5) 0.6618(2) 0.6576(4)
H18 H 1.2955 0.6677 0.7398
H19 H 1.3744 0.6972 0.6349
H20 H 1.3405 0.6150 0.6452
O4 O 0.3898(3) 0.40876(10) 0.31712(17)
O5 O 0.4211(4) 0.29753(13) 0.3896(2)
O6 O 0.2452(3) 0.49148(14) 0.5552(2)
O7 O 0.1116(3) 0.41304(14) 0.4180(2)
H21 H 0.0183 0.4258 0.4377
O8 O 0.7862(3) 0.52234(15) 0.3445(2)
O9 O 0.8166(3) 0.43413(14) 0.4749(2)
O10 O 0.4505(3) 0.55416(11) 0.36168(19)
O11 O 0.6279(3) 0.63790(13) 0.4691(2)
C13 C 0.1238(7) 0.2358(3) -0.1723(4)
H22 H 0.2209 0.2107 -0.1962
H23 H 0.0845 0.2750 -0.2254
H24 H 0.0230 0.2039 -0.1744
C14 C 0.1909(5) 0.2638(2) -0.0484(4)
C15 C 0.1981(6) 0.3366(2) -0.0242(3)
H25 H 0.1613 0.3688 -0.0861
C16 C 0.2585(5) 0.3624(2) 0.0893(3)
H26 H 0.2612 0.4113 0.1042
C17 C 0.3154(4) 0.31377(17) 0.1814(3)
C18 C 0.3073(5) 0.24122(18) 0.1580(3)
H27 H 0.3428 0.2087 0.2196
C19 C 0.2462(5) 0.2170(2) 0.0428(4)
H28 H 0.2428 0.1682 0.0276
C20 C 0.3813(4) 0.33743(16) 0.3065(3)
C21 C 0.4250(4) 0.43601(16) 0.4352(2)
H29 H 0.4941 0.3997 0.4880
C22 C 0.2462(4) 0.44943(17) 0.4739(3)
C23 C 0.5438(4) 0.50158(15) 0.4421(2)
H30 H 0.5646 0.5209 0.5225
C24 C 0.7293(4) 0.48507(18) 0.4147(3)
C25 C 0.5185(4) 0.62132(17) 0.3793(3)
C26 C 0.4448(4) 0.66938(18) 0.2800(3)
C27 C 0.4720(5) 0.7426(2) 0.2964(4)
H31 H 0.5290 0.7602 0.3706
C28 C 0.4146(6) 0.7893(2) 0.2028(4)
H32 H 0.4319 0.8382 0.2151
C29 C 0.3320(6) 0.7644(2) 0.0916(4)
C30 C 0.3018(6) 0.6909(2) 0.0767(4)
H33 H 0.2433 0.6732 0.0029
C31 C 0.3577(5) 0.6444(2) 0.1702(3)
H34 H 0.3362 0.5957 0.1588
C32 C 0.2729(7) 0.8145(3) -0.0128(5)
H35 H 0.3132 0.8621 0.0104
H36 H 0.1420 0.8139 -0.0382
H37 H 0.3260 0.7991 -0.0766
loop_
_geom_bond_atom_site_label_1
_geom_bond_atom_site_label_2
_geom_bond_site_symmetry_1
_geom_bond_site_symmetry_2
O1 H1 1_555 1_555
O2 H2 1_555 1_555
O3 H3 1_555 1_555
N1 H4 1_555 1_555
H5 N1 1_555 1_555
C1 H6 1_555 1_555
C2 O1 1_555 1_555
C3 C2 1_555 1_555
H7 C3 1_555 1_555
C4 O2 1_555 1_555
C5 C4 1_555 1_555
H8 C5 1_555 1_555
C6 C1 1_555 1_555
C7 O3 1_555 1_555
H9 C7 1_555 1_555
C8 N1 1_555 1_555
H10 C8 1_555 1_555
H11 C8 1_555 1_555
C9 N1 1_555 1_555
C10 C9 1_555 1_555
H12 C10 1_555 1_555
H13 C10 1_555 1_555
H14 C10 1_555 1_555
C11 C9 1_555 1_555
H15 C11 1_555 1_555
H16 C11 1_555 1_555
H17 C11 1_555 1_555
C12 C9 1_555 1_555
H18 C12 1_555 1_555
H19 C12 1_555 1_555
H20 C12 1_555 1_555
O4 C20 1_555 1_555
O5 C20 1_555 1_555
O6 C22 1_555 1_555
O7 H21 1_555 1_555
O8 C24 1_555 1_555
O9 C24 1_555 1_555
O10 C23 1_555 1_555
O11 C25 1_555 1_555
C13 H22 1_555 1_555
H23 C13 1_555 1_555
H24 C13 1_555 1_555
C14 C13 1_555 1_555
C15 C14 1_555 1_555
H25 C15 1_555 1_555
C16 C15 1_555 1_555
H26 C16 1_555 1_555
C17 C16 1_555 1_555
C18 C17 1_555 1_555
H27 C18 1_555 1_555
C19 C14 1_555 1_555
H28 C19 1_555 1_555
C20 C17 1_555 1_555
C21 O4 1_555 1_555
H29 C21 1_555 1_555
C22 O7 1_555 1_555
C23 C21 1_555 1_555
H30 C23 1_555 1_555
C24 C23 1_555 1_555
C25 O10 1_555 1_555
C26 C25 1_555 1_555
C27 C26 1_555 1_555
H31 C27 1_555 1_555
C28 C27 1_555 1_555
H32 C28 1_555 1_555
C29 C28 1_555 1_555
C30 C29 1_555 1_555
H33 C30 1_555 1_555
C31 C26 1_555 1_555
H34 C31 1_555 1_555
C32 C29 1_555 1_555
H35 C32 1_555 1_555
H36 C32 1_555 1_555
H37 C32 1_555 1_555
C1 C2 1_555 1_555
C3 C4 1_555 1_555
C5 C6 1_555 1_555
C6 C7 1_555 1_555
C7 C8 1_555 1_555
C18 C19 1_555 1_555
C21 C22 1_555 1_555
C30 C31 1_555 1_555

#END
