
#######################################################################
#
#                 Cambridge Crystallographic Data Centre
#                                CCDC 
#
#######################################################################
#
# If this CIF has been generated from an entry in the Cambridge 
# Structural Database, then it will include bibliographic, chemical, 
# crystal, experimental, refinement or atomic coordinate data resulting 
# from the CCDC's data processing and validation procedures.
#
#######################################################################

data_GACZOB
_chemical_formula_moiety         'C13 H13 N1 O3'
_chemical_name_systematic        
3a,9-Dimethyl-3,3a-dihydro-5H-pyrrolo[1,2-a][3,1]benzoxazine-1,5(2H)-dione
_symmetry_cell_setting           monoclinic
_symmetry_space_group_name_H-M   'P 21/n'
_symmetry_Int_Tables_number      14
_space_group_name_Hall           '-P 2yn'
loop_
_symmetry_equiv_pos_site_id
_symmetry_equiv_pos_as_xyz
1 x,y,z
2 1/2-x,1/2+y,1/2-z
3 -x,-y,-z
4 1/2+x,1/2-y,1/2+z
_cell_length_a                   9.0970(9)
_cell_length_b                   11.8293(12)
_cell_length_c                   10.4197(10)
_cell_angle_alpha                90
_cell_angle_beta                 95.941(2)
_cell_angle_gamma                90
_cell_volume                     1115.25
_exptl_crystal_colour            colorless
_exptl_crystal_description       prismatic
_cell_formula_units_Z            4
loop_
_atom_site_label
_atom_site_type_symbol
_atom_site_fract_x
_atom_site_fract_y
_atom_site_fract_z
N1 N 0.14041(13) 0.47989(11) 0.20346(12)
O1 O 0.02723(14) 0.61702(10) 0.07183(11)
O2 O 0.05620(17) 0.15722(11) 0.13246(15)
O3 O 0.21596(12) 0.29695(10) 0.14325(12)
C1 C 0.13160(18) 0.55663(14) 0.10267(15)
C2 C 0.2735(2) 0.54824(18) 0.03986(19)
H1 H 0.3234 0.6208 0.0420
H2 H 0.2535 0.5244 -0.0493
C3 C 0.36740(19) 0.46155(18) 0.11686(19)
H3 H 0.4496 0.4978 0.1676
H4 H 0.4062 0.4067 0.0599
C4 C 0.26541(17) 0.40397(14) 0.20510(16)
C5 C 0.08632(19) 0.25143(14) 0.16933(16)
C6 C -0.01100(16) 0.32187(14) 0.24272(15)
C7 C -0.13103(19) 0.27275(16) 0.29343(17)
H5 H -0.1479 0.1954 0.2849
C8 C -0.22497(19) 0.33956(19) 0.35652(17)
H6 H -0.3065 0.3075 0.3896
C9 C -0.19800(17) 0.45398(18) 0.37060(16)
H7 H -0.2635 0.4978 0.4122
C10 C -0.07623(16) 0.50647(14) 0.32489(14)
C11 C 0.01466(15) 0.43784(13) 0.25846(13)
C12 C -0.04167(19) 0.62848(15) 0.35240(17)
H8 H 0.0632 0.6378 0.3710
H9 H -0.0900 0.6526 0.4254
H10 H -0.0761 0.6733 0.2785
C13 C 0.33679(18) 0.37877(15) 0.33919(17)
H11 H 0.3729 0.4477 0.3796
H12 H 0.4176 0.3273 0.3342
H13 H 0.2653 0.3452 0.3892
loop_
_geom_bond_atom_site_label_1
_geom_bond_atom_site_label_2
_geom_bond_site_symmetry_1
_geom_bond_site_symmetry_2
N1 C1 1_555 1_555
O1 C1 1_555 1_555
O2 C5 1_555 1_555
O3 C4 1_555 1_555
C1 C2 1_555 1_555
C2 H1 1_555 1_555
H2 C2 1_555 1_555
C3 C2 1_555 1_555
H3 C3 1_555 1_555
H4 C3 1_555 1_555
C4 N1 1_555 1_555
C5 O3 1_555 1_555
C6 C5 1_555 1_555
C7 C6 1_555 1_555
H5 C7 1_555 1_555
C8 C7 1_555 1_555
H6 C8 1_555 1_555
C9 C8 1_555 1_555
H7 C9 1_555 1_555
C10 C9 1_555 1_555
C11 N1 1_555 1_555
C12 C10 1_555 1_555
H8 C12 1_555 1_555
H9 C12 1_555 1_555
H10 C12 1_555 1_555
C13 C4 1_555 1_555
H11 C13 1_555 1_555
H12 C13 1_555 1_555
H13 C13 1_555 1_555
C3 C4 1_555 1_555
C6 C11 1_555 1_555
C10 C11 1_555 1_555

#END
