
#######################################################################
#
#                 Cambridge Crystallographic Data Centre
#                                CCDC 
#
#######################################################################
#
# If this CIF has been generated from an entry in the Cambridge 
# Structural Database, then it will include bibliographic, chemical, 
# crystal, experimental, refinement or atomic coordinate data resulting 
# from the CCDC's data processing and validation procedures.
#
#######################################################################

data_GACZIV
_chemical_formula_moiety         'C19 H16 N2 O3 S1'
_chemical_name_systematic        
2-(3-(4-[(S)-ethylsulfinyl]phenyl)-1-benzofuran-5-yl)-5-methyl-1,3,4-oxadiazole
_symmetry_cell_setting           orthorhombic
_symmetry_space_group_name_H-M   'P 21 21 21'
_symmetry_Int_Tables_number      19
_space_group_name_Hall           'P 2ac 2ab'
loop_
_symmetry_equiv_pos_site_id
_symmetry_equiv_pos_as_xyz
1 x,y,z
2 1/2-x,-y,1/2+z
3 1/2+x,1/2-y,-z
4 -x,1/2+y,1/2-z
_cell_length_a                   7.228(2)
_cell_length_b                   8.745(2)
_cell_length_c                   26.048(4)
_cell_angle_alpha                90
_cell_angle_beta                 90
_cell_angle_gamma                90
_cell_volume                     1646.46
_exptl_crystal_colour            colorless
_exptl_crystal_description       platelet
_chemical_melting_point          '445-446 K'
_cell_formula_units_Z            4
loop_
_atom_site_label
_atom_site_type_symbol
_atom_site_fract_x
_atom_site_fract_y
_atom_site_fract_z
O1 O 0.6986(2) 0.5121(2) 0.70015(5)
C1 C 0.7631(3) 0.5695(2) 0.74548(7)
N1 N 0.8228(3) 0.4655(2) 0.77608(6)
N2 N 0.7963(3) 0.3246(2) 0.75000(7)
C2 C 0.7255(3) 0.3575(2) 0.70610(7)
C3 C 0.7531(3) 0.7368(2) 0.75370(7)
C4 C 0.6644(3) 0.2535(2) 0.66543(7)
C5 C 0.6287(3) 0.3084(2) 0.61611(7)
C6 C 0.5660(3) 0.2037(2) 0.57950(7)
C7 C 0.5187(3) 0.2098(2) 0.52510(7)
C8 C 0.4730(3) 0.0648(2) 0.51197(7)
O2 O 0.4857(2) -0.0355(2) 0.55260(5)
C9 C 0.5434(3) 0.0506(2) 0.59358(7)
C10 C 0.5806(3) -0.0066(2) 0.64226(7)
C11 C 0.6414(3) 0.0978(2) 0.67818(7)
C12 C 0.5122(3) 0.3440(2) 0.49136(7)
C13 C 0.4593(3) 0.4883(2) 0.50987(7)
C14 C 0.4430(3) 0.6125(2) 0.47750(7)
C15 C 0.4809(3) 0.5945(2) 0.42559(7)
C16 C 0.5360(3) 0.4537(2) 0.40608(7)
C17 C 0.5527(3) 0.3302(2) 0.43870(7)
S1 S 0.44648(7) 0.75180(5) 0.38290(2)
O3 O 0.3526(2) 0.8761(2) 0.41285(5)
C18 C 0.6866(3) 0.8076(3) 0.37678(8)
C19 C 0.7004(3) 0.9533(2) 0.34510(8)
H1 H 0.8394 0.7871 0.7314
H2 H 0.7833 0.7598 0.7888
H3 H 0.6302 0.7721 0.7463
H4 H 0.6460 0.4109 0.6079
H5 H 0.4370 0.0360 0.4791
H6 H 0.5654 -0.1095 0.6502
H7 H 0.6677 0.0651 0.7114
H8 H 0.4347 0.5005 0.5447
H9 H 0.4071 0.7072 0.4903
H10 H 0.5613 0.4428 0.3713
H11 H 0.5913 0.2365 0.4257
H12 H 0.7393 0.8246 0.4106
H13 H 0.7560 0.7264 0.3602
H14 H 0.6568 0.9338 0.3109
H15 H 0.8270 0.9863 0.3438
H16 H 0.6260 1.0316 0.3606
loop_
_geom_bond_atom_site_label_1
_geom_bond_atom_site_label_2
_geom_bond_site_symmetry_1
_geom_bond_site_symmetry_2
O1 C1 1_555 1_555
C1 N1 1_555 1_555
N1 N2 1_555 1_555
N2 C2 1_555 1_555
C2 O1 1_555 1_555
C3 C1 1_555 1_555
C4 C2 1_555 1_555
C5 C4 1_555 1_555
C6 C5 1_555 1_555
C7 C6 1_555 1_555
C8 C7 1_555 1_555
O2 C8 1_555 1_555
C9 C6 1_555 1_555
C10 C9 1_555 1_555
C11 C4 1_555 1_555
C12 C7 1_555 1_555
C13 C12 1_555 1_555
C14 C13 1_555 1_555
C15 C14 1_555 1_555
C16 C15 1_555 1_555
C17 C12 1_555 1_555
S1 C15 1_555 1_555
O3 S1 1_555 1_555
C18 S1 1_555 1_555
C19 C18 1_555 1_555
H1 C3 1_555 1_555
H2 C3 1_555 1_555
H3 C3 1_555 1_555
H4 C5 1_555 1_555
H5 C8 1_555 1_555
H6 C10 1_555 1_555
H7 C11 1_555 1_555
H8 C13 1_555 1_555
H9 C14 1_555 1_555
H10 C16 1_555 1_555
H11 C17 1_555 1_555
H12 C18 1_555 1_555
H13 C18 1_555 1_555
H14 C19 1_555 1_555
H15 C19 1_555 1_555
H16 C19 1_555 1_555
O2 C9 1_555 1_555
C10 C11 1_555 1_555
C16 C17 1_555 1_555

#END
