
#######################################################################
#
#                 Cambridge Crystallographic Data Centre
#                                CCDC 
#
#######################################################################
#
# If this CIF has been generated from an entry in the Cambridge 
# Structural Database, then it will include bibliographic, chemical, 
# crystal, experimental, refinement or atomic coordinate data resulting 
# from the CCDC's data processing and validation procedures.
#
#######################################################################

data_GACZAN
_chemical_formula_moiety         
'C28 H20 O16 S4 4-,2(C12 H12 N2 2+),10.5(H2 O1)'
_chemical_name_systematic        
"5,11,17,23-tetrasulfonato-25,26,27,28-tetrahydroxycalix(4)arene bis(6,7-dihydrodipyrido(1,2-a:2',1'-c)pyrazinedi-ium) hydrate"
_symmetry_cell_setting           triclinic
_symmetry_space_group_name_H-M   'P -1'
_symmetry_Int_Tables_number      2
_space_group_name_Hall           '-P 1'
loop_
_symmetry_equiv_pos_site_id
_symmetry_equiv_pos_as_xyz
1 x,y,z
2 -x,-y,-z
_cell_length_a                   13.699(5)
_cell_length_b                   13.796(5)
_cell_length_c                   15.189(6)
_cell_angle_alpha                88.402(11)
_cell_angle_beta                 77.838(6)
_cell_angle_gamma                81.671(10)
_cell_volume                     2776.55
_exptl_crystal_colour            colorless
_exptl_crystal_description       prism
_cell_formula_units_Z            2
loop_
_atom_site_label
_atom_site_type_symbol
_atom_site_fract_x
_atom_site_fract_y
_atom_site_fract_z
S1 S 0.72133(8) 0.00325(7) 0.25723(7)
S2 S 0.53368(7) 0.51553(7) 0.19541(6)
S3 S -0.00012(7) 0.61337(6) 0.26161(6)
S4 S 0.20325(7) 0.10839(6) 0.14635(6)
O1 O 0.6847(2) -0.0634(2) 0.2029(2)
O2 O 0.7866(2) -0.0500(2) 0.3130(2)
O3 O 0.7685(2) 0.0796(2) 0.2045(2)
O4 O 0.37463(18) 0.19395(18) 0.52407(17)
H1 H 0.3907 0.2391 0.5517
O5 O 0.6416(2) 0.4816(2) 0.1775(2)
O6 O 0.5076(3) 0.62110(19) 0.19044(19)
O7 O 0.4845(2) 0.46494(19) 0.13762(18)
O8 O 0.37718(19) 0.39231(17) 0.56784(16)
H2 H 0.3338 0.4352 0.5975
O9 O 0.08481(18) 0.64812(18) 0.20033(17)
O10 O -0.06877(19) 0.69351(18) 0.31130(17)
O11 O -0.0520(2) 0.54977(19) 0.21662(18)
O12 O 0.18760(19) 0.37097(18) 0.52477(18)
H3 H 0.1602 0.3209 0.5411
O13 O 0.16767(19) 0.20394(17) 0.11191(17)
O14 O 0.1360(2) 0.03772(19) 0.14098(18)
O15 O 0.3079(2) 0.07318(19) 0.10414(18)
O16 O 0.16944(19) 0.16554(18) 0.53682(17)
H4 H 0.2227 0.1460 0.5551
C1 C 0.4461(3) 0.0679(2) 0.4198(2)
C2 C 0.5269(3) 0.0233(3) 0.3568(2)
H5 H 0.5210 -0.0359 0.3291
C3 C 0.6152(3) 0.0623(3) 0.3333(3)
C4 C 0.6255(3) 0.1485(3) 0.3747(2)
H6 H 0.6869 0.1753 0.3590
C5 C 0.5462(3) 0.1948(3) 0.4388(2)
C6 C 0.4566(3) 0.1534(2) 0.4616(2)
C7 C 0.5584(3) 0.2916(2) 0.4790(2)
H7 H 0.6309 0.2988 0.4678
H8 H 0.5323 0.2916 0.5449
C8 C 0.5010(3) 0.3778(2) 0.4368(2)
C9 C 0.5407(3) 0.4060(2) 0.3486(2)
H9 H 0.6040 0.3739 0.3171
C10 C 0.4877(3) 0.4808(3) 0.3074(2)
C11 C 0.3948(3) 0.5269(3) 0.3537(2)
H10 H 0.3590 0.5780 0.3249
C12 C 0.3526(3) 0.5006(2) 0.4415(2)
C13 C 0.4087(3) 0.4257(3) 0.4824(2)
C14 C 0.2483(3) 0.5509(3) 0.4839(2)
H11 H 0.2457 0.6226 0.4762
H12 H 0.2337 0.5368 0.5492
C15 C 0.1694(3) 0.5159(2) 0.4409(2)
C16 C 0.1253(3) 0.5716(2) 0.3791(2)
H13 H 0.1444 0.6342 0.3625
C17 C 0.0529(3) 0.5371(3) 0.3407(2)
C18 C 0.0227(3) 0.4470(2) 0.3654(2)
H14 H -0.0278 0.4250 0.3399
C19 C 0.0657(3) 0.3881(2) 0.4277(2)
C20 C 0.1383(3) 0.4233(3) 0.4652(2)
C21 C 0.0356(3) 0.2864(2) 0.4520(3)
H15 H 0.0272 0.2762 0.5178
H16 H -0.0298 0.2820 0.4354
C22 C 0.1159(3) 0.2069(2) 0.4026(2)
C23 C 0.1235(3) 0.1924(2) 0.3106(2)
H17 H 0.0759 0.2290 0.2808
C24 C 0.1993(3) 0.1256(2) 0.2624(2)
C25 C 0.2709(3) 0.0735(2) 0.3045(2)
H18 H 0.3244 0.0295 0.2703
C26 C 0.2652(3) 0.0851(2) 0.3971(2)
C27 C 0.1860(3) 0.1506(2) 0.4456(2)
C28 C 0.3463(3) 0.0274(2) 0.4414(2)
H19 H 0.3214 0.0283 0.5075
H20 H 0.3578 -0.0417 0.4211
N1 N 0.4063(2) 0.2704(2) 0.0953(2)
N2 N 0.2729(2) 0.3454(2) -0.0166(2)
C29 C 0.4630(3) 0.2231(3) 0.1495(3)
H21 H 0.5210 0.1785 0.1240
C30 C 0.4391(3) 0.2378(3) 0.2409(3)
H22 H 0.4807 0.2048 0.2783
C31 C 0.3536(3) 0.3012(3) 0.2778(3)
H23 H 0.3349 0.3112 0.3411
C32 C 0.2948(3) 0.3504(3) 0.2213(3)
H24 H 0.2359 0.3943 0.2459
C33 C 0.3226(3) 0.3349(2) 0.1293(2)
C34 C 0.2651(3) 0.3855(3) 0.0662(2)
C35 C 0.2010(3) 0.4731(3) 0.0891(3)
H25 H 0.1965 0.5033 0.1455
C36 C 0.1436(3) 0.5162(3) 0.0293(3)
H26 H 0.1000 0.5761 0.0444
C37 C 0.1505(3) 0.4710(3) -0.0522(3)
H27 H 0.1100 0.4984 -0.0928
C38 C 0.2165(3) 0.3861(3) -0.0739(3)
H28 H 0.2222 0.3557 -0.1304
C39 C 0.3434(3) 0.2547(3) -0.0422(2)
H29 H 0.3631 0.2495 -0.1086
H30 H 0.3101 0.1973 -0.0191
C40 C 0.4356(3) 0.2557(3) -0.0034(3)
H31 H 0.4809 0.1928 -0.0171
H32 H 0.4727 0.3091 -0.0313
N3 N 0.2097(3) 0.8121(2) 0.2379(2)
N4 N 0.1449(3) 0.8370(3) 0.0735(2)
C41 C 0.2476(4) 0.8113(3) 0.3121(3)
H33 H 0.3159 0.7842 0.3099
C42 C 0.1895(4) 0.8487(3) 0.3904(3)
H34 H 0.2166 0.8485 0.4430
C43 C 0.0887(4) 0.8877(3) 0.3927(3)
H35 H 0.0467 0.9133 0.4475
C44 C 0.0502(4) 0.8891(3) 0.3159(3)
H36 H -0.0177 0.9167 0.3171
C45 C 0.1118(3) 0.8498(3) 0.2365(3)
C46 C 0.0756(3) 0.8508(3) 0.1536(3)
C47 C -0.0232(3) 0.8637(3) 0.1513(3)
H37 H -0.0719 0.8688 0.2062
C48 C -0.0552(4) 0.8698(4) 0.0700(4)
H38 H -0.1251 0.8820 0.0691
C49 C 0.0163(4) 0.8577(5) -0.0092(4)
H39 H -0.0034 0.8603 -0.0656
C50 C 0.1156(4) 0.8420(5) -0.0051(4)
H40 H 0.1652 0.8344 -0.0594
C51 C 0.2534(3) 0.8257(3) 0.0746(3)
H41 H 0.2743 0.8907 0.0796
H42 H 0.2933 0.7944 0.0179
C52 C 0.2719(3) 0.7627(3) 0.1543(3)
H43 H 0.2527 0.6970 0.1486
H44 H 0.3443 0.7546 0.1567
O17 O 0.2376(2) 0.49976(19) 0.70048(18)
O18 O 0.5861(3) 0.0151(2) 0.0644(2)
O19 O 0.2590(2) 0.2592(2) 0.7421(2)
O20 O 0.3824(2) 0.6045(2) 0.0288(2)
O21 O 0.4768(3) 0.2279(2) 0.7037(2)
O22 O 0.5577(2) 0.1071(2) 0.8313(2)
O23 O 0.6869(3) 0.2681(3) 0.1382(2)
O24 O 0.9876(3) 0.3420(3) 0.1478(3)
O25 O 0.1749(3) 0.7079(3) 0.6931(4)
O26 O 0.9385(5) 0.1239(5) 0.2359(5)
O27 O 0.8763(3) 0.0881(4) 0.4085(3)
loop_
_geom_bond_atom_site_label_1
_geom_bond_atom_site_label_2
_geom_bond_site_symmetry_1
_geom_bond_site_symmetry_2
S1 O1 1_555 1_555
S2 O5 1_555 1_555
S3 O9 1_555 1_555
S4 O13 1_555 1_555
N1 C29 1_555 1_555
N2 C34 1_555 1_555
N3 C41 1_555 1_555
N4 C46 1_555 1_555
O2 S1 1_555 1_555
O3 S1 1_555 1_555
O4 H1 1_555 1_555
O6 S2 1_555 1_555
O7 S2 1_555 1_555
O8 H2 1_555 1_555
O10 S3 1_555 1_555
O11 S3 1_555 1_555
O12 H3 1_555 1_555
O14 S4 1_555 1_555
O15 S4 1_555 1_555
O16 H4 1_555 1_555
C1 C2 1_555 1_555
C2 H5 1_555 1_555
C3 S1 1_555 1_555
C4 C3 1_555 1_555
H6 C4 1_555 1_555
C5 C4 1_555 1_555
C6 O4 1_555 1_555
C7 C5 1_555 1_555
H7 C7 1_555 1_555
H8 C7 1_555 1_555
C8 C7 1_555 1_555
C9 C8 1_555 1_555
H9 C9 1_555 1_555
C10 S2 1_555 1_555
C11 C10 1_555 1_555
H10 C11 1_555 1_555
C12 C11 1_555 1_555
C13 O8 1_555 1_555
C14 C12 1_555 1_555
H11 C14 1_555 1_555
H12 C14 1_555 1_555
C15 C14 1_555 1_555
C16 C15 1_555 1_555
H13 C16 1_555 1_555
C17 S3 1_555 1_555
C18 C17 1_555 1_555
H14 C18 1_555 1_555
C19 C18 1_555 1_555
C20 O12 1_555 1_555
C21 C19 1_555 1_555
H15 C21 1_555 1_555
H16 C21 1_555 1_555
C22 C21 1_555 1_555
C23 C22 1_555 1_555
H17 C23 1_555 1_555
C24 S4 1_555 1_555
C25 C24 1_555 1_555
H18 C25 1_555 1_555
C26 C25 1_555 1_555
C27 O16 1_555 1_555
C28 C1 1_555 1_555
H19 C28 1_555 1_555
H20 C28 1_555 1_555
C29 H21 1_555 1_555
C30 C29 1_555 1_555
H22 C30 1_555 1_555
C31 C30 1_555 1_555
H23 C31 1_555 1_555
C32 C31 1_555 1_555
H24 C32 1_555 1_555
C33 N1 1_555 1_555
C34 C33 1_555 1_555
C35 C34 1_555 1_555
H25 C35 1_555 1_555
C36 C35 1_555 1_555
H26 C36 1_555 1_555
C37 C36 1_555 1_555
H27 C37 1_555 1_555
C38 N2 1_555 1_555
H28 C38 1_555 1_555
C39 N2 1_555 1_555
H29 C39 1_555 1_555
H30 C39 1_555 1_555
C40 N1 1_555 1_555
H31 C40 1_555 1_555
H32 C40 1_555 1_555
C41 H33 1_555 1_555
C42 C41 1_555 1_555
H34 C42 1_555 1_555
C43 C42 1_555 1_555
H35 C43 1_555 1_555
C44 C43 1_555 1_555
H36 C44 1_555 1_555
C45 N3 1_555 1_555
C46 C45 1_555 1_555
C47 C46 1_555 1_555
H37 C47 1_555 1_555
C48 C47 1_555 1_555
H38 C48 1_555 1_555
C49 C48 1_555 1_555
H39 C49 1_555 1_555
C50 N4 1_555 1_555
H40 C50 1_555 1_555
C51 N4 1_555 1_555
H41 C51 1_555 1_555
H42 C51 1_555 1_555
C52 N3 1_555 1_555
H43 C52 1_555 1_555
H44 C52 1_555 1_555
C1 C6 1_555 1_555
C2 C3 1_555 1_555
C5 C6 1_555 1_555
C8 C13 1_555 1_555
C9 C10 1_555 1_555
C12 C13 1_555 1_555
C15 C20 1_555 1_555
C16 C17 1_555 1_555
C19 C20 1_555 1_555
C22 C27 1_555 1_555
C23 C24 1_555 1_555
C26 C27 1_555 1_555
C26 C28 1_555 1_555
C32 C33 1_555 1_555
C37 C38 1_555 1_555
C39 C40 1_555 1_555
C44 C45 1_555 1_555
C49 C50 1_555 1_555
C51 C52 1_555 1_555

#END
