
#######################################################################
#
#                 Cambridge Crystallographic Data Centre
#                                CCDC 
#
#######################################################################
#
# If this CIF has been generated from an entry in the Cambridge 
# Structural Database, then it will include bibliographic, chemical, 
# crystal, experimental, refinement or atomic coordinate data resulting 
# from the CCDC's data processing and validation procedures.
#
#######################################################################

data_GACZOC
_chemical_formula_moiety         'C10 H10 Cl2 N4 O1'
_chemical_name_systematic        
(1-((2,5-Dichlorophenyl)amino)-5-methyl-1H-1,2,3-triazol-4-yl)methanol
_symmetry_cell_setting           monoclinic
_symmetry_space_group_name_H-M   'P 21/c'
_symmetry_Int_Tables_number      14
_space_group_name_Hall           '-P 2ybc'
loop_
_symmetry_equiv_pos_site_id
_symmetry_equiv_pos_as_xyz
1 x,y,z
2 -x,1/2+y,1/2-z
3 -x,-y,-z
4 x,1/2-y,1/2+z
_cell_length_a                   12.1802(5)
_cell_length_b                   7.3646(4)
_cell_length_c                   13.9001(8)
_cell_angle_alpha                90
_cell_angle_beta                 112.276(3)
_cell_angle_gamma                90
_cell_volume                     1153.82
_exptl_crystal_colour            colorless
_exptl_crystal_description       block
_cell_formula_units_Z            4
loop_
_atom_site_label
_atom_site_type_symbol
_atom_site_fract_x
_atom_site_fract_y
_atom_site_fract_z
Cl1 Cl 0.37932(5) 0.38765(8) 0.87969(5)
Cl2 Cl 0.68215(5) 0.39438(8) 0.60698(4)
O1 O 1.07381(14) 0.3879(2) 1.25648(13)
H1 H 1.098(2) 0.319(3) 1.3086(16)
N1 N 0.78023(15) 0.4396(3) 0.83509(14)
H2 H 0.8125(19) 0.503(3) 0.8004(17)
N2 N 0.82967(15) 0.4789(2) 0.94015(13)
N3 N 0.83152(15) 0.6498(2) 0.97786(14)
N4 N 0.87624(15) 0.6334(2) 1.07929(14)
C1 C 0.90092(17) 0.4551(3) 1.10644(16)
C2 C 0.87186(17) 0.3534(3) 1.01696(17)
C3 C 0.8799(2) 0.1582(3) 0.99578(19)
H3 H 0.8016 0.1136 0.9502
H4 H 0.9070 0.0906 1.0614
H5 H 0.9364 0.1410 0.9617
C4 C 0.65537(18) 0.4209(3) 0.79153(16)
C5 C 0.58710(19) 0.4161(3) 0.85238(17)
H6 H 0.6234 0.4282 0.9258
C6 C 0.46531(19) 0.3934(3) 0.80412(18)
C7 C 0.40899(19) 0.3747(3) 0.69811(18)
H7 H 0.3252 0.3615 0.6670
C8 C 0.4772(2) 0.3757(3) 0.63790(18)
H8 H 0.4404 0.3614 0.5647
C9 C 0.59873(19) 0.3976(3) 0.68423(17)
C10 C 0.94792(19) 0.3937(3) 1.21697(17)
H9 H 0.9215 0.4782 1.2592
H10 H 0.9164 0.2715 1.2216
loop_
_geom_bond_atom_site_label_1
_geom_bond_atom_site_label_2
_geom_bond_site_symmetry_1
_geom_bond_site_symmetry_2
Cl1 C6 1_555 1_555
Cl2 C9 1_555 1_555
O1 H1 1_555 1_555
N1 H2 1_555 1_555
N2 N1 1_555 1_555
N3 N2 1_555 1_555
N4 N3 1_555 1_555
C1 N4 1_555 1_555
C2 N2 1_555 1_555
C3 C2 1_555 1_555
H3 C3 1_555 1_555
H4 C3 1_555 1_555
H5 C3 1_555 1_555
C4 N1 1_555 1_555
C5 C4 1_555 1_555
H6 C5 1_555 1_555
C6 C5 1_555 1_555
C7 C6 1_555 1_555
H7 C7 1_555 1_555
C8 C7 1_555 1_555
H8 C8 1_555 1_555
C9 C4 1_555 1_555
C10 O1 1_555 1_555
H9 C10 1_555 1_555
H10 C10 1_555 1_555
C1 C2 1_555 1_555
C1 C10 1_555 1_555
C8 C9 1_555 1_555

#END
