
#######################################################################
#
#                 Cambridge Crystallographic Data Centre
#                                CCDC 
#
#######################################################################
#
# If this CIF has been generated from an entry in the Cambridge 
# Structural Database, then it will include bibliographic, chemical, 
# crystal, experimental, refinement or atomic coordinate data resulting 
# from the CCDC's data processing and validation procedures.
#
#######################################################################

data_GACZIT
_chemical_compound_source        
'seeds of Aesculus chinensis Bge. (Hippocastanaceae)'
_chemical_name_common            
'1-(21-beta-Tigloyl-22-alpha-acetylprotoaescigenin-3-beta-O)-2-(beta-D-glucopyranos-1-yl)-4-(beta-D-glucopyranos-1-yl)-beta-D-glucopyranosiduronic acid sesquihydrate'
_chemical_formula_moiety         'C55 H86 O24,1.5(H2 O1)'
_chemical_name_systematic        'Escin Ia sesquihydrate'
_chemical_properties_biological  'moderate anti HIV-1 protease activity'
_symmetry_cell_setting           orthorhombic
_symmetry_space_group_name_H-M   'P 21 21 21'
_symmetry_Int_Tables_number      19
_space_group_name_Hall           'P 2ac 2ab'
loop_
_symmetry_equiv_pos_site_id
_symmetry_equiv_pos_as_xyz
1 x,y,z
2 1/2-x,-y,1/2+z
3 1/2+x,1/2-y,-z
4 -x,1/2+y,1/2-z
_cell_length_a                   7.155(1)
_cell_length_b                   14.837(1)
_cell_length_c                   62.326(3)
_cell_angle_alpha                90
_cell_angle_beta                 90
_cell_angle_gamma                90
_cell_volume                     6616.45
_exptl_crystal_colour            colorless
_exptl_crystal_description       plate
_cell_formula_units_Z            4
_exptl_crystal_recrystallization_method methanol
loop_
_atom_site_label
_atom_site_type_symbol
_atom_site_fract_x
_atom_site_fract_y
_atom_site_fract_z
O1 O 0.5038(10) 0.6121(5) 0.6410(1)
O2 O 0.7733(10) 0.4808(5) 0.4740(1)
O3 O 0.5423(13) 0.7946(6) 0.6316(1)
O4 O 0.1200(10) 0.5679(5) 0.4581(1)
O5 O 0.4974(11) 0.3186(5) 0.4283(1)
O6 O 0.8034(15) 0.3053(11) 0.4233(1)
O7 O 0.5554(11) 0.5055(5) 0.4306(1)
O8 O 0.3095(9) 0.5512(9) 0.4127(1)
O9 O 0.3879(11) 0.4925(6) 0.6598(1)
O10 O 0.8297(10) 0.6102(6) 0.6671(1)
O11 O 0.7466(14) 0.5451(6) 0.7102(1)
O12 O 0.5600(13) 0.3666(6) 0.7062(1)
O13 O 0.1050(16) 0.4159(8) 0.6824(2)
O14 O 0.2332(21) 0.2884(8) 0.6731(1)
O15 O 0.8187(12) 0.7642(6) 0.6650(1)
O16 O 1.1761(13) 0.6172(8) 0.6880(1)
O17 O 1.3902(14) 0.7853(9) 0.6770(1)
O18 O 1.1532(16) 0.9399(8) 0.6796(1)
O19 O 0.7860(30) 0.9243(8) 0.6430(2)
O20 O 0.5428(16) 0.4036(7) 0.7414(1)
O21 O 0.4011(24) 0.1942(10) 0.7159(1)
O22 O 0.4620(19) 0.1389(7) 0.7594(1)
O23 O 0.3933(15) 0.2774(9) 0.7895(1)
O24 O 0.7330(30) 0.4429(1) 0.7789(1)
C1 C 0.2678(15) 0.5437(8) 0.5892(1)
C2 C 0.2796(16) 0.5707(9) 0.6129(1)
C3 C 0.4871(15) 0.5912(7) 0.6182(1)
C4 C 0.5706(14) 0.6683(7) 0.6051(1)
C5 C 0.6277(14) 0.7113(7) 0.5649(1)
C6 C 0.6582(13) 0.6635(6) 0.5431(1)
C7 C 0.4782(13) 0.6232(6) 0.5334(1)
C8 C 0.3624(12) 0.5697(7) 0.5511(1)
C9 C 0.3400(13) 0.6160(7) 0.5738(1)
C10 C 0.5412(13) 0.6431(7) 0.5811(1)
C11 C 0.1803(14) 0.5371(8) 0.5420(1)
C12 C 0.3537(13) 0.5034(7) 0.5073(1)
C13 C 0.2004(14) 0.4991(7) 0.5192(1)
C14 C 0.5322(13) 0.5520(6) 0.5153(1)
C15 C 0.6272(14) 0.6025(7) 0.4962(1)
C16 C 0.6340(15) 0.5510(7) 0.4747(1)
C17 C 0.4368(13) 0.5141(6) 0.4680(1)
C18 C 0.3552(13) 0.4554(6) 0.4861(1)
C19 C 0.4399(15) 0.3583(7) 0.4870(1)
C20 C 0.4222(15) 0.3055(6) 0.4663(1)
C21 C 0.5262(16) 0.3643(7) 0.4490(1)
C22 C 0.4448(15) 0.4557(7) 0.4465(1)
C23 C 0.7848(14) 0.6714(8) 0.6099(1)
C24 C 0.4899(16) 0.7610(8) 0.6112(1)
C25 C 0.1985(16) 0.6978(10) 0.5735(1)
C26 C 0.3607(16) 0.7005(7) 0.5237(1)
C27 C 0.6664(13) 0.4774(7) 0.5235(1)
C28 C 0.3082(16) 0.5968(7) 0.4639(1)
C29 C 0.5208(19) 0.2141(7) 0.4691(1)
C30 C 0.2024(17) 0.2869(8) 0.4602(1)
C31 C 0.6545(21) 0.2882(10) 0.4177(1)
C32 C 0.6001(24) 0.2303(9) 0.3987(12)
C33 C 0.4400(30) 0.1993(13) 0.3957(2)
C34 C 0.3800(30) 0.1411(14) 0.3786(3)
C35 C 0.7880(30) 0.2070(13) 0.3856(2)
C36 C 0.4742(23) 0.5416(9) 0.4138(1)
C37 C 0.6000(30) 0.5731(12) 0.3970(2)
C38 C 0.5569(15) 0.5387(7) 0.6542(1)
C39 C 0.6474(15) 0.5766(7) 0.6745(1)
C40 C 0.6786(18) 0.5034(9) 0.6908(1)
C41 C 0.5124(16) 0.4484(8) 0.6945(1)
C42 C 0.4296(19) 0.4163(8) 0.6729(1)
C43 C 0.2331(23) 0.3701(10) 0.6763(1)
C44 C 0.8919(16) 0.6884(9) 0.6768(1)
C45 C 1.1043(18) 0.6905(10) 0.6743(1)
C46 C 1.1857(18) 0.7795(11) 0.6810(1)
C47 C 1.0848(23) 0.8565(10) 0.6699(2)
C48 C 0.8772(19) 0.8516(10) 0.6737(1)
C49 C 0.7400(40) 0.9237(9) 0.6650(2)
C50 C 0.4621(23) 0.3450(11) 0.7249(1)
C51 C 0.4870(30) 0.2497(10) 0.7310(1)
C52 C 0.4090(23) 0.2288(10) 0.7528(2)
C53 C 0.4780(30) 0.2918(12) 0.7694(2)
C54 C 0.4530(23) 0.3902(10) 0.7625(2)
C55 C 0.5130(30) 0.4640(13) 0.7779(3)
H1 H 0.123 0.530 0.585
H2 H 0.348 0.483 0.587
H3 H 0.226 0.518 0.624
H4 H 0.199 0.631 0.616
H5 H 0.568 0.532 0.615
H6 H 0.529 0.767 0.562
H7 H 0.754 0.738 0.572
H8 H 0.728 0.709 0.532
H9 H 0.745 0.606 0.547
H10 H 0.443 0.508 0.554
H11 H 0.621 0.582 0.578
H12 H 0.081 0.594 0.541
H13 H 0.118 0.486 0.552
H14 H 0.078 0.467 0.512
H15 H 0.772 0.618 0.501
H16 H 0.555 0.666 0.494
H17 H 0.671 0.601 0.463
H18 H 0.208 0.446 0.482
H19 H 0.588 0.366 0.491
H20 H 0.372 0.322 0.500
H21 H 0.676 0.368 0.453
H22 H 0.303 0.449 0.441
H23 H 0.814 0.674 0.627
H24 H 0.849 0.729 0.602
H25 H 0.838 0.609 0.603
H26 H 0.335 0.755 0.611
H27 H 0.531 0.809 0.599
H28 H 0.192 0.724 0.589
H29 H 0.064 0.668 0.569
H30 H 0.247 0.748 0.561
H31 H 0.222 0.679 0.519
H32 H 0.429 0.732 0.510
H33 H 0.351 0.749 0.537
H34 H 0.754 0.504 0.536
H35 H 0.753 0.452 0.511
H36 H 0.575 0.425 0.530
H37 H 0.370 0.636 0.451
H38 H 0.305 0.638 0.478
H39 H 0.670 0.224 0.468
H40 H 0.476 0.167 0.457
H41 H 0.479 0.193 0.484
H42 H 0.190 0.237 0.447
H43 H 0.138 0.349 0.455
H44 H 0.143 0.264 0.475
H45 H 0.330 0.222 0.407
H46 H 0.275 0.090 0.383
H47 H 0.491 0.107 0.370
H48 H 0.309 0.185 0.367
H49 H 0.714 0.172 0.372
H50 H 0.837 0.153 0.396
H51 H 0.872 0.263 0.383
H52 H 0.648 0.645 0.401
H53 H 0.546 0.576 0.382
H54 H 0.716 0.530 0.398
H55 H 0.655 0.493 0.646
H56 H 0.558 0.629 0.681
H57 H 0.782 0.458 0.684
H58 H 0.407 0.487 0.703
H59 H 0.534 0.372 0.666
H60 H 0.854 0.691 0.694
H61 H 1.136 0.680 0.658
H62 H 1.161 0.786 0.699
H63 H 1.117 0.856 0.653
H64 H 0.867 0.847 0.691
H65 H 0.758 0.992 0.672
H66 H 0.591 0.906 0.668
H67 H 0.318 0.355 0.723
H68 H 0.638 0.243 0.732
H69 H 0.260 0.235 0.752
H70 H 0.629 0.281 0.771
H71 H 0.305 0.400 0.760
H72 H 0.485 0.530 0.772
H73 H 0.447 0.457 0.793
H74 H 1.396 0.775 0.694
O25 O 0.3310(30) 0.4021(11) 0.2336(2)
O26 O 0.0285(22) 0.9352(18) 0.7613(3)
H75 H 0.108 0.985 0.755
O27 O 0.0100(40) 0.9951(25) 0.0775(5)
H76 H 0.068 1.066 0.077
loop_
_geom_bond_atom_site_label_1
_geom_bond_atom_site_label_2
_geom_bond_site_symmetry_1
_geom_bond_site_symmetry_2
O1 C3 1_555 1_555
O2 C16 1_555 1_555
O3 C24 1_555 1_555
O4 C28 1_555 1_555
O5 C21 1_555 1_555
O6 C31 1_555 1_555
O7 C22 1_555 1_555
O8 C36 1_555 1_555
O9 C38 1_555 1_555
O10 C39 1_555 1_555
O11 C40 1_555 1_555
O12 C41 1_555 1_555
O13 C43 1_555 1_555
O14 C43 1_555 1_555
O15 C44 1_555 1_555
O16 C45 1_555 1_555
O17 C46 1_555 1_555
O18 C47 1_555 1_555
O19 C49 1_555 1_555
O20 C50 1_555 1_555
O21 C51 1_555 1_555
O22 C52 1_555 1_555
O23 C53 1_555 1_555
O24 C55 1_555 1_555
O26 H75 1_555 1_555
O27 H76 1_555 1_555
C1 C2 1_555 1_555
C2 C3 1_555 1_555
C3 C4 1_555 1_555
C4 C10 1_555 1_555
C5 C6 1_555 1_555
C6 C7 1_555 1_555
C7 C8 1_555 1_555
C8 C9 1_555 1_555
C9 C1 1_555 1_555
C10 C5 1_555 1_555
C11 C8 1_555 1_555
C12 C13 1_555 1_555
C13 C11 1_555 1_555
C14 C7 1_555 1_555
C15 C14 1_555 1_555
C16 C15 1_555 1_555
C17 C16 1_555 1_555
C18 C12 1_555 1_555
C19 C18 1_555 1_555
C20 C19 1_555 1_555
C21 C20 1_555 1_555
C22 C17 1_555 1_555
C23 C4 1_555 1_555
C24 C4 1_555 1_555
C25 C9 1_555 1_555
C26 C7 1_555 1_555
C27 C14 1_555 1_555
C28 C17 1_555 1_555
C29 C20 1_555 1_555
C30 C20 1_555 1_555
C31 O5 1_555 1_555
C32 C31 1_555 1_555
C33 C32 1_555 1_555
C34 C33 1_555 1_555
C35 C32 1_555 1_555
C36 O7 1_555 1_555
C37 C36 1_555 1_555
C38 O1 1_555 1_555
C39 C38 1_555 1_555
C40 C39 1_555 1_555
C41 C40 1_555 1_555
C42 O9 1_555 1_555
C43 C42 1_555 1_555
C44 O10 1_555 1_555
C45 C44 1_555 1_555
C46 C45 1_555 1_555
C47 C46 1_555 1_555
C48 O15 1_555 1_555
C49 C48 1_555 1_555
C50 O12 1_555 1_555
C51 C50 1_555 1_555
C52 C51 1_555 1_555
C53 C52 1_555 1_555
C54 O20 1_555 1_555
C55 C54 1_555 1_555
H1 C1 1_555 1_555
H2 C1 1_555 1_555
H3 C2 1_555 1_555
H4 C2 1_555 1_555
H5 C3 1_555 1_555
H6 C5 1_555 1_555
H7 C5 1_555 1_555
H8 C6 1_555 1_555
H9 C6 1_555 1_555
H10 C8 1_555 1_555
H11 C10 1_555 1_555
H12 C11 1_555 1_555
H13 C11 1_555 1_555
H14 C13 1_555 1_555
H15 C15 1_555 1_555
H16 C15 1_555 1_555
H17 C16 1_555 1_555
H18 C18 1_555 1_555
H19 C19 1_555 1_555
H20 C19 1_555 1_555
H21 C21 1_555 1_555
H22 C22 1_555 1_555
H23 C23 1_555 1_555
H24 C23 1_555 1_555
H25 C23 1_555 1_555
H26 C24 1_555 1_555
H27 C24 1_555 1_555
H28 C25 1_555 1_555
H29 C25 1_555 1_555
H30 C25 1_555 1_555
H31 C26 1_555 1_555
H32 C26 1_555 1_555
H33 C26 1_555 1_555
H34 C27 1_555 1_555
H35 C27 1_555 1_555
H36 C27 1_555 1_555
H37 C28 1_555 1_555
H38 C28 1_555 1_555
H39 C29 1_555 1_555
H40 C29 1_555 1_555
H41 C29 1_555 1_555
H42 C30 1_555 1_555
H43 C30 1_555 1_555
H44 C30 1_555 1_555
H45 C33 1_555 1_555
H46 C34 1_555 1_555
H47 C34 1_555 1_555
H48 C34 1_555 1_555
H49 C35 1_555 1_555
H50 C35 1_555 1_555
H51 C35 1_555 1_555
H52 C37 1_555 1_555
H53 C37 1_555 1_555
H54 C37 1_555 1_555
H55 C38 1_555 1_555
H56 C39 1_555 1_555
H57 C40 1_555 1_555
H58 C41 1_555 1_555
H59 C42 1_555 1_555
H60 C44 1_555 1_555
H61 C45 1_555 1_555
H62 C46 1_555 1_555
H63 C47 1_555 1_555
H64 C48 1_555 1_555
H65 C49 1_555 1_555
H66 C49 1_555 1_555
H67 C50 1_555 1_555
H68 C51 1_555 1_555
H69 C52 1_555 1_555
H70 C53 1_555 1_555
H71 C54 1_555 1_555
H72 C55 1_555 1_555
H73 C55 1_555 1_555
H74 O17 1_555 1_555
C9 C10 1_555 1_555
C12 C14 1_555 1_555
C17 C18 1_555 1_555
C21 C22 1_555 1_555
C41 C42 1_555 1_555
C47 C48 1_555 1_555
C53 C54 1_555 1_555

#END
