
#######################################################################
#
#                 Cambridge Crystallographic Data Centre
#                                CCDC 
#
#######################################################################
#
# If this CIF has been generated from an entry in the Cambridge 
# Structural Database, then it will include bibliographic, chemical, 
# crystal, experimental, refinement or atomic coordinate data resulting 
# from the CCDC's data processing and validation procedures.
#
#######################################################################

data_GADCEW
_chemical_formula_moiety         'C27 H30 N2 O5'
_chemical_name_systematic        
'Di-isopropyl 1-(1-(4-methylphenyl)-1,2-dihydronaphtho[2,1-b]furan-2-yl)hydrazine-1,2-dicarboxylate'
_symmetry_cell_setting           triclinic
_symmetry_space_group_name_H-M   'P -1'
_symmetry_Int_Tables_number      2
_space_group_name_Hall           '-P 1'
loop_
_symmetry_equiv_pos_site_id
_symmetry_equiv_pos_as_xyz
1 x,y,z
2 -x,-y,-z
_cell_length_a                   11.116(3)
_cell_length_b                   11.260(3)
_cell_length_c                   11.711(3)
_cell_angle_alpha                63.523(15)
_cell_angle_beta                 71.584(17)
_cell_angle_gamma                69.128(17)
_cell_volume                     1204.16
_exptl_crystal_colour            colorless
_exptl_crystal_description       needle
_cell_formula_units_Z            2
loop_
_atom_site_label
_atom_site_type_symbol
_atom_site_fract_x
_atom_site_fract_y
_atom_site_fract_z
O1 O 0.52840(10) 0.20243(10) 0.40542(10)
O2 O 0.13753(10) 0.12167(10) 0.64219(10)
O3 O 0.34072(11) 0.37294(11) 0.38796(11)
O4 O 0.50362(11) 0.15279(11) 0.70361(11)
O5 O 0.56416(11) -0.07699(11) 0.75226(12)
N1 N 0.40797(13) 0.05044(13) 0.63772(12)
N2 N 0.34124(12) 0.17382(12) 0.55642(12)
C1 C 0.16912(15) 0.41496(15) 0.68044(14)
C2 C 0.41341(15) 0.24755(15) 0.44455(14)
C3 C 0.49471(15) 0.05224(15) 0.69809(14)
C4 C 0.05307(15) 0.21555(15) 0.79896(14)
C5 C -0.03643(15) 0.23256(16) 0.91152(15)
C6 C 0.17566(15) 0.26411(15) 0.72519(14)
C7 C 0.04124(16) 0.13314(15) 0.74816(15)
C8 C 0.27705(16) 0.45484(16) 0.67093(16)
H1 H 0.3531 0.3872 0.7000
C9 C 0.20522(15) 0.22571(15) 0.60579(15)
C10 C 0.16594(16) 0.69451(16) 0.57730(15)
C11 C -0.02883(17) 0.31293(17) 0.97273(15)
H2 H 0.0382 0.3602 0.9377
C12 C -0.13775(16) 0.16225(16) 0.96525(15)
C13 C 0.27574(17) 0.59273(16) 0.61931(16)
H3 H 0.3514 0.6178 0.6126
C14 C 0.05738(17) 0.65364(16) 0.58809(16)
H4 H -0.0192 0.7213 0.5603
C15 C 0.05862(16) 0.51607(16) 0.63869(16)
H5 H -0.0168 0.4907 0.6449
C16 C -0.05698(16) 0.06217(16) 0.79998(16)
H6 H -0.0624 0.0056 0.7621
C17 C -0.14478(16) 0.07822(17) 0.90779(16)
H7 H -0.2125 0.0316 0.9452
C18 C 0.40290(17) 0.46884(16) 0.26904(15)
H8 H 0.5003 0.4378 0.2617
C19 C -0.22824(17) 0.17701(18) 1.07786(16)
H9 H -0.2971 0.1319 1.1142
C20 C 0.65964(17) -0.09880(17) 0.82592(18)
H10 H 0.6690 -0.0083 0.8128
C21 C -0.21810(18) 0.25496(19) 1.13498(17)
H11 H -0.2793 0.2631 1.2106
C22 C 0.16578(19) 0.84391(16) 0.52061(18)
H12 H 0.0806 0.9005 0.4965
H13 H 0.1815 0.8670 0.5852
H14 H 0.2351 0.8613 0.4433
C23 C -0.11785(17) 0.32273(19) 1.08234(16)
H15 H -0.1113 0.3762 1.1229
C24 C 0.3664(2) 0.4705(2) 0.15539(18)
H16 H 0.4067 0.5338 0.0748
H17 H 0.3978 0.3780 0.1538
H18 H 0.2709 0.5008 0.1633
C25 C 0.3522(2) 0.60520(19) 0.28319(19)
H19 H 0.3908 0.6734 0.2061
H20 H 0.2566 0.6340 0.2923
H21 H 0.3762 0.5972 0.3604
C26 C 0.78763(19) -0.17874(19) 0.7717(2)
H22 H 0.8553 -0.1961 0.8182
H23 H 0.7775 -0.2663 0.7824
H24 H 0.8134 -0.1259 0.6792
C27 C 0.6091(3) -0.1732(2) 0.9680(2)
H25 H 0.6716 -0.1891 1.0197
H26 H 0.5241 -0.1173 0.9960
H27 H 0.5989 -0.2613 0.9805
H28 H 0.4231(17) -0.0218(17) 0.6197(16)
H29 H 0.1694(15) 0.3082(16) 0.5325(15)
H30 H 0.2486(16) 0.2095(15) 0.7736(15)
loop_
_geom_bond_atom_site_label_1
_geom_bond_atom_site_label_2
_geom_bond_site_symmetry_1
_geom_bond_site_symmetry_2
O1 C2 1_555 1_555
O2 C7 1_555 1_555
O3 C2 1_555 1_555
O4 C3 1_555 1_555
O5 C3 1_555 1_555
N1 N2 1_555 1_555
N2 C2 1_555 1_555
C1 C6 1_555 1_555
C3 N1 1_555 1_555
C4 C5 1_555 1_555
C5 C11 1_555 1_555
C6 C4 1_555 1_555
C7 C4 1_555 1_555
C8 C1 1_555 1_555
H1 C8 1_555 1_555
C9 O2 1_555 1_555
C10 C13 1_555 1_555
C11 H2 1_555 1_555
C12 C5 1_555 1_555
C13 C8 1_555 1_555
H3 C13 1_555 1_555
C14 C10 1_555 1_555
H4 C14 1_555 1_555
C15 C1 1_555 1_555
H5 C15 1_555 1_555
C16 C7 1_555 1_555
H6 C16 1_555 1_555
C17 C12 1_555 1_555
H7 C17 1_555 1_555
C18 O3 1_555 1_555
H8 C18 1_555 1_555
C19 C12 1_555 1_555
H9 C19 1_555 1_555
C20 O5 1_555 1_555
H10 C20 1_555 1_555
C21 C19 1_555 1_555
H11 C21 1_555 1_555
C22 C10 1_555 1_555
H12 C22 1_555 1_555
H13 C22 1_555 1_555
H14 C22 1_555 1_555
C23 C11 1_555 1_555
H15 C23 1_555 1_555
C24 C18 1_555 1_555
H16 C24 1_555 1_555
H17 C24 1_555 1_555
H18 C24 1_555 1_555
C25 C18 1_555 1_555
H19 C25 1_555 1_555
H20 C25 1_555 1_555
H21 C25 1_555 1_555
C26 C20 1_555 1_555
H22 C26 1_555 1_555
H23 C26 1_555 1_555
H24 C26 1_555 1_555
C27 C20 1_555 1_555
H25 C27 1_555 1_555
H26 C27 1_555 1_555
H27 C27 1_555 1_555
H28 N1 1_555 1_555
H29 C9 1_555 1_555
H30 C6 1_555 1_555
N2 C9 1_555 1_555
C6 C9 1_555 1_555
C14 C15 1_555 1_555
C16 C17 1_555 1_555
C21 C23 1_555 1_555

#END
