
#######################################################################
#
#                 Cambridge Crystallographic Data Centre
#                                CCDC 
#
#######################################################################
#
# If this CIF has been generated from an entry in the Cambridge 
# Structural Database, then it will include bibliographic, chemical, 
# crystal, experimental, refinement or atomic coordinate data resulting 
# from the CCDC's data processing and validation procedures.
#
#######################################################################

data_GADCIA
_chemical_formula_moiety         'C16 H27 N3 O6'
_chemical_name_systematic        
'Di-isopropyl 1-(2-cyclohexyl-1-nitrovinyl)hydrazine-1,2-dicarboxylate'
_symmetry_cell_setting           triclinic
_symmetry_space_group_name_H-M   'P -1'
_symmetry_Int_Tables_number      2
_space_group_name_Hall           '-P 1'
loop_
_symmetry_equiv_pos_site_id
_symmetry_equiv_pos_as_xyz
1 x,y,z
2 -x,-y,-z
_cell_length_a                   9.777(5)
_cell_length_b                   10.159(5)
_cell_length_c                   10.306(5)
_cell_angle_alpha                102.265(7)
_cell_angle_beta                 100.480(6)
_cell_angle_gamma                90.508(8)
_cell_volume                     982.386
_exptl_crystal_colour            colorless
_exptl_crystal_description       prism
_cell_formula_units_Z            2
loop_
_atom_site_label
_atom_site_type_symbol
_atom_site_fract_x
_atom_site_fract_y
_atom_site_fract_z
O1 O 0.29945(12) 0.56324(13) 0.51513(13)
O2 O 0.25335(12) 0.59235(12) 0.72782(13)
O3 O 0.26486(12) 0.19814(13) 0.46394(14)
O4 O 0.46069(12) 0.19537(13) 0.37311(13)
O5 O 0.60932(13) 0.50073(14) 0.82396(15)
O6 O 0.57753(14) 0.36324(14) 0.95307(15)
N1 N 0.44946(14) 0.34840(16) 0.55776(16)
N2 N 0.37707(14) 0.41954(15) 0.65241(15)
N3 N 0.53863(15) 0.41755(16) 0.85687(17)
C1 C 0.37950(17) 0.24299(17) 0.46321(18)
C2 C 0.30815(16) 0.53123(18) 0.62332(18)
C3 C 0.39561(16) 0.38240(17) 0.77696(18)
C4 C 0.15161(17) 0.29502(18) 0.76315(19)
C5 C 0.30103(17) 0.32544(17) 0.82832(19)
C6 C 0.1125(2) 0.14298(18) 0.7301(3)
C7 C 0.17513(19) 0.71279(18) 0.7129(2)
C8 C 0.05977(18) 0.37162(19) 0.8576(2)
C9 C 0.3990(2) 0.08618(18) 0.2598(2)
C10 C -0.0420(2) 0.1164(2) 0.6655(3)
C11 C -0.09441(19) 0.3456(2) 0.7940(3)
C12 C 0.0317(2) 0.6699(3) 0.6328(3)
C13 C 0.1752(3) 0.7880(2) 0.8557(3)
C14 C 0.3476(4) 0.1474(3) 0.1416(3)
C15 C -0.1348(2) 0.1949(3) 0.7562(3)
C16 C 0.5106(3) -0.0114(3) 0.2366(3)
H1 H 0.5350 0.3700 0.5587
H2 H 0.1349 0.3272 0.6787
H3 H 0.3303 0.3028 0.9114
H4 H 0.1312 0.1090 0.8124
H5 H 0.1689 0.0957 0.6685
H6 H 0.2234 0.7682 0.6665
H7 H 0.0775 0.3430 0.9428
H8 H 0.0836 0.4675 0.8759
H9 H 0.3209 0.0412 0.2834
H10 H -0.0659 0.0207 0.6493
H11 H -0.0586 0.1426 0.5790
H12 H -0.1501 0.3909 0.8574
H13 H -0.1140 0.3827 0.7137
H14 H 0.0383 0.6236 0.5429
H15 H -0.0221 0.7480 0.6287
H16 H -0.0127 0.6108 0.6755
H17 H 0.2693 0.8131 0.9015
H18 H 0.1329 0.7312 0.9024
H19 H 0.1234 0.8677 0.8540
H20 H 0.2768 0.2089 0.1627
H21 H 0.3095 0.0775 0.0646
H22 H 0.4236 0.1952 0.1215
H23 H -0.2311 0.1812 0.7096
H24 H -0.1272 0.1604 0.8379
H25 H 0.5377 -0.0486 0.3151
H26 H 0.5897 0.0346 0.2202
H27 H 0.4758 -0.0827 0.1598
loop_
_geom_bond_atom_site_label_1
_geom_bond_atom_site_label_2
_geom_bond_site_symmetry_1
_geom_bond_site_symmetry_2
O1 C2 1_555 1_555
O2 C2 1_555 1_555
O3 C1 1_555 1_555
O4 C1 1_555 1_555
O5 N3 1_555 1_555
O6 N3 1_555 1_555
N1 N2 1_555 1_555
N2 C2 1_555 1_555
N3 C3 1_555 1_555
C1 N1 1_555 1_555
C3 N2 1_555 1_555
C4 C5 1_555 1_555
C5 C3 1_555 1_555
C6 C4 1_555 1_555
C7 O2 1_555 1_555
C8 C4 1_555 1_555
C9 O4 1_555 1_555
C10 C6 1_555 1_555
C11 C8 1_555 1_555
C12 C7 1_555 1_555
C13 C7 1_555 1_555
C14 C9 1_555 1_555
C15 C10 1_555 1_555
C16 C9 1_555 1_555
H1 N1 1_555 1_555
H2 C4 1_555 1_555
H3 C5 1_555 1_555
H4 C6 1_555 1_555
H5 C6 1_555 1_555
H6 C7 1_555 1_555
H7 C8 1_555 1_555
H8 C8 1_555 1_555
H9 C9 1_555 1_555
H10 C10 1_555 1_555
H11 C10 1_555 1_555
H12 C11 1_555 1_555
H13 C11 1_555 1_555
H14 C12 1_555 1_555
H15 C12 1_555 1_555
H16 C12 1_555 1_555
H17 C13 1_555 1_555
H18 C13 1_555 1_555
H19 C13 1_555 1_555
H20 C14 1_555 1_555
H21 C14 1_555 1_555
H22 C14 1_555 1_555
H23 C15 1_555 1_555
H24 C15 1_555 1_555
H25 C16 1_555 1_555
H26 C16 1_555 1_555
H27 C16 1_555 1_555
C11 C15 1_555 1_555

#END
