
#######################################################################
#
#                 Cambridge Crystallographic Data Centre
#                                CCDC 
#
#######################################################################
#
# If this CIF has been generated from an entry in the Cambridge 
# Structural Database, then it will include bibliographic, chemical, 
# crystal, experimental, refinement or atomic coordinate data resulting 
# from the CCDC's data processing and validation procedures.
#
#######################################################################

data_GADGUN07
_chemical_formula_moiety         'C6 H7 N1,C6 H1 Cl5 O1'
_chemical_name_systematic        'pentachlorophenol 4-methylpyridine'
_symmetry_cell_setting           triclinic
_symmetry_space_group_name_H-M   'P -1'
_symmetry_Int_Tables_number      2
_space_group_name_Hall           '-P 1'
loop_
_symmetry_equiv_pos_site_id
_symmetry_equiv_pos_as_xyz
1 x,y,z
2 -x,-y,-z
_cell_length_a                   7.3382(8)
_cell_length_b                   8.8986(9)
_cell_length_c                   11.8245(11)
_cell_angle_alpha                69.945(5)
_cell_angle_beta                 85.055(5)
_cell_angle_gamma                76.133(5)
_cell_volume                     704.171
_exptl_crystal_colour            colorless
_exptl_crystal_description       Needle
_chemical_melting_point          '75-79 deg.C'
_cell_formula_units_Z            2
loop_
_atom_site_label
_atom_site_type_symbol
_atom_site_fract_x
_atom_site_fract_y
_atom_site_fract_z
C1 C 0.3903(4) 0.8268(4) 0.2293(2)
C2 C 0.3609(4) 0.7824(4) 0.1299(3)
C3 C 0.2860(4) 0.8999(4) 0.0232(3)
C4 C 0.2353(4) 1.0648(4) 0.0118(3)
C5 C 0.2618(4) 1.1117(4) 0.1086(3)
C6 C 0.3396(4) 0.9937(4) 0.2146(3)
O1 O 0.4590(3) 0.7125(2) 0.32955(18)
Cl1 Cl 0.42125(12) 0.57844(9) 0.14310(7)
Cl2 Cl 0.25397(11) 0.83833(10) -0.09585(7)
Cl3 Cl 0.14334(11) 1.21033(10) -0.12073(7)
Cl4 Cl 0.19843(12) 1.31485(10) 0.09655(8)
Cl5 Cl 0.37690(11) 1.05247(10) 0.33437(7)
H1 H 0.581(7) 0.720(5) 0.378(4)
C7 C 0.8416(5) 0.8215(4) 0.4054(3)
C8 C 0.9971(5) 0.8081(4) 0.4679(3)
C9 C 1.0356(4) 0.6888(4) 0.5791(3)
C10 C 0.9136(4) 0.5841(4) 0.6220(3)
C11 C 0.7611(4) 0.6017(4) 0.5552(3)
C12 C 1.2035(5) 0.6704(5) 0.6512(4)
H2 H 1.2649 0.7588 0.6116
H3 H 1.2892 0.5676 0.6580
H4 H 1.1635 0.6731 0.7301
N1 N 0.7245(4) 0.7202(3) 0.4481(2)
H5 H 0.807(4) 0.904(4) 0.332(3)
H6 H 1.078(5) 0.874(4) 0.434(3)
H7 H 0.929(4) 0.499(4) 0.695(3)
H8 H 0.677(4) 0.528(4) 0.579(3)
loop_
_geom_bond_atom_site_label_1
_geom_bond_atom_site_label_2
_geom_bond_site_symmetry_1
_geom_bond_site_symmetry_2
C1 C2 1_555 1_555
C2 C3 1_555 1_555
C3 C4 1_555 1_555
C4 C5 1_555 1_555
C5 C6 1_555 1_555
C6 C1 1_555 1_555
O1 C1 1_555 1_555
Cl1 C2 1_555 1_555
Cl2 C3 1_555 1_555
Cl3 C4 1_555 1_555
Cl4 C5 1_555 1_555
Cl5 C6 1_555 1_555
H1 O1 1_555 1_555
C7 C8 1_555 1_555
C8 C9 1_555 1_555
C9 C10 1_555 1_555
C10 C11 1_555 1_555
C11 N1 1_555 1_555
C12 C9 1_555 1_555
H2 C12 1_555 1_555
H3 C12 1_555 1_555
H4 C12 1_555 1_555
N1 C7 1_555 1_555
H5 C7 1_555 1_555
H6 C8 1_555 1_555
H7 C10 1_555 1_555
H8 C11 1_555 1_555

#END
