
#######################################################################
#
#                 Cambridge Crystallographic Data Centre
#                                CCDC 
#
#######################################################################
#
# If this CIF has been generated from an entry in the Cambridge 
# Structural Database, then it will include bibliographic, chemical, 
# crystal, experimental, refinement or atomic coordinate data resulting 
# from the CCDC's data processing and validation procedures.
#
#######################################################################

data_GADGUN08
_chemical_formula_moiety         'C6 H7 N1,C6 H1 Cl5 O1'
_chemical_name_systematic        'pentachlorophenol 4-methylpyridine'
_symmetry_cell_setting           triclinic
_symmetry_space_group_name_H-M   'P -1'
_symmetry_Int_Tables_number      2
_space_group_name_Hall           '-P 1'
loop_
_symmetry_equiv_pos_site_id
_symmetry_equiv_pos_as_xyz
1 x,y,z
2 -x,-y,-z
_cell_length_a                   7.3857(8)
_cell_length_b                   8.9202(10)
_cell_length_c                   12.0227(12)
_cell_angle_alpha                69.770(3)
_cell_angle_beta                 85.869(3)
_cell_angle_gamma                76.324(4)
_cell_volume                     722.104
_exptl_crystal_colour            colorless
_exptl_crystal_description       Needle
_chemical_melting_point          '75-79 deg.C'
_cell_formula_units_Z            2
loop_
_atom_site_label
_atom_site_type_symbol
_atom_site_fract_x
_atom_site_fract_y
_atom_site_fract_z
C1 C 0.1105(4) 0.6719(4) 0.7737(3)
C2 C 0.1617(4) 0.5046(4) 0.7895(3)
C3 C 0.2384(4) 0.3884(4) 0.8946(3)
C4 C 0.2641(4) 0.4355(4) 0.9899(3)
C5 C 0.2141(4) 0.6015(4) 0.9773(3)
C6 C 0.1394(4) 0.7166(4) 0.8713(3)
O1 O 0.0424(4) 0.7855(3) 0.6742(2)
Cl1 Cl 0.12723(13) 0.44496(12) 0.67202(8)
Cl2 Cl 0.30288(14) 0.18438(11) 0.90896(9)
Cl3 Cl 0.35693(13) 0.29155(12) 1.12172(8)
Cl4 Cl 0.24580(12) 0.66298(12) 1.09406(7)
Cl5 Cl 0.07913(13) 0.92079(10) 0.85595(8)
H1 H -0.059(7) 0.780(6) 0.639(4)
C7 C 0.6615(6) 0.6777(5) 0.5939(3)
C8 C 0.5069(5) 0.6915(5) 0.5312(4)
C9 C 0.4682(5) 0.8100(4) 0.4224(3)
C10 C 0.5902(5) 0.9115(5) 0.3811(3)
C11 C 0.7408(5) 0.8926(4) 0.4485(3)
C12 C 0.3014(6) 0.8296(6) 0.3485(4)
H2 H 0.2092 0.7805 0.3989
H3 H 0.3396 0.7767 0.2906
H4 H 0.2495 0.9441 0.3089
N1 N 0.7780(4) 0.7767(3) 0.5533(2)
H5 H 0.695(4) 0.597(4) 0.668(3)
H6 H 0.433(5) 0.617(4) 0.568(3)
H7 H 0.567(4) 0.994(4) 0.313(3)
H8 H 0.824(4) 0.957(4) 0.424(2)
loop_
_geom_bond_atom_site_label_1
_geom_bond_atom_site_label_2
_geom_bond_site_symmetry_1
_geom_bond_site_symmetry_2
C1 C2 1_555 1_555
C2 C3 1_555 1_555
C3 C4 1_555 1_555
C4 C5 1_555 1_555
C5 C6 1_555 1_555
C6 C1 1_555 1_555
O1 C1 1_555 1_555
Cl1 C2 1_555 1_555
Cl2 C3 1_555 1_555
Cl3 C4 1_555 1_555
Cl4 C5 1_555 1_555
Cl5 C6 1_555 1_555
H1 O1 1_555 1_555
C7 C8 1_555 1_555
C8 C9 1_555 1_555
C9 C10 1_555 1_555
C10 C11 1_555 1_555
C11 N1 1_555 1_555
C12 C9 1_555 1_555
H2 C12 1_555 1_555
H3 C12 1_555 1_555
H4 C12 1_555 1_555
N1 C7 1_555 1_555
H5 C7 1_555 1_555
H6 C8 1_555 1_555
H7 C10 1_555 1_555
H8 C11 1_555 1_555

#END
