
#######################################################################
#
#                 Cambridge Crystallographic Data Centre
#                                CCDC 
#
#######################################################################
#
# If this CIF has been generated from an entry in the Cambridge 
# Structural Database, then it will include bibliographic, chemical, 
# crystal, experimental, refinement or atomic coordinate data resulting 
# from the CCDC's data processing and validation procedures.
#
#######################################################################

data_GADVOZ
_chemical_formula_moiety         'C22 H26 N2 O4 S2'
_chemical_name_systematic        
(S,S)-2,5-bis((4-Methylphenyl)sulfonyl)-1,2,3,3a,4,5,6,8a-octahydropyrrolo[3,4-c]azepine
_symmetry_cell_setting           monoclinic
_symmetry_space_group_name_H-M   'P 21'
_symmetry_Int_Tables_number      4
_space_group_name_Hall           'P 2yb'
loop_
_symmetry_equiv_pos_site_id
_symmetry_equiv_pos_as_xyz
1 x,y,z
2 -x,1/2+y,-z
_cell_length_a                   9.9999(5)
_cell_length_b                   6.3999(3)
_cell_length_c                   17.2588(8)
_cell_angle_alpha                90
_cell_angle_beta                 92.342(2)
_cell_angle_gamma                90
_cell_volume                     1103.61
_exptl_crystal_colour            colorless
_exptl_crystal_description       block
_cell_formula_units_Z            2
loop_
_atom_site_label
_atom_site_type_symbol
_atom_site_fract_x
_atom_site_fract_y
_atom_site_fract_z
S1 S 0.83697(6) 0.93241(10) 0.42737(4)
S2 S 0.78274(6) 1.33538(12) 0.83463(4)
O1 O 0.96698(15) 1.0169(3) 0.44237(11)
O2 O 0.8197(2) 0.7153(3) 0.41283(12)
O3 O 0.70184(19) 1.2178(4) 0.88470(12)
O4 O 0.7502(2) 1.5482(3) 0.81834(13)
N1 N 0.74969(18) 0.9877(3) 0.50184(12)
N2 N 0.7799(2) 1.2161(3) 0.75220(12)
C1 C 0.9478(2) 1.3253(5) 0.87437(14)
C2 C 0.9910(3) 1.1523(5) 0.91568(16)
H1 H 0.9345 1.0384 0.9213
C3 C 1.1196(3) 1.1494(6) 0.94892(17)
H2 H 1.1490 1.0317 0.9763
C4 C 1.2044(3) 1.3157(7) 0.94228(17)
C5 C 1.1588(3) 1.4852(6) 0.89999(19)
H3 H 1.2155 1.5989 0.8944
C6 C 1.0321(3) 1.4928(5) 0.86563(16)
H4 H 1.0041 1.6091 0.8370
C7 C 1.3419(3) 1.3133(9) 0.9825(2)
H5 H 1.3874 1.4418 0.9721
H6 H 1.3926 1.1981 0.9635
H7 H 1.3329 1.2985 1.0374
C8 C 0.7633(2) 1.0654(4) 0.34762(15)
C9 C 0.8065(3) 1.2648(4) 0.32908(18)
H8 H 0.8770 1.3261 0.3576
C10 C 0.7448(3) 1.3711(5) 0.26829(18)
H9 H 0.7739 1.5048 0.2563
C11 C 0.6407(3) 1.2835(6) 0.22497(18)
C12 C 0.5983(3) 1.0863(6) 0.24394(17)
H10 H 0.5275 1.0262 0.2153
C13 C 0.6587(2) 0.9749(5) 0.30478(15)
H11 H 0.6292 0.8413 0.3166
C14 C 0.5740(4) 1.3994(7) 0.1580(2)
H12 H 0.5038 1.3147 0.1350
H13 H 0.6388 1.4295 0.1200
H14 H 0.5370 1.5277 0.1764
C15 C 0.6140(2) 0.9021(5) 0.50402(17)
H15 H 0.6138 0.7610 0.4835
H16 H 0.5544 0.9857 0.4709
C16 C 0.5627(3) 0.8980(5) 0.58310(18)
H17 H 0.4710 0.8783 0.5865
C17 C 0.6317(3) 0.9191(5) 0.64941(18)
H18 H 0.5817 0.9160 0.6937
C18 C 0.7791(3) 0.9473(4) 0.66320(15)
H19 H 0.8262 0.8214 0.6470
C19 C 0.8142(3) 0.9926(4) 0.74805(16)
H20 H 0.7607 0.9094 0.7821
H21 H 0.9084 0.9686 0.7606
C20 C 0.8228(3) 1.3197(5) 0.68117(15)
H22 H 0.9075 1.3913 0.6904
H23 H 0.7563 1.4199 0.6623
C21 C 0.8369(2) 1.1400(4) 0.62334(14)
H24 H 0.9326 1.1154 0.6172
C22 C 0.7733(2) 1.1852(4) 0.54360(14)
H25 H 0.6892 1.2583 0.5489
H26 H 0.8321 1.2738 0.5146
loop_
_geom_bond_atom_site_label_1
_geom_bond_atom_site_label_2
_geom_bond_site_symmetry_1
_geom_bond_site_symmetry_2
S1 O1 1_555 1_555
S2 O3 1_555 1_555
O2 S1 1_555 1_555
O4 S2 1_555 1_555
N1 S1 1_555 1_555
N2 S2 1_555 1_555
C1 S2 1_555 1_555
C2 C1 1_555 1_555
H1 C2 1_555 1_555
C3 C2 1_555 1_555
H2 C3 1_555 1_555
C4 C3 1_555 1_555
C5 C4 1_555 1_555
H3 C5 1_555 1_555
C6 C1 1_555 1_555
H4 C6 1_555 1_555
C7 C4 1_555 1_555
H5 C7 1_555 1_555
H6 C7 1_555 1_555
H7 C7 1_555 1_555
C8 S1 1_555 1_555
C9 C8 1_555 1_555
H8 C9 1_555 1_555
C10 C9 1_555 1_555
H9 C10 1_555 1_555
C11 C10 1_555 1_555
C12 C11 1_555 1_555
H10 C12 1_555 1_555
C13 C8 1_555 1_555
H11 C13 1_555 1_555
C14 C11 1_555 1_555
H12 C14 1_555 1_555
H13 C14 1_555 1_555
H14 C14 1_555 1_555
C15 N1 1_555 1_555
H15 C15 1_555 1_555
H16 C15 1_555 1_555
C16 C15 1_555 1_555
H17 C16 1_555 1_555
C17 C16 1_555 1_555
H18 C17 1_555 1_555
C18 C17 1_555 1_555
H19 C18 1_555 1_555
C19 N2 1_555 1_555
H20 C19 1_555 1_555
H21 C19 1_555 1_555
C20 N2 1_555 1_555
H22 C20 1_555 1_555
H23 C20 1_555 1_555
C21 C18 1_555 1_555
H24 C21 1_555 1_555
C22 N1 1_555 1_555
H25 C22 1_555 1_555
H26 C22 1_555 1_555
C5 C6 1_555 1_555
C12 C13 1_555 1_555
C18 C19 1_555 1_555
C20 C21 1_555 1_555
C21 C22 1_555 1_555

#END
