
#######################################################################
#
#                 Cambridge Crystallographic Data Centre
#                                CCDC 
#
#######################################################################
#
# If this CIF has been generated from an entry in the Cambridge 
# Structural Database, then it will include bibliographic, chemical, 
# crystal, experimental, refinement or atomic coordinate data resulting 
# from the CCDC's data processing and validation procedures.
#
#######################################################################

data_GADWAM
_chemical_formula_moiety         'C28 H30 N2 O4 S2'
_chemical_name_systematic        
(R,S,S)-2,5-bis((4-Methylphenyl)sulfonyl)-4-phenyl-1,2,3,3a,4,5,6,8a-octahydropyrrolo[3,4-c]azepine
_symmetry_cell_setting           monoclinic
_symmetry_space_group_name_H-M   'C 2'
_symmetry_Int_Tables_number      5
_space_group_name_Hall           'C 2y'
loop_
_symmetry_equiv_pos_site_id
_symmetry_equiv_pos_as_xyz
1 x,y,z
2 -x,y,-z
3 1/2+x,1/2+y,z
4 1/2-x,1/2+y,-z
_cell_length_a                   19.1171(15)
_cell_length_b                   9.5991(6)
_cell_length_c                   15.5398(14)
_cell_angle_alpha                90
_cell_angle_beta                 112.805(4)
_cell_angle_gamma                90
_cell_volume                     2628.75
_exptl_crystal_colour            colorless
_exptl_crystal_description       block
_cell_formula_units_Z            4
loop_
_atom_site_label
_atom_site_type_symbol
_atom_site_fract_x
_atom_site_fract_y
_atom_site_fract_z
S1 S 0.83713(4) 0.60409(9) 0.89145(5)
S2 S 0.74167(5) 0.12600(10) 0.66544(5)
O1 O 0.89085(13) 0.6747(2) 0.97065(15)
O2 O 0.76071(12) 0.6548(2) 0.84982(16)
O3 O 0.71951(16) 0.2690(3) 0.66129(18)
O4 O 0.68411(13) 0.0210(3) 0.63499(19)
N1 N 0.82994(13) 0.4459(2) 0.91965(17)
N2 N 0.79773(13) 0.0850(3) 0.77065(16)
C1 C 0.9776(2) 0.5889(6) 0.6029(3)
H1 H 1.0313 0.6047 0.6329
H2 H 0.9554 0.6587 0.5560
H3 H 0.9687 0.4984 0.5743
C2 C 0.9423(2) 0.5964(4) 0.6744(2)
C3 C 0.98538(18) 0.6218(4) 0.7665(2)
H4 H 1.0373 0.6362 0.7848
C4 C 0.95421(16) 0.6267(4) 0.8329(2)
H5 H 0.9847 0.6458 0.8948
C5 C 0.87744(15) 0.6031(4) 0.80680(19)
C6 C 0.83275(18) 0.5765(3) 0.7140(2)
H6 H 0.7811 0.5600 0.6957
C7 C 0.8654(2) 0.5747(4) 0.6491(2)
H7 H 0.8350 0.5584 0.5867
C8 C 0.93347(15) 0.1497(3) 0.82375(18)
C9 C 0.97248(17) 0.0290(3) 0.8642(2)
H8 H 0.9512 -0.0326 0.8934
C10 C 1.04184(18) -0.0008(4) 0.8619(2)
H9 H 1.0672 -0.0816 0.8901
C11 C 1.07403(19) 0.0872(5) 0.8185(3)
H10 H 1.1206 0.0659 0.8157
C12 C 1.03639(19) 0.2079(4) 0.7791(2)
H11 H 1.0584 0.2695 0.7508
C13 C 0.96632(17) 0.2389(3) 0.7808(2)
H12 H 0.9413 0.3202 0.7528
C14 C 0.79709(17) 0.1123(4) 0.59820(19)
C15 C 0.8311(2) -0.0121(4) 0.5938(3)
H13 H 0.8294 -0.0860 0.6317
C16 C 0.8674(2) -0.0278(5) 0.5340(3)
H14 H 0.8901 -0.1128 0.5319
C17 C 0.8712(3) 0.0771(8) 0.4778(3)
C18 C 0.8408(3) 0.2028(7) 0.4843(3)
H15 H 0.8457 0.2775 0.4489
C19 C 0.8025(2) 0.2205(5) 0.5438(3)
H16 H 0.7806 0.3060 0.5465
C20 C 0.9071(3) 0.0584(8) 0.4065(3)
H17 H 0.9253 -0.0354 0.4094
H18 H 0.9487 0.1222 0.4201
H19 H 0.8699 0.0766 0.3450
C21 C 0.75753(16) 0.3712(3) 0.8918(2)
H20 H 0.7319 0.3666 0.8244
H21 H 0.7242 0.4146 0.9177
C22 C 0.78317(16) 0.2268(3) 0.9340(2)
H22 H 0.7961 0.2383 1.0010
C23 C 0.72347(17) 0.1149(5) 0.9038(2)
H23 H 0.6821 0.1280 0.9202
C24 C 0.7230(2) 0.0015(4) 0.8573(3)
H24 H 0.6842 -0.0621 0.8489
C25 C 0.7795(2) -0.0346(3) 0.8163(3)
H25 H 0.8255 -0.0683 0.8654
H26 H 0.7593 -0.1089 0.7712
C26 C 0.85623(15) 0.1860(3) 0.82375(18)
H27 H 0.8415 0.2755 0.7914
C27 C 0.85979(15) 0.2084(3) 0.92433(18)
H28 H 0.8898 0.1348 0.9661
C28 C 0.89534(16) 0.3513(3) 0.9578(2)
H29 H 0.9180 0.3558 1.0254
H30 H 0.9336 0.3730 0.9333
loop_
_geom_bond_atom_site_label_1
_geom_bond_atom_site_label_2
_geom_bond_site_symmetry_1
_geom_bond_site_symmetry_2
S1 O1 1_555 1_555
S2 O3 1_555 1_555
O2 S1 1_555 1_555
O4 S2 1_555 1_555
N1 S1 1_555 1_555
N2 S2 1_555 1_555
C1 H1 1_555 1_555
H2 C1 1_555 1_555
H3 C1 1_555 1_555
C2 C1 1_555 1_555
C3 C2 1_555 1_555
H4 C3 1_555 1_555
C4 C3 1_555 1_555
H5 C4 1_555 1_555
C5 S1 1_555 1_555
C6 C5 1_555 1_555
H6 C6 1_555 1_555
C7 C2 1_555 1_555
H7 C7 1_555 1_555
C8 C9 1_555 1_555
C9 H8 1_555 1_555
C10 C9 1_555 1_555
H9 C10 1_555 1_555
C11 C10 1_555 1_555
H10 C11 1_555 1_555
C12 C11 1_555 1_555
H11 C12 1_555 1_555
C13 C8 1_555 1_555
H12 C13 1_555 1_555
C14 S2 1_555 1_555
C15 C14 1_555 1_555
H13 C15 1_555 1_555
C16 C15 1_555 1_555
H14 C16 1_555 1_555
C17 C16 1_555 1_555
C18 C17 1_555 1_555
H15 C18 1_555 1_555
C19 C14 1_555 1_555
H16 C19 1_555 1_555
C20 C17 1_555 1_555
H17 C20 1_555 1_555
H18 C20 1_555 1_555
H19 C20 1_555 1_555
C21 N1 1_555 1_555
H20 C21 1_555 1_555
H21 C21 1_555 1_555
C22 C21 1_555 1_555
H22 C22 1_555 1_555
C23 C22 1_555 1_555
H23 C23 1_555 1_555
C24 C23 1_555 1_555
H24 C24 1_555 1_555
C25 N2 1_555 1_555
H25 C25 1_555 1_555
H26 C25 1_555 1_555
C26 N2 1_555 1_555
H27 C26 1_555 1_555
C27 C22 1_555 1_555
H28 C27 1_555 1_555
C28 N1 1_555 1_555
H29 C28 1_555 1_555
H30 C28 1_555 1_555
C4 C5 1_555 1_555
C6 C7 1_555 1_555
C8 C26 1_555 1_555
C12 C13 1_555 1_555
C18 C19 1_555 1_555
C24 C25 1_555 1_555
C26 C27 1_555 1_555
C27 C28 1_555 1_555

#END
