
#######################################################################
#
#                 Cambridge Crystallographic Data Centre
#                                CCDC 
#
#######################################################################
#
# If this CIF has been generated from an entry in the Cambridge 
# Structural Database, then it will include bibliographic, chemical, 
# crystal, experimental, refinement or atomic coordinate data resulting 
# from the CCDC's data processing and validation procedures.
#
#######################################################################

data_GADWEQ
_chemical_formula_moiety         'C28 H30 N2 O4 S2,C1 H1 Cl3'
_chemical_name_systematic        
'(S,S,R)-2,5-bis((4-Methylphenyl)sulfonyl)-4-phenyl-1,2,3,3a,4,5,6,8a-octahydropyrrolo[3,4-c]azepine chloroform solvate'
_symmetry_cell_setting           orthorhombic
_symmetry_space_group_name_H-M   'P 21 21 21'
_symmetry_Int_Tables_number      19
_space_group_name_Hall           'P 2ac 2ab'
loop_
_symmetry_equiv_pos_site_id
_symmetry_equiv_pos_as_xyz
1 x,y,z
2 1/2-x,-y,1/2+z
3 -x,1/2+y,1/2-z
4 1/2+x,1/2-y,-z
_cell_length_a                   11.369(4)
_cell_length_b                   12.198(4)
_cell_length_c                   21.866(8)
_cell_angle_alpha                90
_cell_angle_beta                 90
_cell_angle_gamma                90
_cell_volume                     3032.36
_exptl_crystal_colour            colorless
_exptl_crystal_description       block
_cell_formula_units_Z            4
loop_
_atom_site_label
_atom_site_type_symbol
_atom_site_fract_x
_atom_site_fract_y
_atom_site_fract_z
S1 S 0.94458(11) 0.65172(10) 0.95002(6)
S2 S 1.49032(12) 0.36173(11) 0.99988(7)
O1 O 0.9313(4) 0.7524(3) 0.91645(17)
O2 O 0.8663(3) 0.6274(3) 1.00034(17)
O3 O 1.4946(4) 0.2526(3) 0.97531(19)
O4 O 1.5539(4) 0.3881(4) 1.05482(18)
N1 N 1.0755(3) 0.6530(3) 0.97879(18)
N2 N 1.3508(4) 0.3882(3) 1.01374(19)
C1 C 1.2735(4) 0.4587(4) 1.1133(2)
C2 C 1.2798(6) 0.5379(4) 1.1592(3)
H1 H 1.3159 0.6047 1.1509
C3 C 1.2334(6) 0.5193(5) 1.2170(3)
H2 H 1.2385 0.5732 1.2470
C4 C 1.1800(6) 0.4209(5) 1.2298(3)
H3 H 1.1482 0.4081 1.2683
C5 C 1.1736(6) 0.3411(5) 1.1850(3)
H4 H 1.1382 0.2742 1.1938
C6 C 1.2197(5) 0.3598(5) 1.1270(3)
H5 H 1.2144 0.3055 1.0972
C7 C 1.3238(5) 0.4874(4) 1.0497(2)
H6 H 1.3997 0.5228 1.0574
C8 C 1.2483(4) 0.5736(4) 1.0179(2)
H7 H 1.2653 0.6422 1.0395
C9 C 1.1123(4) 0.5623(4) 1.0200(2)
H8 H 1.0868 0.4916 1.0046
H9 H 1.0823 0.5726 1.0611
C10 C 1.1771(5) 0.6884(4) 0.9404(3)
H10 H 1.2064 0.7591 0.9537
H11 H 1.1545 0.6935 0.8977
C11 C 1.2694(5) 0.5999(4) 0.9496(3)
H12 H 1.3482 0.6308 0.9440
C12 C 1.2496(5) 0.5093(5) 0.9047(3)
H13 H 1.2411 0.5315 0.8643
C13 C 1.2422(5) 0.4002(5) 0.9140(3)
H14 H 1.2229 0.3575 0.8802
C14 C 1.2618(5) 0.3405(4) 0.9732(3)
H15 H 1.1877 0.3376 0.9952
H16 H 1.2846 0.2657 0.9640
C15 C 1.5413(5) 0.4506(4) 0.9418(3)
C16 C 1.5809(5) 0.5562(5) 0.9568(3)
H17 H 1.5819 0.5798 0.9973
C17 C 1.6179(5) 0.6235(5) 0.9109(3)
H18 H 1.6448 0.6932 0.9210
C18 C 1.6174(5) 0.5925(5) 0.8497(3)
C19 C 1.5786(6) 0.4871(5) 0.8368(3)
H19 H 1.5778 0.4637 0.7963
C20 C 1.5416(5) 0.4163(5) 0.8813(3)
H20 H 1.5168 0.3460 0.8712
C21 C 1.6595(7) 0.6680(6) 0.8000(3)
H21 H 1.6500 0.6330 0.7610
H22 H 1.7410 0.6849 0.8064
H23 H 1.6143 0.7345 0.8009
C22 C 0.9407(4) 0.5441(4) 0.8978(2)
C23 C 0.9172(5) 0.4366(4) 0.9179(3)
H24 H 0.8927 0.4245 0.9579
C24 C 0.9302(6) 0.3509(5) 0.8790(3)
H25 H 0.9154 0.2801 0.8928
C25 C 0.9655(6) 0.3676(5) 0.8182(3)
C26 C 0.9863(5) 0.4741(5) 0.7989(3)
H26 H 1.0097 0.4867 0.7588
C27 C 0.9728(5) 0.5617(4) 0.8381(2)
H27 H 0.9855 0.6327 0.8241
C28 C 0.9856(8) 0.2705(6) 0.7756(3)
H28 H 1.0094 0.2966 0.7361
H29 H 0.9140 0.2294 0.7718
H30 H 1.0460 0.2243 0.7922
C29 C 0.6909(7) 0.4527(6) 0.6302(3)
H31 H 0.7189 0.4306 0.5896
Cl1 Cl 0.8128(2) 0.4679(3) 0.67713(16)
Cl2 Cl 0.6150(3) 0.57434(19) 0.62192(14)
Cl3 Cl 0.6014(3) 0.3484(2) 0.65789(11)
loop_
_geom_bond_atom_site_label_1
_geom_bond_atom_site_label_2
_geom_bond_site_symmetry_1
_geom_bond_site_symmetry_2
S1 O1 1_555 1_555
S2 O3 1_555 1_555
O2 S1 1_555 1_555
O4 S2 1_555 1_555
N1 S1 1_555 1_555
N2 S2 1_555 1_555
C1 C2 1_555 1_555
C2 H1 1_555 1_555
C3 C2 1_555 1_555
H2 C3 1_555 1_555
C4 C3 1_555 1_555
H3 C4 1_555 1_555
C5 C4 1_555 1_555
H4 C5 1_555 1_555
C6 C1 1_555 1_555
H5 C6 1_555 1_555
C7 N2 1_555 1_555
H6 C7 1_555 1_555
C8 C7 1_555 1_555
H7 C8 1_555 1_555
C9 N1 1_555 1_555
H8 C9 1_555 1_555
H9 C9 1_555 1_555
C10 N1 1_555 1_555
H10 C10 1_555 1_555
H11 C10 1_555 1_555
C11 C8 1_555 1_555
H12 C11 1_555 1_555
C12 C11 1_555 1_555
H13 C12 1_555 1_555
C13 C12 1_555 1_555
H14 C13 1_555 1_555
C14 N2 1_555 1_555
H15 C14 1_555 1_555
H16 C14 1_555 1_555
C15 S2 1_555 1_555
C16 C15 1_555 1_555
H17 C16 1_555 1_555
C17 C16 1_555 1_555
H18 C17 1_555 1_555
C18 C17 1_555 1_555
C19 C18 1_555 1_555
H19 C19 1_555 1_555
C20 C15 1_555 1_555
H20 C20 1_555 1_555
C21 C18 1_555 1_555
H21 C21 1_555 1_555
H22 C21 1_555 1_555
H23 C21 1_555 1_555
C22 S1 1_555 1_555
C23 C22 1_555 1_555
H24 C23 1_555 1_555
C24 C23 1_555 1_555
H25 C24 1_555 1_555
C25 C24 1_555 1_555
C26 C25 1_555 1_555
H26 C26 1_555 1_555
C27 C22 1_555 1_555
H27 C27 1_555 1_555
C28 C25 1_555 1_555
H28 C28 1_555 1_555
H29 C28 1_555 1_555
H30 C28 1_555 1_555
C29 H31 1_555 1_555
Cl1 C29 1_555 1_555
Cl2 C29 1_555 1_555
Cl3 C29 1_555 1_555
C1 C7 1_555 1_555
C5 C6 1_555 1_555
C8 C9 1_555 1_555
C10 C11 1_555 1_555
C13 C14 1_555 1_555
C19 C20 1_555 1_555
C26 C27 1_555 1_555

#END
