
#######################################################################
#
#                 Cambridge Crystallographic Data Centre
#                                CCDC 
#
#######################################################################
#
# If this CIF has been generated from an entry in the Cambridge 
# Structural Database, then it will include bibliographic, chemical, 
# crystal, experimental, refinement or atomic coordinate data resulting 
# from the CCDC's data processing and validation procedures.
#
#######################################################################

data_GADYOA
_chemical_formula_moiety         'C25 H23 N2 O1 P1'
_chemical_name_systematic        
'((N-Benzyl-N-(2-pyridyl)amino)methylene)diphenylphosphine oxide'
_symmetry_cell_setting           monoclinic
_symmetry_space_group_name_H-M   'P 21/n'
_symmetry_Int_Tables_number      14
_space_group_name_Hall           '-P 2yn'
loop_
_symmetry_equiv_pos_site_id
_symmetry_equiv_pos_as_xyz
1 x,y,z
2 1/2+x,1/2-y,1/2+z
3 -x,-y,-z
4 1/2-x,1/2+y,1/2-z
_cell_length_a                   9.256(3)
_cell_length_b                   14.834(5)
_cell_length_c                   15.957(5)
_cell_angle_alpha                90
_cell_angle_beta                 104.979(6)
_cell_angle_gamma                90
_cell_volume                     2116.5
_exptl_crystal_colour            white
_exptl_crystal_description       plate
_cell_formula_units_Z            4
loop_
_atom_site_label
_atom_site_type_symbol
_atom_site_fract_x
_atom_site_fract_y
_atom_site_fract_z
P1 P 0.94766(7) 0.82149(5) 0.17049(5)
O1 O 1.07959(19) 0.86319(13) 0.14963(12)
N1 N 0.7482(2) 0.95767(14) 0.10903(14)
N2 N 0.5294(2) 0.92851(16) 0.15003(14)
C1 C 0.9408(3) 0.70132(18) 0.15094(16)
C2 C 0.8295(3) 0.64515(19) 0.16542(17)
H1 H 0.7535 0.6694 0.1868
C3 C 0.8303(4) 0.5541(2) 0.14860(19)
H2 H 0.7544 0.5175 0.1580
C4 C 0.9415(5) 0.5175(2) 0.1183(2)
H3 H 0.9426 0.4559 0.1079
C5 C 1.0525(4) 0.5717(3) 0.1030(2)
H4 H 1.1279 0.5466 0.0815
C6 C 1.0526(3) 0.6642(2) 0.11949(18)
H5 H 1.1281 0.7006 0.1093
C7 C 0.9490(3) 0.83949(16) 0.28216(17)
C8 C 0.8315(3) 0.81862(18) 0.3181(2)
H6 H 0.7420 0.7971 0.2826
C9 C 0.8460(4) 0.8295(2) 0.4062(2)
H7 H 0.7669 0.8148 0.4297
C10 C 0.9767(4) 0.8619(2) 0.4584(2)
H8 H 0.9870 0.8682 0.5177
C11 C 1.0927(4) 0.8849(2) 0.4240(2)
H9 H 1.1806 0.9082 0.4597
C12 C 1.0794(3) 0.8738(2) 0.33689(19)
H10 H 1.1588 0.8896 0.3141
C13 C 0.7705(3) 0.86041(17) 0.10364(17)
H11 H 0.7637 0.8446 0.0438
H12 H 0.6907 0.8293 0.1209
C14 C 0.6136(3) 0.98871(18) 0.12174(16)
C15 C 0.5704(3) 1.07848(19) 0.10800(17)
H13 H 0.6298 1.1192 0.0876
C16 C 0.4399(3) 1.1063(2) 0.12471(19)
H14 H 0.4104 1.1663 0.1165
C17 C 0.3527(3) 1.0449(3) 0.1538(2)
H15 H 0.2632 1.0620 0.1655
C18 C 0.4018(3) 0.9581(2) 0.16479(19)
H16 H 0.3423 0.9165 0.1839
C19 C 0.8318(3) 1.01498(18) 0.06454(17)
H17 H 0.7622 1.0412 0.0143
H18 H 0.9008 0.9775 0.0435
C20 C 0.9192(3) 1.09025(17) 0.11787(18)
C21 C 0.9669(3) 1.16101(19) 0.0744(2)
H19 H 0.9406 1.1622 0.0141
C22 C 1.0529(4) 1.2294(2) 0.1205(3)
H20 H 1.0854 1.2761 0.0909
C23 C 1.0911(4) 1.2291(2) 0.2091(3)
H21 H 1.1494 1.2754 0.2397
C24 C 1.0433(3) 1.1607(2) 0.2531(2)
H22 H 1.0678 1.1610 0.3134
C25 C 0.9581(3) 1.0908(2) 0.20716(19)
H23 H 0.9271 1.0439 0.2371
loop_
_geom_bond_atom_site_label_1
_geom_bond_atom_site_label_2
_geom_bond_site_symmetry_1
_geom_bond_site_symmetry_2
P1 O1 1_555 1_555
N1 C13 1_555 1_555
N2 C14 1_555 1_555
C1 P1 1_555 1_555
C2 C1 1_555 1_555
H1 C2 1_555 1_555
C3 C2 1_555 1_555
H2 C3 1_555 1_555
C4 C3 1_555 1_555
H3 C4 1_555 1_555
C5 C4 1_555 1_555
H4 C5 1_555 1_555
C6 C1 1_555 1_555
H5 C6 1_555 1_555
C7 P1 1_555 1_555
C8 C7 1_555 1_555
H6 C8 1_555 1_555
C9 C8 1_555 1_555
H7 C9 1_555 1_555
C10 C9 1_555 1_555
H8 C10 1_555 1_555
C11 C10 1_555 1_555
H9 C11 1_555 1_555
C12 C7 1_555 1_555
H10 C12 1_555 1_555
C13 P1 1_555 1_555
H11 C13 1_555 1_555
H12 C13 1_555 1_555
C14 N1 1_555 1_555
C15 C14 1_555 1_555
H13 C15 1_555 1_555
C16 C15 1_555 1_555
H14 C16 1_555 1_555
C17 C16 1_555 1_555
H15 C17 1_555 1_555
C18 N2 1_555 1_555
H16 C18 1_555 1_555
C19 N1 1_555 1_555
H17 C19 1_555 1_555
H18 C19 1_555 1_555
C20 C19 1_555 1_555
C21 C20 1_555 1_555
H19 C21 1_555 1_555
C22 C21 1_555 1_555
H20 C22 1_555 1_555
C23 C22 1_555 1_555
H21 C23 1_555 1_555
C24 C23 1_555 1_555
H22 C24 1_555 1_555
C25 C20 1_555 1_555
H23 C25 1_555 1_555
C5 C6 1_555 1_555
C11 C12 1_555 1_555
C17 C18 1_555 1_555
C24 C25 1_555 1_555

#END
