
#######################################################################
#
#                 Cambridge Crystallographic Data Centre
#                                CCDC 
#
#######################################################################
#
# If this CIF has been generated from an entry in the Cambridge 
# Structural Database, then it will include bibliographic, chemical, 
# crystal, experimental, refinement or atomic coordinate data resulting 
# from the CCDC's data processing and validation procedures.
#
#######################################################################

data_GAFDIB
_chemical_formula_moiety         'C9 H12 N1 O3 P1,3(H2 O1)'
_chemical_name_systematic        '2-Aminoindane-2-phosphonic acid trihydrate'
_symmetry_cell_setting           monoclinic
_symmetry_space_group_name_H-M   'C 2/c'
_symmetry_Int_Tables_number      15
_space_group_name_Hall           '-C 2yn'
loop_
_symmetry_equiv_pos_site_id
_symmetry_equiv_pos_as_xyz
1 x,y,z
2 1/2+x,1/2+y,z
3 x,-y,1/2+z
4 1/2+x,1/2-y,1/2+z
5 -x,-y,-z
6 1/2-x,1/2-y,-z
7 -x,y,1/2-z
8 1/2-x,1/2+y,1/2-z
_cell_length_a                   25.237(6)
_cell_length_b                   6.167(2)
_cell_length_c                   20.349(6)
_cell_angle_alpha                90
_cell_angle_beta                 122.95(3)
_cell_angle_gamma                90
_cell_volume                     2657.61
_exptl_crystal_colour            colorless
_exptl_crystal_description       block
_cell_formula_units_Z            8
_chemical_properties_physical    air-sensitive
loop_
_atom_site_label
_atom_site_type_symbol
_atom_site_fract_x
_atom_site_fract_y
_atom_site_fract_z
P1 P 0.38384(2) 0.48873(9) 0.13969(3)
O1 O 0.39447(8) 0.25410(27) 0.11848(10)
O2 O 0.43993(7) 0.62212(24) 0.15628(8)
O3 O 0.31955(7) 0.57663(26) 0.08256(9)
N1 N 0.45388(9) 0.35215(32) 0.29148(11)
C1 C 0.38378(11) 0.66088(35) 0.26908(14)
C2 C 0.39037(9) 0.44859(32) 0.23362(12)
C3 C 0.33870(11) 0.29821(39) 0.22666(15)
C4 C 0.33014(10) 0.37961(38) 0.29063(13)
C5 C 0.29985(12) 0.27723(39) 0.32235(16)
C6 C 0.29656(14) 0.38938(40) 0.37960(18)
C7 C 0.32335(15) 0.59134(42) 0.40484(18)
C8 C 0.35348(13) 0.69210(40) 0.37318(16)
C9 C 0.35657(10) 0.58446(38) 0.31519(13)
H1 H 0.3649(13) 0.1863(46) 0.0945(16)
H2 H 0.4620(11) 0.2174(40) 0.2712(13)
H3 H 0.4867(12) 0.4496(41) 0.3029(14)
H4 H 0.4572(13) 0.3060(46) 0.3329(17)
H5 H 0.2799(12) 0.1149(46) 0.3048(15)
H6 H 0.2797(14) 0.3154(46) 0.4023(16)
H7 H 0.3283(14) 0.6635(45) 0.4500(17)
H8 H 0.3708(13) 0.8286(44) 0.3904(17)
H9 H 0.3537(11) 0.7459(37) 0.2251(13)
H10 H 0.4254(12) 0.7342(42) 0.3024(14)
H11 H 0.3526(12) 0.1329(42) 0.2333(15)
H12 H 0.2999(11) 0.3042(37) 0.1783(13)
O4 O 0.30435(10) -0.00633(34) 0.03300(15)
H13 H 0.2698(15) -0.0007(43) -0.0022(18)
H14 H 0.3156(16) -0.1327(48) 0.0485(19)
O5 O 0.43165(15) 0.85109(52) 0.02921(15)
H15 H 0.4695(16) 0.9251(50) 0.0637(19)
H16 H 0.4376(18) 0.7475(51) 0.0639(20)
O6 O 0.52090(20) 1.1937(50) 0.06837(15)
H17 H 0.4918(19) 1.3172(52) 0.0521(21)
H18 H 0.5321(20) 1.2054(55) 0.0336(22)
O7 O 0.5000 0.98429(35) 0.25000
H19 H 0.4730(13) 0.9025(44) 0.21123(15)
H19F H 0.5270(13) 0.9025(44) 0.28877(15)
loop_
_geom_bond_atom_site_label_1
_geom_bond_atom_site_label_2
_geom_bond_site_symmetry_1
_geom_bond_site_symmetry_2
P1 O1 1_555 1_555
O1 H1 1_555 1_555
O2 P1 1_555 1_555
O3 P1 1_555 1_555
O4 H13 1_555 1_555
O5 H15 1_555 1_555
O6 H17 1_555 1_555
O7 H19 1_555 1_555
N1 C2 1_555 1_555
C1 C2 1_555 1_555
C2 P1 1_555 1_555
C3 C2 1_555 1_555
C4 C3 1_555 1_555
C5 C4 1_555 1_555
C6 C5 1_555 1_555
C7 C6 1_555 1_555
C8 C7 1_555 1_555
C9 C1 1_555 1_555
H2 N1 1_555 1_555
H3 N1 1_555 1_555
H4 N1 1_555 1_555
H5 C5 1_555 1_555
H6 C6 1_555 1_555
H7 C7 1_555 1_555
H8 C8 1_555 1_555
H9 C1 1_555 1_555
H10 C1 1_555 1_555
H11 C3 1_555 1_555
H12 C3 1_555 1_555
H14 O4 1_555 1_555
H16 O5 1_555 1_555
H18 O6 1_555 1_555
H19F O7 1_555 1_555
C4 C9 1_555 1_555
C8 C9 1_555 1_555

#END
