
#######################################################################
#
#                 Cambridge Crystallographic Data Centre
#                                CCDC 
#
#######################################################################
#
# If this CIF has been generated from an entry in the Cambridge 
# Structural Database, then it will include bibliographic, chemical, 
# crystal, experimental, refinement or atomic coordinate data resulting 
# from the CCDC's data processing and validation procedures.
#
#######################################################################

data_GAFGOK
_chemical_formula_moiety         'C12 H34 N6 4+,4(Br1 1-),2(H2 O1)'
_chemical_name_systematic        
'1,4,10,13-Tetra-azonia-7,16-diazacyclo-octadecane tetrabromide dihydrate'
_symmetry_cell_setting           orthorhombic
_symmetry_space_group_name_H-M   'P n a 21'
_symmetry_Int_Tables_number      33
_space_group_name_Hall           'P 2c -2n'
loop_
_symmetry_equiv_pos_site_id
_symmetry_equiv_pos_as_xyz
1 x,y,z
2 -x,-y,1/2+z
3 1/2-x,1/2+y,1/2+z
4 1/2+x,1/2-y,z
_cell_length_a                   21.57820(10)
_cell_length_b                   6.2908(5)
_cell_length_c                   17.4204(6)
_cell_angle_alpha                90
_cell_angle_beta                 90
_cell_angle_gamma                90
_cell_volume                     2364.72
_cell_formula_units_Z            4
loop_
_atom_site_label
_atom_site_type_symbol
_atom_site_fract_x
_atom_site_fract_y
_atom_site_fract_z
Br1 Br 0.12964(4) 1.21404(14) 0.11948(6)
N1 N 0.0074(4) 0.8775(12) 0.1374(5)
H1 H 0.0104 0.9937 0.1693
H2 H 0.0343 0.8987 0.0972
C1 C 0.0856(5) 0.7080(15) 0.2240(6)
H3 H 0.0885 0.5922 0.2623
H4 H 0.0848 0.8446 0.2522
N2 N -0.0273(4) 1.0735(13) -0.0040(5)
C2 C 0.0277(5) 0.6848(17) 0.1809(6)
H5 H -0.0056 0.6448 0.2172
H6 H 0.0327 0.566 0.1441
N3 N 0.0835(4) 1.2314(12) -0.0649(5)
H7 H 0.0914 1.3414 -0.0315
H8 H 0.0806 1.1083 -0.0365
C3 C -0.0569(5) 0.8678(17) 0.1065(6)
H9 H -0.0616 0.7388 0.0745
H10 H -0.0867 0.8584 0.1495
N4 N 0.2164(4) 1.0498(12) -0.0319(5)
H11 H 0.1898 1.0365 0.0091
H12 H 0.2127 0.9289 -0.0613
C4 C -0.0709(5) 1.0590(18) 0.0595(6)
H13 H -0.1137 1.0497 0.0393
H14 H -0.0679 1.1881 0.0918
N5 N 0.2516(4) 0.8644(13) 0.1106(5)
C5 C -0.0296(6) 1.2697(16) -0.0467(7)
H15 H -0.025 1.3919 -0.0113
H16 H -0.07 1.2826 -0.0731
N6 N 0.1421(4) 0.7023(13) 0.1731(5)
H17 H 0.1432 0.8249 0.1443
H18 H 0.1385 0.5897 0.1398
C6 C 0.0222(5) 1.2713(16) -0.1048(6)
H19 H 0.0234 1.4106 -0.1312
H20 H 0.0148 1.1597 -0.1438
C7 C 0.1354(5) 1.2123(19) -0.1190(7)
H21 H 0.1318 1.3238 -0.1589
H22 H 0.1335 1.0722 -0.1448
C8 C 0.1972(5) 1.2346(16) -0.0783(6)
H23 H 0.2296 1.2622 -0.1173
H24 H 0.1953 1.3606 -0.0443
C9 C 0.2803(5) 1.0641(17) -0.0029(7)
H25 H 0.2853 1.1971 0.0268
H26 H 0.3095 1.069 -0.0468
C10 C 0.2961(5) 0.8745(17) 0.0480(7)
H27 H 0.2944 0.7416 0.0176
H28 H 0.3385 0.8902 0.0688
C11 C 0.2550(5) 0.6748(18) 0.1576(7)
H29 H 0.2954 0.6686 0.1843
H30 H 0.2509 0.5467 0.125
C12 C 0.2024(5) 0.6818(17) 0.2163(7)
H31 H 0.2024 0.5501 0.2474
H32 H 0.208 0.8045 0.2512
Br2 Br 0.09651(4) 0.72054(13) -0.01426(6)
Br3 Br -0.11063(5) 0.76468(17) -0.13343(6)
Br4 Br -0.14023(4) 1.37630(18) 0.22392(7)
O1 O -0.0106(3) 1.1362(12) 0.2597(4)
H33 H -0.043(5) 1.226(17) 0.234(8)
O2 O 0.2397(4) 0.7449(16) -0.1406(6)
loop_
_geom_bond_atom_site_label_1
_geom_bond_atom_site_label_2
_geom_bond_site_symmetry_1
_geom_bond_site_symmetry_2
N1 H1 1_555 1_555
H2 N1 1_555 1_555
C1 H3 1_555 1_555
H4 C1 1_555 1_555
N2 C4 1_555 1_555
C2 N1 1_555 1_555
H5 C2 1_555 1_555
H6 C2 1_555 1_555
N3 H7 1_555 1_555
H8 N3 1_555 1_555
C3 N1 1_555 1_555
H9 C3 1_555 1_555
H10 C3 1_555 1_555
N4 H11 1_555 1_555
H12 N4 1_555 1_555
C4 C3 1_555 1_555
H13 C4 1_555 1_555
H14 C4 1_555 1_555
N5 C10 1_555 1_555
C5 N2 1_555 1_555
H15 C5 1_555 1_555
H16 C5 1_555 1_555
N6 C1 1_555 1_555
H17 N6 1_555 1_555
H18 N6 1_555 1_555
C6 N3 1_555 1_555
H19 C6 1_555 1_555
H20 C6 1_555 1_555
C7 N3 1_555 1_555
H21 C7 1_555 1_555
H22 C7 1_555 1_555
C8 N4 1_555 1_555
H23 C8 1_555 1_555
H24 C8 1_555 1_555
C9 N4 1_555 1_555
H25 C9 1_555 1_555
H26 C9 1_555 1_555
C10 C9 1_555 1_555
H27 C10 1_555 1_555
H28 C10 1_555 1_555
C11 N5 1_555 1_555
H29 C11 1_555 1_555
H30 C11 1_555 1_555
C12 N6 1_555 1_555
H31 C12 1_555 1_555
H32 C12 1_555 1_555
O1 H33 1_555 1_555
C1 C2 1_555 1_555
C5 C6 1_555 1_555
C7 C8 1_555 1_555
C11 C12 1_555 1_555

#END
