
#######################################################################
#
#                 Cambridge Crystallographic Data Centre
#                                CCDC 
#
#######################################################################
#
# If this CIF has been generated from an entry in the Cambridge 
# Structural Database, then it will include bibliographic, chemical, 
# crystal, experimental, refinement or atomic coordinate data resulting 
# from the CCDC's data processing and validation procedures.
#
#######################################################################

data_GAFPOS
_chemical_formula_moiety         'C16 H24 O4'
_chemical_name_systematic        
(4aS,7aS,11aR,14aR)-2,3,4,4a,6,7,7a,9,10,11,11a,13,14,14a-Tetradecahydropyrano(3,2-b)pyrano(2',3':6,7)oxepino(2,3-f)oxepin
_symmetry_cell_setting           triclinic
_symmetry_space_group_name_H-M   'P -1'
_symmetry_Int_Tables_number      2
_space_group_name_Hall           '-P 1'
loop_
_symmetry_equiv_pos_site_id
_symmetry_equiv_pos_as_xyz
1 x,y,z
2 -x,-y,-z
_cell_length_a                   9.097(2)
_cell_length_b                   9.154(1)
_cell_length_c                   9.039(1)
_cell_angle_alpha                93.97(1)
_cell_angle_beta                 104.38(1)
_cell_angle_gamma                89.99(1)
_cell_volume                     727.268
_cell_formula_units_Z            2
loop_
_atom_site_label
_atom_site_type_symbol
_atom_site_fract_x
_atom_site_fract_y
_atom_site_fract_z
C1 C 0.33942 -0.00783 0.09826
C2 C 0.44787 0.05199 0.24757
C3 C 0.35650 0.12580 0.35236
C4 C 0.22893 0.02810 0.36769
C5 C 0.13213 -0.03047 0.21125
C6 C 0.01385 -0.14286 0.21968
C7 C -0.11082 -0.08310 0.29548
C8 C -0.05969 -0.04456 0.46538
O1 O 0.22652 -0.10119 0.12488
O2 O 0.13900 0.11665 0.44954
C8A C 0.05969 0.04456 0.53462
O2A O -0.13900 -0.11665 0.55046
C7A C 0.11082 0.08310 0.70452
C4A C -0.22893 -0.02810 0.63231
C6A C -0.01385 0.14286 0.78032
C3A C -0.35650 -0.12580 0.64764
C5A C -0.13213 0.03047 0.78875
C2A C -0.44787 -0.05199 0.75243
O1A O -0.22652 0.10119 0.87512
C1A C -0.33942 0.00783 0.90174
C9 C 0.83968 0.46768 0.09629
C10 C 0.94787 0.42226 0.24303
C11 C 0.85367 0.35731 0.34527
C12 C 0.72929 0.45826 0.36698
C13 C 0.63296 0.50258 0.21358
C14 C 0.51793 0.61797 0.22919
C15 C 0.39184 0.56345 0.30039
C16 C 0.44132 0.53992 0.46678
O3 O 0.72768 0.56607 0.12953
O4 O 0.63772 0.37870 0.44351
C16A C 0.55868 0.46008 0.53322
O4A O 0.36228 0.62130 0.55649
C15A C 0.60816 0.43655 0.69961
C12A C 0.27071 0.54174 0.63302
C14A C 0.48207 0.38203 0.77081
C11A C 0.14633 0.64269 0.65473
C13A C 0.36704 0.49742 0.78642
C10A C 0.05213 0.57774 0.75697
O3A O 0.27232 0.43393 0.87047
C9A C 0.16032 0.53232 0.90371
loop_
_geom_bond_atom_site_label_1
_geom_bond_atom_site_label_2
_geom_bond_site_symmetry_1
_geom_bond_site_symmetry_2
C1 C2 1_555 1_555
C2 C3 1_555 1_555
C3 C4 1_555 1_555
C4 C5 1_555 1_555
C5 C6 1_555 1_555
C6 C7 1_555 1_555
C7 C8 1_555 1_555
C8 C8A 1_555 1_555
O1 C1 1_555 1_555
O2 C4 1_555 1_555
C9 C10 1_555 1_555
C10 C11 1_555 1_555
C11 C12 1_555 1_555
C12 C13 1_555 1_555
C13 C14 1_555 1_555
C14 C15 1_555 1_555
C15 C16 1_555 1_555
C16 C16A 1_555 1_555
O3 C9 1_555 1_555
O4 C12 1_555 1_555
C8A O2 1_555 1_555
O2A C8 1_555 1_555
C7A C8A 1_555 1_555
C4A O2A 1_555 1_555
C6A C7A 1_555 1_555
C3A C4A 1_555 1_555
C5A C4A 1_555 1_555
C2A C3A 1_555 1_555
O1A C5A 1_555 1_555
C1A C2A 1_555 1_555
C16A O4 1_555 1_555
O4A C16 1_555 1_555
C15A C16A 1_555 1_555
C12A O4A 1_555 1_555
C14A C15A 1_555 1_555
C11A C12A 1_555 1_555
C13A C12A 1_555 1_555
C10A C11A 1_555 1_555
O3A C13A 1_555 1_555
C9A C10A 1_555 1_555
C5 O1 1_555 1_555
C13 O3 1_555 1_555
C6A C5A 1_555 1_555
O1A C1A 1_555 1_555
C14A C13A 1_555 1_555
O3A C9A 1_555 1_555

#END
