
#######################################################################
#
#                 Cambridge Crystallographic Data Centre
#                                CCDC 
#
#######################################################################
#
# If this CIF has been generated from an entry in the Cambridge 
# Structural Database, then it will include bibliographic, chemical, 
# crystal, experimental, refinement or atomic coordinate data resulting 
# from the CCDC's data processing and validation procedures.
#
#######################################################################

data_GAFPAH
_chemical_name_common            
2-(3-bromobenzylthio)-5-(1-(4-fluorobenzyl)-3-phenyl-1H-pyrazol-5-yl)-1,3,4-oxadiazole
_chemical_formula_moiety         'C25 H18 Br1 F1 N4 O1 S1'
_chemical_name_systematic        
2-((3-bromobenzyl)sulfanyl)-5-(1-(4-fluorobenzyl)-3-phenyl-1H-pyrazol-5-yl)-1,3,4-oxadiazole
_symmetry_cell_setting           monoclinic
_symmetry_space_group_name_H-M   'P 21/c'
_symmetry_Int_Tables_number      14
_space_group_name_Hall           '-P 2ybc'
loop_
_symmetry_equiv_pos_site_id
_symmetry_equiv_pos_as_xyz
1 x,y,z
2 -x,1/2+y,1/2-z
3 -x,-y,-z
4 x,1/2-y,1/2+z
_cell_length_a                   15.581(2)
_cell_length_b                   11.3153(16)
_cell_length_c                   13.0283(19)
_cell_angle_alpha                90
_cell_angle_beta                 91.138(3)
_cell_angle_gamma                90
_cell_volume                     2296.48
_exptl_crystal_colour            colorless
_exptl_crystal_description       block
_cell_formula_units_Z            4
_exptl_crystal_recrystallization_method Ethanol
loop_
_atom_site_label
_atom_site_type_symbol
_atom_site_fract_x
_atom_site_fract_y
_atom_site_fract_z
Br1 Br 0.54689(3) 0.10609(4) 0.77833(4)
C1 C 1.22108(18) 0.3000(3) 0.9910(2)
C2 C 1.2670(2) 0.2396(3) 1.0658(3)
H1 H 1.2385 0.2049 1.1201
C3 C 1.3551(3) 0.2304(4) 1.0602(4)
H2 H 1.3855 0.1903 1.1115
C4 C 1.3983(3) 0.2793(4) 0.9803(5)
H3 H 1.4576 0.2716 0.9768
C5 C 1.3540(3) 0.3390(4) 0.9064(4)
H4 H 1.3831 0.3730 0.8522
C6 C 1.2654(2) 0.3499(3) 0.9111(3)
H5 H 1.2356 0.3912 0.8599
C7 C 1.12699(18) 0.3108(2) 0.9949(2)
C8 C 1.07090(18) 0.3731(2) 0.9305(2)
H6 H 1.0849 0.4194 0.8743
C9 C 0.99051(17) 0.3516(2) 0.9675(2)
C10 C 0.90755(18) 0.3889(2) 0.9274(2)
C11 C 0.82213(18) 0.4742(2) 0.8232(2)
C12 C 0.93603(19) 0.2296(2) 1.1177(2)
H7 H 0.9564 0.1540 1.1435
H8 H 0.8838 0.2154 1.0780
C13 C 0.91571(17) 0.3079(2) 1.2071(2)
C14 C 0.97962(18) 0.3449(2) 1.2749(2)
H9 H 1.0363 0.3245 1.2625
C15 C 0.9616(2) 0.4111(3) 1.3603(2)
H10 H 1.0052 0.4355 1.4052
C16 C 0.8785(2) 0.4399(3) 1.3776(2)
C17 C 0.8131(2) 0.4075(3) 1.3121(3)
H11 H 0.7568 0.4294 1.3250
C18 C 0.83234(18) 0.3413(3) 1.2261(2)
H12 H 0.7885 0.3191 1.1805
C19 C 0.68009(18) 0.5344(3) 0.7137(3)
H13 H 0.6581 0.5418 0.7825
H14 H 0.6529 0.5948 0.6715
C20 C 0.65602(18) 0.4148(3) 0.6716(2)
C21 C 0.61706(17) 0.3310(3) 0.7329(2)
H15 H 0.6037 0.3490 0.8004
C22 C 0.59840(17) 0.2212(3) 0.6930(3)
C23 C 0.6182(2) 0.1926(3) 0.5931(3)
H16 H 0.6056 0.1179 0.5671
C24 C 0.6564(2) 0.2755(4) 0.5331(3)
H17 H 0.6703 0.2571 0.4659
C25 C 0.6746(2) 0.3861(3) 0.5715(3)
H18 H 0.6997 0.4423 0.5295
F1 F 0.85927(14) 0.49987(17) 1.46492(14)
N1 N 1.08400(15) 0.2538(2) 1.06897(18)
N2 N 1.00073(14) 0.27979(19) 1.05031(17)
N3 N 0.83184(15) 0.3668(2) 0.95954(19)
N4 N 0.77445(15) 0.4238(2) 0.8899(2)
O1 O 0.90758(11) 0.45639(16) 0.84055(14)
S1 S 0.79510(5) 0.56023(8) 0.71808(7)
loop_
_geom_bond_atom_site_label_1
_geom_bond_atom_site_label_2
_geom_bond_site_symmetry_1
_geom_bond_site_symmetry_2
Br1 C22 1_555 1_555
C1 C2 1_555 1_555
C2 H1 1_555 1_555
C3 C2 1_555 1_555
H2 C3 1_555 1_555
C4 C3 1_555 1_555
H3 C4 1_555 1_555
C5 C4 1_555 1_555
H4 C5 1_555 1_555
C6 C1 1_555 1_555
H5 C6 1_555 1_555
C7 C1 1_555 1_555
C8 C7 1_555 1_555
H6 C8 1_555 1_555
C9 C8 1_555 1_555
C10 C9 1_555 1_555
C11 N4 1_555 1_555
C12 H7 1_555 1_555
H8 C12 1_555 1_555
C13 C12 1_555 1_555
C14 C13 1_555 1_555
H9 C14 1_555 1_555
C15 C14 1_555 1_555
H10 C15 1_555 1_555
C16 C15 1_555 1_555
C17 C16 1_555 1_555
H11 C17 1_555 1_555
C18 C13 1_555 1_555
H12 C18 1_555 1_555
C19 H13 1_555 1_555
H14 C19 1_555 1_555
C20 C19 1_555 1_555
C21 C20 1_555 1_555
H15 C21 1_555 1_555
C22 C21 1_555 1_555
C23 C22 1_555 1_555
H16 C23 1_555 1_555
C24 C23 1_555 1_555
H17 C24 1_555 1_555
C25 C20 1_555 1_555
H18 C25 1_555 1_555
F1 C16 1_555 1_555
N1 C7 1_555 1_555
N2 C9 1_555 1_555
N3 C10 1_555 1_555
N4 N3 1_555 1_555
O1 C10 1_555 1_555
S1 C11 1_555 1_555
C5 C6 1_555 1_555
C11 O1 1_555 1_555
C12 N2 1_555 1_555
C17 C18 1_555 1_555
C19 S1 1_555 1_555
C24 C25 1_555 1_555
N1 N2 1_555 1_555

#END
