
#######################################################################
#
#                 Cambridge Crystallographic Data Centre
#                                CCDC 
#
#######################################################################
#
# If this CIF has been generated from an entry in the Cambridge 
# Structural Database, then it will include bibliographic, chemical, 
# crystal, experimental, refinement or atomic coordinate data resulting 
# from the CCDC's data processing and validation procedures.
#
#######################################################################

data_GAFRAJ
_chemical_formula_moiety         'C4 H3 N8 O2 1-,H5 N2 1+'
_chemical_name_systematic        
'hydrazinium 5-oxo-4-((5-oxo-1,5-dihydro-4H-1,2,4-triazol-4-yl)diazenyl)-4,5-dihydro-1,2,4-triazol-1-ide'
_symmetry_cell_setting           triclinic
_symmetry_space_group_name_H-M   'P -1'
_symmetry_Int_Tables_number      2
_space_group_name_Hall           '-P 1'
loop_
_symmetry_equiv_pos_site_id
_symmetry_equiv_pos_as_xyz
1 x,y,z
2 -x,-y,-z
_cell_length_a                   7.7212(5)
_cell_length_b                   8.2866(5)
_cell_length_c                   8.3755(5)
_cell_angle_alpha                62.6840(10)
_cell_angle_beta                 71.5710(10)
_cell_angle_gamma                83.2530(10)
_cell_volume                     451.469
_exptl_crystal_colour            colorless
_exptl_crystal_description       block
_cell_formula_units_Z            2
loop_
_atom_site_label
_atom_site_type_symbol
_atom_site_fract_x
_atom_site_fract_y
_atom_site_fract_z
C1 C 0.54217(19) -0.19213(19) 1.2189(2)
C2 C 0.6706(2) -0.2616(2) 0.9793(2)
H1 H 0.7438 -0.2569 0.8651
C3 C 1.1295(2) 0.2619(2) 0.5627(2)
C4 C 0.9815(2) 0.3284(2) 0.8032(2)
H2 H 0.9000 0.3200 0.9158
H3 H 1.290(3) 0.494(3) 0.443(3)
N1 N 0.46964(18) -0.34814(17) 1.25767(18)
N2 N 0.55204(19) -0.38951(17) 1.10598(19)
N3 N 0.67136(16) -0.13342(16) 1.04041(17)
N4 N 0.77501(17) 0.02260(16) 0.96244(17)
N5 N 0.88656(17) 0.04795(16) 0.80713(18)
N6 N 0.98840(16) 0.20533(16) 0.73339(17)
N7 N 1.10280(18) 0.45612(17) 0.69137(19)
N8 N 1.19258(18) 0.41670(17) 0.54275(19)
O1 O 0.50892(16) -0.10492(15) 1.31378(15)
O2 O 1.17997(16) 0.18472(16) 0.46235(16)
H4 H 0.814(3) 0.130(4) 0.360(4)
H5 H 0.820(4) 0.299(4) 0.303(4)
N9 N 0.8001(2) 0.2253(2) 0.2561(2)
N10 N 0.6043(2) 0.22069(19) 0.3009(2)
H6 H 0.5543 0.1981 0.4208
H7 H 0.5694 0.1336 0.2823
H8 H 0.5680 0.3275 0.2272
loop_
_geom_bond_atom_site_label_1
_geom_bond_atom_site_label_2
_geom_bond_site_symmetry_1
_geom_bond_site_symmetry_2
C1 N1 1_555 1_555
C2 H1 1_555 1_555
C3 N6 1_555 1_555
C4 H2 1_555 1_555
H3 N8 1_555 1_555
N1 N2 1_555 1_555
N2 C2 1_555 1_555
N3 C1 1_555 1_555
N4 N3 1_555 1_555
N5 N4 1_555 1_555
N6 C4 1_555 1_555
N7 C4 1_555 1_555
N8 C3 1_555 1_555
O1 C1 1_555 1_555
O2 C3 1_555 1_555
H4 N9 1_555 1_555
H5 N9 1_555 1_555
N9 N10 1_555 1_555
N10 H6 1_555 1_555
H7 N10 1_555 1_555
H8 N10 1_555 1_555
C2 N3 1_555 1_555
N5 N6 1_555 1_555
N7 N8 1_555 1_555

#END
