
#######################################################################
#
#                 Cambridge Crystallographic Data Centre
#                                CCDC 
#
#######################################################################
#
# If this CIF has been generated from an entry in the Cambridge 
# Structural Database, then it will include bibliographic, chemical, 
# crystal, experimental, refinement or atomic coordinate data resulting 
# from the CCDC's data processing and validation procedures.
#
#######################################################################

data_GAFWIV
_chemical_formula_moiety         'C15 H8 N4 O4 2-,2(H4 N1 1+)'
_chemical_name_systematic        'Diammonium tetrazole-2,5-dibenzoate'
_symmetry_cell_setting           monoclinic
_symmetry_space_group_name_H-M   'C c'
_symmetry_Int_Tables_number      9
_space_group_name_Hall           'C -2yc'
loop_
_symmetry_equiv_pos_site_id
_symmetry_equiv_pos_as_xyz
1 x,y,z
2 x,-y,1/2+z
3 1/2+x,1/2+y,z
4 1/2+x,1/2-y,1/2+z
_cell_length_a                   35.228(9)
_cell_length_b                   3.8237(10)
_cell_length_c                   11.805(3)
_cell_angle_alpha                90
_cell_angle_beta                 99.783(3)
_cell_angle_gamma                90
_cell_volume                     1567.03
_exptl_crystal_colour            colorless
_exptl_crystal_description       Needle
_cell_formula_units_Z            4
loop_
_atom_site_label
_atom_site_type_symbol
_atom_site_fract_x
_atom_site_fract_y
_atom_site_fract_z
O1 O -0.2288(2) -0.449(2) -0.8733(4)
O2 O -0.24584(17) -0.5409(18) -1.0610(3)
O3 O 0.16430(16) 0.5347(10) -0.8595(5)
O4 O 0.14627(13) 0.4640(12) -0.6878(4)
C1 C -0.22120(10) -0.4584(13) -0.9748(3)
C2 C -0.18170(11) -0.3608(11) -0.9947(3)
C3 C -0.17037(11) -0.4094(11) -1.1013(3)
H1 H -0.1881 -0.5047 -1.1633
C4 C -0.13361(11) -0.3203(11) -1.1179(3)
H2 H -0.1261 -0.3533 -1.1908
C5 C -0.10773(11) -0.1822(10) -1.0268(3)
C6 C -0.11820(11) -0.1321(11) -0.9191(3)
H3 H -0.1004 -0.0385 -0.8570
C7 C -0.15513(11) -0.2219(11) -0.9049(3)
H4 H -0.1626 -0.1882 -0.8320
N1 N -0.06937(11) -0.0832(10) -1.0434(3)
N2 N -0.05864(13) -0.0616(19) -1.1480(4)
N3 N -0.02265(12) 0.0324(12) -1.1305(3)
C8 C -0.01258(11) 0.0759(10) -1.0155(3)
N4 N -0.04129(13) -0.0060(13) -0.9592(3)
C9 C 0.13944(12) 0.4594(13) -0.7962(5)
C10 C 0.09985(11) 0.3597(11) -0.8544(4)
C11 C 0.07313(11) 0.2278(10) -0.7900(3)
H5 H 0.0804 0.2012 -0.7093
C12 C 0.03634(11) 0.1356(11) -0.8418(3)
H6 H 0.0185 0.0461 -0.7972
C13 C 0.02569(11) 0.1753(11) -0.9602(3)
C14 C 0.05192(11) 0.3090(10) -1.0261(3)
H7 H 0.0445 0.3371 -1.1068
C15 C 0.08850(11) 0.3993(11) -0.9729(3)
H8 H 0.1072 0.4918 -1.0202
N5 N -0.26016(10) 0.0422(10) -0.7473(4)
H9 H -0.2603 -0.0292 -0.6801
H10 H -0.2820 -0.0010 -0.7854
H11 H -0.2509 0.2452 -0.7415
H12 H -0.2444 -0.0839 -0.7745
N6 N -0.32195(11) -0.5184(11) -0.5263(4)
H13 H -0.2989 -0.4992 -0.5373
H14 H -0.3331 -0.3913 -0.4836
H15 H -0.3353 -0.4938 -0.5926
H16 H -0.3250 -0.7365 -0.5057
H17? H 0.1063 0.4898 -1.0176
C16? C -0.2239(8) 0.449(8) -1.002(4)
O5? O -0.226(2) 0.50(2) -0.895(4)
O6? O -0.2491(18) 0.486(16) -1.089(3)
C17? C 0.1397(8) -0.456(8) -0.800(4)
O7? O 0.1638(15) -0.576(11) -0.859(5)
O8? O 0.1513(13) -0.423(12) -0.693(4)
N7? N -0.0733(8) 0.085(8) -1.049(3)
N8? N -0.0637(9) -0.030(13) -1.155(2)
N9? N -0.0241(9) -0.123(11) -1.136(3)
C18? C -0.0093(8) -0.067(8) -1.018(3)
N10? N -0.0397(10) 0.061(11) -0.964(2)
C19? C -0.1824(6) 0.346(6) -1.001(2)
C20? C -0.1718(6) 0.376(6) -1.1086(18)
H18? H -0.1899 0.4557 -1.1722
C21? C -0.1346(7) 0.289(6) -1.1231(18)
H19? H -0.1273 0.3093 -1.1968
C22? C -0.1081(6) 0.172(6) -1.030(2)
C23? C -0.1187(7) 0.142(5) -0.9223(19)
H20? H -0.1006 0.0626 -0.8587
C24? C -0.1559(7) 0.229(6) -0.9078(18)
H21? H -0.1632 0.2091 -0.8341
C25? C 0.0999(6) -0.361(6) -0.8593(19)
C26? C 0.0735(7) -0.226(5) -0.7958(17)
H22? H 0.0809 -0.1877 -0.7156
C27? C 0.0363(6) -0.146(5) -0.8497(19)
H23? H 0.0183 -0.0539 -0.8063
C28? C 0.0255(6) -0.202(5) -0.9672(19)
C29? C 0.0520(7) -0.337(6) -1.0307(17)
H24? H 0.0446 -0.3744 -1.1110
C30? C 0.0892(7) -0.416(6) -0.9768(19)
loop_
_geom_bond_atom_site_label_1
_geom_bond_atom_site_label_2
_geom_bond_site_symmetry_1
_geom_bond_site_symmetry_2
O1 C1 1_555 1_555
O2 C1 1_555 1_555
O3 C9 1_555 1_555
O4 C9 1_555 1_555
C1 C2 1_555 1_555
C2 C3 1_555 1_555
C3 H1 1_555 1_555
C4 C3 1_555 1_555
H2 C4 1_555 1_555
C5 C4 1_555 1_555
C6 C5 1_555 1_555
H3 C6 1_555 1_555
C7 C2 1_555 1_555
H4 C7 1_555 1_555
N1 C5 1_555 1_555
N2 N1 1_555 1_555
N3 N2 1_555 1_555
C8 N3 1_555 1_555
N4 N1 1_555 1_555
C9 C10 1_555 1_555
C10 C11 1_555 1_555
C11 H5 1_555 1_555
C12 C11 1_555 1_555
H6 C12 1_555 1_555
C13 C8 1_555 1_555
C14 C13 1_555 1_555
H7 C14 1_555 1_555
C15 C10 1_555 1_555
H8 C15 1_555 1_555
N5 H9 1_555 1_555
H10 N5 1_555 1_555
H11 N5 1_555 1_555
H12 N5 1_555 1_555
N6 H13 1_555 1_555
H14 N6 1_555 1_555
H15 N6 1_555 1_555
H16 N6 1_555 1_555
C6 C7 1_555 1_555
C8 N4 1_555 1_555
C12 C13 1_555 1_555
C14 C15 1_555 1_555

#END
