
#######################################################################
#
#                 Cambridge Crystallographic Data Centre
#                                CCDC 
#
#######################################################################
#
# If this CIF has been generated from an entry in the Cambridge 
# Structural Database, then it will include bibliographic, chemical, 
# crystal, experimental, refinement or atomic coordinate data resulting 
# from the CCDC's data processing and validation procedures.
#
#######################################################################

data_GAFWAN
_chemical_name_common            
'2,3-dihydroxyl-glycyrrhetinic acid methyl ester'
_chemical_formula_moiety         'C31 H48 O5'
_chemical_name_systematic        
'Methyl 2,3-dihydroxy-11-oxoolean-12-en-29-oate'
_symmetry_cell_setting           orthorhombic
_symmetry_space_group_name_H-M   'P 21 21 21'
_symmetry_Int_Tables_number      19
_space_group_name_Hall           'P 2ac 2ab'
loop_
_symmetry_equiv_pos_site_id
_symmetry_equiv_pos_as_xyz
1 x,y,z
2 1/2-x,-y,1/2+z
3 -x,1/2+y,1/2-z
4 1/2+x,1/2-y,-z
_cell_length_a                   7.0988(13)
_cell_length_b                   16.187(3)
_cell_length_c                   49.211(9)
_cell_angle_alpha                90
_cell_angle_beta                 90
_cell_angle_gamma                90
_cell_volume                     5654.75
_exptl_crystal_colour            colorless
_exptl_crystal_description       prism
_chemical_melting_point          '277-280 deg.C'
_cell_formula_units_Z            8
loop_
_atom_site_label
_atom_site_type_symbol
_atom_site_fract_x
_atom_site_fract_y
_atom_site_fract_z
O1 O 0.2045(7) 0.5899(2) 0.76916(8)
H1 H 0.2903 0.6046 0.7591
O2 O 0.3747(8) 0.4777(2) 0.73747(8)
H2 H 0.4070 0.4399 0.7274
O3 O 0.5533(6) 0.2213(2) 0.78422(11)
O4 O 0.5354(7) -0.1582(3) 0.79592(9)
O5 O 0.3987(6) -0.2713(2) 0.81213(10)
C1 C 0.1018(9) 0.4885(3) 0.80229(11)
C2 C 0.2493(9) 0.5107(3) 0.78066(11)
H5 H 0.3724 0.5148 0.7896
C3 C 0.2615(9) 0.4453(3) 0.75912(11)
H6 H 0.1349 0.4332 0.7523
C4 C 0.3483(9) 0.3666(3) 0.77068(10)
H7 H 0.4844 0.3722 0.7705
H8 H 0.3157 0.3207 0.7589
C5 C 0.2843(8) 0.3454(3) 0.80028(10)
C6 C 0.0969(8) 0.3917(3) 0.80552(10)
H9 H 0.0118 0.3725 0.7912
C7 C 0.0025(9) 0.3641(3) 0.83223(11)
H10 H -0.1132 0.3950 0.8349
H11 H 0.0856 0.3760 0.8474
C8 C -0.0423(8) 0.2707(3) 0.83168(11)
H12 H -0.0999 0.2551 0.8488
H13 H -0.1327 0.2599 0.8173
C9 C 0.1335(8) 0.2169(3) 0.82699(10)
C10 C 0.2442(8) 0.2499(3) 0.80182(10)
H14 H 0.1594 0.2395 0.7865
C11 C 0.4132(8) 0.1952(3) 0.79613(12)
C12 C 0.4044(8) 0.1084(3) 0.80464(11)
H15 H 0.5106 0.0758 0.8018
C13 C 0.2543(8) 0.0730(3) 0.81614(10)
C14 C 0.0760(8) 0.1231(3) 0.82095(10)
C15 C -0.0467(10) 0.0878(3) 0.84465(12)
H16 H -0.0002 0.1099 0.8617
H17 H -0.1753 0.1069 0.8424
C16 C -0.0476(10) -0.0071(3) 0.84637(14)
H18 H -0.1186 -0.0238 0.8623
H19 H -0.1112 -0.0291 0.8305
C17 C 0.1499(10) -0.0440(3) 0.84800(12)
C18 C 0.2603(8) -0.0201(3) 0.82188(10)
H20 H 0.3925 -0.0349 0.8249
C19 C 0.1938(8) -0.0681(3) 0.79650(10)
H21 H 0.0673 -0.0503 0.7919
H22 H 0.2753 -0.0544 0.7813
C20 C 0.1937(9) -0.1624(3) 0.80036(13)
C21 C 0.0742(10) -0.1836(3) 0.82542(13)
H23 H -0.0559 -0.1683 0.8221
H24 H 0.0786 -0.2427 0.8286
C22 C 0.1455(12) -0.1388(3) 0.85009(12)
H25 H 0.2721 -0.1581 0.8539
H26 H 0.0670 -0.1539 0.8654
C23 C -0.0958(9) 0.5167(4) 0.79277(14)
H27 H -0.0967 0.5756 0.7905
H28 H -0.1878 0.5012 0.8061
H29 H -0.1254 0.4907 0.7758
C24 C 0.1486(11) 0.5352(3) 0.82886(11)
H30 H 0.1521 0.5935 0.8253
H31 H 0.2691 0.5174 0.8355
H32 H 0.0536 0.5236 0.8422
C25 C 0.4433(9) 0.3722(4) 0.82062(12)
H33 H 0.5571 0.3427 0.8165
H34 H 0.4047 0.3598 0.8389
H35 H 0.4654 0.4305 0.8189
C26 C 0.2574(10) 0.2200(3) 0.85292(10)
H36 H 0.2935 0.2761 0.8565
H37 H 0.3682 0.1870 0.8502
H38 H 0.1873 0.1989 0.8681
C27 C -0.0415(8) 0.1144(3) 0.79429(11)
H39 H -0.0743 0.0575 0.7916
H40 H 0.0318 0.1336 0.7792
H41 H -0.1542 0.1469 0.7957
C28 C 0.2579(13) -0.0112(4) 0.87289(11)
H42 H 0.2635 0.0480 0.8721
H43 H 0.3835 -0.0332 0.8729
H44 H 0.1942 -0.0279 0.8892
C29 C 0.3946(10) -0.1938(3) 0.80279(12)
C30 C 0.1124(11) -0.2037(3) 0.77441(13)
H45 H 0.1892 -0.1895 0.7591
H46 H -0.0139 -0.1845 0.7714
H47 H 0.1115 -0.2626 0.7767
C31 C 0.5760(10) -0.3137(4) 0.80998(17)
H48 H 0.5634 -0.3686 0.8172
H49 H 0.6701 -0.2842 0.8201
H50 H 0.6129 -0.3167 0.7912
O6 O 0.6579(7) 0.0627(2) 0.96395(10)
H3 H 0.7334 0.0411 0.9744
O7 O 0.8384(7) 0.1651(2) 1.00161(9)
H4 H 0.7734 0.1291 1.0086
O8 O 1.0719(6) 0.4256(2) 0.96364(9)
O9 O 1.0820(8) 0.8068(3) 0.96436(13)
O10 O 0.9578(7) 0.9310(3) 0.96288(13)
C32 C 0.6007(9) 0.1763(3) 0.93270(12)
C33 C 0.7277(10) 0.1418(3) 0.95563(12)
H51 H 0.8550 0.1344 0.9483
C34 C 0.7380(9) 0.2009(3) 0.97901(11)
H52 H 0.6099 0.2149 0.9848
C35 C 0.8409(9) 0.2796(3) 0.97131(10)
H53 H 0.9754 0.2697 0.9725
H54 H 0.8096 0.3222 0.9844
C36 C 0.7941(8) 0.3125(3) 0.94212(10)
C37 C 0.6043(8) 0.2727(3) 0.93351(10)
H55 H 0.5140 0.2884 0.9477
C38 C 0.5282(9) 0.3114(3) 0.90701(11)
H56 H 0.6189 0.3032 0.8925
H57 H 0.4120 0.2840 0.9019
C39 C 0.4917(9) 0.4039(3) 0.91070(12)
H58 H 0.3949 0.4112 0.9244
H59 H 0.4439 0.4263 0.8938
C40 C 0.6670(8) 0.4528(3) 0.91913(10)
C41 C 0.7627(8) 0.4084(3) 0.94376(9)
H60 H 0.6726 0.4154 0.9587
C42 C 0.9340(8) 0.4577(3) 0.95272(11)
C43 C 0.9307(8) 0.5471(3) 0.94850(11)
H61 H 1.0345 0.5771 0.9544
C44 C 0.7913(9) 0.5888(3) 0.93684(10)
C45 C 0.6125(8) 0.5439(3) 0.92794(10)
C46 C 0.5084(11) 0.5905(3) 0.90452(12)
H62 H 0.5629 0.5736 0.8873
H63 H 0.3773 0.5737 0.9045
C47 C 0.5172(12) 0.6850(4) 0.90646(14)
H64 H 0.4598 0.7085 0.8903
H65 H 0.4438 0.7028 0.9220
C48 C 0.7173(11) 0.7189(3) 0.90922(12)
C49 C 0.8077(10) 0.6834(3) 0.93530(11)
H66 H 0.9424 0.6964 0.9344
C50 C 0.7313(10) 0.7240(3) 0.96119(11)
H67 H 0.8013 0.7027 0.9766
H68 H 0.6009 0.7075 0.9635
C51 C 0.7410(10) 0.8193(3) 0.96182(14)
C52 C 0.6366(11) 0.8514(4) 0.93642(13)
H69 H 0.5043 0.8370 0.9377
H70 H 0.6462 0.9111 0.9357
C53 C 0.7194(13) 0.8145(3) 0.91044(13)
H71 H 0.8485 0.8333 0.9086
H72 H 0.6493 0.8357 0.8950
C54 C 0.3937(8) 0.1502(4) 0.93803(14)
H73 H 0.3516 0.1738 0.9549
H74 H 0.3861 0.0911 0.9391
H75 H 0.3154 0.1697 0.9235
C55 C 0.6626(11) 0.1368(4) 0.90581(12)
H76 H 0.7905 0.1521 0.9020
H77 H 0.5823 0.1558 0.8914
H78 H 0.6538 0.0778 0.9072
C56 C 0.9604(8) 0.2892(3) 0.92325(12)
H79 H 0.9750 0.2303 0.9230
H80 H 1.0740 0.3142 0.9299
H81 H 0.9353 0.3088 0.9052
C57 C 0.8061(10) 0.4559(4) 0.89452(11)
H82 H 0.8401 0.4007 0.8894
H83 H 0.9172 0.4859 0.8996
H84 H 0.7463 0.4830 0.8795
C58 C 0.4777(8) 0.5450(4) 0.95311(12)
H85 H 0.4468 0.6011 0.9576
H86 H 0.5391 0.5193 0.9683
H87 H 0.3644 0.5153 0.9489
C59 C 0.8391(13) 0.6927(4) 0.88455(12)
H88 H 0.9641 0.7144 0.8866
H89 H 0.7839 0.7138 0.8682
H90 H 0.8446 0.6335 0.8836
C60 C 0.9418(11) 0.8484(4) 0.96272(15)
C61 C 0.6412(11) 0.8509(4) 0.98734(14)
H91 H 0.5122 0.8331 0.9871
H92 H 0.6461 0.9101 0.9877
H93 H 0.7028 0.8292 1.0032
C62 C 1.1447(11) 0.9677(5) 0.9648(2)
H94 H 1.1338 1.0268 0.9646
H95 H 1.2195 0.9501 0.9496
H96 H 1.2038 0.9504 0.9814
loop_
_geom_bond_atom_site_label_1
_geom_bond_atom_site_label_2
_geom_bond_site_symmetry_1
_geom_bond_site_symmetry_2
O1 H1 1_555 1_555
O2 H2 1_555 1_555
O3 C11 1_555 1_555
O4 C29 1_555 1_555
O5 C29 1_555 1_555
O6 H3 1_555 1_555
O7 H4 1_555 1_555
O8 C42 1_555 1_555
O9 C60 1_555 1_555
O10 C60 1_555 1_555
C1 C2 1_555 1_555
C2 O1 1_555 1_555
H5 C2 1_555 1_555
C3 O2 1_555 1_555
H6 C3 1_555 1_555
C4 C3 1_555 1_555
H7 C4 1_555 1_555
H8 C4 1_555 1_555
C5 C4 1_555 1_555
C6 C1 1_555 1_555
H9 C6 1_555 1_555
C7 C6 1_555 1_555
H10 C7 1_555 1_555
H11 C7 1_555 1_555
C8 C7 1_555 1_555
H12 C8 1_555 1_555
H13 C8 1_555 1_555
C9 C8 1_555 1_555
C10 C5 1_555 1_555
H14 C10 1_555 1_555
C11 C10 1_555 1_555
C12 C11 1_555 1_555
H15 C12 1_555 1_555
C13 C12 1_555 1_555
C14 C9 1_555 1_555
C15 C14 1_555 1_555
H16 C15 1_555 1_555
H17 C15 1_555 1_555
C16 C15 1_555 1_555
H18 C16 1_555 1_555
H19 C16 1_555 1_555
C17 C16 1_555 1_555
C18 C13 1_555 1_555
H20 C18 1_555 1_555
C19 C18 1_555 1_555
H21 C19 1_555 1_555
H22 C19 1_555 1_555
C20 C19 1_555 1_555
C21 C20 1_555 1_555
H23 C21 1_555 1_555
H24 C21 1_555 1_555
C22 C17 1_555 1_555
H25 C22 1_555 1_555
H26 C22 1_555 1_555
C23 C1 1_555 1_555
H27 C23 1_555 1_555
H28 C23 1_555 1_555
H29 C23 1_555 1_555
C24 C1 1_555 1_555
H30 C24 1_555 1_555
H31 C24 1_555 1_555
H32 C24 1_555 1_555
C25 C5 1_555 1_555
H33 C25 1_555 1_555
H34 C25 1_555 1_555
H35 C25 1_555 1_555
C26 C9 1_555 1_555
H36 C26 1_555 1_555
H37 C26 1_555 1_555
H38 C26 1_555 1_555
C27 C14 1_555 1_555
H39 C27 1_555 1_555
H40 C27 1_555 1_555
H41 C27 1_555 1_555
C28 C17 1_555 1_555
H42 C28 1_555 1_555
H43 C28 1_555 1_555
H44 C28 1_555 1_555
C29 C20 1_555 1_555
C30 C20 1_555 1_555
H45 C30 1_555 1_555
H46 C30 1_555 1_555
H47 C30 1_555 1_555
C31 O5 1_555 1_555
H48 C31 1_555 1_555
H49 C31 1_555 1_555
H50 C31 1_555 1_555
C32 C33 1_555 1_555
C33 O6 1_555 1_555
H51 C33 1_555 1_555
C34 O7 1_555 1_555
H52 C34 1_555 1_555
C35 C34 1_555 1_555
H53 C35 1_555 1_555
H54 C35 1_555 1_555
C36 C35 1_555 1_555
C37 C32 1_555 1_555
H55 C37 1_555 1_555
C38 C37 1_555 1_555
H56 C38 1_555 1_555
H57 C38 1_555 1_555
C39 C38 1_555 1_555
H58 C39 1_555 1_555
H59 C39 1_555 1_555
C40 C39 1_555 1_555
C41 C36 1_555 1_555
H60 C41 1_555 1_555
C42 C41 1_555 1_555
C43 C42 1_555 1_555
H61 C43 1_555 1_555
C44 C43 1_555 1_555
C45 C40 1_555 1_555
C46 C45 1_555 1_555
H62 C46 1_555 1_555
H63 C46 1_555 1_555
C47 C46 1_555 1_555
H64 C47 1_555 1_555
H65 C47 1_555 1_555
C48 C47 1_555 1_555
C49 C44 1_555 1_555
H66 C49 1_555 1_555
C50 C49 1_555 1_555
H67 C50 1_555 1_555
H68 C50 1_555 1_555
C51 C50 1_555 1_555
C52 C51 1_555 1_555
H69 C52 1_555 1_555
H70 C52 1_555 1_555
C53 C48 1_555 1_555
H71 C53 1_555 1_555
H72 C53 1_555 1_555
C54 C32 1_555 1_555
H73 C54 1_555 1_555
H74 C54 1_555 1_555
H75 C54 1_555 1_555
C55 C32 1_555 1_555
H76 C55 1_555 1_555
H77 C55 1_555 1_555
H78 C55 1_555 1_555
C56 C36 1_555 1_555
H79 C56 1_555 1_555
H80 C56 1_555 1_555
H81 C56 1_555 1_555
C57 C40 1_555 1_555
H82 C57 1_555 1_555
H83 C57 1_555 1_555
H84 C57 1_555 1_555
C58 C45 1_555 1_555
H85 C58 1_555 1_555
H86 C58 1_555 1_555
H87 C58 1_555 1_555
C59 C48 1_555 1_555
H88 C59 1_555 1_555
H89 C59 1_555 1_555
H90 C59 1_555 1_555
C60 C51 1_555 1_555
C61 C51 1_555 1_555
H91 C61 1_555 1_555
H92 C61 1_555 1_555
H93 C61 1_555 1_555
C62 O10 1_555 1_555
H94 C62 1_555 1_555
H95 C62 1_555 1_555
H96 C62 1_555 1_555
C2 C3 1_555 1_555
C5 C6 1_555 1_555
C9 C10 1_555 1_555
C13 C14 1_555 1_555
C17 C18 1_555 1_555
C21 C22 1_555 1_555
C33 C34 1_555 1_555
C36 C37 1_555 1_555
C40 C41 1_555 1_555
C44 C45 1_555 1_555
C48 C49 1_555 1_555
C52 C53 1_555 1_555

#END
