
#######################################################################
#
#                 Cambridge Crystallographic Data Centre
#                                CCDC 
#
#######################################################################
#
# If this CIF has been generated from an entry in the Cambridge 
# Structural Database, then it will include bibliographic, chemical, 
# crystal, experimental, refinement or atomic coordinate data resulting 
# from the CCDC's data processing and validation procedures.
#
#######################################################################

data_GAFYUH
_chemical_formula_moiety         'C31 H58 O5'
_chemical_name_systematic        '9,11-Dihexyl-10-oxononadecanedioic acid'
_symmetry_cell_setting           triclinic
_symmetry_space_group_name_H-M   'P -1'
_symmetry_Int_Tables_number      2
_space_group_name_Hall           '-P 1'
loop_
_symmetry_equiv_pos_site_id
_symmetry_equiv_pos_as_xyz
1 x,y,z
2 -x,-y,-z
_cell_length_a                   8.627(3)
_cell_length_b                   36.350(13)
_cell_length_c                   5.332(2)
_cell_angle_alpha                90.98(3)
_cell_angle_beta                 104.65(4)
_cell_angle_gamma                85.36(4)
_cell_volume                     1612.4
_cell_formula_units_Z            2
loop_
_atom_site_label
_atom_site_type_symbol
_atom_site_fract_x
_atom_site_fract_y
_atom_site_fract_z
C1 C 0.3926(8) 0.45712(20) -0.4422(11)
C2 C 0.2962(8) 0.42701(20) -0.4097(11)
C3 C 0.3687(8) 0.40140(20) -0.1836(11)
C4 C 0.2627(8) 0.37210(21) -0.1513(11)
C5 C 0.3414(8) 0.34491(20) 0.0600(12)
C6 C 0.2427(8) 0.31406(21) 0.0968(12)
C7 C 0.3342(8) 0.28787(20) 0.3153(12)
C8 C 0.2576(8) 0.25310(22) 0.3524(12)
C9 C 0.3613(8) 0.23031(19) 0.5856(11)
C10 C 0.2855(8) 0.19668(22) 0.6505(12)
C11 C 0.2642(9) 0.16562(23) 0.4562(14)
C12 C 0.2049(9) 0.13177(25) 0.5453(16)
C13 C 0.2000(10) 0.09866(28) 0.3711(18)
C14 C 0.1470(12) 0.06398(32) 0.4713(22)
C15 C 0.1403(18) 0.03281(38) 0.2914(30)
O1 O 0.5118(6) 0.46620(15) -0.2849(9)
O2 O 0.3345(6) 0.47566(15) -0.6607(8)
C16 C 0.5270(8) 0.21919(19) 0.5575(11)
O3 O 0.5504(5) 0.21093(13) 0.3421(7)
C17 C 0.8916(8) 0.46623(18) 0.1628(11)
C18 C 0.8116(8) 0.44243(19) 0.3026(10)
C19 C 0.8472(8) 0.40167(20) 0.2856(11)
C20 C 0.7877(8) 0.37975(20) 0.4760(11)
C21 C 0.8210(8) 0.33868(20) 0.4690(10)
C22 C 0.7663(8) 0.31820(20) 0.6722(11)
C23 C 0.7802(8) 0.27688(20) 0.6564(11)
C24 C 0.7113(8) 0.25866(20) 0.8537(11)
C25 C 0.6672(7) 0.21827(19) 0.7951(10)
C26 C 0.8073(8) 0.19222(20) 0.7756(12)
C27 C 0.7732(9) 0.15173(22) 0.7540(13)
C28 C 0.7285(10) 0.13603(24) 0.9807(14)
C29 C 0.6957(11) 0.09493(26) 0.9463(16)
C30 C 0.6424(13) 0.07964(29) 1.1581(20)
C31 C 0.6114(16) 0.04004(37) 1.1300(27)
O4 O 0.9732(5) 0.45400(13) 0.0156(7)
O5 O 0.8687(6) 0.50106(13) 0.1998(8)
H1 H 0.277 0.4111 -0.580
H2 H 0.186 0.4388 -0.386
H3 H 0.393 0.4172 -0.014
H4 H 0.476 0.3885 -0.211
H5 H 0.230 0.3577 -0.327
H6 H 0.159 0.3849 -0.108
H7 H 0.371 0.3595 0.235
H8 H 0.447 0.3330 0.018
H9 H 0.213 0.2990 -0.076
H10 H 0.137 0.3254 0.142
H11 H 0.351 0.3028 0.489
H12 H 0.446 0.2799 0.279
H13 H 0.245 0.2370 0.184
H14 H 0.144 0.2603 0.385
H15 H 0.369 0.2486 0.742
H16 H 0.171 0.2056 0.674
H17 H 0.358 0.1859 0.827
H18 H 0.376 0.1582 0.416
H19 H 0.181 0.1753 0.286
H20 H 0.088 0.1386 0.564
H21 H 0.280 0.1242 0.727
H22 H 0.316 0.0925 0.345
H23 H 0.120 0.1057 0.192
H24 H 0.032 0.0700 0.502
H25 H 0.229 0.0563 0.648
H26 H 0.103 0.0099 0.371
H27 H 0.058 0.0400 0.114
H28 H 0.255 0.0262 0.260
H29 H 0.390 0.4966 -0.680
H30 H 0.687 0.4481 0.230
H31 H 0.845 0.4496 0.499
H32 H 0.972 0.3961 0.322
H33 H 0.792 0.3931 0.097
H34 H 0.663 0.3855 0.438
H35 H 0.842 0.3887 0.663
H36 H 0.945 0.3327 0.498
H37 H 0.761 0.3293 0.285
H38 H 0.645 0.3268 0.656
H39 H 0.836 0.3257 0.855
H40 H 0.902 0.2677 0.689
H41 H 0.718 0.2690 0.470
H42 H 0.606 0.2746 0.866
H43 H 0.797 0.2588 1.033
H44 H 0.633 0.2074 0.952
H45 H 0.901 0.1954 0.942
H46 H 0.844 0.1994 0.611
H47 H 0.877 0.1364 0.730
H48 H 0.678 0.1487 0.589
H49 H 0.624 0.1510 1.006
H50 H 0.823 0.1387 1.146
H51 H 0.802 0.0798 0.932
H52 H 0.606 0.0921 0.774
H53 H 0.536 0.0947 1.171
H54 H 0.732 0.0828 1.330
H55 H 0.574 0.0314 1.291
H56 H 0.521 0.0363 0.960
H57 H 0.717 0.0243 1.120
H58 H 0.925 0.5171 0.123
loop_
_geom_bond_atom_site_label_1
_geom_bond_atom_site_label_2
_geom_bond_site_symmetry_1
_geom_bond_site_symmetry_2
C1 C2 1_555 1_555
C2 C3 1_555 1_555
C3 C4 1_555 1_555
C4 C5 1_555 1_555
C5 C6 1_555 1_555
C6 C7 1_555 1_555
C7 C8 1_555 1_555
C8 C9 1_555 1_555
C9 C10 1_555 1_555
C10 C11 1_555 1_555
C11 C12 1_555 1_555
C12 C13 1_555 1_555
C13 C14 1_555 1_555
C14 C15 1_555 1_555
C15 H26 1_555 1_555
O1 C1 1_555 1_555
O2 C1 1_555 1_555
C16 C9 1_555 1_555
O3 C16 1_555 1_555
C17 C18 1_555 1_555
C18 C19 1_555 1_555
C19 C20 1_555 1_555
C20 C21 1_555 1_555
C21 C22 1_555 1_555
C22 C23 1_555 1_555
C23 C24 1_555 1_555
C24 C25 1_555 1_555
C25 C16 1_555 1_555
C26 C25 1_555 1_555
C27 C26 1_555 1_555
C28 C27 1_555 1_555
C29 C28 1_555 1_555
C30 C29 1_555 1_555
C31 C30 1_555 1_555
O4 C17 1_555 1_555
O5 C17 1_555 1_555
H1 C2 1_555 1_555
H2 C2 1_555 1_555
H3 C3 1_555 1_555
H4 C3 1_555 1_555
H5 C4 1_555 1_555
H6 C4 1_555 1_555
H7 C5 1_555 1_555
H8 C5 1_555 1_555
H9 C6 1_555 1_555
H10 C6 1_555 1_555
H11 C7 1_555 1_555
H12 C7 1_555 1_555
H13 C8 1_555 1_555
H14 C8 1_555 1_555
H15 C9 1_555 1_555
H16 C10 1_555 1_555
H17 C10 1_555 1_555
H18 C11 1_555 1_555
H19 C11 1_555 1_555
H20 C12 1_555 1_555
H21 C12 1_555 1_555
H22 C13 1_555 1_555
H23 C13 1_555 1_555
H24 C14 1_555 1_555
H25 C14 1_555 1_555
H27 C15 1_555 1_555
H28 C15 1_555 1_555
H29 O2 1_555 1_555
H30 C18 1_555 1_555
H31 C18 1_555 1_555
H32 C19 1_555 1_555
H33 C19 1_555 1_555
H34 C20 1_555 1_555
H35 C20 1_555 1_555
H36 C21 1_555 1_555
H37 C21 1_555 1_555
H38 C22 1_555 1_555
H39 C22 1_555 1_555
H40 C23 1_555 1_555
H41 C23 1_555 1_555
H42 C24 1_555 1_555
H43 C24 1_555 1_555
H44 C25 1_555 1_555
H45 C26 1_555 1_555
H46 C26 1_555 1_555
H47 C27 1_555 1_555
H48 C27 1_555 1_555
H49 C28 1_555 1_555
H50 C28 1_555 1_555
H51 C29 1_555 1_555
H52 C29 1_555 1_555
H53 C30 1_555 1_555
H54 C30 1_555 1_555
H55 C31 1_555 1_555
H56 C31 1_555 1_555
H57 C31 1_555 1_555
H58 O5 1_555 1_555

#END
