
#######################################################################
#
#                 Cambridge Crystallographic Data Centre
#                                CCDC 
#
#######################################################################
#
# If this CIF has been generated from an entry in the Cambridge 
# Structural Database, then it will include bibliographic, chemical, 
# crystal, experimental, refinement or atomic coordinate data resulting 
# from the CCDC's data processing and validation procedures.
#
#######################################################################

data_GAFZEV
_chemical_formula_moiety         'C31 H18 O2'
_chemical_name_systematic        3-(4-(Pyren-1-yl)phenyl)-2H-chromen-2-one
_symmetry_cell_setting           orthorhombic
_symmetry_space_group_name_H-M   'P 21 21 21'
_symmetry_Int_Tables_number      19
_space_group_name_Hall           'P 2ac 2ab'
loop_
_symmetry_equiv_pos_site_id
_symmetry_equiv_pos_as_xyz
1 x,y,z
2 1/2-x,-y,1/2+z
3 1/2+x,1/2-y,-z
4 -x,1/2+y,1/2-z
_cell_length_a                   6.3724(12)
_cell_length_b                   16.934(3)
_cell_length_c                   19.195(4)
_cell_angle_alpha                90
_cell_angle_beta                 90
_cell_angle_gamma                90
_cell_volume                     2071.34
_cell_formula_units_Z            4
loop_
_atom_site_label
_atom_site_type_symbol
_atom_site_fract_x
_atom_site_fract_y
_atom_site_fract_z
C1 C 0.9311(10) 0.4293(3) 0.7509(3)
C2 C 0.9680(9) 0.4934(3) 0.7936(3)
H1 H 1.0993 0.4997 0.8163
C3 C 0.8094(10) 0.5486(3) 0.8024(3)
H2 H 0.8311 0.5932 0.8315
C4 C 0.6189(10) 0.5383(3) 0.7685(3)
H3 H 0.5110 0.5765 0.7740
C5 C 0.5852(9) 0.4739(3) 0.7275(3)
H4 H 0.4527 0.4672 0.7056
C6 C 0.7409(9) 0.4179(3) 0.7171(3)
C7 C 0.7256(8) 0.3503(3) 0.6716(2)
H5 H 0.5947 0.3396 0.6498
C8 C 0.8863(9) 0.3022(3) 0.6587(3)
C9 C 1.0851(11) 0.3151(3) 0.6939(3)
C10 C 0.8711(9) 0.2334(3) 0.6116(3)
C11 C 0.6916(8) 0.1871(3) 0.6118(3)
H6 H 0.5806 0.1995 0.6430
C12 C 0.6712(9) 0.1230(3) 0.5673(3)
H7 H 0.5467 0.0922 0.5689
C13 C 0.8292(9) 0.1027(3) 0.5203(3)
C14 C 1.0087(8) 0.1497(3) 0.5200(3)
H8 H 1.1190 0.1373 0.4886
C15 C 1.0317(8) 0.2144(3) 0.5643(3)
H9 H 1.1555 0.2456 0.5625
C16 C 0.8047(8) 0.0337(3) 0.4720(3)
C17 C 0.6243(8) 0.0302(3) 0.4312(3)
H10 H 0.5230 0.0712 0.4349
C18 C 0.5891(8) -0.0314(3) 0.3855(3)
H11 H 0.4640 -0.0327 0.3586
C19 C 0.7378(9) -0.0918(3) 0.3788(3)
C20 C 0.9168(9) -0.0913(3) 0.4202(3)
C21 C 0.9514(8) -0.0276(3) 0.4682(3)
C22 C 1.1324(8) -0.0319(3) 0.5126(3)
H12 H 1.1569 0.0092 0.5453
C23 C 1.2700(8) -0.0934(3) 0.5092(3)
H13 H 1.3872 -0.0946 0.5397
C24 C 1.2404(9) -0.1570(3) 0.4598(3)
C25 C 1.3819(9) -0.2200(3) 0.4555(3)
H14 H 1.5042 -0.2209 0.4838
C26 C 1.3403(10) -0.2819(3) 0.4086(3)
H15 H 1.4349 -0.3252 0.4060
C27 C 1.1672(9) -0.2812(3) 0.3670(3)
H16 H 1.1410 -0.3242 0.3365
C28 C 1.0288(9) -0.2179(3) 0.3689(3)
C29 C 1.0624(9) -0.1546(3) 0.4157(3)
C30 C 0.8442(9) -0.2157(3) 0.3262(3)
H17 H 0.8199 -0.2575 0.2942
C31 C 0.7029(9) -0.1557(3) 0.3301(3)
H18 H 0.5821 -0.1557 0.3011
O1 O 1.2456(6) 0.2765(2) 0.6887(2)
O2 O 1.0979(6) 0.3779(2) 0.7407(2)
loop_
_geom_bond_atom_site_label_1
_geom_bond_atom_site_label_2
_geom_bond_site_symmetry_1
_geom_bond_site_symmetry_2
C1 C2 1_555 1_555
C2 H1 1_555 1_555
C3 C2 1_555 1_555
H2 C3 1_555 1_555
C4 C3 1_555 1_555
H3 C4 1_555 1_555
C5 C4 1_555 1_555
H4 C5 1_555 1_555
C6 C1 1_555 1_555
C7 C6 1_555 1_555
H5 C7 1_555 1_555
C8 C7 1_555 1_555
C9 C8 1_555 1_555
C10 C8 1_555 1_555
C11 C10 1_555 1_555
H6 C11 1_555 1_555
C12 C11 1_555 1_555
H7 C12 1_555 1_555
C13 C12 1_555 1_555
C14 C13 1_555 1_555
H8 C14 1_555 1_555
C15 C10 1_555 1_555
H9 C15 1_555 1_555
C16 C13 1_555 1_555
C17 C16 1_555 1_555
H10 C17 1_555 1_555
C18 C17 1_555 1_555
H11 C18 1_555 1_555
C19 C18 1_555 1_555
C20 C19 1_555 1_555
C21 C16 1_555 1_555
C22 C21 1_555 1_555
H12 C22 1_555 1_555
C23 C22 1_555 1_555
H13 C23 1_555 1_555
C24 C23 1_555 1_555
C25 C24 1_555 1_555
H14 C25 1_555 1_555
C26 C25 1_555 1_555
H15 C26 1_555 1_555
C27 C26 1_555 1_555
H16 C27 1_555 1_555
C28 C27 1_555 1_555
C29 C20 1_555 1_555
C30 C28 1_555 1_555
H17 C30 1_555 1_555
C31 C19 1_555 1_555
H18 C31 1_555 1_555
O1 C9 1_555 1_555
O2 C1 1_555 1_555
C5 C6 1_555 1_555
C9 O2 1_555 1_555
C14 C15 1_555 1_555
C20 C21 1_555 1_555
C24 C29 1_555 1_555
C28 C29 1_555 1_555
C30 C31 1_555 1_555

#END
