
#######################################################################
#
#                 Cambridge Crystallographic Data Centre
#                                CCDC 
#
#######################################################################
#
# If this CIF has been generated from an entry in the Cambridge 
# Structural Database, then it will include bibliographic, chemical, 
# crystal, experimental, refinement or atomic coordinate data resulting 
# from the CCDC's data processing and validation procedures.
#
#######################################################################

data_GAGFEZ
_chemical_compound_source        'Nocardia mediterranei var. kanglensis 1747-64'
_chemical_formula_moiety         'C50 H63 N1 O19,C1 H4 O1'
_chemical_name_systematic        'Kanglemycin A methanol solvate'
_symmetry_cell_setting           triclinic
_symmetry_space_group_name_H-M   'P 1'
_symmetry_Int_Tables_number      1
_space_group_name_Hall           'P 1'
loop_
_symmetry_equiv_pos_site_id
_symmetry_equiv_pos_as_xyz
1 x,y,z
_cell_length_a                   12.760(3)
_cell_length_b                   10.287(2)
_cell_length_c                   9.926(2)
_cell_angle_alpha                88.39(2)
_cell_angle_beta                 78.64(2)
_cell_angle_gamma                89.14(2)
_cell_volume                     1276.82
_exptl_crystal_colour            orange
_chemical_melting_point          156deg.C
_cell_formula_units_Z            1
loop_
_atom_site_label
_atom_site_type_symbol
_atom_site_fract_x
_atom_site_fract_y
_atom_site_fract_z
C1 C 0.7487(7) 0.6654(8) 0.3026(8)
C2 C 0.6863(7) 0.7842(8) 0.3520(8)
C3 C 0.7323(8) 0.8993(10) 0.2775(11)
C4 C 0.8455(7) 0.9086(8) 0.2025(8)
C5 C 1.0116(6) 0.7907(8) 0.0962(8)
C6 C 1.0716(6) 0.6802(7) 0.0557(8)
C7 C 1.0172(6) 0.5635(7) 0.0907(8)
C8 C 0.9141(6) 0.5513(7) 0.1696(7)
C9 C 0.8583(6) 0.6642(8) 0.2129(7)
C10 C 0.9052(6) 0.7857(7) 0.1711(7)
C11 C 0.8914(7) 0.4130(8) 0.1763(8)
C12 C 0.9891(6) 0.3467(7) 0.0840(8)
C13 C 0.9589(8) 0.2929(8) -0.0461(8)
C14 C 1.1844(7) 0.6845(9) -0.0242(10)
C15 C 0.5785(11) 1.0462(13) 0.3484(13)
C16 C 0.5535(8) 1.1863(10) 0.3686(10)
C17 C 0.5954(10) 1.2591(13) 0.4539(13)
C18 C 0.6704(7) 1.2154(8) 0.5430(10)
C19 C 0.6697(6) 1.0984(8) 0.6082(9)
C20 C 0.7563(7) 1.0644(8) 0.6887(9)
C21 C 0.8325(6) 0.9610(7) 0.6076(8)
C22 C 0.9297(7) 0.9262(9) 0.6726(9)
C23 C 1.0070(7) 0.8237(8) 0.5965(8)
C24 C 0.9687(7) 0.6841(8) 0.6187(8)
C25 C 1.0470(6) 0.5932(8) 0.5240(8)
C26 C 1.0276(6) 0.4486(8) 0.5643(8)
C27 C 1.1024(7) 0.3480(9) 0.4783(9)
C28 C 1.0987(7) 0.3530(8) 0.3257(8)
C29 C 1.0489(7) 0.2537(8) 0.2810(9)
C30 C 0.4747(8) 1.2431(9) 0.2843(10)
C31 C 0.7120(7) 1.0188(10) 0.8393(8)
C32 C 0.9949(8) 1.0455(9) 0.6955(9)
C33 C 0.9589(9) 0.6444(10) 0.7745(9)
C34 C 0.9106(7) 0.4114(9) 0.5627(11)
C35 C 1.2275(8) 0.6491(9) 0.4175(11)
C36 C 1.3383(7) 0.6958(11) 0.4449(12)
C37 C 1.2390(7) 0.3190(8) 0.6122(9)
C38 C 1.3355(8) 0.3929(9) 0.6318(10)
C39 C 1.3803(8) 0.3372(10) 0.7518(10)
C40 C 1.3250(13) 0.2823(15) 0.9843(14)
C41 C 1.3770(7) 0.1873(10) 0.7692(9)
C42 C 1.2793(8) 0.1251(10) 0.7272(11)
C43 C 1.2992(9) -0.0218(11) 0.7009(13)
C44 C 0.6451(9) 1.1226(12) 0.9213(11)
C45 C 0.6548(7) 0.8057(11) 0.9208(9)
C46 C 0.5636(9) 0.7125(13) 0.9419(11)
C47 C 0.5955(14) 0.5811(15) 1.0005(15)
C48 C 0.4697(10) 0.7746(15) 1.0505(11)
C49 C 0.5175(7) 0.6960(12) 0.8081(9)
C50 C 0.6052(8) 0.6433(10) 0.6945(11)
N1 N 0.6844(6) 1.0214(7) 0.2955(8)
O1 O 0.7130(5) 0.5613(6) 0.3625(6)
O2 O 0.8798(5) 1.0117(7) 0.1566(7)
O3 O 1.0572(5) 0.9071(5) 0.0565(6)
O4 O 1.0661(4) 0.4502(5) 0.0451(6)
O5 O 1.0330(4) 0.2427(5) 0.1462(5)
O6 O 1.2128(4) 0.3650(6) 0.4867(6)
O7 O 1.1542(4) 0.6279(5) 0.5343(5)
O8 O 1.2086(6) 0.6367(7) 0.3046(7)
O9 O 1.0289(5) 0.8560(5) 0.4493(5)
O10 O 0.8679(5) 1.0210(7) 0.4745(6)
O11 O 0.5106(6) 0.9617(8) 0.3747(8)
O12 O 0.8141(5) 0.3474(6) 0.2314(7)
O13 O 1.2659(5) 0.1833(6) 0.5946(6)
O14 O 1.3655(6) 0.1655(8) 0.9163(7)
O15 O 1.3097(6) 0.3745(7) 0.8819(7)
O16 O 0.6424(7) 0.9057(9) 0.8371(9)
O17 O 0.7283(8) 0.7942(10) 0.9804(11)
O18 O 0.6977(6) 0.6483(9) 0.6856(9)
O19 O 0.5595(5) 0.5958(7) 0.5911(7)
C51 C 0.2626(10) 0.0004(14) 0.2500(13)
O20 O 0.2064(5) 0.0050(7) 0.3896(7)
loop_
_geom_bond_atom_site_label_1
_geom_bond_atom_site_label_2
_geom_bond_site_symmetry_1
_geom_bond_site_symmetry_2
C1 C2 1_555 1_555
C2 C3 1_555 1_555
C3 C4 1_555 1_555
C4 C10 1_555 1_555
C5 C6 1_555 1_555
C6 C7 1_555 1_555
C7 C8 1_555 1_555
C8 C9 1_555 1_555
C9 C1 1_555 1_555
C10 C5 1_555 1_555
C11 C8 1_555 1_555
C12 C11 1_555 1_555
C13 C12 1_555 1_555
C14 C6 1_555 1_555
C15 C16 1_555 1_555
C16 C17 1_555 1_555
C17 C18 1_555 1_555
C18 C19 1_555 1_555
C19 C20 1_555 1_555
C20 C21 1_555 1_555
C21 C22 1_555 1_555
C22 C23 1_555 1_555
C23 C24 1_555 1_555
C24 C25 1_555 1_555
C25 C26 1_555 1_555
C26 C27 1_555 1_555
C27 C28 1_555 1_555
C28 C29 1_555 1_555
C29 O5 1_555 1_555
C30 C16 1_555 1_555
C31 C20 1_555 1_555
C32 C22 1_555 1_555
C33 C24 1_555 1_555
C34 C26 1_555 1_555
C35 C36 1_555 1_555
C37 C38 1_555 1_555
C38 C39 1_555 1_555
C39 C41 1_555 1_555
C40 O14 1_555 1_555
C41 C42 1_555 1_555
C42 C43 1_555 1_555
C44 C31 1_555 1_555
C45 C46 1_555 1_555
C46 C47 1_555 1_555
C48 C46 1_555 1_555
C49 C46 1_555 1_555
C50 C49 1_555 1_555
N1 C3 1_555 1_555
O1 C1 1_555 1_555
O2 C4 1_555 1_555
O3 C5 1_555 1_555
O4 C7 1_555 1_555
O5 C12 1_555 1_555
O6 C27 1_555 1_555
O7 C25 1_555 1_555
O8 C35 1_555 1_555
O9 C23 1_555 1_555
O10 C21 1_555 1_555
O11 C15 1_555 1_555
O12 C11 1_555 1_555
O13 C37 1_555 1_555
O14 C41 1_555 1_555
O15 C39 1_555 1_555
O16 C31 1_555 1_555
O17 C45 1_555 1_555
O18 C50 1_555 1_555
O19 C50 1_555 1_555
C51 O20 1_555 1_555
C9 C10 1_555 1_555
C12 O4 1_555 1_555
C15 N1 1_555 1_555
C35 O7 1_555 1_555
C37 O6 1_555 1_555
C40 O15 1_555 1_555
C42 O13 1_555 1_555
C45 O16 1_555 1_555

#END
