
#######################################################################
#
#                 Cambridge Crystallographic Data Centre
#                                CCDC 
#
#######################################################################
#
# If this CIF has been generated from an entry in the Cambridge 
# Structural Database, then it will include bibliographic, chemical, 
# crystal, experimental, refinement or atomic coordinate data resulting 
# from the CCDC's data processing and validation procedures.
#
#######################################################################

data_GAGHIG
_chemical_formula_moiety         'C26 H25 N3 O6'
_chemical_name_systematic        
N-(4-Methoxyphenyl)-N-(3-methyl-1-phenylpent-4-en-1-yl)-3,5-dinitrobenzamide
_symmetry_cell_setting           triclinic
_symmetry_space_group_name_H-M   'P -1'
_symmetry_Int_Tables_number      2
_space_group_name_Hall           '-P 1'
loop_
_symmetry_equiv_pos_site_id
_symmetry_equiv_pos_as_xyz
1 x,y,z
2 -x,-y,-z
_cell_length_a                   9.021(1)
_cell_length_b                   11.1799(8)
_cell_length_c                   13.772(2)
_cell_angle_alpha                104.489(4)
_cell_angle_beta                 106.513(1)
_cell_angle_gamma                102.553(2)
_cell_volume                     1225.49
_exptl_crystal_description       block
_cell_formula_units_Z            2
loop_
_atom_site_label
_atom_site_type_symbol
_atom_site_fract_x
_atom_site_fract_y
_atom_site_fract_z
O1 O 0.9672(4) 0.4785(3) 0.6862(3)
O2 O 0.8168(4) 0.5979(3) 0.7120(2)
O3 O 0.1279(3) 0.2201(3) 0.4382(2)
O4 O 0.2352(3) 0.4140(3) 0.5502(2)
O5 O 0.6457(3) -0.0107(2) 0.4355(2)
O6 O 0.4277(4) 0.4239(2) 0.1140(2)
N1 N 0.8354(4) 0.4970(3) 0.6689(2)
N2 N 0.2447(4) 0.3123(3) 0.4987(2)
N3 N 0.5522(2) 0.0362(2) 0.2823(2)
C1 C 0.5767(3) 0.1829(2) 0.4543(2)
C2 C 0.7118(3) 0.2820(3) 0.5295(2)
C3 C 0.6910(4) 0.3901(3) 0.5907(2)
C4 C 0.5408(4) 0.4039(3) 0.5830(2)
C5 C 0.4085(3) 0.3024(3) 0.5091(2)
C6 C 0.4236(3) 0.1930(2) 0.4445(2)
C7 C 0.5963(3) 0.0611(2) 0.3895(2)
C8 C 0.5228(3) 0.1353(2) 0.2369(2)
C9 C 0.6498(3) 0.2456(2) 0.2593(2)
C10 C 0.6215(4) 0.3438(2) 0.2202(2)
C11 C 0.4667(4) 0.3320(2) 0.1565(2)
C12 C 0.3416(3) 0.2216(3) 0.1335(2)
C13 C 0.3687(3) 0.1239(2) 0.1730(2)
C14 C 0.5479(7) 0.5410(4) 0.1402(4)
C15 C 0.5500(3) -0.0904(2) 0.2115(2)
C16 C 0.6639(4) -0.0693(3) 0.1513(2)
C17 C 0.8414(4) -0.0213(3) 0.2222(3)
C18 C 0.8878(5) -0.1285(5) 0.2544(5)
C19 C 0.9386(9) -0.1355(7) 0.3437(6)
C20 C 0.9490(5) 0.0331(6) 0.1667(4)
C21 C 0.3784(3) -0.1737(2) 0.1430(2)
C22 C 0.3146(4) -0.2034(3) 0.0328(3)
C23 C 0.1560(5) -0.2821(4) -0.0270(3)
C24 C 0.0600(5) -0.3312(3) 0.0222(5)
C25 C 0.1194(5) -0.3066(3) 0.1307(5)
C26 C 0.2779(4) -0.2273(3) 0.1912(3)
H1 H 0.8201 0.2754 0.5389
H2 H 0.5287 0.4810 0.6272
H3 H 0.3275 0.1237 0.3927
H4 H 0.7594 0.2537 0.3027
H5 H 0.7107 0.4214 0.2375
H6 H 0.2324 0.2126 0.0886
H7 H 0.2790 0.0467 0.1559
H8 H 0.6362 0.5238 0.1179
H9 H 0.5022 0.5956 0.1036
H10 H 0.5890 0.5851 0.2172
H11 H 0.5929 -0.1358 0.2589
H12 H 0.6434 -0.1511 0.0966
H13 H 0.6414 -0.0057 0.1174
H14 H 0.8562 0.0476 0.2865
H15 H 0.8761 -0.2038 0.1960
H16 H 0.9533 -0.0638 0.4060
H17 H 0.9643 -0.2127 0.3529
H18 H 1.0619 0.0626 0.2141
H19 H 0.9341 -0.0341 0.1014
H20 H 0.9198 0.1056 0.1490
H21 H 0.3822 -0.1683 -0.0034
H22 H 0.1140 -0.3020 -0.1042
H23 H -0.0518 -0.3843 -0.0197
H24 H 0.0510 -0.3445 0.1652
H25 H 0.3190 -0.2090 0.2683
loop_
_geom_bond_atom_site_label_1
_geom_bond_atom_site_label_2
_geom_bond_site_symmetry_1
_geom_bond_site_symmetry_2
O1 N1 1_555 1_555
O2 N1 1_555 1_555
O3 N2 1_555 1_555
O4 N2 1_555 1_555
O5 C7 1_555 1_555
O6 C11 1_555 1_555
N1 C3 1_555 1_555
N2 C5 1_555 1_555
N3 C7 1_555 1_555
C1 C2 1_555 1_555
C2 C3 1_555 1_555
C3 C4 1_555 1_555
C4 C5 1_555 1_555
C5 C6 1_555 1_555
C6 C1 1_555 1_555
C7 C1 1_555 1_555
C8 N3 1_555 1_555
C9 C8 1_555 1_555
C10 C9 1_555 1_555
C11 C10 1_555 1_555
C12 C11 1_555 1_555
C13 C8 1_555 1_555
C14 O6 1_555 1_555
C15 N3 1_555 1_555
C16 C15 1_555 1_555
C17 C16 1_555 1_555
C18 C17 1_555 1_555
C19 C18 1_555 1_555
C20 C17 1_555 1_555
C21 C15 1_555 1_555
C22 C21 1_555 1_555
C23 C22 1_555 1_555
C24 C23 1_555 1_555
C25 C24 1_555 1_555
C26 C21 1_555 1_555
H1 C2 1_555 1_555
H2 C4 1_555 1_555
H3 C6 1_555 1_555
H4 C9 1_555 1_555
H5 C10 1_555 1_555
H6 C12 1_555 1_555
H7 C13 1_555 1_555
H8 C14 1_555 1_555
H9 C14 1_555 1_555
H10 C14 1_555 1_555
H11 C15 1_555 1_555
H12 C16 1_555 1_555
H13 C16 1_555 1_555
H14 C17 1_555 1_555
H15 C18 1_555 1_555
H16 C19 1_555 1_555
H17 C19 1_555 1_555
H18 C20 1_555 1_555
H19 C20 1_555 1_555
H20 C20 1_555 1_555
H21 C22 1_555 1_555
H22 C23 1_555 1_555
H23 C24 1_555 1_555
H24 C25 1_555 1_555
H25 C26 1_555 1_555
C12 C13 1_555 1_555
C25 C26 1_555 1_555

#END
