
#######################################################################
#
#                 Cambridge Crystallographic Data Centre
#                                CCDC 
#
#######################################################################
#
# If this CIF has been generated from an entry in the Cambridge 
# Structural Database, then it will include bibliographic, chemical, 
# crystal, experimental, refinement or atomic coordinate data resulting 
# from the CCDC's data processing and validation procedures.
#
#######################################################################

data_GAGHUS
_chemical_formula_moiety         'C23 H27 N3 O6'
_chemical_name_systematic        
N-(4-Methoxyphenyl)-N-(2,5-dimethylhept-6-en-3-yl)-3,5-dinitrobenzamide
_symmetry_cell_setting           triclinic
_symmetry_space_group_name_H-M   'P -1'
_symmetry_Int_Tables_number      2
_space_group_name_Hall           '-P 1'
loop_
_symmetry_equiv_pos_site_id
_symmetry_equiv_pos_as_xyz
1 x,y,z
2 -x,-y,-z
_cell_length_a                   9.870(1)
_cell_length_b                   11.484(1)
_cell_length_c                   11.648(1)
_cell_angle_alpha                81.769(3)
_cell_angle_beta                 79.671(2)
_cell_angle_gamma                65.0219(8)
_cell_volume                     1174.01
_exptl_crystal_description       block
_cell_formula_units_Z            2
loop_
_atom_site_label
_atom_site_type_symbol
_atom_site_fract_x
_atom_site_fract_y
_atom_site_fract_z
O1 O 0.7017(2) 0.4503(1) 0.7208(2)
O2 O 0.1908(2) 0.6372(2) 0.6258(2)
O3 O 0.1111(2) 0.5265(2) 0.5435(2)
O4 O 0.7080(3) 0.0585(2) 0.4184(2)
O5 O 0.4761(3) 0.1189(2) 0.3956(2)
O6 O 0.7140(2) -0.2190(1) 0.8182(2)
N1 N 0.7970(2) 0.2371(1) 0.7789(1)
N2 N 0.2081(2) 0.5398(2) 0.5841(2)
N3 N 0.5748(3) 0.1298(2) 0.4354(2)
C1 C 0.6932(4) 0.5272(3) 1.0235(3)
C2 C 0.7543(3) 0.4107(3) 1.0661(2)
C3 C 0.7344(3) 0.2956(2) 1.0388(2)
C4 C 0.8791(2) 0.2031(2) 0.9728(2)
C5 C 0.9064(2) 0.2492(2) 0.8450(2)
C6 C 1.0692(2) 0.1877(2) 0.7849(2)
C7 C 1.0825(3) 0.2298(2) 0.6554(3)
C8 C 0.6834(4) 0.2309(3) 1.1512(3)
C9 C 1.1738(3) 0.2225(3) 0.8420(4)
C10 C 0.7041(2) 0.3435(2) 0.7202(2)
C11 C 0.5986(2) 0.3306(1) 0.6488(2)
C12 C 0.4574(2) 0.4327(2) 0.6494(2)
C13 C 0.3569(2) 0.4312(2) 0.5816(2)
C14 C 0.3906(3) 0.3333(2) 0.5119(2)
C15 C 0.5324(3) 0.2361(2) 0.5103(2)
C16 C 0.6372(2) 0.2327(2) 0.5765(2)
C17 C 0.7804(2) 0.1170(1) 0.7899(2)
C18 C 0.6498(2) 0.1082(2) 0.8487(2)
C19 C 0.6300(2) -0.0043(2) 0.8551(2)
C20 C 0.7432(2) -0.1116(2) 0.8059(2)
C21 C 0.8750(2) -0.1053(2) 0.7480(2)
C22 C 0.8929(2) 0.0093(2) 0.7402(2)
C23 C 0.8215(3) -0.3274(2) 0.7579(3)
H1 H 0.7156 0.5934 1.0486
H2 H 0.6245 0.5493 0.9660
H3 H 0.8219 0.3949 1.1231
H4 H 0.6558 0.3253 0.9887
H5 H 0.9634 0.1931 1.0110
H6 H 0.8734 0.1204 0.9758
H7 H 0.8812 0.3406 0.8437
H8 H 1.1024 0.0949 0.7936
H9 H 1.0529 0.3223 0.6452
H10 H 1.0169 0.2077 0.6182
H11 H 1.1860 0.1864 0.6198
H12 H 0.7590 0.2030 1.2038
H13 H 0.5885 0.2917 1.1885
H14 H 0.6701 0.1569 1.1329
H15 H 1.1663 0.1960 0.9249
H16 H 1.1446 0.3149 0.8314
H17 H 1.2770 0.1787 0.8058
H18 H 0.4298 0.5042 0.6969
H19 H 0.3179 0.3329 0.4661
H20 H 0.7365 0.1625 0.5724
H21 H 0.5711 0.1823 0.8858
H22 H 0.5365 -0.0082 0.8943
H23 H 0.9546 -0.1804 0.7130
H24 H 0.9855 0.0139 0.6994
H25 H 0.9192 -0.3540 0.7836
H26 H 0.8289 -0.3041 0.6743
H27 H 0.7895 -0.3979 0.7747
loop_
_geom_bond_atom_site_label_1
_geom_bond_atom_site_label_2
_geom_bond_site_symmetry_1
_geom_bond_site_symmetry_2
O1 C10 1_555 1_555
O2 N2 1_555 1_555
O3 N2 1_555 1_555
O4 N3 1_555 1_555
O5 N3 1_555 1_555
O6 C20 1_555 1_555
N1 C5 1_555 1_555
N2 C13 1_555 1_555
N3 C15 1_555 1_555
C1 C2 1_555 1_555
C2 C3 1_555 1_555
C3 C4 1_555 1_555
C4 C5 1_555 1_555
C5 C6 1_555 1_555
C6 C7 1_555 1_555
C7 H9 1_555 1_555
C8 C3 1_555 1_555
C9 C6 1_555 1_555
C10 N1 1_555 1_555
C11 C10 1_555 1_555
C12 C11 1_555 1_555
C13 C12 1_555 1_555
C14 C13 1_555 1_555
C15 C14 1_555 1_555
C16 C11 1_555 1_555
C17 N1 1_555 1_555
C18 C17 1_555 1_555
C19 C18 1_555 1_555
C20 C19 1_555 1_555
C21 C20 1_555 1_555
C22 C17 1_555 1_555
C23 O6 1_555 1_555
H1 C1 1_555 1_555
H2 C1 1_555 1_555
H3 C2 1_555 1_555
H4 C3 1_555 1_555
H5 C4 1_555 1_555
H6 C4 1_555 1_555
H7 C5 1_555 1_555
H8 C6 1_555 1_555
H10 C7 1_555 1_555
H11 C7 1_555 1_555
H12 C8 1_555 1_555
H13 C8 1_555 1_555
H14 C8 1_555 1_555
H15 C9 1_555 1_555
H16 C9 1_555 1_555
H17 C9 1_555 1_555
H18 C12 1_555 1_555
H19 C14 1_555 1_555
H20 C16 1_555 1_555
H21 C18 1_555 1_555
H22 C19 1_555 1_555
H23 C21 1_555 1_555
H24 C22 1_555 1_555
H25 C23 1_555 1_555
H26 C23 1_555 1_555
H27 C23 1_555 1_555
C15 C16 1_555 1_555
C21 C22 1_555 1_555

#END
