
#######################################################################
#
#                 Cambridge Crystallographic Data Centre
#                                CCDC 
#
#######################################################################
#
# If this CIF has been generated from an entry in the Cambridge 
# Structural Database, then it will include bibliographic, chemical, 
# crystal, experimental, refinement or atomic coordinate data resulting 
# from the CCDC's data processing and validation procedures.
#
#######################################################################

data_GAGJOQ01
_chemical_formula_moiety         'C24 H19 N3 O1'
_chemical_name_systematic        
1-benzyl-5-((4-methoxyphenyl)ethynyl)-4-phenyl-1H-1,2,3-triazole
_symmetry_cell_setting           triclinic
_symmetry_space_group_name_H-M   'P -1'
_symmetry_Int_Tables_number      2
_space_group_name_Hall           '-P 1'
loop_
_symmetry_equiv_pos_site_id
_symmetry_equiv_pos_as_xyz
1 x,y,z
2 -x,-y,-z
_cell_length_a                   9.973(6)
_cell_length_b                   10.372(6)
_cell_length_c                   19.048(11)
_cell_angle_alpha                104.203(6)
_cell_angle_beta                 90.641(6)
_cell_angle_gamma                96.358(5)
_cell_volume                     1896.84
_cell_formula_units_Z            4
loop_
_atom_site_label
_atom_site_type_symbol
_atom_site_fract_x
_atom_site_fract_y
_atom_site_fract_z
O1 O 0.52162(17) 0.01966(18) 1.11648(10)
N1 N -0.1122(2) 0.3307(2) 0.89191(11)
N2 N -0.2867(2) 0.4165(2) 0.93740(11)
N3 N -0.2266(2) 0.3772(2) 0.87629(12)
C1 C -0.2534(2) 0.4337(2) 1.06784(13)
C2 C -0.2115(2) 0.3957(2) 0.99286(13)
C3 C -0.0987(2) 0.3403(2) 0.96425(13)
C4 C -0.0175(3) 0.1300(3) 0.82373(13)
C5 C 0.4182(2) 0.0705(2) 1.08943(13)
C6 C 0.2136(2) 0.1923(2) 1.04175(13)
C7 C -0.1976(2) 0.3841(3) 1.12161(14)
H1 H -0.1334 0.3245 1.1100
C8 C 0.0125(2) 0.2959(2) 0.99469(13)
C9 C 0.2107(2) 0.0550(3) 1.02314(14)
H2 H 0.1389 0.0030 0.9943
C10 C -0.3508(3) 0.5198(2) 1.08628(15)
H3 H -0.3902 0.5526 1.0508
C11 C 0.1054(3) 0.2527(3) 1.01735(14)
C12 C 0.3112(2) -0.0067(3) 1.04622(14)
H4 H 0.3078 -0.0995 1.0330
C13 C -0.2371(3) 0.4228(3) 1.19225(15)
H5 H -0.1989 0.3896 1.2280
C14 C -0.3901(3) 0.5574(3) 1.15698(16)
H6 H -0.4558 0.6153 1.1688
C15 C 0.3227(3) 0.2687(3) 1.08413(14)
H7 H 0.3270 0.3616 1.0969
C16 C -0.1308(3) 0.0402(3) 0.80127(14)
H8 H -0.2120 0.0707 0.7923
C17 C 0.4235(3) 0.2076(3) 1.10713(15)
H9 H 0.4964 0.2595 1.1350
C18 C -0.3323(3) 0.5098(3) 1.20983(15)
H10 H -0.3578 0.5365 1.2576
C19 C -0.0225(3) 0.2779(3) 0.83475(15)
H11 H 0.0678 0.3243 0.8470
H12 H -0.0530 0.2953 0.7898
C20 C 0.1007(3) 0.0828(3) 0.83729(15)
H13 H 0.1776 0.1430 0.8531
C21 C -0.0047(4) -0.1397(3) 0.80514(16)
H14 H -0.0004 -0.2310 0.7984
C22 C 0.1074(3) -0.0520(3) 0.82790(16)
H15 H 0.1883 -0.0828 0.8371
C23 C -0.1242(3) -0.0948(3) 0.79199(15)
H16 H -0.2010 -0.1555 0.7768
C24 C 0.5152(3) -0.1217(3) 1.10352(18)
H17 H 0.5183 -0.1604 1.0524
H18 H 0.4325 -0.1561 1.1212
H19 H 0.5905 -0.1441 1.1281
O2 O -0.05188(19) -0.07366(19) 0.61712(11)
N4 N 0.5921(2) 0.3284(2) 0.39420(11)
N5 N 0.7769(2) 0.4399(2) 0.44383(12)
C25 C 0.7512(2) 0.4416(2) 0.57261(13)
N6 N 0.7103(2) 0.3909(2) 0.38102(12)
C26 C 0.7013(2) 0.4075(2) 0.49715(13)
C27 C 0.5819(2) 0.3357(2) 0.46608(14)
C28 C 0.8890(3) 0.4555(3) 0.58932(15)
H20 H 0.9493 0.4446 0.5520
C29 C 0.0552(3) -0.0088(3) 0.59126(14)
C30 C 0.6644(3) 0.4576(3) 0.62957(15)
H21 H 0.5718 0.4482 0.6200
C31 C 0.4691(3) 0.2741(3) 0.49445(14)
C32 C 0.2658(2) 0.1415(3) 0.54293(13)
C33 C 0.5014(3) 0.1032(3) 0.32408(13)
C34 C 0.1539(3) -0.0713(3) 0.55080(14)
H22 H 0.1503 -0.1642 0.5396
C35 C 0.2576(3) 0.0035(3) 0.52704(14)
H23 H 0.3238 -0.0395 0.4997
C36 C 0.3754(3) 0.2172(3) 0.51738(14)
C37 C 0.1656(3) 0.2035(3) 0.58374(15)
H24 H 0.1689 0.2963 0.5950
C38 C 0.9377(3) 0.4848(3) 0.65966(16)
H25 H 1.0302 0.4937 0.6697
C39 C 0.0621(3) 0.1288(3) 0.60743(15)
H26 H -0.0043 0.1714 0.6348
C40 C 0.8498(3) 0.5013(3) 0.71568(16)
H27 H 0.8827 0.5218 0.7635
C41 C 0.7136(3) 0.4872(3) 0.70040(16)
H28 H 0.6540 0.4976 0.7380
C42 C 0.4994(3) 0.2513(3) 0.33481(15)
H29 H 0.5245 0.2761 0.2904
H30 H 0.4085 0.2734 0.3452
C43 C 0.6156(3) 0.0440(3) 0.30042(15)
H31 H 0.6911 0.0956 0.2895
C44 C 0.3908(3) 0.0238(3) 0.33925(15)
H32 H 0.3131 0.0621 0.3553
C45 C 0.3939(3) -0.1113(3) 0.33094(16)
H33 H 0.3185 -0.1640 0.3411
C46 C -0.0585(3) -0.2152(3) 0.60514(17)
H34 H -0.0662 -0.2558 0.5540
H35 H -0.1358 -0.2477 0.6281
H36 H 0.0220 -0.2375 0.6252
C47 C 0.5080(4) -0.1682(3) 0.30770(16)
H37 H 0.5103 -0.2596 0.3020
C48 C 0.6181(4) -0.0908(4) 0.29296(16)
H38 H 0.6959 -0.1296 0.2777
loop_
_geom_bond_atom_site_label_1
_geom_bond_atom_site_label_2
_geom_bond_site_symmetry_1
_geom_bond_site_symmetry_2
O1 C5 1_555 1_555
N1 N3 1_555 1_555
N2 N3 1_555 1_555
C1 C2 1_555 1_555
C2 N2 1_555 1_555
C3 N1 1_555 1_555
C4 C16 1_555 1_555
C5 C12 1_555 1_555
C6 C9 1_555 1_555
C7 C1 1_555 1_555
H1 C7 1_555 1_555
C8 C3 1_555 1_555
C9 H2 1_555 1_555
C10 C1 1_555 1_555
H3 C10 1_555 1_555
C11 C6 1_555 1_555
C12 C9 1_555 1_555
H4 C12 1_555 1_555
C13 C7 1_555 1_555
H5 C13 1_555 1_555
C14 C10 1_555 1_555
H6 C14 1_555 1_555
C15 C6 1_555 1_555
H7 C15 1_555 1_555
C16 H8 1_555 1_555
C17 C5 1_555 1_555
H9 C17 1_555 1_555
C18 C13 1_555 1_555
H10 C18 1_555 1_555
C19 N1 1_555 1_555
H11 C19 1_555 1_555
H12 C19 1_555 1_555
C20 C4 1_555 1_555
H13 C20 1_555 1_555
C21 H14 1_555 1_555
C22 C20 1_555 1_555
H15 C22 1_555 1_555
C23 C16 1_555 1_555
H16 C23 1_555 1_555
C24 O1 1_555 1_555
H17 C24 1_555 1_555
H18 C24 1_555 1_555
H19 C24 1_555 1_555
O2 C29 1_555 1_555
N4 N6 1_555 1_555
N5 N6 1_555 1_555
C25 C26 1_555 1_555
C26 N5 1_555 1_555
C27 N4 1_555 1_555
C28 C25 1_555 1_555
H20 C28 1_555 1_555
C29 C34 1_555 1_555
C30 C25 1_555 1_555
H21 C30 1_555 1_555
C31 C27 1_555 1_555
C32 C35 1_555 1_555
C33 C42 1_555 1_555
C34 H22 1_555 1_555
C35 C34 1_555 1_555
H23 C35 1_555 1_555
C36 C31 1_555 1_555
C37 C32 1_555 1_555
H24 C37 1_555 1_555
C38 C28 1_555 1_555
H25 C38 1_555 1_555
C39 C29 1_555 1_555
H26 C39 1_555 1_555
C40 C38 1_555 1_555
H27 C40 1_555 1_555
C41 C30 1_555 1_555
H28 C41 1_555 1_555
C42 N4 1_555 1_555
H29 C42 1_555 1_555
H30 C42 1_555 1_555
C43 C33 1_555 1_555
H31 C43 1_555 1_555
C44 C33 1_555 1_555
H32 C44 1_555 1_555
C45 C44 1_555 1_555
H33 C45 1_555 1_555
C46 O2 1_555 1_555
H34 C46 1_555 1_555
H35 C46 1_555 1_555
H36 C46 1_555 1_555
C47 C45 1_555 1_555
H37 C47 1_555 1_555
C48 C43 1_555 1_555
H38 C48 1_555 1_555
C2 C3 1_555 1_555
C4 C19 1_555 1_555
C8 C11 1_555 1_555
C14 C18 1_555 1_555
C15 C17 1_555 1_555
C21 C22 1_555 1_555
C21 C23 1_555 1_555
C26 C27 1_555 1_555
C32 C36 1_555 1_555
C37 C39 1_555 1_555
C40 C41 1_555 1_555
C47 C48 1_555 1_555

#END
