
#######################################################################
#
#                 Cambridge Crystallographic Data Centre
#                                CCDC 
#
#######################################################################
#
# If this CIF has been generated from an entry in the Cambridge 
# Structural Database, then it will include bibliographic, chemical, 
# crystal, experimental, refinement or atomic coordinate data resulting 
# from the CCDC's data processing and validation procedures.
#
#######################################################################

data_GAGJAA
_chemical_formula_moiety         'C25 H25 N3 O7'
_chemical_name_systematic        
N-(4-Methoxyphenyl)-N-(3,4-dimethyl-1-(fur-2-yl)pent-4-en-1-yl)-3,5-dinitrobenzamide
_symmetry_cell_setting           triclinic
_symmetry_space_group_name_H-M   'P -1'
_symmetry_Int_Tables_number      2
_space_group_name_Hall           '-P 1'
loop_
_symmetry_equiv_pos_site_id
_symmetry_equiv_pos_as_xyz
1 x,y,z
2 -x,-y,-z
_cell_length_a                   9.4444(4)
_cell_length_b                   10.749(1)
_cell_length_c                   13.384(2)
_cell_angle_alpha                100.714(4)
_cell_angle_beta                 100.568(3)
_cell_angle_gamma                109.558(2)
_cell_volume                     1212.92
_exptl_crystal_description       block
_cell_formula_units_Z            2
loop_
_atom_site_label
_atom_site_type_symbol
_atom_site_fract_x
_atom_site_fract_y
_atom_site_fract_z
O1 O 0.2497(2) 0.2818(2) 0.2031(2)
O2 O 0.6607(2) 0.5001(2) 0.4381(2)
O3 O 0.9944(4) 0.9686(4) 0.6865(3)
O4 O 0.8757(4) 1.0874(3) 0.7478(3)
O5 O 0.2062(3) 0.7777(3) 0.4598(3)
O6 O 0.3257(3) 0.9542(3) 0.5906(2)
O7 O 0.4571(2) 0.9343(2) 0.0978(2)
N1 N 0.5373(2) 0.5361(2) 0.2902(2)
N2 N 0.8777(4) 0.9914(4) 0.6863(3)
N3 N 0.3220(4) 0.8547(3) 0.5285(3)
C1 C 1.0036(5) 0.4294(5) 0.3531(4)
C2 C 0.8533(3) 0.3732(3) 0.2696(3)
C3 C 0.7694(4) 0.2409(4) 0.2418(3)
C4 C 0.8121(3) 0.4767(3) 0.2224(3)
C5 C 0.9229(4) 0.5301(4) 0.1558(4)
C6 C 0.6443(3) 0.4263(3) 0.1585(2)
C7 C 0.5258(3) 0.4044(3) 0.2227(2)
C8 C 0.3646(3) 0.3269(3) 0.1541(2)
C9 C 0.3013(4) 0.2883(3) 0.0498(3)
C10 C 0.1388(4) 0.2158(4) 0.0317(3)
C11 C 0.1133(4) 0.2141(4) 0.1247(4)
C12 C 0.6031(3) 0.5691(3) 0.3954(2)
C13 C 0.6008(3) 0.6967(3) 0.4636(2)
C14 C 0.7361(3) 0.7858(3) 0.5384(2)
C15 C 0.7322(4) 0.8957(3) 0.6083(2)
C16 C 0.5998(4) 0.9203(3) 0.6086(2)
C17 C 0.4669(3) 0.8299(3) 0.5334(2)
C18 C 0.4643(3) 0.7192(3) 0.4609(2)
C19 C 0.5122(3) 0.6373(3) 0.2399(2)
C20 C 0.6381(3) 0.7496(3) 0.2386(2)
C21 C 0.6150(3) 0.8462(3) 0.1910(2)
C22 C 0.4659(3) 0.8328(3) 0.1430(2)
C23 C 0.3409(3) 0.7216(3) 0.1427(2)
C24 C 0.3642(3) 0.6237(3) 0.1915(2)
C25 C 0.3093(4) 0.9321(4) 0.0512(3)
H1 H 0.9845 0.4087 0.4182
H2 H 1.0736 0.3882 0.3309
H3 H 1.0506 0.5279 0.3648
H4 H 0.8043 0.1806 0.2762
H5 H 0.6726 0.2036 0.1863
H6 H 0.8287 0.5540 0.2803
H7 H 1.0291 0.5731 0.2001
H8 H 0.9147 0.4539 0.0999
H9 H 0.8951 0.5963 0.1252
H10 H 0.6340 0.4930 0.1206
H11 H 0.6204 0.3396 0.1079
H12 H 0.5480 0.3496 0.2687
H13 H 0.3564 0.3063 -0.0036
H14 H 0.0618 0.1755 -0.0364
H15 H 0.0121 0.1708 0.1356
H16 H 0.8325 0.7713 0.5420
H17 H 0.5994 0.9977 0.6590
H18 H 0.3684 0.6579 0.4088
H19 H 0.7433 0.7600 0.2718
H20 H 0.7038 0.9246 0.1910
H21 H 0.2366 0.7112 0.1088
H22 H 0.2751 0.5455 0.1913
H23 H 0.2513 0.9356 0.1041
H24 H 0.3209 1.0100 0.0222
H25 H 0.2513 0.8479 -0.0050
loop_
_geom_bond_atom_site_label_1
_geom_bond_atom_site_label_2
_geom_bond_site_symmetry_1
_geom_bond_site_symmetry_2
O1 C8 1_555 1_555
O2 C12 1_555 1_555
O3 N2 1_555 1_555
O4 N2 1_555 1_555
O5 N3 1_555 1_555
O6 N3 1_555 1_555
O7 C22 1_555 1_555
N1 C7 1_555 1_555
N2 C15 1_555 1_555
N3 C17 1_555 1_555
C1 C2 1_555 1_555
C2 C3 1_555 1_555
C3 H4 1_555 1_555
C4 C2 1_555 1_555
C5 C4 1_555 1_555
C6 C4 1_555 1_555
C7 C6 1_555 1_555
C8 C7 1_555 1_555
C9 C8 1_555 1_555
C10 C9 1_555 1_555
C11 O1 1_555 1_555
C12 N1 1_555 1_555
C13 C12 1_555 1_555
C14 C13 1_555 1_555
C15 C14 1_555 1_555
C16 C15 1_555 1_555
C17 C16 1_555 1_555
C18 C13 1_555 1_555
C19 N1 1_555 1_555
C20 C19 1_555 1_555
C21 C20 1_555 1_555
C22 C21 1_555 1_555
C23 C22 1_555 1_555
C24 C19 1_555 1_555
C25 O7 1_555 1_555
H1 C1 1_555 1_555
H2 C1 1_555 1_555
H3 C1 1_555 1_555
H5 C3 1_555 1_555
H6 C4 1_555 1_555
H7 C5 1_555 1_555
H8 C5 1_555 1_555
H9 C5 1_555 1_555
H10 C6 1_555 1_555
H11 C6 1_555 1_555
H12 C7 1_555 1_555
H13 C9 1_555 1_555
H14 C10 1_555 1_555
H15 C11 1_555 1_555
H16 C14 1_555 1_555
H17 C16 1_555 1_555
H18 C18 1_555 1_555
H19 C20 1_555 1_555
H20 C21 1_555 1_555
H21 C23 1_555 1_555
H22 C24 1_555 1_555
H23 C25 1_555 1_555
H24 C25 1_555 1_555
H25 C25 1_555 1_555
C10 C11 1_555 1_555
C17 C18 1_555 1_555
C23 C24 1_555 1_555

#END
