
#######################################################################
#
#                 Cambridge Crystallographic Data Centre
#                                CCDC 
#
#######################################################################
#
# If this CIF has been generated from an entry in the Cambridge 
# Structural Database, then it will include bibliographic, chemical, 
# crystal, experimental, refinement or atomic coordinate data resulting 
# from the CCDC's data processing and validation procedures.
#
#######################################################################

data_GAGMIN
_chemical_formula_moiety         'C10 H14 N6'
_chemical_name_systematic        
2,3-bis(Dimethylcarbonohydrazonoyl)but-2-enedinitrile
_symmetry_cell_setting           orthorhombic
_symmetry_space_group_name_H-M   'P b c a'
_symmetry_Int_Tables_number      61
_space_group_name_Hall           '-P 2ac 2ab'
loop_
_symmetry_equiv_pos_site_id
_symmetry_equiv_pos_as_xyz
1 x,y,z
2 1/2-x,-y,1/2+z
3 -x,1/2+y,1/2-z
4 1/2+x,1/2-y,-z
5 -x,-y,-z
6 1/2+x,y,1/2-z
7 x,1/2-y,1/2+z
8 1/2-x,1/2+y,z
_cell_length_a                   14.161(4)
_cell_length_b                   7.870(2)
_cell_length_c                   20.497(6)
_cell_angle_alpha                90
_cell_angle_beta                 90
_cell_angle_gamma                90
_cell_volume                     2284.33
_exptl_crystal_colour            colorless
_exptl_crystal_description       Prism
_cell_formula_units_Z            8
loop_
_atom_site_label
_atom_site_type_symbol
_atom_site_fract_x
_atom_site_fract_y
_atom_site_fract_z
N1 N 0.42865(6) 0.12821(12) 0.62973(4)
N2 N 0.48296(6) 0.17556(11) 0.58016(4)
N3 N 0.68204(6) 0.19948(13) 0.48391(4)
N4 N 0.60032(6) 0.42287(13) 0.32798(5)
N5 N 0.36629(6) 0.52053(11) 0.35551(4)
N6 N 0.28029(6) 0.58576(11) 0.34659(4)
C1 C 0.47591(8) 0.10901(18) 0.69176(5)
H1 H 0.5440 0.0979 0.6846
H2 H 0.4522 0.0071 0.7138
H3 H 0.4635 0.2090 0.7189
C2 C 0.32689(7) 0.15146(15) 0.62919(5)
H4 H 0.3122 0.2730 0.6271
H5 H 0.2998 0.1030 0.6690
H6 H 0.3000 0.0940 0.5910
C3 C 0.44418(7) 0.23677(13) 0.52745(5)
H7 H 0.3769(6) 0.2541(15) 0.5228(5)
C4 C 0.50527(7) 0.28168(12) 0.47403(5)
C5 C 0.47722(7) 0.37009(12) 0.41917(5)
C6 C 0.38328(7) 0.43522(13) 0.40875(5)
H8 H 0.3366(7) 0.4152(14) 0.4425(5)
C7 C 0.20165(7) 0.54067(13) 0.38826(5)
H9 H 0.1932 0.4171 0.3880
H10 H 0.1441 0.5954 0.3721
H11 H 0.2144 0.5790 0.4329
C8 C 0.26148(8) 0.65550(14) 0.28230(5)
H12 H 0.3213 0.6840 0.2609
H13 H 0.2229 0.7582 0.2866
H14 H 0.2275 0.5713 0.2560
C9 C 0.60338(7) 0.23415(13) 0.47982(5)
C10 C 0.54582(7) 0.40092(13) 0.36843(5)
loop_
_geom_bond_atom_site_label_1
_geom_bond_atom_site_label_2
_geom_bond_site_symmetry_1
_geom_bond_site_symmetry_2
N1 N2 1_555 1_555
N2 C3 1_555 1_555
N3 C9 1_555 1_555
N4 C10 1_555 1_555
N5 N6 1_555 1_555
N6 C7 1_555 1_555
C1 N1 1_555 1_555
H1 C1 1_555 1_555
H2 C1 1_555 1_555
H3 C1 1_555 1_555
C2 N1 1_555 1_555
H4 C2 1_555 1_555
H5 C2 1_555 1_555
H6 C2 1_555 1_555
C3 H7 1_555 1_555
C4 C3 1_555 1_555
C5 C4 1_555 1_555
C6 N5 1_555 1_555
H8 C6 1_555 1_555
C7 H9 1_555 1_555
H10 C7 1_555 1_555
H11 C7 1_555 1_555
C8 N6 1_555 1_555
H12 C8 1_555 1_555
H13 C8 1_555 1_555
H14 C8 1_555 1_555
C9 C4 1_555 1_555
C10 C5 1_555 1_555
C5 C6 1_555 1_555

#END
