
#######################################################################
#
#                 Cambridge Crystallographic Data Centre
#                                CCDC 
#
#######################################################################
#
# If this CIF has been generated from an entry in the Cambridge 
# Structural Database, then it will include bibliographic, chemical, 
# crystal, experimental, refinement or atomic coordinate data resulting 
# from the CCDC's data processing and validation procedures.
#
#######################################################################

data_GAHGUU
_chemical_formula_moiety         'C52 H54 N6 O8,H2 O1'
_chemical_name_systematic        
"12-(2-(3',6'-bis(diethylamino)-3-oxospiro[isoindole-1,9'-xanthen]-2(3H)-yl)ethyl)-6,18-dioxa-9,12,15-triazatetracyclo[21.3.1.0^5,26^.0^19,24^]heptacosa-1(26),2,4,19,21,23-hexaene-8,16,25,27-tetrone monohydrate"
_symmetry_cell_setting           monoclinic
_symmetry_space_group_name_H-M   'P 21/n'
_symmetry_Int_Tables_number      14
_space_group_name_Hall           '-P 2yn'
loop_
_symmetry_equiv_pos_site_id
_symmetry_equiv_pos_as_xyz
1 x,y,z
2 1/2-x,1/2+y,1/2-z
3 -x,-y,-z
4 1/2+x,1/2-y,1/2+z
_cell_length_a                   11.6503(6)
_cell_length_b                   26.3127(13)
_cell_length_c                   14.6567(7)
_cell_angle_alpha                90
_cell_angle_beta                 96.0910(10)
_cell_angle_gamma                90
_cell_volume                     4467.66
_exptl_crystal_colour            orange
_exptl_crystal_description       CUBE
_cell_formula_units_Z            4
loop_
_atom_site_label
_atom_site_type_symbol
_atom_site_fract_x
_atom_site_fract_y
_atom_site_fract_z
C1 C -0.15503(16) 0.09533(7) 0.50012(12)
C2 C -0.25418(17) 0.10629(8) 0.54315(13)
H1 H -0.3161 0.0838 0.5373
C3 C -0.26070(17) 0.15022(8) 0.59411(13)
H2 H -0.3274 0.1574 0.6213
C4 C -0.16821(17) 0.18348(8) 0.60482(13)
H3 H -0.1719 0.2126 0.6404
C5 C 0.23546(18) 0.22521(7) 0.57246(14)
H4 H 0.2281 0.2527 0.6113
C6 C 0.34072(18) 0.21418(8) 0.54337(15)
H5 H 0.4045 0.2343 0.5621
C7 C 0.35196(17) 0.17327(7) 0.48635(14)
H6 H 0.4236 0.1660 0.4669
C8 C 0.25701(16) 0.14256(7) 0.45734(13)
C9 C 0.02922(17) 0.20875(7) 0.57918(13)
C10 C 0.04439(16) 0.12061(7) 0.45902(12)
C11 C -0.06141(16) 0.12947(7) 0.50761(12)
C12 C -0.06960(16) 0.17318(7) 0.56204(12)
C13 C 0.13978(17) 0.19551(7) 0.54415(13)
C14 C 0.14783(16) 0.15326(7) 0.48594(12)
C15 C 0.38242(16) 0.08429(7) 0.39507(14)
H7 H 0.4223 0.0788 0.4558
H8 H 0.4242 0.1100 0.3646
C16 C 0.38016(17) 0.03578(8) 0.34142(13)
C17 C 0.27146(17) -0.02562(8) 0.24346(14)
H9 H 0.3275 -0.0511 0.2662
H10 H 0.2918 -0.0139 0.1845
C18 C 0.15322(18) -0.04961(7) 0.23046(14)
H11 H 0.1501 -0.0726 0.1786
H12 H 0.1427 -0.0697 0.2844
C19 C -0.05224(18) -0.04147(7) 0.19603(13)
H13 H -0.0425 -0.0678 0.1511
H14 H -0.1116 -0.0184 0.1697
C20 C -0.0915(2) -0.06565(8) 0.28083(15)
H15 H -0.1607 -0.0855 0.2641
H16 H -0.0320 -0.0883 0.3083
C21 C -0.20692(17) -0.03026(8) 0.39354(14)
C22 C -0.23397(18) 0.01417(8) 0.45201(14)
H17 H -0.3077 0.0288 0.4285
H18 H -0.2395 0.0028 0.5144
C23 C 0.06997(16) 0.02321(7) 0.14182(12)
H19 H 0.0364 0.0096 0.0835
H20 H 0.1513 0.0294 0.1377
C24 C 0.01013(15) 0.07285(6) 0.16181(12)
H21 H -0.0711 0.0663 0.1657
H22 H 0.0431 0.0859 0.2207
C25 C -0.05183(14) 0.11381(6) 0.01325(11)
C26 C -0.01758(14) 0.15965(6) -0.03682(12)
C27 C -0.06199(15) 0.17969(7) -0.12114(12)
H23 H -0.1232 0.1640 -0.1562
C28 C -0.01248(16) 0.22369(7) -0.15160(12)
H24 H -0.0401 0.2375 -0.2081
C29 C 0.07847(16) 0.24732(7) -0.09798(13)
H25 H 0.1105 0.2769 -0.1191
C30 C 0.12196(15) 0.22731(7) -0.01343(12)
H26 H 0.1822 0.2432 0.0224
C31 C 0.07310(14) 0.18309(6) 0.01578(11)
C32 C 0.10384(14) 0.15397(6) 0.10497(11)
C33 C 0.22911(14) 0.13676(6) 0.11602(11)
C34 C 0.31050(14) 0.16091(6) 0.17687(11)
C35 C 0.42711(14) 0.14787(7) 0.18475(12)
H27 H 0.4791 0.1652 0.2261
C36 C 0.46686(14) 0.10884(7) 0.13102(12)
C37 C 0.38345(15) 0.08291(7) 0.07130(12)
H28 H 0.4057 0.0556 0.0370
C38 C 0.26926(15) 0.09776(7) 0.06336(12)
H29 H 0.2170 0.0811 0.0212
C39 C 0.67026(15) 0.13041(7) 0.18058(13)
H30 H 0.6405 0.1649 0.1795
H31 H 0.7376 0.1303 0.1470
C40 C 0.70757(18) 0.11578(8) 0.27928(14)
H32 H 0.7650 0.1393 0.3053
H33 H 0.7393 0.0821 0.2812
H34 H 0.6420 0.1167 0.3138
C41 C 0.62301(16) 0.05094(7) 0.09136(13)
H35 H 0.7044 0.0546 0.0842
H36 H 0.5820 0.0472 0.0306
C42 C 0.60627(19) 0.00283(8) 0.14615(14)
H37 H 0.6340 -0.0259 0.1146
H38 H 0.5257 -0.0016 0.1525
H39 H 0.6486 0.0057 0.2058
C43 C 0.07967(14) 0.18574(6) 0.18689(11)
C44 C 0.16778(14) 0.20928(6) 0.24276(11)
C45 C 0.14695(15) 0.24334(7) 0.31112(12)
H40 H 0.2087 0.2590 0.3456
C46 C 0.03324(15) 0.25449(6) 0.32897(11)
C47 C -0.05667(15) 0.22892(7) 0.27493(12)
H41 H -0.1329 0.2342 0.2860
C48 C -0.03254(15) 0.19630(7) 0.20624(12)
H42 H -0.0937 0.1806 0.1711
C49 C 0.09839(16) 0.32366(7) 0.43553(13)
H43 H 0.1698 0.3053 0.4524
H44 H 0.0741 0.3382 0.4911
C50 C 0.12241(18) 0.36667(8) 0.37088(15)
H45 H 0.1808 0.3886 0.4006
H46 H 0.0529 0.3858 0.3551
H47 H 0.1487 0.3528 0.3162
C51 C -0.10884(16) 0.29831(7) 0.41483(13)
H48 H -0.1083 0.3116 0.4766
H49 H -0.1514 0.2666 0.4122
C52 C -0.17351(17) 0.33577(8) 0.34844(14)
H50 H -0.2504 0.3405 0.3649
H51 H -0.1770 0.3226 0.2871
H52 H -0.1338 0.3678 0.3516
N1 N -0.11535(16) -0.02671(7) 0.34687(12)
N2 N 0.27783(15) 0.01721(6) 0.30746(11)
N3 N 0.05667(13) -0.01342(6) 0.21496(10)
N4 N 0.02171(12) 0.11096(5) 0.09155(9)
N5 N 0.01060(12) 0.28749(6) 0.39795(10)
N6 N 0.58293(12) 0.09743(6) 0.13322(10)
O1 O 0.02068(13) 0.24733(5) 0.62511(10)
O2 O 0.04515(12) 0.08790(5) 0.39994(9)
O3 O 0.26748(11) 0.10141(5) 0.40274(9)
O4 O -0.14577(11) 0.05154(5) 0.45153(9)
O5 O -0.27094(13) -0.06754(6) 0.38917(11)
O6 O 0.47314(12) 0.01527(6) 0.33133(11)
O7 O -0.13102(10) 0.08379(5) -0.00877(9)
O8 O 0.28342(10) 0.20051(5) 0.23309(8)
H53 H 0.217(2) 0.0348(9) 0.3198(15)
H54 H -0.069(2) 0.0016(9) 0.3552(16)
O9 O 0.49537(16) -0.08978(9) 0.37197(16)
H55 H 0.5767(18) -0.0908(18) 0.370(3)
H56 H 0.485(4) -0.0524(8) 0.374(3)
loop_
_geom_bond_atom_site_label_1
_geom_bond_atom_site_label_2
_geom_bond_site_symmetry_1
_geom_bond_site_symmetry_2
C1 C2 1_555 1_555
C2 H1 1_555 1_555
C3 C2 1_555 1_555
H2 C3 1_555 1_555
C4 C3 1_555 1_555
H3 C4 1_555 1_555
C5 H4 1_555 1_555
C6 C5 1_555 1_555
H5 C6 1_555 1_555
C7 C6 1_555 1_555
H6 C7 1_555 1_555
C8 C7 1_555 1_555
C9 C12 1_555 1_555
C10 C11 1_555 1_555
C11 C1 1_555 1_555
C12 C4 1_555 1_555
C13 C5 1_555 1_555
C14 C8 1_555 1_555
C15 H7 1_555 1_555
H8 C15 1_555 1_555
C16 C15 1_555 1_555
C17 H9 1_555 1_555
H10 C17 1_555 1_555
C18 C17 1_555 1_555
H11 C18 1_555 1_555
H12 C18 1_555 1_555
C19 H13 1_555 1_555
H14 C19 1_555 1_555
C20 C19 1_555 1_555
H15 C20 1_555 1_555
H16 C20 1_555 1_555
C21 C22 1_555 1_555
C22 H17 1_555 1_555
H18 C22 1_555 1_555
C23 H19 1_555 1_555
H20 C23 1_555 1_555
C24 C23 1_555 1_555
H21 C24 1_555 1_555
H22 C24 1_555 1_555
C25 C26 1_555 1_555
C26 C27 1_555 1_555
C27 H23 1_555 1_555
C28 C27 1_555 1_555
H24 C28 1_555 1_555
C29 C28 1_555 1_555
H25 C29 1_555 1_555
C30 C29 1_555 1_555
H26 C30 1_555 1_555
C31 C26 1_555 1_555
C32 C31 1_555 1_555
C33 C32 1_555 1_555
C34 C33 1_555 1_555
C35 C34 1_555 1_555
H27 C35 1_555 1_555
C36 C35 1_555 1_555
C37 C36 1_555 1_555
H28 C37 1_555 1_555
C38 C33 1_555 1_555
H29 C38 1_555 1_555
C39 H30 1_555 1_555
H31 C39 1_555 1_555
C40 C39 1_555 1_555
H32 C40 1_555 1_555
H33 C40 1_555 1_555
H34 C40 1_555 1_555
C41 H35 1_555 1_555
H36 C41 1_555 1_555
C42 C41 1_555 1_555
H37 C42 1_555 1_555
H38 C42 1_555 1_555
H39 C42 1_555 1_555
C43 C32 1_555 1_555
C44 C43 1_555 1_555
C45 C44 1_555 1_555
H40 C45 1_555 1_555
C46 C45 1_555 1_555
C47 C46 1_555 1_555
H41 C47 1_555 1_555
C48 C43 1_555 1_555
H42 C48 1_555 1_555
C49 H43 1_555 1_555
H44 C49 1_555 1_555
C50 C49 1_555 1_555
H45 C50 1_555 1_555
H46 C50 1_555 1_555
H47 C50 1_555 1_555
C51 H48 1_555 1_555
H49 C51 1_555 1_555
C52 C51 1_555 1_555
H50 C52 1_555 1_555
H51 C52 1_555 1_555
H52 C52 1_555 1_555
N1 C20 1_555 1_555
N2 C16 1_555 1_555
N3 C18 1_555 1_555
N4 C24 1_555 1_555
N5 C46 1_555 1_555
N6 C36 1_555 1_555
O1 C9 1_555 1_555
O2 C10 1_555 1_555
O3 C8 1_555 1_555
O4 C1 1_555 1_555
O5 C21 1_555 1_555
O6 C16 1_555 1_555
O7 C25 1_555 1_555
O8 C34 1_555 1_555
H53 N2 1_555 1_555
H54 N1 1_555 1_555
O9 H55 1_555 1_555
H56 O9 1_555 1_555
C9 C13 1_555 1_555
C10 C14 1_555 1_555
C11 C12 1_555 1_555
C13 C14 1_555 1_555
C15 O3 1_555 1_555
C17 N2 1_555 1_555
C19 N3 1_555 1_555
C21 N1 1_555 1_555
C22 O4 1_555 1_555
C23 N3 1_555 1_555
C25 N4 1_555 1_555
C30 C31 1_555 1_555
C32 N4 1_555 1_555
C37 C38 1_555 1_555
C39 N6 1_555 1_555
C41 N6 1_555 1_555
C44 O8 1_555 1_555
C47 C48 1_555 1_555
C49 N5 1_555 1_555
C51 N5 1_555 1_555

#END
