
#######################################################################
#
#                 Cambridge Crystallographic Data Centre
#                                CCDC 
#
#######################################################################
#
# If this CIF has been generated from an entry in the Cambridge 
# Structural Database, then it will include bibliographic, chemical, 
# crystal, experimental, refinement or atomic coordinate data resulting 
# from the CCDC's data processing and validation procedures.
#
#######################################################################

data_GAJCUS
_chemical_formula_moiety         'C14 H6 Cl1 F2 N5 S1'
_chemical_name_systematic        
6-(2-chloro-4,5-difluorophenyl)-3-(pyridin-3-yl)[1,2,4]triazolo[3,4-b][1,3,4]thiadiazole
_symmetry_cell_setting           tetragonal
_symmetry_space_group_name_H-M   'I 4/m'
_symmetry_Int_Tables_number      87
_space_group_name_Hall           '-I 4'
loop_
_symmetry_equiv_pos_site_id
_symmetry_equiv_pos_as_xyz
1 x,y,z
2 -x,-y,z
3 -y,x,z
4 y,-x,z
5 1/2+x,1/2+y,1/2+z
6 1/2-x,1/2-y,1/2+z
7 1/2-y,1/2+x,1/2+z
8 1/2+y,1/2-x,1/2+z
9 -x,-y,-z
10 x,y,-z
11 y,-x,-z
12 -y,x,-z
13 1/2-x,1/2-y,1/2-z
14 1/2+x,1/2+y,1/2-z
15 1/2+y,1/2-x,1/2-z
16 1/2-y,1/2+x,1/2-z
_cell_length_a                   20.944(3)
_cell_length_b                   20.944(3)
_cell_length_c                   6.5748(9)
_cell_angle_alpha                90
_cell_angle_beta                 90
_cell_angle_gamma                90
_cell_volume                     2884.04
_exptl_crystal_colour            yellow
_exptl_crystal_description       'rectangular block'
_cell_formula_units_Z            8
_exptl_crystal_recrystallization_method 
'Re-crystallisation from solvent: ethanol'
loop_
_atom_site_label
_atom_site_type_symbol
_atom_site_fract_x
_atom_site_fract_y
_atom_site_fract_z
Cl1 Cl 0.40996(8) 0.11639(8) 0.5000
S1 S 0.54368(8) 0.06930(8) 0.5000
N1 N 0.7266(3) 0.0372(3) 0.5000
N2 N 0.6655(3) 0.0093(3) 0.5000
N3 N 0.6560(3) 0.1149(3) 0.5000
N4 N 0.6199(3) 0.1689(3) 0.5000
N5 N 0.8106(4) 0.2546(3) 0.5000
F1 F 0.3819(3) 0.3527(2) 0.5000
F2 F 0.5086(3) 0.3753(2) 0.5000
C1 C 0.7204(3) 0.0993(3) 0.5000
C2 C 0.5580(3) 0.1522(3) 0.5000
C3 C 0.6256(3) 0.0574(3) 0.5000
C4 C 0.7735(4) 0.1463(4) 0.5000
C5 C 0.7635(4) 0.2118(4) 0.5000
H1 H 0.7208 0.2270 0.5000
C6 C 0.8707(4) 0.2330(4) 0.5000
H2 H 0.9046 0.2630 0.5000
C7 C 0.8852(4) 0.1686(5) 0.5000
H3 H 0.9284 0.1549 0.5000
C8 C 0.8364(4) 0.1245(5) 0.5000
H4 H 0.8455 0.0801 0.5000
C9 C 0.5098(4) 0.2018(3) 0.5000
C10 C 0.4439(4) 0.1925(3) 0.5000
C11 C 0.4003(4) 0.2412(4) 0.5000
H5 H 0.3558 0.2327 0.5000
C12 C 0.4231(4) 0.3033(4) 0.5000
C13 C 0.4880(4) 0.3141(4) 0.5000
C14 C 0.5303(4) 0.2654(4) 0.5000
H6 H 0.5748 0.2745 0.5000
loop_
_geom_bond_atom_site_label_1
_geom_bond_atom_site_label_2
_geom_bond_site_symmetry_1
_geom_bond_site_symmetry_2
Cl1 C10 1_555 1_555
S1 C2 1_555 1_555
N1 N2 1_555 1_555
N2 C3 1_555 1_555
N3 N4 1_555 1_555
N4 C2 1_555 1_555
N5 C5 1_555 1_555
F1 C12 1_555 1_555
F2 C13 1_555 1_555
C1 N1 1_555 1_555
C2 C9 1_555 1_555
C3 S1 1_555 1_555
C4 C1 1_555 1_555
C5 C4 1_555 1_555
H1 C5 1_555 1_555
C6 N5 1_555 1_555
H2 C6 1_555 1_555
C7 C6 1_555 1_555
H3 C7 1_555 1_555
C8 C4 1_555 1_555
H4 C8 1_555 1_555
C9 C10 1_555 1_555
C10 C11 1_555 1_555
C11 H5 1_555 1_555
C12 C11 1_555 1_555
C13 C12 1_555 1_555
C14 C9 1_555 1_555
H6 C14 1_555 1_555
N3 C1 1_555 1_555
N3 C3 1_555 1_555
C7 C8 1_555 1_555
C13 C14 1_555 1_555

#END
