
#######################################################################
#
#                 Cambridge Crystallographic Data Centre
#                                CCDC 
#
#######################################################################
#
# If this CIF has been generated from an entry in the Cambridge 
# Structural Database, then it will include bibliographic, chemical, 
# crystal, experimental, refinement or atomic coordinate data resulting 
# from the CCDC's data processing and validation procedures.
#
#######################################################################

data_GAJDED
_chemical_name_common            
3-(pyridin-4-yl)-6-(p-tolyloxymethyl)-[1,2,4]triazolo[3,4-b][1,3,4]thiadiazole
_chemical_formula_moiety         'C16 H13 N5 O1 S1'
_chemical_name_systematic        
6-((4-methylphenoxy)methyl)-3-(pyridin-4-yl)[1,2,4]triazolo[3,4-b][1,3,4]thiadiazole
_symmetry_cell_setting           monoclinic
_symmetry_space_group_name_H-M   'P 21/c'
_symmetry_Int_Tables_number      14
_space_group_name_Hall           '-P 2ybc'
loop_
_symmetry_equiv_pos_site_id
_symmetry_equiv_pos_as_xyz
1 x,y,z
2 -x,1/2+y,1/2-z
3 -x,-y,-z
4 x,1/2-y,1/2+z
_cell_length_a                   11.3550(8)
_cell_length_b                   8.6409(7)
_cell_length_c                   15.7538(13)
_cell_angle_alpha                90
_cell_angle_beta                 105.418(4)
_cell_angle_gamma                90
_cell_volume                     1490.09
_exptl_crystal_colour            colorless
_exptl_crystal_description       'rectangular plate'
_cell_formula_units_Z            4
_exptl_crystal_recrystallization_method 
'Re-crystallisation from solvent: ethanol'
loop_
_atom_site_label
_atom_site_type_symbol
_atom_site_fract_x
_atom_site_fract_y
_atom_site_fract_z
C1 C 0.40380(18) 0.3855(2) 0.41961(13)
N1 N 0.46280(16) 0.2748(2) 0.39063(11)
N2 N 0.47294(18) 0.1463(2) 0.44535(12)
C2 C 0.4186(2) 0.1854(3) 0.50610(14)
S1 S 0.38406(6) 0.10747(7) 0.59758(4)
C3 C 0.31765(19) 0.2863(3) 0.61045(13)
N3 N 0.31698(16) 0.3933(2) 0.55291(11)
N4 N 0.37452(15) 0.3324(2) 0.49354(11)
C4 C 0.36695(19) 0.5334(3) 0.37646(14)
C5 C 0.3981(8) 0.5757(12) 0.3000(7)
H1 H 0.4426 0.5069 0.2731
C6 C 0.3627(6) 0.7215(6) 0.2636(4)
H2 H 0.3826 0.7473 0.2105
C7 C 0.2782(4) 0.7900(6) 0.3741(3)
H3 H 0.2360 0.8641 0.3995
N5 N 0.3025(4) 0.8278(5) 0.2982(3)
C8 C 0.3094(4) 0.6522(6) 0.4184(3)
H4 H 0.2943 0.6349 0.4741
C9 C 0.2739(2) 0.3218(3) 0.68945(14)
H5 H 0.3439 0.3270 0.7426
H6 H 0.2313 0.4228 0.6821
O1 O 0.19286(14) 0.2024(2) 0.69865(10)
C10 C 0.1418(9) 0.1945(10) 0.7680(6)
C11 C 0.1502(6) 0.3222(7) 0.8225(4)
H7 H 0.1956 0.4102 0.8136
C12 C 0.0926(5) 0.3225(7) 0.8905(3)
H8 H 0.0995 0.4107 0.9275
C13 C 0.0251(5) 0.1954(8) 0.9047(4)
C14 C 0.0204(4) 0.0684(8) 0.8511(3)
H9 H -0.0236 -0.0204 0.8608
C15 C 0.0774(4) 0.0656(8) 0.7838(3)
H10 H 0.0726 -0.0244 0.7483
C16 C -0.0407(5) 0.2001(9) 0.9759(4)
H11 H -0.1217 0.2462 0.9526
H12 H 0.0063 0.2625 1.0253
H13 H -0.0496 0.0946 0.9963
C17? C 0.4065(11) 0.5670(16) 0.3015(10)
H14? H 0.4667 0.5037 0.2869
C18? C 0.3591(8) 0.6901(9) 0.2496(5)
H15? H 0.3886 0.7112 0.1997
N6? N 0.2720(5) 0.7836(7) 0.2657(4)
C19? C 0.2324(6) 0.7439(7) 0.3354(5)
H16? H 0.1716 0.8071 0.3494
C20? C 0.2738(6) 0.6165(7) 0.3889(5)
H17? H 0.2363 0.5889 0.4339
C21? C 0.1420(11) 0.2447(11) 0.7704(8)
C22? C 0.1803(7) 0.3567(8) 0.8333(5)
H18? H 0.2447 0.4252 0.8308
C23? C 0.1237(6) 0.3682(8) 0.9004(4)
H19? H 0.1497 0.4451 0.9444
C24? C 0.0292(7) 0.2687(10) 0.9044(5)
C25? C -0.0065(6) 0.1565(10) 0.8394(4)
H20? H -0.0703 0.0868 0.8416
C26? C 0.0496(6) 0.1448(10) 0.7716(4)
H21? H 0.0242 0.0689 0.7269
C27? C -0.0394(7) 0.2862(10) 0.9758(5)
H22? H 0.0185 0.3144 1.0317
H23? H -0.0789 0.1879 0.9827
H24? H -0.1015 0.3673 0.9584
loop_
_geom_bond_atom_site_label_1
_geom_bond_atom_site_label_2
_geom_bond_site_symmetry_1
_geom_bond_site_symmetry_2
C1 N1 1_555 1_555
N1 N2 1_555 1_555
N2 C2 1_555 1_555
C2 S1 1_555 1_555
S1 C3 1_555 1_555
C3 N3 1_555 1_555
N3 N4 1_555 1_555
N4 C1 1_555 1_555
C4 C1 1_555 1_555
C5 C4 1_555 1_555
H1 C5 1_555 1_555
C6 C5 1_555 1_555
H2 C6 1_555 1_555
C7 H3 1_555 1_555
N5 C6 1_555 1_555
C8 C4 1_555 1_555
H4 C8 1_555 1_555
C9 C3 1_555 1_555
H5 C9 1_555 1_555
H6 C9 1_555 1_555
O1 C9 1_555 1_555
C10 O1 1_555 1_555
C11 C10 1_555 1_555
H7 C11 1_555 1_555
C12 C11 1_555 1_555
H8 C12 1_555 1_555
C13 C12 1_555 1_555
C14 C13 1_555 1_555
H9 C14 1_555 1_555
C15 C10 1_555 1_555
H10 C15 1_555 1_555
C16 C13 1_555 1_555
H11 C16 1_555 1_555
H12 C16 1_555 1_555
H13 C16 1_555 1_555
C2 N4 1_555 1_555
C7 N5 1_555 1_555
C7 C8 1_555 1_555
C14 C15 1_555 1_555

#END
