
#######################################################################
#
#                 Cambridge Crystallographic Data Centre
#                                CCDC 
#
#######################################################################
#
# If this CIF has been generated from an entry in the Cambridge 
# Structural Database, then it will include bibliographic, chemical, 
# crystal, experimental, refinement or atomic coordinate data resulting 
# from the CCDC's data processing and validation procedures.
#
#######################################################################

data_GAJHAD
_chemical_name_common            
'S6-corona[3]fluorene[3]tetrazine unknown solvate'
_chemical_formula_moiety         'C63 H60 N12 S6'
_chemical_name_systematic        
'8,8,25,25,42,42-hexapropyl-2,14,19,31,36,48-hexathia-16,17,33,34,50,51,52,53,56,57,60,61-dodecaazatridecacyclo[47.2.2.2^15,18^.2^32,35^.1^3,7^.1^9,13^.1^20,24^.1^26,30^.1^37,41^.1^43,47^.0^6,10^.0^23,27^.0^40,44^]trihexaconta-1(51),3(63),4,6,9(62),10,12,15,17,20(59),21,23,26(58),27,29,32,34,37(55),38,40,43(54),44,46,49,52,56,60-heptacosaene unknown solvate'
_symmetry_cell_setting           monoclinic
_symmetry_space_group_name_H-M   'P 21'
_symmetry_Int_Tables_number      4
_space_group_name_Hall           'P 2yb'
loop_
_symmetry_equiv_pos_site_id
_symmetry_equiv_pos_as_xyz
1 x,y,z
2 -x,1/2+y,-z
_cell_length_a                   17.067(3)
_cell_length_b                   9.2444(18)
_cell_length_c                   23.679(5)
_cell_angle_alpha                90
_cell_angle_beta                 90.47(3)
_cell_angle_gamma                90
_cell_volume                     3735.81
_exptl_crystal_colour            red
_exptl_crystal_description       rod
_cell_formula_units_Z            2
loop_
_atom_site_label
_atom_site_type_symbol
_atom_site_fract_x
_atom_site_fract_y
_atom_site_fract_z
S1 S 0.9966(4) 2.3154(7) 1.6282(3)
S2 S 1.0160(5) 2.3232(7) 1.8804(3)
S3 S 1.2772(3) 1.4780(6) 2.1009(2)
S4 S 1.5427(3) 1.2167(7) 1.9657(2)
S5 S 1.5508(3) 1.2850(8) 1.5307(2)
S6 S 1.2681(3) 1.4965(6) 1.4009(2)
N1 N 0.9899(10) 2.431(2) 1.7296(8)
N2 N 0.9944(12) 2.411(3) 1.7825(10)
N3 N 1.0640(11) 2.209(2) 1.7815(7)
N4 N 1.0586(9) 2.2139(19) 1.7273(7)
N5 N 1.3973(10) 1.3093(18) 2.0828(6)
N6 N 1.4543(10) 1.2479(19) 2.0554(7)
N7 N 1.4036(9) 1.3650(18) 1.9677(7)
N8 N 1.3494(8) 1.4062(17) 1.9986(5)
N9 N 1.4587(10) 1.3043(19) 1.4478(7)
N10 N 1.3945(9) 1.3545(18) 1.4170(6)
N11 N 1.3461(10) 1.450(2) 1.5020(7)
N12 N 1.4093(9) 1.404(2) 1.5305(7)
C1 C 1.0210(8) 2.3193(18) 1.7021(6)
C2 C 1.0256(10) 2.3131(19) 1.8096(8)
C3 C 1.0555(14) 2.148(3) 1.9096(10)
C4 C 1.0130(14) 2.022(2) 1.8929(10)
H1 H 0.9720 2.0290 1.8656
C5 C 1.0319(10) 1.8845(19) 1.9169(8)
H2 H 1.0045 1.7989 1.9066
C6 C 1.0928(11) 1.883(2) 1.9564(8)
C7 C 1.1379(10) 2.017(2) 1.9701(9)
C8 C 1.1190(15) 2.130(3) 1.9428(9)
H3 H 1.1534 2.2103 1.9461
C9 C 1.2065(10) 2.004(2) 2.0069(7)
C10 C 1.1974(11) 1.8272(19) 2.0220(8)
C11 C 1.1288(10) 1.767(2) 1.9854(8)
C12 C 1.1182(11) 1.624(2) 1.9862(10)
H4 H 1.0808 1.5835 1.9607
C13 C 1.1611(11) 1.524(2) 2.0246(8)
H5 H 1.1498 1.4235 2.0286
C14 C 1.2193(8) 1.5952(19) 2.0536(7)
C15 C 1.2438(9) 1.7399(18) 2.0549(7)
H6 H 1.2875 1.7736 2.0762
C16 C 1.2196(13) 2.089(3) 2.0676(11)
H7 H 1.2610 2.0421 2.0908
H8 H 1.2328 2.1919 2.0619
C17 C 1.1393(11) 2.071(2) 2.0940(8)
H9 H 1.1250 1.9675 2.0971
H10 H 1.0986 2.1219 2.0716
C18 C 1.1501(18) 2.141(3) 2.1534(10)
H11 H 1.1055 2.1156 2.1773
H12 H 1.1528 2.2466 2.1495
H13 H 1.1986 2.1056 2.1709
C19 C 1.2871(11) 2.003(3) 1.9761(9)
H14 H 1.2982 2.1051 1.9665
H15 H 1.3264 1.9751 2.0051
C20 C 1.3059(12) 1.922(3) 1.9277(10)
H16 H 1.2617 1.9283 1.9004
H17 H 1.3126 1.8197 1.9384
C21 C 1.3798(11) 1.974(4) 1.8990(13)
H18 H 1.4257 1.9358 1.9192
H19 H 1.3814 2.0800 1.8995
H20 H 1.3801 1.9398 1.8599
C22 C 1.3454(11) 1.392(2) 2.0560(9)
C23 C 1.4559(9) 1.2888(18) 1.9976(6)
C24 C 1.5334(11) 1.280(2) 1.8932(9)
C25 C 1.5282(10) 1.177(2) 1.8536(8)
H21 H 1.5258 1.0780 1.8647
C26 C 1.5262(9) 1.2115(19) 1.7974(7)
C27 C 1.5321(10) 1.3617(18) 1.7797(7)
C28 C 1.5423(11) 1.467(2) 1.8248(8)
H22 H 1.5462 1.5665 1.8158
C29 C 1.5461(14) 1.426(3) 1.8769(11)
H23 H 1.5576 1.4961 1.9051
C30 C 1.5244(11) 1.116(2) 1.7448(8)
C31 C 1.5237(10) 1.2361(18) 1.6982(7)
C32 C 1.5318(10) 1.355(2) 1.7202(8)
C33 C 1.5463(9) 1.487(2) 1.6820(7)
H24 H 1.5559 1.5808 1.6965
C34 C 1.5443(13) 1.459(3) 1.6293(11)
H25 H 1.5449 1.5410 1.6051
C35 C 1.5410(11) 1.318(2) 1.6009(9)
C36 C 1.5265(9) 1.211(2) 1.6380(9)
H26 H 1.5177 1.1161 1.6241
C37 C 1.4351(14) 1.050(3) 1.7441(10)
H27 H 1.4312 0.9855 1.7109
H28 H 1.4303 0.9883 1.7779
C38 C 1.3636(11) 1.146(3) 1.7425(9)
H29 H 1.3652 1.2061 1.7079
H30 H 1.3657 1.2126 1.7753
C39 C 1.2857(11) 1.064(3) 1.7436(9)
H31 H 1.2816 1.0106 1.7792
H32 H 1.2836 0.9960 1.7119
H33 H 1.2422 1.1328 1.7404
C40 C 1.5970(15) 1.018(2) 1.7362(12)
H34 H 1.5998 0.9919 1.6956
H35 H 1.6445 1.0744 1.7455
C41 C 1.5995(8) 0.8773(16) 1.7706(6)
H36 H 1.6009 0.8958 1.8118
H37 H 1.5552 0.8121 1.7612
C42 C 1.6776(13) 0.820(3) 1.7488(12)
H38 H 1.7129 0.8008 1.7808
H39 H 1.7014 0.8920 1.7239
H40 H 1.6687 0.7301 1.7277
C43 C 1.4664(8) 1.3509(17) 1.4995(6)
C44 C 1.3425(10) 1.441(2) 1.4433(7)
C45 C 1.2133(10) 1.6151(18) 1.4466(7)
C46 C 1.1540(10) 1.545(2) 1.4810(7)
H41 H 1.1431 1.4445 1.4771
C47 C 1.1147(10) 1.6281(18) 1.5188(8)
H42 H 1.0820 1.5844 1.5462
C48 C 1.1233(11) 1.785(2) 1.5169(7)
C49 C 1.1755(10) 1.8500(18) 1.4834(7)
C50 C 1.2255(10) 1.7521(16) 1.4451(7)
H43 H 1.2641 1.7922 1.4210
C51 C 1.1768(9) 2.0144(18) 1.4907(7)
C52 C 1.1195(14) 2.038(3) 1.5347(9)
C53 C 1.0875(11) 1.8918(19) 1.5491(8)
C54 C 1.0288(11) 1.887(2) 1.5898(8)
H44 H 1.0039 1.7974 1.5972
C55 C 1.0033(12) 2.017(3) 1.6223(10)
H45 H 0.9690 2.0103 1.6535
C56 C 1.0331(12) 2.151(2) 1.6038(7)
C57 C 1.0927(11) 2.159(2) 1.5623(8)
H46 H 1.1147 2.2503 1.5533
C58 C 1.1427(13) 2.091(2) 1.4320(9)
H47 H 1.0901 2.0491 1.4247
H48 H 1.1348 2.1946 1.4404
C59 C 1.1846(14) 2.083(3) 1.3802(9)
H49 H 1.1897 1.9799 1.3694
H50 H 1.2382 2.1209 1.3868
C60 C 1.1500(16) 2.161(3) 1.3334(9)
H51 H 1.1764 2.2539 1.3290
H52 H 1.0942 2.1767 1.3406
H53 H 1.1558 2.1037 1.2987
C61 C 1.2608(11) 2.076(2) 1.5071(9)
H54 H 1.2575 2.1786 1.5191
H55 H 1.2974 2.0685 1.4750
C62 C 1.2894(11) 1.970(3) 1.5609(10)
H56 H 1.2479 1.9629 1.5897
H57 H 1.3024 1.8716 1.5474
C63 C 1.3615(14) 2.045(3) 1.5845(12)
H58 H 1.3663 2.0249 1.6250
H59 H 1.3566 2.1500 1.5787
H60 H 1.4082 2.0100 1.5650
loop_
_geom_bond_atom_site_label_1
_geom_bond_atom_site_label_2
_geom_bond_site_symmetry_1
_geom_bond_site_symmetry_2
S1 C1 1_555 1_555
S2 C2 1_555 1_555
S3 C14 1_555 1_555
S4 C23 1_555 1_555
S5 C35 1_555 1_555
S6 C44 1_555 1_555
N1 N2 1_555 1_555
N2 C2 1_555 1_555
N3 N4 1_555 1_555
N4 C1 1_555 1_555
N5 N6 1_555 1_555
N6 C23 1_555 1_555
N7 N8 1_555 1_555
N8 C22 1_555 1_555
N9 N10 1_555 1_555
N10 C44 1_555 1_555
N11 N12 1_555 1_555
N12 C43 1_555 1_555
C1 N1 1_555 1_555
C2 N3 1_555 1_555
C3 S2 1_555 1_555
C4 C3 1_555 1_555
H1 C4 1_555 1_555
C5 C4 1_555 1_555
H2 C5 1_555 1_555
C6 C5 1_555 1_555
C7 C6 1_555 1_555
C8 C3 1_555 1_555
H3 C8 1_555 1_555
C9 C7 1_555 1_555
C10 C9 1_555 1_555
C11 C6 1_555 1_555
C12 C11 1_555 1_555
H4 C12 1_555 1_555
C13 C12 1_555 1_555
H5 C13 1_555 1_555
C14 C13 1_555 1_555
C15 C10 1_555 1_555
H6 C15 1_555 1_555
C16 C9 1_555 1_555
H7 C16 1_555 1_555
H8 C16 1_555 1_555
C17 C16 1_555 1_555
H9 C17 1_555 1_555
H10 C17 1_555 1_555
C18 C17 1_555 1_555
H11 C18 1_555 1_555
H12 C18 1_555 1_555
H13 C18 1_555 1_555
C19 C9 1_555 1_555
H14 C19 1_555 1_555
H15 C19 1_555 1_555
C20 C19 1_555 1_555
H16 C20 1_555 1_555
H17 C20 1_555 1_555
C21 C20 1_555 1_555
H18 C21 1_555 1_555
H19 C21 1_555 1_555
H20 C21 1_555 1_555
C22 S3 1_555 1_555
C23 N7 1_555 1_555
C24 S4 1_555 1_555
C25 C24 1_555 1_555
H21 C25 1_555 1_555
C26 C25 1_555 1_555
C27 C26 1_555 1_555
C28 C27 1_555 1_555
H22 C28 1_555 1_555
C29 C24 1_555 1_555
H23 C29 1_555 1_555
C30 C26 1_555 1_555
C31 C30 1_555 1_555
C32 C27 1_555 1_555
C33 C32 1_555 1_555
H24 C33 1_555 1_555
C34 C33 1_555 1_555
H25 C34 1_555 1_555
C35 C34 1_555 1_555
C36 C31 1_555 1_555
H26 C36 1_555 1_555
C37 C30 1_555 1_555
H27 C37 1_555 1_555
H28 C37 1_555 1_555
C38 C37 1_555 1_555
H29 C38 1_555 1_555
H30 C38 1_555 1_555
C39 C38 1_555 1_555
H31 C39 1_555 1_555
H32 C39 1_555 1_555
H33 C39 1_555 1_555
C40 C30 1_555 1_555
H34 C40 1_555 1_555
H35 C40 1_555 1_555
C41 C40 1_555 1_555
H36 C41 1_555 1_555
H37 C41 1_555 1_555
C42 C41 1_555 1_555
H38 C42 1_555 1_555
H39 C42 1_555 1_555
H40 C42 1_555 1_555
C43 S5 1_555 1_555
C44 N11 1_555 1_555
C45 S6 1_555 1_555
C46 C45 1_555 1_555
H41 C46 1_555 1_555
C47 C46 1_555 1_555
H42 C47 1_555 1_555
C48 C47 1_555 1_555
C49 C48 1_555 1_555
C50 C45 1_555 1_555
H43 C50 1_555 1_555
C51 C49 1_555 1_555
C52 C51 1_555 1_555
C53 C48 1_555 1_555
C54 C53 1_555 1_555
H44 C54 1_555 1_555
C55 C54 1_555 1_555
H45 C55 1_555 1_555
C56 S1 1_555 1_555
C57 C52 1_555 1_555
H46 C57 1_555 1_555
C58 C51 1_555 1_555
H47 C58 1_555 1_555
H48 C58 1_555 1_555
C59 C58 1_555 1_555
H49 C59 1_555 1_555
H50 C59 1_555 1_555
C60 C59 1_555 1_555
H51 C60 1_555 1_555
H52 C60 1_555 1_555
H53 C60 1_555 1_555
C61 C51 1_555 1_555
H54 C61 1_555 1_555
H55 C61 1_555 1_555
C62 C61 1_555 1_555
H56 C62 1_555 1_555
H57 C62 1_555 1_555
C63 C62 1_555 1_555
H58 C63 1_555 1_555
H59 C63 1_555 1_555
H60 C63 1_555 1_555
N5 C22 1_555 1_555
N9 C43 1_555 1_555
C7 C8 1_555 1_555
C10 C11 1_555 1_555
C14 C15 1_555 1_555
C28 C29 1_555 1_555
C31 C32 1_555 1_555
C35 C36 1_555 1_555
C49 C50 1_555 1_555
C52 C53 1_555 1_555
C55 C56 1_555 1_555
C56 C57 1_555 1_555

#END
