
#######################################################################
#
#                 Cambridge Crystallographic Data Centre
#                                CCDC 
#
#######################################################################
#
# If this CIF has been generated from an entry in the Cambridge 
# Structural Database, then it will include bibliographic, chemical, 
# crystal, experimental, refinement or atomic coordinate data resulting 
# from the CCDC's data processing and validation procedures.
#
#######################################################################

data_GAJKAG
_chemical_name_common            Diltiazem
_chemical_formula_moiety         'C22 H26 N2 O4 S1'
_chemical_name_systematic        
'5-(2-(dimethylamino)ethyl)-2-(4-methoxyphenyl)-4-oxo-2,3,4,5-tetrahydro-1,5-benzothiazepin-3-yl acetate'
_symmetry_cell_setting           orthorhombic
_symmetry_space_group_name_H-M   'P 21 21 21'
_symmetry_Int_Tables_number      19
_space_group_name_Hall           'P 2ac 2ab'
loop_
_symmetry_equiv_pos_site_id
_symmetry_equiv_pos_as_xyz
1 x,y,z
2 1/2-x,-y,1/2+z
3 1/2+x,1/2-y,-z
4 -x,1/2+y,1/2-z
_cell_length_a                   9.3387(2)
_cell_length_b                   13.9027(4)
_cell_length_c                   16.5550(5)
_cell_angle_alpha                90
_cell_angle_beta                 90
_cell_angle_gamma                90
_cell_volume                     2149.39
_exptl_crystal_colour            colorless
_exptl_crystal_description       plate
_cell_formula_units_Z            4
loop_
_atom_site_label
_atom_site_type_symbol
_atom_site_fract_x
_atom_site_fract_y
_atom_site_fract_z
S1 S 0.71501(6) 0.95805(5) 0.23643(4)
O1 O 1.34556(18) 0.81089(14) 0.31629(11)
O2 O 0.99524(17) 1.15822(12) 0.16226(10)
O3 O 0.91513(17) 1.24068(13) 0.05476(11)
O4 O 0.98707(16) 1.02234(13) 0.04735(10)
N1 N 0.74633(19) 1.00398(15) 0.05307(12)
N2 N 0.8079(2) 0.78148(17) -0.07143(14)
C1 C 0.8655(2) 1.04356(19) 0.23681(15)
H1 H 0.8497 1.0894 0.2809
C2 C 0.8682(2) 1.10006(18) 0.15756(15)
H2 H 0.7841 1.1421 0.1551
C3 C 0.8741(2) 1.03863(19) 0.08140(14)
C4 C 0.6101(2) 1.02384(19) 0.08957(16)
C5 C 0.4971(2) 1.05478(19) 0.04098(16)
H3 H 0.5119 1.0644 -0.0140
C6 C 0.3630(3) 1.07121(19) 0.07397(17)
H4 H 0.2878 1.0901 0.0407
C7 C 0.3402(2) 1.0598(2) 0.15528(17)
H5 H 0.2498 1.0708 0.1770
C8 C 0.4524(2) 1.0318(2) 0.20496(16)
H6 H 0.4378 1.0264 0.2603
C9 C 0.5868(2) 1.01190(18) 0.17233(15)
C10 C 0.9975(2) 0.98499(18) 0.25692(15)
C11 C 1.0831(2) 1.00980(19) 0.32222(15)
H7 H 1.0618 1.0650 0.3516
C12 C 1.2004(2) 0.9539(2) 0.34470(14)
H8 H 1.2563 0.9714 0.3888
C13 C 1.2331(2) 0.8718(2) 0.30077(15)
C14 C 1.1491(2) 0.84633(19) 0.23458(16)
H9 H 1.1714 0.7917 0.2048
C15 C 1.0334(3) 0.9018(2) 0.21329(15)
H10 H 0.9778 0.8840 0.1692
C16 C 1.4270(3) 0.8271(2) 0.38831(18)
H11 H 1.4759 0.8876 0.3843
H12 H 1.4958 0.7763 0.3948
H13 H 1.3639 0.8281 0.4341
C17 C 1.0063(3) 1.22698(18) 0.10483(15)
C18 C 1.1421(3) 1.2825(2) 0.11326(18)
H14 H 1.1928 1.2819 0.0628
H15 H 1.2005 1.2537 0.1544
H16 H 1.1205 1.3477 0.1280
C19 C 0.7529(3) 0.94411(19) -0.01998(16)
H17 H 0.8202 0.9721 -0.0579
H18 H 0.6594 0.9427 -0.0455
C20 C 0.7987(3) 0.8429(2) 0.00015(17)
H19 H 0.8915 0.8448 0.0264
H20 H 0.7308 0.8152 0.0379
C21 C 0.8236(4) 0.6807(2) -0.0463(2)
H21 H 0.9081 0.6741 -0.0138
H22 H 0.8315 0.6405 -0.0932
H23 H 0.7413 0.6618 -0.0154
C22 C 0.9290(3) 0.8087(3) -0.1222(2)
H24 H 0.9164 0.8735 -0.1409
H25 H 0.9345 0.7661 -0.1677
H26 H 1.0159 0.8044 -0.0914
loop_
_geom_bond_atom_site_label_1
_geom_bond_atom_site_label_2
_geom_bond_site_symmetry_1
_geom_bond_site_symmetry_2
S1 C1 1_555 1_555
O1 C13 1_555 1_555
O2 C2 1_555 1_555
O3 C17 1_555 1_555
O4 C3 1_555 1_555
N1 C3 1_555 1_555
N2 C20 1_555 1_555
C1 H1 1_555 1_555
C2 C1 1_555 1_555
H2 C2 1_555 1_555
C3 C2 1_555 1_555
C4 N1 1_555 1_555
C5 C4 1_555 1_555
H3 C5 1_555 1_555
C6 C5 1_555 1_555
H4 C6 1_555 1_555
C7 C6 1_555 1_555
H5 C7 1_555 1_555
C8 C7 1_555 1_555
H6 C8 1_555 1_555
C9 S1 1_555 1_555
C10 C1 1_555 1_555
C11 C10 1_555 1_555
H7 C11 1_555 1_555
C12 C11 1_555 1_555
H8 C12 1_555 1_555
C13 C12 1_555 1_555
C14 C13 1_555 1_555
H9 C14 1_555 1_555
C15 C10 1_555 1_555
H10 C15 1_555 1_555
C16 O1 1_555 1_555
H11 C16 1_555 1_555
H12 C16 1_555 1_555
H13 C16 1_555 1_555
C17 O2 1_555 1_555
C18 C17 1_555 1_555
H14 C18 1_555 1_555
H15 C18 1_555 1_555
H16 C18 1_555 1_555
C19 N1 1_555 1_555
H17 C19 1_555 1_555
H18 C19 1_555 1_555
C20 C19 1_555 1_555
H19 C20 1_555 1_555
H20 C20 1_555 1_555
C21 N2 1_555 1_555
H21 C21 1_555 1_555
H22 C21 1_555 1_555
H23 C21 1_555 1_555
C22 N2 1_555 1_555
H24 C22 1_555 1_555
H25 C22 1_555 1_555
H26 C22 1_555 1_555
C4 C9 1_555 1_555
C8 C9 1_555 1_555
C14 C15 1_555 1_555

#END
