
#######################################################################
#
#                 Cambridge Crystallographic Data Centre
#                                CCDC 
#
#######################################################################
#
# If this CIF has been generated from an entry in the Cambridge 
# Structural Database, then it will include bibliographic, chemical, 
# crystal, experimental, refinement or atomic coordinate data resulting 
# from the CCDC's data processing and validation procedures.
#
#######################################################################

data_GAJKIO
_chemical_name_common            'Diltiazem nicotinate'
_chemical_formula_moiety         'C22 H27 N2 O4 S1 1+,C6 H4 N1 O2 1-'
_chemical_name_systematic        
'2-(3-acetoxy-2-(4-methoxyphenyl)-4-oxo-3,4-dihydro-1,5-benzothiazepin-5(2H)-yl)-N,N-dimethylethanaminium nicotinate'
_symmetry_cell_setting           monoclinic
_symmetry_space_group_name_H-M   'P 21'
_symmetry_Int_Tables_number      4
_space_group_name_Hall           'P 2yb'
loop_
_symmetry_equiv_pos_site_id
_symmetry_equiv_pos_as_xyz
1 x,y,z
2 -x,1/2+y,-z
_cell_length_a                   8.7897(2)
_cell_length_b                   6.17260(10)
_cell_length_c                   25.1531(7)
_cell_angle_alpha                90
_cell_angle_beta                 91.5255(11)
_cell_angle_gamma                90
_cell_volume                     1364.21
_exptl_crystal_colour            colorless
_exptl_crystal_description       plate
_cell_formula_units_Z            2
loop_
_atom_site_label
_atom_site_type_symbol
_atom_site_fract_x
_atom_site_fract_y
_atom_site_fract_z
S1 S 0.60388(9) 0.14628(12) 0.64639(3)
O1 O 0.1642(2) -0.0403(3) 0.43849(7)
O2 O 0.2423(2) 0.5449(3) 0.63662(7)
O3 O 0.1788(2) 0.6368(3) 0.71945(7)
O4 O 0.1859(2) 0.1691(3) 0.68960(7)
N1 N 0.3993(3) 0.2086(3) 0.74148(8)
N2 N 0.1617(3) 0.0359(4) 0.85708(9)
C1 C 0.4690(3) 0.3433(4) 0.61687(10)
H1 H 0.5280 0.4646 0.6029
C2 C 0.3685(3) 0.4313(4) 0.66105(10)
H2 H 0.4285 0.5346 0.6825
C3 C 0.3089(3) 0.2546(4) 0.69805(10)
C4 C 0.5499(3) 0.2890(4) 0.74869(11)
C5 C 0.5961(4) 0.3810(5) 0.79683(11)
H3 H 0.5272 0.3926 0.8241
C6 C 0.7432(4) 0.4555(5) 0.80477(12)
H4 H 0.7730 0.5157 0.8373
C7 C 0.8452(4) 0.4404(5) 0.76452(12)
H5 H 0.9439 0.4920 0.7697
C8 C 0.8019(4) 0.3492(5) 0.71655(12)
H6 H 0.8719 0.3382 0.6896
C9 C 0.6548(3) 0.2737(4) 0.70798(11)
C10 C 0.3869(3) 0.2336(4) 0.57018(10)
C11 C 0.3219(3) 0.0300(4) 0.57440(11)
H7 H 0.3289 -0.0428 0.6067
C12 C 0.2465(3) -0.0679(4) 0.53155(11)
H8 H 0.2036 -0.2046 0.5353
C13 C 0.2357(3) 0.0391(4) 0.48323(11)
C14 C 0.3039(3) 0.2422(4) 0.47790(11)
H9 H 0.2992 0.3134 0.4453
C15 C 0.3783(3) 0.3375(4) 0.52104(10)
H10 H 0.4231 0.4728 0.5172
C16 C 0.0681(4) -0.2251(5) 0.44398(12)
H11 H 0.1295 -0.3510 0.4510
H12 H 0.0093 -0.2463 0.4117
H13 H 0.0009 -0.2022 0.4729
C17 C 0.1518(3) 0.6443(5) 0.67249(10)
C18 C 0.0205(3) 0.7603(5) 0.64652(12)
H14 H -0.0590 0.7777 0.6716
H15 H -0.0171 0.6777 0.6166
H16 H 0.0532 0.9002 0.6346
C19 C 0.3382(3) 0.0600(4) 0.78179(11)
H17 H 0.4205 0.0087 0.8050
H18 H 0.2918 -0.0645 0.7643
C20 C 0.2208(3) 0.1759(5) 0.81445(10)
H19 H 0.2663 0.3046 0.8303
H20 H 0.1368 0.2216 0.7913
C21 C 0.0682(4) -0.1463(5) 0.83605(12)
H21 H -0.0171 -0.0902 0.8158
H22 H 0.0322 -0.2312 0.8651
H23 H 0.1288 -0.2356 0.8136
C22 C 0.0739(4) 0.1663(6) 0.89522(11)
H24 H 0.1394 0.2728 0.9117
H25 H 0.0342 0.0729 0.9220
H26 H -0.0087 0.2376 0.8766
H27 H 0.256(5) -0.023(6) 0.8791(15)
O5 O 0.4101(3) 0.9115(3) 0.90313(8)
O6 O 0.3269(3) 0.5710(4) 0.90070(11)
N3 N 0.8416(3) 0.7267(4) 0.95240(11)
C23 C 0.4260(4) 0.7074(5) 0.91086(11)
C24 C 0.5792(3) 0.6370(5) 0.93273(10)
C25 C 0.7012(4) 0.7789(5) 0.93482(12)
H28 H 0.6845 0.9202 0.9232
C26 C 0.8614(4) 0.5236(6) 0.96975(12)
H29 H 0.9578 0.4834 0.9824
C27 C 0.7475(4) 0.3704(5) 0.97002(12)
H30 H 0.7668 0.2317 0.9829
C28 C 0.6038(4) 0.4265(5) 0.95074(12)
H31 H 0.5254 0.3254 0.9498
loop_
_geom_bond_atom_site_label_1
_geom_bond_atom_site_label_2
_geom_bond_site_symmetry_1
_geom_bond_site_symmetry_2
S1 C1 1_555 1_555
O1 C13 1_555 1_555
O2 C2 1_555 1_555
O3 C17 1_555 1_555
O4 C3 1_555 1_555
N1 C3 1_555 1_555
N2 C20 1_555 1_555
C1 H1 1_555 1_555
C2 C1 1_555 1_555
H2 C2 1_555 1_555
C3 C2 1_555 1_555
C4 N1 1_555 1_555
C5 C4 1_555 1_555
H3 C5 1_555 1_555
C6 C5 1_555 1_555
H4 C6 1_555 1_555
C7 C6 1_555 1_555
H5 C7 1_555 1_555
C8 C7 1_555 1_555
H6 C8 1_555 1_555
C9 S1 1_555 1_555
C10 C1 1_555 1_555
C11 C10 1_555 1_555
H7 C11 1_555 1_555
C12 C11 1_555 1_555
H8 C12 1_555 1_555
C13 C12 1_555 1_555
C14 C13 1_555 1_555
H9 C14 1_555 1_555
C15 C10 1_555 1_555
H10 C15 1_555 1_555
C16 O1 1_555 1_555
H11 C16 1_555 1_555
H12 C16 1_555 1_555
H13 C16 1_555 1_555
C17 O2 1_555 1_555
C18 C17 1_555 1_555
H14 C18 1_555 1_555
H15 C18 1_555 1_555
H16 C18 1_555 1_555
C19 N1 1_555 1_555
H17 C19 1_555 1_555
H18 C19 1_555 1_555
C20 C19 1_555 1_555
H19 C20 1_555 1_555
H20 C20 1_555 1_555
C21 N2 1_555 1_555
H21 C21 1_555 1_555
H22 C21 1_555 1_555
H23 C21 1_555 1_555
C22 N2 1_555 1_555
H24 C22 1_555 1_555
H25 C22 1_555 1_555
H26 C22 1_555 1_555
H27 N2 1_555 1_555
O5 C23 1_555 1_555
O6 C23 1_555 1_555
N3 C25 1_555 1_555
C23 C24 1_555 1_555
C24 C25 1_555 1_555
C25 H28 1_555 1_555
C26 N3 1_555 1_555
H29 C26 1_555 1_555
C27 C26 1_555 1_555
H30 C27 1_555 1_555
C28 C24 1_555 1_555
H31 C28 1_555 1_555
C4 C9 1_555 1_555
C8 C9 1_555 1_555
C14 C15 1_555 1_555
C27 C28 1_555 1_555

#END
