
#######################################################################
#
#                 Cambridge Crystallographic Data Centre
#                                CCDC 
#
#######################################################################
#
# If this CIF has been generated from an entry in the Cambridge 
# Structural Database, then it will include bibliographic, chemical, 
# crystal, experimental, refinement or atomic coordinate data resulting 
# from the CCDC's data processing and validation procedures.
#
#######################################################################

data_GAJKOU
_chemical_name_common            'Diltiazem L-Malate'
_chemical_formula_moiety         'C22 H27 N2 O4 S1 1+,C4 H5 O5 1-'
_chemical_name_systematic        
'2-(3-acetoxy-2-(4-methoxyphenyl)-4-oxo-3,4-dihydro-1,5-benzothiazepin-5(2H)-yl)-N,N-dimethylethanaminium 3-carboxy-2-hydroxypropanoate'
_symmetry_cell_setting           orthorhombic
_symmetry_space_group_name_H-M   'P 21 21 21'
_symmetry_Int_Tables_number      19
_space_group_name_Hall           'P 2ac 2ab'
loop_
_symmetry_equiv_pos_site_id
_symmetry_equiv_pos_as_xyz
1 x,y,z
2 1/2-x,-y,1/2+z
3 -x,1/2+y,1/2-z
4 1/2+x,1/2-y,-z
_cell_length_a                   5.89620(10)
_cell_length_b                   9.0320(2)
_cell_length_c                   50.5074(10)
_cell_angle_alpha                90
_cell_angle_beta                 90
_cell_angle_gamma                90
_cell_volume                     2689.75
_exptl_crystal_colour            colorless
_exptl_crystal_description       plate
_cell_formula_units_Z            4
loop_
_atom_site_label
_atom_site_type_symbol
_atom_site_fract_x
_atom_site_fract_y
_atom_site_fract_z
S1 S 0.1156(2) 0.16250(15) 0.92614(3)
O1 O 0.2909(6) 0.5799(4) 1.03014(7)
O2 O -0.2900(5) 0.5189(4) 0.93079(7)
O3 O -0.3716(5) 0.5951(4) 0.88937(8)
O4 O 0.1051(5) 0.5690(4) 0.90418(7)
N1 N 0.0515(6) 0.3672(4) 0.87819(9)
N2 N 0.2215(6) 0.6196(4) 0.82193(8)
H1 H 0.3027 0.5480 0.8135
C1 C -0.0907(8) 0.2917(5) 0.94062(11)
H2 H -0.2193 0.2333 0.9471
C2 C -0.1794(8) 0.3949(5) 0.91864(11)
H3 H -0.2913 0.3406 0.9081
C3 C 0.0089(8) 0.4510(6) 0.90004(11)
C4 C -0.0331(8) 0.2191(5) 0.87509(12)
C5 C -0.1283(9) 0.1775(6) 0.85089(12)
H4 H -0.1408 0.2466 0.8373
C6 C -0.2037(9) 0.0346(6) 0.84696(13)
H5 H -0.2674 0.0073 0.8308
C7 C -0.1838(9) -0.0684(6) 0.86733(12)
H6 H -0.2341 -0.1650 0.8648
C8 C -0.0891(9) -0.0269(6) 0.89131(13)
H7 H -0.0735 -0.0966 0.9047
C9 C -0.0175(8) 0.1169(5) 0.89549(11)
C10 C 0.0176(8) 0.3667(5) 0.96432(11)
C11 C -0.0903(8) 0.3690(5) 0.98855(11)
H8 H -0.2301 0.3224 0.9904
C12 C 0.0060(8) 0.4399(5) 1.01031(11)
H9 H -0.0680 0.4389 1.0266
C13 C 0.2133(9) 0.5122(5) 1.00766(11)
C14 C 0.3266(8) 0.5076(5) 0.98375(12)
H10 H 0.4678 0.5524 0.9821
C15 C 0.2298(8) 0.4362(6) 0.96234(11)
H11 H 0.3069 0.4343 0.9463
C16 C 0.4776(8) 0.6793(6) 1.02738(13)
H12 H 0.5164 0.7194 1.0444
H13 H 0.4364 0.7584 1.0156
H14 H 0.6055 0.6271 1.0203
C17 C -0.3840(8) 0.6149(6) 0.91286(13)
C18 C -0.5005(8) 0.7406(5) 0.92618(12)
H15 H -0.5557 0.8086 0.9131
H16 H -0.3956 0.7905 0.9376
H17 H -0.6256 0.7037 0.9364
C19 C 0.1996(8) 0.4291(5) 0.85745(10)
H18 H 0.2491 0.3507 0.8457
H19 H 0.3328 0.4731 0.8655
C20 C 0.0726(8) 0.5452(5) 0.84184(10)
H20 H -0.0543 0.4991 0.8328
H21 H 0.0124 0.6189 0.8539
C21 C 0.3862(9) 0.7235(6) 0.83446(11)
H22 H 0.4803 0.7669 0.8210
H23 H 0.4792 0.6703 0.8468
H24 H 0.3050 0.8002 0.8436
C22 C 0.0825(8) 0.6974(6) 0.80160(11)
H25 H -0.0202 0.6283 0.7935
H26 H 0.1803 0.7384 0.7883
H27 H -0.0023 0.7755 0.8099
O5 O 0.7257(6) 0.2688(4) 0.77889(8)
O6 O 0.5669(5) 0.4424(4) 0.80400(8)
O7 O 0.1526(5) 0.3475(4) 0.79576(7)
H28 H 0.0271 0.3229 0.7903
O8 O 0.4151(9) 0.4085(5) 0.71535(10)
O9 O 0.2450(7) 0.5283(4) 0.74691(8)
H29 H 0.2881 0.5343 0.7623
C23 C 0.5561(8) 0.3329(6) 0.78905(12)
C24 C 0.3232(7) 0.2684(6) 0.78167(11)
H30 H 0.3196 0.1656 0.7879
C25 C 0.2819(8) 0.2666(5) 0.75135(10)
H31 H 0.3779 0.1904 0.7437
H32 H 0.1259 0.2369 0.7483
C26 C 0.3225(8) 0.4068(6) 0.73640(12)
loop_
_geom_bond_atom_site_label_1
_geom_bond_atom_site_label_2
_geom_bond_site_symmetry_1
_geom_bond_site_symmetry_2
S1 C1 1_555 1_555
O1 C13 1_555 1_555
O2 C2 1_555 1_555
O3 C17 1_555 1_555
O4 C3 1_555 1_555
N1 C3 1_555 1_555
N2 H1 1_555 1_555
C1 H2 1_555 1_555
C2 C1 1_555 1_555
H3 C2 1_555 1_555
C3 C2 1_555 1_555
C4 N1 1_555 1_555
C5 C4 1_555 1_555
H4 C5 1_555 1_555
C6 C5 1_555 1_555
H5 C6 1_555 1_555
C7 C6 1_555 1_555
H6 C7 1_555 1_555
C8 C7 1_555 1_555
H7 C8 1_555 1_555
C9 S1 1_555 1_555
C10 C1 1_555 1_555
C11 C10 1_555 1_555
H8 C11 1_555 1_555
C12 C11 1_555 1_555
H9 C12 1_555 1_555
C13 C12 1_555 1_555
C14 C13 1_555 1_555
H10 C14 1_555 1_555
C15 C10 1_555 1_555
H11 C15 1_555 1_555
C16 O1 1_555 1_555
H12 C16 1_555 1_555
H13 C16 1_555 1_555
H14 C16 1_555 1_555
C17 O2 1_555 1_555
C18 C17 1_555 1_555
H15 C18 1_555 1_555
H16 C18 1_555 1_555
H17 C18 1_555 1_555
C19 N1 1_555 1_555
H18 C19 1_555 1_555
H19 C19 1_555 1_555
C20 N2 1_555 1_555
H20 C20 1_555 1_555
H21 C20 1_555 1_555
C21 N2 1_555 1_555
H22 C21 1_555 1_555
H23 C21 1_555 1_555
H24 C21 1_555 1_555
C22 N2 1_555 1_555
H25 C22 1_555 1_555
H26 C22 1_555 1_555
H27 C22 1_555 1_555
O5 C23 1_555 1_555
O6 C23 1_555 1_555
O7 H28 1_555 1_555
O8 C26 1_555 1_555
O9 H29 1_555 1_555
C23 C24 1_555 1_555
C24 O7 1_555 1_555
H30 C24 1_555 1_555
C25 C24 1_555 1_555
H31 C25 1_555 1_555
H32 C25 1_555 1_555
C26 O9 1_555 1_555
C4 C9 1_555 1_555
C8 C9 1_555 1_555
C14 C15 1_555 1_555
C19 C20 1_555 1_555
C25 C26 1_555 1_555

#END
