
#######################################################################
#
#                 Cambridge Crystallographic Data Centre
#                                CCDC 
#
#######################################################################
#
# If this CIF has been generated from an entry in the Cambridge 
# Structural Database, then it will include bibliographic, chemical, 
# crystal, experimental, refinement or atomic coordinate data resulting 
# from the CCDC's data processing and validation procedures.
#
#######################################################################

data_GAJPEP
_chemical_formula_moiety         'C24 H22 O2'
_chemical_name_systematic        1,5-Dimethoxy-2,4-bis(1-phenylvinyl)benzene
_symmetry_cell_setting           monoclinic
_symmetry_space_group_name_H-M   'C 2/c'
_symmetry_Int_Tables_number      15
_space_group_name_Hall           '-C 2yn'
loop_
_symmetry_equiv_pos_site_id
_symmetry_equiv_pos_as_xyz
1 x,y,z
2 -x,y,1/2-z
3 1/2+x,1/2+y,z
4 1/2-x,1/2+y,1/2-z
5 -x,-y,-z
6 x,-y,1/2+z
7 1/2-x,1/2-y,-z
8 1/2+x,1/2-y,1/2+z
_cell_length_a                   28.8343(16)
_cell_length_b                   11.4926(6)
_cell_length_c                   23.0676(13)
_cell_angle_alpha                90
_cell_angle_beta                 97.729(3)
_cell_angle_gamma                90
_cell_volume                     7574.72
_exptl_crystal_colour            colorless
_cell_formula_units_Z            16
loop_
_atom_site_label
_atom_site_type_symbol
_atom_site_fract_x
_atom_site_fract_y
_atom_site_fract_z
C1 C 0.56179(8) 0.2113(2) 0.66484(10)
C2 C 0.55993(8) 0.3103(2) 0.69911(10)
H1 H 0.5597 0.3032 0.7392
C3 C 0.55844(8) 0.4187(2) 0.67367(10)
C4 C 0.55810(7) 0.4322(2) 0.61322(10)
C5 C 0.56159(7) 0.3311(2) 0.58103(10)
H2 H 0.5623 0.3383 0.5410
C6 C 0.56412(7) 0.2204(2) 0.60483(10)
C7 C 0.56915(13) 0.0831(3) 0.74697(13)
H3 H 0.5990 0.1157 0.7621
H4 H 0.5693 0.0011 0.7551
H5 H 0.5450 0.1201 0.7652
C8 C 0.56174(10) 0.5147(3) 0.76592(11)
H6 H 0.5366 0.4688 0.7771
H7 H 0.5601 0.5920 0.7813
H8 H 0.5911 0.4799 0.7813
C9 C 0.55578(8) 0.5483(2) 0.58543(10)
C10 C 0.58397(10) 0.5767(3) 0.54694(13)
H9 H 0.6057 0.5232 0.5369
H10 H 0.5820 0.6502 0.5299
C11 C 0.51886(8) 0.6303(2) 0.59928(10)
C12 C 0.47254(9) 0.5965(3) 0.59018(12)
H11 H 0.4647 0.5226 0.5756
C13 C 0.43787(11) 0.6712(4) 0.60253(16)
H12 H 0.4067 0.6479 0.5958
C14 C 0.44888(17) 0.7788(4) 0.62443(17)
H13 H 0.4254 0.8284 0.6334
C15 C 0.49478(17) 0.8142(3) 0.63333(16)
H14 H 0.5023 0.8884 0.6477
C16 C 0.52955(12) 0.7406(3) 0.62107(13)
H15 H 0.5606 0.7651 0.6274
C17 C 0.56864(8) 0.1177(2) 0.56693(10)
C18 C 0.53974(9) 0.1078(3) 0.51796(12)
H16 H 0.5439 0.0484 0.4918
H17 H 0.5152 0.1602 0.5095
C19 C 0.60830(8) 0.0364(2) 0.58244(10)
C20 C 0.60973(9) -0.0704(2) 0.55550(12)
H18 H 0.5838 -0.0954 0.5301
C21 C 0.64862(10) -0.1412(3) 0.56533(15)
H19 H 0.6490 -0.2119 0.5458
C22 C 0.68670(10) -0.1076(3) 0.60373(14)
H20 H 0.7129 -0.1554 0.6105
C23 C 0.68583(9) -0.0036(2) 0.63188(12)
H21 H 0.7114 0.0193 0.6583
C24 C 0.64716(8) 0.0681(2) 0.62146(11)
H22 H 0.6472 0.1389 0.6410
O1 O 0.56066(6) 0.10102(15) 0.68618(7)
O2 O 0.55797(7) 0.51978(16) 0.70437(7)
C25 C 0.69236(8) 0.2979(2) 0.41850(10)
C26 C 0.69544(8) 0.3912(2) 0.45678(11)
H23 H 0.6994 0.3778 0.4969
C27 C 0.69270(8) 0.5039(2) 0.43594(10)
C28 C 0.68409(7) 0.5255(2) 0.37571(10)
C29 C 0.68301(7) 0.4298(2) 0.33862(10)
H24 H 0.6787 0.4432 0.2985
C30 C 0.68794(7) 0.3156(2) 0.35794(10)
C31 C 0.68201(10) 0.1619(2) 0.49356(12)
H25 H 0.7067 0.1899 0.5222
H26 H 0.6783 0.0797 0.4984
H27 H 0.6534 0.2008 0.4986
C32 C 0.72235(11) 0.5900(3) 0.52736(13)
H28 H 0.7030 0.5508 0.5519
H29 H 0.7301 0.6662 0.5429
H30 H 0.7505 0.5462 0.5261
C33 C 0.67773(7) 0.6452(2) 0.35146(10)
C34 C 0.69917(9) 0.6796(2) 0.30717(12)
H31 H 0.7187 0.6286 0.2906
H32 H 0.6947 0.7549 0.2926
C35 C 0.64281(8) 0.72334(19) 0.37360(9)
C36 C 0.60017(8) 0.6796(2) 0.38484(10)
H33 H 0.5951 0.5997 0.3836
C37 C 0.56500(9) 0.7532(3) 0.39785(11)
H34 H 0.5363 0.7225 0.4045
C38 C 0.57208(12) 0.8698(3) 0.40100(12)
H35 H 0.5479 0.9192 0.4082
C39 C 0.61519(12) 0.9149(2) 0.39355(12)
H36 H 0.6207 0.9943 0.3979
C40 C 0.65039(9) 0.8419(2) 0.37965(11)
H37 H 0.6793 0.8728 0.3744
C41 C 0.68820(8) 0.2186(2) 0.31547(10)
C42 C 0.65411(10) 0.2089(3) 0.27084(13)
H38 H 0.6299 0.2630 0.2661
H39 H 0.6544 0.1480 0.2444
C43 C 0.72960(8) 0.1400(2) 0.32177(10)
C44 C 0.77299(8) 0.1782(2) 0.34775(11)
H40 H 0.7757 0.2528 0.3635
C45 C 0.81214(9) 0.1090(2) 0.35097(12)
H41 H 0.8409 0.1377 0.3681
C46 C 0.80911(10) -0.0014(2) 0.32929(12)
H42 H 0.8356 -0.0482 0.3315
C47 C 0.76646(10) -0.0426(2) 0.30414(12)
H43 H 0.7640 -0.1180 0.2895
C48 C 0.72709(9) 0.0267(2) 0.30034(11)
H44 H 0.6984 -0.0028 0.2832
O3 O 0.69334(7) 0.18487(15) 0.43654(8)
O4 O 0.69830(7) 0.60013(16) 0.47104(8)
loop_
_geom_bond_atom_site_label_1
_geom_bond_atom_site_label_2
_geom_bond_site_symmetry_1
_geom_bond_site_symmetry_2
C1 C2 1_555 1_555
C2 H1 1_555 1_555
C3 C2 1_555 1_555
C4 C3 1_555 1_555
C5 C4 1_555 1_555
H2 C5 1_555 1_555
C6 C1 1_555 1_555
C7 H3 1_555 1_555
H4 C7 1_555 1_555
H5 C7 1_555 1_555
C8 H6 1_555 1_555
H7 C8 1_555 1_555
H8 C8 1_555 1_555
C9 C4 1_555 1_555
C10 C9 1_555 1_555
H9 C10 1_555 1_555
H10 C10 1_555 1_555
C11 C9 1_555 1_555
C12 C11 1_555 1_555
H11 C12 1_555 1_555
C13 C12 1_555 1_555
H12 C13 1_555 1_555
C14 C13 1_555 1_555
H13 C14 1_555 1_555
C15 C14 1_555 1_555
H14 C15 1_555 1_555
C16 C11 1_555 1_555
H15 C16 1_555 1_555
C17 C6 1_555 1_555
C18 C17 1_555 1_555
H16 C18 1_555 1_555
H17 C18 1_555 1_555
C19 C17 1_555 1_555
C20 C19 1_555 1_555
H18 C20 1_555 1_555
C21 C20 1_555 1_555
H19 C21 1_555 1_555
C22 C21 1_555 1_555
H20 C22 1_555 1_555
C23 C22 1_555 1_555
H21 C23 1_555 1_555
C24 C19 1_555 1_555
H22 C24 1_555 1_555
O1 C1 1_555 1_555
O2 C3 1_555 1_555
C25 C26 1_555 1_555
C26 H23 1_555 1_555
C27 C26 1_555 1_555
C28 C27 1_555 1_555
C29 C28 1_555 1_555
H24 C29 1_555 1_555
C30 C25 1_555 1_555
C31 H25 1_555 1_555
H26 C31 1_555 1_555
H27 C31 1_555 1_555
C32 H28 1_555 1_555
H29 C32 1_555 1_555
H30 C32 1_555 1_555
C33 C28 1_555 1_555
C34 C33 1_555 1_555
H31 C34 1_555 1_555
H32 C34 1_555 1_555
C35 C33 1_555 1_555
C36 C35 1_555 1_555
H33 C36 1_555 1_555
C37 C36 1_555 1_555
H34 C37 1_555 1_555
C38 C37 1_555 1_555
H35 C38 1_555 1_555
C39 C38 1_555 1_555
H36 C39 1_555 1_555
C40 C35 1_555 1_555
H37 C40 1_555 1_555
C41 C30 1_555 1_555
C42 C41 1_555 1_555
H38 C42 1_555 1_555
H39 C42 1_555 1_555
C43 C41 1_555 1_555
C44 C43 1_555 1_555
H40 C44 1_555 1_555
C45 C44 1_555 1_555
H41 C45 1_555 1_555
C46 C45 1_555 1_555
H42 C46 1_555 1_555
C47 C46 1_555 1_555
H43 C47 1_555 1_555
C48 C43 1_555 1_555
H44 C48 1_555 1_555
O3 C25 1_555 1_555
O4 C27 1_555 1_555
C5 C6 1_555 1_555
C7 O1 1_555 1_555
C8 O2 1_555 1_555
C15 C16 1_555 1_555
C23 C24 1_555 1_555
C29 C30 1_555 1_555
C31 O3 1_555 1_555
C32 O4 1_555 1_555
C39 C40 1_555 1_555
C47 C48 1_555 1_555

#END
