
#######################################################################
#
#                 Cambridge Crystallographic Data Centre
#                                CCDC 
#
#######################################################################
#
# If this CIF has been generated from an entry in the Cambridge 
# Structural Database, then it will include bibliographic, chemical, 
# crystal, experimental, refinement or atomic coordinate data resulting 
# from the CCDC's data processing and validation procedures.
#
#######################################################################

data_GAJPOZ
_chemical_formula_moiety         'C24 H21 F1 O2'
_chemical_name_systematic        
1-(1-(4-Fluorophenyl)vinyl)-2,4-dimethoxy-5-(1-phenylvinyl)benzene
_symmetry_cell_setting           monoclinic
_symmetry_space_group_name_H-M   'P 21/n'
_symmetry_Int_Tables_number      14
_space_group_name_Hall           '-P 2yn'
loop_
_symmetry_equiv_pos_site_id
_symmetry_equiv_pos_as_xyz
1 x,y,z
2 1/2-x,1/2+y,1/2-z
3 -x,-y,-z
4 1/2+x,1/2-y,1/2+z
_cell_length_a                   10.9062(8)
_cell_length_b                   23.0224(16)
_cell_length_c                   15.7346(11)
_cell_angle_alpha                90
_cell_angle_beta                 96.1910(10)
_cell_angle_gamma                90
_cell_volume                     3927.71
_exptl_crystal_colour            colorless
_cell_formula_units_Z            8
loop_
_atom_site_label
_atom_site_type_symbol
_atom_site_fract_x
_atom_site_fract_y
_atom_site_fract_z
C1 C 0.2034(2) 0.46428(11) 0.08799(16)
C2 C 0.2327(2) 0.42558(11) 0.02589(15)
H1 H 0.2257 0.3858 0.0346
C3 C 0.2722(2) 0.44605(11) -0.04898(16)
C4 C 0.2888(2) 0.50515(12) -0.06189(16)
C5 C 0.2563(2) 0.54238(11) 0.00092(17)
H2 H 0.2643 0.5821 -0.0077
C6 C 0.2123(2) 0.52398(11) 0.07607(15)
C7 C 0.1684(4) 0.38812(13) 0.1846(2)
H3 H 0.1150 0.3665 0.1437
H4 H 0.1428 0.3828 0.2406
H5 H 0.2516 0.3746 0.1842
C8 C 0.2874(3) 0.34982(13) -0.10453(19)
H6 H 0.3417 0.3361 -0.0566
H7 H 0.3066 0.3306 -0.1556
H8 H 0.2036 0.3416 -0.0953
C9 C 0.3413(3) 0.52876(12) -0.13839(18)
C10 C 0.2647(3) 0.52914(10) -0.22172(17)
C11 C 0.1399(3) 0.51801(10) -0.22699(17)
H9 H 0.1053 0.5075 -0.1777
C12 C 0.0649(3) 0.52204(12) -0.3030(2)
H10 H -0.0191 0.5142 -0.3052
C13 C 0.1155(5) 0.53747(15) -0.3738(2)
C14 C 0.2381(5) 0.54826(16) -0.3734(2)
H11 H 0.2708 0.5582 -0.4236
C15 C 0.3132(3) 0.54420(13) -0.2972(2)
H12 H 0.3972 0.5516 -0.2962
C16 C 0.1736(3) 0.56684(11) 0.13859(18)
C17 C 0.2422(3) 0.57071(10) 0.22420(17)
C18 C 0.1858(3) 0.58876(12) 0.2946(2)
H13 H 0.1015 0.5962 0.2883
C19 C 0.2517(4) 0.59593(13) 0.3738(2)
H14 H 0.2116 0.6082 0.4200
C20 C 0.3739(5) 0.58529(14) 0.3846(3)
C21 C 0.4325(3) 0.56700(13) 0.3165(2)
H15 H 0.5169 0.5597 0.3238
C22 C 0.3667(3) 0.55928(11) 0.23707(19)
H16 H 0.4073 0.5462 0.1917
C23 C 0.4523(3) 0.55172(15) -0.1270(2)
H17 H 0.4857 0.5691 -0.1726
H18 H 0.4974 0.5505 -0.0734
C24 C 0.0833(3) 0.60357(14) 0.1141(2)
H19 H 0.0622 0.6324 0.1513
H20 H 0.0409 0.6005 0.0598
F1 F 0.0414(3) 0.54586(11) -0.44790(15)
H21 H 0.4206 0.5905 0.4408
O1 O 0.16217(18) 0.44750(8) 0.16312(11)
O2 O 0.30267(19) 0.41065(8) -0.11355(11)
C25 C 0.3919(2) 0.26905(10) 0.60082(15)
C26 C 0.3136(2) 0.31659(11) 0.60110(16)
C27 C 0.3051(2) 0.35683(10) 0.53569(16)
H23 H 0.2523 0.3885 0.5370
C28 C 0.3752(3) 0.34990(11) 0.46826(17)
C29 C 0.1592(3) 0.36519(16) 0.6720(2)
H24 H 0.2010 0.4018 0.6707
H25 H 0.1200 0.3624 0.7236
H26 H 0.0981 0.3624 0.6235
C30 C 0.2912(4) 0.43572(13) 0.3998(2)
H27 H 0.2087 0.4214 0.4006
H28 H 0.2964 0.4577 0.3485
H29 H 0.3121 0.4602 0.4486
C31 C 0.3973(2) 0.22269(11) 0.66709(17)
C32 C 0.4583(2) 0.23435(11) 0.75349(16)
C33 C 0.5246(3) 0.28473(13) 0.77129(18)
H30 H 0.5276 0.3122 0.7283
C34 C 0.5865(3) 0.29561(15) 0.8506(2)
H31 H 0.6297 0.3302 0.8605
C35 C 0.5845(4) 0.25553(19) 0.9150(3)
C36 C 0.5179(4) 0.20580(17) 0.8989(2)
H32 H 0.5146 0.1787 0.9425
C37 C 0.4557(3) 0.19479(12) 0.8201(2)
H33 H 0.4112 0.1605 0.8111
C38 C 0.5415(3) 0.29762(11) 0.39813(19)
C39 C 0.4889(3) 0.28803(11) 0.30909(18)
C40 C 0.5537(3) 0.30149(15) 0.2411(2)
H34 H 0.6305 0.3192 0.2516
C41 C 0.5079(4) 0.28942(18) 0.1588(2)
H35 H 0.5531 0.2988 0.1138
C42 C 0.3977(5) 0.26409(16) 0.1435(2)
C43 C 0.3261(3) 0.25111(13) 0.2071(2)
H36 H 0.2486 0.2344 0.1950
C44 C 0.3733(3) 0.26378(12) 0.2899(2)
H37 H 0.3259 0.2557 0.3342
C45 C 0.4626(2) 0.26461(10) 0.53290(16)
H38 H 0.5166 0.2334 0.5323
C46 C 0.4575(2) 0.30376(11) 0.46601(16)
C47 C 0.6618(3) 0.29672(14) 0.4208(2)
H39 H 0.7157 0.2899 0.3800
H40 H 0.6924 0.3029 0.4775
C48 C 0.3512(3) 0.17135(13) 0.6433(2)
H41 H 0.3566 0.1406 0.6819
H42 H 0.3135 0.1660 0.5880
F3 F 0.3555(3) 0.25092(16) 0.06781(19)
H43 H 0.6300 0.2627 0.9709
O3 O 0.24578(18) 0.31945(8) 0.66934(12)
O4 O 0.37408(19) 0.38856(8) 0.40216(12)
F2? F 0.4208(19) 0.5769(8) 0.4634(10)
H22? H 0.0625 0.5412 -0.4271
F4? F 0.6355(6) 0.2708(3) 0.9822(4)
H44? H 0.3665 0.2545 0.0848
loop_
_geom_bond_atom_site_label_1
_geom_bond_atom_site_label_2
_geom_bond_site_symmetry_1
_geom_bond_site_symmetry_2
C1 C2 1_555 1_555
C2 H1 1_555 1_555
C3 C2 1_555 1_555
C4 C3 1_555 1_555
C5 C4 1_555 1_555
H2 C5 1_555 1_555
C6 C1 1_555 1_555
C7 H3 1_555 1_555
H4 C7 1_555 1_555
H5 C7 1_555 1_555
C8 H6 1_555 1_555
H7 C8 1_555 1_555
H8 C8 1_555 1_555
C9 C4 1_555 1_555
C10 C9 1_555 1_555
C11 C10 1_555 1_555
H9 C11 1_555 1_555
C12 C11 1_555 1_555
H10 C12 1_555 1_555
C13 C12 1_555 1_555
C14 C13 1_555 1_555
H11 C14 1_555 1_555
C15 C10 1_555 1_555
H12 C15 1_555 1_555
C16 C6 1_555 1_555
C17 C16 1_555 1_555
C18 C17 1_555 1_555
H13 C18 1_555 1_555
C19 C18 1_555 1_555
H14 C19 1_555 1_555
C20 C19 1_555 1_555
C21 C20 1_555 1_555
H15 C21 1_555 1_555
C22 C17 1_555 1_555
H16 C22 1_555 1_555
C23 C9 1_555 1_555
H17 C23 1_555 1_555
H18 C23 1_555 1_555
C24 C16 1_555 1_555
H19 C24 1_555 1_555
H20 C24 1_555 1_555
F1 C13 1_555 1_555
H21 C20 1_555 1_555
O1 C1 1_555 1_555
O2 C3 1_555 1_555
C25 C26 1_555 1_555
C26 C27 1_555 1_555
C27 H23 1_555 1_555
C28 C27 1_555 1_555
C29 H24 1_555 1_555
H25 C29 1_555 1_555
H26 C29 1_555 1_555
C30 H27 1_555 1_555
H28 C30 1_555 1_555
H29 C30 1_555 1_555
C31 C25 1_555 1_555
C32 C31 1_555 1_555
C33 C32 1_555 1_555
H30 C33 1_555 1_555
C34 C33 1_555 1_555
H31 C34 1_555 1_555
C35 C34 1_555 1_555
C36 C35 1_555 1_555
H32 C36 1_555 1_555
C37 C32 1_555 1_555
H33 C37 1_555 1_555
C38 C39 1_555 1_555
C39 C40 1_555 1_555
C40 H34 1_555 1_555
C41 C40 1_555 1_555
H35 C41 1_555 1_555
C42 C41 1_555 1_555
C43 C42 1_555 1_555
H36 C43 1_555 1_555
C44 C39 1_555 1_555
H37 C44 1_555 1_555
C45 C25 1_555 1_555
H38 C45 1_555 1_555
C46 C28 1_555 1_555
C47 C38 1_555 1_555
H39 C47 1_555 1_555
H40 C47 1_555 1_555
C48 C31 1_555 1_555
H41 C48 1_555 1_555
H42 C48 1_555 1_555
F3 C42 1_555 1_555
H43 C35 1_555 1_555
O3 C26 1_555 1_555
O4 C28 1_555 1_555
C5 C6 1_555 1_555
C7 O1 1_555 1_555
C8 O2 1_555 1_555
C14 C15 1_555 1_555
C21 C22 1_555 1_555
C29 O3 1_555 1_555
C30 O4 1_555 1_555
C36 C37 1_555 1_555
C38 C46 1_555 1_555
C43 C44 1_555 1_555
C45 C46 1_555 1_555

#END
