
#######################################################################
#
#                 Cambridge Crystallographic Data Centre
#                                CCDC 
#
#######################################################################
#
# If this CIF has been generated from an entry in the Cambridge 
# Structural Database, then it will include bibliographic, chemical, 
# crystal, experimental, refinement or atomic coordinate data resulting 
# from the CCDC's data processing and validation procedures.
#
#######################################################################

data_GAJSOZ
_chemical_formula_moiety         'C24 H41 N1 O7'
_chemical_name_systematic        
(4S)-3-((2S,3R,4S)-3-Methoxy-2-methyl-4-((5R,7R,8R,9S)-9-hydroxy-2,2,8-trimethyl-1,6-dioxaspiro(4.5)dec-7-yl)pentanoyl)-4-isopropyloxazolidin-2-one
_symmetry_cell_setting           orthorhombic
_symmetry_space_group_name_H-M   'P 21 21 21'
_symmetry_Int_Tables_number      19
_space_group_name_Hall           'P 2ac 2ab'
loop_
_symmetry_equiv_pos_site_id
_symmetry_equiv_pos_as_xyz
1 x,y,z
2 1/2+x,1/2-y,-z
3 -x,1/2+y,1/2-z
4 1/2-x,-y,1/2+z
_cell_length_a                   10.7836(23)
_cell_length_b                   14.2153(28)
_cell_length_c                   16.9969(33)
_cell_angle_alpha                90
_cell_angle_beta                 90
_cell_angle_gamma                90
_cell_volume                     2605.49
_chemical_melting_point          124-125deg.C
_cell_formula_units_Z            4
loop_
_atom_site_label
_atom_site_type_symbol
_atom_site_fract_x
_atom_site_fract_y
_atom_site_fract_z
O1 O 0.2249(1) -0.0808(1) 0.5974(1)
O2 O 0.5480(1) -0.1213(1) 0.7234(1)
O3 O 0.6082(1) -0.1465(1) 0.4475(1)
O4 O 0.2936(1) -0.1521(1) 0.3882(1)
O5 O 0.5160(1) -0.0659(1) 0.3428(1)
O6 O 0.4463(2) 0.1615(1) 0.5798(1)
O7 O 0.3252(2) 0.1837(1) 0.4766(1)
N1 N 0.2880(1) 0.0563(1) 0.5469(1)
C1 C 0.3014(2) -0.0185(1) 0.5991(1)
C2 C 0.4060(2) -0.0208(1) 0.6588(1)
C3 C 0.4779(2) -0.1130(1) 0.6524(1)
C4 C 0.5671(2) -0.1212(1) 0.5816(1)
C5 C 0.5063(2) -0.1363(1) 0.5015(1)
C6 C 0.4188(2) -0.2198(1) 0.4934(1)
C7 C 0.3760(2) -0.2268(1) 0.4080(1)
C8 C 0.4857(2) -0.2312(1) 0.3529(1)
C9 C 0.5751(2) -0.1514(1) 0.3666(1)
C10 C 0.6952(2) -0.1536(2) 0.3214(1)
C11 C 0.7289(2) -0.0504(2) 0.3177(2)
C12 C 0.6073(2) 0.0005(1) 0.3113(1)
C13 C 0.6018(3) 0.0885(2) 0.3616(2)
C14 C 0.5683(3) 0.0230(2) 0.2291(2)
C15 C 0.1843(2) 0.0587(1) 0.4920(1)
C16 C 0.2305(3) 0.1336(2) 0.4350(2)
C17 C 0.3619(2) 0.1350(2) 0.5391(2)
C18 C 0.0611(2) 0.0816(2) 0.5311(2)
C19 C -0.0425(2) 0.0852(2) 0.4707(2)
C20 C 0.0657(3) 0.1700(2) 0.5803(2)
C21 C 0.3452(3) -0.0063(2) 0.7397(2)
C22 C 0.5708(3) -0.2143(2) 0.7476(2)
C23 C 0.6575(2) -0.0389(2) 0.5791(2)
C24 C 0.4751(2) -0.3122(1) 0.5220(2)
H1 H 0.3307(20) -0.1156(14) 0.3674(14)
H2 H 0.4662 0.0278 0.6499
H3 H 0.4182 -0.1622 0.6444
H4 H 0.6113 -0.1787 0.5913
H5 H 0.4526 -0.0836 0.4917
H6 H 0.3488 -0.2090 0.5271
H7 H 0.3304 -0.2844 0.4022
H8 H 0.4562 -0.2281 0.2997
H9 H 0.5284 -0.2897 0.3609
H10 H 0.7573 -0.1892 0.3488
H11 H 0.6836 -0.1793 0.2697
H12 H 0.7798 -0.0378 0.2726
H13 H 0.7721 -0.0317 0.3646
H14 H 0.6607 0.1336 0.3424
H15 H 0.6214 0.0727 0.4151
H16 H 0.5199 0.1148 0.3592
H17 H 0.6258 0.0667 0.2063
H18 H 0.4869 0.0503 0.2298
H19 H 0.5670 -0.0337 0.1984
H20 H 0.1649 -0.0003 0.4674
H21 H 0.1642 0.1753 0.4206
H22 H 0.2640 0.1049 0.3885
H23 H 0.0438 0.0313 0.5671
H24 H -0.1197 0.0978 0.4966
H25 H -0.0475 0.0259 0.4438
H26 H -0.0256 0.1342 0.4333
H27 H 0.1289 0.1638 0.6197
H28 H -0.0132 0.1794 0.6053
H29 H 0.0841 0.2229 0.5472
H30 H 0.4082 -0.0045 0.7795
H31 H 0.2893 -0.0573 0.7502
H32 H 0.3002 0.0520 0.7398
H33 H 0.6196 -0.2137 0.7949
H34 H 0.6150 -0.2471 0.7070
H35 H 0.4934 -0.2455 0.7576
H36 H 0.6967 -0.0322 0.6296
H37 H 0.6134 0.0177 0.5665
H38 H 0.7195 -0.0306 0.5398
H39 H 0.5015 -0.3054 0.5757
H40 H 0.5451 -0.3281 0.4897
H41 H 0.4142 -0.3613 0.5186
loop_
_geom_bond_atom_site_label_1
_geom_bond_atom_site_label_2
_geom_bond_site_symmetry_1
_geom_bond_site_symmetry_2
O1 C1 1_555 1_555
O2 C3 1_555 1_555
O3 C5 1_555 1_555
O4 C7 1_555 1_555
O5 C9 1_555 1_555
O6 C17 1_555 1_555
O7 C16 1_555 1_555
N1 C1 1_555 1_555
C1 C2 1_555 1_555
C2 C3 1_555 1_555
C3 C4 1_555 1_555
C4 C5 1_555 1_555
C5 C6 1_555 1_555
C6 C7 1_555 1_555
C7 C8 1_555 1_555
C8 C9 1_555 1_555
C9 O3 1_555 1_555
C10 C9 1_555 1_555
C11 C10 1_555 1_555
C12 O5 1_555 1_555
C13 C12 1_555 1_555
C14 C12 1_555 1_555
C15 N1 1_555 1_555
C16 C15 1_555 1_555
C17 O7 1_555 1_555
C18 C15 1_555 1_555
C19 C18 1_555 1_555
C20 C18 1_555 1_555
C21 C2 1_555 1_555
C22 O2 1_555 1_555
C23 C4 1_555 1_555
C24 C6 1_555 1_555
H1 O4 1_555 1_555
H2 C2 1_555 1_555
H3 C3 1_555 1_555
H4 C4 1_555 1_555
H5 C5 1_555 1_555
H6 C6 1_555 1_555
H7 C7 1_555 1_555
H8 C8 1_555 1_555
H9 C8 1_555 1_555
H10 C10 1_555 1_555
H11 C10 1_555 1_555
H12 C11 1_555 1_555
H13 C11 1_555 1_555
H14 C13 1_555 1_555
H15 C13 1_555 1_555
H16 C13 1_555 1_555
H17 C14 1_555 1_555
H18 C14 1_555 1_555
H19 C14 1_555 1_555
H20 C15 1_555 1_555
H21 C16 1_555 1_555
H22 C16 1_555 1_555
H23 C18 1_555 1_555
H24 C19 1_555 1_555
H25 C19 1_555 1_555
H26 C19 1_555 1_555
H27 C20 1_555 1_555
H28 C20 1_555 1_555
H29 C20 1_555 1_555
H30 C21 1_555 1_555
H31 C21 1_555 1_555
H32 C21 1_555 1_555
H33 C22 1_555 1_555
H34 C22 1_555 1_555
H35 C22 1_555 1_555
H36 C23 1_555 1_555
H37 C23 1_555 1_555
H38 C23 1_555 1_555
H39 C24 1_555 1_555
H40 C24 1_555 1_555
H41 C24 1_555 1_555
N1 C17 1_555 1_555
C11 C12 1_555 1_555

#END
