
#######################################################################
#
#                 Cambridge Crystallographic Data Centre
#                                CCDC 
#
#######################################################################
#
# If this CIF has been generated from an entry in the Cambridge 
# Structural Database, then it will include bibliographic, chemical, 
# crystal, experimental, refinement or atomic coordinate data resulting 
# from the CCDC's data processing and validation procedures.
#
#######################################################################

data_GAJWOG
_chemical_formula_moiety         'C55 H50 N4 O20,C6 H14,2(C1 H1 Cl3)'
_chemical_name_systematic        
'5-((34-(5-hydroxy-2,4-dinitrophenoxy)-9,14,19,24,26,28,30,32-octamethoxyhexacyclo[21.2.2.2^3,6^.2^8,11^.2^13,16^.2^18,21^]pentatriaconta-1(25),3,5,8,10,13,15,18,20,23,26,28,30,32,34-pentadecaen-4-yl)oxy)-2,4-dinitrophenol chloroform n-hexane solvate'
_symmetry_cell_setting           monoclinic
_symmetry_space_group_name_H-M   'C 2/c'
_symmetry_Int_Tables_number      15
_space_group_name_Hall           '-C 2yn'
loop_
_symmetry_equiv_pos_site_id
_symmetry_equiv_pos_as_xyz
1 x,y,z
2 -x,y,1/2-z
3 1/2+x,1/2+y,z
4 1/2-x,1/2+y,1/2-z
5 -x,-y,-z
6 x,-y,1/2+z
7 1/2-x,1/2-y,-z
8 1/2+x,1/2-y,1/2+z
_cell_length_a                   24.236(3)
_cell_length_b                   15.7969(10)
_cell_length_c                   20.4001(19)
_cell_angle_alpha                90
_cell_angle_beta                 122.480(14)
_cell_angle_gamma                90
_cell_volume                     6588.57
_exptl_crystal_colour            yellow
_exptl_crystal_description       block
_cell_formula_units_Z            4
loop_
_atom_site_label
_atom_site_type_symbol
_atom_site_fract_x
_atom_site_fract_y
_atom_site_fract_z
Cl1 Cl 0.1710(2) 0.7672(3) 1.23476(16)
Cl2 Cl 0.12810(15) 0.9150(4) 1.1362(3)
Cl3 Cl 0.04038(14) 0.8347(2) 1.1671(2)
C29 C 0.1217(3) 0.8611(5) 1.2034(4)
H26 H 0.1373 0.8987 1.2496
O1 O 0.26718(13) 0.13187(16) 1.13036(15)
O2 O 0.19048(16) 0.05723(16) 1.04084(16)
O3 O 0.10019(13) 0.12743(14) 0.90776(14)
H1 H 0.1204 0.0847 0.9345
O4 O 0.10693(9) 0.42440(11) 0.90127(10)
O5 O 0.19015(13) 0.49531(16) 1.03666(15)
O6 O 0.27825(12) 0.42691(17) 1.10620(17)
O7 O 0.06524(10) 0.70170(13) 1.01382(11)
O8 O -0.14398(10) 0.50326(15) 0.80383(13)
O9 O 0.09773(11) 0.94944(13) 0.90164(12)
O10 O -0.15437(11) 0.83936(16) 0.79099(14)
N1 N 0.21735(14) 0.12545(17) 1.06749(15)
N2 N 0.22090(12) 0.43016(16) 1.05447(14)
C1 C 0.18849(13) 0.35208(18) 1.01485(15)
C2 C 0.21532(13) 0.27769(19) 1.05438(16)
H2 H 0.2538 0.2793 1.1050
C3 C 0.18700(14) 0.20071(18) 1.02146(16)
C4 C 0.13159(15) 0.19694(19) 0.94598(17)
C5 C 0.10566(14) 0.27311(18) 0.90629(16)
H3 H 0.0684 0.2713 0.8548
C6 C 0.13183(13) 0.35023(17) 0.93864(15)
C7 C 0.05154(13) 0.42074(16) 0.82428(14)
C8 C 0.06262(13) 0.42052(16) 0.76476(15)
H4 H 0.1062 0.4194 0.7764
C9 C -0.01046(13) 0.42189(16) 0.81234(15)
C10 C -0.02146(15) 0.42751(18) 0.87854(16)
H5 H -0.0605 0.3937 0.8655
H6 H 0.0167 0.4031 0.9260
C11 C -0.03123(14) 0.51799(18) 0.89449(15)
C12 C -0.09298(14) 0.5550(2) 0.85596(16)
C13 C -0.10084(14) 0.6383(2) 0.87072(16)
H7 H -0.1435 0.6621 0.8446
C14 C -0.04769(14) 0.68786(19) 0.92294(16)
C15 C 0.01436(14) 0.65072(18) 0.96132(15)
C16 C 0.02215(14) 0.56717(18) 0.94707(15)
H8 H 0.0647 0.5430 0.9737
C17 C 0.12927(16) 0.6692(2) 1.04702(19)
H9 H 0.1354 0.6503 1.0056
H10 H 0.1356 0.6212 1.0808
H11 H 0.1612 0.7135 1.0776
C18 C -0.20690(16) 0.5400(3) 0.7587(2)
H12 H -0.2374 0.4987 0.7206
H13 H -0.2048 0.5899 0.7316
H14 H -0.2220 0.5569 0.7927
C19 C -0.05647(16) 0.7800(2) 0.93680(18)
H15 H -0.1019 0.7888 0.9232
H16 H -0.0267 0.7932 0.9927
C20 C -0.04263(15) 0.84033(18) 0.88945(16)
C21 C -0.09226(15) 0.86763(19) 0.81598(17)
C22 C -0.07825(16) 0.92023(18) 0.77273(17)
H17 H -0.1128 0.9387 0.7230
C23 C -0.01460(15) 0.94687(17) 0.80031(17)
C24 C 0.03464(15) 0.92049(18) 0.87388(17)
C25 C 0.02027(15) 0.86869(18) 0.91741(17)
H18 H 0.0546 0.8521 0.9680
C26 C 0.14911(18) 0.8935(2) 0.9499(2)
H19 H 0.1381 0.8365 0.9274
H20 H 0.1556 0.8923 1.0016
H21 H 0.1894 0.9126 0.9542
C27 C -0.20549(19) 0.8646(4) 0.7162(3)
H22 H -0.1985 0.8402 0.6771
H23 H -0.2061 0.9265 0.7125
H24 H -0.2474 0.8447 0.7070
C28 C 0.0000 1.0009(3) 0.7500
H25 H -0.0380 1.0378 0.7164
O1A O -0.26718(13) 0.13187(16) 0.36964(15)
O2A O -0.19048(16) 0.05723(16) 0.45916(16)
O3A O -0.10019(13) 0.12743(14) 0.59224(14)
H1A H -0.1204 0.0847 0.5655
O4A O -0.10693(9) 0.42440(11) 0.59873(10)
O5A O -0.19015(13) 0.49531(16) 0.46334(15)
O6A O -0.27825(12) 0.42691(17) 0.39380(17)
O7A O -0.06524(10) 0.70170(13) 0.48618(11)
O8A O 0.14398(10) 0.50326(15) 0.69617(13)
O9A O -0.09773(11) 0.94944(13) 0.59836(12)
O10A O 0.15437(11) 0.83936(16) 0.70901(14)
N1A N -0.21735(14) 0.12545(17) 0.43251(15)
N2A N -0.22090(12) 0.43016(16) 0.44553(14)
C1A C -0.18849(13) 0.35208(18) 0.48515(15)
C2A C -0.21532(13) 0.27769(19) 0.44562(16)
H2A H -0.2538 0.2793 0.3950
C3A C -0.18700(14) 0.20071(18) 0.47854(16)
C4A C -0.13159(15) 0.19694(19) 0.55402(17)
C5A C -0.10566(14) 0.27311(18) 0.59371(16)
H3A H -0.0684 0.2713 0.6452
C6A C -0.13183(13) 0.35023(17) 0.56136(15)
C7A C -0.05154(13) 0.42074(16) 0.67572(14)
C8A C -0.06262(13) 0.42052(16) 0.73524(15)
H4A H -0.1062 0.4194 0.7236
C9A C 0.01046(13) 0.42189(16) 0.68766(15)
C10A C 0.02146(15) 0.42751(18) 0.62146(16)
H5A H 0.0605 0.3937 0.6345
H6A H -0.0167 0.4031 0.5740
C11A C 0.03123(14) 0.51799(18) 0.60551(15)
C12A C 0.09298(14) 0.5550(2) 0.64404(16)
C13A C 0.10084(14) 0.6383(2) 0.62928(16)
H7A H 0.1435 0.6621 0.6554
C14A C 0.04769(14) 0.68786(19) 0.57706(16)
C15A C -0.01436(14) 0.65072(18) 0.53868(15)
C16A C -0.02215(14) 0.56717(18) 0.55293(15)
H8A H -0.0647 0.5430 0.5263
C17A C -0.12927(16) 0.6692(2) 0.45298(19)
H9A H -0.1354 0.6503 0.4944
H10A H -0.1356 0.6212 0.4192
H11A H -0.1612 0.7135 0.4224
C18A C 0.20690(16) 0.5400(3) 0.7413(2)
H12A H 0.2374 0.4987 0.7794
H13A H 0.2048 0.5899 0.7684
H14A H 0.2220 0.5569 0.7073
C19A C 0.05647(16) 0.7800(2) 0.56320(18)
H15A H 0.1019 0.7888 0.5768
H16A H 0.0267 0.7932 0.5073
C20A C 0.04263(15) 0.84033(18) 0.61055(16)
C21A C 0.09226(15) 0.86763(19) 0.68402(17)
C22A C 0.07825(16) 0.92023(18) 0.72727(17)
H17A H 0.1128 0.9387 0.7770
C23A C 0.01460(15) 0.94687(17) 0.69969(17)
C24A C -0.03464(15) 0.92049(18) 0.62612(17)
C25A C -0.02027(15) 0.86869(18) 0.58259(17)
H18A H -0.0546 0.8521 0.5320
C26A C -0.14911(18) 0.8935(2) 0.5501(2)
H19A H -0.1381 0.8365 0.5726
H20A H -0.1556 0.8923 0.4984
H21A H -0.1894 0.9126 0.5458
C27A C 0.20549(19) 0.8646(4) 0.7838(3)
H22A H 0.1985 0.8402 0.8229
H23A H 0.2061 0.9265 0.7875
H24A H 0.2474 0.8447 0.7930
H25A H 0.0380 1.0378 0.7836
H27? H -0.0380 1.0378 0.7164
Cl4? Cl 0.0758(4) 0.8136(4) 1.2260(5)
C30? C 0.1083(7) 0.8118(10) 1.1706(9)
H28? H 0.0882 0.7654 1.1312
Cl5? Cl 0.0994(6) 0.9093(7) 1.1249(6)
Cl6? Cl 0.1894(5) 0.7982(8) 1.2278(6)
C31? C 0.0000 0.6480(4) 0.7500
C32? C 0.0624(3) 0.6959(3) 0.7988(3)
C33? C 0.1224(3) 0.6425(4) 0.8423(3)
C34? C 0.1872(5) 0.6710(7) 0.8873(6)
loop_
_geom_bond_atom_site_label_1
_geom_bond_atom_site_label_2
_geom_bond_site_symmetry_1
_geom_bond_site_symmetry_2
O1 N1 1_555 1_555
O2 N1 1_555 1_555
O3 H1 1_555 1_555
O4 C6 1_555 1_555
O5 N2 1_555 1_555
O6 N2 1_555 1_555
O7 C15 1_555 1_555
O8 C12 1_555 1_555
O9 C24 1_555 1_555
O10 C21 1_555 1_555
N1 C3 1_555 1_555
N2 C1 1_555 1_555
C1 C2 1_555 1_555
C2 H2 1_555 1_555
C3 C2 1_555 1_555
C4 O3 1_555 1_555
C5 C4 1_555 1_555
H3 C5 1_555 1_555
C6 C1 1_555 1_555
C7 O4 1_555 1_555
C8 C7 1_555 1_555
H4 C8 1_555 1_555
C9 C7 1_555 1_555
C10 C9 1_555 1_555
H5 C10 1_555 1_555
H6 C10 1_555 1_555
C11 C10 1_555 1_555
C12 C11 1_555 1_555
C13 C12 1_555 1_555
H7 C13 1_555 1_555
C14 C13 1_555 1_555
C15 C14 1_555 1_555
C16 C11 1_555 1_555
H8 C16 1_555 1_555
C17 O7 1_555 1_555
H9 C17 1_555 1_555
H10 C17 1_555 1_555
H11 C17 1_555 1_555
C18 O8 1_555 1_555
H12 C18 1_555 1_555
H13 C18 1_555 1_555
H14 C18 1_555 1_555
C19 C14 1_555 1_555
H15 C19 1_555 1_555
H16 C19 1_555 1_555
C20 C19 1_555 1_555
C21 C20 1_555 1_555
C22 C21 1_555 1_555
H17 C22 1_555 1_555
C23 C22 1_555 1_555
C24 C23 1_555 1_555
C25 C20 1_555 1_555
H18 C25 1_555 1_555
C26 O9 1_555 1_555
H19 C26 1_555 1_555
H20 C26 1_555 1_555
H21 C26 1_555 1_555
C27 O10 1_555 1_555
H22 C27 1_555 1_555
H23 C27 1_555 1_555
H24 C27 1_555 1_555
C28 C23 1_555 1_555
H25 C28 1_555 1_555
Cl1 C29 1_555 1_555
Cl2 C29 1_555 1_555
Cl3 C29 1_555 1_555
C29 H26 1_555 1_555
O1A N1A 1_555 1_555
O2A N1A 1_555 1_555
O3A H1A 1_555 1_555
O4A C6A 1_555 1_555
O5A N2A 1_555 1_555
O6A N2A 1_555 1_555
O7A C15A 1_555 1_555
O8A C12A 1_555 1_555
O9A C24A 1_555 1_555
O10A C21A 1_555 1_555
N1A C3A 1_555 1_555
N2A C1A 1_555 1_555
C1A C2A 1_555 1_555
C2A H2A 1_555 1_555
C3A C2A 1_555 1_555
C4A O3A 1_555 1_555
C5A C4A 1_555 1_555
H3A C5A 1_555 1_555
C6A C1A 1_555 1_555
C7A O4A 1_555 1_555
C8A C9 1_555 1_555
H4A C8A 1_555 1_555
C9A C8 1_555 1_555
C10A C9A 1_555 1_555
H5A C10A 1_555 1_555
H6A C10A 1_555 1_555
C11A C10A 1_555 1_555
C12A C11A 1_555 1_555
C13A C12A 1_555 1_555
H7A C13A 1_555 1_555
C14A C13A 1_555 1_555
C15A C14A 1_555 1_555
C16A C11A 1_555 1_555
H8A C16A 1_555 1_555
C17A O7A 1_555 1_555
H9A C17A 1_555 1_555
H10A C17A 1_555 1_555
H11A C17A 1_555 1_555
C18A O8A 1_555 1_555
H12A C18A 1_555 1_555
H13A C18A 1_555 1_555
H14A C18A 1_555 1_555
C19A C14A 1_555 1_555
H15A C19A 1_555 1_555
H16A C19A 1_555 1_555
C20A C19A 1_555 1_555
C21A C20A 1_555 1_555
C22A C21A 1_555 1_555
H17A C22A 1_555 1_555
C23A C28 1_555 1_555
C24A C23A 1_555 1_555
C25A C20A 1_555 1_555
H18A C25A 1_555 1_555
C26A O9A 1_555 1_555
H19A C26A 1_555 1_555
H20A C26A 1_555 1_555
H21A C26A 1_555 1_555
C27A O10A 1_555 1_555
H22A C27A 1_555 1_555
H23A C27A 1_555 1_555
H24A C27A 1_555 1_555
H25A C28 1_555 1_555
C3 C4 1_555 1_555
C5 C6 1_555 1_555
C15 C16 1_555 1_555
C24 C25 1_555 1_555
C3A C4A 1_555 1_555
C5A C6A 1_555 1_555
C7A C8A 1_555 1_555
C7A C9A 1_555 1_555
C15A C16A 1_555 1_555
C22A C23A 1_555 1_555
C24A C25A 1_555 1_555

#END
