
#######################################################################
#
#                 Cambridge Crystallographic Data Centre
#                                CCDC 
#
#######################################################################
#
# If this CIF has been generated from an entry in the Cambridge 
# Structural Database, then it will include bibliographic, chemical, 
# crystal, experimental, refinement or atomic coordinate data resulting 
# from the CCDC's data processing and validation procedures.
#
#######################################################################

data_GAKCEC
_chemical_name_common            
"bis(mu!2$-tris(1-Methyl-2-(4-dimethylamino-2-oxidobenzylidene)hydrazino)phosphine sulfide-N,N',N'',O,O,O',O',O'',O'')-tri-magnesium(ii) methanol solvate"
_chemical_formula_moiety         'C72 H102 Mg3 N18 O6 P2 S2,2(C1 H4 O1)'
_chemical_name_systematic        
"bis(\m~2~-N''',N'''',N'''''-tris(4-(Diethylamino)-2-oxidobenzylidene)-N,N',N''-trimethylphosphorothioic trihydrazido-N,N',N'',O,O,O',O',O'',O'')-tri-magnesium(ii) methanol solvate"
_symmetry_cell_setting           triclinic
_symmetry_space_group_name_H-M   'P -1'
_symmetry_Int_Tables_number      2
_space_group_name_Hall           '-P 1'
loop_
_symmetry_equiv_pos_site_id
_symmetry_equiv_pos_as_xyz
1 x,y,z
2 -x,-y,-z
_cell_length_a                   14.1599(12)
_cell_length_b                   16.2110(14)
_cell_length_c                   17.9945(15)
_cell_angle_alpha                88.046(2)
_cell_angle_beta                 86.413(2)
_cell_angle_gamma                77.602(2)
_cell_volume                     4025.43
_exptl_crystal_colour            colorless
_exptl_crystal_description       block
_chemical_melting_point          'above 280 deg.C'
_cell_formula_units_Z            2
_exptl_crystal_recrystallization_method chloroform/methanol
loop_
_atom_site_label
_atom_site_type_symbol
_atom_site_fract_x
_atom_site_fract_y
_atom_site_fract_z
Mg1 Mg 0.18322(9) 0.19516(8) 0.62212(7)
Mg2 Mg 0.26068(9) 0.24529(8) 0.74918(7)
Mg3 Mg 0.33444(10) 0.28887(8) 0.88041(7)
P1 P 0.08796(8) 0.13533(7) 0.47142(6)
P2 P 0.42276(9) 0.33936(7) 1.03673(6)
S1 S 0.03341(8) 0.10330(8) 0.38373(6)
S2 S 0.46916(9) 0.37098(7) 1.12809(6)
N1 N 0.0058(2) 0.1552(2) 0.54337(18)
N2 N 0.0465(2) 0.1561(2) 0.61519(18)
N3 N 0.0399(3) 0.1178(2) 0.9791(2)
N4 N 0.1320(3) 0.2231(2) 0.45581(18)
N5 N 0.1442(2) 0.2669(2) 0.52271(18)
N6 N 0.1555(3) 0.6014(2) 0.7114(2)
N7 N 0.1788(2) 0.0605(2) 0.50082(19)
N8 N 0.2412(2) 0.0872(2) 0.55071(18)
N9 N 0.6460(2) 0.0646(2) 0.7151(2)
N10 N 0.4917(3) 0.2511(2) 1.0005(2)
N11 N 0.4464(2) 0.2102(2) 0.94838(19)
N12 N 0.3558(3) -0.1066(2) 0.7703(2)
N13 N 0.4186(3) 0.4146(2) 0.97065(19)
N14 N 0.4114(2) 0.3866(2) 0.89608(18)
N15 N 0.5140(3) 0.3797(3) 0.5363(2)
N16 N 0.3102(3) 0.3222(2) 1.05051(18)
N17 N 0.2570(3) 0.3276(2) 0.98325(18)
N18 N -0.1375(3) 0.3900(3) 0.8007(2)
O1 O 0.15947(19) 0.17233(17) 0.73284(15)
O2 O 0.1848(2) 0.31049(16) 0.66344(15)
O3 O 0.32074(19) 0.17722(17) 0.65471(16)
O4 O 0.3684(2) 0.30916(17) 0.76992(15)
O5 O 0.19979(19) 0.32097(17) 0.83876(15)
O6 O 0.3240(2) 0.17731(16) 0.84041(16)
C1 C -0.0815(3) 0.2216(3) 0.5333(2)
H1 H -0.1309 0.2160 0.5727
H2 H -0.1065 0.2160 0.4846
H3 H -0.0653 0.2772 0.5360
C2 C -0.0067(3) 0.1300(3) 0.6685(2)
H4 H -0.0617 0.1105 0.6546
C3 C 0.0100(3) 0.1277(3) 0.7467(2)
C4 C 0.0916(3) 0.1481(3) 0.7761(2)
C5 C 0.1001(3) 0.1437(3) 0.8537(2)
H5 H 0.1562 0.1562 0.8732
C6 C 0.0288(3) 0.1217(3) 0.9031(2)
C7 C -0.0535(3) 0.1028(3) 0.8725(2)
H6 H -0.1039 0.0889 0.9045
C8 C -0.0608(3) 0.1043(3) 0.7971(3)
H7 H -0.1156 0.0891 0.7779
C9 C -0.0402(3) 0.1090(3) 1.0322(3)
H8 H -0.0137 0.0880 1.0806
H9 H -0.0734 0.0665 1.0139
C10 C -0.1145(5) 0.1927(4) 1.0443(3)
H10 H -0.0812 0.2363 1.0586
H11 H -0.1626 0.1847 1.0839
H12 H -0.1469 0.2102 0.9980
C11 C 0.1258(4) 0.1365(3) 1.0093(3)
H13 H 0.1103 0.1537 1.0617
H14 H 0.1440 0.1845 0.9809
C12 C 0.2111(4) 0.0618(3) 1.0065(3)
H15 H 0.1967 0.0167 1.0402
H16 H 0.2687 0.0795 1.0220
H17 H 0.2229 0.0410 0.9556
C13 C 0.2127(4) 0.2180(3) 0.4011(3)
H18 H 0.2172 0.2750 0.3837
H19 H 0.2025 0.1849 0.3589
H20 H 0.2729 0.1905 0.4239
C14 C 0.1256(3) 0.3481(3) 0.5125(2)
H21 H 0.1045 0.3689 0.4650
C15 C 0.1336(3) 0.4094(2) 0.5654(2)
C16 C 0.1650(3) 0.3894(2) 0.6391(2)
C17 C 0.1722(3) 0.4546(3) 0.6862(2)
H22 H 0.1950 0.4407 0.7346
C18 C 0.1469(3) 0.5393(3) 0.6640(2)
C19 C 0.1126(3) 0.5598(3) 0.5919(2)
H23 H 0.0929 0.6171 0.5761
C20 C 0.1083(3) 0.4960(3) 0.5456(2)
H24 H 0.0869 0.5107 0.4970
C21 C 0.1218(5) 0.6897(3) 0.6938(3)
H25 H 0.0998 0.7212 0.7401
H26 H 0.0663 0.6973 0.6615
C22 C 0.2087(5) 0.7258(4) 0.6514(4)
H27 H 0.2619 0.7213 0.6847
H28 H 0.1851 0.7852 0.6371
H29 H 0.2320 0.6930 0.6067
C23 C 0.2071(5) 0.5815(3) 0.7813(3)
H30 H 0.2575 0.5291 0.7750
H31 H 0.2395 0.6279 0.7916
C24 C 0.1393(5) 0.5703(4) 0.8450(3)
H32 H 0.0888 0.6218 0.8507
H33 H 0.1748 0.5590 0.8905
H34 H 0.1095 0.5226 0.8359
C25 C 0.1716(4) -0.0278(3) 0.5050(3)
H35 H 0.2269 -0.0619 0.4767
H36 H 0.1113 -0.0336 0.4839
H37 H 0.1719 -0.0473 0.5571
C26 C 0.3258(3) 0.0376(3) 0.5544(2)
H38 H 0.3380 -0.0111 0.5244
C27 C 0.4025(3) 0.0479(3) 0.5982(2)
C28 C 0.3997(3) 0.1170(2) 0.6458(2)
C29 C 0.4818(3) 0.1219(2) 0.6822(2)
H39 H 0.4805 0.1701 0.7111
C30 C 0.5670(3) 0.0585(3) 0.6779(2)
C31 C 0.5675(3) -0.0121(3) 0.6338(2)
H40 H 0.6231 -0.0568 0.6304
C32 C 0.4873(3) -0.0158(3) 0.5959(2)
H41 H 0.4892 -0.0638 0.5666
C33 C 0.7364(3) 0.0015(3) 0.7093(2)
H42 H 0.7912 0.0300 0.7121
H43 H 0.7424 -0.0251 0.6600
C34 C 0.7432(4) -0.0669(3) 0.7698(3)
H44 H 0.7449 -0.0419 0.8184
H45 H 0.8023 -0.1102 0.7604
H46 H 0.6866 -0.0927 0.7697
C35 C 0.6471(3) 0.1404(3) 0.7570(3)
H47 H 0.6962 0.1260 0.7949
H48 H 0.5831 0.1596 0.7835
C36 C 0.6699(3) 0.2119(3) 0.7073(3)
H49 H 0.7358 0.1951 0.6846
H50 H 0.6651 0.2623 0.7371
H51 H 0.6237 0.2244 0.6680
C37 C 0.5961(3) 0.2278(3) 1.0065(3)
H52 H 0.6126 0.1750 1.0356
H53 H 0.6178 0.2727 1.0313
H54 H 0.6281 0.2200 0.9566
C38 C 0.4851(3) 0.1306(3) 0.9383(2)
H55 H 0.5414 0.1076 0.9645
C39 C 0.4514(3) 0.0743(2) 0.8917(2)
C40 C 0.3713(3) 0.0982(2) 0.8467(2)
C41 C 0.3411(3) 0.0360(2) 0.8090(2)
H56 H 0.2851 0.0523 0.7811
C42 C 0.3876(3) -0.0479(3) 0.8097(2)
C43 C 0.4715(3) -0.0714(3) 0.8527(2)
H57 H 0.5067 -0.1283 0.8541
C44 C 0.5002(3) -0.0113(3) 0.8915(2)
H58 H 0.5558 -0.0278 0.9199
C45 C 0.4025(4) -0.1957(3) 0.7718(3)
H59 H 0.3530 -0.2295 0.7659
H60 H 0.4295 -0.2105 0.8211
C46 C 0.4827(5) -0.2197(4) 0.7122(3)
H61 H 0.4567 -0.2053 0.6630
H62 H 0.5096 -0.2806 0.7155
H63 H 0.5337 -0.1888 0.7191
C47 C 0.2743(3) -0.0822(3) 0.7223(2)
H64 H 0.2838 -0.1217 0.6803
H65 H 0.2737 -0.0249 0.7012
C48 C 0.1768(4) -0.0825(3) 0.7630(3)
H66 H 0.1778 -0.1384 0.7859
H67 H 0.1256 -0.0694 0.7275
H68 H 0.1642 -0.0399 0.8018
C49 C 0.3611(3) 0.4994(3) 0.9861(2)
H69 H 0.3838 0.5405 0.9522
H70 H 0.3683 0.5134 1.0377
H71 H 0.2928 0.5009 0.9788
C50 C 0.4582(3) 0.4247(3) 0.8468(2)
H72 H 0.4913 0.4644 0.8647
C51 C 0.4652(3) 0.4131(2) 0.7684(2)
C52 C 0.4205(3) 0.3557(2) 0.7314(2)
C53 C 0.4340(3) 0.3483(3) 0.6543(2)
H73 H 0.4011 0.3129 0.6296
C54 C 0.4955(3) 0.3924(3) 0.6123(2)
C55 C 0.5365(3) 0.4511(3) 0.6493(3)
H74 H 0.5749 0.4842 0.6218
C56 C 0.5206(3) 0.4600(3) 0.7242(2)
H75 H 0.5484 0.5000 0.7477
C57 C 0.5979(3) 0.4056(3) 0.4992(3)
H76 H 0.5920 0.4668 0.5065
H77 H 0.5978 0.3967 0.4450
C58 C 0.6938(4) 0.3577(4) 0.5277(4)
H78 H 0.6963 0.3695 0.5806
H79 H 0.7474 0.3758 0.4993
H80 H 0.6995 0.2969 0.5217
C59 C 0.4719(6) 0.3213(5) 0.4994(3)
C60 C 0.2989(4) 0.2495(3) 1.0990(3)
H81 H 0.2302 0.2537 1.1135
H82 H 0.3351 0.2494 1.1438
H83 H 0.3240 0.1970 1.0722
C61 C 0.1648(3) 0.3610(2) 0.9957(2)
H84 H 0.1444 0.3805 1.0446
C62 C 0.0926(3) 0.3708(3) 0.9428(2)
C63 C 0.1115(3) 0.3496(2) 0.8665(2)
C64 C 0.0338(3) 0.3582(3) 0.8204(2)
H85 H 0.0470 0.3446 0.7694
C65 C -0.0623(3) 0.3860(3) 0.8466(2)
C66 C -0.0793(3) 0.4111(3) 0.9229(2)
H86 H -0.1434 0.4337 0.9421
C67 C -0.0045(3) 0.4025(3) 0.9673(2)
H87 H -0.0179 0.4187 1.0177
C68 C -0.2385(3) 0.4111(4) 0.8284(3)
H88 H -0.2800 0.4268 0.7856
H89 H -0.2482 0.4610 0.8605
C69 C -0.2706(4) 0.3392(4) 0.8726(3)
H90 H -0.2527 0.2874 0.8438
H91 H -0.3410 0.3535 0.8825
H92 H -0.2387 0.3306 0.9199
C70 C -0.1190(3) 0.3555(3) 0.7252(3)
H93 H -0.1757 0.3334 0.7120
H94 H -0.0623 0.3077 0.7251
C71 C -0.1004(4) 0.4205(4) 0.6670(3)
H95 H -0.1543 0.4698 0.6692
H96 H -0.0946 0.3959 0.6175
H97 H -0.0402 0.4378 0.6765
C74 C 0.5040(6) 0.2402(5) 0.4994(5)
H109 H 0.5618 0.2254 0.5284
H110 H 0.5205 0.2215 0.4481
H111 H 0.4539 0.2122 0.5217
C72 C 0.2131(5) 0.3898(4) 0.2353(3)
H98 H 0.1755 0.3470 0.2494
H99 H 0.2495 0.3750 0.1878
H100 H 0.1692 0.4451 0.2301
O8 O 0.2842(2) 0.3935(2) 0.2959(2)
H102 H 0.3197 0.3454 0.3022
O7? O 0.1157(3) 0.3413(3) 0.2423(2)
H101? H 0.0939 0.3919 0.2298
C73? C 0.0702(6) 0.2885(6) 0.2035(6)
H103? H 0.1144 0.2336 0.1964
H104? H 0.0527 0.3144 0.1549
H105? H 0.0115 0.2806 0.2322
H106? H 0.4624 0.2140 0.4704
H107? H 0.5036 0.2179 0.5507
H108? H 0.5703 0.2272 0.4771
C75? C 0.3990(11) 0.3245(10) 0.4732(9)
H112? H 0.3979 0.2694 0.4529
H113? H 0.3910 0.3673 0.4330
H114? H 0.3460 0.3396 0.5112
H115? H 0.3587 0.3815 0.4785
H116? H 0.3656 0.2835 0.4985
H117? H 0.4106 0.3113 0.4202
loop_
_geom_bond_atom_site_label_1
_geom_bond_atom_site_label_2
_geom_bond_site_symmetry_1
_geom_bond_site_symmetry_2
Mg1 N2 1_555 1_555
Mg2 O1 1_555 1_555
Mg3 N11 1_555 1_555
P1 S1 1_555 1_555
P2 S2 1_555 1_555
N1 P1 1_555 1_555
N2 N1 1_555 1_555
N3 C6 1_555 1_555
N4 P1 1_555 1_555
N5 Mg1 1_555 1_555
N6 C18 1_555 1_555
N7 P1 1_555 1_555
N8 Mg1 1_555 1_555
N9 C30 1_555 1_555
N10 P2 1_555 1_555
N11 N10 1_555 1_555
N12 C42 1_555 1_555
N13 P2 1_555 1_555
N14 Mg3 1_555 1_555
N15 C54 1_555 1_555
N16 P2 1_555 1_555
N17 Mg3 1_555 1_555
N18 C65 1_555 1_555
O1 Mg1 1_555 1_555
O2 Mg1 1_555 1_555
O3 Mg1 1_555 1_555
O4 Mg2 1_555 1_555
O5 Mg2 1_555 1_555
O6 Mg2 1_555 1_555
C1 N1 1_555 1_555
H1 C1 1_555 1_555
H2 C1 1_555 1_555
H3 C1 1_555 1_555
C2 N2 1_555 1_555
H4 C2 1_555 1_555
C3 C2 1_555 1_555
C4 O1 1_555 1_555
C5 C4 1_555 1_555
H5 C5 1_555 1_555
C6 C5 1_555 1_555
C7 C6 1_555 1_555
H6 C7 1_555 1_555
C8 C3 1_555 1_555
H7 C8 1_555 1_555
C9 N3 1_555 1_555
H8 C9 1_555 1_555
H9 C9 1_555 1_555
C10 C9 1_555 1_555
H10 C10 1_555 1_555
H11 C10 1_555 1_555
H12 C10 1_555 1_555
C11 N3 1_555 1_555
H13 C11 1_555 1_555
H14 C11 1_555 1_555
C12 C11 1_555 1_555
H15 C12 1_555 1_555
H16 C12 1_555 1_555
H17 C12 1_555 1_555
C13 N4 1_555 1_555
H18 C13 1_555 1_555
H19 C13 1_555 1_555
H20 C13 1_555 1_555
C14 N5 1_555 1_555
H21 C14 1_555 1_555
C15 C14 1_555 1_555
C16 O2 1_555 1_555
C17 C16 1_555 1_555
H22 C17 1_555 1_555
C18 C17 1_555 1_555
C19 C18 1_555 1_555
H23 C19 1_555 1_555
C20 C15 1_555 1_555
H24 C20 1_555 1_555
C21 N6 1_555 1_555
H25 C21 1_555 1_555
H26 C21 1_555 1_555
C22 C21 1_555 1_555
H27 C22 1_555 1_555
H28 C22 1_555 1_555
H29 C22 1_555 1_555
C23 N6 1_555 1_555
H30 C23 1_555 1_555
H31 C23 1_555 1_555
C24 C23 1_555 1_555
H32 C24 1_555 1_555
H33 C24 1_555 1_555
H34 C24 1_555 1_555
C25 N7 1_555 1_555
H35 C25 1_555 1_555
H36 C25 1_555 1_555
H37 C25 1_555 1_555
C26 N8 1_555 1_555
H38 C26 1_555 1_555
C27 C26 1_555 1_555
C28 O3 1_555 1_555
C29 C28 1_555 1_555
H39 C29 1_555 1_555
C30 C29 1_555 1_555
C31 C30 1_555 1_555
H40 C31 1_555 1_555
C32 C27 1_555 1_555
H41 C32 1_555 1_555
C33 N9 1_555 1_555
H42 C33 1_555 1_555
H43 C33 1_555 1_555
C34 C33 1_555 1_555
H44 C34 1_555 1_555
H45 C34 1_555 1_555
H46 C34 1_555 1_555
C35 N9 1_555 1_555
H47 C35 1_555 1_555
H48 C35 1_555 1_555
C36 C35 1_555 1_555
H49 C36 1_555 1_555
H50 C36 1_555 1_555
H51 C36 1_555 1_555
C37 N10 1_555 1_555
H52 C37 1_555 1_555
H53 C37 1_555 1_555
H54 C37 1_555 1_555
C38 N11 1_555 1_555
H55 C38 1_555 1_555
C39 C38 1_555 1_555
C40 O6 1_555 1_555
C41 C40 1_555 1_555
H56 C41 1_555 1_555
C42 C41 1_555 1_555
C43 C42 1_555 1_555
H57 C43 1_555 1_555
C44 C39 1_555 1_555
H58 C44 1_555 1_555
C45 N12 1_555 1_555
H59 C45 1_555 1_555
H60 C45 1_555 1_555
C46 C45 1_555 1_555
H61 C46 1_555 1_555
H62 C46 1_555 1_555
H63 C46 1_555 1_555
C47 N12 1_555 1_555
H64 C47 1_555 1_555
H65 C47 1_555 1_555
C48 C47 1_555 1_555
H66 C48 1_555 1_555
H67 C48 1_555 1_555
H68 C48 1_555 1_555
C49 N13 1_555 1_555
H69 C49 1_555 1_555
H70 C49 1_555 1_555
H71 C49 1_555 1_555
C50 N14 1_555 1_555
H72 C50 1_555 1_555
C51 C50 1_555 1_555
C52 O4 1_555 1_555
C53 C52 1_555 1_555
H73 C53 1_555 1_555
C54 C53 1_555 1_555
C55 C54 1_555 1_555
H74 C55 1_555 1_555
C56 C51 1_555 1_555
H75 C56 1_555 1_555
C57 N15 1_555 1_555
H76 C57 1_555 1_555
H77 C57 1_555 1_555
C58 C57 1_555 1_555
H78 C58 1_555 1_555
H79 C58 1_555 1_555
H80 C58 1_555 1_555
C59 N15 1_555 1_555
C60 N16 1_555 1_555
H81 C60 1_555 1_555
H82 C60 1_555 1_555
H83 C60 1_555 1_555
C61 N17 1_555 1_555
H84 C61 1_555 1_555
C62 C61 1_555 1_555
C63 O5 1_555 1_555
C64 C63 1_555 1_555
H85 C64 1_555 1_555
C65 C64 1_555 1_555
C66 C65 1_555 1_555
H86 C66 1_555 1_555
C67 C62 1_555 1_555
H87 C67 1_555 1_555
C68 N18 1_555 1_555
H88 C68 1_555 1_555
H89 C68 1_555 1_555
C69 C68 1_555 1_555
H90 C69 1_555 1_555
H91 C69 1_555 1_555
H92 C69 1_555 1_555
C70 N18 1_555 1_555
H93 C70 1_555 1_555
H94 C70 1_555 1_555
C71 C70 1_555 1_555
H95 C71 1_555 1_555
H96 C71 1_555 1_555
H97 C71 1_555 1_555
C72 H98 1_555 1_555
H99 C72 1_555 1_555
H100 C72 1_555 1_555
O8 C72 1_555 1_555
H102 O8 1_555 1_555
C74 C59 1_555 1_555
H109 C74 1_555 1_555
H110 C74 1_555 1_555
H111 C74 1_555 1_555
Mg2 O2 1_555 1_555
Mg2 O3 1_555 1_555
Mg3 O4 1_555 1_555
Mg3 O5 1_555 1_555
Mg3 O6 1_555 1_555
N4 N5 1_555 1_555
N7 N8 1_555 1_555
N13 N14 1_555 1_555
N16 N17 1_555 1_555
C3 C4 1_555 1_555
C7 C8 1_555 1_555
C15 C16 1_555 1_555
C19 C20 1_555 1_555
C27 C28 1_555 1_555
C31 C32 1_555 1_555
C39 C40 1_555 1_555
C43 C44 1_555 1_555
C51 C52 1_555 1_555
C55 C56 1_555 1_555
C62 C63 1_555 1_555
C66 C67 1_555 1_555

#END
