
#######################################################################
#
#                 Cambridge Crystallographic Data Centre
#                                CCDC 
#
#######################################################################
#
# If this CIF has been generated from an entry in the Cambridge 
# Structural Database, then it will include bibliographic, chemical, 
# crystal, experimental, refinement or atomic coordinate data resulting 
# from the CCDC's data processing and validation procedures.
#
#######################################################################

data_GAKFED
_chemical_formula_moiety         'C20 H27 N1 O3'
_chemical_name_systematic        
8-Cyano-4,5-dimethyl-6-(2'-formyl-2'-methylbut-3'-enyl)-7-oxatricyclo(7.3.0.0^5,9^)dodecan-10-one
_symmetry_cell_setting           orthorhombic
_symmetry_space_group_name_H-M   'P 21 21 21'
_symmetry_Int_Tables_number      19
_space_group_name_Hall           'P 2ac 2ab'
loop_
_symmetry_equiv_pos_site_id
_symmetry_equiv_pos_as_xyz
1 x,y,z
2 1/2+x,1/2-y,-z
3 -x,1/2+y,1/2-z
4 1/2-x,-y,1/2+z
_cell_length_a                   13.760(3)
_cell_length_b                   14.920(3)
_cell_length_c                   8.859(2)
_cell_angle_alpha                90
_cell_angle_beta                 90
_cell_angle_gamma                90
_cell_volume                     1818.75
_exptl_crystal_colour            colorless
_chemical_melting_point          130-131deg.C
_cell_formula_units_Z            4
loop_
_atom_site_label
_atom_site_type_symbol
_atom_site_fract_x
_atom_site_fract_y
_atom_site_fract_z
C1 C 0.5082(3) 0.3883(3) 0.8868(5)
C2 C 0.5040(4) 0.4864(3) 0.8467(6)
C3 C 0.4185(4) 0.4943(3) 0.7363(6)
C4 C 0.4038(3) 0.4002(3) 0.6683(5)
C5 C 0.3044(4) 0.3850(3) 0.6010(6)
C6 C 0.2259(3) 0.3729(3) 0.7173(7)
C7 C 0.2477(3) 0.2941(3) 0.8266(5)
C8 C 0.3443(3) 0.3084(2) 0.9104(4)
C9 C 0.4289(3) 0.3365(2) 0.8027(4)
O1 O 0.5661(2) 0.3551(2) 0.9717(3)
C10 C 0.2343(4) 0.2065(3) 0.7336(6)
C11 C 0.3256(3) 0.3765(3) 1.0390(5)
C12 C 0.3891(3) 0.2250(3) 0.9806(5)
O2 O 0.4385(2) 0.1787(2) 0.8594(3)
C13 C 0.4643(3) 0.2432(2) 0.7487(5)
C14 C 0.5693(3) 0.2373(3) 0.7149(5)
N1 N 0.6492(3) 0.2304(3) 0.6812(5)
C15 C 0.3245(3) 0.1591(3) 1.0657(6)
C16 C 0.3711(3) 0.1140(3) 1.2012(5)
C17 C 0.2954(4) 0.0518(4) 1.2781(7)
C18 C 0.3907(4) 0.1845(4) 1.3157(5)
O3 O 0.4600(4) 0.2020(4) 1.3799(6)
C19 C 0.4637(4) 0.0658(3) 1.1634(5)
C20 C 0.4862(4) -0.0167(4) 1.1859(6)
H1 H 0.510(3) 0.522(3) 0.924(4)
H2 H 0.573(3) 0.499(3) 0.783(4)
H3 H 0.360(3) 0.510(3) 0.801(4)
H4 H 0.439(3) 0.538(3) 0.650(4)
H5 H 0.451(2) 0.388(2) 0.583(4)
H6 H 0.289(3) 0.436(3) 0.543(4)
H7 H 0.307(3) 0.330(2) 0.550(4)
H8 H 0.224(3) 0.419(3) 0.764(5)
H9 H 0.159(3) 0.359(3) 0.675(4)
H10 H 0.211(2) 0.282(2) 0.826(4)
H11 H 0.242(3) 0.151(3) 0.799(4)
H12 H 0.282(3) 0.192(3) 0.645(4)
H13 H 0.163(3) 0.207(3) 0.693(4)
H14 H 0.310(3) 0.426(2) 1.003(4)
H15 H 0.392(3) 0.393(3) 1.106(4)
H16 H 0.278(3) 0.349(3) 1.106(5)
H17 H 0.435(2) 0.247(2) 1.057(3)
H18 H 0.432(2) 0.223(2) 0.640(3)
H19 H 0.273(2) 0.192(2) 1.095(4)
H20 H 0.308(3) 0.107(2) 0.991(4)
H21 H 0.277(3) 0.007(3) 1.180(5)
H22 H 0.238(3) 0.088(3) 1.316(6)
H23 H 0.325(4) 0.016(3) 1.374(5)
H24 H 0.338(3) 0.237(3) 1.326(4)
H25 H 0.512(3) 0.105(3) 1.124(5)
H26 H 0.546(3) -0.050(3) 1.161(4)
H27 H 0.449(3) -0.061(3) 1.255(5)
loop_
_geom_bond_atom_site_label_1
_geom_bond_atom_site_label_2
_geom_bond_site_symmetry_1
_geom_bond_site_symmetry_2
C1 C2 1_555 1_555
C2 C3 1_555 1_555
C3 C4 1_555 1_555
C4 C5 1_555 1_555
C5 C6 1_555 1_555
C6 C7 1_555 1_555
C7 C8 1_555 1_555
C8 C9 1_555 1_555
C9 C1 1_555 1_555
O1 C1 1_555 1_555
C10 C7 1_555 1_555
C11 C8 1_555 1_555
C12 C8 1_555 1_555
O2 C12 1_555 1_555
C13 C9 1_555 1_555
C14 C13 1_555 1_555
N1 C14 1_555 1_555
C15 C12 1_555 1_555
C16 C15 1_555 1_555
C17 C16 1_555 1_555
C18 C16 1_555 1_555
O3 C18 1_555 1_555
C19 C16 1_555 1_555
C20 C19 1_555 1_555
H1 C2 1_555 1_555
H2 C2 1_555 1_555
H3 C3 1_555 1_555
H4 C3 1_555 1_555
H5 C4 1_555 1_555
H6 C5 1_555 1_555
H7 C5 1_555 1_555
H8 C6 1_555 1_555
H9 C6 1_555 1_555
H10 C7 1_555 1_555
H11 C10 1_555 1_555
H12 C10 1_555 1_555
H13 C10 1_555 1_555
H14 C11 1_555 1_555
H15 C11 1_555 1_555
H16 C11 1_555 1_555
H17 C12 1_555 1_555
H18 C13 1_555 1_555
H19 C15 1_555 1_555
H20 C15 1_555 1_555
H21 C17 1_555 1_555
H22 C17 1_555 1_555
H23 C17 1_555 1_555
H24 C18 1_555 1_555
H25 C19 1_555 1_555
H26 C20 1_555 1_555
H27 C20 1_555 1_555
C4 C9 1_555 1_555
O2 C13 1_555 1_555

#END
