
#######################################################################
#
#                 Cambridge Crystallographic Data Centre
#                                CCDC 
#
#######################################################################
#
# If this CIF has been generated from an entry in the Cambridge 
# Structural Database, then it will include bibliographic, chemical, 
# crystal, experimental, refinement or atomic coordinate data resulting 
# from the CCDC's data processing and validation procedures.
#
#######################################################################

data_GAKPOY
_chemical_formula_moiety         'H12 Mg1 O6 2+,2(C7 H6 N1 O3 1-),2(H2 O1)'
_chemical_name_systematic        
'Hexa-aqua-magnesium(ii) bis((4-oxo-4H-pyridin-1-yl)acetate) dihydrate'
_symmetry_cell_setting           monoclinic
_symmetry_space_group_name_H-M   'P 21/c'
_symmetry_Int_Tables_number      14
_space_group_name_Hall           '-P 2ybc'
loop_
_symmetry_equiv_pos_site_id
_symmetry_equiv_pos_as_xyz
1 x,y,z
2 x,1/2-y,1/2+z
3 -x,-y,-z
4 -x,1/2+y,1/2-z
_cell_length_a                   12.486(3)
_cell_length_b                   12.904(3)
_cell_length_c                   6.8131(14)
_cell_angle_alpha                90
_cell_angle_beta                 99.21(3)
_cell_angle_gamma                90
_cell_volume                     1083.57
_exptl_crystal_colour            colorless
_exptl_crystal_description       prism
_cell_formula_units_Z            2
loop_
_atom_site_label
_atom_site_type_symbol
_atom_site_fract_x
_atom_site_fract_y
_atom_site_fract_z
Mg1 Mg 0.5000 0.5000 0.5000
O2 O 0.47098(16) 0.57432(17) 0.7562(3)
H1 H 0.5206(18) 0.607(3) 0.830(5)
H2 H 0.4092(12) 0.597(3) 0.772(6)
O3 O 0.50916(16) 0.35966(14) 0.6474(3)
H3 H 0.486(3) 0.3068(19) 0.579(4)
H4 H 0.481(3) 0.362(3) 0.753(3)
O5 O 0.66402(15) 0.51860(15) 0.5824(3)
H5 H 0.702(2) 0.4714(18) 0.645(5)
H6 H 0.698(2) 0.5751(14) 0.587(6)
O2B O 0.52902(16) 0.42568(17) 0.2438(3)
H1B H 0.4794(18) 0.393(3) 0.170(5)
H2B H 0.5908(12) 0.403(3) 0.228(6)
O3B O 0.49084(16) 0.64034(14) 0.3526(3)
H3B H 0.514(3) 0.6932(19) 0.421(4)
H4B H 0.519(3) 0.638(3) 0.247(3)
O5B O 0.33598(15) 0.48140(15) 0.4176(3)
H5B H 0.298(2) 0.5286(18) 0.355(5)
H6B H 0.302(2) 0.4249(14) 0.413(6)
O1 O 0.60425(14) 0.69911(14) 0.0391(3)
O4 O 0.75820(15) 0.79120(14) 0.0894(3)
O6 O 1.21238(15) 0.62126(17) 0.1734(3)
N1 N 0.88334(17) 0.61402(16) 0.1406(3)
C1 C 0.9483(2) 0.6049(2) 0.3185(4)
H9 H 0.9170 0.5960 0.4322
C2 C 1.0577(2) 0.6085(2) 0.3358(4)
H10 H 1.0999 0.6023 0.4608
C3 C 1.1098(2) 0.62184(19) 0.1643(4)
C4 C 1.0376(2) 0.6355(2) -0.0185(4)
H11 H 1.0656 0.6471 -0.1351
C5 C 0.9286(2) 0.6316(2) -0.0240(4)
H12 H 0.8835 0.6413 -0.1451
C6 C 0.7654(2) 0.6055(2) 0.1220(4)
H13 H 0.7474 0.5768 0.2443
H14 H 0.7396 0.5574 0.0155
C7 C 0.70524(19) 0.70910(18) 0.0793(3)
O7 O 0.2800(2) 0.6657(2) 0.8086(4)
H7 H 0.273(4) 0.657(3) 0.930(3)
H8 H 0.279(4) 0.7305(11) 0.783(6)
loop_
_geom_bond_atom_site_label_1
_geom_bond_atom_site_label_2
_geom_bond_site_symmetry_1
_geom_bond_site_symmetry_2
Mg1 O2 1_555 1_555
O1 C7 1_555 1_555
O2 H1 1_555 1_555
H2 O2 1_555 1_555
O3 Mg1 1_555 1_555
H3 O3 1_555 1_555
H4 O3 1_555 1_555
O4 C7 1_555 1_555
O5 Mg1 1_555 1_555
H5 O5 1_555 1_555
H6 O5 1_555 1_555
O6 C3 1_555 1_555
O7 H7 1_555 1_555
H8 O7 1_555 1_555
N1 C1 1_555 1_555
C1 H9 1_555 1_555
C2 C1 1_555 1_555
H10 C2 1_555 1_555
C3 C2 1_555 1_555
C4 C3 1_555 1_555
H11 C4 1_555 1_555
C5 N1 1_555 1_555
H12 C5 1_555 1_555
C6 N1 1_555 1_555
H13 C6 1_555 1_555
H14 C6 1_555 1_555
C7 C6 1_555 1_555
O2B Mg1 1_555 1_555
H1B O2B 1_555 1_555
H2B O2B 1_555 1_555
O3B Mg1 1_555 1_555
H3B O3B 1_555 1_555
H4B O3B 1_555 1_555
O5B Mg1 1_555 1_555
H5B O5B 1_555 1_555
H6B O5B 1_555 1_555
C4 C5 1_555 1_555

#END
