
#######################################################################
#
#                 Cambridge Crystallographic Data Centre
#                                CCDC 
#
#######################################################################
#
# If this CIF has been generated from an entry in the Cambridge 
# Structural Database, then it will include bibliographic, chemical, 
# crystal, experimental, refinement or atomic coordinate data resulting 
# from the CCDC's data processing and validation procedures.
#
#######################################################################

data_GAKQEP
_chemical_name_common            p-Nitrophenetole
_chemical_formula_moiety         'C8 H9 N1 O3'
_chemical_name_systematic        1-Ethoxy-4-nitrobenzene
_symmetry_cell_setting           monoclinic
_symmetry_space_group_name_H-M   'P 21/c'
_symmetry_Int_Tables_number      14
_space_group_name_Hall           '-P 2ybc'
loop_
_symmetry_equiv_pos_site_id
_symmetry_equiv_pos_as_xyz
1 x,y,z
2 x,1/2-y,1/2+z
3 -x,-y,-z
4 -x,1/2+y,1/2-z
_cell_length_a                   7.2796(5)
_cell_length_b                   11.7664(8)
_cell_length_c                   9.4285(6)
_cell_angle_alpha                90
_cell_angle_beta                 104.9570(10)
_cell_angle_gamma                90
_cell_volume                     780.234
_exptl_crystal_colour            colorless
_exptl_crystal_description       block
_chemical_melting_point          '330.2 K'
_cell_formula_units_Z            4
_exptl_crystal_recrystallization_method '95% ethanol'
loop_
_atom_site_label
_atom_site_type_symbol
_atom_site_fract_x
_atom_site_fract_y
_atom_site_fract_z
O1 O 0.32511(17) 0.68300(9) 0.08392(13)
N1 N 0.23992(16) 0.74291(10) -0.01917(13)
C1 C 0.25281(17) 0.86572(11) -0.00128(14)
O2 O 0.14383(16) 0.70363(9) -0.13557(12)
C2 C 0.36067(18) 0.91110(11) 0.13039(14)
H1 H 0.422(2) 0.8638(16) 0.207(2)
O3 O 0.30202(14) 1.21136(8) 0.05688(11)
C3 C 0.37343(18) 1.02736(11) 0.14606(14)
H2 H 0.448(2) 1.0590(15) 0.236(2)
C4 C 0.27830(18) 1.09830(11) 0.03104(14)
C5 C 0.16852(19) 1.05195(11) -0.10042(15)
H3 H 0.102(2) 1.0991(16) -0.180(2)
C6 C 0.15703(19) 0.93450(11) -0.11626(15)
H4 H 0.085(3) 0.9047(16) -0.206(2)
C7 C 0.2128(2) 1.28831(11) -0.06000(15)
H5 H 0.077(3) 1.2750(16) -0.088(2)
H6 H 0.263(2) 1.2760(15) -0.144(2)
C8 C 0.2557(2) 1.40737(12) -0.00176(17)
H7 H 0.193(3) 1.463(2) -0.079(2)
H8 H 0.391(3) 1.4193(18) 0.032(2)
H9 H 0.202(3) 1.4192(18) 0.082(2)
loop_
_geom_bond_atom_site_label_1
_geom_bond_atom_site_label_2
_geom_bond_site_symmetry_1
_geom_bond_site_symmetry_2
O1 N1 1_555 1_555
N1 C1 1_555 1_555
C1 C2 1_555 1_555
O2 N1 1_555 1_555
C2 H1 1_555 1_555
O3 C4 1_555 1_555
C3 C2 1_555 1_555
H2 C3 1_555 1_555
C4 C3 1_555 1_555
C5 C4 1_555 1_555
H3 C5 1_555 1_555
C6 C1 1_555 1_555
H4 C6 1_555 1_555
C7 O3 1_555 1_555
H5 C7 1_555 1_555
H6 C7 1_555 1_555
C8 C7 1_555 1_555
H7 C8 1_555 1_555
H8 C8 1_555 1_555
H9 C8 1_555 1_555
C5 C6 1_555 1_555

#END
