
#######################################################################
#
#                 Cambridge Crystallographic Data Centre
#                                CCDC 
#
#######################################################################
#
# If this CIF has been generated from an entry in the Cambridge 
# Structural Database, then it will include bibliographic, chemical, 
# crystal, experimental, refinement or atomic coordinate data resulting 
# from the CCDC's data processing and validation procedures.
#
#######################################################################

data_GAKXUM
_chemical_formula_moiety         'C13 H10 N4 O4'
_chemical_name_systematic        
'(E)-4-Nitrobenzaldehyde 4-nitrophenylhydrazone'
_symmetry_cell_setting           monoclinic
_symmetry_space_group_name_H-M   'P 21/n'
_symmetry_Int_Tables_number      14
_space_group_name_Hall           '-P 2yn'
loop_
_symmetry_equiv_pos_site_id
_symmetry_equiv_pos_as_xyz
1 x,y,z
2 1/2+x,1/2-y,1/2+z
3 -x,-y,-z
4 1/2-x,1/2+y,1/2-z
_cell_length_a                   5.9635(2)
_cell_length_b                   11.0881(6)
_cell_length_c                   18.9959(10)
_cell_angle_alpha                90
_cell_angle_beta                 93.048(3)
_cell_angle_gamma                90
_cell_volume                     1254.31
_exptl_crystal_colour            orange
_exptl_crystal_description       plate
_cell_formula_units_Z            4
_exptl_crystal_recrystallization_method ethanol
loop_
_atom_site_label
_atom_site_type_symbol
_atom_site_fract_x
_atom_site_fract_y
_atom_site_fract_z
O1 O -0.1212(3) 0.13404(14) 0.65400(8)
O2 O -0.3890(2) 0.05970(13) 0.58632(8)
O3 O 1.4174(3) 0.64695(14) 0.39835(8)
O4 O 1.4417(3) 0.64713(14) 0.28551(9)
N1 N 0.2632(7) 0.2408(6) 0.36073(11)
N3 N 0.4504(2) 0.31008(14) 0.36808(8)
N4 N -0.2078(3) 0.11089(16) 0.59496(9)
N5 N 1.3438(3) 0.61957(16) 0.33878(10)
C1 C 0.1473(3) 0.21167(17) 0.41867(9)
C2 C -0.0598(3) 0.15298(17) 0.40960(10)
C3 C -0.1778(3) 0.12053(18) 0.46694(10)
C4 C -0.0871(3) 0.14613(17) 0.53388(10)
C5 C 0.1190(3) 0.20298(18) 0.54439(10)
C6 C 0.2356(3) 0.23594(17) 0.48690(10)
C7 C 0.7507(3) 0.41418(17) 0.31916(10)
C8 C 0.8686(4) 0.44211(19) 0.25952(11)
C9 C 1.0610(4) 0.51082(19) 0.26539(11)
C10 C 1.1371(3) 0.55071(18) 0.33158(10)
C11 C 1.0242(4) 0.52424(19) 0.39139(11)
C12 C 0.8309(4) 0.45679(19) 0.38504(11)
C13 C 0.5557(7) 0.3334(6) 0.31248(11)
H1 H 0.2118 0.2203 0.3181
H3 H -0.1196 0.1354 0.3634
H4 H -0.3190 0.0813 0.4607
H5 H 0.1790 0.2190 0.5908
H6 H 0.3766 0.2753 0.4935
H7 H 0.8154 0.4134 0.2146
H8 H 1.1401 0.5305 0.2248
H9 H 1.0794 0.5523 0.4363
H10 H 0.7512 0.4390 0.4258
H11 H 0.5088 0.2994 0.2682
N2? N 0.5531(6) 0.3516(5) 0.31090(10)
C14? C 0.2637(9) 0.2539(8) 0.35716(10)
H2? H 0.5003 0.3296 0.2687
H12? H 0.2027 0.2400 0.3107
loop_
_geom_bond_atom_site_label_1
_geom_bond_atom_site_label_2
_geom_bond_site_symmetry_1
_geom_bond_site_symmetry_2
O1 N4 1_555 1_555
O2 N4 1_555 1_555
O3 N5 1_555 1_555
O4 N5 1_555 1_555
N1 N3 1_555 1_555
N3 C13 1_555 1_555
N4 C4 1_555 1_555
N5 C10 1_555 1_555
C1 N1 1_555 1_555
C2 C1 1_555 1_555
C3 C2 1_555 1_555
C4 C3 1_555 1_555
C5 C4 1_555 1_555
C6 C1 1_555 1_555
C7 C8 1_555 1_555
C8 C9 1_555 1_555
C9 C10 1_555 1_555
C10 C11 1_555 1_555
C11 C12 1_555 1_555
C12 C7 1_555 1_555
C13 C7 1_555 1_555
H1 N1 1_555 1_555
H3 C2 1_555 1_555
H4 C3 1_555 1_555
H5 C5 1_555 1_555
H6 C6 1_555 1_555
H7 C8 1_555 1_555
H8 C9 1_555 1_555
H9 C11 1_555 1_555
H10 C12 1_555 1_555
H11 C13 1_555 1_555
C5 C6 1_555 1_555

#END
