
#######################################################################
#
#                 Cambridge Crystallographic Data Centre
#                                CCDC 
#
#######################################################################
#
# If this CIF has been generated from an entry in the Cambridge 
# Structural Database, then it will include bibliographic, chemical, 
# crystal, experimental, refinement or atomic coordinate data resulting 
# from the CCDC's data processing and validation procedures.
#
#######################################################################

data_GAKYEX
_chemical_formula_moiety         'C11 H17 N3 O3'
_chemical_name_systematic        
1,3-Dimethyl-5-(1-propylaminoethylidene)pyrimidine-2,4,6(1H,3H,5H)-trione
_symmetry_cell_setting           monoclinic
_symmetry_space_group_name_H-M   'P n'
_symmetry_Int_Tables_number      7
_space_group_name_Hall           'P -2yac'
loop_
_symmetry_equiv_pos_site_id
_symmetry_equiv_pos_as_xyz
1 x,y,z
2 1/2+x,-y,1/2+z
_cell_length_a                   4.1085(3)
_cell_length_b                   8.4497(5)
_cell_length_c                   17.1272(11)
_cell_angle_alpha                90
_cell_angle_beta                 94.721(2)
_cell_angle_gamma                90
_cell_volume                     592.564
_exptl_crystal_colour            colorless
_exptl_crystal_description       lath
_cell_formula_units_Z            2
_exptl_crystal_recrystallization_method ethanol
loop_
_atom_site_label
_atom_site_type_symbol
_atom_site_fract_x
_atom_site_fract_y
_atom_site_fract_z
O1 O -0.1487(6) 0.6297(2) 0.17114(12)
O2 O 0.3625(4) 0.24030(15) 0.31415(9)
O3 O 0.4409(5) 0.77604(17) 0.39406(12)
N1 N 0.1514(5) 0.70039(19) 0.28271(11)
N2 N 0.1034(4) 0.43561(19) 0.24510(9)
N3 N 0.7094(4) 0.30194(18) 0.44180(10)
C1 C 0.0685(8) 0.8679(3) 0.26797(17)
C2 C 0.0236(5) 0.5912(2) 0.22940(12)
C3 C -0.0342(6) 0.3140(3) 0.19047(13)
C4 C 0.3062(4) 0.3832(2) 0.30920(10)
C5 C 0.4315(4) 0.50075(19) 0.36465(10)
C6 C 0.3515(5) 0.6659(2) 0.35116(11)
C7 C 0.6311(4) 0.4518(2) 0.43250(10)
C8 C 0.7544(6) 0.5641(3) 0.49526(13)
C9 C 0.8946(5) 0.2300(2) 0.50958(11)
C10 C 0.9653(6) 0.0585(2) 0.49084(13)
C11 C 1.1227(6) -0.0276(3) 0.56190(16)
H1 H 0.0733 0.8902 0.2131
H2 H 0.2243 0.9339 0.2974
H3 H -0.1462 0.8888 0.2838
H4 H -0.2070 0.3594 0.1565
H5 H -0.1192 0.2284 0.2195
H6 H 0.1336 0.2749 0.1597
H7 H 0.6452 0.2392 0.4041
H8 H 0.8360 0.5056 0.5408
H9 H 0.5797 0.6318 0.5085
H10 H 0.9270 0.6271 0.4769
H11 H 0.7692 0.2356 0.5551
H12 H 1.0978 0.2868 0.5213
H13 H 0.7630 0.0058 0.4729
H14 H 1.1096 0.0543 0.4488
H15 H 1.3038 0.0333 0.5846
H16 H 1.1988 -0.1293 0.5463
H17 H 0.9653 -0.0412 0.5998
loop_
_geom_bond_atom_site_label_1
_geom_bond_atom_site_label_2
_geom_bond_site_symmetry_1
_geom_bond_site_symmetry_2
O1 C2 1_555 1_555
O2 C4 1_555 1_555
O3 C6 1_555 1_555
N1 C1 1_555 1_555
N2 C2 1_555 1_555
N3 C7 1_555 1_555
C1 H1 1_555 1_555
C2 N1 1_555 1_555
C3 N2 1_555 1_555
C4 N2 1_555 1_555
C5 C4 1_555 1_555
C6 N1 1_555 1_555
C7 C5 1_555 1_555
C8 C7 1_555 1_555
C9 N3 1_555 1_555
C10 C9 1_555 1_555
C11 C10 1_555 1_555
H2 C1 1_555 1_555
H3 C1 1_555 1_555
H4 C3 1_555 1_555
H5 C3 1_555 1_555
H6 C3 1_555 1_555
H7 N3 1_555 1_555
H8 C8 1_555 1_555
H9 C8 1_555 1_555
H10 C8 1_555 1_555
H11 C9 1_555 1_555
H12 C9 1_555 1_555
H13 C10 1_555 1_555
H14 C10 1_555 1_555
H15 C11 1_555 1_555
H16 C11 1_555 1_555
H17 C11 1_555 1_555
C5 C6 1_555 1_555

#END
