
#######################################################################
#
#                 Cambridge Crystallographic Data Centre
#                                CCDC 
#
#######################################################################
#
# If this CIF has been generated from an entry in the Cambridge 
# Structural Database, then it will include bibliographic, chemical, 
# crystal, experimental, refinement or atomic coordinate data resulting 
# from the CCDC's data processing and validation procedures.
#
#######################################################################

data_GAKYOH
_chemical_formula_moiety         'C15 H17 N3 O3'
_chemical_name_systematic        
5-(1-(Benzylamino)ethylidene)-1,3-dimethylpyrimidine-2,4,6(1H,3H,5H)-trione
_symmetry_cell_setting           triclinic
_symmetry_space_group_name_H-M   'P -1'
_symmetry_Int_Tables_number      2
_space_group_name_Hall           '-P 1'
loop_
_symmetry_equiv_pos_site_id
_symmetry_equiv_pos_as_xyz
1 x,y,z
2 -x,-y,-z
_cell_length_a                   7.0696(5)
_cell_length_b                   9.0734(7)
_cell_length_c                   11.9214(8)
_cell_angle_alpha                70.995(2)
_cell_angle_beta                 82.084(2)
_cell_angle_gamma                84.729(2)
_cell_volume                     715.225
_exptl_crystal_colour            colorless
_exptl_crystal_description       plate
_cell_formula_units_Z            2
_exptl_crystal_recrystallization_method ethanol
loop_
_atom_site_label
_atom_site_type_symbol
_atom_site_fract_x
_atom_site_fract_y
_atom_site_fract_z
O1 O 0.8283(2) 0.77351(17) -0.24671(13)
O2 O 0.63770(18) 0.53917(14) 0.14349(11)
O3 O 0.8917(2) 0.24754(18) -0.11249(13)
N1 N 0.86528(19) 0.50943(18) -0.17581(13)
N2 N 0.72782(19) 0.65292(16) -0.05138(13)
N3 N 0.6979(2) 0.24520(17) 0.24030(13)
C1 C 0.9526(3) 0.5053(3) -0.29394(17)
C2 C 0.8089(2) 0.6526(2) -0.16369(16)
C3 C 0.6678(3) 0.8033(2) -0.03372(19)
C4 C 0.7087(2) 0.5200(2) 0.04795(15)
C5 C 0.7713(2) 0.37156(19) 0.03285(15)
C6 C 0.8448(2) 0.3650(2) -0.08449(16)
C7 C 0.7615(2) 0.2346(2) 0.13415(16)
C8 C 0.8242(3) 0.0738(2) 0.12950(19)
C9 C 0.6938(3) 0.1173(2) 0.35324(18)
C10 C 0.6304(3) 0.1765(2) 0.45713(16)
C11 C 0.4584(3) 0.2565(3) 0.4644(2)
C12 C 0.3990(5) 0.3072(3) 0.5603(2)
C13 C 0.5105(6) 0.2763(3) 0.6516(2)
C14 C 0.6786(5) 0.1941(3) 0.6460(2)
C15 C 0.7404(4) 0.1456(3) 0.5486(2)
H1 H 0.8602 0.4749 -0.3331
H2 H 1.0601 0.4313 -0.2849
H3 H 0.9946 0.6069 -0.3411
H4 H 0.7571 0.8294 0.0098
H5 H 0.5430 0.7966 0.0106
H6 H 0.6638 0.8826 -0.1099
H7 H 0.6547 0.3356 0.2436
H8 H 0.9400 0.0401 0.1663
H9 H 0.8465 0.0757 0.0478
H10 H 0.7262 0.0029 0.1715
H11 H 0.8204 0.0665 0.3614
H12 H 0.6068 0.0406 0.3532
H13 H 0.3809 0.2769 0.4035
H14 H 0.2823 0.3629 0.5637
H15 H 0.4707 0.3114 0.7166
H16 H 0.7534 0.1701 0.7086
H17 H 0.8580 0.0913 0.5449
loop_
_geom_bond_atom_site_label_1
_geom_bond_atom_site_label_2
_geom_bond_site_symmetry_1
_geom_bond_site_symmetry_2
O1 C2 1_555 1_555
O2 C4 1_555 1_555
O3 C6 1_555 1_555
N1 C1 1_555 1_555
N2 C2 1_555 1_555
N3 C7 1_555 1_555
C1 H1 1_555 1_555
C2 N1 1_555 1_555
C3 N2 1_555 1_555
C4 N2 1_555 1_555
C5 C4 1_555 1_555
C6 N1 1_555 1_555
C7 C5 1_555 1_555
C8 C7 1_555 1_555
C9 N3 1_555 1_555
C10 C9 1_555 1_555
C11 C10 1_555 1_555
C12 C11 1_555 1_555
C13 C12 1_555 1_555
C14 C13 1_555 1_555
C15 C10 1_555 1_555
H2 C1 1_555 1_555
H3 C1 1_555 1_555
H4 C3 1_555 1_555
H5 C3 1_555 1_555
H6 C3 1_555 1_555
H7 N3 1_555 1_555
H8 C8 1_555 1_555
H9 C8 1_555 1_555
H10 C8 1_555 1_555
H11 C9 1_555 1_555
H12 C9 1_555 1_555
H13 C11 1_555 1_555
H14 C12 1_555 1_555
H15 C13 1_555 1_555
H16 C14 1_555 1_555
H17 C15 1_555 1_555
C5 C6 1_555 1_555
C14 C15 1_555 1_555

#END
