
#######################################################################
#
#                 Cambridge Crystallographic Data Centre
#                                CCDC 
#
#######################################################################
#
# If this CIF has been generated from an entry in the Cambridge 
# Structural Database, then it will include bibliographic, chemical, 
# crystal, experimental, refinement or atomic coordinate data resulting 
# from the CCDC's data processing and validation procedures.
#
#######################################################################

data_GAKYUN
_chemical_formula_moiety         'C8 H12 N4 O3'
_chemical_name_systematic        
5-(1-Hydrazinoethylidene)-1,3-dimethylpyrimidine-2,4,6(1H,3H,5H)-trione
_symmetry_cell_setting           orthorhombic
_symmetry_space_group_name_H-M   'P b c a'
_symmetry_Int_Tables_number      61
_space_group_name_Hall           '-P 2ac 2ab'
loop_
_symmetry_equiv_pos_site_id
_symmetry_equiv_pos_as_xyz
1 x,y,z
2 1/2+x,y,1/2-z
3 x,1/2-y,1/2+z
4 1/2-x,1/2+y,z
5 -x,-y,-z
6 1/2-x,-y,1/2+z
7 -x,1/2+y,1/2-z
8 1/2+x,1/2-y,-z
_cell_length_a                   7.9669(5)
_cell_length_b                   17.2670(11)
_cell_length_c                   13.6223(9)
_cell_angle_alpha                90
_cell_angle_beta                 90
_cell_angle_gamma                90
_cell_volume                     1873.94
_exptl_crystal_colour            colorless
_exptl_crystal_description       needle
_cell_formula_units_Z            8
_exptl_crystal_recrystallization_method ethanol
loop_
_atom_site_label
_atom_site_type_symbol
_atom_site_fract_x
_atom_site_fract_y
_atom_site_fract_z
O1 O 1.1589(2) 0.49967(9) 0.32501(11)
O2 O 0.95239(17) 0.34103(8) 0.08980(9)
O3 O 0.8848(2) 0.28577(8) 0.42741(9)
N1 N 1.0322(2) 0.38828(9) 0.37377(11)
N2 N 1.0478(2) 0.42123(8) 0.20775(11)
N3 N 0.7788(2) 0.21905(8) 0.13666(11)
N4 N 0.6755(2) 0.15632(9) 0.10817(12)
C1 C 1.0836(3) 0.40278(13) 0.47556(14)
C2 C 1.0841(3) 0.44030(11) 0.30366(14)
C3 C 1.1006(3) 0.47600(12) 0.13169(16)
C4 C 0.9650(2) 0.35372(10) 0.17898(13)
C5 C 0.8996(2) 0.30411(10) 0.25437(13)
C6 C 0.9330(2) 0.32237(10) 0.35578(13)
C7 C 0.8036(2) 0.23712(10) 0.22909(12)
C8 C 0.7317(3) 0.18395(11) 0.30431(14)
H1 H 1.1780 0.4374 0.4762
H2 H 1.1145 0.3547 0.5061
H3 H 0.9921 0.4257 0.5110
H4 H 1.0309 0.5213 0.1344
H5 H 1.0901 0.4521 0.0684
H6 H 1.2155 0.4905 0.1425
H7 H 0.8269 0.2462 0.0919
H8 H 0.6597 0.1469 0.2729
H9 H 0.6681 0.2134 0.3511
H10 H 0.8211 0.1573 0.3374
H11 H 0.6436 0.1692 0.0501
H12 H 0.7278 0.1128 0.1102
loop_
_geom_bond_atom_site_label_1
_geom_bond_atom_site_label_2
_geom_bond_site_symmetry_1
_geom_bond_site_symmetry_2
O1 C2 1_555 1_555
O2 C4 1_555 1_555
O3 C6 1_555 1_555
N1 C1 1_555 1_555
N2 C2 1_555 1_555
N3 N4 1_555 1_555
N4 H11 1_555 1_555
C1 H1 1_555 1_555
C2 N1 1_555 1_555
C3 N2 1_555 1_555
C4 N2 1_555 1_555
C5 C4 1_555 1_555
C6 N1 1_555 1_555
C7 N3 1_555 1_555
C8 C7 1_555 1_555
H2 C1 1_555 1_555
H3 C1 1_555 1_555
H4 C3 1_555 1_555
H5 C3 1_555 1_555
H6 C3 1_555 1_555
H7 N3 1_555 1_555
H8 C8 1_555 1_555
H9 C8 1_555 1_555
H10 C8 1_555 1_555
H12 N4 1_555 1_555
C5 C6 1_555 1_555
C5 C7 1_555 1_555

#END
