
#######################################################################
#
#                 Cambridge Crystallographic Data Centre
#                                CCDC 
#
#######################################################################
#
# If this CIF has been generated from an entry in the Cambridge 
# Structural Database, then it will include bibliographic, chemical, 
# crystal, experimental, refinement or atomic coordinate data resulting 
# from the CCDC's data processing and validation procedures.
#
#######################################################################

data_GALBIF
_chemical_formula_moiety         'C10 H8 N4,C4 H6 O4'
_chemical_name_systematic        'bis(4-Pyridyl)diazene succinic acid'
_symmetry_cell_setting           triclinic
_symmetry_space_group_name_H-M   'P -1'
_symmetry_Int_Tables_number      2
_space_group_name_Hall           '-P 1'
loop_
_symmetry_equiv_pos_site_id
_symmetry_equiv_pos_as_xyz
1 x,y,z
2 -x,-y,-z
_cell_length_a                   4.738(4)
_cell_length_b                   8.954(9)
_cell_length_c                   9.073(10)
_cell_angle_alpha                108.33(4)
_cell_angle_beta                 92.84(4)
_cell_angle_gamma                99.98(4)
_cell_volume                     357.619
_exptl_crystal_colour            red
_exptl_crystal_description       block
_cell_formula_units_Z            1
_exptl_crystal_recrystallization_method acetone/ethanol
loop_
_atom_site_label
_atom_site_type_symbol
_atom_site_fract_x
_atom_site_fract_y
_atom_site_fract_z
N1 N 1.2093(2) 0.67391(14) 0.24475(14)
N2 N 0.5753(2) 0.56882(13) 0.52412(13)
C1 C 1.0494(3) 0.52635(17) 0.20384(16)
H1 H 1.0846 0.4493 0.1143
C2 C 0.8336(3) 0.48203(16) 0.28805(15)
H2 H 0.7236 0.3783 0.2551
C3 C 0.7862(3) 0.59647(15) 0.42259(14)
C4 C 0.9541(3) 0.74919(17) 0.46826(17)
H3 H 0.9281 0.8276 0.5592
C5 C 1.1621(3) 0.78213(17) 0.37486(18)
H4 H 1.2744 0.8851 0.4047
N2A N 0.4247(2) 0.43118(13) 0.47588(13)
C3A C 0.2138(3) 0.40353(15) 0.57741(14)
C2A C 0.1664(3) 0.51797(16) 0.71195(15)
C1A C -0.0494(3) 0.47365(17) 0.79616(16)
N1A N -0.2093(2) 0.32609(14) 0.75525(14)
C5A C -0.1621(3) 0.21787(17) 0.62514(18)
C4A C 0.0459(3) 0.25081(17) 0.53174(17)
H3A H 0.0719 0.1724 0.4408
H4A H -0.2744 0.1149 0.5953
H1A H -0.0846 0.5507 0.8857
H2A H 0.2764 0.6217 0.7449
O1 O 1.5997(2) 0.73357(11) 0.05914(13)
H5 H 1.4932 0.7224 0.1251
O2 O 1.6630(3) 0.99119(13) 0.20257(14)
C6 C 1.7197(3) 0.88604(16) 0.09423(16)
C7 C 1.9323(3) 0.91278(16) -0.01677(18)
H6 H 1.8351 0.8700 -0.1224
H7 H 2.0835 0.8536 -0.0115
C7A C 2.0677(3) 1.08722(16) 0.01677(18)
C6A C 2.2803(3) 1.11396(16) -0.09423(16)
O1A O 2.4003(2) 1.26643(11) -0.05914(13)
H5A H 2.5068 1.2776 -0.1251
O2A O 2.3370(3) 1.00881(13) -0.20257(14)
H6A H 2.1649 1.1300 0.1224
H7A H 1.9165 1.1464 0.0115
loop_
_geom_bond_atom_site_label_1
_geom_bond_atom_site_label_2
_geom_bond_site_symmetry_1
_geom_bond_site_symmetry_2
N1 C1 1_555 1_555
N2 C3 1_555 1_555
C1 H1 1_555 1_555
C2 C1 1_555 1_555
H2 C2 1_555 1_555
C3 C2 1_555 1_555
C4 C3 1_555 1_555
H3 C4 1_555 1_555
C5 N1 1_555 1_555
H4 C5 1_555 1_555
O1 H5 1_555 1_555
O2 C6 1_555 1_555
C6 O1 1_555 1_555
C7 C6 1_555 1_555
H6 C7 1_555 1_555
H7 C7 1_555 1_555
N2A N2 1_555 1_555
C3A N2A 1_555 1_555
C2A C3A 1_555 1_555
C1A C2A 1_555 1_555
N1A C1A 1_555 1_555
C5A N1A 1_555 1_555
C4A C3A 1_555 1_555
H3A C4A 1_555 1_555
H4A C5A 1_555 1_555
H1A C1A 1_555 1_555
H2A C2A 1_555 1_555
C7A C7 1_555 1_555
C6A C7A 1_555 1_555
O1A C6A 1_555 1_555
H5A O1A 1_555 1_555
O2A C6A 1_555 1_555
H6A C7A 1_555 1_555
H7A C7A 1_555 1_555
C4 C5 1_555 1_555
C5A C4A 1_555 1_555

#END
