
#######################################################################
#
#                 Cambridge Crystallographic Data Centre
#                                CCDC 
#
#######################################################################
#
# If this CIF has been generated from an entry in the Cambridge 
# Structural Database, then it will include bibliographic, chemical, 
# crystal, experimental, refinement or atomic coordinate data resulting 
# from the CCDC's data processing and validation procedures.
#
#######################################################################

data_GALDEC
_chemical_name_common            Deferiprone
_chemical_formula_moiety         'C7 H9 N1 O2'
_chemical_name_systematic        3-Hydroxy-1,2-dimethylpyridin-4(1H)-one
_chemical_properties_biological  'orally effective iron chelator activity'
_symmetry_cell_setting           orthorhombic
_symmetry_space_group_name_H-M   'P b c a'
_symmetry_Int_Tables_number      61
_space_group_name_Hall           '-P 2ac 2ab'
loop_
_symmetry_equiv_pos_site_id
_symmetry_equiv_pos_as_xyz
1 x,y,z
2 1/2-x,-y,1/2+z
3 1/2+x,1/2-y,-z
4 -x,1/2+y,1/2-z
5 -x,-y,-z
6 1/2+x,y,1/2-z
7 1/2-x,1/2+y,z
8 x,1/2-y,1/2+z
_cell_length_a                   7.3036(4)
_cell_length_b                   13.0490(6)
_cell_length_c                   13.7681(7)
_cell_angle_alpha                90
_cell_angle_beta                 90
_cell_angle_gamma                90
_cell_volume                     1312.16
_cell_formula_units_Z            8
loop_
_atom_site_label
_atom_site_type_symbol
_atom_site_fract_x
_atom_site_fract_y
_atom_site_fract_z
O1 O 0.4783(4) -0.0564(2) 0.3507(2)
O2 O 0.3734(3) 0.0971(2) 0.4746(1)
N1 N 0.3596(4) 0.1432(2) 0.1821(2)
C1 C 0.4659(6) -0.0323(3) 0.1475(3)
C2 C 0.4157(4) 0.0502(2) 0.2174(2)
C3 C 0.4234(4) 0.0364(2) 0.3163(2)
C4 C 0.3708(4) 0.1144(2) 0.3837(2)
C5 C 0.3144(5) 0.2074(3) 0.3415(2)
C6 C 0.3112(5) 0.2197(3) 0.2431(2)
C7 C 0.3536(7) 0.1628(3) 0.0762(2)
H1 H 0.503(6) -0.053(3) 0.408(3)
H2 H 0.360(5) -0.045(3) 0.108(3)
H3 H 0.572(5) -0.014(3) 0.107(3)
H4 H 0.498(5) -0.091(3) 0.177(3)
H5 H 0.276(4) 0.267(2) 0.380(2)
H6 H 0.272(4) 0.286(2) 0.213(2)
H7 H 0.475(5) 0.144(3) 0.050(2)
H8 H 0.264(5) 0.117(3) 0.048(2)
H9 H 0.318(5) 0.236(3) 0.067(3)
loop_
_geom_bond_atom_site_label_1
_geom_bond_atom_site_label_2
_geom_bond_site_symmetry_1
_geom_bond_site_symmetry_2
O1 C3 1_555 1_555
O2 C4 1_555 1_555
N1 C2 1_555 1_555
C1 C2 1_555 1_555
C2 C3 1_555 1_555
C3 C4 1_555 1_555
C4 C5 1_555 1_555
C5 C6 1_555 1_555
C6 N1 1_555 1_555
C7 N1 1_555 1_555
H1 O1 1_555 1_555
H2 C1 1_555 1_555
H3 C1 1_555 1_555
H4 C1 1_555 1_555
H5 C5 1_555 1_555
H6 C6 1_555 1_555
H7 C7 1_555 1_555
H8 C7 1_555 1_555
H9 C7 1_555 1_555

#END
