
#######################################################################
#
#                 Cambridge Crystallographic Data Centre
#                                CCDC 
#
#######################################################################
#
# If this CIF has been generated from an entry in the Cambridge 
# Structural Database, then it will include bibliographic, chemical, 
# crystal, experimental, refinement or atomic coordinate data resulting 
# from the CCDC's data processing and validation procedures.
#
#######################################################################

data_GALDAZ
_chemical_formula_moiety         'C17 H16 N4 O4'
_chemical_name_systematic        
N,N'-bis(4-Nitrobenzylidene)propane-1,3-diamine
_symmetry_cell_setting           monoclinic
_symmetry_space_group_name_H-M   'C 2/c'
_symmetry_Int_Tables_number      15
_space_group_name_Hall           '-C 2yn'
loop_
_symmetry_equiv_pos_site_id
_symmetry_equiv_pos_as_xyz
1 x,y,z
2 x,-y,1/2+z
3 1/2+x,1/2+y,z
4 1/2+x,1/2-y,1/2+z
5 -x,-y,-z
6 -x,y,1/2-z
7 1/2-x,1/2-y,-z
8 1/2-x,1/2+y,1/2-z
_cell_length_a                   12.9412(6)
_cell_length_b                   7.3062(3)
_cell_length_c                   16.9061(8)
_cell_angle_alpha                90
_cell_angle_beta                 99.559(2)
_cell_angle_gamma                90
_cell_volume                     1576.29
_exptl_crystal_colour            orange
_exptl_crystal_description       needle
_chemical_melting_point          '466-467 K(dec.)'
_cell_formula_units_Z            4
_exptl_crystal_recrystallization_method ethanol
loop_
_atom_site_label
_atom_site_type_symbol
_atom_site_fract_x
_atom_site_fract_y
_atom_site_fract_z
O1 O 0.65464(11) 1.27888(18) 0.60355(8)
O2 O 0.64118(11) 1.04371(18) 0.67879(8)
N1 N 0.64425(11) 1.1139(2) 0.61311(9)
N2 N 0.60720(11) 0.47737(19) 0.34231(8)
C1 C 0.62024(13) 0.7665(2) 0.41140(10)
C2 C 0.63638(14) 0.9535(2) 0.40363(10)
C3 C 0.64361(13) 1.0696(2) 0.46909(10)
C4 C 0.63569(13) 0.9936(2) 0.54262(10)
C5 C 0.61994(14) 0.8077(2) 0.55255(10)
C6 C 0.61140(13) 0.6944(2) 0.48661(10)
C7 C 0.61378(13) 0.6499(2) 0.33954(10)
C8 C 0.60014(14) 0.3797(2) 0.26587(10)
C9 C 0.5000 0.2671(3) 0.2500
H1 H 0.6426 1.0024 0.3526
H2 H 0.6537 1.1974 0.4636
H3 H 0.6151 0.7594 0.6040
H4 H 0.5995 0.5672 0.4923
H5 H 0.6146 0.7067 0.2891
H6 H 0.6615 0.2980 0.2676
H7 H 0.6007 0.4688 0.2218
H8 H 0.5026 0.1871 0.2031
H9 H 0.4974 0.1871 0.2969
C8E C 0.39986(14) 0.3797(2) 0.23413(10)
N2E N 0.39280(11) 0.47737(19) 0.15769(8)
C7E C 0.38622(13) 0.6499(2) 0.16046(10)
C1E C 0.37976(13) 0.7665(2) 0.08860(10)
C2E C 0.36362(14) 0.9535(2) 0.09637(10)
C3E C 0.35639(13) 1.0696(2) 0.03091(10)
C4E C 0.36431(13) 0.9936(2) -0.04262(10)
N1E N 0.35575(11) 1.1139(2) -0.11311(9)
O1E O 0.34536(11) 1.27888(18) -0.10355(8)
O2E O 0.35882(11) 1.04371(18) -0.17879(8)
C5E C 0.38006(14) 0.8077(2) -0.05255(10)
C6E C 0.38860(13) 0.6944(2) 0.01339(10)
H4E H 0.4005 0.5672 0.0077
H3E H 0.3849 0.7594 -0.1040
H2E H 0.3463 1.1974 0.0364
H1E H 0.3574 1.0024 0.1474
H5E H 0.3854 0.7067 0.2109
H6E H 0.3385 0.2980 0.2324
H7E H 0.3993 0.4688 0.2782
loop_
_geom_bond_atom_site_label_1
_geom_bond_atom_site_label_2
_geom_bond_site_symmetry_1
_geom_bond_site_symmetry_2
O1 N1 1_555 1_555
O2 N1 1_555 1_555
N1 C4 1_555 1_555
N2 C7 1_555 1_555
C1 C2 1_555 1_555
C2 C3 1_555 1_555
C3 C4 1_555 1_555
C4 C5 1_555 1_555
C5 C6 1_555 1_555
C6 C1 1_555 1_555
C7 C1 1_555 1_555
C8 N2 1_555 1_555
C9 C8 1_555 1_555
H1 C2 1_555 1_555
H2 C3 1_555 1_555
H3 C5 1_555 1_555
H4 C6 1_555 1_555
H5 C7 1_555 1_555
H6 C8 1_555 1_555
H7 C8 1_555 1_555
H8 C9 1_555 1_555
H9 C9 1_555 1_555
C8E C9 1_555 1_555
N2E C8E 1_555 1_555
C7E N2E 1_555 1_555
C1E C7E 1_555 1_555
C2E C1E 1_555 1_555
C3E C2E 1_555 1_555
C4E C3E 1_555 1_555
N1E C4E 1_555 1_555
O1E N1E 1_555 1_555
O2E N1E 1_555 1_555
C5E C4E 1_555 1_555
C6E C1E 1_555 1_555
H4E C6E 1_555 1_555
H3E C5E 1_555 1_555
H2E C3E 1_555 1_555
H1E C2E 1_555 1_555
H5E C7E 1_555 1_555
H6E C8E 1_555 1_555
H7E C8E 1_555 1_555
C5E C6E 1_555 1_555

#END
