
#######################################################################
#
#                 Cambridge Crystallographic Data Centre
#                                CCDC 
#
#######################################################################
#
# If this CIF has been generated from an entry in the Cambridge 
# Structural Database, then it will include bibliographic, chemical, 
# crystal, experimental, refinement or atomic coordinate data resulting 
# from the CCDC's data processing and validation procedures.
#
#######################################################################

data_GALDED
_chemical_formula_moiety         'C8 H4 F2 N2 O3'
_chemical_name_systematic        3,3-Difluoro-5-nitro-1H-indol-2(3H)-one
_symmetry_cell_setting           monoclinic
_symmetry_space_group_name_H-M   'P 21/c'
_symmetry_Int_Tables_number      14
_space_group_name_Hall           '-P 2ybc'
loop_
_symmetry_equiv_pos_site_id
_symmetry_equiv_pos_as_xyz
1 x,y,z
2 x,1/2-y,1/2+z
3 -x,-y,-z
4 -x,1/2+y,1/2-z
_cell_length_a                   11.0529(4)
_cell_length_b                   15.4381(6)
_cell_length_c                   9.2768(4)
_cell_angle_alpha                90
_cell_angle_beta                 90.951(2)
_cell_angle_gamma                90
_cell_volume                     1582.74
_exptl_crystal_colour            yellow
_exptl_crystal_description       block
_chemical_melting_point          '459-460 K'
_cell_formula_units_Z            8
_exptl_crystal_recrystallization_method acetonitrile
loop_
_atom_site_label
_atom_site_type_symbol
_atom_site_fract_x
_atom_site_fract_y
_atom_site_fract_z
F1 F -0.04435(7) 0.75196(5) 0.68875(9)
F2 F 0.06701(8) 0.74983(5) 0.88442(9)
O1 O 0.22009(9) 0.73174(7) 0.63905(11)
O2 O -0.29573(10) 0.53040(7) 1.05503(12)
O3 O -0.23822(9) 0.39721(6) 1.02704(11)
N1 N 0.13652(11) 0.59334(8) 0.64370(13)
N2 N -0.23069(10) 0.47540(8) 0.99992(13)
C1 C 0.14473(13) 0.67972(9) 0.67466(15)
C2 C 0.03345(13) 0.70129(9) 0.76904(15)
C3 C -0.01902(12) 0.61490(9) 0.80219(15)
C4 C -0.11111(12) 0.59184(9) 0.89226(15)
C5 C -0.13848(12) 0.50402(9) 0.89886(14)
C6 C -0.07966(13) 0.44197(9) 0.81771(15)
C7 C 0.01354(13) 0.46609(9) 0.72587(16)
C8 C 0.04350(12) 0.55325(9) 0.72094(15)
H1 H 0.1836 0.5662 0.5829
H2 H -0.1537 0.6336 0.9470
H3 H -0.1028 0.3829 0.8245
H4 H 0.0546 0.4245 0.6692
F3 F 0.57606(8) 0.56843(5) 0.34072(9)
F4 F 0.44907(8) 0.57528(5) 0.15914(9)
O4 O 0.32454(11) 0.58867(7) 0.43013(13)
O5 O 0.78901(9) 0.79173(7) -0.05958(11)
O6 O 0.79517(9) 0.91845(6) 0.04203(11)
N3 N 0.39276(11) 0.72992(7) 0.39912(13)
N4 N 0.75454(10) 0.84455(7) 0.03053(12)
C9 C 0.39055(13) 0.64264(9) 0.37930(15)
C10 C 0.49404(13) 0.62130(9) 0.27326(15)
C11 C 0.54302(12) 0.70766(9) 0.23409(15)
C12 C 0.63337(12) 0.72974(9) 0.14063(14)
C13 C 0.65924(12) 0.81772(9) 0.12913(14)
C14 C 0.59836(13) 0.88096(9) 0.20610(15)
C15 C 0.50592(13) 0.85779(9) 0.29936(16)
C16 C 0.48003(12) 0.77018(9) 0.31233(15)
H5 H 0.3455 0.7579 0.4588
H6 H 0.6757 0.6874 0.0870
H7 H 0.6197 0.9402 0.1952
H8 H 0.4626 0.9002 0.3517
loop_
_geom_bond_atom_site_label_1
_geom_bond_atom_site_label_2
_geom_bond_site_symmetry_1
_geom_bond_site_symmetry_2
F1 C2 1_555 1_555
F2 C2 1_555 1_555
O1 C1 1_555 1_555
O2 N2 1_555 1_555
O3 N2 1_555 1_555
N1 C1 1_555 1_555
N2 C5 1_555 1_555
C1 C2 1_555 1_555
C2 C3 1_555 1_555
C3 C4 1_555 1_555
C4 C5 1_555 1_555
C5 C6 1_555 1_555
C6 C7 1_555 1_555
C7 C8 1_555 1_555
C8 N1 1_555 1_555
F3 C10 1_555 1_555
F4 C10 1_555 1_555
O4 C9 1_555 1_555
O5 N4 1_555 1_555
O6 N4 1_555 1_555
N3 C9 1_555 1_555
N4 C13 1_555 1_555
C9 C10 1_555 1_555
C10 C11 1_555 1_555
C11 C12 1_555 1_555
C12 C13 1_555 1_555
C13 C14 1_555 1_555
C14 C15 1_555 1_555
C15 C16 1_555 1_555
C16 N3 1_555 1_555
H1 N1 1_555 1_555
H2 C4 1_555 1_555
H3 C6 1_555 1_555
H4 C7 1_555 1_555
H5 N3 1_555 1_555
H6 C12 1_555 1_555
H7 C14 1_555 1_555
H8 C15 1_555 1_555
C3 C8 1_555 1_555
C11 C16 1_555 1_555

#END
