
#######################################################################
#
#                 Cambridge Crystallographic Data Centre
#                                CCDC 
#
#######################################################################
#
# If this CIF has been generated from an entry in the Cambridge 
# Structural Database, then it will include bibliographic, chemical, 
# crystal, experimental, refinement or atomic coordinate data resulting 
# from the CCDC's data processing and validation procedures.
#
#######################################################################

data_GALKIO
_chemical_formula_moiety         'C33 H39 N3 O7'
_chemical_name_systematic        
'8-Allyl-3a-(3-((4S)-4-benzyl-2-oxo-oxazolidin-3-yl)-1-(methoxycarbonyl)-3-oxopropyl)-3,3a,8,8a-tetrahydro-2H-pyrrolo(2,3-b)indole-1-carboxylic acid t-butyl ester'
_symmetry_cell_setting           monoclinic
_symmetry_space_group_name_H-M   'P 21'
_symmetry_Int_Tables_number      4
_space_group_name_Hall           'P 2yb'
loop_
_symmetry_equiv_pos_site_id
_symmetry_equiv_pos_as_xyz
1 x,y,z
2 -x,1/2+y,-z
_cell_length_a                   8.911(3)
_cell_length_b                   35.439(11)
_cell_length_c                   9.979(3)
_cell_angle_alpha                90
_cell_angle_beta                 92.251(6)
_cell_angle_gamma                90
_cell_volume                     3148.91
_exptl_crystal_colour            colorless
_exptl_crystal_description       blade
_cell_formula_units_Z            4
_exptl_crystal_recrystallization_method benzene/hexanes
loop_
_atom_site_label
_atom_site_type_symbol
_atom_site_fract_x
_atom_site_fract_y
_atom_site_fract_z
O1 O 0.7590(12) 0.5508(3) 0.0341(11)
O2 O 0.5804(10) 0.5098(3) -0.0429(10)
O3 O 0.6513(10) 0.4444(3) 0.2413(10)
O4 O 0.7659(12) 0.4686(3) 0.4196(10)
O5 O 0.5268(12) 0.4031(3) 0.5188(11)
O6 O 0.1379(11) 0.3981(3) 0.2620(10)
O7 O 0.1771(11) 0.3350(3) 0.2914(11)
N1 N 0.5478(14) 0.5396(3) 0.1477(12)
N2 N 0.2837(15) 0.5262(4) 0.1591(15)
N3 N 0.3418(14) 0.3749(4) 0.4011(13)
C1 C 0.5893(18) 0.5670(5) 0.2636(16)
H1 H 0.5197 0.5888 0.2636
H2 H 0.6933 0.5764 0.2569
C2 C 0.5742(15) 0.5434(4) 0.3871(14)
H3 H 0.5448 0.5593 0.4634
H4 H 0.6705 0.5308 0.4116
C3 C 0.4524(15) 0.5143(4) 0.3528(14)
C4 C 0.2970(17) 0.5262(4) 0.3901(16)
C5 C 0.2465(16) 0.5312(4) 0.5158(15)
H5 H 0.3106 0.5271 0.5927
C6 C 0.1030(16) 0.5423(4) 0.5280(16)
H6 H 0.0638 0.5442 0.6149
C7 C 0.015(2) 0.5506(5) 0.4218(18)
H7 H -0.0844 0.5590 0.4360
C8 C 0.0626(18) 0.5474(5) 0.2854(17)
H8 H -0.0011 0.5537 0.2103
C9 C 0.2017(16) 0.5349(4) 0.2727(15)
C10 C 0.4384(15) 0.5156(4) 0.1803(14)
H9 H 0.4567 0.4901 0.1421
C11 C 0.636(2) 0.5391(5) 0.0494(18)
C12 C 0.6707(16) 0.4908(4) -0.1451(15)
C13 C 0.7960(19) 0.4693(6) -0.0703(18)
H10 H 0.8330 0.4841 0.0070
H11 H 0.8783 0.4648 -0.1306
H12 H 0.7572 0.4450 -0.0392
C14 C 0.725(2) 0.5189(6) -0.2533(19)
H13 H 0.6405 0.5345 -0.2858
H14 H 0.7648 0.5047 -0.3283
H15 H 0.8041 0.5351 -0.2137
C15 C 0.5607(18) 0.4621(5) -0.2041(17)
H16 H 0.5346 0.4439 -0.1347
H17 H 0.6067 0.4487 -0.2780
H18 H 0.4696 0.4750 -0.2378
C16 C 0.2262(18) 0.5354(5) 0.0316(16)
H19 H 0.2985 0.5522 -0.0117
H20 H 0.1318 0.5497 0.0409
C17 C 0.1927(19) 0.4999(5) -0.0649(17)
C18 C 0.190(2) 0.4666(6) -0.016(2)
H23 H 0.2080 0.4629 0.0776
H24 H 0.1702 0.4456 -0.0730
C19 C 0.4982(15) 0.4717(4) 0.4052(14)
H25 H 0.5093 0.4740 0.5049
C20 C 0.6427(18) 0.4616(5) 0.3641(17)
C21 C 0.9139(15) 0.4595(4) 0.3791(15)
H26 H 0.9258 0.4320 0.3764
H27 H 0.9881 0.4703 0.4433
H28 H 0.9291 0.4700 0.2897
C22 C 0.3764(17) 0.4446(4) 0.3823(15)
H29 H 0.2846 0.4498 0.3342
C23 C 0.4175(17) 0.4070(5) 0.4466(16)
C24 C 0.2123(18) 0.3725(5) 0.3132(16)
C25 C 0.2995(15) 0.3121(4) 0.3534(14)
H30 H 0.3727 0.3051 0.2855
H31 H 0.2586 0.2886 0.3918
C26 C 0.3758(18) 0.3361(5) 0.4641(16)
H32 H 0.4866 0.3313 0.4678
C27 C 0.3132(15) 0.3340(4) 0.6093(15)
H33 H 0.3350 0.3086 0.6465
H34 H 0.3686 0.3526 0.6667
C28 C 0.1492(17) 0.3414(5) 0.6187(15)
C29 C 0.0977(18) 0.3769(5) 0.6454(16)
H35 H 0.1648 0.3972 0.6638
C30 C -0.0546(19) 0.3818(5) 0.6446(17)
H36 H -0.0897 0.4068 0.6590
C31 C -0.159(2) 0.3550(6) 0.6255(19)
H37 H -0.2625 0.3602 0.6351
C32 C -0.112(2) 0.3207(6) 0.5924(19)
H38 H -0.1800 0.3007 0.5699
C33 C 0.037(2) 0.3163(6) 0.5931(19)
H39 H 0.0698 0.2916 0.5722
O8 O 1.2695(11) 0.1363(3) 0.5637(10)
O9 O 1.0561(10) 0.1684(3) 0.6228(9)
O10 O 1.1472(11) 0.2259(3) 0.3364(11)
O11 O 1.2448(11) 0.1998(3) 0.1671(9)
O12 O 1.0126(11) 0.2692(3) 0.0653(10)
O13 O 0.6417(11) 0.2741(3) 0.3234(11)
O14 O 0.6788(11) 0.3353(3) 0.2922(10)
N4 N 1.0625(12) 0.1372(3) 0.4263(11)
N5 N 0.7896(13) 0.1366(3) 0.4027(12)
N6 N 0.8308(13) 0.2973(3) 0.1802(12)
C34 C 1.148(2) 0.1191(5) 0.3198(18)
H40 H 1.1599 0.0917 0.3363
H41 H 1.2491 0.1306 0.3140
C35 C 1.0519(18) 0.1266(5) 0.1911(17)
H42 H 0.9998 0.1031 0.1619
H43 H 1.1166 0.1349 0.1183
C36 C 0.9354(16) 0.1576(4) 0.2205(15)
C37 C 0.7789(17) 0.1453(4) 0.1799(15)
C38 C 0.7097(16) 0.1441(4) 0.0471(15)
H44 H 0.7629 0.1524 -0.0282
C39 C 0.5658(15) 0.1308(4) 0.0313(15)
H45 H 0.5158 0.1325 -0.0543
C40 C 0.4936(18) 0.1154(4) 0.1329(17)
H46 H 0.4006 0.1028 0.1170
C41 C 0.5604(18) 0.1184(4) 0.2701(16)
H47 H 0.5045 0.1117 0.3457
C42 C 0.7004(17) 0.1307(4) 0.2850(15)
C43 C 0.9228(16) 0.1553(4) 0.3807(15)
H48 H 0.9183 0.1814 0.4186
C44 C 1.1449(15) 0.1436(4) 0.5458(13)
C45 C 1.1343(17) 0.1883(5) 0.7308(16)
C46 C 1.264(2) 0.2076(5) 0.702(2)
H49 H 1.3515 0.1912 0.7199
H50 H 1.2735 0.2301 0.7595
H51 H 1.2605 0.2153 0.6080
C47 C 1.167(2) 0.1553(6) 0.8532(19)
H52 H 1.0852 0.1367 0.8501
H53 H 1.1712 0.1677 0.9411
H54 H 1.2623 0.1426 0.8387
C48 C 1.0072(17) 0.2122(5) 0.7705(17)
H55 H 0.9902 0.2323 0.7040
H56 H 1.0307 0.2235 0.8585
H57 H 0.9165 0.1967 0.7752
C49 C 0.7308(19) 0.1322(5) 0.5356(17)
H58 H 0.8146 0.1247 0.5979
H59 H 0.6575 0.1112 0.5324
C50 C 0.6594(15) 0.1646(4) 0.5901(15)
H60 H 0.6296 0.1634 0.6804
C51 C 0.6316(17) 0.1970(5) 0.5204(17)
H61 H 0.6601 0.1990 0.4300
H62 H 0.5837 0.2176 0.5622
C52 C 0.9870(13) 0.1974(4) 0.1696(13)
H63 H 0.9903 0.1958 0.0697
C53 C 1.1293(18) 0.2068(5) 0.2164(17)
C54 C 1.3954(17) 0.2099(5) 0.2224(17)
H64 H 1.4196 0.2358 0.1958
H65 H 1.4700 0.1925 0.1877
H66 H 1.3966 0.2083 0.3205
C55 C 0.8695(16) 0.2268(4) 0.2006(15)
H67 H 0.8636 0.2296 0.2989
H68 H 0.7700 0.2185 0.1642
C56 C 0.9119(17) 0.2668(5) 0.1352(17)
C57 C 0.7121(18) 0.2995(5) 0.2646(16)
C58 C 0.7967(16) 0.3605(4) 0.2347(15)
H69 H 0.8748 0.3674 0.3037
H70 H 0.7514 0.3839 0.1965
C59 C 0.8629(16) 0.3354(4) 0.1228(14)
H71 H 0.9739 0.3393 0.1207
C60 C 0.7915(16) 0.3384(5) -0.0224(15)
H72 H 0.8185 0.3631 -0.0610
H73 H 0.8342 0.3185 -0.0788
C61 C 0.6193(16) 0.3345(5) -0.0264(15)
C62 C 0.5516(18) 0.2994(5) -0.0412(16)
H74 H 0.6126 0.2778 -0.0543
C63 C 0.3983(18) 0.2950(5) -0.0372(16)
H75 H 0.3555 0.2707 -0.0504
C64 C 0.303(2) 0.3263(5) -0.0137(18)
H76 H 0.1981 0.3234 -0.0040
C65 C 0.3642(17) 0.3566(5) -0.0067(15)
H77 H 0.3042 0.3786 -0.0008
C66 C 0.5161(18) 0.3603(5) -0.0072(17)
H78 H 0.5531 0.3851 0.0087
H21? H 0.0941 0.5043 -0.1115
H22? H 0.2689 0.5001 -0.1343
loop_
_geom_bond_atom_site_label_1
_geom_bond_atom_site_label_2
_geom_bond_site_symmetry_1
_geom_bond_site_symmetry_2
O1 C11 1_555 1_555
O2 C11 1_555 1_555
O3 C20 1_555 1_555
O4 C20 1_555 1_555
O5 C23 1_555 1_555
O6 C24 1_555 1_555
O7 C24 1_555 1_555
N1 C1 1_555 1_555
N2 C9 1_555 1_555
N3 C23 1_555 1_555
C1 H1 1_555 1_555
H2 C1 1_555 1_555
C2 C1 1_555 1_555
H3 C2 1_555 1_555
H4 C2 1_555 1_555
C3 C2 1_555 1_555
C4 C3 1_555 1_555
C5 C4 1_555 1_555
H5 C5 1_555 1_555
C6 C5 1_555 1_555
H6 C6 1_555 1_555
C7 C6 1_555 1_555
H7 C7 1_555 1_555
C8 C7 1_555 1_555
H8 C8 1_555 1_555
C9 C4 1_555 1_555
C10 N1 1_555 1_555
H9 C10 1_555 1_555
C11 N1 1_555 1_555
C12 O2 1_555 1_555
C13 C12 1_555 1_555
H10 C13 1_555 1_555
H11 C13 1_555 1_555
H12 C13 1_555 1_555
C14 C12 1_555 1_555
H13 C14 1_555 1_555
H14 C14 1_555 1_555
H15 C14 1_555 1_555
C15 C12 1_555 1_555
H16 C15 1_555 1_555
H17 C15 1_555 1_555
H18 C15 1_555 1_555
C16 N2 1_555 1_555
H19 C16 1_555 1_555
H20 C16 1_555 1_555
C17 C16 1_555 1_555
C18 C17 1_555 1_555
H23 C18 1_555 1_555
H24 C18 1_555 1_555
C19 C3 1_555 1_555
H25 C19 1_555 1_555
C20 C19 1_555 1_555
C21 O4 1_555 1_555
H26 C21 1_555 1_555
H27 C21 1_555 1_555
H28 C21 1_555 1_555
C22 C19 1_555 1_555
H29 C22 1_555 1_555
C23 C22 1_555 1_555
C24 N3 1_555 1_555
C25 O7 1_555 1_555
H30 C25 1_555 1_555
H31 C25 1_555 1_555
C26 N3 1_555 1_555
H32 C26 1_555 1_555
C27 C26 1_555 1_555
H33 C27 1_555 1_555
H34 C27 1_555 1_555
C28 C27 1_555 1_555
C29 C28 1_555 1_555
H35 C29 1_555 1_555
C30 C29 1_555 1_555
H36 C30 1_555 1_555
C31 C30 1_555 1_555
H37 C31 1_555 1_555
C32 C31 1_555 1_555
H38 C32 1_555 1_555
C33 C28 1_555 1_555
H39 C33 1_555 1_555
O8 C44 1_555 1_555
O9 C44 1_555 1_555
O10 C53 1_555 1_555
O11 C53 1_555 1_555
O12 C56 1_555 1_555
O13 C57 1_555 1_555
O14 C57 1_555 1_555
N4 C34 1_555 1_555
N5 C42 1_555 1_555
N6 C56 1_555 1_555
C34 H40 1_555 1_555
H41 C34 1_555 1_555
C35 C34 1_555 1_555
H42 C35 1_555 1_555
H43 C35 1_555 1_555
C36 C35 1_555 1_555
C37 C36 1_555 1_555
C38 C37 1_555 1_555
H44 C38 1_555 1_555
C39 C38 1_555 1_555
H45 C39 1_555 1_555
C40 C39 1_555 1_555
H46 C40 1_555 1_555
C41 C40 1_555 1_555
H47 C41 1_555 1_555
C42 C37 1_555 1_555
C43 N4 1_555 1_555
H48 C43 1_555 1_555
C44 N4 1_555 1_555
C45 O9 1_555 1_555
C46 C45 1_555 1_555
H49 C46 1_555 1_555
H50 C46 1_555 1_555
H51 C46 1_555 1_555
C47 C45 1_555 1_555
H52 C47 1_555 1_555
H53 C47 1_555 1_555
H54 C47 1_555 1_555
C48 C45 1_555 1_555
H55 C48 1_555 1_555
H56 C48 1_555 1_555
H57 C48 1_555 1_555
C49 N5 1_555 1_555
H58 C49 1_555 1_555
H59 C49 1_555 1_555
C50 C49 1_555 1_555
H60 C50 1_555 1_555
C51 C50 1_555 1_555
H61 C51 1_555 1_555
H62 C51 1_555 1_555
C52 C36 1_555 1_555
H63 C52 1_555 1_555
C53 C52 1_555 1_555
C54 O11 1_555 1_555
H64 C54 1_555 1_555
H65 C54 1_555 1_555
H66 C54 1_555 1_555
C55 C52 1_555 1_555
H67 C55 1_555 1_555
H68 C55 1_555 1_555
C56 C55 1_555 1_555
C57 N6 1_555 1_555
C58 O14 1_555 1_555
H69 C58 1_555 1_555
H70 C58 1_555 1_555
C59 N6 1_555 1_555
H71 C59 1_555 1_555
C60 C59 1_555 1_555
H72 C60 1_555 1_555
H73 C60 1_555 1_555
C61 C60 1_555 1_555
C62 C61 1_555 1_555
H74 C62 1_555 1_555
C63 C62 1_555 1_555
H75 C63 1_555 1_555
C64 C63 1_555 1_555
H76 C64 1_555 1_555
C65 C64 1_555 1_555
H77 C65 1_555 1_555
C66 C61 1_555 1_555
H78 C66 1_555 1_555
N2 C10 1_555 1_555
C3 C10 1_555 1_555
C8 C9 1_555 1_555
C25 C26 1_555 1_555
C32 C33 1_555 1_555
N5 C43 1_555 1_555
C36 C43 1_555 1_555
C41 C42 1_555 1_555
C58 C59 1_555 1_555
C65 C66 1_555 1_555

#END
