
#######################################################################
#
#                 Cambridge Crystallographic Data Centre
#                                CCDC 
#
#######################################################################
#
# If this CIF has been generated from an entry in the Cambridge 
# Structural Database, then it will include bibliographic, chemical, 
# crystal, experimental, refinement or atomic coordinate data resulting 
# from the CCDC's data processing and validation procedures.
#
#######################################################################

data_GALSAO
_chemical_formula_moiety         'C29 H26 O5,0.5(C2 H6 O1)'
_chemical_name_systematic        
'3,3-bis(2,4-Dimethoxyphenyl)-3H-naphtho(2,1-b)pyran ethanol clathrate'
_symmetry_cell_setting           orthorhombic
_symmetry_space_group_name_H-M   'P 21 21 21'
_symmetry_Int_Tables_number      19
_space_group_name_Hall           'P 2ac 2ab'
loop_
_symmetry_equiv_pos_site_id
_symmetry_equiv_pos_as_xyz
1 x,y,z
2 1/2-x,-y,1/2+z
3 -x,1/2+y,1/2-z
4 1/2+x,1/2-y,-z
_cell_length_a                   9.9110(18)
_cell_length_b                   11.632(2)
_cell_length_c                   23.384(4)
_cell_angle_alpha                90
_cell_angle_beta                 90
_cell_angle_gamma                90
_cell_volume                     2695.82
_exptl_crystal_colour            colorless
_chemical_melting_point          '95 deg.C'
_cell_formula_units_Z            4
_chemical_properties_physical    light-sensitive
_exptl_crystal_preparation       photochromic
loop_
_atom_site_label
_atom_site_type_symbol
_atom_site_fract_x
_atom_site_fract_y
_atom_site_fract_z
O1 O 0.9963(4) 1.0126(3) 0.13893(14)
O2 O 0.6987(5) 0.9374(4) 0.1243(2)
O3 O 0.4679(5) 1.2532(5) 0.2075(3)
O4 O 0.8824(5) 0.8807(4) 0.30181(18)
O5 O 1.2924(7) 1.0133(7) 0.3808(2)
C1 C 0.9064(5) 0.8385(5) 0.1829(2)
H1 H 0.8345 0.8043 0.2020
C2 C 0.9845(5) 0.7749(5) 0.1493(2)
H2 H 0.9732 0.6956 0.1486
C3 C 1.0863(5) 0.8270(5) 0.1138(2)
C4 C 1.1792(6) 0.7620(6) 0.0786(2)
C5 C 1.1900(7) 0.6427(7) 0.0807(3)
H3 H 1.1366 0.6024 0.1065
C6 C 1.2756(8) 0.5831(8) 0.0464(3)
H4 H 1.2825 0.5037 0.0498
C7 C 1.3540(8) 0.6420(10) 0.0056(3)
H5 H 1.4111 0.6015 -0.0187
C8 C 1.3461(7) 0.7572(9) 0.0020(3)
H6 H 1.3982 0.7952 -0.0252
C9 C 1.2617(6) 0.8219(7) 0.0380(2)
C10 C 1.2520(6) 0.9431(7) 0.0351(3)
H7 H 1.3048 0.9825 0.0087
C11 C 1.1680(6) 1.0032(6) 0.0696(2)
H8 H 1.1646 1.0829 0.0670
C12 C 1.0854(5) 0.9451(5) 0.1095(2)
C13 C 0.9330(5) 0.9666(5) 0.1908(2)
C14 C 0.8074(5) 1.0409(5) 0.1979(2)
C15 C 0.6938(6) 1.0253(6) 0.1631(3)
C16 C 0.5824(7) 1.0971(6) 0.1684(3)
H9 H 0.5069 1.0848 0.1456
C17 C 0.5831(6) 1.1868(6) 0.2073(3)
C18 C 0.6942(7) 1.2051(6) 0.2413(3)
H10 H 0.6953 1.2650 0.2676
C19 C 0.8045(6) 1.1329(6) 0.2358(3)
H11 H 0.8800 1.1466 0.2584
C20 C 0.5833(8) 0.9158(8) 0.0894(4)
H12 H 0.5038 0.9147 0.1129
H13 H 0.5933 0.8428 0.0707
H14 H 0.5751 0.9753 0.0612
C21 C 0.4650(8) 1.3475(7) 0.2439(4)
H15 H 0.4636 1.3215 0.2829
H16 H 0.3856 1.3922 0.2364
H17 H 0.5437 1.3938 0.2376
C22 C 1.0322(5) 0.9821(5) 0.2413(2)
C23 C 1.0050(6) 0.9331(5) 0.2955(2)
C24 C 1.0952(8) 0.9458(6) 0.3401(3)
H18 H 1.0757 0.9133 0.3755
C25 C 1.2134(8) 1.0055(6) 0.3328(3)
C26 C 1.2444(6) 1.0517(6) 0.2809(3)
H19 H 1.3254 1.0907 0.2757
C27 C 1.1526(5) 1.0400(5) 0.2348(3)
H20 H 1.1740 1.0720 0.1995
C28 C 0.8554(10) 0.8169(7) 0.3525(3)
H21 H 0.9219 0.7576 0.3569
H22 H 0.7674 0.7828 0.3499
H23 H 0.8586 0.8674 0.3850
C29 C 1.4037(14) 1.0871(14) 0.3786(5)
H24 H 1.4660 1.0602 0.3502
H25 H 1.4474 1.0884 0.4153
H26 H 1.3741 1.1632 0.3690
O6 O 0.8870(15) 0.2474(13) 0.0073(7)
H27 H 0.9549 0.2114 0.0163
C30 C 0.7814(19) 0.222(3) 0.0465(8)
H28 H 0.7822 0.2794 0.0767
H29 H 0.7989 0.1480 0.0639
C31 C 0.6436(15) 0.2200(14) 0.0197(6)
H30 H 0.6504 0.2417 -0.0198
H31 H 0.5857 0.2731 0.0393
H32 H 0.6068 0.1439 0.0224
loop_
_geom_bond_atom_site_label_1
_geom_bond_atom_site_label_2
_geom_bond_site_symmetry_1
_geom_bond_site_symmetry_2
O1 C12 1_555 1_555
O2 C15 1_555 1_555
O3 C17 1_555 1_555
O4 C23 1_555 1_555
O5 C25 1_555 1_555
C1 H1 1_555 1_555
C2 C1 1_555 1_555
H2 C2 1_555 1_555
C3 C2 1_555 1_555
C4 C3 1_555 1_555
C5 C4 1_555 1_555
H3 C5 1_555 1_555
C6 C5 1_555 1_555
H4 C6 1_555 1_555
C7 C6 1_555 1_555
H5 C7 1_555 1_555
C8 C7 1_555 1_555
H6 C8 1_555 1_555
C9 C4 1_555 1_555
C10 C9 1_555 1_555
H7 C10 1_555 1_555
C11 C10 1_555 1_555
H8 C11 1_555 1_555
C12 C3 1_555 1_555
C13 O1 1_555 1_555
C14 C13 1_555 1_555
C15 C14 1_555 1_555
C16 C15 1_555 1_555
H9 C16 1_555 1_555
C17 C16 1_555 1_555
C18 C17 1_555 1_555
H10 C18 1_555 1_555
C19 C14 1_555 1_555
H11 C19 1_555 1_555
C20 O2 1_555 1_555
H12 C20 1_555 1_555
H13 C20 1_555 1_555
H14 C20 1_555 1_555
C21 O3 1_555 1_555
H15 C21 1_555 1_555
H16 C21 1_555 1_555
H17 C21 1_555 1_555
C22 C13 1_555 1_555
C23 C22 1_555 1_555
C24 C23 1_555 1_555
H18 C24 1_555 1_555
C25 C24 1_555 1_555
C26 C25 1_555 1_555
H19 C26 1_555 1_555
C27 C22 1_555 1_555
H20 C27 1_555 1_555
C28 O4 1_555 1_555
H21 C28 1_555 1_555
H22 C28 1_555 1_555
H23 C28 1_555 1_555
C29 O5 1_555 1_555
H24 C29 1_555 1_555
H25 C29 1_555 1_555
H26 C29 1_555 1_555
O6 H27 1_555 1_555
C30 O6 1_555 1_555
H28 C30 1_555 1_555
H29 C30 1_555 1_555
C31 C30 1_555 1_555
H30 C31 1_555 1_555
H31 C31 1_555 1_555
H32 C31 1_555 1_555
C1 C13 1_555 1_555
C8 C9 1_555 1_555
C11 C12 1_555 1_555
C18 C19 1_555 1_555
C26 C27 1_555 1_555

#END
