
#######################################################################
#
#                 Cambridge Crystallographic Data Centre
#                                CCDC 
#
#######################################################################
#
# If this CIF has been generated from an entry in the Cambridge 
# Structural Database, then it will include bibliographic, chemical, 
# crystal, experimental, refinement or atomic coordinate data resulting 
# from the CCDC's data processing and validation procedures.
#
#######################################################################

data_GAMBUT01
_chemical_formula_moiety         'C4 H9 N1 O2'
_chemical_name_systematic        '\g-Aminobutyric acid'
_chemical_properties_biological  'natural inhibitory transmitter agent'
_symmetry_cell_setting           monoclinic
_symmetry_space_group_name_H-M   'P 21/a'
_symmetry_Int_Tables_number      14
_space_group_name_Hall           '-P 2yab'
loop_
_symmetry_equiv_pos_site_id
_symmetry_equiv_pos_as_xyz
1 x,y,z
2 1/2-x,1/2+y,-z
3 -x,-y,-z
4 1/2+x,1/2-y,z
_cell_length_a                   8.228(5)
_cell_length_b                   10.036(9)
_cell_length_c                   7.210(4)
_cell_angle_alpha                90
_cell_angle_beta                 110.63
_cell_angle_gamma                90
_cell_volume                     557.196
_chemical_melting_point          203deg.C
_cell_formula_units_Z            4
loop_
_atom_site_label
_atom_site_type_symbol
_atom_site_fract_x
_atom_site_fract_y
_atom_site_fract_z
C1 C 0.16520 -0.19900 -0.10860
C2 C 0.29420 -0.09140 -0.00190
C3 C 0.38360 -0.12270 0.21810
C4 C 0.26820 -0.10520 0.34140
H1 H 0.15400 -0.14300 -0.38200
H2 H 0.00200 -0.08000 -0.31600
H3 H -0.00400 -0.22200 -0.38000
H4 H 0.07500 -0.21500 -0.04200
H5 H 0.23200 -0.28800 -0.10400
H6 H 0.23300 -0.00200 -0.00400
H7 H 0.38100 -0.07900 -0.06600
H8 H 0.49000 -0.06200 0.28500
H9 H 0.43900 -0.21400 0.23600
N1 N 0.07010 -0.15880 -0.31900
O1 O 0.12250 -0.05190 0.26520
O2 O 0.32820 -0.14750 0.51840
loop_
_geom_bond_atom_site_label_1
_geom_bond_atom_site_label_2
_geom_bond_site_symmetry_1
_geom_bond_site_symmetry_2
C1 C2 1_555 1_555
C2 C3 1_555 1_555
C3 C4 1_555 1_555
C4 O1 1_555 1_555
H1 N1 1_555 1_555
H2 N1 1_555 1_555
H3 N1 1_555 1_555
H4 C1 1_555 1_555
H5 C1 1_555 1_555
H6 C2 1_555 1_555
H7 C2 1_555 1_555
H8 C3 1_555 1_555
H9 C3 1_555 1_555
N1 C1 1_555 1_555
O2 C4 1_555 1_555

#END
