
#######################################################################
#
#                 Cambridge Crystallographic Data Centre
#                                CCDC 
#
#######################################################################
#
# If this CIF has been generated from an entry in the Cambridge 
# Structural Database, then it will include bibliographic, chemical, 
# crystal, experimental, refinement or atomic coordinate data resulting 
# from the CCDC's data processing and validation procedures.
#
#######################################################################

data_GAMBUU
_chemical_formula_moiety         'C24 H32 Br1 N4 P4 1+,Br1 1-'
_chemical_name_systematic        
'12-(12-bromo-2,3,4,7,8,9,10,12-octahydro-1H,6H-[1,2,3]benzodiazaphospholo[2,1-a][1,2,3]benzodiazaphosphol-6-yl)-2,3,4,7,8,9,10,12-octahydro-1H-[1,2,3]benzodiazaphospholo[2,1-a][1,2,3]benzodiazaphosphol-5-ium bromide'
_symmetry_cell_setting           monoclinic
_symmetry_space_group_name_H-M   'P 21/c'
_symmetry_Int_Tables_number      14
_space_group_name_Hall           '-P 2ybc'
loop_
_symmetry_equiv_pos_site_id
_symmetry_equiv_pos_as_xyz
1 x,y,z
2 -x,1/2+y,1/2-z
3 -x,-y,-z
4 x,1/2-y,1/2+z
_cell_length_a                   9.0444(12)
_cell_length_b                   20.656(3)
_cell_length_c                   14.4835(18)
_cell_angle_alpha                90
_cell_angle_beta                 104.857(2)
_cell_angle_gamma                90
_cell_volume                     2615.36
_exptl_crystal_colour            red
_exptl_crystal_description       prism
_cell_formula_units_Z            4
loop_
_atom_site_label
_atom_site_type_symbol
_atom_site_fract_x
_atom_site_fract_y
_atom_site_fract_z
P1 P 0.30804(8) 0.66712(3) 0.90285(4)
P2 P 0.14211(7) 0.60989(3) 0.61646(4)
P3 P 0.34352(8) 0.59377(3) 0.55078(4)
P4 P 0.72792(8) 0.53067(3) 0.76769(5)
N1 N 0.2570(2) 0.66781(9) 0.78301(14)
N2 N 0.2227(2) 0.60742(9) 0.73914(14)
N3 N 0.5051(2) 0.59377(9) 0.65890(14)
N4 N 0.5528(2) 0.53343(10) 0.69113(14)
Br1 Br 0.59138(3) 0.66824(2) 0.95407(2)
C1 C 0.2678(3) 0.58363(12) 0.89805(17)
C2 C 0.2245(3) 0.56166(11) 0.80708(17)
C3 C 0.1739(3) 0.49502(11) 0.77755(17)
H1 H 0.2245 0.4800 0.7283
H2 H 0.0620 0.4947 0.7491
C4 C 0.2132(3) 0.44920(12) 0.86265(18)
H3 H 0.1542 0.4086 0.8462
H4 H 0.3234 0.4383 0.8777
C5 C 0.1766(4) 0.47976(13) 0.94952(19)
H5 H 0.1954 0.4479 1.0023
H6 H 0.0670 0.4919 0.9338
C6 C 0.2741(3) 0.53959(12) 0.98173(17)
H7 H 0.2362 0.5629 1.0308
H8 H 0.3813 0.5265 1.0106
C7 C 0.1482(3) 0.69704(11) 0.62652(17)
C8 C 0.2122(3) 0.71702(11) 0.71531(17)
C9 C 0.2392(3) 0.78532(12) 0.74755(18)
H9 H 0.3450 0.7901 0.7879
H10 H 0.1679 0.7973 0.7864
C10 C 0.2150(3) 0.83010(12) 0.66116(18)
H11 H 0.2045 0.8753 0.6815
H12 H 0.3054 0.8280 0.6346
C11 C 0.0731(3) 0.81117(12) 0.58459(18)
H13 H 0.0565 0.8427 0.5315
H14 H -0.0169 0.8128 0.6116
C12 C 0.0871(3) 0.74340(12) 0.54598(17)
H15 H -0.0146 0.7285 0.5084
H16 H 0.1565 0.7445 0.5031
C13 C 0.3464(3) 0.50628(11) 0.56583(17)
C14 C 0.4569(3) 0.48525(12) 0.63931(17)
C15 C 0.4882(3) 0.41713(12) 0.67149(18)
H17 H 0.5104 0.4151 0.7420
H18 H 0.5791 0.4010 0.6524
C16 C 0.3508(3) 0.37457(12) 0.62744(19)
H19 H 0.3818 0.3285 0.6342
H20 H 0.2706 0.3812 0.6619
C17 C 0.2865(3) 0.39046(12) 0.52253(19)
H21 H 0.1990 0.3614 0.4956
H22 H 0.3660 0.3821 0.4881
C18 C 0.2334(3) 0.46041(11) 0.50607(17)
H23 H 0.2187 0.4714 0.4378
H24 H 0.1337 0.4653 0.5217
C19 C 0.7408(3) 0.61328(12) 0.75761(17)
C20 C 0.6106(3) 0.63843(12) 0.69589(17)
C21 C 0.5864(3) 0.70807(12) 0.67030(18)
H25 H 0.5194 0.7279 0.7068
H26 H 0.5357 0.7124 0.6014
C22 C 0.7406(3) 0.74290(13) 0.69328(19)
H27 H 0.7987 0.7295 0.6471
H28 H 0.7237 0.7902 0.6871
C23 C 0.8323(3) 0.72699(13) 0.79405(18)
H29 H 0.7718 0.7385 0.8397
H30 H 0.9271 0.7532 0.8098
C24 C 0.8739(3) 0.65561(12) 0.80459(19)
H31 H 0.9599 0.6471 0.7755
H32 H 0.9083 0.6446 0.8733
Br2 Br 0.09082(3) 0.60158(2) 0.39777(2)
loop_
_geom_bond_atom_site_label_1
_geom_bond_atom_site_label_2
_geom_bond_site_symmetry_1
_geom_bond_site_symmetry_2
P1 N1 1_555 1_555
P2 P3 1_555 1_555
P3 N3 1_555 1_555
P4 N4 1_555 1_555
N1 N2 1_555 1_555
N2 P2 1_555 1_555
N3 N4 1_555 1_555
N4 C14 1_555 1_555
Br1 P1 1_555 1_555
C1 P1 1_555 1_555
C2 N2 1_555 1_555
C3 C2 1_555 1_555
H1 C3 1_555 1_555
H2 C3 1_555 1_555
C4 C3 1_555 1_555
H3 C4 1_555 1_555
H4 C4 1_555 1_555
C5 C4 1_555 1_555
H5 C5 1_555 1_555
H6 C5 1_555 1_555
C6 C1 1_555 1_555
H7 C6 1_555 1_555
H8 C6 1_555 1_555
C7 P2 1_555 1_555
C8 N1 1_555 1_555
C9 C8 1_555 1_555
H9 C9 1_555 1_555
H10 C9 1_555 1_555
C10 C9 1_555 1_555
H11 C10 1_555 1_555
H12 C10 1_555 1_555
C11 C10 1_555 1_555
H13 C11 1_555 1_555
H14 C11 1_555 1_555
C12 C7 1_555 1_555
H15 C12 1_555 1_555
H16 C12 1_555 1_555
C13 P3 1_555 1_555
C14 C13 1_555 1_555
C15 C14 1_555 1_555
H17 C15 1_555 1_555
H18 C15 1_555 1_555
C16 C15 1_555 1_555
H19 C16 1_555 1_555
H20 C16 1_555 1_555
C17 C16 1_555 1_555
H21 C17 1_555 1_555
H22 C17 1_555 1_555
C18 C13 1_555 1_555
H23 C18 1_555 1_555
H24 C18 1_555 1_555
C19 P4 1_555 1_555
C20 N3 1_555 1_555
C21 C20 1_555 1_555
H25 C21 1_555 1_555
H26 C21 1_555 1_555
C22 C21 1_555 1_555
H27 C22 1_555 1_555
H28 C22 1_555 1_555
C23 C22 1_555 1_555
H29 C23 1_555 1_555
H30 C23 1_555 1_555
C24 C19 1_555 1_555
H31 C24 1_555 1_555
H32 C24 1_555 1_555
C1 C2 1_555 1_555
C5 C6 1_555 1_555
C7 C8 1_555 1_555
C11 C12 1_555 1_555
C17 C18 1_555 1_555
C19 C20 1_555 1_555
C23 C24 1_555 1_555

#END
