
#######################################################################
#
#                 Cambridge Crystallographic Data Centre
#                                CCDC 
#
#######################################################################
#
# If this CIF has been generated from an entry in the Cambridge 
# Structural Database, then it will include bibliographic, chemical, 
# crystal, experimental, refinement or atomic coordinate data resulting 
# from the CCDC's data processing and validation procedures.
#
#######################################################################

data_GAMCED
_chemical_name_common            'Voglibose picrate'
_chemical_formula_moiety         'C10 H22 N1 O6 1+,C6 H2 N3 O7 1-'
_chemical_name_systematic        
'(+)-(1S,2S,3S,4R,5R)-N-(1,3-Dihydroxyprop-2-yl)-2,3,4-trihydroxy-5-(hydroxymethyl)-1-cyclohexanaminium picrate'
_chemical_properties_biological  
'free base has strong activity as an inhibitor of alpha-glucosidase'
_symmetry_cell_setting           monoclinic
_symmetry_space_group_name_H-M   'P 21'
_symmetry_Int_Tables_number      4
_space_group_name_Hall           'P 2yb'
loop_
_symmetry_equiv_pos_site_id
_symmetry_equiv_pos_as_xyz
1 x,y,z
2 -x,1/2+y,-z
_cell_length_a                   8.7362(11)
_cell_length_b                   6.8235(8)
_cell_length_c                   16.957(2)
_cell_angle_alpha                90
_cell_angle_beta                 95.769(2)
_cell_angle_gamma                90
_cell_volume                     1005.71
_exptl_crystal_colour            yellow
_exptl_crystal_description       block
_chemical_melting_point          '436.5-438.5 K'
_cell_formula_units_Z            2
_exptl_crystal_recrystallization_method '80% MeOH'
loop_
_atom_site_label
_atom_site_type_symbol
_atom_site_fract_x
_atom_site_fract_y
_atom_site_fract_z
C1 C 0.1457(3) 0.4600(4) 0.17641(14)
H1 H 0.1677 0.5153 0.2297
C2 C 0.1553(3) 0.6253(4) 0.11585(14)
H2 H 0.2543 0.6926 0.1268
C3 C 0.1422(3) 0.5455(4) 0.03067(13)
H3 H 0.0437 0.4767 0.0209
C4 C 0.2704(3) 0.3976(4) 0.02347(14)
H4 H 0.3682 0.4644 0.0389
C5 C 0.2589(3) 0.2261(4) 0.08035(15)
H5 H 0.1606 0.1592 0.0664
C6 C 0.2628(3) 0.2994(5) 0.16567(14)
H6 H 0.2434 0.1899 0.1998
H7 H 0.3650 0.3489 0.1824
C7 C -0.0920(3) 0.3454(5) 0.24305(14)
H8 H -0.0754 0.4598 0.2778
C8 C -0.0211(4) 0.1681(5) 0.28631(15)
H9 H 0.0869 0.1928 0.3021
H10 H -0.0717 0.1451 0.3339
C9 C -0.2638(3) 0.3258(6) 0.21829(17)
H11 H -0.2834 0.2050 0.1888
H12 H -0.3189 0.3201 0.2651
C10 C 0.3889(3) 0.0791(4) 0.07363(17)
H13 H 0.4856 0.1493 0.0750
H14 H 0.3950 -0.0082 0.1190
N1 N -0.0189(2) 0.3849(4) 0.16770(12)
H15 H -0.0777 0.4729 0.1391
H16 H -0.0214 0.2730 0.1395
O1 O 0.0346(2) 0.7629(3) 0.12117(11)
H17 H 0.0542 0.8315 0.1606
O2 O 0.1443(2) 0.6993(3) -0.02586(10)
H18 H 0.2161 0.7736 -0.0127
O3 O 0.2735(2) 0.3321(4) -0.05605(10)
H19 H 0.1852 0.3234 -0.0773
O4 O 0.3681(2) -0.0348(3) 0.00280(12)
H20 H 0.3535 0.0384 -0.0356
O5 O -0.0362(3) 0.0001(3) 0.23740(12)
H21 H -0.0980 -0.0757 0.2542
O6 O -0.3177(3) 0.4873(4) 0.17053(12)
H22 H -0.3328 0.5810 0.1990
C11 C 0.2983(3) 0.2813(4) 0.63925(15)
C12 C 0.2020(3) 0.2824(5) 0.56480(17)
C13 C 0.2573(4) 0.2997(5) 0.49253(17)
H23 H 0.1896 0.3049 0.4466
C14 C 0.4129(4) 0.3093(5) 0.48800(16)
C15 C 0.5167(4) 0.3100(5) 0.55580(16)
H24 H 0.6220 0.3188 0.5523
C16 C 0.4589(3) 0.2972(4) 0.62796(15)
O7 O 0.2480(2) 0.2740(4) 0.70600(11)
N2 N 0.0343(3) 0.2637(6) 0.56562(19)
N3 N 0.4723(5) 0.3204(6) 0.41135(16)
N4 N 0.5720(3) 0.3039(5) 0.69756(14)
O8 O -0.0172(3) 0.1647(7) 0.61563(17)
O9 O -0.0457(4) 0.3472(10) 0.5156(3)
O10 O 0.3797(4) 0.3431(7) 0.35258(14)
O11 O 0.6105(4) 0.3101(7) 0.40870(16)
O12 O 0.6939(3) 0.3832(6) 0.69244(17)
O13 O 0.5427(3) 0.2238(6) 0.75837(14)
loop_
_geom_bond_atom_site_label_1
_geom_bond_atom_site_label_2
_geom_bond_site_symmetry_1
_geom_bond_site_symmetry_2
C1 H1 1_555 1_555
C2 C1 1_555 1_555
H2 C2 1_555 1_555
C3 C2 1_555 1_555
H3 C3 1_555 1_555
C4 C3 1_555 1_555
H4 C4 1_555 1_555
C5 C4 1_555 1_555
H5 C5 1_555 1_555
C6 C1 1_555 1_555
H6 C6 1_555 1_555
H7 C6 1_555 1_555
C7 H8 1_555 1_555
C8 C7 1_555 1_555
H9 C8 1_555 1_555
H10 C8 1_555 1_555
C9 C7 1_555 1_555
H11 C9 1_555 1_555
H12 C9 1_555 1_555
C10 C5 1_555 1_555
H13 C10 1_555 1_555
H14 C10 1_555 1_555
N1 C1 1_555 1_555
H15 N1 1_555 1_555
H16 N1 1_555 1_555
O1 C2 1_555 1_555
H17 O1 1_555 1_555
O2 C3 1_555 1_555
H18 O2 1_555 1_555
O3 C4 1_555 1_555
H19 O3 1_555 1_555
O4 C10 1_555 1_555
H20 O4 1_555 1_555
O5 C8 1_555 1_555
H21 O5 1_555 1_555
O6 C9 1_555 1_555
H22 O6 1_555 1_555
C11 C12 1_555 1_555
C12 C13 1_555 1_555
C13 H23 1_555 1_555
C14 C13 1_555 1_555
C15 C14 1_555 1_555
H24 C15 1_555 1_555
C16 C11 1_555 1_555
O7 C11 1_555 1_555
N2 C12 1_555 1_555
N3 C14 1_555 1_555
N4 C16 1_555 1_555
O8 N2 1_555 1_555
O9 N2 1_555 1_555
O10 N3 1_555 1_555
O11 N3 1_555 1_555
O12 N4 1_555 1_555
O13 N4 1_555 1_555
C5 C6 1_555 1_555
C7 N1 1_555 1_555
C15 C16 1_555 1_555

#END
