
#######################################################################
#
#                 Cambridge Crystallographic Data Centre
#                                CCDC 
#
#######################################################################
#
# If this CIF has been generated from an entry in the Cambridge 
# Structural Database, then it will include bibliographic, chemical, 
# crystal, experimental, refinement or atomic coordinate data resulting 
# from the CCDC's data processing and validation procedures.
#
#######################################################################

data_GAMCAB
_chemical_formula_moiety         'C13 H16 Br2 F2 N2 P2,0.5(C6 H6)'
_chemical_name_systematic        
'6-bromo-12-(bromo(difluoro)methyl)-2,3,4,7,8,9,10,12-octahydro-1H,6H-[1,2,3]benzodiazaphospholo[2,1-a][1,2,3]benzodiazaphosphole benzene solvate'
_symmetry_cell_setting           triclinic
_symmetry_space_group_name_H-M   'P -1'
_symmetry_Int_Tables_number      2
_space_group_name_Hall           '-P 1'
loop_
_symmetry_equiv_pos_site_id
_symmetry_equiv_pos_as_xyz
1 x,y,z
2 -x,-y,-z
_cell_length_a                   8.2861(8)
_cell_length_b                   9.6864(10)
_cell_length_c                   12.4806(13)
_cell_angle_alpha                83.170(2)
_cell_angle_beta                 78.262(2)
_cell_angle_gamma                72.5720(10)
_cell_volume                     933.948
_exptl_crystal_colour            yellow
_exptl_crystal_description       prism
_cell_formula_units_Z            2
loop_
_atom_site_label
_atom_site_type_symbol
_atom_site_fract_x
_atom_site_fract_y
_atom_site_fract_z
Br1 Br -0.13684(3) 0.53522(2) 0.21800(2)
Br2 Br 0.61032(13) -0.16979(8) 0.33905(5)
F1 F 0.16186(18) 0.40689(16) 0.09025(12)
F2 F -0.0399(2) 0.30888(16) 0.08973(13)
P1 P 0.09034(7) 0.23007(6) 0.27290(5)
P2 P 0.57821(7) -0.03624(6) 0.15894(5)
N1 N 0.4196(2) 0.11677(19) 0.19317(15)
N2 N 0.2533(2) 0.1045(2) 0.19693(15)
C1 C 0.2534(3) 0.2960(2) 0.30928(18)
C2 C 0.4109(3) 0.2245(2) 0.26220(17)
C3 C 0.5743(3) 0.2487(3) 0.27844(19)
H1 H 0.6220 0.3010 0.2124
H2 H 0.6599 0.1542 0.2892
C4 C 0.5400(3) 0.3369(3) 0.37818(19)
H3 H 0.5250 0.2741 0.4459
H4 H 0.6401 0.3728 0.3780
C5 C 0.3799(3) 0.4647(3) 0.3777(2)
H5 H 0.3938 0.5261 0.3091
H6 H 0.3656 0.5244 0.4400
C6 C 0.2197(3) 0.4138(3) 0.3867(2)
H7 H 0.1868 0.3766 0.4629
H8 H 0.1231 0.4967 0.3688
C7 C 0.4241(3) -0.1076(2) 0.12462(17)
C8 C 0.2626(3) -0.0225(2) 0.15561(17)
C9 C 0.1009(3) -0.0554(2) 0.14609(19)
H9 H 0.0550 0.0005 0.0817
H10 H 0.0132 -0.0268 0.2125
C10 C 0.1388(3) -0.2173(3) 0.1334(2)
H11 H 0.1554 -0.2712 0.2047
H12 H 0.0398 -0.2361 0.1109
C11 C 0.2996(3) -0.2708(3) 0.0479(2)
H13 H 0.3165 -0.3741 0.0370
H14 H 0.2836 -0.2151 -0.0229
C12 C 0.4591(3) -0.2548(2) 0.08188(19)
H15 H 0.4951 -0.3309 0.1395
H16 H 0.5542 -0.2679 0.0181
C13 C 0.0305(4) 0.3673(3) 0.1547(2)
C14 C 0.1378(3) -0.1002(3) 0.44285(18)
H17 H 0.2321 -0.1690 0.4038
C15 C 0.1672(3) 0.0013(3) 0.49992(18)
H18 H 0.2815 0.0023 0.4998
C16 C 0.0297(3) 0.1017(3) 0.55744(18)
H19 H 0.0499 0.1712 0.5969
C14A C -0.1378(3) 0.1002(3) 0.55715(18)
H17A H -0.2321 0.1690 0.5962
C15A C -0.1672(3) -0.0013(3) 0.50008(18)
H18A H -0.2815 -0.0023 0.5002
C16A C -0.0297(3) -0.1017(3) 0.44256(18)
H19A H -0.0499 -0.1712 0.4031
Br3? Br 0.6411(13) -0.1970(9) 0.3240(5)
Br4? Br 0.0009(13) 0.4137(9) 0.1269(7)
loop_
_geom_bond_atom_site_label_1
_geom_bond_atom_site_label_2
_geom_bond_site_symmetry_1
_geom_bond_site_symmetry_2
Br1 C13 1_555 1_555
Br2 P2 1_555 1_555
F1 C13 1_555 1_555
F2 C13 1_555 1_555
P1 N2 1_555 1_555
P2 N1 1_555 1_555
N1 N2 1_555 1_555
N2 C8 1_555 1_555
C1 P1 1_555 1_555
C2 N1 1_555 1_555
C3 C2 1_555 1_555
H1 C3 1_555 1_555
H2 C3 1_555 1_555
C4 C3 1_555 1_555
H3 C4 1_555 1_555
H4 C4 1_555 1_555
C5 C4 1_555 1_555
H5 C5 1_555 1_555
H6 C5 1_555 1_555
C6 C1 1_555 1_555
H7 C6 1_555 1_555
H8 C6 1_555 1_555
C7 P2 1_555 1_555
C8 C7 1_555 1_555
C9 C8 1_555 1_555
H9 C9 1_555 1_555
H10 C9 1_555 1_555
C10 C9 1_555 1_555
H11 C10 1_555 1_555
H12 C10 1_555 1_555
C11 C10 1_555 1_555
H13 C11 1_555 1_555
H14 C11 1_555 1_555
C12 C7 1_555 1_555
H15 C12 1_555 1_555
H16 C12 1_555 1_555
C13 P1 1_555 1_555
C14 H17 1_555 1_555
C15 C14 1_555 1_555
H18 C15 1_555 1_555
C16 C15 1_555 1_555
H19 C16 1_555 1_555
C14A C16 1_555 1_555
H17A C14A 1_555 1_555
C15A C14A 1_555 1_555
H18A C15A 1_555 1_555
C16A C14 1_555 1_555
H19A C16A 1_555 1_555
C1 C2 1_555 1_555
C5 C6 1_555 1_555
C11 C12 1_555 1_555
C15A C16A 1_555 1_555

#END
