
#######################################################################
#
#                 Cambridge Crystallographic Data Centre
#                                CCDC 
#
#######################################################################
#
# If this CIF has been generated from an entry in the Cambridge 
# Structural Database, then it will include bibliographic, chemical, 
# crystal, experimental, refinement or atomic coordinate data resulting 
# from the CCDC's data processing and validation procedures.
#
#######################################################################

data_GAMCEF
_chemical_formula_moiety         'C12 H16 Br2 N2 P2'
_chemical_name_systematic        
6,12-dibromo-2,3,4,7,8,9,10,12-octahydro-1H,6H-[1,2,3]benzodiazaphospholo[2,1-a][1,2,3]benzodiazaphosphole
_symmetry_cell_setting           monoclinic
_symmetry_space_group_name_H-M   'P 21/n'
_symmetry_Int_Tables_number      14
_space_group_name_Hall           '-P 2yn'
loop_
_symmetry_equiv_pos_site_id
_symmetry_equiv_pos_as_xyz
1 x,y,z
2 1/2-x,1/2+y,1/2-z
3 -x,-y,-z
4 1/2+x,1/2-y,1/2+z
_cell_length_a                   7.3156(7)
_cell_length_b                   6.9627(7)
_cell_length_c                   14.4742(15)
_cell_angle_alpha                90
_cell_angle_beta                 102.604(2)
_cell_angle_gamma                90
_cell_volume                     719.496
_exptl_crystal_colour            yellow
_exptl_crystal_description       plate
_cell_formula_units_Z            2
loop_
_atom_site_label
_atom_site_type_symbol
_atom_site_fract_x
_atom_site_fract_y
_atom_site_fract_z
Br1 Br 0.75845(2) 0.33452(3) 0.34176(2)
P1 P 0.77679(5) 0.50585(6) 0.48440(3)
N1 N 0.55202(18) 0.56832(19) 0.48094(10)
C1 C 0.4316(2) 0.7051(2) 0.43087(12)
C2 C 0.2524(2) 0.6896(2) 0.43943(11)
C3 C 0.1028(2) 0.8299(2) 0.39543(12)
H1 H 0.0327 0.8711 0.4433
H2 H 0.0135 0.7665 0.3430
C4 C 0.1877(2) 1.0059(2) 0.35734(13)
H3 H 0.0879 1.0757 0.3128
H4 H 0.2394 1.0933 0.4106
C5 C 0.3426(2) 0.9521(2) 0.30672(13)
H5 H 0.3885 1.0694 0.2805
H6 H 0.2914 0.8649 0.2533
C6 C 0.5058(2) 0.8535(2) 0.37403(13)
H7 H 0.5892 0.7921 0.3372
H8 H 0.5797 0.9498 0.4168
Br1B Br 0.24155(2) 0.66548(3) 0.65824(2)
P1B P 0.22321(5) 0.49415(6) 0.51560(3)
N1B N 0.44798(18) 0.43168(19) 0.51906(10)
C1B C 0.5684(2) 0.2949(2) 0.56913(12)
C2B C 0.7476(2) 0.3104(2) 0.56057(11)
C3B C 0.8972(2) 0.1701(2) 0.60457(12)
H1B H 0.9673 0.1289 0.5567
H2B H 0.9865 0.2335 0.6570
C4B C 0.8123(2) -0.0059(2) 0.64266(13)
H3B H 0.9121 -0.0757 0.6872
H4B H 0.7606 -0.0933 0.5894
C5B C 0.6574(2) 0.0479(2) 0.69328(13)
H5B H 0.6115 -0.0694 0.7195
H6B H 0.7086 0.1351 0.7467
C6B C 0.4942(2) 0.1465(2) 0.62597(13)
H7B H 0.4108 0.2079 0.6628
H8B H 0.4203 0.0502 0.5832
loop_
_geom_bond_atom_site_label_1
_geom_bond_atom_site_label_2
_geom_bond_site_symmetry_1
_geom_bond_site_symmetry_2
Br1 P1 1_555 1_555
P1 N1 1_555 1_555
N1 C1 1_555 1_555
C1 C2 1_555 1_555
C2 C3 1_555 1_555
C3 H1 1_555 1_555
H2 C3 1_555 1_555
C4 C3 1_555 1_555
H3 C4 1_555 1_555
H4 C4 1_555 1_555
C5 C4 1_555 1_555
H5 C5 1_555 1_555
H6 C5 1_555 1_555
C6 C1 1_555 1_555
H7 C6 1_555 1_555
H8 C6 1_555 1_555
Br1B P1B 1_555 1_555
P1B C2 1_555 1_555
N1B N1 1_555 1_555
C1B N1B 1_555 1_555
C2B P1 1_555 1_555
C3B C2B 1_555 1_555
H1B C3B 1_555 1_555
H2B C3B 1_555 1_555
C4B C3B 1_555 1_555
H3B C4B 1_555 1_555
H4B C4B 1_555 1_555
C5B C4B 1_555 1_555
H5B C5B 1_555 1_555
H6B C5B 1_555 1_555
C6B C1B 1_555 1_555
H7B C6B 1_555 1_555
H8B C6B 1_555 1_555
C5 C6 1_555 1_555
P1B N1B 1_555 1_555
C1B C2B 1_555 1_555
C5B C6B 1_555 1_555

#END
