
#######################################################################
#
#                 Cambridge Crystallographic Data Centre
#                                CCDC 
#
#######################################################################
#
# If this CIF has been generated from an entry in the Cambridge 
# Structural Database, then it will include bibliographic, chemical, 
# crystal, experimental, refinement or atomic coordinate data resulting 
# from the CCDC's data processing and validation procedures.
#
#######################################################################

data_GAMGUX
_chemical_formula_moiety         'C41 H32 Cl4 N4 O2 S1'
_chemical_name_systematic        
10''-(4-Chlorobenzylidene)-5''-(4-chlorophenyl)-4'-(2,4-dichlorophenyl)-1'-methyl-2,3,2'',3'',7'',8'',9'',10''-octahydro-1H,5''H,6''H-indole-3-spiro-2'-pyrrolidine-3'-spiro-2''-cyclohepteno(1,2-d)thiazolo(3,2-a)pyrimidine-2,3''-dione
_symmetry_cell_setting           tetragonal
_symmetry_space_group_name_H-M   'I -4'
_symmetry_Int_Tables_number      82
_space_group_name_Hall           'I -4'
loop_
_symmetry_equiv_pos_site_id
_symmetry_equiv_pos_as_xyz
1 x,y,z
2 -x,-y,z
3 y,-x,-z
4 -y,x,-z
5 1/2+x,1/2+y,1/2+z
6 1/2-x,1/2-y,1/2+z
7 1/2+y,1/2-x,1/2-z
8 1/2-y,1/2+x,1/2-z
_cell_length_a                   25.035(2)
_cell_length_b                   25.035(2)
_cell_length_c                   11.929(2)
_cell_angle_alpha                90
_cell_angle_beta                 90
_cell_angle_gamma                90
_cell_volume                     7476.52
_exptl_crystal_colour            colorless
_exptl_crystal_description       block
_chemical_melting_point          '487 K'
_cell_formula_units_Z            8
_exptl_crystal_recrystallization_method acetone
loop_
_atom_site_label
_atom_site_type_symbol
_atom_site_fract_x
_atom_site_fract_y
_atom_site_fract_z
S1 S 0.87734(5) 0.13344(4) 1.01907(10)
Cl1 Cl 0.71898(7) 0.15396(8) 1.1140(2)
Cl2 Cl 0.68229(8) 0.01616(8) 0.78233(19)
Cl3 Cl 0.61103(5) 0.32349(6) 1.16351(14)
N1 N 0.88644(14) 0.23506(14) 0.9567(3)
N2 N 0.85879(14) 0.21629(14) 1.1432(3)
N3 N 0.87956(17) 0.06058(17) 1.3141(4)
N4 N 0.99220(16) 0.07382(17) 1.1524(4)
H1 H 1.0177 0.0601 1.1135
O1 O 0.92356(14) 0.02172(14) 1.0872(3)
O2 O 0.82943(14) 0.18224(14) 1.3074(3)
C1 C 0.85993(17) 0.12016(18) 1.1656(4)
C2 C 0.81117(19) 0.08106(19) 1.1861(5)
H2 H 0.7863 0.1006 1.2346
C3 C 0.8340(2) 0.0363(2) 1.2579(5)
H3 H 0.8078 0.0239 1.3120
H4 H 0.8451 0.0064 1.2118
C4 C 0.90755(18) 0.09250(18) 1.2305(4)
C5 C 0.9403(2) 0.0578(2) 1.1460(4)
C6 C 0.99917(19) 0.1155(2) 1.2301(4)
C7 C 0.95037(19) 0.12851(19) 1.2783(4)
C8 C 0.9490(2) 0.1661(2) 1.3623(5)
H5 H 0.9172 0.1743 1.3987
C9 C 0.9969(2) 0.1920(3) 1.3919(5)
H6 H 0.9964 0.2184 1.4468
C10 C 1.0438(2) 0.1790(3) 1.3411(6)
H7 H 1.0750 0.1964 1.3622
C11 C 1.0458(2) 0.1403(3) 1.2588(6)
H8 H 1.0778 0.1314 1.2239
C12 C 0.9130(3) 0.0236(3) 1.3768(5)
H9 H 0.9419 0.0428 1.4109
H10 H 0.9270 -0.0030 1.3269
H11 H 0.8920 0.0066 1.4340
C13 C 0.77989(18) 0.06592(18) 1.0845(5)
C14 C 0.7367(2) 0.0950(2) 1.0464(6)
C15 C 0.7059(2) 0.0799(3) 0.9552(6)
H12 H 0.6759 0.0996 0.9352
C16 C 0.7199(2) 0.0362(2) 0.8959(6)
C17 C 0.7635(2) 0.0068(2) 0.9262(6)
H13 H 0.7735 -0.0229 0.8842
C18 C 0.7929(2) 0.0213(2) 1.0199(5)
H14 H 0.8223 0.0008 1.0403
C19 C 0.84756(18) 0.17511(19) 1.2151(4)
C20 C 0.87453(16) 0.20302(17) 1.0346(4)
C21 C 0.8869(2) 0.29103(18) 0.9842(4)
C22 C 0.8721(2) 0.30919(18) 1.0862(5)
C23 C 0.84585(17) 0.27262(18) 1.1698(4)
H15 H 0.8599 0.2809 1.2445
C24 C 0.78635(18) 0.28248(18) 1.1703(4)
C25 C 0.7593(2) 0.2937(2) 1.2681(4)
H16 H 0.7774 0.2927 1.3361
C26 C 0.7055(2) 0.3064(2) 1.2665(5)
H17 H 0.6878 0.3147 1.3329
C27 C 0.67852(19) 0.30681(18) 1.1667(5)
C28 C 0.7031(2) 0.2953(2) 1.0702(5)
H18 H 0.6842 0.2953 1.0030
C29 C 0.7582(2) 0.2831(2) 1.0716(5)
H19 H 0.7756 0.2755 1.0047
Cl4 Cl 0.953(3) 0.4309(11) 0.3672(15)
C30 C 0.9339(8) 0.3445(7) 0.6961(12)
C31 C 0.9278(9) 0.3172(5) 0.5954(16)
H20 H 0.9182 0.2814 0.5955
C32 C 0.9360(8) 0.3437(7) 0.4944(12)
H21 H 0.9320 0.3255 0.4269
C33 C 0.9504(9) 0.3973(7) 0.4941(10)
C34 C 0.9565(7) 0.4245(5) 0.5949(13)
H22 H 0.9660 0.4604 0.5947
C35 C 0.9482(5) 0.3981(7) 0.6959(10)
H23 H 0.9523 0.4163 0.7633
C42 C 0.9144(3) 0.3121(2) 0.7952(4)
H28 H 0.8974 0.2784 0.7814
C43 C 0.9177(3) 0.3236(4) 0.9009(8)
C44 C 0.9523(4) 0.3689(4) 0.9341(10)
H31 H 0.9760 0.3568 0.9932
H32 H 0.9743 0.3786 0.8704
C45 C 0.9241(6) 0.4170(4) 0.9735(11)
H33 H 0.9178 0.4399 0.9092
H34 H 0.9478 0.4361 1.0237
C46 C 0.8728(5) 0.4090(5) 1.0317(11)
H35 H 0.8460 0.3994 0.9765
H36 H 0.8620 0.4427 1.0647
C55 C 0.8728(3) 0.3667(2) 1.1232(5)
H49 H 0.9041 0.3716 1.1686
H50 H 0.8423 0.3725 1.1704
Cl5? Cl 0.958(3) 0.4283(11) 0.3637(16)
C36? C 0.9229(7) 0.3403(6) 0.6855(9)
C37? C 0.9332(9) 0.3122(4) 0.5873(13)
H24? H 0.9333 0.2751 0.5878
C38? C 0.9433(8) 0.3397(4) 0.4883(9)
H25? H 0.9502 0.3209 0.4226
C39? C 0.9431(6) 0.3952(4) 0.4875(8)
C40? C 0.9328(6) 0.4232(4) 0.5857(10)
H26? H 0.9327 0.4604 0.5852
C41? C 0.9227(5) 0.3958(6) 0.6847(8)
H27? H 0.9158 0.4145 0.7504
H29? H 0.9237 0.2749 0.7915
H30? H 0.9237 0.2749 0.7915
C47? C 0.8957(6) 0.3301(7) 0.8904(11)
C48? C 0.8600(9) 0.3781(9) 0.8937(18)
H37? H 0.8269 0.3692 0.9313
H38? H 0.8516 0.3893 0.8179
C49? C 0.8875(12) 0.4233(6) 0.9555(11)
H39? H 0.8619 0.4515 0.9708
H40? H 0.9157 0.4381 0.9090
C50? C 0.9111(7) 0.4033(7) 1.0653(14)
H41? H 0.9442 0.3844 1.0504
H42? H 0.9192 0.4334 1.1136
C51? C 0.8910(7) 0.3266(15) 0.8900(19)
C52? C 0.8706(16) 0.3843(19) 0.882(3)
H43? H 0.8972 0.4089 0.9104
H44? H 0.8633 0.3934 0.8041
C53? C 0.8201(10) 0.3880(12) 0.9503(15)
H45? H 0.7964 0.4141 0.9165
H46? H 0.8022 0.3537 0.9496
C54? C 0.8312(11) 0.4039(10) 1.0693(16)
H47? H 0.7983 0.4025 1.1122
H48? H 0.8442 0.4404 1.0711
H51? H 0.8812 0.3672 1.2017
H52? H 0.8378 0.3817 1.1143
H53? H 0.9068 0.3823 1.1050
H54? H 0.8688 0.3676 1.2032
loop_
_geom_bond_atom_site_label_1
_geom_bond_atom_site_label_2
_geom_bond_site_symmetry_1
_geom_bond_site_symmetry_2
S1 C1 1_555 1_555
Cl1 C14 1_555 1_555
Cl2 C16 1_555 1_555
Cl3 C27 1_555 1_555
N1 C20 1_555 1_555
N2 C19 1_555 1_555
N3 C3 1_555 1_555
N4 H1 1_555 1_555
O1 C5 1_555 1_555
O2 C19 1_555 1_555
C1 C2 1_555 1_555
C2 H2 1_555 1_555
C3 C2 1_555 1_555
H3 C3 1_555 1_555
H4 C3 1_555 1_555
C4 N3 1_555 1_555
C5 N4 1_555 1_555
C6 N4 1_555 1_555
C7 C4 1_555 1_555
C8 C7 1_555 1_555
H5 C8 1_555 1_555
C9 C8 1_555 1_555
H6 C9 1_555 1_555
C10 C9 1_555 1_555
H7 C10 1_555 1_555
C11 C6 1_555 1_555
H8 C11 1_555 1_555
C12 N3 1_555 1_555
H9 C12 1_555 1_555
H10 C12 1_555 1_555
H11 C12 1_555 1_555
C13 C2 1_555 1_555
C14 C13 1_555 1_555
C15 C14 1_555 1_555
H12 C15 1_555 1_555
C16 C15 1_555 1_555
C17 C16 1_555 1_555
H13 C17 1_555 1_555
C18 C13 1_555 1_555
H14 C18 1_555 1_555
C19 C1 1_555 1_555
C20 S1 1_555 1_555
C21 N1 1_555 1_555
C22 C21 1_555 1_555
C23 N2 1_555 1_555
H15 C23 1_555 1_555
C24 C23 1_555 1_555
C25 C24 1_555 1_555
H16 C25 1_555 1_555
C26 C25 1_555 1_555
H17 C26 1_555 1_555
C27 C26 1_555 1_555
C28 C27 1_555 1_555
H18 C28 1_555 1_555
C29 C24 1_555 1_555
H19 C29 1_555 1_555
Cl4 C33 1_555 1_555
C30 C31 1_555 1_555
C31 H20 1_555 1_555
C32 C31 1_555 1_555
H21 C32 1_555 1_555
C33 C32 1_555 1_555
C34 C33 1_555 1_555
H22 C34 1_555 1_555
C35 C30 1_555 1_555
H23 C35 1_555 1_555
C42 C30 1_555 1_555
H28 C42 1_555 1_555
C43 C21 1_555 1_555
C44 C43 1_555 1_555
H31 C44 1_555 1_555
H32 C44 1_555 1_555
C45 C44 1_555 1_555
H33 C45 1_555 1_555
H34 C45 1_555 1_555
C46 C45 1_555 1_555
H35 C46 1_555 1_555
H36 C46 1_555 1_555
C55 C22 1_555 1_555
H49 C55 1_555 1_555
H50 C55 1_555 1_555
N2 C20 1_555 1_555
C1 C4 1_555 1_555
C4 C5 1_555 1_555
C6 C7 1_555 1_555
C10 C11 1_555 1_555
C17 C18 1_555 1_555
C22 C23 1_555 1_555
C28 C29 1_555 1_555
C34 C35 1_555 1_555
C42 C43 1_555 1_555
C46 C55 1_555 1_555

#END
