
#######################################################################
#
#                 Cambridge Crystallographic Data Centre
#                                CCDC 
#
#######################################################################
#
# If this CIF has been generated from an entry in the Cambridge 
# Structural Database, then it will include bibliographic, chemical, 
# crystal, experimental, refinement or atomic coordinate data resulting 
# from the CCDC's data processing and validation procedures.
#
#######################################################################

data_GAMGOR
_chemical_formula_moiety         'C20 H17 F1 O7,C3 H6 O1'
_chemical_name_systematic        
"(5R,5aR,8aR,9S)-5-(3,4-dihydroxy-5-methoxyphenyl)-9-fluoro-5,8,8a,9-tetrahydro-furo(3',4':6,7)naphtho(2,3-d)-1,3-dioxol-6(5aH)-one acetone solvate"
_chemical_properties_biological  'potential antitumour agent'
_symmetry_cell_setting           monoclinic
_symmetry_space_group_name_H-M   'C 2'
_symmetry_Int_Tables_number      5
_space_group_name_Hall           'C 2y'
loop_
_symmetry_equiv_pos_site_id
_symmetry_equiv_pos_as_xyz
1 x,y,z
2 -x,y,-z
3 1/2+x,1/2+y,z
4 1/2-x,1/2+y,-z
_cell_length_a                   19.1786(9)
_cell_length_b                   7.7058(3)
_cell_length_c                   14.0757(7)
_cell_angle_alpha                90
_cell_angle_beta                 92.373(2)
_cell_angle_gamma                90
_cell_volume                     2078.41
_exptl_crystal_colour            colorless
_exptl_crystal_description       platelet
_chemical_melting_point          '533-535 K'
_cell_formula_units_Z            4
loop_
_atom_site_label
_atom_site_type_symbol
_atom_site_fract_x
_atom_site_fract_y
_atom_site_fract_z
F1 F 0.29980(10) 0.1015(3) 0.47540(10)
O1 O 0.15760(10) 0.3530(4) 0.18580(10)
O2 O 0.21100(10) 0.1012(4) 0.2132(2)
O3 O 0.47060(10) 0.5744(4) 0.6327(2)
O4 O 0.41780(10) 0.8223(4) 0.5715(2)
O5 O 0.27050(10) 0.7632(4) -0.00440(10)
O6 O 0.41010(10) 0.7420(4) -0.01350(10)
O7 O 0.48860(10) 0.6073(5) 0.1372(2)
C1 C 0.27950(10) 0.5079(4) 0.3196(2)
C2 C 0.24840(10) 0.3267(4) 0.3136(2)
C3 C 0.2009(2) 0.2706(5) 0.2304(2)
C4 C 0.2637(2) 0.0299(6) 0.2798(3)
C5 C 0.3051(2) 0.1880(5) 0.3136(2)
C6 C 0.34350(10) 0.1811(5) 0.4098(2)
C7 C 0.36110(10) 0.3606(5) 0.4449(2)
C8 C 0.4100(2) 0.3704(5) 0.5228(2)
C9 C 0.4248(2) 0.5314(5) 0.5581(2)
C10 C 0.4670(2) 0.7558(6) 0.6417(3)
C11 C 0.39420(10) 0.6789(5) 0.5217(2)
C12 C 0.34810(10) 0.6738(5) 0.4460(2)
C13 C 0.33080(10) 0.5106(4) 0.4068(2)
C14 C 0.31500(10) 0.5671(4) 0.2298(2)
C15 C 0.27440(10) 0.6350(4) 0.1545(2)
C16 C 0.30510(10) 0.6942(4) 0.0731(2)
C17 C 0.19680(10) 0.7513(6) -0.0091(3)
C18 C 0.37760(10) 0.6847(4) 0.0655(2)
C19 C 0.41830(10) 0.6179(5) 0.1405(2)
C20 C 0.38730(10) 0.5592(4) 0.2221(2)
H1 H 0.2417 0.5897 0.3314
H2 H 0.2225 0.3095 0.3714
H3 H 0.2427 -0.0291 0.3324
H4 H 0.2937 -0.0502 0.2475
H5 H 0.4324 0.2662 0.5499
H6 H 0.3270 0.7805 0.4200
H7 H 0.2236 0.6404 0.1590
H8 H 0.1788 0.7906 -0.0700
H9 H 0.1828 0.6331 0.0005
H10 H 0.1788 0.8230 0.0399
H11 H 0.4164 0.5121 0.2748
H15 H 0.3384 0.2189 0.2654
H16 H 0.3864 0.1131 0.4049
H17 H 0.4520 0.7854 0.7046
H18 H 0.5126 0.8057 0.6324
H19 H 0.3784 0.7622 -0.0633
H20 H 0.5097 0.6658 0.0875
O8 O 0.4836(2) 0.1407(8) 0.2990(4)
C21 C 0.5094(2) 0.1615(7) 0.2224(4)
C22 C 0.5783(3) 0.2470(10) 0.2198(4)
C23 C 0.4742(4) 0.1120(10) 0.1340(7)
H12 H 0.5718 0.3703 0.2139
H13 H 0.6029 0.2049 0.1664
H14 H 0.6041 0.2220 0.2781
H21 H 0.4861 -0.0049 0.1186
H22 H 0.4885 0.1886 0.0844
H23 H 0.4246 0.1217 0.1394
loop_
_geom_bond_atom_site_label_1
_geom_bond_atom_site_label_2
_geom_bond_site_symmetry_1
_geom_bond_site_symmetry_2
F1 C6 1_555 1_555
O1 C3 1_555 1_555
O2 C3 1_555 1_555
O3 C9 1_555 1_555
O4 C10 1_555 1_555
O5 C16 1_555 1_555
O6 C18 1_555 1_555
O7 C19 1_555 1_555
O8 C21 1_555 1_555
C1 C2 1_555 1_555
C2 C3 1_555 1_555
C4 O2 1_555 1_555
C5 C2 1_555 1_555
C6 C5 1_555 1_555
C7 C6 1_555 1_555
C8 C7 1_555 1_555
C9 C8 1_555 1_555
C10 O3 1_555 1_555
C11 O4 1_555 1_555
C12 C11 1_555 1_555
C13 C1 1_555 1_555
C14 C1 1_555 1_555
C15 C14 1_555 1_555
C16 C15 1_555 1_555
C17 O5 1_555 1_555
C18 C16 1_555 1_555
C19 C18 1_555 1_555
C20 C14 1_555 1_555
C21 C22 1_555 1_555
C22 H12 1_555 1_555
C23 C21 1_555 1_555
H1 C1 1_555 1_555
H2 C2 1_555 1_555
H3 C4 1_555 1_555
H4 C4 1_555 1_555
H5 C8 1_555 1_555
H6 C12 1_555 1_555
H7 C15 1_555 1_555
H8 C17 1_555 1_555
H9 C17 1_555 1_555
H10 C17 1_555 1_555
H11 C20 1_555 1_555
H13 C22 1_555 1_555
H14 C22 1_555 1_555
H15 C5 1_555 1_555
H16 C6 1_555 1_555
H17 C10 1_555 1_555
H18 C10 1_555 1_555
H19 O6 1_555 1_555
H20 O7 1_555 1_555
H21 C23 1_555 1_555
H22 C23 1_555 1_555
H23 C23 1_555 1_555
C4 C5 1_555 1_555
C7 C13 1_555 1_555
C9 C11 1_555 1_555
C12 C13 1_555 1_555
C19 C20 1_555 1_555

#END
