
#######################################################################
#
#                 Cambridge Crystallographic Data Centre
#                                CCDC 
#
#######################################################################
#
# If this CIF has been generated from an entry in the Cambridge 
# Structural Database, then it will include bibliographic, chemical, 
# crystal, experimental, refinement or atomic coordinate data resulting 
# from the CCDC's data processing and validation procedures.
#
#######################################################################

data_GAMGAD
_chemical_formula_moiety         'C11 H10 N4 O3 S2'
_chemical_name_systematic        
'5-Cyano-3,3-dimethyl-6-methylsulfanyl-1,3-dihydro-2-oxa-1-thia-4,7,7a-triaza-indacene 1,1-dioxide'
_symmetry_cell_setting           triclinic
_symmetry_space_group_name_H-M   'P -1'
_symmetry_Int_Tables_number      2
_space_group_name_Hall           '-P 1'
loop_
_symmetry_equiv_pos_site_id
_symmetry_equiv_pos_as_xyz
1 x,y,z
2 -x,-y,-z
_cell_length_a                   7.150(2)
_cell_length_b                   8.573(3)
_cell_length_c                   11.171(3)
_cell_angle_alpha                98.316(4)
_cell_angle_beta                 98.953(4)
_cell_angle_gamma                98.420(4)
_cell_volume                     659.221
_exptl_crystal_colour            colorless
_exptl_crystal_description       prism
_chemical_melting_point          '237 deg.C'
_cell_formula_units_Z            2
_exptl_crystal_recrystallization_method 'ethyl acetate/cyclohexane'
loop_
_atom_site_label
_atom_site_type_symbol
_atom_site_fract_x
_atom_site_fract_y
_atom_site_fract_z
S1 S 0.28224(11) 0.63150(9) -0.00426(7)
S2 S 0.26431(12) 0.30865(10) 0.61198(7)
O1 O 0.1683(4) 0.5121(3) -0.0991(2)
O2 O 0.4773(3) 0.6837(3) -0.0128(2)
O3 O 0.1757(3) 0.7792(3) 0.01180(19)
N1 N 0.2176(4) 0.7416(3) 0.3315(2)
N2 N 0.2706(3) 0.4693(3) 0.3112(2)
N3 N 0.2855(4) 0.3485(3) 0.3788(2)
C1 C 0.3687(7) 0.9951(4) 0.1688(4)
H1 H 0.4829 0.9514 0.1598
H2 H 0.3816 1.0507 0.2515
H3 H 0.3504 1.0683 0.1124
C2 C 0.0077(6) 0.9154(5) 0.1545(3)
H4 H -0.0117 0.9957 0.1044
H5 H 0.0103 0.9592 0.2389
H6 H -0.0953 0.8257 0.1281
C3 C 0.1972(5) 0.8609(4) 0.1418(3)
C4 C 0.2294(4) 0.7279(3) 0.2142(3)
C5 C 0.2701(4) 0.5928(3) 0.1433(3)
C6 C 0.2898(4) 0.4585(3) 0.1932(3)
H7 H 0.3147 0.3661 0.1483
C7 C 0.2396(4) 0.6086(3) 0.3806(3)
C8 C 0.2368(4) 0.5744(3) 0.4971(3)
C9 C 0.2129(4) 0.6799(4) 0.6012(3)
C10 C 0.2632(4) 0.4133(4) 0.4903(3)
C11 C 0.2797(7) 0.1131(4) 0.5368(4)
H8 H 0.1759 0.0789 0.4679
H9 H 0.2713 0.0395 0.5936
H10 H 0.4000 0.1160 0.5086
N4 N 0.1934(5) 0.7659(4) 0.6855(3)
loop_
_geom_bond_atom_site_label_1
_geom_bond_atom_site_label_2
_geom_bond_site_symmetry_1
_geom_bond_site_symmetry_2
S1 O1 1_555 1_555
S2 C10 1_555 1_555
O2 S1 1_555 1_555
O3 S1 1_555 1_555
N1 C4 1_555 1_555
N2 N3 1_555 1_555
N3 C10 1_555 1_555
C1 H1 1_555 1_555
H2 C1 1_555 1_555
H3 C1 1_555 1_555
C2 H4 1_555 1_555
H5 C2 1_555 1_555
H6 C2 1_555 1_555
C3 O3 1_555 1_555
C4 C3 1_555 1_555
C5 S1 1_555 1_555
C6 N2 1_555 1_555
H7 C6 1_555 1_555
C7 N1 1_555 1_555
C8 C7 1_555 1_555
C9 C8 1_555 1_555
C10 C8 1_555 1_555
C11 S2 1_555 1_555
H8 C11 1_555 1_555
H9 C11 1_555 1_555
H10 C11 1_555 1_555
N4 C9 1_555 1_555
N2 C7 1_555 1_555
C1 C3 1_555 1_555
C2 C3 1_555 1_555
C4 C5 1_555 1_555
C5 C6 1_555 1_555

#END
