
#######################################################################
#
#                 Cambridge Crystallographic Data Centre
#                                CCDC 
#
#######################################################################
#
# If this CIF has been generated from an entry in the Cambridge 
# Structural Database, then it will include bibliographic, chemical, 
# crystal, experimental, refinement or atomic coordinate data resulting 
# from the CCDC's data processing and validation procedures.
#
#######################################################################

data_GAMMIR
_chemical_formula_moiety         'C20 H15 N3 O1'
_chemical_name_systematic        
2,3-dihydro-2-spiro-2'-(8'-aminonaphthalen-1'(2H)-one)perimidine
_symmetry_cell_setting           orthorhombic
_symmetry_space_group_name_H-M   'P b c a'
_symmetry_Int_Tables_number      61
_space_group_name_Hall           '-P 2ac 2ab'
loop_
_symmetry_equiv_pos_site_id
_symmetry_equiv_pos_as_xyz
1 x,y,z
2 1/2-x,-y,1/2+z
3 -x,1/2+y,1/2-z
4 1/2+x,1/2-y,-z
5 -x,-y,-z
6 1/2+x,y,1/2-z
7 x,1/2-y,1/2+z
8 1/2-x,1/2+y,z
_cell_length_a                   22.607(3)
_cell_length_b                   5.3689(8)
_cell_length_c                   24.359(4)
_cell_angle_alpha                90
_cell_angle_beta                 90
_cell_angle_gamma                90
_cell_volume                     2956.57
_exptl_crystal_colour            orange
_exptl_crystal_description       needle
_cell_formula_units_Z            8
loop_
_atom_site_label
_atom_site_type_symbol
_atom_site_fract_x
_atom_site_fract_y
_atom_site_fract_z
C1 C 0.16356(8) 0.6970(4) 0.09418(8)
C2 C 0.18965(9) 0.5096(4) 0.12306(9)
H1 H 0.2211 0.4170 0.1072
C3 C 0.16984(10) 0.4534(5) 0.17640(9)
H2 H 0.1884 0.3235 0.1965
C4 C 0.12435(11) 0.5827(5) 0.19965(9)
H3 H 0.1114 0.5404 0.2356
C5 C 0.09632(9) 0.7775(4) 0.17131(9)
C6 C 0.04950(10) 0.9230(5) 0.19324(9)
H4 H 0.0345 0.8860 0.2288
C7 C 0.02589(10) 1.1139(5) 0.16417(10)
H5 H -0.0048 1.2106 0.1801
C8 C 0.04581(9) 1.1724(4) 0.11099(9)
H6 H 0.0285 1.3063 0.0912
C9 C 0.09059(9) 1.0340(4) 0.08789(9)
C10 C 0.11631(8) 0.8355(4) 0.11741(8)
C11 C 0.14592(8) 0.9108(4) 0.00459(8)
C12 C 0.10403(8) 0.7231(4) -0.02389(8)
C13 C 0.11653(8) 0.6391(4) -0.07976(8)
C14 C 0.08608(8) 0.4364(4) -0.10346(8)
C15 C 0.10049(10) 0.3648(4) -0.15780(9)
H7 H 0.0810 0.2264 -0.1740
C16 C 0.14221(10) 0.4932(5) -0.18717(9)
H8 H 0.1510 0.4434 -0.2237
C17 C 0.17190(9) 0.6949(5) -0.16445(9)
H9 H 0.2003 0.7833 -0.1856
C18 C 0.16002(8) 0.7667(4) -0.11103(9)
C19 C 0.19145(8) 0.9773(4) -0.08730(9)
H10 H 0.2177 1.0693 -0.1100
C20 C 0.18505(8) 1.0463(4) -0.03532(9)
H11 H 0.2062 1.1882 -0.0228
H12 H 0.0940(10) 1.212(4) 0.0179(9)
H13 H 0.2055(9) 0.652(4) 0.0255(9)
H14 H 0.0233(11) 0.187(5) -0.0933(10)
H15 H 0.0277(11) 0.378(5) -0.0438(10)
N1 N 0.18465(7) 0.7717(4) 0.04242(7)
N2 N 0.11417(7) 1.0931(3) 0.03691(7)
N3 N 0.04455(8) 0.3017(4) -0.07575(9)
O1 O 0.06202(6) 0.6408(3) 0.00323(6)
loop_
_geom_bond_atom_site_label_1
_geom_bond_atom_site_label_2
_geom_bond_site_symmetry_1
_geom_bond_site_symmetry_2
C1 C2 1_555 1_555
C2 H1 1_555 1_555
C3 C2 1_555 1_555
H2 C3 1_555 1_555
C4 C3 1_555 1_555
H3 C4 1_555 1_555
C5 C4 1_555 1_555
C6 C5 1_555 1_555
H4 C6 1_555 1_555
C7 C6 1_555 1_555
H5 C7 1_555 1_555
C8 C7 1_555 1_555
H6 C8 1_555 1_555
C9 C8 1_555 1_555
C10 C1 1_555 1_555
C11 C12 1_555 1_555
C12 C13 1_555 1_555
C13 C14 1_555 1_555
C14 C15 1_555 1_555
C15 H7 1_555 1_555
C16 C15 1_555 1_555
H8 C16 1_555 1_555
C17 C16 1_555 1_555
H9 C17 1_555 1_555
C18 C13 1_555 1_555
C19 C18 1_555 1_555
H10 C19 1_555 1_555
C20 C11 1_555 1_555
H11 C20 1_555 1_555
H12 N2 1_555 1_555
H13 N1 1_555 1_555
H14 N3 1_555 1_555
H15 N3 1_555 1_555
N1 C1 1_555 1_555
N2 C9 1_555 1_555
N3 C14 1_555 1_555
O1 C12 1_555 1_555
C5 C10 1_555 1_555
C9 C10 1_555 1_555
C11 N1 1_555 1_555
C11 N2 1_555 1_555
C17 C18 1_555 1_555
C19 C20 1_555 1_555

#END
