
#######################################################################
#
#                 Cambridge Crystallographic Data Centre
#                                CCDC 
#
#######################################################################
#
# If this CIF has been generated from an entry in the Cambridge 
# Structural Database, then it will include bibliographic, chemical, 
# crystal, experimental, refinement or atomic coordinate data resulting 
# from the CCDC's data processing and validation procedures.
#
#######################################################################

data_GAMNOY
_chemical_formula_moiety         'C20 H16 N4'
_chemical_name_systematic        
(E)-8-((8'-aminonapthalen-1-yl)diazenyl)naphthalen-1-amine
_symmetry_cell_setting           monoclinic
_symmetry_space_group_name_H-M   'P 21/n'
_symmetry_Int_Tables_number      14
_space_group_name_Hall           '-P 2yn'
loop_
_symmetry_equiv_pos_site_id
_symmetry_equiv_pos_as_xyz
1 x,y,z
2 1/2-x,1/2+y,1/2-z
3 -x,-y,-z
4 1/2+x,1/2-y,1/2+z
_cell_length_a                   13.904(3)
_cell_length_b                   4.0318(8)
_cell_length_c                   14.426(3)
_cell_angle_alpha                90
_cell_angle_beta                 112.209(3)
_cell_angle_gamma                90
_cell_volume                     748.699
_exptl_crystal_colour            black
_exptl_crystal_description       plate
_cell_formula_units_Z            2
loop_
_atom_site_label
_atom_site_type_symbol
_atom_site_fract_x
_atom_site_fract_y
_atom_site_fract_z
N1 N 0.48757(8) 0.0840(3) 0.46034(7)
N2 N 0.34322(9) 0.3965(3) 0.30268(9)
H1 H 0.2995 0.5679 0.2724
H2 H 0.3756 0.4114 0.3708
C1 C 0.54023(9) -0.0031(3) 0.39629(9)
C2 C 0.63241(10) -0.1811(3) 0.43215(9)
H3 H 0.6593 -0.2536 0.4998
C3 C 0.68621(10) -0.2554(4) 0.37047(10)
H4 H 0.7498 -0.3745 0.3964
C4 C 0.64725(10) -0.1564(3) 0.27281(10)
H5 H 0.6838 -0.2114 0.2310
C5 C 0.55401(10) 0.0257(3) 0.23239(9)
C6 C 0.49780(9) 0.1111(3) 0.29439(9)
C7 C 0.40400(10) 0.3016(3) 0.24946(9)
C8 C 0.37080(11) 0.3848(4) 0.14907(10)
H6 H 0.3079 0.5057 0.1193
C9 C 0.42649(12) 0.2971(4) 0.09025(10)
H7 H 0.4014 0.3588 0.0216
C10 C 0.51653(11) 0.1240(4) 0.13064(10)
H8 H 0.5547 0.0683 0.0904
N1B N 0.51243(8) -0.0840(3) 0.53966(7)
N2B N 0.65678(9) -0.3965(3) 0.69732(9)
H1B H 0.7005 -0.5679 0.7276
H2B H 0.6244 -0.4114 0.6292
C1B C 0.45977(9) 0.0031(3) 0.60371(9)
C2B C 0.36759(10) 0.1811(3) 0.56785(9)
H3B H 0.3407 0.2536 0.5002
C3B C 0.31379(10) 0.2554(4) 0.62953(10)
H4B H 0.2502 0.3745 0.6036
C4B C 0.35275(10) 0.1564(3) 0.72719(10)
H5B H 0.3162 0.2114 0.7690
C5B C 0.44599(10) -0.0257(3) 0.76761(9)
C6B C 0.50220(9) -0.1111(3) 0.70561(9)
C7B C 0.59600(10) -0.3016(3) 0.75054(9)
C8B C 0.62920(11) -0.3848(4) 0.85093(10)
H6B H 0.6921 -0.5057 0.8807
C9B C 0.57351(12) -0.2971(4) 0.90975(10)
H7B H 0.5986 -0.3588 0.9784
C10B C 0.48347(11) -0.1240(4) 0.86936(10)
H8B H 0.4453 -0.0683 0.9096
loop_
_geom_bond_atom_site_label_1
_geom_bond_atom_site_label_2
_geom_bond_site_symmetry_1
_geom_bond_site_symmetry_2
N1 C1 1_555 1_555
N2 H1 1_555 1_555
H2 N2 1_555 1_555
C1 C2 1_555 1_555
C2 H3 1_555 1_555
C3 C2 1_555 1_555
H4 C3 1_555 1_555
C4 C3 1_555 1_555
H5 C4 1_555 1_555
C5 C4 1_555 1_555
C6 C1 1_555 1_555
C7 N2 1_555 1_555
C8 C7 1_555 1_555
H6 C8 1_555 1_555
C9 C8 1_555 1_555
H7 C9 1_555 1_555
C10 C5 1_555 1_555
H8 C10 1_555 1_555
N1B N1 1_555 1_555
N2B H1B 1_555 1_555
H2B N2B 1_555 1_555
C1B N1B 1_555 1_555
C2B C1B 1_555 1_555
H3B C2B 1_555 1_555
C3B C2B 1_555 1_555
H4B C3B 1_555 1_555
C4B C3B 1_555 1_555
H5B C4B 1_555 1_555
C5B C4B 1_555 1_555
C6B C1B 1_555 1_555
C7B N2B 1_555 1_555
C8B C7B 1_555 1_555
H6B C8B 1_555 1_555
C9B C8B 1_555 1_555
H7B C9B 1_555 1_555
C10B C5B 1_555 1_555
H8B C10B 1_555 1_555
C5 C6 1_555 1_555
C6 C7 1_555 1_555
C9 C10 1_555 1_555
C5B C6B 1_555 1_555
C6B C7B 1_555 1_555
C9B C10B 1_555 1_555

#END
