
#######################################################################
#
#                 Cambridge Crystallographic Data Centre
#                                CCDC 
#
#######################################################################
#
# If this CIF has been generated from an entry in the Cambridge 
# Structural Database, then it will include bibliographic, chemical, 
# crystal, experimental, refinement or atomic coordinate data resulting 
# from the CCDC's data processing and validation procedures.
#
#######################################################################

data_GAMNAK
_chemical_formula_moiety         'C20 H15 N3 O1'
_chemical_name_systematic        
7-amino-2-(1H-perimidin-2(3H)-ylidene)indan-1-one
_symmetry_cell_setting           orthorhombic
_symmetry_space_group_name_H-M   'P c a 21'
_symmetry_Int_Tables_number      29
_space_group_name_Hall           'P 2c -2ac'
loop_
_symmetry_equiv_pos_site_id
_symmetry_equiv_pos_as_xyz
1 x,y,z
2 -x,-y,1/2+z
3 1/2+x,-y,z
4 1/2-x,y,1/2+z
_cell_length_a                   15.686(3)
_cell_length_b                   12.040(2)
_cell_length_c                   7.8796(15)
_cell_angle_alpha                90
_cell_angle_beta                 90
_cell_angle_gamma                90
_cell_volume                     1488.14
_exptl_crystal_colour            yellow
_exptl_crystal_description       plate
_cell_formula_units_Z            4
loop_
_atom_site_label
_atom_site_type_symbol
_atom_site_fract_x
_atom_site_fract_y
_atom_site_fract_z
C1 C 0.3160(2) 0.0044(3) 0.3337(4)
H1 H 0.3348 -0.0582 0.3945
C2 C 0.2304(3) 0.0242(3) 0.3184(4)
H2 H 0.1916 -0.0248 0.3698
C3 C 0.1992(2) 0.1159(2) 0.2282(4)
H3 H 0.1402 0.1281 0.2187
C4 C 0.2561(2) 0.1876(2) 0.1538(3)
C5 C 0.34500(19) 0.1701(2) 0.1681(4)
C6 C 0.3768(2) 0.0765(3) 0.2593(4)
C7 C 0.4658(3) 0.0623(3) 0.2685(5)
H4 H 0.4886 0.0018 0.3289
C8 C 0.5189(2) 0.1352(3) 0.1910(5)
H5 H 0.5780 0.1237 0.1992
C9 C 0.4895(2) 0.2264(3) 0.0997(5)
H6 H 0.5279 0.2750 0.0462
C10 C 0.40259(17) 0.2440(2) 0.0893(4)
C11 C 0.28340(16) 0.3532(2) -0.0132(3)
C12 C 0.24972(18) 0.44320(19) -0.0988(4)
C13 C 0.16077(15) 0.4601(2) -0.1162(3)
C14 C 0.14818(16) 0.5635(2) -0.2095(3)
C15 C 0.07238(17) 0.6106(2) -0.2692(4)
C16 C 0.07746(18) 0.7107(2) -0.3558(4)
H7 H 0.0276 0.7450 -0.3961
C17 C 0.1565(2) 0.7606(3) -0.3830(4)
H8 H 0.1587 0.8290 -0.4402
C18 C 0.23189(19) 0.7124(2) -0.3284(4)
H9 H 0.2847 0.7467 -0.3491
C19 C 0.22726(16) 0.6127(2) -0.2428(3)
C20 C 0.29776(16) 0.5380(2) -0.1789(4)
H10 H 0.3338 0.5120 -0.2724
H11 H 0.3334 0.5764 -0.0953
H12 H 0.1727 0.2887 0.0439
H13 H 0.4071 0.3708 -0.0609
N1 N -0.00642(14) 0.5584(2) -0.2402(3)
N2 N 0.22960(14) 0.27911(19) 0.0605(3)
N3 N 0.36856(14) 0.33433(19) 0.0017(3)
O1 O 0.10055(11) 0.39883(16) -0.0600(2)
H14 H 0.0016 0.4824 -0.2026
H15 H -0.0386 0.5635 -0.3294
loop_
_geom_bond_atom_site_label_1
_geom_bond_atom_site_label_2
_geom_bond_site_symmetry_1
_geom_bond_site_symmetry_2
C1 H1 1_555 1_555
C2 C1 1_555 1_555
H2 C2 1_555 1_555
C3 C2 1_555 1_555
H3 C3 1_555 1_555
C4 C3 1_555 1_555
C5 C4 1_555 1_555
C6 C1 1_555 1_555
C7 C6 1_555 1_555
H4 C7 1_555 1_555
C8 C7 1_555 1_555
H5 C8 1_555 1_555
C9 C8 1_555 1_555
H6 C9 1_555 1_555
C10 C5 1_555 1_555
C11 C12 1_555 1_555
C12 C13 1_555 1_555
C13 C14 1_555 1_555
C14 C15 1_555 1_555
C15 C16 1_555 1_555
C16 H7 1_555 1_555
C17 C16 1_555 1_555
H8 C17 1_555 1_555
C18 C17 1_555 1_555
H9 C18 1_555 1_555
C19 C14 1_555 1_555
C20 C12 1_555 1_555
H10 C20 1_555 1_555
H11 C20 1_555 1_555
H12 N2 1_555 1_555
H13 N3 1_555 1_555
N1 C15 1_555 1_555
N2 C4 1_555 1_555
N3 C10 1_555 1_555
O1 C13 1_555 1_555
H14 N1 1_555 1_555
H15 N1 1_555 1_555
C5 C6 1_555 1_555
C9 C10 1_555 1_555
C11 N2 1_555 1_555
C11 N3 1_555 1_555
C18 C19 1_555 1_555
C19 C20 1_555 1_555

#END
