
#######################################################################
#
#                 Cambridge Crystallographic Data Centre
#                                CCDC 
#
#######################################################################
#
# If this CIF has been generated from an entry in the Cambridge 
# Structural Database, then it will include bibliographic, chemical, 
# crystal, experimental, refinement or atomic coordinate data resulting 
# from the CCDC's data processing and validation procedures.
#
#######################################################################

data_GANDOQ
_chemical_formula_moiety         'C120 H84 F12 N12,4.5(C1 H1 Cl3),0.5(H2 O1)'
_chemical_name_systematic        
'6,7,17,18,28,29,39,40,47,48,55,56-dodecakis(4-fluorophenyl)-5,8,16,19,27,30,38,41,46,49,54,57-dodecaazaheptacyclo[21.21.6.6^12,34^.1^3,43^.1^10,14^.1^21,25^.1^32,36^]hexaconta-1,3(51),4,8,10(60),11,13,15,19,21(59),22,24,26,30,32(52),33,35,37,41,43,45,49,53,57-tetracosaene chloroform solvate hemihydrate'
_symmetry_cell_setting           rhombohedral
_symmetry_space_group_name_H-M   'R 3'
_symmetry_Int_Tables_number      146
_space_group_name_Hall           'R 3'
loop_
_symmetry_equiv_pos_site_id
_symmetry_equiv_pos_as_xyz
1 x,y,z
2 -y,x-y,z
3 -x+y,-x,z
4 2/3+x,1/3+y,1/3+z
5 2/3-y,1/3+x-y,1/3+z
6 2/3-x+y,1/3-x,1/3+z
7 1/3+x,2/3+y,2/3+z
8 1/3-y,2/3+x-y,2/3+z
9 1/3-x+y,2/3-x,2/3+z
_cell_length_a                   30.587(2)
_cell_length_b                   30.587(2)
_cell_length_c                   21.553(2)
_cell_angle_alpha                90
_cell_angle_beta                 90
_cell_angle_gamma                120
_cell_volume                     17462.7
_exptl_crystal_colour            colorless
_exptl_crystal_description       plate
_cell_formula_units_Z            6
loop_
_atom_site_label
_atom_site_type_symbol
_atom_site_fract_x
_atom_site_fract_y
_atom_site_fract_z
N1 N 0.5428(2) 0.2165(2) 0.7717(3)
N2 N 0.4715(2) 0.1620(2) 0.6765(3)
N3 N 0.6018(3) 0.1529(3) 0.4485(3)
N4 N 0.7091(3) 0.2041(3) 0.4315(3)
F1 F 0.4863(3) 0.1358(4) 1.0370(3)
F2 F 0.25851(19) 0.0138(2) 0.7893(3)
F3 F 0.4990(2) -0.0651(2) 0.3400(3)
F4 F 0.7888(3) 0.1027(3) 0.2514(4)
C1 C 0.6499(3) 0.2820(3) 0.7507(3)
H1 H 0.6382 0.2468 0.7497
C2 C 0.6147(3) 0.2989(3) 0.7515(3)
C3 C 0.5601(3) 0.2633(3) 0.7598(3)
H2 H 0.5371 0.2755 0.7562
C4 C 0.4883(3) 0.1860(3) 0.7858(4)
H3 H 0.4724 0.2074 0.7802
C5 C 0.4643(3) 0.1413(3) 0.7392(3)
H4 H 0.4817 0.1211 0.7429
C6 C 0.5058(3) 0.1628(3) 0.6435(4)
H5 H 0.5246 0.1483 0.6594
C7 C 0.5177(3) 0.1854(3) 0.5817(4)
C8 C 0.4996(3) 0.2164(3) 0.5625(4)
H6 H 0.4802 0.2236 0.5907
C9 C 0.5090(3) 0.2377(3) 0.5030(4)
C10 C 0.5371(3) 0.2249(3) 0.4616(4)
H7 H 0.5433 0.2381 0.4206
C11 C 0.5556(3) 0.1938(3) 0.4791(4)
C12 C 0.5467(3) 0.1745(3) 0.5401(4)
H8 H 0.5602 0.1540 0.5532
C13 C 0.5840(3) 0.1819(3) 0.4357(4)
H9 H 0.5899 0.1963 0.3953
C14 C 0.6255(3) 0.1400(3) 0.3993(3)
H10 H 0.6291 0.1608 0.3619
C15 C 0.6776(3) 0.1511(3) 0.4201(4)
H11 H 0.6738 0.1327 0.4599
C16 C 0.4900(3) 0.2718(3) 0.4856(4)
H12 H 0.4732 0.2802 0.5163
C17 C 0.4826(3) 0.1693(3) 0.8514(4)
C18 C 0.5045(4) 0.1414(5) 0.8737(5)
H13 H 0.5218 0.1321 0.8448
C19 C 0.5027(4) 0.1270(5) 0.9331(6)
H14 H 0.5144 0.1046 0.9447
C20 C 0.4847(4) 0.1444(5) 0.9735(5)
C21 C 0.4626(4) 0.1742(4) 0.9592(5)
H15 H 0.4500 0.1869 0.9904
C22 C 0.4605(4) 0.1844(3) 0.8939(4)
H16 H 0.4435 0.2016 0.8810
C23 C 0.4094(3) 0.1080(3) 0.7521(3)
C24 C 0.3918(4) 0.0582(3) 0.7705(5)
H17 H 0.4145 0.0458 0.7753
C25 C 0.3389(4) 0.0258(4) 0.7823(5)
H18 H 0.3260 -0.0082 0.7948
C26 C 0.3087(4) 0.0445(5) 0.7754(4)
C27 C 0.3248(3) 0.0947(4) 0.7569(4)
H19 H 0.3020 0.1072 0.7531
C28 C 0.3749(3) 0.1239(3) 0.7447(4)
H20 H 0.3868 0.1573 0.7303
C29 C 0.5919(3) 0.0844(3) 0.3834(4)
C30 C 0.5775(3) 0.0696(3) 0.3220(4)
H21 H 0.5889 0.0942 0.2900
C31 C 0.5472(4) 0.0198(4) 0.3077(5)
H22 H 0.5383 0.0097 0.2657
C32 C 0.5296(4) -0.0155(3) 0.3537(6)
C33 C 0.5424(4) -0.0036(4) 0.4145(6)
H23 H 0.5301 -0.0289 0.4457
C34 C 0.5752(3) 0.0485(4) 0.4294(4)
H24 H 0.5854 0.0583 0.4711
C35 C 0.7034(3) 0.1338(3) 0.3729(4)
C36 C 0.7159(3) 0.1558(3) 0.3153(4)
H25 H 0.7057 0.1794 0.3037
C37 C 0.7437(3) 0.1442(4) 0.2733(4)
H26 H 0.7518 0.1592 0.2333
C38 C 0.7583(5) 0.1118(4) 0.2907(5)
C39 C 0.7456(5) 0.0878(4) 0.3466(6)
H27 H 0.7559 0.0643 0.3578
C40 C 0.7166(4) 0.0992(4) 0.3872(5)
H28 H 0.7061 0.0820 0.4258
N1B N 0.6737(3) 0.4572(2) 0.7717(3)
N1A N 0.7835(2) 0.3263(3) 0.7717(3)
N2B N 0.6905(3) 0.5285(2) 0.6765(3)
N2A N 0.8380(2) 0.3095(3) 0.6765(3)
N3B N 0.5511(4) 0.3982(3) 0.4485(3)
N3A N 0.8471(3) 0.4489(4) 0.4485(3)
N4B N 0.4950(4) 0.2909(3) 0.4315(3)
N4A N 0.7959(3) 0.5050(4) 0.4315(3)
F1A F 0.8642(4) 0.3505(5) 1.0370(3)
F1B F 0.6495(5) 0.5137(3) 1.0370(3)
F2A F 0.9862(2) 0.24471(28) 0.7893(3)
F2B F 0.75529(28) 0.74149(19) 0.7893(3)
F3A F 1.0651(2) 0.5641(3) 0.3400(3)
F3B F 0.4359(3) 0.5010(2) 0.3400(3)
F4A F 0.8973(3) 0.6861(4) 0.2514(4)
F4B F 0.3139(4) 0.2112(3) 0.2514(4)
C1A C 0.7180(3) 0.3679(4) 0.7507(3)
C1B C 0.6321(4) 0.3501(3) 0.7507(3)
H1A H 0.7532 0.3914 0.7497
H1B H 0.6086 0.3618 0.7497
C2A C 0.7011(3) 0.3158(4) 0.7515(3)
C2B C 0.6842(4) 0.3853(3) 0.7515(3)
C3B C 0.7032(4) 0.4399(3) 0.7598(3)
C3A C 0.7367(3) 0.2968(4) 0.7598(3)
H2A H 0.7245 0.2616 0.7562
H2B H 0.7384 0.4629 0.7562
C4B C 0.6977(4) 0.5117(3) 0.7858(4)
C4A C 0.8140(3) 0.3023(4) 0.7858(4)
H3B H 0.7350 0.5276 0.7802
H3A H 0.7926 0.2650 0.7802
C5B C 0.6770(4) 0.5357(3) 0.7392(3)
C5A C 0.8587(3) 0.3230(4) 0.7392(3)
H4A H 0.8789 0.3606 0.7429
H4B H 0.6394 0.5183 0.7429
C6B C 0.6570(4) 0.4942(3) 0.6435(4)
C6A C 0.8372(3) 0.3430(4) 0.6435(4)
H5B H 0.6237 0.4754 0.6594
H5A H 0.8517 0.3763 0.6594
C7B C 0.6677(4) 0.4823(3) 0.5817(4)
C7A C 0.8146(3) 0.3323(4) 0.5817(4)
C8B C 0.7168(4) 0.5004(3) 0.5625(4)
C8A C 0.7836(3) 0.2832(4) 0.5625(4)
H6B H 0.7434 0.5198 0.5907
H6A H 0.7764 0.2566 0.5907
C9B C 0.7287(4) 0.4910(3) 0.5030(4)
C9A C 0.7623(3) 0.2713(4) 0.5030(4)
C10B C 0.6878(4) 0.4629(3) 0.4616(4)
C10A C 0.7751(3) 0.3122(4) 0.4616(4)
H7B H 0.6948 0.4567 0.4206
H7A H 0.7619 0.3052 0.4206
C11B C 0.6382(4) 0.4444(3) 0.4791(4)
C11A C 0.8062(3) 0.3618(4) 0.4791(4)
C12B C 0.6278(4) 0.4533(3) 0.5401(4)
C12A C 0.8255(3) 0.3722(4) 0.5401(4)
H8B H 0.5938 0.4398 0.5532
H8A H 0.8460 0.4062 0.5532
C13B C 0.5979(4) 0.4160(3) 0.4357(4)
C13A C 0.8181(3) 0.4021(4) 0.4357(4)
H9A H 0.8037 0.3936 0.3953
H9B H 0.6064 0.4101 0.3953
C14B C 0.5145(4) 0.3745(3) 0.3993(3)
C14A C 0.8600(3) 0.4855(4) 0.3993(3)
H10B H 0.5317 0.3709 0.3619
H10A H 0.8392 0.4683 0.3619
C15B C 0.4735(4) 0.3224(3) 0.4201(4)
C15A C 0.8489(3) 0.5265(4) 0.4201(4)
H11A H 0.8673 0.5411 0.4599
H11B H 0.4589 0.3262 0.4599
C16A C 0.7282(3) 0.2182(4) 0.4856(4)
C16B C 0.7818(4) 0.5100(3) 0.4856(4)
H12B H 0.8070 0.5268 0.5163
H12A H 0.7198 0.1930 0.5163
C17A C 0.8307(3) 0.3133(4) 0.8514(4)
C17B C 0.6867(4) 0.5174(3) 0.8514(4)
C18A C 0.8586(5) 0.3631(6) 0.8737(5)
C18B C 0.6369(6) 0.4955(4) 0.8737(5)
H13A H 0.8679 0.3897 0.8448
H13B H 0.6103 0.4782 0.8448
C19A C 0.8730(5) 0.3757(6) 0.9331(6)
C19B C 0.6243(6) 0.4973(4) 0.9331(6)
H14A H 0.8954 0.4098 0.9447
H14B H 0.5902 0.4856 0.9447
C20A C 0.8556(5) 0.3403(6) 0.9735(5)
C20B C 0.6597(6) 0.5153(4) 0.9735(5)
C21A C 0.8258(4) 0.2884(6) 0.9592(5)
C21B C 0.7116(6) 0.5374(4) 0.9592(5)
H15A H 0.8131 0.2631 0.9904
H15B H 0.7369 0.5500 0.9904
C22A C 0.8156(3) 0.2761(5) 0.8939(4)
C22B C 0.7239(5) 0.5395(4) 0.8939(4)
H16A H 0.7984 0.2419 0.8810
H16B H 0.7581 0.5565 0.8810
C23A C 0.8920(3) 0.3014(4) 0.7521(3)
C23B C 0.6986(4) 0.5906(3) 0.7521(3)
C24A C 0.9418(3) 0.3336(5) 0.7705(5)
C24B C 0.6664(5) 0.6082(4) 0.7705(5)
H17A H 0.9542 0.3687 0.7753
H17B H 0.6313 0.5855 0.7753
C25A C 0.9742(4) 0.3131(6) 0.7823(5)
C25B C 0.6869(6) 0.6611(4) 0.7823(5)
H18A H 1.0082 0.3342 0.7948
H18B H 0.6658 0.6740 0.7948
C26A C 0.9555(5) 0.2642(6) 0.7754(4)
C26B C 0.7358(6) 0.6913(4) 0.7754(4)
C27A C 0.9053(4) 0.2301(5) 0.7569(4)
C27B C 0.7699(5) 0.6752(3) 0.7569(4)
H19A H 0.8928 0.1948 0.7531
H19B H 0.8052 0.6980 0.7531
C28A C 0.8761(3) 0.2510(4) 0.7447(4)
C28B C 0.7490(4) 0.6251(3) 0.7447(4)
H20A H 0.8427 0.2295 0.7303
H20B H 0.7705 0.6132 0.7303
C29A C 0.9156(3) 0.5075(4) 0.3834(4)
C29B C 0.4925(4) 0.4081(3) 0.3834(4)
C30A C 0.9304(3) 0.5079(4) 0.3220(4)
C30B C 0.4921(4) 0.4225(3) 0.3220(4)
H21A H 0.9058 0.4947 0.2900
H21B H 0.5053 0.4111 0.2900
C31A C 0.9802(4) 0.5274(6) 0.3077(5)
C31B C 0.4726(6) 0.4528(4) 0.3077(5)
H22A H 0.9903 0.5286 0.2657
H22B H 0.4714 0.4617 0.2657
C32A C 1.0155(3) 0.5451(5) 0.3537(6)
C32B C 0.4549(5) 0.4704(4) 0.3537(6)
C33A C 1.0036(4) 0.5460(6) 0.4145(6)
C33B C 0.4540(6) 0.4576(4) 0.4145(6)
H23A H 1.0289 0.5590 0.4457
H23B H 0.4410 0.4699 0.4457
C34A C 0.9515(4) 0.5267(5) 0.4294(4)
C34B C 0.4733(5) 0.4248(3) 0.4294(4)
H24A H 0.9417 0.5271 0.4711
H24B H 0.4729 0.4146 0.4711
C35A C 0.8662(3) 0.5696(4) 0.3729(4)
C35B C 0.4304(4) 0.2966(3) 0.3729(4)
C36A C 0.8442(3) 0.5601(4) 0.3153(4)
C36B C 0.4399(4) 0.2841(3) 0.3153(4)
H25A H 0.8206 0.5263 0.3037
H25B H 0.4737 0.2943 0.3037
C37A C 0.8558(4) 0.5995(5) 0.2733(4)
C37B C 0.4005(5) 0.2563(3) 0.2733(4)
H26A H 0.8408 0.5926 0.2333
H26B H 0.4074 0.2482 0.2333
C38A C 0.8882(4) 0.6465(6) 0.2907(5)
C38B C 0.3535(6) 0.2417(5) 0.2907(5)
C39A C 0.9122(4) 0.6578(6) 0.3466(6)
C39B C 0.3422(6) 0.2544(5) 0.3466(6)
H27A H 0.9357 0.6916 0.3578
H27B H 0.3084 0.2441 0.3578
C40A C 0.9008(4) 0.6174(6) 0.3872(5)
C40B C 0.3826(6) 0.2834(4) 0.3872(5)
H28A H 0.9180 0.6241 0.4258
H28B H 0.3759 0.2939 0.4258
N5 N 0.5535(3) 0.3430(3) -0.1168(3)
N6 N 0.4958(3) 0.3485(3) -0.0149(3)
N7 N 0.4899(3) 0.2217(3) 0.2280(3)
N8 N 0.5361(3) 0.1572(3) 0.2238(3)
F5 F 0.4646(3) 0.3323(3) -0.3778(3)
F6 F 0.3249(3) 0.3845(3) -0.1205(4)
F7 F 0.2901(2) 0.1160(3) 0.3837(4)
F8 F 0.4074(2) -0.0394(2) 0.3798(3)
C41 C 0.6566(3) 0.3728(3) -0.0901(4)
H29 H 0.6494 0.3996 -0.0890
C42 C 0.6159(3) 0.3223(3) -0.0908(4)
C43 C 0.5649(3) 0.3113(3) -0.0952(4)
H30 H 0.5386 0.2794 -0.0815
C44 C 0.5008(3) 0.3301(3) -0.1228(4)
H31 H 0.4784 0.2949 -0.1076
C45 C 0.4965(4) 0.3680(4) -0.0779(4)
H32 H 0.5268 0.4023 -0.0827
C46 C 0.5318(4) 0.3742(4) 0.0199(4)
H33 H 0.5580 0.4059 0.0054
C47 C 0.5358(4) 0.3579(4) 0.0826(4)
C48 C 0.5667(3) 0.3943(3) 0.1256(4)
H34 H 0.5844 0.4290 0.1147
C49 C 0.5716(3) 0.3785(3) 0.1865(4)
C50 C 0.5474(3) 0.3290(3) 0.1998(4)
H35 H 0.5521 0.3188 0.2396
C51 C 0.5160(3) 0.2921(3) 0.1582(4)
C52 C 0.5097(3) 0.3068(3) 0.0993(4)
H36 H 0.4877 0.2821 0.0704
C53 C 0.4895(3) 0.2373(3) 0.1749(4)
H37 H 0.4714 0.2133 0.1433
C54 C 0.4625(3) 0.1666(3) 0.2406(4)
H38 H 0.4510 0.1482 0.2003
C55 C 0.5005(3) 0.1536(3) 0.2710(4)
H39 H 0.5195 0.1792 0.3039
C56 C 0.6039(3) 0.4168(3) 0.2313(4)
H40 H 0.6128 0.4060 0.2681
C57 C 0.4897(3) 0.3333(4) -0.1895(4)
C58 C 0.4461(4) 0.2940(4) -0.2169(4)
H41 H 0.4222 0.2669 -0.1920
C59 C 0.4375(4) 0.2946(4) -0.2826(5)
H42 H 0.4079 0.2685 -0.3016
C60 C 0.4729(4) 0.3336(4) -0.3163(4)
C61 C 0.5155(4) 0.3731(4) -0.2895(5)
H43 H 0.5396 0.4003 -0.3140
C62 C 0.5218(4) 0.3717(4) -0.2288(4)
H44 H 0.5507 0.3995 -0.2108
C63 C 0.4494(4) 0.3709(4) -0.0898(4)
C64 C 0.4023(4) 0.3316(4) -0.0769(4)
H45 H 0.3983 0.3007 -0.0614
C65 C 0.3607(4) 0.3369(5) -0.0862(5)
H46 H 0.3277 0.3100 -0.0772
C66 C 0.3680(5) 0.3821(5) -0.1089(5)
C67 C 0.4120(5) 0.4199(5) -0.1228(6)
H47 H 0.4152 0.4502 -0.1390
C68 C 0.4563(5) 0.4151(4) -0.1132(5)
H48 H 0.4890 0.4420 -0.1229
C69 C 0.4172(3) 0.1528(3) 0.2803(4)
C70 C 0.4211(3) 0.1703(4) 0.3372(5)
H49 H 0.4537 0.1924 0.3535
C71 C 0.3784(5) 0.1574(4) 0.3750(5)
H50 H 0.3822 0.1697 0.4162
C72 C 0.3324(5) 0.1273(4) 0.3509(8)
C73 C 0.3272(4) 0.1083(5) 0.2898(7)
H51 H 0.2948 0.0864 0.2727
C74 C 0.3692(4) 0.1221(4) 0.2568(6)
H52 H 0.3659 0.1103 0.2154
C75 C 0.4750(3) 0.1003(3) 0.3012(4)
C76 C 0.4528(3) 0.0590(4) 0.2624(5)
H53 H 0.4540 0.0633 0.2187
C77 C 0.4284(4) 0.0109(4) 0.2885(5)
H54 H 0.4128 -0.0183 0.2629
C78 C 0.4275(4) 0.0064(4) 0.3522(5)
C79 C 0.4512(4) 0.0484(3) 0.3911(5)
H55 H 0.4520 0.0447 0.4348
C80 C 0.4738(3) 0.0962(3) 0.3636(4)
H56 H 0.4883 0.1257 0.3888
N5A N 0.6570(3) 0.2105(4) -0.1168(3)
N5B N 0.7895(4) 0.4465(3) -0.1168(3)
N6A N 0.6515(3) 0.1473(4) -0.0149(3)
N6B N 0.8527(4) 0.5042(3) -0.0149(3)
N7A N 0.7783(3) 0.2682(4) 0.2280(3)
N7B N 0.7318(4) 0.5101(3) 0.2280(3)
N8A N 0.8428(3) 0.3789(4) 0.2238(3)
N8B N 0.6211(4) 0.4639(3) 0.2238(3)
F5B F 0.8677(4) 0.5354(3) -0.3778(3)
F5A F 0.6677(3) 0.1323(4) -0.3778(3)
F6B F 1.0596(4) 0.6751(3) -0.1205(4)
F6A F 0.6155(3) -0.0596(4) -0.1205(4)
F7B F 0.8259(4) 0.7099(2) 0.3837(4)
F7A F 0.8840(3) 0.1741(4) 0.3837(4)
F8B F 0.5532(3) 0.5926(2) 0.3798(3)
F8A F 1.0394(2) 0.4468(3) 0.3798(3)
C41B C 0.7162(4) 0.3434(3) -0.0901(4)
C41A C 0.6272(3) 0.2838(4) -0.0901(4)
H29B H 0.7502 0.3506 -0.0890
H29A H 0.6004 0.2498 -0.0890
C42B C 0.7064(4) 0.3841(3) -0.0908(4)
C42A C 0.6777(3) 0.2936(4) -0.0908(4)
C43A C 0.6887(3) 0.2536(4) -0.0952(4)
C43B C 0.7464(4) 0.4351(3) -0.0952(4)
H30B H 0.7408 0.4614 -0.0815
H30A H 0.7206 0.2592 -0.0815
C44A C 0.6699(3) 0.1707(4) -0.1228(4)
C44B C 0.8293(4) 0.4992(3) -0.1228(4)
H31A H 0.7051 0.1835 -0.1076
H31B H 0.8165 0.5216 -0.1076
C45A C 0.6320(4) 0.1285(6) -0.0779(4)
C45B C 0.8715(6) 0.5035(4) -0.0779(4)
H32B H 0.8755 0.4732 -0.0827
H32A H 0.5977 0.1245 -0.0827
C46A C 0.6258(4) 0.1576(6) 0.0199(4)
C46B C 0.8424(6) 0.4682(4) 0.0199(4)
H33A H 0.5941 0.1521 0.0054
H33B H 0.8479 0.4420 0.0054
C47A C 0.6421(4) 0.1779(6) 0.0826(4)
C47B C 0.8221(6) 0.4642(4) 0.0826(4)
C48A C 0.6057(3) 0.1724(4) 0.1256(4)
C48B C 0.8276(4) 0.4333(3) 0.1256(4)
H34A H 0.5710 0.1554 0.1147
H34B H 0.8446 0.4156 0.1147
C49A C 0.6215(3) 0.1931(4) 0.1865(4)
C49B C 0.8069(4) 0.4284(3) 0.1865(4)
C50A C 0.6710(3) 0.2184(4) 0.1998(4)
C50B C 0.7816(4) 0.4526(3) 0.1998(4)
H35A H 0.6812 0.2333 0.2396
H35B H 0.7667 0.4479 0.2396
C51A C 0.7079(3) 0.2239(4) 0.1582(4)
C51B C 0.7761(4) 0.4840(3) 0.1582(4)
C52A C 0.6932(3) 0.2029(4) 0.0993(4)
C52B C 0.7971(4) 0.4903(3) 0.0993(4)
H36A H 0.7179 0.2056 0.0704
H36B H 0.7944 0.5123 0.0704
C53A C 0.7627(3) 0.2522(4) 0.1749(4)
C53B C 0.7478(4) 0.5105(3) 0.1749(4)
H37B H 0.7419 0.5286 0.1433
H37A H 0.7867 0.2581 0.1433
C54A C 0.8334(3) 0.2959(4) 0.2406(4)
C54B C 0.7041(4) 0.5375(3) 0.2406(4)
H38A H 0.8518 0.3028 0.2003
H38B H 0.6972 0.5490 0.2003
C55A C 0.8464(3) 0.3469(4) 0.2710(4)
C55B C 0.6531(4) 0.4995(3) 0.2710(4)
H39B H 0.6597 0.4805 0.3039
H39A H 0.8208 0.3403 0.3039
C56B C 0.8129(4) 0.3961(3) 0.2313(4)
C56A C 0.5832(3) 0.1871(4) 0.2313(4)
H40A H 0.5940 0.2068 0.2681
H40B H 0.7932 0.3872 0.2681
C57B C 0.8436(5) 0.5103(3) -0.1895(4)
C57A C 0.6667(4) 0.1564(5) -0.1895(4)
C58B C 0.8479(6) 0.5539(4) -0.2169(4)
C58A C 0.7060(4) 0.1521(6) -0.2169(4)
H41B H 0.8447 0.5778 -0.1920
H41A H 0.7331 0.1553 -0.1920
C59B C 0.8571(6) 0.5625(4) -0.2826(5)
C59A C 0.7054(4) 0.1429(6) -0.2826(5)
H42B H 0.8606 0.5921 -0.3016
H42A H 0.7315 0.1394 -0.3016
C60B C 0.8607(6) 0.5271(4) -0.3163(4)
C60A C 0.6664(4) 0.1393(6) -0.3163(4)
C61B C 0.8576(6) 0.4845(4) -0.2895(5)
C61A C 0.6269(4) 0.1424(6) -0.2895(5)
H43B H 0.8607 0.4604 -0.3140
H43A H 0.5997 0.1393 -0.3140
C62B C 0.8499(6) 0.4782(4) -0.2288(4)
C62A C 0.6283(4) 0.1501(6) -0.2288(4)
H44B H 0.8488 0.4493 -0.2108
H44A H 0.6005 0.1512 -0.2108
C63B C 0.9215(6) 0.5506(4) -0.0898(4)
C63A C 0.6291(4) 0.0785(6) -0.0898(4)
C64B C 0.9293(6) 0.5977(4) -0.0769(4)
C64A C 0.6684(4) 0.0707(6) -0.0769(4)
H45B H 0.9024 0.6017 -0.0614
H45A H 0.6993 0.0976 -0.0614
C65B C 0.9762(6) 0.6393(4) -0.0862(5)
C65A C 0.6631(5) 0.0238(6) -0.0862(5)
H46B H 0.9823 0.6723 -0.0772
H46A H 0.6900 0.0177 -0.0772
C66B C 1.0141(7) 0.6320(5) -0.1089(5)
C66A C 0.6179(5) -0.0141(7) -0.1089(5)
C67B C 1.0079(7) 0.5880(5) -0.1228(6)
C67A C 0.5801(5) -0.0079(7) -0.1228(6)
H47B H 1.0350 0.5848 -0.1390
H47A H 0.5498 -0.0350 -0.1390
C68B C 0.9588(6) 0.5437(5) -0.1132(5)
C68A C 0.5849(4) 0.0412(6) -0.1132(5)
H48B H 0.9530 0.5110 -0.1229
H48A H 0.5580 0.0470 -0.1229
C69B C 0.7356(4) 0.5828(3) 0.2803(4)
C69A C 0.8472(3) 0.2644(4) 0.2803(4)
C70B C 0.7492(5) 0.5789(3) 0.3372(5)
C70A C 0.8297(4) 0.2508(5) 0.3372(5)
H49B H 0.7387 0.5463 0.3535
H49A H 0.8076 0.2613 0.3535
C71B C 0.7790(6) 0.6216(5) 0.3750(5)
C71A C 0.8426(4) 0.2210(6) 0.3750(5)
H50B H 0.7875 0.6178 0.4162
H50A H 0.8303 0.2125 0.4162
C72B C 0.7949(6) 0.6676(5) 0.3509(8)
C72A C 0.8727(4) 0.2051(6) 0.3509(8)
C73B C 0.7811(6) 0.6728(4) 0.2898(7)
C73A C 0.8917(5) 0.2189(6) 0.2898(7)
H51B H 0.7916 0.7052 0.2727
H51A H 0.9136 0.2084 0.2727
C74B C 0.7529(6) 0.6308(4) 0.2568(6)
C74A C 0.8779(4) 0.2471(6) 0.2568(6)
H52B H 0.7444 0.6341 0.2154
H52A H 0.8897 0.2556 0.2154
C75B C 0.6253(4) 0.5250(3) 0.3012(4)
C75A C 0.8997(3) 0.3747(4) 0.3012(4)
C76B C 0.6062(5) 0.5472(3) 0.2624(5)
C76A C 0.9410(4) 0.3938(5) 0.2624(5)
H53B H 0.6093 0.5460 0.2187
H53A H 0.9367 0.3907 0.2187
C77B C 0.5825(6) 0.5716(4) 0.2885(5)
C77A C 0.9891(4) 0.4175(6) 0.2885(5)
H54B H 0.5689 0.5872 0.2629
H54A H 1.0183 0.4311 0.2629
C78B C 0.5789(6) 0.5725(4) 0.3522(5)
C78A C 0.9936(4) 0.4211(6) 0.3522(5)
C79B C 0.5972(5) 0.5488(4) 0.3911(5)
C79A C 0.9516(3) 0.4028(5) 0.3911(5)
H55B H 0.5927 0.5480 0.4348
H55A H 0.9553 0.4073 0.4348
C80B C 0.6224(4) 0.5262(3) 0.3636(4)
C80A C 0.9038(3) 0.3776(4) 0.3636(4)
H56B H 0.6374 0.5117 0.3888
H56A H 0.8743 0.3626 0.3888
Cl1 Cl 0.36351(11) 0.35269(12) 0.07968(13)
Cl2 Cl 0.43104(13) 0.34790(15) 0.16836(14)
Cl3 Cl 0.46665(13) 0.43331(12) 0.0863(2)
C81 C 0.4251(4) 0.3686(4) 0.0945(6)
H57 H 0.4348 0.3509 0.0633
Cl4 Cl 0.40437(13) 0.09788(13) 0.51034(14)
Cl5 Cl 0.33195(12) 0.03958(12) 0.60536(13)
Cl6 Cl 0.34988(15) 0.13897(17) 0.5715(2)
C82 C 0.3750(4) 0.0990(4) 0.5808(5)
H58 H 0.4020 0.1144 0.6132
O1 O 0.5510(6) 0.2814(6) 0.3345(8)
Cl7 Cl 0.60959(13) 0.28128(14) 0.08320(15)
C83 C 0.6667 0.3333 0.0581(8)
H59 H 0.6667 0.3333 0.0117
Cl7B Cl 0.67169(19) 0.39041(13) 0.08320(15)
Cl7A Cl 0.71872(14) 0.32831(19) 0.08320(15)
Cl8 Cl 0.66376(14) 0.27731(14) 0.5752(2)
C84 C 0.6667 0.3333 0.5958(9)
H60 H 0.6667 0.3333 0.6422
Cl8B Cl 0.61355(20) 0.33624(14) 0.5752(2)
Cl8A Cl 0.72269(14) 0.38645(20) 0.5752(2)
Cl9? Cl 0.6667 0.3333 0.23999(19)
Cl10? Cl 0.60795(16) 0.31870(16) 0.35128(19)
C85? C 0.6667 0.3333 0.3245(8)
loop_
_geom_bond_atom_site_label_1
_geom_bond_atom_site_label_2
_geom_bond_site_symmetry_1
_geom_bond_site_symmetry_2
N1 C3 1_555 1_555
N2 C5 1_555 1_555
N3 C13 1_555 1_555
N4 C15 1_555 1_555
F1 C20 1_555 1_555
F2 C26 1_555 1_555
F3 C32 1_555 1_555
F4 C38 1_555 1_555
C1 H1 1_555 1_555
C2 C1 1_555 1_555
C3 C2 1_555 1_555
H2 C3 1_555 1_555
C4 N1 1_555 1_555
H3 C4 1_555 1_555
C5 C4 1_555 1_555
H4 C5 1_555 1_555
C6 N2 1_555 1_555
H5 C6 1_555 1_555
C7 C6 1_555 1_555
C8 C7 1_555 1_555
H6 C8 1_555 1_555
C9 C8 1_555 1_555
C10 C9 1_555 1_555
H7 C10 1_555 1_555
C11 C10 1_555 1_555
C12 C7 1_555 1_555
H8 C12 1_555 1_555
C13 C11 1_555 1_555
H9 C13 1_555 1_555
C14 N3 1_555 1_555
H10 C14 1_555 1_555
C15 C14 1_555 1_555
H11 C15 1_555 1_555
C16 C9 1_555 1_555
H12 C16 1_555 1_555
C17 C4 1_555 1_555
C18 C17 1_555 1_555
H13 C18 1_555 1_555
C19 C18 1_555 1_555
H14 C19 1_555 1_555
C20 C19 1_555 1_555
C21 C20 1_555 1_555
H15 C21 1_555 1_555
C22 C17 1_555 1_555
H16 C22 1_555 1_555
C23 C5 1_555 1_555
C24 C23 1_555 1_555
H17 C24 1_555 1_555
C25 C24 1_555 1_555
H18 C25 1_555 1_555
C26 C25 1_555 1_555
C27 C26 1_555 1_555
H19 C27 1_555 1_555
C28 C23 1_555 1_555
H20 C28 1_555 1_555
C29 C14 1_555 1_555
C30 C29 1_555 1_555
H21 C30 1_555 1_555
C31 C30 1_555 1_555
H22 C31 1_555 1_555
C32 C31 1_555 1_555
C33 C32 1_555 1_555
H23 C33 1_555 1_555
C34 C29 1_555 1_555
H24 C34 1_555 1_555
C35 C15 1_555 1_555
C36 C35 1_555 1_555
H25 C36 1_555 1_555
C37 C36 1_555 1_555
H26 C37 1_555 1_555
C38 C37 1_555 1_555
C39 C38 1_555 1_555
H27 C39 1_555 1_555
C40 C35 1_555 1_555
H28 C40 1_555 1_555
N5 C43 1_555 1_555
N6 C45 1_555 1_555
N7 C53 1_555 1_555
N8 C55 1_555 1_555
F5 C60 1_555 1_555
F6 C66 1_555 1_555
F7 C72 1_555 1_555
F8 C78 1_555 1_555
C41 H29 1_555 1_555
C42 C41 1_555 1_555
C43 C42 1_555 1_555
H30 C43 1_555 1_555
C44 N5 1_555 1_555
H31 C44 1_555 1_555
C45 C44 1_555 1_555
H32 C45 1_555 1_555
C46 N6 1_555 1_555
H33 C46 1_555 1_555
C47 C46 1_555 1_555
C48 C47 1_555 1_555
H34 C48 1_555 1_555
C49 C48 1_555 1_555
C50 C49 1_555 1_555
H35 C50 1_555 1_555
C51 C50 1_555 1_555
C52 C47 1_555 1_555
H36 C52 1_555 1_555
C53 C51 1_555 1_555
H37 C53 1_555 1_555
C54 N7 1_555 1_555
H38 C54 1_555 1_555
C55 C54 1_555 1_555
H39 C55 1_555 1_555
C56 C49 1_555 1_555
H40 C56 1_555 1_555
C57 C44 1_555 1_555
C58 C57 1_555 1_555
H41 C58 1_555 1_555
C59 C58 1_555 1_555
H42 C59 1_555 1_555
C60 C59 1_555 1_555
C61 C60 1_555 1_555
H43 C61 1_555 1_555
C62 C57 1_555 1_555
H44 C62 1_555 1_555
C63 C45 1_555 1_555
C64 C63 1_555 1_555
H45 C64 1_555 1_555
C65 C64 1_555 1_555
H46 C65 1_555 1_555
C66 C65 1_555 1_555
C67 C66 1_555 1_555
H47 C67 1_555 1_555
C68 C63 1_555 1_555
H48 C68 1_555 1_555
C69 C54 1_555 1_555
C70 C69 1_555 1_555
H49 C70 1_555 1_555
C71 C70 1_555 1_555
H50 C71 1_555 1_555
C72 C71 1_555 1_555
C73 C72 1_555 1_555
H51 C73 1_555 1_555
C74 C69 1_555 1_555
H52 C74 1_555 1_555
C75 C55 1_555 1_555
C76 C75 1_555 1_555
H53 C76 1_555 1_555
C77 C76 1_555 1_555
H54 C77 1_555 1_555
C78 C77 1_555 1_555
C79 C78 1_555 1_555
H55 C79 1_555 1_555
C80 C75 1_555 1_555
H56 C80 1_555 1_555
Cl1 C81 1_555 1_555
Cl2 C81 1_555 1_555
Cl3 C81 1_555 1_555
C81 H57 1_555 1_555
Cl4 C82 1_555 1_555
Cl5 C82 1_555 1_555
Cl6 C82 1_555 1_555
C82 H58 1_555 1_555
Cl7 C83 1_555 1_555
C83 H59 1_555 1_555
Cl8 C84 1_555 1_555
C84 H60 1_555 1_555
N1B C3B 1_555 1_555
N1A C3A 1_555 1_555
N2B C5B 1_555 1_555
N2A C5A 1_555 1_555
N3B C13B 1_555 1_555
N3A C13A 1_555 1_555
N4B C16 1_555 1_555
N4A C15A 1_555 1_555
F1A C20A 1_555 1_555
F1B C20B 1_555 1_555
F2A C26A 1_555 1_555
F2B C26B 1_555 1_555
F3A C32A 1_555 1_555
F3B C32B 1_555 1_555
F4A C38A 1_555 1_555
F4B C38B 1_555 1_555
C1A H1A 1_555 1_555
C1B C2 1_555 1_555
H1B C1B 1_555 1_555
C2A C1 1_555 1_555
C2B C1A 1_555 1_555
C3B C2B 1_555 1_555
C3A C2A 1_555 1_555
H2A C3A 1_555 1_555
H2B C3B 1_555 1_555
C4B N1B 1_555 1_555
C4A N1A 1_555 1_555
H3B C4B 1_555 1_555
H3A C4A 1_555 1_555
C5B C4B 1_555 1_555
C5A C4A 1_555 1_555
H4A C5A 1_555 1_555
H4B C5B 1_555 1_555
C6B N2B 1_555 1_555
C6A N2A 1_555 1_555
H5B C6B 1_555 1_555
H5A C6A 1_555 1_555
C7B C6B 1_555 1_555
C7A C6A 1_555 1_555
C8B C7B 1_555 1_555
C8A C7A 1_555 1_555
H6B C8B 1_555 1_555
H6A C8A 1_555 1_555
C9B C8B 1_555 1_555
C9A C8A 1_555 1_555
C10B C9B 1_555 1_555
C10A C9A 1_555 1_555
H7B C10B 1_555 1_555
H7A C10A 1_555 1_555
C11B C10B 1_555 1_555
C11A C10A 1_555 1_555
C12B C7B 1_555 1_555
C12A C7A 1_555 1_555
H8B C12B 1_555 1_555
H8A C12A 1_555 1_555
C13B C11B 1_555 1_555
C13A C11A 1_555 1_555
H9A C13A 1_555 1_555
H9B C13B 1_555 1_555
C14B N3B 1_555 1_555
C14A N3A 1_555 1_555
H10B C14B 1_555 1_555
H10A C14A 1_555 1_555
C15B N4B 1_555 1_555
C15A C14A 1_555 1_555
H11A C15A 1_555 1_555
H11B C15B 1_555 1_555
C16A N4 1_555 1_555
C16B N4A 1_555 1_555
H12B C16B 1_555 1_555
H12A C16A 1_555 1_555
C17A C4A 1_555 1_555
C17B C4B 1_555 1_555
C18A C17A 1_555 1_555
C18B C17B 1_555 1_555
H13A C18A 1_555 1_555
H13B C18B 1_555 1_555
C19A C18A 1_555 1_555
C19B C18B 1_555 1_555
H14A C19A 1_555 1_555
H14B C19B 1_555 1_555
C20A C19A 1_555 1_555
C20B C19B 1_555 1_555
C21A C20A 1_555 1_555
C21B C20B 1_555 1_555
H15A C21A 1_555 1_555
H15B C21B 1_555 1_555
C22A C17A 1_555 1_555
C22B C17B 1_555 1_555
H16A C22A 1_555 1_555
H16B C22B 1_555 1_555
C23A C5A 1_555 1_555
C23B C5B 1_555 1_555
C24A C23A 1_555 1_555
C24B C23B 1_555 1_555
H17A C24A 1_555 1_555
H17B C24B 1_555 1_555
C25A C24A 1_555 1_555
C25B C24B 1_555 1_555
H18A C25A 1_555 1_555
H18B C25B 1_555 1_555
C26A C25A 1_555 1_555
C26B C25B 1_555 1_555
C27A C26A 1_555 1_555
C27B C26B 1_555 1_555
H19A C27A 1_555 1_555
H19B C27B 1_555 1_555
C28A C23A 1_555 1_555
C28B C23B 1_555 1_555
H20A C28A 1_555 1_555
H20B C28B 1_555 1_555
C29A C14A 1_555 1_555
C29B C14B 1_555 1_555
C30A C29A 1_555 1_555
C30B C29B 1_555 1_555
H21A C30A 1_555 1_555
H21B C30B 1_555 1_555
C31A C30A 1_555 1_555
C31B C30B 1_555 1_555
H22A C31A 1_555 1_555
H22B C31B 1_555 1_555
C32A C31A 1_555 1_555
C32B C31B 1_555 1_555
C33A C32A 1_555 1_555
C33B C32B 1_555 1_555
H23A C33A 1_555 1_555
H23B C33B 1_555 1_555
C34A C29A 1_555 1_555
C34B C29B 1_555 1_555
H24A C34A 1_555 1_555
H24B C34B 1_555 1_555
C35A C15A 1_555 1_555
C35B C15B 1_555 1_555
C36A C35A 1_555 1_555
C36B C35B 1_555 1_555
H25A C36A 1_555 1_555
H25B C36B 1_555 1_555
C37A C36A 1_555 1_555
C37B C36B 1_555 1_555
H26A C37A 1_555 1_555
H26B C37B 1_555 1_555
C38A C37A 1_555 1_555
C38B C37B 1_555 1_555
C39A C38A 1_555 1_555
C39B C38B 1_555 1_555
H27A C39A 1_555 1_555
H27B C39B 1_555 1_555
C40A C35A 1_555 1_555
C40B C35B 1_555 1_555
H28A C40A 1_555 1_555
H28B C40B 1_555 1_555
N5A C43A 1_555 1_555
N5B C43B 1_555 1_555
N6A C45A 1_555 1_555
N6B C45B 1_555 1_555
N7A C53A 1_555 1_555
N7B C53B 1_555 1_555
N8A C55A 1_555 1_555
N8B C56 1_555 1_555
F5B C60B 1_555 1_555
F5A C60A 1_555 1_555
F6B C66B 1_555 1_555
F6A C66A 1_555 1_555
F7B C72B 1_555 1_555
F7A C72A 1_555 1_555
F8B C78B 1_555 1_555
F8A C78A 1_555 1_555
C41B H29B 1_555 1_555
C41A C42 1_555 1_555
H29A C41A 1_555 1_555
C42B C41 1_555 1_555
C42A C41B 1_555 1_555
C43A C42A 1_555 1_555
C43B C42B 1_555 1_555
H30B C43B 1_555 1_555
H30A C43A 1_555 1_555
C44A N5A 1_555 1_555
C44B N5B 1_555 1_555
H31A C44A 1_555 1_555
H31B C44B 1_555 1_555
C45A C44A 1_555 1_555
C45B C44B 1_555 1_555
H32B C45B 1_555 1_555
H32A C45A 1_555 1_555
C46A N6A 1_555 1_555
C46B N6B 1_555 1_555
H33A C46A 1_555 1_555
H33B C46B 1_555 1_555
C47A C46A 1_555 1_555
C47B C46B 1_555 1_555
C48A C47A 1_555 1_555
C48B C47B 1_555 1_555
H34A C48A 1_555 1_555
H34B C48B 1_555 1_555
C49A C48A 1_555 1_555
C49B C48B 1_555 1_555
C50A C49A 1_555 1_555
C50B C49B 1_555 1_555
H35A C50A 1_555 1_555
H35B C50B 1_555 1_555
C51A C50A 1_555 1_555
C51B C50B 1_555 1_555
C52A C47A 1_555 1_555
C52B C47B 1_555 1_555
H36A C52A 1_555 1_555
H36B C52B 1_555 1_555
C53A C51A 1_555 1_555
C53B C51B 1_555 1_555
H37B C53B 1_555 1_555
H37A C53A 1_555 1_555
C54A N7A 1_555 1_555
C54B N7B 1_555 1_555
H38A C54A 1_555 1_555
H38B C54B 1_555 1_555
C55A C54A 1_555 1_555
C55B N8B 1_555 1_555
H39B C55B 1_555 1_555
H39A C55A 1_555 1_555
C56B N8A 1_555 1_555
C56A N8 1_555 1_555
H40A C56A 1_555 1_555
H40B C56B 1_555 1_555
C57B C44B 1_555 1_555
C57A C44A 1_555 1_555
C58B C57B 1_555 1_555
C58A C57A 1_555 1_555
H41B C58B 1_555 1_555
H41A C58A 1_555 1_555
C59B C58B 1_555 1_555
C59A C58A 1_555 1_555
H42B C59B 1_555 1_555
H42A C59A 1_555 1_555
C60B C59B 1_555 1_555
C60A C59A 1_555 1_555
C61B C60B 1_555 1_555
C61A C60A 1_555 1_555
H43B C61B 1_555 1_555
H43A C61A 1_555 1_555
C62B C57B 1_555 1_555
C62A C57A 1_555 1_555
H44B C62B 1_555 1_555
H44A C62A 1_555 1_555
C63B C45B 1_555 1_555
C63A C45A 1_555 1_555
C64B C63B 1_555 1_555
C64A C63A 1_555 1_555
H45B C64B 1_555 1_555
H45A C64A 1_555 1_555
C65B C64B 1_555 1_555
C65A C64A 1_555 1_555
H46B C65B 1_555 1_555
H46A C65A 1_555 1_555
C66B C65B 1_555 1_555
C66A C65A 1_555 1_555
C67B C66B 1_555 1_555
C67A C66A 1_555 1_555
H47B C67B 1_555 1_555
H47A C67A 1_555 1_555
C68B C63B 1_555 1_555
C68A C63A 1_555 1_555
H48B C68B 1_555 1_555
H48A C68A 1_555 1_555
C69B C54B 1_555 1_555
C69A C54A 1_555 1_555
C70B C69B 1_555 1_555
C70A C69A 1_555 1_555
H49B C70B 1_555 1_555
H49A C70A 1_555 1_555
C71B C70B 1_555 1_555
C71A C70A 1_555 1_555
H50B C71B 1_555 1_555
H50A C71A 1_555 1_555
C72B C71B 1_555 1_555
C72A C71A 1_555 1_555
C73B C72B 1_555 1_555
C73A C72A 1_555 1_555
H51B C73B 1_555 1_555
H51A C73A 1_555 1_555
C74B C69B 1_555 1_555
C74A C69A 1_555 1_555
H52B C74B 1_555 1_555
H52A C74A 1_555 1_555
C75B C55B 1_555 1_555
C75A C55A 1_555 1_555
C76B C75B 1_555 1_555
C76A C75A 1_555 1_555
H53B C76B 1_555 1_555
H53A C76A 1_555 1_555
C77B C76B 1_555 1_555
C77A C76A 1_555 1_555
H54B C77B 1_555 1_555
H54A C77A 1_555 1_555
C78B C77B 1_555 1_555
C78A C77A 1_555 1_555
C79B C78B 1_555 1_555
C79A C78A 1_555 1_555
H55B C79B 1_555 1_555
H55A C79A 1_555 1_555
C80B C75B 1_555 1_555
C80A C75A 1_555 1_555
H56B C80B 1_555 1_555
H56A C80A 1_555 1_555
Cl7B C83 1_555 1_555
Cl7A C83 1_555 1_555
Cl8B C84 1_555 1_555
Cl8A C84 1_555 1_555
C11 C12 1_555 1_555
C21 C22 1_555 1_555
C27 C28 1_555 1_555
C33 C34 1_555 1_555
C39 C40 1_555 1_555
C51 C52 1_555 1_555
C61 C62 1_555 1_555
C67 C68 1_555 1_555
C73 C74 1_555 1_555
C79 C80 1_555 1_555
C1A C2A 1_555 1_555
C1B C2B 1_555 1_555
C9B C16B 1_555 1_555
C9A C16A 1_555 1_555
C11B C12B 1_555 1_555
C11A C12A 1_555 1_555
C14B C15B 1_555 1_555
C21A C22A 1_555 1_555
C21B C22B 1_555 1_555
C27A C28A 1_555 1_555
C27B C28B 1_555 1_555
C33A C34A 1_555 1_555
C33B C34B 1_555 1_555
C39A C40A 1_555 1_555
C39B C40B 1_555 1_555
C41B C42B 1_555 1_555
C41A C42A 1_555 1_555
C49A C56A 1_555 1_555
C49B C56B 1_555 1_555
C51A C52A 1_555 1_555
C51B C52B 1_555 1_555
C54B C55B 1_555 1_555
C61B C62B 1_555 1_555
C61A C62A 1_555 1_555
C67B C68B 1_555 1_555
C67A C68A 1_555 1_555
C73B C74B 1_555 1_555
C73A C74A 1_555 1_555
C79B C80B 1_555 1_555
C79A C80A 1_555 1_555

#END
