
#######################################################################
#
#                 Cambridge Crystallographic Data Centre
#                                CCDC 
#
#######################################################################
#
# If this CIF has been generated from an entry in the Cambridge 
# Structural Database, then it will include bibliographic, chemical, 
# crystal, experimental, refinement or atomic coordinate data resulting 
# from the CCDC's data processing and validation procedures.
#
#######################################################################

data_GANDAC
_chemical_formula_moiety         'C120 H96 N12'
_chemical_name_systematic        
6,7,17,18,28,29,39,40,47,48,55,56-Dodecaphenyl-5,8,16,19,27,30,38,41,46,49,54,57-dodecaazaheptacyclo[21.21.6.6^12,34^.1^3,43^.1^10,14^.1^21,25^.1^32,36^]hexaconta-1,3(51),4,8,10(60),11,13,15,19,21(59),22,24,26,30,32(52),33,35,37,41,43,45,49,53,57-tetracosaene
_symmetry_cell_setting           rhombohedral
_symmetry_space_group_name_H-M   'R 3'
_symmetry_Int_Tables_number      146
_space_group_name_Hall           'R 3'
loop_
_symmetry_equiv_pos_site_id
_symmetry_equiv_pos_as_xyz
1 x,y,z
2 -y,x-y,z
3 -x+y,-x,z
4 2/3+x,1/3+y,1/3+z
5 2/3-y,1/3+x-y,1/3+z
6 2/3-x+y,1/3-x,1/3+z
7 1/3+x,2/3+y,2/3+z
8 1/3-y,2/3+x-y,2/3+z
9 1/3-x+y,2/3-x,2/3+z
_cell_length_a                   29.494(5)
_cell_length_b                   29.494(5)
_cell_length_c                   11.036(3)
_cell_angle_alpha                90
_cell_angle_beta                 90
_cell_angle_gamma                120
_cell_volume                     8313.99
_exptl_crystal_colour            colorless
_exptl_crystal_description       needle
_cell_formula_units_Z            3
loop_
_atom_site_label
_atom_site_type_symbol
_atom_site_fract_x
_atom_site_fract_y
_atom_site_fract_z
N1 N 0.45384(16) 0.79812(14) -0.0638(3)
N2 N 0.49005(12) 0.85855(13) 0.1568(3)
N3 N 0.36829(15) 0.84076(13) 0.6452(4)
N4 N 0.25831(14) 0.77711(19) 0.6116(3)
C1 C 0.38619(15) 0.6850(2) -0.0536(4)
H1 H 0.4221 0.6975 -0.0538
C2 C 0.36843(19) 0.72067(16) -0.0534(3)
C3 C 0.4051(2) 0.77717(18) -0.0545(4)
H2 H 0.3911 0.7992 -0.0478
C4 C 0.48395(16) 0.85526(17) -0.0650(4)
H3 H 0.4598 0.8688 -0.0575
C5 C 0.52143(16) 0.87410(16) 0.0443(4)
H4 H 0.5438 0.8583 0.0420
C6 C 0.49537(16) 0.82770(17) 0.2272(4)
H5 H 0.5165 0.8142 0.2029
C7 C 0.46951(17) 0.81232(16) 0.3461(4)
C8 C 0.48428(15) 0.78640(16) 0.4267(4)
H6 H 0.5079 0.7760 0.4023
C9 C 0.46422(17) 0.77540(16) 0.5454(4)
C10 C 0.42957(18) 0.79080(15) 0.5792(4)
H7 H 0.4158 0.7834 0.6573
C11 C 0.41416(16) 0.81735(16) 0.4998(4)
C12 C 0.43445(19) 0.82751(15) 0.3827(4)
H8 H 0.4242 0.8448 0.3284
C13 C 0.37933(18) 0.83723(16) 0.5357(5)
H9 H 0.3646 0.8477 0.4752
C14 C 0.3331(2) 0.8614(2) 0.6658(4)
H10 H 0.3276 0.8748 0.5894
C15 C 0.2806(2) 0.8158(2) 0.7103(4)
H11 H 0.2869 0.7995 0.7809
C16 C 0.24888(16) 0.7316(2) 0.6328(4)
H12 H 0.2578 0.7246 0.7085
C17 C 0.5148(2) 0.8758(2) -0.1807(5)
C18 C 0.5488(3) 0.8592(2) -0.2143(6)
H13 H 0.5520 0.8348 -0.1672
C19 C 0.5791(4) 0.8793(4) -0.3208(10)
H14 H 0.6008 0.8668 -0.3474
C20 C 0.5759(5) 0.9170(5) -0.3830(13)
H15 H 0.5975 0.9318 -0.4501
C21 C 0.5420(5) 0.9344(4) -0.3513(9)
H16 H 0.5403 0.9602 -0.3963
C22 C 0.5106(3) 0.9124(3) -0.2507(6)
H17 H 0.4863 0.9224 -0.2298
C23 C 0.5548(2) 0.93327(18) 0.0403(4)
C24 C 0.6063(2) 0.9564(2) 0.0063(4)
H18 H 0.6212 0.9356 -0.0077
C25 C 0.6360(3) 1.0090(3) -0.0076(5)
H19 H 0.6711 1.0238 -0.0292
C26 C 0.6152(4) 1.0403(3) 0.0096(6)
H20 H 0.6352 1.0761 -0.0043
C27 C 0.5647(4) 1.0188(3) 0.0475(7)
H21 H 0.5505 1.0401 0.0629
C28 C 0.5342(2) 0.9645(2) 0.0632(5)
H22 H 0.4997 0.9498 0.0894
C29 C 0.3570(2) 0.9057(2) 0.7588(7)
C30 C 0.3748(2) 0.8996(3) 0.8654(8)
H23 H 0.3729 0.8679 0.8834
C31 C 0.3964(3) 0.9403(5) 0.9507(9)
H24 H 0.4098 0.9362 1.0234
C32 C 0.3973(5) 0.9854(5) 0.9260(13)
H25 H 0.4104 1.0122 0.9832
C33 C 0.3799(6) 0.9920(4) 0.8213(13)
H26 H 0.3814 1.0237 0.8054
C34 C 0.3591(3) 0.9525(3) 0.7333(7)
H27 H 0.3470 0.9577 0.6597
C35 C 0.2427(2) 0.8337(2) 0.7442(6)
C36 C 0.2328(3) 0.8375(3) 0.8629(7)
H28 H 0.2502 0.8295 0.9218
C37 C 0.1972(4) 0.8531(5) 0.8993(10)
H29 H 0.1886 0.8533 0.9802
C38 C 0.1754(6) 0.8683(7) 0.8059(17)
H30 H 0.1539 0.8818 0.8272
C39 C 0.1835(5) 0.8645(5) 0.6890(14)
H31 H 0.1661 0.8725 0.6299
C40 C 0.2192(3) 0.8481(3) 0.6574(7)
H32 H 0.2269 0.8469 0.5762
N1A N 0.20188(14) 0.65572(21) -0.0638(3)
N1B N 0.34428(21) 0.54616(16) -0.0638(3)
N2A N 0.14145(13) 0.63150(18) 0.1568(3)
N2B N 0.36850(18) 0.50995(12) 0.1568(3)
N3A N 0.15924(13) 0.52753(20) 0.6452(4)
N3B N 0.47247(20) 0.63171(15) 0.6452(4)
N4A N 0.22289(19) 0.48120(24) 0.6116(3)
N4B N 0.51880(24) 0.74169(14) 0.6116(3)
C1A C 0.3150(2) 0.70119(25) -0.0536(4)
C1B C 0.29881(25) 0.61381(15) -0.0536(4)
H1A H 0.3025 0.7246 -0.0538
H1B H 0.2754 0.5779 -0.0538
C2A C 0.27933(16) 0.64776(25) -0.0534(3)
C2B C 0.35224(25) 0.63157(19) -0.0534(3)
C3A C 0.22283(18) 0.62793(27) -0.0545(4)
C3B C 0.37207(27) 0.5949(2) -0.0545(4)
H2A H 0.2008 0.5919 -0.0478
H2B H 0.4081 0.6089 -0.0478
C4A C 0.14474(17) 0.62869(23) -0.0650(4)
C4B C 0.37131(23) 0.51605(16) -0.0650(4)
H3A H 0.1312 0.5910 -0.0575
H3B H 0.4090 0.5402 -0.0575
C5A C 0.12590(16) 0.64733(23) 0.0443(4)
C5B C 0.35267(23) 0.47857(16) 0.0443(4)
H4A H 0.1417 0.6855 0.0420
H4B H 0.3145 0.4562 0.0420
C6A C 0.17230(17) 0.66767(23) 0.2272(4)
C6B C 0.33233(23) 0.50463(16) 0.2272(4)
H5A H 0.1858 0.7023 0.2029
H5B H 0.2977 0.4835 0.2029
C7A C 0.18768(16) 0.65719(23) 0.3461(4)
C7B C 0.34281(23) 0.53049(17) 0.3461(4)
C8A C 0.21360(16) 0.69788(22) 0.4267(4)
C8B C 0.30212(22) 0.51572(15) 0.4267(4)
H6A H 0.2240 0.7319 0.4023
H6B H 0.2681 0.4921 0.4023
C9A C 0.22460(16) 0.68882(23) 0.5454(4)
C9B C 0.31118(23) 0.53578(17) 0.5454(4)
C10A C 0.20920(15) 0.63877(23) 0.5792(4)
C10B C 0.36123(23) 0.57043(18) 0.5792(4)
H7A H 0.2166 0.6324 0.6573
H7B H 0.3676 0.5842 0.6573
C11A C 0.18265(16) 0.59681(23) 0.4998(4)
C11B C 0.40319(23) 0.58584(16) 0.4998(4)
C12A C 0.17249(15) 0.60694(24) 0.3827(4)
C12B C 0.39306(24) 0.56555(19) 0.3827(4)
H8A H 0.1552 0.5794 0.3284
H8B H 0.4206 0.5758 0.3284
C13A C 0.16277(16) 0.54210(24) 0.5357(5)
C13B C 0.45790(24) 0.62067(18) 0.5357(5)
H9A H 0.1523 0.5169 0.4752
H9B H 0.4831 0.6354 0.4752
C14A C 0.1386(2) 0.4717(3) 0.6658(4)
C14B C 0.5283(3) 0.6669(2) 0.6658(4)
H10A H 0.1252 0.4528 0.5894
H10B H 0.5472 0.6724 0.5894
C15A C 0.1842(2) 0.4648(3) 0.7103(4)
C15B C 0.5352(3) 0.7194(2) 0.7103(4)
H11A H 0.2005 0.4874 0.7809
H11B H 0.5126 0.7131 0.7809
C16A C 0.2684(2) 0.51728(26) 0.6328(4)
C16B C 0.48272(26) 0.75112(16) 0.6328(4)
H12A H 0.2754 0.5332 0.7085
H12B H 0.4668 0.7422 0.7085
C17A C 0.1242(2) 0.6390(3) -0.1807(5)
C17B C 0.3610(3) 0.4852(2) -0.1807(5)
C18A C 0.1408(2) 0.6896(4) -0.2143(6)
C18B C 0.3104(4) 0.4512(3) -0.2143(6)
H13A H 0.1652 0.7172 -0.1672
H13B H 0.2828 0.4480 -0.1672
C19A C 0.1207(4) 0.6998(6) -0.3208(10)
C19B C 0.3002(6) 0.4209(4) -0.3208(10)
H14A H 0.1332 0.7340 -0.3474
H14B H 0.2660 0.3992 -0.3474
C20A C 0.0830(5) 0.6589(7) -0.3830(13)
C20B C 0.3411(7) 0.4241(5) -0.3830(13)
H15A H 0.0682 0.6657 -0.4501
H15B H 0.3343 0.4025 -0.4501
C21A C 0.0656(4) 0.6076(6) -0.3513(9)
C21B C 0.3924(6) 0.4580(5) -0.3513(9)
H16A H 0.0398 0.5801 -0.3963
H16B H 0.4199 0.4597 -0.3963
C22A C 0.0876(3) 0.5982(4) -0.2507(6)
C22B C 0.4018(4) 0.4894(3) -0.2507(6)
H17A H 0.0776 0.5639 -0.2298
H17B H 0.4361 0.5137 -0.2298
C23A C 0.06673(18) 0.62153(27) 0.0403(4)
C23B C 0.37847(27) 0.4452(2) 0.0403(4)
C24A C 0.0436(2) 0.6499(3) 0.0063(4)
C24B C 0.3501(3) 0.3937(2) 0.0063(4)
H18A H 0.0644 0.6856 -0.0077
H18B H 0.3144 0.3788 -0.0077
C25A C -0.0090(3) 0.6270(4) -0.0076(5)
C25B C 0.3730(4) 0.3640(3) -0.0076(5)
H19A H -0.0238 0.6473 -0.0292
H19B H 0.3527 0.3289 -0.0292
C26A C -0.0403(3) 0.5749(5) 0.0096(6)
C26B C 0.4251(5) 0.3848(4) 0.0096(6)
H20A H -0.0761 0.5591 -0.0043
H20B H 0.4409 0.3648 -0.0043
C27A C -0.0188(3) 0.5459(5) 0.0475(7)
C27B C 0.4541(5) 0.4353(4) 0.0475(7)
H21A H -0.0401 0.5104 0.0629
H21B H 0.4896 0.4495 0.0629
C28A C 0.0355(2) 0.5697(3) 0.0632(5)
C28B C 0.4303(3) 0.4658(2) 0.0632(5)
H22A H 0.0502 0.5499 0.0894
H22B H 0.4501 0.5003 0.0894
C29A C 0.0943(2) 0.4513(3) 0.7588(7)
C29B C 0.5487(3) 0.6430(2) 0.7588(7)
C30A C 0.1004(3) 0.4752(4) 0.8654(8)
C30B C 0.5248(4) 0.6252(2) 0.8654(8)
H23A H 0.1321 0.5050 0.8834
H23B H 0.4950 0.6271 0.8834
C31A C 0.0597(5) 0.4561(6) 0.9507(9)
C31B C 0.5439(6) 0.6036(3) 0.9507(9)
H24A H 0.0638 0.4736 1.0234
H24B H 0.5264 0.5902 1.0234
C32A C 0.0146(5) 0.4119(7) 0.9260(13)
C32B C 0.5881(7) 0.6027(5) 0.9260(13)
H25A H -0.0122 0.3982 0.9832
H25B H 0.6018 0.5896 0.9832
C33A C 0.0080(4) 0.3879(7) 0.8213(13)
C33B C 0.6121(7) 0.6201(6) 0.8213(13)
H26A H -0.0237 0.3577 0.8054
H26B H 0.6423 0.6186 0.8054
C34A C 0.0475(3) 0.4066(4) 0.7333(7)
C34B C 0.5934(4) 0.6409(3) 0.7333(7)
H27A H 0.0423 0.3893 0.6597
H27B H 0.6107 0.6530 0.6597
C35A C 0.1663(2) 0.4090(3) 0.7442(6)
C35B C 0.5910(3) 0.7573(2) 0.7442(6)
C36A C 0.1625(3) 0.3953(4) 0.8629(7)
C36B C 0.6047(4) 0.7672(3) 0.8629(7)
H28A H 0.1705 0.4207 0.9218
H28B H 0.5793 0.7498 0.9218
C37A C 0.1469(5) 0.3441(6) 0.8993(10)
C37B C 0.6559(6) 0.8028(4) 0.8993(10)
H29A H 0.1467 0.3353 0.9802
H29B H 0.6647 0.8114 0.9802
C38A C 0.1317(7) 0.3071(9) 0.8059(17)
C38B C 0.6929(9) 0.8246(6) 0.8059(17)
H30A H 0.1182 0.2721 0.8272
H30B H 0.7279 0.8461 0.8272
C39A C 0.1355(5) 0.3190(7) 0.6890(14)
C39B C 0.6810(7) 0.8165(5) 0.6890(14)
H31A H 0.1275 0.2936 0.6299
H31B H 0.7064 0.8339 0.6299
C40A C 0.1519(3) 0.3711(4) 0.6574(7)
C40B C 0.6289(4) 0.7808(3) 0.6574(7)
H32A H 0.1531 0.3800 0.5762
H32B H 0.6200 0.7731 0.5762
loop_
_geom_bond_atom_site_label_1
_geom_bond_atom_site_label_2
_geom_bond_site_symmetry_1
_geom_bond_site_symmetry_2
N1 C3 1_555 1_555
N2 C5 1_555 1_555
N3 C13 1_555 1_555
N4 C15 1_555 1_555
C1 H1 1_555 1_555
C2 C1 1_555 1_555
C3 C2 1_555 1_555
H2 C3 1_555 1_555
C4 N1 1_555 1_555
H3 C4 1_555 1_555
C5 C4 1_555 1_555
H4 C5 1_555 1_555
C6 N2 1_555 1_555
H5 C6 1_555 1_555
C7 C6 1_555 1_555
C8 C7 1_555 1_555
H6 C8 1_555 1_555
C9 C8 1_555 1_555
C10 C9 1_555 1_555
H7 C10 1_555 1_555
C11 C10 1_555 1_555
C12 C7 1_555 1_555
H8 C12 1_555 1_555
C13 C11 1_555 1_555
H9 C13 1_555 1_555
C14 N3 1_555 1_555
H10 C14 1_555 1_555
C15 C14 1_555 1_555
H11 C15 1_555 1_555
C16 N4 1_555 1_555
H12 C16 1_555 1_555
C17 C4 1_555 1_555
C18 C17 1_555 1_555
H13 C18 1_555 1_555
C19 C18 1_555 1_555
H14 C19 1_555 1_555
C20 C19 1_555 1_555
H15 C20 1_555 1_555
C21 C20 1_555 1_555
H16 C21 1_555 1_555
C22 C17 1_555 1_555
H17 C22 1_555 1_555
C23 C5 1_555 1_555
C24 C23 1_555 1_555
H18 C24 1_555 1_555
C25 C24 1_555 1_555
H19 C25 1_555 1_555
C26 C25 1_555 1_555
H20 C26 1_555 1_555
C27 C26 1_555 1_555
H21 C27 1_555 1_555
C28 C23 1_555 1_555
H22 C28 1_555 1_555
C29 C14 1_555 1_555
C30 C29 1_555 1_555
H23 C30 1_555 1_555
C31 C30 1_555 1_555
H24 C31 1_555 1_555
C32 C31 1_555 1_555
H25 C32 1_555 1_555
C33 C32 1_555 1_555
H26 C33 1_555 1_555
C34 C29 1_555 1_555
H27 C34 1_555 1_555
C35 C15 1_555 1_555
C36 C35 1_555 1_555
H28 C36 1_555 1_555
C37 C36 1_555 1_555
H29 C37 1_555 1_555
C38 C37 1_555 1_555
H30 C38 1_555 1_555
C39 C38 1_555 1_555
H31 C39 1_555 1_555
C40 C35 1_555 1_555
H32 C40 1_555 1_555
N1A C3A 1_555 1_555
N1B C3B 1_555 1_555
N2A C5A 1_555 1_555
N2B C5B 1_555 1_555
N3A C13A 1_555 1_555
N3B C13B 1_555 1_555
N4A C15A 1_555 1_555
N4B C15B 1_555 1_555
C1A C2 1_555 1_555
C1B H1B 1_555 1_555
H1A C1A 1_555 1_555
C2A C1A 1_555 1_555
C2B C1 1_555 1_555
C3A C2A 1_555 1_555
C3B C2B 1_555 1_555
H2A C3A 1_555 1_555
H2B C3B 1_555 1_555
C4A N1A 1_555 1_555
C4B N1B 1_555 1_555
H3A C4A 1_555 1_555
H3B C4B 1_555 1_555
C5A C4A 1_555 1_555
C5B C4B 1_555 1_555
H4A C5A 1_555 1_555
H4B C5B 1_555 1_555
C6A N2A 1_555 1_555
C6B N2B 1_555 1_555
H5A C6A 1_555 1_555
H5B C6B 1_555 1_555
C7A C6A 1_555 1_555
C7B C6B 1_555 1_555
C8A C7A 1_555 1_555
C8B C7B 1_555 1_555
H6A C8A 1_555 1_555
H6B C8B 1_555 1_555
C9A C16 1_555 1_555
C9B C8B 1_555 1_555
C10A C9A 1_555 1_555
C10B C9B 1_555 1_555
H7A C10A 1_555 1_555
H7B C10B 1_555 1_555
C11A C10A 1_555 1_555
C11B C10B 1_555 1_555
C12A C7A 1_555 1_555
C12B C7B 1_555 1_555
H8A C12A 1_555 1_555
H8B C12B 1_555 1_555
C13A C11A 1_555 1_555
C13B C11B 1_555 1_555
H9A C13A 1_555 1_555
H9B C13B 1_555 1_555
C14A N3A 1_555 1_555
C14B N3B 1_555 1_555
H10A C14A 1_555 1_555
H10B C14B 1_555 1_555
C15A C14A 1_555 1_555
C15B C14B 1_555 1_555
H11A C15A 1_555 1_555
H11B C15B 1_555 1_555
C16A N4A 1_555 1_555
C16B C9 1_555 1_555
H12A C16A 1_555 1_555
H12B C16B 1_555 1_555
C17A C4A 1_555 1_555
C17B C4B 1_555 1_555
C18A C17A 1_555 1_555
C18B C17B 1_555 1_555
H13A C18A 1_555 1_555
H13B C18B 1_555 1_555
C19A C18A 1_555 1_555
C19B C18B 1_555 1_555
H14A C19A 1_555 1_555
H14B C19B 1_555 1_555
C20A C19A 1_555 1_555
C20B C19B 1_555 1_555
H15A C20A 1_555 1_555
H15B C20B 1_555 1_555
C21A C20A 1_555 1_555
C21B C20B 1_555 1_555
H16A C21A 1_555 1_555
H16B C21B 1_555 1_555
C22A C17A 1_555 1_555
C22B C17B 1_555 1_555
H17A C22A 1_555 1_555
H17B C22B 1_555 1_555
C23A C5A 1_555 1_555
C23B C5B 1_555 1_555
C24A C23A 1_555 1_555
C24B C23B 1_555 1_555
H18A C24A 1_555 1_555
H18B C24B 1_555 1_555
C25A C24A 1_555 1_555
C25B C24B 1_555 1_555
H19A C25A 1_555 1_555
H19B C25B 1_555 1_555
C26A C25A 1_555 1_555
C26B C25B 1_555 1_555
H20A C26A 1_555 1_555
H20B C26B 1_555 1_555
C27A C26A 1_555 1_555
C27B C26B 1_555 1_555
H21A C27A 1_555 1_555
H21B C27B 1_555 1_555
C28A C23A 1_555 1_555
C28B C23B 1_555 1_555
H22A C28A 1_555 1_555
H22B C28B 1_555 1_555
C29A C14A 1_555 1_555
C29B C14B 1_555 1_555
C30A C29A 1_555 1_555
C30B C29B 1_555 1_555
H23A C30A 1_555 1_555
H23B C30B 1_555 1_555
C31A C30A 1_555 1_555
C31B C30B 1_555 1_555
H24A C31A 1_555 1_555
H24B C31B 1_555 1_555
C32A C31A 1_555 1_555
C32B C31B 1_555 1_555
H25A C32A 1_555 1_555
H25B C32B 1_555 1_555
C33A C32A 1_555 1_555
C33B C32B 1_555 1_555
H26A C33A 1_555 1_555
H26B C33B 1_555 1_555
C34A C29A 1_555 1_555
C34B C29B 1_555 1_555
H27A C34A 1_555 1_555
H27B C34B 1_555 1_555
C35A C15A 1_555 1_555
C35B C15B 1_555 1_555
C36A C35A 1_555 1_555
C36B C35B 1_555 1_555
H28A C36A 1_555 1_555
H28B C36B 1_555 1_555
C37A C36A 1_555 1_555
C37B C36B 1_555 1_555
H29A C37A 1_555 1_555
H29B C37B 1_555 1_555
C38A C37A 1_555 1_555
C38B C37B 1_555 1_555
H30A C38A 1_555 1_555
H30B C38B 1_555 1_555
C39A C38A 1_555 1_555
C39B C38B 1_555 1_555
H31A C39A 1_555 1_555
H31B C39B 1_555 1_555
C40A C35A 1_555 1_555
C40B C35B 1_555 1_555
H32A C40A 1_555 1_555
H32B C40B 1_555 1_555
C11 C12 1_555 1_555
C21 C22 1_555 1_555
C27 C28 1_555 1_555
C33 C34 1_555 1_555
C39 C40 1_555 1_555
N4B C16B 1_555 1_555
C1B C2A 1_555 1_555
C1B C2B 1_555 1_555
C8A C9A 1_555 1_555
C9B C16A 1_555 1_555
C11A C12A 1_555 1_555
C11B C12B 1_555 1_555
C21A C22A 1_555 1_555
C21B C22B 1_555 1_555
C27A C28A 1_555 1_555
C27B C28B 1_555 1_555
C33A C34A 1_555 1_555
C33B C34B 1_555 1_555
C39A C40A 1_555 1_555
C39B C40B 1_555 1_555

#END
