
#######################################################################
#
#                 Cambridge Crystallographic Data Centre
#                                CCDC 
#
#######################################################################
#
# If this CIF has been generated from an entry in the Cambridge 
# Structural Database, then it will include bibliographic, chemical, 
# crystal, experimental, refinement or atomic coordinate data resulting 
# from the CCDC's data processing and validation procedures.
#
#######################################################################

data_GANDUW
_chemical_formula_moiety         'C120 H84 F12 N12,0.5(N2)'
_chemical_name_systematic        
'6,7,17,18,28,29,39,40,47,48,55,56-dodecakis(4-fluorophenyl)-5,8,16,19,27,30,38,41,46,49,54,57-dodecaazaheptacyclo[21.21.6.6^12,34^.1^3,43^.1^10,14^.1^21,25^.1^32,36^]hexaconta-1,3(51),4,8,10(60),11,13,15,19,21(59),22,24,26,30,32(52),33,35,37,41,43,45,49,53,57-tetracosaene dinitrogen'
_symmetry_cell_setting           rhombohedral
_symmetry_space_group_name_H-M   'R 3 2'
_symmetry_Int_Tables_number      155
_space_group_name_Hall           'R 3 2"'
loop_
_symmetry_equiv_pos_site_id
_symmetry_equiv_pos_as_xyz
1 x,y,z
2 -y,x-y,z
3 -x+y,-x,z
4 y,x,-z
5 x-y,-y,-z
6 -x,-x+y,-z
7 2/3+x,1/3+y,1/3+z
8 2/3-y,1/3+x-y,1/3+z
9 2/3-x+y,1/3-x,1/3+z
10 2/3+y,1/3+x,1/3-z
11 2/3+x-y,1/3-y,1/3-z
12 2/3-x,1/3-x+y,1/3-z
13 1/3+x,2/3+y,2/3+z
14 1/3-y,2/3+x-y,2/3+z
15 1/3-x+y,2/3-x,2/3+z
16 1/3+y,2/3+x,2/3-z
17 1/3+x-y,2/3-y,2/3-z
18 1/3-x,2/3-x+y,2/3-z
_cell_length_a                   30.128(5)
_cell_length_b                   30.128(5)
_cell_length_c                   20.746(4)
_cell_angle_alpha                90
_cell_angle_beta                 90
_cell_angle_gamma                120
_cell_volume                     16308.2
_exptl_crystal_colour            colorless
_exptl_crystal_description       plate
_cell_formula_units_Z            6
loop_
_atom_site_label
_atom_site_type_symbol
_atom_site_fract_x
_atom_site_fract_y
_atom_site_fract_z
N1 N 0.7374(4) 0.4737(3) 0.7808(3)
N2 N 0.7862(4) 0.5430(3) 0.6818(3)
N3 N 0.6374(4) 0.4816(3) 0.4381(3)
N4 N 0.5461(4) 0.3817(3) 0.4335(3)
F1 F 0.7728(4) 0.5708(2) 1.0541(2)
F2 F 0.9664(4) 0.7480(2) 0.7981(3)
F3 F 0.5961(4) 0.6491(3) 0.3230(4)
F4 F 0.3691(4) 0.3856(3) 0.2909(5)
C1 C 0.7177(6) 0.3471(4) 0.7512(3)
H1 H 0.7529 0.3565 0.7522
C2 C 0.7041(6) 0.3843(3) 0.7506(3)
C3 C 0.7453(4) 0.4379(3) 0.7611(3)
H2 H 0.7796 0.4462 0.7528
C4 C 0.7821(4) 0.5232(3) 0.7942(3)
H3 H 0.8136 0.5204 0.7887
C5 C 0.7838(5) 0.5630(3) 0.7451(3)
H4 H 0.7526 0.5664 0.7489
C6 C 0.7488(5) 0.5288(3) 0.6451(4)
H5 H 0.7211 0.5333 0.6583
C7 C 0.7460(6) 0.5046(4) 0.5802(4)
C8 C 0.7841(5) 0.4922(3) 0.5669(4)
H6 H 0.8094 0.4977 0.5982
C9 C 0.7840(5) 0.4714(3) 0.5059(4)
C10 C 0.7444(5) 0.4617(3) 0.4642(4)
H7 H 0.7438 0.4468 0.4236
C11 C 0.7062(6) 0.4717(4) 0.4770(4)
C12 C 0.7072(5) 0.4939(3) 0.5373(4)
H8 H 0.6810 0.5014 0.5483
C13 C 0.6659(6) 0.4633(4) 0.4318(4)
H9 H 0.6612 0.4425 0.3951
C14 C 0.5970(6) 0.4701(4) 0.3913(4)
H10 H 0.6032 0.4547 0.3520
C15 C 0.5457(6) 0.4294(4) 0.4232(4)
H11 H 0.5430 0.4429 0.4662
C16 C 0.8279(5) 0.4645(4) 0.4904(4)
H12 H 0.8510 0.4680 0.5237
C17 C 0.7800(5) 0.5390(3) 0.8632(4)
C18 C 0.7340(5) 0.5294(3) 0.8898(4)
H13 H 0.7038 0.5151 0.8641
C19 C 0.7319(6) 0.5408(4) 0.9554(5)
H14 H 0.7004 0.5343 0.9743
C20 C 0.7738(6) 0.5604(4) 0.9897(4)
C21 C 0.8204(6) 0.5712(4) 0.9658(5)
H15 H 0.8503 0.5868 0.9918
C22 C 0.8223(5) 0.5586(3) 0.9026(4)
H16 H 0.8538 0.5636 0.8857
C23 C 0.8319(6) 0.6139(4) 0.7558(4)
C24 C 0.8309(5) 0.6542(3) 0.7865(4)
H17 H 0.7989 0.6507 0.7984
C25 C 0.8759(6) 0.7000(4) 0.8004(5)
H18 H 0.8746 0.7277 0.8203
C26 C 0.9206(6) 0.7037(4) 0.7851(6)
C27 C 0.9252(6) 0.6667(4) 0.7538(4)
H19 H 0.9576 0.6711 0.7423
C28 C 0.8791(6) 0.6211(4) 0.7391(4)
H20 H 0.8810 0.5945 0.7170
C29 C 0.5965(6) 0.5187(4) 0.3719(5)
C30 C 0.5941(6) 0.5292(4) 0.3096(5)
H21 H 0.5926 0.5061 0.2774
C31 C 0.5938(7) 0.5739(5) 0.2913(7)
H22 H 0.5914 0.5811 0.2473
C32 C 0.5971(8) 0.6054(6) 0.3370(9)
C33 C 0.5977(7) 0.5961(5) 0.4023(7)
H23 H 0.5976 0.6186 0.4343
C34 C 0.5983(6) 0.5514(5) 0.4177(6)
H24 H 0.6001 0.5438 0.4617
C35 C 0.5005(6) 0.4190(4) 0.3853(5)
C36 C 0.4930(6) 0.4000(4) 0.3241(5)
H25 H 0.5184 0.3945 0.3048
C37 C 0.4491(6) 0.3886(4) 0.2894(6)
H26 H 0.4444 0.3763 0.2463
C38 C 0.4128(9) 0.3960(5) 0.3203(9)
C39 C 0.4185(8) 0.4125(6) 0.3840(8)
H27 H 0.3916 0.4149 0.4045
C40 C 0.4626(6) 0.4253(4) 0.4177(6)
H28 H 0.4674 0.4377 0.4607
N1A N 0.5263(3) 0.2637(5) 0.7808(3)
N1B N 0.7363(5) 0.2626(4) 0.7808(3)
N2A N 0.4570(3) 0.2432(5) 0.6818(3)
N2B N 0.7568(5) 0.2138(4) 0.6818(3)
N3A N 0.5184(3) 0.1558(5) 0.4381(3)
N3B N 0.8442(5) 0.3626(4) 0.4381(3)
N4A N 0.6183(3) 0.1644(5) 0.4335(3)
N4B N 0.8356(5) 0.4539(4) 0.4335(3)
F1B F 0.7980(4) 0.2272(4) 1.0541(2)
F1A F 0.4292(2) 0.2020(4) 1.0541(2)
F2B F 0.7816(4) 0.0336(4) 0.7981(3)
F2A F 0.2520(2) 0.2184(4) 0.7981(3)
F3B F 1.0530(5) 0.4039(4) 0.3230(4)
F3A F 0.3509(3) -0.0530(5) 0.3230(4)
F4B F 1.0165(5) 0.6309(4) 0.2909(5)
F4A F 0.6144(3) -0.0165(5) 0.2909(5)
C1B C 0.6294(7) 0.2823(6) 0.7512(3)
C1A C 0.6529(4) 0.3706(7) 0.7512(3)
H1B H 0.6036 0.2471 0.7522
H1A H 0.6435 0.3964 0.7522
C2B C 0.6802(7) 0.2959(6) 0.7506(3)
C2A C 0.6157(3) 0.3198(7) 0.7506(3)
C3A C 0.5621(3) 0.3074(5) 0.7611(3)
C3B C 0.6926(5) 0.2547(4) 0.7611(3)
H2B H 0.6666 0.2204 0.7528
H2A H 0.5538 0.3334 0.7528
C4A C 0.4768(3) 0.2589(5) 0.7942(3)
C4B C 0.7411(5) 0.2179(4) 0.7942(3)
H3A H 0.4796 0.2932 0.7887
H3B H 0.7068 0.1864 0.7887
C5A C 0.4370(3) 0.2208(6) 0.7451(3)
C5B C 0.7792(6) 0.2162(5) 0.7451(3)
H4B H 0.8138 0.2474 0.7489
H4A H 0.4336 0.1862 0.7489
C6A C 0.4712(3) 0.2200(6) 0.6451(4)
C6B C 0.7800(6) 0.2512(5) 0.6451(4)
H5A H 0.4667 0.1878 0.6583
H5B H 0.8122 0.2789 0.6583
C7A C 0.4954(4) 0.2414(7) 0.5802(4)
C7B C 0.7586(7) 0.2540(6) 0.5802(4)
C8A C 0.5078(3) 0.2919(6) 0.5669(4)
C8B C 0.7081(6) 0.2159(5) 0.5669(4)
H6A H 0.5023 0.3117 0.5982
H6B H 0.6883 0.1906 0.5982
C9A C 0.5286(3) 0.3126(6) 0.5059(4)
C9B C 0.6874(6) 0.2160(5) 0.5059(4)
C10A C 0.5383(3) 0.2827(6) 0.4642(4)
C10B C 0.7173(6) 0.2556(5) 0.4642(4)
H7A H 0.5532 0.2970 0.4236
H7B H 0.7030 0.2562 0.4236
C11A C 0.5283(4) 0.2345(7) 0.4770(4)
C11B C 0.7655(7) 0.2938(6) 0.4770(4)
C12A C 0.5061(3) 0.2133(6) 0.5373(4)
C12B C 0.7867(6) 0.2928(5) 0.5373(4)
H8A H 0.4986 0.1796 0.5483
H8B H 0.8204 0.3190 0.5483
C13A C 0.5367(4) 0.2026(7) 0.4318(4)
C13B C 0.7974(7) 0.3341(6) 0.4318(4)
H9B H 0.7813 0.3388 0.3951
H9A H 0.5575 0.2187 0.3951
C14A C 0.5299(4) 0.1269(7) 0.3913(4)
C14B C 0.8731(7) 0.4030(6) 0.3913(4)
H10A H 0.5453 0.1485 0.3520
H10B H 0.8515 0.3968 0.3520
C15A C 0.5706(4) 0.1163(7) 0.4232(4)
C15B C 0.8837(7) 0.4543(6) 0.4232(4)
H11B H 0.8999 0.4570 0.4662
H11A H 0.5571 0.1001 0.4662
C16B C 0.6366(6) 0.1721(5) 0.4904(4)
C16A C 0.5355(4) 0.3634(6) 0.4904(4)
H12A H 0.5320 0.3830 0.5237
H12B H 0.6170 0.1490 0.5237
C17B C 0.7590(6) 0.2200(5) 0.8632(4)
C17A C 0.4610(3) 0.2410(6) 0.8632(4)
C18B C 0.7954(6) 0.2660(5) 0.8898(4)
C18A C 0.4706(3) 0.2046(6) 0.8898(4)
H13B H 0.8113 0.2962 0.8641
H13A H 0.4849 0.1887 0.8641
C19B C 0.8089(7) 0.2681(6) 0.9554(5)
C19A C 0.4592(4) 0.1911(7) 0.9554(5)
H14B H 0.8339 0.2996 0.9743
H14A H 0.4657 0.1661 0.9743
C20B C 0.7866(7) 0.2262(6) 0.9897(4)
C20A C 0.4396(4) 0.2134(7) 0.9897(4)
C21B C 0.7508(7) 0.1796(6) 0.9658(5)
C21A C 0.4288(4) 0.2492(7) 0.9658(5)
H15B H 0.7365 0.1497 0.9918
H15A H 0.4132 0.2635 0.9918
C22B C 0.7363(6) 0.1777(5) 0.9026(4)
C22A C 0.4414(3) 0.2637(6) 0.9026(4)
H16B H 0.7098 0.1462 0.8857
H16A H 0.4364 0.2902 0.8857
C23B C 0.7820(7) 0.1681(6) 0.7558(4)
C23A C 0.3861(4) 0.2180(7) 0.7558(4)
C24B C 0.8233(6) 0.1691(5) 0.7865(4)
C24A C 0.3458(3) 0.1767(6) 0.7865(4)
H17B H 0.8518 0.2011 0.7984
H17A H 0.3493 0.1482 0.7984
C25B C 0.8241(7) 0.1241(6) 0.8004(5)
C25A C 0.3000(4) 0.1759(7) 0.8004(5)
H18B H 0.8531 0.1254 0.8203
H18A H 0.2723 0.1469 0.8203
C26B C 0.7831(7) 0.0794(6) 0.7851(6)
C26A C 0.2963(4) 0.2169(7) 0.7851(6)
C27B C 0.7415(7) 0.0748(6) 0.7538(4)
C27A C 0.3333(4) 0.2585(7) 0.7538(4)
H19B H 0.7135 0.0424 0.7423
H19A H 0.3289 0.2865 0.7423
C28B C 0.7420(7) 0.1209(6) 0.7391(4)
C28A C 0.3789(4) 0.2580(7) 0.7391(4)
H20B H 0.7135 0.1190 0.7170
H20A H 0.4055 0.2865 0.7170
C29B C 0.9222(7) 0.4035(6) 0.3719(5)
C29A C 0.4813(4) 0.0778(7) 0.3719(5)
C30B C 0.9351(7) 0.4059(6) 0.3096(5)
C30A C 0.4708(4) 0.0649(7) 0.3096(5)
H21B H 0.9135 0.4074 0.2774
H21A H 0.4939 0.0865 0.2774
C31B C 0.9801(9) 0.4062(7) 0.2913(7)
C31A C 0.4261(5) 0.0199(9) 0.2913(7)
H22B H 0.9897 0.4086 0.2473
H22A H 0.4189 0.0103 0.2473
C32B C 1.0083(10) 0.4029(8) 0.3370(9)
C32A C 0.3946(6) -0.0083(10) 0.3370(9)
C33B C 0.9984(9) 0.4023(7) 0.4023(7)
C33A C 0.4039(5) 0.0016(9) 0.4023(7)
H23B H 1.0210 0.4024 0.4343
H23A H 0.3814 -0.0210 0.4343
C34B C 0.9531(8) 0.4017(6) 0.4177(6)
C34A C 0.4486(5) 0.0469(8) 0.4177(6)
H24B H 0.9437 0.3999 0.4617
H24A H 0.4562 0.0563 0.4617
C35B C 0.9185(7) 0.4995(6) 0.3853(5)
C35A C 0.5810(4) 0.0815(7) 0.3853(5)
C36B C 0.9070(7) 0.5070(6) 0.3241(5)
C36A C 0.6000(4) 0.0930(7) 0.3241(5)
H25B H 0.8761 0.4816 0.3048
H25A H 0.6055 0.1239 0.3048
C37B C 0.9395(7) 0.5509(6) 0.2894(6)
C37A C 0.6114(4) 0.0605(7) 0.2894(6)
H26B H 0.9319 0.5556 0.2463
H26A H 0.6237 0.0681 0.2463
C38B C 0.9832(10) 0.5872(9) 0.3203(9)
C38A C 0.6040(5) 0.0168(10) 0.3203(9)
C39B C 0.9940(10) 0.5815(8) 0.3840(8)
C39A C 0.5875(6) 0.0060(10) 0.3840(8)
H27B H 1.0233 0.6084 0.4045
H27A H 0.5851 -0.0233 0.4045
C40B C 0.9627(7) 0.5374(6) 0.4177(6)
C40A C 0.5747(4) 0.0373(7) 0.4177(6)
H28B H 0.9703 0.5326 0.4607
H28A H 0.5623 0.0297 0.4607
N5? N 0.6869(10) 0.341(2) 0.5731(8)
loop_
_geom_bond_atom_site_label_1
_geom_bond_atom_site_label_2
_geom_bond_site_symmetry_1
_geom_bond_site_symmetry_2
N1 C3 1_555 1_555
N2 C5 1_555 1_555
N3 C13 1_555 1_555
N4 C15 1_555 1_555
F1 C20 1_555 1_555
F2 C26 1_555 1_555
F3 C32 1_555 1_555
F4 C38 1_555 1_555
C1 H1 1_555 1_555
C2 C1 1_555 1_555
C3 C2 1_555 1_555
H2 C3 1_555 1_555
C4 N1 1_555 1_555
H3 C4 1_555 1_555
C5 C4 1_555 1_555
H4 C5 1_555 1_555
C6 N2 1_555 1_555
H5 C6 1_555 1_555
C7 C6 1_555 1_555
C8 C7 1_555 1_555
H6 C8 1_555 1_555
C9 C8 1_555 1_555
C10 C9 1_555 1_555
H7 C10 1_555 1_555
C11 C10 1_555 1_555
C12 C7 1_555 1_555
H8 C12 1_555 1_555
C13 C11 1_555 1_555
H9 C13 1_555 1_555
C14 N3 1_555 1_555
H10 C14 1_555 1_555
C15 C14 1_555 1_555
H11 C15 1_555 1_555
C16 C9 1_555 1_555
H12 C16 1_555 1_555
C17 C4 1_555 1_555
C18 C17 1_555 1_555
H13 C18 1_555 1_555
C19 C18 1_555 1_555
H14 C19 1_555 1_555
C20 C19 1_555 1_555
C21 C20 1_555 1_555
H15 C21 1_555 1_555
C22 C17 1_555 1_555
H16 C22 1_555 1_555
C23 C5 1_555 1_555
C24 C23 1_555 1_555
H17 C24 1_555 1_555
C25 C24 1_555 1_555
H18 C25 1_555 1_555
C26 C25 1_555 1_555
C27 C26 1_555 1_555
H19 C27 1_555 1_555
C28 C23 1_555 1_555
H20 C28 1_555 1_555
C29 C14 1_555 1_555
C30 C29 1_555 1_555
H21 C30 1_555 1_555
C31 C30 1_555 1_555
H22 C31 1_555 1_555
C32 C31 1_555 1_555
C33 C32 1_555 1_555
H23 C33 1_555 1_555
C34 C29 1_555 1_555
H24 C34 1_555 1_555
C35 C15 1_555 1_555
C36 C35 1_555 1_555
H25 C36 1_555 1_555
C37 C36 1_555 1_555
H26 C37 1_555 1_555
C38 C37 1_555 1_555
C39 C38 1_555 1_555
H27 C39 1_555 1_555
C40 C35 1_555 1_555
H28 C40 1_555 1_555
N1A C3A 1_555 1_555
N1B C3B 1_555 1_555
N2A C5A 1_555 1_555
N2B C5B 1_555 1_555
N3A C13A 1_555 1_555
N3B C13B 1_555 1_555
N4A C15A 1_555 1_555
N4B C16 1_555 1_555
F1B C20B 1_555 1_555
F1A C20A 1_555 1_555
F2B C26B 1_555 1_555
F2A C26A 1_555 1_555
F3B C32B 1_555 1_555
F3A C32A 1_555 1_555
F4B C38B 1_555 1_555
F4A C38A 1_555 1_555
C1B H1B 1_555 1_555
C1A C2 1_555 1_555
H1A C1A 1_555 1_555
C2B C1 1_555 1_555
C2A C1B 1_555 1_555
C3A C2A 1_555 1_555
C3B C2B 1_555 1_555
H2B C3B 1_555 1_555
H2A C3A 1_555 1_555
C4A N1A 1_555 1_555
C4B N1B 1_555 1_555
H3A C4A 1_555 1_555
H3B C4B 1_555 1_555
C5A C4A 1_555 1_555
C5B C4B 1_555 1_555
H4B C5B 1_555 1_555
H4A C5A 1_555 1_555
C6A N2A 1_555 1_555
C6B N2B 1_555 1_555
H5A C6A 1_555 1_555
H5B C6B 1_555 1_555
C7A C6A 1_555 1_555
C7B C6B 1_555 1_555
C8A C7A 1_555 1_555
C8B C7B 1_555 1_555
H6A C8A 1_555 1_555
H6B C8B 1_555 1_555
C9A C8A 1_555 1_555
C9B C8B 1_555 1_555
C10A C9A 1_555 1_555
C10B C9B 1_555 1_555
H7A C10A 1_555 1_555
H7B C10B 1_555 1_555
C11A C10A 1_555 1_555
C11B C10B 1_555 1_555
C12A C7A 1_555 1_555
C12B C7B 1_555 1_555
H8A C12A 1_555 1_555
H8B C12B 1_555 1_555
C13A C11A 1_555 1_555
C13B C11B 1_555 1_555
H9B C13B 1_555 1_555
H9A C13A 1_555 1_555
C14A N3A 1_555 1_555
C14B N3B 1_555 1_555
H10A C14A 1_555 1_555
H10B C14B 1_555 1_555
C15A C14A 1_555 1_555
C15B N4B 1_555 1_555
H11B C15B 1_555 1_555
H11A C15A 1_555 1_555
C16B N4A 1_555 1_555
C16A N4 1_555 1_555
H12A C16A 1_555 1_555
H12B C16B 1_555 1_555
C17B C4B 1_555 1_555
C17A C4A 1_555 1_555
C18B C17B 1_555 1_555
C18A C17A 1_555 1_555
H13B C18B 1_555 1_555
H13A C18A 1_555 1_555
C19B C18B 1_555 1_555
C19A C18A 1_555 1_555
H14B C19B 1_555 1_555
H14A C19A 1_555 1_555
C20B C19B 1_555 1_555
C20A C19A 1_555 1_555
C21B C20B 1_555 1_555
C21A C20A 1_555 1_555
H15B C21B 1_555 1_555
H15A C21A 1_555 1_555
C22B C17B 1_555 1_555
C22A C17A 1_555 1_555
H16B C22B 1_555 1_555
H16A C22A 1_555 1_555
C23B C5B 1_555 1_555
C23A C5A 1_555 1_555
C24B C23B 1_555 1_555
C24A C23A 1_555 1_555
H17B C24B 1_555 1_555
H17A C24A 1_555 1_555
C25B C24B 1_555 1_555
C25A C24A 1_555 1_555
H18B C25B 1_555 1_555
H18A C25A 1_555 1_555
C26B C25B 1_555 1_555
C26A C25A 1_555 1_555
C27B C26B 1_555 1_555
C27A C26A 1_555 1_555
H19B C27B 1_555 1_555
H19A C27A 1_555 1_555
C28B C23B 1_555 1_555
C28A C23A 1_555 1_555
H20B C28B 1_555 1_555
H20A C28A 1_555 1_555
C29B C14B 1_555 1_555
C29A C14A 1_555 1_555
C30B C29B 1_555 1_555
C30A C29A 1_555 1_555
H21B C30B 1_555 1_555
H21A C30A 1_555 1_555
C31B C30B 1_555 1_555
C31A C30A 1_555 1_555
H22B C31B 1_555 1_555
H22A C31A 1_555 1_555
C32B C31B 1_555 1_555
C32A C31A 1_555 1_555
C33B C32B 1_555 1_555
C33A C32A 1_555 1_555
H23B C33B 1_555 1_555
H23A C33A 1_555 1_555
C34B C29B 1_555 1_555
C34A C29A 1_555 1_555
H24B C34B 1_555 1_555
H24A C34A 1_555 1_555
C35B C15B 1_555 1_555
C35A C15A 1_555 1_555
C36B C35B 1_555 1_555
C36A C35A 1_555 1_555
H25B C36B 1_555 1_555
H25A C36A 1_555 1_555
C37B C36B 1_555 1_555
C37A C36A 1_555 1_555
H26B C37B 1_555 1_555
H26A C37A 1_555 1_555
C38B C37B 1_555 1_555
C38A C37A 1_555 1_555
C39B C38B 1_555 1_555
C39A C38A 1_555 1_555
H27B C39B 1_555 1_555
H27A C39A 1_555 1_555
C40B C35B 1_555 1_555
C40A C35A 1_555 1_555
H28B C40B 1_555 1_555
H28A C40A 1_555 1_555
C11 C12 1_555 1_555
C21 C22 1_555 1_555
C27 C28 1_555 1_555
C33 C34 1_555 1_555
C39 C40 1_555 1_555
C1B C2B 1_555 1_555
C1A C2A 1_555 1_555
C9A C16A 1_555 1_555
C9B C16B 1_555 1_555
C11A C12A 1_555 1_555
C11B C12B 1_555 1_555
C14B C15B 1_555 1_555
C21B C22B 1_555 1_555
C21A C22A 1_555 1_555
C27B C28B 1_555 1_555
C27A C28A 1_555 1_555
C33B C34B 1_555 1_555
C33A C34A 1_555 1_555
C39B C40B 1_555 1_555
C39A C40A 1_555 1_555

#END
