
#######################################################################
#
#                 Cambridge Crystallographic Data Centre
#                                CCDC 
#
#######################################################################
#
# If this CIF has been generated from an entry in the Cambridge 
# Structural Database, then it will include bibliographic, chemical, 
# crystal, experimental, refinement or atomic coordinate data resulting 
# from the CCDC's data processing and validation procedures.
#
#######################################################################

data_GANDEG
_chemical_formula_moiety         'C120 H96 N12,2.5(N2)'
_chemical_name_systematic        
'6,7,17,18,28,29,39,40,47,48,55,56-dodecaphenyl-5,8,16,19,27,30,38,41,46,49,54,57-dodecaazaheptacyclo[21.21.6.6^12,34^.1^3,43^.1^10,14^.1^21,25^.1^32,36^]hexaconta-1,3(51),4,8,10(60),11,13,15,19,21(59),22,24,26,30,32(52),33,35,37,41,43,45,49,53,57-tetracosaene dinitrogen'
_symmetry_cell_setting           rhombohedral
_symmetry_space_group_name_H-M   'R 3'
_symmetry_Int_Tables_number      146
_space_group_name_Hall           'R 3'
loop_
_symmetry_equiv_pos_site_id
_symmetry_equiv_pos_as_xyz
1 x,y,z
2 -y,x-y,z
3 -x+y,-x,z
4 2/3+x,1/3+y,1/3+z
5 2/3-y,1/3+x-y,1/3+z
6 2/3-x+y,1/3-x,1/3+z
7 1/3+x,2/3+y,2/3+z
8 1/3-y,2/3+x-y,2/3+z
9 1/3-x+y,2/3-x,2/3+z
_cell_length_a                   29.175(8)
_cell_length_b                   29.175(8)
_cell_length_c                   10.882(4)
_cell_angle_alpha                90
_cell_angle_beta                 90
_cell_angle_gamma                120
_cell_volume                     8021.6
_exptl_crystal_colour            colorless
_exptl_crystal_description       needle
_cell_formula_units_Z            3
loop_
_atom_site_label
_atom_site_type_symbol
_atom_site_fract_x
_atom_site_fract_y
_atom_site_fract_z
N1 N 0.4548(3) 0.7990(2) -0.0689(5)
N2 N 0.4905(2) 0.8600(2) 0.1549(5)
N3 N 0.3677(3) 0.8424(2) 0.6511(5)
N4 N 0.2572(3) 0.7776(3) 0.6173(6)
C1 C 0.3874(3) 0.6849(3) -0.0537(5)
H1 H 0.4244 0.6977 -0.0535
C2 C 0.3683(3) 0.7207(3) -0.0539(5)
C3 C 0.4061(3) 0.7787(3) -0.0569(6)
H2 H 0.3921 0.8018 -0.0492
C4 C 0.4852(3) 0.8567(3) -0.0697(6)
H3 H 0.4605 0.8710 -0.0645
C5 C 0.5232(3) 0.8764(3) 0.0430(6)
H4 H 0.5462 0.8600 0.0417
C6 C 0.4959(3) 0.8280(3) 0.2258(6)
H5 H 0.5177 0.8141 0.2004
C7 C 0.4691(3) 0.8122(3) 0.3463(6)
C8 C 0.4852(3) 0.7870(2) 0.4287(6)
H6 H 0.5103 0.7771 0.4042
C9 C 0.4645(3) 0.7758(3) 0.5492(6)
C10 C 0.4284(3) 0.7907(3) 0.5839(6)
H7 H 0.4136 0.7825 0.6641
C11 C 0.4135(3) 0.8179(3) 0.5021(6)
C12 C 0.4340(3) 0.8283(2) 0.3819(7)
H8 H 0.4238 0.8463 0.3255
C13 C 0.3786(3) 0.8377(3) 0.5387(7)
H9 H 0.3628 0.8478 0.4757
C14 C 0.3312(5) 0.8634(4) 0.6706(7)
H10 H 0.3253 0.8771 0.5914
C15 C 0.2795(4) 0.8167(4) 0.7160(7)
H11 H 0.2866 0.8006 0.7894
C16 C 0.4833(3) 0.7509(4) 0.6369(6)
H12 H 0.4659 0.7403 0.7141
C17 C 0.5172(5) 0.8762(4) -0.1867(8)
C18 C 0.5508(5) 0.8617(5) -0.2204(11)
H13 H 0.5558 0.8370 -0.1739
C19 C 0.5798(8) 0.8846(8) -0.330(2)
H14 H 0.6034 0.8732 -0.3574
C20 C 0.5765(11) 0.9184(9) -0.3927(16)
H15 H 0.5984 0.9326 -0.4632
C21 C 0.5374(13) 0.9381(7) -0.3581(12)
H16 H 0.5333 0.9632 -0.4050
C22 C 0.5109(6) 0.9162(4) -0.2575(9)
H17 H 0.4866 0.9263 -0.2285
C23 C 0.5571(3) 0.9358(3) 0.0365(6)
C24 C 0.6096(3) 0.9593(3) 0.0050(6)
H18 H 0.6257 0.9382 -0.0055
C25 C 0.6380(4) 1.0110(4) -0.0108(8)
H19 H 0.6739 1.0255 -0.0350
C26 C 0.6196(5) 1.0448(4) 0.0051(9)
H20 H 0.6415 1.0820 -0.0036
C27 C 0.5667(5) 1.0216(4) 0.0347(11)
H21 H 0.5510 1.0432 0.0421
C28 C 0.5357(4) 0.9677(3) 0.0540(9)
H22 H 0.4999 0.9530 0.0791
C29 C 0.3567(5) 0.9079(3) 0.7645(8)
C30 C 0.3758(4) 0.9035(4) 0.8748(9)
H23 H 0.3753 0.8715 0.8948
C31 C 0.3961(4) 0.9447(4) 0.9590(10)
H24 H 0.4080 0.9403 1.0370
C32 C 0.3990(6) 0.9924(5) 0.9293(13)
H25 H 0.4161 1.0220 0.9825
C33 C 0.3768(10) 0.9956(5) 0.8225(13)
H26 H 0.3745 1.0264 0.8064
C34 C 0.3576(8) 0.9557(5) 0.7372(10)
H27 H 0.3450 0.9602 0.6602
C35 C 0.2406(5) 0.8346(5) 0.7504(10)
C36 C 0.2313(5) 0.8388(7) 0.8731(11)
H28 H 0.2520 0.8339 0.9335
C37 C 0.1932(7) 0.8498(11) 0.9095(16)
H29 H 0.1839 0.8481 0.9938
C38 C 0.1685(12) 0.8634(13) 0.821(2)
H30 H 0.1452 0.8755 0.8468
C39 C 0.1763(10) 0.8604(10) 0.6966(18)
H31 H 0.1564 0.8669 0.6370
C40 C 0.2166(7) 0.8467(7) 0.6604(12)
H32 H 0.2254 0.8464 0.5765
N1A N 0.2010(2) 0.6558(4) -0.0689(5)
N1B N 0.3442(4) 0.5452(3) -0.0689(5)
N2A N 0.1400(2) 0.6305(3) 0.1549(5)
N2B N 0.3695(3) 0.5095(2) 0.1549(5)
N3A N 0.1576(2) 0.5253(4) 0.6511(5)
N3B N 0.4747(4) 0.6323(3) 0.6511(5)
N4A N 0.2224(3) 0.4796(4) 0.6173(6)
N4B N 0.5204(4) 0.7428(3) 0.6173(6)
C1B C 0.2975(4) 0.6126(3) -0.0537(5)
C1A C 0.3151(3) 0.7025(4) -0.0537(5)
H1B H 0.2733 0.5756 -0.0535
H1A H 0.3023 0.7267 -0.0535
C2B C 0.3524(4) 0.6317(3) -0.0539(5)
C2A C 0.2793(3) 0.6476(4) -0.0539(5)
C3A C 0.2213(3) 0.6274(4) -0.0569(6)
C3B C 0.3726(4) 0.5939(3) -0.0569(6)
H2B H 0.4097 0.6079 -0.0492
H2A H 0.1982 0.5903 -0.0492
C4A C 0.1433(3) 0.6285(4) -0.0697(6)
C4B C 0.3715(4) 0.5148(3) -0.0697(6)
H3A H 0.1290 0.5895 -0.0645
H3B H 0.4105 0.5395 -0.0645
C5A C 0.1236(3) 0.6468(4) 0.0430(6)
C5B C 0.3532(4) 0.4768(3) 0.0430(6)
H4B H 0.3138 0.4538 0.0417
H4A H 0.1400 0.6862 0.0417
C6A C 0.1720(3) 0.6679(4) 0.2258(6)
C6B C 0.3321(4) 0.5041(3) 0.2258(6)
H5A H 0.1859 0.7036 0.2004
H5B H 0.2964 0.4823 0.2004
C7A C 0.1878(3) 0.6569(4) 0.3463(6)
C7B C 0.3431(4) 0.5309(3) 0.3463(6)
C8A C 0.2130(2) 0.6982(4) 0.4287(6)
C8B C 0.3018(4) 0.5148(3) 0.4287(6)
H6A H 0.2229 0.7332 0.4042
H6B H 0.2668 0.4897 0.4042
C9A C 0.2242(3) 0.6887(4) 0.5492(6)
C9B C 0.3113(4) 0.5355(3) 0.5492(6)
C10A C 0.2093(3) 0.6377(4) 0.5839(6)
C10B C 0.3623(4) 0.5716(3) 0.5839(6)
H7A H 0.2175 0.6311 0.6641
H7B H 0.3689 0.5864 0.6641
C11A C 0.1821(3) 0.5956(4) 0.5021(6)
C11B C 0.4044(4) 0.5865(3) 0.5021(6)
C12A C 0.1717(2) 0.6057(4) 0.3819(7)
C12B C 0.3943(4) 0.5660(3) 0.3819(7)
H8A H 0.1537 0.5775 0.3255
H8B H 0.4225 0.5762 0.3255
C13A C 0.1623(3) 0.5409(4) 0.5387(7)
C13B C 0.4591(4) 0.6214(3) 0.5387(7)
H9B H 0.4850 0.6372 0.4757
H9A H 0.1522 0.5150 0.4757
C14A C 0.1366(4) 0.4678(6) 0.6706(7)
C14B C 0.5322(6) 0.6688(5) 0.6706(7)
H10A H 0.1229 0.4482 0.5914
H10B H 0.5518 0.6747 0.5914
C15A C 0.1833(4) 0.4628(6) 0.7160(7)
C15B C 0.5372(6) 0.7205(4) 0.7160(7)
H11B H 0.5140 0.7134 0.7894
H11A H 0.1994 0.4860 0.7894
C16B C 0.2676(5) 0.5167(3) 0.6369(6)
C16A C 0.2491(4) 0.7324(5) 0.6369(6)
H12A H 0.2597 0.7256 0.7141
H12B H 0.2744 0.5341 0.7141
C17B C 0.3590(6) 0.4828(5) -0.1867(8)
C17A C 0.1238(4) 0.6410(6) -0.1867(8)
C18B C 0.3109(7) 0.4492(5) -0.2204(11)
C18A C 0.1383(5) 0.6891(7) -0.2204(11)
H13B H 0.2812 0.4442 -0.1739
H13A H 0.1630 0.7188 -0.1739
C19B C 0.3048(11) 0.4202(8) -0.330(2)
C19A C 0.1154(8) 0.6952(11) -0.330(2)
H14B H 0.2698 0.3966 -0.3574
H14A H 0.1268 0.7302 -0.3574
C20B C 0.3419(14) 0.4235(11) -0.3927(16)
C20A C 0.0816(9) 0.6581(14) -0.3927(16)
H15B H 0.3342 0.4016 -0.4632
H15A H 0.0674 0.6658 -0.4632
C21B C 0.4007(15) 0.4626(13) -0.3581(12)
C21A C 0.0619(7) 0.5993(15) -0.3581(12)
H16B H 0.4299 0.4667 -0.4050
H16A H 0.0368 0.5701 -0.4050
C22B C 0.4053(7) 0.4891(6) -0.2575(9)
C22A C 0.0838(4) 0.5947(7) -0.2575(9)
H17B H 0.4397 0.5134 -0.2285
H17A H 0.0737 0.5603 -0.2285
C23B C 0.3787(4) 0.4429(3) 0.0365(6)
C23A C 0.0642(3) 0.6213(4) 0.0365(6)
C24B C 0.3497(4) 0.3904(3) 0.0050(6)
C24A C 0.0407(3) 0.6503(4) 0.0050(6)
H18B H 0.3125 0.3743 -0.0055
H18A H 0.0618 0.6875 -0.0055
C25B C 0.3730(6) 0.3620(4) -0.0108(8)
C25A C -0.0110(4) 0.6270(6) -0.0108(8)
H19B H 0.3516 0.3261 -0.0350
H19A H -0.0255 0.6484 -0.0350
C26B C 0.4252(6) 0.3804(5) 0.0051(9)
C26A C -0.0448(4) 0.5748(6) 0.0051(9)
H20B H 0.4405 0.3585 -0.0036
H20A H -0.0820 0.5595 -0.0036
C27B C 0.4549(6) 0.4333(5) 0.0347(11)
C27A C -0.0216(4) 0.5451(6) 0.0347(11)
H21B H 0.4922 0.4490 0.0421
H21A H -0.0432 0.5078 0.0421
C28B C 0.4320(5) 0.4643(4) 0.0540(9)
C28A C 0.0323(3) 0.5680(5) 0.0540(9)
H22B H 0.4531 0.5001 0.0791
H22A H 0.0470 0.5469 0.0791
C29B C 0.5512(6) 0.6433(5) 0.7645(8)
C29A C 0.0921(3) 0.4488(6) 0.7645(8)
C30B C 0.5277(6) 0.6242(4) 0.8748(9)
C30A C 0.0965(4) 0.4723(6) 0.8748(9)
H23B H 0.4962 0.6247 0.8948
H23A H 0.1285 0.5038 0.8948
C31B C 0.5486(6) 0.6039(4) 0.9590(10)
C31A C 0.0553(4) 0.4514(6) 0.9590(10)
H24B H 0.5323 0.5920 1.0370
H24A H 0.0597 0.4677 1.0370
C32B C 0.5934(8) 0.6010(6) 0.9293(13)
C32A C 0.0076(5) 0.4066(8) 0.9293(13)
H25B H 0.6059 0.5839 0.9825
H25A H -0.0220 0.3941 0.9825
C33B C 0.6188(11) 0.6232(10) 0.8225(13)
C33A C 0.0044(5) 0.3812(11) 0.8225(13)
H26B H 0.6519 0.6255 0.8064
H26A H -0.0264 0.3481 0.8064
C34B C 0.5981(9) 0.6424(8) 0.7372(10)
C34A C 0.0443(5) 0.4019(9) 0.7372(10)
H27B H 0.6152 0.6550 0.6602
H27A H 0.0398 0.3848 0.6602
C35B C 0.5940(7) 0.7594(5) 0.7504(10)
C35A C 0.1654(5) 0.4060(7) 0.7504(10)
C36B C 0.6075(9) 0.7687(5) 0.8731(11)
C36A C 0.1612(7) 0.3925(9) 0.8731(11)
H28B H 0.5819 0.7480 0.9335
H28A H 0.1661 0.4181 0.9335
C37B C 0.6566(13) 0.8068(7) 0.9095(16)
C37A C 0.1502(11) 0.3434(13) 0.9095(16)
H29B H 0.6642 0.8161 0.9938
H29A H 0.1519 0.3358 0.9938
C38B C 0.6949(18) 0.8315(12) 0.821(2)
C38A C 0.1366(13) 0.3051(18) 0.821(2)
H30B H 0.7303 0.8548 0.8468
H30A H 0.1245 0.2697 0.8468
C39B C 0.6841(14) 0.8237(10) 0.6966(18)
C39A C 0.1396(10) 0.3159(14) 0.6966(18)
H31B H 0.7105 0.8436 0.6370
H31A H 0.1331 0.2895 0.6370
C40B C 0.6301(10) 0.7834(7) 0.6604(12)
C40A C 0.1533(7) 0.3699(10) 0.6604(12)
H32B H 0.6210 0.7746 0.5765
H32A H 0.1536 0.3790 0.5765
N5 N 0.3333 0.6667 0.301(4)
N6 N 0.3333 0.6667 0.364(4)
N7 N 0.3044(13) 0.8280(13) 0.207(3)
N8 N 0.3113(9) 0.8109(9) 0.160(2)
loop_
_geom_bond_atom_site_label_1
_geom_bond_atom_site_label_2
_geom_bond_site_symmetry_1
_geom_bond_site_symmetry_2
N1 C3 1_555 1_555
N2 C5 1_555 1_555
N3 C13 1_555 1_555
N4 C15 1_555 1_555
C1 H1 1_555 1_555
C2 C1 1_555 1_555
C3 C2 1_555 1_555
H2 C3 1_555 1_555
C4 N1 1_555 1_555
H3 C4 1_555 1_555
C5 C4 1_555 1_555
H4 C5 1_555 1_555
C6 N2 1_555 1_555
H5 C6 1_555 1_555
C7 C6 1_555 1_555
C8 C7 1_555 1_555
H6 C8 1_555 1_555
C9 C8 1_555 1_555
C10 C9 1_555 1_555
H7 C10 1_555 1_555
C11 C10 1_555 1_555
C12 C7 1_555 1_555
H8 C12 1_555 1_555
C13 C11 1_555 1_555
H9 C13 1_555 1_555
C14 N3 1_555 1_555
H10 C14 1_555 1_555
C15 C14 1_555 1_555
H11 C15 1_555 1_555
C16 C9 1_555 1_555
H12 C16 1_555 1_555
C17 C4 1_555 1_555
C18 C17 1_555 1_555
H13 C18 1_555 1_555
C19 C18 1_555 1_555
H14 C19 1_555 1_555
C20 C19 1_555 1_555
H15 C20 1_555 1_555
C21 C20 1_555 1_555
H16 C21 1_555 1_555
C22 C17 1_555 1_555
H17 C22 1_555 1_555
C23 C5 1_555 1_555
C24 C23 1_555 1_555
H18 C24 1_555 1_555
C25 C24 1_555 1_555
H19 C25 1_555 1_555
C26 C25 1_555 1_555
H20 C26 1_555 1_555
C27 C26 1_555 1_555
H21 C27 1_555 1_555
C28 C23 1_555 1_555
H22 C28 1_555 1_555
C29 C14 1_555 1_555
C30 C29 1_555 1_555
H23 C30 1_555 1_555
C31 C30 1_555 1_555
H24 C31 1_555 1_555
C32 C31 1_555 1_555
H25 C32 1_555 1_555
C33 C32 1_555 1_555
H26 C33 1_555 1_555
C34 C29 1_555 1_555
H27 C34 1_555 1_555
C35 C15 1_555 1_555
C36 C35 1_555 1_555
H28 C36 1_555 1_555
C37 C36 1_555 1_555
H29 C37 1_555 1_555
C38 C37 1_555 1_555
H30 C38 1_555 1_555
C39 C38 1_555 1_555
H31 C39 1_555 1_555
C40 C35 1_555 1_555
H32 C40 1_555 1_555
N5 N6 1_555 1_555
N7 N8 1_555 1_555
N1A C3A 1_555 1_555
N1B C3B 1_555 1_555
N2A C5A 1_555 1_555
N2B C5B 1_555 1_555
N3A C13A 1_555 1_555
N3B C13B 1_555 1_555
N4A C15A 1_555 1_555
N4B C16 1_555 1_555
C1B H1B 1_555 1_555
C1A C2 1_555 1_555
H1A C1A 1_555 1_555
C2B C1 1_555 1_555
C2A C1B 1_555 1_555
C3A C2A 1_555 1_555
C3B C2B 1_555 1_555
H2B C3B 1_555 1_555
H2A C3A 1_555 1_555
C4A N1A 1_555 1_555
C4B N1B 1_555 1_555
H3A C4A 1_555 1_555
H3B C4B 1_555 1_555
C5A C4A 1_555 1_555
C5B C4B 1_555 1_555
H4B C5B 1_555 1_555
H4A C5A 1_555 1_555
C6A N2A 1_555 1_555
C6B N2B 1_555 1_555
H5A C6A 1_555 1_555
H5B C6B 1_555 1_555
C7A C6A 1_555 1_555
C7B C6B 1_555 1_555
C8A C7A 1_555 1_555
C8B C7B 1_555 1_555
H6A C8A 1_555 1_555
H6B C8B 1_555 1_555
C9A C8A 1_555 1_555
C9B C8B 1_555 1_555
C10A C9A 1_555 1_555
C10B C9B 1_555 1_555
H7A C10A 1_555 1_555
H7B C10B 1_555 1_555
C11A C10A 1_555 1_555
C11B C10B 1_555 1_555
C12A C7A 1_555 1_555
C12B C7B 1_555 1_555
H8A C12A 1_555 1_555
H8B C12B 1_555 1_555
C13A C11A 1_555 1_555
C13B C11B 1_555 1_555
H9B C13B 1_555 1_555
H9A C13A 1_555 1_555
C14A N3A 1_555 1_555
C14B N3B 1_555 1_555
H10A C14A 1_555 1_555
H10B C14B 1_555 1_555
C15A C14A 1_555 1_555
C15B N4B 1_555 1_555
H11B C15B 1_555 1_555
H11A C15A 1_555 1_555
C16B N4A 1_555 1_555
C16A N4 1_555 1_555
H12A C16A 1_555 1_555
H12B C16B 1_555 1_555
C17B C4B 1_555 1_555
C17A C4A 1_555 1_555
C18B C17B 1_555 1_555
C18A C17A 1_555 1_555
H13B C18B 1_555 1_555
H13A C18A 1_555 1_555
C19B C18B 1_555 1_555
C19A C18A 1_555 1_555
H14B C19B 1_555 1_555
H14A C19A 1_555 1_555
C20B C19B 1_555 1_555
C20A C19A 1_555 1_555
H15B C20B 1_555 1_555
H15A C20A 1_555 1_555
C21B C20B 1_555 1_555
C21A C20A 1_555 1_555
H16B C21B 1_555 1_555
H16A C21A 1_555 1_555
C22B C17B 1_555 1_555
C22A C17A 1_555 1_555
H17B C22B 1_555 1_555
H17A C22A 1_555 1_555
C23B C5B 1_555 1_555
C23A C5A 1_555 1_555
C24B C23B 1_555 1_555
C24A C23A 1_555 1_555
H18B C24B 1_555 1_555
H18A C24A 1_555 1_555
C25B C24B 1_555 1_555
C25A C24A 1_555 1_555
H19B C25B 1_555 1_555
H19A C25A 1_555 1_555
C26B C25B 1_555 1_555
C26A C25A 1_555 1_555
H20B C26B 1_555 1_555
H20A C26A 1_555 1_555
C27B C26B 1_555 1_555
C27A C26A 1_555 1_555
H21B C27B 1_555 1_555
H21A C27A 1_555 1_555
C28B C23B 1_555 1_555
C28A C23A 1_555 1_555
H22B C28B 1_555 1_555
H22A C28A 1_555 1_555
C29B C14B 1_555 1_555
C29A C14A 1_555 1_555
C30B C29B 1_555 1_555
C30A C29A 1_555 1_555
H23B C30B 1_555 1_555
H23A C30A 1_555 1_555
C31B C30B 1_555 1_555
C31A C30A 1_555 1_555
H24B C31B 1_555 1_555
H24A C31A 1_555 1_555
C32B C31B 1_555 1_555
C32A C31A 1_555 1_555
H25B C32B 1_555 1_555
H25A C32A 1_555 1_555
C33B C32B 1_555 1_555
C33A C32A 1_555 1_555
H26B C33B 1_555 1_555
H26A C33A 1_555 1_555
C34B C29B 1_555 1_555
C34A C29A 1_555 1_555
H27B C34B 1_555 1_555
H27A C34A 1_555 1_555
C35B C15B 1_555 1_555
C35A C15A 1_555 1_555
C36B C35B 1_555 1_555
C36A C35A 1_555 1_555
H28B C36B 1_555 1_555
H28A C36A 1_555 1_555
C37B C36B 1_555 1_555
C37A C36A 1_555 1_555
H29B C37B 1_555 1_555
H29A C37A 1_555 1_555
C38B C37B 1_555 1_555
C38A C37A 1_555 1_555
H30B C38B 1_555 1_555
H30A C38A 1_555 1_555
C39B C38B 1_555 1_555
C39A C38A 1_555 1_555
H31B C39B 1_555 1_555
H31A C39A 1_555 1_555
C40B C35B 1_555 1_555
C40A C35A 1_555 1_555
H32B C40B 1_555 1_555
H32A C40A 1_555 1_555
C11 C12 1_555 1_555
C21 C22 1_555 1_555
C27 C28 1_555 1_555
C33 C34 1_555 1_555
C39 C40 1_555 1_555
C1B C2B 1_555 1_555
C1A C2A 1_555 1_555
C9A C16A 1_555 1_555
C9B C16B 1_555 1_555
C11A C12A 1_555 1_555
C11B C12B 1_555 1_555
C14B C15B 1_555 1_555
C21B C22B 1_555 1_555
C21A C22A 1_555 1_555
C27B C28B 1_555 1_555
C27A C28A 1_555 1_555
C33B C34B 1_555 1_555
C33A C34A 1_555 1_555
C39B C40B 1_555 1_555
C39A C40A 1_555 1_555

#END
