
#######################################################################
#
#                 Cambridge Crystallographic Data Centre
#                                CCDC 
#
#######################################################################
#
# If this CIF has been generated from an entry in the Cambridge 
# Structural Database, then it will include bibliographic, chemical, 
# crystal, experimental, refinement or atomic coordinate data resulting 
# from the CCDC's data processing and validation procedures.
#
#######################################################################

data_GANFUY
_chemical_formula_moiety         'C21 H34 O4,H2 O1'
_chemical_name_systematic        '3,4,20-Trihydroxypregnan-16-one monohydrate'
_symmetry_cell_setting           orthorhombic
_symmetry_space_group_name_H-M   'P 21 21 21'
_symmetry_Int_Tables_number      19
_space_group_name_Hall           'P 2ac 2ab'
loop_
_symmetry_equiv_pos_site_id
_symmetry_equiv_pos_as_xyz
1 x,y,z
2 1/2-x,-y,1/2+z
3 -x,1/2+y,1/2-z
4 1/2+x,1/2-y,-z
_cell_length_a                   6.321(3)
_cell_length_b                   12.254(6)
_cell_length_c                   25.749(12)
_cell_angle_alpha                90
_cell_angle_beta                 90
_cell_angle_gamma                90
_cell_volume                     1994.45
_exptl_crystal_colour            colorless
_exptl_crystal_description       prismatic
_cell_formula_units_Z            4
loop_
_atom_site_label
_atom_site_type_symbol
_atom_site_fract_x
_atom_site_fract_y
_atom_site_fract_z
O1 O 0.2324(12) -0.2341(5) -0.0243(2)
H1 H 0.3062 -0.2368 -0.0504
O2 O 0.3548(8) -0.2203(4) 0.0813(2)
H2 H 0.2868 -0.2752 0.0885
O3 O 0.2440(10) 0.4607(4) 0.27657(19)
O4 O 0.0698(10) 0.6185(5) 0.13084(19)
C1 C 0.1530(11) 0.0653(5) 0.0033(2)
H3 H 0.2981 0.0885 -0.0020
H4 H 0.0616 0.1195 -0.0125
C2 C 0.1194(13) -0.0447(5) -0.0245(3)
H5 H -0.0281 -0.0659 -0.0220
H6 H 0.1545 -0.0372 -0.0610
C3 C 0.2579(12) -0.1320(4) -0.0001(3)
H7 H 0.4057 -0.1097 -0.0047
C4 C 0.2164(10) -0.1403(5) 0.0584(2)
H8 H 0.0697 -0.1635 0.0638
C5 C 0.2496(10) -0.0292(5) 0.0855(2)
H9 H 0.3957 -0.0079 0.0777
C6 C 0.2360(12) -0.0351(5) 0.1445(2)
H10 H 0.0931 -0.0547 0.1546
H11 H 0.3308 -0.0914 0.1571
C7 C 0.2948(12) 0.0734(5) 0.1692(2)
H12 H 0.4438 0.0878 0.1633
H13 H 0.2721 0.0692 0.2064
C8 C 0.1636(11) 0.1676(5) 0.1469(2)
H14 H 0.0151 0.1564 0.1565
C9 C 0.1797(9) 0.1703(5) 0.0877(2)
H15 H 0.3307 0.1778 0.0798
C10 C 0.1082(9) 0.0619(5) 0.0618(2)
C11 C 0.0702(12) 0.2744(5) 0.0645(2)
H16 H 0.1030 0.2786 0.0277
H17 H -0.0819 0.2663 0.0678
C12 C 0.1368(12) 0.3824(5) 0.0905(2)
H18 H 0.2836 0.3975 0.0823
H19 H 0.0517 0.4415 0.0767
C13 C 0.1105(10) 0.3784(5) 0.1489(2)
C14 C 0.2373(10) 0.2790(6) 0.1690(2)
H20 H 0.3819 0.2892 0.1562
C15 C 0.2495(14) 0.2960(6) 0.2278(3)
H21 H 0.1309 0.2614 0.2451
H22 H 0.3801 0.2665 0.2417
C16 C 0.2416(11) 0.4167(6) 0.2342(2)
C17 C 0.2184(11) 0.4716(5) 0.1811(2)
H23 H 0.3614 0.4811 0.1671
C18 C -0.1270(11) 0.3739(5) 0.1635(3)
H24 H -0.1981 0.4365 0.1495
H25 H -0.1413 0.3737 0.2006
H26 H -0.1889 0.3087 0.1495
C19 C -0.1301(10) 0.0406(5) 0.0714(3)
H27 H -0.2123 0.0946 0.0534
H28 H -0.1591 0.0448 0.1079
H29 H -0.1668 -0.0306 0.0588
C20 C 0.1176(13) 0.5839(5) 0.1833(2)
H30 H -0.0144 0.5795 0.2032
C21 C 0.2632(16) 0.6675(6) 0.2088(3)
H31 H 0.3936 0.6715 0.1898
H32 H 0.2918 0.6457 0.2440
H33 H 0.1958 0.7377 0.2088
H34 H 0.009(14) 0.678(4) 0.1332(13)
O5 O -0.2490(11) 0.7757(6) 0.1431(2)
H35 H -0.33(3) 0.824(10) 0.127(9)
H36 H -0.32(2) 0.713(7) 0.140(5)
loop_
_geom_bond_atom_site_label_1
_geom_bond_atom_site_label_2
_geom_bond_site_symmetry_1
_geom_bond_site_symmetry_2
O1 H1 1_555 1_555
O2 H2 1_555 1_555
O3 C16 1_555 1_555
O4 C20 1_555 1_555
C1 H3 1_555 1_555
H4 C1 1_555 1_555
C2 C1 1_555 1_555
H5 C2 1_555 1_555
H6 C2 1_555 1_555
C3 O1 1_555 1_555
H7 C3 1_555 1_555
C4 O2 1_555 1_555
H8 C4 1_555 1_555
C5 C4 1_555 1_555
H9 C5 1_555 1_555
C6 C5 1_555 1_555
H10 C6 1_555 1_555
H11 C6 1_555 1_555
C7 C6 1_555 1_555
H12 C7 1_555 1_555
H13 C7 1_555 1_555
C8 C7 1_555 1_555
H14 C8 1_555 1_555
C9 C8 1_555 1_555
H15 C9 1_555 1_555
C10 C1 1_555 1_555
C11 C9 1_555 1_555
H16 C11 1_555 1_555
H17 C11 1_555 1_555
C12 C11 1_555 1_555
H18 C12 1_555 1_555
H19 C12 1_555 1_555
C13 C12 1_555 1_555
C14 C8 1_555 1_555
H20 C14 1_555 1_555
C15 C14 1_555 1_555
H21 C15 1_555 1_555
H22 C15 1_555 1_555
C16 C15 1_555 1_555
C17 C13 1_555 1_555
H23 C17 1_555 1_555
C18 C13 1_555 1_555
H24 C18 1_555 1_555
H25 C18 1_555 1_555
H26 C18 1_555 1_555
C19 C10 1_555 1_555
H27 C19 1_555 1_555
H28 C19 1_555 1_555
H29 C19 1_555 1_555
C20 C17 1_555 1_555
H30 C20 1_555 1_555
C21 C20 1_555 1_555
H31 C21 1_555 1_555
H32 C21 1_555 1_555
H33 C21 1_555 1_555
H34 O4 1_555 1_555
O5 H35 1_555 1_555
H36 O5 1_555 1_555
C2 C3 1_555 1_555
C3 C4 1_555 1_555
C5 C10 1_555 1_555
C9 C10 1_555 1_555
C13 C14 1_555 1_555
C16 C17 1_555 1_555

#END
