
#######################################################################
#
#                 Cambridge Crystallographic Data Centre
#                                CCDC 
#
#######################################################################
#
# If this CIF has been generated from an entry in the Cambridge 
# Structural Database, then it will include bibliographic, chemical, 
# crystal, experimental, refinement or atomic coordinate data resulting 
# from the CCDC's data processing and validation procedures.
#
#######################################################################

data_GANGIO
_chemical_compound_source        
'the first natural product isolated from the species Lecanicillium antillanum, the first betaenone-type compound isolated from the genus Lecanicillium'
_chemical_name_common            11-Norbetaenone
_chemical_formula_moiety         'C20 H34 O4'
_chemical_name_systematic        
1-(2-sec-butyl-5-hydroxy-6-(hydroxymethyl)-1,8-dimethyl-1,2,4a,5,6,7,8,8a-octahydronaphthalen-1-yl)-3-hydroxypropan-1-one
_chemical_properties_biological  'anti-angiogenic activity'
_symmetry_cell_setting           orthorhombic
_symmetry_space_group_name_H-M   'P 21 21 21'
_symmetry_Int_Tables_number      19
_space_group_name_Hall           'P 2ac 2ab'
loop_
_symmetry_equiv_pos_site_id
_symmetry_equiv_pos_as_xyz
1 x,y,z
2 1/2-x,-y,1/2+z
3 -x,1/2+y,1/2-z
4 1/2+x,1/2-y,-z
_cell_length_a                   12.0100(3)
_cell_length_b                   16.0401(4)
_cell_length_c                   19.9743(5)
_cell_angle_alpha                90
_cell_angle_beta                 90
_cell_angle_gamma                90
_cell_volume                     3847.88
_exptl_crystal_colour            colorless
_exptl_crystal_description       acicular
_cell_formula_units_Z            8
loop_
_atom_site_label
_atom_site_type_symbol
_atom_site_fract_x
_atom_site_fract_y
_atom_site_fract_z
O1 O 0.0515(4) 1.3019(3) 0.8674(3)
H1 H 0.004(7) 1.324(5) 0.898(4)
O2 O 0.0120(3) 1.0840(2) 0.75942(17)
O3 O 0.3472(3) 0.8130(2) 0.62151(19)
H2 H 0.333(5) 0.773(4) 0.632(3)
O4 O 0.0876(3) 0.8297(2) 0.51969(18)
H3 H 0.075(5) 0.791(4) 0.501(3)
C1 C 0.0211(5) 1.2302(3) 0.8308(3)
H4 H -0.0151 1.2465 0.7882
H5 H -0.0320 1.1960 0.8569
C2 C 0.1260(4) 1.1811(3) 0.8167(3)
H6 H 0.1611 1.1658 0.8598
H7 H 0.1789 1.2171 0.7921
C3 C 0.1055(4) 1.1023(3) 0.7763(2)
C4 C 0.2044(4) 1.0446(3) 0.7629(2)
C5 C 0.1888(4) 0.9955(2) 0.6964(2)
H8 H 0.1158 0.9657 0.6989
C6 C 0.2811(4) 0.9290(2) 0.6881(2)
H9 H 0.3503 0.9596 0.6750
C7 C 0.3078(4) 0.8832(3) 0.7515(2)
H10 H 0.3480 0.8324 0.7483
C8 C 0.2785(4) 0.9097(3) 0.8114(2)
H11 H 0.3030 0.8778 0.8486
C9 C 0.2098(4) 0.9857(3) 0.8260(2)
H12 H 0.2526 1.0175 0.8605
C10 C 0.3158(4) 1.0933(3) 0.7605(3)
H13 H 0.3161 1.1303 0.7215
H14 H 0.3778 1.0538 0.7571
H15 H 0.3239 1.1265 0.8014
C11 C 0.1162(5) 1.1258(3) 0.6282(3)
H16 H 0.1247 1.1528 0.5845
H17 H 0.1389 1.1646 0.6636
H18 H 0.0382 1.1100 0.6348
C12 C 0.2549(4) 0.8687(3) 0.6305(2)
H19 H 0.1867 0.8358 0.6417
C13 C 0.2365(4) 0.9152(3) 0.5650(2)
H20 H 0.3102 0.9390 0.5517
C14 C 0.1999(4) 0.8574(3) 0.5083(2)
H21 H 0.2042 0.8874 0.4650
H22 H 0.2503 0.8086 0.5060
C15 C 0.1565(4) 0.9893(3) 0.5737(2)
H23 H 0.1543 1.0215 0.5314
H24 H 0.0806 0.9676 0.5822
C16 C 0.1894(4) 1.0478(2) 0.6310(2)
H25 H 0.2679 1.0658 0.6228
C17 C 0.0991(4) 0.9587(3) 0.8615(2)
H26 H 0.0541 1.0105 0.8687
C18 C 0.1261(5) 0.9235(4) 0.9307(3)
H27 H 0.1729 0.9631 0.9552
H28 H 0.1659 0.8705 0.9257
H29 H 0.0568 0.9141 0.9555
C19 C 0.0274(4) 0.8991(3) 0.8207(3)
H30 H 0.0728 0.8496 0.8090
H31 H 0.0063 0.9269 0.7783
C20 C -0.0782(5) 0.8697(4) 0.8558(4)
H32 H -0.1193 0.8319 0.8262
H33 H -0.1249 0.9180 0.8666
H34 H -0.0584 0.8404 0.8971
O5 O 0.4652(4) 0.3169(2) 0.9648(2)
H35 H 0.512(6) 0.324(4) 0.940(4)
O6 O 0.4785(3) 0.4816(2) 0.89082(16)
O7 O 0.2900(3) 0.6482(2) 0.62621(18)
H36 H 0.317(5) 0.641(4) 0.590(3)
O8 O 0.4135(3) 0.5766(2) 0.53013(19)
H37 H 0.460(6) 0.602(4) 0.520(3)
C21 C 0.4270(5) 0.3880(4) 1.0005(3)
H38 H 0.4900 0.4267 1.0082
H39 H 0.3979 0.3705 1.0447
C22 C 0.3361(5) 0.4325(3) 0.9619(3)
H40 H 0.2797 0.3912 0.9475
H41 H 0.2988 0.4729 0.9919
C23 C 0.3790(4) 0.4784(3) 0.9009(2)
C24 C 0.2967(4) 0.5241(3) 0.8554(2)
C25 C 0.3416(4) 0.5203(3) 0.7821(2)
H42 H 0.4209 0.5393 0.7832
C26 C 0.2775(4) 0.5804(3) 0.7346(2)
H43 H 0.2072 0.5515 0.7213
C27 C 0.2446(4) 0.6608(3) 0.7666(2)
H44 H 0.2208 0.7048 0.7382
C28 C 0.2462(4) 0.6748(3) 0.8312(3)
H45 H 0.2184 0.7270 0.8461
C29 C 0.2882(4) 0.6155(3) 0.8838(2)
H46 H 0.2275 0.6131 0.9180
C30 C 0.1784(4) 0.4871(3) 0.8577(3)
H47 H 0.1799 0.4300 0.8401
H48 H 0.1285 0.5212 0.8302
H49 H 0.1517 0.4864 0.9040
C31 C 0.3832(5) 0.3594(3) 0.7883(3)
H50 H 0.3413 0.3545 0.8302
H51 H 0.4624 0.3675 0.7984
H52 H 0.3739 0.3084 0.7619
C32 C 0.3471(4) 0.5913(3) 0.6710(2)
H53 H 0.4205 0.6163 0.6835
C33 C 0.3678(4) 0.5092(3) 0.6353(2)
H54 H 0.2957 0.4908 0.6150
C34 C 0.4521(5) 0.5181(3) 0.5788(2)
H55 H 0.5243 0.5373 0.5973
H56 H 0.4641 0.4633 0.5573
C35 C 0.4067(4) 0.4407(3) 0.6830(2)
H57 H 0.4858 0.4509 0.6944
H58 H 0.4026 0.3866 0.6593
C36 C 0.3399(4) 0.4340(3) 0.7483(2)
H59 H 0.2609 0.4217 0.7358
C37 C 0.3887(4) 0.6548(3) 0.9210(2)
H60 H 0.4205 0.6104 0.9505
C38 C 0.3503(6) 0.7255(3) 0.9667(3)
H61 H 0.4149 0.7494 0.9899
H62 H 0.2975 0.7038 0.9998
H63 H 0.3140 0.7688 0.9399
C39 C 0.4835(5) 0.6843(3) 0.8747(3)
H64 H 0.5051 0.6374 0.8452
H65 H 0.4547 0.7295 0.8457
C40 C 0.5864(5) 0.7155(3) 0.9105(3)
H66 H 0.6420 0.7331 0.8775
H67 H 0.6173 0.6707 0.9382
H68 H 0.5666 0.7629 0.9391
loop_
_geom_bond_atom_site_label_1
_geom_bond_atom_site_label_2
_geom_bond_site_symmetry_1
_geom_bond_site_symmetry_2
O1 H1 1_555 1_555
O2 C3 1_555 1_555
O3 H2 1_555 1_555
O4 H3 1_555 1_555
C1 O1 1_555 1_555
H4 C1 1_555 1_555
H5 C1 1_555 1_555
C2 C1 1_555 1_555
H6 C2 1_555 1_555
H7 C2 1_555 1_555
C3 C2 1_555 1_555
C4 C3 1_555 1_555
C5 C4 1_555 1_555
H8 C5 1_555 1_555
C6 C5 1_555 1_555
H9 C6 1_555 1_555
C7 C6 1_555 1_555
H10 C7 1_555 1_555
C8 C7 1_555 1_555
H11 C8 1_555 1_555
C9 C4 1_555 1_555
H12 C9 1_555 1_555
C10 C4 1_555 1_555
H13 C10 1_555 1_555
H14 C10 1_555 1_555
H15 C10 1_555 1_555
C11 H16 1_555 1_555
H17 C11 1_555 1_555
H18 C11 1_555 1_555
C12 O3 1_555 1_555
H19 C12 1_555 1_555
C13 C12 1_555 1_555
H20 C13 1_555 1_555
C14 O4 1_555 1_555
H21 C14 1_555 1_555
H22 C14 1_555 1_555
C15 C13 1_555 1_555
H23 C15 1_555 1_555
H24 C15 1_555 1_555
C16 C5 1_555 1_555
H25 C16 1_555 1_555
C17 C9 1_555 1_555
H26 C17 1_555 1_555
C18 C17 1_555 1_555
H27 C18 1_555 1_555
H28 C18 1_555 1_555
H29 C18 1_555 1_555
C19 C17 1_555 1_555
H30 C19 1_555 1_555
H31 C19 1_555 1_555
C20 C19 1_555 1_555
H32 C20 1_555 1_555
H33 C20 1_555 1_555
H34 C20 1_555 1_555
O5 H35 1_555 1_555
O6 C23 1_555 1_555
O7 H36 1_555 1_555
O8 H37 1_555 1_555
C21 O5 1_555 1_555
H38 C21 1_555 1_555
H39 C21 1_555 1_555
C22 C21 1_555 1_555
H40 C22 1_555 1_555
H41 C22 1_555 1_555
C23 C22 1_555 1_555
C24 C23 1_555 1_555
C25 C24 1_555 1_555
H42 C25 1_555 1_555
C26 C25 1_555 1_555
H43 C26 1_555 1_555
C27 C26 1_555 1_555
H44 C27 1_555 1_555
C28 C27 1_555 1_555
H45 C28 1_555 1_555
C29 C24 1_555 1_555
H46 C29 1_555 1_555
C30 C24 1_555 1_555
H47 C30 1_555 1_555
H48 C30 1_555 1_555
H49 C30 1_555 1_555
C31 H50 1_555 1_555
H51 C31 1_555 1_555
H52 C31 1_555 1_555
C32 O7 1_555 1_555
H53 C32 1_555 1_555
C33 C32 1_555 1_555
H54 C33 1_555 1_555
C34 O8 1_555 1_555
H55 C34 1_555 1_555
H56 C34 1_555 1_555
C35 C33 1_555 1_555
H57 C35 1_555 1_555
H58 C35 1_555 1_555
C36 C25 1_555 1_555
H59 C36 1_555 1_555
C37 C29 1_555 1_555
H60 C37 1_555 1_555
C38 C37 1_555 1_555
H61 C38 1_555 1_555
H62 C38 1_555 1_555
H63 C38 1_555 1_555
C39 C37 1_555 1_555
H64 C39 1_555 1_555
H65 C39 1_555 1_555
C40 C39 1_555 1_555
H66 C40 1_555 1_555
H67 C40 1_555 1_555
H68 C40 1_555 1_555
C6 C12 1_555 1_555
C8 C9 1_555 1_555
C11 C16 1_555 1_555
C13 C14 1_555 1_555
C15 C16 1_555 1_555
C26 C32 1_555 1_555
C28 C29 1_555 1_555
C31 C36 1_555 1_555
C33 C34 1_555 1_555
C35 C36 1_555 1_555

#END
