
#######################################################################
#
#                 Cambridge Crystallographic Data Centre
#                                CCDC 
#
#######################################################################
#
# If this CIF has been generated from an entry in the Cambridge 
# Structural Database, then it will include bibliographic, chemical, 
# crystal, experimental, refinement or atomic coordinate data resulting 
# from the CCDC's data processing and validation procedures.
#
#######################################################################

data_GANJIQ
_chemical_formula_moiety         'C16 H14 N2 O2'
_chemical_name_systematic        3,6-Diphenylpiperazine-2,5-dione
_symmetry_cell_setting           orthorhombic
_symmetry_space_group_name_H-M   'P b c a'
_symmetry_Int_Tables_number      61
_space_group_name_Hall           '-P 2ac 2ab'
loop_
_symmetry_equiv_pos_site_id
_symmetry_equiv_pos_as_xyz
1 x,y,z
2 1/2-x,-y,1/2+z
3 1/2+x,1/2-y,-z
4 -x,1/2+y,1/2-z
5 -x,-y,-z
6 1/2+x,y,1/2-z
7 1/2-x,1/2+y,z
8 x,1/2-y,1/2+z
_cell_length_a                   10.1275(9)
_cell_length_b                   8.2053(7)
_cell_length_c                   15.5781(12)
_cell_angle_alpha                90
_cell_angle_beta                 90
_cell_angle_gamma                90
_cell_volume                     1294.53
_exptl_crystal_colour            colorless
_exptl_crystal_description       rhomboid
_cell_formula_units_Z            4
loop_
_atom_site_label
_atom_site_type_symbol
_atom_site_fract_x
_atom_site_fract_y
_atom_site_fract_z
C1 C 1.1161(2) 0.0729(3) 0.03777(14)
C2 C 1.0014(2) 0.1791(3) 0.00996(17)
C3 C 0.9510(2) 0.2748(3) 0.08709(15)
C4 C 1.0179(2) 0.4135(3) 0.11293(19)
H1 H 1.0896 0.4511 0.0813
C5 C 0.9782(3) 0.4960(4) 0.1857(2)
H2 H 1.0241 0.5883 0.2033
C6 C 0.8714(4) 0.4425(4) 0.23232(19)
H3 H 0.8459 0.4978 0.2817
C7 C 0.8030(3) 0.3085(4) 0.20600(18)
H4 H 0.7292 0.2741 0.2365
C8 C 0.8433(3) 0.2236(3) 0.13395(17)
H5 H 0.7973 0.1310 0.1169
N1 N 1.1038(2) -0.0883(3) 0.03230(13)
O1 O 1.21593(17) 0.1378(2) 0.06763(11)
H6 H 1.0362(19) 0.252(3) -0.0302(13)
H7 H 1.173(2) -0.151(3) 0.0516(14)
C1D C 0.8839(2) -0.0729(3) -0.03777(14)
C2D C 0.9986(2) -0.1791(3) -0.00996(17)
C3D C 1.0490(2) -0.2748(3) -0.08709(15)
C4D C 0.9821(2) -0.4135(3) -0.11293(19)
H1D H 0.9104 -0.4511 -0.0813
C5D C 1.0218(3) -0.4960(4) -0.1857(2)
H2D H 0.9759 -0.5883 -0.2033
C6D C 1.1286(4) -0.4425(4) -0.23232(19)
H3D H 1.1541 -0.4978 -0.2817
C7D C 1.1970(3) -0.3085(4) -0.20600(18)
H4D H 1.2708 -0.2741 -0.2365
C8D C 1.1567(3) -0.2236(3) -0.13395(17)
H5D H 1.2027 -0.1310 -0.1169
N1D N 0.8962(2) 0.0883(3) -0.03230(13)
O1D O 0.78407(17) -0.1378(2) -0.06763(11)
H6D H 0.9638(19) -0.252(3) 0.0302(13)
H7D H 0.827(2) 0.151(3) -0.0516(14)
loop_
_geom_bond_atom_site_label_1
_geom_bond_atom_site_label_2
_geom_bond_site_symmetry_1
_geom_bond_site_symmetry_2
C1 C2 1_555 1_555
C2 C3 1_555 1_555
C3 C4 1_555 1_555
C4 H1 1_555 1_555
C5 C4 1_555 1_555
H2 C5 1_555 1_555
C6 C5 1_555 1_555
H3 C6 1_555 1_555
C7 C6 1_555 1_555
H4 C7 1_555 1_555
C8 C3 1_555 1_555
H5 C8 1_555 1_555
N1 C1 1_555 1_555
O1 C1 1_555 1_555
H6 C2 1_555 1_555
H7 N1 1_555 1_555
C1D C2D 1_555 1_555
C2D N1 1_555 1_555
C3D C2D 1_555 1_555
C4D C3D 1_555 1_555
H1D C4D 1_555 1_555
C5D C4D 1_555 1_555
H2D C5D 1_555 1_555
C6D C5D 1_555 1_555
H3D C6D 1_555 1_555
C7D C6D 1_555 1_555
H4D C7D 1_555 1_555
C8D C3D 1_555 1_555
H5D C8D 1_555 1_555
N1D C2 1_555 1_555
O1D C1D 1_555 1_555
H6D C2D 1_555 1_555
H7D N1D 1_555 1_555
C7 C8 1_555 1_555
C1D N1D 1_555 1_555
C7D C8D 1_555 1_555

#END
