
#######################################################################
#
#                 Cambridge Crystallographic Data Centre
#                                CCDC 
#
#######################################################################
#
# If this CIF has been generated from an entry in the Cambridge 
# Structural Database, then it will include bibliographic, chemical, 
# crystal, experimental, refinement or atomic coordinate data resulting 
# from the CCDC's data processing and validation procedures.
#
#######################################################################

data_GANPAP
_chemical_formula_moiety         'C20 H24 N2 O1,C1 H4 O1'
_chemical_name_systematic        
'13-methyl-15-vinyl-19-oxa-3,13-diazahexacyclo[14.3.1.0^2,10^.0^4,9^.0^10,15^.0^12,17^]icosa-4,6,8-triene methanol solvate'
_symmetry_cell_setting           monoclinic
_symmetry_space_group_name_H-M   'P 21'
_symmetry_Int_Tables_number      4
_space_group_name_Hall           'P 2yb'
loop_
_symmetry_equiv_pos_site_id
_symmetry_equiv_pos_as_xyz
1 x,y,z
2 -x,1/2+y,-z
_cell_length_a                   8.07980(10)
_cell_length_b                   14.25410(10)
_cell_length_c                   8.10390(10)
_cell_angle_alpha                90
_cell_angle_beta                 110.5820(10)
_cell_angle_gamma                90
_cell_volume                     873.754
_exptl_crystal_description       needle
_cell_formula_units_Z            2
loop_
_atom_site_label
_atom_site_type_symbol
_atom_site_fract_x
_atom_site_fract_y
_atom_site_fract_z
O1 O -0.3390(2) -0.38480(12) -0.7456(2)
N1 N -0.7382(2) -0.43985(13) -0.6378(2)
H1 H -0.8016 -0.4705 -0.7297
N2 N -0.1595(2) -0.27871(13) -0.1862(2)
C1 C -0.5473(3) -0.48446(15) -0.1706(3)
H2 H -0.4403 -0.4722 -0.0808
C2 C -0.3461(3) -0.26922(16) -0.1993(3)
H3 H -0.3669 -0.2056 -0.1688
H4 H -0.3687 -0.3113 -0.1156
C3 C -0.5156(3) -0.36365(17) -0.7501(3)
H5 H -0.5997 -0.3784 -0.8679
C4 C -0.4138(3) -0.23982(13) -0.5228(3)
H6 H -0.4145 -0.1721 -0.5018
C5 C -0.7361(3) -0.47530(14) -0.4762(3)
C6 C -0.4599(3) -0.40117(14) -0.4201(3)
C7 C -0.6562(3) -0.26177(16) -0.3925(3)
H7 H -0.7156 -0.3028 -0.3433
C8 C -0.5733(3) -0.45751(13) -0.3416(3)
C9 C -0.1512(2) -0.33537(15) -0.3361(3)
H8 H -0.0280 -0.3521 -0.3161
C10 C -0.5508(3) -0.42898(15) -0.6172(3)
H9 H -0.5065 -0.4912 -0.6324
C11 C -0.0458(3) -0.31532(18) -0.0147(3)
H10 H -0.0394 -0.2704 0.0756
H11 H 0.0706 -0.3264 -0.0168
H12 H -0.0942 -0.3731 0.0093
C12 C -0.8442(3) -0.54671(16) -0.2677(3)
H13 H -0.9344 -0.5765 -0.2414
C13 C -0.2210(3) -0.27174(15) -0.4975(3)
H14 H -0.1473 -0.2152 -0.4715
C14 C -0.6836(3) -0.53038(16) -0.1334(3)
H15 H -0.6665 -0.5499 -0.0190
C15 C -0.2608(3) -0.42493(13) -0.3536(3)
H16 H -0.2280 -0.4560 -0.2401
H17 H -0.2365 -0.4675 -0.4357
C16 C -0.5368(3) -0.26134(16) -0.7110(3)
H18 H -0.6585 -0.2489 -0.7227
H19 H -0.5071 -0.2218 -0.7939
C17 C -0.4750(3) -0.29213(14) -0.3874(3)
C18 C -0.8734(3) -0.51968(15) -0.4400(3)
H20 H -0.9814 -0.5308 -0.5290
C19 C -0.2100(3) -0.31336(17) -0.6665(3)
H21 H -0.2243 -0.2632 -0.7512
H22 H -0.0930 -0.3398 -0.6409
C20 C -0.7383(4) -0.1835(2) -0.4592(5)
H23 H -0.862(5) -0.165(3) -0.443(5)
H24 H -0.694(6) -0.136(3) -0.550(5)
O2 O -0.0537(2) -0.09481(12) -0.1375(2)
H25 H -0.0909 -0.1484 -0.1620
C21 C 0.1311(3) -0.0956(2) -0.0760(4)
H26 H 0.1714 -0.1501 -0.1205
H27 H 0.1756 -0.0971 0.0505
H28 H 0.1732 -0.0402 -0.1158
loop_
_geom_bond_atom_site_label_1
_geom_bond_atom_site_label_2
_geom_bond_site_symmetry_1
_geom_bond_site_symmetry_2
O1 C3 1_555 1_555
N1 H1 1_555 1_555
N2 C2 1_555 1_555
C1 H2 1_555 1_555
C2 H3 1_555 1_555
H4 C2 1_555 1_555
C3 H5 1_555 1_555
C4 H6 1_555 1_555
C5 N1 1_555 1_555
C6 C8 1_555 1_555
C7 H7 1_555 1_555
C8 C1 1_555 1_555
C9 N2 1_555 1_555
H8 C9 1_555 1_555
C10 N1 1_555 1_555
H9 C10 1_555 1_555
C11 N2 1_555 1_555
H10 C11 1_555 1_555
H11 C11 1_555 1_555
H12 C11 1_555 1_555
C12 H13 1_555 1_555
C13 C4 1_555 1_555
H14 C13 1_555 1_555
C14 C1 1_555 1_555
H15 C14 1_555 1_555
C15 C6 1_555 1_555
H16 C15 1_555 1_555
H17 C15 1_555 1_555
C16 C3 1_555 1_555
H18 C16 1_555 1_555
H19 C16 1_555 1_555
C17 C2 1_555 1_555
C18 C5 1_555 1_555
H20 C18 1_555 1_555
C19 O1 1_555 1_555
H21 C19 1_555 1_555
H22 C19 1_555 1_555
C20 C7 1_555 1_555
H23 C20 1_555 1_555
H24 C20 1_555 1_555
O2 H25 1_555 1_555
C21 O2 1_555 1_555
H26 C21 1_555 1_555
H27 C21 1_555 1_555
H28 C21 1_555 1_555
C3 C10 1_555 1_555
C4 C16 1_555 1_555
C4 C17 1_555 1_555
C5 C8 1_555 1_555
C6 C10 1_555 1_555
C6 C17 1_555 1_555
C7 C17 1_555 1_555
C9 C13 1_555 1_555
C9 C15 1_555 1_555
C12 C14 1_555 1_555
C12 C18 1_555 1_555
C13 C19 1_555 1_555

#END
