
#######################################################################
#
#                 Cambridge Crystallographic Data Centre
#                                CCDC 
#
#######################################################################
#
# If this CIF has been generated from an entry in the Cambridge 
# Structural Database, then it will include bibliographic, chemical, 
# crystal, experimental, refinement or atomic coordinate data resulting 
# from the CCDC's data processing and validation procedures.
#
#######################################################################

data_GANXEB
_chemical_formula_moiety         'C21 H17 Br1 N2 O3'
_chemical_name_systematic        
'ethyl [3-(4-bromophenyl)-4-cyano-9,9a-dihydro-1H,4aH-pyrano[4,3-a]pyrrolizin-1-ylidene]acetate'
_symmetry_cell_setting           monoclinic
_symmetry_space_group_name_H-M   'P 21/c'
_symmetry_Int_Tables_number      14
_space_group_name_Hall           '-P 2ybc'
loop_
_symmetry_equiv_pos_site_id
_symmetry_equiv_pos_as_xyz
1 x,y,z
2 -x,1/2+y,1/2-z
3 -x,-y,-z
4 x,1/2-y,1/2+z
_cell_length_a                   12.869(2)
_cell_length_b                   14.380(3)
_cell_length_c                   10.957(2)
_cell_angle_alpha                90
_cell_angle_beta                 108.813(4)
_cell_angle_gamma                90
_cell_volume                     1919.34
_exptl_crystal_colour            yellow
_exptl_crystal_description       block
_cell_formula_units_Z            4
loop_
_atom_site_label
_atom_site_type_symbol
_atom_site_fract_x
_atom_site_fract_y
_atom_site_fract_z
Br1 Br 0.26211(3) 0.12888(3) 0.61701(4)
N1 N 0.8298(3) 0.0213(3) 0.8009(4)
N2 N 0.9848(2) 0.2398(3) 0.5885(4)
O1 O 0.68009(19) 0.14472(17) 0.3714(2)
O2 O 0.5508(2) 0.11730(16) 0.1224(2)
O3 O 0.6370(3) 0.1482(2) -0.0216(3)
C1 C 0.3958(3) 0.1283(2) 0.5773(3)
C2 C 0.5928(3) 0.1250(2) 0.5268(3)
C3 C 0.6959(3) 0.1200(2) 0.4975(3)
C4 C 0.4941(3) 0.1135(2) 0.4274(3)
H1 H 0.4945 0.1047 0.3434
C5 C 0.3948(3) 0.1150(2) 0.4526(3)
H2 H 0.3288 0.1071 0.3862
C6 C 0.5907(3) 0.1415(2) 0.6514(3)
H3 H 0.6561 0.1514 0.7181
C7 C 0.4926(3) 0.1431(2) 0.6763(3)
H4 H 0.4915 0.1542 0.7595
C8 C 0.6400(4) 0.1342(2) 0.0888(4)
C9 C 1.0603(4) 0.1498(4) 0.7558(5)
H5 H 1.0785 0.0983 0.8100
C10 C 0.8776(3) 0.1531(3) 0.4151(4)
H6 H 0.9305 0.1342 0.3725
C11 C 0.7440(4) 0.1359(2) 0.1939(4)
H7 H 0.8060 0.1331 0.1680
C12 C 0.7955(3) 0.0923(2) 0.5761(3)
C13 C 0.8099(3) 0.0541(3) 0.7014(4)
C14 C 0.7651(3) 0.1407(2) 0.3214(4)
C15 C 0.8998(3) 0.0953(3) 0.5386(3)
H8 H 0.9265 0.0328 0.5288
C16 C 0.4467(4) 0.1199(3) 0.0169(4)
H9 H 0.4467 0.0737 -0.0477
H10 H 0.4359 0.1807 -0.0236
C17 C 0.9033(3) 0.2540(3) 0.4613(4)
H11 H 0.9335 0.2889 0.4049
H12 H 0.8386 0.2856 0.4674
C18 C 0.9864(3) 0.1528(4) 0.6340(4)
C19 C 0.3576(4) 0.0999(4) 0.0719(5)
H13 H 0.3723 0.0419 0.1178
H14 H 0.2888 0.0959 0.0034
H15 H 0.3541 0.1489 0.1299
C20 C 1.1031(4) 0.2402(5) 0.7827(6)
H16 H 1.1555 0.2592 0.8590
C21 C 1.0556(4) 0.2950(4) 0.6795(6)
H17 H 1.0686 0.3580 0.6720
loop_
_geom_bond_atom_site_label_1
_geom_bond_atom_site_label_2
_geom_bond_site_symmetry_1
_geom_bond_site_symmetry_2
Br1 C1 1_555 1_555
N1 C13 1_555 1_555
N2 C17 1_555 1_555
O1 C3 1_555 1_555
O2 C8 1_555 1_555
O3 C8 1_555 1_555
C1 C5 1_555 1_555
C2 C3 1_555 1_555
C3 C12 1_555 1_555
C4 C2 1_555 1_555
H1 C4 1_555 1_555
C5 C4 1_555 1_555
H2 C5 1_555 1_555
C6 C2 1_555 1_555
H3 C6 1_555 1_555
C7 C1 1_555 1_555
H4 C7 1_555 1_555
C8 C11 1_555 1_555
C9 H5 1_555 1_555
C10 H6 1_555 1_555
C11 H7 1_555 1_555
C12 C13 1_555 1_555
C14 O1 1_555 1_555
C15 C10 1_555 1_555
H8 C15 1_555 1_555
C16 O2 1_555 1_555
H9 C16 1_555 1_555
H10 C16 1_555 1_555
C17 C10 1_555 1_555
H11 C17 1_555 1_555
H12 C17 1_555 1_555
C18 N2 1_555 1_555
C19 C16 1_555 1_555
H13 C19 1_555 1_555
H14 C19 1_555 1_555
H15 C19 1_555 1_555
C20 C9 1_555 1_555
H16 C20 1_555 1_555
C21 N2 1_555 1_555
H17 C21 1_555 1_555
C6 C7 1_555 1_555
C9 C18 1_555 1_555
C10 C14 1_555 1_555
C11 C14 1_555 1_555
C12 C15 1_555 1_555
C15 C18 1_555 1_555
C20 C21 1_555 1_555

#END
