
#######################################################################
#
#                 Cambridge Crystallographic Data Centre
#                                CCDC 
#
#######################################################################
#
# If this CIF has been generated from an entry in the Cambridge 
# Structural Database, then it will include bibliographic, chemical, 
# crystal, experimental, refinement or atomic coordinate data resulting 
# from the CCDC's data processing and validation procedures.
#
#######################################################################

data_GANXAX
_chemical_formula_moiety         'C26 H22 O8'
_chemical_name_systematic        
'(3,7-bis(acetyloxy)anthracene-1,5-diyl)bis(ethene-1,1-diyl) diacetate'
_symmetry_cell_setting           monoclinic
_symmetry_space_group_name_H-M   'C 2/c'
_symmetry_Int_Tables_number      15
_space_group_name_Hall           '-C 2yn'
loop_
_symmetry_equiv_pos_site_id
_symmetry_equiv_pos_as_xyz
1 x,y,z
2 -x,y,1/2-z
3 1/2+x,1/2+y,z
4 1/2-x,1/2+y,1/2-z
5 -x,-y,-z
6 x,-y,1/2+z
7 1/2-x,1/2-y,-z
8 1/2+x,1/2-y,1/2+z
_cell_length_a                   22.6021(13)
_cell_length_b                   8.6736(5)
_cell_length_c                   14.7686(8)
_cell_angle_alpha                90
_cell_angle_beta                 129.660(3)
_cell_angle_gamma                90
_cell_volume                     2228.9
_cell_formula_units_Z            4
loop_
_atom_site_label
_atom_site_type_symbol
_atom_site_fract_x
_atom_site_fract_y
_atom_site_fract_z
O1 O 0.11331(6) 0.94660(12) 0.28260(9)
O2 O 0.12012(6) 0.71295(13) 0.35498(9)
C1 C 0.04092(8) 0.63626(17) 0.06423(12)
C2 C 0.13787(8) 0.57335(18) 0.04183(12)
H1 H 0.1558 0.5096 0.0115
C3 C 0.17853(8) 0.69848(18) 0.10676(12)
C4 C 0.15313(8) 0.79967(18) 0.15094(12)
H2 H 0.1833 0.8870 0.1960
C5 C -0.02599(8) 0.59479(18) 0.04461(12)
H3 H -0.0437 0.6582 0.0754
C6 C 0.08545(8) 0.77224(17) 0.12901(12)
C7 C 0.06769(8) 0.53700(18) 0.01885(12)
C8 C -0.01139(9) 0.95179(19) 0.10260(14)
H4 H -0.0214 1.0341 0.1336
H5 H -0.0508 0.9160 0.0249
C9 C 0.14130(9) 0.84510(19) 0.37202(13)
C10 C 0.05703(9) 0.88748(18) 0.16721(13)
C11 C 0.19901(10) 0.9205(2) 0.48765(14)
H6 H 0.2014 0.8661 0.5481
H7 H 0.1842 1.0281 0.4835
H8 H 0.2495 0.9171 0.5077
O3 O 0.24376(6) 0.74052(12) 0.11964(9)
C12 C 0.37295(9) 0.8136(2) 0.22956(14)
H9 H 0.3669 0.9260 0.2245
H10 H 0.3668 0.7758 0.1614
H11 H 0.4242 0.7864 0.3019
C13 C 0.31352(9) 0.74186(18) 0.23076(13)
O4 O 0.32210(6) 0.69246(14) 0.31408(9)
O1D O -0.11331(6) 0.05340(12) -0.28260(9)
O2D O -0.12012(6) 0.28705(13) -0.35498(9)
C1D C -0.04092(8) 0.36374(17) -0.06423(12)
C2D C -0.13787(8) 0.42665(18) -0.04183(12)
H1D H -0.1558 0.4904 -0.0115
C3D C -0.17853(8) 0.30152(18) -0.10676(12)
C4D C -0.15313(8) 0.20033(18) -0.15094(12)
H2D H -0.1833 0.1130 -0.1960
C5D C 0.02599(8) 0.40521(18) -0.04461(12)
H3D H 0.0437 0.3418 -0.0754
C6D C -0.08545(8) 0.22776(17) -0.12901(12)
C7D C -0.06769(8) 0.46300(18) -0.01885(12)
C8D C 0.01139(9) 0.04821(19) -0.10260(14)
H4D H 0.0214 -0.0341 -0.1336
H5D H 0.0508 0.0840 -0.0249
C9D C -0.14130(9) 0.15490(19) -0.37202(13)
C10D C -0.05703(9) 0.11252(18) -0.16721(13)
C11D C -0.19901(10) 0.0795(2) -0.48765(14)
H6D H -0.2014 0.1339 -0.5481
H7D H -0.1842 -0.0281 -0.4835
H8D H -0.2495 0.0829 -0.5077
O3D O -0.24376(6) 0.25948(12) -0.11964(9)
C12D C -0.37295(9) 0.1864(2) -0.22956(14)
H9D H -0.3669 0.0740 -0.2245
H10D H -0.3668 0.2242 -0.1614
H11D H -0.4242 0.2136 -0.3019
C13D C -0.31352(9) 0.25814(18) -0.23076(13)
O4D O -0.32210(6) 0.30754(14) -0.31408(9)
loop_
_geom_bond_atom_site_label_1
_geom_bond_atom_site_label_2
_geom_bond_site_symmetry_1
_geom_bond_site_symmetry_2
O1 C9 1_555 1_555
O2 C9 1_555 1_555
C1 C5 1_555 1_555
C2 H1 1_555 1_555
C3 C2 1_555 1_555
C4 C3 1_555 1_555
H2 C4 1_555 1_555
C5 H3 1_555 1_555
C6 C1 1_555 1_555
C7 C1 1_555 1_555
C8 H4 1_555 1_555
H5 C8 1_555 1_555
C9 C11 1_555 1_555
C10 O1 1_555 1_555
C11 H6 1_555 1_555
H7 C11 1_555 1_555
H8 C11 1_555 1_555
O3 C3 1_555 1_555
C12 H9 1_555 1_555
H10 C12 1_555 1_555
H11 C12 1_555 1_555
C13 O3 1_555 1_555
O4 C13 1_555 1_555
O1D C9D 1_555 1_555
O2D C9D 1_555 1_555
C1D C5D 1_555 1_555
C2D H1D 1_555 1_555
C3D C2D 1_555 1_555
C4D C3D 1_555 1_555
H2D C4D 1_555 1_555
C5D C7 1_555 1_555
H3D C5D 1_555 1_555
C6D C1D 1_555 1_555
C7D C5 1_555 1_555
C8D H4D 1_555 1_555
H5D C8D 1_555 1_555
C9D C11D 1_555 1_555
C10D O1D 1_555 1_555
C11D H6D 1_555 1_555
H7D C11D 1_555 1_555
H8D C11D 1_555 1_555
O3D C3D 1_555 1_555
C12D H9D 1_555 1_555
H10D C12D 1_555 1_555
H11D C12D 1_555 1_555
C13D O3D 1_555 1_555
O4D C13D 1_555 1_555
C2 C7 1_555 1_555
C4 C6 1_555 1_555
C6 C10 1_555 1_555
C8 C10 1_555 1_555
C12 C13 1_555 1_555
C1D C7D 1_555 1_555
C2D C7D 1_555 1_555
C4D C6D 1_555 1_555
C6D C10D 1_555 1_555
C8D C10D 1_555 1_555
C12D C13D 1_555 1_555

#END
