
#######################################################################
#
#                 Cambridge Crystallographic Data Centre
#                                CCDC 
#
#######################################################################
#
# If this CIF has been generated from an entry in the Cambridge 
# Structural Database, then it will include bibliographic, chemical, 
# crystal, experimental, refinement or atomic coordinate data resulting 
# from the CCDC's data processing and validation procedures.
#
#######################################################################

data_GANXID
_chemical_name_common            1-Chloroiodo-2,4,6-collidine
_chemical_formula_moiety         'C8 H11 Cl1 I1 N1'
_chemical_name_systematic        1-Chloroiodo-2,4,6-trimethylpyridine
_symmetry_cell_setting           hexagonal
_symmetry_space_group_name_H-M   'P 61'
_symmetry_Int_Tables_number      169
_space_group_name_Hall           'P 61'
loop_
_symmetry_equiv_pos_site_id
_symmetry_equiv_pos_as_xyz
1 x,y,z
2 -y,x-y,1/3+z
3 -x+y,-x,2/3+z
4 -x,-y,1/2+z
5 y,-x+y,5/6+z
6 x-y,x,1/6+z
_cell_length_a                   9.1915(12)
_cell_length_b                   9.1915(12)
_cell_length_c                   21.005(3)
_cell_angle_alpha                90
_cell_angle_beta                 90
_cell_angle_gamma                120
_cell_volume                     1536.83
_exptl_crystal_colour            'light yellow'
_exptl_crystal_description       prism
_chemical_melting_point          '383-384 K'
_cell_formula_units_Z            6
loop_
_atom_site_label
_atom_site_type_symbol
_atom_site_fract_x
_atom_site_fract_y
_atom_site_fract_z
I1 I 0.43860(4) 0.34407(5) 0.3650
Cl1 Cl 0.75637(19) 0.50040(18) 0.36062(11)
N1 N 0.1505(6) 0.2025(6) 0.3671(2)
C1 C 0.1631(9) 0.4749(7) 0.3499(3)
H1 H 0.2386 0.5040 0.3132
H2 H 0.2293 0.5262 0.3884
H3 H 0.0852 0.5170 0.3430
C2 C 0.0647(6) 0.2863(7) 0.3583(3)
C3 C -0.1044(7) 0.2052(8) 0.3584(2)
H4 H -0.1597 0.2682 0.3527
C4 C -0.2006(7) 0.0288(8) 0.3660(3)
C5 C -0.1102(8) -0.0567(8) 0.3739(2)
H5 H -0.1694 -0.1752 0.3792
C6 C 0.0641(7) 0.0313(8) 0.3742(2)
C7 C 0.1591(9) -0.0587(8) 0.3836(3)
H6 H 0.2402 -0.0297 0.3488
H7 H 0.0820 -0.1803 0.3839
H8 H 0.2191 -0.0240 0.4243
C8 C -0.3871(7) -0.0652(9) 0.3615(4)
H9 H -0.4201 -0.1271 0.3211
H10 H -0.4305 0.0130 0.3630
H11 H -0.4345 -0.1449 0.3970
I2? I -0.266(2) 0.369(2) 0.3547(8)
Cl2? Cl -0.503(5) 0.438(6) 0.3545(18)
loop_
_geom_bond_atom_site_label_1
_geom_bond_atom_site_label_2
_geom_bond_site_symmetry_1
_geom_bond_site_symmetry_2
I1 Cl1 1_555 1_555
N1 I1 1_555 1_555
C1 H1 1_555 1_555
H2 C1 1_555 1_555
H3 C1 1_555 1_555
C2 N1 1_555 1_555
C3 C2 1_555 1_555
H4 C3 1_555 1_555
C4 C3 1_555 1_555
C5 C4 1_555 1_555
H5 C5 1_555 1_555
C6 N1 1_555 1_555
C7 C6 1_555 1_555
H6 C7 1_555 1_555
H7 C7 1_555 1_555
H8 C7 1_555 1_555
C8 C4 1_555 1_555
H9 C8 1_555 1_555
H10 C8 1_555 1_555
H11 C8 1_555 1_555
C1 C2 1_555 1_555
C5 C6 1_555 1_555

#END
