
#######################################################################
#
#                 Cambridge Crystallographic Data Centre
#                                CCDC 
#
#######################################################################
#
# If this CIF has been generated from an entry in the Cambridge 
# Structural Database, then it will include bibliographic, chemical, 
# crystal, experimental, refinement or atomic coordinate data resulting 
# from the CCDC's data processing and validation procedures.
#
#######################################################################

data_GANYUQ
_chemical_formula_moiety         'C10 H20 N4 2+,C12 N6 2-'
_chemical_name_systematic        
"(2,2'-(1,2-Ethylene)-bis(3,4,5,6-tetrahydro-1H-pyrimidinium)) tris(dicyanomethylene)propanediide"
_symmetry_cell_setting           monoclinic
_symmetry_space_group_name_H-M   'P 2/c'
_symmetry_Int_Tables_number      13
_space_group_name_Hall           '-P 2yc'
loop_
_symmetry_equiv_pos_site_id
_symmetry_equiv_pos_as_xyz
1 x,y,z
2 -x,y,1/2-z
3 -x,-y,-z
4 x,-y,1/2+z
_cell_length_a                   5.746(2)
_cell_length_b                   11.867(5)
_cell_length_c                   16.084(6)
_cell_angle_alpha                90
_cell_angle_beta                 90.473(5)
_cell_angle_gamma                90
_cell_volume                     1096.69
_exptl_crystal_colour            yellow
_exptl_crystal_description       plate
_cell_formula_units_Z            2
loop_
_atom_site_label
_atom_site_type_symbol
_atom_site_fract_x
_atom_site_fract_y
_atom_site_fract_z
N1 N 0.7580(5) 0.3292(2) 0.60636(17)
N2 N 0.4796(5) 0.2853(2) 0.51042(17)
C1 C 0.6138(5) 0.3591(2) 0.54652(19)
C2 C 0.6149(5) 0.4797(2) 0.5192(2)
H1 H 0.7401 0.4901 0.4780
H2 H 0.6526 0.5278 0.5678
C3 C 0.7135(6) 0.1325(3) 0.5686(2)
H3 H 0.7049 0.0548 0.5908
H4 H 0.8367 0.1346 0.5260
C4 C 0.4834(6) 0.1638(3) 0.5294(2)
H5 H 0.4596 0.1200 0.4777
H6 H 0.3554 0.1453 0.5680
C5 C 0.7742(6) 0.2125(3) 0.6377(2)
H7 H 0.6657 0.2020 0.6846
H8 H 0.9342 0.1973 0.6581
H9 H 0.858(5) 0.377(3) 0.6281(17)
H10 H 0.366(6) 0.307(3) 0.475(2)
N1B N 0.2420(5) 0.6708(2) 0.39364(17)
N2B N 0.5204(5) 0.7147(2) 0.48958(17)
C1B C 0.3862(5) 0.6409(2) 0.45348(19)
C2B C 0.3851(5) 0.5203(2) 0.4808(2)
H1B H 0.2599 0.5099 0.5220
H2B H 0.3474 0.4722 0.4322
C3B C 0.2865(6) 0.8675(3) 0.4314(2)
H3B H 0.2951 0.9452 0.4092
H4B H 0.1633 0.8654 0.4740
C4B C 0.5166(6) 0.8362(3) 0.4706(2)
H5B H 0.5404 0.8800 0.5223
H6B H 0.6446 0.8547 0.4320
C5B C 0.2258(6) 0.7875(3) 0.3623(2)
H7B H 0.3343 0.7980 0.3154
H8B H 0.0658 0.8027 0.3419
H9B H 0.142(5) 0.623(3) 0.3719(17)
H10B H 0.634(6) 0.693(3) 0.525(2)
N3 N 0.8185(5) 0.5682(2) 0.33106(18)
N4 N 1.0824(5) 0.2926(3) 0.40049(19)
N5 N 0.7660(6) -0.0307(3) 0.3184(2)
C6 C 0.5967(5) 0.2453(3) 0.27559(19)
C7 C 0.6733(6) 0.5231(3) 0.2934(2)
C8 C 0.5000 0.4641(3) 0.2500
C9 C 0.5000 0.3453(4) 0.2500
C10 C 0.9397(6) 0.2448(3) 0.3645(2)
C11 C 0.7647(5) 0.1867(3) 0.3205(2)
C12 C 0.7678(6) 0.0663(3) 0.3194(2)
N3A N 0.1815(5) 0.5682(2) 0.16894(18)
N4A N -0.0824(5) 0.2926(3) 0.09951(19)
N5A N 0.2340(6) -0.0307(3) 0.1816(2)
C6A C 0.4033(5) 0.2453(3) 0.22441(19)
C7A C 0.3267(6) 0.5231(3) 0.2066(2)
C10A C 0.0603(6) 0.2448(3) 0.1355(2)
C11A C 0.2353(5) 0.1867(3) 0.1795(2)
C12A C 0.2322(6) 0.0663(3) 0.1806(2)
loop_
_geom_bond_atom_site_label_1
_geom_bond_atom_site_label_2
_geom_bond_site_symmetry_1
_geom_bond_site_symmetry_2
N1 C1 1_555 1_555
N2 C1 1_555 1_555
C1 C2 1_555 1_555
C2 H1 1_555 1_555
H2 C2 1_555 1_555
C3 H3 1_555 1_555
H4 C3 1_555 1_555
C4 N2 1_555 1_555
H5 C4 1_555 1_555
H6 C4 1_555 1_555
C5 N1 1_555 1_555
H7 C5 1_555 1_555
H8 C5 1_555 1_555
N3 C7 1_555 1_555
N4 C10 1_555 1_555
N5 C12 1_555 1_555
C6 C9 1_555 1_555
C7 C8 1_555 1_555
C8 C9 1_555 1_555
C9 C6A 1_555 1_555
C10 C11 1_555 1_555
C11 C6 1_555 1_555
C12 C11 1_555 1_555
H9 N1 1_555 1_555
H10 N2 1_555 1_555
N1B C1B 1_555 1_555
N2B C1B 1_555 1_555
C1B C2B 1_555 1_555
C2B C2 1_555 1_555
H1B C2B 1_555 1_555
H2B C2B 1_555 1_555
C3B H3B 1_555 1_555
H4B C3B 1_555 1_555
C4B N2B 1_555 1_555
H5B C4B 1_555 1_555
H6B C4B 1_555 1_555
C5B N1B 1_555 1_555
H7B C5B 1_555 1_555
H8B C5B 1_555 1_555
N3A C7A 1_555 1_555
N4A C10A 1_555 1_555
N5A C12A 1_555 1_555
C6A C6 1_555 1_555
C7A C8 1_555 1_555
C10A C11A 1_555 1_555
C11A C6A 1_555 1_555
C12A C11A 1_555 1_555
H9B N1B 1_555 1_555
H10B N2B 1_555 1_555
C3 C4 1_555 1_555
C3 C5 1_555 1_555
C3B C4B 1_555 1_555
C3B C5B 1_555 1_555

#END
