
#######################################################################
#
#                 Cambridge Crystallographic Data Centre
#                                CCDC 
#
#######################################################################
#
# If this CIF has been generated from an entry in the Cambridge 
# Structural Database, then it will include bibliographic, chemical, 
# crystal, experimental, refinement or atomic coordinate data resulting 
# from the CCDC's data processing and validation procedures.
#
#######################################################################

data_GAPCAB
_chemical_formula_moiety         'C17 H18 Cl1 N1 O4'
_chemical_name_systematic        
'Dimethyl 4-(2-chlorophenyl)-1,4-dihydro-2,6-dimethyl-pyridine-3,5-dicarboxylate'
_symmetry_cell_setting           triclinic
_symmetry_space_group_name_H-M   'P -1'
_symmetry_Int_Tables_number      2
_space_group_name_Hall           '-P 1'
loop_
_symmetry_equiv_pos_site_id
_symmetry_equiv_pos_as_xyz
1 x,y,z
2 -x,-y,-z
_cell_length_a                   13.467(2)
_cell_length_b                   13.718(2)
_cell_length_c                   9.867(1)
_cell_angle_alpha                98.44(1)
_cell_angle_beta                 93.25(1)
_cell_angle_gamma                65.40(1)
_cell_volume                     1639.42
_chemical_melting_point          184-186deg.C
_cell_formula_units_Z            4
loop_
_atom_site_label
_atom_site_type_symbol
_atom_site_fract_x
_atom_site_fract_y
_atom_site_fract_z
N1 N 0.4469(3) 0.1515(3) 0.3458(4)
C1 C 0.5012(4) 0.1771(3) 0.4582(5)
C2 C 0.6038(4) 0.1089(3) 0.4833(5)
C3 C 0.6656(4) 0.0069(3) 0.3856(5)
C4 C 0.5882(3) -0.0218(3) 0.2866(5)
C5 C 0.4849(3) 0.0515(3) 0.2662(5)
C6 C 0.7613(4) 0.0137(3) 0.3163(5)
C7 C 0.7558(4) 0.0770(3) 0.2172(5)
C8 C 0.8455(4) 0.0811(4) 0.1639(6)
C9 C 0.9484(4) 0.0196(4) 0.2096(6)
C10 C 0.9583(4) -0.0442(4) 0.3078(6)
C11 C 0.8687(4) -0.0487(4) 0.3585(6)
C12 C 0.4303(4) 0.2843(4) 0.5376(6)
C13 C 0.6688(4) 0.1179(4) 0.6088(5)
O1 O 0.7527(3) 0.0477(3) 0.6359(4)
O2 O 0.6213(3) 0.2126(3) 0.6901(4)
C14 C 0.6885(6) 0.2230(5) 0.8080(7)
C15 C 0.6346(4) -0.1341(3) 0.2225(5)
O3 O 0.7221(3) -0.2001(2) 0.2558(4)
O4 O 0.5743(3) -0.1611(3) 0.1250(4)
C16 C 0.6175(5) -0.2707(4) 0.0607(7)
C17 C 0.4024(4) 0.0393(4) 0.1655(6)
Cl1 Cl 0.6279(1) 0.16241(9) 0.1583(1)
H1 H 0.3796 0.2059 0.3203
H2 H 0.6981 -0.0519 0.4369
H3 H 0.8369 0.1260 0.0955
H4 H 1.0113 0.0217 0.1740
H5 H 1.0285 -0.0859 0.3410
H6 H 0.8787 -0.0954 0.4247
H7 H 0.4694 0.2999 0.6142
H8 H 0.4111 0.3390 0.4796
H9 H 0.3662 0.2809 0.5671
H10 H 0.6503 0.2913 0.8611
H11 H 0.7004 0.1669 0.8606
H12 H 0.7552 0.2183 0.7764
H13 H 0.5671 -0.2791 -0.0059
H14 H 0.6848 -0.2869 0.0185
H15 H 0.6276 -0.3164 0.1281
H16 H 0.4325 -0.0307 0.1139
H17 H 0.3391 0.0484 0.2129
H18 H 0.3835 0.0924 0.1055
N2 N -0.0630(3) 0.6385(3) 0.1896(4)
C18 C -0.0234(3) 0.5448(3) 0.2481(5)
C19 C 0.0865(3) 0.4829(3) 0.2436(5)
C20 C 0.1631(3) 0.5261(3) 0.1932(5)
C21 C 0.1055(3) 0.6070(3) 0.0937(5)
C22 C -0.0038(4) 0.6642(3) 0.1036(5)
C23 C 0.2081(3) 0.5775(3) 0.3149(5)
C24 C 0.3183(4) 0.5449(3) 0.3463(5)
C25 C 0.3536(4) 0.5953(4) 0.4573(6)
C26 C 0.2804(5) 0.6796(4) 0.5419(6)
C27 C 0.1707(4) 0.7145(4) 0.5141(6)
C28 C 0.1365(4) 0.6641(4) 0.4023(5)
C29 C -0.1101(4) 0.5241(4) 0.3126(6)
C30 C 0.1399(3) 0.3768(3) 0.2859(5)
O5 O 0.2379(2) 0.3222(2) 0.2752(4)
O6 O 0.0749(2) 0.3405(2) 0.3401(4)
C31 C 0.1251(5) 0.2338(4) 0.3776(7)
C32 C 0.1703(4) 0.6261(4) -0.0044(5)
O7 O 0.1437(3) 0.7008(3) -0.0686(4)
O8 O 0.2709(3) 0.5454(3) -0.0201(4)
C33 C 0.3417(5) 0.5552(5) -0.1157(6)
C34 C -0.0736(4) 0.7552(4) 0.0254(6)
Cl2 Cl 0.4189(1) 0.4381(1) 0.2454(2)
H19 H -0.1360 0.6887 0.2184
H20 H 0.2221 0.4670 0.1453
H21 H 0.4296 0.5712 0.4753
H22 H 0.3049 0.7136 0.6188
H23 H 0.1187 0.7729 0.5718
H24 H 0.0605 0.6899 0.3842
H25 H -0.0771 0.4583 0.3508
H26 H -0.1462 0.5820 0.3828
H27 H -0.1613 0.5191 0.2449
H28 H 0.0709 0.2173 0.4140
H29 H 0.1568 0.1837 0.2982
H30 H 0.1794 0.2304 0.4437
H31 H 0.4098 0.4944 -0.1185
H32 H 0.3092 0.5582 -0.2036
H33 H 0.3517 0.6195 -0.0867
H34 H -0.0284 0.7691 -0.0323
H35 H -0.1244 0.7349 -0.0286
H36 H -0.1116 0.8179 0.0880
loop_
_geom_bond_atom_site_label_1
_geom_bond_atom_site_label_2
_geom_bond_site_symmetry_1
_geom_bond_site_symmetry_2
N1 C1 1_555 1_555
C1 C2 1_555 1_555
C2 C3 1_555 1_555
C3 C4 1_555 1_555
C4 C5 1_555 1_555
C5 N1 1_555 1_555
C6 C3 1_555 1_555
C7 C6 1_555 1_555
C8 C7 1_555 1_555
C9 C8 1_555 1_555
C10 C9 1_555 1_555
C11 C6 1_555 1_555
C12 C1 1_555 1_555
C13 C2 1_555 1_555
O1 C13 1_555 1_555
O2 C13 1_555 1_555
C14 O2 1_555 1_555
C15 C4 1_555 1_555
O3 C15 1_555 1_555
O4 C15 1_555 1_555
C16 O4 1_555 1_555
C17 C5 1_555 1_555
Cl1 C7 1_555 1_555
N2 C18 1_555 1_555
C18 C19 1_555 1_555
C19 C20 1_555 1_555
C20 C21 1_555 1_555
C21 C22 1_555 1_555
C22 N2 1_555 1_555
C23 C20 1_555 1_555
C24 C23 1_555 1_555
C25 C24 1_555 1_555
C26 C25 1_555 1_555
C27 C26 1_555 1_555
C28 C23 1_555 1_555
C29 C18 1_555 1_555
C30 C19 1_555 1_555
O5 C30 1_555 1_555
O6 C30 1_555 1_555
C31 O6 1_555 1_555
C32 C21 1_555 1_555
O7 C32 1_555 1_555
O8 C32 1_555 1_555
C33 O8 1_555 1_555
C34 C22 1_555 1_555
Cl2 C24 1_555 1_555
H1 N1 1_555 1_555
H2 C3 1_555 1_555
H3 C8 1_555 1_555
H4 C9 1_555 1_555
H5 C10 1_555 1_555
H6 C11 1_555 1_555
H7 C12 1_555 1_555
H8 C12 1_555 1_555
H9 C12 1_555 1_555
H10 C14 1_555 1_555
H11 C14 1_555 1_555
H12 C14 1_555 1_555
H13 C16 1_555 1_555
H14 C16 1_555 1_555
H15 C16 1_555 1_555
H16 C17 1_555 1_555
H17 C17 1_555 1_555
H18 C17 1_555 1_555
H19 N2 1_555 1_555
H20 C20 1_555 1_555
H21 C25 1_555 1_555
H22 C26 1_555 1_555
H23 C27 1_555 1_555
H24 C28 1_555 1_555
H25 C29 1_555 1_555
H26 C29 1_555 1_555
H27 C29 1_555 1_555
H28 C31 1_555 1_555
H29 C31 1_555 1_555
H30 C31 1_555 1_555
H31 C33 1_555 1_555
H32 C33 1_555 1_555
H33 C33 1_555 1_555
H34 C34 1_555 1_555
H35 C34 1_555 1_555
H36 C34 1_555 1_555
C10 C11 1_555 1_555
C27 C28 1_555 1_555

#END
