
#######################################################################
#
#                 Cambridge Crystallographic Data Centre
#                                CCDC 
#
#######################################################################
#
# If this CIF has been generated from an entry in the Cambridge 
# Structural Database, then it will include bibliographic, chemical, 
# crystal, experimental, refinement or atomic coordinate data resulting 
# from the CCDC's data processing and validation procedures.
#
#######################################################################

data_GAPCEF
_chemical_formula_moiety         'C17 H17 Cl1 N2 O6'
_chemical_name_systematic        
'Dimethyl 4-(2-chloro-3-nitrophenyl)-1,4-dihydro-2,6-dimethyl-pyridine-3,5-dicarboxylate'
_chemical_properties_biological  'vasorelaxant activity'
_symmetry_cell_setting           orthorhombic
_symmetry_space_group_name_H-M   'P b c a'
_symmetry_Int_Tables_number      61
_space_group_name_Hall           '-P 2ac 2ab'
loop_
_symmetry_equiv_pos_site_id
_symmetry_equiv_pos_as_xyz
1 x,y,z
2 1/2-x,1/2+y,z
3 x,1/2-y,1/2+z
4 1/2-x,-y,1/2+z
5 -x,-y,-z
6 1/2+x,1/2-y,-z
7 -x,1/2+y,1/2-z
8 1/2+x,y,1/2-z
_cell_length_a                   31.799(4)
_cell_length_b                   11.561(1)
_cell_length_c                   9.470(1)
_cell_angle_alpha                90
_cell_angle_beta                 90
_cell_angle_gamma                90
_cell_volume                     3481.44
_chemical_melting_point          219-221deg.C
_cell_formula_units_Z            8
loop_
_atom_site_label
_atom_site_type_symbol
_atom_site_fract_x
_atom_site_fract_y
_atom_site_fract_z
N1 N 0.2129(1) -0.1095(4) 0.4004(5)
C1 C 0.1876(2) -0.1552(5) 0.5050(6)
C2 C 0.1583(2) -0.0911(4) 0.5689(6)
C3 C 0.1504(2) 0.0346(4) 0.5269(6)
C4 C 0.1849(2) 0.0793(4) 0.4290(6)
C5 C 0.2126(2) 0.0069(4) 0.3662(6)
C6 C 0.1077(2) 0.0455(4) 0.4563(6)
C7 C 0.0755(2) 0.1199(5) 0.5006(6)
C8 C 0.0381(2) 0.1252(5) 0.4235(7)
C9 C 0.0310(2) 0.0560(6) 0.3081(7)
C10 C 0.0619(2) -0.0171(5) 0.2652(6)
C11 C 0.0995(2) -0.0211(5) 0.3368(6)
C12 C 0.1983(2) -0.2803(5) 0.5339(7)
C13 C 0.1326(2) -0.1411(5) 0.6821(7)
O1 O 0.1306(2) -0.2405(4) 0.7140(6)
O2 O 0.1095(1) -0.0631(3) 0.7476(4)
C14 C 0.0820(2) -0.1044(6) 0.8583(7)
Cl1 Cl 0.08051(6) 0.1968(1) 0.6573(2)
N2 N 0.0051(2) 0.2090(5) 0.4599(7)
O3 O -0.0309(2) 0.1784(5) 0.4508(7)
O4 O 0.0137(2) 0.3080(4) 0.4735(7)
C15 C 0.1873(2) 0.2040(5) 0.4038(6)
O5 O 0.2112(1) 0.2552(4) 0.3247(5)
O6 O 0.1590(1) 0.2595(3) 0.4834(5)
C16 C 0.1573(2) 0.3835(5) 0.4763(8)
C17 C 0.2453(2) 0.0358(5) 0.2576(7)
H1 H 0.2312 -0.1596 0.3499
H2 H 0.1508 0.0807 0.6100
H3 H 0.0050 0.0584 0.2584
H4 H 0.0575 -0.0652 0.1851
H5 H 0.1208 -0.0715 0.3025
H6 H 0.1800 -0.3090 0.6061
H7 H 0.1939 -0.3244 0.4501
H8 H 0.2264 -0.2866 0.5633
H9 H 0.0670 -0.0411 0.8972
H10 H 0.0627 -0.1586 0.8194
H11 H 0.0982 -0.1406 0.9294
H12 H 0.1360 0.4110 0.5372
H13 H 0.1837 0.4144 0.5041
H14 H 0.1514 0.4066 0.3819
H15 H 0.2440 0.1160 0.2372
H16 H 0.2722 0.0168 0.2937
H17 H 0.2400 -0.0074 0.1744
loop_
_geom_bond_atom_site_label_1
_geom_bond_atom_site_label_2
_geom_bond_site_symmetry_1
_geom_bond_site_symmetry_2
N1 C1 1_555 1_555
C1 C2 1_555 1_555
C2 C3 1_555 1_555
C3 C4 1_555 1_555
C4 C5 1_555 1_555
C5 N1 1_555 1_555
C6 C3 1_555 1_555
C7 C6 1_555 1_555
C8 C7 1_555 1_555
C9 C8 1_555 1_555
C10 C9 1_555 1_555
C11 C6 1_555 1_555
C12 C1 1_555 1_555
C13 C2 1_555 1_555
O1 C13 1_555 1_555
O2 C13 1_555 1_555
C14 O2 1_555 1_555
Cl1 C7 1_555 1_555
N2 C8 1_555 1_555
O3 N2 1_555 1_555
O4 N2 1_555 1_555
C15 C4 1_555 1_555
O5 C15 1_555 1_555
O6 C15 1_555 1_555
C16 O6 1_555 1_555
C17 C5 1_555 1_555
H1 N1 1_555 1_555
H2 C3 1_555 1_555
H3 C9 1_555 1_555
H4 C10 1_555 1_555
H5 C11 1_555 1_555
H6 C12 1_555 1_555
H7 C12 1_555 1_555
H8 C12 1_555 1_555
H9 C14 1_555 1_555
H10 C14 1_555 1_555
H11 C14 1_555 1_555
H12 C16 1_555 1_555
H13 C16 1_555 1_555
H14 C16 1_555 1_555
H15 C17 1_555 1_555
H16 C17 1_555 1_555
H17 C17 1_555 1_555
C10 C11 1_555 1_555

#END
