
#######################################################################
#
#                 Cambridge Crystallographic Data Centre
#                                CCDC 
#
#######################################################################
#
# If this CIF has been generated from an entry in the Cambridge 
# Structural Database, then it will include bibliographic, chemical, 
# crystal, experimental, refinement or atomic coordinate data resulting 
# from the CCDC's data processing and validation procedures.
#
#######################################################################

data_GAPCOP
_chemical_formula_moiety         'C17 H17 Cl1 N2 O6'
_chemical_name_systematic        
'Dimethyl 4-(2-chloro-5-nitrophenyl)-1,4-dihydro-2,6-dimethyl-pyridine-3,5-dicarboxylate'
_symmetry_cell_setting           orthorhombic
_symmetry_space_group_name_H-M   'P n m a'
_symmetry_Int_Tables_number      62
_space_group_name_Hall           '-P 2ac 2n'
loop_
_symmetry_equiv_pos_site_id
_symmetry_equiv_pos_as_xyz
1 x,y,z
2 1/2-x,1/2+y,1/2+z
3 x,1/2-y,z
4 1/2-x,-y,1/2+z
5 -x,-y,-z
6 1/2+x,1/2-y,1/2-z
7 -x,1/2+y,-z
8 1/2+x,y,1/2-z
_cell_length_a                   15.658(6)
_cell_length_b                   12.686(5)
_cell_length_c                   8.936(3)
_cell_angle_alpha                90
_cell_angle_beta                 90
_cell_angle_gamma                90
_cell_volume                     1775.02
_chemical_melting_point          192-193deg.C
_cell_formula_units_Z            4
loop_
_atom_site_label
_atom_site_type_symbol
_atom_site_fract_x
_atom_site_fract_y
_atom_site_fract_z
N1 N 1.112 0.7500 0.329
C1 C 1.118 0.655 0.404
C2 C 1.107 0.652 0.555
C3 C 1.080 0.7500 0.640
C4 C 0.984 0.7500 0.669
C5 C 0.948 0.7500 0.811
C6 C 0.860 0.7500 0.832
C7 C 0.806 0.7500 0.710
C8 C 0.842 0.7500 0.570
C9 C 0.929 0.7500 0.547
C10 C 1.134 0.563 0.303
C11 C 1.122 0.554 0.639
C12 C 1.114 0.476 0.877
O1 O 1.153 0.475 0.592
O2 O 1.100 0.564 0.781
N2 N 0.786 0.7500 0.438
O3 O 0.709 0.7500 0.462
O4 O 0.817 0.7500 0.313
Cl1 Cl 1.009 0.7500 0.972
H1 H 1.1385 0.4996 0.3593
H2 H 1.0900 0.5554 0.2303
H3 H 1.1875 0.5725 0.2495
H4 H 1.0964 0.4890 0.9760
H5 H 1.0813 0.4149 0.8405
H6 H 1.1727 0.4549 0.8763
H7 H 1.1054 0.7500 0.7500
H8 H 0.9589 0.7500 0.4726
H9 H 0.7500 0.7500 0.7226
H10 H 0.8339 0.7500 0.9453
C1B C 1.118 0.845 0.404
C2B C 1.107 0.848 0.555
C10B C 1.134 0.937 0.303
C11B C 1.122 0.946 0.639
H1B H 1.1385 1.0004 0.3593
H2B H 1.0900 0.9446 0.2303
H3B H 1.1875 0.9275 0.2495
O1B O 1.153 1.025 0.592
O2B O 1.100 0.936 0.781
C12B C 1.114 1.024 0.877
H4B H 1.0964 1.0110 0.9760
H5B H 1.0813 1.0851 0.8405
H6B H 1.1727 1.0451 0.8763
loop_
_geom_bond_atom_site_label_1
_geom_bond_atom_site_label_2
_geom_bond_site_symmetry_1
_geom_bond_site_symmetry_2
N1 C1 1_555 1_555
C1 C2 1_555 1_555
C2 C3 1_555 1_555
C3 C4 1_555 1_555
C4 C5 1_555 1_555
C5 C6 1_555 1_555
C6 C7 1_555 1_555
C7 C8 1_555 1_555
C8 C9 1_555 1_555
C9 C4 1_555 1_555
C10 C1 1_555 1_555
C11 C2 1_555 1_555
C12 O2 1_555 1_555
O1 C11 1_555 1_555
O2 C11 1_555 1_555
N2 C8 1_555 1_555
O3 N2 1_555 1_555
O4 N2 1_555 1_555
Cl1 C5 1_555 1_555
H1 C10 1_555 1_555
H2 C10 1_555 1_555
H3 C10 1_555 1_555
H4 C12 1_555 1_555
H5 C12 1_555 1_555
H6 C12 1_555 1_555
H7 C3 1_555 1_555
H8 C9 1_555 1_555
H9 C7 1_555 1_555
H10 C6 1_555 1_555
C1B N1 1_555 1_555
C2B C3 1_555 1_555
C10B C1B 1_555 1_555
C11B C2B 1_555 1_555
H1B C10B 1_555 1_555
H2B C10B 1_555 1_555
H3B C10B 1_555 1_555
O1B C11B 1_555 1_555
O2B C11B 1_555 1_555
C12B O2B 1_555 1_555
H4B C12B 1_555 1_555
H5B C12B 1_555 1_555
H6B C12B 1_555 1_555
C1B C2B 1_555 1_555

#END
