
#######################################################################
#
#                 Cambridge Crystallographic Data Centre
#                                CCDC 
#
#######################################################################
#
# If this CIF has been generated from an entry in the Cambridge 
# Structural Database, then it will include bibliographic, chemical, 
# crystal, experimental, refinement or atomic coordinate data resulting 
# from the CCDC's data processing and validation procedures.
#
#######################################################################

data_GAPCOS
_chemical_formula_moiety         'C21 H16 N2 S1'
_chemical_name_systematic        
3-(1,3-benzothiazol-2-yl)-9-ethyl-9H-carbazole
_symmetry_cell_setting           orthorhombic
_symmetry_space_group_name_H-M   'P 21 21 21'
_symmetry_Int_Tables_number      19
_space_group_name_Hall           'P 2ac 2ab'
loop_
_symmetry_equiv_pos_site_id
_symmetry_equiv_pos_as_xyz
1 x,y,z
2 1/2-x,-y,1/2+z
3 -x,1/2+y,1/2-z
4 1/2+x,1/2-y,-z
_cell_length_a                   5.6626(12)
_cell_length_b                   12.606(3)
_cell_length_c                   22.639(5)
_cell_angle_alpha                90
_cell_angle_beta                 90
_cell_angle_gamma                90
_cell_volume                     1616.03
_exptl_crystal_colour            colorless
_exptl_crystal_description       Prism
_cell_formula_units_Z            4
loop_
_atom_site_label
_atom_site_type_symbol
_atom_site_fract_x
_atom_site_fract_y
_atom_site_fract_z
S1 S 1.24699(6) 0.62687(2) 0.986858(13)
N1 N 0.8530(2) 0.57810(9) 0.93453(5)
N2 N 1.0131(2) 1.00644(9) 0.78827(5)
C1 C 1.1069(2) 0.51111(10) 1.00830(5)
C2 C 1.1730(3) 0.43836(10) 1.05189(6)
H1 H 1.3133 0.4481 1.0743
C3 C 1.0283(3) 0.35189(11) 1.06145(6)
H2 H 1.0697 0.3014 1.0908
C4 C 0.8218(3) 0.33751(11) 1.02853(6)
H3 H 0.7252 0.2773 1.0359
C5 C 0.7554(3) 0.40945(10) 0.98529(6)
H4 H 0.6155 0.3988 0.9629
C6 C 0.8990(2) 0.49812(10) 0.97535(5)
C7 C 1.0178(2) 0.64987(10) 0.93608(5)
C8 C 1.0216(2) 0.74552(10) 0.89905(5)
C9 C 0.8436(2) 0.76207(10) 0.85738(5)
H5 H 0.7185 0.7124 0.8533
C10 C 0.8513(2) 0.85198(10) 0.82183(5)
C11 C 0.7097(2) 0.89062(10) 0.77291(5)
C12 C 0.5098(3) 0.85269(11) 0.74375(6)
H6 H 0.4324 0.7902 0.7570
C13 C 0.4260(3) 0.90810(12) 0.69499(6)
H7 H 0.2901 0.8830 0.6747
C14 C 0.5390(3) 1.00035(12) 0.67534(6)
H8 H 0.4799 1.0361 0.6415
C15 C 0.7352(3) 1.04066(11) 0.70418(6)
H9 H 0.8112 1.1035 0.6909
C16 C 0.8168(3) 0.98515(11) 0.75349(6)
C17 C 1.0363(2) 0.92638(11) 0.82945(5)
C18 C 1.2113(2) 0.91263(11) 0.87186(5)
H10 H 1.3323 0.9639 0.8772
C19 C 1.2028(2) 0.82135(11) 0.90603(5)
H11 H 1.3219 0.8096 0.9348
C20 C 1.1526(3) 1.10385(11) 0.78643(6)
H12 H 1.1682 1.1277 0.7450
H13 H 1.3130 1.0894 0.8019
C21 C 1.0392(3) 1.19128(12) 0.82275(7)
H14 H 1.0289 1.1688 0.8641
H15 H 0.8803 1.2057 0.8076
H16 H 1.1352 1.2558 0.8200
loop_
_geom_bond_atom_site_label_1
_geom_bond_atom_site_label_2
_geom_bond_site_symmetry_1
_geom_bond_site_symmetry_2
S1 C1 1_555 1_555
N1 C6 1_555 1_555
N2 C16 1_555 1_555
C1 C2 1_555 1_555
C2 H1 1_555 1_555
C3 C2 1_555 1_555
H2 C3 1_555 1_555
C4 C3 1_555 1_555
H3 C4 1_555 1_555
C5 C4 1_555 1_555
H4 C5 1_555 1_555
C6 C1 1_555 1_555
C7 S1 1_555 1_555
C8 C7 1_555 1_555
C9 C8 1_555 1_555
H5 C9 1_555 1_555
C10 C9 1_555 1_555
C11 C10 1_555 1_555
C12 C11 1_555 1_555
H6 C12 1_555 1_555
C13 C12 1_555 1_555
H7 C13 1_555 1_555
C14 C13 1_555 1_555
H8 C14 1_555 1_555
C15 C14 1_555 1_555
H9 C15 1_555 1_555
C16 C11 1_555 1_555
C17 N2 1_555 1_555
C18 C17 1_555 1_555
H10 C18 1_555 1_555
C19 C8 1_555 1_555
H11 C19 1_555 1_555
C20 N2 1_555 1_555
H12 C20 1_555 1_555
H13 C20 1_555 1_555
C21 C20 1_555 1_555
H14 C21 1_555 1_555
H15 C21 1_555 1_555
H16 C21 1_555 1_555
N1 C7 1_555 1_555
C5 C6 1_555 1_555
C10 C17 1_555 1_555
C15 C16 1_555 1_555
C18 C19 1_555 1_555

#END
