
#######################################################################
#
#                 Cambridge Crystallographic Data Centre
#                                CCDC 
#
#######################################################################
#
# If this CIF has been generated from an entry in the Cambridge 
# Structural Database, then it will include bibliographic, chemical, 
# crystal, experimental, refinement or atomic coordinate data resulting 
# from the CCDC's data processing and validation procedures.
#
#######################################################################

data_GAPFEK
_chemical_formula_moiety         'C15 H14 Br1 N1 O3,H2 O1'
_chemical_name_systematic        
'5-Bromo-2-methoxy-4-([(4-methoxyphenyl)imino]methyl)phenol monohydrate'
_symmetry_cell_setting           orthorhombic
_symmetry_space_group_name_H-M   'P b c a'
_symmetry_Int_Tables_number      61
_space_group_name_Hall           '-P 2ac 2ab'
loop_
_symmetry_equiv_pos_site_id
_symmetry_equiv_pos_as_xyz
1 x,y,z
2 1/2-x,-y,1/2+z
3 -x,1/2+y,1/2-z
4 1/2+x,1/2-y,-z
5 -x,-y,-z
6 1/2+x,y,1/2-z
7 x,1/2-y,1/2+z
8 1/2-x,1/2+y,z
_cell_length_a                   13.992(4)
_cell_length_b                   7.219(2)
_cell_length_c                   30.232(9)
_cell_angle_alpha                90
_cell_angle_beta                 90
_cell_angle_gamma                90
_cell_volume                     3053.68
_exptl_crystal_colour            yellow
_exptl_crystal_description       block
_cell_formula_units_Z            8
loop_
_atom_site_label
_atom_site_type_symbol
_atom_site_fract_x
_atom_site_fract_y
_atom_site_fract_z
Br1 Br 0.68925(3) 0.04514(7) 0.438691(15)
C1 C 0.7051(3) 0.1140(6) 0.37837(13)
C2 C 0.6237(3) 0.1493(6) 0.35403(14)
H1 H 0.5640 0.1407 0.3674
C3 C 0.6305(3) 0.1969(6) 0.31041(14)
C4 C 0.7199(3) 0.2112(6) 0.29032(14)
C5 C 0.8008(3) 0.1774(6) 0.31504(13)
H2 H 0.8604 0.1865 0.3016
C6 C 0.7955(3) 0.1300(6) 0.35947(13)
C7 C 0.8840(3) 0.1008(6) 0.38482(14)
H3 H 0.8803 0.0479 0.4128
C8 C 1.0489(3) 0.1209(6) 0.39542(14)
C9 C 1.1347(3) 0.1063(6) 0.37270(14)
H4 H 1.1344 0.1048 0.3419
C10 C 1.2206(3) 0.0938(6) 0.39508(16)
H5 H 1.2773 0.0814 0.3793
C11 C 1.2226(3) 0.0996(6) 0.44019(15)
C12 C 1.1378(3) 0.1129(7) 0.46330(15)
H6 H 1.1387 0.1152 0.4941
C13 C 1.0520(3) 0.1227(6) 0.44131(14)
H7 H 0.9954 0.1307 0.4573
C14 C 0.8055(3) 0.2671(7) 0.22380(14)
H8 H 0.8448 0.3609 0.2371
H9 H 0.7940 0.2979 0.1934
H10 H 0.8377 0.1498 0.2255
C15 C 1.3933(3) 0.1070(7) 0.44297(17)
H11 H 1.4020 -0.0007 0.4248
H12 H 1.4440 0.1140 0.4643
H13 H 1.3941 0.2159 0.4247
N1 N 0.9655(2) 0.1462(5) 0.36950(11)
O1 O 0.54833(18) 0.2278(5) 0.28775(10)
H16 H 0.5610 0.2520 0.2619
O2 O 0.71757(19) 0.2562(4) 0.24658(9)
O3 O 1.3042(2) 0.0951(5) 0.46530(11)
H14 H 0.510(4) 0.471(4) 0.2082(17)
H15 H 0.511(3) 0.293(5) 0.1846(12)
O4 O 0.5312(2) 0.3608(6) 0.20578(12)
loop_
_geom_bond_atom_site_label_1
_geom_bond_atom_site_label_2
_geom_bond_site_symmetry_1
_geom_bond_site_symmetry_2
Br1 C1 1_555 1_555
C1 C2 1_555 1_555
C2 H1 1_555 1_555
C3 C2 1_555 1_555
C4 C3 1_555 1_555
C5 C4 1_555 1_555
H2 C5 1_555 1_555
C6 C1 1_555 1_555
C7 C6 1_555 1_555
H3 C7 1_555 1_555
C8 C9 1_555 1_555
C9 H4 1_555 1_555
C10 C9 1_555 1_555
H5 C10 1_555 1_555
C11 C10 1_555 1_555
C12 C11 1_555 1_555
H6 C12 1_555 1_555
C13 C8 1_555 1_555
H7 C13 1_555 1_555
C14 H8 1_555 1_555
H9 C14 1_555 1_555
H10 C14 1_555 1_555
C15 H11 1_555 1_555
H12 C15 1_555 1_555
H13 C15 1_555 1_555
H14 O4 1_555 1_555
H15 O4 1_555 1_555
N1 C7 1_555 1_555
O1 C3 1_555 1_555
H16 O1 1_555 1_555
O2 C4 1_555 1_555
O3 C11 1_555 1_555
C5 C6 1_555 1_555
C8 N1 1_555 1_555
C12 C13 1_555 1_555
C14 O2 1_555 1_555
C15 O3 1_555 1_555

#END
