
#######################################################################
#
#                 Cambridge Crystallographic Data Centre
#                                CCDC 
#
#######################################################################
#
# If this CIF has been generated from an entry in the Cambridge 
# Structural Database, then it will include bibliographic, chemical, 
# crystal, experimental, refinement or atomic coordinate data resulting 
# from the CCDC's data processing and validation procedures.
#
#######################################################################

data_GAPLEQ
_chemical_name_common            
"O,O'-Diisopropyl S-[2-(benzenesulfonamido)ethyl]dithiophosphate"
_chemical_formula_moiety         'C14 H24 N1 O4 P1 S3'
_chemical_name_systematic        
"O,O'-Diisopropyl S-(2-((phenylsulfonyl)amino)ethyl) phosphorodithioate"
_symmetry_cell_setting           monoclinic
_symmetry_space_group_name_H-M   'P 21/n'
_symmetry_Int_Tables_number      14
_space_group_name_Hall           '-P 2yn'
loop_
_symmetry_equiv_pos_site_id
_symmetry_equiv_pos_as_xyz
1 x,y,z
2 1/2-x,1/2+y,1/2-z
3 -x,-y,-z
4 1/2+x,1/2-y,1/2+z
_cell_length_a                   8.6431(17)
_cell_length_b                   24.465(5)
_cell_length_c                   9.875(2)
_cell_angle_alpha                90
_cell_angle_beta                 104.99(3)
_cell_angle_gamma                90
_cell_volume                     2017.05
_exptl_crystal_colour            colorless
_exptl_crystal_description       block
_cell_formula_units_Z            4
loop_
_atom_site_label
_atom_site_type_symbol
_atom_site_fract_x
_atom_site_fract_y
_atom_site_fract_z
P1 P 0.25939(7) 0.64011(3) 0.36909(6)
S1 S 0.36714(8) 0.63940(4) 0.22205(8)
S2 S 0.40173(9) 0.66439(3) 0.56352(7)
S3 S 0.47902(8) 0.85949(3) 0.34382(7)
N1 N 0.5557(2) 0.81061(8) 0.4499(2)
H1 H 0.6574 0.8085 0.4858
O1 O 0.19173(18) 0.58432(6) 0.40940(18)
O2 O 0.10605(17) 0.67690(7) 0.33022(17)
O3 O 0.6077(2) 0.89486(8) 0.3366(2)
O4 O 0.3819(3) 0.83522(9) 0.2196(2)
C1 C 0.2942(3) 0.53593(10) 0.4530(3)
H2 H 0.4064 0.5460 0.4633
C2 C 0.2453(5) 0.49360(13) 0.3407(4)
H3 H 0.2640 0.5072 0.2551
H4 H 0.1336 0.4855 0.3263
H5 H 0.3070 0.4610 0.3686
C3 C 0.2729(5) 0.51819(14) 0.5913(4)
H6 H 0.3072 0.5469 0.6587
H7 H 0.3358 0.4860 0.6219
H8 H 0.1620 0.5102 0.5825
C4 C -0.0043(3) 0.68091(10) 0.4232(3)
H9 H 0.0481 0.6651 0.5148
C5 C -0.1513(3) 0.64868(14) 0.3583(4)
H10 H -0.1231 0.6110 0.3520
H11 H -0.1995 0.6625 0.2661
H12 H -0.2258 0.6518 0.4150
C6 C -0.0328(4) 0.74050(12) 0.4411(4)
H13 H 0.0667 0.7580 0.4862
H14 H -0.1070 0.7449 0.4978
H15 H -0.0763 0.7569 0.3510
C7 C 0.5288(3) 0.71656(11) 0.5167(3)
H16 H 0.6232 0.7214 0.5941
H17 H 0.5640 0.7041 0.4363
C8 C 0.4462(3) 0.76989(10) 0.4830(3)
H18 H 0.3538 0.7657 0.4035
H19 H 0.4088 0.7823 0.5623
C9 C 0.3490(3) 0.89472(9) 0.4243(2)
C10 C 0.4098(4) 0.93520(10) 0.5218(3)
H20 H 0.5180 0.9441 0.5437
C11 C 0.3071(4) 0.96202(12) 0.5857(3)
H21 H 0.3463 0.9896 0.6502
C12 C 0.1486(4) 0.94845(13) 0.5552(3)
H22 H 0.0810 0.9666 0.5996
C13 C 0.0884(4) 0.90801(14) 0.4589(3)
H23 H -0.0196 0.8988 0.4388
C14 C 0.1885(3) 0.88125(11) 0.3926(3)
H24 H 0.1481 0.8542 0.3267
loop_
_geom_bond_atom_site_label_1
_geom_bond_atom_site_label_2
_geom_bond_site_symmetry_1
_geom_bond_site_symmetry_2
P1 S1 1_555 1_555
S2 P1 1_555 1_555
S3 N1 1_555 1_555
N1 H1 1_555 1_555
O1 P1 1_555 1_555
O2 P1 1_555 1_555
O3 S3 1_555 1_555
O4 S3 1_555 1_555
C1 O1 1_555 1_555
H2 C1 1_555 1_555
C2 C1 1_555 1_555
H3 C2 1_555 1_555
H4 C2 1_555 1_555
H5 C2 1_555 1_555
C3 C1 1_555 1_555
H6 C3 1_555 1_555
H7 C3 1_555 1_555
H8 C3 1_555 1_555
C4 O2 1_555 1_555
H9 C4 1_555 1_555
C5 C4 1_555 1_555
H10 C5 1_555 1_555
H11 C5 1_555 1_555
H12 C5 1_555 1_555
C6 C4 1_555 1_555
H13 C6 1_555 1_555
H14 C6 1_555 1_555
H15 C6 1_555 1_555
C7 S2 1_555 1_555
H16 C7 1_555 1_555
H17 C7 1_555 1_555
C8 N1 1_555 1_555
H18 C8 1_555 1_555
H19 C8 1_555 1_555
C9 S3 1_555 1_555
C10 C9 1_555 1_555
H20 C10 1_555 1_555
C11 C10 1_555 1_555
H21 C11 1_555 1_555
C12 C11 1_555 1_555
H22 C12 1_555 1_555
C13 C12 1_555 1_555
H23 C13 1_555 1_555
C14 C9 1_555 1_555
H24 C14 1_555 1_555
C7 C8 1_555 1_555
C13 C14 1_555 1_555

#END
