
#######################################################################
#
#                 Cambridge Crystallographic Data Centre
#                                CCDC 
#
#######################################################################
#
# If this CIF has been generated from an entry in the Cambridge 
# Structural Database, then it will include bibliographic, chemical, 
# crystal, experimental, refinement or atomic coordinate data resulting 
# from the CCDC's data processing and validation procedures.
#
#######################################################################

data_GAPMOB
_chemical_formula_moiety         'C17 H23 N1 O1'
_chemical_name_systematic        2-((Adamantan-1-ylamino)methyl)phenol
_symmetry_cell_setting           monoclinic
_symmetry_space_group_name_H-M   'P 21/c'
_symmetry_Int_Tables_number      14
_space_group_name_Hall           '-P 2ybc'
loop_
_symmetry_equiv_pos_site_id
_symmetry_equiv_pos_as_xyz
1 x,y,z
2 -x,1/2+y,1/2-z
3 -x,-y,-z
4 x,1/2-y,1/2+z
_cell_length_a                   23.451(5)
_cell_length_b                   11.837(2)
_cell_length_c                   10.684(2)
_cell_angle_alpha                90
_cell_angle_beta                 101.17(3)
_cell_angle_gamma                90
_cell_volume                     2909.58
_exptl_crystal_colour            colorless
_exptl_crystal_description       block
_cell_formula_units_Z            8
loop_
_atom_site_label
_atom_site_type_symbol
_atom_site_fract_x
_atom_site_fract_y
_atom_site_fract_z
O1 O 0.52444(9) 0.72475(18) 0.0364(2)
H1 H 0.5043 0.7196 0.0909
N1 N 0.48436(9) 0.64480(17) 0.2387(2)
H2 H 0.5005 0.6872 0.3050
C1 C 0.63107(13) 0.5440(3) 0.2346(3)
H3 H 0.6337 0.4904 0.2991
C2 C 0.68075(13) 0.5737(3) 0.1911(4)
H4 H 0.7161 0.5396 0.2251
C3 C 0.67765(16) 0.6536(3) 0.0976(4)
H5 H 0.7111 0.6743 0.0688
C4 C 0.62562(15) 0.7033(3) 0.0459(3)
H6 H 0.6237 0.7568 -0.0185
C5 C 0.57589(13) 0.6735(3) 0.0903(3)
C6 C 0.57746(12) 0.5917(2) 0.1850(3)
C7 C 0.52176(13) 0.5513(2) 0.2236(3)
H7 H 0.5014 0.5003 0.1589
H8 H 0.5313 0.5099 0.3033
C8 C 0.42163(13) 0.5279(3) 0.3580(3)
H9 H 0.4369 0.4571 0.3326
H10 H 0.4455 0.5511 0.4384
C9 C 0.42430(9) 0.6185(2) 0.2558(2)
C10 C 0.35931(14) 0.5110(3) 0.3751(3)
H11 H 0.3583 0.4535 0.4406
C11 C 0.33580(14) 0.6222(3) 0.4164(3)
H12 H 0.3592 0.6464 0.4969
H13 H 0.2962 0.6117 0.4284
C12 C 0.32235(14) 0.4721(3) 0.2490(3)
H14 H 0.2826 0.4595 0.2594
H15 H 0.3375 0.4015 0.2226
C13 C 0.33722(12) 0.7125(3) 0.3147(3)
H16 H 0.3222 0.7840 0.3415
C14 C 0.30014(12) 0.6745(3) 0.1893(3)
H17 H 0.3007 0.7318 0.1247
H18 H 0.2603 0.6644 0.1996
C15 C 0.32371(12) 0.5633(3) 0.1473(3)
H19 H 0.2997 0.5391 0.0663
C16 C 0.38680(12) 0.5796(3) 0.1301(3)
H20 H 0.4018 0.5091 0.1034
H21 H 0.3881 0.6356 0.0644
C17 C 0.39965(12) 0.7287(2) 0.2963(3)
H22 H 0.4006 0.7859 0.2317
H23 H 0.4235 0.7548 0.3755
O2 O 0.94801(7) 0.73205(15) 0.46936(17)
H24 H 0.9695 0.7223 0.5388
N2 N 0.98628(8) 0.66076(17) 0.70798(19)
H25 H 0.9719 0.7045 0.7622
C18 C 1.04523(10) 0.6247(2) 0.7736(2)
C19 C 1.07657(11) 0.7317(2) 0.8317(3)
H26 H 1.0781 0.7862 0.7647
H27 H 1.0551 0.7652 0.8912
C20 C 1.04375(11) 0.5392(2) 0.8817(2)
H28 H 1.0220 0.5708 0.9420
H29 H 1.0243 0.4707 0.8465
C21 C 1.10557(12) 0.5113(2) 0.9503(2)
H30 H 1.1040 0.4569 1.0187
C22 C 1.13544(13) 0.6183(3) 1.0073(3)
H31 H 1.1745 0.6007 1.0520
H32 H 1.1142 0.6503 1.0681
C23 C 1.07946(11) 0.5733(2) 0.6797(2)
H33 H 1.0810 0.6266 0.6114
H34 H 1.0601 0.5054 0.6424
C24 C 1.14125(12) 0.5444(2) 0.7484(3)
H35 H 1.1629 0.5117 0.6874
C25 C 1.13907(13) 0.4596(2) 0.8554(3)
H36 H 1.1201 0.3907 0.8200
H37 H 1.1782 0.4407 0.8985
C26 C 1.13800(12) 0.7038(2) 0.9008(3)
H38 H 1.1575 0.7728 0.9374
C27 C 1.17164(12) 0.6521(3) 0.8053(3)
H39 H 1.1736 0.7059 0.7378
H40 H 1.2110 0.6346 0.8481
C28 C 0.94311(11) 0.5709(2) 0.6667(3)
H41 H 0.9324 0.5360 0.7410
H42 H 0.9601 0.5132 0.6208
C29 C 0.88973(10) 0.6180(2) 0.5821(2)
C30 C 0.89467(11) 0.6952(2) 0.4859(2)
C31 C 0.84582(12) 0.7356(2) 0.4048(3)
H43 H 0.8497 0.7870 0.3411
C32 C 0.79137(12) 0.7001(3) 0.4181(3)
H44 H 0.7585 0.7277 0.3637
C33 C 0.78559(12) 0.6236(3) 0.5118(3)
H45 H 0.7489 0.5989 0.5204
C34 C 0.83443(12) 0.5836(2) 0.5929(3)
H46 H 0.8301 0.5324 0.6564
loop_
_geom_bond_atom_site_label_1
_geom_bond_atom_site_label_2
_geom_bond_site_symmetry_1
_geom_bond_site_symmetry_2
O1 H1 1_555 1_555
N1 H2 1_555 1_555
C1 H3 1_555 1_555
C2 C1 1_555 1_555
H4 C2 1_555 1_555
C3 C2 1_555 1_555
H5 C3 1_555 1_555
C4 C3 1_555 1_555
H6 C4 1_555 1_555
C5 O1 1_555 1_555
C6 C1 1_555 1_555
C7 N1 1_555 1_555
H7 C7 1_555 1_555
H8 C7 1_555 1_555
C8 H9 1_555 1_555
H10 C8 1_555 1_555
C9 N1 1_555 1_555
C10 C8 1_555 1_555
H11 C10 1_555 1_555
C11 C10 1_555 1_555
H12 C11 1_555 1_555
H13 C11 1_555 1_555
C12 C10 1_555 1_555
H14 C12 1_555 1_555
H15 C12 1_555 1_555
C13 C11 1_555 1_555
H16 C13 1_555 1_555
C14 C13 1_555 1_555
H17 C14 1_555 1_555
H18 C14 1_555 1_555
C15 C12 1_555 1_555
H19 C15 1_555 1_555
C16 C9 1_555 1_555
H20 C16 1_555 1_555
H21 C16 1_555 1_555
C17 C9 1_555 1_555
H22 C17 1_555 1_555
H23 C17 1_555 1_555
O2 H24 1_555 1_555
N2 H25 1_555 1_555
C18 N2 1_555 1_555
C19 C18 1_555 1_555
H26 C19 1_555 1_555
H27 C19 1_555 1_555
C20 C18 1_555 1_555
H28 C20 1_555 1_555
H29 C20 1_555 1_555
C21 C20 1_555 1_555
H30 C21 1_555 1_555
C22 C21 1_555 1_555
H31 C22 1_555 1_555
H32 C22 1_555 1_555
C23 C18 1_555 1_555
H33 C23 1_555 1_555
H34 C23 1_555 1_555
C24 C23 1_555 1_555
H35 C24 1_555 1_555
C25 C21 1_555 1_555
H36 C25 1_555 1_555
H37 C25 1_555 1_555
C26 C19 1_555 1_555
H38 C26 1_555 1_555
C27 C24 1_555 1_555
H39 C27 1_555 1_555
H40 C27 1_555 1_555
C28 N2 1_555 1_555
H41 C28 1_555 1_555
H42 C28 1_555 1_555
C29 C28 1_555 1_555
C30 O2 1_555 1_555
C31 C30 1_555 1_555
H43 C31 1_555 1_555
C32 C31 1_555 1_555
H44 C32 1_555 1_555
C33 C32 1_555 1_555
H45 C33 1_555 1_555
C34 C29 1_555 1_555
H46 C34 1_555 1_555
C4 C5 1_555 1_555
C5 C6 1_555 1_555
C6 C7 1_555 1_555
C8 C9 1_555 1_555
C13 C17 1_555 1_555
C14 C15 1_555 1_555
C15 C16 1_555 1_555
C22 C26 1_555 1_555
C24 C25 1_555 1_555
C26 C27 1_555 1_555
C29 C30 1_555 1_555
C33 C34 1_555 1_555

#END
