
#######################################################################
#
#                 Cambridge Crystallographic Data Centre
#                                CCDC 
#
#######################################################################
#
# If this CIF has been generated from an entry in the Cambridge 
# Structural Database, then it will include bibliographic, chemical, 
# crystal, experimental, refinement or atomic coordinate data resulting 
# from the CCDC's data processing and validation procedures.
#
#######################################################################

data_GAPQAR
_chemical_compound_source        'fruits of Evodia rutaecarpa'
_chemical_name_common            Evodiamide
_chemical_formula_moiety         'C19 H21 N3 O1'
_chemical_name_systematic        
N-(2-(1H-Indol-3-yl)ethyl)-N-methyl-2-(methylamino)benzamide
_symmetry_cell_setting           triclinic
_symmetry_space_group_name_H-M   'P -1'
_symmetry_Int_Tables_number      2
_space_group_name_Hall           '-P 1'
loop_
_symmetry_equiv_pos_site_id
_symmetry_equiv_pos_as_xyz
1 x,y,z
2 -x,-y,-z
_cell_length_a                   8.958(2)
_cell_length_b                   9.886(2)
_cell_length_c                   10.616(2)
_cell_angle_alpha                84.076(4)
_cell_angle_beta                 76.276(4)
_cell_angle_gamma                66.746(3)
_cell_volume                     839.058
_exptl_crystal_colour            colorless
_exptl_crystal_description       prism
_cell_formula_units_Z            2
loop_
_atom_site_label
_atom_site_type_symbol
_atom_site_fract_x
_atom_site_fract_y
_atom_site_fract_z
N1 N 0.7904(2) -0.28425(19) 0.26473(18)
H1 H 0.8747 -0.3553 0.2853
N2 N 0.2948(2) 0.31488(17) 0.37369(17)
N3 N -0.0454(2) 0.23860(19) 0.48132(17)
H2 H 0.0126 0.2686 0.5169
O1 O 0.08389(18) 0.52561(15) 0.34402(16)
C1 C 0.7523(3) -0.1380(2) 0.2787(2)
H3 H 0.8143 -0.1003 0.3127
C2 C 0.6114(2) -0.0550(2) 0.2362(2)
C3 C 0.5579(2) -0.1564(2) 0.19235(18)
C4 C 0.6720(3) -0.2988(2) 0.21239(19)
C5 C 0.6557(3) -0.4248(3) 0.1821(2)
H4 H 0.7322 -0.5180 0.1966
C6 C 0.5236(4) -0.4069(3) 0.1305(2)
H5 H 0.5089 -0.4895 0.1104
C7 C 0.4092(3) -0.2662(3) 0.1069(2)
H6 H 0.3213 -0.2574 0.0701
C8 C 0.4249(3) -0.1416(3) 0.1372(2)
H7 H 0.3485 -0.0488 0.1213
C9 C 0.5227(3) 0.1091(2) 0.2416(2)
H8 H 0.4777 0.1441 0.1644
H9 H 0.6012 0.1537 0.2429
C10 C 0.3823(2) 0.1555(2) 0.3612(2)
H10 H 0.3030 0.1124 0.3580
H11 H 0.4276 0.1165 0.4377
C11 C 0.3714(3) 0.3946(2) 0.4276(2)
H12 H 0.3025 0.4977 0.4307
H13 H 0.4791 0.3800 0.3740
H14 H 0.3831 0.3585 0.5137
C12 C 0.1543(2) 0.3898(2) 0.33301(19)
C13 C 0.0829(2) 0.3066(2) 0.27095(19)
C14 C -0.0184(2) 0.2372(2) 0.34723(19)
C15 C -0.0836(3) 0.1641(2) 0.2837(2)
H15 H -0.1513 0.1177 0.3321
C16 C -0.0495(3) 0.1595(3) 0.1507(2)
H16 H -0.0928 0.1085 0.1105
C17 C 0.0476(3) 0.2289(3) 0.0761(2)
H17 H 0.0689 0.2268 -0.0140
C18 C 0.1131(3) 0.3022(2) 0.1380(2)
H18 H 0.1791 0.3495 0.0885
C19 C -0.1698(3) 0.1902(2) 0.5620(2)
H19 H -0.2751 0.2438 0.5386
H20 H -0.1791 0.2077 0.6514
H21 H -0.1379 0.0869 0.5497
loop_
_geom_bond_atom_site_label_1
_geom_bond_atom_site_label_2
_geom_bond_site_symmetry_1
_geom_bond_site_symmetry_2
N1 H1 1_555 1_555
N2 C10 1_555 1_555
N3 H2 1_555 1_555
O1 C12 1_555 1_555
C1 N1 1_555 1_555
H3 C1 1_555 1_555
C2 C1 1_555 1_555
C3 C2 1_555 1_555
C4 N1 1_555 1_555
C5 C4 1_555 1_555
H4 C5 1_555 1_555
C6 C5 1_555 1_555
H5 C6 1_555 1_555
C7 C6 1_555 1_555
H6 C7 1_555 1_555
C8 C3 1_555 1_555
H7 C8 1_555 1_555
C9 C2 1_555 1_555
H8 C9 1_555 1_555
H9 C9 1_555 1_555
C10 C9 1_555 1_555
H10 C10 1_555 1_555
H11 C10 1_555 1_555
C11 N2 1_555 1_555
H12 C11 1_555 1_555
H13 C11 1_555 1_555
H14 C11 1_555 1_555
C12 N2 1_555 1_555
C13 C12 1_555 1_555
C14 N3 1_555 1_555
C15 C14 1_555 1_555
H15 C15 1_555 1_555
C16 C15 1_555 1_555
H16 C16 1_555 1_555
C17 C16 1_555 1_555
H17 C17 1_555 1_555
C18 C13 1_555 1_555
H18 C18 1_555 1_555
C19 N3 1_555 1_555
H19 C19 1_555 1_555
H20 C19 1_555 1_555
H21 C19 1_555 1_555
C3 C4 1_555 1_555
C7 C8 1_555 1_555
C13 C14 1_555 1_555
C17 C18 1_555 1_555

#END
