
#######################################################################
#
#                 Cambridge Crystallographic Data Centre
#                                CCDC 
#
#######################################################################
#
# If this CIF has been generated from an entry in the Cambridge 
# Structural Database, then it will include bibliographic, chemical, 
# crystal, experimental, refinement or atomic coordinate data resulting 
# from the CCDC's data processing and validation procedures.
#
#######################################################################

data_GAPWUQ
_chemical_formula_moiety         'C12 H17 N1 O7'
_chemical_name_systematic        
1\a-O-Acetyl-2-amino-2-N,3-O-carbonyl-2-deoxy-4,6-O-isopropylidene-D-mannopyranoside
_symmetry_cell_setting           monoclinic
_symmetry_space_group_name_H-M   'C 2'
_symmetry_Int_Tables_number      5
_space_group_name_Hall           'C 2y'
loop_
_symmetry_equiv_pos_site_id
_symmetry_equiv_pos_as_xyz
1 x,y,z
2 -x,y,-z
3 1/2+x,1/2+y,z
4 1/2-x,1/2+y,-z
_cell_length_a                   17.9579(19)
_cell_length_b                   7.8494(9)
_cell_length_c                   11.4280(15)
_cell_angle_alpha                90
_cell_angle_beta                 120.2230(10)
_cell_angle_gamma                90
_cell_volume                     1391.91
_exptl_crystal_colour            colorless
_chemical_melting_point          '441-443 K'
_cell_formula_units_Z            4
_exptl_crystal_recrystallization_method 'ethyl acetate/hexanes'
loop_
_atom_site_label
_atom_site_type_symbol
_atom_site_fract_x
_atom_site_fract_y
_atom_site_fract_z
N1 N -0.02010(9) 0.4697(2) 0.33114(14)
H1 H -0.0522(12) 0.512(3) 0.3553(19)
O1 O 0.10408(7) 0.44939(15) 0.33471(11)
O2 O 0.10689(8) 0.54614(19) 0.52201(11)
O3 O -0.15817(6) 0.33496(15) -0.01661(10)
O4 O -0.28195(7) 0.2112(2) -0.05760(14)
O5 O -0.10236(6) 0.13786(15) 0.16167(11)
O6 O 0.05549(8) -0.16409(17) 0.17514(15)
O7 O 0.11822(6) 0.10650(15) 0.23052(11)
C1 C 0.04849(8) 0.17266(19) 0.24164(14)
H2 H 0.0602 0.1536 0.3350
C2 C 0.04031(8) 0.36127(19) 0.21354(14)
H3 H 0.0478 0.3881 0.1354
C3 C 0.06585(10) 0.4940(2) 0.40675(15)
C4 C -0.04617(9) 0.4315(2) 0.19143(15)
H4 H -0.0608 0.5385 0.1384
C5 C -0.12293(9) 0.3085(2) 0.12574(14)
H5 H -0.1661 0.3445 0.1504
C6 C -0.24208(9) 0.2882(2) -0.09821(16)
C7 C -0.27572(11) 0.3498(3) -0.23961(17)
H6 H -0.3354 0.3150 -0.2956
H7 H -0.2416 0.3013 -0.2755
H8 H -0.2721 0.4731 -0.2397
C8 C -0.03328(9) 0.0792(2) 0.14380(16)
H9 H -0.0470 0.0985 0.0494
C9 C -0.01896(11) -0.1083(2) 0.1781(2)
H10 H -0.0111 -0.1275 0.2684
H11 H -0.0694 -0.1734 0.1125
C10 C 0.13248(10) -0.0714(2) 0.26181(18)
C11 C 0.19696(13) -0.1263(3) 0.2197(2)
H12 H 0.1769 -0.0896 0.1275
H13 H 0.2025 -0.2494 0.2249
H14 H 0.2525 -0.0749 0.2799
C12 C 0.16680(12) -0.1040(3) 0.4109(2)
H15 H 0.1239 -0.0705 0.4342
H16 H 0.2189 -0.0380 0.4642
H17 H 0.1796 -0.2242 0.4300
loop_
_geom_bond_atom_site_label_1
_geom_bond_atom_site_label_2
_geom_bond_site_symmetry_1
_geom_bond_site_symmetry_2
N1 H1 1_555 1_555
O1 C2 1_555 1_555
O2 C3 1_555 1_555
O3 C5 1_555 1_555
O4 C6 1_555 1_555
O5 C5 1_555 1_555
O6 C9 1_555 1_555
O7 C1 1_555 1_555
C1 H2 1_555 1_555
C2 C1 1_555 1_555
H3 C2 1_555 1_555
C3 N1 1_555 1_555
C4 N1 1_555 1_555
H4 C4 1_555 1_555
C5 C4 1_555 1_555
H5 C5 1_555 1_555
C6 O3 1_555 1_555
C7 C6 1_555 1_555
H6 C7 1_555 1_555
H7 C7 1_555 1_555
H8 C7 1_555 1_555
C8 O5 1_555 1_555
H9 C8 1_555 1_555
C9 C8 1_555 1_555
H10 C9 1_555 1_555
H11 C9 1_555 1_555
C10 O6 1_555 1_555
C11 C10 1_555 1_555
H12 C11 1_555 1_555
H13 C11 1_555 1_555
H14 C11 1_555 1_555
C12 C10 1_555 1_555
H15 C12 1_555 1_555
H16 C12 1_555 1_555
H17 C12 1_555 1_555
O1 C3 1_555 1_555
O7 C10 1_555 1_555
C1 C8 1_555 1_555
C2 C4 1_555 1_555

#END
