
#######################################################################
#
#                 Cambridge Crystallographic Data Centre
#                                CCDC 
#
#######################################################################
#
# If this CIF has been generated from an entry in the Cambridge 
# Structural Database, then it will include bibliographic, chemical, 
# crystal, experimental, refinement or atomic coordinate data resulting 
# from the CCDC's data processing and validation procedures.
#
#######################################################################

data_GAQBUY
_chemical_formula_moiety         'C13 H12 N2 O2'
_chemical_name_systematic        
5-methoxy-2-(pyridin-3-ylcarbonoimidoyl)phenol
_symmetry_cell_setting           orthorhombic
_symmetry_space_group_name_H-M   'P 21 21 21'
_symmetry_Int_Tables_number      19
_space_group_name_Hall           'P 2ac 2ab'
loop_
_symmetry_equiv_pos_site_id
_symmetry_equiv_pos_as_xyz
1 x,y,z
2 1/2-x,-y,1/2+z
3 1/2+x,1/2-y,-z
4 -x,1/2+y,1/2-z
_cell_length_a                   3.940(2)
_cell_length_b                   10.506(5)
_cell_length_c                   26.811(14)
_cell_angle_alpha                90
_cell_angle_beta                 90
_cell_angle_gamma                90
_cell_volume                     1109.8
_cell_formula_units_Z            4
loop_
_atom_site_label
_atom_site_type_symbol
_atom_site_fract_x
_atom_site_fract_y
_atom_site_fract_z
O1 O 0.9817(4) 0.63734(12) 0.27416(5)
N1 N 0.7177(4) 0.78187(14) 0.20364(5)
C1 C 0.9018(5) 0.81297(16) 0.38995(6)
O2 O 0.9940(4) 0.78952(11) 0.43816(4)
N2 N 0.6496(5) 0.71786(15) 0.07029(6)
C2 C 0.9019(5) 0.73245(16) 0.30623(6)
C3 C 0.7401(5) 0.84423(15) 0.28936(6)
C4 C 0.6652(5) 0.93772(17) 0.32475(6)
H1 H 0.5603 1.0123 0.3142
C5 C 0.7406(5) 0.92374(16) 0.37455(6)
H2 H 0.6849 0.9870 0.3974
C6 C 0.9358(6) 0.88702(19) 0.47415(6)
H3 H 1.0067 0.8577 0.5064
H4 H 0.6984 0.9074 0.4750
H5 H 1.0633 0.9615 0.4652
C7 C 0.6512(5) 0.86375(17) 0.23810(6)
H6 H 0.5409 0.9387 0.2293
C8 C 0.6248(5) 0.80523(15) 0.15343(6)
C9 C 0.7175(6) 0.71319(17) 0.11915(6)
H7 H 0.8360 0.6428 0.1309
C10 C 0.4835(6) 0.82057(19) 0.05418(7)
H8 H 0.4328 0.8266 0.0204
C11 C 0.9811(5) 0.71812(15) 0.35614(7)
H9 H 1.0884 0.6443 0.3670
C12 C 0.3831(6) 0.91839(19) 0.08532(7)
H10 H 0.2700 0.9888 0.0724
C13 C 0.4519(6) 0.91081(17) 0.13560(7)
H11 H 0.3836 0.9752 0.1572
H12 H 0.882(6) 0.668(2) 0.2422(8)
loop_
_geom_bond_atom_site_label_1
_geom_bond_atom_site_label_2
_geom_bond_site_symmetry_1
_geom_bond_site_symmetry_2
O1 C2 1_555 1_555
N1 C7 1_555 1_555
C1 O2 1_555 1_555
O2 C6 1_555 1_555
N2 C9 1_555 1_555
C2 C3 1_555 1_555
C3 C4 1_555 1_555
C4 H1 1_555 1_555
C5 C1 1_555 1_555
H2 C5 1_555 1_555
C6 H3 1_555 1_555
H4 C6 1_555 1_555
H5 C6 1_555 1_555
C7 C3 1_555 1_555
H6 C7 1_555 1_555
C8 N1 1_555 1_555
C9 C8 1_555 1_555
H7 C9 1_555 1_555
C10 N2 1_555 1_555
H8 C10 1_555 1_555
C11 C1 1_555 1_555
H9 C11 1_555 1_555
C12 C10 1_555 1_555
H10 C12 1_555 1_555
C13 C8 1_555 1_555
H11 C13 1_555 1_555
H12 O1 1_555 1_555
C2 C11 1_555 1_555
C4 C5 1_555 1_555
C12 C13 1_555 1_555

#END
