
#######################################################################
#
#                 Cambridge Crystallographic Data Centre
#                                CCDC 
#
#######################################################################
#
# If this CIF has been generated from an entry in the Cambridge 
# Structural Database, then it will include bibliographic, chemical, 
# crystal, experimental, refinement or atomic coordinate data resulting 
# from the CCDC's data processing and validation procedures.
#
#######################################################################

data_GAQBAD
_chemical_name_common            'Bruceolline E'
_chemical_formula_moiety         'C13 H11 N1 O2'
_chemical_name_systematic        
3,3-Dimethyl-1,2,3,4-tetrahydrocyclopenta[b]indole-1,2-dione
_symmetry_cell_setting           triclinic
_symmetry_space_group_name_H-M   'P -1'
_symmetry_Int_Tables_number      2
_space_group_name_Hall           '-P 1'
loop_
_symmetry_equiv_pos_site_id
_symmetry_equiv_pos_as_xyz
1 x,y,z
2 -x,-y,-z
_cell_length_a                   9.1091(7)
_cell_length_b                   11.5337(8)
_cell_length_c                   11.8745(9)
_cell_angle_alpha                63.230(7)
_cell_angle_beta                 80.596(6)
_cell_angle_gamma                79.970(6)
_cell_volume                     1091.69
_exptl_crystal_colour            yellow
_exptl_crystal_description       block
_chemical_melting_point          '562-563 K'
_cell_formula_units_Z            4
_exptl_crystal_recrystallization_method methanol
loop_
_atom_site_label
_atom_site_type_symbol
_atom_site_fract_x
_atom_site_fract_y
_atom_site_fract_z
O1 O 0.75420(16) 0.86467(16) 0.18664(11)
O2 O 1.05510(14) 0.75658(14) 0.25613(11)
N1 N 0.76832(12) 0.67293(11) 0.63752(10)
H1 H 0.6811(16) 0.6811(16) 0.6806(15)
C1 C 0.67431(15) 0.78837(13) 0.41344(12)
C2 C 0.78552(17) 0.80931(15) 0.29437(13)
C3 C 0.94630(16) 0.75106(15) 0.33304(13)
C4 C 0.93046(14) 0.69760(13) 0.46734(12)
C5 C 1.01358(15) 0.62976(14) 0.57632(13)
C6 C 1.16300(17) 0.58148(19) 0.59556(18)
H2 H 1.2361 0.5907 0.5260
C7 C 1.2022(2) 0.5200(2) 0.7181(2)
H3 H 1.3038 0.4862 0.7326
C8 C 1.0970(2) 0.5060(2) 0.82122(19)
H4 H 1.1280 0.4626 0.9044
C9 C 0.94890(19) 0.55398(18) 0.80488(15)
H5 H 0.8771 0.5453 0.8751
C10 C 0.90872(15) 0.61552(14) 0.68187(13)
C11 C 0.78265(14) 0.71996(12) 0.51124(11)
C12 C 0.6013(2) 0.92013(15) 0.40795(16)
H6 H 0.5338 0.9061 0.4851
H7 H 0.5442 0.9664 0.3338
H8 H 0.6791 0.9724 0.4014
C13 C 0.55503(18) 0.70394(18) 0.42566(17)
H9 H 0.4878 0.6899 0.5029
H10 H 0.6036 0.6194 0.4300
H11 H 0.4972 0.7484 0.3519
N2 N 0.10484(12) 0.81468(12) 1.00094(10)
H12 H 0.0732(19) 0.8074(16) 1.0812(13)
O3 O 0.61629(13) 0.64860(15) 0.94255(14)
O4 O 0.46978(13) 0.73188(12) 0.71755(11)
C14 C 0.38431(14) 0.72921(13) 1.03441(13)
C15 C 0.48880(15) 0.69922(14) 0.93239(15)
C16 C 0.40683(16) 0.74091(13) 0.81363(13)
C17 C 0.25841(14) 0.78537(13) 0.84578(12)
C18 C 0.11410(15) 0.83713(13) 0.79856(12)
C19 C 0.05507(19) 0.87076(16) 0.68526(14)
H13 H 0.1159 0.8600 0.6169
C20 C -0.0938(2) 0.92010(18) 0.67500(16)
H14 H -0.1353 0.9443 0.5980
C21 C -0.18450(19) 0.93526(19) 0.77470(18)
H15 H -0.2867 0.9692 0.7644
C22 C -0.12946(17) 0.90208(18) 0.88854(16)
H16 H -0.1916 0.9120 0.9568
C23 C 0.02018(15) 0.85378(13) 0.89824(12)
C24 C 0.24447(14) 0.77534(12) 0.96840(12)
C25 C 0.37519(19) 0.60627(17) 1.15941(16)
H17 H 0.3434 0.5371 1.1456
H18 H 0.3025 0.6255 1.2211
H19 H 0.4738 0.5772 1.1919
C26 C 0.43957(19) 0.83897(17) 1.04967(18)
H20 H 0.3713 0.8599 1.1125
H21 H 0.4424 0.9168 0.9681
H22 H 0.5403 0.8104 1.0781
loop_
_geom_bond_atom_site_label_1
_geom_bond_atom_site_label_2
_geom_bond_site_symmetry_1
_geom_bond_site_symmetry_2
O1 C2 1_555 1_555
O2 C3 1_555 1_555
N1 H1 1_555 1_555
C1 C2 1_555 1_555
C2 C3 1_555 1_555
C3 C4 1_555 1_555
C4 C5 1_555 1_555
C5 C6 1_555 1_555
C6 H2 1_555 1_555
C7 C6 1_555 1_555
H3 C7 1_555 1_555
C8 C7 1_555 1_555
H4 C8 1_555 1_555
C9 C8 1_555 1_555
H5 C9 1_555 1_555
C10 N1 1_555 1_555
C11 N1 1_555 1_555
C12 C1 1_555 1_555
H6 C12 1_555 1_555
H7 C12 1_555 1_555
H8 C12 1_555 1_555
C13 C1 1_555 1_555
H9 C13 1_555 1_555
H10 C13 1_555 1_555
H11 C13 1_555 1_555
N2 H12 1_555 1_555
O3 C15 1_555 1_555
O4 C16 1_555 1_555
C14 C15 1_555 1_555
C15 C16 1_555 1_555
C16 C17 1_555 1_555
C17 C18 1_555 1_555
C18 C19 1_555 1_555
C19 H13 1_555 1_555
C20 C19 1_555 1_555
H14 C20 1_555 1_555
C21 C20 1_555 1_555
H15 C21 1_555 1_555
C22 C21 1_555 1_555
H16 C22 1_555 1_555
C23 N2 1_555 1_555
C24 N2 1_555 1_555
C25 C14 1_555 1_555
H17 C25 1_555 1_555
H18 C25 1_555 1_555
H19 C25 1_555 1_555
C26 C14 1_555 1_555
H20 C26 1_555 1_555
H21 C26 1_555 1_555
H22 C26 1_555 1_555
C1 C11 1_555 1_555
C4 C11 1_555 1_555
C5 C10 1_555 1_555
C9 C10 1_555 1_555
C14 C24 1_555 1_555
C17 C24 1_555 1_555
C18 C23 1_555 1_555
C22 C23 1_555 1_555

#END
