
#######################################################################
#
#                 Cambridge Crystallographic Data Centre
#                                CCDC 
#
#######################################################################
#
# If this CIF has been generated from an entry in the Cambridge 
# Structural Database, then it will include bibliographic, chemical, 
# crystal, experimental, refinement or atomic coordinate data resulting 
# from the CCDC's data processing and validation procedures.
#
#######################################################################

data_GAQBEH
_chemical_formula_moiety         'C15 H10 Cl2 O2'
_chemical_name_systematic        
(2E)-1-(3,4-Dichlorophenyl)-3-(2-hydroxyphenyl)prop-2-en-1-one
_symmetry_cell_setting           triclinic
_symmetry_space_group_name_H-M   'P -1'
_symmetry_Int_Tables_number      2
_space_group_name_Hall           '-P 1'
loop_
_symmetry_equiv_pos_site_id
_symmetry_equiv_pos_as_xyz
1 x,y,z
2 -x,-y,-z
_cell_length_a                   7.2551(6)
_cell_length_b                   7.8351(7)
_cell_length_c                   12.8049(11)
_cell_angle_alpha                92.367(7)
_cell_angle_beta                 102.946(8)
_cell_angle_gamma                109.011(8)
_cell_volume                     665.515
_exptl_crystal_colour            'pale yellow'
_exptl_crystal_description       plate
_cell_formula_units_Z            2
_exptl_crystal_recrystallization_method ethanol
loop_
_atom_site_label
_atom_site_type_symbol
_atom_site_fract_x
_atom_site_fract_y
_atom_site_fract_z
Cl1 Cl 0.23632(10) 1.23387(8) 0.22164(5)
Cl2 Cl 0.34479(10) 0.94069(9) 0.09406(4)
O1 O 0.2056(2) 0.98170(17) 0.58884(10)
O2 O 0.2367(2) 0.33480(17) 0.62755(10)
H1 H 0.232(3) 0.227(2) 0.6153(17)
C1 C 0.2381(3) 1.0221(2) 0.38083(14)
H2 H 0.2107 1.1106 0.4190
C2 C 0.2633(3) 1.0443(2) 0.27863(15)
C3 C 0.3060(3) 0.9139(3) 0.22129(14)
C4 C 0.3205(3) 0.7606(3) 0.26707(15)
H3 H 0.3489 0.6729 0.2288
C5 C 0.2930(3) 0.7374(2) 0.36929(14)
H4 H 0.3012 0.6332 0.3992
C6 C 0.2531(3) 0.8688(2) 0.42820(13)
C7 C 0.2250(3) 0.8537(2) 0.53956(14)
C8 C 0.2227(3) 0.6882(2) 0.58971(13)
H5 H 0.2293 0.5889 0.5503
C9 C 0.2112(3) 0.6809(2) 0.69169(14)
H6 H 0.1997 0.7842 0.7240
C10 C 0.2133(3) 0.5400(2) 0.76114(13)
C11 C 0.2267(3) 0.3713(2) 0.73036(13)
C12 C 0.2295(3) 0.2466(3) 0.80426(15)
H7 H 0.2381 0.1349 0.7833
C13 C 0.2196(4) 0.2864(3) 0.90771(16)
H8 H 0.2220 0.2019 0.9565
C14 C 0.2061(4) 0.4516(3) 0.93985(16)
H9 H 0.1996 0.4787 1.0100
C15 C 0.2024(3) 0.5748(3) 0.86740(15)
H10 H 0.1923 0.6853 0.8894
loop_
_geom_bond_atom_site_label_1
_geom_bond_atom_site_label_2
_geom_bond_site_symmetry_1
_geom_bond_site_symmetry_2
Cl1 C2 1_555 1_555
Cl2 C3 1_555 1_555
O1 C7 1_555 1_555
O2 H1 1_555 1_555
C1 H2 1_555 1_555
C2 C1 1_555 1_555
C3 C2 1_555 1_555
C4 C3 1_555 1_555
H3 C4 1_555 1_555
C5 C4 1_555 1_555
H4 C5 1_555 1_555
C6 C1 1_555 1_555
C7 C6 1_555 1_555
C8 C7 1_555 1_555
H5 C8 1_555 1_555
C9 C8 1_555 1_555
H6 C9 1_555 1_555
C10 C9 1_555 1_555
C11 O2 1_555 1_555
C12 C11 1_555 1_555
H7 C12 1_555 1_555
C13 C12 1_555 1_555
H8 C13 1_555 1_555
C14 C13 1_555 1_555
H9 C14 1_555 1_555
C15 C10 1_555 1_555
H10 C15 1_555 1_555
C5 C6 1_555 1_555
C10 C11 1_555 1_555
C14 C15 1_555 1_555

#END
