
#######################################################################
#
#                 Cambridge Crystallographic Data Centre
#                                CCDC 
#
#######################################################################
#
# If this CIF has been generated from an entry in the Cambridge 
# Structural Database, then it will include bibliographic, chemical, 
# crystal, experimental, refinement or atomic coordinate data resulting 
# from the CCDC's data processing and validation procedures.
#
#######################################################################

data_GAQDEJ
_chemical_name_common            
'((4-Chlorophenyl)imino)diethane-2,1-diyl bis(1H-pyrrole-2-carboxylate)'
_chemical_formula_moiety         'C20 H20 Cl1 N3 O4'
_chemical_name_systematic        
'2-(4-Chloro-N-(2-[(1H-pyrrol-2-yl)carbonyloxy]ethyl)anilino)ethyl 1H-pyrrole-2-carboxylate'
_symmetry_cell_setting           monoclinic
_symmetry_space_group_name_H-M   'P 21/c'
_symmetry_Int_Tables_number      14
_space_group_name_Hall           '-P 2ybc'
loop_
_symmetry_equiv_pos_site_id
_symmetry_equiv_pos_as_xyz
1 x,y,z
2 -x,1/2+y,1/2-z
3 -x,-y,-z
4 x,1/2-y,1/2+z
_cell_length_a                   19.972(2)
_cell_length_b                   4.7426(5)
_cell_length_c                   20.613(2)
_cell_angle_alpha                90
_cell_angle_beta                 95.815(2)
_cell_angle_gamma                90
_cell_volume                     1942.4
_exptl_crystal_colour            yellow
_exptl_crystal_description       block
_chemical_melting_point          '438 K'
_cell_formula_units_Z            4
loop_
_atom_site_label
_atom_site_type_symbol
_atom_site_fract_x
_atom_site_fract_y
_atom_site_fract_z
Cl1 Cl 0.28670(5) 0.3365(2) 0.13385(4)
O1 O 0.42313(10) 1.2588(4) 0.50098(10)
O2 O 0.37700(9) 0.9028(4) 0.43966(8)
O3 O 0.06269(9) 0.9926(4) 0.41172(8)
O4 O 0.05353(10) 1.1201(5) 0.30620(8)
N1 N 0.51710(12) 1.3321(5) 0.40646(11)
H1 H 0.5250 1.4524 0.4375
N2 N 0.23923(11) 0.7752(5) 0.39523(11)
N3 N -0.05067(11) 1.4950(5) 0.33134(10)
H2 H -0.0412 1.5110 0.2917
C1 C 0.55231(16) 1.3079(7) 0.35432(15)
H3 H 0.5892 1.4169 0.3462
C2 C 0.52445(16) 1.0957(7) 0.31537(15)
H4 H 0.5388 1.0351 0.2761
C3 C 0.47069(15) 0.9876(7) 0.34556(14)
H5 H 0.4424 0.8414 0.3301
C4 C 0.46687(14) 1.1355(6) 0.40230(13)
C5 C 0.42220(14) 1.1110(7) 0.45249(14)
C6 C 0.32809(13) 0.8638(7) 0.48606(12)
H6 H 0.3082 1.0432 0.4961
H7 H 0.3494 0.7831 0.5262
C7 C 0.27484(14) 0.6671(6) 0.45514(13)
H8 H 0.2958 0.4891 0.4458
H9 H 0.2425 0.6301 0.4862
C8 C 0.25169(13) 0.6761(6) 0.33371(13)
C9 C 0.30389(14) 0.4884(7) 0.32549(14)
H10 H 0.3324 0.4320 0.3616
C10 C 0.31402(15) 0.3851(7) 0.26484(16)
H11 H 0.3481 0.2547 0.2607
C11 C 0.27436(16) 0.4726(7) 0.21056(14)
C12 C 0.22420(15) 0.6637(7) 0.21674(14)
H12 H 0.1978 0.7265 0.1798
C13 C 0.21230(14) 0.7647(7) 0.27770(14)
H13 H 0.1776 0.8930 0.2812
C14 C 0.18334(13) 0.9640(6) 0.40279(13)
H14 H 0.1808 1.1052 0.3686
H15 H 0.1910 1.0604 0.4444
C15 C 0.11705(13) 0.8046(6) 0.39957(14)
H16 H 0.1076 0.7194 0.3568
H17 H 0.1204 0.6548 0.4318
C16 C 0.03441(14) 1.1389(6) 0.36010(13)
C17 C -0.01934(13) 1.3157(6) 0.37684(12)
C18 C -0.04881(14) 1.3549(6) 0.43337(13)
H18 H -0.0375 1.2621 0.4727
C19 C -0.09868(15) 1.5583(7) 0.42135(15)
H19 H -0.1270 1.6252 0.4510
C20 C -0.09841(15) 1.6418(7) 0.35789(15)
H20 H -0.1265 1.7770 0.3368
loop_
_geom_bond_atom_site_label_1
_geom_bond_atom_site_label_2
_geom_bond_site_symmetry_1
_geom_bond_site_symmetry_2
Cl1 C11 1_555 1_555
O1 C5 1_555 1_555
O2 C5 1_555 1_555
O3 C15 1_555 1_555
O4 C16 1_555 1_555
N1 H1 1_555 1_555
N2 C7 1_555 1_555
N3 H2 1_555 1_555
C1 N1 1_555 1_555
H3 C1 1_555 1_555
C2 C1 1_555 1_555
H4 C2 1_555 1_555
C3 C2 1_555 1_555
H5 C3 1_555 1_555
C4 N1 1_555 1_555
C5 C4 1_555 1_555
C6 O2 1_555 1_555
H6 C6 1_555 1_555
H7 C6 1_555 1_555
C7 C6 1_555 1_555
H8 C7 1_555 1_555
H9 C7 1_555 1_555
C8 N2 1_555 1_555
C9 C8 1_555 1_555
H10 C9 1_555 1_555
C10 C9 1_555 1_555
H11 C10 1_555 1_555
C11 C10 1_555 1_555
C12 C11 1_555 1_555
H12 C12 1_555 1_555
C13 C8 1_555 1_555
H13 C13 1_555 1_555
C14 N2 1_555 1_555
H14 C14 1_555 1_555
H15 C14 1_555 1_555
C15 C14 1_555 1_555
H16 C15 1_555 1_555
H17 C15 1_555 1_555
C16 O3 1_555 1_555
C17 N3 1_555 1_555
C18 C17 1_555 1_555
H18 C18 1_555 1_555
C19 C18 1_555 1_555
H19 C19 1_555 1_555
C20 N3 1_555 1_555
H20 C20 1_555 1_555
C3 C4 1_555 1_555
C12 C13 1_555 1_555
C16 C17 1_555 1_555
C19 C20 1_555 1_555

#END
