
#######################################################################
#
#                 Cambridge Crystallographic Data Centre
#                                CCDC 
#
#######################################################################
#
# If this CIF has been generated from an entry in the Cambridge 
# Structural Database, then it will include bibliographic, chemical, 
# crystal, experimental, refinement or atomic coordinate data resulting 
# from the CCDC's data processing and validation procedures.
#
#######################################################################

data_GAQDIN
_chemical_formula_moiety         'C19 H19 N3 O7 S1,C1 H4 O1'
_chemical_name_systematic        
'4-Hydroxy-3,5-dimethoxy-N-(4-[(5-methyl-1,2-oxazol-3-yl)sulfamoyl]phenyl)benzamide methanol solvate'
_symmetry_cell_setting           monoclinic
_symmetry_space_group_name_H-M   'P 21/n'
_symmetry_Int_Tables_number      14
_space_group_name_Hall           '-P 2yn'
loop_
_symmetry_equiv_pos_site_id
_symmetry_equiv_pos_as_xyz
1 x,y,z
2 1/2-x,1/2+y,1/2-z
3 -x,-y,-z
4 1/2+x,1/2-y,1/2+z
_cell_length_a                   12.133(11)
_cell_length_b                   8.684(8)
_cell_length_c                   20.983(19)
_cell_angle_alpha                90
_cell_angle_beta                 102.043(13)
_cell_angle_gamma                90
_cell_volume                     2162.17
_exptl_crystal_colour            colorless
_exptl_crystal_description       block
_chemical_melting_point          '494 K'
_cell_formula_units_Z            4
loop_
_atom_site_label
_atom_site_type_symbol
_atom_site_fract_x
_atom_site_fract_y
_atom_site_fract_z
S1 S 0.18631(5) 0.23253(8) 1.00904(3)
O1 O 0.29542(15) 1.3250(2) 0.77380(10)
O2 O 0.49358(17) 1.4549(2) 0.80363(10)
O3 O 0.66996(15) 1.3222(2) 0.88701(11)
O4 O 0.51958(15) 0.7933(2) 0.92734(11)
O5 O 0.06867(14) 0.2401(2) 1.00843(10)
O6 O 0.23161(17) 0.1065(2) 0.97917(10)
O7 O 0.24567(19) 0.4522(3) 1.22145(11)
N1 N 0.33231(17) 0.8292(2) 0.91667(11)
N2 N 0.25363(17) 0.2263(3) 1.08544(11)
N3 N 0.3029(2) 0.3712(3) 1.17963(13)
C1 C 0.4473(2) 1.0346(3) 0.88707(12)
C2 C 0.5519(2) 1.1046(3) 0.90221(13)
C3 C 0.5688(2) 1.2450(3) 0.87506(13)
C4 C 0.4811(2) 1.3181(3) 0.83263(13)
C5 C 0.3754(2) 1.2467(3) 0.81737(13)
C6 C 0.3588(2) 1.1071(3) 0.84468(13)
C7 C 0.4365(2) 0.8765(3) 0.91227(13)
C8 C 0.1907(2) 1.2484(4) 0.75269(19)
C9 C 0.7670(2) 1.2299(4) 0.88784(19)
C10 C 0.3002(2) 0.6841(3) 0.93632(13)
C11 C 0.1948(2) 0.6720(3) 0.95179(14)
C12 C 0.1587(2) 0.5344(3) 0.97264(14)
C13 C 0.2275(2) 0.4053(3) 0.97739(13)
C14 C 0.3311(2) 0.4152(3) 0.96069(14)
C15 C 0.3678(2) 0.5532(3) 0.94009(14)
C16 C 0.2235(2) 0.3183(3) 1.13335(13)
C17 C 0.1158(2) 0.3594(3) 1.14200(15)
C18 C 0.1341(3) 0.4427(4) 1.19678(15)
C19 C 0.0590(3) 0.5249(5) 1.23277(19)
H1 H 0.2792 0.8958 0.9062
H2 H 0.560(3) 1.487(4) 0.8163(16)
H3 H 0.3095 0.1639 1.0962
H4 H 0.6109 1.0569 0.9308
H5 H 0.2881 1.0608 0.8349
H7 H 0.1408 1.3128 0.7224
H8 H 0.1578 1.2274 0.7896
H9 H 0.2028 1.1534 0.7318
H10 H 0.8330 1.2939 0.8963
H11 H 0.7607 1.1802 0.8464
H12 H 0.7729 1.1534 0.9214
H13 H 0.1481 0.7579 0.9480
H14 H 0.0884 0.5278 0.9835
H15 H 0.3766 0.3284 0.9633
H16 H 0.4378 0.5590 0.9287
H17 H 0.0468 0.3343 1.1154
H18 H 0.1035 0.5718 1.2711
H19 H 0.0072 0.4531 1.2452
H20 H 0.0178 0.6030 1.2053
O8 O 0.40341(19) 0.4397(3) 0.65913(12)
C20 C 0.4962(3) 0.5218(5) 0.64565(19)
H6 H 0.418(4) 0.420(6) 0.704(3)
H21 H 0.4828 0.6303 0.6482
H22 H 0.5060 0.4965 0.6026
H23 H 0.5630 0.4944 0.6769
loop_
_geom_bond_atom_site_label_1
_geom_bond_atom_site_label_2
_geom_bond_site_symmetry_1
_geom_bond_site_symmetry_2
S1 O5 1_555 1_555
O1 C5 1_555 1_555
O2 C4 1_555 1_555
O3 C3 1_555 1_555
O4 C7 1_555 1_555
O6 S1 1_555 1_555
O7 N3 1_555 1_555
O8 C20 1_555 1_555
N1 C7 1_555 1_555
N2 S1 1_555 1_555
N3 C16 1_555 1_555
C1 C2 1_555 1_555
C2 C3 1_555 1_555
C3 C4 1_555 1_555
C4 C5 1_555 1_555
C5 C6 1_555 1_555
C6 C1 1_555 1_555
C7 C1 1_555 1_555
C8 O1 1_555 1_555
C9 O3 1_555 1_555
C10 N1 1_555 1_555
C11 C10 1_555 1_555
C12 C11 1_555 1_555
C13 S1 1_555 1_555
C14 C13 1_555 1_555
C15 C10 1_555 1_555
C16 N2 1_555 1_555
C17 C16 1_555 1_555
C18 O7 1_555 1_555
C19 C18 1_555 1_555
C20 H21 1_555 1_555
H1 N1 1_555 1_555
H2 O2 1_555 1_555
H3 N2 1_555 1_555
H4 C2 1_555 1_555
H5 C6 1_555 1_555
H6 O8 1_555 1_555
H7 C8 1_555 1_555
H8 C8 1_555 1_555
H9 C8 1_555 1_555
H10 C9 1_555 1_555
H11 C9 1_555 1_555
H12 C9 1_555 1_555
H13 C11 1_555 1_555
H14 C12 1_555 1_555
H15 C14 1_555 1_555
H16 C15 1_555 1_555
H17 C17 1_555 1_555
H18 C19 1_555 1_555
H19 C19 1_555 1_555
H20 C19 1_555 1_555
H22 C20 1_555 1_555
H23 C20 1_555 1_555
C12 C13 1_555 1_555
C14 C15 1_555 1_555
C17 C18 1_555 1_555

#END
