
#######################################################################
#
#                 Cambridge Crystallographic Data Centre
#                                CCDC 
#
#######################################################################
#
# If this CIF has been generated from an entry in the Cambridge 
# Structural Database, then it will include bibliographic, chemical, 
# crystal, experimental, refinement or atomic coordinate data resulting 
# from the CCDC's data processing and validation procedures.
#
#######################################################################

data_GAQFAI
_chemical_formula_moiety         'C21 H19 N3 O2'
_chemical_name_systematic        
5-isopropoxy-2-(6-phenylpyrazolo[1,5-a]pyrimidin-5-yl)phenol
_symmetry_cell_setting           triclinic
_symmetry_space_group_name_H-M   'P -1'
_symmetry_Int_Tables_number      2
_space_group_name_Hall           '-P 1'
loop_
_symmetry_equiv_pos_site_id
_symmetry_equiv_pos_as_xyz
1 x,y,z
2 -x,-y,-z
_cell_length_a                   8.1190(16)
_cell_length_b                   10.068(2)
_cell_length_c                   11.358(2)
_cell_angle_alpha                78.243(4)
_cell_angle_beta                 76.333(4)
_cell_angle_gamma                82.689(4)
_cell_volume                     880.153
_exptl_crystal_colour            yellow
_exptl_crystal_description       Prism
_cell_formula_units_Z            2
loop_
_atom_site_label
_atom_site_type_symbol
_atom_site_fract_x
_atom_site_fract_y
_atom_site_fract_z
N1 N 0.7379(5) 0.0935(4) -0.0404(4)
N2 N 0.4888(5) 0.2446(4) -0.0196(3)
N3 N 0.8276(5) 0.0024(4) -0.1098(4)
O1 O 0.2080(5) 0.3882(4) 0.0010(3)
H1 H 0.2708 0.3211 -0.0159
O2 O 0.0634(4) 0.6718(4) 0.3032(3)
C1 C 0.5920(6) 0.1508(5) -0.0786(4)
C2 C 0.5868(6) 0.0920(5) -0.1774(4)
H2 H 0.5038 0.1078 -0.2240
C3 C 0.7336(7) 0.0040(5) -0.1915(5)
H3 H 0.7635 -0.0491 -0.2526
C4 C 0.7736(6) 0.1210(5) 0.0620(4)
H4 H 0.8716 0.0796 0.0873
C5 C 0.6695(5) 0.2075(4) 0.1280(4)
C6 C 0.5229(6) 0.2785(4) 0.0798(4)
C7 C 0.4050(6) 0.3846(4) 0.1331(4)
C8 C 0.2531(6) 0.4329(5) 0.0933(4)
C9 C 0.1367(6) 0.5292(5) 0.1471(4)
H5 H 0.0379 0.5593 0.1183
C10 C 0.1676(6) 0.5794(5) 0.2418(4)
C11 C 0.3215(6) 0.5401(5) 0.2789(5)
H6 H 0.3470 0.5775 0.3402
C12 C 0.4348(6) 0.4458(5) 0.2243(4)
H7 H 0.5370 0.4216 0.2497
C13 C -0.1042(6) 0.7170(5) 0.2787(5)
H8 H -0.0966 0.7431 0.1898
C14 C -0.2210(9) 0.6108(7) 0.3306(8)
H9 H -0.1847 0.5350 0.2886
H10 H -0.3335 0.6460 0.3209
H11 H -0.2217 0.5813 0.4166
C15 C -0.1581(7) 0.8419(6) 0.3401(6)
H12 H -0.0792 0.9097 0.3031
H13 H -0.1592 0.8163 0.4264
H14 H -0.2699 0.8781 0.3293
C16 C 0.7101(6) 0.2137(4) 0.2473(4)
C17 C 0.5976(7) 0.1704(5) 0.3584(5)
H15 H 0.4914 0.1458 0.3575
C18 C 0.6426(8) 0.1636(6) 0.4695(5)
H16 H 0.5675 0.1339 0.5431
C19 C 0.8033(8) 0.2023(6) 0.4705(6)
H17 H 0.8339 0.2007 0.5447
C20 C 0.9122(8) 0.2415(6) 0.3623(5)
H18 H 1.0189 0.2655 0.3629
C21 C 0.8691(6) 0.2470(5) 0.2509(5)
H19 H 0.9471 0.2732 0.1778
loop_
_geom_bond_atom_site_label_1
_geom_bond_atom_site_label_2
_geom_bond_site_symmetry_1
_geom_bond_site_symmetry_2
N1 N3 1_555 1_555
N2 C1 1_555 1_555
N3 C3 1_555 1_555
O1 H1 1_555 1_555
O2 C10 1_555 1_555
C1 N1 1_555 1_555
C2 C1 1_555 1_555
H2 C2 1_555 1_555
C3 C2 1_555 1_555
H3 C3 1_555 1_555
C4 N1 1_555 1_555
H4 C4 1_555 1_555
C5 C4 1_555 1_555
C6 N2 1_555 1_555
C7 C6 1_555 1_555
C8 O1 1_555 1_555
C9 C8 1_555 1_555
H5 C9 1_555 1_555
C10 C9 1_555 1_555
C11 C10 1_555 1_555
H6 C11 1_555 1_555
C12 C7 1_555 1_555
H7 C12 1_555 1_555
C13 O2 1_555 1_555
H8 C13 1_555 1_555
C14 C13 1_555 1_555
H9 C14 1_555 1_555
H10 C14 1_555 1_555
H11 C14 1_555 1_555
C15 C13 1_555 1_555
H12 C15 1_555 1_555
H13 C15 1_555 1_555
H14 C15 1_555 1_555
C16 C5 1_555 1_555
C17 C16 1_555 1_555
H15 C17 1_555 1_555
C18 C17 1_555 1_555
H16 C18 1_555 1_555
C19 C18 1_555 1_555
H17 C19 1_555 1_555
C20 C19 1_555 1_555
H18 C20 1_555 1_555
C21 C16 1_555 1_555
H19 C21 1_555 1_555
C5 C6 1_555 1_555
C7 C8 1_555 1_555
C11 C12 1_555 1_555
C20 C21 1_555 1_555

#END
