
#######################################################################
#
#                 Cambridge Crystallographic Data Centre
#                                CCDC 
#
#######################################################################
#
# If this CIF has been generated from an entry in the Cambridge 
# Structural Database, then it will include bibliographic, chemical, 
# crystal, experimental, refinement or atomic coordinate data resulting 
# from the CCDC's data processing and validation procedures.
#
#######################################################################

data_GAQFUB
_chemical_name_common            'Diphenylmethyl isothiocyanate'
_chemical_formula_moiety         'C14 H11 N1 S1'
_chemical_name_systematic        1,1'-(Isothiocyanatomethylene)dibenzene
_symmetry_cell_setting           triclinic
_symmetry_space_group_name_H-M   'P -1'
_symmetry_Int_Tables_number      2
_space_group_name_Hall           '-P 1'
loop_
_symmetry_equiv_pos_site_id
_symmetry_equiv_pos_as_xyz
1 x,y,z
2 -x,-y,-z
_cell_length_a                   9.635(5)
_cell_length_b                   10.222(6)
_cell_length_c                   11.974(7)
_cell_angle_alpha                98.491(13)
_cell_angle_beta                 95.296(15)
_cell_angle_gamma                93.573(6)
_cell_volume                     1157.94
_exptl_crystal_colour            colorless
_exptl_crystal_description       prism
_cell_formula_units_Z            4
loop_
_atom_site_label
_atom_site_type_symbol
_atom_site_fract_x
_atom_site_fract_y
_atom_site_fract_z
S1 S 0.10665(4) 0.73024(4) 0.96006(4)
N1 N 0.10403(14) 0.46640(15) 0.86731(12)
C1 C 0.14265(15) 0.41926(16) 0.63396(13)
H1 H 0.1367 0.5072 0.6711
C2 C 0.15692(15) 0.39629(17) 0.51813(14)
H2 H 0.1605 0.4686 0.4766
C3 C 0.16580(15) 0.26911(17) 0.46354(13)
H3 H 0.1770 0.2538 0.3848
C4 C 0.15828(15) 0.16335(16) 0.52411(13)
H4 H 0.1623 0.0754 0.4863
C5 C 0.14493(15) 0.18588(15) 0.63921(13)
H5 H 0.1411 0.1133 0.6803
C6 C 0.13704(14) 0.31449(15) 0.69539(12)
C7 C 0.12841(16) 0.33178(15) 0.82319(12)
H6 H 0.0469 0.2731 0.8372
C8 C 0.25897(15) 0.28997(15) 0.88646(12)
C9 C 0.38754(16) 0.36001(17) 0.88849(13)
H7 H 0.3937 0.4374 0.8534
C10 C 0.50688(16) 0.31767(18) 0.94139(13)
H8 H 0.5947 0.3656 0.9421
C11 C 0.49818(16) 0.20569(17) 0.99316(13)
H9 H 0.5800 0.1768 1.0296
C12 C 0.37035(17) 0.13574(16) 0.99191(13)
H10 H 0.3645 0.0585 1.0272
C13 C 0.25053(16) 0.17819(15) 0.93923(12)
H11 H 0.1627 0.1306 0.9393
C14 C 0.10830(15) 0.57794(17) 0.90672(13)
S2 S 0.11876(4) 1.01973(4) 0.18909(4)
N2 N 0.27245(15) 0.85453(13) 0.30434(11)
C15 C 0.25922(15) 0.57519(16) 0.25156(13)
H12 H 0.1838 0.6219 0.2249
C16 C 0.26212(16) 0.44037(16) 0.21331(13)
H13 H 0.1888 0.3949 0.1607
C17 C 0.37235(16) 0.37218(16) 0.25209(13)
H14 H 0.3748 0.2801 0.2256
C18 C 0.47868(16) 0.43822(15) 0.32921(13)
H15 H 0.5539 0.3914 0.3560
C19 C 0.47557(15) 0.57276(15) 0.36751(12)
H16 H 0.5486 0.6178 0.4206
C20 C 0.36602(15) 0.64199(14) 0.32856(12)
C21 C 0.37093(15) 0.79000(14) 0.37246(12)
H17 H 0.4669 0.8293 0.3656
C22 C 0.34411(15) 0.81973(14) 0.49715(13)
C23 C 0.45057(16) 0.87830(14) 0.57871(13)
H18 H 0.5404 0.9000 0.5567
C24 C 0.42671(16) 0.90538(15) 0.69248(13)
H19 H 0.4997 0.9462 0.7478
C25 C 0.29602(16) 0.87249(15) 0.72478(13)
H20 H 0.2791 0.8911 0.8022
C26 C 0.19007(16) 0.81236(15) 0.64359(13)
H21 H 0.1009 0.7890 0.6659
C27 C 0.21326(15) 0.78614(15) 0.53047(13)
H22 H 0.1401 0.7452 0.4754
C28 C 0.20928(15) 0.92584(15) 0.25600(12)
loop_
_geom_bond_atom_site_label_1
_geom_bond_atom_site_label_2
_geom_bond_site_symmetry_1
_geom_bond_site_symmetry_2
S1 C14 1_555 1_555
S2 C28 1_555 1_555
N1 C7 1_555 1_555
N2 C21 1_555 1_555
C1 H1 1_555 1_555
C2 C1 1_555 1_555
H2 C2 1_555 1_555
C3 C2 1_555 1_555
H3 C3 1_555 1_555
C4 C3 1_555 1_555
H4 C4 1_555 1_555
C5 C4 1_555 1_555
H5 C5 1_555 1_555
C6 C1 1_555 1_555
C7 C6 1_555 1_555
H6 C7 1_555 1_555
C8 C7 1_555 1_555
C9 C8 1_555 1_555
H7 C9 1_555 1_555
C10 C9 1_555 1_555
H8 C10 1_555 1_555
C11 C10 1_555 1_555
H9 C11 1_555 1_555
C12 C11 1_555 1_555
H10 C12 1_555 1_555
C13 C8 1_555 1_555
H11 C13 1_555 1_555
C14 N1 1_555 1_555
C15 H12 1_555 1_555
C16 C15 1_555 1_555
H13 C16 1_555 1_555
C17 C16 1_555 1_555
H14 C17 1_555 1_555
C18 C17 1_555 1_555
H15 C18 1_555 1_555
C19 C18 1_555 1_555
H16 C19 1_555 1_555
C20 C15 1_555 1_555
C21 C20 1_555 1_555
H17 C21 1_555 1_555
C22 C21 1_555 1_555
C23 C22 1_555 1_555
H18 C23 1_555 1_555
C24 C23 1_555 1_555
H19 C24 1_555 1_555
C25 C24 1_555 1_555
H20 C25 1_555 1_555
C26 C25 1_555 1_555
H21 C26 1_555 1_555
C27 C22 1_555 1_555
H22 C27 1_555 1_555
C28 N2 1_555 1_555
C5 C6 1_555 1_555
C12 C13 1_555 1_555
C19 C20 1_555 1_555
C26 C27 1_555 1_555

#END
