
#######################################################################
#
#                 Cambridge Crystallographic Data Centre
#                                CCDC 
#
#######################################################################
#
# If this CIF has been generated from an entry in the Cambridge 
# Structural Database, then it will include bibliographic, chemical, 
# crystal, experimental, refinement or atomic coordinate data resulting 
# from the CCDC's data processing and validation procedures.
#
#######################################################################

data_GAQMUI
_chemical_formula_moiety         'C8 H5 N1 O1 S2'
_chemical_name_systematic        4-(Pyridin-2-yl)-1,3-dithiol-2-one
_symmetry_cell_setting           orthorhombic
_symmetry_space_group_name_H-M   'P n a 21'
_symmetry_Int_Tables_number      33
_space_group_name_Hall           'P 2c -2n'
loop_
_symmetry_equiv_pos_site_id
_symmetry_equiv_pos_as_xyz
1 x,y,z
2 1/2-x,1/2+y,1/2+z
3 1/2+x,1/2-y,z
4 -x,-y,1/2+z
_cell_length_a                   11.157(2)
_cell_length_b                   5.3216(10)
_cell_length_c                   13.689(3)
_cell_angle_alpha                90
_cell_angle_beta                 90
_cell_angle_gamma                90
_cell_volume                     812.758
_exptl_crystal_colour            colorless
_exptl_crystal_description       block
_cell_formula_units_Z            4
loop_
_atom_site_label
_atom_site_type_symbol
_atom_site_fract_x
_atom_site_fract_y
_atom_site_fract_z
S1 S 0.29937(7) 1.06740(15) 0.65200(6)
S2 S 0.53107(7) 1.18329(17) 0.55954(7)
O1 O 0.3307(3) 1.4374(5) 0.52711(19)
N1 N 0.2818(2) 0.6783(5) 0.7860(2)
C1 C 0.4232(3) 0.8896(6) 0.6876(2)
C2 C 0.3981(3) 0.6970(6) 0.7623(2)
C3 C 0.2525(4) 0.5068(7) 0.8529(3)
H1 H 0.1713 0.4931 0.8704
C4 C 0.3323(4) 0.3487(7) 0.8980(3)
H2 H 0.3068 0.2274 0.9434
C5 C 0.4513(4) 0.3754(7) 0.8740(3)
H3 H 0.5091 0.2738 0.9047
C6 C 0.4867(3) 0.5504(6) 0.8052(3)
H4 H 0.5678 0.5695 0.7880
C7 C 0.5273(3) 0.9427(6) 0.6451(2)
H5 H 0.5970 0.8523 0.6609
C8 C 0.3772(3) 1.2650(6) 0.5707(2)
loop_
_geom_bond_atom_site_label_1
_geom_bond_atom_site_label_2
_geom_bond_site_symmetry_1
_geom_bond_site_symmetry_2
S1 C1 1_555 1_555
S2 C7 1_555 1_555
O1 C8 1_555 1_555
N1 C2 1_555 1_555
C1 C2 1_555 1_555
C2 C6 1_555 1_555
C3 N1 1_555 1_555
H1 C3 1_555 1_555
C4 C3 1_555 1_555
H2 C4 1_555 1_555
C5 C4 1_555 1_555
H3 C5 1_555 1_555
C6 C5 1_555 1_555
H4 C6 1_555 1_555
C7 C1 1_555 1_555
H5 C7 1_555 1_555
C8 S1 1_555 1_555
S2 C8 1_555 1_555

#END
