
#######################################################################
#
#                 Cambridge Crystallographic Data Centre
#                                CCDC 
#
#######################################################################
#
# If this CIF has been generated from an entry in the Cambridge 
# Structural Database, then it will include bibliographic, chemical, 
# crystal, experimental, refinement or atomic coordinate data resulting 
# from the CCDC's data processing and validation procedures.
#
#######################################################################

data_GAQQOG
_chemical_formula_moiety         'C16 H13 N3 S1'
_chemical_name_systematic        
3-Amino-6-methyl-5-(methylsulfanyl)biphenyl-2,4-dicarbonitrile
_symmetry_cell_setting           triclinic
_symmetry_space_group_name_H-M   'P -1'
_symmetry_Int_Tables_number      2
_space_group_name_Hall           '-P 1'
loop_
_symmetry_equiv_pos_site_id
_symmetry_equiv_pos_as_xyz
1 x,y,z
2 -x,-y,-z
_cell_length_a                   8.959(2)
_cell_length_b                   9.123(2)
_cell_length_c                   10.1240(19)
_cell_angle_alpha                65.843(7)
_cell_angle_beta                 68.362(8)
_cell_angle_gamma                88.754(10)
_cell_volume                     693.613
_exptl_crystal_colour            colorless
_exptl_crystal_description       chunk
_chemical_melting_point          '502 K'
_cell_formula_units_Z            2
loop_
_atom_site_label
_atom_site_type_symbol
_atom_site_fract_x
_atom_site_fract_y
_atom_site_fract_z
S1 S 0.29042(4) -0.05634(4) 0.85224(4)
N1 N 0.60522(14) 0.56001(14) 0.06550(13)
N2 N 0.29233(14) 0.23632(15) 0.29819(14)
N3 N 0.01854(14) -0.04570(15) 0.65642(14)
C1 C 0.51849(14) 0.31928(15) 0.34085(14)
C2 C 0.37070(14) 0.21875(15) 0.39343(14)
C3 C 0.30635(14) 0.10607(15) 0.55414(14)
C4 C 0.38693(15) 0.09060(15) 0.65317(14)
C5 C 0.53818(15) 0.18480(15) 0.59641(14)
C6 C 0.60130(14) 0.30197(15) 0.43875(14)
C7 C 0.75896(14) 0.41104(15) 0.36946(14)
C8 C 0.78192(16) 0.51184(16) 0.43512(16)
H1 H 0.6965 0.5123 0.5249
C9 C 0.92966(17) 0.61171(16) 0.36943(17)
H2 H 0.9448 0.6805 0.4144
C10 C 1.05420(16) 0.61142(17) 0.23934(17)
H3 H 1.1552 0.6794 0.1954
C11 C 1.03249(16) 0.51254(18) 0.17277(16)
H4 H 1.1184 0.5127 0.0829
C12 C 0.88490(15) 0.41272(16) 0.23729(15)
H5 H 0.8700 0.3453 0.1909
C13 C 0.57249(14) 0.45223(15) 0.18627(14)
C14 C 0.14689(15) 0.01656(15) 0.61603(14)
C15 C 0.63082(17) 0.15707(17) 0.70024(16)
H6 H 0.7477 0.1832 0.6354
H7 H 0.6043 0.0430 0.7777
H8 H 0.6006 0.2270 0.7551
C16 C 0.2306(2) 0.0743(2) 0.95114(17)
H9 H 0.3277 0.1310 0.9427
H10 H 0.1618 0.0086 1.0625
H11 H 0.1699 0.1541 0.9019
H12 H 0.205(2) 0.169(2) 0.330(2)
H13 H 0.333(2) 0.301(2) 0.201(2)
loop_
_geom_bond_atom_site_label_1
_geom_bond_atom_site_label_2
_geom_bond_site_symmetry_1
_geom_bond_site_symmetry_2
S1 C4 1_555 1_555
N1 C13 1_555 1_555
N2 C2 1_555 1_555
N3 C14 1_555 1_555
C1 C2 1_555 1_555
C2 C3 1_555 1_555
C3 C4 1_555 1_555
C4 C5 1_555 1_555
C5 C6 1_555 1_555
C6 C1 1_555 1_555
C7 C6 1_555 1_555
C8 C7 1_555 1_555
H1 C8 1_555 1_555
C9 C8 1_555 1_555
H2 C9 1_555 1_555
C10 C9 1_555 1_555
H3 C10 1_555 1_555
C11 C10 1_555 1_555
H4 C11 1_555 1_555
C12 C7 1_555 1_555
H5 C12 1_555 1_555
C13 C1 1_555 1_555
C14 C3 1_555 1_555
C15 C5 1_555 1_555
H6 C15 1_555 1_555
H7 C15 1_555 1_555
H8 C15 1_555 1_555
C16 S1 1_555 1_555
H9 C16 1_555 1_555
H10 C16 1_555 1_555
H11 C16 1_555 1_555
H12 N2 1_555 1_555
H13 N2 1_555 1_555
C11 C12 1_555 1_555

#END
