
#######################################################################
#
#                 Cambridge Crystallographic Data Centre
#                                CCDC 
#
#######################################################################
#
# If this CIF has been generated from an entry in the Cambridge 
# Structural Database, then it will include bibliographic, chemical, 
# crystal, experimental, refinement or atomic coordinate data resulting 
# from the CCDC's data processing and validation procedures.
#
#######################################################################

data_GAQSEY
_chemical_formula_moiety         'C5 H8 N2 O1'
_chemical_name_systematic        2-Cyano-N,N-dimethylacetamide
_symmetry_cell_setting           monoclinic
_symmetry_space_group_name_H-M   'P 21/c'
_symmetry_Int_Tables_number      14
_space_group_name_Hall           '-P 2ybc'
loop_
_symmetry_equiv_pos_site_id
_symmetry_equiv_pos_as_xyz
1 x,y,z
2 -x,1/2+y,1/2-z
3 -x,-y,-z
4 x,1/2-y,1/2+z
_cell_length_a                   4.1690(8)
_cell_length_b                   9.3940(19)
_cell_length_c                   15.880(3)
_cell_angle_alpha                90
_cell_angle_beta                 92.67(3)
_cell_angle_gamma                90
_cell_volume                     621.243
_exptl_crystal_colour            brown
_exptl_crystal_description       block
_cell_formula_units_Z            4
loop_
_atom_site_label
_atom_site_type_symbol
_atom_site_fract_x
_atom_site_fract_y
_atom_site_fract_z
O1 O 0.2785(4) 0.08459(15) 0.22552(10)
C1 C 0.1898(6) 0.3244(2) 0.26152(15)
H1 H 0.3718 0.3851 0.2766
H2 H 0.0286 0.3824 0.2319
C2 C 0.2962(6) 0.2083(2) 0.20353(15)
N1 N 0.4071(5) 0.2461(2) 0.13046(13)
C3 C 0.0598(7) 0.2697(3) 0.33702(18)
C4 C 0.5089(8) 0.1366(3) 0.07292(18)
H3 H 0.4964 0.0451 0.0995
H4 H 0.7263 0.1545 0.0585
H5 H 0.3715 0.1378 0.0227
N2 N -0.0412(8) 0.2295(3) 0.39639(19)
C5 C 0.4201(9) 0.3936(3) 0.09947(19)
H6 H 0.3514 0.4574 0.1423
H7 H 0.2812 0.4033 0.0499
H8 H 0.6363 0.4163 0.0860
loop_
_geom_bond_atom_site_label_1
_geom_bond_atom_site_label_2
_geom_bond_site_symmetry_1
_geom_bond_site_symmetry_2
O1 C2 1_555 1_555
C1 H1 1_555 1_555
H2 C1 1_555 1_555
C2 C1 1_555 1_555
N1 C2 1_555 1_555
C3 C1 1_555 1_555
C4 N1 1_555 1_555
H3 C4 1_555 1_555
H4 C4 1_555 1_555
H5 C4 1_555 1_555
N2 C3 1_555 1_555
C5 N1 1_555 1_555
H6 C5 1_555 1_555
H7 C5 1_555 1_555
H8 C5 1_555 1_555

#END
