
#######################################################################
#
#                 Cambridge Crystallographic Data Centre
#                                CCDC 
#
#######################################################################
#
# If this CIF has been generated from an entry in the Cambridge 
# Structural Database, then it will include bibliographic, chemical, 
# crystal, experimental, refinement or atomic coordinate data resulting 
# from the CCDC's data processing and validation procedures.
#
#######################################################################

data_GAQYAA
_chemical_name_common            
(((4-Bromobenzylidene)amino)oxy)(cyclopropyl)methanone
_chemical_formula_moiety         'C11 H10 Br1 N1 O2'
_chemical_name_systematic        
'(E)-(4-Bromobenzylidene)amino cyclopropanecarboxylate'
_symmetry_cell_setting           monoclinic
_symmetry_space_group_name_H-M   'P 21/c'
_symmetry_Int_Tables_number      14
_space_group_name_Hall           '-P 2ybc'
loop_
_symmetry_equiv_pos_site_id
_symmetry_equiv_pos_as_xyz
1 x,y,z
2 -x,1/2+y,1/2-z
3 -x,-y,-z
4 x,1/2-y,1/2+z
_cell_length_a                   13.209(3)
_cell_length_b                   13.789(3)
_cell_length_c                   5.8714(12)
_cell_angle_alpha                90
_cell_angle_beta                 98.27(3)
_cell_angle_gamma                90
_cell_volume                     1058.29
_exptl_crystal_colour            colorless
_exptl_crystal_description       prism
_cell_formula_units_Z            4
loop_
_atom_site_label
_atom_site_type_symbol
_atom_site_fract_x
_atom_site_fract_y
_atom_site_fract_z
Br1 Br 0.63851(3) 0.63645(3) 1.06308(6)
O1 O 1.21657(17) 0.58865(18) 0.7082(4)
O2 O 1.20566(19) 0.68074(19) 0.3851(4)
N1 N 1.1064(2) 0.5958(2) 0.6861(5)
C1 C 0.9529(3) 0.6535(2) 1.1289(6)
H1 H 1.0055 0.6740 1.2410
C2 C 0.8530(3) 0.6600(2) 1.1709(6)
H2 H 0.8381 0.6849 1.3094
C3 C 0.7756(3) 0.6286(2) 1.0033(6)
C4 C 0.7967(3) 0.5906(3) 0.7961(6)
H3 H 0.7441 0.5693 0.6849
C5 C 0.8972(3) 0.5849(3) 0.7583(6)
H4 H 0.9122 0.5592 0.6205
C6 C 0.9762(3) 0.6170(2) 0.9223(6)
C7 C 1.0830(3) 0.6136(2) 0.8868(6)
H5 H 1.1344 0.6243 1.0100
C8 C 1.2549(3) 0.6312(3) 0.5280(6)
C9 C 1.3629(3) 0.6058(3) 0.5407(6)
H6 H 1.3922 0.5636 0.6676
C10 C 1.4024(3) 0.5931(3) 0.3108(6)
H7 H 1.4536 0.5436 0.3005
H8 H 1.3543 0.6027 0.1714
C11 C 1.4328(3) 0.6793(3) 0.4557(6)
H9 H 1.4036 0.7414 0.4038
H10 H 1.5028 0.6823 0.5328
loop_
_geom_bond_atom_site_label_1
_geom_bond_atom_site_label_2
_geom_bond_site_symmetry_1
_geom_bond_site_symmetry_2
Br1 C3 1_555 1_555
O1 N1 1_555 1_555
O2 C8 1_555 1_555
N1 C7 1_555 1_555
C1 H1 1_555 1_555
C2 C1 1_555 1_555
H2 C2 1_555 1_555
C3 C2 1_555 1_555
C4 C3 1_555 1_555
H3 C4 1_555 1_555
C5 C4 1_555 1_555
H4 C5 1_555 1_555
C6 C1 1_555 1_555
C7 C6 1_555 1_555
H5 C7 1_555 1_555
C8 O1 1_555 1_555
C9 C8 1_555 1_555
H6 C9 1_555 1_555
C10 C9 1_555 1_555
H7 C10 1_555 1_555
H8 C10 1_555 1_555
C11 C9 1_555 1_555
H9 C11 1_555 1_555
H10 C11 1_555 1_555
C5 C6 1_555 1_555
C10 C11 1_555 1_555

#END
