
#######################################################################
#
#                 Cambridge Crystallographic Data Centre
#                                CCDC 
#
#######################################################################
#
# If this CIF has been generated from an entry in the Cambridge 
# Structural Database, then it will include bibliographic, chemical, 
# crystal, experimental, refinement or atomic coordinate data resulting 
# from the CCDC's data processing and validation procedures.
#
#######################################################################

data_GAQZAC
_chemical_formula_moiety         'C19 H25 Cl1 O3,0.5(H2 O1)'
_chemical_name_systematic        
'(S)-3-((1S,4S,6S)-4-(t-butyl)-7-oxabicyclo[4.1.0]heptan-1-yl)-1-(4-chlorophenyl)-2-hydroxypropan-1-one hemihydrate'
_symmetry_cell_setting           monoclinic
_symmetry_space_group_name_H-M   'C 2'
_symmetry_Int_Tables_number      5
_space_group_name_Hall           'C 2y'
loop_
_symmetry_equiv_pos_site_id
_symmetry_equiv_pos_as_xyz
1 x,y,z
2 -x,y,-z
3 1/2+x,1/2+y,z
4 1/2-x,1/2+y,-z
_cell_length_a                   18.6435(7)
_cell_length_b                   6.1999(2)
_cell_length_c                   15.8122(6)
_cell_angle_alpha                90
_cell_angle_beta                 90.137(3)
_cell_angle_gamma                90
_cell_volume                     1827.69
_exptl_crystal_colour            'light colorless'
_exptl_crystal_description       plate
_cell_formula_units_Z            4
_exptl_crystal_recrystallization_method 'ethyl acetate/n-hexane'
loop_
_atom_site_label
_atom_site_type_symbol
_atom_site_fract_x
_atom_site_fract_y
_atom_site_fract_z
Cl1 Cl 0.43687(9) -0.0367(3) 0.88662(9)
O1 O 0.26463(14) 0.5216(5) 0.46857(18)
H1 H 0.2518 0.4220 0.4379
O2 O 0.27461(18) 0.6551(5) 0.63002(19)
O3 O 0.45322(16) 0.7442(6) 0.36773(17)
C1 C 0.32460(17) 0.4570(6) 0.5163(2)
H2 H 0.3333 0.3026 0.5078
C2 C 0.31094(18) 0.5018(6) 0.6099(2)
C3 C 0.34507(18) 0.3655(6) 0.6761(2)
C4 C 0.36304(18) 0.4824(6) 0.2210(2)
H3 H 0.3202 0.4148 0.2451
C5 C 0.40464(19) 0.5765(7) 0.3964(2)
C6 C 0.4195(2) 0.3606(7) 0.3570(2)
H4 H 0.3807 0.2628 0.3710
H5 H 0.4633 0.3024 0.3812
C7 C 0.39071(19) 0.5846(7) 0.4899(2)
H6 H 0.3846 0.7338 0.5069
H7 H 0.4322 0.5280 0.5196
C8 C 0.3435(2) 0.4367(8) 0.7598(2)
H8 H 0.3224 0.5688 0.7723
C9 C 0.42738(19) 0.3703(7) 0.2610(2)
H9 H 0.4708 0.4481 0.2467
H10 H 0.4314 0.2251 0.2387
C10 C 0.3575(2) 0.4544(7) 0.1234(2)
C11 C 0.3778(2) 0.1683(7) 0.6585(3)
H11 H 0.3803 0.1192 0.6030
C12 C 0.3779(2) 0.7494(7) 0.3432(2)
H12 H 0.3486 0.8579 0.3721
C13 C 0.4063(2) 0.0461(8) 0.7230(3)
H13 H 0.4280 -0.0857 0.7116
C14 C 0.3622(2) 0.7204(7) 0.2497(2)
H14 H 0.3976 0.7998 0.2174
H15 H 0.3156 0.7817 0.2372
C15 C 0.3724(3) 0.3156(9) 0.8238(3)
H16 H 0.3717 0.3650 0.8793
C16 C 0.4022(2) 0.1216(9) 0.8044(3)
C17 C 0.4237(3) 0.5343(11) 0.0790(3)
H17 H 0.4310 0.6840 0.0920
H18 H 0.4179 0.5172 0.0191
H19 H 0.4645 0.4527 0.0977
C18 C 0.3471(3) 0.2150(10) 0.1023(3)
H20 H 0.3907 0.1381 0.1140
H21 H 0.3352 0.2000 0.0435
H22 H 0.3091 0.1571 0.1362
C19 C 0.2917(3) 0.5757(12) 0.0898(3)
H23 H 0.2492 0.5211 0.1166
H24 H 0.2880 0.5552 0.0298
H25 H 0.2966 0.7267 0.1020
O4 O 0.5000 1.0383(8) 0.5000
H26? H 0.4885 0.9497 0.4612
H27? H 0.5079 0.9699 0.5457
loop_
_geom_bond_atom_site_label_1
_geom_bond_atom_site_label_2
_geom_bond_site_symmetry_1
_geom_bond_site_symmetry_2
Cl1 C16 1_555 1_555
O1 H1 1_555 1_555
O2 C2 1_555 1_555
O3 C5 1_555 1_555
C1 O1 1_555 1_555
H2 C1 1_555 1_555
C2 C1 1_555 1_555
C3 C2 1_555 1_555
C4 H3 1_555 1_555
C5 C6 1_555 1_555
C6 H4 1_555 1_555
H5 C6 1_555 1_555
C7 C1 1_555 1_555
H6 C7 1_555 1_555
H7 C7 1_555 1_555
C8 C3 1_555 1_555
H8 C8 1_555 1_555
C9 C4 1_555 1_555
H9 C9 1_555 1_555
H10 C9 1_555 1_555
C10 C4 1_555 1_555
C11 C3 1_555 1_555
H11 C11 1_555 1_555
C12 O3 1_555 1_555
H12 C12 1_555 1_555
C13 C11 1_555 1_555
H13 C13 1_555 1_555
C14 C4 1_555 1_555
H14 C14 1_555 1_555
H15 C14 1_555 1_555
C15 C8 1_555 1_555
H16 C15 1_555 1_555
C16 C13 1_555 1_555
C17 C10 1_555 1_555
H17 C17 1_555 1_555
H18 C17 1_555 1_555
H19 C17 1_555 1_555
C18 C10 1_555 1_555
H20 C18 1_555 1_555
H21 C18 1_555 1_555
H22 C18 1_555 1_555
C19 C10 1_555 1_555
H23 C19 1_555 1_555
H24 C19 1_555 1_555
H25 C19 1_555 1_555
C5 C7 1_555 1_555
C5 C12 1_555 1_555
C6 C9 1_555 1_555
C12 C14 1_555 1_555
C15 C16 1_555 1_555

#END
