
#######################################################################
#
#                 Cambridge Crystallographic Data Centre
#                                CCDC 
#
#######################################################################
#
# If this CIF has been generated from an entry in the Cambridge 
# Structural Database, then it will include bibliographic, chemical, 
# crystal, experimental, refinement or atomic coordinate data resulting 
# from the CCDC's data processing and validation procedures.
#
#######################################################################

data_GARKER
_chemical_name_common            Trimethyl(trityloxy)silane
_chemical_formula_moiety         'C22 H24 O1 Si1'
_chemical_name_systematic        Trimethyl(triphenylmethoxy)silane
_symmetry_cell_setting           triclinic
_symmetry_space_group_name_H-M   'P -1'
_symmetry_Int_Tables_number      2
_space_group_name_Hall           '-P 1'
loop_
_symmetry_equiv_pos_site_id
_symmetry_equiv_pos_as_xyz
1 x,y,z
2 -x,-y,-z
_cell_length_a                   9.7621(6)
_cell_length_b                   10.6324(5)
_cell_length_c                   10.7923(5)
_cell_angle_alpha                103.412(4)
_cell_angle_beta                 115.389(5)
_cell_angle_gamma                92.133(4)
_cell_volume                     972.414
_exptl_crystal_colour            white
_exptl_crystal_description       block-like
_chemical_melting_point          323-325K
_cell_formula_units_Z            2
_exptl_crystal_recrystallization_method 'ethyl acetate/petroleum ether'
loop_
_atom_site_label
_atom_site_type_symbol
_atom_site_fract_x
_atom_site_fract_y
_atom_site_fract_z
C1 C 1.0739(3) 0.7666(3) 0.4331(3)
H1 H 1.1326 0.8123 0.4004
H2 H 1.1410 0.7283 0.5045
H3 H 1.0230 0.8268 0.4730
Si1 Si 0.92918(7) 0.63614(6) 0.28129(6)
O1 O 0.82829(15) 0.68672(12) 0.14128(13)
C2 C 0.7464(2) 0.79157(16) 0.10571(18)
C3 C 0.8614(2) 0.91551(18) 0.15089(18)
C4 C 0.8264(3) 1.0401(2) 0.1829(2)
H4 H 0.7321 1.0506 0.1827
C5 C 0.9303(3) 1.1495(2) 0.2152(3)
H5 H 0.9054 1.2327 0.2369
C6 C 1.0695(3) 1.1357(3) 0.2155(2)
H6 H 1.1394 1.2092 0.2381
C7 C 1.1048(3) 1.0133(3) 0.1823(3)
H7 H 1.1988 1.0033 0.1819
C8 C 1.0013(2) 0.9044(2) 0.1494(2)
H8 H 1.0263 0.8216 0.1257
C9 C 0.65606(19) 0.75217(17) -0.05828(19)
C10 C 0.5804(2) 0.8411(2) -0.1289(2)
H9 H 0.5846 0.9253 -0.0765
C11 C 0.4985(2) 0.8064(2) -0.2761(2)
H10 H 0.4474 0.8670 -0.3216
C12 C 0.4926(3) 0.6843(3) -0.3546(2)
H11 H 0.4385 0.6612 -0.4535
C13 C 0.5673(3) 0.5953(2) -0.2860(2)
H12 H 0.5635 0.5115 -0.3390
C14 C 0.6485(2) 0.6295(2) -0.1386(2)
H13 H 0.6985 0.5682 -0.0937
C15 C 0.6382(2) 0.80747(17) 0.1766(2)
C16 C 0.4855(3) 0.7525(2) 0.1031(2)
H14 H 0.4442 0.7104 0.0062
C17 C 0.3926(3) 0.7588(3) 0.1710(3)
H15 H 0.2897 0.7214 0.1194
C18 C 0.4515(3) 0.8198(3) 0.3139(3)
H16 H 0.3888 0.8244 0.3593
C19 C 0.6020(3) 0.8737(2) 0.3888(3)
H17 H 0.6428 0.9135 0.4862
C20 C 0.6950(3) 0.8696(2) 0.3210(2)
H18 H 0.7972 0.9090 0.3731
C21 C 1.0316(3) 0.5155(3) 0.2158(3)
H19 H 0.9584 0.4491 0.1339
H20 H 1.0903 0.4760 0.2897
H21 H 1.0992 0.5589 0.1900
C22 C 0.8034(3) 0.5569(3) 0.3385(3)
H22 H 0.7558 0.6217 0.3772
H23 H 0.8634 0.5155 0.4100
H24 H 0.7256 0.4923 0.2580
loop_
_geom_bond_atom_site_label_1
_geom_bond_atom_site_label_2
_geom_bond_site_symmetry_1
_geom_bond_site_symmetry_2
C1 H1 1_555 1_555
H2 C1 1_555 1_555
H3 C1 1_555 1_555
Si1 C1 1_555 1_555
O1 Si1 1_555 1_555
C2 O1 1_555 1_555
C3 C2 1_555 1_555
C4 C3 1_555 1_555
H4 C4 1_555 1_555
C5 C4 1_555 1_555
H5 C5 1_555 1_555
C6 C5 1_555 1_555
H6 C6 1_555 1_555
C7 C6 1_555 1_555
H7 C7 1_555 1_555
C8 C3 1_555 1_555
H8 C8 1_555 1_555
C9 C2 1_555 1_555
C10 C9 1_555 1_555
H9 C10 1_555 1_555
C11 C10 1_555 1_555
H10 C11 1_555 1_555
C12 C11 1_555 1_555
H11 C12 1_555 1_555
C13 C12 1_555 1_555
H12 C13 1_555 1_555
C14 C9 1_555 1_555
H13 C14 1_555 1_555
C15 C2 1_555 1_555
C16 C15 1_555 1_555
H14 C16 1_555 1_555
C17 C16 1_555 1_555
H15 C17 1_555 1_555
C18 C17 1_555 1_555
H16 C18 1_555 1_555
C19 C18 1_555 1_555
H17 C19 1_555 1_555
C20 C15 1_555 1_555
H18 C20 1_555 1_555
C21 Si1 1_555 1_555
H19 C21 1_555 1_555
H20 C21 1_555 1_555
H21 C21 1_555 1_555
C22 Si1 1_555 1_555
H22 C22 1_555 1_555
H23 C22 1_555 1_555
H24 C22 1_555 1_555
C7 C8 1_555 1_555
C13 C14 1_555 1_555
C19 C20 1_555 1_555

#END
