
#######################################################################
#
#                 Cambridge Crystallographic Data Centre
#                                CCDC 
#
#######################################################################
#
# If this CIF has been generated from an entry in the Cambridge 
# Structural Database, then it will include bibliographic, chemical, 
# crystal, experimental, refinement or atomic coordinate data resulting 
# from the CCDC's data processing and validation procedures.
#
#######################################################################

data_GARLIW
_chemical_name_common            
4,4'-Bi(10-oxa-4-azatricyclo[5.2.1.0$2,6!]decane)-3,3',5,5'-tetrone
_chemical_formula_moiety         'C16 H16 N2 O6'
_chemical_name_systematic        
4-(3,5-Dioxo-10-oxa-4-azatricyclo[5.2.1.0^2,6^]decan-4-yl)-10-oxa-4-azatricyclo[5.2.1.0^2,6^]decane-3,5-dione
_symmetry_cell_setting           orthorhombic
_symmetry_space_group_name_H-M   'P b c a'
_symmetry_Int_Tables_number      61
_space_group_name_Hall           '-P 2ac 2ab'
loop_
_symmetry_equiv_pos_site_id
_symmetry_equiv_pos_as_xyz
1 x,y,z
2 1/2-x,-y,1/2+z
3 1/2+x,1/2-y,-z
4 -x,1/2+y,1/2-z
5 -x,-y,-z
6 1/2+x,y,1/2-z
7 1/2-x,1/2+y,z
8 x,1/2-y,1/2+z
_cell_length_a                   10.2342(6)
_cell_length_b                   10.5673(6)
_cell_length_c                   27.3485(17)
_cell_angle_alpha                90
_cell_angle_beta                 90
_cell_angle_gamma                90
_cell_volume                     2957.68
_exptl_crystal_colour            colorless
_exptl_crystal_description       block
_cell_formula_units_Z            8
loop_
_atom_site_label
_atom_site_type_symbol
_atom_site_fract_x
_atom_site_fract_y
_atom_site_fract_z
O1 O 0.4418(3) -0.1479(3) 0.03560(11)
O2 O 0.5405(3) 0.4020(3) 0.13629(11)
N1 N 0.5287(3) 0.0942(3) 0.15182(13)
O3 O 0.3401(3) 0.1174(3) 0.10792(12)
O4 O 0.7107(3) 0.1261(3) 0.19883(14)
O5 O 0.6972(3) 0.0800(3) 0.07064(12)
C1 C 0.5130(4) -0.1318(4) 0.14002(15)
C2 C 0.6499(4) -0.1471(3) 0.06726(14)
H1 H 0.7384 -0.1821 0.0654
N2 N 0.5691(3) -0.0145(3) 0.12856(13)
C3 C 0.5594(4) -0.2230(3) 0.10115(14)
H2 H 0.6021 -0.2979 0.1149
O6 O 0.4401(3) -0.1492(3) 0.17385(11)
C4 C 0.4108(4) 0.1543(4) 0.13968(16)
C5 C 0.5826(4) 0.3963(4) 0.18576(17)
H3 H 0.6776 0.4021 0.1896
C6 C 0.6043(4) 0.1584(4) 0.18598(16)
C7 C 0.4465(4) -0.2567(4) 0.06668(16)
H4 H 0.3640 -0.2742 0.0836
C8 C 0.6466(4) -0.0144(4) 0.08651(16)
C9 C 0.5256(4) 0.2710(4) 0.20309(16)
H5 H 0.5105 0.2698 0.2385
C10 C 0.4016(5) 0.3919(4) 0.14670(18)
H6 H 0.3459 0.3956 0.1176
C11 C 0.4899(5) -0.3623(4) 0.03254(17)
H7 H 0.4165 -0.3986 0.0150
H8 H 0.5357 -0.4286 0.0501
C12 C 0.5756(4) -0.1560(4) 0.01894(16)
H9 H 0.5995 -0.0901 -0.0046
C13 C 0.5819(5) -0.2898(4) -0.00196(16)
H10 H 0.6700 -0.3235 -0.0007
H11 H 0.5507 -0.2923 -0.0354
C14 C 0.3968(4) 0.2652(4) 0.17362(16)
H12 H 0.3199 0.2579 0.1948
C15 C 0.3774(5) 0.4990(4) 0.18326(18)
H13 H 0.3051 0.4795 0.2049
H14 H 0.3602 0.5785 0.1667
C16 C 0.5080(5) 0.5027(4) 0.21108(18)
H15 H 0.5517 0.5835 0.2071
H16 H 0.4961 0.4856 0.2456
loop_
_geom_bond_atom_site_label_1
_geom_bond_atom_site_label_2
_geom_bond_site_symmetry_1
_geom_bond_site_symmetry_2
O1 C7 1_555 1_555
O2 C5 1_555 1_555
N1 N2 1_555 1_555
O3 C4 1_555 1_555
O4 C6 1_555 1_555
O5 C8 1_555 1_555
C1 N2 1_555 1_555
C2 H1 1_555 1_555
N2 C8 1_555 1_555
C3 C1 1_555 1_555
H2 C3 1_555 1_555
O6 C1 1_555 1_555
C4 N1 1_555 1_555
C5 H3 1_555 1_555
C6 N1 1_555 1_555
C7 C3 1_555 1_555
H4 C7 1_555 1_555
C8 C2 1_555 1_555
C9 C5 1_555 1_555
H5 C9 1_555 1_555
C10 O2 1_555 1_555
H6 C10 1_555 1_555
C11 C7 1_555 1_555
H7 C11 1_555 1_555
H8 C11 1_555 1_555
C12 O1 1_555 1_555
H9 C12 1_555 1_555
C13 C11 1_555 1_555
H10 C13 1_555 1_555
H11 C13 1_555 1_555
C14 C4 1_555 1_555
H12 C14 1_555 1_555
C15 C10 1_555 1_555
H13 C15 1_555 1_555
H14 C15 1_555 1_555
C16 C5 1_555 1_555
H15 C16 1_555 1_555
H16 C16 1_555 1_555
C2 C3 1_555 1_555
C2 C12 1_555 1_555
C6 C9 1_555 1_555
C9 C14 1_555 1_555
C10 C14 1_555 1_555
C12 C13 1_555 1_555
C15 C16 1_555 1_555

#END
