
#######################################################################
#
#                 Cambridge Crystallographic Data Centre
#                                CCDC 
#
#######################################################################
#
# If this CIF has been generated from an entry in the Cambridge 
# Structural Database, then it will include bibliographic, chemical, 
# crystal, experimental, refinement or atomic coordinate data resulting 
# from the CCDC's data processing and validation procedures.
#
#######################################################################

data_GARMAP01
_chemical_formula_moiety         'C26 H20 N2 O1'
_chemical_name_systematic        
3-(4-(diphenylamino)phenyl)-1-(pyridin-2-yl)prop-2-en-1-one
_symmetry_cell_setting           monoclinic
_symmetry_space_group_name_H-M   'P 21/c'
_symmetry_Int_Tables_number      14
_space_group_name_Hall           '-P 2ybc'
loop_
_symmetry_equiv_pos_site_id
_symmetry_equiv_pos_as_xyz
1 x,y,z
2 -x,1/2+y,1/2-z
3 -x,-y,-z
4 x,1/2-y,1/2+z
_cell_length_a                   12.0342(3)
_cell_length_b                   17.4069(4)
_cell_length_c                   9.4392(2)
_cell_angle_alpha                90
_cell_angle_beta                 91.757(2)
_cell_angle_gamma                90
_cell_volume                     1976.38
_exptl_crystal_colour            orange
_exptl_crystal_description       plate
_cell_formula_units_Z            4
loop_
_atom_site_label
_atom_site_type_symbol
_atom_site_fract_x
_atom_site_fract_y
_atom_site_fract_z
C1 C 0.37944(18) 0.15351(15) 0.1848(2)
C2 C 0.4306(2) 0.22085(16) 0.1472(3)
H1 H 0.4013 0.2498 0.0722
C3 C 0.5246(2) 0.24562(19) 0.2198(3)
H2 H 0.5590 0.2911 0.1938
C4 C 0.5674(2) 0.2032(2) 0.3303(3)
H3 H 0.6304 0.2204 0.3802
C5 C 0.5181(2) 0.13504(18) 0.3685(3)
H4 H 0.5484 0.1060 0.4428
C6 C 0.4231(2) 0.11023(16) 0.2954(3)
H5 H 0.3890 0.0645 0.3209
C7 C 0.28488(19) 0.11146(14) -0.0356(2)
C8 C 0.1951(2) 0.12476(17) -0.1263(3)
H6 H 0.1298 0.1450 -0.0914
C9 C 0.2017(3) 0.1082(2) -0.2684(3)
H7 H 0.1403 0.1166 -0.3286
C10 C 0.2973(3) 0.0795(2) -0.3222(3)
H8 H 0.3009 0.0682 -0.4182
C11 C 0.3868(3) 0.06786(17) -0.2341(3)
H9 H 0.4526 0.0494 -0.2706
C12 C 0.3814(2) 0.08305(16) -0.0914(3)
H10 H 0.4432 0.0741 -0.0321
C13 C 0.18327(18) 0.11944(15) 0.1885(2)
C14 C 0.1671(2) 0.16651(16) 0.3048(3)
H11 H 0.2187 0.2047 0.3278
C15 C 0.0748(2) 0.15699(16) 0.3866(3)
H12 H 0.0652 0.1893 0.4637
C16 C 0.10414(19) 0.06364(15) 0.1553(3)
H13 H 0.1133 0.0319 0.0773
C17 C 0.0121(2) 0.05504(15) 0.2374(3)
H14 H -0.0406 0.0180 0.2124
C18 C -0.00421(19) 0.10041(15) 0.3567(3)
C19 C -0.0996(2) 0.08739(16) 0.4450(3)
H15 H -0.1559 0.0565 0.4068
C20 C -0.1146(2) 0.11488(16) 0.5739(3)
H16 H -0.0611 0.1475 0.6137
C21 C -0.2123(2) 0.09590(16) 0.6562(3)
C22 C -0.21261(18) 0.11977(14) 0.8081(3)
C23 C -0.2974(2) 0.09690(16) 0.8931(3)
H17 H -0.3557 0.0674 0.8557
C24 C -0.2955(2) 0.11792(17) 1.0331(3)
H18 H -0.3519 0.1024 1.0920
C25 C -0.2104(2) 0.16169(17) 1.0842(3)
H19 H -0.2081 0.1781 1.1780
C26 C -0.1279(2) 0.18107(19) 0.9947(4)
H20 H -0.0683 0.2095 1.0314
N1 N 0.28070(15) 0.12809(13) 0.1108(2)
N2 N -0.12742(18) 0.16178(14) 0.8579(3)
O1 O -0.29202(14) 0.06049(12) 0.60548(19)
loop_
_geom_bond_atom_site_label_1
_geom_bond_atom_site_label_2
_geom_bond_site_symmetry_1
_geom_bond_site_symmetry_2
C1 C2 1_555 1_555
C2 H1 1_555 1_555
C3 C2 1_555 1_555
H2 C3 1_555 1_555
C4 C3 1_555 1_555
H3 C4 1_555 1_555
C5 C4 1_555 1_555
H4 C5 1_555 1_555
C6 C1 1_555 1_555
H5 C6 1_555 1_555
C7 C8 1_555 1_555
C8 H6 1_555 1_555
C9 C8 1_555 1_555
H7 C9 1_555 1_555
C10 C9 1_555 1_555
H8 C10 1_555 1_555
C11 C10 1_555 1_555
H9 C11 1_555 1_555
C12 C7 1_555 1_555
H10 C12 1_555 1_555
C13 C14 1_555 1_555
C14 H11 1_555 1_555
C15 C14 1_555 1_555
H12 C15 1_555 1_555
C16 C13 1_555 1_555
H13 C16 1_555 1_555
C17 C16 1_555 1_555
H14 C17 1_555 1_555
C18 C15 1_555 1_555
C19 C18 1_555 1_555
H15 C19 1_555 1_555
C20 C19 1_555 1_555
H16 C20 1_555 1_555
C21 C20 1_555 1_555
C22 C21 1_555 1_555
C23 C22 1_555 1_555
H17 C23 1_555 1_555
C24 C23 1_555 1_555
H18 C24 1_555 1_555
C25 C24 1_555 1_555
H19 C25 1_555 1_555
C26 C25 1_555 1_555
H20 C26 1_555 1_555
N1 C1 1_555 1_555
N2 C22 1_555 1_555
O1 C21 1_555 1_555
C5 C6 1_555 1_555
C7 N1 1_555 1_555
C11 C12 1_555 1_555
C13 N1 1_555 1_555
C17 C18 1_555 1_555
C26 N2 1_555 1_555

#END
