
#######################################################################
#
#                 Cambridge Crystallographic Data Centre
#                                CCDC 
#
#######################################################################
#
# If this CIF has been generated from an entry in the Cambridge 
# Structural Database, then it will include bibliographic, chemical, 
# crystal, experimental, refinement or atomic coordinate data resulting 
# from the CCDC's data processing and validation procedures.
#
#######################################################################

data_GARNIY
_chemical_formula_moiety         'C31 H44 O5'
_chemical_name_systematic        
'Ethyl ent-15\a-[(2-methoxybenzyloxy)methyl]-16-oxobeyeran-20-oate'
_symmetry_cell_setting           orthorhombic
_symmetry_space_group_name_H-M   'P 21 21 21'
_symmetry_Int_Tables_number      19
_space_group_name_Hall           'P 2ac 2ab'
loop_
_symmetry_equiv_pos_site_id
_symmetry_equiv_pos_as_xyz
1 x,y,z
2 1/2-x,-y,1/2+z
3 -x,1/2+y,1/2-z
4 1/2+x,1/2-y,-z
_cell_length_a                   8.7047(17)
_cell_length_b                   10.749(2)
_cell_length_c                   29.653(6)
_cell_angle_alpha                90
_cell_angle_beta                 90
_cell_angle_gamma                90
_cell_volume                     2774.54
_exptl_crystal_colour            colorless
_exptl_crystal_description       prism
_cell_formula_units_Z            4
loop_
_atom_site_label
_atom_site_type_symbol
_atom_site_fract_x
_atom_site_fract_y
_atom_site_fract_z
C1 C 0.6951(6) 1.1089(5) -0.18318(14)
H1 H 0.6694 1.0227 -0.1892
H2 H 0.5999 1.1531 -0.1775
C2 C 0.7708(7) 1.1638(5) -0.22472(15)
H3 H 0.7039 1.1526 -0.2506
H4 H 0.7862 1.2523 -0.2203
C3 C 0.9233(7) 1.1021(6) -0.23378(15)
H5 H 0.9714 1.1433 -0.2592
H6 H 0.9047 1.0164 -0.2424
C4 C 1.0369(6) 1.1032(4) -0.19387(14)
C5 C 0.9523(6) 1.0518(4) -0.15150(13)
H7 H 0.9242 0.9668 -0.1601
C6 C 1.0479(5) 1.0346(4) -0.10860(13)
H8 H 1.1468 0.9987 -0.1163
H9 H 1.0657 1.1148 -0.0946
C7 C 0.9642(5) 0.9495(4) -0.07574(13)
H10 H 0.9506 0.8687 -0.0898
H11 H 1.0278 0.9380 -0.0492
C8 C 0.8081(5) 0.9983(3) -0.06108(12)
C9 C 0.7129(5) 1.0364(4) -0.10343(13)
H12 H 0.6891 0.9574 -0.1183
C10 C 0.7951(5) 1.1146(4) -0.14039(12)
C11 C 0.5552(6) 1.0883(5) -0.08938(16)
H13 H 0.5689 1.1719 -0.0778
H14 H 0.4902 1.0935 -0.1159
C12 C 0.4735(6) 1.0101(6) -0.05366(19)
H15 H 0.4295 0.9371 -0.0679
H16 H 0.3900 1.0583 -0.0409
C13 C 0.5823(5) 0.9684(5) -0.01536(16)
C14 C 0.7142(5) 0.8984(4) -0.03641(15)
H17 H 0.6770 0.8361 -0.0574
H18 H 0.7758 0.8578 -0.0135
C15 C 0.8105(5) 1.1029(3) -0.02504(12)
H19 H 0.8071 1.1837 -0.0403
C16 C 0.6624(5) 1.0851(4) 0.00128(14)
C17 C 0.4945(7) 0.9018(7) 0.0217(2)
H20 H 0.5646 0.8766 0.0450
H21 H 0.4446 0.8297 0.0094
H22 H 0.4188 0.9569 0.0342
C18 C 0.8167(6) 1.2505(4) -0.12605(14)
H23 H 0.7184 1.2867 -0.1195
H24 H 0.8648 1.2960 -0.1501
H25 H 0.8804 1.2539 -0.0997
C19 C 1.1743(7) 1.0177(5) -0.20565(17)
H26 H 1.2266 1.0499 -0.2317
H27 H 1.1375 0.9353 -0.2120
H28 H 1.2441 1.0148 -0.1806
C20 C 1.1039(7) 1.2327(5) -0.18884(16)
C21 C 1.2797(9) 1.3612(6) -0.1511(2)
H29 H 1.3269 1.3646 -0.1215
H30 H 1.2007 1.4248 -0.1523
C22 C 1.3986(7) 1.3888(7) -0.1861(3)
H31 H 1.4410 1.4700 -0.1808
H32 H 1.3523 1.3865 -0.2154
H33 H 1.4789 1.3278 -0.1844
C23 C 0.9449(5) 1.1021(4) 0.00794(13)
H34 H 1.0414 1.1025 -0.0084
H35 H 0.9413 1.1755 0.0269
C24 C 1.0648(5) 0.9751(5) 0.06169(15)
H36 H 1.0982 1.0544 0.0739
H37 H 1.1475 0.9418 0.0434
C25 C 1.0298(5) 0.8865(4) 0.09980(13)
C26 C 1.1467(6) 0.8589(4) 0.12974(14)
C27 C 1.1178(8) 0.7817(5) 0.16676(16)
H38 H 1.1955 0.7641 0.1873
C28 C 0.9741(8) 0.7323(5) 0.17255(18)
H39 H 0.9548 0.6803 0.1970
C29 C 0.8599(7) 0.7585(5) 0.14303(18)
H40 H 0.7626 0.7245 0.1471
C30 C 0.8885(6) 0.8363(4) 0.10678(15)
H41 H 0.8094 0.8545 0.0868
C31 C 1.4097(7) 0.8958(7) 0.1493(2)
H42 H 1.4990 0.9357 0.1370
H43 H 1.4302 0.8088 0.1535
H44 H 1.3848 0.9328 0.1779
O1 O 1.0710(5) 1.3189(4) -0.21179(17)
O2 O 1.2094(5) 1.2413(3) -0.15713(12)
O3 O 0.6178(5) 1.1533(4) 0.03115(11)
O4 O 0.9339(3) 0.9930(3) 0.03482(9)
O5 O 1.2847(4) 0.9107(4) 0.11943(11)
loop_
_geom_bond_atom_site_label_1
_geom_bond_atom_site_label_2
_geom_bond_site_symmetry_1
_geom_bond_site_symmetry_2
C1 H1 1_555 1_555
H2 C1 1_555 1_555
C2 C1 1_555 1_555
H3 C2 1_555 1_555
H4 C2 1_555 1_555
C3 C2 1_555 1_555
H5 C3 1_555 1_555
H6 C3 1_555 1_555
C4 C3 1_555 1_555
C5 C4 1_555 1_555
H7 C5 1_555 1_555
C6 C5 1_555 1_555
H8 C6 1_555 1_555
H9 C6 1_555 1_555
C7 C6 1_555 1_555
H10 C7 1_555 1_555
H11 C7 1_555 1_555
C8 C7 1_555 1_555
C9 C8 1_555 1_555
H12 C9 1_555 1_555
C10 C1 1_555 1_555
C11 C9 1_555 1_555
H13 C11 1_555 1_555
H14 C11 1_555 1_555
C12 C11 1_555 1_555
H15 C12 1_555 1_555
H16 C12 1_555 1_555
C13 C12 1_555 1_555
C14 C8 1_555 1_555
H17 C14 1_555 1_555
H18 C14 1_555 1_555
C15 C8 1_555 1_555
H19 C15 1_555 1_555
C16 C13 1_555 1_555
C17 C13 1_555 1_555
H20 C17 1_555 1_555
H21 C17 1_555 1_555
H22 C17 1_555 1_555
C18 C10 1_555 1_555
H23 C18 1_555 1_555
H24 C18 1_555 1_555
H25 C18 1_555 1_555
C19 C4 1_555 1_555
H26 C19 1_555 1_555
H27 C19 1_555 1_555
H28 C19 1_555 1_555
C20 C4 1_555 1_555
C21 H29 1_555 1_555
H30 C21 1_555 1_555
C22 C21 1_555 1_555
H31 C22 1_555 1_555
H32 C22 1_555 1_555
H33 C22 1_555 1_555
C23 C15 1_555 1_555
H34 C23 1_555 1_555
H35 C23 1_555 1_555
C24 H36 1_555 1_555
H37 C24 1_555 1_555
C25 C24 1_555 1_555
C26 C25 1_555 1_555
C27 C26 1_555 1_555
H38 C27 1_555 1_555
C28 C27 1_555 1_555
H39 C28 1_555 1_555
C29 C28 1_555 1_555
H40 C29 1_555 1_555
C30 C25 1_555 1_555
H41 C30 1_555 1_555
C31 H42 1_555 1_555
H43 C31 1_555 1_555
H44 C31 1_555 1_555
O1 C20 1_555 1_555
O2 C20 1_555 1_555
O3 C16 1_555 1_555
O4 C23 1_555 1_555
O5 C26 1_555 1_555
C5 C10 1_555 1_555
C9 C10 1_555 1_555
C13 C14 1_555 1_555
C15 C16 1_555 1_555
C21 O2 1_555 1_555
C24 O4 1_555 1_555
C29 C30 1_555 1_555
C31 O5 1_555 1_555

#END
