
#######################################################################
#
#                 Cambridge Crystallographic Data Centre
#                                CCDC 
#
#######################################################################
#
# If this CIF has been generated from an entry in the Cambridge 
# Structural Database, then it will include bibliographic, chemical, 
# crystal, experimental, refinement or atomic coordinate data resulting 
# from the CCDC's data processing and validation procedures.
#
#######################################################################

data_GARNEU
_chemical_name_common            
(E)-2-((2-[(E)-(Hydroxyimino)methyl]phenoxy)methyl)-3-o-tolylacrylonitrile
_chemical_formula_moiety         'C18 H16 N2 O2'
_chemical_name_systematic        
2-((2-((Hydroxyimino)methyl)phenoxy)methyl)-3-(2-methylphenyl)acrylonitrile
_symmetry_cell_setting           triclinic
_symmetry_space_group_name_H-M   'P -1'
_symmetry_Int_Tables_number      2
_space_group_name_Hall           '-P 1'
loop_
_symmetry_equiv_pos_site_id
_symmetry_equiv_pos_as_xyz
1 x,y,z
2 -x,-y,-z
_cell_length_a                   7.0214(2)
_cell_length_b                   10.5094(3)
_cell_length_c                   10.8854(3)
_cell_angle_alpha                97.6360(10)
_cell_angle_beta                 95.9530(10)
_cell_angle_gamma                99.6420(10)
_cell_volume                     778.323
_exptl_crystal_colour            'white crystalline'
_exptl_crystal_description       block
_cell_formula_units_Z            2
loop_
_atom_site_label
_atom_site_type_symbol
_atom_site_fract_x
_atom_site_fract_y
_atom_site_fract_z
C1 C -0.15593(16) 0.00826(11) 0.65422(11)
H1 H -0.1182 0.0760 0.7210
C2 C -0.02936(15) -0.08709(10) 0.63051(10)
C3 C -0.08597(19) -0.20010(12) 0.54286(12)
H2 H -0.2068 -0.2148 0.4943
C4 C 0.0343(2) -0.29046(12) 0.52696(13)
H3 H -0.0051 -0.3649 0.4674
C5 C 0.21237(19) -0.27051(12) 0.59921(12)
H4 H 0.2919 -0.3327 0.5897
C6 C 0.27362(17) -0.15902(11) 0.68554(11)
H5 H 0.3947 -0.1455 0.7337
C7 C 0.15422(14) -0.06683(10) 0.70047(9)
C8 C 0.34958(15) 0.05707(11) 0.88418(10)
H6 H 0.4795 0.0729 0.8598
H7 H 0.3317 -0.0240 0.9187
C9 C 0.32336(14) 0.16826(10) 0.97920(10)
C10 C 0.12321(15) 0.17173(11) 0.99392(11)
C11 C 0.47398(14) 0.25582(10) 1.04165(10)
H8 H 0.5958 0.2450 1.0203
C12 C 0.47398(15) 0.36647(10) 1.13905(10)
C13 C 0.3269(2) 0.36659(13) 1.21596(12)
H9 H 0.2299 0.2930 1.2087
C14 C 0.3234(2) 0.47427(15) 1.30267(15)
H10 H 0.2238 0.4735 1.3527
C15 C 0.4678(3) 0.58260(15) 1.31470(16)
H11 H 0.4642 0.6563 1.3714
C16 C 0.6170(2) 0.58189(12) 1.24310(14)
H12 H 0.7149 0.6554 1.2533
C17 C 0.62672(16) 0.47510(11) 1.15593(11)
C18 C 0.79547(18) 0.47851(14) 1.08190(15)
H13 H 0.8811 0.5616 1.1046
H14 H 0.7484 0.4657 0.9943
H15 H 0.8651 0.4104 1.0993
N1 N -0.31578(13) 0.00044(10) 0.58572(9)
N2 N -0.03874(16) 0.17076(12) 0.99832(14)
O1 O -0.41663(12) 0.09866(9) 0.62794(9)
H16 H -0.5163 0.0935 0.5797
O2 O 0.20712(11) 0.04926(7) 0.77921(7)
loop_
_geom_bond_atom_site_label_1
_geom_bond_atom_site_label_2
_geom_bond_site_symmetry_1
_geom_bond_site_symmetry_2
C1 H1 1_555 1_555
C2 C1 1_555 1_555
C3 C2 1_555 1_555
H2 C3 1_555 1_555
C4 C3 1_555 1_555
H3 C4 1_555 1_555
C5 C4 1_555 1_555
H4 C5 1_555 1_555
C6 C5 1_555 1_555
H5 C6 1_555 1_555
C7 C2 1_555 1_555
C8 H6 1_555 1_555
H7 C8 1_555 1_555
C9 C8 1_555 1_555
C10 C9 1_555 1_555
C11 C9 1_555 1_555
H8 C11 1_555 1_555
C12 C11 1_555 1_555
C13 C12 1_555 1_555
H9 C13 1_555 1_555
C14 C13 1_555 1_555
H10 C14 1_555 1_555
C15 C14 1_555 1_555
H11 C15 1_555 1_555
C16 C15 1_555 1_555
H12 C16 1_555 1_555
C17 C12 1_555 1_555
C18 C17 1_555 1_555
H13 C18 1_555 1_555
H14 C18 1_555 1_555
H15 C18 1_555 1_555
N1 C1 1_555 1_555
N2 C10 1_555 1_555
O1 N1 1_555 1_555
H16 O1 1_555 1_555
O2 C7 1_555 1_555
C6 C7 1_555 1_555
C8 O2 1_555 1_555
C16 C17 1_555 1_555

#END
