
#######################################################################
#
#                 Cambridge Crystallographic Data Centre
#                                CCDC 
#
#######################################################################
#
# If this CIF has been generated from an entry in the Cambridge 
# Structural Database, then it will include bibliographic, chemical, 
# crystal, experimental, refinement or atomic coordinate data resulting 
# from the CCDC's data processing and validation procedures.
#
#######################################################################

data_GARQIC
_chemical_name_common            
'(7S,8aS)-octahydro-5,5-dimethylindolizin-7-ol acetic acid salt monohydrate'
_chemical_formula_moiety         'C10 H20 N1 O1 1+,C2 H3 O2 1-,H2 O1'
_chemical_name_systematic        
'7-hydroxy-5,5-dimethyloctahydroindolizin-4-ium acetate monohydrate'
_symmetry_cell_setting           orthorhombic
_symmetry_space_group_name_H-M   'P 21 21 21'
_symmetry_Int_Tables_number      19
_space_group_name_Hall           'P 2ac 2ab'
loop_
_symmetry_equiv_pos_site_id
_symmetry_equiv_pos_as_xyz
1 x,y,z
2 1/2-x,-y,1/2+z
3 1/2+x,1/2-y,-z
4 -x,1/2+y,1/2-z
_cell_length_a                   8.20560(10)
_cell_length_b                   11.9665(2)
_cell_length_c                   13.8857(2)
_cell_angle_alpha                90
_cell_angle_beta                 90
_cell_angle_gamma                90
_cell_volume                     1363.47
_exptl_crystal_colour            colorless
_exptl_crystal_description       block
_chemical_melting_point          '352-354 K'
_cell_formula_units_Z            4
_exptl_crystal_recrystallization_method 'diethyl ether'
loop_
_atom_site_label
_atom_site_type_symbol
_atom_site_fract_x
_atom_site_fract_y
_atom_site_fract_z
O1 O 0.66919(15) 0.14777(9) 0.51343(7)
H1 H 0.7161 0.0916 0.4900
N1 N 0.85470(14) 0.31135(10) 0.69981(8)
H2 H 0.8336 0.2908 0.7632
C1 C 0.93295(18) 0.21168(12) 0.65261(10)
H3 H 0.9517 0.2284 0.5829
C2 C 1.09700(19) 0.20735(13) 0.70454(10)
H4 H 1.1800 0.1696 0.6643
H5 H 1.0872 0.1669 0.7664
C3 C 1.14305(19) 0.33088(14) 0.72163(11)
H6 H 1.1820 0.3420 0.7884
H7 H 1.2300 0.3545 0.6766
C4 C 0.98654(18) 0.39772(13) 0.70372(10)
H8 H 0.9667 0.4514 0.7567
H9 H 0.9932 0.4393 0.6422
C5 C 0.69199(18) 0.34647(12) 0.65668(10)
C6 C 0.58293(19) 0.24165(13) 0.65790(11)
H10 H 0.5518 0.2262 0.7255
H11 H 0.4816 0.2589 0.6221
C7 C 0.65638(19) 0.13525(13) 0.61547(10)
H12 H 0.5816 0.0713 0.6296
C8 C 0.82197(19) 0.11119(12) 0.66123(10)
H13 H 0.8069 0.0922 0.7300
H14 H 0.8728 0.0463 0.6289
C9 C 0.71418(19) 0.39429(13) 0.55546(10)
H15 H 0.7739 0.4651 0.5593
H16 H 0.6071 0.4073 0.5263
H17 H 0.7757 0.3412 0.5160
C10 C 0.6190(2) 0.43523(14) 0.72328(11)
H18 H 0.6109 0.4052 0.7888
H19 H 0.5102 0.4558 0.7002
H20 H 0.6892 0.5015 0.7235
O2 O 0.54318(15) 0.61349(9) 0.43143(8)
O3 O 0.68481(15) 0.76215(10) 0.38262(7)
C11 C 0.6267(3) 0.74426(18) 0.55014(11)
H21 H 0.5698 0.8160 0.5553
H22 H 0.7413 0.7541 0.5681
H23 H 0.5756 0.6899 0.5934
C12 C 0.6163(2) 0.70220(14) 0.44735(10)
O4 O 0.31887(15) 0.53635(9) 0.56338(8)
H24 H 0.266(3) 0.593(2) 0.5804(18)
H25 H 0.388(3) 0.5584(19) 0.5215(16)
loop_
_geom_bond_atom_site_label_1
_geom_bond_atom_site_label_2
_geom_bond_site_symmetry_1
_geom_bond_site_symmetry_2
O1 H1 1_555 1_555
N1 H2 1_555 1_555
C1 N1 1_555 1_555
H3 C1 1_555 1_555
C2 C1 1_555 1_555
H4 C2 1_555 1_555
H5 C2 1_555 1_555
C3 C2 1_555 1_555
H6 C3 1_555 1_555
H7 C3 1_555 1_555
C4 N1 1_555 1_555
H8 C4 1_555 1_555
H9 C4 1_555 1_555
C5 N1 1_555 1_555
C6 C5 1_555 1_555
H10 C6 1_555 1_555
H11 C6 1_555 1_555
C7 O1 1_555 1_555
H12 C7 1_555 1_555
C8 C1 1_555 1_555
H13 C8 1_555 1_555
H14 C8 1_555 1_555
C9 C5 1_555 1_555
H15 C9 1_555 1_555
H16 C9 1_555 1_555
H17 C9 1_555 1_555
C10 C5 1_555 1_555
H18 C10 1_555 1_555
H19 C10 1_555 1_555
H20 C10 1_555 1_555
O2 C12 1_555 1_555
O3 C12 1_555 1_555
C11 H21 1_555 1_555
H22 C11 1_555 1_555
H23 C11 1_555 1_555
C12 C11 1_555 1_555
O4 H24 1_555 1_555
H25 O4 1_555 1_555
C3 C4 1_555 1_555
C6 C7 1_555 1_555
C7 C8 1_555 1_555

#END
