
#######################################################################
#
#                 Cambridge Crystallographic Data Centre
#                                CCDC 
#
#######################################################################
#
# If this CIF has been generated from an entry in the Cambridge 
# Structural Database, then it will include bibliographic, chemical, 
# crystal, experimental, refinement or atomic coordinate data resulting 
# from the CCDC's data processing and validation procedures.
#
#######################################################################

data_GARZUX
_chemical_formula_moiety         'C9 H7 N1 O2'
_chemical_name_systematic        7-methyl-1H-indole-2,3-dione
_symmetry_cell_setting           monoclinic
_symmetry_space_group_name_H-M   'P 21/n'
_symmetry_Int_Tables_number      14
_space_group_name_Hall           '-P 2yn'
loop_
_symmetry_equiv_pos_site_id
_symmetry_equiv_pos_as_xyz
1 x,y,z
2 1/2-x,1/2+y,1/2-z
3 -x,-y,-z
4 1/2+x,1/2-y,1/2+z
_cell_length_a                   7.8114(10)
_cell_length_b                   3.8832(4)
_cell_length_c                   24.362(3)
_cell_angle_alpha                90
_cell_angle_beta                 99.055(5)
_cell_angle_gamma                90
_cell_volume                     729.769
_exptl_crystal_colour            orange
_exptl_crystal_description       PLATE
_cell_formula_units_Z            4
loop_
_atom_site_label
_atom_site_type_symbol
_atom_site_fract_x
_atom_site_fract_y
_atom_site_fract_z
O1 O 0.71863(14) -0.0390(3) 0.54254(4)
O2 O 0.86187(14) 0.1882(3) 0.65601(5)
N1 N 0.47768(16) 0.2518(4) 0.56258(5)
H1 H 0.4086(18) 0.206(5) 0.5316(5)
C1 C 0.64162(19) 0.1320(4) 0.57297(6)
C2 C 0.71578(19) 0.2489(4) 0.63341(6)
C3 C 0.57186(19) 0.4265(4) 0.65299(6)
C4 C 0.5546(2) 0.5703(4) 0.70413(6)
H2 H 0.6491 0.5730 0.7339
C5 C 0.3958(2) 0.7094(4) 0.71040(7)
H3 H 0.3804 0.8089 0.7449
C6 C 0.2585(2) 0.7045(4) 0.66648(7)
H4 H 0.1515 0.8049 0.6719
C7 C 0.27078(19) 0.5583(4) 0.61465(6)
C8 C 0.43097(19) 0.4204(4) 0.60971(6)
C9 C 0.1214(2) 0.5477(5) 0.56768(7)
H5 H 0.0248 0.6828 0.5776
H6 H 0.0843 0.3085 0.5606
H7 H 0.1575 0.6447 0.5342
loop_
_geom_bond_atom_site_label_1
_geom_bond_atom_site_label_2
_geom_bond_site_symmetry_1
_geom_bond_site_symmetry_2
O1 C1 1_555 1_555
O2 C2 1_555 1_555
N1 H1 1_555 1_555
C1 N1 1_555 1_555
C2 C1 1_555 1_555
C3 C2 1_555 1_555
C4 C3 1_555 1_555
H2 C4 1_555 1_555
C5 C4 1_555 1_555
H3 C5 1_555 1_555
C6 C5 1_555 1_555
H4 C6 1_555 1_555
C7 C6 1_555 1_555
C8 N1 1_555 1_555
C9 C7 1_555 1_555
H5 C9 1_555 1_555
H6 C9 1_555 1_555
H7 C9 1_555 1_555
C3 C8 1_555 1_555
C7 C8 1_555 1_555

#END
