
#######################################################################
#
#                 Cambridge Crystallographic Data Centre
#                                CCDC 
#
#######################################################################
#
# If this CIF has been generated from an entry in the Cambridge 
# Structural Database, then it will include bibliographic, chemical, 
# crystal, experimental, refinement or atomic coordinate data resulting 
# from the CCDC's data processing and validation procedures.
#
#######################################################################

data_GARZOR
_chemical_formula_moiety         'C17 H12 O4'
_chemical_name_systematic        
3-(benzenecarbonyl)-7-methoxy-2H-1-benzopyran-2-one
_symmetry_cell_setting           monoclinic
_symmetry_space_group_name_H-M   'P 21/c'
_symmetry_Int_Tables_number      14
_space_group_name_Hall           '-P 2ybc'
loop_
_symmetry_equiv_pos_site_id
_symmetry_equiv_pos_as_xyz
1 x,y,z
2 -x,1/2+y,1/2-z
3 -x,-y,-z
4 x,1/2-y,1/2+z
_cell_length_a                   4.07206(11)
_cell_length_b                   11.9589(3)
_cell_length_c                   27.5626(7)
_cell_angle_alpha                90
_cell_angle_beta                 90.306(2)
_cell_angle_gamma                90
_cell_volume                     1342.21
_exptl_crystal_description       prism
_cell_formula_units_Z            4
loop_
_atom_site_label
_atom_site_type_symbol
_atom_site_fract_x
_atom_site_fract_y
_atom_site_fract_z
O1 O -0.0239(5) 0.58205(12) 0.35344(5)
O2 O -0.1454(3) 0.88869(10) 0.30432(4)
O3 O 0.1358(3) 0.86182(9) 0.23776(4)
O4 O 0.6558(4) 0.80906(12) 0.08545(4)
C1 C 0.0047(5) 0.71111(17) 0.43741(7)
H1 H -0.1134 0.6447 0.4389
C2 C 0.0569(6) 0.7723(2) 0.47901(7)
H2 H -0.0263 0.7473 0.5084
C3 C 0.2323(6) 0.8706(2) 0.47706(7)
H3 H 0.2659 0.9123 0.5051
C4 C 0.3582(6) 0.90725(18) 0.43354(7)
H4 H 0.4782 0.9734 0.4324
C5 C 0.3070(4) 0.84630(15) 0.39172(6)
H5 H 0.3932 0.8713 0.3625
C6 C 0.1279(4) 0.74808(14) 0.39307(6)
C7 C 0.0744(5) 0.67775(14) 0.34951(6)
C8 C 0.0393(4) 0.82732(13) 0.28306(5)
C9 C 0.1607(4) 0.71949(12) 0.29987(5)
C10 C 0.3356(4) 0.65378(13) 0.26960(6)
H6 H 0.3984 0.5828 0.2799
C11 C 0.4259(4) 0.69057(12) 0.22246(6)
C12 C 0.3228(4) 0.79611(12) 0.20769(5)
C13 C 0.3930(4) 0.84099(13) 0.16282(5)
H7 H 0.3213 0.9122 0.1542
C14 C 0.5743(4) 0.77607(14) 0.13099(6)
C15 C 0.6868(5) 0.66990(15) 0.14458(7)
H8 H 0.8112 0.6278 0.1231
C16 C 0.6141(4) 0.62805(13) 0.18936(6)
H9 H 0.6898 0.5575 0.1981
C17 C 0.5324(6) 0.91387(18) 0.06893(7)
H10 H 0.5942 0.9250 0.0357
H11 H 0.6225 0.9728 0.0885
H12 H 0.2974 0.9144 0.0714
loop_
_geom_bond_atom_site_label_1
_geom_bond_atom_site_label_2
_geom_bond_site_symmetry_1
_geom_bond_site_symmetry_2
O1 C7 1_555 1_555
O2 C8 1_555 1_555
O3 C8 1_555 1_555
O4 C14 1_555 1_555
C1 H1 1_555 1_555
C2 C1 1_555 1_555
H2 C2 1_555 1_555
C3 C2 1_555 1_555
H3 C3 1_555 1_555
C4 C3 1_555 1_555
H4 C4 1_555 1_555
C5 C4 1_555 1_555
H5 C5 1_555 1_555
C6 C1 1_555 1_555
C7 C6 1_555 1_555
C8 C9 1_555 1_555
C9 C7 1_555 1_555
C10 C9 1_555 1_555
H6 C10 1_555 1_555
C11 C10 1_555 1_555
C12 O3 1_555 1_555
C13 C12 1_555 1_555
H7 C13 1_555 1_555
C14 C13 1_555 1_555
C15 C14 1_555 1_555
H8 C15 1_555 1_555
C16 C11 1_555 1_555
H9 C16 1_555 1_555
C17 O4 1_555 1_555
H10 C17 1_555 1_555
H11 C17 1_555 1_555
H12 C17 1_555 1_555
C5 C6 1_555 1_555
C11 C12 1_555 1_555
C15 C16 1_555 1_555

#END
