
#######################################################################
#
#                 Cambridge Crystallographic Data Centre
#                                CCDC 
#
#######################################################################
#
# If this CIF has been generated from an entry in the Cambridge 
# Structural Database, then it will include bibliographic, chemical, 
# crystal, experimental, refinement or atomic coordinate data resulting 
# from the CCDC's data processing and validation procedures.
#
#######################################################################

data_GASBIO
_chemical_formula_moiety         'C6 H14 N2 2+,H2 O1,2(I1 1-)'
_chemical_name_systematic        
'1,4-Diazoniabicyclo[2.2.2]octane bis(iodide) monohydrate'
_symmetry_cell_setting           orthorhombic
_symmetry_space_group_name_H-M   'P c a 21'
_symmetry_Int_Tables_number      29
_space_group_name_Hall           'P 2c -2ac'
loop_
_symmetry_equiv_pos_site_id
_symmetry_equiv_pos_as_xyz
1 x,y,z
2 -x,-y,1/2+z
3 1/2-x,y,1/2+z
4 1/2+x,-y,z
_cell_length_a                   12.8835(2)
_cell_length_b                   7.68190(10)
_cell_length_c                   11.4395(2)
_cell_angle_alpha                90
_cell_angle_beta                 90
_cell_angle_gamma                90
_cell_volume                     1132.16
_cell_formula_units_Z            4
loop_
_atom_site_label
_atom_site_type_symbol
_atom_site_fract_x
_atom_site_fract_y
_atom_site_fract_z
I1 I 0.914850(13) 0.265337(19) 0.76511(2)
I2 I 0.763262(14) 0.76944(2) 0.081954(14)
N1 N -0.00151(19) 0.7627(3) 0.9378(2)
H1 H -0.044(4) 0.767(4) 0.997(4)
N2 N 0.11954(19) 0.7696(3) 0.7684(3)
H2 H 0.164(3) 0.778(4) 0.709(3)
C1 C 0.0651(2) 0.6027(3) 0.9415(3)
H3 H 0.020(3) 0.508(4) 0.940(3)
H4 H 0.103(3) 0.600(6) 1.011(3)
C2 C -0.0634(2) 0.7681(4) 0.8276(3)
H5 H -0.100(3) 0.657(5) 0.816(3)
H6 H -0.108(3) 0.855(5) 0.834(3)
C3 C 0.1306(2) 0.5983(3) 0.8302(2)
H7 H 0.107(2) 0.508(4) 0.775(3)
H8 H 0.209(3) 0.585(4) 0.843(3)
C4 C 0.0106(3) 0.7889(4) 0.7255(3)
H9 H 0.006(3) 0.903(4) 0.698(3)
H10 H -0.006(3) 0.708(4) 0.668(4)
C5 C 0.0661(2) 0.9213(3) 0.9484(3)
H11 H 0.021(3) 1.018(4) 0.944(3)
H12 H 0.098(3) 0.922(6) 1.022(3)
C6 C 0.1458(2) 0.9178(4) 0.8488(3)
H13 H 0.144(3) 1.021(4) 0.806(3)
H14 H 0.214(3) 0.901(4) 0.875(3)
O1 O 0.81283(19) 0.3221(3) 0.0499(2)
H15 H 0.846(3) 0.309(5) -0.020(3)
H16 H 0.802(3) 0.423(5) 0.050(3)
loop_
_geom_bond_atom_site_label_1
_geom_bond_atom_site_label_2
_geom_bond_site_symmetry_1
_geom_bond_site_symmetry_2
N1 H1 1_555 1_555
N2 H2 1_555 1_555
C1 N1 1_555 1_555
H3 C1 1_555 1_555
H4 C1 1_555 1_555
C2 N1 1_555 1_555
H5 C2 1_555 1_555
H6 C2 1_555 1_555
C3 N2 1_555 1_555
H7 C3 1_555 1_555
H8 C3 1_555 1_555
C4 N2 1_555 1_555
H9 C4 1_555 1_555
H10 C4 1_555 1_555
C5 N1 1_555 1_555
H11 C5 1_555 1_555
H12 C5 1_555 1_555
C6 N2 1_555 1_555
H13 C6 1_555 1_555
H14 C6 1_555 1_555
O1 H15 1_555 1_555
H16 O1 1_555 1_555
C1 C3 1_555 1_555
C2 C4 1_555 1_555
C5 C6 1_555 1_555

#END
