
#######################################################################
#
#                 Cambridge Crystallographic Data Centre
#                                CCDC 
#
#######################################################################
#
# If this CIF has been generated from an entry in the Cambridge 
# Structural Database, then it will include bibliographic, chemical, 
# crystal, experimental, refinement or atomic coordinate data resulting 
# from the CCDC's data processing and validation procedures.
#
#######################################################################

data_GASCAG
_chemical_name_common            (+-)-Folicanthine
_chemical_formula_moiety         'C24 H30 N4'
_chemical_name_systematic        
1,1',8,8'-Tetramethyl-2,2',3,3',8,8',8a,8a'-octahydro-1H,1'H-3a,3a'-bipyrrolo[2,3-b]indole
_symmetry_cell_setting           monoclinic
_symmetry_space_group_name_H-M   'C 2/c'
_symmetry_Int_Tables_number      15
_space_group_name_Hall           '-C 2yn'
loop_
_symmetry_equiv_pos_site_id
_symmetry_equiv_pos_as_xyz
1 x,y,z
2 -x,y,1/2-z
3 1/2+x,1/2+y,z
4 1/2-x,1/2+y,1/2-z
5 -x,-y,-z
6 x,-y,1/2+z
7 1/2-x,1/2-y,-z
8 1/2+x,1/2-y,1/2+z
_cell_length_a                   28.442(8)
_cell_length_b                   16.060(5)
_cell_length_c                   13.506(4)
_cell_angle_alpha                90
_cell_angle_beta                 90.289(3)
_cell_angle_gamma                90
_cell_volume                     6169.17
_exptl_crystal_colour            colorless
_exptl_crystal_description       block
_cell_formula_units_Z            12
loop_
_atom_site_label
_atom_site_type_symbol
_atom_site_fract_x
_atom_site_fract_y
_atom_site_fract_z
C1 C 0.40939(8) 0.09567(14) 0.01695(18)
C2 C 0.42776(9) 0.17153(15) -0.0128(2)
H1 H 0.4519 0.1968 0.0229
C3 C 0.40946(10) 0.20887(17) -0.0968(2)
H2 H 0.4217 0.2594 -0.1183
C4 C 0.37348(10) 0.17226(17) -0.1489(2)
H3 H 0.3615 0.1982 -0.2053
C5 C 0.35483(9) 0.09699(16) -0.11815(19)
H4 H 0.3303 0.0725 -0.1535
C6 C 0.37275(7) 0.05847(14) -0.03468(17)
C7 C 0.35950(7) -0.02353(13) 0.01268(17)
C8 C 0.37413(8) -0.09772(14) -0.05391(19)
H5 H 0.3534 -0.1450 -0.0444
H6 H 0.3737 -0.0821 -0.1233
C9 C 0.42343(9) -0.11744(16) -0.0194(2)
H7 H 0.4322 -0.1740 -0.0363
H8 H 0.4461 -0.0791 -0.0475
C10 C 0.39492(7) -0.02879(14) 0.10203(18)
H9 H 0.3779 -0.0299 0.1649
C11 C 0.46326(9) -0.11577(18) 0.1425(2)
H10 H 0.4757 -0.1707 0.1326
H11 H 0.4572 -0.1074 0.2117
H12 H 0.4856 -0.0752 0.1202
C12 C 0.44441(10) 0.08377(18) 0.1830(2)
H13 H 0.4737 0.1100 0.1664
H14 H 0.4499 0.0414 0.2319
H15 H 0.4232 0.1247 0.2090
C13 C 0.24950(8) 0.07890(16) 0.0328(2)
C14 C 0.22640(10) 0.15220(17) 0.0566(3)
H16 H 0.2006 0.1702 0.0199
C15 C 0.24288(12) 0.19774(19) 0.1362(3)
H17 H 0.2279 0.2473 0.1528
C16 C 0.28051(11) 0.17204(19) 0.1911(3)
H18 H 0.2907 0.2035 0.2449
C17 C 0.30352(9) 0.09882(16) 0.1665(2)
H19 H 0.3292 0.0811 0.2037
C18 C 0.28833(8) 0.05253(14) 0.08707(18)
C19 C 0.30700(7) -0.02858(14) 0.04527(17)
C20 C 0.29793(8) -0.10123(15) 0.11826(19)
H20 H 0.3215 -0.1445 0.1112
H21 H 0.2980 -0.0817 0.1862
C21 C 0.25014(9) -0.13240(15) 0.0886(2)
H22 H 0.2451 -0.1890 0.1112
H23 H 0.2255 -0.0969 0.1143
C22 C 0.27217(8) -0.04697(15) -0.04155(18)
H24 H 0.2891 -0.0490 -0.1046
C23 C 0.20877(9) -0.14890(17) -0.0693(2)
H25 H 0.1993 -0.2043 -0.0514
H26 H 0.2134 -0.1460 -0.1395
H27 H 0.1847 -0.1101 -0.0503
C24 C 0.21450(10) 0.04799(19) -0.1312(2)
H28 H 0.1812 0.0482 -0.1202
H29 H 0.2218 0.0097 -0.1835
H30 H 0.2246 0.1029 -0.1495
N1 N 0.42414(7) 0.04657(12) 0.09549(15)
N2 N 0.41976(7) -0.10682(12) 0.08674(17)
N3 N 0.25229(7) -0.12825(12) -0.01865(16)
N4 N 0.23850(7) 0.02265(13) -0.04157(16)
C25 C 0.08137(8) -0.04628(14) 0.76148(18)
C26 C 0.10206(9) -0.12176(15) 0.7851(2)
H31 H 0.1287 -0.1401 0.7520
C27 C 0.08190(10) -0.16951(15) 0.8595(2)
H32 H 0.0951 -0.2206 0.8761
C28 C 0.04282(10) -0.14230(15) 0.9087(2)
H33 H 0.0298 -0.1750 0.9584
C29 C 0.02246(9) -0.06651(14) 0.88507(18)
H34 H -0.0041 -0.0483 0.9187
C30 C 0.04178(8) -0.01833(13) 0.81142(17)
C31 C 0.02601(7) 0.06460(12) 0.76829(17)
C32 C 0.03628(8) 0.13698(14) 0.84239(19)
H35 H 0.0133 0.1813 0.8355
H36 H 0.0362 0.1172 0.9102
C33 C 0.08471(8) 0.16617(15) 0.8123(2)
H37 H 0.0906 0.2227 0.8343
H38 H 0.1090 0.1299 0.8386
C34 C 0.06244(7) 0.07963(13) 0.68359(18)
H39 H 0.0466 0.0800 0.6190
C35 C 0.12567(9) 0.18135(17) 0.6549(2)
H40 H 0.1349 0.2373 0.6710
H41 H 0.1211 0.1766 0.5847
H42 H 0.1499 0.1434 0.6757
C36 C 0.11898(10) -0.01934(17) 0.6007(2)
H43 H 0.1517 -0.0284 0.6145
H44 H 0.1158 0.0216 0.5493
H45 H 0.1048 -0.0706 0.5795
N5 N 0.08206(7) 0.16122(11) 0.70548(17)
N6 N 0.09574(6) 0.01008(11) 0.68988(16)
C25A C -0.08137(8) -0.04628(14) 0.73852(18)
C26A C -0.10206(9) -0.12176(15) 0.7149(2)
H31A H -0.1287 -0.1401 0.7480
C27A C -0.08190(10) -0.16951(15) 0.6405(2)
H32A H -0.0951 -0.2206 0.6239
C28A C -0.04282(10) -0.14230(15) 0.5913(2)
H33A H -0.0298 -0.1750 0.5416
C29A C -0.02246(9) -0.06651(14) 0.61493(18)
H34A H 0.0041 -0.0483 0.5813
C30A C -0.04178(8) -0.01833(13) 0.68858(17)
C31A C -0.02601(7) 0.06460(12) 0.73171(17)
C32A C -0.03628(8) 0.13698(14) 0.65761(19)
H35A H -0.0133 0.1813 0.6645
H36A H -0.0362 0.1172 0.5898
C33A C -0.08471(8) 0.16617(15) 0.6877(2)
H37A H -0.0906 0.2227 0.6657
H38A H -0.1090 0.1299 0.6614
C34A C -0.06244(7) 0.07963(13) 0.81641(18)
H39A H -0.0466 0.0800 0.8810
C35A C -0.12567(9) 0.18135(17) 0.8451(2)
H40A H -0.1349 0.2373 0.8290
H41A H -0.1211 0.1766 0.9153
H42A H -0.1499 0.1434 0.8243
C36A C -0.11898(10) -0.01934(17) 0.8993(2)
H43A H -0.1517 -0.0284 0.8855
H44A H -0.1158 0.0216 0.9507
H45A H -0.1048 -0.0706 0.9205
N5A N -0.08206(7) 0.16122(11) 0.79452(17)
N6A N -0.09574(6) 0.01008(11) 0.81012(16)
loop_
_geom_bond_atom_site_label_1
_geom_bond_atom_site_label_2
_geom_bond_site_symmetry_1
_geom_bond_site_symmetry_2
C1 C2 1_555 1_555
C2 H1 1_555 1_555
C3 C2 1_555 1_555
H2 C3 1_555 1_555
C4 C3 1_555 1_555
H3 C4 1_555 1_555
C5 C4 1_555 1_555
H4 C5 1_555 1_555
C6 C1 1_555 1_555
C7 C6 1_555 1_555
C8 C7 1_555 1_555
H5 C8 1_555 1_555
H6 C8 1_555 1_555
C9 C8 1_555 1_555
H7 C9 1_555 1_555
H8 C9 1_555 1_555
C10 C7 1_555 1_555
H9 C10 1_555 1_555
C11 H10 1_555 1_555
H11 C11 1_555 1_555
H12 C11 1_555 1_555
C12 H13 1_555 1_555
H14 C12 1_555 1_555
H15 C12 1_555 1_555
C13 C14 1_555 1_555
C14 H16 1_555 1_555
C15 C14 1_555 1_555
H17 C15 1_555 1_555
C16 C15 1_555 1_555
H18 C16 1_555 1_555
C17 C16 1_555 1_555
H19 C17 1_555 1_555
C18 C13 1_555 1_555
C19 C7 1_555 1_555
C20 C19 1_555 1_555
H20 C20 1_555 1_555
H21 C20 1_555 1_555
C21 C20 1_555 1_555
H22 C21 1_555 1_555
H23 C21 1_555 1_555
C22 C19 1_555 1_555
H24 C22 1_555 1_555
C23 H25 1_555 1_555
H26 C23 1_555 1_555
H27 C23 1_555 1_555
C24 H28 1_555 1_555
H29 C24 1_555 1_555
H30 C24 1_555 1_555
N1 C1 1_555 1_555
N2 C9 1_555 1_555
N3 C21 1_555 1_555
N4 C13 1_555 1_555
C25 C26 1_555 1_555
C26 H31 1_555 1_555
C27 C26 1_555 1_555
H32 C27 1_555 1_555
C28 C27 1_555 1_555
H33 C28 1_555 1_555
C29 C28 1_555 1_555
H34 C29 1_555 1_555
C30 C25 1_555 1_555
C31 C30 1_555 1_555
C32 C31 1_555 1_555
H35 C32 1_555 1_555
H36 C32 1_555 1_555
C33 C32 1_555 1_555
H37 C33 1_555 1_555
H38 C33 1_555 1_555
C34 C31 1_555 1_555
H39 C34 1_555 1_555
C35 H40 1_555 1_555
H41 C35 1_555 1_555
H42 C35 1_555 1_555
C36 H43 1_555 1_555
H44 C36 1_555 1_555
H45 C36 1_555 1_555
N5 C33 1_555 1_555
N6 C25 1_555 1_555
C25A C26A 1_555 1_555
C26A H31A 1_555 1_555
C27A C26A 1_555 1_555
H32A C27A 1_555 1_555
C28A C27A 1_555 1_555
H33A C28A 1_555 1_555
C29A C28A 1_555 1_555
H34A C29A 1_555 1_555
C30A C25A 1_555 1_555
C31A C31 1_555 1_555
C32A C31A 1_555 1_555
H35A C32A 1_555 1_555
H36A C32A 1_555 1_555
C33A C32A 1_555 1_555
H37A C33A 1_555 1_555
H38A C33A 1_555 1_555
C34A C31A 1_555 1_555
H39A C34A 1_555 1_555
C35A H40A 1_555 1_555
H41A C35A 1_555 1_555
H42A C35A 1_555 1_555
C36A H43A 1_555 1_555
H44A C36A 1_555 1_555
H45A C36A 1_555 1_555
N5A C33A 1_555 1_555
N6A C25A 1_555 1_555
C5 C6 1_555 1_555
C10 N1 1_555 1_555
C10 N2 1_555 1_555
C11 N2 1_555 1_555
C12 N1 1_555 1_555
C17 C18 1_555 1_555
C18 C19 1_555 1_555
C22 N3 1_555 1_555
C22 N4 1_555 1_555
C23 N3 1_555 1_555
C24 N4 1_555 1_555
C29 C30 1_555 1_555
C34 N5 1_555 1_555
C34 N6 1_555 1_555
C35 N5 1_555 1_555
C36 N6 1_555 1_555
C29A C30A 1_555 1_555
C30A C31A 1_555 1_555
C34A N5A 1_555 1_555
C34A N6A 1_555 1_555
C35A N5A 1_555 1_555
C36A N6A 1_555 1_555

#END
