
#######################################################################
#
#                 Cambridge Crystallographic Data Centre
#                                CCDC 
#
#######################################################################
#
# If this CIF has been generated from an entry in the Cambridge 
# Structural Database, then it will include bibliographic, chemical, 
# crystal, experimental, refinement or atomic coordinate data resulting 
# from the CCDC's data processing and validation procedures.
#
#######################################################################

data_GASFIP
_chemical_formula_moiety         'C106 H58 N2 O20,C6 H6,1.2(C4 H8 O2)'
_chemical_name_systematic        
'Decaethyl 66,66-bis(4-pyridyl)-1,2:18,36:22,23:27,45:31,32:55,56-hexakis(methano)C60fullerene-61,61,62,62,63,63,64,64,65,65-decacarboxylate benzene ethyl acetate solvate'
_symmetry_cell_setting           triclinic
_symmetry_space_group_name_H-M   'P -1'
_symmetry_Int_Tables_number      2
_space_group_name_Hall           '-P 1'
loop_
_symmetry_equiv_pos_site_id
_symmetry_equiv_pos_as_xyz
1 x,y,z
2 -x,-y,-z
_cell_length_a                   14.218(7)
_cell_length_b                   25.562(13)
_cell_length_c                   25.916(13)
_cell_angle_alpha                84.18(3)
_cell_angle_beta                 74.84(3)
_cell_angle_gamma                89.81(4)
_cell_volume                     9041.64
_exptl_crystal_colour            yellow
_exptl_crystal_description       plate-like
_chemical_melting_point          'above 270deg.C'
_cell_formula_units_Z            4
_exptl_crystal_recrystallization_method 
'dichloromethane/ethyl acetate/benzene/hexane'
loop_
_atom_site_label
_atom_site_type_symbol
_atom_site_fract_x
_atom_site_fract_y
_atom_site_fract_z
C107 C 0.4224(5) -0.1067(2) -0.1509(2)
C108 C 0.5275(4) -0.1014(2) -0.1916(2)
C109 C 0.5847(5) -0.1504(3) -0.1949(2)
C110 C 0.5546(5) -0.1959(3) -0.1623(2)
C111 C 0.4569(5) -0.2009(2) -0.1248(2)
C112 C 0.3916(5) -0.1598(2) -0.1219(2)
C113 C 0.2923(5) -0.1705(2) -0.1199(2)
C114 C 0.2602(4) -0.1274(2) -0.1530(2)
C115 C 0.3386(4) -0.0915(2) -0.1754(2)
C116 C 0.3549(4) -0.0689(2) -0.2276(2)
C117 C 0.4522(4) -0.0639(2) -0.2649(2)
C118 C 0.5338(4) -0.0822(2) -0.2486(2)
C119 C 0.6050(4) -0.1106(2) -0.2831(2)
C120 C 0.6370(4) -0.1535(2) -0.2497(2)
C121 C 0.6614(4) -0.2021(3) -0.2685(3)
C122 C 0.6283(5) -0.2486(3) -0.2342(3)
C123 C 0.5785(5) -0.2463(2) -0.1811(3)
C124 C 0.5023(5) -0.2854(3) -0.1508(3)
C125 C 0.4212(5) -0.2539(3) -0.1212(2)
C126 C 0.3248(5) -0.2635(2) -0.1189(2)
C127 C 0.2578(5) -0.2213(2) -0.1164(2)
C128 C 0.1786(5) -0.2362(2) -0.1409(2)
C129 C 0.1438(5) -0.1892(2) -0.1772(2)
C130 C 0.1929(4) -0.1372(2) -0.1823(2)
C131 C 0.2095(4) -0.1136(2) -0.2358(2)
C132 C 0.2869(4) -0.0791(2) -0.2576(2)
C133 C 0.3386(4) -0.0742(2) -0.3155(2)
C134 C 0.4447(4) -0.0709(2) -0.3178(2)
C135 C 0.5140(4) -0.0993(2) -0.3505(2)
C136 C 0.5976(4) -0.1176(2) -0.3342(2)
C137 C 0.6326(4) -0.1653(3) -0.3610(2)
C138 C 0.6680(5) -0.2122(3) -0.3249(2)
C139 C 0.6184(5) -0.2636(2) -0.3200(3)
C140 C 0.6009(5) -0.2878(2) -0.2656(3)
C141 C 0.5249(5) -0.3230(2) -0.2437(3)
C142 C 0.4711(5) -0.3277(2) -0.1863(3)
C143 C 0.3667(5) -0.3307(2) -0.1846(3)
C144 C 0.2972(5) -0.3025(2) -0.1517(2)
C145 C 0.2144(5) -0.2835(2) -0.1677(2)
C146 C 0.2062(5) -0.2908(2) -0.2193(2)
C147 C 0.1736(4) -0.2479(2) -0.2520(2)
C148 C 0.1497(4) -0.1992(2) -0.2336(2)
C149 C 0.1820(4) -0.1528(2) -0.2676(2)
C150 C 0.2331(4) -0.1551(2) -0.3208(2)
C151 C 0.3092(4) -0.1162(2) -0.3505(2)
C152 C 0.3895(4) -0.1477(2) -0.3800(2)
C153 C 0.4869(4) -0.1376(2) -0.3823(2)
C154 C 0.5526(4) -0.1800(2) -0.3852(2)
C155 C 0.5193(5) -0.2314(2) -0.3822(2)
C156 C 0.5509(5) -0.2741(2) -0.3488(2)
C157 C 0.4728(5) -0.3099(2) -0.3263(3)
C158 C 0.4564(5) -0.3330(2) -0.2741(3)
C159 C 0.3597(5) -0.3374(2) -0.2375(3)
C160 C 0.2771(5) -0.3197(2) -0.2536(2)
C161 C 0.2832(5) -0.2998(2) -0.3101(2)
C162 C 0.2257(4) -0.2506(2) -0.3064(2)
C163 C 0.2578(4) -0.2047(2) -0.3396(2)
C164 C 0.3551(4) -0.2004(2) -0.3768(2)
C165 C 0.4191(4) -0.2418(2) -0.3795(2)
C166 C 0.3894(5) -0.2943(2) -0.3500(2)
C167 C 0.4992(5) -0.0700(2) -0.1440(2)
C168 C 0.4875(5) -0.0110(2) -0.1548(2)
C169 C 0.4064(6) 0.0130(3) -0.1253(3)
H59 H 0.3564(6) -0.0066(3) -0.1006(3)
C170 C 0.4029(7) 0.0684(3) -0.1344(4)
H60 H 0.3472(7) 0.0844(3) -0.1158(4)
C171 C 0.5482(6) 0.0742(3) -0.1941(3)
H61 H 0.5985(6) 0.0944(3) -0.2178(3)
C172 C 0.5578(5) 0.0204(3) -0.1893(3)
H62 H 0.6130(5) 0.0055(3) -0.2099(3)
C173 C 0.5464(5) -0.0823(3) -0.0986(3)
C174 C 0.4949(6) -0.0816(3) -0.0466(3)
H63 H 0.4276(6) -0.0781(3) -0.0380(3)
C175 C 0.5427(7) -0.0861(4) -0.0064(3)
H64 H 0.5057(7) -0.0853(4) 0.0289(3)
C176 C 0.6867(6) -0.0931(3) -0.0650(3)
H65 H 0.7535(6) -0.0980(3) -0.0723(3)
C177 C 0.6454(5) -0.0878(3) -0.1088(3)
H66 H 0.6841(5) -0.0881(3) -0.1438(3)
N3 N 0.4717(6) 0.0989(2) -0.1670(3)
N4 N 0.6391(5) -0.0917(3) -0.0150(2)
C178 C 0.3125(5) -0.3307(2) -0.3581(2)
C179 C 0.3199(5) -0.3889(2) -0.3469(3)
C180 C 0.2267(10) -0.4693(3) -0.3323(5)
H67 H 0.2848(10) -0.4839(3) -0.3242(5)
H68 H 0.1712(10) -0.4800(3) -0.3022(5)
C181 C 0.2140(12) -0.4881(4) -0.3792(5)
H69 H 0.2047(99) -0.5256(7) -0.3734(19)
H70 H 0.2707(41) -0.4791(46) -0.4083(14)
H71 H 0.1579(57) -0.4723(41) -0.3878(31)
C182 C 0.2717(5) -0.3159(3) -0.4059(3)
C183 C 0.2919(10) -0.3278(6) -0.4982(4)
H72 H 0.2681(10) -0.2924(6) -0.5016(4)
H73 H 0.3476(10) -0.3313(6) -0.5285(4)
C184 C 0.2183(16) -0.3644(7) -0.4977(8)
H74 H 0.2403(73) -0.3855(70) -0.5270(66)
H75 H 0.1611(65) -0.3461(8) -0.502(11)
H76 H 0.203(14) -0.3866(70) -0.4643(45)
O21 O 0.2359(5) -0.4114(2) -0.3404(3)
O22 O 0.3909(5) -0.4115(2) -0.3437(3)
O23 O 0.2094(5) -0.2870(2) -0.4080(2)
O24 O 0.3211(5) -0.3381(3) -0.4468(2)
C185 C 0.7350(4) -0.1847(2) -0.3750(2)
C186 C 0.7681(5) -0.2149(3) -0.4229(3)
C187 C 0.8907(7) -0.2695(4) -0.4677(4)
H77 H 0.8393(7) -0.2837(4) -0.4809(4)
H78 H 0.9318(7) -0.2462(4) -0.4966(4)
C188 C 0.9464(13) -0.3107(6) -0.4526(5)
H79 H 0.974(11) -0.3293(44) -0.4831(18)
H80 H 0.9054(27) -0.3343(37) -0.4246(50)
H81 H 0.9975(77) -0.2966(7) -0.4397(66)
C189 C 0.8140(5) -0.1486(3) -0.3690(3)
C190 C 0.9333(8) -0.0822(5) -0.4160(6)
H82 H 0.9319(8) -0.0723(5) -0.3806(6)
H83 H 0.9919(8) -0.1019(5) -0.4281(6)
C191 C 0.9390(17) -0.0385(7) -0.4495(9)
H84 H 0.997(12) -0.0188(59) -0.4508(94)
H85 H 0.883(11) -0.0175(57) -0.4370(68)
H86 H 0.941(22) -0.0476(8) -0.4848(29)
O25 O 0.8476(4) -0.2397(2) -0.4223(2)
O26 O 0.7285(4) -0.2172(3) -0.4575(2)
O27 O 0.8449(6) -0.1510(5) -0.3322(3)
O28 O 0.8482(5) -0.1170(3) -0.4110(3)
C192 C 0.5138(5) -0.3441(2) -0.1384(3)
C193 C 0.6151(6) -0.3648(3) -0.1516(3)
C194 C 0.7072(10) -0.4421(5) -0.1513(9)
H87 H 0.7332(10) -0.4462(5) -0.1892(9)
H88 H 0.7526(10) -0.4199(5) -0.1407(9)
C195 C 0.6997(17) -0.4896(7) -0.1226(9)
H89 H 0.755(10) -0.5102(40) -0.1378(67)
H90 H 0.641(10) -0.5072(45) -0.1235(92)
H91 H 0.698(20) -0.4852(8) -0.0861(27)
C196 C 0.4461(7) -0.3708(3) -0.0889(3)
C197 C 0.4150(13) -0.3944(7) 0.0055(4)
H92 H 0.3470(13) -0.3849(7) 0.0136(4)
H93 H 0.4185(13) -0.4317(7) 0.0012(4)
C198 C 0.4523(22) -0.3847(11) 0.0470(6)
H94 H 0.5199(83) -0.394(16) 0.0388(74)
H95 H 0.417(21) -0.406(13) 0.0792(38)
H96 H 0.446(29) -0.3481(35) 0.052(11)
O29 O 0.6104(6) -0.4156(3) -0.1432(5)
O30 O 0.6866(5) -0.3417(3) -0.1669(5)
O31 O 0.3793(7) -0.3986(3) -0.0886(3)
O32 O 0.4705(7) -0.3634(3) -0.0464(2)
C199 C 0.0746(5) -0.2178(3) -0.1274(2)
C200 C -0.0032(5) -0.2534(3) -0.1361(3)
C201 C -0.1624(6) -0.2498(5) -0.1508(5)
H97 H -0.1808(6) -0.2343(5) -0.1824(5)
H98 H -0.1518(6) -0.2870(5) -0.1542(5)
C202 C -0.2377(7) -0.2436(7) -0.1045(6)
H99 H -0.2449(70) -0.2751(22) -0.0800(25)
H100 H -0.2976(23) -0.2372(56) -0.1144(8)
H101 H -0.2220(50) -0.2144(36) -0.0875(33)
C203 C 0.0409(5) -0.1898(3) -0.0781(3)
C204 C -0.0550(10) -0.2029(6) 0.0147(4)
H102 H -0.0602(10) -0.2319(6) 0.0426(4)
H103 H -0.0143(10) -0.1751(6) 0.0211(4)
C205 C -0.1427(12) -0.1852(12) 0.0136(8)
H104 H -0.1867(75) -0.192(14) 0.0488(40)
H105 H -0.167(13) -0.203(12) -0.012(12)
H106 H -0.1381(54) -0.1480(30) 0.003(16)
O33 O -0.0730(4) -0.2244(2) -0.1472(3)
O34 O -0.0034(4) -0.2996(2) -0.1327(3)
O35 O 0.0621(5) -0.1475(3) -0.0720(3)
O36 O -0.0134(7) -0.2209(3) -0.0407(2)
C206 C 0.2908(4) -0.0579(2) -0.3611(2)
C207 C 0.1859(4) -0.0430(2) -0.3478(3)
C208 C 0.0689(5) 0.0160(3) -0.3066(3)
H107 H 0.0582(5) 0.0356(3) -0.2754(3)
H108 H 0.0220(5) -0.0131(3) -0.2981(3)
C209 C 0.0543(7) 0.0508(4) -0.3530(4)
H109 H -0.0101(21) 0.0648(24) -0.3440(12)
H110 H 0.0618(57) 0.0310(8) -0.3834(10)
H111 H 0.1016(36) 0.0793(17) -0.3619(20)
C210 C 0.3525(5) -0.0273(2) -0.4107(3)
C211 C 0.3588(7) 0.0498(4) -0.4718(4)
H112 H 0.4034(7) 0.0714(4) -0.4599(4)
H113 H 0.3960(7) 0.0315(4) -0.5013(4)
C212 C 0.2859(9) 0.0823(5) -0.4889(5)
H114 H 0.3176(11) 0.1077(32) -0.5181(34)
H115 H 0.2498(61) 0.1002(37) -0.4594(16)
H116 H 0.2422(54) 0.0604(8) -0.5005(46)
O37 O 0.1682(3) -0.0044(2) -0.3188(2)
O38 O 0.1269(4) -0.0643(2) -0.3649(2)
O39 O 0.4341(4) -0.0350(2) -0.4317(2)
O40 O 0.3052(4) 0.0117(2) -0.4270(2)
C221 C 0.5533(11) -0.1961(5) -0.5423(5)
H117 H 0.5721(11) -0.1871(5) -0.5125(5)
C222 C 0.4592(12) -0.1932(6) -0.5429(6)
H118 H 0.4116(12) -0.1822(6) -0.5143(6)
C223 C 0.4358(9) -0.2084(7) -0.5915(7)
H119 H 0.3728(9) -0.2062(7) -0.5955(7)
C224 C 0.5056(10) -0.2248(6) -0.6282(5)
H120 H 0.4923(10) -0.2366(6) -0.6584(5)
C225 C 0.5955(9) -0.2251(5) -0.6236(5)
H121 H 0.6451(9) -0.2359(5) -0.6514(5)
C226 C 0.6167(10) -0.2110(6) -0.5821(5)
H122 H 0.6816(10) -0.2116(6) -0.5809(5)
C227 C 0.1206(12) -0.0042(6) 0.1800(7)
H123 H 0.1141(12) -0.0347(6) 0.1644(7)
C228 C 0.0836(11) 0.0398(7) 0.1659(6)
H124 H 0.0545(11) 0.0404(7) 0.1376(6)
C229 C 0.0842(9) 0.0842(6) 0.1886(6)
H125 H 0.0532(9) 0.1138(6) 0.1779(6)
C230 C 0.1319(9) 0.0850(5) 0.2285(5)
H126 H 0.1349(9) 0.1153(5) 0.2451(5)
C231 C 0.1746(8) 0.0398(6) 0.2427(5)
H127 H 0.2079(8) 0.0389(6) 0.2693(5)
C232 C 0.1686(9) -0.0034(5) 0.2183(7)
H128 H 0.1986(9) -0.0337(5) 0.2281(7)
C1 C 0.2362(4) -0.2400(2) 0.1202(2)
C2 C 0.2632(4) -0.1979(2) 0.1563(2)
C3 C 0.1810(4) -0.1680(2) 0.1855(2)
C4 C 0.0864(4) -0.1705(2) 0.1779(2)
C5 C 0.0624(4) -0.2092(2) 0.1452(2)
C6 C 0.1316(5) -0.2437(2) 0.1208(2)
C7 C 0.1044(5) -0.2978(2) 0.1225(2)
C8 C 0.1879(4) -0.3297(2) 0.1299(2)
C9 C 0.2633(4) -0.2951(2) 0.1330(2)
C10 C 0.3170(4) -0.3092(2) 0.1700(2)
C11 C 0.3430(4) -0.2706(2) 0.2027(2)
C12 C 0.3119(4) -0.2191(2) 0.1988(2)
C13 C 0.2737(4) -0.1937(2) 0.2460(2)
C14 C 0.1909(4) -0.1618(2) 0.2383(2)
C15 C 0.1119(4) -0.1556(2) 0.2799(2)
C16 C 0.0156(4) -0.1593(2) 0.2719(2)
C17 C 0.0039(4) -0.1646(2) 0.2214(2)
C18 C -0.0800(4) -0.1946(2) 0.2128(2)
C19 C -0.0359(4) -0.2268(2) 0.1687(2)
C20 C -0.0617(4) -0.2795(2) 0.1700(2)
C21 C 0.0098(5) -0.3153(2) 0.1448(2)
C22 C -0.0177(5) -0.3689(2) 0.1727(2)
C23 C 0.0728(5) -0.4036(2) 0.1819(2)
C24 C 0.1715(5) -0.3778(2) 0.1604(2)
C25 C 0.2276(5) -0.3921(2) 0.1982(2)
C26 C 0.3018(4) -0.3585(2) 0.2008(2)
C27 C 0.3276(5) -0.3542(3) 0.2534(2)
C28 C 0.3410(4) -0.2965(2) 0.2543(2)
C29 C 0.3027(4) -0.2720(2) 0.3003(2)
C30 C 0.2722(4) -0.2193(2) 0.2964(2)
C31 C 0.1941(4) -0.2111(2) 0.3452(2)
C32 C 0.1060(4) -0.1758(2) 0.3363(2)
C33 C 0.0076(4) -0.2011(2) 0.3574(2)
C34 C -0.0480(4) -0.1872(2) 0.3195(2)
C35 C -0.1233(4) -0.2206(2) 0.3168(2)
C36 C -0.1484(4) -0.2255(2) 0.2654(2)
C37 C -0.1614(4) -0.2829(2) 0.2638(2)
C38 C -0.1250(4) -0.3077(2) 0.2179(2)
C39 C -0.0938(4) -0.3611(2) 0.2219(2)
C40 C -0.0951(4) -0.3862(2) 0.2724(2)
C41 C -0.0137(4) -0.4184(2) 0.2806(2)
C42 C 0.0660(5) -0.4246(2) 0.2388(2)
C43 C 0.1635(5) -0.4206(2) 0.2456(2)
C44 C 0.1743(5) -0.4149(2) 0.2973(3)
C45 C 0.2578(4) -0.3850(2) 0.3053(2)
C46 C 0.2132(5) -0.3530(2) 0.3497(2)
C47 C 0.2390(4) -0.3000(2) 0.3482(2)
C48 C 0.1693(4) -0.2648(2) 0.3735(2)
C49 C 0.0736(4) -0.2819(2) 0.3957(2)
C50 C -0.0084(4) -0.2501(2) 0.3879(2)
C51 C -0.0846(4) -0.2841(2) 0.3847(2)
C52 C -0.1393(4) -0.2702(2) 0.3476(2)
C53 C -0.1635(4) -0.3092(2) 0.3153(2)
C54 C -0.1334(4) -0.3607(2) 0.3195(2)
C55 C -0.0848(4) -0.3815(2) 0.3619(2)
C56 C -0.0023(5) -0.4124(2) 0.3329(2)
C57 C 0.0915(4) -0.4091(2) 0.3398(2)
C58 C 0.1156(4) -0.3699(2) 0.3728(2)
C59 C 0.0458(4) -0.3357(2) 0.3982(2)
C60 C -0.0583(4) -0.3392(2) 0.3970(2)
C61 C 0.3057(5) -0.1939(2) 0.0966(2)
C62 C 0.4114(5) -0.2074(2) 0.0734(2)
C63 C 0.4341(5) -0.2337(3) 0.0281(3)
H1 H 0.3852(5) -0.2441(3) 0.0133(3)
C64 C 0.5310(6) -0.2446(4) 0.0047(3)
H2 H 0.5452(6) -0.2630(4) -0.0255(3)
C65 C 0.5803(5) -0.2037(3) 0.0664(3)
H3 H 0.6304(5) -0.1925(3) 0.0800(3)
C66 C 0.4862(5) -0.1916(3) 0.0924(3)
H4 H 0.4741(5) -0.1730(3) 0.1224(3)
C67 C 0.2746(4) -0.1461(2) 0.0657(2)
C68 C 0.2328(5) -0.1506(3) 0.0238(3)
H5 H 0.2183(5) -0.1833(3) 0.0146(3)
C69 C 0.2131(5) -0.1036(3) -0.0044(3)
H6 H 0.1850(5) -0.1063(3) -0.0326(3)
C70 C 0.2718(6) -0.0528(3) 0.0476(3)
H7 H 0.2860(6) -0.0197(3) 0.0560(3)
C71 C 0.2927(5) -0.0970(3) 0.0776(3)
H8 H 0.3194(5) -0.0932(3) 0.1063(3)
N1 N 0.6046(5) -0.2298(3) 0.0238(3)
N2 N 0.2316(5) -0.0563(2) 0.0064(3)
C72 C -0.1315(4) -0.3839(2) 0.4220(2)
C73 C -0.1034(5) -0.4276(3) 0.4577(3)
C74 C -0.1595(9) -0.4880(5) 0.5343(5)
H9 H -0.1424(9) -0.5202(5) 0.5176(5)
H10 H -0.1052(9) -0.4774(5) 0.5475(5)
C75 C -0.2403(13) -0.4971(8) 0.5765(7)
H11 H -0.2307(89) -0.5274(70) 0.5994(66)
H12 H -0.2958(43) -0.503(12) 0.5631(9)
H13 H -0.251(13) -0.4671(47) 0.5965(71)
C76 C -0.2377(5) -0.3712(2) 0.4388(2)
C77 C -0.3593(6) -0.3308(4) 0.5029(4)
H14 H -0.3632(6) -0.2968(4) 0.5168(4)
H15 H -0.3954(6) -0.3294(4) 0.4759(4)
C78 C -0.4010(10) -0.3693(6) 0.5446(6)
H16 H -0.4696(22) -0.3635(34) 0.5572(40)
H17 H -0.3710(74) -0.3676(37) 0.5736(24)
H18 H -0.3913(92) -0.4034(7) 0.5318(16)
O1 O -0.1765(4) -0.4466(3) 0.4943(3)
O2 O -0.0231(4) -0.4414(3) 0.4548(3)
O3 O -0.2976(4) -0.3860(3) 0.4191(2)
O4 O -0.2562(4) -0.3420(2) 0.4781(2)
C79 C 0.1685(4) -0.1597(2) 0.3714(2)
C80 C 0.1207(5) -0.1619(2) 0.4306(2)
C81 C 0.1393(9) -0.1848(4) 0.5180(3)
H19 H 0.0692(9) -0.1810(4) 0.5293(3)
H20 H 0.1553(9) -0.2173(4) 0.5362(3)
C82 C 0.1881(9) -0.1403(5) 0.5324(4)
H21 H 0.1786(69) -0.1432(24) 0.5706(6)
H22 H 0.1612(56) -0.1081(6) 0.5209(40)
H23 H 0.2566(15) -0.1404(26) 0.5150(36)
C83 C 0.2371(5) -0.1133(3) 0.3503(2)
C84 C 0.3234(11) -0.0434(5) 0.3745(4)
H24 H 0.3793(11) -0.0504(5) 0.3456(4)
H25 H 0.2918(11) -0.0124(5) 0.3628(4)
C85 C 0.3524(14) -0.0354(8) 0.4202(6)
H26 H 0.346(17) 0.0011(21) 0.4262(56)
H27 H 0.4191(58) -0.0452(90) 0.4155(39)
H28 H 0.312(12) -0.0565(74) 0.4506(18)
O5 O 0.1709(5) -0.1870(2) 0.4592(2)
O6 O 0.0476(4) -0.1405(3) 0.4483(2)
O7 O 0.2727(5) -0.0981(3) 0.3066(2)
O8 O 0.2527(6) -0.0902(3) 0.3890(2)
C86 C -0.1883(4) -0.1833(2) 0.2311(2)
C87 C -0.2170(5) -0.1328(2) 0.2546(3)
C88 C -0.3361(7) -0.0663(3) 0.2659(4)
H29 H -0.2833(7) -0.0436(3) 0.2684(4)
H30 H -0.3705(7) -0.0477(3) 0.2422(4)
C89 C -0.4014(11) -0.0786(5) 0.3182(6)
H31 H -0.4574(52) -0.0977(53) 0.3151(8)
H32 H -0.4219(92) -0.0466(5) 0.3338(27)
H33 H -0.3689(35) -0.0997(52) 0.3407(19)
C90 C -0.2559(4) -0.2008(3) 0.1995(2)
C91 C -0.4069(5) -0.2440(3) 0.2069(3)
H34 H -0.4674(5) -0.2502(3) 0.2348(3)
H35 H -0.4169(5) -0.2157(3) 0.1811(3)
C92 C -0.3819(8) -0.2907(4) 0.1805(5)
H36 H -0.4340(32) -0.3005(22) 0.1659(35)
H37 H -0.3718(69) -0.3187(11) 0.2060(10)
H38 H -0.3233(40) -0.2842(12) 0.1520(25)
O9 O -0.2961(4) -0.1149(2) 0.2437(3)
O10 O -0.1769(4) -0.1120(2) 0.2819(2)
O11 O -0.2415(3) -0.1900(2) 0.1528(2)
O12 O -0.3300(3) -0.2279(2) 0.2310(2)
C93 C 0.0091(5) -0.4198(2) 0.1473(2)
C94 C 0.0553(6) -0.4156(3) 0.0878(3)
C95 C 0.0404(11) -0.3867(6) 0.0015(3)
H39 H 0.0778(11) -0.4173(6) -0.0099(3)
H40 H -0.0140(11) -0.3851(6) -0.0148(3)
C96 C 0.1003(14) -0.3409(6) -0.0180(5)
H41 H 0.1560(72) -0.3491(18) -0.0458(54)
H42 H 0.122(12) -0.3284(44) 0.0109(18)
H43 H 0.0639(44) -0.3141(26) -0.0323(70)
C97 C -0.0565(6) -0.4670(3) 0.1694(3)
C98 C -0.0663(12) -0.5611(5) 0.1649(8)
H44 H -0.0176(12) -0.5880(5) 0.1573(8)
H45 H -0.0963(12) -0.5639(5) 0.2032(8)
C99 C -0.1349(17) -0.5660(8) 0.1369(9)
H46 H -0.185(11) -0.5907(90) 0.1571(56)
H47 H -0.1047(46) -0.578(11) 0.1028(51)
H48 H -0.163(16) -0.5324(26) 0.131(11)
O13 O 0.0022(5) -0.3936(3) 0.0599(2)
O14 O 0.1366(5) -0.4299(3) 0.0689(2)
O15 O -0.1260(6) -0.4705(2) 0.2046(3)
O16 O -0.0210(6) -0.5063(3) 0.1445(5)
C100 C 0.3638(3) -0.39780(14) 0.2855(2)
C101 C 0.3875(3) -0.4482(2) 0.2625(2)
C102 C 0.5257(5) -0.4936(3) 0.2091(4)
H49 H 0.4989(6) -0.5035(4) 0.1806(4)
H50 H 0.5955(5) -0.4877(4) 0.1951(4)
C103 C 0.5047(6) -0.5327(3) 0.2532(4)
H51 H 0.5425(7) -0.5631(3) 0.2438(6)
H52 H 0.4366(6) -0.5421(2) 0.2627(4)
H53 H 0.5208(6) -0.5194(2) 0.2833(4)
C104 C 0.4290(3) -0.38286(15) 0.3189(2)
C105 C 0.5192(5) -0.4168(3) 0.3785(3)
H54 H 0.5728(5) -0.4259(3) 0.3493(3)
H55 H 0.5355(6) -0.3838(3) 0.3899(3)
C106 C 0.5020(8) -0.4571(3) 0.4220(3)
H56 H 0.5356(9) -0.4482(4) 0.4477(4)
H57 H 0.5254(8) -0.4898(3) 0.4089(4)
H58 H 0.4333(8) -0.4605(4) 0.4389(2)
O17 O 0.4776(3) -0.4452(2) 0.2318(2)
O18 O 0.3426(4) -0.4798(2) 0.2546(2)
O19 O 0.4907(4) -0.3520(2) 0.3048(2)
O20 O 0.4242(4) -0.4116(2) 0.3597(2)
C213? C 0.9821(9) -0.0838(4) 0.1007(5)
C214? C 0.8549(10) -0.0131(7) 0.1497(11)
C215? C 0.9504(20) 0.0148(7) 0.0663(9)
C216? C -0.0280(18) -0.3103(24) -0.2924(10)
C217? C -0.0727(27) -0.4209(9) -0.3046(13)
C218? C -0.2803(32) -0.3855(16) 0.0721(18)
C219? C 0.8952(19) -0.0507(12) 0.1107(15)
C220? C -0.1543(21) -0.3533(23) -0.2980(9)
C233? C -0.2618(26) -0.4474(18) 0.0627(14)
C234? C 0.8390(35) -0.0578(9) 0.0382(10)
C235? C -0.2130(22) -0.4532(17) 0.0041(17)
C236? C -0.2475(23) -0.3728(13) 0.0078(17)
C237? C -0.0508(26) -0.3486(16) -0.3113(10)
C238? C 1.0000 0.0000 0.0000
C239? C 0.4304(15) -0.4775(5) 0.2903(6)
C240? C 0.6131(19) -0.3827(15) 0.3113(9)
C241? C 0.5096(37) -0.5293(8) 0.2506(17)
C242? C 0.6079(33) -0.5114(24) 0.2114(18)
loop_
_geom_bond_atom_site_label_1
_geom_bond_atom_site_label_2
_geom_bond_site_symmetry_1
_geom_bond_site_symmetry_2
C1 C2 1_555 1_555
C2 C3 1_555 1_555
C3 C4 1_555 1_555
C4 C5 1_555 1_555
C5 C6 1_555 1_555
C6 C1 1_555 1_555
C7 C6 1_555 1_555
C8 C7 1_555 1_555
C9 C1 1_555 1_555
C10 C9 1_555 1_555
C11 C10 1_555 1_555
C12 C2 1_555 1_555
C13 C12 1_555 1_555
C14 C3 1_555 1_555
C15 C14 1_555 1_555
C16 C15 1_555 1_555
C17 C4 1_555 1_555
C18 C17 1_555 1_555
C19 C5 1_555 1_555
C20 C19 1_555 1_555
C21 C7 1_555 1_555
C22 C21 1_555 1_555
C23 C22 1_555 1_555
C24 C8 1_555 1_555
C25 C24 1_555 1_555
C26 C10 1_555 1_555
C27 C26 1_555 1_555
C28 C11 1_555 1_555
C29 C28 1_555 1_555
C30 C13 1_555 1_555
C31 C30 1_555 1_555
C32 C15 1_555 1_555
C33 C32 1_555 1_555
C34 C16 1_555 1_555
C35 C34 1_555 1_555
C36 C18 1_555 1_555
C37 C36 1_555 1_555
C38 C20 1_555 1_555
C39 C22 1_555 1_555
C40 C39 1_555 1_555
C41 C40 1_555 1_555
C42 C23 1_555 1_555
C43 C25 1_555 1_555
C44 C43 1_555 1_555
C45 C27 1_555 1_555
C46 C45 1_555 1_555
C47 C29 1_555 1_555
C48 C31 1_555 1_555
C49 C48 1_555 1_555
C50 C33 1_555 1_555
C51 C50 1_555 1_555
C52 C35 1_555 1_555
C53 C37 1_555 1_555
C54 C40 1_555 1_555
C55 C54 1_555 1_555
C56 C41 1_555 1_555
C57 C44 1_555 1_555
C58 C46 1_555 1_555
C59 C49 1_555 1_555
C60 C51 1_555 1_555
C61 C1 1_555 1_555
C62 C61 1_555 1_555
C63 C62 1_555 1_555
H1 C63 1_555 1_555
C64 C63 1_555 1_555
H2 C64 1_555 1_555
C65 H3 1_555 1_555
C66 C62 1_555 1_555
H4 C66 1_555 1_555
C67 C61 1_555 1_555
C68 C67 1_555 1_555
H5 C68 1_555 1_555
C69 C68 1_555 1_555
H6 C69 1_555 1_555
C70 H7 1_555 1_555
C71 C67 1_555 1_555
H8 C71 1_555 1_555
N1 C64 1_555 1_555
N2 C69 1_555 1_555
C72 C55 1_555 1_555
C73 C72 1_555 1_555
C74 H9 1_555 1_555
H10 C74 1_555 1_555
C75 C74 1_555 1_555
H11 C75 1_555 1_555
H12 C75 1_555 1_555
H13 C75 1_555 1_555
C76 C72 1_555 1_555
C77 H14 1_555 1_555
H15 C77 1_555 1_555
C78 C77 1_555 1_555
H16 C78 1_555 1_555
H17 C78 1_555 1_555
H18 C78 1_555 1_555
O1 C73 1_555 1_555
O2 C73 1_555 1_555
O3 C76 1_555 1_555
O4 C76 1_555 1_555
C79 C31 1_555 1_555
C80 C79 1_555 1_555
C81 H19 1_555 1_555
H20 C81 1_555 1_555
C82 C81 1_555 1_555
H21 C82 1_555 1_555
H22 C82 1_555 1_555
H23 C82 1_555 1_555
C83 C79 1_555 1_555
C84 H24 1_555 1_555
H25 C84 1_555 1_555
C85 C84 1_555 1_555
H26 C85 1_555 1_555
H27 C85 1_555 1_555
H28 C85 1_555 1_555
O5 C80 1_555 1_555
O6 C80 1_555 1_555
O7 C83 1_555 1_555
O8 C83 1_555 1_555
C86 C18 1_555 1_555
C87 C86 1_555 1_555
C88 H29 1_555 1_555
H30 C88 1_555 1_555
C89 C88 1_555 1_555
H31 C89 1_555 1_555
H32 C89 1_555 1_555
H33 C89 1_555 1_555
C90 C86 1_555 1_555
C91 H34 1_555 1_555
H35 C91 1_555 1_555
C92 C91 1_555 1_555
H36 C92 1_555 1_555
H37 C92 1_555 1_555
H38 C92 1_555 1_555
O9 C87 1_555 1_555
O10 C87 1_555 1_555
O11 C90 1_555 1_555
O12 C90 1_555 1_555
C93 C22 1_555 1_555
C94 C93 1_555 1_555
C95 H39 1_555 1_555
H40 C95 1_555 1_555
C96 C95 1_555 1_555
H41 C96 1_555 1_555
H42 C96 1_555 1_555
H43 C96 1_555 1_555
C97 C93 1_555 1_555
C98 H44 1_555 1_555
H45 C98 1_555 1_555
C99 C98 1_555 1_555
H46 C99 1_555 1_555
H47 C99 1_555 1_555
H48 C99 1_555 1_555
O13 C94 1_555 1_555
O14 C94 1_555 1_555
O15 C97 1_555 1_555
O16 C97 1_555 1_555
C100 C27 1_555 1_555
C101 C100 1_555 1_555
C102 H49 1_555 1_555
H50 C102 1_555 1_555
C103 C102 1_555 1_555
H51 C103 1_555 1_555
H52 C103 1_555 1_555
H53 C103 1_555 1_555
C104 C100 1_555 1_555
C105 H54 1_555 1_555
H55 C105 1_555 1_555
C106 C105 1_555 1_555
H56 C106 1_555 1_555
H57 C106 1_555 1_555
H58 C106 1_555 1_555
O17 C101 1_555 1_555
O18 C101 1_555 1_555
O19 C104 1_555 1_555
O20 C104 1_555 1_555
C107 C108 1_555 1_555
C108 C109 1_555 1_555
C109 C110 1_555 1_555
C110 C111 1_555 1_555
C111 C112 1_555 1_555
C112 C107 1_555 1_555
C113 C112 1_555 1_555
C114 C113 1_555 1_555
C115 C107 1_555 1_555
C116 C115 1_555 1_555
C117 C116 1_555 1_555
C118 C108 1_555 1_555
C119 C118 1_555 1_555
C120 C109 1_555 1_555
C121 C120 1_555 1_555
C122 C121 1_555 1_555
C123 C110 1_555 1_555
C124 C123 1_555 1_555
C125 C111 1_555 1_555
C126 C125 1_555 1_555
C127 C113 1_555 1_555
C128 C127 1_555 1_555
C129 C128 1_555 1_555
C130 C114 1_555 1_555
C131 C130 1_555 1_555
C132 C116 1_555 1_555
C133 C132 1_555 1_555
C134 C117 1_555 1_555
C135 C134 1_555 1_555
C136 C119 1_555 1_555
C137 C136 1_555 1_555
C138 C121 1_555 1_555
C139 C138 1_555 1_555
C140 C122 1_555 1_555
C141 C140 1_555 1_555
C142 C124 1_555 1_555
C143 C142 1_555 1_555
C144 C126 1_555 1_555
C145 C128 1_555 1_555
C146 C145 1_555 1_555
C147 C146 1_555 1_555
C148 C129 1_555 1_555
C149 C131 1_555 1_555
C150 C149 1_555 1_555
C151 C133 1_555 1_555
C152 C151 1_555 1_555
C153 C135 1_555 1_555
C154 C137 1_555 1_555
C155 C154 1_555 1_555
C156 C139 1_555 1_555
C157 C156 1_555 1_555
C158 C141 1_555 1_555
C159 C143 1_555 1_555
C160 C146 1_555 1_555
C161 C160 1_555 1_555
C162 C147 1_555 1_555
C163 C150 1_555 1_555
C164 C152 1_555 1_555
C165 C155 1_555 1_555
C166 C157 1_555 1_555
C167 C107 1_555 1_555
C168 C167 1_555 1_555
C169 C168 1_555 1_555
H59 C169 1_555 1_555
C170 C169 1_555 1_555
H60 C170 1_555 1_555
C171 H61 1_555 1_555
C172 C168 1_555 1_555
H62 C172 1_555 1_555
C173 C167 1_555 1_555
C174 C173 1_555 1_555
H63 C174 1_555 1_555
C175 C174 1_555 1_555
H64 C175 1_555 1_555
C176 H65 1_555 1_555
C177 C173 1_555 1_555
H66 C177 1_555 1_555
N3 C170 1_555 1_555
N4 C175 1_555 1_555
C178 C161 1_555 1_555
C179 C178 1_555 1_555
C180 H67 1_555 1_555
H68 C180 1_555 1_555
C181 C180 1_555 1_555
H69 C181 1_555 1_555
H70 C181 1_555 1_555
H71 C181 1_555 1_555
C182 C178 1_555 1_555
C183 H72 1_555 1_555
H73 C183 1_555 1_555
C184 C183 1_555 1_555
H74 C184 1_555 1_555
H75 C184 1_555 1_555
H76 C184 1_555 1_555
O21 C179 1_555 1_555
O22 C179 1_555 1_555
O23 C182 1_555 1_555
O24 C182 1_555 1_555
C185 C137 1_555 1_555
C186 C185 1_555 1_555
C187 H77 1_555 1_555
H78 C187 1_555 1_555
C188 C187 1_555 1_555
H79 C188 1_555 1_555
H80 C188 1_555 1_555
H81 C188 1_555 1_555
C189 C185 1_555 1_555
C190 H82 1_555 1_555
H83 C190 1_555 1_555
C191 C190 1_555 1_555
H84 C191 1_555 1_555
H85 C191 1_555 1_555
H86 C191 1_555 1_555
O25 C186 1_555 1_555
O26 C186 1_555 1_555
O27 C189 1_555 1_555
O28 C189 1_555 1_555
C192 C124 1_555 1_555
C193 C192 1_555 1_555
C194 H87 1_555 1_555
H88 C194 1_555 1_555
C195 C194 1_555 1_555
H89 C195 1_555 1_555
H90 C195 1_555 1_555
H91 C195 1_555 1_555
C196 C192 1_555 1_555
C197 H92 1_555 1_555
H93 C197 1_555 1_555
C198 C197 1_555 1_555
H94 C198 1_555 1_555
H95 C198 1_555 1_555
H96 C198 1_555 1_555
O29 C193 1_555 1_555
O30 C193 1_555 1_555
O31 C196 1_555 1_555
O32 C196 1_555 1_555
C199 C128 1_555 1_555
C200 C199 1_555 1_555
C201 H97 1_555 1_555
H98 C201 1_555 1_555
C202 C201 1_555 1_555
H99 C202 1_555 1_555
H100 C202 1_555 1_555
H101 C202 1_555 1_555
C203 C199 1_555 1_555
C204 H102 1_555 1_555
H103 C204 1_555 1_555
C205 C204 1_555 1_555
H104 C205 1_555 1_555
H105 C205 1_555 1_555
H106 C205 1_555 1_555
O33 C200 1_555 1_555
O34 C200 1_555 1_555
O35 C203 1_555 1_555
O36 C203 1_555 1_555
C206 C133 1_555 1_555
C207 C206 1_555 1_555
C208 H107 1_555 1_555
H108 C208 1_555 1_555
C209 C208 1_555 1_555
H109 C209 1_555 1_555
H110 C209 1_555 1_555
H111 C209 1_555 1_555
C210 C206 1_555 1_555
C211 H112 1_555 1_555
H113 C211 1_555 1_555
C212 C211 1_555 1_555
H114 C212 1_555 1_555
H115 C212 1_555 1_555
H116 C212 1_555 1_555
O37 C207 1_555 1_555
O38 C207 1_555 1_555
O39 C210 1_555 1_555
O40 C210 1_555 1_555
C221 H117 1_555 1_555
C222 C221 1_555 1_555
H118 C222 1_555 1_555
C223 C222 1_555 1_555
H119 C223 1_555 1_555
C224 C223 1_555 1_555
H120 C224 1_555 1_555
C225 C224 1_555 1_555
H121 C225 1_555 1_555
C226 C221 1_555 1_555
H122 C226 1_555 1_555
C227 H123 1_555 1_555
C228 C227 1_555 1_555
H124 C228 1_555 1_555
C229 C228 1_555 1_555
H125 C229 1_555 1_555
C230 C229 1_555 1_555
H126 C230 1_555 1_555
C231 C230 1_555 1_555
H127 C231 1_555 1_555
C232 C227 1_555 1_555
H128 C232 1_555 1_555
C2 C61 1_555 1_555
C8 C9 1_555 1_555
C11 C12 1_555 1_555
C13 C14 1_555 1_555
C16 C17 1_555 1_555
C18 C19 1_555 1_555
C20 C21 1_555 1_555
C23 C24 1_555 1_555
C23 C93 1_555 1_555
C25 C26 1_555 1_555
C27 C28 1_555 1_555
C29 C30 1_555 1_555
C31 C32 1_555 1_555
C32 C79 1_555 1_555
C33 C34 1_555 1_555
C35 C36 1_555 1_555
C36 C86 1_555 1_555
C37 C38 1_555 1_555
C38 C39 1_555 1_555
C41 C42 1_555 1_555
C42 C43 1_555 1_555
C44 C45 1_555 1_555
C45 C100 1_555 1_555
C46 C47 1_555 1_555
C47 C48 1_555 1_555
C49 C50 1_555 1_555
C51 C52 1_555 1_555
C52 C53 1_555 1_555
C53 C54 1_555 1_555
C55 C56 1_555 1_555
C55 C60 1_555 1_555
C56 C57 1_555 1_555
C57 C58 1_555 1_555
C58 C59 1_555 1_555
C59 C60 1_555 1_555
C60 C72 1_555 1_555
C65 N1 1_555 1_555
C65 C66 1_555 1_555
C70 N2 1_555 1_555
C70 C71 1_555 1_555
C74 O1 1_555 1_555
C77 O4 1_555 1_555
C81 O5 1_555 1_555
C84 O8 1_555 1_555
C88 O9 1_555 1_555
C91 O12 1_555 1_555
C95 O13 1_555 1_555
C98 O16 1_555 1_555
C102 O17 1_555 1_555
C105 O20 1_555 1_555
C108 C167 1_555 1_555
C114 C115 1_555 1_555
C117 C118 1_555 1_555
C119 C120 1_555 1_555
C122 C123 1_555 1_555
C124 C125 1_555 1_555
C126 C127 1_555 1_555
C129 C130 1_555 1_555
C129 C199 1_555 1_555
C131 C132 1_555 1_555
C133 C134 1_555 1_555
C135 C136 1_555 1_555
C137 C138 1_555 1_555
C138 C185 1_555 1_555
C139 C140 1_555 1_555
C141 C142 1_555 1_555
C142 C192 1_555 1_555
C143 C144 1_555 1_555
C144 C145 1_555 1_555
C147 C148 1_555 1_555
C148 C149 1_555 1_555
C150 C151 1_555 1_555
C151 C206 1_555 1_555
C152 C153 1_555 1_555
C153 C154 1_555 1_555
C155 C156 1_555 1_555
C157 C158 1_555 1_555
C158 C159 1_555 1_555
C159 C160 1_555 1_555
C161 C162 1_555 1_555
C161 C166 1_555 1_555
C162 C163 1_555 1_555
C163 C164 1_555 1_555
C164 C165 1_555 1_555
C165 C166 1_555 1_555
C166 C178 1_555 1_555
C171 N3 1_555 1_555
C171 C172 1_555 1_555
C176 N4 1_555 1_555
C176 C177 1_555 1_555
C180 O21 1_555 1_555
C183 O24 1_555 1_555
C187 O25 1_555 1_555
C190 O28 1_555 1_555
C194 O29 1_555 1_555
C197 O32 1_555 1_555
C201 O33 1_555 1_555
C204 O36 1_555 1_555
C208 O37 1_555 1_555
C211 O40 1_555 1_555
C225 C226 1_555 1_555
C231 C232 1_555 1_555

#END
