
#######################################################################
#
#                 Cambridge Crystallographic Data Centre
#                                CCDC 
#
#######################################################################
#
# If this CIF has been generated from an entry in the Cambridge 
# Structural Database, then it will include bibliographic, chemical, 
# crystal, experimental, refinement or atomic coordinate data resulting 
# from the CCDC's data processing and validation procedures.
#
#######################################################################

data_GASLAO
_chemical_formula_moiety         
'2(C18 H21 Cl1 N1 O3 1+),C18 H12 O8 2-,0.5(C1 H4 O1)'
_chemical_name_systematic        
'(2S,3S)-2-((3-Chlorophenyl)-(2-methoxyphenoxy)methyl)morpholine dibenzoyl-D-tartarate methanol solvate'
_symmetry_cell_setting           tetragonal
_symmetry_space_group_name_H-M   'P 43'
_symmetry_Int_Tables_number      78
_space_group_name_Hall           'P 4cw'
loop_
_symmetry_equiv_pos_site_id
_symmetry_equiv_pos_as_xyz
1 x,y,z
2 -x,-y,1/2+z
3 -y,x,3/4+z
4 y,-x,1/4+z
_cell_length_a                   8.70440(10)
_cell_length_b                   8.70440(10)
_cell_length_c                   73.005(2)
_cell_angle_alpha                90
_cell_angle_beta                 90
_cell_angle_gamma                90
_cell_volume                     5531.34
_exptl_crystal_colour            colorless
_exptl_crystal_description       'thin needle'
_chemical_melting_point          '160-162 deg.C'
_cell_formula_units_Z            4
loop_
_atom_site_label
_atom_site_type_symbol
_atom_site_fract_x
_atom_site_fract_y
_atom_site_fract_z
Cl2 Cl 0.3914 1.0406 0.1066
N2 N 0.3360 0.2974 0.0455
H3 H 0.2955 0.2277 0.0378
H4 H 0.3740 0.3752 0.0388
C1 C 0.2129 0.3572 0.0577
H5 H 0.1368 0.4116 0.0505
H6 H 0.1623 0.2722 0.0638
C3 C 0.2792 0.4624 0.0716
H9 H 0.3238 0.5504 0.0651
C5 C 0.3984 0.3887 0.0815
H11 H 0.4389 0.4590 0.0906
H12 H 0.3568 0.3002 0.0878
C6 C 0.5190 0.3406 0.0698
H13 H 0.6004 0.2951 0.0771
H14 H 0.5610 0.4290 0.0635
C9 C 0.4624 0.2253 0.0560
H19 H 0.5452 0.1959 0.0479
H20 H 0.4255 0.1339 0.0622
C10 C 0.1604 0.5233 0.0852
H21 H 0.0865 0.5875 0.0785
C13 C 0.2280 0.6148 0.1005
C15 C 0.2736 0.7680 0.0975
H24 H 0.2576 0.8124 0.0861
C17 C 0.3392 0.8508 0.1107
C18 C 0.3630 0.7919 0.1280
H25 H 0.4081 0.8503 0.1372
C20 C 0.3154 0.6385 0.1311
H27 H 0.3299 0.5953 0.1427
C22 C 0.2500 0.5539 0.1179
H29 H 0.2192 0.4537 0.1204
O3 O 0.0823 0.3881 0.0919
C25 C -0.0584 0.4045 0.1002
C27 C -0.1052 0.2808 0.1109
C29 C -0.2460 0.2766 0.1189
H32 H -0.2766 0.1925 0.1258
C31 C -0.3457 0.4056 0.1163
H34 H -0.4432 0.4045 0.1215
C33 C -0.3001 0.5285 0.1065
H36 H -0.3652 0.6125 0.1052
C35 C -0.1558 0.5298 0.0983
H38 H -0.1247 0.6146 0.0915
O4 O 0.0007 0.1636 0.1123
C37 C -0.0294 0.0487 0.1250
H42 H 0.0477 -0.0298 0.1240
H43 H -0.1286 0.0050 0.1225
H44 H -0.0281 0.0914 0.1371
C38 C 0.8713 1.0390 0.3059
C39 C 0.9460 1.0805 0.3214
H45 H 1.0015 1.0073 0.3279
C40 C 0.9409 1.2245 0.3275
H46 H 0.9937 1.2512 0.3381
C41 C 0.8555 1.3375 0.3179
H47 H 0.8527 1.4381 0.3222
C42 C 0.7779 1.2990 0.3025
H48 H 0.7206 1.3717 0.2961
C43 C 0.7864 1.1449 0.2963
H49 H 0.7342 1.1154 0.2858
C44 C 0.8848 0.8767 0.2989
O6 O 0.8180 0.8569 0.2829
C45 C 0.8421 0.7170 0.2732
H50 H 0.8227 0.6293 0.2813
C46 C 0.7248 0.7187 0.2578
H51 H 0.7466 0.6351 0.2492
O7 O 0.7476 0.8625 0.2490
C47 C 0.6793 0.8894 0.2329
C48 C 0.6979 1.0523 0.2270
C49 C 0.7894 1.1510 0.2364
H52 H 0.8433 1.1153 0.2465
C50 C 0.8043 1.3045 0.2312
H53 H 0.8659 1.3713 0.2379
C51 C 0.7270 1.3540 0.2162
H54 H 0.7394 1.4545 0.2122
C52 C 0.6280 1.2537 0.2068
H55 H 0.5715 1.2905 0.1969
C53 C 0.6130 1.1011 0.2119
H56 H 0.5488 1.0343 0.2056
O8 O 0.9489 0.7750 0.3074
C54 C 1.0042 0.7052 0.2651
O9 O 1.1009 0.8010 0.2702
O10 O 1.0250 0.5955 0.2547
C55 C 0.5640 0.7003 0.2655
O11 O 0.5452 0.5866 0.2757
O12 O 0.4634 0.7983 0.2615
O13 O 0.6145 0.7900 0.2241
O14 O 0.7948 0.2228 0.0115
C56 C 0.8200 0.3731 0.0189
H58 H 0.9031 0.4215 0.0125
H59 H 0.8453 0.3650 0.0317
H60 H 0.7285 0.4335 0.0175
H63 H 0.8016 0.2383 0.0029
Cl1 Cl 0.5128 0.6383 0.1771
N1 N 1.2699 0.6762 0.2345
H1 H 1.1919 0.6424 0.2415
H2 H 1.3433 0.7135 0.2420
C2 C 1.2141 0.8000 0.2224
H7 H 1.3004 0.8469 0.2161
H8 H 1.1637 0.8785 0.2297
C4 C 1.1028 0.7360 0.2085
H10 H 1.0156 0.6910 0.2151
O1 O 1.1749 0.6191 0.1983
C7 C 1.2211 0.4956 0.2099
H15 H 1.2656 0.4145 0.2025
H16 H 1.1316 0.4541 0.2161
C8 C 1.3337 0.5452 0.2237
H17 H 1.4278 0.5768 0.2176
H18 H 1.3576 0.4603 0.2318
C11 C 1.0430 0.8597 0.1960
H22 H 0.9817 0.9325 0.2032
C12 C 0.9429 0.7925 0.1809
C14 C 0.7930 0.7534 0.1850
H23 H 0.7528 0.7729 0.1966
C16 C 0.7048 0.6857 0.1718
C19 C 0.7541 0.6595 0.1540
H26 H 0.6905 0.6156 0.1452
C21 C 0.9039 0.7023 0.1501
H28 H 0.9421 0.6862 0.1384
C23 C 0.9976 0.7681 0.1631
H30 H 1.0974 0.7963 0.1601
O2 O 1.1725 0.9389 0.1884
C24 C 1.1485 1.0774 0.1799
C26 C 1.2720 1.1366 0.1702
C28 C 1.2587 1.2740 0.1616
H31 H 1.3426 1.3156 0.1554
C30 C 1.1200 1.3527 0.1619
H33 H 1.1088 1.4430 0.1553
C32 C 1.0031 1.2991 0.1718
H35 H 0.9128 1.3558 0.1726
C34 C 1.0149 1.1620 0.1806
H37 H 0.9314 1.1247 0.1871
O5 O 1.4025 1.0491 0.1704
C36 C 1.5297 1.1020 0.1605
H39 H 1.6102 1.0267 0.1610
H40 H 1.5655 1.1966 0.1657
H41 H 1.5006 1.1188 0.1479
H57? H 0.8661 0.1663 0.0145
O15? O 0.8592 0.2848 0.0284
H61? H 0.7984 0.2388 0.0350
C57? C 0.7864 0.3212 0.0114
H62? H 0.6784 0.3361 0.0133
H64? H 0.8304 0.4135 0.0064
loop_
_geom_bond_atom_site_label_1
_geom_bond_atom_site_label_2
_geom_bond_site_symmetry_1
_geom_bond_site_symmetry_2
Cl1 C16 1_555 1_555
Cl2 C17 1_555 1_555
N1 H1 1_555 1_555
H2 N1 1_555 1_555
N2 H3 1_555 1_555
H4 N2 1_555 1_555
C1 N2 1_555 1_555
H5 C1 1_555 1_555
H6 C1 1_555 1_555
C2 N1 1_555 1_555
H7 C2 1_555 1_555
H8 C2 1_555 1_555
C3 C1 1_555 1_555
H9 C3 1_555 1_555
C4 C2 1_555 1_555
H10 C4 1_555 1_555
C5 C3 1_555 1_555
H11 C5 1_555 1_555
H12 C5 1_555 1_555
O1 C4 1_555 1_555
C6 C5 1_555 1_555
H13 C6 1_555 1_555
H14 C6 1_555 1_555
C7 O1 1_555 1_555
H15 C7 1_555 1_555
H16 C7 1_555 1_555
C8 N1 1_555 1_555
H17 C8 1_555 1_555
H18 C8 1_555 1_555
C9 N2 1_555 1_555
H19 C9 1_555 1_555
H20 C9 1_555 1_555
C10 C3 1_555 1_555
H21 C10 1_555 1_555
C11 C4 1_555 1_555
H22 C11 1_555 1_555
C12 C11 1_555 1_555
C13 C10 1_555 1_555
C14 C12 1_555 1_555
H23 C14 1_555 1_555
C15 C13 1_555 1_555
H24 C15 1_555 1_555
C16 C14 1_555 1_555
C17 C15 1_555 1_555
C18 C17 1_555 1_555
H25 C18 1_555 1_555
C19 C16 1_555 1_555
H26 C19 1_555 1_555
C20 C18 1_555 1_555
H27 C20 1_555 1_555
C21 C19 1_555 1_555
H28 C21 1_555 1_555
C22 C13 1_555 1_555
H29 C22 1_555 1_555
C23 C12 1_555 1_555
H30 C23 1_555 1_555
O2 C11 1_555 1_555
O3 C10 1_555 1_555
C24 O2 1_555 1_555
C25 O3 1_555 1_555
C26 C24 1_555 1_555
C27 C25 1_555 1_555
C28 C26 1_555 1_555
H31 C28 1_555 1_555
C29 C27 1_555 1_555
H32 C29 1_555 1_555
C30 C28 1_555 1_555
H33 C30 1_555 1_555
C31 C29 1_555 1_555
H34 C31 1_555 1_555
C32 C30 1_555 1_555
H35 C32 1_555 1_555
C33 C31 1_555 1_555
H36 C33 1_555 1_555
C34 C24 1_555 1_555
H37 C34 1_555 1_555
C35 C25 1_555 1_555
H38 C35 1_555 1_555
O4 C27 1_555 1_555
O5 C26 1_555 1_555
C36 O5 1_555 1_555
H39 C36 1_555 1_555
H40 C36 1_555 1_555
H41 C36 1_555 1_555
C37 O4 1_555 1_555
H42 C37 1_555 1_555
H43 C37 1_555 1_555
H44 C37 1_555 1_555
C38 C39 1_555 1_555
C39 H45 1_555 1_555
C40 C39 1_555 1_555
H46 C40 1_555 1_555
C41 C40 1_555 1_555
H47 C41 1_555 1_555
C42 C41 1_555 1_555
H48 C42 1_555 1_555
C43 C38 1_555 1_555
H49 C43 1_555 1_555
C44 C38 1_555 1_555
O6 C44 1_555 1_555
C45 O6 1_555 1_555
H50 C45 1_555 1_555
C46 C45 1_555 1_555
H51 C46 1_555 1_555
O7 C46 1_555 1_555
C47 O7 1_555 1_555
C48 C47 1_555 1_555
C49 C48 1_555 1_555
H52 C49 1_555 1_555
C50 C49 1_555 1_555
H53 C50 1_555 1_555
C51 C50 1_555 1_555
H54 C51 1_555 1_555
C52 C51 1_555 1_555
H55 C52 1_555 1_555
C53 C48 1_555 1_555
H56 C53 1_555 1_555
O8 C44 1_555 1_555
C54 C45 1_555 1_555
O9 C54 1_555 1_555
O10 C54 1_555 1_555
C55 C46 1_555 1_555
O11 C55 1_555 1_555
O12 C55 1_555 1_555
O13 C47 1_555 1_555
O14 C56 1_555 1_555
C56 H58 1_555 1_555
H59 C56 1_555 1_555
H60 C56 1_555 1_555
H63 O14 1_555 1_555
C6 C9 1_555 1_555
C7 C8 1_555 1_555
C20 C22 1_555 1_555
C21 C23 1_555 1_555
C32 C34 1_555 1_555
C33 C35 1_555 1_555
C42 C43 1_555 1_555
C52 C53 1_555 1_555

#END
