
#######################################################################
#
#                 Cambridge Crystallographic Data Centre
#                                CCDC 
#
#######################################################################
#
# If this CIF has been generated from an entry in the Cambridge 
# Structural Database, then it will include bibliographic, chemical, 
# crystal, experimental, refinement or atomic coordinate data resulting 
# from the CCDC's data processing and validation procedures.
#
#######################################################################

data_GASPAS
_chemical_formula_moiety         'C10 H14 Cl1 P1 Se1'
_chemical_name_systematic        
'(-)-(S)-t-Butyl phenyl phosphinoselenic chloride'
_symmetry_cell_setting           monoclinic
_symmetry_space_group_name_H-M   'P 21'
_symmetry_Int_Tables_number      4
_space_group_name_Hall           'P 2yb'
loop_
_symmetry_equiv_pos_site_id
_symmetry_equiv_pos_as_xyz
1 x,y,z
2 -x,1/2+y,-z
_cell_length_a                   12.24(1)
_cell_length_b                   7.629(8)
_cell_length_c                   13.58(1)
_cell_angle_alpha                90
_cell_angle_beta                 103.77(2)
_cell_angle_gamma                90
_cell_volume                     1231.64
_exptl_crystal_colour            colorless
_exptl_crystal_description       Block
_cell_formula_units_Z            4
loop_
_atom_site_label
_atom_site_type_symbol
_atom_site_fract_x
_atom_site_fract_y
_atom_site_fract_z
Se1 Se 0.41412(10) 0.19606(17) -0.38379(8)
Cl1 Cl 0.1351(2) 0.2467(5) -0.3892(2)
P1 P 0.2746(2) 0.3605(3) -0.42481(16)
C1 C 0.2898(9) 0.5743(14) -0.3573(7)
C2 C 0.3894(9) 0.662(4) -0.3848(8)
C3 C 0.3167(12) 0.5383(17) -0.2421(8)
C4 C 0.1801(10) 0.685(2) -0.3900(8)
C5 C 0.2292(8) 0.402(4) -0.5591(6)
C6 C 0.3115(9) 0.412(4) -0.6142(7)
C7 C 0.2789(19) 0.446(2) -0.7184(10)
C8 C 0.166(2) 0.468(4) -0.7665(9)
C9 C 0.0880(17) 0.460(2) -0.7114(11)
C10 C 0.1211(12) 0.4307(18) -0.6088(8)
H1 H 0.4228 0.7439 -0.3334
H2 H 0.4434 0.5758 -0.3907
H3 H 0.3654 0.7223 -0.4475
H4 H 0.3208 0.6483 -0.2071
H5 H 0.3849 0.4788 -0.2225
H6 H 0.2571 0.4712 -0.2271
H7 H 0.1836 0.7827 -0.3466
H8 H 0.1703 0.7214 -0.4577
H9 H 0.1172 0.6127 -0.3845
H10 H 0.3886 0.3981 -0.5810
H11 H 0.3362 0.4564 -0.7573
H12 H 0.1448 0.4917 -0.8371
H13 H 0.0096 0.4717 -0.7449
H14 H 0.0648 0.4313 -0.5700
Se2 Se 0.88067(10) 0.22601(18) 0.06288(8)
Cl2 Cl 0.6062(2) 0.2295(5) -0.0728(2)
P2 P 0.75553(19) 0.3658(3) -0.03692(16)
C11 C 0.7162(9) 0.5776(14) 0.0121(7)
C12 C 0.8247(10) 0.6886(19) 0.0336(8)
C13 C 0.6805(11) 0.5450(19) 0.1114(8)
C14 C 0.6234(10) 0.668(2) -0.0642(8)
C15 C 0.7852(7) 0.4045(12) -0.1596(6)
C16 C 0.8966(7) 0.423(4) -0.1628(7)
C17 C 0.924(1) 0.458(4) -0.2562(9)
C18 C 0.8406(14) 0.4658(17) -0.3419(9)
C19 C 0.7287(13) 0.4484(17) -0.3405(8)
C20 C 0.7006(10) 0.4138(16) -0.2497(7)
H15 H 0.8718 0.6534 0.0966
H16 H 0.8615 0.6725 -0.0190
H17 H 0.8055 0.8094 0.0377
H18 H 0.6556 0.6518 0.1345
H19 H 0.7455 0.5051 0.1612
H20 H 0.6243 0.4601 0.1014
H21 H 0.5985 0.7723 -0.0338
H22 H 0.6463 0.7016 -0.1222
H23 H 0.5585 0.5925 -0.0827
H24 H 0.9547 0.4122 -0.1024
H25 H 1.0007 0.4749 -0.2592
H26 H 0.8603 0.4894 -0.4052
H27 H 0.6721 0.4595 -0.4013
H28 H 0.6231 0.3946 -0.2484
loop_
_geom_bond_atom_site_label_1
_geom_bond_atom_site_label_2
_geom_bond_site_symmetry_1
_geom_bond_site_symmetry_2
Se1 P1 1_555 1_555
Se2 P2 1_555 1_555
Cl1 P1 1_555 1_555
Cl2 P2 1_555 1_555
P1 C1 1_555 1_555
P2 C11 1_555 1_555
C1 C2 1_555 1_555
C2 H1 1_555 1_555
C3 C1 1_555 1_555
C4 C1 1_555 1_555
C5 P1 1_555 1_555
C6 C5 1_555 1_555
C7 C6 1_555 1_555
C8 C7 1_555 1_555
C9 C8 1_555 1_555
C10 C5 1_555 1_555
C11 C12 1_555 1_555
C12 H15 1_555 1_555
C13 C11 1_555 1_555
C14 C11 1_555 1_555
C15 P2 1_555 1_555
C16 C15 1_555 1_555
C17 C16 1_555 1_555
C18 C17 1_555 1_555
C19 C18 1_555 1_555
C20 C15 1_555 1_555
H2 C2 1_555 1_555
H3 C2 1_555 1_555
H4 C3 1_555 1_555
H5 C3 1_555 1_555
H6 C3 1_555 1_555
H7 C4 1_555 1_555
H8 C4 1_555 1_555
H9 C4 1_555 1_555
H10 C6 1_555 1_555
H11 C7 1_555 1_555
H12 C8 1_555 1_555
H13 C9 1_555 1_555
H14 C10 1_555 1_555
H16 C12 1_555 1_555
H17 C12 1_555 1_555
H18 C13 1_555 1_555
H19 C13 1_555 1_555
H20 C13 1_555 1_555
H21 C14 1_555 1_555
H22 C14 1_555 1_555
H23 C14 1_555 1_555
H24 C16 1_555 1_555
H25 C17 1_555 1_555
H26 C18 1_555 1_555
H27 C19 1_555 1_555
H28 C20 1_555 1_555
C9 C10 1_555 1_555
C19 C20 1_555 1_555

#END
