
#######################################################################
#
#                 Cambridge Crystallographic Data Centre
#                                CCDC 
#
#######################################################################
#
# If this CIF has been generated from an entry in the Cambridge 
# Structural Database, then it will include bibliographic, chemical, 
# crystal, experimental, refinement or atomic coordinate data resulting 
# from the CCDC's data processing and validation procedures.
#
#######################################################################

data_GASQOH
_chemical_compound_source        'Aspergillus terreus'
_chemical_formula_moiety         'C25 H25 N3 O4,C1 H4 O1'
_chemical_name_systematic        'Asterrelenin methanol solvate'
_symmetry_cell_setting           orthorhombic
_symmetry_space_group_name_H-M   'P 21 21 21'
_symmetry_Int_Tables_number      19
_space_group_name_Hall           'P 2ac 2ab'
loop_
_symmetry_equiv_pos_site_id
_symmetry_equiv_pos_as_xyz
1 x,y,z
2 1/2-x,-y,1/2+z
3 -x,1/2+y,1/2-z
4 1/2+x,1/2-y,-z
_cell_length_a                   8.9385(8)
_cell_length_b                   13.2286(12)
_cell_length_c                   19.7927(18)
_cell_angle_alpha                90
_cell_angle_beta                 90
_cell_angle_gamma                90
_cell_volume                     2340.36
_exptl_crystal_colour            colorless
_exptl_crystal_description       block
_chemical_melting_point          '199-200 deg.C'
_cell_formula_units_Z            4
_exptl_crystal_recrystallization_method acetone/methanol/water
loop_
_atom_site_label
_atom_site_type_symbol
_atom_site_fract_x
_atom_site_fract_y
_atom_site_fract_z
N1 N 0.2351(2) 0.91725(11) 0.16709(9)
H1 H 0.174(2) 0.9698(12) 0.1663(11)
N2 N 0.33801(18) 0.73148(11) 0.22768(7)
N3 N 0.16627(17) 0.66950(10) 0.31089(7)
O1 O 0.53343(15) 0.82789(10) 0.17753(7)
H2 H 0.598(2) 0.7808(13) 0.1829(12)
O2 O 0.34204(19) 0.99080(10) 0.25651(7)
O3 O 0.2588(2) 0.59626(10) 0.16972(7)
O4 O -0.04024(18) 0.58573(11) 0.34137(9)
C1 C 0.4287(2) 0.82422(14) 0.22967(9)
C2 C 0.3313(2) 0.91778(14) 0.21933(10)
C3 C 0.2239(2) 0.85262(14) 0.11054(10)
C4 C 0.1701(3) 0.89815(17) 0.05179(12)
H3 H 0.1481 0.9669 0.0520
C5 C 0.1491(3) 0.8438(2) -0.00598(12)
H4 H 0.1126 0.8757 -0.0445
C6 C 0.1815(4) 0.7425(2) -0.00778(12)
H5 H 0.1688 0.7056 -0.0474
C7 C 0.2326(3) 0.69694(17) 0.04941(10)
H6 H 0.2539 0.6281 0.0482
C8 C 0.2544(2) 0.74965(14) 0.10984(9)
C9 C 0.2867(2) 0.68679(14) 0.17016(10)
C10 C 0.3244(2) 0.67944(13) 0.29250(9)
H7 H 0.3772 0.6145 0.2931
C11 C 0.3903(2) 0.75606(14) 0.34384(9)
C12 C 0.4979(2) 0.81928(15) 0.30053(9)
H8 H 0.5087 0.8867 0.3192
H9 H 0.5958 0.7877 0.2988
C13 C 0.2491(2) 0.81416(14) 0.36172(9)
C14 C 0.2330(3) 0.90786(15) 0.39296(10)
H10 H 0.3166 0.9440 0.4070
C15 C 0.0915(3) 0.94621(16) 0.40269(12)
H11 H 0.0801 1.0082 0.4242
C16 C -0.0327(3) 0.89474(17) 0.38130(11)
H12 H -0.1272 0.9225 0.3880
C17 C -0.0190(2) 0.80175(16) 0.34984(10)
H13 H -0.1026 0.7667 0.3346
C18 C 0.1233(2) 0.76293(13) 0.34191(9)
C19 C 0.0858(3) 0.58246(14) 0.31743(10)
C20 C 0.1517(3) 0.48515(15) 0.29459(12)
H14 H 0.2190 0.4602 0.3285
H15 H 0.2054 0.4956 0.2532
H16 H 0.0733 0.4368 0.2873
C21 C 0.4634(2) 0.70281(15) 0.40701(9)
C22 C 0.3491(3) 0.63468(17) 0.43851(10)
H17 H 0.2650 0.6662 0.4564
C23 C 0.3533(4) 0.5363(2) 0.44393(13)
H18 H 0.4347 0.5005 0.4270
H19 H 0.2750 0.5021 0.4647
C24 C 0.6039(3) 0.6448(2) 0.38761(13)
H20 H 0.6353 0.6036 0.4249
H21 H 0.6821 0.6917 0.3764
H22 H 0.5832 0.6025 0.3493
C25 C 0.5070(4) 0.78182(19) 0.45995(12)
H23 H 0.5572 0.7492 0.4969
H24 H 0.4187 0.8150 0.4763
H25 H 0.5726 0.8308 0.4399
C26 C 0.1166(3) 0.19236(19) 0.32495(13)
H26 H 0.1099 0.2269 0.3675
H27 H 0.0681 0.1278 0.3284
H28 H 0.0685 0.2320 0.2906
O5 O 0.2652(2) 0.17857(13) 0.30823(12)
H29 H 0.281(4) 0.1185(12) 0.2951(18)
loop_
_geom_bond_atom_site_label_1
_geom_bond_atom_site_label_2
_geom_bond_site_symmetry_1
_geom_bond_site_symmetry_2
N1 H1 1_555 1_555
N2 C1 1_555 1_555
N3 C10 1_555 1_555
O1 H2 1_555 1_555
O2 C2 1_555 1_555
O3 C9 1_555 1_555
O4 C19 1_555 1_555
C1 O1 1_555 1_555
C2 N1 1_555 1_555
C3 N1 1_555 1_555
C4 C3 1_555 1_555
H3 C4 1_555 1_555
C5 C4 1_555 1_555
H4 C5 1_555 1_555
C6 C5 1_555 1_555
H5 C6 1_555 1_555
C7 C6 1_555 1_555
H6 C7 1_555 1_555
C8 C3 1_555 1_555
C9 N2 1_555 1_555
C10 N2 1_555 1_555
H7 C10 1_555 1_555
C11 C10 1_555 1_555
C12 C1 1_555 1_555
H8 C12 1_555 1_555
H9 C12 1_555 1_555
C13 C11 1_555 1_555
C14 C13 1_555 1_555
H10 C14 1_555 1_555
C15 C14 1_555 1_555
H11 C15 1_555 1_555
C16 C15 1_555 1_555
H12 C16 1_555 1_555
C17 C16 1_555 1_555
H13 C17 1_555 1_555
C18 N3 1_555 1_555
C19 N3 1_555 1_555
C20 C19 1_555 1_555
H14 C20 1_555 1_555
H15 C20 1_555 1_555
H16 C20 1_555 1_555
C21 C11 1_555 1_555
C22 C21 1_555 1_555
H17 C22 1_555 1_555
C23 C22 1_555 1_555
H18 C23 1_555 1_555
H19 C23 1_555 1_555
C24 C21 1_555 1_555
H20 C24 1_555 1_555
H21 C24 1_555 1_555
H22 C24 1_555 1_555
C25 C21 1_555 1_555
H23 C25 1_555 1_555
H24 C25 1_555 1_555
H25 C25 1_555 1_555
C26 H26 1_555 1_555
H27 C26 1_555 1_555
H28 C26 1_555 1_555
O5 C26 1_555 1_555
H29 O5 1_555 1_555
C1 C2 1_555 1_555
C7 C8 1_555 1_555
C8 C9 1_555 1_555
C11 C12 1_555 1_555
C13 C18 1_555 1_555
C17 C18 1_555 1_555

#END
