
#######################################################################
#
#                 Cambridge Crystallographic Data Centre
#                                CCDC 
#
#######################################################################
#
# If this CIF has been generated from an entry in the Cambridge 
# Structural Database, then it will include bibliographic, chemical, 
# crystal, experimental, refinement or atomic coordinate data resulting 
# from the CCDC's data processing and validation procedures.
#
#######################################################################

data_GASRAU
_chemical_compound_source        'Aspergillus terreus'
_chemical_formula_moiety         'C26 H32 O10,C1 H4 O1'
_chemical_name_systematic        'Terretonin B methanol solvate'
_symmetry_cell_setting           orthorhombic
_symmetry_space_group_name_H-M   'P 21 21 21'
_symmetry_Int_Tables_number      19
_space_group_name_Hall           'P 2ac 2ab'
loop_
_symmetry_equiv_pos_site_id
_symmetry_equiv_pos_as_xyz
1 x,y,z
2 1/2-x,-y,1/2+z
3 -x,1/2+y,1/2-z
4 1/2+x,1/2-y,-z
_cell_length_a                   9.582(1)
_cell_length_b                   10.553(2)
_cell_length_c                   26.621(5)
_cell_angle_alpha                90
_cell_angle_beta                 90
_cell_angle_gamma                90
_cell_volume                     2691.88
_exptl_crystal_colour            colorless
_exptl_crystal_description       cubic
_chemical_melting_point          '197-198 deg.C'
_cell_formula_units_Z            4
_exptl_crystal_recrystallization_method 'ethyl acetate'
loop_
_atom_site_label
_atom_site_type_symbol
_atom_site_fract_x
_atom_site_fract_y
_atom_site_fract_z
O1 O 0.60125(18) 0.4860(2) 0.56930(6)
O2 O -0.0672(2) 0.5155(2) 0.85686(8)
O3 O 0.1653(2) 0.42933(17) 0.75692(6)
H1 H 0.1592 0.4292 0.7262
O4 O 0.4632(2) 0.5348(2) 0.80162(7)
O5 O 0.4669(2) 0.4000(2) 0.70269(7)
O6 O 0.17373(18) 0.50962(16) 0.66505(6)
H2 H 0.1036 0.5208 0.6480
O7 O 0.6712(2) 0.5445(2) 0.64363(7)
O8 O 0.3605(2) 0.6271(2) 0.49172(7)
O9 O 0.4537(3) 0.2782(2) 0.58144(8)
O10 O 0.2866(3) 0.3370(2) 0.52839(9)
C1 C 0.0084(3) 0.6506(3) 0.73563(10)
H3 H -0.0199 0.5727 0.7192
H4 H -0.0273 0.7208 0.7160
C2 C 0.3696(5) 0.1716(4) 0.59822(15)
H5 H 0.2761 0.1997 0.6048
H6 H 0.4090 0.1369 0.6284
H7 H 0.3681 0.1077 0.5726
C3 C -0.0567(3) 0.6553(3) 0.78846(10)
H8 H -0.0499 0.7415 0.8009
H9 H -0.1551 0.6350 0.7856
C4 C 0.0069(3) 0.5685(3) 0.82669(11)
C5 C 0.1657(3) 0.5574(3) 0.82908(9)
C6 C 0.2187(3) 0.5501(3) 0.77360(9)
C7 C 0.3765(3) 0.5315(2) 0.76846(9)
C8 C 0.4203(3) 0.5017(3) 0.71420(9)
C9 C 0.3907(3) 0.6105(2) 0.67853(9)
C10 C 0.2276(3) 0.6308(3) 0.68149(9)
C11 C 0.1687(3) 0.6573(3) 0.73651(10)
C12 C 0.1863(3) 0.7314(3) 0.64294(9)
H10 H 0.0865 0.7458 0.6449
H11 H 0.2329 0.8104 0.6511
C13 C 0.2239(3) 0.6936(3) 0.58973(10)
C14 C 0.3762(3) 0.6586(3) 0.58156(9)
C15 C 0.4240(3) 0.5687(3) 0.62436(8)
H12 H 0.3711 0.4902 0.6193
C16 C 0.5739(3) 0.5334(3) 0.61546(10)
C17 C 0.4891(3) 0.4666(3) 0.53398(9)
C18 C 0.4002(3) 0.5873(3) 0.53167(10)
C19 C 0.2211(4) 0.6717(3) 0.85995(10)
H13 H 0.2074 0.6558 0.8951
H14 H 0.1713 0.7469 0.8505
H15 H 0.3188 0.6830 0.8534
C20 C 0.2061(4) 0.4360(3) 0.85715(10)
H16 H 0.1599 0.4341 0.8891
H17 H 0.3053 0.4344 0.8622
H18 H 0.1786 0.3636 0.8377
C21 C 0.4777(3) 0.7253(3) 0.69592(10)
H19 H 0.4836 0.7254 0.7319
H20 H 0.4338 0.8020 0.6848
H21 H 0.5698 0.7198 0.6819
C22 C 0.2107(4) 0.7919(3) 0.75430(10)
H22 H 0.2087 0.8491 0.7263
H23 H 0.3031 0.7896 0.7682
H24 H 0.1461 0.8204 0.7795
C23 C 0.1287(4) 0.7010(3) 0.55465(11)
H25 H 0.0394 0.7292 0.5625
H26 H 0.1504 0.6781 0.5218
C24 C 0.4634(4) 0.7812(3) 0.57666(11)
H27 H 0.4362 0.8257 0.5468
H28 H 0.5607 0.7599 0.5747
H29 H 0.4474 0.8341 0.6054
C25 C 0.5590(3) 0.4381(3) 0.48410(10)
H30 H 0.6191 0.5072 0.4751
H31 H 0.4890 0.4271 0.4587
H32 H 0.6131 0.3619 0.4870
C26 C 0.3979(4) 0.3534(3) 0.54768(11)
O11 O -0.0608(2) 0.4757(3) 0.61401(8)
H33 H -0.1406 0.4980 0.6207
C27 C -0.0564(4) 0.4281(4) 0.56468(12)
H34 H -0.0938 0.4901 0.5420
H35 H -0.1109 0.3520 0.5627
H36 H 0.0385 0.4098 0.5557
loop_
_geom_bond_atom_site_label_1
_geom_bond_atom_site_label_2
_geom_bond_site_symmetry_1
_geom_bond_site_symmetry_2
O1 C16 1_555 1_555
O2 C4 1_555 1_555
O3 H1 1_555 1_555
O4 C7 1_555 1_555
O5 C8 1_555 1_555
O6 H2 1_555 1_555
O7 C16 1_555 1_555
O8 C18 1_555 1_555
O9 C2 1_555 1_555
O10 C26 1_555 1_555
C1 H3 1_555 1_555
H4 C1 1_555 1_555
C2 H5 1_555 1_555
H6 C2 1_555 1_555
H7 C2 1_555 1_555
C3 C1 1_555 1_555
H8 C3 1_555 1_555
H9 C3 1_555 1_555
C4 C3 1_555 1_555
C5 C4 1_555 1_555
C6 O3 1_555 1_555
C7 C6 1_555 1_555
C8 C7 1_555 1_555
C9 C8 1_555 1_555
C10 O6 1_555 1_555
C11 C1 1_555 1_555
C12 C10 1_555 1_555
H10 C12 1_555 1_555
H11 C12 1_555 1_555
C13 C12 1_555 1_555
C14 C13 1_555 1_555
C15 C9 1_555 1_555
H12 C15 1_555 1_555
C16 C15 1_555 1_555
C17 O1 1_555 1_555
C18 C14 1_555 1_555
C19 C5 1_555 1_555
H13 C19 1_555 1_555
H14 C19 1_555 1_555
H15 C19 1_555 1_555
C20 C5 1_555 1_555
H16 C20 1_555 1_555
H17 C20 1_555 1_555
H18 C20 1_555 1_555
C21 C9 1_555 1_555
H19 C21 1_555 1_555
H20 C21 1_555 1_555
H21 C21 1_555 1_555
C22 C11 1_555 1_555
H22 C22 1_555 1_555
H23 C22 1_555 1_555
H24 C22 1_555 1_555
C23 C13 1_555 1_555
H25 C23 1_555 1_555
H26 C23 1_555 1_555
C24 C14 1_555 1_555
H27 C24 1_555 1_555
H28 C24 1_555 1_555
H29 C24 1_555 1_555
C25 C17 1_555 1_555
H30 C25 1_555 1_555
H31 C25 1_555 1_555
H32 C25 1_555 1_555
C26 O9 1_555 1_555
O11 H33 1_555 1_555
C27 O11 1_555 1_555
H34 C27 1_555 1_555
H35 C27 1_555 1_555
H36 C27 1_555 1_555
C5 C6 1_555 1_555
C6 C11 1_555 1_555
C9 C10 1_555 1_555
C10 C11 1_555 1_555
C14 C15 1_555 1_555
C17 C18 1_555 1_555
C17 C26 1_555 1_555

#END
