
#######################################################################
#
#                 Cambridge Crystallographic Data Centre
#                                CCDC 
#
#######################################################################
#
# If this CIF has been generated from an entry in the Cambridge 
# Structural Database, then it will include bibliographic, chemical, 
# crystal, experimental, refinement or atomic coordinate data resulting 
# from the CCDC's data processing and validation procedures.
#
#######################################################################

data_GASRAW
_chemical_formula_moiety         'C12 H18 N2 O2'
_chemical_name_systematic        N-(4-pyridylmethyl)-L-isoleucine
_symmetry_cell_setting           monoclinic
_symmetry_space_group_name_H-M   'P 21'
_symmetry_Int_Tables_number      4
_space_group_name_Hall           'P 2yb'
loop_
_symmetry_equiv_pos_site_id
_symmetry_equiv_pos_as_xyz
1 x,y,z
2 -x,1/2+y,-z
_cell_length_a                   7.7667(3)
_cell_length_b                   5.8151(2)
_cell_length_c                   13.6758(6)
_cell_angle_alpha                90
_cell_angle_beta                 102.312(4)
_cell_angle_gamma                90
_cell_volume                     603.45
_exptl_crystal_colour            colorless
_exptl_crystal_description       block
_cell_formula_units_Z            2
loop_
_atom_site_label
_atom_site_type_symbol
_atom_site_fract_x
_atom_site_fract_y
_atom_site_fract_z
C1 C -0.0197(4) -0.1436(7) -0.5983(3)
H1 H 0.050729 -0.015870 -0.577683
C2 C -0.1917(4) -0.1411(6) -0.5859(2)
H2 H -0.233893 -0.015871 -0.555752
C3 C -0.2996(4) -0.3242(6) -0.6182(2)
C4 C -0.2283(4) -0.5086(6) -0.6596(2)
H3 H -0.296522 -0.637362 -0.681801
C5 C -0.0546(5) -0.4985(7) -0.6673(3)
H4 H -0.007609 -0.624301 -0.694441
C6 C -0.4879(4) -0.3259(7) -0.6057(2)
H5 H -0.507861 -0.464753 -0.570413
H6 H -0.505977 -0.195645 -0.564776
C7 C -0.5971(4) -0.1272(5) -0.7730(2)
H7 H -0.474638 -0.131598 -0.780860
C8 C -0.6281(4) 0.1086(6) -0.7303(2)
C9 C -0.7157(4) -0.1766(6) -0.8760(2)
H8 H -0.713677 -0.343113 -0.886723
C10 C -0.6431(6) -0.0632(8) -0.9587(3)
H9 H -0.650214 0.102300 -0.951733
H10 H -0.519466 -0.103223 -0.949977
C11 C -0.7363(6) -0.1289(11) -1.0632(3)
H11 H -0.673481 -0.066737 -1.110542
H12 H -0.853970 -0.068345 -1.076625
H13 H -0.740765 -0.293387 -1.069106
C12 C -0.9053(5) -0.1095(10) -0.8797(3)
H14 H -0.944446 -0.179218 -0.824633
H15 H -0.977922 -0.161411 -0.941549
H16 H -0.913701 0.054729 -0.875257
N1 N 0.0495(3) -0.3192(6) -0.6381(2)
N2 N -0.6192(3) -0.3154(5) -0.70208(18)
H17 H -0.725682 -0.301501 -0.688386
H18 H -0.616718 -0.449150 -0.733407
O1 O -0.5928(3) 0.2740(4) -0.78123(18)
O2 O -0.6828(4) 0.1202(4) -0.65223(19)
loop_
_geom_bond_atom_site_label_1
_geom_bond_atom_site_label_2
_geom_bond_site_symmetry_1
_geom_bond_site_symmetry_2
C1 H1 1_555 1_555
C2 C1 1_555 1_555
H2 C2 1_555 1_555
C3 C2 1_555 1_555
C4 C3 1_555 1_555
H3 C4 1_555 1_555
C5 C4 1_555 1_555
H4 C5 1_555 1_555
C6 C3 1_555 1_555
H5 C6 1_555 1_555
H6 C6 1_555 1_555
C7 H7 1_555 1_555
C8 C7 1_555 1_555
C9 C7 1_555 1_555
H8 C9 1_555 1_555
C10 C9 1_555 1_555
H9 C10 1_555 1_555
H10 C10 1_555 1_555
C11 C10 1_555 1_555
H11 C11 1_555 1_555
H12 C11 1_555 1_555
H13 C11 1_555 1_555
C12 C9 1_555 1_555
H14 C12 1_555 1_555
H15 C12 1_555 1_555
H16 C12 1_555 1_555
N1 C1 1_555 1_555
N2 C6 1_555 1_555
H17 N2 1_555 1_555
H18 N2 1_555 1_555
O1 C8 1_555 1_555
O2 C8 1_555 1_555
C5 N1 1_555 1_555
C7 N2 1_555 1_555

#END
