
#######################################################################
#
#                 Cambridge Crystallographic Data Centre
#                                CCDC 
#
#######################################################################
#
# If this CIF has been generated from an entry in the Cambridge 
# Structural Database, then it will include bibliographic, chemical, 
# crystal, experimental, refinement or atomic coordinate data resulting 
# from the CCDC's data processing and validation procedures.
#
#######################################################################

data_GASVOM
_chemical_formula_moiety         'C28 H26 Cl1 I1 O1'
_chemical_name_systematic        
(Z)-2-(2-Chlorophenyl)-5-(1-iodopentylidene)-2-methyl-3,4-diphenyl-2,5-dihydrofuran
_symmetry_cell_setting           monoclinic
_symmetry_space_group_name_H-M   'P 21/c'
_symmetry_Int_Tables_number      14
_space_group_name_Hall           '-P 2ybc'
loop_
_symmetry_equiv_pos_site_id
_symmetry_equiv_pos_as_xyz
1 x,y,z
2 -x,1/2+y,1/2-z
3 -x,-y,-z
4 x,1/2-y,1/2+z
_cell_length_a                   14.7037(16)
_cell_length_b                   16.0224(18)
_cell_length_c                   20.793(2)
_cell_angle_alpha                90
_cell_angle_beta                 91.795(2)
_cell_angle_gamma                90
_cell_volume                     4896.19
_exptl_crystal_colour            colorless
_cell_formula_units_Z            8
loop_
_atom_site_label
_atom_site_type_symbol
_atom_site_fract_x
_atom_site_fract_y
_atom_site_fract_z
I1 I 0.28886(3) 0.71838(3) 0.36392(3)
Cl1 Cl 0.55763(14) 0.70791(12) 0.48638(9)
O1 O 0.4850(3) 0.6555(3) 0.3541(2)
C1 C 0.5770(4) 0.6218(4) 0.3517(3)
C2 C 0.6343(4) 0.6997(4) 0.3440(3)
C3 C 0.5794(4) 0.7655(4) 0.3325(3)
C4 C 0.4858(4) 0.7406(4) 0.3411(3)
C5 C 0.4078(4) 0.7847(4) 0.3413(3)
C6 C 0.3958(4) 0.8745(4) 0.3316(3)
H1 H 0.3420 0.8839 0.3043
H2 H 0.4477 0.8962 0.3092
C7 C 0.3859(6) 0.9230(5) 0.3950(4)
H3 H 0.3300 0.9055 0.4144
H4 H 0.4359 0.9074 0.4241
C8 C 0.3848(6) 1.0153(5) 0.3889(4)
H5 H 0.4386 1.0331 0.3668
H6 H 0.3320 1.0318 0.3629
C9 C 0.3824(6) 1.0583(6) 0.4516(4)
H7 H 0.3318 1.0381 0.4751
H8 H 0.3759 1.1173 0.4447
H9 H 0.4379 1.0476 0.4757
C10 C 0.5781(4) 0.5738(4) 0.2899(3)
H10 H 0.5393 0.5259 0.2929
H11 H 0.6391 0.5560 0.2821
H12 H 0.5566 0.6088 0.2552
C11 C 0.5955(4) 0.5725(4) 0.4130(3)
C12 C 0.6209(4) 0.4883(5) 0.4104(4)
H13 H 0.6262 0.4637 0.3701
C13 C 0.6381(5) 0.4407(5) 0.4634(6)
H14 H 0.6570 0.3856 0.4594
C14 C 0.6270(5) 0.4760(7) 0.5242(6)
H15 H 0.6358 0.4440 0.5612
C15 C 0.6031(4) 0.5575(6) 0.5284(4)
H16 H 0.5972 0.5821 0.5686
C16 C 0.5875(4) 0.6043(5) 0.4736(4)
C17 C 0.7341(4) 0.6976(4) 0.3462(3)
C18 C 0.7829(5) 0.7156(4) 0.2916(4)
H17 H 0.7523 0.7299 0.2534
C19 C 0.8762(5) 0.7121(5) 0.2942(4)
H18 H 0.9081 0.7244 0.2575
C20 C 0.9228(5) 0.6914(5) 0.3487(4)
H19 H 0.9860 0.6894 0.3492
C21 C 0.8773(5) 0.6736(5) 0.4028(4)
H20 H 0.9095 0.6594 0.4404
C22 C 0.7836(4) 0.6765(5) 0.4021(3)
H21 H 0.7531 0.6642 0.4394
C23 C 0.6093(4) 0.8518(4) 0.3148(3)
C24 C 0.6369(5) 0.9060(5) 0.3615(4)
H22 H 0.6372 0.8905 0.4047
C25 C 0.6654(6) 0.9872(6) 0.3430(6)
H23 H 0.6829 1.0265 0.3739
C26 C 0.6666(6) 1.0066(6) 0.2783(7)
H24 H 0.6859 1.0593 0.2660
C27 C 0.6420(6) 0.9537(7) 0.2347(5)
H25 H 0.6434 0.9689 0.1916
C28 C 0.6128(5) 0.8731(5) 0.2512(4)
H26 H 0.5962 0.8348 0.2194
I2 I 1.21387(3) 0.24564(4) 0.40384(3)
Cl2 Cl 0.93244(18) 0.09110(16) 0.30149(11)
O2 O 1.0163(3) 0.1931(3) 0.4157(2)
C29 C 0.9250(4) 0.1792(4) 0.4378(3)
C30 C 0.8651(4) 0.2330(4) 0.3930(3)
C31 C 0.9209(4) 0.2856(4) 0.3605(3)
C32 C 1.0155(4) 0.2651(4) 0.3786(3)
C33 C 1.0940(4) 0.3024(4) 0.3654(3)
C34 C 1.1105(4) 0.3814(4) 0.3311(3)
H27 H 1.0539 0.3977 0.3094
H28 H 1.1538 0.3700 0.2980
C35 C 1.1454(5) 0.4562(6) 0.3697(4)
H29 H 1.2036 0.4420 0.3899
H30 H 1.1552 0.5022 0.3404
C36 C 1.0843(6) 0.4830(6) 0.4187(4)
H31 H 1.0736 0.4364 0.4473
H32 H 1.0264 0.4979 0.3981
C37 C 1.1181(7) 0.5558(7) 0.4581(6)
H33 H 1.1643 0.5372 0.4884
H34 H 1.0685 0.5796 0.4808
H35 H 1.1432 0.5971 0.4303
C38 C 0.9300(5) 0.2105(4) 0.5057(3)
H36 H 0.9703 0.1756 0.5310
H37 H 0.8704 0.2092 0.5233
H38 H 0.9525 0.2667 0.5063
C39 C 0.9066(4) 0.0846(4) 0.4315(4)
C40 C 0.8849(5) 0.0383(6) 0.4855(5)
H39 H 0.8816 0.0651 0.5250
C41 C 0.8680(6) -0.0480(7) 0.4818(6)
H40 H 0.8537 -0.0779 0.5185
C42 C 0.8726(7) -0.0870(8) 0.4244(8)
H41 H 0.8614 -0.1441 0.4219
C43 C 0.8935(6) -0.0440(6) 0.3701(6)
H42 H 0.8974 -0.0718 0.3310
C44 C 0.9092(5) 0.0436(5) 0.3736(4)
C45 C 0.7661(4) 0.2260(4) 0.3880(3)
C46 C 0.7164(4) 0.1971(5) 0.4379(4)
H43 H 0.7463 0.1801 0.4757
C47 C 0.6235(5) 0.1928(5) 0.4334(4)
H44 H 0.5917 0.1741 0.4686
C48 C 0.5762(5) 0.2152(5) 0.3784(4)
H45 H 0.5131 0.2106 0.3754
C49 C 0.6247(5) 0.2447(6) 0.3279(4)
H46 H 0.5943 0.2627 0.2905
C50 C 0.7180(5) 0.2475(5) 0.3323(4)
H47 H 0.7498 0.2645 0.2967
C51 C 0.8941(4) 0.3511(4) 0.3146(3)
C52 C 0.8576(4) 0.4256(4) 0.3363(4)
H48 H 0.8487 0.4331 0.3800
C53 C 0.8347(5) 0.4880(5) 0.2940(6)
H49 H 0.8098 0.5376 0.3086
C54 C 0.8494(6) 0.4760(8) 0.2284(6)
H50 H 0.8346 0.5185 0.1995
C55 C 0.8856(6) 0.4019(7) 0.2055(4)
H51 H 0.8949 0.3935 0.1620
C56 C 0.9070(5) 0.3421(5) 0.2501(4)
H52 H 0.9317 0.2923 0.2358
loop_
_geom_bond_atom_site_label_1
_geom_bond_atom_site_label_2
_geom_bond_site_symmetry_1
_geom_bond_site_symmetry_2
I1 C5 1_555 1_555
I2 C33 1_555 1_555
Cl1 C16 1_555 1_555
Cl2 C44 1_555 1_555
O1 C1 1_555 1_555
O2 C29 1_555 1_555
C1 C2 1_555 1_555
C2 C3 1_555 1_555
C3 C4 1_555 1_555
C4 O1 1_555 1_555
C5 C4 1_555 1_555
C6 C5 1_555 1_555
H1 C6 1_555 1_555
H2 C6 1_555 1_555
C7 C6 1_555 1_555
H3 C7 1_555 1_555
H4 C7 1_555 1_555
C8 C7 1_555 1_555
H5 C8 1_555 1_555
H6 C8 1_555 1_555
C9 C8 1_555 1_555
H7 C9 1_555 1_555
H8 C9 1_555 1_555
H9 C9 1_555 1_555
C10 C1 1_555 1_555
H10 C10 1_555 1_555
H11 C10 1_555 1_555
H12 C10 1_555 1_555
C11 C1 1_555 1_555
C12 C11 1_555 1_555
H13 C12 1_555 1_555
C13 C12 1_555 1_555
H14 C13 1_555 1_555
C14 C13 1_555 1_555
H15 C14 1_555 1_555
C15 C14 1_555 1_555
H16 C15 1_555 1_555
C16 C11 1_555 1_555
C17 C2 1_555 1_555
C18 C17 1_555 1_555
H17 C18 1_555 1_555
C19 C18 1_555 1_555
H18 C19 1_555 1_555
C20 C19 1_555 1_555
H19 C20 1_555 1_555
C21 C20 1_555 1_555
H20 C21 1_555 1_555
C22 C17 1_555 1_555
H21 C22 1_555 1_555
C23 C3 1_555 1_555
C24 C23 1_555 1_555
H22 C24 1_555 1_555
C25 C24 1_555 1_555
H23 C25 1_555 1_555
C26 C25 1_555 1_555
H24 C26 1_555 1_555
C27 C26 1_555 1_555
H25 C27 1_555 1_555
C28 C23 1_555 1_555
H26 C28 1_555 1_555
C29 C30 1_555 1_555
C30 C31 1_555 1_555
C31 C32 1_555 1_555
C32 O2 1_555 1_555
C33 C32 1_555 1_555
C34 C33 1_555 1_555
H27 C34 1_555 1_555
H28 C34 1_555 1_555
C35 C34 1_555 1_555
H29 C35 1_555 1_555
H30 C35 1_555 1_555
C36 C35 1_555 1_555
H31 C36 1_555 1_555
H32 C36 1_555 1_555
C37 C36 1_555 1_555
H33 C37 1_555 1_555
H34 C37 1_555 1_555
H35 C37 1_555 1_555
C38 C29 1_555 1_555
H36 C38 1_555 1_555
H37 C38 1_555 1_555
H38 C38 1_555 1_555
C39 C29 1_555 1_555
C40 C39 1_555 1_555
H39 C40 1_555 1_555
C41 C40 1_555 1_555
H40 C41 1_555 1_555
C42 C41 1_555 1_555
H41 C42 1_555 1_555
C43 C42 1_555 1_555
H42 C43 1_555 1_555
C44 C39 1_555 1_555
C45 C30 1_555 1_555
C46 C45 1_555 1_555
H43 C46 1_555 1_555
C47 C46 1_555 1_555
H44 C47 1_555 1_555
C48 C47 1_555 1_555
H45 C48 1_555 1_555
C49 C48 1_555 1_555
H46 C49 1_555 1_555
C50 C45 1_555 1_555
H47 C50 1_555 1_555
C51 C31 1_555 1_555
C52 C51 1_555 1_555
H48 C52 1_555 1_555
C53 C52 1_555 1_555
H49 C53 1_555 1_555
C54 C53 1_555 1_555
H50 C54 1_555 1_555
C55 C54 1_555 1_555
H51 C55 1_555 1_555
C56 C51 1_555 1_555
H52 C56 1_555 1_555
C15 C16 1_555 1_555
C21 C22 1_555 1_555
C27 C28 1_555 1_555
C43 C44 1_555 1_555
C49 C50 1_555 1_555
C55 C56 1_555 1_555

#END
