
#######################################################################
#
#                 Cambridge Crystallographic Data Centre
#                                CCDC 
#
#######################################################################
#
# If this CIF has been generated from an entry in the Cambridge 
# Structural Database, then it will include bibliographic, chemical, 
# crystal, experimental, refinement or atomic coordinate data resulting 
# from the CCDC's data processing and validation procedures.
#
#######################################################################

data_GASVUS
_chemical_formula_moiety         'C30 H22 Cl1 I1 O1'
_chemical_name_systematic        
(Z)-2-(2-Chlorophenyl)-5-(iodo(phenyl)methylene)-2-methyl-3,4-diphenyl-2,5-dihydrofuran
_symmetry_cell_setting           orthorhombic
_symmetry_space_group_name_H-M   'P b c a'
_symmetry_Int_Tables_number      61
_space_group_name_Hall           '-P 2ac 2ab'
loop_
_symmetry_equiv_pos_site_id
_symmetry_equiv_pos_as_xyz
1 x,y,z
2 1/2-x,-y,1/2+z
3 -x,1/2+y,1/2-z
4 1/2+x,1/2-y,-z
5 -x,-y,-z
6 1/2+x,y,1/2-z
7 x,1/2-y,1/2+z
8 1/2-x,1/2+y,z
_cell_length_a                   17.4640(11)
_cell_length_b                   12.6256(8)
_cell_length_c                   22.5394(14)
_cell_angle_alpha                90
_cell_angle_beta                 90
_cell_angle_gamma                90
_cell_volume                     4969.79
_exptl_crystal_colour            yellow
_cell_formula_units_Z            8
loop_
_atom_site_label
_atom_site_type_symbol
_atom_site_fract_x
_atom_site_fract_y
_atom_site_fract_z
I1 I 0.054371(12) 0.859286(17) 0.496939(9)
Cl1 Cl 0.06755(5) 0.50609(7) 0.56739(4)
O1 O 0.04962(9) 0.72996(14) 0.61176(8)
C1 C 0.14285(13) 0.78116(17) 0.54232(11)
C2 C 0.12458(13) 0.73340(17) 0.59348(11)
C3 C 0.17181(13) 0.68094(18) 0.63839(10)
C4 C 0.12562(14) 0.64669(18) 0.68205(11)
C5 C 0.04377(13) 0.6776(2) 0.66868(11)
C6 C -0.01125(14) 0.5842(2) 0.66285(11)
C7 C -0.07122(16) 0.5715(3) 0.70264(15)
H1 H -0.0775 0.6208 0.7329
C8 C -0.1218(2) 0.4880(4) 0.69851(19)
H2 H -0.1613 0.4815 0.7259
C9 C -0.1141(2) 0.4156(3) 0.6549(2)
H3 H -0.1488 0.3599 0.6523
C10 C -0.05642(17) 0.4232(3) 0.61504(17)
H4 H -0.0512 0.3731 0.5851
C11 C -0.00518(14) 0.5069(2) 0.61938(14)
C12 C 0.21740(14) 0.78105(19) 0.51282(10)
C13 C 0.25313(17) 0.6865(3) 0.49842(10)
H5 H 0.2289 0.6225 0.5065
C14 C 0.32468(17) 0.6870(3) 0.47210(14)
H6 H 0.3494 0.6232 0.4644
C15 C 0.35934(16) 0.7805(3) 0.45735(14)
H7 H 0.4070 0.7804 0.4389
C16 C 0.32330(17) 0.8741(2) 0.46994(13)
H8 H 0.3469 0.9377 0.4600
C17 C 0.25315(18) 0.8755(2) 0.49693(10)
H9 H 0.2292 0.9398 0.5047
C18 C 0.25542(14) 0.66549(18) 0.63695(10)
C19 C 0.30636(16) 0.7485(2) 0.63758(13)
H10 H 0.2881 0.8177 0.6385
C20 C 0.38434(18) 0.7303(3) 0.63685(15)
H11 H 0.4184 0.7869 0.6379
C21 C 0.41145(19) 0.6285(3) 0.63459(15)
H12 H 0.4639 0.6162 0.6334
C22 C 0.36236(19) 0.5462(3) 0.63405(15)
H13 H 0.3809 0.4772 0.6326
C23 C 0.28479(16) 0.5643(2) 0.63558(12)
H14 H 0.2514 0.5069 0.6357
C24 C 0.14725(14) 0.6017(2) 0.73970(12)
C25 C 0.19379(19) 0.6610(3) 0.77725(14)
H15 H 0.2126 0.7259 0.7643
C26 C 0.2125(2) 0.6260(3) 0.83267(15)
H16 H 0.2434 0.6669 0.8572
C27 C 0.1861(2) 0.5324(4) 0.85143(16)
H17 H 0.1979 0.5091 0.8895
C28 C 0.1432(3) 0.4721(4) 0.8162(2)
H18 H 0.1264 0.4064 0.8295
C29 C 0.1231(2) 0.5065(3) 0.75922(19)
H19 H 0.0932 0.4637 0.7349
C30 C 0.01687(18) 0.7612(2) 0.71241(14)
H20 H 0.0510 0.8207 0.7112
H21 H 0.0165 0.7319 0.7517
H22 H -0.0339 0.7838 0.7020
loop_
_geom_bond_atom_site_label_1
_geom_bond_atom_site_label_2
_geom_bond_site_symmetry_1
_geom_bond_site_symmetry_2
I1 C1 1_555 1_555
Cl1 C11 1_555 1_555
O1 C2 1_555 1_555
C1 C2 1_555 1_555
C2 C3 1_555 1_555
C3 C4 1_555 1_555
C4 C5 1_555 1_555
C5 O1 1_555 1_555
C6 C5 1_555 1_555
C7 C6 1_555 1_555
H1 C7 1_555 1_555
C8 C7 1_555 1_555
H2 C8 1_555 1_555
C9 C8 1_555 1_555
H3 C9 1_555 1_555
C10 C9 1_555 1_555
H4 C10 1_555 1_555
C11 C6 1_555 1_555
C12 C1 1_555 1_555
C13 C12 1_555 1_555
H5 C13 1_555 1_555
C14 C13 1_555 1_555
H6 C14 1_555 1_555
C15 C14 1_555 1_555
H7 C15 1_555 1_555
C16 C15 1_555 1_555
H8 C16 1_555 1_555
C17 C12 1_555 1_555
H9 C17 1_555 1_555
C18 C3 1_555 1_555
C19 C18 1_555 1_555
H10 C19 1_555 1_555
C20 C19 1_555 1_555
H11 C20 1_555 1_555
C21 C20 1_555 1_555
H12 C21 1_555 1_555
C22 C21 1_555 1_555
H13 C22 1_555 1_555
C23 C18 1_555 1_555
H14 C23 1_555 1_555
C24 C4 1_555 1_555
C25 C24 1_555 1_555
H15 C25 1_555 1_555
C26 C25 1_555 1_555
H16 C26 1_555 1_555
C27 C26 1_555 1_555
H17 C27 1_555 1_555
C28 C27 1_555 1_555
H18 C28 1_555 1_555
C29 C24 1_555 1_555
H19 C29 1_555 1_555
C30 C5 1_555 1_555
H20 C30 1_555 1_555
H21 C30 1_555 1_555
H22 C30 1_555 1_555
C10 C11 1_555 1_555
C16 C17 1_555 1_555
C22 C23 1_555 1_555
C28 C29 1_555 1_555

#END
