
#######################################################################
#
#                 Cambridge Crystallographic Data Centre
#                                CCDC 
#
#######################################################################
#
# If this CIF has been generated from an entry in the Cambridge 
# Structural Database, then it will include bibliographic, chemical, 
# crystal, experimental, refinement or atomic coordinate data resulting 
# from the CCDC's data processing and validation procedures.
#
#######################################################################

data_GASZOS
_chemical_formula_moiety         'C60 H52 B2 F4 N4 O1 Si2'
_chemical_name_systematic        
2-(3-(5,5-difluoro-10-mesityl-5H-6\l^5^,5\l^5^-dipyrrolo[1,2-c:2',1'-f][1,3,2]diazaborinin-2-yl)-1,1,3,3-tetraphenyldisiloxanyl)-5,5-difluoro-10-mesityl-5H-6\l^5^,5\l^5^-dipyrrolo[1,2-c:2',1'-f][1,3,2]diazaborinine
_symmetry_cell_setting           triclinic
_symmetry_space_group_name_H-M   'P -1'
_symmetry_Int_Tables_number      2
_space_group_name_Hall           '-P 1'
loop_
_symmetry_equiv_pos_site_id
_symmetry_equiv_pos_as_xyz
1 x,y,z
2 -x,-y,-z
_cell_length_a                   12.2715(14)
_cell_length_b                   13.0609(15)
_cell_length_c                   19.260(2)
_cell_angle_alpha                91.846(2)
_cell_angle_beta                 102.654(2)
_cell_angle_gamma                115.434(2)
_cell_volume                     2691.95
_exptl_crystal_colour            orange
_exptl_crystal_description       block
_cell_formula_units_Z            2
loop_
_atom_site_label
_atom_site_type_symbol
_atom_site_fract_x
_atom_site_fract_y
_atom_site_fract_z
B1 B -0.20516(19) 0.17331(19) 0.17251(11)
B2 B 0.5711(2) 0.3776(2) 0.25086(13)
F1 F -0.31818(10) 0.17610(12) 0.14899(7)
F2 F -0.20220(13) 0.12751(12) 0.23580(7)
F3 F 0.55420(16) 0.35558(13) 0.17793(8)
F4 F 0.69584(13) 0.44014(13) 0.28484(10)
N1 N -0.09557(13) 0.29569(12) 0.18377(8)
N2 N -0.18688(14) 0.10191(13) 0.11442(9)
N3 N 0.49656(14) 0.44242(12) 0.26680(8)
N4 N 0.51672(17) 0.26399(14) 0.28260(9)
O1 O 0.26694(12) 0.68181(11) 0.27165(7)
Si1 Si 0.12802(4) 0.62435(4) 0.28508(3)
Si2 Si 0.40022(4) 0.70526(4) 0.25674(3)
C1 C -0.2571(2) -0.00979(18) 0.08961(15)
H1 H -0.3228 -0.0590 0.1071
C2 C -0.2175(3) -0.0416(2) 0.03394(18)
H2 H -0.2516 -0.1146 0.0083
C3 C -0.1194(2) 0.05376(18) 0.02370(14)
H3 H -0.0747 0.0579 -0.0102
C4 C -0.09926(17) 0.14442(15) 0.07431(10)
C5 C -0.00905(15) 0.25824(14) 0.08888(9)
C6 C -0.00617(15) 0.33190(14) 0.14444(9)
C7 C 0.07882(16) 0.44620(14) 0.17236(9)
H4 H 0.1478 0.4912 0.1559
C8 C 0.04258(17) 0.48116(15) 0.22894(10)
C9 C -0.06660(17) 0.38476(16) 0.23294(10)
H5 H -0.1128 0.3831 0.2656
C10 C 0.08395(15) 0.30147(14) 0.04525(9)
C11 C 0.05525(18) 0.34513(17) -0.01835(10)
C12 C 0.1434(2) 0.3844(2) -0.05821(11)
H6 H 0.1253 0.4138 -0.1002
C13 C 0.25717(19) 0.38118(18) -0.03747(11)
C14 C 0.28319(17) 0.33860(17) 0.02538(10)
H7 H 0.3600 0.3375 0.0402
C15 C 0.19889(16) 0.29736(15) 0.06732(9)
C16 C -0.0691(2) 0.3466(2) -0.04357(14)
H8 H -0.0704 0.3838 -0.0857
H9 H -0.0818 0.3875 -0.0063
H10 H -0.1344 0.2694 -0.0548
C17 C 0.3493(3) 0.4218(3) -0.08337(15)
H11 H 0.4269 0.4823 -0.0555
H12 H 0.3162 0.4495 -0.1243
H13 H 0.3633 0.3592 -0.0995
C18 C 0.2288(2) 0.2471(2) 0.13387(12)
H14 H 0.3063 0.2435 0.1377
H15 H 0.1633 0.1713 0.1309
H16 H 0.2358 0.2944 0.1754
C19 C 0.49972(17) 0.53835(15) 0.24187(10)
H17 H 0.5475 0.5763 0.2110
C20 C 0.42197(16) 0.57415(14) 0.26824(9)
C21 C 0.37010(15) 0.49374(13) 0.31287(9)
H18 H 0.3147 0.4942 0.3388
C22 C 0.41630(15) 0.41243(13) 0.31157(9)
C23 C 0.38865(15) 0.31236(13) 0.34390(8)
C24 C 0.43709(18) 0.23894(15) 0.32760(9)
C25 C 0.4185(2) 0.13130(18) 0.34911(12)
H19 H 0.3689 0.0930 0.3791
C26 C 0.4867(3) 0.0944(2) 0.31783(15)
H20 H 0.4924 0.0261 0.3226
C27 C 0.5464(3) 0.1770(2) 0.27723(14)
H21 H 0.5991 0.1726 0.2504
C28 C 0.14010(17) 0.61045(16) 0.38255(10)
C29 C 0.1285(2) 0.51018(18) 0.41036(12)
H22 H 0.1068 0.4448 0.3790
C30 C 0.1487(2) 0.5054(2) 0.48366(13)
H23 H 0.1401 0.4373 0.5008
C31 C 0.1812(2) 0.6008(3) 0.53106(13)
H24 H 0.1945 0.5975 0.5802
C32 C 0.1938(3) 0.7004(3) 0.50552(14)
H25 H 0.2172 0.7655 0.5376
C33 C 0.1719(3) 0.7056(2) 0.43224(12)
H26 H 0.1786 0.7738 0.4158
C34 C 0.05780(19) 0.72302(17) 0.25824(11)
C35 C -0.0598(2) 0.7012(2) 0.26566(13)
H27 H -0.1049 0.6358 0.2842
C36 C -0.1110(3) 0.7753(3) 0.24591(17)
H28 H -0.1891 0.7601 0.2524
C37 C -0.0483(4) 0.8697(4) 0.2172(2)
H29 H -0.0837 0.9187 0.2037
C38 C 0.0666(4) 0.8929(3) 0.2080(3)
H30 H 0.1094 0.9578 0.1882
C39 C 0.1200(3) 0.8202(2) 0.22802(19)
H31 H 0.1982 0.8365 0.2212
C40 C 0.40494(16) 0.74593(16) 0.16512(10)
C41 C 0.4227(2) 0.85665(19) 0.15318(13)
H32 H 0.4364 0.9095 0.1916
C42 C 0.4202(2) 0.8889(2) 0.08512(16)
H33 H 0.4321 0.9628 0.0784
C43 C 0.4004(2) 0.8125(3) 0.02790(14)
H34 H 0.3988 0.8344 -0.0176
C44 C 0.3830(2) 0.7037(3) 0.03773(13)
H35 H 0.3703 0.6521 -0.0012
C45 C 0.3843(2) 0.6696(2) 0.10587(12)
H36 H 0.3712 0.5952 0.1117
C46 C 0.52386(18) 0.82417(14) 0.32677(10)
C47 C 0.5020(3) 0.84621(19) 0.39265(12)
H37 H 0.4231 0.8057 0.4001
C48 C 0.5974(4) 0.9282(3) 0.44698(15)
H38 H 0.5818 0.9421 0.4906
C49 C 0.7143(4) 0.9888(3) 0.4369(2)
H39 H 0.7784 1.0424 0.4739
C50 C 0.7361(3) 0.9701(3) 0.3725(2)
H40 H 0.8151 1.0122 0.3655
C51 C 0.6425(2) 0.8892(2) 0.31741(15)
H41 H 0.6590 0.8782 0.2736
C52 C 0.31318(15) 0.28672(13) 0.39772(9)
C53 C 0.18251(17) 0.23358(17) 0.37659(11)
C54 C 0.1183(2) 0.2102(2) 0.42965(13)
H42 H 0.0315 0.1746 0.4159
C55 C 0.1784(2) 0.2378(2) 0.50214(13)
C56 C 0.3071(2) 0.2913(2) 0.52147(11)
H43 H 0.3487 0.3115 0.5700
C57 C 0.37678(17) 0.31612(16) 0.47089(9)
C58 C 0.1126(2) 0.2016(2) 0.29800(13)
H44 H 0.0248 0.1579 0.2937
H45 H 0.1417 0.1568 0.2739
H46 H 0.1267 0.2700 0.2765
C59 C 0.1047(4) 0.2118(4) 0.55854(19)
H47 H 0.0491 0.2467 0.5505
H48 H 0.1612 0.2420 0.6055
H49 H 0.0572 0.1304 0.5553
C60 C 0.5170(2) 0.3718(2) 0.49432(12)
H50 H 0.5444 0.3994 0.5449
H51 H 0.5499 0.4349 0.4683
H52 H 0.5464 0.3169 0.4847
loop_
_geom_bond_atom_site_label_1
_geom_bond_atom_site_label_2
_geom_bond_site_symmetry_1
_geom_bond_site_symmetry_2
B1 F1 1_555 1_555
B2 F3 1_555 1_555
F2 B1 1_555 1_555
F4 B2 1_555 1_555
N1 B1 1_555 1_555
N2 B1 1_555 1_555
N3 B2 1_555 1_555
N4 B2 1_555 1_555
O1 Si1 1_555 1_555
Si1 C8 1_555 1_555
Si2 O1 1_555 1_555
C1 N2 1_555 1_555
H1 C1 1_555 1_555
C2 C1 1_555 1_555
H2 C2 1_555 1_555
C3 C2 1_555 1_555
H3 C3 1_555 1_555
C4 N2 1_555 1_555
C5 C4 1_555 1_555
C6 N1 1_555 1_555
C7 C6 1_555 1_555
H4 C7 1_555 1_555
C8 C7 1_555 1_555
C9 N1 1_555 1_555
H5 C9 1_555 1_555
C10 C5 1_555 1_555
C11 C10 1_555 1_555
C12 C11 1_555 1_555
H6 C12 1_555 1_555
C13 C12 1_555 1_555
C14 C13 1_555 1_555
H7 C14 1_555 1_555
C15 C10 1_555 1_555
C16 C11 1_555 1_555
H8 C16 1_555 1_555
H9 C16 1_555 1_555
H10 C16 1_555 1_555
C17 C13 1_555 1_555
H11 C17 1_555 1_555
H12 C17 1_555 1_555
H13 C17 1_555 1_555
C18 C15 1_555 1_555
H14 C18 1_555 1_555
H15 C18 1_555 1_555
H16 C18 1_555 1_555
C19 N3 1_555 1_555
H17 C19 1_555 1_555
C20 Si2 1_555 1_555
C21 C20 1_555 1_555
H18 C21 1_555 1_555
C22 N3 1_555 1_555
C23 C22 1_555 1_555
C24 N4 1_555 1_555
C25 C24 1_555 1_555
H19 C25 1_555 1_555
C26 C25 1_555 1_555
H20 C26 1_555 1_555
C27 N4 1_555 1_555
H21 C27 1_555 1_555
C28 Si1 1_555 1_555
C29 C28 1_555 1_555
H22 C29 1_555 1_555
C30 C29 1_555 1_555
H23 C30 1_555 1_555
C31 C30 1_555 1_555
H24 C31 1_555 1_555
C32 C31 1_555 1_555
H25 C32 1_555 1_555
C33 C28 1_555 1_555
H26 C33 1_555 1_555
C34 Si1 1_555 1_555
C35 C34 1_555 1_555
H27 C35 1_555 1_555
C36 C35 1_555 1_555
H28 C36 1_555 1_555
C37 C36 1_555 1_555
H29 C37 1_555 1_555
C38 C37 1_555 1_555
H30 C38 1_555 1_555
C39 C34 1_555 1_555
H31 C39 1_555 1_555
C40 Si2 1_555 1_555
C41 C40 1_555 1_555
H32 C41 1_555 1_555
C42 C41 1_555 1_555
H33 C42 1_555 1_555
C43 C42 1_555 1_555
H34 C43 1_555 1_555
C44 C43 1_555 1_555
H35 C44 1_555 1_555
C45 C40 1_555 1_555
H36 C45 1_555 1_555
C46 Si2 1_555 1_555
C47 C46 1_555 1_555
H37 C47 1_555 1_555
C48 C47 1_555 1_555
H38 C48 1_555 1_555
C49 C48 1_555 1_555
H39 C49 1_555 1_555
C50 C49 1_555 1_555
H40 C50 1_555 1_555
C51 C46 1_555 1_555
H41 C51 1_555 1_555
C52 C23 1_555 1_555
C53 C52 1_555 1_555
C54 C53 1_555 1_555
H42 C54 1_555 1_555
C55 C54 1_555 1_555
C56 C55 1_555 1_555
H43 C56 1_555 1_555
C57 C52 1_555 1_555
C58 C53 1_555 1_555
H44 C58 1_555 1_555
H45 C58 1_555 1_555
H46 C58 1_555 1_555
C59 C55 1_555 1_555
H47 C59 1_555 1_555
H48 C59 1_555 1_555
H49 C59 1_555 1_555
C60 C57 1_555 1_555
H50 C60 1_555 1_555
H51 C60 1_555 1_555
H52 C60 1_555 1_555
C3 C4 1_555 1_555
C5 C6 1_555 1_555
C8 C9 1_555 1_555
C14 C15 1_555 1_555
C19 C20 1_555 1_555
C21 C22 1_555 1_555
C23 C24 1_555 1_555
C26 C27 1_555 1_555
C32 C33 1_555 1_555
C38 C39 1_555 1_555
C44 C45 1_555 1_555
C50 C51 1_555 1_555
C56 C57 1_555 1_555

#END
