
#######################################################################
#
#                 Cambridge Crystallographic Data Centre
#                                CCDC 
#
#######################################################################
#
# If this CIF has been generated from an entry in the Cambridge 
# Structural Database, then it will include bibliographic, chemical, 
# crystal, experimental, refinement or atomic coordinate data resulting 
# from the CCDC's data processing and validation procedures.
#
#######################################################################

data_GASZUX
_chemical_formula_moiety         'C24 H21 N3 O3'
_chemical_name_systematic        
8-Methyl-4-(4-nitrophenyl)-1-phenyl-1,3,3a,4,5,9b-hexahydro-2H-pyrrolo[3,2-c]quinolin-2-one
_symmetry_cell_setting           monoclinic
_symmetry_space_group_name_H-M   'P 21/n'
_symmetry_Int_Tables_number      14
_space_group_name_Hall           '-P 2yn'
loop_
_symmetry_equiv_pos_site_id
_symmetry_equiv_pos_as_xyz
1 x,y,z
2 1/2-x,1/2+y,1/2-z
3 -x,-y,-z
4 1/2+x,1/2-y,1/2+z
_cell_length_a                   6.881(13)
_cell_length_b                   15.11(3)
_cell_length_c                   19.58(4)
_cell_angle_alpha                90
_cell_angle_beta                 98.67(3)
_cell_angle_gamma                90
_cell_volume                     2012.51
_exptl_crystal_colour            yellow
_exptl_crystal_description       block
_cell_formula_units_Z            4
loop_
_atom_site_label
_atom_site_type_symbol
_atom_site_fract_x
_atom_site_fract_y
_atom_site_fract_z
C1 C 1.1693(8) 0.6681(3) 0.1298(2)
H1 H 1.2516 0.6869 0.1693
C2 C 1.2174(10) 0.6869(4) 0.0655(3)
H2 H 1.3330 0.7170 0.0616
C3 C 1.0974(11) 0.6616(4) 0.0088(3)
H3 H 1.1297 0.6744 -0.0346
C4 C 0.9312(12) 0.6180(5) 0.0140(3)
H4 H 0.8474 0.6015 -0.0258
C5 C 0.8833(9) 0.5974(3) 0.0784(3)
H5 H 0.7686 0.5662 0.0819
C6 C 1.0028(7) 0.6225(2) 0.1360(2)
C7 C 0.8140(7) 0.6388(3) 0.2317(2)
C8 C 0.8337(7) 0.6095(2) 0.3061(2)
H6 H 0.7066 0.5933 0.3181
H7 H 0.8897 0.6563 0.3369
C9 C 0.9700(6) 0.5298(2) 0.31120(18)
H8 H 1.0553 0.5290 0.3560
C10 C 1.0916(6) 0.5453(2) 0.25289(18)
H9 H 1.2059 0.5816 0.2709
C11 C 1.1632(5) 0.4620(2) 0.22226(18)
C12 C 1.0923(6) 0.3800(2) 0.23872(18)
C13 C 0.8475(5) 0.4451(2) 0.30123(18)
H10 H 0.7439 0.4528 0.2615
C14 C 1.3106(6) 0.4647(3) 0.18086(19)
H11 H 1.3627 0.5195 0.1718
C15 C 1.3835(6) 0.3905(3) 0.1526(2)
C16 C 1.2969(7) 0.3109(3) 0.1660(2)
H12 H 1.3357 0.2598 0.1453
C17 C 1.1579(6) 0.3042(3) 0.2081(2)
H13 H 1.1061 0.2492 0.2166
C18 C 1.5475(7) 0.3956(3) 0.1096(3)
H14 H 1.6386 0.3482 0.1221
H15 H 1.6144 0.4512 0.1177
H16 H 1.4938 0.3907 0.0615
C19 C 0.7537(6) 0.4248(2) 0.36386(19)
C20 C 0.8638(6) 0.4102(3) 0.4285(2)
H17 H 1.0003 0.4115 0.4327
C21 C 0.7797(6) 0.3941(3) 0.4855(2)
H18 H 0.8571 0.3857 0.5282
C22 C 0.5806(6) 0.3905(2) 0.4794(2)
C23 C 0.4655(6) 0.4011(3) 0.4163(2)
H19 H 0.3294 0.3971 0.4122
C24 C 0.5543(6) 0.4178(3) 0.3591(2)
H20 H 0.4766 0.4244 0.3163
N1 N 0.9580(5) 0.59905(19) 0.20279(16)
N2 N 0.9699(5) 0.3710(2) 0.28796(16)
N3 N 0.4864(7) 0.3765(2) 0.5402(2)
O1 O 0.6916(5) 0.6906(2) 0.20242(16)
O2 O 0.3071(5) 0.3739(2) 0.53358(15)
O3 O 0.5931(5) 0.3698(2) 0.59650(17)
H21 H 0.901(7) 0.315(3) 0.285(2)
loop_
_geom_bond_atom_site_label_1
_geom_bond_atom_site_label_2
_geom_bond_site_symmetry_1
_geom_bond_site_symmetry_2
C1 H1 1_555 1_555
C2 C1 1_555 1_555
H2 C2 1_555 1_555
C3 C2 1_555 1_555
H3 C3 1_555 1_555
C4 C3 1_555 1_555
H4 C4 1_555 1_555
C5 C4 1_555 1_555
H5 C5 1_555 1_555
C6 C1 1_555 1_555
C7 C8 1_555 1_555
C8 H6 1_555 1_555
H7 C8 1_555 1_555
C9 C8 1_555 1_555
H8 C9 1_555 1_555
C10 C9 1_555 1_555
H9 C10 1_555 1_555
C11 C10 1_555 1_555
C12 C11 1_555 1_555
C13 C9 1_555 1_555
H10 C13 1_555 1_555
C14 C11 1_555 1_555
H11 C14 1_555 1_555
C15 C14 1_555 1_555
C16 C15 1_555 1_555
H12 C16 1_555 1_555
C17 C12 1_555 1_555
H13 C17 1_555 1_555
C18 C15 1_555 1_555
H14 C18 1_555 1_555
H15 C18 1_555 1_555
H16 C18 1_555 1_555
C19 C13 1_555 1_555
C20 C19 1_555 1_555
H17 C20 1_555 1_555
C21 C20 1_555 1_555
H18 C21 1_555 1_555
C22 C21 1_555 1_555
C23 C22 1_555 1_555
H19 C23 1_555 1_555
C24 C19 1_555 1_555
H20 C24 1_555 1_555
N1 C6 1_555 1_555
N2 C12 1_555 1_555
N3 C22 1_555 1_555
O1 C7 1_555 1_555
O2 N3 1_555 1_555
O3 N3 1_555 1_555
H21 N2 1_555 1_555
C5 C6 1_555 1_555
C7 N1 1_555 1_555
C10 N1 1_555 1_555
C13 N2 1_555 1_555
C16 C17 1_555 1_555
C23 C24 1_555 1_555

#END
