
#######################################################################
#
#                 Cambridge Crystallographic Data Centre
#                                CCDC 
#
#######################################################################
#
# If this CIF has been generated from an entry in the Cambridge 
# Structural Database, then it will include bibliographic, chemical, 
# crystal, experimental, refinement or atomic coordinate data resulting 
# from the CCDC's data processing and validation procedures.
#
#######################################################################

data_GATBAF
_chemical_formula_moiety         'C16 H11 N5 O3 S1'
_chemical_name_systematic        
3-(2-hydroxyphenyl)-6-(4-nitrophenyl)-7H-1,2,4-triazolo[3,4-b][1,3,4]thiadiazine
_symmetry_cell_setting           monoclinic
_symmetry_space_group_name_H-M   'C c'
_symmetry_Int_Tables_number      9
_space_group_name_Hall           'C -2yc'
loop_
_symmetry_equiv_pos_site_id
_symmetry_equiv_pos_as_xyz
1 x,y,z
2 x,-y,1/2+z
3 1/2+x,1/2+y,z
4 1/2+x,1/2-y,1/2+z
_cell_length_a                   21.853(4)
_cell_length_b                   21.192(5)
_cell_length_c                   13.526(3)
_cell_angle_alpha                90
_cell_angle_beta                 95.21(2)
_cell_angle_gamma                90
_cell_volume                     6238.13
_exptl_crystal_colour            yellow
_chemical_melting_point          201-203deg.C
_cell_formula_units_Z            16
_exptl_crystal_recrystallization_method ethanol
loop_
_atom_site_label
_atom_site_type_symbol
_atom_site_fract_x
_atom_site_fract_y
_atom_site_fract_z
S1 S 0.36645(16) 0.00560(15) 0.2852(3)
O1 O 0.2432(5) 0.1763(4) -0.0653(6)
H1 H 0.2649 0.1462 -0.0469
O2 O 0.4508(5) 0.2921(5) 0.7292(7)
O3 O 0.4196(5) 0.2148(5) 0.8168(6)
N1 N 0.2897(5) 0.0950(5) 0.0587(7)
N2 N 0.3193(5) 0.0412(5) 0.1003(8)
N3 N 0.3111(4) 0.1116(4) 0.2182(7)
N4 N 0.3260(5) 0.1449(4) 0.3070(7)
N5 N 0.4274(5) 0.2412(6) 0.7394(9)
C1 C 0.2393(5) 0.2176(6) 0.0132(9)
C2 C 0.2113(6) 0.2757(5) -0.0074(9)
H2 H 0.1959 0.2857 -0.0719
C3 C 0.2064(6) 0.3182(6) 0.0685(11)
H3 H 0.1882 0.3574 0.0562
C4 C 0.2289(6) 0.3016(5) 0.1611(10)
H4 H 0.2269 0.3312 0.2115
C5 C 0.2542(5) 0.2443(5) 0.1857(8)
H5 H 0.2670 0.2349 0.2515
C6 C 0.2607(5) 0.2002(5) 0.1122(8)
C7 C 0.2878(6) 0.1404(6) 0.1320(9)
C8 C 0.3304(6) 0.0524(5) 0.1949(9)
C9 C 0.3316(5) 0.0390(5) 0.3894(7)
H6 H 0.2885 0.0278 0.3860
H7 H 0.3517 0.0229 0.4512
C10 C 0.3389(5) 0.1115(5) 0.3850(8)
C11 C 0.3600(5) 0.1446(5) 0.4768(9)
C12 C 0.3851(5) 0.2043(5) 0.4725(8)
H8 H 0.3864 0.2238 0.4111
C13 C 0.4084(5) 0.2362(5) 0.5585(8)
H9 H 0.4270 0.2756 0.5553
C14 C 0.4029(5) 0.2075(6) 0.6462(9)
C15 C 0.3761(5) 0.1509(5) 0.6557(8)
H10 H 0.3722 0.1335 0.7179
C16 C 0.3541(5) 0.1190(5) 0.5691(8)
H11 H 0.3353 0.0799 0.5739
S2 S 0.04982(16) 0.21008(13) 0.9510(2)
O4 O 0.1747(4) 0.0540(4) 1.3214(5)
H12 H 0.1589 0.0863 1.2977
O5 O -0.0523(5) -0.1076(4) 0.5668(7)
O6 O -0.0578(4) -0.0274(4) 0.4715(6)
N6 N 0.1308(4) 0.1322(4) 1.1861(6)
N7 N 0.1035(5) 0.1852(4) 1.1365(7)
N8 N 0.1075(4) 0.1050(4) 1.0293(6)
N9 N 0.0844(4) 0.0666(4) 0.9515(7)
N10 N -0.0434(5) -0.0530(5) 0.5510(8)
C17 C 0.1784(5) 0.0098(5) 1.2473(8)
C18 C 0.1994(5) -0.0483(5) 1.2724(9)
H13 H 0.2094 -0.0581 1.3389
C19 C 0.2062(6) -0.0933(5) 1.2014(10)
H14 H 0.2233 -0.1322 1.2202
C20 C 0.1885(6) -0.0821(5) 1.1037(10)
H15 H 0.1910 -0.1132 1.0557
C21 C 0.1669(5) -0.0232(5) 1.0794(8)
H16 H 0.1577 -0.0140 1.0124
C22 C 0.1578(5) 0.0231(5) 1.1461(7)
C23 C 0.1330(5) 0.0841(5) 1.1237(7)
C24 C 0.0895(5) 0.1669(5) 1.0457(9)
C25 C 0.0831(7) 0.1642(4) 0.8534(9)
H17 H 0.0651 0.1775 0.7885
H18 H 0.1271 0.1712 0.8567
C26 C 0.0702(6) 0.0960(5) 0.8686(10)
C27 C 0.0431(5) 0.0582(4) 0.7839(7)
C28 C 0.0255(4) -0.0053(5) 0.8020(7)
H19 H 0.0317 -0.0223 0.8655
C29 C -0.0006(5) -0.0410(5) 0.7246(8)
H20 H -0.0100 -0.0831 0.7346
C30 C -0.0124(6) -0.0147(6) 0.6341(9)
C31 C 0.0049(5) 0.0453(5) 0.6142(9)
H21 H -0.0018 0.0608 0.5498
C32 C 0.0317(5) 0.0827(5) 0.6865(8)
H22 H 0.0424 0.1240 0.6726
S3 S 0.29148(17) 0.48570(15) 0.9599(3)
O7 O 0.4247(4) 0.3079(4) 1.2912(6)
H23 H 0.4587 0.3096 1.3222
O8 O 0.2251(4) 0.2202(4) 0.4800(6)
O9 O 0.2404(6) 0.3084(4) 0.4092(7)
N11 N 0.3702(4) 0.3900(5) 1.1791(6)
N12 N 0.3405(5) 0.4452(5) 1.1423(7)
N13 N 0.3509(4) 0.3790(4) 1.0198(7)
N14 N 0.3369(4) 0.3492(4) 0.9245(6)
N15 N 0.2435(6) 0.2749(5) 0.4808(9)
C33 C 0.4270(6) 0.2692(7) 1.2118(10)
C34 C 0.4529(6) 0.2108(6) 1.2250(10)
H24 H 0.4697 0.1993 1.2880
C35 C 0.4550(7) 0.1693(7) 1.1500(12)
H25 H 0.4715 0.1294 1.1636
C36 C 0.4334(6) 0.1839(6) 1.0541(10)
H26 H 0.4358 0.1557 1.0019
C37 C 0.4075(6) 0.2447(6) 1.0403(9)
H27 H 0.3918 0.2560 0.9766
C38 C 0.4040(5) 0.2893(6) 1.1168(8)
C39 C 0.3751(6) 0.3521(6) 1.1073(9)
C40 C 0.3295(6) 0.4377(5) 1.0452(10)
C41 C 0.3303(5) 0.4572(4) 0.8576(8)
H28 H 0.3120 0.4756 0.7963
H29 H 0.3732 0.4695 0.8661
C42 C 0.3255(5) 0.3867(5) 0.8522(9)
C43 C 0.3058(5) 0.3548(5) 0.7535(8)
C44 C 0.2802(5) 0.2944(5) 0.7534(8)
H30 H 0.2760 0.2728 0.8122
C45 C 0.2614(5) 0.2682(5) 0.6618(9)
H31 H 0.2453 0.2275 0.6575
C46 C 0.2668(6) 0.3031(6) 0.5771(9)
C47 C 0.2927(6) 0.3620(6) 0.5756(10)
H32 H 0.2968 0.3832 0.5163
C48 C 0.3123(6) 0.3882(5) 0.6657(9)
H33 H 0.3299 0.4282 0.6685
S4 S 0.05438(17) 0.19923(12) 0.4391(2)
O10 O 0.1206(5) 0.3651(4) 0.8267(5)
H34 H 0.1147 0.3302 0.8013
O11 O -0.0258(5) 0.5187(5) 0.0397(7)
O12 O 0.0110(6) 0.4522(5) -0.0528(7)
N16 N 0.1074(4) 0.2817(5) 0.6864(7)
N17 N 0.0898(5) 0.2267(4) 0.6346(7)
N18 N 0.0950(4) 0.3078(4) 0.5297(7)
N19 N 0.0800(4) 0.3456(4) 0.4472(7)
N20 N -0.0005(6) 0.4700(6) 0.0243(9)
C49 C 0.1333(6) 0.4069(6) 0.7567(9)
C50 C 0.1537(6) 0.4675(7) 0.7869(11)
H35 H 0.1570 0.4772 0.8542
C51 C 0.1690(6) 0.5131(7) 0.7204(12)
H36 H 0.1811 0.5531 0.7424
C52 C 0.1660(6) 0.4980(6) 0.6202(12)
H37 H 0.1773 0.5276 0.5745
C53 C 0.1462(5) 0.4394(5) 0.5888(9)
H38 H 0.1433 0.4305 0.5212
C54 C 0.1301(5) 0.3922(5) 0.6540(8)
C55 C 0.1098(5) 0.3312(6) 0.6231(8)
C56 C 0.0815(5) 0.2436(5) 0.5400(9)
C57 C 0.0887(6) 0.2469(4) 0.3498(8)
H39 H 0.1329 0.2410 0.3576
H40 H 0.0739 0.2331 0.2836
C58 C 0.0744(6) 0.3165(4) 0.3603(10)
C59 C 0.0550(6) 0.3568(5) 0.2708(8)
C60 C 0.0276(5) 0.4151(5) 0.2849(8)
H41 H 0.0211 0.4286 0.3485
C61 C 0.0104(5) 0.4523(5) 0.2046(9)
H42 H -0.0079 0.4914 0.2127
C62 C 0.0203(6) 0.4315(6) 0.1143(9)
C63 C 0.0456(5) 0.3736(5) 0.0959(9)
H43 H 0.0504 0.3605 0.0315
C64 C 0.0641(6) 0.3349(5) 0.1786(9)
H44 H 0.0819 0.2956 0.1701
loop_
_geom_bond_atom_site_label_1
_geom_bond_atom_site_label_2
_geom_bond_site_symmetry_1
_geom_bond_site_symmetry_2
S1 C8 1_555 1_555
O1 H1 1_555 1_555
O2 N5 1_555 1_555
O3 N5 1_555 1_555
N1 N2 1_555 1_555
N2 C8 1_555 1_555
N3 N4 1_555 1_555
N4 C10 1_555 1_555
N5 C14 1_555 1_555
C1 O1 1_555 1_555
C2 C1 1_555 1_555
H2 C2 1_555 1_555
C3 C2 1_555 1_555
H3 C3 1_555 1_555
C4 C3 1_555 1_555
H4 C4 1_555 1_555
C5 C4 1_555 1_555
H5 C5 1_555 1_555
C6 C1 1_555 1_555
C7 N1 1_555 1_555
C8 N3 1_555 1_555
C9 S1 1_555 1_555
H6 C9 1_555 1_555
H7 C9 1_555 1_555
C10 C9 1_555 1_555
C11 C10 1_555 1_555
C12 C11 1_555 1_555
H8 C12 1_555 1_555
C13 C12 1_555 1_555
H9 C13 1_555 1_555
C14 C13 1_555 1_555
C15 C14 1_555 1_555
H10 C15 1_555 1_555
C16 C11 1_555 1_555
H11 C16 1_555 1_555
S2 C24 1_555 1_555
O4 H12 1_555 1_555
O5 N10 1_555 1_555
O6 N10 1_555 1_555
N6 N7 1_555 1_555
N7 C24 1_555 1_555
N8 N9 1_555 1_555
N9 C26 1_555 1_555
N10 C30 1_555 1_555
C17 O4 1_555 1_555
C18 C17 1_555 1_555
H13 C18 1_555 1_555
C19 C18 1_555 1_555
H14 C19 1_555 1_555
C20 C19 1_555 1_555
H15 C20 1_555 1_555
C21 C20 1_555 1_555
H16 C21 1_555 1_555
C22 C17 1_555 1_555
C23 N6 1_555 1_555
C24 N8 1_555 1_555
C25 S2 1_555 1_555
H17 C25 1_555 1_555
H18 C25 1_555 1_555
C26 C25 1_555 1_555
C27 C26 1_555 1_555
C28 C27 1_555 1_555
H19 C28 1_555 1_555
C29 C28 1_555 1_555
H20 C29 1_555 1_555
C30 C29 1_555 1_555
C31 C30 1_555 1_555
H21 C31 1_555 1_555
C32 C27 1_555 1_555
H22 C32 1_555 1_555
S3 C40 1_555 1_555
O7 H23 1_555 1_555
O8 N15 1_555 1_555
O9 N15 1_555 1_555
N11 N12 1_555 1_555
N12 C40 1_555 1_555
N13 N14 1_555 1_555
N14 C42 1_555 1_555
N15 C46 1_555 1_555
C33 O7 1_555 1_555
C34 C33 1_555 1_555
H24 C34 1_555 1_555
C35 C34 1_555 1_555
H25 C35 1_555 1_555
C36 C35 1_555 1_555
H26 C36 1_555 1_555
C37 C36 1_555 1_555
H27 C37 1_555 1_555
C38 C33 1_555 1_555
C39 N11 1_555 1_555
C40 N13 1_555 1_555
C41 S3 1_555 1_555
H28 C41 1_555 1_555
H29 C41 1_555 1_555
C42 C41 1_555 1_555
C43 C42 1_555 1_555
C44 C43 1_555 1_555
H30 C44 1_555 1_555
C45 C44 1_555 1_555
H31 C45 1_555 1_555
C46 C45 1_555 1_555
C47 C46 1_555 1_555
H32 C47 1_555 1_555
C48 C43 1_555 1_555
H33 C48 1_555 1_555
S4 C56 1_555 1_555
O10 H34 1_555 1_555
O11 N20 1_555 1_555
O12 N20 1_555 1_555
N16 N17 1_555 1_555
N17 C56 1_555 1_555
N18 N19 1_555 1_555
N19 C58 1_555 1_555
N20 C62 1_555 1_555
C49 O10 1_555 1_555
C50 C49 1_555 1_555
H35 C50 1_555 1_555
C51 C50 1_555 1_555
H36 C51 1_555 1_555
C52 C51 1_555 1_555
H37 C52 1_555 1_555
C53 C52 1_555 1_555
H38 C53 1_555 1_555
C54 C49 1_555 1_555
C55 N16 1_555 1_555
C56 N18 1_555 1_555
C57 S4 1_555 1_555
H39 C57 1_555 1_555
H40 C57 1_555 1_555
C58 C57 1_555 1_555
C59 C58 1_555 1_555
C60 C59 1_555 1_555
H41 C60 1_555 1_555
C61 C60 1_555 1_555
H42 C61 1_555 1_555
C62 C61 1_555 1_555
C63 C62 1_555 1_555
H43 C63 1_555 1_555
C64 C59 1_555 1_555
H44 C64 1_555 1_555
N3 C7 1_555 1_555
C5 C6 1_555 1_555
C6 C7 1_555 1_555
C15 C16 1_555 1_555
N8 C23 1_555 1_555
C21 C22 1_555 1_555
C22 C23 1_555 1_555
C31 C32 1_555 1_555
N13 C39 1_555 1_555
C37 C38 1_555 1_555
C38 C39 1_555 1_555
C47 C48 1_555 1_555
N18 C55 1_555 1_555
C53 C54 1_555 1_555
C54 C55 1_555 1_555
C63 C64 1_555 1_555

#END
