
#######################################################################
#
#                 Cambridge Crystallographic Data Centre
#                                CCDC 
#
#######################################################################
#
# If this CIF has been generated from an entry in the Cambridge 
# Structural Database, then it will include bibliographic, chemical, 
# crystal, experimental, refinement or atomic coordinate data resulting 
# from the CCDC's data processing and validation procedures.
#
#######################################################################

data_GATBEK
_chemical_formula_moiety         'C20 H18 O4'
_chemical_name_systematic        
syn-3-(2-Furyl)-2-hydroxy-3-(4-methoxyphenyl)-1-phenylpropan-1-one
_symmetry_cell_setting           triclinic
_symmetry_space_group_name_H-M   'P -1'
_symmetry_Int_Tables_number      2
_space_group_name_Hall           '-P 1'
loop_
_symmetry_equiv_pos_site_id
_symmetry_equiv_pos_as_xyz
1 x,y,z
2 -x,-y,-z
_cell_length_a                   8.281(7)
_cell_length_b                   10.485(16)
_cell_length_c                   11.092(10)
_cell_angle_alpha                113.286(10)
_cell_angle_beta                 110.408(7)
_cell_angle_gamma                92.480(10)
_cell_volume                     810.546
_exptl_crystal_colour            colorless
_exptl_crystal_description       block
_cell_formula_units_Z            2
loop_
_atom_site_label
_atom_site_type_symbol
_atom_site_fract_x
_atom_site_fract_y
_atom_site_fract_z
C1 C 0.2054(2) 0.2477(2) 0.40416(19)
H1 H 0.1844 0.3245 0.4717
C2 C 0.2945(3) 0.1537(2) 0.4444(2)
H2 H 0.3344 0.1679 0.5392
C3 C 0.3248(3) 0.0393(2) 0.3458(2)
H3 H 0.3843 -0.0242 0.3736
C4 C 0.2673(3) 0.0184(2) 0.2061(2)
H4 H 0.2881 -0.0591 0.1393
C5 C 0.1791(2) 0.11185(19) 0.16476(19)
H5 H 0.1406 0.0969 0.0699
C6 C 0.1466(2) 0.22876(17) 0.26321(17)
C7 C 0.0508(2) 0.32577(18) 0.21334(17)
C8 C 0.0492(2) 0.47153(18) 0.31956(18)
H6 H 0.0140 0.4596 0.3908
C9 C 0.2365(2) 0.56929(17) 0.39890(16)
H7 H 0.3158 0.5179 0.4414
C10 C 0.2449(2) 0.70603(17) 0.52281(16)
C11 C 0.1758(2) 0.81812(19) 0.50492(18)
H8 H 0.1208 0.8107 0.4129
C12 C 0.1861(2) 0.94121(19) 0.62026(18)
H9 H 0.1383 1.0150 0.6052
C13 C 0.2670(2) 0.95420(18) 0.75705(17)
C14 C 0.3354(2) 0.8433(2) 0.77739(18)
H10 H 0.3888 0.8506 0.8695
C15 C 0.3249(2) 0.72188(19) 0.66201(17)
H11 H 0.3726 0.6484 0.6777
C16 C 0.2062(3) 1.1842(2) 0.8626(2)
H12 H 0.2472 1.2172 0.8069
H13 H 0.2342 1.2611 0.9552
H14 H 0.0809 1.1495 0.8148
C17 C 0.3003(2) 0.58968(17) 0.29543(16)
C18 C 0.2496(2) 0.6449(2) 0.20150(19)
H15 H 0.1517 0.6854 0.1824
C19 C 0.3719(2) 0.6305(2) 0.13636(19)
H16 H 0.3703 0.6597 0.0670
C20 C 0.4888(3) 0.5672(2) 0.1941(2)
H17 H 0.5849 0.5445 0.1710
O1 O -0.02585(19) 0.29441(14) 0.08636(13)
O2 O -0.07624(16) 0.53217(14) 0.24805(14)
H18 H -0.1009 0.4911 0.1618
O3 O 0.28922(19) 1.07328(14) 0.87857(13)
O4 O 0.44920(15) 0.53958(13) 0.29225(13)
loop_
_geom_bond_atom_site_label_1
_geom_bond_atom_site_label_2
_geom_bond_site_symmetry_1
_geom_bond_site_symmetry_2
C1 H1 1_555 1_555
C2 C1 1_555 1_555
H2 C2 1_555 1_555
C3 C2 1_555 1_555
H3 C3 1_555 1_555
C4 C3 1_555 1_555
H4 C4 1_555 1_555
C5 C4 1_555 1_555
H5 C5 1_555 1_555
C6 C1 1_555 1_555
C7 C6 1_555 1_555
C8 C7 1_555 1_555
H6 C8 1_555 1_555
C9 C8 1_555 1_555
H7 C9 1_555 1_555
C10 C9 1_555 1_555
C11 C10 1_555 1_555
H8 C11 1_555 1_555
C12 C11 1_555 1_555
H9 C12 1_555 1_555
C13 C12 1_555 1_555
C14 C13 1_555 1_555
H10 C14 1_555 1_555
C15 C10 1_555 1_555
H11 C15 1_555 1_555
C16 H12 1_555 1_555
H13 C16 1_555 1_555
H14 C16 1_555 1_555
C17 C9 1_555 1_555
C18 C17 1_555 1_555
H15 C18 1_555 1_555
C19 C18 1_555 1_555
H16 C19 1_555 1_555
C20 C19 1_555 1_555
H17 C20 1_555 1_555
O1 C7 1_555 1_555
O2 C8 1_555 1_555
H18 O2 1_555 1_555
O3 C13 1_555 1_555
O4 C17 1_555 1_555
C5 C6 1_555 1_555
C14 C15 1_555 1_555
C16 O3 1_555 1_555
C20 O4 1_555 1_555

#END
