
#######################################################################
#
#                 Cambridge Crystallographic Data Centre
#                                CCDC 
#
#######################################################################
#
# If this CIF has been generated from an entry in the Cambridge 
# Structural Database, then it will include bibliographic, chemical, 
# crystal, experimental, refinement or atomic coordinate data resulting 
# from the CCDC's data processing and validation procedures.
#
#######################################################################

data_GATBUB
_chemical_formula_moiety         
'2(C14 H22 N1 1+),25(H2 O1),3(I1 1-),3(C42 H42 N28 O14),K1 1+'
_chemical_name_systematic        
'bis(1-(tricyclo[3.3.1.1^3,7^]decan-2-ylidene)pyrrolidinium) potassium tris(iodide) tris(cucurbit(7)uril) pentacosahydrate'
_symmetry_cell_setting           orthorhombic
_symmetry_space_group_name_H-M   'P 21 21 21'
_symmetry_Int_Tables_number      19
_space_group_name_Hall           'P 2ac 2ab'
loop_
_symmetry_equiv_pos_site_id
_symmetry_equiv_pos_as_xyz
1 x,y,z
2 1/2-x,-y,1/2+z
3 -x,1/2+y,1/2-z
4 1/2+x,1/2-y,-z
_cell_length_a                   23.6277(9)
_cell_length_b                   24.7861(10)
_cell_length_c                   39.6556(19)
_cell_angle_alpha                90
_cell_angle_beta                 90
_cell_angle_gamma                90
_cell_volume                     23223.8
_exptl_crystal_colour            yellow
_exptl_crystal_description       block
_cell_formula_units_Z            4
_exptl_crystal_recrystallization_method water
loop_
_atom_site_label
_atom_site_type_symbol
_atom_site_fract_x
_atom_site_fract_y
_atom_site_fract_z
K1 K 0.84779(16) -0.06585(15) 0.82527(13)
K2 K 0.76901(16) 0.04104(14) 0.85148(12)
N1 N 0.6271(6) -0.3040(6) 0.7698(5)
N2 N 0.5696(8) -0.3285(7) 0.8122(6)
N3 N 0.6450(6) -0.3064(6) 0.8518(5)
N4 N 0.6988(7) -0.2778(6) 0.8108(5)
N5 N 0.4985(6) -0.3124(5) 0.8537(5)
N6 N 0.4402(6) -0.2543(6) 0.8793(5)
N7 N 0.5124(6) -0.2354(6) 0.9231(5)
N8 N 0.5715(6) -0.2875(5) 0.8923(4)
N9 N 0.3981(6) -0.1674(5) 0.8901(5)
N10 N 0.3893(6) -0.0797(6) 0.8796(5)
N11 N 0.4564(7) -0.0592(6) 0.9272(5)
N12 N 0.4711(6) -0.1473(5) 0.9317(4)
N13 N 0.4044(8) 0.0089(6) 0.8567(6)
N14 N 0.4457(7) 0.0693(6) 0.8216(6)
N15 N 0.5169(7) 0.0826(6) 0.8650(5)
N16 N 0.4710(7) 0.0257(6) 0.9009(5)
N17 N 0.5081(8) 0.0938(7) 0.7781(5)
N18 N 0.5720(6) 0.0824(6) 0.7365(5)
N19 N 0.6466(7) 0.0889(6) 0.7807(5)
N20 N 0.5834(6) 0.1079(6) 0.8194(5)
N21 N 0.6381(6) 0.0216(6) 0.7100(5)
N22 N 0.6722(6) -0.0605(5) 0.6991(5)
N23 N 0.7501(6) -0.0444(5) 0.7361(5)
N24 N 0.7140(7) 0.0348(6) 0.7499(5)
N25 N 0.6833(6) -0.1550(6) 0.7099(5)
N26 N 0.6693(7) -0.2372(6) 0.7330(5)
N27 N 0.7441(5) -0.2165(5) 0.7710(5)
N28 N 0.7642(7) -0.1402(5) 0.7441(5)
O1 O 0.5295(6) -0.3035(5) 0.7608(4)
O2 O 0.7115(5) -0.2420(6) 0.8626(4)
O3 O 0.4251(6) -0.2732(6) 0.8229(4)
O4 O 0.6084(5) -0.2201(5) 0.9277(4)
O5 O 0.3684(6) -0.1400(6) 0.8378(5)
O6 O 0.5438(7) -0.0882(5) 0.9451(5)
O7 O 0.3906(8) 0.0018(6) 0.7994(5)
O8 O 0.5680(7) 0.0436(6) 0.9082(5)
O9 O 0.4850(6) 0.0460(6) 0.7295(4)
O10 O 0.6661(5) 0.0696(5) 0.8368(4)
O11 O 0.5763(7) -0.0465(6) 0.6916(5)
O12 O 0.7698(5) -0.0091(4) 0.7894(4)
O13 O 0.5922(7) -0.1946(7) 0.7063(5)
O14 O 0.7937(6) -0.1502(5) 0.8011(4)
C1 C 0.5709(7) -0.3098(6) 0.7773(6)
C2 C 0.6271(7) -0.3396(6) 0.8260(5)
H1 H 0.6322 -0.3782 0.8316
C3 C 0.6885(7) -0.2713(7) 0.8452(6)
C4 C 0.6672(7) -0.3215(6) 0.7965(5)
H2 H 0.6920 -0.3512 0.7888
C5 C 0.5176(7) -0.3471(7) 0.8277(6)
H3 H 0.4881 -0.3498 0.8104
H4 H 0.5237 -0.3832 0.8371
C6 C 0.6248(7) -0.3133(6) 0.8870(6)
H5 H 0.6213 -0.3519 0.8920
H6 H 0.6529 -0.2980 0.9025
C7 C 0.4525(8) -0.2792(8) 0.8496(7)
C8 C 0.4788(7) -0.2747(6) 0.9068(5)
H7 H 0.4563 -0.2946 0.9238
C9 C 0.5676(9) -0.2443(7) 0.9157(6)
C10 C 0.5177(7) -0.3141(6) 0.8882(5)
H8 H 0.5170 -0.3509 0.8978
C11 C 0.3892(7) -0.2248(6) 0.8840(6)
H9 H 0.3687 -0.2402 0.9032
H10 H 0.3654 -0.2292 0.8640
C12 C 0.4924(9) -0.1954(7) 0.9462(6)
H11 H 0.4624 -0.2116 0.9599
H12 H 0.5235 -0.1859 0.9614
C13 C 0.3840(8) -0.1300(8) 0.8661(8)
C14 C 0.4009(7) -0.0807(6) 0.9171(5)
H13 H 0.3693 -0.0658 0.9306
C15 C 0.4964(7) -0.0968(6) 0.9362(6)
C16 C 0.4108(8) -0.1420(6) 0.9235(6)
H14 H 0.3862 -0.1561 0.9416
C17 C 0.3632(8) -0.0332(8) 0.8662(7)
H15 H 0.3370 -0.0184 0.8830
H16 H 0.3411 -0.0434 0.8463
C18 C 0.4630(8) -0.0029(6) 0.9313(6)
H17 H 0.4293 0.0114 0.9427
H18 H 0.4956 0.0038 0.9461
C19 C 0.4124(7) 0.0222(7) 0.8232(6)
C20 C 0.4590(8) 0.0885(7) 0.8560(6)
H19 H 0.4456 0.1259 0.8596
C21 C 0.5261(8) 0.0508(6) 0.8935(6)
C22 C 0.4272(8) 0.0480(7) 0.8794(6)
H20 H 0.3972 0.0660 0.8927
C23 C 0.4523(7) 0.1010(8) 0.7903(6)
H21 H 0.4250 0.0888 0.7734
H22 H 0.4453 0.1393 0.7949
C24 C 0.5609(8) 0.1184(8) 0.8545(6)
H23 H 0.5923 0.1157 0.8705
H24 H 0.5465 0.1555 0.8555
C25 C 0.5183(7) 0.0700(7) 0.7472(6)
C26 C 0.6012(7) 0.1169(6) 0.7618(5)
H25 H 0.6147 0.1511 0.7518
C27 C 0.6341(8) 0.0868(8) 0.8150(6)
C28 C 0.5563(8) 0.1266(7) 0.7881(6)
H26 H 0.5460 0.1653 0.7894
C29 C 0.5981(8) 0.0648(7) 0.7062(6)
H27 H 0.6176 0.0957 0.6960
H28 H 0.5685 0.0532 0.6905
C30 C 0.7021(8) 0.0838(6) 0.7686(6)
H29 H 0.7280 0.0857 0.7878
H30 H 0.7102 0.1148 0.7540
C31 C 0.6213(6) -0.0324(6) 0.6991(5)
C32 C 0.7238(7) -0.0296(6) 0.7070(6)
H31 H 0.7504 -0.0287 0.6877
C33 C 0.7451(7) -0.0067(7) 0.7616(6)
C34 C 0.6968(7) 0.0277(6) 0.7141(6)
H32 H 0.7126 0.0561 0.6993
C35 C 0.6771(9) -0.1154(7) 0.6845(6)
H33 H 0.6433 -0.1234 0.6711
H34 H 0.7100 -0.1167 0.6694
C36 C 0.7902(7) -0.0882(6) 0.7381(5)
H35 H 0.8170 -0.0807 0.7564
H36 H 0.8117 -0.0898 0.7170
C37 C 0.6429(10) -0.1957(8) 0.7159(6)
C38 C 0.7279(7) -0.2261(6) 0.7354(5)
H37 H 0.7509 -0.2551 0.7251
C39 C 0.7697(7) -0.1670(7) 0.7745(6)
C40 C 0.7382(8) -0.1726(7) 0.7184(6)
H38 H 0.7627 -0.1763 0.6983
C41 C 0.6439(9) -0.2901(7) 0.7350(6)
H39 H 0.6709 -0.3170 0.7267
H40 H 0.6105 -0.2912 0.7204
C42 C 0.7519(6) -0.2603(6) 0.7962(5)
H41 H 0.7703 -0.2912 0.7853
H42 H 0.7769 -0.2475 0.8142
N29 N 1.1026(6) -0.0606(5) 0.9462(5)
N30 N 1.0476(6) -0.1261(6) 0.9257(5)
N31 N 1.0416(6) -0.1672(5) 0.9807(4)
N32 N 1.0973(7) -0.1015(6) 1.0024(5)
N33 N 0.9582(6) -0.1662(5) 0.9112(5)
N34 N 0.8655(6) -0.1779(5) 0.9019(5)
N35 N 0.8600(6) -0.2076(6) 0.9607(5)
N36 N 0.9561(7) -0.2116(6) 0.9652(5)
N37 N 0.7714(5) -0.1429(5) 0.9075(4)
N38 N 0.7102(5) -0.0764(5) 0.9205(4)
N39 N 0.7006(6) -0.1119(6) 0.9787(5)
N40 N 0.7643(6) -0.1755(6) 0.9655(4)
N41 N 0.6849(6) 0.0101(6) 0.9419(5)
N42 N 0.7019(8) 0.0918(6) 0.9631(5)
N43 N 0.6898(7) 0.0571(6) 1.0221(5)
N44 N 0.6731(7) -0.0242(6) 0.9998(5)
N45 N 0.7592(7) 0.1613(6) 0.9853(5)
N46 N 0.8391(8) 0.2059(8) 1.0032(6)
N47 N 0.8283(9) 0.1655(8) 1.0571(6)
N48 N 0.7461(8) 0.1291(7) 1.0426(6)
N49 N 0.9419(9) 0.2060(8) 1.0090(7)
N50 N 1.0246(8) 0.1709(7) 1.0023(6)
N51 N 1.0185(10) 0.1322(7) 1.0615(6)
N52 N 0.9316(9) 0.1631(8) 1.0637(6)
N53 N 1.0972(7) 0.1068(6) 0.9888(5)
N54 N 1.1248(6) 0.0276(6) 0.9694(5)
N55 N 1.1118(7) -0.0130(6) 1.0258(6)
N56 N 1.0876(8) 0.0675(7) 1.0457(5)
O15 O 1.0479(6) -0.0407(5) 0.8992(4)
O16 O 1.0338(6) -0.1481(6) 1.0383(4)
O17 O 0.9121(5) -0.1122(5) 0.8716(4)
O18 O 0.9026(6) -0.2087(5) 1.0150(4)
O19 O 0.7738(5) -0.0613(4) 0.8771(4)
O20 O 0.7515(7) -0.1472(5) 1.0219(4)
O21 O 0.7414(6) 0.0709(5) 0.9124(4)
O22 O 0.7053(6) -0.0195(6) 1.0545(4)
O23 O 0.8291(8) 0.1863(6) 0.9456(5)
O24 O 0.7947(9) 0.0913(7) 1.0882(5)
O25 O 0.9781(8) 0.1917(7) 0.9551(6)
O26 O 0.9526(9) 0.0880(8) 1.0944(6)
O27 O 1.0829(6) 0.0878(5) 0.9327(5)
O28 O 1.0581(7) -0.0100(7) 1.0728(5)
C43 C 1.0662(8) -0.0719(7) 0.9223(6)
C44 C 1.0778(7) -0.1511(6) 0.9525(5)
H43 H 1.1005 -0.1820 0.9442
C45 C 1.0570(9) -0.1396(8) 1.0095(7)
C46 C 1.1153(8) -0.1075(8) 0.9667(6)
H44 H 1.1558 -0.1175 0.9650
C47 C 1.0144(7) -0.1520(7) 0.9000(6)
H45 H 1.0340 -0.1848 0.8926
H46 H 1.0114 -0.1279 0.8805
C48 C 1.0099(7) -0.2161(7) 0.9818(6)
H47 H 1.0038 -0.2264 1.0054
H48 H 1.0319 -0.2448 0.9710
C49 C 0.9120(6) -0.1488(6) 0.8936(5)
C50 C 0.8801(7) -0.2185(6) 0.9268(5)
H49 H 0.8675 -0.2547 0.9192
C51 C 0.9046(7) -0.2081(7) 0.9840(6)
C52 C 0.9443(6) -0.2164(6) 0.9293(5)
H50 H 0.9627 -0.2484 0.9191
C53 C 0.8106(7) -0.1710(7) 0.8879(5)
H51 H 0.8146 -0.1521 0.8663
H52 H 0.7950 -0.2068 0.8831
C54 C 0.8032(7) -0.2191(6) 0.9703(6)
H53 H 0.8028 -0.2293 0.9941
H54 H 0.7900 -0.2502 0.9572
C55 C 0.7510(7) -0.0890(6) 0.8994(6)
C56 C 0.6910(7) -0.1219(6) 0.9413(5)
H55 H 0.6517 -0.1331 0.9361
C57 C 0.7398(7) -0.1457(6) 0.9907(6)
C58 C 0.7351(6) -0.1666(6) 0.9336(5)
H56 H 0.7166 -0.2000 0.9255
C59 C 0.6739(7) -0.0287(6) 0.9170(5)
H57 H 0.6799 -0.0126 0.8947
H58 H 0.6341 -0.0398 0.9185
C60 C 0.6598(7) -0.0821(6) 0.9981(6)
H59 H 0.6586 -0.0968 1.0210
H60 H 0.6223 -0.0868 0.9880
C61 C 0.7135(8) 0.0579(7) 0.9357(6)
C62 C 0.6637(7) 0.0690(7) 0.9868(6)
H61 H 0.6289 0.0911 0.9888
C63 C 0.6911(8) 0.0012(7) 1.0272(7)
C64 C 0.6499(7) 0.0111(6) 0.9721(5)
H62 H 0.6092 0.0052 0.9675
C65 C 0.7150(8) 0.1481(7) 0.9620(6)
H63 H 0.6810 0.1690 0.9675
H64 H 0.7268 0.1579 0.9391
C66 C 0.6947(8) 0.0975(7) 1.0449(6)
H65 H 0.6925 0.0818 1.0676
H66 H 0.6623 0.1218 1.0422
C67 C 0.8094(10) 0.1843(8) 0.9744(9)
C68 C 0.8059(9) 0.2025(8) 1.0309(7)
H67 H 0.7987 0.2388 1.0405
C69 C 0.7889(10) 0.1250(9) 1.0647(8)
C70 C 0.7532(10) 0.1763(7) 1.0217(6)
H68 H 0.7210 0.2013 1.0248
C71 C 0.8888(9) 0.2380(8) 0.9989(7)
H69 H 0.8859 0.2705 1.0129
H70 H 0.8919 0.2493 0.9753
C72 C 0.8778(10) 0.1737(10) 1.0802(8)
H71 H 0.8775 0.2109 1.0885
H72 H 0.8740 0.1497 1.0997
C73 C 0.9802(9) 0.1902(9) 0.9844(10)
C74 C 1.0198(10) 0.1814(9) 1.0383(7)
H73 H 1.0486 0.2078 1.0458
C75 C 0.9686(11) 0.1258(14) 1.0749(9)
C76 C 0.9589(9) 0.2046(8) 1.0421(7)
H74 H 0.9586 0.2407 1.0527
C77 C 1.0808(9) 0.1643(8) 0.9878(8)
H75 H 1.1082 0.1858 1.0006
H76 H 1.0809 0.1771 0.9645
C78 C 1.0685(10) 0.1049(10) 1.0712(7)
H77 H 1.0614 0.0853 1.0922
H78 H 1.0984 0.1315 1.0755
C79 C 1.1012(10) 0.0766(8) 0.9599(8)
C80 C 1.1444(8) 0.0239(9) 1.0042(6)
H79 H 1.1857 0.0179 1.0059
C81 C 1.0827(9) 0.0098(7) 1.0501(7)
C82 C 1.1257(8) 0.0814(8) 1.0182(6)
H80 H 1.1584 0.1029 1.0260
C83 C 1.1395(7) -0.0140(7) 0.9443(6)
H81 H 1.1370 0.0016 0.9216
H82 H 1.1787 -0.0255 0.9479
C84 C 1.1273(9) -0.0714(8) 1.0257(7)
H83 H 1.1678 -0.0748 1.0209
H84 H 1.1206 -0.0863 1.0482
N57 N 1.0074(6) 0.1664(5) 0.8614(5)
N58 N 1.0538(6) 0.1018(5) 0.8322(5)
N59 N 0.9818(6) 0.0376(6) 0.8497(5)
N60 N 0.9323(6) 0.1023(6) 0.8734(4)
N61 N 1.0824(7) 0.0495(6) 0.7857(5)
N62 N 1.0778(6) 0.0254(6) 0.7311(5)
N63 N 1.0039(6) -0.0408(6) 0.7447(4)
N64 N 1.0079(6) -0.0117(6) 0.7972(5)
N65 N 1.0483(6) 0.0269(6) 0.6721(5)
N66 N 0.9982(7) 0.0563(6) 0.6298(5)
N67 N 0.9230(7) -0.0051(6) 0.6426(5)
N68 N 0.9732(6) -0.0366(5) 0.6865(4)
N69 N 0.9287(7) 0.1186(5) 0.6061(5)
N70 N 0.8683(7) 0.1871(6) 0.6070(5)
N71 N 0.7953(6) 0.1247(6) 0.6220(5)
N72 N 0.8549(6) 0.0562(5) 0.6211(5)
N73 N 0.8185(6) 0.2572(6) 0.6339(5)
N74 N 0.7990(6) 0.3074(6) 0.6790(5)
N75 N 0.7196(6) 0.2484(5) 0.6929(5)
N76 N 0.7439(6) 0.1965(5) 0.6497(5)
N77 N 0.8030(7) 0.3308(7) 0.7377(6)
N78 N 0.8258(8) 0.3355(6) 0.7915(5)
N79 N 0.7514(7) 0.2713(6) 0.8035(5)
N80 N 0.7190(6) 0.2784(6) 0.7508(5)
N81 N 0.8825(7) 0.2978(6) 0.8382(5)
N82 N 0.9438(6) 0.2423(6) 0.8638(5)
N83 N 0.8683(6) 0.1790(5) 0.8711(5)
N84 N 0.8064(7) 0.2339(5) 0.8504(5)
O29 O 1.0672(6) 0.1907(5) 0.8172(4)
O30 O 0.8819(5) 0.0308(5) 0.8500(4)
O31 O 1.1088(6) 0.1093(6) 0.7428(4)
O32 O 0.9243(5) -0.0521(5) 0.7782(4)
O33 O 1.0641(6) 0.1139(5) 0.6541(4)
O34 O 0.8739(6) -0.0384(5) 0.6898(4)
O35 O 0.9629(5) 0.2057(5) 0.6119(4)
O36 O 0.7730(6) 0.0471(5) 0.6520(4)
O37 O 0.8899(6) 0.3087(6) 0.6569(4)
O38 O 0.6980(6) 0.1572(5) 0.6956(4)
O39 O 0.8959(6) 0.3517(5) 0.7511(5)
O40 O 0.6928(6) 0.2022(5) 0.7824(4)
O41 O 0.9781(6) 0.3041(5) 0.8236(4)
O42 O 0.7855(6) 0.1444(5) 0.8477(5)
C85 C 1.0468(7) 0.1579(6) 0.8364(6)
C86 C 1.0250(7) 0.0736(6) 0.8602(6)
H85 H 1.0523 0.0559 0.8756
C87 C 0.9275(8) 0.0563(7) 0.8560(6)
C88 C 0.9914(8) 0.1169(7) 0.8780(6)
H86 H 1.0011 0.1182 0.9022
C89 C 1.0996(8) 0.0805(8) 0.8149(6)
H87 H 1.1214 0.0573 0.8302
H88 H 1.1244 0.1100 0.8076
C90 C 0.9940(8) -0.0141(6) 0.8347(5)
H89 H 0.9611 -0.0378 0.8378
H90 H 1.0260 -0.0304 0.8466
C91 C 1.0932(8) 0.0651(8) 0.7523(6)
C92 C 1.0616(6) -0.0246(6) 0.7487(5)
H91 H 1.0882 -0.0545 0.7438
C93 C 0.9729(7) -0.0380(6) 0.7742(5)
C94 C 1.0644(7) -0.0069(6) 0.7863(6)
H92 H 1.0904 -0.0298 0.7997
C95 C 1.0953(7) 0.0228(7) 0.6950(5)
H93 H 1.1220 0.0521 0.6904
H94 H 1.1150 -0.0114 0.6910
C96 C 0.9822(8) -0.0704(7) 0.7161(6)
H95 H 0.9462 -0.0873 0.7224
H96 H 1.0088 -0.0993 0.7103
C97 C 1.0386(9) 0.0694(8) 0.6522(6)
C98 C 0.9800(8) 0.0030(7) 0.6325(7)
H97 H 0.9883 -0.0172 0.6115
C99 C 0.9176(7) -0.0266(7) 0.6772(6)
C100 C 1.0148(7) -0.0216(7) 0.6637(6)
H98 H 1.0390 -0.0523 0.6569
C101 C 0.9838(8) 0.0922(7) 0.6020(6)
H99 H 0.9836 0.0715 0.5809
H100 H 1.0131 0.1200 0.6000
C102 C 0.8746(8) 0.0014(7) 0.6222(7)
H101 H 0.8442 -0.0218 0.6308
H102 H 0.8835 -0.0105 0.5992
C103 C 0.9225(8) 0.1741(7) 0.6077(6)
C104 C 0.8334(7) 0.1403(7) 0.5957(6)
H103 H 0.8149 0.1456 0.5736
C105 C 0.8040(9) 0.0726(7) 0.6327(6)
C106 C 0.8778(7) 0.0937(7) 0.5961(6)
H104 H 0.8814 0.0765 0.5737
C107 C 0.8485(9) 0.2396(7) 0.6032(7)
H105 H 0.8228 0.2413 0.5838
H106 H 0.8805 0.2638 0.5988
C108 C 0.7392(7) 0.1508(7) 0.6263(6)
H107 H 0.7254 0.1635 0.6044
H108 H 0.7120 0.1245 0.6351
C109 C 0.8419(7) 0.2931(7) 0.6574(6)
C110 C 0.7445(7) 0.2837(7) 0.6680(6)
H109 H 0.7175 0.3121 0.6610
C111 C 0.7186(6) 0.1971(7) 0.6807(6)
C112 C 0.7603(7) 0.2494(6) 0.6397(6)
H110 H 0.7386 0.2602 0.6194
C113 C 0.8070(9) 0.3507(8) 0.7031(6)
H111 H 0.7781 0.3785 0.6994
H112 H 0.8442 0.3672 0.6996
C114 C 0.6853(7) 0.2671(7) 0.7214(5)
H113 H 0.6649 0.2998 0.7147
H114 H 0.6572 0.2394 0.7270
C115 C 0.8485(7) 0.3399(6) 0.7577(6)
C116 C 0.7698(8) 0.3263(6) 0.7937(6)
H115 H 0.7508 0.3541 0.8076
C117 C 0.7211(8) 0.2472(7) 0.7793(7)
C118 C 0.7498(8) 0.3299(7) 0.7539(6)
H116 H 0.7261 0.3619 0.7489
C119 C 0.8634(8) 0.3472(7) 0.8215(6)
H117 H 0.8965 0.3678 0.8140
H118 H 0.8426 0.3694 0.8377
C120 C 0.7500(8) 0.2530(7) 0.8385(6)
H119 H 0.7225 0.2236 0.8406
H120 H 0.7373 0.2828 0.8529
C121 C 0.9379(7) 0.2841(6) 0.8395(5)
C122 C 0.8920(8) 0.2315(7) 0.8809(6)
H121 H 0.8943 0.2368 0.9056
C123 C 0.8174(8) 0.1824(7) 0.8551(6)
C124 C 0.8485(8) 0.2711(7) 0.8628(6)
H122 H 0.8319 0.2970 0.8790
C125 C 0.9962(7) 0.2213(6) 0.8722(6)
H123 H 1.0004 0.2229 0.8967
H124 H 1.0253 0.2447 0.8624
C126 C 0.8860(8) 0.1296(7) 0.8900(7)
H125 H 0.8976 0.1398 0.9128
H126 H 0.8538 0.1049 0.8919
I1 I 0.52827(8) 0.02262(8) 0.02963(5)
I2 I 0.38736(16) 0.85576(9) 0.02463(10)
I3 I 0.21959(17) 0.20137(11) 0.05948(11)
C127 C 0.8403(8) 0.9725(9) 0.0828(6)
H127 H 0.8229 1.0080 0.0797
H128 H 0.8114 0.9446 0.0794
C128 C 0.8656(10) 0.9679(9) 0.1167(7)
H129 H 0.8368 0.9590 0.1336
H130 H 0.8844 1.0016 0.1232
C129 C 0.9084(10) 0.9223(10) 0.1130(8)
H131 H 0.8897 0.8870 0.1123
H132 H 0.9361 0.9226 0.1314
C130 C 0.9357(11) 0.9364(10) 0.0791(7)
H133 H 0.9486 0.9037 0.0676
H134 H 0.9682 0.9604 0.0824
C131 C 0.8947(7) 0.9796(7) 0.0275(7)
C132 C 0.8467(8) 1.0073(8) 0.0089(7)
H135 H 0.8141 1.0143 0.0241
C133 C 0.8313(9) 0.9687(9) -0.0186(7)
H136 H 0.8000 0.9838 -0.0317
H137 H 0.8180 0.9349 -0.0084
C134 C 0.8801(10) 0.9565(9) -0.0419(7)
H138 H 0.8676 0.9312 -0.0598
C135 C 0.9289(12) 0.9308(8) -0.0215(8)
H139 H 0.9165 0.8961 -0.0123
H140 H 0.9613 0.9243 -0.0364
C136 C 0.9459(8) 0.9665(8) 0.0061(7)
H141 H 0.9751 0.9487 0.0200
C137 C 0.8707(11) 1.0602(9) -0.0055(8)
H142 H 0.8410 1.0792 -0.0181
H143 H 0.8831 1.0835 0.0130
C138 C 0.9006(10) 1.0091(8) -0.0579(6)
H144 H 0.8698 1.0258 -0.0708
H145 H 0.9320 1.0018 -0.0734
C139 C 0.9677(12) 1.0235(9) -0.0059(7)
H146 H 0.9746 1.0468 0.0136
H147 H 1.0032 1.0197 -0.0185
C140 C 0.9208(10) 1.0486(7) -0.0290(8)
H148 H 0.9346 1.0828 -0.0390
N85 N 0.8889(6) 0.9648(6) 0.0587(5)
C141 C 0.5256(14) 0.2676(12) 0.3165(8)
H149 H 0.5411 0.3016 0.3251
H150 H 0.4969 0.2542 0.3323
C142 C 0.572(2) 0.2261(16) 0.3111(10)
H151 H 0.6077 0.2386 0.3213
H152 H 0.5617 0.1916 0.3215
C143 C 0.5789(19) 0.220(2) 0.2737(10)
H153 H 0.5830 0.1813 0.2685
H154 H 0.6137 0.2380 0.2667
C144 C 0.5296(15) 0.2424(17) 0.2535(10)
H155 H 0.5429 0.2647 0.2347
H156 H 0.5054 0.2135 0.2447
C145 C 0.4582(9) 0.3046(8) 0.2724(6)
C146 C 0.4259(12) 0.3393(12) 0.2977(9)
H157 H 0.4380 0.3289 0.3207
C147 C 0.3673(14) 0.3208(17) 0.2928(13)
H158 H 0.3435 0.3356 0.3108
H159 H 0.3663 0.2813 0.2946
C148 C 0.3437(12) 0.3370(12) 0.2597(9)
H160 H 0.3032 0.3268 0.2589
C149 C 0.3768(15) 0.3041(13) 0.2323(11)
H161 H 0.3714 0.2652 0.2357
H162 H 0.3637 0.3136 0.2097
C150 C 0.4403(17) 0.3197(15) 0.2369(10)
H163 H 0.4638 0.3000 0.2203
C151 C 0.438(2) 0.3971(13) 0.2931(14)
H164 H 0.4790 0.4041 0.2927
H165 H 0.4204 0.4191 0.3107
C152 C 0.3493(11) 0.3937(11) 0.2504(8)
H166 H 0.3384 0.3990 0.2268
H167 H 0.3251 0.4162 0.2646
C153 C 0.4459(13) 0.3787(13) 0.2316(10)
H168 H 0.4852 0.3897 0.2353
H169 H 0.4356 0.3877 0.2083
C154 C 0.4083(11) 0.4075(10) 0.2553(9)
H170 H 0.4121 0.4465 0.2503
N86 N 0.4994(9) 0.2753(8) 0.2793(6)
O43 O 0.3736(13) 0.0433(10) 0.1207(7)
O44 O 0.5357(9) 0.6285(7) 0.1956(5)
O45 O 0.5318(11) 0.8686(8) 0.0214(6)
O46 O 0.6475(7) 0.3573(8) 0.1162(6)
O47 O 0.6026(15) 0.2065(11) 0.0453(11)
O48 O 0.6780(13) 0.2765(9) 0.0754(7)
O49 O 0.1349(11) 0.9526(10) 0.2188(6)
O50 O 0.4175(15) 0.1411(11) 0.0905(8)
O51 O 0.0955(12) 0.3155(10) 0.8110(9)
O52 O 0.5389(15) 0.1314(10) 0.0846(7)
O53 O 0.1757(10) 0.2334(11) 0.8189(8)
O54 O 0.456(2) 0.1448(18) 0.9298(13)
O55 O 0.4943(11) 0.9857(15) 0.6465(8)
O56 O 0.3192(10) 0.1060(10) 0.8380(8)
O57 O 0.6694(11) 0.1791(9) 0.8864(8)
O58 O 0.3053(19) 0.0321(15) 0.0404(13)
O59 O 0.5513(15) 0.7305(12) 0.6632(8)
O60 O 0.2844(15) 0.0423(16) 0.1620(10)
O61 O 0.710(2) 0.1223(13) 0.1367(10)
O62 O 0.3999(13) 0.9777(12) 0.0654(9)
O63 O 0.4565(14) 0.1327(10) 0.9994(9)
O64 O 0.2000(16) 0.9284(11) 0.1027(7)
O65 O 0.2104(13) 0.1540(12) 0.7662(8)
O66 O 0.755(2) 0.593(3) 0.8310(15)
O67 O 0.8397(15) 0.6739(14) 0.8651(10)
loop_
_geom_bond_atom_site_label_1
_geom_bond_atom_site_label_2
_geom_bond_site_symmetry_1
_geom_bond_site_symmetry_2
N1 C1 1_555 1_555
N2 C1 1_555 1_555
N3 C2 1_555 1_555
N4 C3 1_555 1_555
N5 C5 1_555 1_555
N6 C7 1_555 1_555
N7 C8 1_555 1_555
N8 C6 1_555 1_555
N9 C11 1_555 1_555
N10 C13 1_555 1_555
N11 C14 1_555 1_555
N12 C12 1_555 1_555
N13 C17 1_555 1_555
N14 C19 1_555 1_555
N15 C20 1_555 1_555
N16 C18 1_555 1_555
N17 C23 1_555 1_555
N18 C25 1_555 1_555
N19 C26 1_555 1_555
N20 C24 1_555 1_555
N21 C29 1_555 1_555
N22 C31 1_555 1_555
N23 C32 1_555 1_555
N24 C30 1_555 1_555
N25 C35 1_555 1_555
N26 C37 1_555 1_555
N27 C38 1_555 1_555
N28 C36 1_555 1_555
O1 C1 1_555 1_555
O2 C3 1_555 1_555
O3 C7 1_555 1_555
O4 C9 1_555 1_555
O5 C13 1_555 1_555
O6 C15 1_555 1_555
O7 C19 1_555 1_555
O8 C21 1_555 1_555
O9 C25 1_555 1_555
O10 C27 1_555 1_555
O11 C31 1_555 1_555
O12 C33 1_555 1_555
O13 C37 1_555 1_555
O14 C39 1_555 1_555
C2 N2 1_555 1_555
H1 C2 1_555 1_555
C3 N3 1_555 1_555
C4 N1 1_555 1_555
H2 C4 1_555 1_555
C5 N2 1_555 1_555
H3 C5 1_555 1_555
H4 C5 1_555 1_555
C6 N3 1_555 1_555
H5 C6 1_555 1_555
H6 C6 1_555 1_555
C7 N5 1_555 1_555
C8 N6 1_555 1_555
H7 C8 1_555 1_555
C9 N7 1_555 1_555
C10 N5 1_555 1_555
H8 C10 1_555 1_555
C11 N6 1_555 1_555
H9 C11 1_555 1_555
H10 C11 1_555 1_555
C12 N7 1_555 1_555
H11 C12 1_555 1_555
H12 C12 1_555 1_555
C13 N9 1_555 1_555
C14 N10 1_555 1_555
H13 C14 1_555 1_555
C15 N11 1_555 1_555
C16 N9 1_555 1_555
H14 C16 1_555 1_555
C17 N10 1_555 1_555
H15 C17 1_555 1_555
H16 C17 1_555 1_555
C18 N11 1_555 1_555
H17 C18 1_555 1_555
H18 C18 1_555 1_555
C19 N13 1_555 1_555
C20 N14 1_555 1_555
H19 C20 1_555 1_555
C21 N15 1_555 1_555
C22 N13 1_555 1_555
H20 C22 1_555 1_555
C23 N14 1_555 1_555
H21 C23 1_555 1_555
H22 C23 1_555 1_555
C24 N15 1_555 1_555
H23 C24 1_555 1_555
H24 C24 1_555 1_555
C25 N17 1_555 1_555
C26 N18 1_555 1_555
H25 C26 1_555 1_555
C27 N19 1_555 1_555
C28 N17 1_555 1_555
H26 C28 1_555 1_555
C29 N18 1_555 1_555
H27 C29 1_555 1_555
H28 C29 1_555 1_555
C30 N19 1_555 1_555
H29 C30 1_555 1_555
H30 C30 1_555 1_555
C31 N21 1_555 1_555
C32 N22 1_555 1_555
H31 C32 1_555 1_555
C33 N23 1_555 1_555
C34 N21 1_555 1_555
H32 C34 1_555 1_555
C35 N22 1_555 1_555
H33 C35 1_555 1_555
H34 C35 1_555 1_555
C36 N23 1_555 1_555
H35 C36 1_555 1_555
H36 C36 1_555 1_555
C37 N25 1_555 1_555
C38 N26 1_555 1_555
H37 C38 1_555 1_555
C39 N27 1_555 1_555
C40 N25 1_555 1_555
H38 C40 1_555 1_555
C41 N1 1_555 1_555
H39 C41 1_555 1_555
H40 C41 1_555 1_555
C42 N4 1_555 1_555
H41 C42 1_555 1_555
H42 C42 1_555 1_555
N29 C43 1_555 1_555
N30 C43 1_555 1_555
N31 C44 1_555 1_555
N32 C45 1_555 1_555
N33 C47 1_555 1_555
N34 C49 1_555 1_555
N35 C50 1_555 1_555
N36 C48 1_555 1_555
N37 C53 1_555 1_555
N38 C55 1_555 1_555
N39 C56 1_555 1_555
N40 C54 1_555 1_555
N41 C59 1_555 1_555
N42 C61 1_555 1_555
N43 C62 1_555 1_555
N44 C60 1_555 1_555
N45 C65 1_555 1_555
N46 C67 1_555 1_555
N47 C68 1_555 1_555
N48 C66 1_555 1_555
N49 C71 1_555 1_555
N50 C73 1_555 1_555
N51 C74 1_555 1_555
N52 C72 1_555 1_555
N53 C77 1_555 1_555
N54 C79 1_555 1_555
N55 C80 1_555 1_555
N56 C78 1_555 1_555
O15 C43 1_555 1_555
O16 C45 1_555 1_555
O17 C49 1_555 1_555
O18 C51 1_555 1_555
O19 C55 1_555 1_555
O20 C57 1_555 1_555
O21 C61 1_555 1_555
O22 C63 1_555 1_555
O23 C67 1_555 1_555
O24 C69 1_555 1_555
O25 C73 1_555 1_555
O26 C75 1_555 1_555
O27 C79 1_555 1_555
O28 C81 1_555 1_555
C44 N30 1_555 1_555
H43 C44 1_555 1_555
C45 N31 1_555 1_555
C46 N29 1_555 1_555
H44 C46 1_555 1_555
C47 N30 1_555 1_555
H45 C47 1_555 1_555
H46 C47 1_555 1_555
C48 N31 1_555 1_555
H47 C48 1_555 1_555
H48 C48 1_555 1_555
C49 N33 1_555 1_555
C50 N34 1_555 1_555
H49 C50 1_555 1_555
C51 N35 1_555 1_555
C52 N33 1_555 1_555
H50 C52 1_555 1_555
C53 N34 1_555 1_555
H51 C53 1_555 1_555
H52 C53 1_555 1_555
C54 N35 1_555 1_555
H53 C54 1_555 1_555
H54 C54 1_555 1_555
C55 N37 1_555 1_555
C56 N38 1_555 1_555
H55 C56 1_555 1_555
C57 N39 1_555 1_555
C58 N37 1_555 1_555
H56 C58 1_555 1_555
C59 N38 1_555 1_555
H57 C59 1_555 1_555
H58 C59 1_555 1_555
C60 N39 1_555 1_555
H59 C60 1_555 1_555
H60 C60 1_555 1_555
C61 N41 1_555 1_555
C62 N42 1_555 1_555
H61 C62 1_555 1_555
C63 N43 1_555 1_555
C64 N41 1_555 1_555
H62 C64 1_555 1_555
C65 N42 1_555 1_555
H63 C65 1_555 1_555
H64 C65 1_555 1_555
C66 N43 1_555 1_555
H65 C66 1_555 1_555
H66 C66 1_555 1_555
C67 N45 1_555 1_555
C68 N46 1_555 1_555
H67 C68 1_555 1_555
C69 N47 1_555 1_555
C70 N45 1_555 1_555
H68 C70 1_555 1_555
C71 N46 1_555 1_555
H69 C71 1_555 1_555
H70 C71 1_555 1_555
C72 N47 1_555 1_555
H71 C72 1_555 1_555
H72 C72 1_555 1_555
C73 N49 1_555 1_555
C74 N50 1_555 1_555
H73 C74 1_555 1_555
C75 N51 1_555 1_555
C76 N49 1_555 1_555
H74 C76 1_555 1_555
C77 N50 1_555 1_555
H75 C77 1_555 1_555
H76 C77 1_555 1_555
C78 N51 1_555 1_555
H77 C78 1_555 1_555
H78 C78 1_555 1_555
C79 N53 1_555 1_555
C80 N54 1_555 1_555
H79 C80 1_555 1_555
C81 N55 1_555 1_555
C82 N53 1_555 1_555
H80 C82 1_555 1_555
C83 N29 1_555 1_555
H81 C83 1_555 1_555
H82 C83 1_555 1_555
C84 N32 1_555 1_555
H83 C84 1_555 1_555
H84 C84 1_555 1_555
N57 C85 1_555 1_555
N58 C85 1_555 1_555
N59 C86 1_555 1_555
N60 C87 1_555 1_555
N61 C89 1_555 1_555
N62 C91 1_555 1_555
N63 C92 1_555 1_555
N64 C90 1_555 1_555
N65 C95 1_555 1_555
N66 C97 1_555 1_555
N67 C98 1_555 1_555
N68 C96 1_555 1_555
N69 C101 1_555 1_555
N70 C103 1_555 1_555
N71 C104 1_555 1_555
N72 C102 1_555 1_555
N73 C107 1_555 1_555
N74 C109 1_555 1_555
N75 C110 1_555 1_555
N76 C108 1_555 1_555
N77 C113 1_555 1_555
N78 C115 1_555 1_555
N79 C116 1_555 1_555
N80 C114 1_555 1_555
N81 C119 1_555 1_555
N82 C121 1_555 1_555
N83 C122 1_555 1_555
N84 C120 1_555 1_555
O29 C85 1_555 1_555
O30 C87 1_555 1_555
O31 C91 1_555 1_555
O32 C93 1_555 1_555
O33 C97 1_555 1_555
O34 C99 1_555 1_555
O35 C103 1_555 1_555
O36 C105 1_555 1_555
O37 C109 1_555 1_555
O38 C111 1_555 1_555
O39 C115 1_555 1_555
O40 C117 1_555 1_555
O41 C121 1_555 1_555
O42 C123 1_555 1_555
C86 N58 1_555 1_555
H85 C86 1_555 1_555
C87 N59 1_555 1_555
C88 N57 1_555 1_555
H86 C88 1_555 1_555
C89 N58 1_555 1_555
H87 C89 1_555 1_555
H88 C89 1_555 1_555
C90 N59 1_555 1_555
H89 C90 1_555 1_555
H90 C90 1_555 1_555
C91 N61 1_555 1_555
C92 N62 1_555 1_555
H91 C92 1_555 1_555
C93 N63 1_555 1_555
C94 N61 1_555 1_555
H92 C94 1_555 1_555
C95 N62 1_555 1_555
H93 C95 1_555 1_555
H94 C95 1_555 1_555
C96 N63 1_555 1_555
H95 C96 1_555 1_555
H96 C96 1_555 1_555
C97 N65 1_555 1_555
C98 N66 1_555 1_555
H97 C98 1_555 1_555
C99 N67 1_555 1_555
C100 N65 1_555 1_555
H98 C100 1_555 1_555
C101 N66 1_555 1_555
H99 C101 1_555 1_555
H100 C101 1_555 1_555
C102 N67 1_555 1_555
H101 C102 1_555 1_555
H102 C102 1_555 1_555
C103 N69 1_555 1_555
C104 N70 1_555 1_555
H103 C104 1_555 1_555
C105 N71 1_555 1_555
C106 N69 1_555 1_555
H104 C106 1_555 1_555
C107 N70 1_555 1_555
H105 C107 1_555 1_555
H106 C107 1_555 1_555
C108 N71 1_555 1_555
H107 C108 1_555 1_555
H108 C108 1_555 1_555
C109 N73 1_555 1_555
C110 N74 1_555 1_555
H109 C110 1_555 1_555
C111 N75 1_555 1_555
C112 N73 1_555 1_555
H110 C112 1_555 1_555
C113 N74 1_555 1_555
H111 C113 1_555 1_555
H112 C113 1_555 1_555
C114 N75 1_555 1_555
H113 C114 1_555 1_555
H114 C114 1_555 1_555
C115 N77 1_555 1_555
C116 N78 1_555 1_555
H115 C116 1_555 1_555
C117 N79 1_555 1_555
C118 N77 1_555 1_555
H116 C118 1_555 1_555
C119 N78 1_555 1_555
H117 C119 1_555 1_555
H118 C119 1_555 1_555
C120 N79 1_555 1_555
H119 C120 1_555 1_555
H120 C120 1_555 1_555
C121 N81 1_555 1_555
C122 N82 1_555 1_555
H121 C122 1_555 1_555
C123 N83 1_555 1_555
C124 N81 1_555 1_555
H122 C124 1_555 1_555
C125 N57 1_555 1_555
H123 C125 1_555 1_555
H124 C125 1_555 1_555
C126 N60 1_555 1_555
H125 C126 1_555 1_555
H126 C126 1_555 1_555
C127 H127 1_555 1_555
H128 C127 1_555 1_555
C128 C127 1_555 1_555
H129 C128 1_555 1_555
H130 C128 1_555 1_555
C129 C128 1_555 1_555
H131 C129 1_555 1_555
H132 C129 1_555 1_555
C130 C129 1_555 1_555
H133 C130 1_555 1_555
H134 C130 1_555 1_555
C131 C132 1_555 1_555
C132 H135 1_555 1_555
C133 C132 1_555 1_555
H136 C133 1_555 1_555
H137 C133 1_555 1_555
C134 C133 1_555 1_555
H138 C134 1_555 1_555
C135 C134 1_555 1_555
H139 C135 1_555 1_555
H140 C135 1_555 1_555
C136 C131 1_555 1_555
H141 C136 1_555 1_555
C137 C132 1_555 1_555
H142 C137 1_555 1_555
H143 C137 1_555 1_555
C138 C134 1_555 1_555
H144 C138 1_555 1_555
H145 C138 1_555 1_555
C139 C136 1_555 1_555
H146 C139 1_555 1_555
H147 C139 1_555 1_555
C140 C137 1_555 1_555
H148 C140 1_555 1_555
N85 C127 1_555 1_555
C141 H149 1_555 1_555
H150 C141 1_555 1_555
C142 C141 1_555 1_555
H151 C142 1_555 1_555
H152 C142 1_555 1_555
C143 C142 1_555 1_555
H153 C143 1_555 1_555
H154 C143 1_555 1_555
C144 C143 1_555 1_555
H155 C144 1_555 1_555
H156 C144 1_555 1_555
C145 C146 1_555 1_555
C146 H157 1_555 1_555
C147 C146 1_555 1_555
H158 C147 1_555 1_555
H159 C147 1_555 1_555
C148 C147 1_555 1_555
H160 C148 1_555 1_555
C149 C148 1_555 1_555
H161 C149 1_555 1_555
H162 C149 1_555 1_555
C150 C145 1_555 1_555
H163 C150 1_555 1_555
C151 C146 1_555 1_555
H164 C151 1_555 1_555
H165 C151 1_555 1_555
C152 C148 1_555 1_555
H166 C152 1_555 1_555
H167 C152 1_555 1_555
C153 C150 1_555 1_555
H168 C153 1_555 1_555
H169 C153 1_555 1_555
C154 C151 1_555 1_555
H170 C154 1_555 1_555
N86 C141 1_555 1_555
N4 C4 1_555 1_555
N8 C9 1_555 1_555
N8 C10 1_555 1_555
N12 C15 1_555 1_555
N12 C16 1_555 1_555
N16 C21 1_555 1_555
N16 C22 1_555 1_555
N20 C27 1_555 1_555
N20 C28 1_555 1_555
N24 C33 1_555 1_555
N24 C34 1_555 1_555
N26 C41 1_555 1_555
N27 C42 1_555 1_555
N28 C39 1_555 1_555
N28 C40 1_555 1_555
C2 C4 1_555 1_555
C8 C10 1_555 1_555
C14 C16 1_555 1_555
C20 C22 1_555 1_555
C26 C28 1_555 1_555
C32 C34 1_555 1_555
C38 C40 1_555 1_555
N32 C46 1_555 1_555
N36 C51 1_555 1_555
N36 C52 1_555 1_555
N40 C57 1_555 1_555
N40 C58 1_555 1_555
N44 C63 1_555 1_555
N44 C64 1_555 1_555
N48 C69 1_555 1_555
N48 C70 1_555 1_555
N52 C75 1_555 1_555
N52 C76 1_555 1_555
N54 C83 1_555 1_555
N55 C84 1_555 1_555
N56 C81 1_555 1_555
N56 C82 1_555 1_555
C44 C46 1_555 1_555
C50 C52 1_555 1_555
C56 C58 1_555 1_555
C62 C64 1_555 1_555
C68 C70 1_555 1_555
C74 C76 1_555 1_555
C80 C82 1_555 1_555
N60 C88 1_555 1_555
N64 C93 1_555 1_555
N64 C94 1_555 1_555
N68 C99 1_555 1_555
N68 C100 1_555 1_555
N72 C105 1_555 1_555
N72 C106 1_555 1_555
N76 C111 1_555 1_555
N76 C112 1_555 1_555
N80 C117 1_555 1_555
N80 C118 1_555 1_555
N82 C125 1_555 1_555
N83 C126 1_555 1_555
N84 C123 1_555 1_555
N84 C124 1_555 1_555
C86 C88 1_555 1_555
C92 C94 1_555 1_555
C98 C100 1_555 1_555
C104 C106 1_555 1_555
C110 C112 1_555 1_555
C116 C118 1_555 1_555
C122 C124 1_555 1_555
C130 N85 1_555 1_555
C131 N85 1_555 1_555
C135 C136 1_555 1_555
C138 C140 1_555 1_555
C139 C140 1_555 1_555
C144 N86 1_555 1_555
C145 N86 1_555 1_555
C149 C150 1_555 1_555
C152 C154 1_555 1_555
C153 C154 1_555 1_555

#END
