
#######################################################################
#
#                 Cambridge Crystallographic Data Centre
#                                CCDC 
#
#######################################################################
#
# If this CIF has been generated from an entry in the Cambridge 
# Structural Database, then it will include bibliographic, chemical, 
# crystal, experimental, refinement or atomic coordinate data resulting 
# from the CCDC's data processing and validation procedures.
#
#######################################################################

data_GATCAI
_chemical_formula_moiety         'C18 H14 O2'
_chemical_name_systematic        5-(diphenylmethyl)-2-furaldehyde
_symmetry_cell_setting           monoclinic
_symmetry_space_group_name_H-M   'P 21/n'
_symmetry_Int_Tables_number      14
_space_group_name_Hall           '-P 2yn'
loop_
_symmetry_equiv_pos_site_id
_symmetry_equiv_pos_as_xyz
1 x,y,z
2 1/2-x,1/2+y,1/2-z
3 -x,-y,-z
4 1/2+x,1/2-y,1/2+z
_cell_length_a                   10.2340(6)
_cell_length_b                   9.9025(5)
_cell_length_c                   13.6926(8)
_cell_angle_alpha                90
_cell_angle_beta                 95.683(6)
_cell_angle_gamma                90
_cell_volume                     1380.82
_cell_formula_units_Z            4
loop_
_atom_site_label
_atom_site_type_symbol
_atom_site_fract_x
_atom_site_fract_y
_atom_site_fract_z
O1 O 0.40755(9) 0.59388(9) 0.24148(6)
C1 C 0.58030(12) 0.75533(13) 0.22071(9)
H1 H 0.5117 0.8229 0.2043
C2 C 0.62672(12) 0.77345(13) 0.32879(9)
C3 C 0.60893(13) 0.89805(13) 0.37251(10)
H2 H 0.5662 0.9671 0.3360
C4 C 0.68716(13) 0.78038(13) 0.15281(9)
C5 C 0.51938(12) 0.62017(13) 0.19862(9)
C6 C 0.65427(14) 0.92040(14) 0.47009(10)
H3 H 0.6417 1.0038 0.4989
O2 O 0.17230(11) 0.47502(13) 0.28841(8)
C7 C 0.36600(14) 0.46796(14) 0.20936(10)
C8 C 0.81889(14) 0.75710(14) 0.18118(10)
H4 H 0.8449 0.7280 0.2447
C9 C 0.71813(14) 0.81788(15) 0.52404(10)
H5 H 0.7497 0.8327 0.5892
C10 C 0.68905(13) 0.67089(14) 0.38427(10)
H6 H 0.6999 0.5867 0.3562
C11 C 0.65116(15) 0.82472(14) 0.05790(10)
H7 H 0.5633 0.8422 0.0379
C12 C 0.24470(15) 0.41589(17) 0.23795(10)
H8 H 0.2196 0.3300 0.2161
C13 C 0.73528(14) 0.69339(15) 0.48160(10)
H9 H 0.7779 0.6245 0.5183
C14 C 0.54847(14) 0.51519(14) 0.14097(10)
H10 H 0.6197 0.5089 0.1040
C15 C 0.44981(14) 0.41741(14) 0.14806(11)
H11 H 0.4435 0.3341 0.1166
C16 C 0.74483(17) 0.84324(15) -0.00749(10)
H12 H 0.7194 0.8721 -0.0712
C17 C 0.87529(16) 0.81902(15) 0.02169(11)
H13 H 0.9380 0.8312 -0.0222
C18 C 0.91244(15) 0.77680(16) 0.11584(11)
H14 H 1.0007 0.7613 0.1359
loop_
_geom_bond_atom_site_label_1
_geom_bond_atom_site_label_2
_geom_bond_site_symmetry_1
_geom_bond_site_symmetry_2
O1 C5 1_555 1_555
C1 H1 1_555 1_555
C2 C1 1_555 1_555
C3 C2 1_555 1_555
H2 C3 1_555 1_555
C4 C1 1_555 1_555
C5 C1 1_555 1_555
C6 C3 1_555 1_555
H3 C6 1_555 1_555
O2 C12 1_555 1_555
C7 O1 1_555 1_555
C8 C4 1_555 1_555
H4 C8 1_555 1_555
C9 C6 1_555 1_555
H5 C9 1_555 1_555
C10 C2 1_555 1_555
H6 C10 1_555 1_555
C11 C4 1_555 1_555
H7 C11 1_555 1_555
C12 C7 1_555 1_555
H8 C12 1_555 1_555
C13 C9 1_555 1_555
H9 C13 1_555 1_555
C14 C5 1_555 1_555
H10 C14 1_555 1_555
C15 C7 1_555 1_555
H11 C15 1_555 1_555
C16 C11 1_555 1_555
H12 C16 1_555 1_555
C17 C16 1_555 1_555
H13 C17 1_555 1_555
C18 C8 1_555 1_555
H14 C18 1_555 1_555
C10 C13 1_555 1_555
C14 C15 1_555 1_555
C17 C18 1_555 1_555

#END
