
#######################################################################
#
#                 Cambridge Crystallographic Data Centre
#                                CCDC 
#
#######################################################################
#
# If this CIF has been generated from an entry in the Cambridge 
# Structural Database, then it will include bibliographic, chemical, 
# crystal, experimental, refinement or atomic coordinate data resulting 
# from the CCDC's data processing and validation procedures.
#
#######################################################################

data_GATFOY
_chemical_formula_moiety         'C28 H28 N2 O2 S6'
_chemical_name_systematic        
2-(4,5-bis(butylsulfanyl)-1,3-dithiol-2-ylidene)-4,7-diphenoxy[1,3]dithiolo[4,5-d]pyridazine
_symmetry_cell_setting           triclinic
_symmetry_space_group_name_H-M   'P -1'
_symmetry_Int_Tables_number      2
_space_group_name_Hall           '-P 1'
loop_
_symmetry_equiv_pos_site_id
_symmetry_equiv_pos_as_xyz
1 x,y,z
2 -x,-y,-z
_cell_length_a                   9.1686(18)
_cell_length_b                   10.852(2)
_cell_length_c                   15.292(3)
_cell_angle_alpha                96.86(3)
_cell_angle_beta                 94.78(3)
_cell_angle_gamma                91.28(3)
_cell_volume                     1504.57
_cell_formula_units_Z            2
loop_
_atom_site_label
_atom_site_type_symbol
_atom_site_fract_x
_atom_site_fract_y
_atom_site_fract_z
C1 C 0.4166(3) 0.8792(2) 0.38178(18)
C2 C 0.3430(3) 0.9559(2) 0.4399(2)
H1 H 0.3151 0.9287 0.4917
C3 C 0.3108(4) 1.0740(3) 0.4203(3)
H2 H 0.2611 1.1265 0.4594
C4 C 0.3513(4) 1.1146(3) 0.3441(3)
H3 H 0.3289 1.1939 0.3309
C5 C 0.4252(4) 1.0365(3) 0.2878(2)
H4 H 0.4534 1.0638 0.2362
C6 C 0.4592(4) 0.9178(3) 0.3056(2)
H5 H 0.5097 0.8656 0.2667
C7 C 0.4723(3) 0.6621(2) 0.35625(17)
C8 C 0.5657(2) 0.5757(2) 0.39140(15)
C9 C 0.5803(3) 0.4649(2) 0.34038(15)
C10 C 0.4989(3) 0.4481(2) 0.25774(16)
C11 C 0.4410(3) 0.3144(3) 0.12324(18)
C12 C 0.3138(6) 0.2492(5) 0.1089(3)
H6 H 0.2661 0.2259 0.1559
C13 C 0.2537(7) 0.2167(6) 0.0212(4)
H7 H 0.1691 0.1665 0.0101
C14 C 0.3169(7) 0.2573(5) -0.0465(3)
H8 H 0.2743 0.2376 -0.1040
C15 C 0.4408(6) 0.3258(7) -0.0311(3)
H9 H 0.4841 0.3552 -0.0778
C16 C 0.5059(5) 0.3537(6) 0.0552(2)
H10 H 0.5940 0.3994 0.0656
C17 C 0.7507(3) 0.4568(2) 0.48177(15)
C18 C 0.8516(3) 0.4258(2) 0.54310(15)
C19 C 1.0426(3) 0.3106(3) 0.63679(17)
C20 C 1.0245(3) 0.4190(3) 0.68658(16)
C21 C 1.0487(5) 0.0594(3) 0.6490(3)
H11 H 0.9577 0.0775 0.6753
H12 H 1.0254 0.0358 0.5861
C22 C 1.1161(7) -0.0462(4) 0.6878(4)
H13 H 1.0707 -0.1220 0.6561
H14 H 1.2186 -0.0459 0.6765
C23 C 1.1090(13) -0.0519(9) 0.7746(5)
H15 H 1.0127 -0.0232 0.7871
H16 H 1.1782 0.0118 0.8041
C24 C 1.1303(13) -0.1552(7) 0.8213(5)
H17 H 1.0710 -0.2244 0.7921
H18 H 1.1028 -0.1352 0.8805
H19 H 1.2316 -0.1762 0.8233
C25 C 0.9727(5) 0.4456(4) 0.8623(2)
H20 H 1.0079 0.4770 0.9226
H21 H 0.8892 0.4935 0.8454
C26 C 0.9224(4) 0.3066(4) 0.8586(2)
H22 H 0.8721 0.2793 0.8010
H23 H 1.0080 0.2566 0.8657
C27 C 0.8258(6) 0.2864(5) 0.9266(3)
H24 H 0.7379 0.3333 0.9182
H25 H 0.8744 0.3162 0.9843
C28 C 0.7845(7) 0.1509(5) 0.9232(3)
H26 H 0.7497 0.1183 0.8638
H27 H 0.7087 0.1412 0.9618
H28 H 0.8686 0.1065 0.9419
N1 N 0.4007(3) 0.6418(2) 0.27793(15)
N2 N 0.4147(3) 0.5315(2) 0.22722(14)
O1 O 0.4569(2) 0.76750(17) 0.41186(12)
O2 O 0.5109(2) 0.33544(18) 0.20887(12)
S1 S 0.66408(7) 0.60083(6) 0.49432(4)
S2 S 0.69581(7) 0.35805(6) 0.38317(4)
S3 S 0.94588(8) 0.28682(6) 0.53193(4)
S4 S 0.90749(8) 0.52465(6) 0.64061(4)
S5 S 1.16499(8) 0.19797(8) 0.66526(6)
S6 S 1.11635(10) 0.46808(9) 0.79032(5)
loop_
_geom_bond_atom_site_label_1
_geom_bond_atom_site_label_2
_geom_bond_site_symmetry_1
_geom_bond_site_symmetry_2
C1 C2 1_555 1_555
C2 H1 1_555 1_555
C3 C2 1_555 1_555
H2 C3 1_555 1_555
C4 C3 1_555 1_555
H3 C4 1_555 1_555
C5 C4 1_555 1_555
H4 C5 1_555 1_555
C6 C1 1_555 1_555
H5 C6 1_555 1_555
C7 C8 1_555 1_555
C8 C9 1_555 1_555
C9 C10 1_555 1_555
C10 N2 1_555 1_555
C11 C12 1_555 1_555
C12 H6 1_555 1_555
C13 C12 1_555 1_555
H7 C13 1_555 1_555
C14 C13 1_555 1_555
H8 C14 1_555 1_555
C15 C14 1_555 1_555
H9 C15 1_555 1_555
C16 C11 1_555 1_555
H10 C16 1_555 1_555
C17 C18 1_555 1_555
C18 S3 1_555 1_555
C19 C20 1_555 1_555
C20 S4 1_555 1_555
C21 H11 1_555 1_555
H12 C21 1_555 1_555
C22 C21 1_555 1_555
H13 C22 1_555 1_555
H14 C22 1_555 1_555
C23 C22 1_555 1_555
H15 C23 1_555 1_555
H16 C23 1_555 1_555
C24 C23 1_555 1_555
H17 C24 1_555 1_555
H18 C24 1_555 1_555
H19 C24 1_555 1_555
C25 H20 1_555 1_555
H21 C25 1_555 1_555
C26 C25 1_555 1_555
H22 C26 1_555 1_555
H23 C26 1_555 1_555
C27 C26 1_555 1_555
H24 C27 1_555 1_555
H25 C27 1_555 1_555
C28 C27 1_555 1_555
H26 C28 1_555 1_555
H27 C28 1_555 1_555
H28 C28 1_555 1_555
N1 C7 1_555 1_555
N2 N1 1_555 1_555
O1 C1 1_555 1_555
O2 C10 1_555 1_555
S1 C8 1_555 1_555
S2 C9 1_555 1_555
S3 C19 1_555 1_555
S4 C18 1_555 1_555
S5 C19 1_555 1_555
S6 C20 1_555 1_555
C5 C6 1_555 1_555
C7 O1 1_555 1_555
C11 O2 1_555 1_555
C15 C16 1_555 1_555
C17 S1 1_555 1_555
C17 S2 1_555 1_555
C21 S5 1_555 1_555
C25 S6 1_555 1_555

#END
