
#######################################################################
#
#                 Cambridge Crystallographic Data Centre
#                                CCDC 
#
#######################################################################
#
# If this CIF has been generated from an entry in the Cambridge 
# Structural Database, then it will include bibliographic, chemical, 
# crystal, experimental, refinement or atomic coordinate data resulting 
# from the CCDC's data processing and validation procedures.
#
#######################################################################

data_GATGEP
_chemical_formula_moiety         'C18 H24 N2 O2 S6'
_chemical_name_systematic        
2-(4,5-bis(butylsulfanyl)-1,3-dithiol-2-ylidene)-4,7-dimethoxy[1,3]dithiolo[4,5-d]pyridazine
_symmetry_cell_setting           orthorhombic
_symmetry_space_group_name_H-M   'P b c n'
_symmetry_Int_Tables_number      60
_space_group_name_Hall           '-P 2n 2ab'
loop_
_symmetry_equiv_pos_site_id
_symmetry_equiv_pos_as_xyz
1 x,y,z
2 1/2-x,1/2-y,1/2+z
3 -x,y,1/2-z
4 1/2+x,1/2-y,-z
5 -x,-y,-z
6 1/2+x,1/2+y,1/2-z
7 x,-y,1/2+z
8 1/2-x,1/2+y,z
_cell_length_a                   19.376(3)
_cell_length_b                   10.578(6)
_cell_length_c                   23.124(6)
_cell_angle_alpha                90
_cell_angle_beta                 90
_cell_angle_gamma                90
_cell_volume                     4739.48
_cell_formula_units_Z            8
loop_
_atom_site_label
_atom_site_type_symbol
_atom_site_fract_x
_atom_site_fract_y
_atom_site_fract_z
C1 C 0.01545(16) 0.3632(3) -0.06920(12)
C2 C 0.02164(15) 0.2729(2) -0.02438(12)
C3 C -0.02856(15) 0.2707(2) 0.01579(12)
C4 C -0.08343(16) 0.3572(3) 0.00916(13)
C5 C 0.05403(15) 0.0936(3) 0.04521(11)
C6 C 0.08469(14) -0.0030(3) 0.07222(11)
C7 C 0.17282(16) -0.1682(3) 0.11090(13)
C8 C 0.12263(17) -0.1650(3) 0.15019(12)
C9 C 0.0597(2) 0.4525(4) -0.15520(15)
H1 H 0.0178 0.4357 -0.1760
H2 H 0.0983 0.4445 -0.1809
H3 H 0.0583 0.5368 -0.1398
C10 C -0.1931(2) 0.4291(4) 0.04000(18)
H4 H -0.1789 0.5152 0.0344
H5 H -0.2231 0.4242 0.0730
H6 H -0.2172 0.4000 0.0063
C11 C 0.1071(2) -0.1411(4) 0.26821(14)
H7 H 0.0676 -0.0894 0.2580
H8 H 0.0963 -0.1839 0.3042
C12 C 0.1686(2) -0.0553(4) 0.27817(16)
H9 H 0.2092 -0.1073 0.2841
H10 H 0.1762 -0.0054 0.2435
C13 C 0.1614(3) 0.0318(5) 0.32801(18)
H11 H 0.1198 0.0814 0.3227
H12 H 0.1553 -0.0184 0.3627
C14 C 0.2198(3) 0.1192(6) 0.3373(2)
H13 H 0.2623 0.0726 0.3364
H14 H 0.2148 0.1597 0.3742
H15 H 0.2201 0.1819 0.3074
C15 C 0.3152(2) -0.1584(4) 0.10576(17)
H16 H 0.3562 -0.2048 0.0946
H17 H 0.3048 -0.0991 0.0749
C16 C 0.3305(2) -0.0878(4) 0.1571(2)
H18 H 0.2898 -0.0395 0.1675
H19 H 0.3667 -0.0277 0.1480
C17 C 0.3525(4) -0.1616(9) 0.2086(3)
H20 H 0.3404 -0.1102 0.2419
H21 H 0.3224 -0.2349 0.2099
C18 C 0.4118(4) -0.2025(9) 0.2184(4)
H22 H 0.4247 -0.2611 0.1887
H23 H 0.4125 -0.2444 0.2552
H24 H 0.4438 -0.1332 0.2189
N1 N -0.08695(16) 0.4382(2) -0.03314(12)
N2 N -0.03588(15) 0.4413(2) -0.07330(12)
O1 O -0.13324(12) 0.3512(2) 0.04964(10)
O2 O 0.06669(12) 0.3636(2) -0.10864(9)
S1 S -0.02399(4) 0.15864(8) 0.07028(3)
S2 S 0.08768(4) 0.16212(7) -0.01866(3)
S3 S 0.16023(4) -0.07710(7) 0.04800(3)
S4 S 0.05013(4) -0.07195(8) 0.13493(3)
S5 S 0.11927(6) -0.25756(8) 0.21297(4)
S6 S 0.24465(5) -0.26850(8) 0.11136(5)
loop_
_geom_bond_atom_site_label_1
_geom_bond_atom_site_label_2
_geom_bond_site_symmetry_1
_geom_bond_site_symmetry_2
C1 C2 1_555 1_555
C2 C3 1_555 1_555
C3 C4 1_555 1_555
C4 N1 1_555 1_555
C5 C6 1_555 1_555
C6 S3 1_555 1_555
C7 C8 1_555 1_555
C8 S4 1_555 1_555
C9 H1 1_555 1_555
H2 C9 1_555 1_555
H3 C9 1_555 1_555
C10 H4 1_555 1_555
H5 C10 1_555 1_555
H6 C10 1_555 1_555
C11 H7 1_555 1_555
H8 C11 1_555 1_555
C12 C11 1_555 1_555
H9 C12 1_555 1_555
H10 C12 1_555 1_555
C13 C12 1_555 1_555
H11 C13 1_555 1_555
H12 C13 1_555 1_555
C14 C13 1_555 1_555
H13 C14 1_555 1_555
H14 C14 1_555 1_555
H15 C14 1_555 1_555
C15 H16 1_555 1_555
H17 C15 1_555 1_555
C16 C15 1_555 1_555
H18 C16 1_555 1_555
H19 C16 1_555 1_555
C17 C16 1_555 1_555
H20 C17 1_555 1_555
H21 C17 1_555 1_555
C18 C17 1_555 1_555
H22 C18 1_555 1_555
H23 C18 1_555 1_555
H24 C18 1_555 1_555
N1 N2 1_555 1_555
N2 C1 1_555 1_555
O1 C4 1_555 1_555
O2 C1 1_555 1_555
S1 C3 1_555 1_555
S2 C2 1_555 1_555
S3 C7 1_555 1_555
S4 C6 1_555 1_555
S5 C8 1_555 1_555
S6 C7 1_555 1_555
C5 S1 1_555 1_555
C5 S2 1_555 1_555
C9 O2 1_555 1_555
C10 O1 1_555 1_555
C11 S5 1_555 1_555
C15 S6 1_555 1_555

#END
