
#######################################################################
#
#                 Cambridge Crystallographic Data Centre
#                                CCDC 
#
#######################################################################
#
# If this CIF has been generated from an entry in the Cambridge 
# Structural Database, then it will include bibliographic, chemical, 
# crystal, experimental, refinement or atomic coordinate data resulting 
# from the CCDC's data processing and validation procedures.
#
#######################################################################

data_GATGAL
_chemical_formula_moiety         'C16 H20 N2 O2 S6,0.5(C2 H6 O1)'
_chemical_name_systematic        
'2-(4,5-bis(butylsulfanyl)-1,3-dithiol-2-ylidene)-5,6-dihydro[1,3]dithiolo[4,5-d]pyridazine-4,7-dione ethanol solvate'
_symmetry_cell_setting           triclinic
_symmetry_space_group_name_H-M   'P -1'
_symmetry_Int_Tables_number      2
_space_group_name_Hall           '-P 1'
loop_
_symmetry_equiv_pos_site_id
_symmetry_equiv_pos_as_xyz
1 x,y,z
2 -x,-y,-z
_cell_length_a                   10.383(2)
_cell_length_b                   12.607(3)
_cell_length_c                   18.296(4)
_cell_angle_alpha                93.64(3)
_cell_angle_beta                 101.43(3)
_cell_angle_gamma                110.38(3)
_cell_volume                     2177.48
_cell_formula_units_Z            4
loop_
_atom_site_label
_atom_site_type_symbol
_atom_site_fract_x
_atom_site_fract_y
_atom_site_fract_z
C1 C 0.45080(10) 0.49410(9) 0.63129(6)
C2 C 0.38351(10) 0.41653(8) 0.67725(6)
C3 C 0.25712(10) 0.40321(8) 0.68214(6)
C4 C 0.19034(10) 0.46968(9) 0.64222(6)
C5 C 0.32471(10) 0.27783(9) 0.77277(6)
C6 C 0.33681(11) 0.22178(9) 0.83180(6)
C7 C 0.43740(13) 0.16888(11) 0.95819(7)
C8 C 0.31220(13) 0.15428(11) 0.96044(7)
C9 C 0.6874(2) 0.29388(18) 1.04977(11)
H1 H 0.7786 0.2886 1.0692
H2 H 0.6907 0.3236 1.0023
C10 C 0.6719(4) 0.3787(3) 1.1022(3)
H3 H 0.7273 0.3717 1.1496
H4 H 0.7296 0.4499 1.0885
C11 C 0.5696(5) 0.4082(3) 1.1249(2)
H5 H 0.6000 0.4370 1.1784
H6 H 0.4833 0.3413 1.1165
C12 C 0.5418(6) 0.4999(3) 1.0807(3)
H7 H 0.6065 0.5217 1.0485
H8 H 0.5550 0.5655 1.1152
H9 H 0.4466 0.4701 1.0506
C13 C 0.1841(2) -0.03331(15) 1.02500(10)
H10 H 0.0929 -0.0670 0.9895
H11 H 0.2517 -0.0555 1.0044
C14 C 0.1739(2) -0.07698(16) 1.09704(11)
H12 H 0.2664 -0.0421 1.1313
H13 H 0.1100 -0.0499 1.1177
C15 C 0.1279(2) -0.19789(19) 1.09785(13)
H14 H 0.1837 -0.2275 1.0717
H15 H 0.0303 -0.2327 1.0697
C16 C 0.1380(3) -0.2334(2) 1.17222(14)
H16 H 0.2171 -0.2573 1.1843
H17 H 0.0527 -0.2960 1.1725
H18 H 0.1508 -0.1705 1.2089
N1 N 0.26496(8) 0.54146(7) 0.60335(5)
H42 H 0.2254 0.5837 0.5805
N2 N 0.39164(8) 0.55579(7) 0.59552(5)
H43 H 0.4330 0.6035 0.5682
O1 O 0.07247(7) 0.46217(7) 0.64278(5)
O2 O 0.57146(7) 0.50333(6) 0.62651(4)
S1 S 0.17876(3) 0.30387(2) 0.735815(16)
S2 S 0.45688(3) 0.33209(2) 0.727184(16)
S3 S 0.48313(3) 0.19910(3) 0.872274(18)
S4 S 0.20701(3) 0.16616(3) 0.878025(18)
S5 S 0.55863(4) 0.15252(4) 1.02986(2)
S6 S 0.23908(4) 0.12098(4) 1.03708(2)
C17 C 1.04432(9) -0.32028(8) 0.52707(6)
C18 C 0.98299(9) -0.24535(8) 0.49518(6)
C19 C 0.86121(9) -0.25195(8) 0.50602(6)
C20 C 0.79384(9) -0.33474(8) 0.54821(6)
C21 C 0.92614(10) -0.09597(8) 0.42227(6)
C22 C 0.92097(10) -0.02321(9) 0.37255(6)
C23 C 0.95460(14) 0.08957(10) 0.26031(7)
C24 C 0.83643(13) 0.08460(10) 0.27119(7)
C25 C 0.57750(17) 0.09406(15) 0.23767(10)
H19 H 0.5028 0.0859 0.1939
H20 H 0.5609 0.0190 0.2528
C26 C 0.5681(2) 0.17055(16) 0.29970(12)
H21 H 0.5808 0.2450 0.2842
H22 H 0.6437 0.1806 0.3434
C27 C 0.4294(2) 0.12414(19) 0.32098(15)
H23 H 0.4192 0.1840 0.3527
H24 H 0.3538 0.1023 0.2757
C28 C 0.4141(2) 0.0238(2) 0.36150(15)
H25 H 0.4038 -0.0410 0.3271
H26 H 0.3320 0.0068 0.3820
H27 H 0.4965 0.0407 0.4016
C29 C 1.1446(2) 0.28557(18) 0.23325(11)
H28 H 1.0994 0.3142 0.2672
H29 H 1.2269 0.2768 0.2639
C30 C 1.1885(4) 0.3637(3) 0.1902(2)
H30 H 1.2518 0.3414 0.1658
H31 H 1.2467 0.4337 0.2242
C31 C 1.0984(4) 0.3953(3) 0.1321(2)
H32 H 1.0297 0.3261 0.1006
H33 H 1.0469 0.4329 0.1557
C32 C 1.1688(6) 0.4667(5) 0.0865(3)
H34 H 1.2207 0.5418 0.1145
H35 H 1.1015 0.4710 0.0436
H36 H 1.2331 0.4369 0.0697
N3 N 0.84797(8) -0.40447(7) 0.57731(5)
H44 H 0.8052 -0.4548 0.6027
N4 N 0.97104(8) -0.39424(7) 0.56597(5)
H45 H 1.0087 -0.4398 0.5856
O3 O 0.67653(6) -0.33841(6) 0.55704(5)
O4 O 1.15796(6) -0.31832(6) 0.52070(4)
S7 S 0.79558(2) -0.15484(2) 0.468394(16)
S8 S 1.06319(2) -0.14054(2) 0.445304(16)
S9 S 1.04710(3) 0.03208(3) 0.324053(18)
S10 S 0.78567(3) 0.02170(3) 0.348362(18)
S11 S 0.73531(5) 0.13994(4) 0.21230(3)
S12 S 1.02352(5) 0.14578(3) 0.186569(19)
C33 C 0.42593(15) 0.74804(15) 0.45548(9)
H37 H 0.4895 0.7767 0.4235
H38 H 0.4744 0.7272 0.4992
H39 H 0.3928 0.8062 0.4708
C34 C 0.31112(12) 0.65219(9) 0.41605(6)
H40 H 0.2453 0.6271 0.4480
H41 H 0.3448 0.5911 0.4064
O5 O 0.23505(14) 0.66889(15) 0.34484(10)
H46 H 0.2759 0.6622 0.3118
loop_
_geom_bond_atom_site_label_1
_geom_bond_atom_site_label_2
_geom_bond_site_symmetry_1
_geom_bond_site_symmetry_2
C1 C2 1_555 1_555
C2 C3 1_555 1_555
C3 C4 1_555 1_555
C4 N1 1_555 1_555
C5 C6 1_555 1_555
C6 S3 1_555 1_555
C7 C8 1_555 1_555
C8 S4 1_555 1_555
C9 H1 1_555 1_555
H2 C9 1_555 1_555
C10 C9 1_555 1_555
H3 C10 1_555 1_555
H4 C10 1_555 1_555
C11 C10 1_555 1_555
H5 C11 1_555 1_555
H6 C11 1_555 1_555
C12 C11 1_555 1_555
H7 C12 1_555 1_555
H8 C12 1_555 1_555
H9 C12 1_555 1_555
C13 H10 1_555 1_555
H11 C13 1_555 1_555
C14 C13 1_555 1_555
H12 C14 1_555 1_555
H13 C14 1_555 1_555
C15 C14 1_555 1_555
H14 C15 1_555 1_555
H15 C15 1_555 1_555
C16 C15 1_555 1_555
H16 C16 1_555 1_555
H17 C16 1_555 1_555
H18 C16 1_555 1_555
C17 C18 1_555 1_555
C18 C19 1_555 1_555
C19 C20 1_555 1_555
C20 N3 1_555 1_555
C21 C22 1_555 1_555
C22 S9 1_555 1_555
C23 C24 1_555 1_555
C24 S10 1_555 1_555
C25 H19 1_555 1_555
H20 C25 1_555 1_555
C26 C25 1_555 1_555
H21 C26 1_555 1_555
H22 C26 1_555 1_555
C27 C26 1_555 1_555
H23 C27 1_555 1_555
H24 C27 1_555 1_555
C28 C27 1_555 1_555
H25 C28 1_555 1_555
H26 C28 1_555 1_555
H27 C28 1_555 1_555
C29 H28 1_555 1_555
H29 C29 1_555 1_555
C30 C29 1_555 1_555
H30 C30 1_555 1_555
H31 C30 1_555 1_555
C31 C30 1_555 1_555
H32 C31 1_555 1_555
H33 C31 1_555 1_555
C32 C31 1_555 1_555
H34 C32 1_555 1_555
H35 C32 1_555 1_555
H36 C32 1_555 1_555
C33 H37 1_555 1_555
H38 C33 1_555 1_555
H39 C33 1_555 1_555
C34 C33 1_555 1_555
H40 C34 1_555 1_555
H41 C34 1_555 1_555
N1 H42 1_555 1_555
N2 C1 1_555 1_555
H43 N2 1_555 1_555
N3 H44 1_555 1_555
N4 C17 1_555 1_555
H45 N4 1_555 1_555
O1 C4 1_555 1_555
O2 C1 1_555 1_555
O3 C20 1_555 1_555
O4 C17 1_555 1_555
O5 C34 1_555 1_555
H46 O5 1_555 1_555
S1 C3 1_555 1_555
S2 C2 1_555 1_555
S3 C7 1_555 1_555
S4 C6 1_555 1_555
S5 C7 1_555 1_555
S6 C8 1_555 1_555
S7 C19 1_555 1_555
S8 C18 1_555 1_555
S9 C23 1_555 1_555
S10 C22 1_555 1_555
S11 C24 1_555 1_555
S12 C23 1_555 1_555
C5 S1 1_555 1_555
C5 S2 1_555 1_555
C9 S5 1_555 1_555
C13 S6 1_555 1_555
C21 S7 1_555 1_555
C21 S8 1_555 1_555
C25 S11 1_555 1_555
C29 S12 1_555 1_555
N1 N2 1_555 1_555
N3 N4 1_555 1_555

#END
