
#######################################################################
#
#                 Cambridge Crystallographic Data Centre
#                                CCDC 
#
#######################################################################
#
# If this CIF has been generated from an entry in the Cambridge 
# Structural Database, then it will include bibliographic, chemical, 
# crystal, experimental, refinement or atomic coordinate data resulting 
# from the CCDC's data processing and validation procedures.
#
#######################################################################

data_GATLUL
_chemical_formula_moiety         'C17 H22 N5 O3 1+,Cl1 O4 1-'
_chemical_name_systematic        
'4-(4-(acetyl(phenyl)amino)-6-methoxy-1,3,5-triazin-2-yl)-4-methylmorpholin-4-ium perchlorate'
_symmetry_cell_setting           trigonal
_symmetry_space_group_name_H-M   'P 31'
_symmetry_Int_Tables_number      144
_space_group_name_Hall           'P 31'
loop_
_symmetry_equiv_pos_site_id
_symmetry_equiv_pos_as_xyz
1 x,y,z
2 -y,x-y,1/3+z
3 -x+y,-x,2/3+z
_cell_length_a                   10.1430(3)
_cell_length_b                   10.1430(3)
_cell_length_c                   17.5220(6)
_cell_angle_alpha                90
_cell_angle_beta                 90
_cell_angle_gamma                120
_cell_volume                     1561.16
_exptl_crystal_colour            colorless
_exptl_crystal_description       block
_cell_formula_units_Z            3
loop_
_atom_site_label
_atom_site_type_symbol
_atom_site_fract_x
_atom_site_fract_y
_atom_site_fract_z
Cl1 Cl 0.72896(8) 0.04191(7) 0.50010(4)
O1 O 0.7226(5) -0.0943(3) 0.4750(2)
O2 O 0.8334(4) 0.1069(4) 0.56364(18)
O3 O 0.5809(3) 0.0099(3) 0.52585(17)
O4 O 0.7796(3) 0.1506(3) 0.43959(15)
O5 O 0.7092(2) -0.1384(2) 0.25147(13)
O6 O 1.3045(3) 0.1892(3) 0.45939(15)
O7 O 0.7301(3) 0.4645(3) 0.34556(15)
N1 N 0.7845(3) 0.1084(3) 0.24131(14)
N2 N 0.9276(3) 0.0267(3) 0.31668(13)
N3 N 1.0041(3) 0.2884(2) 0.30844(13)
N4 N 1.1370(3) 0.2156(3) 0.38654(13)
N5 N 0.8721(3) 0.3737(2) 0.23099(13)
C1 C 0.8871(3) 0.2451(3) 0.26355(14)
C2 C 0.8117(3) 0.0019(3) 0.27099(16)
C3 C 1.0188(3) 0.1715(3) 0.33508(15)
C4 C 0.7264(4) -0.2614(3) 0.28386(19)
C5 C 1.1983(4) 0.1283(3) 0.41551(18)
C6 C 1.1310(5) -0.0355(4) 0.3924(2)
C7 C 1.2062(3) 0.3735(3) 0.41294(17)
C8 C 1.1532(4) 0.4010(4) 0.48065(19)
C9 C 1.2078(4) 0.5515(4) 0.5031(2)
C10 C 1.3140(4) 0.6710(4) 0.4582(3)
C11 C 1.3671(4) 0.6402(4) 0.3907(2)
C12 C 1.3130(3) 0.4902(3) 0.36798(19)
C13 C 0.9425(4) 0.4019(4) 0.15234(18)
C14 C 0.9599(3) 0.5195(3) 0.27754(18)
C15 C 0.8850(4) 0.5020(4) 0.35447(19)
C16 C 0.7077(3) 0.3352(3) 0.22580(19)
C17 C 0.6457(4) 0.3255(4) 0.3059(2)
H1 H 0.64416 -0.35936 0.26531
H2 H 0.82477 -0.24908 0.26839
H3 H 0.72182 -0.25827 0.33966
H4 H 1.0467 -0.06271 0.35676
H5 H 1.20924 -0.05025 0.36753
H6 H 1.09304 -0.1005 0.43773
H7 H 1.08116 0.319 0.51112
H8 H 1.17245 0.57264 0.54913
H9 H 1.35044 0.77337 0.47356
H10 H 1.43997 0.72171 0.36032
H11 H 1.34903 0.46838 0.32233
H12 H 0.93622 0.48551 0.12789
H13 H 1.04952 0.42909 0.15672
H14 H 0.88749 0.30953 0.12142
H15 H 1.06609 0.54228 0.28487
H16 H 0.96262 0.60558 0.24956
H17 H 0.88911 0.42071 0.38386
H18 H 0.94131 0.59819 0.38349
H19 H 0.64671 0.23671 0.19922
H20 H 0.7007 0.41476 0.19627
H21 H 0.53786 0.29949 0.30273
H22 H 0.64974 0.24342 0.33445
loop_
_geom_bond_atom_site_label_1
_geom_bond_atom_site_label_2
_geom_bond_site_symmetry_1
_geom_bond_site_symmetry_2
Cl1 O1 1_555 1_555
O2 Cl1 1_555 1_555
O3 Cl1 1_555 1_555
O4 Cl1 1_555 1_555
O5 C2 1_555 1_555
O6 C5 1_555 1_555
O7 C15 1_555 1_555
N1 C1 1_555 1_555
N2 C2 1_555 1_555
N3 C1 1_555 1_555
N4 C3 1_555 1_555
N5 C1 1_555 1_555
C2 N1 1_555 1_555
C3 N2 1_555 1_555
C4 O5 1_555 1_555
C5 N4 1_555 1_555
C6 C5 1_555 1_555
C7 N4 1_555 1_555
C8 C7 1_555 1_555
C9 C8 1_555 1_555
C10 C9 1_555 1_555
C11 C10 1_555 1_555
C12 C7 1_555 1_555
C13 N5 1_555 1_555
C14 N5 1_555 1_555
C15 C14 1_555 1_555
C16 N5 1_555 1_555
C17 O7 1_555 1_555
H1 C4 1_555 1_555
H2 C4 1_555 1_555
H3 C4 1_555 1_555
H4 C6 1_555 1_555
H5 C6 1_555 1_555
H6 C6 1_555 1_555
H7 C8 1_555 1_555
H8 C9 1_555 1_555
H9 C10 1_555 1_555
H10 C11 1_555 1_555
H11 C12 1_555 1_555
H12 C13 1_555 1_555
H13 C13 1_555 1_555
H14 C13 1_555 1_555
H15 C14 1_555 1_555
H16 C14 1_555 1_555
H17 C15 1_555 1_555
H18 C15 1_555 1_555
H19 C16 1_555 1_555
H20 C16 1_555 1_555
H21 C17 1_555 1_555
H22 C17 1_555 1_555
N3 C3 1_555 1_555
C11 C12 1_555 1_555
C16 C17 1_555 1_555

#END
