
#######################################################################
#
#                 Cambridge Crystallographic Data Centre
#                                CCDC 
#
#######################################################################
#
# If this CIF has been generated from an entry in the Cambridge 
# Structural Database, then it will include bibliographic, chemical, 
# crystal, experimental, refinement or atomic coordinate data resulting 
# from the CCDC's data processing and validation procedures.
#
#######################################################################

data_GATLET
_chemical_formula_moiety         'C14 H16 O3'
_chemical_name_systematic        
2-Methyl-7,14-dioxatetracyclo[7.6.0.0^5,9^.0^1,12^]pentadeca-3,11-dien-10-one
_symmetry_cell_setting           monoclinic
_symmetry_space_group_name_H-M   'P 21/c'
_symmetry_Int_Tables_number      14
_space_group_name_Hall           '-P 2ybc'
loop_
_symmetry_equiv_pos_site_id
_symmetry_equiv_pos_as_xyz
1 x,y,z
2 -x,1/2+y,1/2-z
3 -x,-y,-z
4 x,1/2-y,1/2+z
_cell_length_a                   8.223(2)
_cell_length_b                   8.552(3)
_cell_length_c                   16.543(3)
_cell_angle_alpha                90
_cell_angle_beta                 91.633(19)
_cell_angle_gamma                90
_cell_volume                     1162.88
_cell_formula_units_Z            4
loop_
_atom_site_label
_atom_site_type_symbol
_atom_site_fract_x
_atom_site_fract_y
_atom_site_fract_z
O1 O 0.0907(5) 0.0251(6) 0.8788(3)
O2 O -0.2787(5) -0.5378(5) 0.8861(3)
O3 O -0.1420(6) 0.0146(6) 0.7247(3)
C1 C -0.4686(8) -0.0413(8) 0.8956(3)
H1 H -0.5778 -0.0216 0.8833
C2 C -0.2591(7) -0.2624(7) 0.8777(3)
C3 C -0.1881(8) -0.0965(9) 0.7648(4)
C4 C -0.2725(7) -0.2358(8) 0.7343(4)
H2 H -0.3006 -0.2551 0.6804
C5 C -0.5584(7) -0.3170(9) 0.9212(4)
H3 H -0.6387 -0.2829 0.9583
H4 H -0.5196 -0.4187 0.9368
H5 H -0.6061 -0.3217 0.8676
C6 C -0.1516(7) -0.1207(7) 0.8571(3)
C7 C -0.4167(7) -0.2017(7) 0.9226(3)
H6 H -0.3833 -0.1908 0.9797
C8 C -0.3027(7) -0.3302(8) 0.7956(4)
C9 C -0.0437(8) 0.1312(8) 0.8871(4)
H7 H -0.0643 0.1888 0.8374
H8 H -0.0221 0.2049 0.9307
C10 C 0.0346(7) -0.1323(8) 0.8721(4)
H9 H 0.0595 -0.1897 0.9215
H10 H 0.0854 -0.1850 0.8275
C11 C -0.1879(8) -0.4076(7) 0.9176(4)
H11 H -0.0738 -0.4182 0.9052
H12 H -0.1971 -0.4016 0.9759
C12 C -0.1873(7) 0.0269(7) 0.9061(4)
H13 H -0.1775 -0.0011 0.9635
C13 C -0.3597(8) 0.0735(9) 0.8891(4)
H14 H -0.3892 0.1752 0.8751
C14 C -0.3317(9) -0.4996(8) 0.8045(5)
H15 H -0.4462 -0.5235 0.7962
H16 H -0.2699 -0.5582 0.7657
loop_
_geom_bond_atom_site_label_1
_geom_bond_atom_site_label_2
_geom_bond_site_symmetry_1
_geom_bond_site_symmetry_2
O1 C9 1_555 1_555
O2 C11 1_555 1_555
O3 C3 1_555 1_555
C1 H1 1_555 1_555
C2 C6 1_555 1_555
C3 C4 1_555 1_555
C4 H2 1_555 1_555
C5 H3 1_555 1_555
H4 C5 1_555 1_555
H5 C5 1_555 1_555
C6 C3 1_555 1_555
C7 C1 1_555 1_555
H6 C7 1_555 1_555
C8 C2 1_555 1_555
C9 H7 1_555 1_555
H8 C9 1_555 1_555
C10 O1 1_555 1_555
H9 C10 1_555 1_555
H10 C10 1_555 1_555
C11 C2 1_555 1_555
H11 C11 1_555 1_555
H12 C11 1_555 1_555
C12 C6 1_555 1_555
H13 C12 1_555 1_555
C13 C1 1_555 1_555
H14 C13 1_555 1_555
C14 O2 1_555 1_555
H15 C14 1_555 1_555
H16 C14 1_555 1_555
C2 C7 1_555 1_555
C4 C8 1_555 1_555
C5 C7 1_555 1_555
C6 C10 1_555 1_555
C8 C14 1_555 1_555
C9 C12 1_555 1_555
C12 C13 1_555 1_555

#END
