
#######################################################################
#
#                 Cambridge Crystallographic Data Centre
#                                CCDC 
#
#######################################################################
#
# If this CIF has been generated from an entry in the Cambridge 
# Structural Database, then it will include bibliographic, chemical, 
# crystal, experimental, refinement or atomic coordinate data resulting 
# from the CCDC's data processing and validation procedures.
#
#######################################################################

data_GATMEW
_chemical_formula_moiety         'C16 H14 Cl2'
_chemical_name_systematic        1-benzyl-5,6-dichloroindane
_symmetry_cell_setting           monoclinic
_symmetry_space_group_name_H-M   'P 21'
_symmetry_Int_Tables_number      4
_space_group_name_Hall           'P 2yb'
loop_
_symmetry_equiv_pos_site_id
_symmetry_equiv_pos_as_xyz
1 x,y,z
2 -x,1/2+y,-z
_cell_length_a                   8.3008(3)
_cell_length_b                   6.2809(2)
_cell_length_c                   13.3548(5)
_cell_angle_alpha                90
_cell_angle_beta                 96.3420(10)
_cell_angle_gamma                90
_cell_volume                     692.011
_exptl_crystal_colour            colorless
_exptl_crystal_description       block
_cell_formula_units_Z            2
loop_
_atom_site_label
_atom_site_type_symbol
_atom_site_fract_x
_atom_site_fract_y
_atom_site_fract_z
Cl1 Cl 0.74982(7) 0.22996(13) 0.30670(5)
Cl2 Cl 0.91263(8) 0.66544(11) 0.37729(5)
C1 C 0.7412(2) 0.3217(4) 0.42827(16)
C2 C 0.8113(2) 0.5151(4) 0.45904(17)
C3 C 0.8036(3) 0.5903(4) 0.55664(17)
H1 H 0.8497 0.7204 0.5769
C4 C 0.7262(2) 0.4678(3) 0.62269(17)
C5 C 0.6578(2) 0.2727(4) 0.59193(17)
C6 C 0.6636(3) 0.1989(4) 0.49517(18)
H2 H 0.6164 0.0694 0.4750
C7 C 0.7002(3) 0.5111(4) 0.73132(17)
H3 H 0.6008 0.5952 0.7318
C8 C 0.6673(3) 0.2865(4) 0.77002(19)
H4 H 0.5976 0.2925 0.8236
H5 H 0.7679 0.2164 0.7951
C9 C 0.5833(3) 0.1684(5) 0.67772(19)
H6 H 0.6067 0.0171 0.6811
H7 H 0.4668 0.1893 0.6714
C10 C 0.8372(3) 0.6278(4) 0.79518(17)
H8 H 0.9367 0.5469 0.7951
H9 H 0.8538 0.7657 0.7652
C11 C 0.8009(3) 0.6589(4) 0.90224(17)
C12 C 0.6876(3) 0.8063(5) 0.9257(2)
H10 H 0.6336 0.8879 0.8744
C13 C 0.6523(4) 0.8356(7) 1.0239(2)
H11 H 0.5760 0.9364 1.0381
C14 C 0.7313(4) 0.7142(8) 1.1004(2)
H12 H 0.7093 0.7336 1.1665
C15 C 0.8415(4) 0.5660(7) 1.0783(2)
H13 H 0.8932 0.4820 1.1295
C16 C 0.8776(3) 0.5391(5) 0.9803(2)
H14 H 0.9546 0.4387 0.9667
loop_
_geom_bond_atom_site_label_1
_geom_bond_atom_site_label_2
_geom_bond_site_symmetry_1
_geom_bond_site_symmetry_2
Cl1 C1 1_555 1_555
Cl2 C2 1_555 1_555
C1 C2 1_555 1_555
C2 C3 1_555 1_555
C3 H1 1_555 1_555
C4 C3 1_555 1_555
C5 C4 1_555 1_555
C6 C1 1_555 1_555
H2 C6 1_555 1_555
C7 C4 1_555 1_555
H3 C7 1_555 1_555
C8 C7 1_555 1_555
H4 C8 1_555 1_555
H5 C8 1_555 1_555
C9 C5 1_555 1_555
H6 C9 1_555 1_555
H7 C9 1_555 1_555
C10 C7 1_555 1_555
H8 C10 1_555 1_555
H9 C10 1_555 1_555
C11 C10 1_555 1_555
C12 C11 1_555 1_555
H10 C12 1_555 1_555
C13 C12 1_555 1_555
H11 C13 1_555 1_555
C14 C13 1_555 1_555
H12 C14 1_555 1_555
C15 C14 1_555 1_555
H13 C15 1_555 1_555
C16 C11 1_555 1_555
H14 C16 1_555 1_555
C5 C6 1_555 1_555
C8 C9 1_555 1_555
C15 C16 1_555 1_555

#END
