
#######################################################################
#
#                 Cambridge Crystallographic Data Centre
#                                CCDC 
#
#######################################################################
#
# If this CIF has been generated from an entry in the Cambridge 
# Structural Database, then it will include bibliographic, chemical, 
# crystal, experimental, refinement or atomic coordinate data resulting 
# from the CCDC's data processing and validation procedures.
#
#######################################################################

data_GATSEC
_chemical_name_common            
'cyclo[2](2,6-bis(1H-imidazolium-1-yl)pyridine)[2](1,4-dimethylenebenzene) tetrakis(3-aminobenzenesulfonate) hydrate'
_chemical_formula_moiety         
'C38 H34 N10 4+,4(C6 H6 N1 O3 S1 1-),8.5(H2 O1)'
_chemical_name_systematic        
'6,12,25,31,42,47-hexaaza-3,15,22,34-tetraazonianonacyclo[34.2.2.2^17,20^.1^3,6^.1^7,11^.1^12,15^.1^22,25^.1^26,30^.1^31,34^]octatetraconta-1(38),3(48),4,7(47),8,10,13,15(46),17,19,22(43),23,26(42),27,29,32,34(41),36,39,44-icosaene tetrakis(3-aminobenzenesulfonate) hydrate'
_symmetry_cell_setting           triclinic
_symmetry_space_group_name_H-M   'P -1'
_symmetry_Int_Tables_number      2
_space_group_name_Hall           '-P 1'
loop_
_symmetry_equiv_pos_site_id
_symmetry_equiv_pos_as_xyz
1 x,y,z
2 -x,-y,-z
_cell_length_a                   14.779(8)
_cell_length_b                   15.437(8)
_cell_length_c                   17.690(9)
_cell_angle_alpha                92.382(7)
_cell_angle_beta                 109.532(6)
_cell_angle_gamma                112.4141(6)
_cell_volume                     3449.44
_exptl_crystal_colour            'light red'
_exptl_crystal_description       block
_cell_formula_units_Z            2
loop_
_atom_site_label
_atom_site_type_symbol
_atom_site_fract_x
_atom_site_fract_y
_atom_site_fract_z
S1 S 1.53049(10) 0.70540(8) 0.44831(9)
N1 N 1.3173(4) 0.3492(3) 0.3180(3)
H1 H 1.2657 0.3023 0.2811
H2 H 1.3623 0.3387 0.3576
C1 C 1.4233(3) 0.6107(3) 0.3694(3)
C2 C 1.4121(3) 0.5182(3) 0.3738(3)
H3 H 1.4605 0.5068 0.4168
C3 C 1.3280(4) 0.4414(3) 0.3138(3)
C4 C 1.2565(4) 0.4606(4) 0.2506(3)
H4 H 1.1999 0.4106 0.2105
C5 C 1.2690(4) 0.5526(4) 0.2470(3)
H5 H 1.2203 0.5638 0.2041
C6 C 1.3509(4) 0.6287(4) 0.3047(3)
H6 H 1.3583 0.6907 0.3010
O1 O 1.4940(3) 0.7783(3) 0.4558(3)
O2 O 1.6218(3) 0.7287(3) 0.4295(3)
O3 O 1.5471(4) 0.6662(3) 0.5252(2)
S2 S 0.68729(10) 0.24423(10) 0.30322(7)
N2 N 0.9138(4) 0.1035(3) 0.4975(3)
H7 H 0.9690 0.1083 0.5378
H8 H 0.8656 0.0480 0.4708
C7 C 0.8021(3) 0.2585(3) 0.3882(2)
C8 C 0.8123(3) 0.1777(3) 0.4115(2)
H9 H 0.7585 0.1179 0.3842
C9 C 0.9026(3) 0.1846(3) 0.4757(2)
C10 C 0.9794(3) 0.2757(3) 0.5179(3)
H10 H 1.0390 0.2824 0.5622
C11 C 0.9674(4) 0.3559(3) 0.4940(3)
H11 H 1.0195 0.4161 0.5223
C12 C 0.8790(4) 0.3484(3) 0.4286(3)
H12 H 0.8718 0.4028 0.4123
O4 O 0.6980(4) 0.3363(4) 0.2880(4)
O5 O 0.6000(3) 0.2028(4) 0.3261(3)
O6 O 0.6882(5) 0.1921(6) 0.2378(3)
S3 S 0.80415(9) 0.56505(8) 0.09611(7)
N3 N 0.9807(3) 0.8678(3) -0.0036(3)
H13 H 1.0148 0.8982 -0.0322
H14 H 0.9579 0.8960 0.0236
C13 C 0.8837(3) 0.6269(3) 0.0430(2)
C14 C 0.9044(3) 0.7223(3) 0.0426(3)
H15 H 0.8792 0.7527 0.0718
C15 C 0.9627(3) 0.7730(3) -0.0013(3)
C16 C 0.9988(4) 0.7257(4) -0.0448(3)
H16 H 1.0373 0.7583 -0.0748
C17 C 0.9780(4) 0.6313(4) -0.0437(4)
H17 H 1.0027 0.6008 -0.0732
C18 C 0.9210(4) 0.5805(4) 0.0004(3)
H18 H 0.9080 0.5167 0.0014
O7 O 0.8122(3) 0.4740(3) 0.0995(2)
O8 O 0.8456(3) 0.6255(3) 0.1756(2)
O9 O 0.6981(2) 0.5519(2) 0.04671(19)
S4 S 0.80435(8) 0.95705(7) 0.08940(8)
N4 N 0.5146(3) 0.6145(2) -0.0052(2)
H19 H 0.4510 0.5731 -0.0329
H20 H 0.5621 0.5960 0.0213
C19 C 0.6707(3) 0.8742(3) 0.0416(2)
C20 C 0.6442(3) 0.7780(3) 0.0407(2)
H21 H 0.6956 0.7580 0.0696
C21 C 0.5402(3) 0.7102(3) -0.0035(2)
C22 C 0.4646(3) 0.7426(3) -0.0461(2)
H22 H 0.3956 0.6988 -0.0769
C23 C 0.4916(3) 0.8390(3) -0.0426(3)
H23 H 0.4401 0.8595 -0.0702
C24 C 0.5946(3) 0.9063(3) 0.0013(3)
H24 H 0.6122 0.9712 0.0037
O10 O 0.8124(4) 1.0223(4) 0.1486(4)
O11 O 0.8664(3) 0.9059(3) 0.1127(4)
O12 O 0.8283(4) 1.0047(5) 0.0272(4)
N5 N 1.3679(2) 0.2248(2) 0.16404(19)
N6 N 1.4328(2) 0.3773(2) 0.17165(18)
N7 N 1.4551(2) 0.5320(2) 0.16597(18)
N8 N 1.4562(3) 0.6792(2) 0.14941(19)
N9 N 1.4105(3) 0.7946(2) 0.1206(2)
N10 N 1.1530(3) 0.7434(2) 0.3535(2)
N11 N 1.1707(2) 0.6191(2) 0.39401(19)
N12 N 1.1562(2) 0.4670(2) 0.40781(19)
N13 N 1.1294(3) 0.3095(2) 0.4074(2)
N14 N 1.0803(3) 0.1580(2) 0.3760(2)
C25 C 1.4543(3) 0.3043(3) 0.1981(2)
H25 H 1.5192 0.3092 0.2342
C26 C 1.2875(3) 0.2458(3) 0.1142(2)
H26 H 1.2184 0.2024 0.0834
C27 C 1.3284(3) 0.3411(3) 0.1188(2)
H27 H 1.2929 0.3759 0.0915
C28 C 1.5035(3) 0.4766(3) 0.1937(2)
C29 C 1.6099(3) 0.5091(3) 0.2393(3)
H28 H 1.6408 0.4673 0.2565
C30 C 1.6691(4) 0.6075(3) 0.2583(3)
H29 H 1.7413 0.6328 0.2893
C31 C 1.6213(3) 0.6676(3) 0.2313(3)
H30 H 1.6593 0.7337 0.2440
C32 C 1.5145(3) 0.6252(3) 0.1845(2)
C33 C 1.4872(3) 0.7739(3) 0.1674(2)
H31 H 1.5516 0.8174 0.2061
C34 C 1.3564(3) 0.6399(3) 0.0889(2)
H32 H 1.3163 0.5755 0.0650
C35 C 1.3280(4) 0.7116(3) 0.0708(3)
H33 H 1.2644 0.7063 0.0321
C36 C 1.4059(4) 0.8889(3) 0.1278(3)
H34 H 1.3692 0.8985 0.0744
H35 H 1.4768 0.9397 0.1506
C37 C 1.3477(3) 0.8900(3) 0.1831(2)
C38 C 1.2391(4) 0.8564(3) 0.1517(3)
H36 H 1.2024 0.8416 0.0954
C39 C 1.1842(3) 0.8445(3) 0.2031(3)
H37 H 1.1109 0.8215 0.1811
C40 C 1.2381(3) 0.8667(3) 0.2874(2)
C41 C 1.3471(3) 0.9048(3) 0.3185(3)
H38 H 1.3842 0.9228 0.3748
C42 C 1.4016(3) 0.9166(3) 0.2673(3)
H39 H 1.4751 0.9426 0.2892
C43 C 1.1786(4) 0.8442(3) 0.3434(3)
H40 H 1.2214 0.8868 0.3962
H41 H 1.1140 0.8530 0.3205
C44 C 1.2137(3) 0.7149(3) 0.4100(2)
H42 H 1.2756 0.7543 0.4535
C45 C 1.0689(4) 0.6647(3) 0.3000(3)
H43 H 1.0144 0.6653 0.2547
C46 C 1.0792(3) 0.5869(3) 0.3246(3)
H44 H 1.0338 0.5236 0.2999
C47 C 1.2115(3) 0.5591(3) 0.4406(2)
C48 C 1.3002(3) 0.5963(3) 0.5120(2)
H45 H 1.3364 0.6617 0.5325
C49 C 1.3324(4) 0.5321(3) 0.5512(3)
H46 H 1.3915 0.5541 0.5998
C50 C 1.2780(4) 0.4352(3) 0.5195(3)
H47 H 1.2990 0.3909 0.5452
C51 C 1.1910(3) 0.4080(3) 0.4478(2)
C52 C 1.1530(3) 0.2368(3) 0.4296(3)
H48 H 1.2103 0.2407 0.4747
C53 C 1.0384(3) 0.2756(3) 0.3371(3)
H49 H 1.0047 0.3111 0.3087
C54 C 1.0086(4) 0.1807(3) 0.3180(3)
H50 H 0.9500 0.1383 0.2736
C55 C 1.0896(4) 0.0655(3) 0.3710(3)
H51 H 1.0202 0.0132 0.3445
H52 H 1.1222 0.0556 0.4254
C56 C 1.1571(3) 0.0697(2) 0.3221(2)
C57 C 1.1121(3) 0.0433(3) 0.2374(3)
H53 H 1.0389 0.0152 0.2107
C58 C 1.1755(3) 0.0587(3) 0.1929(3)
H54 H 1.1445 0.0398 0.1363
C59 C 1.2846(3) 0.1017(2) 0.2311(2)
C60 C 1.3297(3) 0.1256(3) 0.3157(2)
H55 H 1.4029 0.1530 0.3422
C61 C 1.2661(3) 0.1088(3) 0.3608(2)
H56 H 1.2970 0.1239 0.4176
C62 C 1.3528(3) 0.1279(3) 0.1815(3)
H57 H 1.4208 0.1275 0.2116
H58 H 1.3192 0.0818 0.1307
O13 O 0.5834(3) 0.1218(3) 0.4574(2)
O14 O 0.9050(4) 0.8105(3) 0.2504(3)
O15 O 0.7674(3) 1.1877(3) 0.0747(3)
O16 O 0.8770(4) 0.3623(4) 0.2039(3)
O17 O 1.1307(4) 0.1533(4) 0.6104(3)
O18 O 1.6438(5) 0.9622(4) 0.4507(4)
O20 O 0.6709(4) 0.0054(4) 0.2231(3)
O21 O 1.7129(5) 0.9138(4) 0.3456(5)
O22 O 0.8437(7) 0.5278(7) 0.3203(6)
O19? O 1.5755(10) 0.9633(8) 0.5008(7)
loop_
_geom_bond_atom_site_label_1
_geom_bond_atom_site_label_2
_geom_bond_site_symmetry_1
_geom_bond_site_symmetry_2
S1 C1 1_555 1_555
N1 H1 1_555 1_555
H2 N1 1_555 1_555
C1 C2 1_555 1_555
C2 H3 1_555 1_555
C3 N1 1_555 1_555
C4 C3 1_555 1_555
H4 C4 1_555 1_555
C5 C4 1_555 1_555
H5 C5 1_555 1_555
C6 C1 1_555 1_555
H6 C6 1_555 1_555
O1 S1 1_555 1_555
O2 S1 1_555 1_555
O3 S1 1_555 1_555
S2 C7 1_555 1_555
N2 H7 1_555 1_555
H8 N2 1_555 1_555
C7 C8 1_555 1_555
C8 H9 1_555 1_555
C9 N2 1_555 1_555
C10 C9 1_555 1_555
H10 C10 1_555 1_555
C11 C10 1_555 1_555
H11 C11 1_555 1_555
C12 C7 1_555 1_555
H12 C12 1_555 1_555
O4 S2 1_555 1_555
O5 S2 1_555 1_555
O6 S2 1_555 1_555
S3 C13 1_555 1_555
N3 H13 1_555 1_555
H14 N3 1_555 1_555
C13 C14 1_555 1_555
C14 H15 1_555 1_555
C15 N3 1_555 1_555
C16 C15 1_555 1_555
H16 C16 1_555 1_555
C17 C16 1_555 1_555
H17 C17 1_555 1_555
C18 C13 1_555 1_555
H18 C18 1_555 1_555
O7 S3 1_555 1_555
O8 S3 1_555 1_555
O9 S3 1_555 1_555
S4 C19 1_555 1_555
N4 H19 1_555 1_555
H20 N4 1_555 1_555
C19 C20 1_555 1_555
C20 H21 1_555 1_555
C21 N4 1_555 1_555
C22 C21 1_555 1_555
H22 C22 1_555 1_555
C23 C22 1_555 1_555
H23 C23 1_555 1_555
C24 C19 1_555 1_555
H24 C24 1_555 1_555
O10 S4 1_555 1_555
O11 S4 1_555 1_555
O12 S4 1_555 1_555
N5 C25 1_555 1_555
N6 C25 1_555 1_555
N7 C28 1_555 1_555
N8 C32 1_555 1_555
N9 C33 1_555 1_555
N10 C43 1_555 1_555
N11 C44 1_555 1_555
N12 C47 1_555 1_555
N13 C51 1_555 1_555
N14 C52 1_555 1_555
C25 H25 1_555 1_555
C26 N5 1_555 1_555
H26 C26 1_555 1_555
C27 N6 1_555 1_555
H27 C27 1_555 1_555
C28 N6 1_555 1_555
C29 C28 1_555 1_555
H28 C29 1_555 1_555
C30 C29 1_555 1_555
H29 C30 1_555 1_555
C31 C30 1_555 1_555
H30 C31 1_555 1_555
C32 N7 1_555 1_555
C33 N8 1_555 1_555
H31 C33 1_555 1_555
C34 N8 1_555 1_555
H32 C34 1_555 1_555
C35 N9 1_555 1_555
H33 C35 1_555 1_555
C36 N9 1_555 1_555
H34 C36 1_555 1_555
H35 C36 1_555 1_555
C37 C36 1_555 1_555
C38 C37 1_555 1_555
H36 C38 1_555 1_555
C39 C38 1_555 1_555
H37 C39 1_555 1_555
C40 C39 1_555 1_555
C41 C40 1_555 1_555
H38 C41 1_555 1_555
C42 C37 1_555 1_555
H39 C42 1_555 1_555
C43 C40 1_555 1_555
H40 C43 1_555 1_555
H41 C43 1_555 1_555
C44 N10 1_555 1_555
H42 C44 1_555 1_555
C45 N10 1_555 1_555
H43 C45 1_555 1_555
C46 N11 1_555 1_555
H44 C46 1_555 1_555
C47 N11 1_555 1_555
C48 C47 1_555 1_555
H45 C48 1_555 1_555
C49 C48 1_555 1_555
H46 C49 1_555 1_555
C50 C49 1_555 1_555
H47 C50 1_555 1_555
C51 N12 1_555 1_555
C52 N13 1_555 1_555
H48 C52 1_555 1_555
C53 N13 1_555 1_555
H49 C53 1_555 1_555
C54 N14 1_555 1_555
H50 C54 1_555 1_555
C55 N14 1_555 1_555
H51 C55 1_555 1_555
H52 C55 1_555 1_555
C56 C55 1_555 1_555
C57 C56 1_555 1_555
H53 C57 1_555 1_555
C58 C57 1_555 1_555
H54 C58 1_555 1_555
C59 C58 1_555 1_555
C60 C59 1_555 1_555
H55 C60 1_555 1_555
C61 C56 1_555 1_555
H56 C61 1_555 1_555
C62 N5 1_555 1_555
H57 C62 1_555 1_555
H58 C62 1_555 1_555
C2 C3 1_555 1_555
C5 C6 1_555 1_555
C8 C9 1_555 1_555
C11 C12 1_555 1_555
C14 C15 1_555 1_555
C17 C18 1_555 1_555
C20 C21 1_555 1_555
C23 C24 1_555 1_555
C26 C27 1_555 1_555
C31 C32 1_555 1_555
C34 C35 1_555 1_555
C41 C42 1_555 1_555
C45 C46 1_555 1_555
C50 C51 1_555 1_555
C53 C54 1_555 1_555
C59 C62 1_555 1_555
C60 C61 1_555 1_555

#END
