
#######################################################################
#
#                 Cambridge Crystallographic Data Centre
#                                CCDC 
#
#######################################################################
#
# If this CIF has been generated from an entry in the Cambridge 
# Structural Database, then it will include bibliographic, chemical, 
# crystal, experimental, refinement or atomic coordinate data resulting 
# from the CCDC's data processing and validation procedures.
#
#######################################################################

data_GATVOO
_chemical_formula_moiety         'C20 H20 O2'
_chemical_name_systematic        
trans-5a,6,7,8,8a,9-hexahydro-5H-chromeno[3,2-d]xanthene
_symmetry_cell_setting           orthorhombic
_symmetry_space_group_name_H-M   'P 21 21 21'
_symmetry_Int_Tables_number      19
_space_group_name_Hall           'P 2ac 2ab'
loop_
_symmetry_equiv_pos_site_id
_symmetry_equiv_pos_as_xyz
1 x,y,z
2 1/2-x,-y,1/2+z
3 -x,1/2+y,1/2-z
4 1/2+x,1/2-y,-z
_cell_length_a                   8.3373(8)
_cell_length_b                   10.2394(10)
_cell_length_c                   18.3775(18)
_cell_angle_alpha                90
_cell_angle_beta                 90
_cell_angle_gamma                90
_cell_volume                     1568.87
_exptl_crystal_colour            colorless
_exptl_crystal_description       prismatic
_cell_formula_units_Z            4
_exptl_crystal_recrystallization_method 'petroleum ether/ethyl acetate'
loop_
_atom_site_label
_atom_site_type_symbol
_atom_site_fract_x
_atom_site_fract_y
_atom_site_fract_z
O1 O 0.24100(14) 0.33807(11) 0.23973(6)
O2 O 0.08697(15) 0.34141(13) 0.33971(6)
C1 C 0.1344(2) 0.34001(17) 0.18268(9)
C2 C 0.1611(3) 0.24816(18) 0.12850(9)
H1 H 0.2470 0.1906 0.1322
C3 C 0.0607(3) 0.2426(2) 0.06958(11)
H2 H 0.0787 0.1813 0.0331
C4 C -0.0662(3) 0.3271(3) 0.06427(12)
H3 H -0.1361 0.3221 0.0249
C5 C -0.0894(3) 0.4193(2) 0.11772(13)
H4 H -0.1740 0.4778 0.1131
C6 C 0.0095(2) 0.42782(19) 0.17842(10)
C7 C -0.0138(3) 0.5283(2) 0.23723(11)
H5 H -0.0984 0.5000 0.2698
H6 H -0.0463 0.6105 0.2155
C8 C 0.1398(3) 0.54821(17) 0.28010(10)
H7 H 0.1132 0.5960 0.3247
C9 C 0.2674(3) 0.62565(19) 0.23912(11)
H8 H 0.2859 0.5848 0.1922
H9 H 0.2277 0.7133 0.2303
C10 C 0.4254(3) 0.6342(2) 0.27987(13)
H10 H 0.4111 0.6876 0.3230
H11 H 0.5046 0.6763 0.2492
C11 C 0.4870(3) 0.4999(2) 0.30228(12)
H12 H 0.5821 0.5104 0.3321
H13 H 0.5172 0.4513 0.2591
C12 C 0.3616(2) 0.42209(19) 0.34474(9)
H14 H 0.4017 0.3328 0.3507
C13 C 0.2071(2) 0.41587(17) 0.30163(9)
C14 C 0.3315(3) 0.4791(2) 0.42069(10)
H15 H 0.4178 0.4522 0.4528
H16 H 0.3337 0.5737 0.4176
C15 C 0.1750(2) 0.43755(17) 0.45315(9)
C16 C 0.0607(2) 0.37376(16) 0.41166(10)
C17 C -0.0845(3) 0.3356(2) 0.44053(11)
H17 H -0.1595 0.2926 0.4117
C18 C -0.1177(3) 0.3619(2) 0.51309(11)
H18 H -0.2154 0.3368 0.5331
C19 C -0.0066(3) 0.4248(2) 0.55521(11)
H19 H -0.0286 0.4423 0.6039
C20 C 0.1373(3) 0.4620(2) 0.52549(10)
H20 H 0.2118 0.5048 0.5546
loop_
_geom_bond_atom_site_label_1
_geom_bond_atom_site_label_2
_geom_bond_site_symmetry_1
_geom_bond_site_symmetry_2
O1 C1 1_555 1_555
O2 C13 1_555 1_555
C1 C2 1_555 1_555
C2 H1 1_555 1_555
C3 C2 1_555 1_555
H2 C3 1_555 1_555
C4 C3 1_555 1_555
H3 C4 1_555 1_555
C5 C4 1_555 1_555
H4 C5 1_555 1_555
C6 C1 1_555 1_555
C7 C6 1_555 1_555
H5 C7 1_555 1_555
H6 C7 1_555 1_555
C8 C7 1_555 1_555
H7 C8 1_555 1_555
C9 C8 1_555 1_555
H8 C9 1_555 1_555
H9 C9 1_555 1_555
C10 C9 1_555 1_555
H10 C10 1_555 1_555
H11 C10 1_555 1_555
C11 C10 1_555 1_555
H12 C11 1_555 1_555
H13 C11 1_555 1_555
C12 C11 1_555 1_555
H14 C12 1_555 1_555
C13 O1 1_555 1_555
C14 C12 1_555 1_555
H15 C14 1_555 1_555
H16 C14 1_555 1_555
C15 C14 1_555 1_555
C16 O2 1_555 1_555
C17 C16 1_555 1_555
H17 C17 1_555 1_555
C18 C17 1_555 1_555
H18 C18 1_555 1_555
C19 C18 1_555 1_555
H19 C19 1_555 1_555
C20 C15 1_555 1_555
H20 C20 1_555 1_555
C5 C6 1_555 1_555
C8 C13 1_555 1_555
C12 C13 1_555 1_555
C15 C16 1_555 1_555
C19 C20 1_555 1_555

#END
