
#######################################################################
#
#                 Cambridge Crystallographic Data Centre
#                                CCDC 
#
#######################################################################
#
# If this CIF has been generated from an entry in the Cambridge 
# Structural Database, then it will include bibliographic, chemical, 
# crystal, experimental, refinement or atomic coordinate data resulting 
# from the CCDC's data processing and validation procedures.
#
#######################################################################

data_GATXAB01
_chemical_formula_moiety         'C24 H12 N4 O4,2(C3 H7 N1 O1)'
_chemical_name_systematic        
'2,7-bis(Pyridin-4-yl)benzo[lmn][3,8]phenanthroline-1,3,6,8(2H,7H)-tetrone N,N-dimethylformamide solvate'
_symmetry_cell_setting           monoclinic
_symmetry_space_group_name_H-M   'P 21/c'
_symmetry_Int_Tables_number      14
_space_group_name_Hall           '-P 2ybc'
loop_
_symmetry_equiv_pos_site_id
_symmetry_equiv_pos_as_xyz
1 x,y,z
2 -x,1/2+y,1/2-z
3 -x,-y,-z
4 x,1/2-y,1/2+z
_cell_length_a                   5.4543(11)
_cell_length_b                   13.088(3)
_cell_length_c                   19.406(4)
_cell_angle_alpha                90
_cell_angle_beta                 93.39(3)
_cell_angle_gamma                90
_cell_volume                     1382.89
_exptl_crystal_colour            yellow
_exptl_crystal_description       Block
_cell_formula_units_Z            2
loop_
_atom_site_label
_atom_site_type_symbol
_atom_site_fract_x
_atom_site_fract_y
_atom_site_fract_z
O1 O -0.2751(4) 0.23846(16) 0.09280(10)
O2 O 0.3895(4) 0.41141(16) 0.18290(10)
N1 N 0.1196(5) 0.1139(2) 0.30207(14)
N2 N 0.0568(4) 0.32572(15) 0.13758(9)
C1 C -0.0589(7) 0.1827(3) 0.29689(18)
H1 H -0.1724 0.1831 0.3308
C2 C 0.2778(6) 0.1162(3) 0.25318(18)
H2 H 0.4054 0.0689 0.2558
C3 C 0.2669(5) 0.1843(2) 0.19797(15)
H3 H 0.3827 0.1825 0.1647
C4 C -0.0878(6) 0.2545(3) 0.24406(15)
H4 H -0.2167 0.3011 0.2426
C5 C 0.0797(5) 0.2540(2) 0.19444(12)
C6 C -0.1359(4) 0.31008(18) 0.08820(11)
C7 C 0.2311(4) 0.40432(18) 0.13712(12)
C8 C 0.2060(4) 0.47654(16) 0.07826(10)
C9 C -0.1609(4) 0.38490(16) 0.03083(11)
C10 C -0.3492(4) 0.37532(18) -0.01838(11)
H5 H -0.4617 0.3223 -0.0156
C11 C 0.0122(4) 0.46502(16) 0.02793(10)
C12 C 0.3733(4) 0.55464(18) 0.07323(11)
H6 H 0.5029 0.5610 0.1063
O1B O 0.2751(4) 0.76154(16) -0.09280(10)
O2B O -0.3895(4) 0.58859(16) -0.18290(10)
N1B N -0.1196(5) 0.8861(2) -0.30207(14)
N2B N -0.0568(4) 0.67428(15) -0.13758(9)
C1B C 0.0589(7) 0.8173(3) -0.29689(18)
H1B H 0.1724 0.8169 -0.3308
C2B C -0.2778(6) 0.8838(3) -0.25318(18)
H2B H -0.4054 0.9311 -0.2558
C3B C -0.2669(5) 0.8157(2) -0.19797(15)
H3B H -0.3827 0.8175 -0.1647
C4B C 0.0878(6) 0.7455(3) -0.24406(15)
H4B H 0.2167 0.6989 -0.2426
C5B C -0.0797(5) 0.7460(2) -0.19444(12)
C6B C 0.1359(4) 0.68992(18) -0.08820(11)
C7B C -0.2311(4) 0.59568(18) -0.13712(12)
C8B C -0.2060(4) 0.52346(16) -0.07826(10)
C9B C 0.1609(4) 0.61510(16) -0.03083(11)
C10B C 0.3492(4) 0.62468(18) 0.01838(11)
H5B H 0.4617 0.6777 0.0156
C11B C -0.0122(4) 0.53498(16) -0.02793(10)
C12B C -0.3733(4) 0.44536(18) -0.07323(11)
H6B H -0.5029 0.4390 -0.1063
O3 O 0.1923(10) 0.2115(5) -0.0093(4)
N3 N 0.2330(10) 0.0894(4) -0.0922(3)
C13 C 0.1277(15) 0.1482(6) -0.0454(4)
H7 H -0.0379 0.1332 -0.0421
C14 C 0.476(2) 0.1569(12) -0.1261(5)
H8 H 0.4646 0.2277 -0.1138
H9 H 0.4661 0.1504 -0.1755
H10 H 0.6290 0.1295 -0.1077
C15 C 0.112(2) 0.0163(7) -0.1351(5)
H11 H -0.0135 -0.0164 -0.1105
H12 H 0.2287 -0.0339 -0.1486
H13 H 0.0397 0.0493 -0.1755
loop_
_geom_bond_atom_site_label_1
_geom_bond_atom_site_label_2
_geom_bond_site_symmetry_1
_geom_bond_site_symmetry_2
O1 C6 1_555 1_555
O2 C7 1_555 1_555
N1 C1 1_555 1_555
N2 C5 1_555 1_555
C1 H1 1_555 1_555
C2 N1 1_555 1_555
H2 C2 1_555 1_555
C3 C2 1_555 1_555
H3 C3 1_555 1_555
C4 C1 1_555 1_555
H4 C4 1_555 1_555
C5 C3 1_555 1_555
C6 N2 1_555 1_555
C7 N2 1_555 1_555
C8 C7 1_555 1_555
C9 C6 1_555 1_555
C10 C9 1_555 1_555
H5 C10 1_555 1_555
C11 C8 1_555 1_555
C12 C8 1_555 1_555
H6 C12 1_555 1_555
O3 C13 1_555 1_555
N3 C13 1_555 1_555
C13 H7 1_555 1_555
C14 N3 1_555 1_555
H8 C14 1_555 1_555
H9 C14 1_555 1_555
H10 C14 1_555 1_555
C15 N3 1_555 1_555
H11 C15 1_555 1_555
H12 C15 1_555 1_555
H13 C15 1_555 1_555
O1B C6B 1_555 1_555
O2B C7B 1_555 1_555
N1B C1B 1_555 1_555
N2B C5B 1_555 1_555
C1B H1B 1_555 1_555
C2B N1B 1_555 1_555
H2B C2B 1_555 1_555
C3B C2B 1_555 1_555
H3B C3B 1_555 1_555
C4B C1B 1_555 1_555
H4B C4B 1_555 1_555
C5B C3B 1_555 1_555
C6B N2B 1_555 1_555
C7B N2B 1_555 1_555
C8B C7B 1_555 1_555
C9B C6B 1_555 1_555
C10B C12 1_555 1_555
H5B C10B 1_555 1_555
C11B C11 1_555 1_555
C12B C10 1_555 1_555
H6B C12B 1_555 1_555
C4 C5 1_555 1_555
C9 C11 1_555 1_555
C4B C5B 1_555 1_555
C8B C11B 1_555 1_555
C8B C12B 1_555 1_555
C9B C10B 1_555 1_555
C9B C11B 1_555 1_555

#END
