
#######################################################################
#
#                 Cambridge Crystallographic Data Centre
#                                CCDC 
#
#######################################################################
#
# If this CIF has been generated from an entry in the Cambridge 
# Structural Database, then it will include bibliographic, chemical, 
# crystal, experimental, refinement or atomic coordinate data resulting 
# from the CCDC's data processing and validation procedures.
#
#######################################################################

data_GAVCEM
_chemical_formula_moiety         'C14 H10 Cl2 N2'
_chemical_name_systematic        (E,E)-N,N'-bis(4-Chlorobenzylidene)hydrazine
_symmetry_cell_setting           monoclinic
_symmetry_space_group_name_H-M   'P 21/c'
_symmetry_Int_Tables_number      14
_space_group_name_Hall           '-P 2ybc'
loop_
_symmetry_equiv_pos_site_id
_symmetry_equiv_pos_as_xyz
1 x,y,z
2 -x,1/2+y,1/2-z
3 -x,-y,-z
4 x,1/2-y,1/2+z
_cell_length_a                   3.9585(10)
_cell_length_b                   6.9894(17)
_cell_length_c                   23.150(6)
_cell_angle_alpha                90
_cell_angle_beta                 90.416(4)
_cell_angle_gamma                90
_cell_volume                     640.487
_exptl_crystal_colour            colorless
_exptl_crystal_description       block
_chemical_melting_point          '482-483 K'
_cell_formula_units_Z            2
_exptl_crystal_recrystallization_method cyclohexane
loop_
_atom_site_label
_atom_site_type_symbol
_atom_site_fract_x
_atom_site_fract_y
_atom_site_fract_z
Cl1 Cl 0.40056(17) 0.82622(10) 0.18785(3)
N1 N 0.0604(5) 0.0888(3) 0.01043(8)
C1 C -0.0117(5) 0.1163(3) 0.06309(10)
H1 H -0.1313 0.0229 0.0829
C2 C 0.0879(5) 0.2903(3) 0.09338(9)
C3 C 0.2454(5) 0.4402(3) 0.06460(9)
H2 H 0.2877 0.4288 0.0253
C4 C 0.3397(6) 0.6047(3) 0.09286(10)
H3 H 0.4446 0.7038 0.0731
C5 C 0.2759(5) 0.6199(3) 0.15121(10)
C6 C 0.1178(6) 0.4759(3) 0.18093(9)
H4 H 0.0747 0.4888 0.2202
C7 C 0.0236(6) 0.3120(3) 0.15195(10)
H5 H -0.0846 0.2144 0.1719
Cl1B Cl -0.40056(17) -0.82622(10) -0.18785(3)
N1B N -0.0604(5) -0.0888(3) -0.01043(8)
C1B C 0.0117(5) -0.1163(3) -0.06309(10)
H1B H 0.1313 -0.0229 -0.0829
C2B C -0.0879(5) -0.2903(3) -0.09338(9)
C3B C -0.2454(5) -0.4402(3) -0.06460(9)
H2B H -0.2877 -0.4288 -0.0253
C4B C -0.3397(6) -0.6047(3) -0.09286(10)
H3B H -0.4446 -0.7038 -0.0731
C5B C -0.2759(5) -0.6199(3) -0.15121(10)
C6B C -0.1178(6) -0.4759(3) -0.18093(9)
H4B H -0.0747 -0.4888 -0.2202
C7B C -0.0236(6) -0.3120(3) -0.15195(10)
H5B H 0.0846 -0.2144 -0.1719
loop_
_geom_bond_atom_site_label_1
_geom_bond_atom_site_label_2
_geom_bond_site_symmetry_1
_geom_bond_site_symmetry_2
Cl1 C5 1_555 1_555
N1 C1 1_555 1_555
C1 H1 1_555 1_555
C2 C1 1_555 1_555
C3 C2 1_555 1_555
H2 C3 1_555 1_555
C4 C3 1_555 1_555
H3 C4 1_555 1_555
C5 C4 1_555 1_555
C6 C5 1_555 1_555
H4 C6 1_555 1_555
C7 C2 1_555 1_555
H5 C7 1_555 1_555
Cl1B C5B 1_555 1_555
N1B N1 1_555 1_555
C1B N1B 1_555 1_555
H1B C1B 1_555 1_555
C2B C1B 1_555 1_555
C3B C2B 1_555 1_555
H2B C3B 1_555 1_555
C4B C3B 1_555 1_555
H3B C4B 1_555 1_555
C5B C4B 1_555 1_555
C6B C5B 1_555 1_555
H4B C6B 1_555 1_555
C7B C2B 1_555 1_555
H5B C7B 1_555 1_555
C6 C7 1_555 1_555
C6B C7B 1_555 1_555

#END
