
#######################################################################
#
#                 Cambridge Crystallographic Data Centre
#                                CCDC 
#
#######################################################################
#
# If this CIF has been generated from an entry in the Cambridge 
# Structural Database, then it will include bibliographic, chemical, 
# crystal, experimental, refinement or atomic coordinate data resulting 
# from the CCDC's data processing and validation procedures.
#
#######################################################################

data_GAVCEN
_chemical_formula_moiety         'C27 H25 N3 O3'
_chemical_name_systematic        
3'-(2-(Hydroxyimino)-2-(4-methoxyphenyl)ethyl)-1,1'-dimethyl-1',3'-dihydro-1H,2'H-3,3'-biindol-2'-one
_symmetry_cell_setting           orthorhombic
_symmetry_space_group_name_H-M   'P 21 21 21'
_symmetry_Int_Tables_number      19
_space_group_name_Hall           'P 2ac 2ab'
loop_
_symmetry_equiv_pos_site_id
_symmetry_equiv_pos_as_xyz
1 x,y,z
2 1/2-x,-y,1/2+z
3 1/2+x,1/2-y,-z
4 -x,1/2+y,1/2-z
_cell_length_a                   9.7429(3)
_cell_length_b                   10.5927(6)
_cell_length_c                   22.4002(9)
_cell_angle_alpha                90
_cell_angle_beta                 90
_cell_angle_gamma                90
_cell_volume                     2311.78
_exptl_crystal_colour            colorless
_exptl_crystal_description       plate
_cell_formula_units_Z            4
loop_
_atom_site_label
_atom_site_type_symbol
_atom_site_fract_x
_atom_site_fract_y
_atom_site_fract_z
O1 O 0.32455(12) 0.40416(11) 0.21808(5)
O2 O -0.15501(12) 0.08951(13) 0.22620(6)
H1 H -0.2144 0.0396 0.2370
N1 N 0.39570(14) 0.20389(15) 0.19515(6)
N2 N 0.06620(17) 0.48750(14) 0.04926(7)
O3 O 0.46136(17) 0.13838(17) 0.43316(7)
N3 N -0.04482(14) 0.08657(15) 0.26667(6)
C1 C 0.13903(17) 0.40688(17) 0.01306(8)
C2 C 0.07241(19) 0.44216(16) 0.10676(8)
H2 H 0.0314 0.4804 0.1396
C3 C 0.20434(19) 0.11858(17) 0.15140(7)
C4 C 0.04661(16) 0.26642(16) 0.20795(7)
H3 H 0.0464 0.3501 0.2255
H4 H -0.0376 0.2571 0.1853
C5 C 0.33814(18) 0.09384(17) 0.17014(8)
C6 C 0.30390(16) 0.30001(17) 0.19592(7)
C7 C 0.16303(16) 0.16191(16) 0.30100(7)
C8 C 0.14709(15) 0.33337(16) 0.10896(7)
C9 C 0.1605(2) 0.4137(2) -0.04839(8)
H5 H 0.1201 0.4768 -0.0713
C10 C 0.17095(16) 0.25515(15) 0.16474(7)
C11 C 0.2430(2) 0.3243(3) -0.07362(9)
H6 H 0.2604 0.3271 -0.1144
C12 C 0.04844(16) 0.16987(16) 0.25707(7)
C13 C 0.36534(19) 0.1389(2) 0.38860(9)
C14 C 0.2004(2) 0.26481(17) 0.33585(8)
H7 H 0.1578 0.3424 0.3299
C15 C 0.52871(19) 0.2083(2) 0.22415(10)
H8 H 0.5290 0.1519 0.2577
H9 H 0.5466 0.2928 0.2376
H10 H 0.5985 0.1832 0.1963
C16 C 0.3976(2) -0.0237(2) 0.16453(10)
H11 H 0.4869 -0.0391 0.1772
C17 C 0.19367(17) 0.31018(17) 0.04867(7)
C18 C 0.3314(2) 0.03629(19) 0.35401(9)
H12 H 0.3757 -0.0405 0.3596
C19 C 0.2997(2) 0.25291(19) 0.37905(9)
H13 H 0.3231 0.3225 0.4022
C20 C 0.3013(3) 0.2291(3) -0.03941(10)
H14 H 0.3576 0.1697 -0.0577
C21 C 0.23031(18) 0.04817(17) 0.31059(8)
H15 H 0.2072 -0.0216 0.2875
C22 C 0.1272(2) 0.02429(19) 0.12615(10)
H16 H 0.0380 0.0398 0.1133
C23 C -0.0103(3) 0.5975(2) 0.03018(10)
H17 H 0.0518 0.6593 0.0144
H18 H -0.0586 0.6325 0.0637
H19 H -0.0749 0.5735 -0.0001
C24 C 0.2775(2) 0.2205(2) 0.02112(9)
H20 H 0.3169 0.1557 0.0434
C25 C 0.1853(3) -0.0948(2) 0.12015(12)
H21 H 0.1342 -0.1598 0.1032
C26 C 0.3178(3) -0.1179(2) 0.13898(11)
H22 H 0.3545 -0.1984 0.1345
C27 C 0.5328(3) 0.0230(3) 0.44465(14)
H23 H 0.5808 -0.0030 0.4093
H24 H 0.4682 -0.0412 0.4559
H25 H 0.5973 0.0356 0.4765
loop_
_geom_bond_atom_site_label_1
_geom_bond_atom_site_label_2
_geom_bond_site_symmetry_1
_geom_bond_site_symmetry_2
O1 C6 1_555 1_555
O2 H1 1_555 1_555
N1 C5 1_555 1_555
N2 C1 1_555 1_555
O3 C13 1_555 1_555
N3 O2 1_555 1_555
C1 C9 1_555 1_555
C2 N2 1_555 1_555
H2 C2 1_555 1_555
C3 C5 1_555 1_555
C4 H3 1_555 1_555
H4 C4 1_555 1_555
C5 C16 1_555 1_555
C6 N1 1_555 1_555
C7 C12 1_555 1_555
C8 C2 1_555 1_555
C9 H5 1_555 1_555
C10 C3 1_555 1_555
C11 C9 1_555 1_555
H6 C11 1_555 1_555
C12 N3 1_555 1_555
C13 C18 1_555 1_555
C14 C7 1_555 1_555
H7 C14 1_555 1_555
C15 N1 1_555 1_555
H8 C15 1_555 1_555
H9 C15 1_555 1_555
H10 C15 1_555 1_555
C16 H11 1_555 1_555
C17 C1 1_555 1_555
C18 H12 1_555 1_555
C19 C13 1_555 1_555
H13 C19 1_555 1_555
C20 C11 1_555 1_555
H14 C20 1_555 1_555
C21 C7 1_555 1_555
H15 C21 1_555 1_555
C22 C3 1_555 1_555
H16 C22 1_555 1_555
C23 N2 1_555 1_555
H17 C23 1_555 1_555
H18 C23 1_555 1_555
H19 C23 1_555 1_555
C24 C17 1_555 1_555
H20 C24 1_555 1_555
C25 C22 1_555 1_555
H21 C25 1_555 1_555
C26 C16 1_555 1_555
H22 C26 1_555 1_555
C27 O3 1_555 1_555
H23 C27 1_555 1_555
H24 C27 1_555 1_555
H25 C27 1_555 1_555
C4 C10 1_555 1_555
C4 C12 1_555 1_555
C6 C10 1_555 1_555
C8 C10 1_555 1_555
C8 C17 1_555 1_555
C14 C19 1_555 1_555
C18 C21 1_555 1_555
C20 C24 1_555 1_555
C25 C26 1_555 1_555

#END
