
#######################################################################
#
#                 Cambridge Crystallographic Data Centre
#                                CCDC 
#
#######################################################################
#
# If this CIF has been generated from an entry in the Cambridge 
# Structural Database, then it will include bibliographic, chemical, 
# crystal, experimental, refinement or atomic coordinate data resulting 
# from the CCDC's data processing and validation procedures.
#
#######################################################################

data_GAVFUF
_chemical_formula_moiety         'C16 H10 Cl2 N6 O1'
_chemical_name_systematic        
'2-(1H-Benzotriazol-1-yl)-1-(2,4-dichlorophenyl)-2-(1H-1,2,4-triazol-1- yl)ethanone'
_symmetry_cell_setting           monoclinic
_symmetry_space_group_name_H-M   'C 2/c'
_symmetry_Int_Tables_number      15
_space_group_name_Hall           '-C 2yn'
loop_
_symmetry_equiv_pos_site_id
_symmetry_equiv_pos_as_xyz
1 x,y,z
2 1/2+x,1/2+y,z
3 -x,y,1/2-z
4 1/2-x,1/2+y,1/2-z
5 -x,-y,-z
6 1/2-x,1/2-y,-z
7 x,-y,1/2+z
8 1/2+x,1/2-y,1/2+z
_cell_length_a                   21.950(3)
_cell_length_b                   9.9632(15)
_cell_length_c                   15.538(2)
_cell_angle_alpha                90
_cell_angle_beta                 106.028(2)
_cell_angle_gamma                90
_cell_volume                     3265.95
_exptl_crystal_colour            colorless
_exptl_crystal_description       column
_cell_formula_units_Z            8
loop_
_atom_site_label
_atom_site_type_symbol
_atom_site_fract_x
_atom_site_fract_y
_atom_site_fract_z
Cl1 Cl 0.33292(6) 1.12155(9) 0.06212(8)
Cl2 Cl 0.41646(5) 0.62594(10) 0.15957(5)
O1 O 0.33974(11) 0.44636(19) 0.01778(13)
N1 N 0.33146(9) 0.37073(19) -0.15203(13)
N2 N 0.27958(10) 0.3143(2) -0.20955(15)
N3 N 0.29213(11) 0.1899(2) -0.22229(15)
N4 N 0.43557(10) 0.6012(2) -0.11022(14)
N5 N 0.37503(9) 0.58826(19) -0.16354(13)
N6 N 0.42355(11) 0.7076(2) -0.24165(16)
C1 C 0.30189(12) 0.7756(3) -0.06665(17)
H1 H 0.2795 0.7463 -0.1234
C2 C 0.29920(14) 0.9090(3) -0.0458(2)
H2 H 0.2745 0.9686 -0.0870
C3 C 0.33350(15) 0.9524(3) 0.0369(2)
C4 C 0.36904(15) 0.8649(3) 0.09930(19)
H3 H 0.3922 0.8964 0.1551
C5 C 0.37023(13) 0.7298(3) 0.07887(17)
C6 C 0.33690(11) 0.6825(2) -0.00607(16)
C7 C 0.33672(12) 0.5395(2) -0.03232(17)
C8 C 0.32881(11) 0.5123(2) -0.13298(16)
H4 H 0.2867 0.5447 -0.1661
C9 C 0.37935(11) 0.2787(2) -0.12804(16)
C10 C 0.44156(12) 0.2832(3) -0.07300(19)
H5 H 0.4587 0.3599 -0.0414
C11 C 0.47549(14) 0.1673(3) -0.0688(2)
H6 H 0.5170 0.1653 -0.0327
C12 C 0.45038(16) 0.0513(3) -0.1167(2)
H7 H 0.4760 -0.0240 -0.1126
C13 C 0.38949(15) 0.0463(3) -0.16895(19)
H8 H 0.3726 -0.0312 -0.1998
C14 C 0.35348(12) 0.1635(2) -0.17407(16)
C15 C 0.46185(13) 0.6725(3) -0.16102(19)
H9 H 0.5043 0.6974 -0.1426
C16 C 0.36978(13) 0.6528(3) -0.24046(17)
H10 H 0.3327 0.6581 -0.2871
loop_
_geom_bond_atom_site_label_1
_geom_bond_atom_site_label_2
_geom_bond_site_symmetry_1
_geom_bond_site_symmetry_2
Cl1 C3 1_555 1_555
Cl2 C5 1_555 1_555
O1 C7 1_555 1_555
N1 N2 1_555 1_555
N2 N3 1_555 1_555
N3 C14 1_555 1_555
N4 N5 1_555 1_555
N5 C8 1_555 1_555
N6 C15 1_555 1_555
C1 H1 1_555 1_555
C2 C1 1_555 1_555
H2 C2 1_555 1_555
C3 C2 1_555 1_555
C4 C3 1_555 1_555
H3 C4 1_555 1_555
C5 C4 1_555 1_555
C6 C1 1_555 1_555
C7 C6 1_555 1_555
C8 N1 1_555 1_555
H4 C8 1_555 1_555
C9 N1 1_555 1_555
C10 C9 1_555 1_555
H5 C10 1_555 1_555
C11 C10 1_555 1_555
H6 C11 1_555 1_555
C12 C11 1_555 1_555
H7 C12 1_555 1_555
C13 C12 1_555 1_555
H8 C13 1_555 1_555
C14 C9 1_555 1_555
C15 N4 1_555 1_555
H9 C15 1_555 1_555
C16 N5 1_555 1_555
H10 C16 1_555 1_555
N6 C16 1_555 1_555
C5 C6 1_555 1_555
C7 C8 1_555 1_555
C13 C14 1_555 1_555

#END
