
#######################################################################
#
#                 Cambridge Crystallographic Data Centre
#                                CCDC 
#
#######################################################################
#
# If this CIF has been generated from an entry in the Cambridge 
# Structural Database, then it will include bibliographic, chemical, 
# crystal, experimental, refinement or atomic coordinate data resulting 
# from the CCDC's data processing and validation procedures.
#
#######################################################################

data_GAVGIU
_chemical_formula_moiety         'C15 H12 N2 O3'
_chemical_name_systematic        
2-((3-(2-Nitrophenyl)prop-2-enylidene)amino)phenol
_symmetry_cell_setting           monoclinic
_symmetry_space_group_name_H-M   'C 2/c'
_symmetry_Int_Tables_number      15
_space_group_name_Hall           '-C 2yn'
loop_
_symmetry_equiv_pos_site_id
_symmetry_equiv_pos_as_xyz
1 x,y,z
2 1/2+x,1/2+y,z
3 -x,y,1/2-z
4 1/2-x,1/2+y,1/2-z
5 -x,-y,-z
6 1/2-x,1/2-y,-z
7 x,-y,1/2+z
8 1/2+x,1/2-y,1/2+z
_cell_length_a                   22.654(3)
_cell_length_b                   7.5464(10)
_cell_length_c                   18.816(2)
_cell_angle_alpha                90
_cell_angle_beta                 123.692(2)
_cell_angle_gamma                90
_cell_volume                     2676.41
_exptl_crystal_colour            yellow
_exptl_crystal_description       block
_cell_formula_units_Z            8
_exptl_crystal_recrystallization_method ethanol
loop_
_atom_site_label
_atom_site_type_symbol
_atom_site_fract_x
_atom_site_fract_y
_atom_site_fract_z
O1 O -0.07054(13) -0.3837(3) -0.25409(12)
O2 O -0.01401(10) -0.1927(2) -0.15485(11)
O3 O 0.23510(7) 0.28984(17) 0.22499(8)
H1 H 0.2397 0.3800 0.2520
N1 N -0.02857(10) -0.3445(2) -0.17952(11)
N2 N 0.23660(8) 0.00307(17) 0.14026(9)
C1 C 0.00561(10) -0.4880(2) -0.11663(12)
C2 C -0.03180(11) -0.6444(3) -0.13574(14)
H2 H -0.0745 -0.6593 -0.1883
C3 C -0.00529(12) -0.7775(3) -0.07628(15)
H3 H -0.0300 -0.8836 -0.0882
C4 C 0.05816(12) -0.7537(3) 0.00132(15)
H4 H 0.0757 -0.8429 0.0423
C5 C 0.09587(11) -0.5978(2) 0.01842(12)
H5 H 0.1390 -0.5851 0.0706
C6 C 0.07124(9) -0.4598(2) -0.04000(11)
C7 C 0.11460(10) -0.3009(2) -0.02192(11)
H6 H 0.1108 -0.2436 -0.0681
C8 C 0.15892(10) -0.2323(2) 0.05506(11)
H7 H 0.1637 -0.2875 0.1022
C9 C 0.19985(10) -0.0750(2) 0.06799(11)
H8 H 0.1995 -0.0285 0.0220
C10 C 0.27698(9) 0.1542(2) 0.14842(9)
C11 C 0.27845(9) 0.2986(2) 0.19625(10)
C12 C 0.32100(10) 0.4434(2) 0.20983(11)
H9 H 0.3213 0.5402 0.2407
C13 C 0.36290(11) 0.4447(3) 0.17777(12)
H10 H 0.3921 0.5413 0.1881
C14 C 0.36174(11) 0.3038(3) 0.13052(13)
H11 H 0.3899 0.3056 0.1087
C15 C 0.31875(10) 0.1601(2) 0.11559(11)
H12 H 0.3177 0.0658 0.0831
loop_
_geom_bond_atom_site_label_1
_geom_bond_atom_site_label_2
_geom_bond_site_symmetry_1
_geom_bond_site_symmetry_2
O1 N1 1_555 1_555
O2 N1 1_555 1_555
O3 H1 1_555 1_555
N1 C1 1_555 1_555
N2 C9 1_555 1_555
C1 C2 1_555 1_555
C2 H2 1_555 1_555
C3 C2 1_555 1_555
H3 C3 1_555 1_555
C4 C3 1_555 1_555
H4 C4 1_555 1_555
C5 C4 1_555 1_555
H5 C5 1_555 1_555
C6 C1 1_555 1_555
C7 C6 1_555 1_555
H6 C7 1_555 1_555
C8 C7 1_555 1_555
H7 C8 1_555 1_555
C9 C8 1_555 1_555
H8 C9 1_555 1_555
C10 N2 1_555 1_555
C11 O3 1_555 1_555
C12 C11 1_555 1_555
H9 C12 1_555 1_555
C13 C12 1_555 1_555
H10 C13 1_555 1_555
C14 C13 1_555 1_555
H11 C14 1_555 1_555
C15 C10 1_555 1_555
H12 C15 1_555 1_555
C5 C6 1_555 1_555
C10 C11 1_555 1_555
C14 C15 1_555 1_555

#END
