
#######################################################################
#
#                 Cambridge Crystallographic Data Centre
#                                CCDC 
#
#######################################################################
#
# If this CIF has been generated from an entry in the Cambridge 
# Structural Database, then it will include bibliographic, chemical, 
# crystal, experimental, refinement or atomic coordinate data resulting 
# from the CCDC's data processing and validation procedures.
#
#######################################################################

data_GAVGOA
_chemical_formula_moiety         'C22 H27 N3 O9 S1'
_chemical_name_systematic        
'Benzaldehyde 1-(2,3,4,6-tetra-O-acetyl-b-D-galactopyranosyl)thiosemicarbazone'
_symmetry_cell_setting           monoclinic
_symmetry_space_group_name_H-M   'P 21'
_symmetry_Int_Tables_number      4
_space_group_name_Hall           'P 2yb'
loop_
_symmetry_equiv_pos_site_id
_symmetry_equiv_pos_as_xyz
1 x,y,z
2 -x,1/2+y,-z
_cell_length_a                   11.547(5)
_cell_length_b                   9.113(4)
_cell_length_c                   12.801(5)
_cell_angle_alpha                90
_cell_angle_beta                 101.651(8)
_cell_angle_gamma                90
_cell_volume                     1319.27
_exptl_crystal_colour            colorless
_exptl_crystal_description       needle
_cell_formula_units_Z            2
loop_
_atom_site_label
_atom_site_type_symbol
_atom_site_fract_x
_atom_site_fract_y
_atom_site_fract_z
S1 S 0.16605(9) 0.20227(13) 0.96169(10)
O1 O -0.1073(2) 0.4398(3) 0.8421(2)
O2 O -0.1962(2) 0.1678(3) 1.0197(3)
O3 O -0.2033(3) 0.3103(4) 1.1606(3)
O4 O -0.4102(2) 0.2211(3) 0.8765(2)
O5 O -0.4155(3) -0.0010(4) 0.8045(3)
O6 O -0.3602(2) 0.4916(3) 0.7979(2)
O7 O -0.5309(3) 0.4461(5) 0.6862(4)
O8 O -0.2651(4) 0.5056(5) 0.5745(3)
O9 O -0.3481(5) 0.7213(6) 0.5820(5)
N1 N -0.0077(3) 0.3666(4) 1.0105(3)
H1 H -0.0283 0.4318 1.0518
N2 N 0.1599(3) 0.3509(4) 1.1353(3)
H2 H 0.2315 0.3218 1.1575
N3 N 0.1065(3) 0.4364(4) 1.2002(3)
C1 C -0.0924(3) 0.3242(5) 0.9180(3)
H3 H -0.0643 0.2362 0.8867
C2 C -0.2108(3) 0.2914(5) 0.9484(3)
H4 H -0.2395 0.3771 0.9818
C3 C -0.2967(3) 0.2486(5) 0.8494(4)
H5 H -0.2690 0.1573 0.8222
C4 C -0.3076(3) 0.3640(5) 0.7632(4)
H6 H -0.3566 0.3271 0.6968
C5 C -0.1852(4) 0.4024(5) 0.7455(4)
H7 H -0.1530 0.3173 0.7143
C6 C -0.1919(3) 0.1919(6) 1.1244(4)
C7 C -0.1730(5) 0.0513(6) 1.1853(4)
H8 H -0.1698 0.0704 1.2596
H9 H -0.1000 0.0076 1.1765
H10 H -0.2372 -0.0146 1.1591
C8 C -0.4606(4) 0.0908(6) 0.8489(4)
C9 C -0.5771(4) 0.0786(8) 0.8817(5)
H11 H -0.6114 -0.0155 0.8609
H12 H -0.6289 0.1546 0.8477
H13 H -0.5659 0.0890 0.9578
C10 C -0.4737(4) 0.5219(6) 0.7531(5)
C11 C -0.5124(4) 0.6577(6) 0.7956(5)
H14 H -0.5931 0.6770 0.7622
H15 H -0.4634 0.7372 0.7814
H16 H -0.5062 0.6481 0.8712
C12 C -0.1845(4) 0.5328(6) 0.6723(4)
H17 H -0.2077 0.6207 0.7056
H18 H -0.1056 0.5476 0.6590
C13 C -0.3421(7) 0.6100(10) 0.5379(5)
C14 C -0.4214(7) 0.5605(10) 0.4359(5)
H19 H -0.4768 0.6370 0.4095
H20 H -0.4635 0.4739 0.4492
H21 H -0.3745 0.5391 0.3838
C15 C 0.1012(3) 0.3117(4) 1.0369(3)
C16 C 0.1638(4) 0.4628(5) 1.2942(4)
H22 H 0.2388 0.4226 1.3160
C17 C 0.1161(5) 0.5526(5) 1.3678(4)
C18 C 0.0034(5) 0.6037(6) 1.3424(4)
H23 H -0.0453 0.5753 1.2786
C19 C -0.0394(7) 0.6966(9) 1.4097(6)
H24 H -0.1170 0.7299 1.3919
C20 C 0.0325(11) 0.7408(10) 1.5040(8)
H25 H 0.0043 0.8047 1.5497
C21 C 0.1428(10) 0.6907(10) 1.5286(6)
H26 H 0.1908 0.7210 1.5922
C22 C 0.1891(6) 0.5952(8) 1.4634(5)
H27 H 0.2663 0.5607 1.4828
loop_
_geom_bond_atom_site_label_1
_geom_bond_atom_site_label_2
_geom_bond_site_symmetry_1
_geom_bond_site_symmetry_2
S1 C15 1_555 1_555
O1 C1 1_555 1_555
O2 C2 1_555 1_555
O3 C6 1_555 1_555
O4 C3 1_555 1_555
O5 C8 1_555 1_555
O6 C4 1_555 1_555
O7 C10 1_555 1_555
O8 C12 1_555 1_555
O9 C13 1_555 1_555
N1 H1 1_555 1_555
N2 H2 1_555 1_555
N3 N2 1_555 1_555
C1 N1 1_555 1_555
H3 C1 1_555 1_555
C2 C1 1_555 1_555
H4 C2 1_555 1_555
C3 C2 1_555 1_555
H5 C3 1_555 1_555
C4 C3 1_555 1_555
H6 C4 1_555 1_555
C5 O1 1_555 1_555
H7 C5 1_555 1_555
C6 O2 1_555 1_555
C7 C6 1_555 1_555
H8 C7 1_555 1_555
H9 C7 1_555 1_555
H10 C7 1_555 1_555
C8 O4 1_555 1_555
C9 C8 1_555 1_555
H11 C9 1_555 1_555
H12 C9 1_555 1_555
H13 C9 1_555 1_555
C10 O6 1_555 1_555
C11 C10 1_555 1_555
H14 C11 1_555 1_555
H15 C11 1_555 1_555
H16 C11 1_555 1_555
C12 C5 1_555 1_555
H17 C12 1_555 1_555
H18 C12 1_555 1_555
C13 O8 1_555 1_555
C14 C13 1_555 1_555
H19 C14 1_555 1_555
H20 C14 1_555 1_555
H21 C14 1_555 1_555
C15 N1 1_555 1_555
C16 N3 1_555 1_555
H22 C16 1_555 1_555
C17 C16 1_555 1_555
C18 C17 1_555 1_555
H23 C18 1_555 1_555
C19 C18 1_555 1_555
H24 C19 1_555 1_555
C20 C19 1_555 1_555
H25 C20 1_555 1_555
C21 C20 1_555 1_555
H26 C21 1_555 1_555
C22 C17 1_555 1_555
H27 C22 1_555 1_555
N2 C15 1_555 1_555
C4 C5 1_555 1_555
C21 C22 1_555 1_555

#END
