
#######################################################################
#
#                 Cambridge Crystallographic Data Centre
#                                CCDC 
#
#######################################################################
#
# If this CIF has been generated from an entry in the Cambridge 
# Structural Database, then it will include bibliographic, chemical, 
# crystal, experimental, refinement or atomic coordinate data resulting 
# from the CCDC's data processing and validation procedures.
#
#######################################################################

data_GAVGEQ
_chemical_formula_moiety         'C11 H14 N2 O4'
_chemical_name_systematic        
"Dimethyl N,N'-(4-methyl-m-phenylene)dicarbamate"
_symmetry_cell_setting           triclinic
_symmetry_space_group_name_H-M   'P -1'
_symmetry_Int_Tables_number      2
_space_group_name_Hall           '-P 1'
loop_
_symmetry_equiv_pos_site_id
_symmetry_equiv_pos_as_xyz
1 x,y,z
2 -x,-y,-z
_cell_length_a                   7.4223(15)
_cell_length_b                   8.1444(16)
_cell_length_c                   10.642(2)
_cell_angle_alpha                74.01(3)
_cell_angle_beta                 71.64(3)
_cell_angle_gamma                75.44(3)
_cell_volume                     577.307
_exptl_crystal_colour            colorless
_exptl_crystal_description       needle
_chemical_melting_point          '446.5 K'
_cell_formula_units_Z            2
_exptl_crystal_recrystallization_method methanol
loop_
_atom_site_label
_atom_site_type_symbol
_atom_site_fract_x
_atom_site_fract_y
_atom_site_fract_z
O1 O -0.33340(17) 0.73705(15) 1.20270(12)
O2 O -0.37757(17) 0.91187(16) 1.34595(12)
O3 O 0.00446(19) 0.87208(15) 0.69320(12)
O4 O 0.08246(19) 0.62559(15) 0.61361(12)
N1 N -0.0934(2) 0.87128(17) 1.19914(13)
H1 H -0.0710 0.9405 1.2383
N2 N 0.1690(2) 0.62084(17) 0.79504(13)
H2 H 0.2115 0.5126 0.7941
C1 C -0.5723(3) 0.8800(3) 1.4021(2)
H3 H -0.6372 0.9418 1.4736
H4 H -0.5700 0.7579 1.4377
H5 H -0.6395 0.9192 1.3326
C2 C -0.2716(2) 0.83156(19) 1.24363(15)
C3 C 0.0603(2) 0.81108(19) 1.09499(15)
C4 C 0.2441(3) 0.8301(2) 1.08909(17)
H6 H 0.2612 0.8791 1.1529
C5 C 0.4019(2) 0.7761(2) 0.98834(18)
H7 H 0.5240 0.7887 0.9863
C6 C 0.3826(2) 0.7037(2) 0.89026(17)
C7 C 0.5543(3) 0.6479(3) 0.7805(2)
H8 H 0.5133 0.6009 0.7228
H9 H 0.6460 0.5610 0.8207
H10 H 0.6132 0.7463 0.7279
C8 C 0.1970(2) 0.68845(19) 0.89642(15)
C9 C 0.0363(2) 0.73963(19) 0.99751(15)
H11 H -0.0857 0.7263 1.0000
C10 C 0.0790(2) 0.71934(19) 0.70128(15)
C11 C -0.0015(3) 0.7180(2) 0.50313(17)
H12 H 0.0088 0.6400 0.4471
H13 H 0.0659 0.8112 0.4502
H14 H -0.1350 0.7644 0.5385
loop_
_geom_bond_atom_site_label_1
_geom_bond_atom_site_label_2
_geom_bond_site_symmetry_1
_geom_bond_site_symmetry_2
O1 C2 1_555 1_555
O2 C1 1_555 1_555
O3 C10 1_555 1_555
O4 C10 1_555 1_555
N1 H1 1_555 1_555
N2 H2 1_555 1_555
C1 H3 1_555 1_555
H4 C1 1_555 1_555
H5 C1 1_555 1_555
C2 O2 1_555 1_555
C3 N1 1_555 1_555
C4 C3 1_555 1_555
H6 C4 1_555 1_555
C5 C4 1_555 1_555
H7 C5 1_555 1_555
C6 C5 1_555 1_555
C7 C6 1_555 1_555
H8 C7 1_555 1_555
H9 C7 1_555 1_555
H10 C7 1_555 1_555
C8 N2 1_555 1_555
C9 C3 1_555 1_555
H11 C9 1_555 1_555
C10 N2 1_555 1_555
C11 O4 1_555 1_555
H12 C11 1_555 1_555
H13 C11 1_555 1_555
H14 C11 1_555 1_555
N1 C2 1_555 1_555
C6 C8 1_555 1_555
C8 C9 1_555 1_555

#END
