
#######################################################################
#
#                 Cambridge Crystallographic Data Centre
#                                CCDC 
#
#######################################################################
#
# If this CIF has been generated from an entry in the Cambridge 
# Structural Database, then it will include bibliographic, chemical, 
# crystal, experimental, refinement or atomic coordinate data resulting 
# from the CCDC's data processing and validation procedures.
#
#######################################################################

data_GAVHUH01
_chemical_formula_moiety         'C6 H5 N1 O3,C1 H4 N2 O1'
_chemical_name_systematic        '4-Nitrophenol urea'
_symmetry_cell_setting           triclinic
_symmetry_space_group_name_H-M   'P -1'
_symmetry_Int_Tables_number      2
_space_group_name_Hall           '-P 1'
loop_
_symmetry_equiv_pos_site_id
_symmetry_equiv_pos_as_xyz
1 x,y,z
2 -x,-y,-z
_cell_length_a                   3.7592(3)
_cell_length_b                   10.2160(8)
_cell_length_c                   11.7941(9)
_cell_angle_alpha                98.656(4)
_cell_angle_beta                 92.475(4)
_cell_angle_gamma                99.343(4)
_cell_volume                     440.778
_exptl_crystal_colour            yellow
_exptl_crystal_description       Plate
_cell_formula_units_Z            2
loop_
_atom_site_label
_atom_site_type_symbol
_atom_site_fract_x
_atom_site_fract_y
_atom_site_fract_z
O1 O 0.3244(3) 0.37071(11) 0.38272(8)
O2 O 0.7338(4) 0.31316(13) -0.12430(9)
O3 O 0.4144(4) 0.11761(13) -0.12787(9)
C1 C 0.5769(4) 0.42504(13) 0.21428(11)
C2 C 0.3773(3) 0.33182(12) 0.27200(10)
N1 N 0.5483(4) 0.22957(13) -0.07697(10)
C3 C 0.4890(3) 0.26453(12) 0.04321(10)
C4 C 0.6314(3) 0.39231(13) 0.09984(11)
C5 C 0.2953(4) 0.16990(13) 0.09953(11)
C6 C 0.2374(4) 0.20340(13) 0.21370(11)
H1 H 0.201(5) 0.0809(19) 0.0608(15)
H2 H 0.096(5) 0.1379(18) 0.2532(15)
H3 H 0.770(4) 0.4578(14) 0.0597(12)
H4 H 0.677(4) 0.5131(16) 0.2576(13)
H5 H 0.185(6) 0.297(2) 0.4041(18)
N2 N 0.8071(5) 0.09023(14) 0.62645(11)
O4 O 0.9670(3) 0.17149(10) 0.46639(8)
C7 C 0.8540(4) 0.18871(13) 0.56429(10)
N3 N 0.7832(4) 0.30864(13) 0.61225(11)
H6 H 0.856(5) 0.017(2) 0.5997(16)
H7 H 0.701(6) 0.094(2) 0.6911(19)
H8 H 0.701(5) 0.3127(18) 0.6803(18)
H9 H 0.781(5) 0.374(2) 0.5701(16)
loop_
_geom_bond_atom_site_label_1
_geom_bond_atom_site_label_2
_geom_bond_site_symmetry_1
_geom_bond_site_symmetry_2
O1 C2 1_555 1_555
O2 N1 1_555 1_555
O3 N1 1_555 1_555
C1 C2 1_555 1_555
C2 C6 1_555 1_555
N1 C3 1_555 1_555
C3 C4 1_555 1_555
C4 C1 1_555 1_555
C5 C3 1_555 1_555
C6 C5 1_555 1_555
H1 C5 1_555 1_555
H2 C6 1_555 1_555
H3 C4 1_555 1_555
H4 C1 1_555 1_555
H5 O1 1_555 1_555
N2 C7 1_555 1_555
O4 C7 1_555 1_555
C7 N3 1_555 1_555
N3 H8 1_555 1_555
H6 N2 1_555 1_555
H7 N2 1_555 1_555
H9 N3 1_555 1_555

#END
