
#######################################################################
#
#                 Cambridge Crystallographic Data Centre
#                                CCDC 
#
#######################################################################
#
# If this CIF has been generated from an entry in the Cambridge 
# Structural Database, then it will include bibliographic, chemical, 
# crystal, experimental, refinement or atomic coordinate data resulting 
# from the CCDC's data processing and validation procedures.
#
#######################################################################

data_GAVHAO
_chemical_formula_moiety         'C45 H40 B1 N1'
_chemical_name_systematic        
2-(4-(8-(4-(Dimesitylboryl)phenyl)-1-naphthyl)phenyl)pyridine
_symmetry_cell_setting           triclinic
_symmetry_space_group_name_H-M   'P -1'
_symmetry_Int_Tables_number      2
_space_group_name_Hall           '-P 1'
loop_
_symmetry_equiv_pos_site_id
_symmetry_equiv_pos_as_xyz
1 x,y,z
2 -x,-y,-z
_cell_length_a                   12.377(3)
_cell_length_b                   15.585(4)
_cell_length_c                   19.596(5)
_cell_angle_alpha                93.572(3)
_cell_angle_beta                 104.934(3)
_cell_angle_gamma                110.558(3)
_cell_volume                     3370.59
_exptl_crystal_colour            colorless
_exptl_crystal_description       plate
_cell_formula_units_Z            4
loop_
_atom_site_label
_atom_site_type_symbol
_atom_site_fract_x
_atom_site_fract_y
_atom_site_fract_z
N1 N 0.6327(2) 0.15389(17) -0.04797(13)
C1 C 0.7906(2) 0.29966(16) 0.26154(13)
B2 B 0.8468(2) 0.4026(2) 0.25210(15)
C3 C 0.8117(2) 0.15489(17) 0.28885(13)
H1 H 0.8623 0.1209 0.3009
C5 C 0.8601(2) 0.24501(17) 0.27814(13)
H3 H 0.9437 0.2714 0.2821
C7 C 0.6886(2) 0.11273(16) 0.28215(13)
C9 C 0.6180(2) 0.16589(17) 0.26659(13)
H5 H 0.5344 0.1392 0.2629
C11 C 0.6676(2) 0.25645(17) 0.25650(13)
H7 H 0.6171 0.2908 0.2458
C13 C 0.7551(2) 0.45016(16) 0.22096(13)
C15 C 0.7475(2) 0.52078(17) 0.26595(15)
C17 C 0.6536(2) 0.55179(18) 0.24347(16)
H9 H 0.6482 0.5981 0.2748
C19 C 0.5681(2) 0.51746(19) 0.17720(17)
C21 C 0.5772(2) 0.45021(19) 0.13174(16)
H11 H 0.5204 0.4273 0.0853
C23 C 0.6681(2) 0.41551(17) 0.15298(14)
C25 C 0.4659(3) 0.5522(2) 0.1548(2)
H13 H 0.4940 0.6173 0.1772
H14 H 0.3974 0.5144 0.1702
H15 H 0.4405 0.5474 0.1026
C27 C 0.6696(3) 0.3403(2) 0.10012(15)
H19 H 0.5903 0.2890 0.0847
H20 H 0.7315 0.3170 0.1233
H21 H 0.6881 0.3664 0.0584
C29 C 0.8353(3) 0.5611(2) 0.34037(16)
H25 H 0.8382 0.6234 0.3549
H26 H 0.9160 0.5651 0.3402
H27 H 0.8085 0.5210 0.3742
C31 C 0.9894(2) 0.45350(16) 0.27550(13)
C33 C 1.0626(2) 0.45737(17) 0.34508(14)
C35 C 1.1882(2) 0.49927(18) 0.36230(15)
H31 H 1.2359 0.5008 0.4092
C37 C 1.2456(2) 0.53843(18) 0.31384(15)
C39 C 1.1746(2) 0.53429(18) 0.24523(15)
H33 H 1.2128 0.5599 0.2108
C41 C 1.0487(2) 0.49340(16) 0.22546(14)
C43 C 0.9795(2) 0.4917(2) 0.14980(15)
H35 H 1.0350 0.5297 0.1258
H36 H 0.9172 0.5167 0.1502
H37 H 0.9411 0.4275 0.1240
C46 C 1.3820(3) 0.5850(2) 0.3349(2)
H44 H 1.4141 0.6067 0.3867
H45 H 1.4047 0.6380 0.3099
H46 H 1.4155 0.5403 0.3216
C47 C 1.0118(3) 0.4208(2) 0.40474(15)
H47 H 1.0519 0.4678 0.4483
H48 H 1.0259 0.3639 0.4140
H49 H 0.9247 0.4069 0.3904
C49 C 0.6380(2) 0.01673(16) 0.29716(13)
C51 C 0.5608(2) 0.00075(18) 0.33907(14)
H53 H 0.5299 0.0467 0.3483
C53 C 0.5266(3) -0.08049(19) 0.36821(15)
H55 H 0.4684 -0.0917 0.3935
C55 C 0.5770(3) -0.14324(19) 0.36011(16)
H57 H 0.5609 -0.1951 0.3844
C57 C 0.6531(2) -0.13265(18) 0.31609(15)
C59 C 0.7082(3) -0.19746(19) 0.30907(17)
H59 H 0.6956 -0.2472 0.3356
C61 C 0.7780(3) -0.1895(2) 0.26520(18)
H61 H 0.8189 -0.2307 0.2637
C63 C 0.7903(2) -0.12075(19) 0.22196(16)
H63 H 0.8357 -0.1186 0.1893
C65 C 0.7383(2) -0.05573(17) 0.22529(14)
C67 C 0.6766(2) -0.05604(17) 0.27845(13)
C69 C 0.6354(2) 0.01596(17) 0.13083(13)
H65 H 0.5626 -0.0127 0.1426
C71 C 0.7398(2) 0.00415(17) 0.16886(13)
C73 C 0.8434(2) 0.04618(19) 0.14824(15)
H67 H 0.9159 0.0390 0.1725
C75 C 0.8435(2) 0.09782(19) 0.09370(15)
H69 H 0.9157 0.1246 0.0809
C77 C 0.7401(2) 0.11162(17) 0.05697(13)
C79 C 0.6355(2) 0.06838(18) 0.07649(14)
H71 H 0.5628 0.0752 0.0519
C81 C 0.7405(2) 0.16881(18) -0.00043(14)
C83 C 0.8457(3) 0.2347(2) -0.00584(17)
H73 H 0.9210 0.2448 0.0282
C85 C 0.8416(3) 0.2855(2) -0.0602(2)
H75 H 0.9139 0.3309 -0.0641
C87 C 0.7327(3) 0.2705(2) -0.10907(19)
H77 H 0.7275 0.3048 -0.1473
C89 C 0.6319(3) 0.2047(2) -0.10097(17)
H79 H 0.5563 0.1940 -0.1349
N2 N 0.0265(3) -0.1792(2) 0.15988(16)
C2 C 0.2802(2) 0.23779(16) 0.30626(12)
B1 B 0.3071(2) 0.21667(18) 0.38409(15)
C4 C 0.1684(2) 0.24061(17) 0.26958(13)
H2 H 0.1072 0.2280 0.2927
C6 C 0.1443(2) 0.26112(17) 0.20110(13)
H4 H 0.0679 0.2636 0.1785
C8 C 0.2312(2) 0.27830(16) 0.16479(12)
C10 C 0.3435(2) 0.27626(16) 0.20049(12)
H6 H 0.4044 0.2883 0.1771
C12 C 0.3667(2) 0.25694(16) 0.26910(12)
H8 H 0.4441 0.2566 0.2922
C14 C 0.1959(2) 0.17222(17) 0.41364(12)
C16 C 0.1826(2) 0.22206(17) 0.47161(13)
C18 C 0.0782(2) 0.18708(19) 0.49268(14)
H10 H 0.0699 0.2222 0.5310
C20 C -0.0138(2) 0.10238(19) 0.45906(14)
C22 C 0.0005(2) 0.05237(18) 0.40316(13)
H12 H -0.0610 -0.0064 0.3802
C24 C 0.1023(2) 0.08593(17) 0.37993(13)
C26 C 0.2777(2) 0.31614(19) 0.50926(15)
H16 H 0.2602 0.3357 0.5523
H17 H 0.2771 0.3617 0.4770
H18 H 0.3575 0.3121 0.5229
C28 C -0.1288(2) 0.0662(2) 0.48045(16)
H22 H -0.1107 0.0879 0.5317
H23 H -0.1623 -0.0020 0.4708
H24 H -0.1878 0.0891 0.4527
C30 C 0.1096(2) 0.02511(19) 0.31938(14)
H28 H 0.0365 0.0084 0.2787
H29 H 0.1164 -0.0315 0.3356
H30 H 0.1807 0.0591 0.3047
C32 C 0.4436(2) 0.23999(17) 0.42761(12)
C34 C 0.5341(2) 0.32857(17) 0.43644(13)
C36 C 0.6561(2) 0.34391(18) 0.46817(14)
H32 H 0.7161 0.4039 0.4727
C38 C 0.6910(2) 0.27376(19) 0.49300(14)
C40 C 0.6020(2) 0.18672(19) 0.48511(13)
H34 H 0.6249 0.1379 0.5018
C42 C 0.4799(2) 0.16829(17) 0.45342(13)
C44 C 0.3896(2) 0.07057(18) 0.44427(15)
H38 H 0.4289 0.0337 0.4719
H39 H 0.3586 0.0426 0.3935
H40 H 0.3224 0.0719 0.4615
C45 C 0.8236(2) 0.2920(2) 0.52714(19)
H41 H 0.8652 0.3553 0.5543
H42 H 0.8606 0.2849 0.4896
H43 H 0.8307 0.2474 0.5595
C48 C 0.5074(2) 0.41194(18) 0.41393(15)
H50 H 0.5449 0.4633 0.4546
H51 H 0.4198 0.3955 0.3982
H52 H 0.5403 0.4310 0.3744
C50 C 0.2108(2) 0.30712(17) 0.09335(13)
C52 C 0.1653(2) 0.37572(19) 0.08432(14)
H54 H 0.1316 0.3918 0.1192
C54 C 0.1667(3) 0.4228(2) 0.02574(16)
H56 H 0.1308 0.4677 0.0199
C56 C 0.2200(3) 0.4035(2) -0.02262(16)
H58 H 0.2271 0.4389 -0.0602
C58 C 0.2649(2) 0.3316(2) -0.01780(14)
C60 C 0.3235(3) 0.3143(2) -0.06758(15)
H60 H 0.3323 0.3513 -0.1040
C62 C 0.3666(3) 0.2458(3) -0.06362(16)
H62 H 0.4117 0.2384 -0.0946
C64 C 0.3457(2) 0.1861(2) -0.01468(14)
H64 H 0.3722 0.1358 -0.0151
C66 C 0.2873(2) 0.19717(19) 0.03477(13)
C68 C 0.2538(2) 0.27692(18) 0.03753(13)
C70 C 0.1316(2) 0.07475(19) 0.07339(14)
H66 H 0.0723 0.0961 0.0478
C72 C 0.2527(2) 0.12104(18) 0.07616(13)
C74 C 0.3357(2) 0.08626(19) 0.11381(14)
H68 H 0.4182 0.1149 0.1157
C76 C 0.3012(2) 0.01163(18) 0.14819(15)
H70 H 0.3606 -0.0094 0.1740
C78 C 0.1804(2) -0.03411(18) 0.14601(14)
C80 C 0.0965(2) -0.00114(19) 0.10698(14)
H72 H 0.0135 -0.0315 0.1034
C82 C 0.1449(3) -0.11425(19) 0.18312(16)
C84 C 0.2270(2) -0.12334(18) 0.23945(15)
H74 H 0.3071 -0.0778 0.2558
C86 C 0.1949(3) -0.1968(2) 0.27221(19)
H76 H 0.2543 -0.2029 0.3112
C88 C 0.0801(3) -0.2639(2) 0.25203(19)
H78 H 0.0594 -0.3150 0.2767
C90 C -0.0038(3) -0.2542(2) 0.19496(19)
H80 H -0.0838 -0.2999 0.1794
loop_
_geom_bond_atom_site_label_1
_geom_bond_atom_site_label_2
_geom_bond_site_symmetry_1
_geom_bond_site_symmetry_2
N1 C81 1_555 1_555
C1 B2 1_555 1_555
N2 C82 1_555 1_555
C2 B1 1_555 1_555
B1 C14 1_555 1_555
B2 C13 1_555 1_555
C3 H1 1_555 1_555
C4 C2 1_555 1_555
H2 C4 1_555 1_555
C5 C1 1_555 1_555
H3 C5 1_555 1_555
C6 C4 1_555 1_555
H4 C6 1_555 1_555
C7 C3 1_555 1_555
C8 C6 1_555 1_555
C9 C7 1_555 1_555
H5 C9 1_555 1_555
C10 C8 1_555 1_555
H6 C10 1_555 1_555
C11 C1 1_555 1_555
H7 C11 1_555 1_555
C12 C2 1_555 1_555
H8 C12 1_555 1_555
C13 C15 1_555 1_555
C14 C16 1_555 1_555
C15 C17 1_555 1_555
C16 C18 1_555 1_555
C17 H9 1_555 1_555
C18 H10 1_555 1_555
C19 C17 1_555 1_555
C20 C18 1_555 1_555
C21 C19 1_555 1_555
H11 C21 1_555 1_555
C22 C20 1_555 1_555
H12 C22 1_555 1_555
C23 C13 1_555 1_555
C24 C14 1_555 1_555
C25 C19 1_555 1_555
H13 C25 1_555 1_555
H14 C25 1_555 1_555
H15 C25 1_555 1_555
C26 C16 1_555 1_555
H16 C26 1_555 1_555
H17 C26 1_555 1_555
H18 C26 1_555 1_555
C27 C23 1_555 1_555
H19 C27 1_555 1_555
H20 C27 1_555 1_555
H21 C27 1_555 1_555
C28 C20 1_555 1_555
H22 C28 1_555 1_555
H23 C28 1_555 1_555
H24 C28 1_555 1_555
C29 C15 1_555 1_555
H25 C29 1_555 1_555
H26 C29 1_555 1_555
H27 C29 1_555 1_555
C30 C24 1_555 1_555
H28 C30 1_555 1_555
H29 C30 1_555 1_555
H30 C30 1_555 1_555
C31 B2 1_555 1_555
C32 B1 1_555 1_555
C33 C31 1_555 1_555
C34 C32 1_555 1_555
C35 C33 1_555 1_555
H31 C35 1_555 1_555
C36 C34 1_555 1_555
H32 C36 1_555 1_555
C37 C35 1_555 1_555
C38 C36 1_555 1_555
C39 C37 1_555 1_555
H33 C39 1_555 1_555
C40 C38 1_555 1_555
H34 C40 1_555 1_555
C41 C31 1_555 1_555
C42 C32 1_555 1_555
C43 C41 1_555 1_555
H35 C43 1_555 1_555
H36 C43 1_555 1_555
H37 C43 1_555 1_555
C44 C42 1_555 1_555
H38 C44 1_555 1_555
H39 C44 1_555 1_555
H40 C44 1_555 1_555
C45 C38 1_555 1_555
H41 C45 1_555 1_555
H42 C45 1_555 1_555
H43 C45 1_555 1_555
C46 C37 1_555 1_555
H44 C46 1_555 1_555
H45 C46 1_555 1_555
H46 C46 1_555 1_555
C47 C33 1_555 1_555
H47 C47 1_555 1_555
H48 C47 1_555 1_555
H49 C47 1_555 1_555
C48 C34 1_555 1_555
H50 C48 1_555 1_555
H51 C48 1_555 1_555
H52 C48 1_555 1_555
C49 C7 1_555 1_555
C50 C8 1_555 1_555
C51 C49 1_555 1_555
H53 C51 1_555 1_555
C52 C50 1_555 1_555
H54 C52 1_555 1_555
C53 C51 1_555 1_555
H55 C53 1_555 1_555
C54 C52 1_555 1_555
H56 C54 1_555 1_555
C55 C53 1_555 1_555
H57 C55 1_555 1_555
C56 C54 1_555 1_555
H58 C56 1_555 1_555
C57 C55 1_555 1_555
C58 C56 1_555 1_555
C59 C57 1_555 1_555
H59 C59 1_555 1_555
C60 C58 1_555 1_555
H60 C60 1_555 1_555
C61 C59 1_555 1_555
H61 C61 1_555 1_555
C62 C60 1_555 1_555
H62 C62 1_555 1_555
C63 C61 1_555 1_555
H63 C63 1_555 1_555
C64 C62 1_555 1_555
H64 C64 1_555 1_555
C65 C63 1_555 1_555
C66 C64 1_555 1_555
C67 C49 1_555 1_555
C68 C50 1_555 1_555
C69 H65 1_555 1_555
C70 H66 1_555 1_555
C71 C65 1_555 1_555
C72 C66 1_555 1_555
C73 C71 1_555 1_555
H67 C73 1_555 1_555
C74 C72 1_555 1_555
H68 C74 1_555 1_555
C75 C73 1_555 1_555
H69 C75 1_555 1_555
C76 C74 1_555 1_555
H70 C76 1_555 1_555
C77 C75 1_555 1_555
C78 C76 1_555 1_555
C79 C69 1_555 1_555
H71 C79 1_555 1_555
C80 C70 1_555 1_555
H72 C80 1_555 1_555
C81 C77 1_555 1_555
C82 C78 1_555 1_555
C83 C81 1_555 1_555
H73 C83 1_555 1_555
C84 C82 1_555 1_555
H74 C84 1_555 1_555
C85 C83 1_555 1_555
H75 C85 1_555 1_555
C86 C84 1_555 1_555
H76 C86 1_555 1_555
C87 C85 1_555 1_555
H77 C87 1_555 1_555
C88 C86 1_555 1_555
H78 C88 1_555 1_555
C89 N1 1_555 1_555
H79 C89 1_555 1_555
C90 N2 1_555 1_555
H80 C90 1_555 1_555
C3 C5 1_555 1_555
C9 C11 1_555 1_555
C10 C12 1_555 1_555
C21 C23 1_555 1_555
C22 C24 1_555 1_555
C39 C41 1_555 1_555
C40 C42 1_555 1_555
C57 C67 1_555 1_555
C58 C68 1_555 1_555
C65 C67 1_555 1_555
C66 C68 1_555 1_555
C69 C71 1_555 1_555
C70 C72 1_555 1_555
C77 C79 1_555 1_555
C78 C80 1_555 1_555
C87 C89 1_555 1_555
C88 C90 1_555 1_555

#END
