
#######################################################################
#
#                 Cambridge Crystallographic Data Centre
#                                CCDC 
#
#######################################################################
#
# If this CIF has been generated from an entry in the Cambridge 
# Structural Database, then it will include bibliographic, chemical, 
# crystal, experimental, refinement or atomic coordinate data resulting 
# from the CCDC's data processing and validation procedures.
#
#######################################################################

data_GAVQIE
_chemical_formula_moiety         'C9 H9 N3 O5'
_chemical_name_systematic        N-(2-Methyl-3,6-dinitrophenyl)acetamide
_symmetry_cell_setting           monoclinic
_symmetry_space_group_name_H-M   'P 21'
_symmetry_Int_Tables_number      4
_space_group_name_Hall           'P 2yb'
loop_
_symmetry_equiv_pos_site_id
_symmetry_equiv_pos_as_xyz
1 x,y,z
2 -x,1/2+y,-z
_cell_length_a                   4.9309(2)
_cell_length_b                   11.7571(4)
_cell_length_c                   8.7944(3)
_cell_angle_alpha                90
_cell_angle_beta                 99.8608(14)
_cell_angle_gamma                90
_cell_volume                     502.307
_exptl_crystal_colour            'pale yellow'
_exptl_crystal_description       lath
_cell_formula_units_Z            2
loop_
_atom_site_label
_atom_site_type_symbol
_atom_site_fract_x
_atom_site_fract_y
_atom_site_fract_z
C1 C 0.4948(3) 0.14319(14) 0.28928(18)
C2 C 0.7148(3) 0.18283(14) 0.39815(18)
N1 N 0.8638(3) 0.10778(13) 0.51881(15)
O1 O 0.7326(3) 0.03921(12) 0.58113(14)
O2 O 1.1140(2) 0.12260(12) 0.55405(15)
C3 C 0.8003(3) 0.29526(15) 0.40571(18)
C4 C 0.6540(3) 0.37335(15) 0.30692(19)
C5 C 0.4280(3) 0.33503(15) 0.20287(18)
C6 C 0.3458(3) 0.22171(15) 0.18546(18)
C7 C 0.1222(3) 0.17863(15) 0.06026(19)
N2 N 0.2738(3) 0.42462(13) 0.10628(16)
O3 O 0.4046(3) 0.50665(11) 0.07238(15)
O4 O 0.0249(2) 0.41328(11) 0.06852(15)
N3 N 0.4172(3) 0.02758(12) 0.27649(17)
C8 C 0.5946(3) -0.05962(14) 0.26833(18)
O5 O 0.8450(2) -0.04647(11) 0.28353(14)
C9 C 0.4615(3) -0.17467(14) 0.2390(2)
H1 H 0.9522 0.3189 0.4777
H2 H 0.7032 0.4511 0.3102
H3 H 0.2672 -0.1711 0.2518
H4 H 0.4683 -0.1941 0.1353
H5 H 0.5585 -0.2301 0.3078
H6 H 0.2481 0.0118 0.2655
H7 H 0.1742 0.1034 0.0229
H8 H -0.0511 0.1712 0.1004
H9 H 0.0949 0.2334 -0.0280
loop_
_geom_bond_atom_site_label_1
_geom_bond_atom_site_label_2
_geom_bond_site_symmetry_1
_geom_bond_site_symmetry_2
C1 C2 1_555 1_555
C2 N1 1_555 1_555
N1 O1 1_555 1_555
O2 N1 1_555 1_555
C3 C2 1_555 1_555
C4 C3 1_555 1_555
C5 C4 1_555 1_555
C6 C1 1_555 1_555
C7 C6 1_555 1_555
N2 C5 1_555 1_555
O3 N2 1_555 1_555
O4 N2 1_555 1_555
N3 C1 1_555 1_555
C8 N3 1_555 1_555
O5 C8 1_555 1_555
C9 C8 1_555 1_555
H1 C3 1_555 1_555
H2 C4 1_555 1_555
H3 C9 1_555 1_555
H4 C9 1_555 1_555
H5 C9 1_555 1_555
H6 N3 1_555 1_555
H7 C7 1_555 1_555
H8 C7 1_555 1_555
H9 C7 1_555 1_555
C5 C6 1_555 1_555

#END
