
#######################################################################
#
#                 Cambridge Crystallographic Data Centre
#                                CCDC 
#
#######################################################################
#
# If this CIF has been generated from an entry in the Cambridge 
# Structural Database, then it will include bibliographic, chemical, 
# crystal, experimental, refinement or atomic coordinate data resulting 
# from the CCDC's data processing and validation procedures.
#
#######################################################################

data_GAVRIF
_chemical_formula_moiety         'C14 H12 O4'
_chemical_name_systematic        'Dimethyl naphthalene-1,8-dicarboxylate'
_symmetry_cell_setting           orthorhombic
_symmetry_space_group_name_H-M   'P 21 21 21'
_symmetry_Int_Tables_number      19
_space_group_name_Hall           'P 2ac 2ab'
loop_
_symmetry_equiv_pos_site_id
_symmetry_equiv_pos_as_xyz
1 x,y,z
2 1/2+x,1/2-y,-z
3 -x,1/2+y,1/2-z
4 1/2-x,-y,1/2+z
_cell_length_a                   5.9561(13)
_cell_length_b                   12.043(5)
_cell_length_c                   16.512(6)
_cell_angle_alpha                90
_cell_angle_beta                 90
_cell_angle_gamma                90
_cell_volume                     1184.39
_exptl_crystal_colour            colorless
_exptl_crystal_description       Block
_cell_formula_units_Z            4
_exptl_crystal_recrystallization_method methanol
loop_
_atom_site_label
_atom_site_type_symbol
_atom_site_fract_x
_atom_site_fract_y
_atom_site_fract_z
O1 O 0.1594(8) 0.0842(3) 0.8608(2)
O2 O 0.5210(8) 0.0833(4) 0.8218(2)
O3 O 0.4366(8) -0.1405(3) 0.8766(2)
O4 O 0.7858(9) -0.1519(4) 0.8240(2)
C1 C 0.4284(11) 0.0788(4) 0.9634(3)
C2 C 0.3182(12) 0.1512(4) 1.0103(3)
H1 H 0.1990 0.1903 0.9877
C3 C 0.3725(16) 0.1713(5) 1.0915(3)
H2 H 0.2865 0.2187 1.1234
C4 C 0.5571(16) 0.1183(5) 1.1219(3)
H3 H 0.6029 0.1342 1.1745
C5 C 0.8696(14) -0.0115(5) 1.1093(4)
H4 H 0.9129 0.0051 1.1620
C6 C 0.9913(13) -0.0855(6) 1.0659(4)
H5 H 1.1199 -0.1170 1.0882
C7 C 0.9242(13) -0.1143(5) 0.9885(4)
H6 H 1.0091 -0.1647 0.9588
C8 C 0.7320(11) -0.0690(4) 0.9547(3)
C9 C 0.6162(11) 0.0158(4) 0.9957(3)
C10 C 0.6793(13) 0.0410(4) 1.0765(3)
C11 C 0.3795(11) 0.0803(4) 0.8740(4)
C12 C 0.0944(13) 0.0954(5) 0.7772(3)
H7 H -0.0663 0.0979 0.7734
H8 H 0.1498 0.0330 0.7469
H9 H 0.1565 0.1626 0.7554
C13 C 0.6627(12) -0.1220(4) 0.8771(4)
C14 C 0.3524(13) -0.1894(5) 0.8033(3)
H10 H 0.1928 -0.1989 0.8075
H11 H 0.4222 -0.2604 0.7950
H12 H 0.3858 -0.1417 0.7583
loop_
_geom_bond_atom_site_label_1
_geom_bond_atom_site_label_2
_geom_bond_site_symmetry_1
_geom_bond_site_symmetry_2
O1 C11 1_555 1_555
O2 C11 1_555 1_555
O3 C13 1_555 1_555
O4 C13 1_555 1_555
C1 C2 1_555 1_555
C2 H1 1_555 1_555
C3 C2 1_555 1_555
H2 C3 1_555 1_555
C4 C3 1_555 1_555
H3 C4 1_555 1_555
C5 H4 1_555 1_555
C6 C5 1_555 1_555
H5 C6 1_555 1_555
C7 C6 1_555 1_555
H6 C7 1_555 1_555
C8 C7 1_555 1_555
C9 C1 1_555 1_555
C10 C4 1_555 1_555
C11 C1 1_555 1_555
C12 O1 1_555 1_555
H7 C12 1_555 1_555
H8 C12 1_555 1_555
H9 C12 1_555 1_555
C13 C8 1_555 1_555
C14 O3 1_555 1_555
H10 C14 1_555 1_555
H11 C14 1_555 1_555
H12 C14 1_555 1_555
C5 C10 1_555 1_555
C8 C9 1_555 1_555
C9 C10 1_555 1_555

#END
