
#######################################################################
#
#                 Cambridge Crystallographic Data Centre
#                                CCDC 
#
#######################################################################
#
# If this CIF has been generated from an entry in the Cambridge 
# Structural Database, then it will include bibliographic, chemical, 
# crystal, experimental, refinement or atomic coordinate data resulting 
# from the CCDC's data processing and validation procedures.
#
#######################################################################

data_GAVRUR
_chemical_formula_moiety         'C18 H15 N3 O3,H2 O1'
_chemical_name_systematic        
"N'-(2-Hydroxybenzylidene)-2-(quinolin-8-yloxy)acetohydrazide monohydrate"
_symmetry_cell_setting           orthorhombic
_symmetry_space_group_name_H-M   'P 21 21 21'
_symmetry_Int_Tables_number      19
_space_group_name_Hall           'P 2ac 2ab'
loop_
_symmetry_equiv_pos_site_id
_symmetry_equiv_pos_as_xyz
1 x,y,z
2 1/2-x,-y,1/2+z
3 -x,1/2+y,1/2-z
4 1/2+x,1/2-y,-z
_cell_length_a                   4.6661(12)
_cell_length_b                   15.110(4)
_cell_length_c                   23.314(6)
_cell_angle_alpha                90
_cell_angle_beta                 90
_cell_angle_gamma                90
_cell_volume                     1643.75
_exptl_crystal_colour            colorless
_exptl_crystal_description       Plate
_cell_formula_units_Z            4
_exptl_crystal_recrystallization_method THF/methanol
loop_
_atom_site_label
_atom_site_type_symbol
_atom_site_fract_x
_atom_site_fract_y
_atom_site_fract_z
O1 O 0.3629(7) 0.42857(17) 0.17480(12)
O2 O -0.0655(9) 0.57718(18) 0.25640(15)
O3 O -0.5015(9) 0.4943(2) 0.38917(13)
H1 H -0.3872 0.4931 0.3625
N1 N 0.5978(9) 0.2706(2) 0.15235(14)
N2 N -0.0330(8) 0.4279(2) 0.25852(14)
H2 H 0.0411 0.3804 0.2445
N3 N -0.2297(8) 0.4245(2) 0.30244(14)
C1 C 0.7155(13) 0.1933(3) 0.1413(2)
H3 H 0.6602 0.1451 0.1635
C2 C 0.9184(13) 0.1794(3) 0.0983(2)
H4 H 0.9990 0.1238 0.0928
C3 C 0.9954(12) 0.2479(4) 0.0648(2)
H5 H 1.1294 0.2395 0.0358
C4 C 0.8738(11) 0.3326(3) 0.07346(18)
C5 C 0.9389(11) 0.4074(3) 0.03877(19)
H6 H 1.0658 0.4021 0.0082
C6 C 0.8139(11) 0.4868(3) 0.0506(2)
H7 H 0.8583 0.5356 0.0280
C7 C 0.6210(10) 0.4969(3) 0.09589(18)
H8 H 0.5393 0.5520 0.1030
C8 C 0.5510(10) 0.4262(3) 0.12995(17)
C9 C 0.6748(10) 0.3413(3) 0.11871(16)
C10 C 0.2552(10) 0.5132(3) 0.19118(17)
H9 H 0.1684 0.5412 0.1580
H10 H 0.4140 0.5500 0.2035
C11 C 0.0393(10) 0.5088(3) 0.23826(18)
C12 C -0.3317(10) 0.3488(3) 0.31575(16)
H11 H -0.2740 0.2987 0.2956
C13 C -0.5382(10) 0.3404(3) 0.36241(16)
C14 C -0.6144(10) 0.4119(3) 0.39707(18)
C15 C -0.8104(12) 0.4016(3) 0.44068(19)
H12 H -0.8613 0.4497 0.4634
C16 C -0.9320(12) 0.3192(4) 0.4508(2)
H13 H -1.0598 0.3120 0.4810
C17 C -0.8655(11) 0.2481(4) 0.4165(2)
H14 H -0.9537 0.1936 0.4224
C18 C -0.6664(11) 0.2585(3) 0.37338(18)
H15 H -0.6161 0.2099 0.3510
O4 O 0.1903(9) 0.2598(2) 0.23755(15)
H16 H 0.314(9) 0.262(3) 0.2114(18)
H17 H 0.124(14) 0.2086(19) 0.240(3)
loop_
_geom_bond_atom_site_label_1
_geom_bond_atom_site_label_2
_geom_bond_site_symmetry_1
_geom_bond_site_symmetry_2
O1 C8 1_555 1_555
O2 C11 1_555 1_555
O3 H1 1_555 1_555
N1 C1 1_555 1_555
N2 H2 1_555 1_555
N3 N2 1_555 1_555
C1 H3 1_555 1_555
C2 C1 1_555 1_555
H4 C2 1_555 1_555
C3 C2 1_555 1_555
H5 C3 1_555 1_555
C4 C3 1_555 1_555
C5 C4 1_555 1_555
H6 C5 1_555 1_555
C6 C5 1_555 1_555
H7 C6 1_555 1_555
C7 C6 1_555 1_555
H8 C7 1_555 1_555
C8 C7 1_555 1_555
C9 N1 1_555 1_555
C10 O1 1_555 1_555
H9 C10 1_555 1_555
H10 C10 1_555 1_555
C11 N2 1_555 1_555
C12 N3 1_555 1_555
H11 C12 1_555 1_555
C13 C12 1_555 1_555
C14 O3 1_555 1_555
C15 C14 1_555 1_555
H12 C15 1_555 1_555
C16 C15 1_555 1_555
H13 C16 1_555 1_555
C17 C16 1_555 1_555
H14 C17 1_555 1_555
C18 C13 1_555 1_555
H15 C18 1_555 1_555
O4 H16 1_555 1_555
H17 O4 1_555 1_555
C4 C9 1_555 1_555
C8 C9 1_555 1_555
C10 C11 1_555 1_555
C13 C14 1_555 1_555
C17 C18 1_555 1_555

#END
