
#######################################################################
#
#                 Cambridge Crystallographic Data Centre
#                                CCDC 
#
#######################################################################
#
# If this CIF has been generated from an entry in the Cambridge 
# Structural Database, then it will include bibliographic, chemical, 
# crystal, experimental, refinement or atomic coordinate data resulting 
# from the CCDC's data processing and validation procedures.
#
#######################################################################

data_GAVVIJ
_chemical_formula_moiety         'C14 H15 N5 O1'
_chemical_name_systematic        
1-(4,5-Dihydro-3-p-tolyl-1H-pyrazol-1-yl)-2-(1,2,4-triazol-1-yl)ethanone
_symmetry_cell_setting           monoclinic
_symmetry_space_group_name_H-M   'P 21/c'
_symmetry_Int_Tables_number      14
_space_group_name_Hall           '-P 2ybc'
loop_
_symmetry_equiv_pos_site_id
_symmetry_equiv_pos_as_xyz
1 x,y,z
2 -x,1/2+y,1/2-z
3 -x,-y,-z
4 x,1/2-y,1/2+z
_cell_length_a                   5.2398(10)
_cell_length_b                   17.978(3)
_cell_length_c                   14.476(3)
_cell_angle_alpha                90
_cell_angle_beta                 94.064(3)
_cell_angle_gamma                90
_cell_volume                     1360.23
_exptl_crystal_colour            white
_exptl_crystal_description       block
_cell_formula_units_Z            4
_exptl_crystal_recrystallization_method 'acetone/ethanol 1:2'
loop_
_atom_site_label
_atom_site_type_symbol
_atom_site_fract_x
_atom_site_fract_y
_atom_site_fract_z
O1 O 0.1837(3) 0.69414(8) 0.24701(9)
N1 N 0.3109(3) 0.66449(9) 0.10775(10)
N2 N 0.4825(3) 0.62748(9) 0.05399(10)
N3 N 0.5793(3) 0.61871(9) 0.34080(10)
N4 N 0.4239(4) 0.58073(11) 0.39461(13)
N5 N 0.7100(4) 0.64886(12) 0.48184(12)
C1 C 0.1286(4) 0.71127(13) 0.05248(14)
H1 H 0.1366 0.7626 0.0733
H2 H -0.0451 0.6931 0.0549
C2 C 0.2213(4) 0.70350(11) -0.04431(13)
H3 H 0.0859 0.6854 -0.0878
H4 H 0.2842 0.7505 -0.0664
C3 C 0.4336(3) 0.64747(10) -0.03052(12)
C4 C 0.5840(3) 0.61955(10) -0.10463(12)
C5 C 0.5685(4) 0.65408(11) -0.19055(12)
H5 H 0.4540 0.6931 -0.2020
C6 C 0.7209(4) 0.63125(12) -0.25939(13)
H6 H 0.7092 0.6559 -0.3160
C7 C 0.8900(4) 0.57274(11) -0.24616(13)
C8 C 0.9005(4) 0.53738(11) -0.16096(13)
H7 H 1.0111 0.4973 -0.1505
C9 C 0.7522(4) 0.55974(11) -0.09124(13)
H8 H 0.7642 0.5348 -0.0348
C10 C 1.0529(4) 0.54823(14) -0.32189(14)
H9 H 1.0254 0.5809 -0.3741
H10 H 1.0075 0.4984 -0.3403
H11 H 1.2299 0.5497 -0.2997
C11 C 0.3320(4) 0.66105(11) 0.20006(12)
C12 C 0.5529(4) 0.61390(12) 0.24106(12)
H12 H 0.5248 0.5624 0.2230
H13 H 0.7104 0.6304 0.2162
C13 C 0.7448(4) 0.65773(12) 0.39366(14)
H14 H 0.8708 0.6879 0.3712
C14 C 0.5131(5) 0.60126(14) 0.47761(16)
H15 H 0.4434 0.5837 0.5307
loop_
_geom_bond_atom_site_label_1
_geom_bond_atom_site_label_2
_geom_bond_site_symmetry_1
_geom_bond_site_symmetry_2
O1 C11 1_555 1_555
N1 N2 1_555 1_555
N2 C3 1_555 1_555
N3 N4 1_555 1_555
N4 C14 1_555 1_555
N5 C13 1_555 1_555
C1 N1 1_555 1_555
H1 C1 1_555 1_555
H2 C1 1_555 1_555
C2 C1 1_555 1_555
H3 C2 1_555 1_555
H4 C2 1_555 1_555
C3 C2 1_555 1_555
C4 C3 1_555 1_555
C5 C4 1_555 1_555
H5 C5 1_555 1_555
C6 C5 1_555 1_555
H6 C6 1_555 1_555
C7 C6 1_555 1_555
C8 C7 1_555 1_555
H7 C8 1_555 1_555
C9 C4 1_555 1_555
H8 C9 1_555 1_555
C10 C7 1_555 1_555
H9 C10 1_555 1_555
H10 C10 1_555 1_555
H11 C10 1_555 1_555
C11 N1 1_555 1_555
C12 N3 1_555 1_555
H12 C12 1_555 1_555
H13 C12 1_555 1_555
C13 N3 1_555 1_555
H14 C13 1_555 1_555
C14 N5 1_555 1_555
H15 C14 1_555 1_555
C8 C9 1_555 1_555
C11 C12 1_555 1_555

#END
