
#######################################################################
#
#                 Cambridge Crystallographic Data Centre
#                                CCDC 
#
#######################################################################
#
# If this CIF has been generated from an entry in the Cambridge 
# Structural Database, then it will include bibliographic, chemical, 
# crystal, experimental, refinement or atomic coordinate data resulting 
# from the CCDC's data processing and validation procedures.
#
#######################################################################

data_GAVWAC
_chemical_formula_moiety         'C16 H13 Br1 O6'
_chemical_name_systematic        
'4-Methoxyphenyl 4-bromo-7-methoxy-1,3-benzodioxole-5-carboxylate'
_symmetry_cell_setting           monoclinic
_symmetry_space_group_name_H-M   'P 21/n'
_symmetry_Int_Tables_number      14
_space_group_name_Hall           '-P 2yn'
loop_
_symmetry_equiv_pos_site_id
_symmetry_equiv_pos_as_xyz
1 x,y,z
2 1/2-x,1/2+y,1/2-z
3 -x,-y,-z
4 1/2+x,1/2-y,1/2+z
_cell_length_a                   4.1749(12)
_cell_length_b                   18.874(5)
_cell_length_c                   19.335(6)
_cell_angle_alpha                90
_cell_angle_beta                 90.618(5)
_cell_angle_gamma                90
_cell_volume                     1523.45
_exptl_crystal_colour            colorless
_exptl_crystal_description       block
_chemical_melting_point          '399 K'
_cell_formula_units_Z            4
_exptl_crystal_recrystallization_method acetonitrile
loop_
_atom_site_label
_atom_site_type_symbol
_atom_site_fract_x
_atom_site_fract_y
_atom_site_fract_z
Br1 Br 1.02905(10) 0.12734(2) 0.53823(2)
O1 O 0.9610(7) 0.25874(18) 0.63210(14)
O2 O 0.7123(8) 0.36818(16) 0.61977(16)
O3 O 0.3827(8) 0.41464(15) 0.49820(15)
O4 O 0.4555(9) 0.19938(15) 0.34220(16)
O5 O 0.7342(8) 0.11953(15) 0.40240(14)
O6 O 0.6701(8) -0.10024(16) 0.21366(15)
C1 C 0.8176(9) 0.2131(2) 0.51590(19)
C2 C 0.8209(9) 0.2637(2) 0.5674(2)
C3 C 0.9143(14) 0.3264(4) 0.6625(3)
H1 H 0.8184 0.3209 0.7077
H2 H 1.1194 0.3498 0.6686
C4 C 0.6776(10) 0.3291(2) 0.5602(2)
C5 C 0.5175(10) 0.3492(2) 0.5002(2)
C6 C 0.2406(12) 0.4362(2) 0.4346(2)
H3 H 0.3953 0.4327 0.3984
H4 H 0.1689 0.4843 0.4384
H5 H 0.0612 0.4061 0.4240
C7 C 0.5084(9) 0.2979(2) 0.4480(2)
H6 H 0.4018 0.3087 0.4069
C8 C 0.6517(8) 0.2307(2) 0.45453(17)
C9 C 0.6012(10) 0.1830(2) 0.3935(2)
C10 C 0.6984(10) 0.0663(2) 0.3517(2)
C11 C 0.8457(11) 0.0716(2) 0.2889(2)
H7 H 0.9564 0.1125 0.2771
C12 C 0.8274(10) 0.0151(2) 0.2433(2)
H8 H 0.9238 0.0183 0.2002
C13 C 0.6662(9) -0.0460(2) 0.2614(2)
C14 C 0.5153(10) -0.0505(2) 0.3249(2)
H9 H 0.4040 -0.0912 0.3370
C15 C 0.5325(11) 0.0064(2) 0.3700(2)
H10 H 0.4320 0.0041 0.4126
C16 C 0.5208(12) -0.1653(2) 0.2319(3)
H11 H 0.6092 -0.1820 0.2749
H12 H 0.5579 -0.1998 0.1963
H13 H 0.2946 -0.1579 0.2367
loop_
_geom_bond_atom_site_label_1
_geom_bond_atom_site_label_2
_geom_bond_site_symmetry_1
_geom_bond_site_symmetry_2
Br1 C1 1_555 1_555
O1 C2 1_555 1_555
O2 C3 1_555 1_555
O3 C5 1_555 1_555
O4 C9 1_555 1_555
O5 C9 1_555 1_555
O6 C13 1_555 1_555
C1 C2 1_555 1_555
C2 C4 1_555 1_555
C3 O1 1_555 1_555
H1 C3 1_555 1_555
H2 C3 1_555 1_555
C4 O2 1_555 1_555
C5 C4 1_555 1_555
C6 O3 1_555 1_555
H3 C6 1_555 1_555
H4 C6 1_555 1_555
H5 C6 1_555 1_555
C7 C5 1_555 1_555
H6 C7 1_555 1_555
C8 C1 1_555 1_555
C9 C8 1_555 1_555
C10 O5 1_555 1_555
C11 C10 1_555 1_555
H7 C11 1_555 1_555
C12 C11 1_555 1_555
H8 C12 1_555 1_555
C13 C12 1_555 1_555
C14 C13 1_555 1_555
H9 C14 1_555 1_555
C15 C10 1_555 1_555
H10 C15 1_555 1_555
C16 O6 1_555 1_555
H11 C16 1_555 1_555
H12 C16 1_555 1_555
H13 C16 1_555 1_555
C7 C8 1_555 1_555
C14 C15 1_555 1_555

#END
