
#######################################################################
#
#                 Cambridge Crystallographic Data Centre
#                                CCDC 
#
#######################################################################
#
# If this CIF has been generated from an entry in the Cambridge 
# Structural Database, then it will include bibliographic, chemical, 
# crystal, experimental, refinement or atomic coordinate data resulting 
# from the CCDC's data processing and validation procedures.
#
#######################################################################

data_GAVWOS
_chemical_formula_moiety         'C17 H12 F3 N3 O1'
_chemical_name_systematic        
3-benzyl-7-(trifluoromethyl)-3,5-dihydro[2]benzopyrano[3,4-d][1,2,3]triazole
_symmetry_cell_setting           orthorhombic
_symmetry_space_group_name_H-M   'P n a 21'
_symmetry_Int_Tables_number      33
_space_group_name_Hall           'P 2c -2n'
loop_
_symmetry_equiv_pos_site_id
_symmetry_equiv_pos_as_xyz
1 x,y,z
2 -x,-y,1/2+z
3 1/2-x,1/2+y,1/2+z
4 1/2+x,1/2-y,z
_cell_length_a                   8.6016(6)
_cell_length_b                   27.4748(15)
_cell_length_c                   6.1928(3)
_cell_angle_alpha                90
_cell_angle_beta                 90
_cell_angle_gamma                90
_cell_volume                     1463.53
_exptl_crystal_colour            colorless
_exptl_crystal_description       plate
_cell_formula_units_Z            4
loop_
_atom_site_label
_atom_site_type_symbol
_atom_site_fract_x
_atom_site_fract_y
_atom_site_fract_z
F1 F 0.4497(3) 0.06736(7) 0.9310(4)
F2 F 0.3253(2) 0.05108(7) 0.6450(5)
F3 F 0.5472(2) 0.01989(5) 0.6970(4)
O1 O 0.5667(2) 0.28031(6) 0.5463(3)
N1 N 0.8204(2) 0.23853(7) 0.1417(4)
N2 N 0.8291(2) 0.28613(8) 0.1162(4)
N3 N 0.7343(2) 0.30721(7) 0.2672(3)
C1 C 0.5162(3) 0.14967(9) 0.6943(5)
H1 H 0.4569 0.1538 0.8224
C2 C 0.5393(3) 0.10351(9) 0.6103(5)
C3 C 0.6236(3) 0.09721(9) 0.4207(5)
H2 H 0.6383 0.0655 0.3632
C4 C 0.6861(3) 0.13723(9) 0.3157(5)
H3 H 0.7431 0.1330 0.1856
C5 C 0.6654(3) 0.18375(9) 0.4010(4)
C6 C 0.5795(3) 0.18986(8) 0.5916(5)
C7 C 0.5693(3) 0.23958(9) 0.6978(5)
H4 H 0.4740 0.2408 0.7871
H5 H 0.6594 0.2436 0.7957
C8 C 0.6677(3) 0.27249(9) 0.3857(4)
C9 C 0.7218(3) 0.22906(8) 0.3077(4)
C10 C 0.4670(3) 0.06083(10) 0.7201(5)
C11 C 0.7251(3) 0.36001(8) 0.2879(5)
H6 H 0.8286 0.3739 0.2556
H7 H 0.7001 0.3680 0.4399
C12 C 0.6068(3) 0.38426(9) 0.1440(4)
C13 C 0.5577(3) 0.36387(9) -0.0494(5)
H8 H 0.5943 0.3326 -0.0910
C14 C 0.4556(3) 0.38887(10) -0.1818(5)
H9 H 0.4208 0.3744 -0.3125
C15 C 0.4040(3) 0.43471(10) -0.1253(6)
H10 H 0.3364 0.4522 -0.2185
C16 C 0.4517(4) 0.45492(10) 0.0681(6)
H11 H 0.4151 0.4862 0.1094
C17 C 0.5520(3) 0.42989(9) 0.2011(6)
H12 H 0.5840 0.4441 0.3337
loop_
_geom_bond_atom_site_label_1
_geom_bond_atom_site_label_2
_geom_bond_site_symmetry_1
_geom_bond_site_symmetry_2
F1 C10 1_555 1_555
F2 C10 1_555 1_555
F3 C10 1_555 1_555
O1 C7 1_555 1_555
N1 N2 1_555 1_555
N2 N3 1_555 1_555
N3 C8 1_555 1_555
C1 H1 1_555 1_555
C2 C1 1_555 1_555
C3 C2 1_555 1_555
H2 C3 1_555 1_555
C4 C3 1_555 1_555
H3 C4 1_555 1_555
C5 C4 1_555 1_555
C6 C1 1_555 1_555
C7 C6 1_555 1_555
H4 C7 1_555 1_555
H5 C7 1_555 1_555
C8 O1 1_555 1_555
C9 N1 1_555 1_555
C10 C2 1_555 1_555
C11 N3 1_555 1_555
H6 C11 1_555 1_555
H7 C11 1_555 1_555
C12 C11 1_555 1_555
C13 C12 1_555 1_555
H8 C13 1_555 1_555
C14 C13 1_555 1_555
H9 C14 1_555 1_555
C15 C14 1_555 1_555
H10 C15 1_555 1_555
C16 C15 1_555 1_555
H11 C16 1_555 1_555
C17 C12 1_555 1_555
H12 C17 1_555 1_555
C5 C6 1_555 1_555
C5 C9 1_555 1_555
C8 C9 1_555 1_555
C16 C17 1_555 1_555

#END
