
#######################################################################
#
#                 Cambridge Crystallographic Data Centre
#                                CCDC 
#
#######################################################################
#
# If this CIF has been generated from an entry in the Cambridge 
# Structural Database, then it will include bibliographic, chemical, 
# crystal, experimental, refinement or atomic coordinate data resulting 
# from the CCDC's data processing and validation procedures.
#
#######################################################################

data_GAVZIO
_chemical_name_common            
'(2S,3S)-Ethyl 1-benzhydryl-3-(4-(methylsulfonyl)phenyl)aziridine-2-carboxylate'
_chemical_formula_moiety         'C25 H25 N1 O4 S1'
_chemical_name_systematic        
'(2S,3S)-Ethyl 1-(diphenylmethyl)-3-(4-(methylsulfonyl)phenyl)aziridine-2-carboxylate'
_symmetry_cell_setting           monoclinic
_symmetry_space_group_name_H-M   'C 2'
_symmetry_Int_Tables_number      5
_space_group_name_Hall           'C 2y'
loop_
_symmetry_equiv_pos_site_id
_symmetry_equiv_pos_as_xyz
1 x,y,z
2 -x,y,-z
3 1/2+x,1/2+y,z
4 1/2-x,1/2+y,-z
_cell_length_a                   16.9624(4)
_cell_length_b                   5.8316(2)
_cell_length_c                   23.1281(5)
_cell_angle_alpha                90
_cell_angle_beta                 92.696(1)
_cell_angle_gamma                90
_cell_volume                     2285.25
_exptl_crystal_colour            colorless
_exptl_crystal_description       needle
_chemical_melting_point          '122-123 deg.C'
_cell_formula_units_Z            4
_exptl_crystal_recrystallization_method dichloromethane/hexane
loop_
_atom_site_label
_atom_site_type_symbol
_atom_site_fract_x
_atom_site_fract_y
_atom_site_fract_z
S1 S 0.62384(5) -0.12042(18) 0.94510(3)
N1 N 0.76969(11) 0.3609(4) 0.70103(8)
O1 O 0.54578(18) -0.1820(7) 0.92418(12)
O2 O 0.6774(2) -0.2966(7) 0.96509(13)
O3 O 0.94514(13) 0.1747(4) 0.78472(11)
O4 O 0.85983(15) -0.0420(4) 0.73298(11)
C1 C 0.6152(3) 0.0738(11) 1.00183(18)
H1 H 0.5850 0.2041 0.9884
H2 H 0.6668 0.1232 1.0154
H3 H 0.5892 0.0010 1.0329
C2 C 0.66897(18) 0.0380(6) 0.89030(12)
C3 C 0.6327(2) 0.0466(8) 0.83537(14)
H4 H 0.5859 -0.0320 0.8268
C4 C 0.6684(2) 0.1761(7) 0.79347(13)
H5 H 0.6453 0.1809 0.7562
C5 C 0.73570(17) 0.2955(5) 0.80508(12)
C6 C 0.7701(3) 0.2807(10) 0.86046(16)
H6 H 0.8168 0.3599 0.8692
C7 C 0.7373(3) 0.1531(11) 0.90261(15)
H7 H 0.7616 0.1450 0.9395
C8 C 0.77255(15) 0.4406(5) 0.76134(11)
H8 H 0.7665 0.6064 0.7666
C9 C 0.84640(14) 0.3669(5) 0.73285(10)
H9 H 0.8826 0.4893 0.7223
C10 C 0.88277(16) 0.1416(5) 0.74812(12)
C11 C 0.9849(3) -0.0301(8) 0.8067(2)
H10 H 1.0384 0.0087 0.8199
H11 H 0.9878 -0.1413 0.7757
C12 C 0.9432(4) -0.1341(12) 0.8553(2)
H12 H 0.9438 -0.0288 0.8873
H13 H 0.9692 -0.2736 0.8672
H14 H 0.8896 -0.1669 0.8429
C13 C 0.75943(14) 0.5470(4) 0.65751(10)
H15 H 0.7847 0.6855 0.6737
C14 C 0.67109(15) 0.5946(5) 0.64889(10)
C15 C 0.64151(19) 0.8039(6) 0.66522(16)
H16 H 0.6756 0.9152 0.6807
C16 C 0.5618(2) 0.8498(7) 0.65883(18)
H17 H 0.5428 0.9913 0.6705
C17 C 0.51029(17) 0.6911(7) 0.63564(15)
H18 H 0.4566 0.7225 0.6317
C18 C 0.53923(19) 0.4871(8) 0.61859(19)
H19 H 0.5047 0.3786 0.6022
C19 C 0.61948(17) 0.4354(6) 0.62490(16)
H20 H 0.6380 0.2938 0.6129
C20 C 0.80021(13) 0.4840(5) 0.60301(10)
C21 C 0.79076(17) 0.2703(5) 0.57606(12)
H21 H 0.7597 0.1588 0.5926
C22 C 0.82713(19) 0.2232(6) 0.52507(13)
H22 H 0.8195 0.0820 0.5070
C23 C 0.87475(19) 0.3861(7) 0.50110(13)
H23 H 0.8995 0.3544 0.4669
C24 C 0.88562(19) 0.5950(6) 0.52771(15)
H24 H 0.9180 0.7041 0.5116
C25 C 0.84854(16) 0.6444(5) 0.57846(12)
H25 H 0.8562 0.7865 0.5961
loop_
_geom_bond_atom_site_label_1
_geom_bond_atom_site_label_2
_geom_bond_site_symmetry_1
_geom_bond_site_symmetry_2
S1 O1 1_555 1_555
N1 C8 1_555 1_555
O2 S1 1_555 1_555
O3 C10 1_555 1_555
O4 C10 1_555 1_555
C1 S1 1_555 1_555
H1 C1 1_555 1_555
H2 C1 1_555 1_555
H3 C1 1_555 1_555
C2 S1 1_555 1_555
C3 C2 1_555 1_555
H4 C3 1_555 1_555
C4 C3 1_555 1_555
H5 C4 1_555 1_555
C5 C4 1_555 1_555
C6 C5 1_555 1_555
H6 C6 1_555 1_555
C7 C2 1_555 1_555
H7 C7 1_555 1_555
C8 C5 1_555 1_555
H8 C8 1_555 1_555
C9 N1 1_555 1_555
H9 C9 1_555 1_555
C10 C9 1_555 1_555
C11 O3 1_555 1_555
H10 C11 1_555 1_555
H11 C11 1_555 1_555
C12 C11 1_555 1_555
H12 C12 1_555 1_555
H13 C12 1_555 1_555
H14 C12 1_555 1_555
C13 N1 1_555 1_555
H15 C13 1_555 1_555
C14 C13 1_555 1_555
C15 C14 1_555 1_555
H16 C15 1_555 1_555
C16 C15 1_555 1_555
H17 C16 1_555 1_555
C17 C16 1_555 1_555
H18 C17 1_555 1_555
C18 C17 1_555 1_555
H19 C18 1_555 1_555
C19 C14 1_555 1_555
H20 C19 1_555 1_555
C20 C13 1_555 1_555
C21 C20 1_555 1_555
H21 C21 1_555 1_555
C22 C21 1_555 1_555
H22 C22 1_555 1_555
C23 C22 1_555 1_555
H23 C23 1_555 1_555
C24 C23 1_555 1_555
H24 C24 1_555 1_555
C25 C20 1_555 1_555
H25 C25 1_555 1_555
C6 C7 1_555 1_555
C8 C9 1_555 1_555
C18 C19 1_555 1_555
C24 C25 1_555 1_555

#END
