
#######################################################################
#
#                 Cambridge Crystallographic Data Centre
#                                CCDC 
#
#######################################################################
#
# If this CIF has been generated from an entry in the Cambridge 
# Structural Database, then it will include bibliographic, chemical, 
# crystal, experimental, refinement or atomic coordinate data resulting 
# from the CCDC's data processing and validation procedures.
#
#######################################################################

data_GAWDEP
_chemical_formula_moiety         'C12 H12 N2 S1'
_chemical_name_systematic        
4-(2-(4-Methylphenyl)vinyl)-1,3-thiazol-2-amine
_symmetry_cell_setting           monoclinic
_symmetry_space_group_name_H-M   'P 21/n'
_symmetry_Int_Tables_number      14
_space_group_name_Hall           '-P 2yn'
loop_
_symmetry_equiv_pos_site_id
_symmetry_equiv_pos_as_xyz
1 x,y,z
2 1/2-x,1/2+y,1/2-z
3 -x,-y,-z
4 1/2+x,1/2-y,1/2+z
_cell_length_a                   14.3676(16)
_cell_length_b                   17.231(2)
_cell_length_c                   18.422(2)
_cell_angle_alpha                90
_cell_angle_beta                 92.679(2)
_cell_angle_gamma                90
_cell_volume                     4555.72
_exptl_crystal_colour            colorless
_exptl_crystal_description       block
_cell_formula_units_Z            16
loop_
_atom_site_label
_atom_site_type_symbol
_atom_site_fract_x
_atom_site_fract_y
_atom_site_fract_z
C1 C 1.0924(3) 0.4749(2) 0.1400(2)
H1 H 1.1331 0.4840 0.1011
H2 H 1.0688 0.4228 0.1369
H3 H 1.1262 0.4820 0.1857
C2 C 1.0123(2) 0.53136(18) 0.1343(2)
C3 C 0.9915(3) 0.57237(19) 0.07106(19)
H4 H 1.0276 0.5648 0.0310
C4 C 0.9186(2) 0.62410(19) 0.06607(17)
H5 H 0.9066 0.6509 0.0228
C5 C 0.8628(2) 0.63718(16) 0.12387(16)
C6 C 0.8826(2) 0.59516(17) 0.18716(17)
H6 H 0.8459 0.6020 0.2269
C7 C 0.9554(2) 0.54373(18) 0.19180(18)
H7 H 0.9669 0.5164 0.2348
C8 C 0.7875(2) 0.69585(17) 0.11714(17)
H8 H 0.7801 0.7212 0.0727
C9 C 0.7299(2) 0.71588(17) 0.16741(17)
H9 H 0.7371 0.6910 0.2121
C10 C 0.6565(2) 0.77291(16) 0.15957(16)
C11 C 0.5944(2) 0.78710(17) 0.21018(17)
H10 H 0.5937 0.7617 0.2547
C12 C 0.5745(2) 0.86493(16) 0.10218(15)
N1 N 0.64473(16) 0.81836(13) 0.09627(13)
N2 N 0.5435(2) 0.91594(18) 0.05076(15)
H41 H 0.511(3) 0.955(2) 0.0626(19)
H42 H 0.570(3) 0.919(2) 0.0140(19)
S1 S 0.51689(6) 0.85766(5) 0.18269(4)
C13 C 0.6309(3) 0.5227(2) 0.0644(2)
H11 H 0.6767 0.5389 0.1009
H12 H 0.6544 0.5311 0.0171
H13 H 0.6178 0.4685 0.0706
C14 C 0.5427(3) 0.56900(19) 0.0718(2)
C15 C 0.5291(3) 0.6379(2) 0.0347(2)
H14 H 0.5757 0.6564 0.0058
C16 C 0.4483(3) 0.67986(19) 0.03937(19)
H15 H 0.4416 0.7259 0.0133
C17 C 0.3765(2) 0.65574(16) 0.08163(16)
C18 C 0.3909(3) 0.58704(18) 0.12003(19)
H16 H 0.3451 0.5690 0.1498
C19 C 0.4721(3) 0.54516(19) 0.1146(2)
H17 H 0.4793 0.4992 0.1408
C20 C 0.2923(2) 0.70338(17) 0.08391(17)
H18 H 0.2911 0.7464 0.0534
C21 C 0.2173(2) 0.69477(17) 0.12288(17)
H19 H 0.2136 0.6506 0.1516
C22 C 0.1416(2) 0.74933(16) 0.12358(16)
C23 C 0.0700(2) 0.85819(17) 0.08935(16)
C24 C 0.0648(2) 0.74344(19) 0.16317(18)
H20 H 0.0535 0.7024 0.1944
N3 N 0.14338(17) 0.81664(13) 0.08163(13)
N4 N 0.0527(2) 0.92600(17) 0.05415(17)
H43 H 0.086(3) 0.9351(19) 0.0159(19)
H44 H 0.012(3) 0.957(2) 0.0646(19)
S2 S -0.00894(6) 0.82029(6) 0.14889(5)
C25 C 0.3215(3) 0.36751(19) 0.1751(2)
H21 H 0.3443 0.3666 0.2249
H22 H 0.2990 0.4185 0.1630
H23 H 0.3711 0.3542 0.1442
C26 C 0.2435(2) 0.30982(16) 0.16432(17)
C27 C 0.1923(2) 0.28630(16) 0.22229(16)
H24 H 0.2056 0.3073 0.2681
C28 C 0.1222(2) 0.23254(16) 0.21326(16)
H25 H 0.0904 0.2166 0.2535
C29 C 0.0973(2) 0.20114(16) 0.14538(15)
C30 C 0.1475(2) 0.22680(17) 0.08727(16)
H26 H 0.1322 0.2081 0.0409
C31 C 0.2191(2) 0.27898(18) 0.09673(17)
H27 H 0.2520 0.2940 0.0568
C32 C 0.0242(2) 0.14283(17) 0.13309(17)
H28 H 0.0131 0.1269 0.0852
C33 C -0.0280(2) 0.11011(17) 0.18172(17)
H29 H -0.0174 0.1257 0.2297
C34 C -0.0998(2) 0.05244(17) 0.16789(16)
C35 C -0.1573(3) 0.02617(19) 0.21819(18)
H30 H -0.1556 0.0429 0.2662
C36 C -0.1818(2) -0.03201(16) 0.10016(16)
N5 N -0.11508(16) 0.01903(13) 0.09927(13)
N6 N -0.2106(2) -0.07538(17) 0.04260(16)
H45 H -0.190(2) -0.0674(19) 0.0006(19)
H46 H -0.253(2) -0.114(2) 0.0472(18)
S3 S -0.23384(7) -0.04197(5) 0.18290(5)
C37 C 0.8416(4) 0.3629(3) 0.1102(3)
H31 H 0.8991 0.3373 0.1006
H32 H 0.8498 0.3933 0.1537
H33 H 0.8238 0.3962 0.0701
C38 C 0.7662(3) 0.3028(2) 0.1200(2)
C39 C 0.6836(3) 0.3214(2) 0.1515(2)
H34 H 0.6761 0.3708 0.1706
C40 C 0.6131(3) 0.26910(19) 0.15523(19)
H35 H 0.5577 0.2841 0.1754
C41 C 0.6219(2) 0.19373(17) 0.12954(16)
C42 C 0.7065(2) 0.17422(19) 0.10172(18)
H36 H 0.7159 0.1236 0.0860
C43 C 0.7772(3) 0.2276(2) 0.09663(19)
H37 H 0.8330 0.2127 0.0772
C44 C 0.5460(2) 0.13720(17) 0.12799(16)
H38 H 0.5604 0.0879 0.1112
C45 C 0.4593(2) 0.14730(17) 0.14742(16)
H39 H 0.4441 0.1961 0.1649
C46 C 0.3863(2) 0.08975(17) 0.14403(15)
C47 C 0.3026(2) 0.09621(19) 0.17329(18)
H40 H 0.2845 0.1387 0.2003
C48 C 0.3240(2) -0.02178(18) 0.10640(17)
N7 N 0.39834(17) 0.02118(14) 0.10556(13)
N8 N 0.3134(2) -0.08986(18) 0.0725(2)
H47 H 0.266(3) -0.118(2) 0.075(2)
H48 H 0.358(3) -0.105(2) 0.051(2)
S4 S 0.23342(6) 0.01718(5) 0.15502(5)
loop_
_geom_bond_atom_site_label_1
_geom_bond_atom_site_label_2
_geom_bond_site_symmetry_1
_geom_bond_site_symmetry_2
C1 H1 1_555 1_555
H2 C1 1_555 1_555
H3 C1 1_555 1_555
C2 C1 1_555 1_555
C3 C2 1_555 1_555
H4 C3 1_555 1_555
C4 C3 1_555 1_555
H5 C4 1_555 1_555
C5 C4 1_555 1_555
C6 C5 1_555 1_555
H6 C6 1_555 1_555
C7 C2 1_555 1_555
H7 C7 1_555 1_555
C8 C5 1_555 1_555
H8 C8 1_555 1_555
C9 C8 1_555 1_555
H9 C9 1_555 1_555
C10 C9 1_555 1_555
C11 C10 1_555 1_555
H10 C11 1_555 1_555
C12 N1 1_555 1_555
C13 H11 1_555 1_555
H12 C13 1_555 1_555
H13 C13 1_555 1_555
C14 C13 1_555 1_555
C15 C14 1_555 1_555
H14 C15 1_555 1_555
C16 C15 1_555 1_555
H15 C16 1_555 1_555
C17 C16 1_555 1_555
C18 C17 1_555 1_555
H16 C18 1_555 1_555
C19 C14 1_555 1_555
H17 C19 1_555 1_555
C20 C17 1_555 1_555
H18 C20 1_555 1_555
C21 C20 1_555 1_555
H19 C21 1_555 1_555
C22 C21 1_555 1_555
C23 N3 1_555 1_555
C24 C22 1_555 1_555
H20 C24 1_555 1_555
C25 H21 1_555 1_555
H22 C25 1_555 1_555
H23 C25 1_555 1_555
C26 C25 1_555 1_555
C27 C26 1_555 1_555
H24 C27 1_555 1_555
C28 C27 1_555 1_555
H25 C28 1_555 1_555
C29 C28 1_555 1_555
C30 C29 1_555 1_555
H26 C30 1_555 1_555
C31 C26 1_555 1_555
H27 C31 1_555 1_555
C32 C29 1_555 1_555
H28 C32 1_555 1_555
C33 C32 1_555 1_555
H29 C33 1_555 1_555
C34 C33 1_555 1_555
C35 C34 1_555 1_555
H30 C35 1_555 1_555
C36 N5 1_555 1_555
C37 H31 1_555 1_555
H32 C37 1_555 1_555
H33 C37 1_555 1_555
C38 C37 1_555 1_555
C39 C38 1_555 1_555
H34 C39 1_555 1_555
C40 C39 1_555 1_555
H35 C40 1_555 1_555
C41 C40 1_555 1_555
C42 C41 1_555 1_555
H36 C42 1_555 1_555
C43 C38 1_555 1_555
H37 C43 1_555 1_555
C44 C41 1_555 1_555
H38 C44 1_555 1_555
C45 C44 1_555 1_555
H39 C45 1_555 1_555
C46 C45 1_555 1_555
C47 C46 1_555 1_555
H40 C47 1_555 1_555
C48 N7 1_555 1_555
N1 C10 1_555 1_555
N2 C12 1_555 1_555
H41 N2 1_555 1_555
H42 N2 1_555 1_555
N3 C22 1_555 1_555
N4 C23 1_555 1_555
H43 N4 1_555 1_555
H44 N4 1_555 1_555
N5 C34 1_555 1_555
N6 C36 1_555 1_555
H45 N6 1_555 1_555
H46 N6 1_555 1_555
N7 C46 1_555 1_555
N8 C48 1_555 1_555
H47 N8 1_555 1_555
H48 N8 1_555 1_555
S1 C11 1_555 1_555
S2 C23 1_555 1_555
S3 C35 1_555 1_555
S4 C47 1_555 1_555
C6 C7 1_555 1_555
C12 S1 1_555 1_555
C18 C19 1_555 1_555
C24 S2 1_555 1_555
C30 C31 1_555 1_555
C36 S3 1_555 1_555
C42 C43 1_555 1_555
C48 S4 1_555 1_555

#END
