
#######################################################################
#
#                 Cambridge Crystallographic Data Centre
#                                CCDC 
#
#######################################################################
#
# If this CIF has been generated from an entry in the Cambridge 
# Structural Database, then it will include bibliographic, chemical, 
# crystal, experimental, refinement or atomic coordinate data resulting 
# from the CCDC's data processing and validation procedures.
#
#######################################################################

data_GAWGAP
_chemical_formula_moiety         'C24 H18 N2 O2'
_chemical_name_systematic        
"ethyl 5-phenylpyrido[3',2':4,5]pyrrolo[1,2-a]quinoline-6-carboxylate"
_symmetry_cell_setting           monoclinic
_symmetry_space_group_name_H-M   'P 21/c'
_symmetry_Int_Tables_number      14
_space_group_name_Hall           '-P 2ybc'
loop_
_symmetry_equiv_pos_site_id
_symmetry_equiv_pos_as_xyz
1 x,y,z
2 -x,1/2+y,1/2-z
3 -x,-y,-z
4 x,1/2-y,1/2+z
_cell_length_a                   10.820(4)
_cell_length_b                   17.17(2)
_cell_length_c                   10.534(5)
_cell_angle_alpha                90
_cell_angle_beta                 105.49(4)
_cell_angle_gamma                90
_cell_volume                     1885.92
_exptl_crystal_colour            yellow
_exptl_crystal_description       block
_cell_formula_units_Z            4
loop_
_atom_site_label
_atom_site_type_symbol
_atom_site_fract_x
_atom_site_fract_y
_atom_site_fract_z
C1 C 0.2430(4) 0.7123(2) 1.0475(3)
H1 H 0.1624 0.7056 1.0614
C2 C 0.3095(4) 0.7798(2) 1.0972(3)
H2 H 0.2726 0.8154 1.1427
C3 C 0.4268(4) 0.7946(2) 1.0806(3)
H3 H 0.479(3) 0.845(2) 1.118(3)
C4 C 0.4763(3) 0.73768(17) 1.0130(3)
C5 C 0.3983(3) 0.67057(16) 0.9687(2)
C6 C 0.5899(3) 0.72887(16) 0.9800(3)
H4 H 0.6580 0.7638 0.9966
C7 C 0.5830(3) 0.65758(15) 0.9169(2)
C8 C 0.6700(3) 0.61859(16) 0.8602(3)
C9 C 0.6415(3) 0.54668(17) 0.8013(2)
C10 C 0.5216(2) 0.50914(16) 0.7961(2)
C11 C 0.4330(3) 0.54645(15) 0.8496(2)
C12 C 0.3193(3) 0.50969(17) 0.8464(3)
H5 H 0.2590 0.5347 0.8805
C13 C 0.2935(3) 0.43565(18) 0.7930(3)
H6 H 0.2161 0.4118 0.7920
C14 C 0.3795(3) 0.39727(18) 0.7419(3)
H7 H 0.3619 0.3475 0.7069
C15 C 0.4910(3) 0.43326(17) 0.7432(3)
H8 H 0.5499 0.4074 0.7081
C16 C 0.7342(3) 0.50717(17) 0.7426(3)
C17 C 0.7114(3) 0.5063(2) 0.6071(3)
H9 H 0.6381 0.5293 0.5536
C18 C 0.7977(4) 0.4713(2) 0.5535(4)
H10 H 0.7845 0.4707 0.4626
C19 C 0.9057(4) 0.4363(3) 0.6343(4)
H11 H 0.9638 0.4119 0.5964
C20 C 0.9293(4) 0.4369(3) 0.7702(4)
H12 H 1.0027 0.4140 0.8238
C21 C 0.8423(3) 0.4718(2) 0.8224(3)
H13 H 0.8552 0.4721 0.9133
C22 C 0.7932(3) 0.65964(17) 0.8730(3)
C23 C 0.9175(5) 0.7203(3) 0.7528(4)
H14 H 0.9680 0.7334 0.8410
H15 H 0.8984 0.7678 0.7016
C24 C 0.9867(6) 0.6663(4) 0.6916(8)
H16 H 0.9334 0.6513 0.6068
H17 H 1.0094 0.6209 0.7461
H18 H 1.0631 0.6909 0.6812
N1 N 0.2849(2) 0.65677(15) 0.9819(2)
N2 N 0.4658(2) 0.62128(13) 0.9069(2)
O1 O 0.8736(2) 0.67183(18) 0.9757(2)
O2 O 0.8014(2) 0.68153(17) 0.7574(2)
loop_
_geom_bond_atom_site_label_1
_geom_bond_atom_site_label_2
_geom_bond_site_symmetry_1
_geom_bond_site_symmetry_2
C1 H1 1_555 1_555
C2 C1 1_555 1_555
H2 C2 1_555 1_555
C3 C2 1_555 1_555
H3 C3 1_555 1_555
C4 C3 1_555 1_555
C5 C4 1_555 1_555
C6 C4 1_555 1_555
H4 C6 1_555 1_555
C7 C6 1_555 1_555
C8 C7 1_555 1_555
C9 C8 1_555 1_555
C10 C9 1_555 1_555
C11 C10 1_555 1_555
C12 C11 1_555 1_555
H5 C12 1_555 1_555
C13 C12 1_555 1_555
H6 C13 1_555 1_555
C14 C13 1_555 1_555
H7 C14 1_555 1_555
C15 C10 1_555 1_555
H8 C15 1_555 1_555
C16 C9 1_555 1_555
C17 C16 1_555 1_555
H9 C17 1_555 1_555
C18 C17 1_555 1_555
H10 C18 1_555 1_555
C19 C18 1_555 1_555
H11 C19 1_555 1_555
C20 C19 1_555 1_555
H12 C20 1_555 1_555
C21 C16 1_555 1_555
H13 C21 1_555 1_555
C22 C8 1_555 1_555
C23 H14 1_555 1_555
H15 C23 1_555 1_555
C24 C23 1_555 1_555
H16 C24 1_555 1_555
H17 C24 1_555 1_555
H18 C24 1_555 1_555
N1 C1 1_555 1_555
N2 C5 1_555 1_555
O1 C22 1_555 1_555
O2 C22 1_555 1_555
C5 N1 1_555 1_555
C7 N2 1_555 1_555
C11 N2 1_555 1_555
C14 C15 1_555 1_555
C20 C21 1_555 1_555
C23 O2 1_555 1_555

#END
