
#######################################################################
#
#                 Cambridge Crystallographic Data Centre
#                                CCDC 
#
#######################################################################
#
# If this CIF has been generated from an entry in the Cambridge 
# Structural Database, then it will include bibliographic, chemical, 
# crystal, experimental, refinement or atomic coordinate data resulting 
# from the CCDC's data processing and validation procedures.
#
#######################################################################

data_GAWHAO
_chemical_formula_moiety         'C12 H24 N1 1+,C20 H13 O2 1-'
_chemical_name_systematic        
'Dicyclohexylammonium 1-(2-hydroxy-1-naphthyl)-2-naphtholate'
_symmetry_cell_setting           monoclinic
_symmetry_space_group_name_H-M   'P 21/n'
_symmetry_Int_Tables_number      14
_space_group_name_Hall           '-P 2yn'
loop_
_symmetry_equiv_pos_site_id
_symmetry_equiv_pos_as_xyz
1 x,y,z
2 1/2-x,1/2+y,1/2-z
3 -x,-y,-z
4 1/2+x,1/2-y,1/2+z
_cell_length_a                   14.9935(11)
_cell_length_b                   10.1824(7)
_cell_length_c                   16.9848(12)
_cell_angle_alpha                90
_cell_angle_beta                 98.434(2)
_cell_angle_gamma                90
_cell_volume                     2565.02
_exptl_crystal_colour            colorless
_exptl_crystal_description       block
_cell_formula_units_Z            4
loop_
_atom_site_label
_atom_site_type_symbol
_atom_site_fract_x
_atom_site_fract_y
_atom_site_fract_z
O1 O 0.76780(17) 0.6325(3) 0.19335(14)
H1 H 0.7250 0.5833 0.1958
O2 O 0.81392(17) 0.9484(3) 0.24963(14)
C1 C 0.8162(2) 0.7931(3) 0.11060(18)
C2 C 0.7531(2) 0.7023(3) 0.12408(19)
C3 C 0.6750(2) 0.6805(4) 0.0688(2)
H2 H 0.6314 0.6216 0.0807
C4 C 0.6629(2) 0.7454(4) -0.0018(2)
H3 H 0.6111 0.7297 -0.0379
C5 C 0.7269(2) 0.8353(3) -0.02145(18)
C6 C 0.7169(3) 0.9018(4) -0.0950(2)
H4 H 0.6658 0.8865 -0.1320
C7 C 0.7800(3) 0.9876(4) -0.1129(2)
H5 H 0.7723 1.0302 -0.1619
C8 C 0.8567(3) 1.0115(4) -0.0576(2)
H6 H 0.9001 1.0700 -0.0701
C9 C 0.8686(2) 0.9505(3) 0.0143(2)
H7 H 0.9199 0.9687 0.0504
C10 C 0.8049(2) 0.8601(3) 0.03546(18)
C11 C 0.8979(2) 0.8192(3) 0.17056(18)
C12 C 0.8912(2) 0.8980(3) 0.23612(19)
C13 C 0.9716(3) 0.9235(4) 0.2898(2)
H8 H 0.9687 0.9789 0.3329
C14 C 1.0524(3) 0.8699(4) 0.2805(2)
H9 H 1.1033 0.8889 0.3170
C15 C 1.0596(2) 0.7858(4) 0.2159(2)
C16 C 1.1423(3) 0.7238(4) 0.2055(3)
H10 H 1.1934 0.7375 0.2428
C17 C 1.1476(3) 0.6447(5) 0.1418(3)
H11 H 1.2018 0.6042 0.1358
C18 C 1.0720(3) 0.6248(4) 0.0860(3)
H12 H 1.0764 0.5728 0.0417
C19 C 0.9917(3) 0.6796(3) 0.0946(2)
H13 H 0.9418 0.6629 0.0565
C20 C 0.9816(2) 0.7618(3) 0.16012(19)
N1 N 0.7940(2) 0.2545(4) 0.17422(17)
H14 H 0.7603 0.3083 0.1999
H15 H 0.8002 0.1788 0.2018
C21 C 0.7410(2) 0.2250(4) 0.0941(2)
H16 H 0.7759 0.1642 0.0659
C22 C 0.6548(3) 0.1581(4) 0.1076(2)
H17 H 0.6252 0.2108 0.1437
H18 H 0.6691 0.0735 0.1326
C23 C 0.5902(3) 0.1377(4) 0.0306(2)
H19 H 0.6155 0.0738 -0.0023
H20 H 0.5335 0.1034 0.0427
C24 C 0.5738(3) 0.2647(5) -0.0144(2)
H21 H 0.5433 0.3258 0.0164
H22 H 0.5348 0.2487 -0.0644
C25 C 0.6611(3) 0.3247(5) -0.0310(2)
H23 H 0.6488 0.4074 -0.0588
H24 H 0.6896 0.2664 -0.0650
C26 C 0.7245(3) 0.3480(4) 0.0459(2)
H25 H 0.7815 0.3813 0.0337
H26 H 0.6988 0.4140 0.0771
C27 C 0.8859(2) 0.3151(4) 0.1788(2)
H27 H 0.8799 0.3984 0.1495
C28 C 0.9204(3) 0.3445(5) 0.2654(2)
H28 H 0.9234 0.2638 0.2960
H29 H 0.8791 0.4038 0.2864
C29 C 1.0134(3) 0.4066(4) 0.2734(2)
H30 H 1.0096 0.4905 0.2461
H31 H 1.0356 0.4222 0.3292
C30 C 1.0776(3) 0.3192(5) 0.2388(3)
H32 H 1.0854 0.2383 0.2691
H33 H 1.1359 0.3620 0.2426
C31 C 1.0438(3) 0.2875(4) 0.1524(3)
H34 H 1.0849 0.2262 0.1327
H35 H 1.0428 0.3672 0.1210
C32 C 0.9496(3) 0.2283(4) 0.1420(2)
H36 H 0.9277 0.2171 0.0858
H37 H 0.9519 0.1424 0.1670
loop_
_geom_bond_atom_site_label_1
_geom_bond_atom_site_label_2
_geom_bond_site_symmetry_1
_geom_bond_site_symmetry_2
O1 H1 1_555 1_555
O2 C12 1_555 1_555
C1 C2 1_555 1_555
C2 O1 1_555 1_555
C3 C2 1_555 1_555
H2 C3 1_555 1_555
C4 C3 1_555 1_555
H3 C4 1_555 1_555
C5 C4 1_555 1_555
C6 C5 1_555 1_555
H4 C6 1_555 1_555
C7 C6 1_555 1_555
H5 C7 1_555 1_555
C8 C7 1_555 1_555
H6 C8 1_555 1_555
C9 C8 1_555 1_555
H7 C9 1_555 1_555
C10 C1 1_555 1_555
C11 C1 1_555 1_555
C12 C11 1_555 1_555
C13 C12 1_555 1_555
H8 C13 1_555 1_555
C14 C13 1_555 1_555
H9 C14 1_555 1_555
C15 C14 1_555 1_555
C16 C15 1_555 1_555
H10 C16 1_555 1_555
C17 C16 1_555 1_555
H11 C17 1_555 1_555
C18 C17 1_555 1_555
H12 C18 1_555 1_555
C19 C18 1_555 1_555
H13 C19 1_555 1_555
C20 C11 1_555 1_555
N1 H14 1_555 1_555
H15 N1 1_555 1_555
C21 N1 1_555 1_555
H16 C21 1_555 1_555
C22 C21 1_555 1_555
H17 C22 1_555 1_555
H18 C22 1_555 1_555
C23 C22 1_555 1_555
H19 C23 1_555 1_555
H20 C23 1_555 1_555
C24 C23 1_555 1_555
H21 C24 1_555 1_555
H22 C24 1_555 1_555
C25 C24 1_555 1_555
H23 C25 1_555 1_555
H24 C25 1_555 1_555
C26 C21 1_555 1_555
H25 C26 1_555 1_555
H26 C26 1_555 1_555
C27 N1 1_555 1_555
H27 C27 1_555 1_555
C28 C27 1_555 1_555
H28 C28 1_555 1_555
H29 C28 1_555 1_555
C29 C28 1_555 1_555
H30 C29 1_555 1_555
H31 C29 1_555 1_555
C30 C29 1_555 1_555
H32 C30 1_555 1_555
H33 C30 1_555 1_555
C31 C30 1_555 1_555
H34 C31 1_555 1_555
H35 C31 1_555 1_555
C32 C27 1_555 1_555
H36 C32 1_555 1_555
H37 C32 1_555 1_555
C5 C10 1_555 1_555
C9 C10 1_555 1_555
C15 C20 1_555 1_555
C19 C20 1_555 1_555
C25 C26 1_555 1_555
C31 C32 1_555 1_555

#END
