
#######################################################################
#
#                 Cambridge Crystallographic Data Centre
#                                CCDC 
#
#######################################################################
#
# If this CIF has been generated from an entry in the Cambridge 
# Structural Database, then it will include bibliographic, chemical, 
# crystal, experimental, refinement or atomic coordinate data resulting 
# from the CCDC's data processing and validation procedures.
#
#######################################################################

data_GAWHUK
_chemical_formula_moiety         'C16 H14 O4'
_chemical_name_systematic        6,6'-dimethoxybiphenyl-2,2'-dicarbaldehyde
_symmetry_cell_setting           triclinic
_symmetry_space_group_name_H-M   'P -1'
_symmetry_Int_Tables_number      2
_space_group_name_Hall           '-P 1'
loop_
_symmetry_equiv_pos_site_id
_symmetry_equiv_pos_as_xyz
1 x,y,z
2 -x,-y,-z
_cell_length_a                   8.4838(7)
_cell_length_b                   8.8138(5)
_cell_length_c                   9.3003(6)
_cell_angle_alpha                94.381(5)
_cell_angle_beta                 94.167(6)
_cell_angle_gamma                108.863(6)
_cell_volume                     652.652
_exptl_crystal_colour            colorless
_exptl_crystal_description       column
_chemical_melting_point          '372-373 K'
_cell_formula_units_Z            2
_exptl_crystal_recrystallization_method 'dichloromethane/petroleum ether'
loop_
_atom_site_label
_atom_site_type_symbol
_atom_site_fract_x
_atom_site_fract_y
_atom_site_fract_z
O1 O -0.30851(12) -0.49665(11) -0.59350(10)
O2 O -0.32153(12) -0.32494(12) -0.98840(10)
C1 C -0.13004(16) -0.34055(15) -0.74640(13)
O3 O -0.17337(14) -0.09483(13) -0.36063(11)
O4 O 0.18050(14) -0.12749(14) -0.97197(12)
C2 C -0.33936(17) -0.23445(15) -0.86858(14)
C3 C -0.24981(16) -0.14556(15) -0.61554(14)
C4 C -0.23727(16) -0.23492(15) -0.74239(14)
C5 C 0.06257(17) -0.16190(17) -0.90089(14)
H1 H 0.0022 -0.0910 -0.8922
C6 C 0.00841(17) -0.31114(16) -0.82649(14)
C7 C -0.35833(17) -0.05536(16) -0.61420(15)
H2 H -0.3627 0.0066 -0.5300
C8 C -0.17698(17) -0.48063(16) -0.67476(13)
C9 C -0.36673(19) -0.63880(17) -0.52107(15)
H3 H -0.2759 -0.6484 -0.4587
H4 H -0.4086 -0.7316 -0.5916
H5 H -0.4547 -0.6318 -0.4643
C10 C -0.45907(18) -0.05887(16) -0.73875(16)
H6 H -0.5335 -0.0012 -0.7374
C11 C -0.09396(18) -0.59287(17) -0.69065(15)
H7 H -0.1288 -0.6876 -0.6464
C12 C -0.15237(17) -0.15015(16) -0.47823(15)
H8 H -0.0700 -0.1985 -0.4825
C13 C 0.09461(18) -0.42211(18) -0.83839(14)
H9 H 0.1876 -0.4011 -0.8903
C14 C -0.45039(18) -0.14763(16) -0.86590(15)
H10 H -0.5186 -0.1492 -0.9493
C15 C 0.04118(18) -0.56264(18) -0.77291(15)
H11 H 0.0961 -0.6379 -0.7839
C16 C -0.42337(19) -0.32858(19) -1.11898(15)
H12 H -0.5391 -0.3631 -1.1012
H13 H -0.4065 -0.4024 -1.1928
H14 H -0.3929 -0.2227 -1.1506
loop_
_geom_bond_atom_site_label_1
_geom_bond_atom_site_label_2
_geom_bond_site_symmetry_1
_geom_bond_site_symmetry_2
O1 C8 1_555 1_555
O2 C2 1_555 1_555
C1 C4 1_555 1_555
O3 C12 1_555 1_555
O4 C5 1_555 1_555
C2 C4 1_555 1_555
C3 C4 1_555 1_555
C5 H1 1_555 1_555
C6 C1 1_555 1_555
C7 C3 1_555 1_555
H2 C7 1_555 1_555
C8 C1 1_555 1_555
C9 O1 1_555 1_555
H3 C9 1_555 1_555
H4 C9 1_555 1_555
H5 C9 1_555 1_555
C10 C7 1_555 1_555
H6 C10 1_555 1_555
C11 C8 1_555 1_555
H7 C11 1_555 1_555
C12 C3 1_555 1_555
H8 C12 1_555 1_555
C13 C6 1_555 1_555
H9 C13 1_555 1_555
C14 C2 1_555 1_555
H10 C14 1_555 1_555
C15 C11 1_555 1_555
H11 C15 1_555 1_555
C16 O2 1_555 1_555
H12 C16 1_555 1_555
H13 C16 1_555 1_555
H14 C16 1_555 1_555
C5 C6 1_555 1_555
C10 C14 1_555 1_555
C13 C15 1_555 1_555

#END
