
#######################################################################
#
#                 Cambridge Crystallographic Data Centre
#                                CCDC 
#
#######################################################################
#
# If this CIF has been generated from an entry in the Cambridge 
# Structural Database, then it will include bibliographic, chemical, 
# crystal, experimental, refinement or atomic coordinate data resulting 
# from the CCDC's data processing and validation procedures.
#
#######################################################################

data_GAWJAS
_chemical_formula_moiety         'C17 H18 O2'
_chemical_name_systematic        
(S)-6,7,8,9-tetrahydro-5H-dibenzo[a,c][9]annulene-1,13-diol
_symmetry_cell_setting           orthorhombic
_symmetry_space_group_name_H-M   'P 21 21 21'
_symmetry_Int_Tables_number      19
_space_group_name_Hall           'P 2ac 2ab'
loop_
_symmetry_equiv_pos_site_id
_symmetry_equiv_pos_as_xyz
1 x,y,z
2 1/2-x,-y,1/2+z
3 1/2+x,1/2-y,-z
4 -x,1/2+y,1/2-z
_cell_length_a                   7.3281(3)
_cell_length_b                   8.20037(19)
_cell_length_c                   22.5229(11)
_cell_angle_alpha                90
_cell_angle_beta                 90
_cell_angle_gamma                90
_cell_volume                     1353.47
_exptl_crystal_colour            colorless
_exptl_crystal_description       column
_chemical_melting_point          '399-400 K'
_cell_formula_units_Z            4
_exptl_crystal_recrystallization_method 'dichloromethane/petroleum ether'
loop_
_atom_site_label
_atom_site_type_symbol
_atom_site_fract_x
_atom_site_fract_y
_atom_site_fract_z
O1 O -0.38596(15) -0.00004(13) -0.07540(5)
H1 H -0.3427 -0.0868 -0.0640
C1 C -0.41732(18) -0.42785(17) -0.12111(6)
O2 O -0.64489(14) -0.28115(12) 0.01466(4)
H2 H -0.6947 -0.2066 -0.0034
C2 C -0.39992(19) -0.39440(18) -0.18701(6)
H3 H -0.2781 -0.4253 -0.1995
H4 H -0.4121 -0.2779 -0.1933
C3 C -0.87587(19) -0.37161(17) -0.14480(6)
H5 H -0.9975 -0.3761 -0.1279
H6 H -0.8012 -0.4516 -0.1244
C4 C -0.8159(2) 0.08794(18) -0.14789(6)
H7 H -0.8795 0.1786 -0.1616
C5 C -0.8905(2) -0.06686(18) -0.15489(6)
H8 H -1.0035 -0.0790 -0.1731
C6 C -0.52449(18) -0.32912(16) -0.08408(6)
C7 C -0.32758(19) -0.56329(17) -0.09724(6)
H9 H -0.2555 -0.6282 -0.1217
C8 C -0.45271(18) -0.50696(16) -0.00058(6)
H10 H -0.4661 -0.5336 0.0393
C9 C -0.55236(19) -0.02743(18) -0.10061(6)
C10 C -0.79672(19) -0.20362(18) -0.13474(6)
C11 C -0.62618(19) -0.18440(17) -0.10702(6)
C12 C -0.6477(2) 0.10849(18) -0.12069(6)
H11 H -0.5990 0.2124 -0.1159
C13 C -0.7100(2) -0.3874(2) -0.24691(6)
H12 H -0.6811 -0.2721 -0.2452
H13 H -0.7349 -0.4137 -0.2881
C14 C -0.5400(2) -0.48327(18) -0.22754(6)
H14 H -0.4765 -0.5186 -0.2631
H15 H -0.5807 -0.5806 -0.2069
C15 C -0.8858(2) -0.41572(19) -0.21122(6)
H16 H -0.9191 -0.5298 -0.2146
H17 H -0.9829 -0.3523 -0.2292
C16 C -0.54046(18) -0.37138(16) -0.02411(6)
C17 C -0.34483(19) -0.60196(18) -0.03752(6)
H18 H -0.2838 -0.6920 -0.0222
loop_
_geom_bond_atom_site_label_1
_geom_bond_atom_site_label_2
_geom_bond_site_symmetry_1
_geom_bond_site_symmetry_2
O1 H1 1_555 1_555
C1 C2 1_555 1_555
O2 H2 1_555 1_555
C2 H3 1_555 1_555
H4 C2 1_555 1_555
C3 H5 1_555 1_555
H6 C3 1_555 1_555
C4 H7 1_555 1_555
C5 C4 1_555 1_555
H8 C5 1_555 1_555
C6 C1 1_555 1_555
C7 C1 1_555 1_555
H9 C7 1_555 1_555
C8 H10 1_555 1_555
C9 O1 1_555 1_555
C10 C3 1_555 1_555
C11 C6 1_555 1_555
C12 C4 1_555 1_555
H11 C12 1_555 1_555
C13 H12 1_555 1_555
H13 C13 1_555 1_555
C14 C2 1_555 1_555
H14 C14 1_555 1_555
H15 C14 1_555 1_555
C15 C3 1_555 1_555
H16 C15 1_555 1_555
H17 C15 1_555 1_555
C16 O2 1_555 1_555
C17 C7 1_555 1_555
H18 C17 1_555 1_555
C5 C10 1_555 1_555
C6 C16 1_555 1_555
C8 C16 1_555 1_555
C8 C17 1_555 1_555
C9 C11 1_555 1_555
C9 C12 1_555 1_555
C10 C11 1_555 1_555
C13 C14 1_555 1_555
C13 C15 1_555 1_555

#END
