
#######################################################################
#
#                 Cambridge Crystallographic Data Centre
#                                CCDC 
#
#######################################################################
#
# If this CIF has been generated from an entry in the Cambridge 
# Structural Database, then it will include bibliographic, chemical, 
# crystal, experimental, refinement or atomic coordinate data resulting 
# from the CCDC's data processing and validation procedures.
#
#######################################################################

data_GAWJAQ
_chemical_formula_moiety         'C9 H9 N2 Se1 1+,Br1 1-,H2 O1'
_chemical_name_systematic        
'2-Amino-4-phenylselenazolium bromide monohydrate'
_symmetry_cell_setting           monoclinic
_symmetry_space_group_name_H-M   'P 21/c'
_symmetry_Int_Tables_number      14
_space_group_name_Hall           '-P 2ybc'
loop_
_symmetry_equiv_pos_site_id
_symmetry_equiv_pos_as_xyz
1 x,y,z
2 -x,1/2+y,1/2-z
3 -x,-y,-z
4 x,1/2-y,1/2+z
_cell_length_a                   11.493(7)
_cell_length_b                   9.591(5)
_cell_length_c                   10.456(4)
_cell_angle_alpha                90
_cell_angle_beta                 94.211(19)
_cell_angle_gamma                90
_cell_volume                     1149.45
_exptl_crystal_colour            colorless
_exptl_crystal_description       platelet
_cell_formula_units_Z            4
_exptl_crystal_recrystallization_method ethanol
loop_
_atom_site_label
_atom_site_type_symbol
_atom_site_fract_x
_atom_site_fract_y
_atom_site_fract_z
Br1 Br 0.37518(4) 0.25588(3) -0.09385(3)
Se1 Se 0.59616(3) 0.09323(3) 0.14165(3)
N1 N 0.5669(2) 0.3862(2) 0.1288(2)
N2 N 0.6943(2) 0.2926(2) 0.2912(2)
C1 C 0.6183(3) 0.2805(3) 0.1885(2)
C2 C 0.7023(3) 0.0542(3) 0.2819(2)
C3 C 0.7418(2) 0.1688(3) 0.3440(2)
C4 C 0.8281(2) 0.1764(3) 0.4550(2)
C5 C 0.8956(3) 0.2939(3) 0.4802(2)
C6 C 0.9794(3) 0.2970(4) 0.5799(3)
C7 C 0.9977(3) 0.1818(4) 0.6583(3)
C8 C 0.9310(3) 0.0642(4) 0.6348(3)
C9 C 0.8469(3) 0.0607(3) 0.5332(2)
H3 H 0.7255 -0.0356 0.3056
H4 H 0.8839 0.3719 0.4280
H5 H 1.0247 0.3764 0.5959
H6 H 1.0546 0.1829 0.7263
H7 H 0.9427 -0.0131 0.6879
H8 H 0.8029 -0.0197 0.5177
H9 H 0.5185 0.3716 0.0635
H10 H 0.5811 0.4699 0.1549
H11 H 0.7135 0.3727 0.3230
O1 O 0.7359(2) 0.5735(2) 0.3535(2)
H1 H 0.7193 0.6082 0.2801
H2 H 0.6973 0.6132 0.4081
loop_
_geom_bond_atom_site_label_1
_geom_bond_atom_site_label_2
_geom_bond_site_symmetry_1
_geom_bond_site_symmetry_2
Se1 C1 1_555 1_555
O1 H1 1_555 1_555
N1 C1 1_555 1_555
N2 C1 1_555 1_555
C2 Se1 1_555 1_555
C3 N2 1_555 1_555
C4 C3 1_555 1_555
C5 C4 1_555 1_555
C6 C5 1_555 1_555
C7 C6 1_555 1_555
C8 C7 1_555 1_555
C9 C4 1_555 1_555
H2 O1 1_555 1_555
H3 C2 1_555 1_555
H4 C5 1_555 1_555
H5 C6 1_555 1_555
H6 C7 1_555 1_555
H7 C8 1_555 1_555
H8 C9 1_555 1_555
H9 N1 1_555 1_555
H10 N1 1_555 1_555
H11 N2 1_555 1_555
C2 C3 1_555 1_555
C8 C9 1_555 1_555

#END
