
#######################################################################
#
#                 Cambridge Crystallographic Data Centre
#                                CCDC 
#
#######################################################################
#
# If this CIF has been generated from an entry in the Cambridge 
# Structural Database, then it will include bibliographic, chemical, 
# crystal, experimental, refinement or atomic coordinate data resulting 
# from the CCDC's data processing and validation procedures.
#
#######################################################################

data_GAWJOE
_chemical_formula_moiety         'C16 H9 N3'
_chemical_name_systematic        5-Benzylbenzene-1,2,4-tricarbonitrile
_symmetry_cell_setting           monoclinic
_symmetry_space_group_name_H-M   'P 21/c'
_symmetry_Int_Tables_number      14
_space_group_name_Hall           '-P 2ybc'
loop_
_symmetry_equiv_pos_site_id
_symmetry_equiv_pos_as_xyz
1 x,y,z
2 -x,1/2+y,1/2-z
3 -x,-y,-z
4 x,1/2-y,1/2+z
_cell_length_a                   11.289(2)
_cell_length_b                   8.6380(17)
_cell_length_c                   14.193(3)
_cell_angle_alpha                90
_cell_angle_beta                 113.42(3)
_cell_angle_gamma                90
_cell_volume                     1270
_exptl_crystal_colour            colorless
_exptl_crystal_description       block
_chemical_melting_point          '421.2 K'
_cell_formula_units_Z            4
_exptl_crystal_recrystallization_method 'petroleum ether/ethyl acetate'
loop_
_atom_site_label
_atom_site_type_symbol
_atom_site_fract_x
_atom_site_fract_y
_atom_site_fract_z
N1 N 0.5853(2) 0.8025(3) 0.02270(18)
N2 N 0.9076(2) 1.1853(3) 0.57250(17)
N3 N 1.0586(2) 1.2572(3) 0.36706(18)
C1 C 0.1781(2) 1.0524(3) 0.1829(3)
H1 H 0.1038 1.1111 0.1683
C2 C 0.2198(2) 1.0170(3) 0.1066(2)
H2 H 0.1732 1.0514 0.0399
C3 C 0.3306(2) 0.9307(3) 0.12879(18)
H3 H 0.3578 0.9070 0.0766
C4 C 0.4014(2) 0.8791(2) 0.22713(17)
C5 C 0.3574(2) 0.9142(3) 0.30277(19)
H4 H 0.4030 0.8792 0.3695
C6 C 0.2471(2) 1.0001(3) 0.2806(2)
H5 H 0.2191 1.0231 0.3324
C7 C 0.5250(2) 0.7900(2) 0.25312(18)
H6 H 0.5164 0.7223 0.1963
H7 H 0.5399 0.7258 0.3128
C8 C 0.63948(19) 0.8949(2) 0.27495(16)
C9 C 0.6903(2) 0.9284(2) 0.20166(16)
C10 C 0.7962(2) 1.0245(2) 0.22337(17)
H8 H 0.8280 1.0441 0.1733
C11 C 0.85451(19) 1.0912(2) 0.31953(17)
C12 C 0.8041(2) 1.0601(2) 0.39365(16)
C13 C 0.6992(2) 0.9629(2) 0.37092(16)
H9 H 0.6679 0.9425 0.4211
C14 C 0.6327(2) 0.8583(3) 0.10160(19)
C15 C 0.8625(2) 1.1302(3) 0.49359(18)
C16 C 0.9668(2) 1.1868(3) 0.34467(18)
loop_
_geom_bond_atom_site_label_1
_geom_bond_atom_site_label_2
_geom_bond_site_symmetry_1
_geom_bond_site_symmetry_2
N1 C14 1_555 1_555
N2 C15 1_555 1_555
N3 C16 1_555 1_555
C1 H1 1_555 1_555
C2 C1 1_555 1_555
H2 C2 1_555 1_555
C3 C2 1_555 1_555
H3 C3 1_555 1_555
C4 C3 1_555 1_555
C5 C4 1_555 1_555
H4 C5 1_555 1_555
C6 C1 1_555 1_555
H5 C6 1_555 1_555
C7 C4 1_555 1_555
H6 C7 1_555 1_555
H7 C7 1_555 1_555
C8 C7 1_555 1_555
C9 C8 1_555 1_555
C10 C9 1_555 1_555
H8 C10 1_555 1_555
C11 C10 1_555 1_555
C12 C11 1_555 1_555
C13 C8 1_555 1_555
H9 C13 1_555 1_555
C14 C9 1_555 1_555
C15 C12 1_555 1_555
C16 C11 1_555 1_555
C5 C6 1_555 1_555
C12 C13 1_555 1_555

#END
