
#######################################################################
#
#                 Cambridge Crystallographic Data Centre
#                                CCDC 
#
#######################################################################
#
# If this CIF has been generated from an entry in the Cambridge 
# Structural Database, then it will include bibliographic, chemical, 
# crystal, experimental, refinement or atomic coordinate data resulting 
# from the CCDC's data processing and validation procedures.
#
#######################################################################

data_GAWLOG
_chemical_formula_moiety         '2(C12 H8 N4 O1),C4 H6 O4'
_chemical_name_systematic        
'bis(2,5-Di-4-pyridyl-1,3,4-oxadiazole) succinic acid'
_symmetry_cell_setting           triclinic
_symmetry_space_group_name_H-M   'P -1'
_symmetry_Int_Tables_number      2
_space_group_name_Hall           '-P 1'
loop_
_symmetry_equiv_pos_site_id
_symmetry_equiv_pos_as_xyz
1 x,y,z
2 -x,-y,-z
_cell_length_a                   6.4389(9)
_cell_length_b                   9.5462(13)
_cell_length_c                   11.0415(15)
_cell_angle_alpha                94.803(2)
_cell_angle_beta                 103.666(2)
_cell_angle_gamma                96.213(2)
_cell_volume                     651.391
_exptl_crystal_colour            colorless
_exptl_crystal_description       needle
_cell_formula_units_Z            1
_exptl_crystal_recrystallization_method 'methanol solution'
loop_
_atom_site_label
_atom_site_type_symbol
_atom_site_fract_x
_atom_site_fract_y
_atom_site_fract_z
O1 O 0.03374(13) 0.12665(8) 0.29475(8)
N1 N 0.00205(18) 0.60445(11) 0.13035(10)
N2 N 0.37319(18) 0.18640(13) 0.29387(12)
N3 N 0.35241(19) 0.05282(13) 0.33667(12)
N4 N -0.1419(2) -0.34963(13) 0.44529(12)
C1 C 0.2080(2) 0.58256(14) 0.16324(13)
H2 H 0.310(2) 0.6544(17) 0.1509(13)
C2 C 0.2728(2) 0.46170(15) 0.21021(13)
H3 H 0.423(3) 0.4500(17) 0.2325(15)
C3 C 0.1175(2) 0.35576(13) 0.22433(11)
C4 C -0.0966(2) 0.37732(14) 0.19156(12)
H4 H -0.209(2) 0.3105(17) 0.1992(13)
C5 C -0.1459(2) 0.50273(14) 0.14452(12)
H5 H -0.291(3) 0.5195(18) 0.1192(14)
C6 C 0.1832(2) 0.22489(13) 0.27106(11)
C7 C 0.1524(2) 0.02294(13) 0.33608(11)
C8 C 0.0470(2) -0.10319(12) 0.37423(11)
C9 C 0.1722(2) -0.19856(14) 0.43534(13)
H6 H 0.317(3) -0.1790(16) 0.4562(14)
C10 C 0.0712(3) -0.31857(15) 0.46747(14)
H7 H 0.157(3) -0.387(2) 0.5099(16)
C11 C -0.2584(3) -0.25558(16) 0.38971(14)
H8 H -0.416(3) -0.2804(18) 0.3759(15)
C12 C -0.1738(2) -0.13186(14) 0.35270(12)
H9 H -0.271(2) -0.0698(17) 0.3140(14)
O2 O -0.10945(15) 0.85026(10) 0.05356(10)
H1 H -0.074(3) 0.757(2) 0.0767(17)
O3 O -0.44432(16) 0.74900(10) 0.03098(11)
C13 C -0.3189(2) 0.85253(13) 0.03145(11)
C14 C -0.3828(2) 0.99629(15) 0.00914(17)
H10 H -0.305(4) 1.061(3) 0.082(2)
H11 H -0.328(4) 1.032(3) -0.059(2)
O2A O -0.89055(15) 1.14974(10) -0.05356(10)
H1A H -0.926(3) 1.243(2) -0.0767(17)
O3A O -0.55568(16) 1.25100(10) -0.03098(11)
C13A C -0.6811(2) 1.14747(13) -0.03145(11)
C14A C -0.6172(2) 1.00371(15) -0.00914(17)
H10A H -0.695(4) 0.939(3) -0.082(2)
H11A H -0.672(4) 0.968(3) 0.059(2)
loop_
_geom_bond_atom_site_label_1
_geom_bond_atom_site_label_2
_geom_bond_site_symmetry_1
_geom_bond_site_symmetry_2
O1 C6 1_555 1_555
O2 H1 1_555 1_555
O3 C13 1_555 1_555
N1 C1 1_555 1_555
N2 N3 1_555 1_555
N3 C7 1_555 1_555
N4 C10 1_555 1_555
C1 H2 1_555 1_555
C2 C1 1_555 1_555
H3 C2 1_555 1_555
C3 C2 1_555 1_555
C4 C3 1_555 1_555
H4 C4 1_555 1_555
C5 N1 1_555 1_555
H5 C5 1_555 1_555
C6 N2 1_555 1_555
C7 O1 1_555 1_555
C8 C7 1_555 1_555
C9 C8 1_555 1_555
H6 C9 1_555 1_555
C10 C9 1_555 1_555
H7 C10 1_555 1_555
C11 N4 1_555 1_555
H8 C11 1_555 1_555
C12 C8 1_555 1_555
H9 C12 1_555 1_555
C13 O2 1_555 1_555
C14 C13 1_555 1_555
H10 C14 1_555 1_555
H11 C14 1_555 1_555
O2A H1A 1_555 1_555
O3A C13A 1_555 1_555
C13A O2A 1_555 1_555
C14A C14 1_555 1_555
H10A C14A 1_555 1_555
H11A C14A 1_555 1_555
C3 C6 1_555 1_555
C4 C5 1_555 1_555
C11 C12 1_555 1_555
C13A C14A 1_555 1_555

#END
