
#######################################################################
#
#                 Cambridge Crystallographic Data Centre
#                                CCDC 
#
#######################################################################
#
# If this CIF has been generated from an entry in the Cambridge 
# Structural Database, then it will include bibliographic, chemical, 
# crystal, experimental, refinement or atomic coordinate data resulting 
# from the CCDC's data processing and validation procedures.
#
#######################################################################

data_GAWMIB
_chemical_formula_moiety         'C22 H26 N4 O4'
_chemical_name_systematic        
N,N'-bis(3-nitrobenzylidene)octane-1,8-diamine
_symmetry_cell_setting           monoclinic
_symmetry_space_group_name_H-M   'P 21/c'
_symmetry_Int_Tables_number      14
_space_group_name_Hall           '-P 2ybc'
loop_
_symmetry_equiv_pos_site_id
_symmetry_equiv_pos_as_xyz
1 x,y,z
2 -x,1/2+y,1/2-z
3 -x,-y,-z
4 x,1/2-y,1/2+z
_cell_length_a                   8.1297(5)
_cell_length_b                   19.2452(15)
_cell_length_c                   7.4113(4)
_cell_angle_alpha                90
_cell_angle_beta                 115.321(4)
_cell_angle_gamma                90
_cell_volume                     1048.15
_exptl_crystal_colour            yellow
_exptl_crystal_description       plate
_chemical_melting_point          '359-361 K'
_cell_formula_units_Z            2
_exptl_crystal_recrystallization_method 1,2-dichloroethane
loop_
_atom_site_label
_atom_site_type_symbol
_atom_site_fract_x
_atom_site_fract_y
_atom_site_fract_z
O1 O -0.4726(2) 0.30584(9) 0.2452(2)
O2 O -0.4979(2) 0.19476(9) 0.2222(2)
N1 N -0.4146(2) 0.24756(10) 0.3007(2)
N2 N 0.0789(2) 0.41578(9) 0.7670(2)
C1 C 0.0339(2) 0.29242(11) 0.7145(3)
C2 C 0.1051(3) 0.22653(11) 0.7750(3)
C3 C 0.0066(3) 0.16718(12) 0.6830(3)
C4 C -0.1647(3) 0.17372(11) 0.5267(3)
C5 C -0.2334(2) 0.23980(10) 0.4686(3)
C6 C -0.1394(2) 0.29929(10) 0.5582(3)
C7 C 0.1398(3) 0.35460(11) 0.8148(3)
C8 C 0.1973(3) 0.47278(11) 0.8757(3)
C9 C 0.2532(3) 0.51566(11) 0.7389(3)
C10 C 0.3695(3) 0.47560(11) 0.6595(3)
C11 C 0.4381(3) 0.51947(11) 0.5348(3)
H1 H 0.2232 0.2217 0.8810
H2 H 0.0567 0.1224 0.7275
H3 H -0.2332 0.1339 0.4612
H4 H -0.1914 0.3439 0.5146
H5 H 0.2583 0.3486 0.9193
H6 H 0.3073 0.4539 0.9870
H7 H 0.1331 0.5029 0.9332
H8 H 0.1423 0.5324 0.6247
H9 H 0.3219 0.5569 0.8129
H10 H 0.2972 0.4364 0.5770
H11 H 0.4754 0.4558 0.7737
H12 H 0.3322 0.5372 0.4165
H13 H 0.5046 0.5601 0.6147
O1B O 1.4726(2) 0.69416(9) 0.7548(2)
O2B O 1.4979(2) 0.80524(9) 0.7778(2)
N1B N 1.4146(2) 0.75244(10) 0.6993(2)
N2B N 0.9211(2) 0.58422(9) 0.2330(2)
C1B C 0.9661(2) 0.70758(11) 0.2855(3)
C2B C 0.8949(3) 0.77347(11) 0.2250(3)
C3B C 0.9934(3) 0.83282(12) 0.3170(3)
C4B C 1.1647(3) 0.82628(11) 0.4733(3)
C5B C 1.2334(2) 0.76020(10) 0.5314(3)
C6B C 1.1394(2) 0.70071(10) 0.4418(3)
C7B C 0.8602(3) 0.64540(11) 0.1852(3)
C8B C 0.8027(3) 0.52722(11) 0.1243(3)
C9B C 0.7468(3) 0.48434(11) 0.2611(3)
C10B C 0.6305(3) 0.52440(11) 0.3405(3)
C11B C 0.5619(3) 0.48053(11) 0.4652(3)
H1B H 0.7768 0.7783 0.1190
H2B H 0.9433 0.8776 0.2725
H3B H 1.2332 0.8661 0.5388
H4B H 1.1914 0.6561 0.4854
H5B H 0.7417 0.6514 0.0807
H6B H 0.6927 0.5461 0.0130
H7B H 0.8669 0.4971 0.0668
H8B H 0.8577 0.4676 0.3753
H9B H 0.6781 0.4431 0.1871
H10B H 0.7028 0.5636 0.4230
H11B H 0.5246 0.5442 0.2263
H12B H 0.6678 0.4628 0.5835
H13B H 0.4954 0.4399 0.3853
loop_
_geom_bond_atom_site_label_1
_geom_bond_atom_site_label_2
_geom_bond_site_symmetry_1
_geom_bond_site_symmetry_2
O1 N1 1_555 1_555
O2 N1 1_555 1_555
N1 C5 1_555 1_555
N2 C7 1_555 1_555
C1 C2 1_555 1_555
C2 C3 1_555 1_555
C3 C4 1_555 1_555
C4 C5 1_555 1_555
C5 C6 1_555 1_555
C6 C1 1_555 1_555
C7 C1 1_555 1_555
C8 N2 1_555 1_555
C9 C8 1_555 1_555
C10 C9 1_555 1_555
C11 C10 1_555 1_555
H1 C2 1_555 1_555
H2 C3 1_555 1_555
H3 C4 1_555 1_555
H4 C6 1_555 1_555
H5 C7 1_555 1_555
H6 C8 1_555 1_555
H7 C8 1_555 1_555
H8 C9 1_555 1_555
H9 C9 1_555 1_555
H10 C10 1_555 1_555
H11 C10 1_555 1_555
H12 C11 1_555 1_555
H13 C11 1_555 1_555
O1B N1B 1_555 1_555
O2B N1B 1_555 1_555
N1B C5B 1_555 1_555
N2B C7B 1_555 1_555
C1B C2B 1_555 1_555
C2B C3B 1_555 1_555
C3B C4B 1_555 1_555
C4B C5B 1_555 1_555
C5B C6B 1_555 1_555
C6B C1B 1_555 1_555
C7B C1B 1_555 1_555
C8B N2B 1_555 1_555
C9B C8B 1_555 1_555
C10B C9B 1_555 1_555
C11B C11 1_555 1_555
H1B C2B 1_555 1_555
H2B C3B 1_555 1_555
H3B C4B 1_555 1_555
H4B C6B 1_555 1_555
H5B C7B 1_555 1_555
H6B C8B 1_555 1_555
H7B C8B 1_555 1_555
H8B C9B 1_555 1_555
H9B C9B 1_555 1_555
H10B C10B 1_555 1_555
H11B C10B 1_555 1_555
H12B C11B 1_555 1_555
H13B C11B 1_555 1_555
C10B C11B 1_555 1_555

#END
