
#######################################################################
#
#                 Cambridge Crystallographic Data Centre
#                                CCDC 
#
#######################################################################
#
# If this CIF has been generated from an entry in the Cambridge 
# Structural Database, then it will include bibliographic, chemical, 
# crystal, experimental, refinement or atomic coordinate data resulting 
# from the CCDC's data processing and validation procedures.
#
#######################################################################

data_GAWQEB
_chemical_compound_source        
'rhizomes of Salvia miltiorrhiza Bunge and Salvia przewalskii Maxim (Labiatae)'
_chemical_name_common            Tashinone
_chemical_formula_moiety         'C18 H12 O3'
_chemical_name_systematic        
1,6-Dimethylphenanthro(1,2-b)furan-10,11-dione
_chemical_properties_biological  
'used in Chinese medicine to treat coronary heart disease, particularly angina pectoris'
_symmetry_cell_setting           triclinic
_symmetry_space_group_name_H-M   'P -1'
_symmetry_Int_Tables_number      2
_space_group_name_Hall           '-P 1'
loop_
_symmetry_equiv_pos_site_id
_symmetry_equiv_pos_as_xyz
1 x,y,z
2 -x,-y,-z
_cell_length_a                   7.0989(14)
_cell_length_b                   7.9539(16)
_cell_length_c                   12.162(2)
_cell_angle_alpha                90.79(3)
_cell_angle_beta                 105.76(3)
_cell_angle_gamma                99.65(3)
_cell_volume                     650.273
_exptl_crystal_colour            red-brown
_exptl_crystal_description       block
_chemical_melting_point          '506.0 K'
_cell_formula_units_Z            2
_exptl_crystal_recrystallization_method methanol
loop_
_atom_site_label
_atom_site_type_symbol
_atom_site_fract_x
_atom_site_fract_y
_atom_site_fract_z
C1 C -0.0588(3) 0.4759(3) -0.35600(14)
H1 H -0.1337 0.3941 -0.4176
H2 H 0.0533 0.5393 -0.3760
H3 H -0.1419 0.5529 -0.3424
C2 C 0.0131(2) 0.3840(2) -0.24921(12)
C3 C -0.0312(2) 0.2105(2) -0.24981(14)
H4 H -0.1090 0.1490 -0.3170
C4 C 0.0365(2) 0.1221(2) -0.15273(15)
H5 H 0.0069 0.0034 -0.1572
C5 C 0.1453(2) 0.20726(19) -0.05159(13)
H6 H 0.1892 0.1462 0.0122
C6 C 0.19236(18) 0.38887(17) -0.04270(11)
C7 C 0.12882(19) 0.47766(19) -0.14401(11)
C8 C 0.1812(2) 0.6580(2) -0.13811(12)
H7 H 0.1425 0.7157 -0.2042
C9 C 0.2860(2) 0.74898(19) -0.03915(12)
H8 H 0.3194 0.8673 -0.0382
C10 C 0.34415(18) 0.66456(17) 0.06223(11)
C11 C 0.29987(18) 0.48673(16) 0.06214(11)
C12 C 0.3606(2) 0.40710(17) 0.17362(12)
C13 C 0.50343(19) 0.51673(18) 0.28125(11)
C14 C 0.52499(19) 0.69918(18) 0.27335(12)
C15 C 0.44780(19) 0.76018(17) 0.17011(12)
C16 C 0.6090(2) 0.8442(2) 0.35407(13)
C17 C 0.7089(3) 0.8420(3) 0.47852(15)
H9 H 0.7510 0.9571 0.5115
H10 H 0.8226 0.7872 0.4888
H11 H 0.6176 0.7802 0.5155
C18 C 0.5728(2) 0.9798(2) 0.29259(14)
H12 H 0.6083 1.0923 0.3230
O1 O 0.29890(19) 0.26140(13) 0.19056(9)
O2 O 0.58036(17) 0.44218(14) 0.36339(9)
O3 O 0.47563(16) 0.93236(12) 0.17785(9)
loop_
_geom_bond_atom_site_label_1
_geom_bond_atom_site_label_2
_geom_bond_site_symmetry_1
_geom_bond_site_symmetry_2
C1 H1 1_555 1_555
H2 C1 1_555 1_555
H3 C1 1_555 1_555
C2 C1 1_555 1_555
C3 C2 1_555 1_555
H4 C3 1_555 1_555
C4 C3 1_555 1_555
H5 C4 1_555 1_555
C5 C4 1_555 1_555
H6 C5 1_555 1_555
C6 C5 1_555 1_555
C7 C2 1_555 1_555
C8 C7 1_555 1_555
H7 C8 1_555 1_555
C9 C8 1_555 1_555
H8 C9 1_555 1_555
C10 C9 1_555 1_555
C11 C6 1_555 1_555
C12 C11 1_555 1_555
C13 C12 1_555 1_555
C14 C13 1_555 1_555
C15 C10 1_555 1_555
C16 C14 1_555 1_555
C17 C16 1_555 1_555
H9 C17 1_555 1_555
H10 C17 1_555 1_555
H11 C17 1_555 1_555
C18 C16 1_555 1_555
H12 C18 1_555 1_555
O1 C12 1_555 1_555
O2 C13 1_555 1_555
O3 C15 1_555 1_555
C6 C7 1_555 1_555
C10 C11 1_555 1_555
C14 C15 1_555 1_555
C18 O3 1_555 1_555

#END
