
#######################################################################
#
#                 Cambridge Crystallographic Data Centre
#                                CCDC 
#
#######################################################################
#
# If this CIF has been generated from an entry in the Cambridge 
# Structural Database, then it will include bibliographic, chemical, 
# crystal, experimental, refinement or atomic coordinate data resulting 
# from the CCDC's data processing and validation procedures.
#
#######################################################################

data_GAWQOM
_chemical_formula_moiety         'C26 H54 Li2 N16 Si2'
_chemical_name_systematic        
bis(\m~2~-(4,6-bis(Dimethylamino)-1,3,5-triazin-2-yl)(trimethylsilyl)amino)-bis(dimethylcyanamide)-di-lithium(i)
_symmetry_cell_setting           orthorhombic
_symmetry_space_group_name_H-M   'F d d 2'
_symmetry_Int_Tables_number      43
_space_group_name_Hall           'F 2 -2d'
loop_
_symmetry_equiv_pos_site_id
_symmetry_equiv_pos_as_xyz
1 x,y,z
2 -x,-y,z
3 1/4+x,1/4-y,1/4+z
4 1/4-x,1/4+y,1/4+z
5 x,1/2+y,1/2+z
6 -x,1/2-y,1/2+z
7 1/4+x,3/4-y,3/4+z
8 1/4-x,3/4+y,3/4+z
9 1/2+x,y,1/2+z
10 1/2-x,-y,1/2+z
11 3/4+x,1/4-y,3/4+z
12 3/4-x,1/4+y,3/4+z
13 1/2+x,1/2+y,z
14 1/2-x,1/2-y,z
15 3/4+x,3/4-y,1/4+z
16 3/4-x,3/4+y,1/4+z
_cell_length_a                   19.204(8)
_cell_length_b                   40.15(2)
_cell_length_c                   9.900(4)
_cell_angle_alpha                90
_cell_angle_beta                 90
_cell_angle_gamma                90
_cell_volume                     7633.3
_exptl_crystal_colour            colorless
_exptl_crystal_description       block
_cell_formula_units_Z            8
loop_
_atom_site_label
_atom_site_type_symbol
_atom_site_fract_x
_atom_site_fract_y
_atom_site_fract_z
Li1 Li 0.0572(3) 0.98641(13) 0.3617(7)
N1 N -0.04249(13) 0.96275(6) 0.3184(3)
N2 N -0.06809(13) 0.91658(6) 0.4570(3)
N3 N -0.08929(14) 0.87352(7) 0.6061(3)
N4 N -0.00688(14) 0.91246(6) 0.6669(3)
N5 N 0.07526(15) 0.95210(7) 0.7180(3)
N6 N 0.01775(13) 0.95750(6) 0.5161(3)
N7 N 0.15602(17) 0.97341(8) 0.3150(4)
N8 N 0.26534(16) 0.95341(8) 0.2158(4)
Si1 Si -0.09294(5) 0.94698(2) 0.18772(11)
C1 C -0.03229(15) 0.94503(7) 0.4305(4)
C2 C -0.05303(15) 0.90212(7) 0.5742(4)
C3 C -0.14479(19) 0.86196(9) 0.5202(5)
H1 H -0.1888 0.8679 0.5593
H2 H -0.1421 0.8382 0.5115
H3 H -0.1405 0.8720 0.4327
C4 C -0.0821(2) 0.85828(9) 0.7374(4)
H4 H -0.0362 0.8625 0.7719
H5 H -0.0893 0.8347 0.7298
H6 H -0.1160 0.8675 0.7980
C5 C 0.02720(16) 0.94024(8) 0.6309(4)
C6 C 0.0948(2) 0.93345(11) 0.8375(4)
H7 H 0.0646 0.9145 0.8470
H8 H 0.0906 0.9475 0.9156
H9 H 0.1421 0.9260 0.8289
C7 C 0.11449(18) 0.98188(8) 0.6881(5)
H10 H 0.1475 0.9772 0.6178
H11 H 0.1387 0.9891 0.7677
H12 H 0.0833 0.9991 0.6589
C8 C 0.20653(18) 0.96356(8) 0.2697(5)
C9 C 0.3059(2) 0.92858(11) 0.2865(6)
H13 H 0.3030 0.9325 0.3820
H14 H 0.3536 0.9300 0.2582
H15 H 0.2880 0.9068 0.2662
C10 C 0.2694(2) 0.95357(14) 0.0682(6)
H16 H 0.2471 0.9340 0.0332
H17 H 0.3174 0.9538 0.0409
H18 H 0.2465 0.9730 0.0338
C11 C -0.1871(2) 0.94053(10) 0.2287(5)
H19 H -0.2060 0.9606 0.2666
H20 H -0.1916 0.9227 0.2928
H21 H -0.2121 0.9350 0.1478
C12 C -0.0596(2) 0.90677(9) 0.1186(5)
H22 H -0.0121 0.9095 0.0906
H23 H -0.0874 0.9002 0.0425
H24 H -0.0622 0.8899 0.1872
C13 C -0.0884(2) 0.97841(10) 0.0486(5)
H25 H -0.0849 1.0003 0.0867
H26 H -0.1296 0.9769 -0.0058
H27 H -0.0482 0.9741 -0.0064
Li1A Li -0.0572(3) 1.01359(13) 0.3617(7)
N1A N 0.04249(13) 1.03725(6) 0.3184(3)
N2A N 0.06809(13) 1.08342(6) 0.4570(3)
N3A N 0.08929(14) 1.12648(7) 0.6061(3)
N4A N 0.00688(14) 1.08754(6) 0.6669(3)
N5A N -0.07526(15) 1.04790(7) 0.7180(3)
N6A N -0.01775(13) 1.04250(6) 0.5161(3)
N7A N -0.15602(17) 1.02659(8) 0.3150(4)
N8A N -0.26534(16) 1.04659(8) 0.2158(4)
Si1A Si 0.09294(5) 1.05302(2) 0.18772(11)
C1A C 0.03229(15) 1.05497(7) 0.4305(4)
C2A C 0.05303(15) 1.09788(7) 0.5742(4)
C3A C 0.14479(19) 1.13804(9) 0.5202(5)
H1A H 0.1888 1.1321 0.5593
H2A H 0.1421 1.1618 0.5115
H3A H 0.1405 1.1280 0.4327
C4A C 0.0821(2) 1.14172(9) 0.7374(4)
H4A H 0.0362 1.1375 0.7719
H5A H 0.0893 1.1653 0.7298
H6A H 0.1160 1.1325 0.7980
C5A C -0.02720(16) 1.05976(8) 0.6309(4)
C6A C -0.0948(2) 1.06655(11) 0.8375(4)
H7A H -0.0646 1.0855 0.8470
H8A H -0.0906 1.0525 0.9156
H9A H -0.1421 1.0740 0.8289
C7A C -0.11449(18) 1.01812(8) 0.6881(5)
H10A H -0.1475 1.0228 0.6178
H11A H -0.1387 1.0109 0.7677
H12A H -0.0833 1.0009 0.6589
C8A C -0.20653(18) 1.03644(8) 0.2697(5)
C9A C -0.3059(2) 1.07142(11) 0.2865(6)
H13A H -0.3030 1.0675 0.3820
H14A H -0.3536 1.0700 0.2582
H15A H -0.2880 1.0932 0.2662
C10A C -0.2694(2) 1.04643(14) 0.0682(6)
H16A H -0.2471 1.0660 0.0332
H17A H -0.3174 1.0462 0.0409
H18A H -0.2465 1.0270 0.0338
C11A C 0.1871(2) 1.05947(10) 0.2287(5)
H19A H 0.2060 1.0394 0.2666
H20A H 0.1916 1.0773 0.2928
H21A H 0.2121 1.0650 0.1478
C12A C 0.0596(2) 1.09323(9) 0.1186(5)
H22A H 0.0121 1.0905 0.0906
H23A H 0.0874 1.0998 0.0425
H24A H 0.0622 1.1101 0.1872
C13A C 0.0884(2) 1.02159(10) 0.0486(5)
H25A H 0.0849 0.9997 0.0867
H26A H 0.1296 1.0231 -0.0058
H27A H 0.0482 1.0259 -0.0064
loop_
_geom_bond_atom_site_label_1
_geom_bond_atom_site_label_2
_geom_bond_site_symmetry_1
_geom_bond_site_symmetry_2
Li1 N1 1_555 1_555
N1 Si1 1_555 1_555
N2 C1 1_555 1_555
N3 C2 1_555 1_555
N4 C2 1_555 1_555
N5 C5 1_555 1_555
N6 Li1 1_555 1_555
N7 Li1 1_555 1_555
N8 C8 1_555 1_555
Si1 C11 1_555 1_555
C1 N1 1_555 1_555
C2 N2 1_555 1_555
C3 N3 1_555 1_555
H1 C3 1_555 1_555
H2 C3 1_555 1_555
H3 C3 1_555 1_555
C4 N3 1_555 1_555
H4 C4 1_555 1_555
H5 C4 1_555 1_555
H6 C4 1_555 1_555
C5 N4 1_555 1_555
C6 N5 1_555 1_555
H7 C6 1_555 1_555
H8 C6 1_555 1_555
H9 C6 1_555 1_555
C7 N5 1_555 1_555
H10 C7 1_555 1_555
H11 C7 1_555 1_555
H12 C7 1_555 1_555
C8 N7 1_555 1_555
C9 N8 1_555 1_555
H13 C9 1_555 1_555
H14 C9 1_555 1_555
H15 C9 1_555 1_555
C10 N8 1_555 1_555
H16 C10 1_555 1_555
H17 C10 1_555 1_555
H18 C10 1_555 1_555
C11 H19 1_555 1_555
H20 C11 1_555 1_555
H21 C11 1_555 1_555
C12 Si1 1_555 1_555
H22 C12 1_555 1_555
H23 C12 1_555 1_555
H24 C12 1_555 1_555
C13 Si1 1_555 1_555
H25 C13 1_555 1_555
H26 C13 1_555 1_555
H27 C13 1_555 1_555
Li1A N1 1_555 1_555
N1A Li1 1_555 1_555
N2A C1A 1_555 1_555
N3A C2A 1_555 1_555
N4A C2A 1_555 1_555
N5A C5A 1_555 1_555
N6A Li1A 1_555 1_555
N7A Li1A 1_555 1_555
N8A C8A 1_555 1_555
Si1A N1A 1_555 1_555
C1A N1A 1_555 1_555
C2A N2A 1_555 1_555
C3A N3A 1_555 1_555
H1A C3A 1_555 1_555
H2A C3A 1_555 1_555
H3A C3A 1_555 1_555
C4A N3A 1_555 1_555
H4A C4A 1_555 1_555
H5A C4A 1_555 1_555
H6A C4A 1_555 1_555
C5A N4A 1_555 1_555
C6A N5A 1_555 1_555
H7A C6A 1_555 1_555
H8A C6A 1_555 1_555
H9A C6A 1_555 1_555
C7A N5A 1_555 1_555
H10A C7A 1_555 1_555
H11A C7A 1_555 1_555
H12A C7A 1_555 1_555
C8A N7A 1_555 1_555
C9A N8A 1_555 1_555
H13A C9A 1_555 1_555
H14A C9A 1_555 1_555
H15A C9A 1_555 1_555
C10A N8A 1_555 1_555
H16A C10A 1_555 1_555
H17A C10A 1_555 1_555
H18A C10A 1_555 1_555
C11A Si1A 1_555 1_555
H19A C11A 1_555 1_555
H20A C11A 1_555 1_555
H21A C11A 1_555 1_555
C12A Si1A 1_555 1_555
H22A C12A 1_555 1_555
H23A C12A 1_555 1_555
H24A C12A 1_555 1_555
C13A Si1A 1_555 1_555
H25A C13A 1_555 1_555
H26A C13A 1_555 1_555
H27A C13A 1_555 1_555
N6 C1 1_555 1_555
N6 C5 1_555 1_555
Li1A N1A 1_555 1_555
N6A C1A 1_555 1_555
N6A C5A 1_555 1_555

#END
