
#######################################################################
#
#                 Cambridge Crystallographic Data Centre
#                                CCDC 
#
#######################################################################
#
# If this CIF has been generated from an entry in the Cambridge 
# Structural Database, then it will include bibliographic, chemical, 
# crystal, experimental, refinement or atomic coordinate data resulting 
# from the CCDC's data processing and validation procedures.
#
#######################################################################

data_GAWREC
_chemical_formula_moiety         'C16 H16 N4 O3'
_chemical_name_systematic        
'Ethyl 2-(5,7-dimethyl-1,2,4-triazolo(1,5-a)pyrimidin-2-yloxy)benzoate'
_chemical_properties_biological  'herbicidal activity'
_symmetry_cell_setting           monoclinic
_symmetry_space_group_name_H-M   'P 21/n'
_symmetry_Int_Tables_number      14
_space_group_name_Hall           '-P 2yn'
loop_
_symmetry_equiv_pos_site_id
_symmetry_equiv_pos_as_xyz
1 x,y,z
2 1/2-x,1/2+y,1/2-z
3 -x,-y,-z
4 1/2+x,1/2-y,1/2+z
_cell_length_a                   9.0013(13)
_cell_length_b                   10.5217(15)
_cell_length_c                   17.152(3)
_cell_angle_alpha                90
_cell_angle_beta                 102.038(3)
_cell_angle_gamma                90
_cell_volume                     1588.73
_exptl_crystal_colour            colorless
_exptl_crystal_description       block
_chemical_melting_point          372K
_cell_formula_units_Z            4
_exptl_crystal_recrystallization_method acetone
loop_
_atom_site_label
_atom_site_type_symbol
_atom_site_fract_x
_atom_site_fract_y
_atom_site_fract_z
C1 C 0.3764(2) -0.15737(17) 1.05091(13)
H1 H 0.3357 -0.2160 1.0090
H2 H 0.3807 -0.1974 1.1016
H3 H 0.4768 -0.1324 1.0463
C2 C 0.2764(2) -0.04238(16) 1.04429(11)
C3 C 0.1942(2) -0.01446(17) 1.10334(10)
H4 H 0.2067 -0.0659 1.1483
C4 C 0.0970(2) 0.08568(16) 1.09658(9)
C5 C 0.0020(2) 0.12361(19) 1.15375(10)
H5 H 0.0405 0.2012 1.1797
H6 H 0.0048 0.0579 1.1929
H7 H -0.1009 0.1362 1.1256
C6 C 0.17278(19) 0.12849(15) 0.97284(9)
C7 C 0.03910(19) 0.28673(15) 0.93792(9)
C8 C 0.0403(2) 0.43507(16) 0.83608(10)
C9 C 0.1316(2) 0.53948(18) 0.85550(11)
H8 H 0.1477 0.5734 0.9067
C10 C 0.1994(2) 0.59379(18) 0.79864(13)
H9 H 0.2614 0.6646 0.8116
C11 C 0.1761(2) 0.54420(18) 0.72316(12)
H10 H 0.2223 0.5812 0.6850
C12 C 0.0839(2) 0.43939(17) 0.70397(10)
H11 H 0.0691 0.4056 0.6528
C13 C 0.01232(19) 0.38311(15) 0.75992(10)
C14 C -0.0934(2) 0.27458(17) 0.73765(11)
C15 C -0.1682(3) 0.1073(2) 0.64504(13)
H12 H -0.2725 0.1364 0.6298
H13 H -0.1623 0.0439 0.6867
C16 C -0.1190(4) 0.0519(3) 0.57549(17)
H14 H -0.1134 0.1177 0.5374
H15 H -0.1908 -0.0114 0.5514
H16 H -0.0208 0.0136 0.5925
N1 N 0.26752(16) 0.02903(13) 0.97933(8)
N2 N 0.08897(16) 0.15618(12) 1.02918(7)
N3 N -0.00021(16) 0.26124(13) 1.00644(8)
N4 N 0.14090(16) 0.21337(13) 0.91347(8)
O1 O -0.02912(14) 0.38772(11) 0.89632(7)
O2 O -0.19345(18) 0.24522(13) 0.77099(8)
O3 O -0.06801(16) 0.21351(12) 0.67368(8)
loop_
_geom_bond_atom_site_label_1
_geom_bond_atom_site_label_2
_geom_bond_site_symmetry_1
_geom_bond_site_symmetry_2
C1 H1 1_555 1_555
H2 C1 1_555 1_555
H3 C1 1_555 1_555
C2 C1 1_555 1_555
C3 C2 1_555 1_555
H4 C3 1_555 1_555
C4 C3 1_555 1_555
C5 C4 1_555 1_555
H5 C5 1_555 1_555
H6 C5 1_555 1_555
H7 C5 1_555 1_555
C6 N1 1_555 1_555
C7 N3 1_555 1_555
C8 C9 1_555 1_555
C9 H8 1_555 1_555
C10 C9 1_555 1_555
H9 C10 1_555 1_555
C11 C10 1_555 1_555
H10 C11 1_555 1_555
C12 C11 1_555 1_555
H11 C12 1_555 1_555
C13 C8 1_555 1_555
C14 C13 1_555 1_555
C15 H12 1_555 1_555
H13 C15 1_555 1_555
C16 C15 1_555 1_555
H14 C16 1_555 1_555
H15 C16 1_555 1_555
H16 C16 1_555 1_555
N1 C2 1_555 1_555
N2 C4 1_555 1_555
N3 N2 1_555 1_555
N4 C6 1_555 1_555
O1 C7 1_555 1_555
O2 C14 1_555 1_555
O3 C14 1_555 1_555
C6 N2 1_555 1_555
C7 N4 1_555 1_555
C8 O1 1_555 1_555
C12 C13 1_555 1_555
C15 O3 1_555 1_555

#END
