
#######################################################################
#
#                 Cambridge Crystallographic Data Centre
#                                CCDC 
#
#######################################################################
#
# If this CIF has been generated from an entry in the Cambridge 
# Structural Database, then it will include bibliographic, chemical, 
# crystal, experimental, refinement or atomic coordinate data resulting 
# from the CCDC's data processing and validation procedures.
#
#######################################################################

data_GAWWUZ
_chemical_formula_moiety         'C16 H13 N1 O7'
_chemical_name_systematic        
'methyl 6-(5-(hydroxymethyl)-2-nitrophenyl)-2H-1,3-benzodioxole-5-carboxylate'
_symmetry_cell_setting           monoclinic
_symmetry_space_group_name_H-M   'P 21/c'
_symmetry_Int_Tables_number      14
_space_group_name_Hall           '-P 2ybc'
loop_
_symmetry_equiv_pos_site_id
_symmetry_equiv_pos_as_xyz
1 x,y,z
2 -x,1/2+y,1/2-z
3 -x,-y,-z
4 x,1/2-y,1/2+z
_cell_length_a                   8.92045(5)
_cell_length_b                   11.34780(6)
_cell_length_c                   14.26284(8)
_cell_angle_alpha                90
_cell_angle_beta                 102.5075(6)
_cell_angle_gamma                90
_cell_volume                     1409.53
_exptl_crystal_colour            yellow
_exptl_crystal_description       block
_cell_formula_units_Z            4
_exptl_crystal_recrystallization_method dichloromethane/hexane
loop_
_atom_site_label
_atom_site_type_symbol
_atom_site_fract_x
_atom_site_fract_y
_atom_site_fract_z
O1 O 0.16287(10) 0.66719(8) 0.38431(7)
C1 C 0.06768(14) 0.57413(12) 0.40754(10)
H1 H -0.0108 0.5514 0.3500
H2 H 0.0146 0.6003 0.4581
O2 O 0.16679(10) 0.47587(8) 0.44104(7)
C2 C 0.29523(13) 0.49634(11) 0.40441(8)
C3 C 0.29285(13) 0.61145(11) 0.37178(8)
C4 C 0.41062(13) 0.65740(11) 0.33500(8)
H3 H 0.4097 0.7374 0.3153
C5 C 0.53240(13) 0.58194(11) 0.32754(8)
C6 C 0.53592(13) 0.46567(11) 0.36215(8)
C7 C 0.41520(13) 0.42209(11) 0.40225(8)
H4 H 0.4173 0.3441 0.4268
C8 C 0.65398(13) 0.63737(11) 0.28461(8)
C9 C 0.73372(14) 0.73307(11) 0.33332(9)
H5 H 0.7105 0.7575 0.3923
C10 C 0.84575(14) 0.79371(11) 0.29858(9)
C11 C 0.88231(15) 0.75663(12) 0.21306(10)
H6 H 0.9607 0.7959 0.1895
C12 C 0.80506(15) 0.66292(12) 0.16235(9)
H7 H 0.8301 0.6377 0.1041
C13 C 0.69059(14) 0.60606(11) 0.19736(9)
C14 C 0.66745(13) 0.38582(11) 0.36003(8)
O3 O 0.77454(11) 0.40673(9) 0.32337(8)
O4 O 0.65471(11) 0.28390(9) 0.40456(7)
C15 C 0.77898(16) 0.20091(13) 0.40934(10)
H8 H 0.7863 0.1784 0.3441
H9 H 0.7593 0.1307 0.4448
H10 H 0.8756 0.2374 0.4423
C16 C 0.92682(16) 0.89947(12) 0.34984(10)
H11 H 1.0389 0.8901 0.3560
H12 H 0.8942 0.9708 0.3108
O5 O 0.89604(17) 0.91553(10) 0.44240(8)
H13 H 0.970(6) 0.958(4) 0.473(3)
N1 N 0.60852(14) 0.51017(10) 0.13853(8)
O6 O 0.47857(13) 0.48517(10) 0.14690(7)
O7 O 0.67369(16) 0.45946(12) 0.08295(9)
H14? H 0.766(6) 0.942(4) 0.430(4)
loop_
_geom_bond_atom_site_label_1
_geom_bond_atom_site_label_2
_geom_bond_site_symmetry_1
_geom_bond_site_symmetry_2
O1 C1 1_555 1_555
C1 H1 1_555 1_555
H2 C1 1_555 1_555
O2 C1 1_555 1_555
C2 O2 1_555 1_555
C3 O1 1_555 1_555
C4 C3 1_555 1_555
H3 C4 1_555 1_555
C5 C4 1_555 1_555
C6 C5 1_555 1_555
C7 C2 1_555 1_555
H4 C7 1_555 1_555
C8 C5 1_555 1_555
C9 C8 1_555 1_555
H5 C9 1_555 1_555
C10 C9 1_555 1_555
C11 C10 1_555 1_555
H6 C11 1_555 1_555
C12 C11 1_555 1_555
H7 C12 1_555 1_555
C13 C8 1_555 1_555
C14 C6 1_555 1_555
O3 C14 1_555 1_555
O4 C14 1_555 1_555
C15 O4 1_555 1_555
H8 C15 1_555 1_555
H9 C15 1_555 1_555
H10 C15 1_555 1_555
C16 C10 1_555 1_555
H11 C16 1_555 1_555
H12 C16 1_555 1_555
O5 C16 1_555 1_555
H13 O5 1_555 1_555
N1 C13 1_555 1_555
O6 N1 1_555 1_555
O7 N1 1_555 1_555
C2 C3 1_555 1_555
C6 C7 1_555 1_555
C12 C13 1_555 1_555

#END
