
#######################################################################
#
#                 Cambridge Crystallographic Data Centre
#                                CCDC 
#
#######################################################################
#
# If this CIF has been generated from an entry in the Cambridge 
# Structural Database, then it will include bibliographic, chemical, 
# crystal, experimental, refinement or atomic coordinate data resulting 
# from the CCDC's data processing and validation procedures.
#
#######################################################################

data_GAWXAG
_chemical_formula_moiety         'C16 H13 N1 O6'
_chemical_name_systematic        
6-(5-(methoxymethyl)-2-nitrophenyl)-2H-1,3-benzodioxole-5-carbaldehyde
_symmetry_cell_setting           triclinic
_symmetry_space_group_name_H-M   'P -1'
_symmetry_Int_Tables_number      2
_space_group_name_Hall           '-P 1'
loop_
_symmetry_equiv_pos_site_id
_symmetry_equiv_pos_as_xyz
1 x,y,z
2 -x,-y,-z
_cell_length_a                   6.6160(3)
_cell_length_b                   9.3462(3)
_cell_length_c                   11.3791(5)
_cell_angle_alpha                86.286(3)
_cell_angle_beta                 89.459(4)
_cell_angle_gamma                85.502(3)
_cell_volume                     699.973
_exptl_crystal_colour            yellow
_exptl_crystal_description       block
_cell_formula_units_Z            2
_exptl_crystal_recrystallization_method dichloromethane/hexane
loop_
_atom_site_label
_atom_site_type_symbol
_atom_site_fract_x
_atom_site_fract_y
_atom_site_fract_z
O1 O 0.38252(16) 0.66765(10) 0.07773(9)
C1 C 0.1958(2) 0.60911(15) 0.05123(13)
H1 H 0.1749 0.6137 -0.0350
H2 H 0.0805 0.6645 0.0875
O2 O 0.20870(16) 0.46163(11) 0.09826(9)
O3 O 1.00713(18) 0.58151(12) 0.35402(10)
C2 C 0.9209(2) 0.47177(15) 0.35233(12)
H3 H 0.9811 0.3875 0.3932
C3 C 0.4442(2) 0.32781(14) 0.23804(11)
H4 H 0.3715 0.2439 0.2448
C4 C 0.7284(2) 0.46168(14) 0.29066(11)
C5 C 0.6544(2) 0.58179(14) 0.21698(12)
H5 H 0.7235 0.6673 0.2098
C6 C 0.4803(2) 0.56982(14) 0.15681(11)
C7 C 0.3767(2) 0.44581(14) 0.16778(11)
C8 C 0.6257(2) 0.33564(13) 0.29981(11)
C9 C 0.7211(2) 0.11104(14) 0.70689(11)
H6 H 0.8255 0.1754 0.7274
H7 H 0.5869 0.1553 0.7298
N1 N 0.77176(18) 0.05091(12) 0.20994(9)
C10 C 0.74334(19) 0.06958(14) 0.33626(10)
C11 C 0.77587(19) -0.05327(14) 0.41069(11)
H8 H 0.8046 -0.1446 0.3795
C12 C 0.76577(19) -0.04081(14) 0.53113(11)
H9 H 0.7861 -0.1243 0.5831
C13 C 0.72620(19) 0.09265(14) 0.57641(11)
C14 C 0.6881(2) 0.21431(14) 0.49953(11)
H10 H 0.6572 0.3051 0.5312
C15 C 0.6943(2) 0.20618(14) 0.37783(11)
O4 O 0.75826(17) -0.02413(10) 0.76809(8)
C16 C 0.7491(2) -0.01477(16) 0.89268(11)
H11 H 0.8568 0.0429 0.9174
H12 H 0.7675 -0.1116 0.9315
H13 H 0.6169 0.0308 0.9147
O5 O 0.80680(18) 0.15519(11) 0.14496(9)
O6 O 0.76274(17) -0.07059(11) 0.17524(9)
loop_
_geom_bond_atom_site_label_1
_geom_bond_atom_site_label_2
_geom_bond_site_symmetry_1
_geom_bond_site_symmetry_2
O1 C1 1_555 1_555
C1 H1 1_555 1_555
H2 C1 1_555 1_555
O2 C1 1_555 1_555
O3 C2 1_555 1_555
C2 H3 1_555 1_555
C3 H4 1_555 1_555
C4 C2 1_555 1_555
C5 C4 1_555 1_555
H5 C5 1_555 1_555
C6 O1 1_555 1_555
C7 O2 1_555 1_555
C8 C3 1_555 1_555
C9 H6 1_555 1_555
H7 C9 1_555 1_555
N1 C10 1_555 1_555
C10 C11 1_555 1_555
C11 H8 1_555 1_555
C12 C11 1_555 1_555
H9 C12 1_555 1_555
C13 C9 1_555 1_555
C14 C13 1_555 1_555
H10 C14 1_555 1_555
C15 C8 1_555 1_555
O4 C9 1_555 1_555
C16 O4 1_555 1_555
H11 C16 1_555 1_555
H12 C16 1_555 1_555
H13 C16 1_555 1_555
O5 N1 1_555 1_555
O6 N1 1_555 1_555
C3 C7 1_555 1_555
C4 C8 1_555 1_555
C5 C6 1_555 1_555
C6 C7 1_555 1_555
C10 C15 1_555 1_555
C12 C13 1_555 1_555
C14 C15 1_555 1_555

#END
