
#######################################################################
#
#                 Cambridge Crystallographic Data Centre
#                                CCDC 
#
#######################################################################
#
# If this CIF has been generated from an entry in the Cambridge 
# Structural Database, then it will include bibliographic, chemical, 
# crystal, experimental, refinement or atomic coordinate data resulting 
# from the CCDC's data processing and validation procedures.
#
#######################################################################

data_GAWXEK
_chemical_formula_moiety         'C17 H17 N1 O3'
_chemical_name_systematic        
(2-(1H-indol-7-yl)-4,5-dimethoxyphenyl)methanol
_symmetry_cell_setting           monoclinic
_symmetry_space_group_name_H-M   'P 21/n'
_symmetry_Int_Tables_number      14
_space_group_name_Hall           '-P 2yn'
loop_
_symmetry_equiv_pos_site_id
_symmetry_equiv_pos_as_xyz
1 x,y,z
2 1/2-x,1/2+y,1/2-z
3 -x,-y,-z
4 1/2+x,1/2-y,1/2+z
_cell_length_a                   17.4725(2)
_cell_length_b                   8.6511(1)
_cell_length_c                   18.9278(2)
_cell_angle_alpha                90
_cell_angle_beta                 96.8003(8)
_cell_angle_gamma                90
_cell_volume                     2840.93
_exptl_crystal_colour            'pale brown'
_exptl_crystal_description       plate
_cell_formula_units_Z            8
_exptl_crystal_recrystallization_method methanol
loop_
_atom_site_label
_atom_site_type_symbol
_atom_site_fract_x
_atom_site_fract_y
_atom_site_fract_z
N1 N 0.24808(6) 0.03667(13) 0.36196(5)
C1 C 0.19935(8) -0.07320(17) 0.32924(7)
C2 C 0.24000(8) -0.17705(16) 0.29453(7)
C3 C 0.31907(8) -0.13041(14) 0.30614(6)
C4 C 0.38732(8) -0.18678(15) 0.28338(7)
C5 C 0.45564(8) -0.11140(17) 0.30477(7)
C6 C 0.45749(8) 0.02179(16) 0.34740(7)
C7 C 0.39102(7) 0.08370(14) 0.37012(6)
C8 C 0.32217(7) 0.00432(14) 0.34894(6)
C9 C 0.39203(7) 0.22831(14) 0.41316(6)
C10 C 0.36415(7) 0.22424(14) 0.48008(6)
C11 C 0.36218(7) 0.35569(14) 0.52113(6)
C12 C 0.38714(7) 0.49695(14) 0.49514(6)
C13 C 0.41517(7) 0.50150(14) 0.42997(6)
C14 C 0.41814(7) 0.36854(14) 0.38849(6)
O1 O 0.33646(5) 0.36377(10) 0.58665(4)
C15 C 0.31302(9) 0.22208(17) 0.61655(7)
O2 O 0.37960(5) 0.62269(10) 0.53787(5)
C16 C 0.39281(10) 0.77093(16) 0.50865(8)
C17 C 0.45010(8) 0.38410(16) 0.31821(7)
O3 O 0.53142(6) 0.35908(13) 0.32402(5)
H1 H 0.1445 -0.0727 0.3327
H2 H 0.2199 -0.2629 0.2686
H3 H 0.3864 -0.2751 0.2536
H4 H 0.5032 -0.1493 0.2907
H5 H 0.5062 0.0725 0.3602
H6 H 0.3461 0.1293 0.4964
H7 H 0.4315 0.5954 0.4125
H8 H 0.2977 0.2446 0.6638
H9 H 0.3568 0.1502 0.6228
H10 H 0.2693 0.1773 0.5861
H11 H 0.3812 0.8489 0.5419
H12 H 0.4487 0.7855 0.4998
H13 H 0.3594 0.7858 0.4641
H14 H 0.4388 0.4888 0.2995
H15 H 0.4254 0.3081 0.2839
H16 H 0.2339(9) 0.115(2) 0.3856(9)
H17 H 0.5529(11) 0.411(2) 0.3639(11)
N2 N 0.25189(6) 0.66396(13) 0.64315(5)
C18 C 0.29913(8) 0.77065(17) 0.68046(7)
C19 C 0.25605(8) 0.87897(16) 0.70934(7)
C20 C 0.17703(8) 0.84014(15) 0.68902(6)
C21 C 0.10661(8) 0.90622(15) 0.70185(7)
C22 C 0.03941(8) 0.83890(16) 0.67181(8)
C23 C 0.03967(8) 0.70310(16) 0.63086(7)
C24 C 0.10812(7) 0.63114(14) 0.61846(6)
C25 C 0.17638(7) 0.70396(14) 0.64736(6)
C26 C 0.11022(7) 0.48355(15) 0.57817(6)
C27 C 0.14416(7) 0.48198(14) 0.51429(6)
C28 C 0.14964(7) 0.34697(15) 0.47646(6)
C29 C 0.12208(7) 0.20829(15) 0.50243(6)
C30 C 0.08861(7) 0.20931(15) 0.56520(7)
C31 C 0.08180(7) 0.34607(15) 0.60325(6)
O4 O 0.18067(5) 0.33477(10) 0.41341(4)
C32 C 0.20639(8) 0.47507(16) 0.38383(7)
O5 O 0.13130(6) 0.07981(11) 0.46217(5)
C33 C 0.11728(12) -0.06616(17) 0.49304(9)
C34 C 0.04608(8) 0.33811(17) 0.67216(8)
O6 O -0.03377(7) 0.35627(17) 0.66225(7)
H18 H 0.3536 0.7645 0.6838
H19 H 0.2750 0.9636 0.7369
H20 H 0.1048 0.9967 0.7297
H21 H -0.0101 0.8847 0.6777
H22 H -0.0077 0.6572 0.6109
H23 H 0.1636 0.5745 0.4979
H24 H 0.0716 0.1158 0.5831
H25 H 0.2270 0.4493 0.3400
H26 H 0.2464 0.5253 0.4161
H27 H 0.1626 0.5450 0.3722
H28 H 0.1265 -0.1461 0.4593
H29 H 0.1524 -0.0814 0.5367
H30 H 0.0628 -0.0750 0.5029
H31 H 0.2676(9) 0.5856(19) 0.6197(8)
H32 H 0.0677 0.4178 0.7028
H33 H 0.0579 0.2404 0.6937
H34 H -0.0482 0.2815 0.6290
O7? O -0.0078(4) 0.2212(8) 0.6706(4)
H35? H 0.0849 0.3116 0.7096
H36? H 0.0251 0.4362 0.6816
H37? H -0.0044 0.1845 0.7108
H38? H -0.0519 0.4268 0.7037
loop_
_geom_bond_atom_site_label_1
_geom_bond_atom_site_label_2
_geom_bond_site_symmetry_1
_geom_bond_site_symmetry_2
N1 C1 1_555 1_555
C1 C2 1_555 1_555
C2 C3 1_555 1_555
C3 C4 1_555 1_555
C4 C5 1_555 1_555
C5 C6 1_555 1_555
C6 C7 1_555 1_555
C7 C8 1_555 1_555
C8 N1 1_555 1_555
C9 C7 1_555 1_555
C10 C9 1_555 1_555
C11 C10 1_555 1_555
C12 C11 1_555 1_555
C13 C12 1_555 1_555
C14 C9 1_555 1_555
O1 C11 1_555 1_555
C15 O1 1_555 1_555
O2 C12 1_555 1_555
C16 O2 1_555 1_555
C17 C14 1_555 1_555
O3 C17 1_555 1_555
H1 C1 1_555 1_555
H2 C2 1_555 1_555
H3 C4 1_555 1_555
H4 C5 1_555 1_555
H5 C6 1_555 1_555
H6 C10 1_555 1_555
H7 C13 1_555 1_555
H8 C15 1_555 1_555
H9 C15 1_555 1_555
H10 C15 1_555 1_555
H11 C16 1_555 1_555
H12 C16 1_555 1_555
H13 C16 1_555 1_555
H14 C17 1_555 1_555
H15 C17 1_555 1_555
H16 N1 1_555 1_555
H17 O3 1_555 1_555
N2 C18 1_555 1_555
C18 C19 1_555 1_555
C19 C20 1_555 1_555
C20 C21 1_555 1_555
C21 C22 1_555 1_555
C22 C23 1_555 1_555
C23 C24 1_555 1_555
C24 C25 1_555 1_555
C25 N2 1_555 1_555
C26 C24 1_555 1_555
C27 C26 1_555 1_555
C28 C27 1_555 1_555
C29 C28 1_555 1_555
C30 C29 1_555 1_555
C31 C26 1_555 1_555
O4 C28 1_555 1_555
C32 O4 1_555 1_555
O5 C29 1_555 1_555
C33 O5 1_555 1_555
C34 C31 1_555 1_555
O6 C34 1_555 1_555
H18 C18 1_555 1_555
H19 C19 1_555 1_555
H20 C21 1_555 1_555
H21 C22 1_555 1_555
H22 C23 1_555 1_555
H23 C27 1_555 1_555
H24 C30 1_555 1_555
H25 C32 1_555 1_555
H26 C32 1_555 1_555
H27 C32 1_555 1_555
H28 C33 1_555 1_555
H29 C33 1_555 1_555
H30 C33 1_555 1_555
H31 N2 1_555 1_555
H32 C34 1_555 1_555
H33 C34 1_555 1_555
H34 O6 1_555 1_555
C3 C8 1_555 1_555
C13 C14 1_555 1_555
C20 C25 1_555 1_555
C30 C31 1_555 1_555

#END
