
#######################################################################
#
#                 Cambridge Crystallographic Data Centre
#                                CCDC 
#
#######################################################################
#
# If this CIF has been generated from an entry in the Cambridge 
# Structural Database, then it will include bibliographic, chemical, 
# crystal, experimental, refinement or atomic coordinate data resulting 
# from the CCDC's data processing and validation procedures.
#
#######################################################################

data_GAWZIQ
_chemical_formula_moiety         'C29 H27 N1 O2 S2'
_chemical_name_systematic        
3,28-dioxa-11,20-dithia-34-azapentacyclo[28.3.1.0^4,9^.0^13,18^.0^22,27^]tetratriaconta-1(34),4,6,8,13,15,17,22,24,26,30,32-dodecaene
_symmetry_cell_setting           monoclinic
_symmetry_space_group_name_H-M   'P 21/n'
_symmetry_Int_Tables_number      14
_space_group_name_Hall           '-P 2yn'
loop_
_symmetry_equiv_pos_site_id
_symmetry_equiv_pos_as_xyz
1 x,y,z
2 1/2-x,1/2+y,1/2-z
3 -x,-y,-z
4 1/2+x,1/2-y,1/2+z
_cell_length_a                   15.5129(5)
_cell_length_b                   9.4321(3)
_cell_length_c                   17.0231(5)
_cell_angle_alpha                90
_cell_angle_beta                 96.581(2)
_cell_angle_gamma                90
_cell_volume                     2474.39
_exptl_crystal_colour            colorless
_exptl_crystal_description       block
_cell_formula_units_Z            4
loop_
_atom_site_label
_atom_site_type_symbol
_atom_site_fract_x
_atom_site_fract_y
_atom_site_fract_z
S1 S 0.93825(2) 0.42801(4) 0.09252(2)
S2 S 0.64651(3) 0.37490(4) 0.04630(2)
O1 O 0.95494(7) 0.09648(11) 0.20040(6)
O2 O 0.59199(7) 0.04029(12) 0.13384(6)
N1 N 0.77250(8) -0.04015(13) 0.22212(7)
C1 C 0.85173(10) -0.08673(16) 0.21125(9)
C2 C 0.86475(12) -0.20425(19) 0.16539(12)
H1 H 0.9218 -0.2342 0.1583
C3 C 0.79381(13) -0.27676(19) 0.13031(13)
H2 H 0.8012 -0.3582 0.0989
C4 C 0.71209(12) -0.23023(18) 0.14114(11)
H3 H 0.6621 -0.2789 0.1175
C5 C 0.70414(10) -0.11147(16) 0.18699(9)
C6 C 0.61669(10) -0.05327(18) 0.19882(10)
H4 H 0.5740 -0.1311 0.1997
H5 H 0.6196 -0.0011 0.2495
C7 C 0.51756(9) 0.11835(16) 0.13595(9)
C8 C 0.46081(10) 0.10010(18) 0.19254(10)
H6 H 0.4722 0.0301 0.2325
C9 C 0.38780(10) 0.18401(19) 0.19047(11)
H7 H 0.3490 0.1716 0.2293
C10 C 0.37056(10) 0.28533(19) 0.13294(11)
H8 H 0.3205 0.3435 0.1320
C11 C 0.42718(10) 0.30183(17) 0.07614(10)
H9 H 0.4148 0.3712 0.0360
C12 C 0.50125(9) 0.21996(16) 0.07647(9)
C13 C 0.56274(10) 0.24444(17) 0.01570(9)
H10 H 0.5292 0.2767 -0.0341
H11 H 0.5908 0.1534 0.0048
C14 C 0.73765(10) 0.26520(16) 0.08652(9)
H12 H 0.7810 0.3255 0.1180
H13 H 0.7169 0.1935 0.1225
C15 C 0.78067(9) 0.19089(15) 0.02329(8)
C16 C 0.75989(11) 0.05057(17) 0.00518(10)
H14 H 0.7195 0.0025 0.0336
C17 C 0.79704(12) -0.02040(19) -0.05359(11)
H15 H 0.7823 -0.1165 -0.0651
C18 C 0.85530(12) 0.0481(2) -0.09532(10)
H16 H 0.8808 -0.0003 -0.1358
C19 C 0.87652(10) 0.18734(19) -0.07809(9)
H17 H 0.9167 0.2344 -0.1072
C20 C 0.84046(9) 0.26021(15) -0.01908(8)
C21 C 0.86938(9) 0.40976(15) -0.00144(8)
H18 H 0.8175 0.4707 -0.0004
H19 H 0.9017 0.4441 -0.0446
C22 C 1.01095(9) 0.27763(15) 0.08866(8)
H20 H 0.9773 0.1907 0.0735
H21 H 1.0517 0.2948 0.0490
C23 C 1.06009(9) 0.26008(15) 0.16923(8)
C24 C 1.13652(9) 0.33354(16) 0.19007(9)
H22 H 1.1576 0.3954 0.1526
C25 C 1.18297(10) 0.31952(18) 0.26380(9)
H23 H 1.2353 0.3710 0.2769
C26 C 1.15248(10) 0.22987(19) 0.31811(9)
H24 H 1.1840 0.2198 0.3690
C27 C 1.07619(10) 0.15406(18) 0.29927(9)
H25 H 1.0558 0.0921 0.3371
C28 C 1.02982(9) 0.16905(15) 0.22508(8)
C29 C 0.92702(10) -0.00808(18) 0.25344(10)
H26 H 0.9095 0.0385 0.3013
H27 H 0.9750 -0.0746 0.2700
loop_
_geom_bond_atom_site_label_1
_geom_bond_atom_site_label_2
_geom_bond_site_symmetry_1
_geom_bond_site_symmetry_2
S1 C21 1_555 1_555
S2 C13 1_555 1_555
O1 C28 1_555 1_555
O2 C6 1_555 1_555
N1 C1 1_555 1_555
C1 C2 1_555 1_555
C2 H1 1_555 1_555
C3 C2 1_555 1_555
H2 C3 1_555 1_555
C4 C3 1_555 1_555
H3 C4 1_555 1_555
C5 N1 1_555 1_555
C6 C5 1_555 1_555
H4 C6 1_555 1_555
H5 C6 1_555 1_555
C7 O2 1_555 1_555
C8 C7 1_555 1_555
H6 C8 1_555 1_555
C9 C8 1_555 1_555
H7 C9 1_555 1_555
C10 C9 1_555 1_555
H8 C10 1_555 1_555
C11 C10 1_555 1_555
H9 C11 1_555 1_555
C12 C7 1_555 1_555
C13 C12 1_555 1_555
H10 C13 1_555 1_555
H11 C13 1_555 1_555
C14 S2 1_555 1_555
H12 C14 1_555 1_555
H13 C14 1_555 1_555
C15 C14 1_555 1_555
C16 C15 1_555 1_555
H14 C16 1_555 1_555
C17 C16 1_555 1_555
H15 C17 1_555 1_555
C18 C17 1_555 1_555
H16 C18 1_555 1_555
C19 C18 1_555 1_555
H17 C19 1_555 1_555
C20 C15 1_555 1_555
C21 C20 1_555 1_555
H18 C21 1_555 1_555
H19 C21 1_555 1_555
C22 S1 1_555 1_555
H20 C22 1_555 1_555
H21 C22 1_555 1_555
C23 C22 1_555 1_555
C24 C23 1_555 1_555
H22 C24 1_555 1_555
C25 C24 1_555 1_555
H23 C25 1_555 1_555
C26 C25 1_555 1_555
H24 C26 1_555 1_555
C27 C26 1_555 1_555
H25 C27 1_555 1_555
C28 C23 1_555 1_555
C29 O1 1_555 1_555
H26 C29 1_555 1_555
H27 C29 1_555 1_555
C1 C29 1_555 1_555
C4 C5 1_555 1_555
C11 C12 1_555 1_555
C19 C20 1_555 1_555
C27 C28 1_555 1_555

#END
