
#######################################################################
#
#                 Cambridge Crystallographic Data Centre
#                                CCDC 
#
#######################################################################
#
# If this CIF has been generated from an entry in the Cambridge 
# Structural Database, then it will include bibliographic, chemical, 
# crystal, experimental, refinement or atomic coordinate data resulting 
# from the CCDC's data processing and validation procedures.
#
#######################################################################

data_GAXLEZ
_chemical_formula_moiety         'C25 H22 N2 O3 S1'
_chemical_name_systematic        
N-[1-(1H-indol-3-yl)-1-methyl-3-oxo-2,3-dihydro-1H-inden-2-yl]-4-methylbenzene-1-sulfonamide
_symmetry_cell_setting           monoclinic
_symmetry_space_group_name_H-M   'P 21/c'
_symmetry_Int_Tables_number      14
_space_group_name_Hall           '-P 2ybc'
loop_
_symmetry_equiv_pos_site_id
_symmetry_equiv_pos_as_xyz
1 x,y,z
2 -x,1/2+y,1/2-z
3 -x,-y,-z
4 x,1/2-y,1/2+z
_cell_length_a                   12.2496(9)
_cell_length_b                   15.4498(4)
_cell_length_c                   11.5317(3)
_cell_angle_alpha                90
_cell_angle_beta                 103.677(7)
_cell_angle_gamma                90
_cell_volume                     2120.53
_exptl_crystal_colour            colorless
_exptl_crystal_description       Prism
_cell_formula_units_Z            4
loop_
_atom_site_label
_atom_site_type_symbol
_atom_site_fract_x
_atom_site_fract_y
_atom_site_fract_z
S1 S 0.42199(4) -0.07877(3) 0.83903(4)
O1 O 0.53404(11) -0.08201(9) 0.91325(13)
O2 O 0.40556(11) -0.10189(9) 0.71583(12)
O3 O 0.16968(15) 0.05900(11) 0.90847(15)
N1 N 0.38041(14) 0.01886(10) 0.84648(14)
H1 H 0.4035(17) 0.0439(13) 0.9134(15)
N2 N 0.41929(19) 0.08508(14) 0.42181(19)
H2 H 0.4727(19) 0.0876(17) 0.384(2)
C1 C 0.15081(19) -0.32700(14) 1.0643(2)
H3 H 0.1640 -0.3160 1.1484
H4 H 0.1723 -0.3854 1.0517
H5 H 0.0725 -0.3192 1.0278
C2 C 0.21913(16) -0.26517(12) 1.00974(17)
C3 C 0.23630(18) -0.18074(13) 1.04968(19)
H6 H 0.2072 -0.1628 1.1132
C4 C 0.29563(18) -0.12230(13) 0.99763(18)
H7 H 0.3067 -0.0659 1.0262
C5 C 0.33840(15) -0.14871(12) 0.90253(16)
C6 C 0.28560(15) 0.05764(12) 0.76290(16)
H8 H 0.2516 0.0129 0.7054
C7 C 0.31565(15) 0.13636(12) 0.69058(17)
C8 C 0.33589(17) 0.10993(12) 0.57169(18)
C9 C 0.25508(18) 0.07282(12) 0.47297(17)
C10 C 0.3114(2) 0.05794(13) 0.3810(2)
C11 C 0.2573(3) 0.02270(15) 0.2715(2)
H9 H 0.2956 0.0136 0.2119
C12 C 0.1462(3) 0.00189(15) 0.2540(2)
H10 H 0.1084 -0.0222 0.1817
C13 C 0.26346(17) -0.29028(13) 0.91505(19)
H11 H 0.2535 -0.3469 0.8874
C14 C 0.32206(16) -0.23291(13) 0.86110(18)
H12 H 0.3505 -0.2507 0.7970
C15 C 0.19427(17) 0.09123(13) 0.82221(18)
C16 C 0.14585(16) 0.16797(12) 0.75539(17)
C17 C 0.21062(16) 0.19196(12) 0.67694(17)
C18 C 0.17988(19) 0.26305(13) 0.60318(19)
H13 H 0.2220 0.2792 0.5494
C19 C 0.0857(2) 0.30931(14) 0.6111(2)
H14 H 0.0644 0.3571 0.5619
C20 C 0.02217(19) 0.28601(15) 0.6911(2)
H15 H -0.0403 0.3188 0.6958
C21 C 0.05072(18) 0.21520(14) 0.76312(19)
H16 H 0.0077 0.1989 0.8160
C22 C 0.4337(2) 0.11591(15) 0.5354(2)
H17 H 0.5007 0.1379 0.5814
C23 C 0.14135(19) 0.05174(13) 0.45121(19)
H18 H 0.1014 0.0616 0.5092
C24 C 0.0888(2) 0.01618(15) 0.3427(2)
H19 H 0.0132 0.0014 0.3286
C25 C 0.41550(18) 0.18741(15) 0.7659(2)
H20 H 0.4824 0.1528 0.7780
H21 H 0.4006 0.2015 0.8418
H22 H 0.4258 0.2398 0.7250
loop_
_geom_bond_atom_site_label_1
_geom_bond_atom_site_label_2
_geom_bond_site_symmetry_1
_geom_bond_site_symmetry_2
S1 O1 1_555 1_555
O2 S1 1_555 1_555
O3 C15 1_555 1_555
N1 S1 1_555 1_555
H1 N1 1_555 1_555
N2 H2 1_555 1_555
C1 H3 1_555 1_555
H4 C1 1_555 1_555
H5 C1 1_555 1_555
C2 C1 1_555 1_555
C3 C2 1_555 1_555
H6 C3 1_555 1_555
C4 C3 1_555 1_555
H7 C4 1_555 1_555
C5 S1 1_555 1_555
C6 N1 1_555 1_555
H8 C6 1_555 1_555
C7 C6 1_555 1_555
C8 C7 1_555 1_555
C9 C8 1_555 1_555
C10 N2 1_555 1_555
C11 C10 1_555 1_555
H9 C11 1_555 1_555
C12 C11 1_555 1_555
H10 C12 1_555 1_555
C13 C2 1_555 1_555
H11 C13 1_555 1_555
C14 C5 1_555 1_555
H12 C14 1_555 1_555
C15 C6 1_555 1_555
C16 C15 1_555 1_555
C17 C7 1_555 1_555
C18 C17 1_555 1_555
H13 C18 1_555 1_555
C19 C18 1_555 1_555
H14 C19 1_555 1_555
C20 C19 1_555 1_555
H15 C20 1_555 1_555
C21 C16 1_555 1_555
H16 C21 1_555 1_555
C22 N2 1_555 1_555
H17 C22 1_555 1_555
C23 C9 1_555 1_555
H18 C23 1_555 1_555
C24 C12 1_555 1_555
H19 C24 1_555 1_555
C25 C7 1_555 1_555
H20 C25 1_555 1_555
H21 C25 1_555 1_555
H22 C25 1_555 1_555
C4 C5 1_555 1_555
C8 C22 1_555 1_555
C9 C10 1_555 1_555
C13 C14 1_555 1_555
C16 C17 1_555 1_555
C20 C21 1_555 1_555
C23 C24 1_555 1_555

#END
