
#######################################################################
#
#                 Cambridge Crystallographic Data Centre
#                                CCDC 
#
#######################################################################
#
# If this CIF has been generated from an entry in the Cambridge 
# Structural Database, then it will include bibliographic, chemical, 
# crystal, experimental, refinement or atomic coordinate data resulting 
# from the CCDC's data processing and validation procedures.
#
#######################################################################

data_GAXMIE
_chemical_formula_moiety         'C34 H23 F3 N2'
_chemical_name_systematic        
(Z)-2-(4'-(diphenylamino)biphenyl-4-yl)-3-(4-(trifluoromethyl)phenyl)prop-2-enenitrile
_symmetry_cell_setting           triclinic
_symmetry_space_group_name_H-M   'P -1'
_symmetry_Int_Tables_number      2
_space_group_name_Hall           '-P 1'
loop_
_symmetry_equiv_pos_site_id
_symmetry_equiv_pos_as_xyz
1 x,y,z
2 -x,-y,-z
_cell_length_a                   9.937(6)
_cell_length_b                   10.893(7)
_cell_length_c                   24.753(16)
_cell_angle_alpha                81.827(11)
_cell_angle_beta                 84.583(12)
_cell_angle_gamma                81.397(11)
_cell_volume                     2614.97
_exptl_crystal_colour            yellow
_exptl_crystal_description       block
_cell_formula_units_Z            4
loop_
_atom_site_label
_atom_site_type_symbol
_atom_site_fract_x
_atom_site_fract_y
_atom_site_fract_z
N1 N 0.5842(3) 0.0129(3) 0.85014(11)
N2 N -0.0374(4) 0.2411(4) 0.47861(14)
C1 C 0.6235(4) -0.1107(3) 0.87534(13)
C2 C 0.5412(4) -0.2024(3) 0.87565(15)
H1 H 0.4600 -0.1830 0.8585
C3 C 0.5776(5) -0.3213(4) 0.90096(18)
H2 H 0.5220 -0.3825 0.9002
C4 C 0.6955(6) -0.3508(5) 0.92731(19)
H3 H 0.7192 -0.4312 0.9451
C5 C 0.7786(5) -0.2604(5) 0.92719(17)
H4 H 0.8595 -0.2801 0.9446
C6 C 0.7427(4) -0.1416(4) 0.90161(14)
H5 H 0.7993 -0.0810 0.9020
C7 C 0.5795(3) 0.1155(3) 0.88007(13)
C8 C 0.5553(4) 0.0988(4) 0.93665(14)
H6 H 0.5416 0.0205 0.9549
C9 C 0.5518(4) 0.1980(4) 0.96577(16)
H7 H 0.5380 0.1855 1.0037
C10 C 0.5682(4) 0.3134(4) 0.93995(17)
H8 H 0.5625 0.3802 0.9600
C11 C 0.5931(4) 0.3319(4) 0.88407(17)
H9 H 0.6058 0.4108 0.8661
C12 C 0.5992(4) 0.2318(3) 0.85471(15)
H10 H 0.6171 0.2441 0.8169
C13 C 0.5293(3) 0.0295(3) 0.79833(13)
C14 C 0.5867(4) -0.0446(4) 0.75924(14)
H11 H 0.6636 -0.1026 0.7665
C15 C 0.5319(4) -0.0338(4) 0.70966(14)
H12 H 0.5726 -0.0854 0.6841
C16 C 0.4188(3) 0.0506(3) 0.69645(13)
C17 C 0.3637(4) 0.1262(4) 0.73592(15)
H13 H 0.2883 0.1857 0.7283
C18 C 0.4172(4) 0.1160(4) 0.78605(15)
H14 H 0.3773 0.1679 0.8116
C19 C 0.3555(3) 0.0580(3) 0.64410(14)
C20 C 0.4057(5) -0.0212(4) 0.60599(19)
H15 H 0.4820 -0.0799 0.6134
C21 C 0.3473(5) -0.0167(5) 0.55764(19)
H16 H 0.3847 -0.0727 0.5334
C22 C 0.2354(4) 0.0681(3) 0.54391(14)
C23 C 0.1846(4) 0.1477(4) 0.58116(15)
H17 H 0.1086 0.2066 0.5736
C24 C 0.2437(4) 0.1429(4) 0.62977(15)
H18 H 0.2063 0.1994 0.6538
C25 C 0.1720(3) 0.0731(3) 0.49169(14)
C26 C 0.0564(4) 0.1660(4) 0.48369(14)
C27 C 0.2144(4) -0.0063(3) 0.45485(14)
H19 H 0.2880 -0.0662 0.4646
C28 C 0.1643(4) -0.0147(4) 0.40187(14)
C29 C 0.2046(4) -0.1247(4) 0.37910(16)
H20 H 0.2607 -0.1895 0.3979
C30 C 0.1633(5) -0.1404(5) 0.32906(17)
H21 H 0.1901 -0.2156 0.3149
C31 C 0.0834(4) -0.0455(5) 0.30064(16)
C32 C 0.0441(4) 0.0642(5) 0.32165(17)
H22 H -0.0105 0.1290 0.3020
C33 C 0.0844(4) 0.0805(4) 0.37194(16)
H23 H 0.0573 0.1563 0.3856
C34 C 0.0403(7) -0.0492(7) 0.2452(2)
F1 F -0.0787(5) -0.0211(9) 0.23845(16)
F2 F 0.1043(5) -0.0066(6) 0.20738(12)
F3 F 0.0458(11) -0.1657(5) 0.2383(2)
N3 N -0.0816(3) 0.5135(3) 0.14557(11)
N4 N 0.5361(4) 0.2598(4) 0.51902(14)
C35 C -0.1126(3) 0.4193(3) 0.11736(14)
C36 C -0.1392(4) 0.3054(4) 0.14482(17)
H24 H -0.1377 0.2904 0.1827
C37 C -0.1683(4) 0.2130(4) 0.1163(2)
H25 H -0.1856 0.1362 0.1353
C38 C -0.1718(5) 0.2339(5) 0.0604(2)
H26 H -0.1899 0.1713 0.0413
C39 C -0.1485(5) 0.3469(5) 0.03324(18)
H27 H -0.1540 0.3621 -0.0045
C40 C -0.1168(4) 0.4401(4) 0.06047(15)
H28 H -0.0983 0.5161 0.0411
C41 C -0.0789(4) 0.6383(4) 0.11951(14)
C42 C -0.1904(4) 0.7070(4) 0.09502(17)
H29 H -0.2706 0.6723 0.0955
C43 C -0.1822(6) 0.8280(5) 0.06968(19)
H30 H -0.2565 0.8739 0.0525
C44 C -0.0641(7) 0.8806(5) 0.0699(2)
H31 H -0.0593 0.9624 0.0537
C45 C 0.0448(6) 0.8119(5) 0.0940(2)
H32 H 0.1249 0.8466 0.0937
C46 C 0.0384(4) 0.6930(4) 0.11850(16)
H33 H 0.1141 0.6477 0.1349
C47 C -0.0308(4) 0.4864(4) 0.19832(14)
C48 C -0.0824(4) 0.5613(4) 0.23760(16)
H34 H -0.1550 0.6242 0.2302
C49 C -0.0291(4) 0.5450(4) 0.28763(15)
H35 H -0.0665 0.5975 0.3133
C50 C 0.0787(3) 0.4530(3) 0.30111(14)
C51 C 0.1269(4) 0.3759(4) 0.26192(15)
H36 H 0.1974 0.3111 0.2697
C52 C 0.0737(4) 0.3920(4) 0.21155(15)
H37 H 0.1090 0.3382 0.1861
C53 C 0.1411(3) 0.4425(3) 0.35402(14)
C54 C 0.0891(5) 0.5207(4) 0.39271(18)
H38 H 0.0122 0.5789 0.3857
C55 C 0.1477(5) 0.5144(5) 0.44113(18)
H39 H 0.1098 0.5691 0.4659
C56 C 0.2603(4) 0.4301(3) 0.45427(14)
C57 C 0.3127(4) 0.3515(4) 0.41653(15)
H40 H 0.3890 0.2928 0.4238
C58 C 0.2528(4) 0.3587(4) 0.36763(15)
H41 H 0.2906 0.3039 0.3429
C59 C 0.3246(3) 0.4255(3) 0.50631(14)
C60 C 0.4421(4) 0.3328(4) 0.51402(14)
C61 C 0.2818(4) 0.5036(3) 0.54364(14)
H42 H 0.2071 0.5627 0.5344
C62 C 0.3326(4) 0.5115(4) 0.59628(14)
C63 C 0.2914(4) 0.6223(4) 0.61880(16)
H43 H 0.2339 0.6863 0.6001
C64 C 0.3344(5) 0.6389(5) 0.66833(17)
H44 H 0.3070 0.7141 0.6825
C65 C 0.4168(4) 0.5452(4) 0.69638(15)
C66 C 0.4564(4) 0.4339(4) 0.67545(17)
H45 H 0.5113 0.3695 0.6951
C67 C 0.4154(4) 0.4168(4) 0.62570(16)
H46 H 0.4436 0.3414 0.6118
C68 C 0.4603(6) 0.5613(6) 0.75058(19)
F4 F 0.5884(3) 0.5033(4) 0.75790(11)
F5 F 0.3902(3) 0.5056(3) 0.79167(10)
F6 F 0.4593(6) 0.6743(4) 0.75782(15)
loop_
_geom_bond_atom_site_label_1
_geom_bond_atom_site_label_2
_geom_bond_site_symmetry_1
_geom_bond_site_symmetry_2
N1 C1 1_555 1_555
N2 C26 1_555 1_555
C1 C2 1_555 1_555
C2 H1 1_555 1_555
C3 C2 1_555 1_555
H2 C3 1_555 1_555
C4 C3 1_555 1_555
H3 C4 1_555 1_555
C5 C4 1_555 1_555
H4 C5 1_555 1_555
C6 C1 1_555 1_555
H5 C6 1_555 1_555
C7 N1 1_555 1_555
C8 C7 1_555 1_555
H6 C8 1_555 1_555
C9 C8 1_555 1_555
H7 C9 1_555 1_555
C10 C9 1_555 1_555
H8 C10 1_555 1_555
C11 C10 1_555 1_555
H9 C11 1_555 1_555
C12 C7 1_555 1_555
H10 C12 1_555 1_555
C13 N1 1_555 1_555
C14 C13 1_555 1_555
H11 C14 1_555 1_555
C15 C14 1_555 1_555
H12 C15 1_555 1_555
C16 C15 1_555 1_555
C17 C16 1_555 1_555
H13 C17 1_555 1_555
C18 C13 1_555 1_555
H14 C18 1_555 1_555
C19 C16 1_555 1_555
C20 C19 1_555 1_555
H15 C20 1_555 1_555
C21 C20 1_555 1_555
H16 C21 1_555 1_555
C22 C21 1_555 1_555
C23 C22 1_555 1_555
H17 C23 1_555 1_555
C24 C19 1_555 1_555
H18 C24 1_555 1_555
C25 C22 1_555 1_555
C26 C25 1_555 1_555
C27 C25 1_555 1_555
H19 C27 1_555 1_555
C28 C27 1_555 1_555
C29 C28 1_555 1_555
H20 C29 1_555 1_555
C30 C29 1_555 1_555
H21 C30 1_555 1_555
C31 C30 1_555 1_555
C32 C31 1_555 1_555
H22 C32 1_555 1_555
C33 C28 1_555 1_555
H23 C33 1_555 1_555
C34 C31 1_555 1_555
F1 C34 1_555 1_555
F2 C34 1_555 1_555
F3 C34 1_555 1_555
N3 C35 1_555 1_555
N4 C60 1_555 1_555
C35 C36 1_555 1_555
C36 H24 1_555 1_555
C37 C36 1_555 1_555
H25 C37 1_555 1_555
C38 C37 1_555 1_555
H26 C38 1_555 1_555
C39 C38 1_555 1_555
H27 C39 1_555 1_555
C40 C35 1_555 1_555
H28 C40 1_555 1_555
C41 N3 1_555 1_555
C42 C41 1_555 1_555
H29 C42 1_555 1_555
C43 C42 1_555 1_555
H30 C43 1_555 1_555
C44 C43 1_555 1_555
H31 C44 1_555 1_555
C45 C44 1_555 1_555
H32 C45 1_555 1_555
C46 C41 1_555 1_555
H33 C46 1_555 1_555
C47 N3 1_555 1_555
C48 C47 1_555 1_555
H34 C48 1_555 1_555
C49 C48 1_555 1_555
H35 C49 1_555 1_555
C50 C49 1_555 1_555
C51 C50 1_555 1_555
H36 C51 1_555 1_555
C52 C47 1_555 1_555
H37 C52 1_555 1_555
C53 C50 1_555 1_555
C54 C53 1_555 1_555
H38 C54 1_555 1_555
C55 C54 1_555 1_555
H39 C55 1_555 1_555
C56 C55 1_555 1_555
C57 C56 1_555 1_555
H40 C57 1_555 1_555
C58 C53 1_555 1_555
H41 C58 1_555 1_555
C59 C56 1_555 1_555
C60 C59 1_555 1_555
C61 C59 1_555 1_555
H42 C61 1_555 1_555
C62 C61 1_555 1_555
C63 C62 1_555 1_555
H43 C63 1_555 1_555
C64 C63 1_555 1_555
H44 C64 1_555 1_555
C65 C64 1_555 1_555
C66 C65 1_555 1_555
H45 C66 1_555 1_555
C67 C62 1_555 1_555
H46 C67 1_555 1_555
C68 C65 1_555 1_555
F4 C68 1_555 1_555
F5 C68 1_555 1_555
F6 C68 1_555 1_555
C5 C6 1_555 1_555
C11 C12 1_555 1_555
C17 C18 1_555 1_555
C23 C24 1_555 1_555
C32 C33 1_555 1_555
C39 C40 1_555 1_555
C45 C46 1_555 1_555
C51 C52 1_555 1_555
C57 C58 1_555 1_555
C66 C67 1_555 1_555

#END
