
#######################################################################
#
#                 Cambridge Crystallographic Data Centre
#                                CCDC 
#
#######################################################################
#
# If this CIF has been generated from an entry in the Cambridge 
# Structural Database, then it will include bibliographic, chemical, 
# crystal, experimental, refinement or atomic coordinate data resulting 
# from the CCDC's data processing and validation procedures.
#
#######################################################################

data_GAXNAW
_chemical_formula_moiety         'C18 H21 N2 O3'
_chemical_name_systematic        
2-(6-Methoxy-2-naphthyl)-4,4,5,5-tetramethyl-4,5-dihydro-1H-3\l^5^-imidazole-1,3-diol
_symmetry_cell_setting           monoclinic
_symmetry_space_group_name_H-M   'P 21/c'
_symmetry_Int_Tables_number      14
_space_group_name_Hall           '-P 2ybc'
loop_
_symmetry_equiv_pos_site_id
_symmetry_equiv_pos_as_xyz
1 x,y,z
2 -x,1/2+y,1/2-z
3 -x,-y,-z
4 x,1/2-y,1/2+z
_cell_length_a                   29.00(2)
_cell_length_b                   11.358(8)
_cell_length_c                   20.024(15)
_cell_angle_alpha                90
_cell_angle_beta                 97.977(9)
_cell_angle_gamma                90
_cell_volume                     6531.73
_exptl_crystal_colour            blue
_exptl_crystal_description       prism
_cell_formula_units_Z            16
loop_
_atom_site_label
_atom_site_type_symbol
_atom_site_fract_x
_atom_site_fract_y
_atom_site_fract_z
C1 C 1.03359(9) 1.1791(2) 0.65213(13)
C2 C 1.01731(17) 1.2816(4) 0.6918(2)
H1 H 0.9986 1.3338 0.6616
H2 H 1.0439 1.3235 0.7139
H3 H 0.9992 1.2523 0.7249
C3 C 1.05509(12) 1.2256(3) 0.59151(15)
H4 H 1.0665 1.1608 0.5678
H5 H 1.0803 1.2779 0.6070
H6 H 1.0318 1.2674 0.5618
C4 C 1.06424(9) 1.0859(2) 0.69431(13)
C5 C 1.05357(11) 1.0762(3) 0.76755(13)
H7 H 1.0206 1.0689 0.7674
H8 H 1.0646 1.1456 0.7922
H9 H 1.0689 1.0082 0.7887
C6 C 1.11620(16) 1.0960(4) 0.6903(2)
H10 H 1.1328 1.0386 0.7194
H11 H 1.1268 1.1735 0.7041
H12 H 1.1217 1.0824 0.6447
C7 C 1.00186(9) 0.9876(2) 0.62760(12)
C8 C 0.96981(9) 0.8924(2) 0.60570(12)
C9 C 0.92143(9) 0.9115(3) 0.60418(13)
H13 H 0.9109 0.9858 0.6142
C10 C 0.88975(10) 0.8224(3) 0.58817(14)
H14 H 0.8581 0.8375 0.5870
C11 C 0.90481(9) 0.7074(2) 0.57332(12)
C12 C 0.87270(9) 0.6136(2) 0.55809(12)
H15 H 0.8410 0.6270 0.5571
C13 C 0.88850(9) 0.5031(2) 0.54485(13)
C14 C 0.93656(10) 0.4819(3) 0.54677(13)
H16 H 0.9470 0.4068 0.5382
C15 C 0.96786(9) 0.5716(2) 0.56126(12)
H17 H 0.9995 0.5566 0.5625
C16 C 0.95286(9) 0.6869(2) 0.57444(11)
C17 C 0.98531(10) 0.7801(2) 0.59088(12)
H18 H 1.0170 0.7662 0.5918
C18 C 0.81190(10) 0.4201(3) 0.52819(16)
H19 H 0.8008 0.4798 0.4960
H20 H 0.8053 0.4430 0.5721
H21 H 0.7965 0.3470 0.5155
N1 N 1.04603(7) 0.9749(2) 0.66068(10)
N2 N 0.99261(8) 1.1045(2) 0.62365(11)
O1 O 1.06788(7) 0.87689(17) 0.67220(11)
O2 O 0.95550(7) 1.15183(19) 0.59258(11)
O9 O 0.86090(7) 0.40599(17) 0.52977(10)
C19 C 0.87064(9) 1.1000(2) 0.78553(13)
C20 C 0.92318(9) 1.0953(3) 0.78508(16)
H22 H 0.9363 1.0329 0.8140
H23 H 0.9368 1.1689 0.8009
H24 H 0.9295 1.0812 0.7400
C21 C 0.86084(12) 1.1070(3) 0.85847(14)
H25 H 0.8278 1.1091 0.8592
H26 H 0.8748 1.1770 0.8792
H27 H 0.8738 1.0392 0.8829
C22 C 0.84387(9) 1.1927(2) 0.73690(13)
C23 C 0.81820(10) 1.2864(3) 0.77148(15)
H28 H 0.8026 1.3391 0.7382
H29 H 0.8401 1.3298 0.8025
H30 H 0.7957 1.2496 0.7955
C24 C 0.87300(10) 1.2504(3) 0.68804(15)
H31 H 0.8876 1.1906 0.6644
H32 H 0.8965 1.2992 0.7128
H33 H 0.8532 1.2978 0.6563
C25 C 0.81509(9) 1.0007(2) 0.70680(13)
C26 C 0.78891(8) 0.9064(2) 0.66911(12)
C27 C 0.76915(9) 0.9250(3) 0.60082(13)
H34 H 0.7722 0.9980 0.5808
C28 C 0.74568(9) 0.8360(3) 0.56441(13)
H35 H 0.7329 0.8500 0.5199
C29 C 0.74038(8) 0.7237(3) 0.59266(12)
C30 C 0.71606(10) 0.6318(3) 0.55592(14)
H36 H 0.7029 0.6444 0.5115
C31 C 0.71165(10) 0.5249(3) 0.58479(13)
C32 C 0.73235(9) 0.5030(3) 0.65222(13)
H37 H 0.7293 0.4294 0.6715
C33 C 0.75639(9) 0.5891(3) 0.68826(13)
H38 H 0.7704 0.5731 0.7320
C34 C 0.76083(9) 0.7048(3) 0.66071(12)
C35 C 0.78453(9) 0.7964(3) 0.69751(12)
H39 H 0.7976 0.7833 0.7420
C36 C 0.66224(13) 0.4496(3) 0.48800(17)
H40 H 0.6839 0.4604 0.4563
H41 H 0.6430 0.5184 0.4883
H42 H 0.6430 0.3824 0.4751
N3 N 0.85062(7) 0.9855(2) 0.75688(11)
N4 N 0.80848(7) 1.1169(2) 0.69497(11)
O3 O 0.86765(7) 0.88721(17) 0.77999(10)
O4 O 0.77696(7) 1.16415(19) 0.65203(10)
O10 O 0.68750(8) 0.43106(19) 0.55448(10)
C37 C 0.65737(9) 1.1098(2) 0.76566(14)
C38 C 0.63321(10) 1.1714(3) 0.81874(14)
H43 H 0.6099 1.2240 0.7970
H44 H 0.6557 1.2152 0.8485
H45 H 0.6188 1.1138 0.8441
C39 C 0.67801(10) 1.2020(3) 0.72324(16)
H46 H 0.6989 1.1646 0.6965
H47 H 0.6948 1.2593 0.7523
H48 H 0.6534 1.2402 0.6941
C40 C 0.62800(10) 1.0120(3) 0.72513(14)
C41 C 0.57569(10) 1.0192(3) 0.72712(16)
H49 H 0.5636 1.0901 0.7051
H50 H 0.5699 1.0198 0.7732
H51 H 0.5606 0.9523 0.7043
C42 C 0.63729(13) 0.9984(4) 0.65206(15)
H52 H 0.6202 0.9321 0.6318
H53 H 0.6700 0.9862 0.6514
H54 H 0.6275 1.0684 0.6272
C43 C 0.68795(9) 0.9203(2) 0.80076(13)
C44 C 0.71764(9) 0.8284(3) 0.83439(12)
C45 C 0.70531(9) 0.7104(2) 0.82810(13)
H55 H 0.6771 0.6901 0.8028
C46 C 0.73425(9) 0.6203(2) 0.85895(12)
C47 C 0.72207(9) 0.4997(3) 0.85108(14)
H56 H 0.6941 0.4791 0.8252
C48 C 0.75039(9) 0.4135(3) 0.88061(13)
H57 H 0.7417 0.3350 0.8745
C49 C 0.79324(9) 0.4427(3) 0.92082(12)
C50 C 0.80607(9) 0.5585(2) 0.92957(13)
H58 H 0.8338 0.5779 0.9564
C51 C 0.77723(9) 0.6489(2) 0.89790(12)
C52 C 0.78991(10) 0.7701(3) 0.90415(13)
H59 H 0.8181 0.7911 0.9294
C53 C 0.76164(9) 0.8551(3) 0.87403(13)
H60 H 0.7710 0.9333 0.8791
C54 C 0.86237(11) 0.3716(3) 0.98833(16)
H61 H 0.8822 0.4130 0.9617
H62 H 0.8768 0.2985 1.0037
H63 H 0.8575 0.4188 1.0265
N5 N 0.69650(8) 1.0377(2) 0.80292(12)
N6 N 0.64702(7) 0.9028(2) 0.76026(11)
O5 O 0.73198(7) 1.0898(2) 0.83636(13)
O6 O 0.62635(7) 0.80426(19) 0.74599(11)
O11 O 0.81832(7) 0.34827(18) 0.94807(10)
C55 C 0.46840(9) 1.0961(3) 0.85958(14)
C56 C 0.45074(15) 1.1213(4) 0.9277(2)
H64 H 0.4253 1.1759 0.9208
H65 H 0.4756 1.1543 0.9588
H66 H 0.4404 1.0491 0.9458
C57 C 0.48362(11) 1.2036(3) 0.82367(18)
H67 H 0.4981 1.1793 0.7856
H68 H 0.5055 1.2481 0.8541
H69 H 0.4570 1.2516 0.8085
C58 C 0.43604(10) 1.0115(3) 0.81415(14)
C59 C 0.44053(12) 1.0226(3) 0.73873(15)
H70 H 0.4240 0.9592 0.7143
H71 H 0.4728 1.0190 0.7328
H72 H 0.4276 1.0964 0.7219
C60 C 0.38522(10) 1.0150(3) 0.82308(18)
H73 H 0.3733 1.0930 0.8138
H74 H 0.3819 0.9938 0.8686
H75 H 0.3681 0.9603 0.7925
C61 C 0.50035(9) 0.9028(3) 0.87061(12)
C62 C 0.53228(9) 0.8053(2) 0.89184(13)
C63 C 0.58063(10) 0.8251(3) 0.90053(14)
H76 H 0.5920 0.8991 0.8915
C64 C 0.61138(10) 0.7357(3) 0.92233(15)
H77 H 0.6432 0.7510 0.9278
C65 C 0.59606(10) 0.6228(3) 0.93647(13)
C66 C 0.62723(10) 0.5310(3) 0.96124(14)
H78 H 0.6591 0.5448 0.9684
C67 C 0.61016(11) 0.4223(3) 0.97449(14)
C68 C 0.56206(11) 0.3974(3) 0.96094(17)
H79 H 0.5512 0.3220 0.9681
C69 C 0.53163(11) 0.4842(3) 0.93738(16)
H80 H 0.5000 0.4671 0.9289
C70 C 0.54702(10) 0.6004(3) 0.92549(14)
C71 C 0.51587(10) 0.6929(3) 0.90338(13)
H81 H 0.4840 0.6783 0.8965
C72 C 0.68643(10) 0.3501(3) 1.01955(16)
H82 H 0.7000 0.3710 0.9801
H83 H 0.7011 0.2801 1.0392
H84 H 0.6909 0.4133 1.0517
N7 N 0.50973(8) 1.0187(2) 0.88149(11)
N8 N 0.45658(8) 0.8939(2) 0.83641(12)
O7 O 0.54720(7) 1.0624(2) 0.91430(11)
O8 O 0.43575(7) 0.79712(19) 0.81718(11)
O12 O 0.63679(8) 0.32879(19) 1.00093(11)
C73? C 1.0175(4) 1.2797(11) 0.6919(6)
C74? C 0.4502(4) 1.1649(9) 0.9152(5)
C75? C 1.1161(4) 1.1012(10) 0.7040(5)
H85? H 0.9991 1.2497 0.7245
H86? H 0.9991 1.3328 0.6620
H87? H 1.0441 1.3206 0.7148
H88? H 0.4326 1.1135 0.9402
H89? H 0.4306 1.2276 0.8959
H90? H 0.4760 1.1972 0.9449
H91? H 1.1272 1.0976 0.6611
H92? H 1.1304 1.0397 0.7326
H93? H 1.1240 1.1763 0.7246
loop_
_geom_bond_atom_site_label_1
_geom_bond_atom_site_label_2
_geom_bond_site_symmetry_1
_geom_bond_site_symmetry_2
C1 C2 1_555 1_555
C2 H1 1_555 1_555
H2 C2 1_555 1_555
H3 C2 1_555 1_555
C3 C1 1_555 1_555
H4 C3 1_555 1_555
H5 C3 1_555 1_555
H6 C3 1_555 1_555
C4 C1 1_555 1_555
C5 C4 1_555 1_555
H7 C5 1_555 1_555
H8 C5 1_555 1_555
H9 C5 1_555 1_555
C6 C4 1_555 1_555
H10 C6 1_555 1_555
H11 C6 1_555 1_555
H12 C6 1_555 1_555
C7 C8 1_555 1_555
C8 C9 1_555 1_555
C9 H13 1_555 1_555
C10 C9 1_555 1_555
H14 C10 1_555 1_555
C11 C10 1_555 1_555
C12 C11 1_555 1_555
H15 C12 1_555 1_555
C13 C12 1_555 1_555
C14 C13 1_555 1_555
H16 C14 1_555 1_555
C15 C14 1_555 1_555
H17 C15 1_555 1_555
C16 C11 1_555 1_555
C17 C8 1_555 1_555
H18 C17 1_555 1_555
C18 H19 1_555 1_555
H20 C18 1_555 1_555
H21 C18 1_555 1_555
C19 C20 1_555 1_555
C20 H22 1_555 1_555
H23 C20 1_555 1_555
H24 C20 1_555 1_555
C21 C19 1_555 1_555
H25 C21 1_555 1_555
H26 C21 1_555 1_555
H27 C21 1_555 1_555
C22 C19 1_555 1_555
C23 C22 1_555 1_555
H28 C23 1_555 1_555
H29 C23 1_555 1_555
H30 C23 1_555 1_555
C24 C22 1_555 1_555
H31 C24 1_555 1_555
H32 C24 1_555 1_555
H33 C24 1_555 1_555
C25 C26 1_555 1_555
C26 C27 1_555 1_555
C27 H34 1_555 1_555
C28 C27 1_555 1_555
H35 C28 1_555 1_555
C29 C28 1_555 1_555
C30 C29 1_555 1_555
H36 C30 1_555 1_555
C31 C30 1_555 1_555
C32 C31 1_555 1_555
H37 C32 1_555 1_555
C33 C32 1_555 1_555
H38 C33 1_555 1_555
C34 C29 1_555 1_555
C35 C26 1_555 1_555
H39 C35 1_555 1_555
C36 H40 1_555 1_555
H41 C36 1_555 1_555
H42 C36 1_555 1_555
C37 C38 1_555 1_555
C38 H43 1_555 1_555
H44 C38 1_555 1_555
H45 C38 1_555 1_555
C39 C37 1_555 1_555
H46 C39 1_555 1_555
H47 C39 1_555 1_555
H48 C39 1_555 1_555
C40 C37 1_555 1_555
C41 C40 1_555 1_555
H49 C41 1_555 1_555
H50 C41 1_555 1_555
H51 C41 1_555 1_555
C42 C40 1_555 1_555
H52 C42 1_555 1_555
H53 C42 1_555 1_555
H54 C42 1_555 1_555
C43 C44 1_555 1_555
C44 C45 1_555 1_555
C45 H55 1_555 1_555
C46 C45 1_555 1_555
C47 C46 1_555 1_555
H56 C47 1_555 1_555
C48 C47 1_555 1_555
H57 C48 1_555 1_555
C49 C48 1_555 1_555
C50 C49 1_555 1_555
H58 C50 1_555 1_555
C51 C46 1_555 1_555
C52 C51 1_555 1_555
H59 C52 1_555 1_555
C53 C44 1_555 1_555
H60 C53 1_555 1_555
C54 H61 1_555 1_555
H62 C54 1_555 1_555
H63 C54 1_555 1_555
C55 C56 1_555 1_555
C56 H64 1_555 1_555
H65 C56 1_555 1_555
H66 C56 1_555 1_555
C57 C55 1_555 1_555
H67 C57 1_555 1_555
H68 C57 1_555 1_555
H69 C57 1_555 1_555
C58 C55 1_555 1_555
C59 C58 1_555 1_555
H70 C59 1_555 1_555
H71 C59 1_555 1_555
H72 C59 1_555 1_555
C60 C58 1_555 1_555
H73 C60 1_555 1_555
H74 C60 1_555 1_555
H75 C60 1_555 1_555
C61 C62 1_555 1_555
C62 C63 1_555 1_555
C63 H76 1_555 1_555
C64 C63 1_555 1_555
H77 C64 1_555 1_555
C65 C64 1_555 1_555
C66 C65 1_555 1_555
H78 C66 1_555 1_555
C67 C66 1_555 1_555
C68 C67 1_555 1_555
H79 C68 1_555 1_555
C69 C68 1_555 1_555
H80 C69 1_555 1_555
C70 C65 1_555 1_555
C71 C62 1_555 1_555
H81 C71 1_555 1_555
C72 H82 1_555 1_555
H83 C72 1_555 1_555
H84 C72 1_555 1_555
N1 C4 1_555 1_555
N2 C1 1_555 1_555
N3 C19 1_555 1_555
N4 C22 1_555 1_555
N5 C37 1_555 1_555
N6 C40 1_555 1_555
N7 C55 1_555 1_555
N8 C58 1_555 1_555
O1 N1 1_555 1_555
O2 N2 1_555 1_555
O3 N3 1_555 1_555
O4 N4 1_555 1_555
O5 N5 1_555 1_555
O6 N6 1_555 1_555
O7 N7 1_555 1_555
O8 N8 1_555 1_555
O9 C13 1_555 1_555
O10 C31 1_555 1_555
O11 C49 1_555 1_555
O12 C67 1_555 1_555
C7 N1 1_555 1_555
C7 N2 1_555 1_555
C15 C16 1_555 1_555
C16 C17 1_555 1_555
C18 O9 1_555 1_555
C25 N3 1_555 1_555
C25 N4 1_555 1_555
C33 C34 1_555 1_555
C34 C35 1_555 1_555
C36 O10 1_555 1_555
C43 N5 1_555 1_555
C43 N6 1_555 1_555
C50 C51 1_555 1_555
C52 C53 1_555 1_555
C54 O11 1_555 1_555
C61 N7 1_555 1_555
C61 N8 1_555 1_555
C69 C70 1_555 1_555
C70 C71 1_555 1_555
C72 O12 1_555 1_555

#END
