
#######################################################################
#
#                 Cambridge Crystallographic Data Centre
#                                CCDC 
#
#######################################################################
#
# If this CIF has been generated from an entry in the Cambridge 
# Structural Database, then it will include bibliographic, chemical, 
# crystal, experimental, refinement or atomic coordinate data resulting 
# from the CCDC's data processing and validation procedures.
#
#######################################################################

data_GAXQOO
_chemical_formula_moiety         'C30 H53 Cl3 N2 Si4'
_chemical_name_systematic        
1,1,2-trichloro-N,N'-bis(2,6-diisopropylphenyl)-N,N'-bis(trimethylsilyl)disilane-1,2-diamine
_symmetry_cell_setting           monoclinic
_symmetry_space_group_name_H-M   'P 21/n'
_symmetry_Int_Tables_number      14
_space_group_name_Hall           '-P 2yn'
loop_
_symmetry_equiv_pos_site_id
_symmetry_equiv_pos_as_xyz
1 x,y,z
2 1/2-x,1/2+y,1/2-z
3 -x,-y,-z
4 1/2+x,1/2-y,1/2+z
_cell_length_a                   9.676(3)
_cell_length_b                   24.934(6)
_cell_length_c                   15.410(4)
_cell_angle_alpha                90
_cell_angle_beta                 104.354(5)
_cell_angle_gamma                90
_cell_volume                     3601.78
_exptl_crystal_colour            colorless
_exptl_crystal_description       Prism
_cell_formula_units_Z            4
loop_
_atom_site_label
_atom_site_type_symbol
_atom_site_fract_x
_atom_site_fract_y
_atom_site_fract_z
N1 N 0.65093(17) 0.03119(6) 0.25847(11)
N2 N 0.34793(17) 0.19214(6) 0.26233(11)
Si1 Si 0.55900(6) 0.08779(2) 0.21416(4)
Si2 Si 0.78845(6) 0.02543(2) 0.35834(4)
Si3 Si 0.45588(6) 0.13998(2) 0.31013(4)
Si4 Si 0.21426(6) 0.18662(2) 0.16004(4)
C1 C 0.6183(2) -0.01813(7) 0.20485(12)
C2 C 0.6897(2) -0.02863(7) 0.13740(13)
C3 C 0.6612(2) -0.07671(8) 0.09032(14)
H1 H 0.7087 -0.0842 0.0446
C4 C 0.5659(2) -0.11390(8) 0.10826(14)
H2 H 0.5487 -0.1465 0.0754
C5 C 0.4958(2) -0.10323(8) 0.17444(13)
H3 H 0.4297 -0.1286 0.1864
C6 C 0.5207(2) -0.05568(7) 0.22402(13)
C7 C 0.7948(2) 0.01032(8) 0.11230(14)
H4 H 0.8172 0.0390 0.1591
C8 C 0.9350(2) -0.01691(9) 0.10798(17)
H5 H 0.9778 -0.0340 0.1656
H6 H 1.0008 0.0100 0.0949
H7 H 0.9159 -0.0441 0.0606
C9 C 0.7266(3) 0.03694(10) 0.02222(17)
H8 H 0.7044 0.0095 -0.0248
H9 H 0.7931 0.0631 0.0079
H10 H 0.6385 0.0552 0.0260
C10 C 0.4418(2) -0.04696(8) 0.29640(14)
H11 H 0.4777 -0.0128 0.3282
C11 C 0.4719(3) -0.09242(10) 0.36541(18)
H12 H 0.4329 -0.1261 0.3366
H13 H 0.4268 -0.0842 0.4142
H14 H 0.5751 -0.0961 0.3896
C12 C 0.2816(2) -0.04059(11) 0.25565(18)
H15 H 0.2655 -0.0120 0.2107
H16 H 0.2341 -0.0314 0.3029
H17 H 0.2426 -0.0743 0.2272
C13 C 0.8813(3) -0.03972(10) 0.35488(16)
H18 H 0.8116 -0.0690 0.3457
H19 H 0.9527 -0.0452 0.4116
H20 H 0.9285 -0.0393 0.3055
C14 C 0.7190(2) 0.02634(10) 0.46058(15)
H21 H 0.6638 0.0592 0.4613
H22 H 0.7991 0.0253 0.5139
H23 H 0.6576 -0.0049 0.4604
C15 C 0.9173(3) 0.08157(10) 0.36442(17)
H24 H 0.9597 0.0797 0.3130
H25 H 0.9926 0.0787 0.4200
H26 H 0.8674 0.1158 0.3635
C16 C 0.3620(2) 0.24367(7) 0.30978(13)
C17 C 0.4495(2) 0.28411(8) 0.28831(13)
C18 C 0.4655(2) 0.33213(8) 0.33684(14)
H27 H 0.5256 0.3594 0.3236
C19 C 0.3953(2) 0.34052(8) 0.40368(14)
H28 H 0.4077 0.3732 0.4363
C20 C 0.3071(2) 0.30111(8) 0.42275(14)
H29 H 0.2585 0.3072 0.4684
C21 C 0.2875(2) 0.25219(7) 0.37633(13)
C22 C 0.5251(2) 0.27850(8) 0.21327(14)
H30 H 0.5064 0.2416 0.1876
C23 C 0.4633(3) 0.31893(9) 0.13887(16)
H31 H 0.3603 0.3132 0.1173
H32 H 0.5088 0.3140 0.0893
H33 H 0.4814 0.3555 0.1624
C24 C 0.6869(3) 0.28553(11) 0.24789(18)
H34 H 0.7079 0.3223 0.2695
H35 H 0.7331 0.2784 0.1992
H36 H 0.7230 0.2603 0.2971
C25 C 0.1880(2) 0.21065(8) 0.40142(14)
H37 H 0.1739 0.1810 0.3564
C26 C 0.2556(2) 0.18693(9) 0.49386(15)
H38 H 0.3522 0.1743 0.4955
H39 H 0.1977 0.1568 0.5054
H40 H 0.2603 0.2145 0.5398
C27 C 0.0415(2) 0.23442(9) 0.40046(17)
H41 H 0.0515 0.2604 0.4493
H42 H -0.0232 0.2056 0.4084
H43 H 0.0026 0.2524 0.3431
C28 C 0.0804(3) 0.24041(12) 0.15521(18)
H44 H 0.0322 0.2352 0.2035
H45 H 0.0100 0.2391 0.0973
H46 H 0.1282 0.2754 0.1622
C29 C 0.1287(3) 0.11918(10) 0.15627(17)
H47 H 0.2007 0.0912 0.1586
H48 H 0.0538 0.1157 0.1006
H49 H 0.0867 0.1153 0.2076
C30 C 0.2887(3) 0.19167(9) 0.06007(14)
H50 H 0.3269 0.2278 0.0568
H51 H 0.2131 0.1846 0.0059
H52 H 0.3653 0.1653 0.0648
Cl1 Cl 0.68639(7) 0.14416(2) 0.17037(4)
Cl2 Cl 0.34960(6) 0.08449(2) 0.37037(4)
Cl3 Cl 0.61856(6) 0.17128(2) 0.40985(4)
H53 H 0.455(3) 0.0754(11) 0.1354(19)
Cl4? Cl 0.3784(13) 0.0606(4) 0.1207(5)
loop_
_geom_bond_atom_site_label_1
_geom_bond_atom_site_label_2
_geom_bond_site_symmetry_1
_geom_bond_site_symmetry_2
N1 Si1 1_555 1_555
N2 Si3 1_555 1_555
Si1 Si3 1_555 1_555
Si2 N1 1_555 1_555
Si3 Cl2 1_555 1_555
Si4 N2 1_555 1_555
C1 N1 1_555 1_555
C2 C1 1_555 1_555
C3 C2 1_555 1_555
H1 C3 1_555 1_555
C4 C3 1_555 1_555
H2 C4 1_555 1_555
C5 C4 1_555 1_555
H3 C5 1_555 1_555
C6 C1 1_555 1_555
C7 C2 1_555 1_555
H4 C7 1_555 1_555
C8 C7 1_555 1_555
H5 C8 1_555 1_555
H6 C8 1_555 1_555
H7 C8 1_555 1_555
C9 C7 1_555 1_555
H8 C9 1_555 1_555
H9 C9 1_555 1_555
H10 C9 1_555 1_555
C10 C6 1_555 1_555
H11 C10 1_555 1_555
C11 C10 1_555 1_555
H12 C11 1_555 1_555
H13 C11 1_555 1_555
H14 C11 1_555 1_555
C12 C10 1_555 1_555
H15 C12 1_555 1_555
H16 C12 1_555 1_555
H17 C12 1_555 1_555
C13 Si2 1_555 1_555
H18 C13 1_555 1_555
H19 C13 1_555 1_555
H20 C13 1_555 1_555
C14 Si2 1_555 1_555
H21 C14 1_555 1_555
H22 C14 1_555 1_555
H23 C14 1_555 1_555
C15 Si2 1_555 1_555
H24 C15 1_555 1_555
H25 C15 1_555 1_555
H26 C15 1_555 1_555
C16 N2 1_555 1_555
C17 C16 1_555 1_555
C18 C17 1_555 1_555
H27 C18 1_555 1_555
C19 C18 1_555 1_555
H28 C19 1_555 1_555
C20 C19 1_555 1_555
H29 C20 1_555 1_555
C21 C16 1_555 1_555
C22 C17 1_555 1_555
H30 C22 1_555 1_555
C23 C22 1_555 1_555
H31 C23 1_555 1_555
H32 C23 1_555 1_555
H33 C23 1_555 1_555
C24 C22 1_555 1_555
H34 C24 1_555 1_555
H35 C24 1_555 1_555
H36 C24 1_555 1_555
C25 C21 1_555 1_555
H37 C25 1_555 1_555
C26 C25 1_555 1_555
H38 C26 1_555 1_555
H39 C26 1_555 1_555
H40 C26 1_555 1_555
C27 C25 1_555 1_555
H41 C27 1_555 1_555
H42 C27 1_555 1_555
H43 C27 1_555 1_555
C28 Si4 1_555 1_555
H44 C28 1_555 1_555
H45 C28 1_555 1_555
H46 C28 1_555 1_555
C29 Si4 1_555 1_555
H47 C29 1_555 1_555
H48 C29 1_555 1_555
H49 C29 1_555 1_555
C30 Si4 1_555 1_555
H50 C30 1_555 1_555
H51 C30 1_555 1_555
H52 C30 1_555 1_555
Cl1 Si1 1_555 1_555
Cl3 Si3 1_555 1_555
H53 Si1 1_555 1_555
C5 C6 1_555 1_555
C20 C21 1_555 1_555

#END
