
#######################################################################
#
#                 Cambridge Crystallographic Data Centre
#                                CCDC 
#
#######################################################################
#
# If this CIF has been generated from an entry in the Cambridge 
# Structural Database, then it will include bibliographic, chemical, 
# crystal, experimental, refinement or atomic coordinate data resulting 
# from the CCDC's data processing and validation procedures.
#
#######################################################################

data_GAXXUY01
_chemical_formula_moiety         'C12 H12 S8 1+,C12 H12 S8,Cl2 I1 1-'
_chemical_name_systematic        
'bis(bis(Propylenedithio)tetrathiafulvalenium) dichloro-iodide'
_symmetry_cell_setting           monoclinic
_symmetry_space_group_name_H-M   'P 2/c'
_symmetry_Int_Tables_number      13
_space_group_name_Hall           '-P 2yc'
loop_
_symmetry_equiv_pos_site_id
_symmetry_equiv_pos_as_xyz
1 x,y,z
2 -x,y,1/2-z
3 -x,-y,-z
4 x,-y,1/2+z
_cell_length_a                   15.950(6)
_cell_length_b                   6.930(1)
_cell_length_c                   17.170(8)
_cell_angle_alpha                90
_cell_angle_beta                 100.84(5)
_cell_angle_gamma                90
_cell_volume                     1864
_exptl_crystal_colour            black
_cell_formula_units_Z            2
loop_
_atom_site_label
_atom_site_type_symbol
_atom_site_fract_x
_atom_site_fract_y
_atom_site_fract_z
I1 I 0.0000 0.17364(9) 0.2500
Cl1 Cl 0.02796(10) 0.1727(3) 0.10876(10)
Cl1A Cl -0.02796(10) 0.1727(3) 0.39124(10)
S1 S 0.62397(10) 0.6537(2) 0.47189(9)
S2 S 0.57842(10) 0.2472(2) 0.44305(10)
S3 S 0.45547(10) 0.7781(2) 0.34382(9)
S4 S 0.41051(10) 0.3712(2) 0.31831(10)
S5 S 0.78260(11) 0.5716(2) 0.58724(10)
S6 S 0.72401(10) 0.0953(2) 0.55844(10)
S7 S 0.32888(10) 0.9222(2) 0.20954(10)
S8 S 0.27116(10) 0.4382(2) 0.18176(10)
C1 C 0.5528(4) 0.4869(9) 0.4222(4)
C2 C 0.4818(4) 0.5381(8) 0.3682(3)
C3 C 0.6926(4) 0.4824(9) 0.5237(3)
C4 C 0.6724(3) 0.2973(9) 0.5105(3)
C5 C 0.3708(4) 0.7232(8) 0.2664(3)
C6 C 0.3506(4) 0.5378(8) 0.2547(3)
C7 C 0.8689(4) 0.4594(9) 0.5485(4)
C8 C 0.8897(4) 0.2535(10) 0.5720(4)
C9 C 0.8279(4) 0.1027(9) 0.5294(4)
C10 C 0.2160(4) 0.9178(9) 0.2136(4)
C11 C 0.1632(4) 0.7651(10) 0.1615(4)
C12 C 0.1748(4) 0.5623(9) 0.1941(4)
H1 H 0.9216 0.5378 0.5668
H2 H 0.8536 0.4638 0.4893
H3 H 0.8905 0.2417 0.6302
H4 H 0.9478 0.2243 0.5610
H5 H 0.8186 0.1301 0.4712
H6 H 0.8550 -0.0271 0.5402
H7 H 0.1916 1.0473 0.1965
H8 H 0.2104 0.8934 0.2698
H9 H 0.1800 0.7667 0.1082
H10 H 0.1015 0.8002 0.1556
H11 H 0.1744 0.5688 0.2521
H12 H 0.1252 0.4837 0.1670
loop_
_geom_bond_atom_site_label_1
_geom_bond_atom_site_label_2
_geom_bond_site_symmetry_1
_geom_bond_site_symmetry_2
S1 C1 1_555 1_555
S2 C1 1_555 1_555
S3 C2 1_555 1_555
S4 C2 1_555 1_555
S5 C3 1_555 1_555
S6 C4 1_555 1_555
S7 C5 1_555 1_555
S8 C6 1_555 1_555
C1 C2 1_555 1_555
C3 S1 1_555 1_555
C4 S2 1_555 1_555
C5 S3 1_555 1_555
C6 S4 1_555 1_555
C7 S5 1_555 1_555
C8 C7 1_555 1_555
C9 S6 1_555 1_555
C10 S7 1_555 1_555
C11 C10 1_555 1_555
C12 S8 1_555 1_555
H1 C7 1_555 1_555
H2 C7 1_555 1_555
H3 C8 1_555 1_555
H4 C8 1_555 1_555
H5 C9 1_555 1_555
H6 C9 1_555 1_555
H7 C10 1_555 1_555
H8 C10 1_555 1_555
H9 C11 1_555 1_555
H10 C11 1_555 1_555
H11 C12 1_555 1_555
H12 C12 1_555 1_555
I1 Cl1 1_555 1_555
Cl1A I1 1_555 1_555
C3 C4 1_555 1_555
C5 C6 1_555 1_555
C8 C9 1_555 1_555
C11 C12 1_555 1_555

#END
