
#######################################################################
#
#                 Cambridge Crystallographic Data Centre
#                                CCDC 
#
#######################################################################
#
# If this CIF has been generated from an entry in the Cambridge 
# Structural Database, then it will include bibliographic, chemical, 
# crystal, experimental, refinement or atomic coordinate data resulting 
# from the CCDC's data processing and validation procedures.
#
#######################################################################

data_GAYDEP
_chemical_formula_moiety         'C17 H28 N1 O1 1+,Br1 1-'
_chemical_name_systematic        
'(-)-(2R,3S)-cis-8-Hydroxy-3-methyl-2-(di-n-propylamino)tetralin hydrobromide'
_chemical_properties_biological  '5-HT receptor agonistic activity'
_symmetry_cell_setting           monoclinic
_symmetry_space_group_name_H-M   'P 21'
_symmetry_Int_Tables_number      4
_space_group_name_Hall           'P 2yb'
loop_
_symmetry_equiv_pos_site_id
_symmetry_equiv_pos_as_xyz
1 x,y,z
2 -x,1/2+y,-z
_cell_length_a                   8.694(1)
_cell_length_b                   9.254(3)
_cell_length_c                   10.900(2)
_cell_angle_alpha                90
_cell_angle_beta                 101.61(1)
_cell_angle_gamma                90
_cell_volume                     859.009
_cell_formula_units_Z            2
loop_
_atom_site_label
_atom_site_type_symbol
_atom_site_fract_x
_atom_site_fract_y
_atom_site_fract_z
Br1 Br 0.2061(1) 0.0105(13) 0.3527(1)
C1 C 0.5777(6) -0.2719(14) 0.2964(5)
C2 C 0.4373(6) -0.3750(14) 0.2743(4)
C3 C 0.3595(6) -0.3846(14) 0.1365(4)
C4 C 0.4819(6) -0.4471(13) 0.0687(4)
C5 C 0.6263(6) -0.3538(14) 0.0841(4)
C6 C 0.7139(6) -0.3449(14) -0.0096(4)
C7 C 0.8411(6) -0.2541(15) 0.0045(5)
C8 C 0.8866(6) -0.1720(14) 0.1118(5)
C9 C 0.8032(6) -0.1836(14) 0.2061(5)
C10 C 0.6704(5) -0.2715(14) 0.1938(4)
C11 C 0.1644(8) -0.3954(15) 0.3261(6)
C12 C 0.1572(10) -0.5568(15) 0.3395(6)
C13 C -0.0103(9) -0.6077(15) 0.2937(8)
C14 C 0.4003(6) -0.3520(14) 0.4940(4)
C15 C 0.3066(7) -0.2948(14) 0.5852(5)
C16 C 0.4000(8) -0.3066(15) 0.7182(5)
C17 C 0.2963(7) -0.2417(15) 0.0786(5)
N1 N 0.3254(5) -0.3289(13) 0.3587(3)
O1 O 0.8448(4) -0.1074(14) 0.3160(4)
H1 H 0.9668 -0.0858 0.3249
H2 H 0.2993 -0.2238 0.3450
H3 H 0.6434 -0.2905 0.3779
H4 H 0.5268 -0.1696 0.2990
H5 H 0.4815 -0.4746 0.3038
H6 H 0.2641 -0.4540 0.1258
H7 H 0.5130 -0.5476 0.1056
H8 H 0.4322 -0.4614 -0.0219
H9 H 0.6818 -0.4021 -0.0911
H10 H 0.9024 -0.2557 -0.0621
H11 H 0.9760 -0.1023 0.1184
H12 H 0.1019 -0.3525 0.3825
H13 H 0.1224 -0.3716 0.2377
H14 H 0.2236 -0.6018 0.2876
H15 H 0.1884 -0.5819 0.4282
H16 H -0.0502 -0.5612 0.1987
H17 H -0.0884 -0.5772 0.3295
H18 H -0.0040 -0.7202 0.3036
H19 H 0.4165 -0.4597 0.5079
H20 H 0.5056 -0.3040 0.5106
H21 H 0.2786 -0.1919 0.5675
H22 H 0.2061 -0.3530 0.5787
H23 H 0.4201 -0.4367 0.7332
H24 H 0.5263 -0.2871 0.7282
H25 H 0.3225 -0.2860 0.7894
H26 H 0.2331 -0.1925 0.1294
H27 H 0.3929 -0.1745 0.0869
H28 H 0.2737 -0.2351 0.0030
loop_
_geom_bond_atom_site_label_1
_geom_bond_atom_site_label_2
_geom_bond_site_symmetry_1
_geom_bond_site_symmetry_2
C1 C2 1_555 1_555
C2 C3 1_555 1_555
C3 C4 1_555 1_555
C4 C5 1_555 1_555
C5 C6 1_555 1_555
C6 C7 1_555 1_555
C7 C8 1_555 1_555
C8 C9 1_555 1_555
C9 C10 1_555 1_555
C10 C1 1_555 1_555
C11 C12 1_555 1_555
C12 C13 1_555 1_555
C13 H16 1_555 1_555
C14 C15 1_555 1_555
C15 C16 1_555 1_555
C16 H23 1_555 1_555
C17 C3 1_555 1_555
N1 C2 1_555 1_555
O1 C9 1_555 1_555
H1 O1 1_555 1_555
H2 N1 1_555 1_555
H3 C1 1_555 1_555
H4 C1 1_555 1_555
H5 C2 1_555 1_555
H6 C3 1_555 1_555
H7 C4 1_555 1_555
H8 C4 1_555 1_555
H9 C6 1_555 1_555
H10 C7 1_555 1_555
H11 C8 1_555 1_555
H12 C11 1_555 1_555
H13 C11 1_555 1_555
H14 C12 1_555 1_555
H15 C12 1_555 1_555
H17 C13 1_555 1_555
H18 C13 1_555 1_555
H19 C14 1_555 1_555
H20 C14 1_555 1_555
H21 C15 1_555 1_555
H22 C15 1_555 1_555
H24 C16 1_555 1_555
H25 C16 1_555 1_555
H26 C17 1_555 1_555
H27 C17 1_555 1_555
H28 C17 1_555 1_555
C5 C10 1_555 1_555
C11 N1 1_555 1_555
C14 N1 1_555 1_555

#END
