
#######################################################################
#
#                 Cambridge Crystallographic Data Centre
#                                CCDC 
#
#######################################################################
#
# If this CIF has been generated from an entry in the Cambridge 
# Structural Database, then it will include bibliographic, chemical, 
# crystal, experimental, refinement or atomic coordinate data resulting 
# from the CCDC's data processing and validation procedures.
#
#######################################################################

data_GAYHAP01
_chemical_formula_moiety         'C22 H26 N2 O1'
_chemical_name_systematic        
4-[2-(9,9-dimethyl-2,3-dihydro[1,3]oxazolo[3,2-a]indol-9a(9H)-yl)ethenyl]-N,N-dimethylaniline
_symmetry_cell_setting           monoclinic
_symmetry_space_group_name_H-M   'P 21/c'
_symmetry_Int_Tables_number      14
_space_group_name_Hall           '-P 2ybc'
loop_
_symmetry_equiv_pos_site_id
_symmetry_equiv_pos_as_xyz
1 x,y,z
2 -x,1/2+y,1/2-z
3 -x,-y,-z
4 x,1/2-y,1/2+z
_cell_length_a                   9.163(8)
_cell_length_b                   8.368(8)
_cell_length_c                   24.984(16)
_cell_angle_alpha                90
_cell_angle_beta                 97.39(2)
_cell_angle_gamma                90
_cell_volume                     1899.76
_exptl_crystal_colour            colorless
_exptl_crystal_description       Block
_cell_formula_units_Z            4
loop_
_atom_site_label
_atom_site_type_symbol
_atom_site_fract_x
_atom_site_fract_y
_atom_site_fract_z
C1 C 0.3377(5) 0.7887(5) 0.18899(16)
C2 C 0.2540(6) 0.7404(6) 0.22872(19)
H1 H 0.2808 0.6513 0.2500
C3 C 0.1309(6) 0.8273(6) 0.2358(2)
H2 H 0.0739 0.7952 0.2621
C4 C 0.0904(6) 0.9566(7) 0.2061(2)
H3 H 0.0037 1.0096 0.2108
C5 C 0.1784(6) 1.0137(7) 0.1675(2)
H4 H 0.1548 1.1076 0.1483
C6 C 0.3012(5) 0.9244(6) 0.15921(16)
C7 C 0.4080(5) 0.9520(6) 0.12007(18)
C8 C 0.3375(7) 0.9204(8) 0.0617(2)
H5 H 0.2937 0.8161 0.0595
H6 H 0.4117 0.9261 0.0380
H7 H 0.2632 0.9994 0.0514
C9 C 0.4776(6) 1.1268(6) 0.1208(2)
H8 H 0.4026 1.2025 0.1079
H9 H 0.5542 1.1291 0.0980
H10 H 0.5180 1.1539 0.1571
C10 C 0.5278(5) 0.8307(5) 0.13917(17)
C11 C 0.6726(7) 0.7697(6) 0.2208(2)
H11 H 0.6667 0.8082 0.2571
H12 H 0.7724 0.7335 0.2190
C12 C 0.5688(6) 0.6365(7) 0.2081(2)
H13 H 0.6157 0.5469 0.1926
H14 H 0.5276 0.6009 0.2399
C13 C 0.6042(6) 0.7538(6) 0.0945(2)
H15 H 0.5537 0.6722 0.0747
C14 C 0.7302(7) 0.7911(7) 0.0818(2)
H16 H 0.7842 0.8625 0.1051
C15 C 0.8027(6) 0.7374(5) 0.03551(17)
C16 C 0.7378(5) 0.6275(6) -0.0039(2)
H17 H 0.6466 0.5833 0.0001
C17 C 0.8072(5) 0.5838(5) -0.04842(18)
H18 H 0.7632 0.5095 -0.0731
C18 C 0.9407(5) 0.6506(4) -0.05573(16)
C19 C 1.0026(6) 0.7609(5) -0.01541(17)
H19 H 1.0933 0.8073 -0.0186
C20 C 0.9328(6) 0.7995(6) 0.02708(18)
H20 H 0.9772 0.8731 0.0519
C21 C 0.9536(6) 0.4969(6) -0.13789(19)
H21 H 0.9406 0.3977 -0.1198
H22 H 1.0200 0.4814 -0.1642
H23 H 0.8602 0.5331 -0.1556
C22 C 1.1569(6) 0.6788(6) -0.1034(2)
H24 H 1.1491 0.7916 -0.1103
H25 H 1.1969 0.6273 -0.1326
H26 H 1.2204 0.6604 -0.0704
N1 N 0.4573(5) 0.7088(5) 0.16915(15)
N2 N 1.0135(5) 0.6148(4) -0.09903(15)
O1 O 0.6352(4) 0.8995(4) 0.18163(13)
loop_
_geom_bond_atom_site_label_1
_geom_bond_atom_site_label_2
_geom_bond_site_symmetry_1
_geom_bond_site_symmetry_2
C1 C2 1_555 1_555
C2 H1 1_555 1_555
C3 C2 1_555 1_555
H2 C3 1_555 1_555
C4 C3 1_555 1_555
H3 C4 1_555 1_555
C5 C4 1_555 1_555
H4 C5 1_555 1_555
C6 C1 1_555 1_555
C7 C6 1_555 1_555
C8 C7 1_555 1_555
H5 C8 1_555 1_555
H6 C8 1_555 1_555
H7 C8 1_555 1_555
C9 C7 1_555 1_555
H8 C9 1_555 1_555
H9 C9 1_555 1_555
H10 C9 1_555 1_555
C10 C7 1_555 1_555
C11 H11 1_555 1_555
H12 C11 1_555 1_555
C12 C11 1_555 1_555
H13 C12 1_555 1_555
H14 C12 1_555 1_555
C13 C10 1_555 1_555
H15 C13 1_555 1_555
C14 C13 1_555 1_555
H16 C14 1_555 1_555
C15 C14 1_555 1_555
C16 C15 1_555 1_555
H17 C16 1_555 1_555
C17 C16 1_555 1_555
H18 C17 1_555 1_555
C18 C17 1_555 1_555
C19 C18 1_555 1_555
H19 C19 1_555 1_555
C20 C15 1_555 1_555
H20 C20 1_555 1_555
C21 H21 1_555 1_555
H22 C21 1_555 1_555
H23 C21 1_555 1_555
C22 H24 1_555 1_555
H25 C22 1_555 1_555
H26 C22 1_555 1_555
N1 C1 1_555 1_555
N2 C18 1_555 1_555
O1 C10 1_555 1_555
C5 C6 1_555 1_555
C10 N1 1_555 1_555
C11 O1 1_555 1_555
C12 N1 1_555 1_555
C19 C20 1_555 1_555
C21 N2 1_555 1_555
C22 N2 1_555 1_555

#END
