
#######################################################################
#
#                 Cambridge Crystallographic Data Centre
#                                CCDC 
#
#######################################################################
#
# If this CIF has been generated from an entry in the Cambridge 
# Structural Database, then it will include bibliographic, chemical, 
# crystal, experimental, refinement or atomic coordinate data resulting 
# from the CCDC's data processing and validation procedures.
#
#######################################################################

data_GAYMOL02
_chemical_formula_moiety         'C3 H1 N5 O3'
_chemical_name_systematic        
4-diazonio-5-nitro-3-oxo-2,3-dihydropyrazol-1-ide
_symmetry_cell_setting           monoclinic
_symmetry_space_group_name_H-M   'P 21/c'
_symmetry_Int_Tables_number      14
_space_group_name_Hall           '-P 2ybc'
loop_
_symmetry_equiv_pos_site_id
_symmetry_equiv_pos_as_xyz
1 x,y,z
2 -x,1/2+y,1/2-z
3 -x,-y,-z
4 x,1/2-y,1/2+z
_cell_length_a                   10.1828(12)
_cell_length_b                   5.5925(6)
_cell_length_c                   10.5574(10)
_cell_angle_alpha                90
_cell_angle_beta                 108.330(4)
_cell_angle_gamma                90
_cell_volume                     570.71
_exptl_crystal_description       column
_cell_formula_units_Z            4
loop_
_atom_site_label
_atom_site_type_symbol
_atom_site_fract_x
_atom_site_fract_y
_atom_site_fract_z
C1 C 0.3554(2) 0.1406(4) 0.8465(2)
C2 C 0.2539(2) 0.1718(4) 0.7166(2)
C3 C 0.2646(2) -0.0299(4) 0.6403(2)
N1 N 0.3588(2) -0.1781(4) 0.70771(18)
N2 N 0.4130(2) -0.0742(4) 0.83059(18)
H1 H 0.472(3) -0.147(5) 0.891(2)
N3 N 0.1631(2) 0.3508(4) 0.68365(17)
N4 N 0.0883(2) 0.5031(4) 0.6604(2)
N5 N 0.1847(2) -0.0765(4) 0.50411(18)
O1 O 0.38606(17) 0.2654(3) 0.94740(15)
O2 O 0.10341(17) 0.0834(3) 0.44803(16)
O3 O 0.19967(19) -0.2660(3) 0.45306(17)
loop_
_geom_bond_atom_site_label_1
_geom_bond_atom_site_label_2
_geom_bond_site_symmetry_1
_geom_bond_site_symmetry_2
C1 C2 1_555 1_555
C2 C3 1_555 1_555
C3 N1 1_555 1_555
N1 N2 1_555 1_555
N2 C1 1_555 1_555
H1 N2 1_555 1_555
N3 C2 1_555 1_555
N4 N3 1_555 1_555
N5 C3 1_555 1_555
O1 C1 1_555 1_555
O2 N5 1_555 1_555
O3 N5 1_555 1_555

#END
