
#######################################################################
#
#                 Cambridge Crystallographic Data Centre
#                                CCDC 
#
#######################################################################
#
# If this CIF has been generated from an entry in the Cambridge 
# Structural Database, then it will include bibliographic, chemical, 
# crystal, experimental, refinement or atomic coordinate data resulting 
# from the CCDC's data processing and validation procedures.
#
#######################################################################

data_GAYPON
_chemical_formula_moiety         'C17 H23 N1 O2 S1 Si1'
_chemical_name_systematic        
2-(2-Naphthyl)-1-((2-(trimethylsilyl)ethyl)sulfonyl)aziridine
_symmetry_cell_setting           orthorhombic
_symmetry_space_group_name_H-M   'P 21 21 21'
_symmetry_Int_Tables_number      19
_space_group_name_Hall           'P 2ac 2ab'
loop_
_symmetry_equiv_pos_site_id
_symmetry_equiv_pos_as_xyz
1 x,y,z
2 1/2+x,1/2-y,-z
3 -x,1/2+y,1/2-z
4 1/2-x,-y,1/2+z
_cell_length_a                   6.0186(10)
_cell_length_b                   11.5512(18)
_cell_length_c                   24.941(4)
_cell_angle_alpha                90
_cell_angle_beta                 90
_cell_angle_gamma                90
_cell_volume                     1733.95
_exptl_crystal_colour            colorless
_exptl_crystal_description       block
_cell_formula_units_Z            4
loop_
_atom_site_label
_atom_site_type_symbol
_atom_site_fract_x
_atom_site_fract_y
_atom_site_fract_z
S1 S 0.62775(6) 0.15009(3) 0.112172(14)
Si1 Si 0.60977(7) 0.42181(3) 0.238974(16)
O1 O 0.7032(2) 0.21225(9) 0.06573(4)
O2 O 0.78158(19) 0.07243(10) 0.13730(5)
N1 N 0.3970(2) 0.07437(10) 0.10039(5)
C1 C 0.8530(3) 0.50236(15) 0.26586(7)
H1 H 0.8081 0.5468 0.2965
H2 H 0.9099 0.5533 0.2387
H3 H 0.9666 0.4485 0.2762
C2 C 0.4642(3) 0.34061(15) 0.29285(7)
H4 H 0.3998 0.3943 0.3178
H5 H 0.5685 0.2918 0.3112
H6 H 0.3491 0.2938 0.2774
C3 C 0.4133(3) 0.52326(13) 0.20570(7)
H7 H 0.2911 0.4804 0.1909
H8 H 0.4888 0.5638 0.1775
H9 H 0.3585 0.5779 0.2315
C4 C 0.3321(3) -0.54685(14) 0.05040(6)
H10 H 0.4050 -0.6137 0.0393
C5 C 0.2798(3) 0.09366(13) 0.04900(6)
H11 H 0.3385 0.1524 0.0251
H12 H 0.1193 0.0865 0.0489
C6 C 0.1204(3) -0.55472(13) 0.07416(6)
H13 H 0.0525 -0.6266 0.0780
C7 C 0.0142(3) -0.45725(14) 0.09165(6)
H14 H -0.1242 -0.4637 0.1080
C8 C 0.0078(3) -0.24303(14) 0.10266(6)
H15 H -0.1286 -0.2471 0.1201
C9 C 0.7143(3) 0.31710(14) 0.18681(6)
H16 H 0.7943 0.3596 0.1594
H17 H 0.8174 0.2635 0.2034
C10 C 0.1036(3) -0.13753(13) 0.09437(6)
H18 H 0.0321 -0.0708 0.1061
C11 C 0.4309(3) -0.44159(13) 0.04355(6)
H19 H 0.5706 -0.4375 0.0278
C12 C 0.4127(3) -0.01367(12) 0.05657(6)
H20 H 0.5549 -0.0156 0.0374
C13 C 0.5262(3) 0.24881(13) 0.16064(6)
H21 H 0.4237 0.3022 0.1436
H22 H 0.4454 0.2066 0.1880
C14 C 0.3122(3) -0.12901(13) 0.06796(6)
C15 C 0.4188(2) -0.22714(13) 0.05180(6)
H23 H 0.5563 -0.2212 0.0350
C16 C 0.1118(3) -0.34649(13) 0.08526(6)
C17 C 0.3238(2) -0.33852(12) 0.06014(6)
loop_
_geom_bond_atom_site_label_1
_geom_bond_atom_site_label_2
_geom_bond_site_symmetry_1
_geom_bond_site_symmetry_2
S1 O1 1_555 1_555
Si1 C1 1_555 1_555
O2 S1 1_555 1_555
N1 S1 1_555 1_555
C1 H1 1_555 1_555
H2 C1 1_555 1_555
H3 C1 1_555 1_555
C2 Si1 1_555 1_555
H4 C2 1_555 1_555
H5 C2 1_555 1_555
H6 C2 1_555 1_555
C3 Si1 1_555 1_555
H7 C3 1_555 1_555
H8 C3 1_555 1_555
H9 C3 1_555 1_555
C4 H10 1_555 1_555
C5 N1 1_555 1_555
H11 C5 1_555 1_555
H12 C5 1_555 1_555
C6 C4 1_555 1_555
H13 C6 1_555 1_555
C7 C6 1_555 1_555
H14 C7 1_555 1_555
C8 H15 1_555 1_555
C9 Si1 1_555 1_555
H16 C9 1_555 1_555
H17 C9 1_555 1_555
C10 C8 1_555 1_555
H18 C10 1_555 1_555
C11 C4 1_555 1_555
H19 C11 1_555 1_555
C12 N1 1_555 1_555
H20 C12 1_555 1_555
C13 S1 1_555 1_555
H21 C13 1_555 1_555
H22 C13 1_555 1_555
C14 C10 1_555 1_555
C15 C14 1_555 1_555
H23 C15 1_555 1_555
C16 C7 1_555 1_555
C17 C11 1_555 1_555
C5 C12 1_555 1_555
C8 C16 1_555 1_555
C9 C13 1_555 1_555
C12 C14 1_555 1_555
C15 C17 1_555 1_555
C16 C17 1_555 1_555

#END
