
#######################################################################
#
#                 Cambridge Crystallographic Data Centre
#                                CCDC 
#
#######################################################################
#
# If this CIF has been generated from an entry in the Cambridge 
# Structural Database, then it will include bibliographic, chemical, 
# crystal, experimental, refinement or atomic coordinate data resulting 
# from the CCDC's data processing and validation procedures.
#
#######################################################################

data_GAYTEI
_chemical_formula_moiety         'C60 H60 N40 O20,14.5(H2 O1)'
_chemical_name_systematic        'cucurbit(10)uril hydrate'
_symmetry_cell_setting           monoclinic
_symmetry_space_group_name_H-M   'P 21/m 1 1'
_symmetry_Int_Tables_number      11
_space_group_name_Hall           '-P 2xa'
loop_
_symmetry_equiv_pos_site_id
_symmetry_equiv_pos_as_xyz
1 x,y,z
2 1/2+x,-y,-z
3 -x,-y,-z
4 1/2-x,y,z
_cell_length_a                   39.100(8)
_cell_length_b                   16.748(3)
_cell_length_c                   16.501(3)
_cell_angle_alpha                90
_cell_angle_beta                 90
_cell_angle_gamma                90
_cell_volume                     10805.6
_exptl_crystal_colour            colorless
_exptl_crystal_description       block
_cell_formula_units_Z            4
loop_
_atom_site_label
_atom_site_type_symbol
_atom_site_fract_x
_atom_site_fract_y
_atom_site_fract_z
O1 O 0.69775(14) -0.3586(4) 0.1089(4)
O2 O 0.69686(14) -0.0957(4) -0.1415(4)
O3 O 0.61355(14) -0.0048(3) -0.0537(3)
O4 O 0.62014(15) -0.2555(3) 0.2091(3)
O5 O 0.58910(13) -0.1021(3) 0.3754(3)
O6 O 0.62202(14) 0.0707(3) 0.5406(3)
O7 O 0.69746(14) 0.1718(3) 0.6405(3)
O8 O 0.69775(18) 0.4174(5) 0.3698(5)
O9 O 0.62014(18) 0.3160(4) 0.2786(3)
O10 O 0.58602(15) 0.1538(3) 0.1109(3)
N1 N 0.66468(16) -0.3058(4) 0.0091(4)
N2 N 0.66386(16) -0.2005(4) -0.0938(4)
N3 N 0.71902(16) -0.2217(5) -0.1150(4)
N4 N 0.71950(16) -0.3290(4) -0.0193(4)
N5 N 0.61303(16) -0.1429(4) -0.0346(4)
N6 N 0.57967(16) -0.0667(4) 0.0443(4)
N7 N 0.58166(17) -0.1695(4) 0.1501(4)
N8 N 0.61674(16) -0.2411(4) 0.0696(4)
N9 N 0.56601(16) -0.0700(3) 0.2495(4)
N10 N 0.56850(17) 0.0217(4) 0.3446(4)
N11 N 0.58596(17) 0.1255(4) 0.4428(4)
N12 N 0.61553(16) 0.2044(4) 0.5233(4)
N13 N 0.66512(16) 0.2686(4) 0.5825(4)
N14 N 0.71879(17) 0.2983(4) 0.6080(4)
N15 N 0.71822(19) 0.3925(5) 0.4951(5)
N16 N 0.66428(16) 0.3708(4) 0.4743(4)
N17 N 0.61611(18) 0.3052(4) 0.4151(4)
N18 N 0.58360(19) 0.2259(4) 0.3392(4)
N19 N 0.56806(18) 0.1263(4) 0.2396(4)
N20 N 0.56375(18) 0.0307(4) 0.1435(4)
C1 C 0.69395(18) -0.3338(4) 0.0391(5)
C2 C 0.66770(18) -0.2831(5) -0.0773(4)
H1 H 0.6528 -0.3158 -0.1118
C3 C 0.6926(2) -0.1648(5) -0.1181(5)
C4 C 0.70642(19) -0.2989(5) -0.0953(4)
H2 H 0.7096 -0.3370 -0.1397
C5 C 0.7500 -0.3741(7) -0.0155(8)
H3 H 0.7500 -0.4122 -0.0598
H4 H 0.7500 -0.4044 0.0347
C6 C 0.7500 -0.2127(9) -0.1623(8)
H5 H 0.7500 -0.2521 -0.2054
H6 H 0.7500 -0.1603 -0.1873
C7 C 0.63059(18) -0.1637(5) -0.1076(4)
H7 H 0.6337 -0.1159 -0.1399
H8 H 0.6165 -0.2003 -0.1384
C8 C 0.60347(19) -0.0664(4) -0.0178(4)
C9 C 0.57100(18) -0.1467(4) 0.0672(4)
H9 H 0.5467 -0.1576 0.0583
C10 C 0.6071(2) -0.2262(4) 0.1487(4)
C11 C 0.63263(18) -0.3160(4) 0.0479(4)
H10 H 0.6358 -0.3477 0.0966
H11 H 0.6175 -0.3452 0.0121
C12 C 0.59395(17) -0.2027(4) 0.0148(4)
H12 H 0.5808 -0.2404 -0.0182
C13 C 0.5623(2) -0.1510(4) 0.2191(4)
H13 H 0.5686 -0.1878 0.2620
H14 H 0.5384 -0.1601 0.2068
C14 C 0.57631(17) -0.0543(4) 0.3277(4)
C15 C 0.5656(2) 0.0521(4) 0.4267(4)
H15 H 0.5730 0.0107 0.4640
H16 H 0.5418 0.0633 0.4379
C16 C 0.60916(18) 0.1307(4) 0.5061(4)
C17 C 0.63197(19) 0.2316(5) 0.5968(4)
H17 H 0.6349 0.1865 0.6330
H18 H 0.6172 0.2698 0.6236
C18 C 0.6942(2) 0.2421(5) 0.6125(5)
C19 C 0.7500 0.2922(7) 0.6548(8)
H19 H 0.7500 0.2413 0.6830
H20 H 0.7500 0.3340 0.6955
C20 C 0.7060(2) 0.3724(5) 0.5783(6)
H21 H 0.7094 0.4163 0.6167
C21 C 0.6938(2) 0.3961(6) 0.4439(6)
C22 C 0.6675(2) 0.3542(4) 0.5629(5)
H22 H 0.6522 0.3872 0.5960
C23 C 0.63131(19) 0.3795(5) 0.4371(5)
H23 H 0.6162 0.4072 0.4743
H24 H 0.6336 0.4123 0.3889
C24 C 0.6077(2) 0.2870(4) 0.3390(4)
C25 C 0.5739(2) 0.2023(4) 0.4191(4)
H25 H 0.5493 0.2078 0.4279
C26 C 0.59464(18) 0.2587(4) 0.4748(4)
H26 H 0.5800 0.2932 0.5080
C27 C 0.5632(2) 0.2053(5) 0.2663(4)
H27 H 0.5392 0.2133 0.2783
H28 H 0.5694 0.2415 0.2228
C28 C 0.57410(19) 0.1078(4) 0.1585(4)
C29 C 0.55846(19) 0.0020(4) 0.0622(4)
H29 H 0.5636 0.0444 0.0241
H30 H 0.5346 -0.0124 0.0554
C30 C 0.54735(19) -0.0039(4) 0.2144(5)
H31 H 0.5235 -0.0184 0.2032
C31 C 0.54976(17) 0.0613(4) 0.2788(4)
H32 H 0.5270 0.0784 0.2967
C32 C 0.7500 0.4354(11) 0.4889(12)
H33 H 0.7500 0.4762 0.5306
H34 H 0.7500 0.4629 0.4371
O1C O 0.80225(14) -0.3586(4) 0.1089(4)
O2C O 0.80314(14) -0.0957(4) -0.1415(4)
O3C O 0.88645(14) -0.0048(3) -0.0537(3)
O4C O 0.87986(15) -0.2555(3) 0.2091(3)
O5C O 0.91090(13) -0.1021(3) 0.3754(3)
O6C O 0.87798(14) 0.0707(3) 0.5406(3)
O7C O 0.80254(14) 0.1718(3) 0.6405(3)
O8C O 0.80225(18) 0.4174(5) 0.3698(5)
O9C O 0.87986(18) 0.3160(4) 0.2786(3)
O10C O 0.91398(15) 0.1538(3) 0.1109(3)
N1C N 0.83532(16) -0.3058(4) 0.0091(4)
N2C N 0.83614(16) -0.2005(4) -0.0938(4)
N3C N 0.78098(16) -0.2217(5) -0.1150(4)
N4C N 0.78050(16) -0.3290(4) -0.0193(4)
N5C N 0.88697(16) -0.1429(4) -0.0346(4)
N6C N 0.92033(16) -0.0667(4) 0.0443(4)
N7C N 0.91834(17) -0.1695(4) 0.1501(4)
N8C N 0.88326(16) -0.2411(4) 0.0696(4)
N9C N 0.93399(16) -0.0700(3) 0.2495(4)
N10C N 0.93150(17) 0.0217(4) 0.3446(4)
N11C N 0.91404(17) 0.1255(4) 0.4428(4)
N12C N 0.88447(16) 0.2044(4) 0.5233(4)
N13C N 0.83488(16) 0.2686(4) 0.5825(4)
N14C N 0.78121(17) 0.2983(4) 0.6080(4)
N15C N 0.78178(19) 0.3925(5) 0.4951(5)
N16C N 0.83572(16) 0.3708(4) 0.4743(4)
N17C N 0.88389(18) 0.3052(4) 0.4151(4)
N18C N 0.91640(19) 0.2259(4) 0.3392(4)
N19C N 0.93194(18) 0.1263(4) 0.2396(4)
N20C N 0.93625(18) 0.0307(4) 0.1435(4)
C1C C 0.80605(18) -0.3338(4) 0.0391(5)
C2C C 0.83230(18) -0.2831(5) -0.0773(4)
H1C H 0.8472 -0.3158 -0.1118
C3C C 0.8074(2) -0.1648(5) -0.1181(5)
C4C C 0.79358(19) -0.2989(5) -0.0953(4)
H2C H 0.7904 -0.3370 -0.1397
C7C C 0.86941(18) -0.1637(5) -0.1076(4)
H7C H 0.8663 -0.1159 -0.1399
H8C H 0.8835 -0.2003 -0.1384
C8C C 0.89653(19) -0.0664(4) -0.0178(4)
C9C C 0.92900(18) -0.1467(4) 0.0672(4)
H9C H 0.9533 -0.1576 0.0583
C10C C 0.8929(2) -0.2262(4) 0.1487(4)
C11C C 0.86737(18) -0.3160(4) 0.0479(4)
H10C H 0.8642 -0.3477 0.0966
H11C H 0.8825 -0.3452 0.0121
C12C C 0.90605(17) -0.2027(4) 0.0148(4)
H12C H 0.9192 -0.2404 -0.0182
C13C C 0.9377(2) -0.1510(4) 0.2191(4)
H13C H 0.9314 -0.1878 0.2620
H14C H 0.9616 -0.1601 0.2068
C14C C 0.92369(17) -0.0543(4) 0.3277(4)
C15C C 0.9344(2) 0.0521(4) 0.4267(4)
H15C H 0.9270 0.0107 0.4640
H16C H 0.9582 0.0633 0.4379
C16C C 0.89084(18) 0.1307(4) 0.5061(4)
C17C C 0.86803(19) 0.2316(5) 0.5968(4)
H17C H 0.8651 0.1865 0.6330
H18C H 0.8828 0.2698 0.6236
C18C C 0.8058(2) 0.2421(5) 0.6125(5)
C20C C 0.7940(2) 0.3724(5) 0.5783(6)
H21C H 0.7906 0.4163 0.6167
C21C C 0.8062(2) 0.3961(6) 0.4439(6)
C22C C 0.8325(2) 0.3542(4) 0.5629(5)
H22C H 0.8478 0.3872 0.5960
C23C C 0.86869(19) 0.3795(5) 0.4371(5)
H23C H 0.8838 0.4072 0.4743
H24C H 0.8664 0.4123 0.3889
C24C C 0.8923(2) 0.2870(4) 0.3390(4)
C25C C 0.9261(2) 0.2023(4) 0.4191(4)
H25C H 0.9507 0.2078 0.4279
C26C C 0.90536(18) 0.2587(4) 0.4748(4)
H26C H 0.9200 0.2932 0.5080
C27C C 0.9368(2) 0.2053(5) 0.2663(4)
H27C H 0.9608 0.2133 0.2783
H28C H 0.9306 0.2415 0.2228
C28C C 0.92590(19) 0.1078(4) 0.1585(4)
C29C C 0.94154(19) 0.0020(4) 0.0622(4)
H29C H 0.9364 0.0444 0.0241
H30C H 0.9654 -0.0124 0.0554
C30C C 0.95265(19) -0.0039(4) 0.2144(5)
H31C H 0.9765 -0.0184 0.2032
C31C C 0.95024(17) 0.0613(4) 0.2788(4)
H32C H 0.9730 0.0784 0.2967
O11 O 0.62238(14) 0.4891(3) 1.0410(3)
O12 O 0.62306(14) 0.2375(3) 0.7784(3)
O13 O 0.69826(12) 0.3822(3) 1.1434(3)
O14 O 0.69858(14) 0.1322(4) 0.8807(4)
O15 O 0.58893(14) 0.4028(3) 0.6093(3)
O16 O 0.58952(14) 0.6611(3) 0.8737(3)
O17 O 0.61884(14) 0.8137(4) 0.7098(3)
O18 O 0.69670(14) 0.9145(3) 0.6131(3)
O19 O 0.69665(15) 0.6542(3) 0.3594(4)
O20 O 0.61594(15) 0.5655(3) 0.4498(4)
N21 N 0.58816(15) 0.4352(3) 0.9440(4)
N22 N 0.58801(15) 0.3341(3) 0.8359(3)
N23 N 0.61649(16) 0.2523(4) 0.9171(4)
N24 N 0.61699(16) 0.3536(4) 1.0217(4)
N25 N 0.66483(15) 0.2860(4) 1.0850(4)
N26 N 0.71918(15) 0.2579(4) 1.1134(4)
N27 N 0.71924(16) 0.1577(4) 1.0105(4)
N28 N 0.66520(15) 0.1854(4) 0.9817(4)
N29 N 0.56902(15) 0.4301(3) 0.7389(4)
N30 N 0.56682(15) 0.5264(4) 0.6461(4)
N31 N 0.56626(16) 0.6268(4) 0.7501(4)
N32 N 0.57055(15) 0.5332(3) 0.8436(3)
N33 N 0.58080(16) 0.7269(4) 0.6491(4)
N34 N 0.61370(15) 0.8004(3) 0.5721(3)
N35 N 0.66434(16) 0.8614(4) 0.5113(4)
N36 N 0.71908(15) 0.8857(4) 0.4874(4)
N37 N 0.71872(15) 0.7768(4) 0.3876(4)
N38 N 0.66338(15) 0.7584(4) 0.4076(4)
N39 N 0.61174(14) 0.7015(4) 0.4654(3)
N40 N 0.58057(17) 0.6242(4) 0.5433(4)
C33 C 0.61026(19) 0.4331(5) 1.0052(4)
C34 C 0.57669(18) 0.3555(4) 0.9175(4)
H35 H 0.5520 0.3484 0.9244
C35 C 0.61044(19) 0.2720(4) 0.8379(4)
C36 C 0.59742(18) 0.2992(4) 0.9729(4)
H36 H 0.5824 0.2659 1.0063
C37 C 0.63198(18) 0.3277(5) 1.0972(4)
H37 H 0.6162 0.2921 1.1246
H38 H 0.6356 0.3737 1.1318
C38 C 0.69502(17) 0.3190(5) 1.1177(4)
C39 C 0.7500 0.2608(6) 1.1621(6)
H39 H 0.7500 0.2160 1.1995
H40 H 0.7500 0.3095 1.1939
C40 C 0.70580(18) 0.1799(5) 1.0836(5)
H41 H 0.7077 0.1376 1.1244
C41 C 0.69471(18) 0.1545(4) 0.9471(5)
C42 C 0.63203(18) 0.1758(4) 0.9398(4)
H42 H 0.6354 0.1439 0.8914
H43 H 0.6164 0.1470 0.9750
C43 C 0.66727(18) 0.2025(5) 1.0647(5)
H44 H 0.6512 0.1701 1.0964
C44 C 0.7500 0.1085(8) 1.0008(10)
H45 H 0.7500 0.0840 0.9476
H46 H 0.7500 0.0663 1.0411
C45 C 0.5668(2) 0.3483(4) 0.7657(4)
H47 H 0.5739 0.3132 0.7220
H48 H 0.5432 0.3359 0.7789
C46 C 0.57629(18) 0.4485(4) 0.6601(4)
C47 C 0.54833(19) 0.5611(4) 0.7123(4)
H49 H 0.5246 0.5743 0.6982
C48 C 0.57704(18) 0.6138(4) 0.8284(4)
C49 C 0.56805(19) 0.5058(4) 0.9273(4)
H50 H 0.5755 0.5485 0.9629
H51 H 0.5443 0.4946 0.9396
C50 C 0.55105(18) 0.4947(4) 0.7810(4)
H52 H 0.5285 0.4778 0.8004
C51 C 0.56060(19) 0.7084(4) 0.7198(4)
H53 H 0.5366 0.7148 0.7067
H54 H 0.5661 0.7461 0.7625
C52 C 0.60604(18) 0.7813(4) 0.6484(4)
C53 C 0.63156(18) 0.8748(4) 0.5508(5)
H55 H 0.6171 0.9059 0.5150
H56 H 0.6352 0.9057 0.5997
C54 C 0.69418(17) 0.8889(4) 0.5449(5)
C55 C 0.7500 0.9348(6) 0.4893(7)
H57 H 0.7500 0.9670 0.5381
H58 H 0.7500 0.9707 0.4431
C56 C 0.70588(17) 0.8561(4) 0.4104(5)
H59 H 0.7093 0.8950 0.3668
C57 C 0.69397(18) 0.7262(5) 0.3818(5)
C58 C 0.66779(17) 0.8417(4) 0.4267(4)
H60 H 0.6533 0.8758 0.3927
C59 C 0.62993(18) 0.7228(4) 0.3920(4)
H61 H 0.6162 0.7602 0.3612
H62 H 0.6330 0.6753 0.3591
C60 C 0.60300(19) 0.6234(4) 0.4843(5)
C61 C 0.57009(18) 0.7037(4) 0.5685(4)
H63 H 0.5457 0.7133 0.5594
C62 C 0.59319(18) 0.7568(4) 0.5129(4)
H64 H 0.5795 0.7930 0.4792
C63 C 0.5611(2) 0.5540(4) 0.5636(4)
H65 H 0.5670 0.5115 0.5262
H66 H 0.5369 0.5656 0.5567
C64 C 0.7500 0.7681(7) 0.3394(7)
H67 H 0.7500 0.7159 0.3138
H68 H 0.7500 0.8080 0.2967
O11C O 0.87762(14) 0.4891(3) 1.0410(3)
O12C O 0.87694(14) 0.2375(3) 0.7784(3)
O13C O 0.80174(12) 0.3822(3) 1.1434(3)
O14C O 0.80142(14) 0.1322(4) 0.8807(4)
O15C O 0.91107(14) 0.4028(3) 0.6093(3)
O16C O 0.91048(14) 0.6611(3) 0.8737(3)
O17C O 0.88116(14) 0.8137(4) 0.7098(3)
O18C O 0.80330(14) 0.9145(3) 0.6131(3)
O19C O 0.80335(15) 0.6542(3) 0.3594(4)
O20C O 0.88406(15) 0.5655(3) 0.4498(4)
N21C N 0.91184(15) 0.4352(3) 0.9440(4)
N22C N 0.91199(15) 0.3341(3) 0.8359(3)
N23C N 0.88351(16) 0.2523(4) 0.9171(4)
N24C N 0.88301(16) 0.3536(4) 1.0217(4)
N25C N 0.83517(15) 0.2860(4) 1.0850(4)
N26C N 0.78082(15) 0.2579(4) 1.1134(4)
N27C N 0.78076(16) 0.1577(4) 1.0105(4)
N28C N 0.83480(15) 0.1854(4) 0.9817(4)
N29C N 0.93098(15) 0.4301(3) 0.7389(4)
N30C N 0.93318(15) 0.5264(4) 0.6461(4)
N31C N 0.93374(16) 0.6268(4) 0.7501(4)
N32C N 0.92945(15) 0.5332(3) 0.8436(3)
N33C N 0.91920(16) 0.7269(4) 0.6491(4)
N34C N 0.88630(15) 0.8004(3) 0.5721(3)
N35C N 0.83566(16) 0.8614(4) 0.5113(4)
N36C N 0.78092(15) 0.8857(4) 0.4874(4)
N37C N 0.78128(15) 0.7768(4) 0.3876(4)
N38C N 0.83662(15) 0.7584(4) 0.4076(4)
N39C N 0.88826(14) 0.7015(4) 0.4654(3)
N40C N 0.91943(17) 0.6242(4) 0.5433(4)
C33C C 0.88974(19) 0.4331(5) 1.0052(4)
C34C C 0.92331(18) 0.3555(4) 0.9175(4)
H35C H 0.9480 0.3484 0.9244
C35C C 0.88956(19) 0.2720(4) 0.8379(4)
C36C C 0.90258(18) 0.2992(4) 0.9729(4)
H36C H 0.9176 0.2659 1.0063
C37C C 0.86802(18) 0.3277(5) 1.0972(4)
H37C H 0.8838 0.2921 1.1246
H38C H 0.8644 0.3737 1.1318
C38C C 0.80498(17) 0.3190(5) 1.1177(4)
C40C C 0.79420(18) 0.1799(5) 1.0836(5)
H41C H 0.7923 0.1376 1.1244
C41C C 0.80529(18) 0.1545(4) 0.9471(5)
C42C C 0.86797(18) 0.1758(4) 0.9398(4)
H42C H 0.8646 0.1439 0.8914
H43C H 0.8836 0.1470 0.9750
C43C C 0.83273(18) 0.2025(5) 1.0647(5)
H44C H 0.8488 0.1701 1.0964
C45C C 0.9332(2) 0.3483(4) 0.7657(4)
H47C H 0.9261 0.3132 0.7220
H48C H 0.9568 0.3359 0.7789
C46C C 0.92371(18) 0.4485(4) 0.6601(4)
C47C C 0.95167(19) 0.5611(4) 0.7123(4)
H49C H 0.9754 0.5743 0.6982
C48C C 0.92296(18) 0.6138(4) 0.8284(4)
C49C C 0.93195(19) 0.5058(4) 0.9273(4)
H50C H 0.9245 0.5485 0.9629
H51C H 0.9557 0.4946 0.9396
C50C C 0.94895(18) 0.4947(4) 0.7810(4)
H52C H 0.9715 0.4778 0.8004
C51C C 0.93940(19) 0.7084(4) 0.7198(4)
H53C H 0.9634 0.7148 0.7067
H54C H 0.9339 0.7461 0.7625
C52C C 0.89396(18) 0.7813(4) 0.6484(4)
C53C C 0.86844(18) 0.8748(4) 0.5508(5)
H55C H 0.8829 0.9059 0.5150
H56C H 0.8648 0.9057 0.5997
C54C C 0.80582(17) 0.8889(4) 0.5449(5)
C56C C 0.79412(17) 0.8561(4) 0.4104(5)
H59C H 0.7907 0.8950 0.3668
C57C C 0.80603(18) 0.7262(5) 0.3818(5)
C58C C 0.83221(17) 0.8417(4) 0.4267(4)
H60C H 0.8467 0.8758 0.3927
C59C C 0.87007(18) 0.7228(4) 0.3920(4)
H61C H 0.8838 0.7602 0.3612
H62C H 0.8670 0.6753 0.3591
C60C C 0.89700(19) 0.6234(4) 0.4843(5)
C61C C 0.92991(18) 0.7037(4) 0.5685(4)
H63C H 0.9543 0.7133 0.5594
C62C C 0.90681(18) 0.7568(4) 0.5129(4)
H64C H 0.9205 0.7930 0.4792
C63C C 0.9389(2) 0.5540(4) 0.5636(4)
H65C H 0.9330 0.5115 0.5262
H66C H 0.9631 0.5656 0.5567
O21 O 0.7500 0.7935(6) 0.1307(7)
O22 O 0.6823(2) 0.5630(4) 0.5213(5)
O23 O 0.7500 0.0948(5) 0.7128(6)
O24 O 0.6859(3) 0.8098(7) 1.2127(5)
O25 O 0.62516(16) 0.5312(3) 0.1945(3)
O26 O 0.69411(19) 0.2964(5) 0.7899(4)
O27 O 0.6658(2) 0.4299(5) 0.8509(5)
O28 O 0.7500 0.6096(4) 1.1994(4)
O29 O 0.68179(18) 0.0249(5) -0.2362(5)
O30 O 0.6954(2) 0.4872(4) 0.9867(5)
O31 O 0.6586(4) 0.9354(10) 1.1562(11)
O32 O 0.7500 -0.2888(12) -0.4117(13)
O33 O 0.6607(2) 0.6159(6) 0.6558(6)
O34 O 0.7500 0.5249(10) 0.7505(9)
O35 O 0.6849(2) 0.7471(5) 0.7127(4)
O36 O 0.68017(19) 0.5307(3) 0.2656(4)
O37 O 0.6622(4) 0.1173(9) 0.3430(9)
O38? O 0.7500 -0.2257(11) -0.3583(11)
O39? O 0.6606(3) 0.4816(7) 0.8056(8)
loop_
_geom_bond_atom_site_label_1
_geom_bond_atom_site_label_2
_geom_bond_site_symmetry_1
_geom_bond_site_symmetry_2
O1 C1 1_555 1_555
O2 C3 1_555 1_555
O3 C8 1_555 1_555
O4 C10 1_555 1_555
O5 C14 1_555 1_555
O6 C16 1_555 1_555
O7 C18 1_555 1_555
O8 C21 1_555 1_555
O9 C24 1_555 1_555
O10 C28 1_555 1_555
N1 C1 1_555 1_555
N2 C2 1_555 1_555
N3 C3 1_555 1_555
N4 C1 1_555 1_555
N5 C7 1_555 1_555
N6 C8 1_555 1_555
N7 C9 1_555 1_555
N8 C10 1_555 1_555
N9 C13 1_555 1_555
N10 C14 1_555 1_555
N11 C15 1_555 1_555
N12 C16 1_555 1_555
N13 C17 1_555 1_555
N14 C18 1_555 1_555
N15 C20 1_555 1_555
N16 C21 1_555 1_555
N17 C23 1_555 1_555
N18 C24 1_555 1_555
N19 C27 1_555 1_555
N20 C28 1_555 1_555
C2 N1 1_555 1_555
H1 C2 1_555 1_555
C3 N2 1_555 1_555
C4 N3 1_555 1_555
H2 C4 1_555 1_555
C5 N4 1_555 1_555
H3 C5 1_555 1_555
H4 C5 1_555 1_555
C6 N3 1_555 1_555
H5 C6 1_555 1_555
H6 C6 1_555 1_555
C7 N2 1_555 1_555
H7 C7 1_555 1_555
H8 C7 1_555 1_555
C8 N5 1_555 1_555
C9 N6 1_555 1_555
H9 C9 1_555 1_555
C10 N7 1_555 1_555
C11 N1 1_555 1_555
H10 C11 1_555 1_555
H11 C11 1_555 1_555
C12 N5 1_555 1_555
H12 C12 1_555 1_555
C13 N7 1_555 1_555
H13 C13 1_555 1_555
H14 C13 1_555 1_555
C14 N9 1_555 1_555
C15 N10 1_555 1_555
H15 C15 1_555 1_555
H16 C15 1_555 1_555
C16 N11 1_555 1_555
C17 N12 1_555 1_555
H17 C17 1_555 1_555
H18 C17 1_555 1_555
C18 N13 1_555 1_555
C19 N14 1_555 1_555
H19 C19 1_555 1_555
H20 C19 1_555 1_555
C20 N14 1_555 1_555
H21 C20 1_555 1_555
C21 N15 1_555 1_555
C22 N13 1_555 1_555
H22 C22 1_555 1_555
C23 N16 1_555 1_555
H23 C23 1_555 1_555
H24 C23 1_555 1_555
C24 N17 1_555 1_555
C25 N11 1_555 1_555
H25 C25 1_555 1_555
C26 N12 1_555 1_555
H26 C26 1_555 1_555
C27 N18 1_555 1_555
H27 C27 1_555 1_555
H28 C27 1_555 1_555
C28 N19 1_555 1_555
C29 N6 1_555 1_555
H29 C29 1_555 1_555
H30 C29 1_555 1_555
C30 N9 1_555 1_555
H31 C30 1_555 1_555
C31 N10 1_555 1_555
H32 C31 1_555 1_555
C32 N15 1_555 1_555
H33 C32 1_555 1_555
H34 C32 1_555 1_555
O11 C33 1_555 1_555
O12 C35 1_555 1_555
O13 C38 1_555 1_555
O14 C41 1_555 1_555
O15 C46 1_555 1_555
O16 C48 1_555 1_555
O17 C52 1_555 1_555
O18 C54 1_555 1_555
O19 C57 1_555 1_555
O20 C60 1_555 1_555
N21 C33 1_555 1_555
N22 C34 1_555 1_555
N23 C35 1_555 1_555
N24 C33 1_555 1_555
N25 C37 1_555 1_555
N26 C38 1_555 1_555
N27 C40 1_555 1_555
N28 C41 1_555 1_555
N29 C45 1_555 1_555
N30 C46 1_555 1_555
N31 C47 1_555 1_555
N32 C48 1_555 1_555
N33 C51 1_555 1_555
N34 C52 1_555 1_555
N35 C53 1_555 1_555
N36 C54 1_555 1_555
N37 C56 1_555 1_555
N38 C57 1_555 1_555
N39 C59 1_555 1_555
N40 C60 1_555 1_555
C34 N21 1_555 1_555
H35 C34 1_555 1_555
C35 N22 1_555 1_555
C36 N23 1_555 1_555
H36 C36 1_555 1_555
C37 N24 1_555 1_555
H37 C37 1_555 1_555
H38 C37 1_555 1_555
C38 N25 1_555 1_555
C39 N26 1_555 1_555
H39 C39 1_555 1_555
H40 C39 1_555 1_555
C40 N26 1_555 1_555
H41 C40 1_555 1_555
C41 N27 1_555 1_555
C42 N23 1_555 1_555
H42 C42 1_555 1_555
H43 C42 1_555 1_555
C43 N25 1_555 1_555
H44 C43 1_555 1_555
C44 N27 1_555 1_555
H45 C44 1_555 1_555
H46 C44 1_555 1_555
C45 N22 1_555 1_555
H47 C45 1_555 1_555
H48 C45 1_555 1_555
C46 N29 1_555 1_555
C47 N30 1_555 1_555
H49 C47 1_555 1_555
C48 N31 1_555 1_555
C49 N21 1_555 1_555
H50 C49 1_555 1_555
H51 C49 1_555 1_555
C50 N29 1_555 1_555
H52 C50 1_555 1_555
C51 N31 1_555 1_555
H53 C51 1_555 1_555
H54 C51 1_555 1_555
C52 N33 1_555 1_555
C53 N34 1_555 1_555
H55 C53 1_555 1_555
H56 C53 1_555 1_555
C54 N35 1_555 1_555
C55 N36 1_555 1_555
H57 C55 1_555 1_555
H58 C55 1_555 1_555
C56 N36 1_555 1_555
H59 C56 1_555 1_555
C57 N37 1_555 1_555
C58 N35 1_555 1_555
H60 C58 1_555 1_555
C59 N38 1_555 1_555
H61 C59 1_555 1_555
H62 C59 1_555 1_555
C60 N39 1_555 1_555
C61 N33 1_555 1_555
H63 C61 1_555 1_555
C62 N34 1_555 1_555
H64 C62 1_555 1_555
C63 N30 1_555 1_555
H65 C63 1_555 1_555
H66 C63 1_555 1_555
C64 N37 1_555 1_555
H67 C64 1_555 1_555
H68 C64 1_555 1_555
O1C C1C 1_555 1_555
O2C C3C 1_555 1_555
O3C C8C 1_555 1_555
O4C C10C 1_555 1_555
O5C C14C 1_555 1_555
O6C C16C 1_555 1_555
O7C C18C 1_555 1_555
O8C C21C 1_555 1_555
O9C C24C 1_555 1_555
O10C C28C 1_555 1_555
N1C C1C 1_555 1_555
N2C C2C 1_555 1_555
N3C C6 1_555 1_555
N4C C5 1_555 1_555
N5C C7C 1_555 1_555
N6C C8C 1_555 1_555
N7C C9C 1_555 1_555
N8C C10C 1_555 1_555
N9C C13C 1_555 1_555
N10C C14C 1_555 1_555
N11C C15C 1_555 1_555
N12C C16C 1_555 1_555
N13C C17C 1_555 1_555
N14C C19 1_555 1_555
N15C C32 1_555 1_555
N16C C21C 1_555 1_555
N17C C23C 1_555 1_555
N18C C24C 1_555 1_555
N19C C27C 1_555 1_555
N20C C28C 1_555 1_555
C1C N4C 1_555 1_555
C2C N1C 1_555 1_555
H1C C2C 1_555 1_555
C3C N2C 1_555 1_555
C4C N3C 1_555 1_555
H2C C4C 1_555 1_555
C7C N2C 1_555 1_555
H7C C7C 1_555 1_555
H8C C7C 1_555 1_555
C8C N5C 1_555 1_555
C9C N6C 1_555 1_555
H9C C9C 1_555 1_555
C10C N7C 1_555 1_555
C11C N1C 1_555 1_555
H10C C11C 1_555 1_555
H11C C11C 1_555 1_555
C12C N5C 1_555 1_555
H12C C12C 1_555 1_555
C13C N7C 1_555 1_555
H13C C13C 1_555 1_555
H14C C13C 1_555 1_555
C14C N9C 1_555 1_555
C15C N10C 1_555 1_555
H15C C15C 1_555 1_555
H16C C15C 1_555 1_555
C16C N11C 1_555 1_555
C17C N12C 1_555 1_555
H17C C17C 1_555 1_555
H18C C17C 1_555 1_555
C18C N13C 1_555 1_555
C20C N14C 1_555 1_555
H21C C20C 1_555 1_555
C21C N15C 1_555 1_555
C22C N13C 1_555 1_555
H22C C22C 1_555 1_555
C23C N16C 1_555 1_555
H23C C23C 1_555 1_555
H24C C23C 1_555 1_555
C24C N17C 1_555 1_555
C25C N11C 1_555 1_555
H25C C25C 1_555 1_555
C26C N12C 1_555 1_555
H26C C26C 1_555 1_555
C27C N18C 1_555 1_555
H27C C27C 1_555 1_555
H28C C27C 1_555 1_555
C28C N19C 1_555 1_555
C29C N6C 1_555 1_555
H29C C29C 1_555 1_555
H30C C29C 1_555 1_555
C30C N9C 1_555 1_555
H31C C30C 1_555 1_555
C31C N10C 1_555 1_555
H32C C31C 1_555 1_555
O11C C33C 1_555 1_555
O12C C35C 1_555 1_555
O13C C38C 1_555 1_555
O14C C41C 1_555 1_555
O15C C46C 1_555 1_555
O16C C48C 1_555 1_555
O17C C52C 1_555 1_555
O18C C54C 1_555 1_555
O19C C57C 1_555 1_555
O20C C60C 1_555 1_555
N21C C33C 1_555 1_555
N22C C34C 1_555 1_555
N23C C35C 1_555 1_555
N24C C33C 1_555 1_555
N25C C37C 1_555 1_555
N26C C39 1_555 1_555
N27C C44 1_555 1_555
N28C C41C 1_555 1_555
N29C C45C 1_555 1_555
N30C C46C 1_555 1_555
N31C C47C 1_555 1_555
N32C C48C 1_555 1_555
N33C C51C 1_555 1_555
N34C C52C 1_555 1_555
N35C C53C 1_555 1_555
N36C C55 1_555 1_555
N37C C64 1_555 1_555
N38C C57C 1_555 1_555
N39C C59C 1_555 1_555
N40C C60C 1_555 1_555
C34C N21C 1_555 1_555
H35C C34C 1_555 1_555
C35C N22C 1_555 1_555
C36C N23C 1_555 1_555
H36C C36C 1_555 1_555
C37C N24C 1_555 1_555
H37C C37C 1_555 1_555
H38C C37C 1_555 1_555
C38C N25C 1_555 1_555
C40C N26C 1_555 1_555
H41C C40C 1_555 1_555
C41C N27C 1_555 1_555
C42C N23C 1_555 1_555
H42C C42C 1_555 1_555
H43C C42C 1_555 1_555
C43C N25C 1_555 1_555
H44C C43C 1_555 1_555
C45C N22C 1_555 1_555
H47C C45C 1_555 1_555
H48C C45C 1_555 1_555
C46C N29C 1_555 1_555
C47C N30C 1_555 1_555
H49C C47C 1_555 1_555
C48C N31C 1_555 1_555
C49C N21C 1_555 1_555
H50C C49C 1_555 1_555
H51C C49C 1_555 1_555
C50C N29C 1_555 1_555
H52C C50C 1_555 1_555
C51C N31C 1_555 1_555
H53C C51C 1_555 1_555
H54C C51C 1_555 1_555
C52C N33C 1_555 1_555
C53C N34C 1_555 1_555
H55C C53C 1_555 1_555
H56C C53C 1_555 1_555
C54C N35C 1_555 1_555
C56C N36C 1_555 1_555
H59C C56C 1_555 1_555
C57C N37C 1_555 1_555
C58C N35C 1_555 1_555
H60C C58C 1_555 1_555
C59C N38C 1_555 1_555
H61C C59C 1_555 1_555
H62C C59C 1_555 1_555
C60C N39C 1_555 1_555
C61C N33C 1_555 1_555
H63C C61C 1_555 1_555
C62C N34C 1_555 1_555
H64C C62C 1_555 1_555
C63C N30C 1_555 1_555
H65C C63C 1_555 1_555
H66C C63C 1_555 1_555
N4 C4 1_555 1_555
N8 C11 1_555 1_555
N8 C12 1_555 1_555
N16 C22 1_555 1_555
N17 C26 1_555 1_555
N18 C25 1_555 1_555
N19 C31 1_555 1_555
N20 C29 1_555 1_555
N20 C30 1_555 1_555
C2 C4 1_555 1_555
C9 C12 1_555 1_555
C20 C22 1_555 1_555
C25 C26 1_555 1_555
C30 C31 1_555 1_555
N24 C36 1_555 1_555
N28 C42 1_555 1_555
N28 C43 1_555 1_555
N32 C49 1_555 1_555
N32 C50 1_555 1_555
N38 C58 1_555 1_555
N39 C62 1_555 1_555
N40 C61 1_555 1_555
N40 C63 1_555 1_555
C34 C36 1_555 1_555
C40 C43 1_555 1_555
C47 C50 1_555 1_555
C56 C58 1_555 1_555
C61 C62 1_555 1_555
N3C C3C 1_555 1_555
N4C C4C 1_555 1_555
N8C C11C 1_555 1_555
N8C C12C 1_555 1_555
N14C C18C 1_555 1_555
N15C C20C 1_555 1_555
N16C C22C 1_555 1_555
N17C C26C 1_555 1_555
N18C C25C 1_555 1_555
N19C C31C 1_555 1_555
N20C C29C 1_555 1_555
N20C C30C 1_555 1_555
C2C C4C 1_555 1_555
C9C C12C 1_555 1_555
C20C C22C 1_555 1_555
C25C C26C 1_555 1_555
C30C C31C 1_555 1_555
N24C C36C 1_555 1_555
N26C C38C 1_555 1_555
N27C C40C 1_555 1_555
N28C C42C 1_555 1_555
N28C C43C 1_555 1_555
N32C C49C 1_555 1_555
N32C C50C 1_555 1_555
N36C C54C 1_555 1_555
N37C C56C 1_555 1_555
N38C C58C 1_555 1_555
N39C C62C 1_555 1_555
N40C C61C 1_555 1_555
N40C C63C 1_555 1_555
C34C C36C 1_555 1_555
C40C C43C 1_555 1_555
C47C C50C 1_555 1_555
C56C C58C 1_555 1_555
C61C C62C 1_555 1_555

#END
