
#######################################################################
#
#                 Cambridge Crystallographic Data Centre
#                                CCDC 
#
#######################################################################
#
# If this CIF has been generated from an entry in the Cambridge 
# Structural Database, then it will include bibliographic, chemical, 
# crystal, experimental, refinement or atomic coordinate data resulting 
# from the CCDC's data processing and validation procedures.
#
#######################################################################

data_GAYXUB
_chemical_formula_moiety         'C21 H24 N2 O7'
_chemical_name_systematic        
'Methyl 2-isopropoxy-4-((2-isopropoxy-4-nitrobenzoyl)amino)benzoate'
_symmetry_cell_setting           triclinic
_symmetry_space_group_name_H-M   'P -1'
_symmetry_Int_Tables_number      2
_space_group_name_Hall           '-P 1'
loop_
_symmetry_equiv_pos_site_id
_symmetry_equiv_pos_as_xyz
1 x,y,z
2 -x,-y,-z
_cell_length_a                   6.5749(7)
_cell_length_b                   12.8076(15)
_cell_length_c                   13.3529(17)
_cell_angle_alpha                101.7776(64)
_cell_angle_beta                 100.8146(59)
_cell_angle_gamma                90.0108(57)
_cell_volume                     1080.34
_exptl_crystal_colour            yellow
_exptl_crystal_description       needle
_cell_formula_units_Z            2
loop_
_atom_site_label
_atom_site_type_symbol
_atom_site_fract_x
_atom_site_fract_y
_atom_site_fract_z
O1 O 1.13433(18) 0.10814(9) 1.00977(10)
N1 N 1.0758(2) 0.20077(10) 1.03027(10)
C1 C 0.8614(2) 0.22488(12) 0.98077(11)
O2 O 1.1859(2) 0.27471(10) 1.08931(11)
C2 C 0.7305(2) 0.13843(11) 0.92268(11)
H1 H 0.7768 0.0675 0.9159
C3 C 0.5283(2) 0.15883(11) 0.87432(11)
C4 C 0.4610(2) 0.26696(11) 0.88607(11)
C5 C 0.6012(2) 0.34999(12) 0.94600(11)
H2 H 0.5574 0.4214 0.9542
C6 C 0.8034(2) 0.33100(12) 0.99402(11)
H3 H 0.8961 0.3878 1.0336
O3 O 0.38985(16) 0.07844(8) 0.81482(8)
C7 C 0.4247(2) -0.03544(11) 0.81854(12)
H4 H 0.4976 -0.0410 0.8899
C8 C 0.5552(3) -0.08459(13) 0.73812(14)
H5 H 0.4801 -0.0822 0.6680
H6 H 0.5813 -0.1589 0.7430
H7 H 0.6874 -0.0440 0.7521
C9 C 0.2067(2) -0.08846(12) 0.79569(13)
H8 H 0.1286 -0.0535 0.8481
H9 H 0.2177 -0.1642 0.7982
H10 H 0.1346 -0.0815 0.7263
O4 O 0.19401(17) 0.39582(8) 0.87128(9)
N2 N 0.11979(19) 0.22678(9) 0.76797(9)
H11 H 0.1748 0.1643 0.7527
C10 C 0.2458(2) 0.30315(11) 0.84116(11)
C11 C -0.0869(2) 0.23411(11) 0.71323(11)
C12 C -0.1819(3) 0.13823(12) 0.64841(12)
H12 H -0.1091 0.0739 0.6424
C13 C -0.3841(3) 0.14011(12) 0.59361(12)
H13 H -0.4477 0.0756 0.5506
C14 C -0.4989(2) 0.23414(11) 0.59944(11)
C15 C -0.4004(2) 0.33020(11) 0.66492(11)
C16 C -0.1944(2) 0.32968(11) 0.72112(11)
H14 H -0.1292 0.3938 0.7640
O5 O -0.78780(19) 0.13673(10) 0.47742(11)
C17 C -0.7151(2) 0.22175(12) 0.53303(12)
O6 O -0.82225(17) 0.31250(9) 0.53880(8)
C18 C -1.0281(3) 0.30322(15) 0.47213(13)
H15 H -1.0148 0.2824 0.3989
H16 H -1.0942 0.3721 0.4836
H17 H -1.1130 0.2489 0.4893
O7 O -0.51525(16) 0.42034(8) 0.67244(9)
C19 C -0.4229(2) 0.52443(11) 0.73142(12)
H18 H -0.3368 0.5158 0.7992
C20 C -0.2875(3) 0.57133(14) 0.66836(15)
H19 H -0.1722 0.5246 0.6572
H20 H -0.2327 0.6424 0.7067
H21 H -0.3709 0.5770 0.6008
C21 C -0.6093(3) 0.59182(13) 0.75205(14)
H22 H -0.6899 0.6030 0.6858
H23 H -0.5603 0.6610 0.7971
H24 H -0.6969 0.5545 0.7865
loop_
_geom_bond_atom_site_label_1
_geom_bond_atom_site_label_2
_geom_bond_site_symmetry_1
_geom_bond_site_symmetry_2
O1 N1 1_555 1_555
N1 C1 1_555 1_555
C1 C2 1_555 1_555
O2 N1 1_555 1_555
C2 H1 1_555 1_555
C3 C2 1_555 1_555
C4 C3 1_555 1_555
C5 C4 1_555 1_555
H2 C5 1_555 1_555
C6 C1 1_555 1_555
H3 C6 1_555 1_555
O3 C3 1_555 1_555
C7 O3 1_555 1_555
H4 C7 1_555 1_555
C8 C7 1_555 1_555
H5 C8 1_555 1_555
H6 C8 1_555 1_555
H7 C8 1_555 1_555
C9 C7 1_555 1_555
H8 C9 1_555 1_555
H9 C9 1_555 1_555
H10 C9 1_555 1_555
O4 C10 1_555 1_555
N2 H11 1_555 1_555
C10 C4 1_555 1_555
C11 N2 1_555 1_555
C12 C11 1_555 1_555
H12 C12 1_555 1_555
C13 C12 1_555 1_555
H13 C13 1_555 1_555
C14 C13 1_555 1_555
C15 C14 1_555 1_555
C16 C11 1_555 1_555
H14 C16 1_555 1_555
O5 C17 1_555 1_555
C17 C14 1_555 1_555
O6 C17 1_555 1_555
C18 O6 1_555 1_555
H15 C18 1_555 1_555
H16 C18 1_555 1_555
H17 C18 1_555 1_555
O7 C15 1_555 1_555
C19 O7 1_555 1_555
H18 C19 1_555 1_555
C20 C19 1_555 1_555
H19 C20 1_555 1_555
H20 C20 1_555 1_555
H21 C20 1_555 1_555
C21 C19 1_555 1_555
H22 C21 1_555 1_555
H23 C21 1_555 1_555
H24 C21 1_555 1_555
C5 C6 1_555 1_555
N2 C10 1_555 1_555
C15 C16 1_555 1_555

#END
