
#######################################################################
#
#                 Cambridge Crystallographic Data Centre
#                                CCDC 
#
#######################################################################
#
# If this CIF has been generated from an entry in the Cambridge 
# Structural Database, then it will include bibliographic, chemical, 
# crystal, experimental, refinement or atomic coordinate data resulting 
# from the CCDC's data processing and validation procedures.
#
#######################################################################

data_GAYYAI
_chemical_formula_moiety         'C29 H26 N2 O7,C1 H4 O1'
_chemical_name_systematic        
'Methyl 2-isopropoxy-4-((2-(2-naphthylmethoxy)-4-nitrobenzoyl)amino)benzoate methanol solvate'
_symmetry_cell_setting           triclinic
_symmetry_space_group_name_H-M   'P -1'
_symmetry_Int_Tables_number      2
_space_group_name_Hall           '-P 1'
loop_
_symmetry_equiv_pos_site_id
_symmetry_equiv_pos_as_xyz
1 x,y,z
2 -x,-y,-z
_cell_length_a                   10.5500(10)
_cell_length_b                   11.3420(11)
_cell_length_c                   12.6649(12)
_cell_angle_alpha                101.747(5)
_cell_angle_beta                 99.324(5)
_cell_angle_gamma                104.299(5)
_cell_volume                     1401.29
_cell_formula_units_Z            2
loop_
_atom_site_label
_atom_site_type_symbol
_atom_site_fract_x
_atom_site_fract_y
_atom_site_fract_z
C1 C 0.33680(14) 0.34823(12) 0.56851(11)
H1 H 0.3295 0.2625 0.5662
C3 C 0.36908(15) 0.43588(13) 0.67004(11)
H6 H 0.3842 0.4096 0.7364
C4 C 0.37989(12) 0.56571(12) 0.67586(10)
C5 C 0.41031(14) 0.65944(13) 0.77939(11)
H7 H 0.4265 0.6358 0.8470
C6 C 0.41627(14) 0.78332(13) 0.78193(11)
H8 H 0.4360 0.8437 0.8509
C7 C 0.39289(14) 0.82062(12) 0.68122(12)
H9 H 0.3964 0.9056 0.6834
C8 C 0.36500(13) 0.73291(12) 0.57983(11)
H10 H 0.3511 0.7591 0.5133
C9 C 0.35691(11) 0.60362(11) 0.57437(10)
C10 C 0.32459(11) 0.51061(11) 0.47032(10)
H11 H 0.3101 0.5353 0.4031
C11 C 0.31434(11) 0.38564(11) 0.46692(10)
C12 C 0.28282(12) 0.28815(11) 0.35683(10)
H12 H 0.2758 0.3288 0.2948
H13 H 0.3548 0.2466 0.3535
O2 O 0.15426(8) 0.19523(8) 0.34901(7)
C13 C 0.11028(11) 0.09011(11) 0.26065(9)
C14 C 0.17947(12) 0.07521(12) 0.17433(9)
H14 H 0.2583 0.1381 0.1751
O3 O 0.15265(13) -0.13731(11) -0.08565(9)
N1 N 0.20286(12) -0.04713(11) -0.00333(9)
C15 C 0.12903(12) -0.03451(12) 0.08767(9)
O4 O 0.30924(12) 0.03529(13) 0.00680(9)
C16 C 0.01380(13) -0.13131(12) 0.08152(10)
H15 H -0.0175 -0.2047 0.0217
C17 C -0.05319(12) -0.11433(11) 0.16838(10)
H16 H -0.1314 -0.1784 0.1669
C18 C -0.00853(11) -0.00538(11) 0.25797(9)
O5 O -0.19823(10) -0.09322(10) 0.32887(8)
C19 C -0.09733(12) -0.00346(11) 0.34255(9)
N2 N -0.05816(10) 0.10116(9) 0.43143(8)
H17 H 0.0168 0.1584 0.4345
C20 C -0.12521(12) 0.12698(11) 0.51874(9)
C21 C -0.24269(12) 0.04196(11) 0.52952(10)
H18 H -0.2805 -0.0383 0.4785
C22 C -0.30211(13) 0.07893(11) 0.61747(10)
H19 H -0.3800 0.0216 0.6258
C23 C -0.25021(12) 0.19820(11) 0.69385(9)
C24 C -0.12957(12) 0.28277(11) 0.68380(9)
C25 C -0.06837(12) 0.24581(11) 0.59634(10)
H20 H 0.0118 0.3012 0.5894
O6 O -0.32544(14) 0.34182(11) 0.82222(12)
C26 C -0.32528(13) 0.23573(12) 0.78030(10)
O7 O -0.40116(13) 0.13509(10) 0.80417(10)
C27 C -0.4905(2) 0.16096(17) 0.87770(16)
H21 H -0.4376 0.2215 0.9470
H22 H -0.5371 0.0826 0.8935
H23 H -0.5566 0.1961 0.8417
O8 O -0.08074(9) 0.39467(9) 0.76286(8)
C28 C 0.04926(12) 0.48367(12) 0.76668(10)
H24 H 0.1131 0.4361 0.7449
C29 C 0.09959(15) 0.55782(14) 0.88873(12)
H25 H 0.0361 0.6033 0.9100
H26 H 0.1878 0.6180 0.8988
H27 H 0.1070 0.4994 0.9352
C30 C 0.03042(15) 0.56760(15) 0.68869(13)
H28 H -0.0083 0.5152 0.6130
H29 H 0.1176 0.6255 0.6914
H30 H -0.0301 0.6159 0.7117
O1 O 0.22256(16) 0.39317(12) 0.10876(12)
H2 H 0.2317 0.4688 0.1391
C2 C 0.31315(19) 0.38709(18) 0.03772(19)
H3 H 0.3976 0.4539 0.0712
H4 H 0.2738 0.3982 -0.0338
H5 H 0.3306 0.3050 0.0268
loop_
_geom_bond_atom_site_label_1
_geom_bond_atom_site_label_2
_geom_bond_site_symmetry_1
_geom_bond_site_symmetry_2
C1 H1 1_555 1_555
O1 H2 1_555 1_555
C2 O1 1_555 1_555
H3 C2 1_555 1_555
H4 C2 1_555 1_555
H5 C2 1_555 1_555
C3 C1 1_555 1_555
H6 C3 1_555 1_555
C4 C3 1_555 1_555
C5 C4 1_555 1_555
H7 C5 1_555 1_555
C6 C5 1_555 1_555
H8 C6 1_555 1_555
C7 C6 1_555 1_555
H9 C7 1_555 1_555
C8 C7 1_555 1_555
H10 C8 1_555 1_555
C9 C4 1_555 1_555
C10 C9 1_555 1_555
H11 C10 1_555 1_555
C11 C1 1_555 1_555
C12 C11 1_555 1_555
H12 C12 1_555 1_555
H13 C12 1_555 1_555
O2 C12 1_555 1_555
C13 O2 1_555 1_555
C14 C13 1_555 1_555
H14 C14 1_555 1_555
O3 N1 1_555 1_555
N1 C15 1_555 1_555
C15 C14 1_555 1_555
O4 N1 1_555 1_555
C16 C15 1_555 1_555
H15 C16 1_555 1_555
C17 C16 1_555 1_555
H16 C17 1_555 1_555
C18 C13 1_555 1_555
O5 C19 1_555 1_555
C19 C18 1_555 1_555
N2 C19 1_555 1_555
H17 N2 1_555 1_555
C20 N2 1_555 1_555
C21 C20 1_555 1_555
H18 C21 1_555 1_555
C22 C21 1_555 1_555
H19 C22 1_555 1_555
C23 C22 1_555 1_555
C24 C23 1_555 1_555
C25 C20 1_555 1_555
H20 C25 1_555 1_555
O6 C26 1_555 1_555
C26 C23 1_555 1_555
O7 C26 1_555 1_555
C27 O7 1_555 1_555
H21 C27 1_555 1_555
H22 C27 1_555 1_555
H23 C27 1_555 1_555
O8 C24 1_555 1_555
C28 O8 1_555 1_555
H24 C28 1_555 1_555
C29 C28 1_555 1_555
H25 C29 1_555 1_555
H26 C29 1_555 1_555
H27 C29 1_555 1_555
C30 C28 1_555 1_555
H28 C30 1_555 1_555
H29 C30 1_555 1_555
H30 C30 1_555 1_555
C8 C9 1_555 1_555
C10 C11 1_555 1_555
C17 C18 1_555 1_555
C24 C25 1_555 1_555

#END
