
#######################################################################
#
#                 Cambridge Crystallographic Data Centre
#                                CCDC 
#
#######################################################################
#
# If this CIF has been generated from an entry in the Cambridge 
# Structural Database, then it will include bibliographic, chemical, 
# crystal, experimental, refinement or atomic coordinate data resulting 
# from the CCDC's data processing and validation procedures.
#
#######################################################################

data_GAZGUM
_chemical_formula_moiety         'C31 H31 N3 O3'
_chemical_name_systematic        
'ethyl 2,5-bis((2,4-dimethylphenyl)amino)-5H-chromeno[4,3-b]pyridine-3-carboxylate'
_symmetry_cell_setting           triclinic
_symmetry_space_group_name_H-M   'P -1'
_symmetry_Int_Tables_number      2
_space_group_name_Hall           '-P 1'
loop_
_symmetry_equiv_pos_site_id
_symmetry_equiv_pos_as_xyz
1 x,y,z
2 -x,-y,-z
_cell_length_a                   8.752(14)
_cell_length_b                   12.59(2)
_cell_length_c                   13.13(2)
_cell_angle_alpha                99.55(3)
_cell_angle_beta                 98.66(3)
_cell_angle_gamma                103.85(3)
_cell_volume                     1357.6
_exptl_crystal_colour            colorless
_exptl_crystal_description       block
_cell_formula_units_Z            2
loop_
_atom_site_label
_atom_site_type_symbol
_atom_site_fract_x
_atom_site_fract_y
_atom_site_fract_z
N1 N 0.2980(10) 0.4007(7) 0.3400(6)
N2 N 0.1902(11) 0.5388(7) 0.2819(6)
H1 H 0.1425 0.5892 0.2996
N3 N 0.2424(11) 0.2377(7) 0.6195(6)
H2 H 0.1573 0.2190 0.5710
O1 O 0.5026(8) 0.2657(6) 0.5789(5)
O2 O 0.1601(9) 0.6564(6) 0.6020(5)
O3 O 0.0890(9) 0.6724(6) 0.4333(5)
C1 C 0.2317(14) 0.4873(8) 0.3647(8)
C2 C 0.2211(12) 0.5310(8) 0.4690(8)
C3 C 0.2724(14) 0.4769(9) 0.5495(8)
H3 H 0.2647 0.5019 0.6188
C4 C 0.3351(12) 0.3849(9) 0.5231(8)
C5 C 0.3400(13) 0.3461(8) 0.4182(8)
C6 C 0.4035(12) 0.2494(8) 0.3912(8)
C7 C 0.4803(13) 0.2100(9) 0.4746(8)
C8 C 0.5475(12) 0.1220(9) 0.4553(8)
H4 H 0.6059 0.1013 0.5103
C9 C 0.5260(16) 0.0643(9) 0.3506(10)
H5 H 0.5620 0.0006 0.3370
C10 C 0.4517(16) 0.1010(10) 0.2669(9)
H6 H 0.4447 0.0655 0.1977
C11 C 0.3883(14) 0.1911(9) 0.2886(8)
H7 H 0.3341 0.2134 0.2330
C12 C 0.3790(14) 0.3210(9) 0.6047(8)
H8 H 0.4237 0.3746 0.6719
C13 C 0.2083(13) 0.5270(9) 0.1777(8)
C14 C 0.1904(14) 0.6113(9) 0.1229(8)
C15 C 0.2139(14) 0.6017(11) 0.0197(8)
H9 H 0.2036 0.6598 -0.0139
C16 C 0.2529(15) 0.5081(11) -0.0382(9)
C17 C 0.2664(17) 0.4265(12) 0.0164(8)
H10 H 0.2880 0.3627 -0.0184
C18 C 0.2499(16) 0.4325(10) 0.1215(9)
H11 H 0.2658 0.3755 0.1553
C19 C 0.1498(18) 0.7169(10) 0.1809(9)
H12 H 0.1439 0.7677 0.1342
H13 H 0.2321 0.7534 0.2421
H14 H 0.0484 0.6946 0.2018
C20 C 0.2725(18) 0.5052(11) -0.1503(8)
H15 H 0.3834 0.5141 -0.1539
H16 H 0.2375 0.5649 -0.1747
H17 H 0.2090 0.4348 -0.1938
C21 C 0.2358(16) 0.1849(9) 0.7050(8)
C22 C 0.1001(15) 0.1078(9) 0.7169(9)
C23 C 0.1019(18) 0.0603(10) 0.8042(10)
H18 H 0.0075 0.0118 0.8113
C24 C 0.240(2) 0.0818(11) 0.8832(10)
C25 C 0.3731(19) 0.1534(11) 0.8690(9)
H19 H 0.4666 0.1683 0.9193
C26 C 0.3800(17) 0.2070(9) 0.7838(9)
H20 H 0.4752 0.2556 0.7781
C27 C -0.0562(14) 0.0770(9) 0.6328(10)
H21 H -0.1293 0.0113 0.6431
H22 H -0.0317 0.0626 0.5638
H23 H -0.1048 0.1379 0.6392
C28 C 0.235(2) 0.0247(14) 0.9765(11)
H24 H 0.3343 0.0063 0.9950
H25 H 0.1479 -0.0424 0.9580
H26 H 0.2190 0.0744 1.0355
C29 C 0.1511(13) 0.6253(9) 0.4977(7)
C30 C 0.0919(14) 0.7464(9) 0.6409(8)
H27 H -0.0207 0.7284 0.6082
H28 H 0.1476 0.8156 0.6239
C31 C 0.1101(17) 0.7592(10) 0.7576(9)
H29 H 0.0627 0.6886 0.7739
H30 H 0.0572 0.8134 0.7841
H31 H 0.2221 0.7839 0.7898
loop_
_geom_bond_atom_site_label_1
_geom_bond_atom_site_label_2
_geom_bond_site_symmetry_1
_geom_bond_site_symmetry_2
N1 C1 1_555 1_555
N2 H1 1_555 1_555
N3 H2 1_555 1_555
O1 C7 1_555 1_555
O2 C29 1_555 1_555
O3 C29 1_555 1_555
C1 N2 1_555 1_555
C2 C1 1_555 1_555
C3 C2 1_555 1_555
H3 C3 1_555 1_555
C4 C3 1_555 1_555
C5 N1 1_555 1_555
C6 C5 1_555 1_555
C7 C6 1_555 1_555
C8 C7 1_555 1_555
H4 C8 1_555 1_555
C9 C8 1_555 1_555
H5 C9 1_555 1_555
C10 C9 1_555 1_555
H6 C10 1_555 1_555
C11 C6 1_555 1_555
H7 C11 1_555 1_555
C12 N3 1_555 1_555
H8 C12 1_555 1_555
C13 N2 1_555 1_555
C14 C13 1_555 1_555
C15 C14 1_555 1_555
H9 C15 1_555 1_555
C16 C15 1_555 1_555
C17 C16 1_555 1_555
H10 C17 1_555 1_555
C18 C13 1_555 1_555
H11 C18 1_555 1_555
C19 C14 1_555 1_555
H12 C19 1_555 1_555
H13 C19 1_555 1_555
H14 C19 1_555 1_555
C20 C16 1_555 1_555
H15 C20 1_555 1_555
H16 C20 1_555 1_555
H17 C20 1_555 1_555
C21 N3 1_555 1_555
C22 C21 1_555 1_555
C23 C22 1_555 1_555
H18 C23 1_555 1_555
C24 C23 1_555 1_555
C25 C24 1_555 1_555
H19 C25 1_555 1_555
C26 C21 1_555 1_555
H20 C26 1_555 1_555
C27 C22 1_555 1_555
H21 C27 1_555 1_555
H22 C27 1_555 1_555
H23 C27 1_555 1_555
C28 C24 1_555 1_555
H24 C28 1_555 1_555
H25 C28 1_555 1_555
H26 C28 1_555 1_555
C29 C2 1_555 1_555
C30 O2 1_555 1_555
H27 C30 1_555 1_555
H28 C30 1_555 1_555
C31 C30 1_555 1_555
H29 C31 1_555 1_555
H30 C31 1_555 1_555
H31 C31 1_555 1_555
O1 C12 1_555 1_555
C4 C5 1_555 1_555
C4 C12 1_555 1_555
C10 C11 1_555 1_555
C17 C18 1_555 1_555
C25 C26 1_555 1_555

#END
