
#######################################################################
#
#                 Cambridge Crystallographic Data Centre
#                                CCDC 
#
#######################################################################
#
# If this CIF has been generated from an entry in the Cambridge 
# Structural Database, then it will include bibliographic, chemical, 
# crystal, experimental, refinement or atomic coordinate data resulting 
# from the CCDC's data processing and validation procedures.
#
#######################################################################

data_GAZQIH
_chemical_formula_moiety         'C18 H28 I2 N4 S4 2+,2(Br2 I1 1-)'
_chemical_name_systematic        
"1,3,6,8-Tetraisopropyl-2,7-di-iodo-4,5,9,10-tetrathiacino(1,2-b:5,6-b')di-imidazolium bis(dibromo-iodide)"
_symmetry_cell_setting           monoclinic
_symmetry_space_group_name_H-M   'P 21/c'
_symmetry_Int_Tables_number      14
_space_group_name_Hall           '-P 2ybc'
loop_
_symmetry_equiv_pos_site_id
_symmetry_equiv_pos_as_xyz
1 x,y,z
2 -x,1/2+y,1/2-z
3 -x,-y,-z
4 x,1/2-y,1/2+z
_cell_length_a                   9.304(7)
_cell_length_b                   8.202(7)
_cell_length_c                   23.289(5)
_cell_angle_alpha                90
_cell_angle_beta                 100.93(2)
_cell_angle_gamma                90
_cell_volume                     1744.98
_exptl_crystal_colour            orange
_cell_formula_units_Z            2
loop_
_atom_site_label
_atom_site_type_symbol
_atom_site_fract_x
_atom_site_fract_y
_atom_site_fract_z
I1 I 0.36584(17) 0.27295(19) 0.21832(5)
S1 S 0.1815(5) 0.4250(6) -0.0276(2)
S2 S -0.0120(6) 0.2963(6) -0.0520(2)
N1 N 0.1822(15) 0.5145(17) 0.1383(5)
N2 N 0.2902(15) 0.3407(18) 0.0882(5)
C1 C 0.2730(19) 0.3873(21) 0.1423(7)
C2 C 0.1977(17) 0.4432(19) 0.0486(6)
C3 C 0.1347(18) 0.5486(21) 0.0794(7)
C4 C 0.1463(21) 0.6035(23) 0.1906(8)
C5 C -0.0040(20) 0.5588(24) 0.2010(8)
C6 C 0.1839(25) 0.7756(24) 0.1900(9)
C7 C 0.3872(18) 0.2035(20) 0.0757(7)
C8 C 0.2922(24) 0.0589(24) 0.0503(9)
C9 C 0.4943(20) 0.2629(24) 0.0416(7)
H1 H 0.2065 0.5668 0.2264
H2 H -0.0235 0.6167 0.2346
H3 H -0.0088 0.4436 0.2077
H4 H -0.0757 0.5881 0.1673
H5 H 0.1609 0.8309 0.2234
H6 H 0.1295 0.8236 0.1549
H7 H 0.2868 0.7853 0.1901
H8 H 0.4462 0.1612 0.1109
H9 H 0.3546 -0.0286 0.0427
H10 H 0.2305 0.0920 0.0143
H11 H 0.2326 0.0226 0.0772
H12 H 0.5571 0.1764 0.0336
H13 H 0.5524 0.3480 0.0628
H14 H 0.4407 0.3057 0.0054
S2B S 0.0120(6) 0.7037(6) 0.0520(2)
S1B S -0.1815(5) 0.5750(6) 0.0276(2)
C2B C -0.1977(17) 0.5568(19) -0.0486(6)
N2B N -0.2902(15) 0.6593(18) -0.0882(5)
C1B C -0.2730(19) 0.6127(21) -0.1423(7)
I1B I -0.36584(17) 0.72705(19) -0.21832(5)
N1B N -0.1822(15) 0.4855(17) -0.1383(5)
C3B C -0.1347(18) 0.4514(21) -0.0794(7)
C4B C -0.1463(21) 0.3965(23) -0.1906(8)
C5B C 0.0040(20) 0.4412(24) -0.2010(8)
H2B H 0.0235 0.3833 -0.2346
H3B H 0.0088 0.5564 -0.2077
H4B H 0.0757 0.4119 -0.1673
C6B C -0.1839(25) 0.2244(24) -0.1900(9)
H5B H -0.1609 0.1691 -0.2234
H6B H -0.1295 0.1764 -0.1549
H7B H -0.2868 0.2147 -0.1901
H1B H -0.2065 0.4332 -0.2264
C7B C -0.3872(18) 0.7965(20) -0.0757(7)
C8B C -0.2922(24) 0.9411(24) -0.0503(9)
H9B H -0.3546 1.0286 -0.0427
H10B H -0.2305 0.9080 -0.0143
H11B H -0.2326 0.9774 -0.0772
C9B C -0.4943(20) 0.7371(24) -0.0416(7)
H12B H -0.5571 0.8236 -0.0336
H13B H -0.5524 0.6520 -0.0628
H14B H -0.4407 0.6943 -0.0054
H8B H -0.4462 0.8388 -0.1109
I2 I 0.26745(14) 0.42065(16) 0.36772(5)
Br1 Br 0.4524(3) 0.1633(3) 0.3563(1)
Br2 Br 0.0833(3) 0.6538(3) 0.3840(1)
loop_
_geom_bond_atom_site_label_1
_geom_bond_atom_site_label_2
_geom_bond_site_symmetry_1
_geom_bond_site_symmetry_2
I1 C1 1_555 1_555
I2 Br1 1_555 1_555
Br2 I2 1_555 1_555
S1 S2 1_555 1_555
S2 C3B 1_555 1_555
N1 C1 1_555 1_555
N2 C1 1_555 1_555
C2 S1 1_555 1_555
C3 N1 1_555 1_555
C4 N1 1_555 1_555
C5 C4 1_555 1_555
C6 C4 1_555 1_555
C7 N2 1_555 1_555
C8 C7 1_555 1_555
C9 C7 1_555 1_555
H1 C4 1_555 1_555
H2 C5 1_555 1_555
H3 C5 1_555 1_555
H4 C5 1_555 1_555
H5 C6 1_555 1_555
H6 C6 1_555 1_555
H7 C6 1_555 1_555
H8 C7 1_555 1_555
H9 C8 1_555 1_555
H10 C8 1_555 1_555
H11 C8 1_555 1_555
H12 C9 1_555 1_555
H13 C9 1_555 1_555
H14 C9 1_555 1_555
S2B C3 1_555 1_555
S1B S2B 1_555 1_555
C2B S1B 1_555 1_555
N2B C2B 1_555 1_555
C1B N2B 1_555 1_555
I1B C1B 1_555 1_555
N1B C1B 1_555 1_555
C3B C2B 1_555 1_555
C4B N1B 1_555 1_555
C5B C4B 1_555 1_555
H2B C5B 1_555 1_555
H3B C5B 1_555 1_555
H4B C5B 1_555 1_555
C6B C4B 1_555 1_555
H5B C6B 1_555 1_555
H6B C6B 1_555 1_555
H7B C6B 1_555 1_555
H1B C4B 1_555 1_555
C7B N2B 1_555 1_555
C8B C7B 1_555 1_555
H9B C8B 1_555 1_555
H10B C8B 1_555 1_555
H11B C8B 1_555 1_555
C9B C7B 1_555 1_555
H12B C9B 1_555 1_555
H13B C9B 1_555 1_555
H14B C9B 1_555 1_555
H8B C7B 1_555 1_555
N2 C2 1_555 1_555
C2 C3 1_555 1_555
N1B C3B 1_555 1_555

#END
