
#######################################################################
#
#                 Cambridge Crystallographic Data Centre
#                                CCDC 
#
#######################################################################
#
# If this CIF has been generated from an entry in the Cambridge 
# Structural Database, then it will include bibliographic, chemical, 
# crystal, experimental, refinement or atomic coordinate data resulting 
# from the CCDC's data processing and validation procedures.
#
#######################################################################

data_GAZQOP
_chemical_formula_moiety         'C37 H35 N1 O6,H2 O1'
_chemical_name_systematic        
"Methyl 3-(2-(1,3-benzodioxol-5-yl)vinyl)-5-oxo-4-(piperidin-1-ylcarbonyl)spiro[cyclopentane-1,15'-tetracyclo[6.6.2.0^2,7^.0^9,14^]hexadecane]-2',4',6',9',11',13'-hexaene-2-carboxylate monohydrate"
_symmetry_cell_setting           monoclinic
_symmetry_space_group_name_H-M   'P 21/c'
_symmetry_Int_Tables_number      14
_space_group_name_Hall           '-P 2ybc'
loop_
_symmetry_equiv_pos_site_id
_symmetry_equiv_pos_as_xyz
1 x,y,z
2 -x,1/2+y,1/2-z
3 -x,-y,-z
4 x,1/2-y,1/2+z
_cell_length_a                   18.7483(9)
_cell_length_b                   9.9445(2)
_cell_length_c                   19.2932(9)
_cell_angle_alpha                90
_cell_angle_beta                 116.5848(14)
_cell_angle_gamma                90
_cell_volume                     3216.76
_exptl_crystal_colour            colorless
_exptl_crystal_description       block
_cell_formula_units_Z            4
loop_
_atom_site_label
_atom_site_type_symbol
_atom_site_fract_x
_atom_site_fract_y
_atom_site_fract_z
O1 O -0.11973(14) -0.8181(2) -0.48078(14)
C1 C -0.16671(18) -0.7399(3) -0.35171(19)
O2 O -0.12208(18) -0.6256(3) -0.54080(17)
C2 C -0.1981(2) -0.3694(3) -0.40307(18)
C3 C -0.14423(19) -0.7057(3) -0.49854(18)
O3 O -0.12244(15) -0.7811(3) -0.28775(15)
C4 C -0.08818(19) -0.4357(3) -0.25037(19)
O4 O -0.34974(16) -0.7364(3) -0.38794(17)
C5 C -0.20701(18) -0.4973(3) -0.36586(18)
H1 H -0.2618 -0.5213 -0.3822
C6 C -0.16640(19) -0.4793(3) -0.27903(18)
C7 C -0.15739(18) -0.6075(3) -0.38607(18)
C8 C -0.20058(18) -0.6362(3) -0.47395(18)
H2 H -0.2172 -0.5525 -0.5012
C9 C -0.27256(18) -0.7270(3) -0.48415(18)
H3 H -0.3155 -0.6715 -0.4866
C10 C -0.24091(18) -0.8129(3) -0.40942(18)
H4 H -0.2288 -0.9017 -0.4206
C11 C -0.1191(2) -0.3248(3) -0.3736(2)
C12 C -0.3093(2) -0.8022(3) -0.55879(19)
H5 H -0.2794 -0.8723 -0.5680
C13 C -0.3854(2) -0.9411(4) -0.7156(2)
H6 H -0.3376 -0.9835 -0.6783
C14 C -0.06972(19) -0.5576(3) -0.3522(2)
H7 H -0.0542 -0.5499 -0.3932
H8 H -0.0356 -0.6209 -0.3143
C15 C -0.2997(2) -0.8255(4) -0.3748(2)
N1 N -0.2928(2) -0.9302(3) -0.3279(2)
C16 C -0.3807(2) -0.7781(4) -0.6143(2)
H9 H -0.4147 -0.7150 -0.6056
C17 C -0.1999(2) -0.5056(4) -0.2301(2)
H10 H -0.2537 -0.5388 -0.2512
C18 C -0.0611(2) -0.4179(3) -0.3125(2)
H11 H -0.0083 -0.3811 -0.2927
C19 C -0.4200(2) -0.8373(4) -0.6925(2)
C20 C -0.2583(2) -0.3006(4) -0.4629(2)
H12 H -0.3121 -0.3329 -0.4828
O5 O -0.3996(2) -1.0789(3) -0.82710(17)
O6 O -0.5158(2) -0.9829(4) -0.91580(17)
C21 C -0.1008(3) -0.2103(4) -0.4027(3)
H13 H -0.0464 -0.1806 -0.3810
C22 C -0.4224(2) -0.9788(4) -0.7916(2)
C23 C -0.0427(2) -0.4160(4) -0.1712(2)
H14 H 0.0118 -0.3879 -0.1519
C24 C -0.1549(3) -0.4849(5) -0.1509(2)
H15 H -0.1781 -0.5009 -0.1163
C25 C -0.1623(3) -0.1410(4) -0.4628(3)
H16 H -0.1509 -0.0611 -0.4840
C26 C -0.4918(3) -0.9224(5) -0.8441(2)
C27 C -0.0769(3) -0.4388(5) -0.1221(2)
H17 H -0.0466 -0.4235 -0.0674
C28 C -0.2399(3) -0.1856(4) -0.4929(3)
H18 H -0.2812 -0.1372 -0.5347
C29 C -0.0642(3) -0.6794(6) -0.5639(3)
H19 H -0.0526 -0.6138 -0.5940
H20 H -0.0162 -0.7011 -0.5184
H21 H -0.0851 -0.7591 -0.5944
C30 C -0.4910(3) -0.7832(5) -0.7460(3)
H22 H -0.5159 -0.7127 -0.7306
C31 C -0.5284(3) -0.8256(6) -0.8231(3)
H23 H -0.5785 -0.7900 -0.8606
C32 C -0.2406(3) -1.0469(5) -0.3134(3)
H24 H -0.2026 -1.0286 -0.3329
H25 H -0.2719 -1.1241 -0.3394
C33 C -0.4483(3) -1.0566(7) -0.9085(3)
H26 H -0.4634 -1.1416 -0.9346
H27 H -0.4179 -1.0065 -0.9287
C34 C -0.3465(3) -0.9411(7) -0.2917(3)
H28 H -0.3835 -1.0128 -0.3165
H29 H -0.3752 -0.8582 -0.2986
C35 C -0.3065(5) -0.9733(7) -0.2111(4)
H30 H -0.3437 -0.9853 -0.1899
H31 H -0.2715 -0.8997 -0.1854
C36 C -0.1969(4) -1.0792(7) -0.2311(4)
H32 H -0.1611 -1.0068 -0.2048
H33 H -0.1670 -1.1605 -0.2247
C37 C -0.2531(5) -1.0967(7) -0.1934(4)
H34 H -0.2876 -1.1720 -0.2168
H35 H -0.2239 -1.1112 -0.1385
O7 O -0.43620(19) -0.0744(4) -0.5064(2)
H36 H -0.4492 -0.0014 -0.5319
H37 H -0.4761 -0.1270 -0.5256
loop_
_geom_bond_atom_site_label_1
_geom_bond_atom_site_label_2
_geom_bond_site_symmetry_1
_geom_bond_site_symmetry_2
O1 C3 1_555 1_555
C1 O3 1_555 1_555
O2 C3 1_555 1_555
C2 C5 1_555 1_555
C3 C8 1_555 1_555
C4 C6 1_555 1_555
O4 C15 1_555 1_555
C5 H1 1_555 1_555
C6 C5 1_555 1_555
C7 C1 1_555 1_555
C8 C7 1_555 1_555
H2 C8 1_555 1_555
C9 C8 1_555 1_555
H3 C9 1_555 1_555
C10 C1 1_555 1_555
H4 C10 1_555 1_555
C11 C2 1_555 1_555
C12 C9 1_555 1_555
H5 C12 1_555 1_555
C13 H6 1_555 1_555
C14 C7 1_555 1_555
H7 C14 1_555 1_555
H8 C14 1_555 1_555
C15 C10 1_555 1_555
N1 C15 1_555 1_555
C16 C12 1_555 1_555
H9 C16 1_555 1_555
C17 C6 1_555 1_555
H10 C17 1_555 1_555
C18 C4 1_555 1_555
H11 C18 1_555 1_555
C19 C13 1_555 1_555
C20 C2 1_555 1_555
H12 C20 1_555 1_555
O5 C22 1_555 1_555
O6 C26 1_555 1_555
C21 C11 1_555 1_555
H13 C21 1_555 1_555
C22 C13 1_555 1_555
C23 C4 1_555 1_555
H14 C23 1_555 1_555
C24 C17 1_555 1_555
H15 C24 1_555 1_555
C25 C21 1_555 1_555
H16 C25 1_555 1_555
C26 C22 1_555 1_555
C27 C23 1_555 1_555
H17 C27 1_555 1_555
C28 C20 1_555 1_555
H18 C28 1_555 1_555
C29 O2 1_555 1_555
H19 C29 1_555 1_555
H20 C29 1_555 1_555
H21 C29 1_555 1_555
C30 C19 1_555 1_555
H22 C30 1_555 1_555
C31 C26 1_555 1_555
H23 C31 1_555 1_555
C32 N1 1_555 1_555
H24 C32 1_555 1_555
H25 C32 1_555 1_555
C33 O5 1_555 1_555
H26 C33 1_555 1_555
H27 C33 1_555 1_555
C34 N1 1_555 1_555
H28 C34 1_555 1_555
H29 C34 1_555 1_555
C35 C34 1_555 1_555
H30 C35 1_555 1_555
H31 C35 1_555 1_555
C36 C32 1_555 1_555
H32 C36 1_555 1_555
H33 C36 1_555 1_555
C37 C35 1_555 1_555
H34 C37 1_555 1_555
H35 C37 1_555 1_555
O7 H36 1_555 1_555
H37 O7 1_555 1_555
C5 C7 1_555 1_555
C9 C10 1_555 1_555
C11 C18 1_555 1_555
C14 C18 1_555 1_555
C16 C19 1_555 1_555
O6 C33 1_555 1_555
C24 C27 1_555 1_555
C25 C28 1_555 1_555
C30 C31 1_555 1_555
C36 C37 1_555 1_555

#END
