
#######################################################################
#
#                 Cambridge Crystallographic Data Centre
#                                CCDC 
#
#######################################################################
#
# If this CIF has been generated from an entry in the Cambridge 
# Structural Database, then it will include bibliographic, chemical, 
# crystal, experimental, refinement or atomic coordinate data resulting 
# from the CCDC's data processing and validation procedures.
#
#######################################################################

data_GAZXEN
_chemical_formula_moiety         'C27 H34 B1 N1 O2'
_chemical_name_systematic        
3-(cyclohex-2-en-1-yl)-1-methyl-2-phenyl-2-(4,4,5,5-tetramethyl-1,3,2-dioxaborolan-2-yl)-2,3-dihydro-1H-indole
_symmetry_cell_setting           triclinic
_symmetry_space_group_name_H-M   'P -1'
_symmetry_Int_Tables_number      2
_space_group_name_Hall           '-P 1'
loop_
_symmetry_equiv_pos_site_id
_symmetry_equiv_pos_as_xyz
1 x,y,z
2 -x,-y,-z
_cell_length_a                   9.5214(14)
_cell_length_b                   10.1954(18)
_cell_length_c                   12.8363(17)
_cell_angle_alpha                100.977(4)
_cell_angle_beta                 110.010(14)
_cell_angle_gamma                90.035(6)
_cell_volume                     1146.51
_exptl_crystal_colour            colorless
_exptl_crystal_description       prism
_cell_formula_units_Z            2
loop_
_atom_site_label
_atom_site_type_symbol
_atom_site_fract_x
_atom_site_fract_y
_atom_site_fract_z
C1 C 0.90300(10) 0.17495(9) 0.26984(7)
C2 C 0.91025(10) 0.26544(9) 0.18453(8)
C3 C 1.05606(11) 0.34935(9) 0.25065(8)
C4 C 1.14240(12) 0.42894(10) 0.21643(10)
H1 H 1.1183 0.4301 0.1384
C5 C 1.26615(12) 0.50817(11) 0.29824(11)
H2 H 1.3280 0.5614 0.2756
C6 C 1.29801(12) 0.50851(11) 0.41235(11)
H3 H 1.3798 0.5650 0.4671
C7 C 1.21285(12) 0.42790(10) 0.44864(9)
H4 H 1.2357 0.4286 0.5268
C8 C 1.09299(11) 0.34619(9) 0.36615(8)
C9 C 1.00109(12) 0.24167(11) 0.49190(8)
H5 H 1.1051 0.2337 0.5387
H6 H 0.9402 0.1605 0.4843
H7 H 0.9620 0.3195 0.5278
C10 C 0.97213(10) 0.04060(9) 0.24387(8)
C11 C 0.92415(11) -0.03570(10) 0.13311(8)
H8 H 0.8529 -0.0020 0.0739
C12 C 0.97906(12) -0.15978(10) 0.10850(9)
H9 H 0.9467 -0.2091 0.0327
C13 C 1.08119(12) -0.21179(10) 0.19458(9)
H10 H 1.1174 -0.2973 0.1782
C14 C 1.12978(12) -0.13772(11) 0.30464(9)
H11 H 1.1998 -0.1726 0.3637
C15 C 1.07634(11) -0.01218(10) 0.32911(8)
H12 H 1.1113 0.0379 0.4047
C16 C 0.77468(11) 0.35290(9) 0.14869(8)
C17 C 0.78153(11) 0.42174(10) 0.05583(8)
C18 C 0.73787(13) 0.54409(11) 0.04649(10)
C19 C 0.67603(15) 0.62982(12) 0.12718(11)
C20 C 0.63591(13) 0.55015(11) 0.20348(10)
C21 C 0.75711(11) 0.45525(10) 0.24703(8)
C22 C 0.48937(10) 0.06165(9) 0.18415(8)
C23 C 0.54118(11) 0.08874(10) 0.31635(8)
C24 C 0.40373(11) 0.17430(10) 0.13354(9)
H13 H 0.4590 0.2606 0.1744
H14 H 0.3043 0.1733 0.1403
H15 H 0.3929 0.1613 0.0535
C25 C 0.40373(11) -0.07276(10) 0.12364(9)
H16 H 0.3831 -0.0841 0.0421
H17 H 0.3089 -0.0762 0.1376
H18 H 0.4638 -0.1448 0.1522
C26 C 0.43855(12) 0.17148(11) 0.36669(9)
H19 H 0.4792 0.1837 0.4494
H20 H 0.3385 0.1250 0.3379
H21 H 0.4318 0.2592 0.3453
C27 C 0.57588(12) -0.03811(11) 0.36431(9)
H22 H 0.6430 -0.0893 0.3315
H23 H 0.4825 -0.0927 0.3455
H24 H 0.6244 -0.0138 0.4468
N1 N 0.99510(9) 0.25832(8) 0.38066(7)
O1 O 0.63330(7) 0.06299(7) 0.16519(5)
O2 O 0.68515(7) 0.16671(7) 0.35062(6)
B1 B 0.73647(12) 0.13609(10) 0.26209(9)
H25 H 0.9141(14) 0.2082(12) 0.1130(10)
H26 H 0.6822(14) 0.2897(13) 0.1155(11)
H27 H 0.8195(15) 0.3699(14) -0.0034(11)
H28 H 0.7437(16) 0.5826(15) -0.0172(12)
H29 H 0.5872(19) 0.6748(17) 0.0812(14)
H30 H 0.7505(17) 0.7022(16) 0.1732(13)
H31 H 0.5347(16) 0.4928(15) 0.1577(12)
H32 H 0.6198(17) 0.6131(15) 0.2714(12)
H33 H 0.8567(16) 0.5096(14) 0.2904(12)
H34 H 0.7349(15) 0.4088(14) 0.3015(11)
loop_
_geom_bond_atom_site_label_1
_geom_bond_atom_site_label_2
_geom_bond_site_symmetry_1
_geom_bond_site_symmetry_2
C1 C2 1_555 1_555
C2 C3 1_555 1_555
C3 C4 1_555 1_555
C4 H1 1_555 1_555
C5 C4 1_555 1_555
H2 C5 1_555 1_555
C6 C5 1_555 1_555
H3 C6 1_555 1_555
C7 C6 1_555 1_555
H4 C7 1_555 1_555
C8 C3 1_555 1_555
C9 H5 1_555 1_555
H6 C9 1_555 1_555
H7 C9 1_555 1_555
C10 C1 1_555 1_555
C11 C10 1_555 1_555
H8 C11 1_555 1_555
C12 C11 1_555 1_555
H9 C12 1_555 1_555
C13 C12 1_555 1_555
H10 C13 1_555 1_555
C14 C13 1_555 1_555
H11 C14 1_555 1_555
C15 C10 1_555 1_555
H12 C15 1_555 1_555
C16 C2 1_555 1_555
C17 C16 1_555 1_555
C18 C17 1_555 1_555
C19 C18 1_555 1_555
C20 C19 1_555 1_555
C21 C16 1_555 1_555
C22 C23 1_555 1_555
C23 C26 1_555 1_555
C24 C22 1_555 1_555
H13 C24 1_555 1_555
H14 C24 1_555 1_555
H15 C24 1_555 1_555
C25 C22 1_555 1_555
H16 C25 1_555 1_555
H17 C25 1_555 1_555
H18 C25 1_555 1_555
C26 H19 1_555 1_555
H20 C26 1_555 1_555
H21 C26 1_555 1_555
C27 C23 1_555 1_555
H22 C27 1_555 1_555
H23 C27 1_555 1_555
H24 C27 1_555 1_555
N1 C1 1_555 1_555
O1 C22 1_555 1_555
O2 C23 1_555 1_555
B1 C1 1_555 1_555
H25 C2 1_555 1_555
H26 C16 1_555 1_555
H27 C17 1_555 1_555
H28 C18 1_555 1_555
H29 C19 1_555 1_555
H30 C19 1_555 1_555
H31 C20 1_555 1_555
H32 C20 1_555 1_555
H33 C21 1_555 1_555
H34 C21 1_555 1_555
C7 C8 1_555 1_555
C8 N1 1_555 1_555
C9 N1 1_555 1_555
C14 C15 1_555 1_555
C20 C21 1_555 1_555
O1 B1 1_555 1_555
O2 B1 1_555 1_555

#END
