
#######################################################################
#
#                 Cambridge Crystallographic Data Centre
#                                CCDC 
#
#######################################################################
#
# If this CIF has been generated from an entry in the Cambridge 
# Structural Database, then it will include bibliographic, chemical, 
# crystal, experimental, refinement or atomic coordinate data resulting 
# from the CCDC's data processing and validation procedures.
#
#######################################################################

data_GAZXIR
_chemical_formula_moiety         'C21 H19 Br2 N1'
_chemical_name_systematic        
5,7-dibromo-3-(cyclohex-2-en-1-yl)-1-methyl-2-phenyl-1H-indole
_symmetry_cell_setting           monoclinic
_symmetry_space_group_name_H-M   'P 21'
_symmetry_Int_Tables_number      4
_space_group_name_Hall           'P 2yb'
loop_
_symmetry_equiv_pos_site_id
_symmetry_equiv_pos_as_xyz
1 x,y,z
2 -x,1/2+y,-z
_cell_length_a                   19.8748(19)
_cell_length_b                   9.4591(9)
_cell_length_c                   20.538(2)
_cell_angle_alpha                90
_cell_angle_beta                 108.334(3)
_cell_angle_gamma                90
_cell_volume                     3665.1
_exptl_crystal_colour            colorless
_exptl_crystal_description       prisms
_cell_formula_units_Z            8
loop_
_atom_site_label
_atom_site_type_symbol
_atom_site_fract_x
_atom_site_fract_y
_atom_site_fract_z
Br1 Br 0.26692(2) 0.36854(5) 0.06392(3)
Br2 Br 0.53185(2) 0.23722(4) 0.03584(2)
N1 N 0.56860(16) 0.5619(3) 0.11558(17)
C1 C 0.56486(19) 0.6908(4) 0.14691(19)
C2 C 0.49849(19) 0.7100(4) 0.15255(19)
C3 C 0.45752(19) 0.5885(4) 0.1220(2)
C4 C 0.3866(2) 0.5507(4) 0.1124(2)
H1 H 0.3560 0.6102 0.1275
C5 C 0.3634(2) 0.4242(4) 0.0803(2)
C6 C 0.4066(2) 0.3325(4) 0.0577(2)
H2 H 0.3883 0.2457 0.0362
C7 C 0.47632(19) 0.3695(4) 0.06702(19)
C8 C 0.50292(19) 0.4986(4) 0.09897(19)
C9 C 0.6297(2) 0.5166(5) 0.0957(2)
H3 H 0.6693 0.5820 0.1149
H4 H 0.6171 0.5165 0.0455
H5 H 0.6438 0.4211 0.1132
C10 C 0.62688(19) 0.7862(4) 0.1696(2)
C11 C 0.6778(2) 0.7691(5) 0.2337(2)
H6 H 0.6719 0.6976 0.2639
C12 C 0.7372(2) 0.8568(6) 0.2536(2)
H7 H 0.7717 0.8442 0.2972
C13 C 0.7461(2) 0.9610(5) 0.2105(3)
H8 H 0.7870 1.0197 0.2242
C14 C 0.6954(3) 0.9803(5) 0.1473(3)
H9 H 0.7013 1.0532 0.1177
C15 C 0.6361(2) 0.8939(5) 0.1268(2)
H10 H 0.6015 0.9081 0.0833
C16 C 0.4728(2) 0.8372(4) 0.1820(2)
H11 H 0.5151 0.8979 0.2040
C17 C 0.4409(2) 0.7961(5) 0.2372(2)
H12 H 0.4658 0.7284 0.2701
C18 C 0.3811(2) 0.8474(5) 0.2431(2)
H13 H 0.3648 0.8132 0.2790
C19 C 0.3376(2) 0.9582(5) 0.1949(3)
H14 H 0.3197 1.0279 0.2214
H15 H 0.2962 0.9126 0.1613
C20 C 0.3814(3) 1.0338(5) 0.1568(3)
H16 H 0.4162 1.0968 0.1889
H17 H 0.3500 1.0928 0.1198
C21 C 0.4206(2) 0.9265(5) 0.1259(2)
H18 H 0.4468 0.9773 0.0993
H19 H 0.3857 0.8634 0.0940
Br3 Br 0.74858(2) 0.83065(5) 0.46360(2)
Br4 Br 1.00117(2) 0.66369(5) 0.41715(3)
N2 N 0.99730(17) 1.0165(4) 0.37481(18)
C22 C 0.9772(2) 1.1555(4) 0.3587(2)
C23 C 0.9137(2) 1.1833(4) 0.3696(2)
C24 C 0.8927(2) 1.0538(4) 0.3948(2)
C25 C 0.8336(2) 1.0199(4) 0.4152(2)
H20 H 0.7985 1.0885 0.4146
C26 C 0.8284(2) 0.8833(4) 0.4361(2)
C27 C 0.8779(2) 0.7787(4) 0.4362(2)
H21 H 0.8715 0.6847 0.4495
C28 C 0.9367(2) 0.8139(4) 0.4167(2)
C29 C 0.9458(2) 0.9510(4) 0.3966(2)
C30 C 1.0661(2) 0.9591(5) 0.3753(2)
H22 H 1.0689 0.8589 0.3881
H23 H 1.1043 1.0112 0.4086
H24 H 1.0711 0.9687 0.3295
C31 C 1.0209(2) 1.2581(5) 0.3349(2)
C32 C 1.0111(3) 1.2775(7) 0.2657(3)
H25 H 0.9789 1.2189 0.2327
C33 C 1.0483(3) 1.3825(8) 0.2445(3)
H26 H 1.0412 1.3952 0.1969
C34 C 1.0949(3) 1.4677(6) 0.2907(3)
H27 H 1.1196 1.5399 0.2753
C35 C 1.1059(2) 1.4487(5) 0.3588(3)
H28 H 1.1388 1.5071 0.3914
C36 C 1.0690(2) 1.3438(5) 0.3810(2)
H29 H 1.0772 1.3311 0.4288
C37 C 0.8743(2) 1.3214(4) 0.3578(2)
H30 H 0.9047 1.3919 0.3438
C38 C 0.8634(2) 1.3758(4) 0.4226(2)
H31 H 0.9018 1.3681 0.4640
C39 C 0.8038(2) 1.4337(4) 0.4255(2)
H32 H 0.8013 1.4627 0.4690
C40 C 0.7398(2) 1.4556(5) 0.3637(2)
H33 H 0.7197 1.5506 0.3660
H34 H 0.7032 1.3846 0.3637
C41 C 0.7586(2) 1.4427(5) 0.2973(2)
H35 H 0.7146 1.4363 0.2579
H36 H 0.7848 1.5280 0.2912
C42 C 0.8040(2) 1.3120(5) 0.2990(2)
H37 H 0.8137 1.3031 0.2548
H38 H 0.7777 1.2267 0.3052
Br5 Br 0.74579(3) 0.23487(5) 0.53931(2)
Br6 Br 0.47697(3) 0.38217(5) 0.55066(3)
N3 N 0.49228(18) 0.0488(4) 0.61875(18)
C43 C 0.5163(2) -0.0834(4) 0.6456(2)
C44 C 0.5836(2) -0.1067(4) 0.6438(2)
C45 C 0.6035(2) 0.0182(4) 0.6142(2)
C46 C 0.6646(2) 0.0547(4) 0.5978(2)
H39 H 0.7042 -0.0073 0.6081
C47 C 0.6657(2) 0.1822(5) 0.5665(2)
C48 C 0.6096(2) 0.2771(4) 0.5519(2)
H40 H 0.6125 0.3648 0.5304
C49 C 0.5489(2) 0.2433(5) 0.56878(19)
C50 C 0.5448(2) 0.1129(4) 0.5992(2)
C51 C 0.4198(2) 0.1003(5) 0.6078(3)
H41 H 0.3940 0.0326 0.6272
H42 H 0.3954 0.1105 0.5585
H43 H 0.4216 0.1922 0.6303
C52 C 0.4711(2) -0.1791(4) 0.6717(2)
C53 C 0.4618(3) -0.1553(6) 0.7351(2)
H44 H 0.4831 -0.0751 0.7614
C54 C 0.4217(2) -0.2475(6) 0.7603(2)
H45 H 0.4162 -0.2305 0.8040
C55 C 0.3897(2) -0.3636(5) 0.7226(2)
H46 H 0.3626 -0.4272 0.7401
C56 C 0.3976(3) -0.3863(5) 0.6589(3)
H47 H 0.3749 -0.4646 0.6320
C57 C 0.4387(2) -0.2950(5) 0.6341(2)
H48 H 0.4446 -0.3127 0.5907
C58 C 0.6255(6) -0.236(2) 0.6632(8)
H49 H 0.5981 -0.3043 0.6819
C59 C 0.6917(6) -0.1932(17) 0.7210(7)
H50 H 0.6864 -0.1419 0.7589
C60 C 0.7574(5) -0.2259(12) 0.7202(6)
H51 H 0.7965 -0.1897 0.7560
C61 C 0.7725(5) -0.3151(11) 0.6671(7)
H52 H 0.8127 -0.3790 0.6891
H53 H 0.7865 -0.2539 0.6344
C62 C 0.7077(4) -0.4027(9) 0.6282(5)
H54 H 0.7165 -0.4503 0.5887
H55 H 0.6989 -0.4763 0.6588
C63 C 0.6432(5) -0.3067(9) 0.6029(4)
H56 H 0.6020 -0.3629 0.5756
H57 H 0.6525 -0.2329 0.5727
Br7 Br -0.25093(2) 1.26321(5) 0.03098(3)
Br8 Br 0.02647(2) 1.41989(5) 0.05084(2)
N4 N 0.05632(17) 1.0822(4) 0.11840(17)
C70 C 0.0478(2) 0.9452(4) 0.1396(2)
C71 C -0.0216(2) 0.9187(4) 0.1323(2)
C72 C -0.0604(2) 1.0442(4) 0.1043(2)
C73 C -0.1325(2) 1.0775(4) 0.0857(2)
H67 H -0.1663 1.0108 0.0906
C74 C -0.1527(2) 1.2117(5) 0.0597(2)
C75 C -0.1050(2) 1.3110(5) 0.0506(2)
H68 H -0.1213 1.4016 0.0325
C76 C -0.0341(2) 1.2781(4) 0.0678(2)
C77 C -0.0102(2) 1.1446(4) 0.0954(2)
C78 C 0.1227(2) 1.1371(5) 0.1124(2)
H69 H 0.1611 1.0702 0.1333
H70 H 0.1335 1.2283 0.1360
H71 H 0.1182 1.1496 0.0638
C79 C 0.1097(2) 0.8486(5) 0.1664(2)
C80 C 0.1538(2) 0.8599(6) 0.2337(2)
H72 H 0.1446 0.9305 0.2627
C81 C 0.2108(2) 0.7702(7) 0.2589(3)
H73 H 0.2407 0.7792 0.3050
C82 C 0.2239(2) 0.6677(6) 0.2171(3)
H74 H 0.2629 0.6053 0.2344
C83 C 0.1808(3) 0.6551(6) 0.1508(3)
H75 H 0.1903 0.5841 0.1221
C84 C 0.1235(2) 0.7452(5) 0.1249(3)
H76 H 0.0937 0.7357 0.0788
C85 C -0.0504(2) 0.7799(5) 0.1493(2)
H77 H -0.0110 0.7093 0.1596
C86 C -0.1098(2) 0.7243(5) 0.0892(2)
H78 H -0.1076 0.7412 0.0443
C87 C -0.1649(2) 0.6532(5) 0.0955(2)
H79 H -0.2002 0.6230 0.0548
C88 C -0.1750(2) 0.6177(5) 0.1626(2)
H80 H -0.1866 0.5160 0.1631
H81 H -0.2155 0.6724 0.1676
C89 C -0.1095(3) 0.6496(7) 0.2229(3)
H82 H -0.0748 0.5720 0.2283
H83 H -0.1227 0.6552 0.2654
C90 C -0.0756(3) 0.7889(6) 0.2122(2)
H84 H -0.0348 0.8104 0.2533
H85 H -0.1105 0.8665 0.2060
C64? C 0.6286(6) -0.242(3) 0.6747(8)
H58? H 0.6053 -0.2850 0.7066
C65? C 0.7052(6) -0.2166(19) 0.7173(8)
H59? H 0.7146 -0.1633 0.7584
C66? C 0.7606(6) -0.2661(13) 0.6995(6)
H60? H 0.8068 -0.2512 0.7305
C67? C 0.7538(5) -0.3429(13) 0.6344(6)
H61? H 0.7664 -0.4435 0.6449
H62? H 0.7878 -0.3024 0.6130
C68? C 0.6791(4) -0.3335(11) 0.5839(5)
H63? H 0.6724 -0.2397 0.5613
H64? H 0.6731 -0.4064 0.5479
C69? C 0.6237(5) -0.3543(11) 0.6188(5)
H65? H 0.6295 -0.4494 0.6400
H66? H 0.5762 -0.3499 0.5841
loop_
_geom_bond_atom_site_label_1
_geom_bond_atom_site_label_2
_geom_bond_site_symmetry_1
_geom_bond_site_symmetry_2
Br1 C5 1_555 1_555
Br2 C7 1_555 1_555
N1 C1 1_555 1_555
C1 C2 1_555 1_555
C2 C3 1_555 1_555
C3 C4 1_555 1_555
C4 H1 1_555 1_555
C5 C4 1_555 1_555
C6 C5 1_555 1_555
H2 C6 1_555 1_555
C7 C6 1_555 1_555
C8 N1 1_555 1_555
C9 N1 1_555 1_555
H3 C9 1_555 1_555
H4 C9 1_555 1_555
H5 C9 1_555 1_555
C10 C1 1_555 1_555
C11 C10 1_555 1_555
H6 C11 1_555 1_555
C12 C11 1_555 1_555
H7 C12 1_555 1_555
C13 C12 1_555 1_555
H8 C13 1_555 1_555
C14 C13 1_555 1_555
H9 C14 1_555 1_555
C15 C10 1_555 1_555
H10 C15 1_555 1_555
C16 C2 1_555 1_555
H11 C16 1_555 1_555
C17 C16 1_555 1_555
H12 C17 1_555 1_555
C18 C17 1_555 1_555
H13 C18 1_555 1_555
C19 C18 1_555 1_555
H14 C19 1_555 1_555
H15 C19 1_555 1_555
C20 C19 1_555 1_555
H16 C20 1_555 1_555
H17 C20 1_555 1_555
C21 C16 1_555 1_555
H18 C21 1_555 1_555
H19 C21 1_555 1_555
Br3 C26 1_555 1_555
Br4 C28 1_555 1_555
N2 C22 1_555 1_555
C22 C23 1_555 1_555
C23 C24 1_555 1_555
C24 C25 1_555 1_555
C25 H20 1_555 1_555
C26 C25 1_555 1_555
C27 C26 1_555 1_555
H21 C27 1_555 1_555
C28 C27 1_555 1_555
C29 N2 1_555 1_555
C30 N2 1_555 1_555
H22 C30 1_555 1_555
H23 C30 1_555 1_555
H24 C30 1_555 1_555
C31 C22 1_555 1_555
C32 C31 1_555 1_555
H25 C32 1_555 1_555
C33 C32 1_555 1_555
H26 C33 1_555 1_555
C34 C33 1_555 1_555
H27 C34 1_555 1_555
C35 C34 1_555 1_555
H28 C35 1_555 1_555
C36 C31 1_555 1_555
H29 C36 1_555 1_555
C37 C23 1_555 1_555
H30 C37 1_555 1_555
C38 C37 1_555 1_555
H31 C38 1_555 1_555
C39 C38 1_555 1_555
H32 C39 1_555 1_555
C40 C39 1_555 1_555
H33 C40 1_555 1_555
H34 C40 1_555 1_555
C41 C40 1_555 1_555
H35 C41 1_555 1_555
H36 C41 1_555 1_555
C42 C37 1_555 1_555
H37 C42 1_555 1_555
H38 C42 1_555 1_555
Br5 C47 1_555 1_555
Br6 C49 1_555 1_555
N3 C43 1_555 1_555
C43 C44 1_555 1_555
C44 C45 1_555 1_555
C45 C46 1_555 1_555
C46 H39 1_555 1_555
C47 C46 1_555 1_555
C48 C47 1_555 1_555
H40 C48 1_555 1_555
C49 C48 1_555 1_555
C50 N3 1_555 1_555
C51 N3 1_555 1_555
H41 C51 1_555 1_555
H42 C51 1_555 1_555
H43 C51 1_555 1_555
C52 C43 1_555 1_555
C53 C52 1_555 1_555
H44 C53 1_555 1_555
C54 C53 1_555 1_555
H45 C54 1_555 1_555
C55 C54 1_555 1_555
H46 C55 1_555 1_555
C56 C55 1_555 1_555
H47 C56 1_555 1_555
C57 C52 1_555 1_555
H48 C57 1_555 1_555
C58 C44 1_555 1_555
H49 C58 1_555 1_555
C59 C58 1_555 1_555
H50 C59 1_555 1_555
C60 C59 1_555 1_555
H51 C60 1_555 1_555
C61 C60 1_555 1_555
H52 C61 1_555 1_555
H53 C61 1_555 1_555
C62 C61 1_555 1_555
H54 C62 1_555 1_555
H55 C62 1_555 1_555
C63 C58 1_555 1_555
H56 C63 1_555 1_555
H57 C63 1_555 1_555
Br7 C74 1_555 1_555
Br8 C76 1_555 1_555
N4 C70 1_555 1_555
C70 C71 1_555 1_555
C71 C72 1_555 1_555
C72 C73 1_555 1_555
C73 H67 1_555 1_555
C74 C73 1_555 1_555
C75 C74 1_555 1_555
H68 C75 1_555 1_555
C76 C75 1_555 1_555
C77 N4 1_555 1_555
C78 N4 1_555 1_555
H69 C78 1_555 1_555
H70 C78 1_555 1_555
H71 C78 1_555 1_555
C79 C70 1_555 1_555
C80 C79 1_555 1_555
H72 C80 1_555 1_555
C81 C80 1_555 1_555
H73 C81 1_555 1_555
C82 C81 1_555 1_555
H74 C82 1_555 1_555
C83 C82 1_555 1_555
H75 C83 1_555 1_555
C84 C79 1_555 1_555
H76 C84 1_555 1_555
C85 C71 1_555 1_555
H77 C85 1_555 1_555
C86 C85 1_555 1_555
H78 C86 1_555 1_555
C87 C86 1_555 1_555
H79 C87 1_555 1_555
C88 C87 1_555 1_555
H80 C88 1_555 1_555
H81 C88 1_555 1_555
C89 C88 1_555 1_555
H82 C89 1_555 1_555
H83 C89 1_555 1_555
C90 C85 1_555 1_555
H84 C90 1_555 1_555
H85 C90 1_555 1_555
C3 C8 1_555 1_555
C7 C8 1_555 1_555
C14 C15 1_555 1_555
C20 C21 1_555 1_555
C24 C29 1_555 1_555
C28 C29 1_555 1_555
C35 C36 1_555 1_555
C41 C42 1_555 1_555
C45 C50 1_555 1_555
C49 C50 1_555 1_555
C56 C57 1_555 1_555
C62 C63 1_555 1_555
C72 C77 1_555 1_555
C76 C77 1_555 1_555
C83 C84 1_555 1_555
C89 C90 1_555 1_555

#END
