
#######################################################################
#
#                 Cambridge Crystallographic Data Centre
#                                CCDC 
#
#######################################################################
#
# If this CIF has been generated from an entry in the Cambridge 
# Structural Database, then it will include bibliographic, chemical, 
# crystal, experimental, refinement or atomic coordinate data resulting 
# from the CCDC's data processing and validation procedures.
#
#######################################################################

data_GAZXUD
_chemical_formula_moiety         'C22 H25 N1'
_chemical_name_systematic        
3-(cyclohex-2-en-1-yl)-1-methyl-2-(3-methylphenyl)-2,3-dihydro-1H-indole
_symmetry_cell_setting           orthorhombic
_symmetry_space_group_name_H-M   'P 21 21 21'
_symmetry_Int_Tables_number      19
_space_group_name_Hall           'P 2ac 2ab'
loop_
_symmetry_equiv_pos_site_id
_symmetry_equiv_pos_as_xyz
1 x,y,z
2 1/2-x,-y,1/2+z
3 -x,1/2+y,1/2-z
4 1/2+x,1/2-y,-z
_cell_length_a                   6.9750(3)
_cell_length_b                   7.2913(2)
_cell_length_c                   33.7958(8)
_cell_angle_alpha                90
_cell_angle_beta                 90
_cell_angle_gamma                90
_cell_volume                     1718.75
_exptl_crystal_colour            prisms
_cell_formula_units_Z            4
loop_
_atom_site_label
_atom_site_type_symbol
_atom_site_fract_x
_atom_site_fract_y
_atom_site_fract_z
C1 C 0.5318(2) 0.9360(2) 0.36658(4)
C2 C 0.4360(3) 1.1037(2) 0.36467(5)
H1 H 0.480485 1.199327 0.347937
C3 C 0.2728(3) 1.1269(3) 0.38803(5)
H2 H 0.205435 1.240061 0.387108
C4 C 0.2071(3) 0.9884(3) 0.41252(6)
H3 H 0.095321 1.006848 0.428070
C5 C 0.3053(2) 0.8210(2) 0.41442(5)
H4 H 0.260742 0.725441 0.431178
C6 C 0.4679(2) 0.7966(2) 0.39161(4)
C7 C 0.6035(2) 0.6349(2) 0.38889(5)
H5 H 0.539331 0.533635 0.373941
C8 C 0.7715(2) 0.7135(2) 0.36330(4)
H6 H 0.879579 0.748546 0.381205
C9 C 0.8476(2) 0.5878(2) 0.33117(5)
C10 C 1.0384(3) 0.5312(2) 0.33102(5)
H7 H 1.122550 0.569301 0.351542
C11 C 1.1059(3) 0.4183(2) 0.30063(5)
H8 H 1.235399 0.377867 0.300782
C12 C 0.9851(3) 0.3655(2) 0.27044(5)
H9 H 1.032520 0.288821 0.249934
C13 C 0.7950(3) 0.4227(2) 0.26950(5)
C14 C 0.7286(2) 0.5331(2) 0.30041(5)
H10 H 0.598520 0.571795 0.300369
C15 C 0.6627(3) 0.3678(3) 0.23634(6)
H11 H 0.696967 0.435423 0.212307
H12 H 0.530082 0.396362 0.243692
H13 H 0.674833 0.235797 0.231453
C16 C 0.6647(2) 0.5627(2) 0.42992(4)
H14 H 0.544545 0.534858 0.444892
C17 C 0.7716(2) 0.7073(2) 0.45321(4)
H15 H 0.733874 0.831614 0.450063
C18 C 0.9147(2) 0.6708(2) 0.47773(5)
H16 H 0.975679 0.770612 0.490686
C19 C 0.9861(3) 0.4802(2) 0.48620(5)
H17 H 0.999594 0.463827 0.515150
H18 H 1.114210 0.463884 0.474088
C20 C 0.8495(3) 0.3347(2) 0.46995(5)
H19 H 0.737324 0.323201 0.487730
H20 H 0.915614 0.214562 0.469166
C21 C 0.7814(2) 0.3852(2) 0.42833(5)
H21 H 0.701406 0.284979 0.417480
H22 H 0.893467 0.401817 0.410708
C22 C 0.8220(3) 1.0160(2) 0.32925(5)
H23 H 0.869271 1.094846 0.350602
H24 H 0.755076 1.090920 0.309539
H25 H 0.930386 0.953258 0.316689
N1 N 0.6910(2) 0.88124(18) 0.34537(4)
loop_
_geom_bond_atom_site_label_1
_geom_bond_atom_site_label_2
_geom_bond_site_symmetry_1
_geom_bond_site_symmetry_2
C1 C2 1_555 1_555
C2 H1 1_555 1_555
C3 C2 1_555 1_555
H2 C3 1_555 1_555
C4 C3 1_555 1_555
H3 C4 1_555 1_555
C5 C4 1_555 1_555
H4 C5 1_555 1_555
C6 C1 1_555 1_555
C7 C6 1_555 1_555
H5 C7 1_555 1_555
C8 C7 1_555 1_555
H6 C8 1_555 1_555
C9 C8 1_555 1_555
C10 C9 1_555 1_555
H7 C10 1_555 1_555
C11 C10 1_555 1_555
H8 C11 1_555 1_555
C12 C11 1_555 1_555
H9 C12 1_555 1_555
C13 C12 1_555 1_555
C14 C9 1_555 1_555
H10 C14 1_555 1_555
C15 C13 1_555 1_555
H11 C15 1_555 1_555
H12 C15 1_555 1_555
H13 C15 1_555 1_555
C16 C7 1_555 1_555
H14 C16 1_555 1_555
C17 C16 1_555 1_555
H15 C17 1_555 1_555
C18 C17 1_555 1_555
H16 C18 1_555 1_555
C19 C18 1_555 1_555
H17 C19 1_555 1_555
H18 C19 1_555 1_555
C20 C19 1_555 1_555
H19 C20 1_555 1_555
H20 C20 1_555 1_555
C21 C16 1_555 1_555
H21 C21 1_555 1_555
H22 C21 1_555 1_555
C22 H23 1_555 1_555
H24 C22 1_555 1_555
H25 C22 1_555 1_555
N1 C1 1_555 1_555
C5 C6 1_555 1_555
C8 N1 1_555 1_555
C13 C14 1_555 1_555
C20 C21 1_555 1_555
C22 N1 1_555 1_555

#END
