
#######################################################################
#
#                 Cambridge Crystallographic Data Centre
#                                CCDC 
#
#######################################################################
#
# If this CIF has been generated from an entry in the Cambridge 
# Structural Database, then it will include bibliographic, chemical, 
# crystal, experimental, refinement or atomic coordinate data resulting 
# from the CCDC's data processing and validation procedures.
#
#######################################################################

data_GAZYAK
_chemical_formula_moiety         'C23 H18 Br1 N1 O1'
_chemical_name_systematic        
(4-bromophenyl)(1-methyl-2-phenyl-1H-indol-3-yl)acetaldehyde
_symmetry_cell_setting           monoclinic
_symmetry_space_group_name_H-M   'P 21'
_symmetry_Int_Tables_number      4
_space_group_name_Hall           'P 2yb'
loop_
_symmetry_equiv_pos_site_id
_symmetry_equiv_pos_as_xyz
1 x,y,z
2 -x,1/2+y,-z
_cell_length_a                   6.3437(4)
_cell_length_b                   16.5128(14)
_cell_length_c                   9.2201(7)
_cell_angle_alpha                90
_cell_angle_beta                 109.431(4)
_cell_angle_gamma                90
_cell_volume                     910.815
_exptl_crystal_colour            colorless
_exptl_crystal_description       prism
_cell_formula_units_Z            2
loop_
_atom_site_label
_atom_site_type_symbol
_atom_site_fract_x
_atom_site_fract_y
_atom_site_fract_z
C1 C 0.6808(3) 0.53428(13) 0.5727(2)
C2 C 0.7216(4) 0.55348(14) 0.4385(3)
C3 C 0.8977(4) 0.61230(14) 0.4783(3)
C4 C 1.0222(4) 0.65048(15) 0.3959(3)
H1 H 0.987937 0.641264 0.288795
C5 C 1.1957(4) 0.70182(15) 0.4752(3)
H2 H 1.282378 0.727150 0.421583
C6 C 1.2457(4) 0.71706(14) 0.6326(3)
H3 H 1.364269 0.753075 0.682983
C7 C 1.1264(4) 0.68087(14) 0.7164(3)
H4 H 1.160088 0.691534 0.822986
C8 C 0.9537(4) 0.62780(14) 0.6375(3)
C9 C 0.8444(4) 0.57293(17) 0.8560(3)
H5 H 1.003005 0.576427 0.918275
H6 H 0.784300 0.520727 0.874397
H7 H 0.762236 0.616936 0.884573
C10 C 0.5201(3) 0.47478(14) 0.5936(3)
C11 C 0.5142(4) 0.39682(15) 0.5331(3)
H8 H 0.618100 0.381990 0.483567
C12 C 0.3562(4) 0.34072(15) 0.5452(3)
H9 H 0.350957 0.288119 0.502379
C13 C 0.2062(4) 0.36190(15) 0.6199(3)
H10 H 0.099016 0.323699 0.628475
C14 C 0.2134(4) 0.43847(15) 0.6816(3)
H11 H 0.111819 0.452514 0.733403
C15 C 0.3681(4) 0.49524(15) 0.6685(3)
H12 H 0.370751 0.547945 0.710354
C16 C 0.5864(4) 0.52546(15) 0.2797(3)
H13 H 0.452528 0.497338 0.290064
C17 C 0.4983(4) 0.60104(16) 0.1832(3)
H14 H 0.426035 0.640264 0.225647
C18 C 0.6951(4) 0.46554(14) 0.2010(3)
C19 C 0.9249(4) 0.45010(14) 0.2543(3)
H15 H 1.018017 0.476914 0.343818
C20 C 1.0187(4) 0.39590(15) 0.1775(3)
H16 H 1.174982 0.385776 0.213707
C21 C 0.8803(4) 0.35685(14) 0.0472(3)
C22 C 0.6529(4) 0.36986(15) -0.0065(3)
H17 H 0.560232 0.341993 -0.094890
C23 C 0.5618(4) 0.42424(16) 0.0704(3)
H18 H 0.405147 0.433712 0.033502
Br1 Br 1.01094(4) 0.28412(2) -0.05930(2)
N1 N 0.8203(3) 0.57995(11) 0.6936(2)
O1 O 0.5113(4) 0.61568(17) 0.0601(2)
loop_
_geom_bond_atom_site_label_1
_geom_bond_atom_site_label_2
_geom_bond_site_symmetry_1
_geom_bond_site_symmetry_2
C1 C2 1_555 1_555
C2 C3 1_555 1_555
C3 C4 1_555 1_555
C4 H1 1_555 1_555
C5 C4 1_555 1_555
H2 C5 1_555 1_555
C6 C5 1_555 1_555
H3 C6 1_555 1_555
C7 C6 1_555 1_555
H4 C7 1_555 1_555
C8 C3 1_555 1_555
C9 H5 1_555 1_555
H6 C9 1_555 1_555
H7 C9 1_555 1_555
C10 C1 1_555 1_555
C11 C10 1_555 1_555
H8 C11 1_555 1_555
C12 C11 1_555 1_555
H9 C12 1_555 1_555
C13 C12 1_555 1_555
H10 C13 1_555 1_555
C14 C13 1_555 1_555
H11 C14 1_555 1_555
C15 C10 1_555 1_555
H12 C15 1_555 1_555
C16 C2 1_555 1_555
H13 C16 1_555 1_555
C17 C16 1_555 1_555
H14 C17 1_555 1_555
C18 C16 1_555 1_555
C19 C18 1_555 1_555
H15 C19 1_555 1_555
C20 C19 1_555 1_555
H16 C20 1_555 1_555
C21 C20 1_555 1_555
C22 C21 1_555 1_555
H17 C22 1_555 1_555
C23 C18 1_555 1_555
H18 C23 1_555 1_555
Br1 C21 1_555 1_555
N1 C1 1_555 1_555
O1 C17 1_555 1_555
C7 C8 1_555 1_555
C8 N1 1_555 1_555
C9 N1 1_555 1_555
C14 C15 1_555 1_555
C22 C23 1_555 1_555

#END
