
#######################################################################
#
#                 Cambridge Crystallographic Data Centre
#                                CCDC 
#
#######################################################################
#
# If this CIF has been generated from an entry in the Cambridge 
# Structural Database, then it will include bibliographic, chemical, 
# crystal, experimental, refinement or atomic coordinate data resulting 
# from the CCDC's data processing and validation procedures.
#
#######################################################################

data_GBOPSA10
_chemical_formula_moiety         'C4 H11 N3 O4 S1'
_chemical_name_systematic        '\g-Guanidino-\b-hydroxypropane sulfonic acid'
_symmetry_cell_setting           monoclinic
_symmetry_space_group_name_H-M   'P 21/c'
_symmetry_Int_Tables_number      14
_space_group_name_Hall           '-P 2ybc'
loop_
_symmetry_equiv_pos_site_id
_symmetry_equiv_pos_as_xyz
1 x,y,z
2 -x,1/2+y,1/2-z
3 -x,-y,-z
4 x,1/2-y,1/2+z
_cell_length_a                   7.44(2)
_cell_length_b                   9.89(2)
_cell_length_c                   11.11(3)
_cell_angle_alpha                90
_cell_angle_beta                 97.75(5)
_cell_angle_gamma                90
_cell_volume                     810.025
_cell_formula_units_Z            4
loop_
_atom_site_label
_atom_site_type_symbol
_atom_site_fract_x
_atom_site_fract_y
_atom_site_fract_z
C1 C -0.00860 0.14610 0.35910
C2 C -0.04030 0.26790 0.44080
C3 C -0.23600 0.27720 0.45610
C4 C -0.39310 0.39340 0.60900
H1 H -0.06290 0.42110 0.32790
H2 H -0.59160 0.29820 0.68550
H3 H -0.52360 0.23830 0.54550
H4 H -0.10140 0.05560 0.38870
H5 H -0.04040 0.16350 0.26050
H6 H 0.01780 0.23990 0.53680
H7 H -0.26720 0.17000 0.50790
H8 H -0.30620 0.29600 0.36450
H9 H -0.14990 0.46790 0.54250
H10 H -0.48430 0.52270 0.72970
H11 H -0.30470 0.56350 0.69170
N1 N -0.26380 0.38880 0.53700
N2 N -0.39400 0.50150 0.68360
N3 N -0.51310 0.29870 0.61210
O1 O 0.22400 -0.02690 0.29720
O2 O 0.32240 0.20620 0.32710
O3 O 0.27920 0.06710 0.49960
O4 O 0.01810 0.38730 0.39450
S1 S 0.22160 0.09500 0.37180
loop_
_geom_bond_atom_site_label_1
_geom_bond_atom_site_label_2
_geom_bond_site_symmetry_1
_geom_bond_site_symmetry_2
C1 C2 1_555 1_555
C2 C3 1_555 1_555
C3 H7 1_555 1_555
C4 N1 1_555 1_555
H1 O4 1_555 1_555
H2 N3 1_555 1_555
H3 N3 1_555 1_555
H4 C1 1_555 1_555
H5 C1 1_555 1_555
H6 C2 1_555 1_555
H8 C3 1_555 1_555
H9 N1 1_555 1_555
H10 N2 1_555 1_555
H11 N2 1_555 1_555
N1 C3 1_555 1_555
N2 C4 1_555 1_555
N3 C4 1_555 1_555
O1 S1 1_555 1_555
O2 S1 1_555 1_555
O3 S1 1_555 1_555
O4 C2 1_555 1_555
S1 C1 1_555 1_555

#END
