
#######################################################################
#
#                 Cambridge Crystallographic Data Centre
#                                CCDC 
#
#######################################################################
#
# If this CIF has been generated from an entry in the Cambridge 
# Structural Database, then it will include bibliographic, chemical, 
# crystal, experimental, refinement or atomic coordinate data resulting 
# from the CCDC's data processing and validation procedures.
#
#######################################################################

data_GEBFUR
_chemical_formula_moiety         'C31 H38 O11'
_chemical_name_systematic        
"12-(hydroxymethyl)-3,4',4a,12-tetramethyl-4,5',9-trioxo-3,4,4a,5,6,10,10a,12,12a,13,14,15b-dodecahydro-2aH,7H,9H-spiro[6a,15a-epoxy-1,8,11-trioxacyclopenta[c]pentaleno[1',6':4,5,6]cycloocta[1,2-f]azulene-2,2'-oxolan]-15-yl acetate unknown solvate"
_symmetry_cell_setting           triclinic
_symmetry_space_group_name_H-M   'P -1'
_symmetry_Int_Tables_number      2
_space_group_name_Hall           '-P 1'
loop_
_symmetry_equiv_pos_site_id
_symmetry_equiv_pos_as_xyz
1 x,y,z
2 -x,-y,-z
_cell_length_a                   13.8165(11)
_cell_length_b                   16.1678(12)
_cell_length_c                   17.3578(17)
_cell_angle_alpha                80.090(7)
_cell_angle_beta                 81.320(7)
_cell_angle_gamma                77.271(7)
_cell_volume                     3699.85
_cell_formula_units_Z            4
loop_
_atom_site_label
_atom_site_type_symbol
_atom_site_fract_x
_atom_site_fract_y
_atom_site_fract_z
C1 C 0.9234(3) 0.1576(3) 0.0118(2)
C2 C 1.0536(3) 0.1939(3) 0.0596(3)
H1 H 1.0879 0.2251 0.0122
C3 C 1.1187(3) 0.1635(3) 0.1263(2)
H2 H 1.1532 0.1030 0.1258
H3 H 1.1692 0.1995 0.1226
C4 C 1.0446(3) 0.1735(3) 0.1993(3)
C5 C 0.9582(3) 0.2513(3) 0.0963(2)
C6 C 0.9656(3) 0.3446(3) 0.0781(2)
H4 H 0.9713 0.3610 0.0202
H5 H 1.0285 0.3503 0.0956
C7 C 0.8796(3) 0.4097(3) 0.1148(2)
C8 C 0.8652(4) 0.4955(3) 0.0599(3)
H6 H 0.9308 0.5127 0.0457
H7 H 0.8432 0.4866 0.0107
C9 C 0.7907(4) 0.5691(3) 0.0927(3)
H8 H 0.7239 0.5538 0.1016
H9 H 0.7876 0.6200 0.0516
C10 C 0.8097(5) 0.5952(3) 0.1690(3)
C11 C 0.9145(5) 0.6030(3) 0.1720(3)
C12 C 0.9421(4) 0.5788(4) 0.2536(3)
H10 H 0.9978 0.5274 0.2552
C13 C 0.8479(4) 0.5538(3) 0.3042(3)
H11 H 0.8103 0.6020 0.3328
C14 C 0.8627(3) 0.4715(3) 0.3599(3)
C15 C 0.9569(3) 0.4438(4) 0.4017(3)
H12 H 0.9838 0.4940 0.4073
H13 H 1.0091 0.4045 0.3725
C16 C 0.9212(4) 0.3981(4) 0.4822(3)
H14 H 0.9565 0.4101 0.5241
C17 C 0.8123(4) 0.4363(3) 0.4947(3)
C18 C 0.7859(4) 0.5370(3) 0.2467(3)
H15 H 0.7130 0.5495 0.2662
C19 C 0.8243(3) 0.4412(3) 0.2426(2)
C20 C 0.7538(3) 0.3980(3) 0.2150(2)
C21 C 0.7816(3) 0.3802(3) 0.1430(2)
C22 C 0.7263(3) 0.3484(3) 0.0908(3)
H16 H 0.6838 0.3982 0.0623
H17 H 0.6816 0.3128 0.1239
C23 C 0.7929(3) 0.2958(3) 0.0306(3)
H18 H 0.8268 0.3344 -0.0098
H19 H 0.7506 0.2703 0.0040
C24 C 0.8725(3) 0.2236(3) 0.0679(2)
H20 H 0.8375 0.1921 0.1147
C25 C 0.9408(4) 0.1939(3) -0.0748(2)
H21 H 0.9637 0.2479 -0.0798
H22 H 0.8782 0.2041 -0.0982
H23 H 0.9916 0.1529 -0.1022
C26 C 0.8712(4) 0.0838(3) 0.0214(2)
H24 H 0.8041 0.1053 0.0040
H25 H 0.9090 0.0424 -0.0135
C27 C 0.7453(5) 0.6853(3) 0.1770(3)
H26 H 0.7473 0.6992 0.2294
H27 H 0.6761 0.6860 0.1698
H28 H 0.7717 0.7278 0.1368
C28 C 0.9764(5) 0.6524(4) 0.2808(3)
H29 H 1.0291 0.6714 0.2418
H30 H 1.0024 0.6322 0.3317
H31 H 0.9197 0.7003 0.2862
C29 C 0.9338(4) 0.2998(4) 0.4838(4)
H32 H 0.8977 0.2755 0.5324
H33 H 1.0049 0.2730 0.4817
H34 H 0.9068 0.2890 0.4383
C30 C 0.5799(4) 0.4336(3) 0.2412(3)
C31 C 0.4932(3) 0.4088(4) 0.2945(3)
H35 H 0.4325 0.4513 0.2834
H36 H 0.5044 0.4064 0.3493
H37 H 0.4854 0.3524 0.2859
O1 O 1.0194(2) 0.1233(2) 0.04195(17)
O2 O 0.9579(2) 0.22248(19) 0.18102(15)
O3 O 1.0571(2) 0.1421(2) 0.26594(19)
O4 O 0.9096(2) 0.42582(18) 0.18686(15)
O5 O 0.8519(2) 0.40608(19) 0.31826(16)
O6 O 0.7798(2) 0.47746(19) 0.42433(16)
O7 O 0.7556(3) 0.4367(2) 0.55376(19)
O8 O 0.9720(3) 0.6245(3) 0.1164(2)
O9 O 0.6664(2) 0.3858(2) 0.26284(17)
O10 O 0.5741(2) 0.4878(3) 0.1844(2)
O11 O 0.8606(2) 0.0404(2) 0.09936(16)
H38 H 0.9127 0.0367 0.1202
C32 C 0.4918(3) 0.6596(3) 0.4422(2)
C33 C 0.5920(3) 0.6889(3) 0.5230(2)
H39 H 0.5437 0.7196 0.5627
C34 C 0.6947(3) 0.6563(3) 0.5507(2)
H40 H 0.7046 0.6894 0.5908
H41 H 0.7037 0.5949 0.5733
C35 C 0.7649(4) 0.6692(3) 0.4785(2)
C36 C 0.6103(3) 0.7479(3) 0.4462(2)
C37 C 0.5932(3) 0.8417(3) 0.4582(2)
H42 H 0.6326 0.8448 0.5004
H43 H 0.5218 0.8600 0.4778
C38 C 0.6195(3) 0.9073(3) 0.3865(2)
C39 C 0.7674(3) 0.9294(3) 0.3102(2)
C40 C 0.9358(3) 0.9370(3) 0.3067(2)
C41 C 1.0178(3) 0.8937(4) 0.3566(3)
H44 H 1.0033 0.9121 0.4094
H45 H 1.0260 0.8306 0.3628
C42 C 1.1076(3) 0.9214(4) 0.3132(3)
H46 H 1.1086 0.9780 0.3286
C43 C 1.0865(3) 0.9384(3) 0.2287(3)
C44 C 0.8724(3) 1.0246(3) 0.3215(2)
H47 H 0.9047 1.0719 0.2913
C45 C 0.8414(3) 1.0385(3) 0.4080(3)
H48 H 0.8504 0.9811 0.4416
C46 C 0.7302(3) 1.0768(3) 0.4121(3)
C47 C 0.6924(3) 1.0835(3) 0.3339(2)
C48 C 0.7741(3) 1.0242(3) 0.2889(2)
H49 H 0.7780 1.0432 0.2308
C49 C 0.5838(3) 1.0697(3) 0.3371(3)
H50 H 0.5372 1.1227 0.3501
H51 H 0.5737 1.0618 0.2837
C50 C 0.5550(3) 0.9945(3) 0.3952(2)
H52 H 0.5561 1.0062 0.4491
H53 H 0.4853 0.9922 0.3900
C51 C 0.7071(3) 0.8969(3) 0.2645(2)
C52 C 0.6224(3) 0.8807(3) 0.3064(2)
C53 C 0.5382(3) 0.8541(3) 0.2800(2)
H54 H 0.5645 0.8205 0.2361
H55 H 0.4911 0.9060 0.2595
C54 C 0.4805(3) 0.8001(3) 0.3452(2)
H56 H 0.4421 0.8375 0.3836
H57 H 0.4321 0.7783 0.3214
C55 C 0.5472(3) 0.7251(3) 0.3886(2)
H58 H 0.5945 0.6943 0.3484
C56 C 0.3868(3) 0.6979(3) 0.4803(3)
H59 H 0.3616 0.6539 0.5195
H60 H 0.3415 0.7177 0.4396
H61 H 0.3906 0.7463 0.5060
C57 C 0.4851(3) 0.5859(3) 0.4005(3)
H62 H 0.4533 0.5439 0.4385
H63 H 0.4418 0.6083 0.3580
C58 C 1.2108(4) 0.8640(4) 0.3245(3)
H64 H 1.2102 0.8057 0.3163
H65 H 1.2259 0.8632 0.3780
H66 H 1.2618 0.8867 0.2863
C59 C 0.8991(4) 1.0935(4) 0.4380(3)
H67 H 0.8966 1.1481 0.4027
H68 H 0.9688 1.0636 0.4396
H69 H 0.8693 1.1045 0.4911
C60 C 0.6928(4) 1.1774(3) 0.2923(3)
H70 H 0.7614 1.1873 0.2836
H71 H 0.6509 1.2179 0.3257
H72 H 0.6665 1.1859 0.2416
C61 C 0.6884(4) 0.9419(3) 0.1297(3)
C62 C 0.7328(4) 0.9192(3) 0.0502(2)
H73 H 0.7153 0.8656 0.0434
H74 H 0.8057 0.9120 0.0456
H75 H 0.7066 0.9651 0.0095
O12 O 0.5561(2) 0.62243(19) 0.50226(16)
O13 O 0.71696(19) 0.72004(18) 0.42023(15)
O14 O 0.8534(2) 0.6409(2) 0.46918(18)
O15 O 0.72203(18) 0.91328(18) 0.38889(15)
O16 O 0.8686(2) 0.88360(19) 0.30676(16)
O17 O 0.9885(2) 0.9472(2) 0.22648(15)
O18 O 1.1433(2) 0.9457(2) 0.1696(2)
O19 O 0.6798(2) 1.0979(2) 0.47181(19)
O20 O 0.7386(2) 0.88723(19) 0.18695(16)
O21 O 0.6197(3) 0.9979(3) 0.14569(19)
O22 O 0.5787(2) 0.5440(2) 0.36802(17)
H76 H 0.6166 0.5265 0.4035
loop_
_geom_bond_atom_site_label_1
_geom_bond_atom_site_label_2
_geom_bond_site_symmetry_1
_geom_bond_site_symmetry_2
C1 C24 1_555 1_555
C2 H1 1_555 1_555
C3 C2 1_555 1_555
H2 C3 1_555 1_555
H3 C3 1_555 1_555
C4 C3 1_555 1_555
C5 C2 1_555 1_555
C6 C5 1_555 1_555
H4 C6 1_555 1_555
H5 C6 1_555 1_555
C7 C6 1_555 1_555
C8 C7 1_555 1_555
H6 C8 1_555 1_555
H7 C8 1_555 1_555
C9 C8 1_555 1_555
H8 C9 1_555 1_555
H9 C9 1_555 1_555
C10 C9 1_555 1_555
C11 C10 1_555 1_555
C12 C11 1_555 1_555
H10 C12 1_555 1_555
C13 C12 1_555 1_555
H11 C13 1_555 1_555
C14 C13 1_555 1_555
C15 C14 1_555 1_555
H12 C15 1_555 1_555
H13 C15 1_555 1_555
C16 C15 1_555 1_555
H14 C16 1_555 1_555
C17 C16 1_555 1_555
C18 C10 1_555 1_555
H15 C18 1_555 1_555
C19 C18 1_555 1_555
C20 C19 1_555 1_555
C21 C7 1_555 1_555
C22 C21 1_555 1_555
H16 C22 1_555 1_555
H17 C22 1_555 1_555
C23 C22 1_555 1_555
H18 C23 1_555 1_555
H19 C23 1_555 1_555
C24 C5 1_555 1_555
H20 C24 1_555 1_555
C25 C1 1_555 1_555
H21 C25 1_555 1_555
H22 C25 1_555 1_555
H23 C25 1_555 1_555
C26 C1 1_555 1_555
H24 C26 1_555 1_555
H25 C26 1_555 1_555
C27 C10 1_555 1_555
H26 C27 1_555 1_555
H27 C27 1_555 1_555
H28 C27 1_555 1_555
C28 C12 1_555 1_555
H29 C28 1_555 1_555
H30 C28 1_555 1_555
H31 C28 1_555 1_555
C29 C16 1_555 1_555
H32 C29 1_555 1_555
H33 C29 1_555 1_555
H34 C29 1_555 1_555
C30 C31 1_555 1_555
C31 H35 1_555 1_555
H36 C31 1_555 1_555
H37 C31 1_555 1_555
O1 C1 1_555 1_555
O2 C4 1_555 1_555
O3 C4 1_555 1_555
O4 C7 1_555 1_555
O5 C14 1_555 1_555
O6 C14 1_555 1_555
O7 C17 1_555 1_555
O8 C11 1_555 1_555
O9 C20 1_555 1_555
O10 C30 1_555 1_555
O11 C26 1_555 1_555
H38 O11 1_555 1_555
C32 C55 1_555 1_555
C33 H39 1_555 1_555
C34 C33 1_555 1_555
H40 C34 1_555 1_555
H41 C34 1_555 1_555
C35 C34 1_555 1_555
C36 C33 1_555 1_555
C37 C36 1_555 1_555
H42 C37 1_555 1_555
H43 C37 1_555 1_555
C38 C37 1_555 1_555
C39 C48 1_555 1_555
C40 C41 1_555 1_555
C41 H44 1_555 1_555
H45 C41 1_555 1_555
C42 C41 1_555 1_555
H46 C42 1_555 1_555
C43 C42 1_555 1_555
C44 C40 1_555 1_555
H47 C44 1_555 1_555
C45 C44 1_555 1_555
H48 C45 1_555 1_555
C46 C45 1_555 1_555
C47 C46 1_555 1_555
C48 C44 1_555 1_555
H49 C48 1_555 1_555
C49 C47 1_555 1_555
H50 C49 1_555 1_555
H51 C49 1_555 1_555
C50 C38 1_555 1_555
H52 C50 1_555 1_555
H53 C50 1_555 1_555
C51 C39 1_555 1_555
C52 C38 1_555 1_555
C53 C52 1_555 1_555
H54 C53 1_555 1_555
H55 C53 1_555 1_555
C54 C53 1_555 1_555
H56 C54 1_555 1_555
H57 C54 1_555 1_555
C55 C36 1_555 1_555
H58 C55 1_555 1_555
C56 C32 1_555 1_555
H59 C56 1_555 1_555
H60 C56 1_555 1_555
H61 C56 1_555 1_555
C57 C32 1_555 1_555
H62 C57 1_555 1_555
H63 C57 1_555 1_555
C58 C42 1_555 1_555
H64 C58 1_555 1_555
H65 C58 1_555 1_555
H66 C58 1_555 1_555
C59 C45 1_555 1_555
H67 C59 1_555 1_555
H68 C59 1_555 1_555
H69 C59 1_555 1_555
C60 C47 1_555 1_555
H70 C60 1_555 1_555
H71 C60 1_555 1_555
H72 C60 1_555 1_555
C61 C62 1_555 1_555
C62 H73 1_555 1_555
H74 C62 1_555 1_555
H75 C62 1_555 1_555
O12 C32 1_555 1_555
O13 C35 1_555 1_555
O14 C35 1_555 1_555
O15 C38 1_555 1_555
O16 C39 1_555 1_555
O17 C40 1_555 1_555
O18 C43 1_555 1_555
O19 C46 1_555 1_555
O20 C51 1_555 1_555
O21 C61 1_555 1_555
O22 C57 1_555 1_555
H76 O22 1_555 1_555
C2 O1 1_555 1_555
C5 O2 1_555 1_555
C13 C18 1_555 1_555
C17 O6 1_555 1_555
C19 O4 1_555 1_555
C19 O5 1_555 1_555
C20 C21 1_555 1_555
C23 C24 1_555 1_555
C30 O9 1_555 1_555
C33 O12 1_555 1_555
C36 O13 1_555 1_555
C39 O15 1_555 1_555
C40 O16 1_555 1_555
C43 O17 1_555 1_555
C47 C48 1_555 1_555
C49 C50 1_555 1_555
C51 C52 1_555 1_555
C54 C55 1_555 1_555
C61 O20 1_555 1_555

#END
