
#######################################################################
#
#                 Cambridge Crystallographic Data Centre
#                                CCDC 
#
#######################################################################
#
# If this CIF has been generated from an entry in the Cambridge 
# Structural Database, then it will include bibliographic, chemical, 
# crystal, experimental, refinement or atomic coordinate data resulting 
# from the CCDC's data processing and validation procedures.
#
#######################################################################

data_GEBGAY
_chemical_formula_moiety         'C42 H62 O9 Si2'
_chemical_name_systematic        
13-(benzyloxy)-10-({[t-butyl(dimethyl)silyl]oxy}methyl)-3,4a,10-trimethyl-7a-[(triethylsilyl)oxy]-4a,5,6,10,10a,11,12,12a,13,13b-decahydro-7H-6a,13a-epoxy-1,9-dioxapentaleno[1',6':4,5,6]cycloocta[1,2-f]azulene-2,4,8(7aH)-trione
_symmetry_cell_setting           triclinic
_symmetry_space_group_name_H-M   'P -1'
_symmetry_Int_Tables_number      2
_space_group_name_Hall           '-P 1'
loop_
_symmetry_equiv_pos_site_id
_symmetry_equiv_pos_as_xyz
1 x,y,z
2 -x,-y,-z
_cell_length_a                   14.5065(6)
_cell_length_b                   15.7580(7)
_cell_length_c                   19.4000(7)
_cell_angle_alpha                91.379(3)
_cell_angle_beta                 98.913(3)
_cell_angle_gamma                90.225(3)
_cell_volume                     4379.76
_exptl_crystal_description       block
_cell_formula_units_Z            4
loop_
_atom_site_label
_atom_site_type_symbol
_atom_site_fract_x
_atom_site_fract_y
_atom_site_fract_z
C1 C 0.6387(2) 0.5112(2) 1.06197(19)
C2 C 0.6913(2) 0.5124(2) 0.99927(19)
C3 C 0.6191(2) 0.5338(2) 0.93497(19)
H1 H 0.5746 0.4855 0.9267
H2 H 0.5835 0.5833 0.9485
C4 C 0.6485(3) 0.5535(2) 0.86495(19)
C5 C 0.5593(3) 0.5659(2) 0.8111(2)
H3 H 0.5703 0.5429 0.7651
H4 H 0.5076 0.5327 0.8254
C6 C 0.5294(3) 0.6589(3) 0.8032(2)
H5 H 0.5457 0.6890 0.8489
H6 H 0.4607 0.6609 0.7899
C7 C 0.5753(3) 0.7059(3) 0.7481(2)
C8 C 0.5336(4) 0.6763(3) 0.6744(2)
H7 H 0.5436 0.6152 0.6689
H8 H 0.5639 0.7068 0.6405
H9 H 0.4665 0.6879 0.6664
C9 C 0.5590(4) 0.8019(3) 0.7572(3)
C10 C 0.6454(4) 0.8445(3) 0.7919(3)
C11 C 0.6510(5) 0.9342(3) 0.8178(4)
H10 H 0.6193 0.9707 0.7814
H11 H 0.7166 0.9516 0.8295
H12 H 0.6208 0.9395 0.8595
C12 C 0.7128(3) 0.7865(3) 0.7947(2)
C13 C 0.6829(3) 0.7021(3) 0.7615(2)
H13 H 0.7061 0.6966 0.7157
C14 C 0.8075(3) 0.7783(3) 0.8337(2)
C15 C 0.7401(3) 0.6441(2) 0.81364(19)
C16 C 0.7641(3) 0.5546(2) 0.7885(2)
H14 H 0.8332 0.5466 0.7984
C17 C 0.7162(3) 0.4937(2) 0.83329(19)
H15 H 0.6788 0.4508 0.8017
C18 C 0.7892(3) 0.4473(2) 0.8837(2)
H16 H 0.8269 0.4895 0.9148
H17 H 0.8317 0.4164 0.8568
C19 C 0.7451(3) 0.3842(2) 0.9283(2)
H18 H 0.6836 0.3654 0.9029
H19 H 0.7853 0.3336 0.9357
C20 C 0.7324(3) 0.4233(2) 0.99902(19)
H20 H 0.7961 0.4274 1.0273
C21 C 0.6729(3) 0.3694(2) 1.0412(2)
C22 C 0.5920(3) 0.3194(3) 0.9995(3)
H21 H 0.5538 0.3574 0.9678
H22 H 0.5538 0.2949 1.0316
H23 H 0.6165 0.2738 0.9724
C23 C 0.7309(3) 0.3108(3) 1.0902(2)
H24 H 0.6907 0.2838 1.1204
H25 H 0.7565 0.2653 1.0628
C24 C 0.9074(4) 0.2073(3) 1.1814(3)
H26 H 0.9510 0.2089 1.1476
H27 H 0.8522 0.1737 1.1617
H28 H 0.9379 0.1815 1.2244
C25 C 0.9740(3) 0.3873(3) 1.2162(3)
H29 H 1.0163 0.3693 1.2576
H30 H 0.9539 0.4457 1.2237
H31 H 1.0064 0.3847 1.1755
C26 C 0.8058(4) 0.3196(4) 1.2778(3)
C27 C 0.7310(4) 0.2517(4) 1.2717(3)
H32 H 0.7594 0.1958 1.2683
H33 H 0.6852 0.2608 1.2298
H34 H 0.6997 0.2546 1.3130
C28 C 0.8770(5) 0.3049(5) 1.3463(3)
H35 H 0.8440 0.3070 1.3867
H36 H 0.9253 0.3492 1.3516
H37 H 0.9061 0.2491 1.3432
C29 C 0.7613(5) 0.4077(4) 1.2822(4)
H38 H 0.7222 0.4195 1.2377
H39 H 0.8106 0.4510 1.2923
H40 H 0.7229 0.4088 1.3196
C30 C 0.8049(4) 0.6612(3) 1.1449(2)
H41 H 0.8299 0.7164 1.1651
H42 H 0.7437 0.6519 1.1601
C31 C 0.8702(5) 0.5920(4) 1.1734(3)
H43 H 0.9304 0.5993 1.1572
H44 H 0.8433 0.5366 1.1571
H45 H 0.8794 0.5951 1.2246
C32 C 0.6929(4) 0.7460(3) 1.0200(3)
H46 H 0.6759 0.7418 0.9686
H47 H 0.6369 0.7307 1.0405
C33 C 0.7193(5) 0.8361(3) 1.0405(4)
H48 H 0.7748 0.8519 1.0206
H49 H 0.7327 0.8418 1.0915
H50 H 0.6676 0.8734 1.0228
C34 C 0.8981(3) 0.6994(3) 1.0185(2)
H51 H 0.8818 0.7273 0.9731
H52 H 0.9287 0.7428 1.0522
C35 C 0.9691(5) 0.6320(5) 1.0099(5)
H53 H 0.9406 0.5879 0.9767
H54 H 0.9907 0.6066 1.0551
H55 H 1.0222 0.6576 0.9922
C36 C 0.7730(4) 0.4725(3) 0.6871(2)
H56 H 0.7660 0.4228 0.7161
H57 H 0.8404 0.4824 0.6873
C37 C 0.7262(4) 0.4546(3) 0.6144(2)
C38 C 0.7749(5) 0.4556(4) 0.5593(3)
H58 H 0.8397 0.4686 0.5681
C39 C 0.7340(7) 0.4388(5) 0.4927(3)
H59 H 0.7703 0.4388 0.4559
C40 C 0.6421(7) 0.4223(4) 0.4789(3)
H60 H 0.6128 0.4127 0.4320
C41 C 0.5916(5) 0.4192(4) 0.5308(5)
H61 H 0.5269 0.4060 0.5210
C42 C 0.6346(4) 0.4359(4) 0.6008(3)
H62 H 0.5988 0.4338 0.6378
O1 O 0.8048(2) 0.35421(19) 1.13220(16)
O2 O 0.63202(19) 0.43228(18) 1.08498(15)
O3 O 0.6061(2) 0.57035(18) 1.08880(15)
O4 O 0.76514(17) 0.57274(16) 1.01062(14)
O5 O 0.70089(17) 0.63295(16) 0.87424(13)
O6 O 0.82572(18) 0.69278(17) 0.83644(14)
O7 O 0.8641(2) 0.8304(2) 0.85951(17)
O8 O 0.4842(3) 0.8359(2) 0.7407(3)
O9 O 0.7333(2) 0.54501(18) 0.71574(14)
Si1 Si 0.87171(8) 0.31685(8) 1.20112(6)
Si2 Si 0.78696(8) 0.66705(7) 1.04800(6)
C43 C 0.3620(2) 0.0077(2) 0.4391(2)
C44 C 0.3130(2) 0.0106(2) 0.50392(19)
C45 C 0.3900(2) 0.0299(2) 0.56640(19)
H63 H 0.4323 -0.0195 0.5707
H64 H 0.4267 0.0786 0.5536
C46 C 0.3667(2) 0.0500(2) 0.63908(19)
C47 C 0.4600(3) 0.0604(2) 0.6906(2)
H65 H 0.4501 0.0420 0.7374
H66 H 0.5074 0.0228 0.6747
C48 C 0.4972(3) 0.1510(2) 0.6967(2)
H67 H 0.4802 0.1785 0.6512
H68 H 0.5662 0.1498 0.7075
C49 C 0.4589(3) 0.2047(3) 0.7540(2)
C50 C 0.5088(4) 0.1809(3) 0.8269(2)
H69 H 0.4986 0.1204 0.8342
H70 H 0.4837 0.2148 0.8627
H71 H 0.5758 0.1922 0.8303
C51 C 0.4801(3) 0.2993(3) 0.7398(2)
C52 C 0.3908(3) 0.3405(3) 0.7102(2)
C53 C 0.3867(4) 0.4254(3) 0.6774(3)
H72 H 0.4095 0.4690 0.7130
H73 H 0.3220 0.4377 0.6574
H74 H 0.4258 0.4253 0.6405
C54 C 0.3228(3) 0.2857(3) 0.7165(2)
C55 C 0.3527(3) 0.2035(3) 0.7484(2)
H75 H 0.3354 0.2017 0.7963
C56 C 0.2246(3) 0.2784(3) 0.6844(2)
C57 C 0.2872(3) 0.1435(2) 0.69872(19)
C58 C 0.2609(3) 0.0551(3) 0.7225(2)
H76 H 0.1915 0.0496 0.7170
C59 C 0.2986(3) -0.0077(2) 0.67120(19)
H77 H 0.3354 -0.0526 0.6986
C60 C 0.2209(3) -0.0500(2) 0.6206(2)
H78 H 0.1855 -0.0060 0.5923
H79 H 0.1775 -0.0788 0.6473
C61 C 0.2575(3) -0.1153(2) 0.5715(2)
H80 H 0.3182 -0.1369 0.5946
H81 H 0.2134 -0.1639 0.5635
C62 C 0.2700(3) -0.0793(2) 0.5012(2)
H82 H 0.2063 -0.0758 0.4730
C63 C 0.3293(3) -0.1337(2) 0.4578(2)
C64 C 0.4074(3) -0.1845(3) 0.4976(2)
H83 H 0.4468 -0.1470 0.5310
H84 H 0.4450 -0.2099 0.4648
H85 H 0.3809 -0.2295 0.5227
C65 C 0.2701(3) -0.1918(3) 0.4043(2)
H86 H 0.3107 -0.2208 0.3747
H87 H 0.2393 -0.2356 0.4287
C66 C 0.2051(5) -0.2242(5) 0.2285(3)
H88 H 0.2492 -0.2666 0.2498
H89 H 0.2398 -0.1765 0.2130
H90 H 0.1645 -0.2500 0.1883
C67 C 0.0667(5) -0.2749(4) 0.3217(5)
H91 H 0.0363 -0.3072 0.2805
H92 H 0.0193 -0.2532 0.3483
H93 H 0.1094 -0.3120 0.3511
C68 C 0.0593(3) -0.0940(3) 0.2592(3)
C69 C -0.0199(4) -0.1260(5) 0.2034(3)
H94 H -0.0561 -0.0776 0.1834
H95 H -0.0607 -0.1640 0.2245
H96 H 0.0061 -0.1568 0.1665
C70 C 0.1194(5) -0.0290(4) 0.2282(3)
H97 H 0.1435 -0.0549 0.1882
H98 H 0.1718 -0.0109 0.2638
H99 H 0.0815 0.0204 0.2129
C71 C 0.0174(4) -0.0524(4) 0.3186(3)
H100 H -0.0216 -0.0046 0.3008
H101 H 0.0676 -0.0318 0.3548
H102 H -0.0209 -0.0940 0.3383
C72 C 0.1103(3) 0.1949(3) 0.4996(2)
H103 H 0.1257 0.2041 0.5508
H104 H 0.0879 0.2495 0.4793
C73 C 0.0304(3) 0.1298(4) 0.4849(3)
H105 H 0.0130 0.1211 0.4343
H106 H -0.0236 0.1509 0.5047
H107 H 0.0507 0.0759 0.5061
C74 C 0.1956(3) 0.1572(3) 0.3682(2)
H108 H 0.2552 0.1642 0.3501
H109 H 0.1715 0.0994 0.3543
C75 C 0.1259(4) 0.2218(5) 0.3332(3)
H110 H 0.1150 0.2108 0.2827
H111 H 0.1513 0.2792 0.3432
H112 H 0.0669 0.2166 0.3515
C76 C 0.3154(3) 0.2441(3) 0.4945(3)
H113 H 0.3326 0.2415 0.5458
H114 H 0.3709 0.2276 0.4735
C77 C 0.2904(5) 0.3348(3) 0.4753(4)
H115 H 0.2725 0.3379 0.4246
H116 H 0.3444 0.3719 0.4906
H117 H 0.2381 0.3531 0.4984
C78 C 0.2579(4) -0.0237(4) 0.8226(3)
H118 H 0.2467 -0.0716 0.7883
H119 H 0.1977 -0.0070 0.8367
C79 C 0.3285(8) -0.0492(7) 0.8872(5)
C80 C 0.4153(5) -0.0785(5) 0.8762(4)
H120 H 0.4314 -0.0780 0.8305
C81 C 0.4777(6) -0.1081(5) 0.9300(4)
H121 H 0.5362 -0.1290 0.9210
O10 O 0.2020(2) -0.14470(18) 0.36219(16)
O11 O 0.37285(19) -0.07164(17) 0.41700(15)
O12 O 0.39050(19) 0.06797(17) 0.41133(14)
O13 O 0.24193(17) 0.07106(15) 0.49813(13)
O14 O 0.31887(17) 0.13077(16) 0.63498(13)
O15 O 0.20160(18) 0.19325(17) 0.68286(14)
O16 O 0.1681(2) 0.3307(2) 0.66260(18)
O17 O 0.5566(2) 0.3306(2) 0.7481(2)
O18 O 0.2997(2) 0.04601(19) 0.79363(14)
Si3 Si 0.13299(9) -0.18504(8) 0.29369(7)
Si4 Si 0.21941(7) 0.16534(7) 0.46516(6)
C82 C 0.3726(8) -0.0802(8) 1.0074(6)
H122 H 0.3569 -0.0815 1.0532
C83 C 0.4578(7) -0.1081(6) 0.9961(4)
H123 H 0.5023 -0.1271 1.0336
C84 C 0.3084(7) -0.0498(5) 0.9535(4)
H124 H 0.2499 -0.0293 0.9628
H125? H 0.1901 -0.0121 0.8170
H126? H 0.2655 -0.0738 0.7923
C85? C 0.2837(10) -0.0486(12) 0.8900(10)
C86? C 0.3767(12) -0.0645(10) 0.9167(9)
H127? H 0.4212 -0.0670 0.8856
C87? C 0.2174(10) -0.0495(8) 0.9352(6)
H128? H 0.1532 -0.0400 0.9187
C88? C 0.2486(13) -0.0646(10) 1.0047(7)
H129? H 0.2039 -0.0647 1.0357
C89? C 0.406(2) -0.077(2) 0.9870(10)
H130? H 0.4706 -0.0828 1.0043
C90? C 0.3408(15) -0.0796(17) 1.0320(12)
H131? H 0.3587 -0.0916 1.0799
loop_
_geom_bond_atom_site_label_1
_geom_bond_atom_site_label_2
_geom_bond_site_symmetry_1
_geom_bond_site_symmetry_2
C1 C2 1_555 1_555
C2 C3 1_555 1_555
C3 H1 1_555 1_555
H2 C3 1_555 1_555
C4 C3 1_555 1_555
C5 C4 1_555 1_555
H3 C5 1_555 1_555
H4 C5 1_555 1_555
C6 C5 1_555 1_555
H5 C6 1_555 1_555
H6 C6 1_555 1_555
C7 C6 1_555 1_555
C8 C7 1_555 1_555
H7 C8 1_555 1_555
H8 C8 1_555 1_555
H9 C8 1_555 1_555
C9 C7 1_555 1_555
C10 C9 1_555 1_555
C11 C10 1_555 1_555
H10 C11 1_555 1_555
H11 C11 1_555 1_555
H12 C11 1_555 1_555
C12 C10 1_555 1_555
C13 C7 1_555 1_555
H13 C13 1_555 1_555
C14 C12 1_555 1_555
C15 C13 1_555 1_555
C16 C15 1_555 1_555
H14 C16 1_555 1_555
C17 C4 1_555 1_555
H15 C17 1_555 1_555
C18 C17 1_555 1_555
H16 C18 1_555 1_555
H17 C18 1_555 1_555
C19 C18 1_555 1_555
H18 C19 1_555 1_555
H19 C19 1_555 1_555
C20 C2 1_555 1_555
H20 C20 1_555 1_555
C21 C20 1_555 1_555
C22 C21 1_555 1_555
H21 C22 1_555 1_555
H22 C22 1_555 1_555
H23 C22 1_555 1_555
C23 C21 1_555 1_555
H24 C23 1_555 1_555
H25 C23 1_555 1_555
C24 H26 1_555 1_555
H27 C24 1_555 1_555
H28 C24 1_555 1_555
C25 H29 1_555 1_555
H30 C25 1_555 1_555
H31 C25 1_555 1_555
C26 C27 1_555 1_555
C27 H32 1_555 1_555
H33 C27 1_555 1_555
H34 C27 1_555 1_555
C28 C26 1_555 1_555
H35 C28 1_555 1_555
H36 C28 1_555 1_555
H37 C28 1_555 1_555
C29 C26 1_555 1_555
H38 C29 1_555 1_555
H39 C29 1_555 1_555
H40 C29 1_555 1_555
C30 H41 1_555 1_555
H42 C30 1_555 1_555
C31 C30 1_555 1_555
H43 C31 1_555 1_555
H44 C31 1_555 1_555
H45 C31 1_555 1_555
C32 H46 1_555 1_555
H47 C32 1_555 1_555
C33 C32 1_555 1_555
H48 C33 1_555 1_555
H49 C33 1_555 1_555
H50 C33 1_555 1_555
C34 H51 1_555 1_555
H52 C34 1_555 1_555
C35 C34 1_555 1_555
H53 C35 1_555 1_555
H54 C35 1_555 1_555
H55 C35 1_555 1_555
C36 H56 1_555 1_555
H57 C36 1_555 1_555
C37 C36 1_555 1_555
C38 C37 1_555 1_555
H58 C38 1_555 1_555
C39 C38 1_555 1_555
H59 C39 1_555 1_555
C40 C39 1_555 1_555
H60 C40 1_555 1_555
C41 C40 1_555 1_555
H61 C41 1_555 1_555
C42 C37 1_555 1_555
H62 C42 1_555 1_555
O1 C23 1_555 1_555
O2 C1 1_555 1_555
O3 C1 1_555 1_555
O4 C2 1_555 1_555
O5 C4 1_555 1_555
O6 C14 1_555 1_555
O7 C14 1_555 1_555
O8 C9 1_555 1_555
O9 C16 1_555 1_555
Si1 C24 1_555 1_555
Si2 C30 1_555 1_555
C43 C44 1_555 1_555
C44 C45 1_555 1_555
C45 H63 1_555 1_555
H64 C45 1_555 1_555
C46 C45 1_555 1_555
C47 C46 1_555 1_555
H65 C47 1_555 1_555
H66 C47 1_555 1_555
C48 C47 1_555 1_555
H67 C48 1_555 1_555
H68 C48 1_555 1_555
C49 C48 1_555 1_555
C50 C49 1_555 1_555
H69 C50 1_555 1_555
H70 C50 1_555 1_555
H71 C50 1_555 1_555
C51 C49 1_555 1_555
C52 C51 1_555 1_555
C53 C52 1_555 1_555
H72 C53 1_555 1_555
H73 C53 1_555 1_555
H74 C53 1_555 1_555
C54 C52 1_555 1_555
C55 C49 1_555 1_555
H75 C55 1_555 1_555
C56 C54 1_555 1_555
C57 C55 1_555 1_555
C58 C57 1_555 1_555
H76 C58 1_555 1_555
C59 C46 1_555 1_555
H77 C59 1_555 1_555
C60 C59 1_555 1_555
H78 C60 1_555 1_555
H79 C60 1_555 1_555
C61 C60 1_555 1_555
H80 C61 1_555 1_555
H81 C61 1_555 1_555
C62 C44 1_555 1_555
H82 C62 1_555 1_555
C63 C62 1_555 1_555
C64 C63 1_555 1_555
H83 C64 1_555 1_555
H84 C64 1_555 1_555
H85 C64 1_555 1_555
C65 C63 1_555 1_555
H86 C65 1_555 1_555
H87 C65 1_555 1_555
C66 H88 1_555 1_555
H89 C66 1_555 1_555
H90 C66 1_555 1_555
C67 H91 1_555 1_555
H92 C67 1_555 1_555
H93 C67 1_555 1_555
C68 C69 1_555 1_555
C69 H94 1_555 1_555
H95 C69 1_555 1_555
H96 C69 1_555 1_555
C70 C68 1_555 1_555
H97 C70 1_555 1_555
H98 C70 1_555 1_555
H99 C70 1_555 1_555
C71 C68 1_555 1_555
H100 C71 1_555 1_555
H101 C71 1_555 1_555
H102 C71 1_555 1_555
C72 H103 1_555 1_555
H104 C72 1_555 1_555
C73 C72 1_555 1_555
H105 C73 1_555 1_555
H106 C73 1_555 1_555
H107 C73 1_555 1_555
C74 H108 1_555 1_555
H109 C74 1_555 1_555
C75 C74 1_555 1_555
H110 C75 1_555 1_555
H111 C75 1_555 1_555
H112 C75 1_555 1_555
C76 H113 1_555 1_555
H114 C76 1_555 1_555
C77 C76 1_555 1_555
H115 C77 1_555 1_555
H116 C77 1_555 1_555
H117 C77 1_555 1_555
C78 H118 1_555 1_555
H119 C78 1_555 1_555
C79 C78 1_555 1_555
C80 C79 1_555 1_555
H120 C80 1_555 1_555
C81 C80 1_555 1_555
H121 C81 1_555 1_555
O10 C65 1_555 1_555
O11 C43 1_555 1_555
O12 C43 1_555 1_555
O13 C44 1_555 1_555
O14 C46 1_555 1_555
O15 C56 1_555 1_555
O16 C56 1_555 1_555
O17 C51 1_555 1_555
O18 C58 1_555 1_555
Si3 C66 1_555 1_555
Si4 C72 1_555 1_555
C82 H122 1_555 1_555
C83 C81 1_555 1_555
H123 C83 1_555 1_555
C84 C79 1_555 1_555
H124 C84 1_555 1_555
C12 C13 1_555 1_555
C15 O5 1_555 1_555
C15 O6 1_555 1_555
C16 C17 1_555 1_555
C19 C20 1_555 1_555
C21 O2 1_555 1_555
C25 Si1 1_555 1_555
C26 Si1 1_555 1_555
C32 Si2 1_555 1_555
C34 Si2 1_555 1_555
C36 O9 1_555 1_555
C41 C42 1_555 1_555
O1 Si1 1_555 1_555
O4 Si2 1_555 1_555
C54 C55 1_555 1_555
C57 O14 1_555 1_555
C57 O15 1_555 1_555
C58 C59 1_555 1_555
C61 C62 1_555 1_555
C63 O11 1_555 1_555
C67 Si3 1_555 1_555
C68 Si3 1_555 1_555
C74 Si4 1_555 1_555
C76 Si4 1_555 1_555
C78 O18 1_555 1_555
O10 Si3 1_555 1_555
O13 Si4 1_555 1_555
C82 C83 1_555 1_555
C82 C84 1_555 1_555

#END
