
#######################################################################
#
#                 Cambridge Crystallographic Data Centre
#                                CCDC 
#
#######################################################################
#
# If this CIF has been generated from an entry in the Cambridge 
# Structural Database, then it will include bibliographic, chemical, 
# crystal, experimental, refinement or atomic coordinate data resulting 
# from the CCDC's data processing and validation procedures.
#
#######################################################################

data_GEBKAB
_chemical_formula_moiety         'C20 H20 O6'
_chemical_name_systematic        
'Dimethyl 5-(4-methylphenyl)-2-phenyl-1,3-dioxolane-4,4-dicarboxylate'
_symmetry_cell_setting           monoclinic
_symmetry_space_group_name_H-M   'P 21/c'
_symmetry_Int_Tables_number      14
_space_group_name_Hall           '-P 2ybc'
loop_
_symmetry_equiv_pos_site_id
_symmetry_equiv_pos_as_xyz
1 x,y,z
2 -x,1/2+y,1/2-z
3 -x,-y,-z
4 x,1/2-y,1/2+z
_cell_length_a                   15.2473(7)
_cell_length_b                   14.2721(6)
_cell_length_c                   8.8224(4)
_cell_angle_alpha                90
_cell_angle_beta                 99.2780(10)
_cell_angle_gamma                90
_cell_volume                     1894.74
_exptl_crystal_colour            colorless
_exptl_crystal_description       block
_cell_formula_units_Z            4
loop_
_atom_site_label
_atom_site_type_symbol
_atom_site_fract_x
_atom_site_fract_y
_atom_site_fract_z
O1 O 0.62169(10) 0.76672(9) -0.01584(18)
O2 O 0.56236(7) 0.90109(8) 0.04853(14)
O3 O 0.75644(9) 1.05675(9) 0.00110(15)
O4 O 0.75863(8) 0.93357(9) 0.16024(14)
O5 O 0.63030(8) 0.96895(8) -0.20447(13)
O6 O 0.74433(8) 0.91240(8) -0.31143(13)
C1 C 0.69904(12) 1.10885(13) -0.4043(2)
H1 H 0.7316 1.1127 -0.3032
C2 C 0.69824(14) 1.18386(14) -0.5039(2)
H2 H 0.7301 1.2394 -0.4713
C3 C 0.65087(15) 1.17760(17) -0.6509(3)
H3 H 0.6510 1.2287 -0.7198
C4 C 0.60354(15) 1.09806(18) -0.6982(2)
H4 H 0.5706 1.0945 -0.7991
C5 C 0.60397(13) 1.02328(15) -0.5990(2)
H5 H 0.5710 0.9684 -0.6314
C6 C 0.65222(11) 1.02807(12) -0.45238(19)
C7 C 0.65622(11) 0.94488(12) -0.3500(2)
H6 H 0.6172 0.8939 -0.4010
C8 C 0.68146(11) 0.91375(11) -0.08971(19)
C9 C 0.74297(11) 0.85507(12) -0.18003(19)
H7 H 0.7127 0.7946 -0.2132
C10 C 0.83504(11) 0.83473(12) -0.0987(2)
C11 C 0.85070(13) 0.75308(14) -0.0145(2)
H8 H 0.8034 0.7103 -0.0105
C12 C 0.93430(14) 0.73310(16) 0.0636(3)
H9 H 0.9437 0.6765 0.1206
C13 C 1.00491(13) 0.79382(16) 0.0607(2)
C14 C 0.98895(13) 0.87485(14) -0.0247(2)
H10 H 1.0365 0.9172 -0.0296
C15 C 0.90511(12) 0.89574(13) -0.1034(2)
H11 H 0.8957 0.9522 -0.1608
C16 C 1.09564(15) 0.7723(2) 0.1490(3)
H12 H 1.1368 0.8228 0.1335
H13 H 1.1171 0.7130 0.1124
H14 H 1.0920 0.7670 0.2586
C17 C 0.61965(11) 0.85061(12) -0.0144(2)
C18 C 0.49795(12) 0.84756(14) 0.1166(2)
H15 H 0.4586 0.8905 0.1604
H16 H 0.5290 0.8072 0.1979
H17 H 0.4627 0.8088 0.0376
C19 C 0.73559(11) 0.97834(12) 0.0279(2)
C20 C 0.81937(14) 0.98262(16) 0.2764(2)
H18 H 0.8319 0.9438 0.3690
H19 H 0.7925 1.0419 0.3013
H20 H 0.8749 0.9955 0.2376
loop_
_geom_bond_atom_site_label_1
_geom_bond_atom_site_label_2
_geom_bond_site_symmetry_1
_geom_bond_site_symmetry_2
O1 C17 1_555 1_555
O2 C17 1_555 1_555
O3 C19 1_555 1_555
O4 C19 1_555 1_555
O5 C7 1_555 1_555
O6 C7 1_555 1_555
C1 H1 1_555 1_555
C2 C1 1_555 1_555
H2 C2 1_555 1_555
C3 C2 1_555 1_555
H3 C3 1_555 1_555
C4 C3 1_555 1_555
H4 C4 1_555 1_555
C5 C4 1_555 1_555
H5 C5 1_555 1_555
C6 C1 1_555 1_555
C7 C6 1_555 1_555
H6 C7 1_555 1_555
C8 O5 1_555 1_555
C9 O6 1_555 1_555
H7 C9 1_555 1_555
C10 C9 1_555 1_555
C11 C10 1_555 1_555
H8 C11 1_555 1_555
C12 C11 1_555 1_555
H9 C12 1_555 1_555
C13 C12 1_555 1_555
C14 C13 1_555 1_555
H10 C14 1_555 1_555
C15 C10 1_555 1_555
H11 C15 1_555 1_555
C16 C13 1_555 1_555
H12 C16 1_555 1_555
H13 C16 1_555 1_555
H14 C16 1_555 1_555
C17 C8 1_555 1_555
C18 O2 1_555 1_555
H15 C18 1_555 1_555
H16 C18 1_555 1_555
H17 C18 1_555 1_555
C19 C8 1_555 1_555
C20 O4 1_555 1_555
H18 C20 1_555 1_555
H19 C20 1_555 1_555
H20 C20 1_555 1_555
C5 C6 1_555 1_555
C8 C9 1_555 1_555
C14 C15 1_555 1_555

#END
