
#######################################################################
#
#                 Cambridge Crystallographic Data Centre
#                                CCDC 
#
#######################################################################
#
# If this CIF has been generated from an entry in the Cambridge 
# Structural Database, then it will include bibliographic, chemical, 
# crystal, experimental, refinement or atomic coordinate data resulting 
# from the CCDC's data processing and validation procedures.
#
#######################################################################

data_GEBQUC
_chemical_compound_source        'Podocarpus nagi'
_chemical_name_common            
'1-deoxy-2beta-hydroxy-nagilactone A monohydrate'
_chemical_formula_moiety         'C19 H24 O6,H2 O1'
_chemical_name_systematic        
"2,6-dihydroxy-3a,10b-dimethyl-7-(propan-2-yl)-1,2,3,3a,5a,6,10b,10c-octahydro-4H,9H-furo[2',3',4':4,5]naphtho[2,1-c]pyran-4,9-dione monohydrate"
_symmetry_cell_setting           tetragonal
_symmetry_space_group_name_H-M   'P 43 21 2'
_symmetry_Int_Tables_number      96
_space_group_name_Hall           'P 4nw 2abw'
loop_
_symmetry_equiv_pos_site_id
_symmetry_equiv_pos_as_xyz
1 x,y,z
2 1/2-y,1/2+x,3/4+z
3 -x,-y,1/2+z
4 1/2+y,1/2-x,1/4+z
5 1/2+x,1/2-y,1/4-z
6 y,x,-z
7 1/2-x,1/2+y,3/4-z
8 -y,-x,1/2-z
_cell_length_a                   16.3895(3)
_cell_length_b                   16.3895(3)
_cell_length_c                   13.9454(3)
_cell_angle_alpha                90
_cell_angle_beta                 90
_cell_angle_gamma                90
_cell_volume                     3745.95
_exptl_crystal_colour            colorless
_exptl_crystal_description       needles
_cell_formula_units_Z            8
loop_
_atom_site_label
_atom_site_type_symbol
_atom_site_fract_x
_atom_site_fract_y
_atom_site_fract_z
O1 O 0.50135(14) 0.28357(14) 0.76299(17)
O2 O 0.59495(13) 0.19788(13) 0.71134(15)
O3 O 0.71361(18) 0.16252(16) 0.44070(19)
H1 H 0.7479 0.1498 0.3985
O4 O 0.82603(14) 0.26809(13) 0.38508(15)
O5 O 0.84445(16) 0.35232(14) 0.26156(16)
O6 O 0.66775(14) 0.58471(12) 0.42862(16)
H2 H 0.6448 0.5727 0.3767
C1 C 0.65207(19) 0.45315(18) 0.5091(2)
H3 H 0.6479 0.4644 0.5787
H4 H 0.5973 0.4614 0.4808
C2 C 0.71176(18) 0.51506(17) 0.4638(2)
H5 H 0.7495 0.5344 0.5154
C3 C 0.7637(2) 0.48008(18) 0.3833(2)
H6 H 0.8005 0.5229 0.3580
H7 H 0.7280 0.4616 0.3303
C4 C 0.81408(18) 0.40851(18) 0.4202(2)
C5 C 0.77149(17) 0.35981(17) 0.5000(2)
H8 H 0.7895 0.3816 0.5635
C6 C 0.80730(19) 0.27444(18) 0.4867(2)
H9 H 0.8597 0.2714 0.5233
C7 C 0.7535(2) 0.20184(18) 0.5170(3)
H10 H 0.7888 0.1610 0.5503
C8 C 0.68724(18) 0.22862(18) 0.5859(2)
C9 C 0.64831(18) 0.30751(17) 0.5755(2)
C10 C 0.67726(17) 0.36335(17) 0.4950(2)
C11 C 0.58646(18) 0.32757(18) 0.6352(2)
H11 H 0.5620 0.3799 0.6296
C12 C 0.55699(19) 0.27265(19) 0.7062(2)
C13 C 0.65764(19) 0.17613(18) 0.6516(2)
C14 C 0.6813(2) 0.0886(2) 0.6680(2)
H12 H 0.7317 0.0772 0.6300
C15 C 0.6132(3) 0.0322(2) 0.6315(3)
H13 H 0.5636 0.0414 0.6691
H14 H 0.6304 -0.0248 0.6383
H15 H 0.6023 0.0440 0.5638
C16 C 0.6999(4) 0.0716(3) 0.7733(3)
H16 H 0.7473 0.1038 0.7932
H17 H 0.7117 0.0135 0.7817
H18 H 0.6526 0.0867 0.8125
C17 C 0.8991(2) 0.4372(2) 0.4540(3)
H19 H 0.8927 0.4786 0.5043
H20 H 0.9289 0.4608 0.3997
H21 H 0.9296 0.3906 0.4796
C18 C 0.82894(18) 0.34327(19) 0.3447(2)
C19 C 0.6392(2) 0.3309(2) 0.4010(2)
H22 H 0.6589 0.2754 0.3889
H23 H 0.6550 0.3664 0.3477
H24 H 0.5796 0.3304 0.4070
O7 O 0.5562(2) 0.5646(2) 0.7278(2)
H25 H 0.6021 0.5432 0.7407
H26 H 0.5318 0.5359 0.6859
loop_
_geom_bond_atom_site_label_1
_geom_bond_atom_site_label_2
_geom_bond_site_symmetry_1
_geom_bond_site_symmetry_2
O1 C12 1_555 1_555
O2 C12 1_555 1_555
O3 H1 1_555 1_555
O4 C6 1_555 1_555
O5 C18 1_555 1_555
O6 H2 1_555 1_555
C1 H3 1_555 1_555
H4 C1 1_555 1_555
C2 O6 1_555 1_555
H5 C2 1_555 1_555
C3 C2 1_555 1_555
H6 C3 1_555 1_555
H7 C3 1_555 1_555
C4 C3 1_555 1_555
C5 C4 1_555 1_555
H8 C5 1_555 1_555
C6 C5 1_555 1_555
H9 C6 1_555 1_555
C7 O3 1_555 1_555
H10 C7 1_555 1_555
C8 C7 1_555 1_555
C9 C8 1_555 1_555
C10 C1 1_555 1_555
C11 C9 1_555 1_555
H11 C11 1_555 1_555
C12 C11 1_555 1_555
C13 O2 1_555 1_555
C14 C13 1_555 1_555
H12 C14 1_555 1_555
C15 C14 1_555 1_555
H13 C15 1_555 1_555
H14 C15 1_555 1_555
H15 C15 1_555 1_555
C16 C14 1_555 1_555
H16 C16 1_555 1_555
H17 C16 1_555 1_555
H18 C16 1_555 1_555
C17 C4 1_555 1_555
H19 C17 1_555 1_555
H20 C17 1_555 1_555
H21 C17 1_555 1_555
C18 O4 1_555 1_555
C19 C10 1_555 1_555
H22 C19 1_555 1_555
H23 C19 1_555 1_555
H24 C19 1_555 1_555
O7 H25 1_555 1_555
H26 O7 1_555 1_555
C1 C2 1_555 1_555
C4 C18 1_555 1_555
C5 C10 1_555 1_555
C6 C7 1_555 1_555
C8 C13 1_555 1_555
C9 C10 1_555 1_555

#END
