
#######################################################################
#
#                 Cambridge Crystallographic Data Centre
#                                CCDC 
#
#######################################################################
#
# If this CIF has been generated from an entry in the Cambridge 
# Structural Database, then it will include bibliographic, chemical, 
# crystal, experimental, refinement or atomic coordinate data resulting 
# from the CCDC's data processing and validation procedures.
#
#######################################################################

data_GEBRAG
_chemical_formula_moiety         'C11 H14 O2'
_chemical_name_systematic        cis-Tricyclo(6.3.0.0^2,8^)undecane-3,11-dione
_symmetry_cell_setting           monoclinic
_symmetry_space_group_name_H-M   'P 21/a'
_symmetry_Int_Tables_number      14
_space_group_name_Hall           '-P 2yab'
loop_
_symmetry_equiv_pos_site_id
_symmetry_equiv_pos_as_xyz
1 x,y,z
2 1/2-x,1/2+y,-z
3 -x,-y,-z
4 1/2+x,1/2-y,z
_cell_length_a                   11.566(2)
_cell_length_b                   8.369(1)
_cell_length_c                   9.533(1)
_cell_angle_alpha                90
_cell_angle_beta                 91.22(1)
_cell_angle_gamma                90
_cell_volume                     922.546
_exptl_crystal_colour            colorless
_chemical_melting_point          '429-431 K'
_cell_formula_units_Z            4
_exptl_crystal_preparation       'irradiated product'
loop_
_atom_site_label
_atom_site_type_symbol
_atom_site_fract_x
_atom_site_fract_y
_atom_site_fract_z
O1 O 0.7008(1) 0.3008(1) 0.4872(1)
O2 O 0.8044(1) 0.6189(1) 0.9711(1)
C1 C 0.6551(1) 0.4612(2) 0.6754(1)
C2 C 0.6595(1) 0.3044(2) 0.6030(1)
C3 C 0.6161(1) 0.1533(2) 0.6684(2)
C4 C 0.4844(1) 0.1497(2) 0.6870(2)
C5 C 0.4405(1) 0.2585(2) 0.8017(2)
C6 C 0.4397(1) 0.4361(2) 0.7681(2)
C7 C 0.5551(1) 0.5214(2) 0.7597(1)
C8 C 0.5506(1) 0.7038(2) 0.7634(2)
C9 C 0.6686(1) 0.7609(2) 0.8183(1)
C10 C 0.7245(1) 0.6161(2) 0.8867(1)
C11 C 0.6631(1) 0.4704(2) 0.8374(1)
H1 H 0.698(1) 0.541(2) 0.621(2)
H2 H 0.657(1) 0.138(2) 0.758(2)
H3 H 0.640(1) 0.071(2) 0.607(2)
H4 H 0.461(1) 0.041(2) 0.714(2)
H5 H 0.443(2) 0.177(2) 0.597(2)
H6 H 0.488(1) 0.233(2) 0.894(2)
H7 H 0.360(1) 0.226(2) 0.819(2)
H8 H 0.392(1) 0.490(2) 0.847(2)
H9 H 0.401(2) 0.458(2) 0.675(2)
H10 H 0.489(2) 0.734(2) 0.836(2)
H11 H 0.529(1) 0.739(2) 0.670(2)
H12 H 0.663(2) 0.849(2) 0.886(2)
H13 H 0.716(1) 0.798(2) 0.743(2)
H14 H 0.672(1) 0.369(2) 0.889(2)
loop_
_geom_bond_atom_site_label_1
_geom_bond_atom_site_label_2
_geom_bond_site_symmetry_1
_geom_bond_site_symmetry_2
O1 C2 1_555 1_555
O2 C10 1_555 1_555
C1 C2 1_555 1_555
C2 C3 1_555 1_555
C3 C4 1_555 1_555
C4 C5 1_555 1_555
C5 C6 1_555 1_555
C6 C7 1_555 1_555
C7 C1 1_555 1_555
C8 C7 1_555 1_555
C9 C8 1_555 1_555
C10 C9 1_555 1_555
C11 C1 1_555 1_555
H1 C1 1_555 1_555
H2 C3 1_555 1_555
H3 C3 1_555 1_555
H4 C4 1_555 1_555
H5 C4 1_555 1_555
H6 C5 1_555 1_555
H7 C5 1_555 1_555
H8 C6 1_555 1_555
H9 C6 1_555 1_555
H10 C8 1_555 1_555
H11 C8 1_555 1_555
H12 C9 1_555 1_555
H13 C9 1_555 1_555
H14 C11 1_555 1_555
C7 C11 1_555 1_555
C10 C11 1_555 1_555

#END
