
#######################################################################
#
#                 Cambridge Crystallographic Data Centre
#                                CCDC 
#
#######################################################################
#
# If this CIF has been generated from an entry in the Cambridge 
# Structural Database, then it will include bibliographic, chemical, 
# crystal, experimental, refinement or atomic coordinate data resulting 
# from the CCDC's data processing and validation procedures.
#
#######################################################################

data_GEBROU
_chemical_formula_moiety         'C16 H20 N2 O10'
_chemical_name_systematic        
2,3,4-Tri-O-acetyl-N-(diacetylamino)-\b-D-glucopyranurono-1,6-lactam
_symmetry_cell_setting           orthorhombic
_symmetry_space_group_name_H-M   'P 21 21 21'
_symmetry_Int_Tables_number      19
_space_group_name_Hall           'P 2ac 2ab'
loop_
_symmetry_equiv_pos_site_id
_symmetry_equiv_pos_as_xyz
1 x,y,z
2 1/2+x,1/2-y,-z
3 -x,1/2+y,1/2-z
4 1/2-x,-y,1/2+z
_cell_length_a                   11.581(1)
_cell_length_b                   15.153(1)
_cell_length_c                   10.787(1)
_cell_angle_alpha                90
_cell_angle_beta                 90
_cell_angle_gamma                90
_cell_volume                     1892.98
_exptl_crystal_colour            colorless
_cell_formula_units_Z            4
loop_
_atom_site_label
_atom_site_type_symbol
_atom_site_fract_x
_atom_site_fract_y
_atom_site_fract_z
C1 C 0.2803(2) 0.4068(2) 0.5684(2)
C2 C 0.3428(3) 0.3185(2) 0.5593(2)
C3 C 0.4598(3) 0.3252(2) 0.4922(3)
C4 C 0.5168(2) 0.4164(2) 0.4925(2)
C5 C 0.4309(2) 0.4905(2) 0.5146(2)
C6 C 0.3428(2) 0.4988(2) 0.4101(3)
C7 C 0.2902(3) 0.2371(2) 0.7381(3)
C8 C 0.3161(4) 0.2236(2) 0.8721(3)
C9 C 0.4685(3) 0.2218(2) 0.3263(3)
C10 C 0.4594(3) 0.2143(2) 0.1883(3)
C11 C 0.6860(2) 0.4762(2) 0.5822(3)
C12 C 0.7639(3) 0.4737(3) 0.6911(3)
C13 C 0.0938(3) 0.5346(2) 0.4579(3)
C14 C -0.0241(3) 0.5630(3) 0.4189(4)
C15 C 0.0922(3) 0.4019(2) 0.3154(3)
C16 C 0.1694(3) 0.3335(2) 0.2602(3)
N1 N 0.2559(2) 0.4401(2) 0.4425(2)
N2 N 0.1423(2) 0.4575(2) 0.4055(2)
O1 O 0.3675(2) 0.2921(1) 0.6855(2)
O2 O 0.4411(2) 0.3051(1) 0.3624(2)
O3 O 0.5994(2) 0.4157(1) 0.5924(2)
O4 O 0.3599(2) 0.4689(1) 0.6188(2)
O5 O 0.3457(2) 0.5456(2) 0.3206(2)
O6 O 0.2123(2) 0.2050(2) 0.6837(2)
O7 O 0.4952(3) 0.1658(1) 0.3974(2)
O8 O 0.6935(2) 0.5260(2) 0.4966(2)
O9 O 0.1506(2) 0.5759(2) 0.5307(2)
O10 O -0.0066(2) 0.4112(2) 0.2835(2)
H1 H 0.209(3) 0.401(2) 0.616(3)
H2 H 0.291(3) 0.274(2) 0.522(3)
H3 H 0.517(3) 0.279(2) 0.528(3)
H4 H 0.561(3) 0.426(2) 0.416(3)
H5 H 0.470(3) 0.549(2) 0.529(3)
H6 H 0.312(3) 0.271(2) 0.906(3)
H7 H 0.251(3) 0.174(2) 0.909(3)
H8 H 0.406(3) 0.222(2) 0.879(3)
H9 H 0.440(3) 0.270(2) 0.149(3)
H10 H 0.495(3) 0.164(2) 0.160(3)
H11 H 0.376(3) 0.189(2) 0.178(3)
H12 H 0.749(3) 0.424(2) 0.742(3)
H13 H 0.835(3) 0.442(2) 0.663(3)
H14 H 0.805(3) 0.520(2) 0.709(3)
H15 H -0.081(3) 0.508(2) 0.446(3)
H16 H -0.045(3) 0.617(2) 0.461(3)
H17 H -0.027(3) 0.571(2) 0.327(3)
H18 H 0.122(3) 0.290(2) 0.192(3)
H19 H 0.201(3) 0.295(2) 0.310(3)
H20 H 0.237(3) 0.360(2) 0.223(3)
loop_
_geom_bond_atom_site_label_1
_geom_bond_atom_site_label_2
_geom_bond_site_symmetry_1
_geom_bond_site_symmetry_2
C1 C2 1_555 1_555
C2 C3 1_555 1_555
C3 C4 1_555 1_555
C4 C5 1_555 1_555
C5 C6 1_555 1_555
C6 N1 1_555 1_555
C7 C8 1_555 1_555
C8 H6 1_555 1_555
C9 C10 1_555 1_555
C10 H9 1_555 1_555
C11 C12 1_555 1_555
C12 H12 1_555 1_555
C13 C14 1_555 1_555
C14 H15 1_555 1_555
C15 C16 1_555 1_555
C16 H18 1_555 1_555
N1 C1 1_555 1_555
N2 C13 1_555 1_555
O1 C2 1_555 1_555
O2 C3 1_555 1_555
O3 C4 1_555 1_555
O4 C1 1_555 1_555
O5 C6 1_555 1_555
O6 C7 1_555 1_555
O7 C9 1_555 1_555
O8 C11 1_555 1_555
O9 C13 1_555 1_555
O10 C15 1_555 1_555
H1 C1 1_555 1_555
H2 C2 1_555 1_555
H3 C3 1_555 1_555
H4 C4 1_555 1_555
H5 C5 1_555 1_555
H7 C8 1_555 1_555
H8 C8 1_555 1_555
H10 C10 1_555 1_555
H11 C10 1_555 1_555
H13 C12 1_555 1_555
H14 C12 1_555 1_555
H16 C14 1_555 1_555
H17 C14 1_555 1_555
H19 C16 1_555 1_555
H20 C16 1_555 1_555
C5 O4 1_555 1_555
C7 O1 1_555 1_555
C9 O2 1_555 1_555
C11 O3 1_555 1_555
C15 N2 1_555 1_555
N1 N2 1_555 1_555

#END
