
#######################################################################
#
#                 Cambridge Crystallographic Data Centre
#                                CCDC 
#
#######################################################################
#
# If this CIF has been generated from an entry in the Cambridge 
# Structural Database, then it will include bibliographic, chemical, 
# crystal, experimental, refinement or atomic coordinate data resulting 
# from the CCDC's data processing and validation procedures.
#
#######################################################################

data_GEBTIS
_chemical_formula_moiety         'C26 H36 S8'
_chemical_name_systematic        
5-(Octylsulfanyl)-2-(5-(octylsulfanyl)thieno[2,3-d][1,3]dithiol-2-ylidene)thieno[2,3-d][1,3]dithiole
_symmetry_cell_setting           monoclinic
_symmetry_space_group_name_H-M   'P 21/a'
_symmetry_Int_Tables_number      14
_space_group_name_Hall           '-P 2yab'
loop_
_symmetry_equiv_pos_site_id
_symmetry_equiv_pos_as_xyz
1 x,y,z
2 1/2-x,1/2+y,-z
3 -x,-y,-z
4 1/2+x,1/2-y,z
_cell_length_a                   10.326
_cell_length_b                   4.214
_cell_length_c                   34.056
_cell_angle_alpha                90
_cell_angle_beta                 94.81
_cell_angle_gamma                90
_cell_volume                     1476.69
_exptl_crystal_colour            orange
_exptl_crystal_description       platelet
_cell_formula_units_Z            2
loop_
_atom_site_label
_atom_site_type_symbol
_atom_site_fract_x
_atom_site_fract_y
_atom_site_fract_z
S1 S 0.15086(8) 0.7056(4) 0.46564(2)
S2 S -0.09066(9) 0.3237(5) 0.44337(3)
S3 S 0.21409(17) 0.6871(10) 0.37878(6)
S4 S 0.1322(2) 0.4594(12) 0.29635(9)
C1 C 0.0111(4) 0.5019(12) 0.48101(12)
C2 C -0.2417(5) 1.076(2) 0.10228(15)
H1 H -0.1797 1.2515 0.0993
H2 H -0.2093 0.8874 0.0887
C3 C -0.1154(4) 0.9072(17) 0.16655(12)
H3 H -0.0532 1.0835 0.1642
H4 H -0.0819 0.7201 0.1530
C4 C 0.1193(4) 0.5927(15) 0.41655(11)
C5 C 0.0095(4) 0.4091(15) 0.40637(11)
C6 C 0.1086(4) 0.4876(12) 0.34690(12)
C7 C -0.2452(5) 1.0002(16) 0.14616(14)
H5 H -0.2779 1.1887 0.1596
H6 H -0.3075 0.8250 0.1490
C8 C 0.0065(4) 0.7224(15) 0.23049(12)
H7 H 0.0727 0.8889 0.2278
H8 H 0.0358 0.5271 0.2177
C9 C -0.0056(4) 0.6578(18) 0.27405(11)
H9 H -0.0838 0.5270 0.2769
H10 H -0.0168 0.8615 0.2878
C10 C -0.1218(4) 0.8288(19) 0.20989(12)
H11 H -0.1521 1.0188 0.2235
H12 H -0.1868 0.6588 0.2123
C11 C -0.3752(9) 1.245(2) 0.0400(2)
H13 H -0.3030 1.3888 0.0357
H14 H -0.4577 1.3485 0.0313
H15 H -0.3662 1.0497 0.0249
C12 C -0.3730(6) 1.168(2) 0.08248(15)
H16 H -0.4345 0.9917 0.0857
H17 H -0.4052 1.3549 0.0964
C13 C 0.0029(8) 0.350(3) 0.3649(2)
H18 H -0.0646 0.2328 0.3510
S1B S -0.15086(8) 0.2944(4) 0.53436(2)
S2B S 0.09066(9) 0.6763(5) 0.55663(3)
S3B S -0.21409(17) 0.3129(10) 0.62122(6)
S4B S -0.1322(2) 0.5406(12) 0.70365(9)
C1B C -0.0111(4) 0.4981(12) 0.51899(12)
C2B C 0.2417(5) -0.076(2) 0.89772(15)
H1B H 0.1797 -0.2515 0.9007
H2B H 0.2093 0.1126 0.9113
C3B C 0.1154(4) 0.0928(17) 0.83345(12)
H3B H 0.0532 -0.0835 0.8358
H4B H 0.0819 0.2799 0.8470
C4B C -0.1193(4) 0.4073(15) 0.58345(11)
C5B C -0.0095(4) 0.5909(15) 0.59363(11)
C6B C -0.1086(4) 0.5124(12) 0.65310(12)
C7B C 0.2452(5) -0.0002(16) 0.85384(14)
H5B H 0.2779 -0.1887 0.8404
H6B H 0.3075 0.1750 0.8510
C8B C -0.0065(4) 0.2776(15) 0.76951(12)
H7B H -0.0727 0.1111 0.7722
H8B H -0.0358 0.4729 0.7823
C9B C 0.0056(4) 0.3422(18) 0.72595(11)
H9B H 0.0838 0.4730 0.7231
H10B H 0.0168 0.1385 0.7122
C10B C 0.1218(4) 0.1712(19) 0.79011(12)
H11B H 0.1521 -0.0188 0.7765
H12B H 0.1868 0.3412 0.7877
C11B C 0.3752(9) -0.245(2) 0.9600(2)
H13B H 0.3030 -0.3888 0.9643
H14B H 0.4577 -0.3485 0.9687
H15B H 0.3662 -0.0497 0.9751
C12B C 0.3730(6) -0.168(2) 0.91752(15)
H16B H 0.4345 0.0083 0.9143
H17B H 0.4052 -0.3549 0.9036
C13B C -0.0029(8) 0.650(3) 0.6351(2)
H18B H 0.0646 0.7672 0.6490
C14? C 0.188(2) 0.648(8) 0.3791(4)
H19? H 0.2659 0.7632 0.3769
H20? H -0.0742 0.4974 0.2769
H21? H -0.0308 0.8552 0.2872
S5? S -0.0279(3) 0.2912(16) 0.35814(11)
S6? S 0.1603(6) 0.503(2) 0.29916(18)
loop_
_geom_bond_atom_site_label_1
_geom_bond_atom_site_label_2
_geom_bond_site_symmetry_1
_geom_bond_site_symmetry_2
S1 C1 1_555 1_555
S2 C1 1_555 1_555
S3 C4 1_555 1_555
S4 C6 1_555 1_555
C1 C1B 1_555 1_555
C2 H1 1_555 1_555
H2 C2 1_555 1_555
C3 H3 1_555 1_555
H4 C3 1_555 1_555
C4 S1 1_555 1_555
C5 S2 1_555 1_555
C6 S3 1_555 1_555
C7 C2 1_555 1_555
H5 C7 1_555 1_555
H6 C7 1_555 1_555
C8 H7 1_555 1_555
H8 C8 1_555 1_555
C9 S4 1_555 1_555
H9 C9 1_555 1_555
H10 C9 1_555 1_555
C10 C3 1_555 1_555
H11 C10 1_555 1_555
H12 C10 1_555 1_555
C11 H13 1_555 1_555
H14 C11 1_555 1_555
H15 C11 1_555 1_555
C12 C2 1_555 1_555
H16 C12 1_555 1_555
H17 C12 1_555 1_555
C13 C5 1_555 1_555
H18 C13 1_555 1_555
S1B C1B 1_555 1_555
S2B C1B 1_555 1_555
S3B C4B 1_555 1_555
S4B C6B 1_555 1_555
C2B H1B 1_555 1_555
H2B C2B 1_555 1_555
C3B H3B 1_555 1_555
H4B C3B 1_555 1_555
C4B S1B 1_555 1_555
C5B S2B 1_555 1_555
C6B S3B 1_555 1_555
C7B C2B 1_555 1_555
H5B C7B 1_555 1_555
H6B C7B 1_555 1_555
C8B H7B 1_555 1_555
H8B C8B 1_555 1_555
C9B S4B 1_555 1_555
H9B C9B 1_555 1_555
H10B C9B 1_555 1_555
C10B C3B 1_555 1_555
H11B C10B 1_555 1_555
H12B C10B 1_555 1_555
C11B H13B 1_555 1_555
H14B C11B 1_555 1_555
H15B C11B 1_555 1_555
C12B C2B 1_555 1_555
H16B C12B 1_555 1_555
H17B C12B 1_555 1_555
C13B C5B 1_555 1_555
H18B C13B 1_555 1_555
C3 C7 1_555 1_555
C4 C5 1_555 1_555
C6 C13 1_555 1_555
C8 C9 1_555 1_555
C8 C10 1_555 1_555
C11 C12 1_555 1_555
C3B C7B 1_555 1_555
C4B C5B 1_555 1_555
C6B C13B 1_555 1_555
C8B C9B 1_555 1_555
C8B C10B 1_555 1_555
C11B C12B 1_555 1_555

#END
