
#######################################################################
#
#                 Cambridge Crystallographic Data Centre
#                                CCDC 
#
#######################################################################
#
# If this CIF has been generated from an entry in the Cambridge 
# Structural Database, then it will include bibliographic, chemical, 
# crystal, experimental, refinement or atomic coordinate data resulting 
# from the CCDC's data processing and validation procedures.
#
#######################################################################

data_GEBWER
_chemical_formula_moiety         'C25 H31 Br1 O2'
_chemical_name_systematic        
'(1,6-Dimethyl-5-(3-methylbutyl)-1,2,3,4-tetrahydronaphthalen-1-yl)methyl 4-bromobenzoate'
_symmetry_cell_setting           monoclinic
_symmetry_space_group_name_H-M   'P 21'
_symmetry_Int_Tables_number      4
_space_group_name_Hall           'P 2yb'
loop_
_symmetry_equiv_pos_site_id
_symmetry_equiv_pos_as_xyz
1 x,y,z
2 -x,1/2+y,-z
_cell_length_a                   17.1323(3)
_cell_length_b                   10.1144(2)
_cell_length_c                   19.8109(5)
_cell_angle_alpha                90
_cell_angle_beta                 103.9085(9)
_cell_angle_gamma                90
_cell_volume                     3332.24
_exptl_crystal_colour            colorless
_exptl_crystal_description       needle
_cell_formula_units_Z            6
loop_
_atom_site_label
_atom_site_type_symbol
_atom_site_fract_x
_atom_site_fract_y
_atom_site_fract_z
Br1 Br 0.62287(2) 1.42959(4) 0.040247(19)
O1 O 0.64111(15) 0.7481(2) 0.04912(13)
O2 O 0.77146(14) 0.8083(2) 0.08103(14)
C1 C 0.8895(10) 0.6791(15) 0.1037(4)
C2 C 0.9318(4) 0.7501(6) 0.1707(3)
H1 H 0.9874 0.7719 0.1684
H2 H 0.9034 0.8343 0.1741
C3 C 0.9345(4) 0.6681(6) 0.2359(3)
H3 H 0.8796 0.6380 0.2364
H4 H 0.9551 0.7228 0.2779
C4 C 0.9893(11) 0.5485(10) 0.237(2)
H5 H 1.0454 0.5793 0.2427
H6 H 0.9873 0.4916 0.2769
C5 C 0.9193(10) 0.7413(15) 0.0429(5)
H7 H 0.8909 0.7006 -0.0010
H8 H 0.9772 0.7262 0.0502
H9 H 0.9086 0.8366 0.0412
C6 C 0.7982(9) 0.6711(5) 0.0827(10)
H10 H 0.7797 0.6294 0.0364
H11 H 0.7775 0.6193 0.1170
C7 C 0.9650(2) 0.4673(3) 0.17003(19)
C8 C 0.9929(2) 0.3355(4) 0.1678(2)
C9 C 0.9682(2) 0.2616(3) 0.1065(2)
C10 C 0.9196(2) 0.3205(4) 0.0494(2)
H12 H 0.9026 0.2707 0.0078
C11 C 0.8946(2) 0.4504(4) 0.05034(19)
H13 H 0.8621 0.4885 0.0092
C12 C 0.9164(2) 0.5264(3) 0.1107(2)
C13 C 0.6931(2) 0.8331(3) 0.06074(18)
C14 C 0.6775(2) 0.9780(3) 0.05417(18)
C15 C 0.5991(2) 1.0217(3) 0.02700(18)
H14 H 0.5573 0.9589 0.0119
C16 C 0.5814(2) 1.1551(4) 0.02181(17)
H15 H 0.5279 1.1848 0.0036
C17 C 0.6439(2) 1.2451(3) 0.04383(18)
C18 C 0.7223(2) 1.2042(4) 0.06951(18)
H16 H 0.7644 1.2670 0.0831
C19 C 0.7386(2) 1.0696(3) 0.07517(19)
H17 H 0.7921 1.0400 0.0936
C20 C 1.0538(2) 0.2746(4) 0.2294(2)
H18 H 1.0923 0.2201 0.2113
H19 H 1.0847 0.3468 0.2574
C21 C 1.0165(2) 0.1889(4) 0.2767(2)
H20 H 0.9766 0.1289 0.2475
H21 H 0.9873 0.2468 0.3026
C22 C 1.0774(3) 0.1055(4) 0.3292(2)
H22 H 1.0470 0.0614 0.3602
C23 C 1.1427(3) 0.1869(5) 0.3754(3)
H23 H 1.1702 0.1338 0.4154
H24 H 1.1188 0.2651 0.3917
H25 H 1.1814 0.2149 0.3490
C24 C 1.1135(4) -0.0020(5) 0.2945(3)
H26 H 1.0708 -0.0605 0.2692
H27 H 1.1516 -0.0530 0.3297
H28 H 1.1418 0.0372 0.2619
C25 C 0.9973(2) 0.1207(4) 0.1005(2)
H29 H 0.9705 0.0843 0.0550
H30 H 0.9844 0.0660 0.1373
H31 H 1.0556 0.1210 0.1054
Br2 Br 0.61912(2) 1.64981(4) 0.48087(2)
O3 O 0.56892(17) 0.9825(2) 0.42541(14)
O4 O 0.63783(15) 1.0357(2) 0.34629(13)
C26 C 0.7298(2) 0.8834(3) 0.31167(17)
C27 C 0.7990(2) 0.9461(3) 0.36633(18)
H32 H 0.8466 0.9555 0.3466
H33 H 0.7829 1.0356 0.3781
C28 C 0.8212(3) 0.8630(4) 0.4320(2)
H34 H 0.7730 0.8488 0.4504
H35 H 0.8618 0.9103 0.4679
C29 C 0.8548(2) 0.7303(4) 0.4166(2)
H36 H 0.8585 0.6712 0.4571
H37 H 0.9098 0.7435 0.4103
C30 C 0.80366(19) 0.6632(3) 0.35185(17)
C31 C 0.8193(2) 0.5302(3) 0.33917(18)
C32 C 0.7738(2) 0.4655(3) 0.28064(18)
C33 C 0.7123(2) 0.5351(3) 0.23593(18)
H38 H 0.6793 0.4910 0.1971
C34 C 0.69851(19) 0.6665(3) 0.24694(17)
H39 H 0.6570 0.7119 0.2149
C35 C 0.7447(2) 0.7347(3) 0.30466(18)
C36 C 0.7230(2) 0.9559(3) 0.24210(19)
H40 H 0.6757 0.9237 0.2078
H41 H 0.7714 0.9391 0.2253
H42 H 0.7177 1.0512 0.2490
C37 C 0.6505(2) 0.8965(3) 0.33358(18)
H43 H 0.6056 0.8626 0.2964
H44 H 0.6527 0.8445 0.3763
C38 C 0.5999(2) 1.0637(3) 0.39596(19)
C39 C 0.6014(2) 1.2076(3) 0.41199(17)
C40 C 0.5698(2) 1.2495(4) 0.46675(19)
H45 H 0.5454 1.1868 0.4908
C41 C 0.5733(2) 1.3809(4) 0.48686(18)
H46 H 0.5512 1.4092 0.5241
C42 C 0.6100(2) 1.4698(3) 0.45113(19)
C43 C 0.6399(2) 1.4330(4) 0.39625(17)
H47 H 0.6636 1.4966 0.3720
C44 C 0.6353(2) 1.3006(3) 0.37620(19)
H48 H 0.6556 1.2739 0.3377
C45 C 0.8850(2) 0.4539(3) 0.38902(19)
H49 H 0.9281 0.5159 0.4115
H50 H 0.9086 0.3885 0.3625
C46 C 0.8535(2) 0.3819(4) 0.44530(19)
H51 H 0.8309 0.4482 0.4722
H52 H 0.8091 0.3225 0.4223
C47 C 0.9169(2) 0.3004(4) 0.4959(2)
H53 H 0.9597 0.3613 0.5218
C48 C 0.8775(3) 0.2308(5) 0.5483(3)
H54 H 0.8355 0.1707 0.5234
H55 H 0.8537 0.2971 0.5733
H56 H 0.9184 0.1804 0.5814
C49 C 0.9550(2) 0.1985(4) 0.4583(2)
H57 H 0.9131 0.1532 0.4237
H58 H 0.9844 0.1339 0.4919
H59 H 0.9924 0.2423 0.4350
C50 C 0.7900(2) 0.3249(4) 0.26261(19)
H60 H 0.8380 0.3224 0.2439
H61 H 0.7437 0.2910 0.2277
H62 H 0.7989 0.2700 0.3045
Br3 Br 0.18489(2) 1.88405(4) 0.13913(2)
O5 O 0.20946(17) 1.2113(3) 0.11730(18)
O6 O 0.33447(15) 1.2718(2) 0.11232(13)
C51 C 0.4290(2) 1.1253(3) 0.19226(18)
C52 C 0.4029(2) 1.1900(3) 0.25323(18)
H63 H 0.3799 1.2782 0.2388
H64 H 0.4507 1.2026 0.2922
C53 C 0.3406(2) 1.1067(4) 0.2783(2)
H65 H 0.2934 1.0904 0.2393
H66 H 0.3223 1.1544 0.3153
C54 C 0.3797(2) 0.9750(3) 0.30639(19)
H67 H 0.4192 0.9916 0.3510
H68 H 0.3377 0.9156 0.3159
C55 C 0.42206(18) 0.9056(3) 0.25722(16)
C56 C 0.4396(2) 0.7696(3) 0.26609(18)
C57 C 0.4758(2) 0.7027(3) 0.21963(19)
C58 C 0.4954(2) 0.7733(3) 0.16558(18)
H69 H 0.5193 0.7286 0.1335
C59 C 0.4804(2) 0.9076(3) 0.15804(17)
H70 H 0.4947 0.9540 0.1211
C60 C 0.4442(2) 0.9766(3) 0.20437(18)
C61 C 0.5041(2) 1.1972(4) 0.1828(2)
H71 H 0.5481 1.1837 0.2242
H72 H 0.4928 1.2919 0.1765
H73 H 0.5197 1.1620 0.1419
C62 C 0.3622(2) 1.1358(3) 0.12373(18)
H74 H 0.3836 1.1058 0.0841
H75 H 0.3166 1.0778 0.1266
C63 C 0.2582(2) 1.2962(4) 0.11374(19)
C64 C 0.2407(2) 1.4401(3) 0.11384(17)
C65 C 0.1649(2) 1.4786(4) 0.1199(2)
H76 H 0.1245 1.4138 0.1192
C66 C 0.1478(2) 1.6105(4) 0.1268(2)
H77 H 0.0964 1.6369 0.1321
C67 C 0.2065(2) 1.7033(3) 0.12597(18)
C68 C 0.2809(2) 1.6690(3) 0.11709(17)
H78 H 0.3198 1.7347 0.1146
C69 C 0.2980(2) 1.5351(3) 0.11187(17)
H79 H 0.3495 1.5089 0.1069
C70 C 0.4181(2) 0.6953(3) 0.32536(18)
H80 H 0.4219 0.7559 0.3652
H81 H 0.4572 0.6227 0.3405
C71 C 0.3330(2) 0.6375(4) 0.30427(17)
H82 H 0.2954 0.7083 0.2824
H83 H 0.3318 0.5682 0.2688
C72 C 0.3027(2) 0.5778(4) 0.3641(2)
H84 H 0.3068 0.6461 0.4013
C73 C 0.2142(3) 0.5397(5) 0.3372(2)
H85 H 0.1832 0.6176 0.3169
H86 H 0.1932 0.5062 0.3758
H87 H 0.2095 0.4709 0.3016
C74 C 0.3526(3) 0.4580(4) 0.3950(2)
H88 H 0.3499 0.3909 0.3588
H89 H 0.3314 0.4211 0.4327
H90 H 0.4086 0.4849 0.4133
C75 C 0.4955(2) 0.5579(3) 0.2266(2)
H91 H 0.5381 0.5430 0.2688
H92 H 0.5138 0.5281 0.1859
H93 H 0.4474 0.5081 0.2297
C76? C 0.9217(17) 0.754(2) 0.0666(9)
C77? C 0.7968(16) 0.6713(9) 0.0956(18)
C78? C 0.8879(15) 0.659(2) 0.1139(7)
C79? C 0.8985(5) 0.7225(10) 0.1855(5)
C80? C 0.9817(5) 0.6890(9) 0.2307(5)
C81? C 0.9867(18) 0.5385(11) 0.238(3)
H94? H 0.9803 0.7595 0.0833
H95? H 0.8982 0.8419 0.0678
H96? H 0.9081 0.7204 0.0188
H97? H 0.7738 0.6162 0.0544
H98? H 0.7758 0.6381 0.1349
H99? H 0.8925 0.8196 0.1805
H100? H 0.8565 0.6894 0.2080
H101? H 0.9894 0.7310 0.2770
H102? H 1.0240 0.7217 0.2086
H103? H 1.0422 0.5138 0.2629
H104? H 0.9502 0.5093 0.2672
loop_
_geom_bond_atom_site_label_1
_geom_bond_atom_site_label_2
_geom_bond_site_symmetry_1
_geom_bond_site_symmetry_2
Br1 C17 1_555 1_555
O1 C13 1_555 1_555
O2 C6 1_555 1_555
C1 C2 1_555 1_555
C2 H1 1_555 1_555
H2 C2 1_555 1_555
C3 C2 1_555 1_555
H3 C3 1_555 1_555
H4 C3 1_555 1_555
C4 C3 1_555 1_555
H5 C4 1_555 1_555
H6 C4 1_555 1_555
C5 C1 1_555 1_555
H7 C5 1_555 1_555
H8 C5 1_555 1_555
H9 C5 1_555 1_555
C6 C1 1_555 1_555
H10 C6 1_555 1_555
H11 C6 1_555 1_555
C7 C4 1_555 1_555
C8 C7 1_555 1_555
C9 C8 1_555 1_555
C10 C9 1_555 1_555
H12 C10 1_555 1_555
C11 C10 1_555 1_555
H13 C11 1_555 1_555
C12 C1 1_555 1_555
C13 O2 1_555 1_555
C14 C13 1_555 1_555
C15 C14 1_555 1_555
H14 C15 1_555 1_555
C16 C15 1_555 1_555
H15 C16 1_555 1_555
C17 C16 1_555 1_555
C18 C17 1_555 1_555
H16 C18 1_555 1_555
C19 C14 1_555 1_555
H17 C19 1_555 1_555
C20 C8 1_555 1_555
H18 C20 1_555 1_555
H19 C20 1_555 1_555
C21 C20 1_555 1_555
H20 C21 1_555 1_555
H21 C21 1_555 1_555
C22 C21 1_555 1_555
H22 C22 1_555 1_555
C23 C22 1_555 1_555
H23 C23 1_555 1_555
H24 C23 1_555 1_555
H25 C23 1_555 1_555
C24 C22 1_555 1_555
H26 C24 1_555 1_555
H27 C24 1_555 1_555
H28 C24 1_555 1_555
C25 C9 1_555 1_555
H29 C25 1_555 1_555
H30 C25 1_555 1_555
H31 C25 1_555 1_555
Br2 C42 1_555 1_555
O3 C38 1_555 1_555
O4 C37 1_555 1_555
C26 C27 1_555 1_555
C27 H32 1_555 1_555
H33 C27 1_555 1_555
C28 C27 1_555 1_555
H34 C28 1_555 1_555
H35 C28 1_555 1_555
C29 C28 1_555 1_555
H36 C29 1_555 1_555
H37 C29 1_555 1_555
C30 C29 1_555 1_555
C31 C30 1_555 1_555
C32 C31 1_555 1_555
C33 C32 1_555 1_555
H38 C33 1_555 1_555
C34 C33 1_555 1_555
H39 C34 1_555 1_555
C35 C26 1_555 1_555
C36 C26 1_555 1_555
H40 C36 1_555 1_555
H41 C36 1_555 1_555
H42 C36 1_555 1_555
C37 C26 1_555 1_555
H43 C37 1_555 1_555
H44 C37 1_555 1_555
C38 O4 1_555 1_555
C39 C38 1_555 1_555
C40 C39 1_555 1_555
H45 C40 1_555 1_555
C41 C40 1_555 1_555
H46 C41 1_555 1_555
C42 C41 1_555 1_555
C43 C42 1_555 1_555
H47 C43 1_555 1_555
C44 C39 1_555 1_555
H48 C44 1_555 1_555
C45 C31 1_555 1_555
H49 C45 1_555 1_555
H50 C45 1_555 1_555
C46 C45 1_555 1_555
H51 C46 1_555 1_555
H52 C46 1_555 1_555
C47 C46 1_555 1_555
H53 C47 1_555 1_555
C48 C47 1_555 1_555
H54 C48 1_555 1_555
H55 C48 1_555 1_555
H56 C48 1_555 1_555
C49 C47 1_555 1_555
H57 C49 1_555 1_555
H58 C49 1_555 1_555
H59 C49 1_555 1_555
C50 C32 1_555 1_555
H60 C50 1_555 1_555
H61 C50 1_555 1_555
H62 C50 1_555 1_555
Br3 C67 1_555 1_555
O5 C63 1_555 1_555
O6 C62 1_555 1_555
C51 C52 1_555 1_555
C52 H63 1_555 1_555
H64 C52 1_555 1_555
C53 C52 1_555 1_555
H65 C53 1_555 1_555
H66 C53 1_555 1_555
C54 C53 1_555 1_555
H67 C54 1_555 1_555
H68 C54 1_555 1_555
C55 C54 1_555 1_555
C56 C55 1_555 1_555
C57 C56 1_555 1_555
C58 C57 1_555 1_555
H69 C58 1_555 1_555
C59 C58 1_555 1_555
H70 C59 1_555 1_555
C60 C51 1_555 1_555
C61 C51 1_555 1_555
H71 C61 1_555 1_555
H72 C61 1_555 1_555
H73 C61 1_555 1_555
C62 C51 1_555 1_555
H74 C62 1_555 1_555
H75 C62 1_555 1_555
C63 O6 1_555 1_555
C64 C63 1_555 1_555
C65 C64 1_555 1_555
H76 C65 1_555 1_555
C66 C65 1_555 1_555
H77 C66 1_555 1_555
C67 C66 1_555 1_555
C68 C67 1_555 1_555
H78 C68 1_555 1_555
C69 C64 1_555 1_555
H79 C69 1_555 1_555
C70 C56 1_555 1_555
H80 C70 1_555 1_555
H81 C70 1_555 1_555
C71 C70 1_555 1_555
H82 C71 1_555 1_555
H83 C71 1_555 1_555
C72 C71 1_555 1_555
H84 C72 1_555 1_555
C73 C72 1_555 1_555
H85 C73 1_555 1_555
H86 C73 1_555 1_555
H87 C73 1_555 1_555
C74 C72 1_555 1_555
H88 C74 1_555 1_555
H89 C74 1_555 1_555
H90 C74 1_555 1_555
C75 C57 1_555 1_555
H91 C75 1_555 1_555
H92 C75 1_555 1_555
H93 C75 1_555 1_555
C7 C12 1_555 1_555
C11 C12 1_555 1_555
C18 C19 1_555 1_555
C30 C35 1_555 1_555
C34 C35 1_555 1_555
C43 C44 1_555 1_555
C55 C60 1_555 1_555
C59 C60 1_555 1_555
C68 C69 1_555 1_555

#END
