
#######################################################################
#
#                 Cambridge Crystallographic Data Centre
#                                CCDC 
#
#######################################################################
#
# If this CIF has been generated from an entry in the Cambridge 
# Structural Database, then it will include bibliographic, chemical, 
# crystal, experimental, refinement or atomic coordinate data resulting 
# from the CCDC's data processing and validation procedures.
#
#######################################################################

data_GECMUZ
_chemical_formula_moiety         'C28 H27 N1 O6 S1'
_chemical_name_systematic        
'ethyl 7a-benzoyl-7-hydroxy-5-methyl-2-((4-methylphenyl)sulfonyl)-1,2,7,7a-tetrahydro-1aH-cyclopropa[b]quinoline-1a-carboxylate'
_symmetry_cell_setting           triclinic
_symmetry_space_group_name_H-M   'P -1'
_symmetry_Int_Tables_number      2
_space_group_name_Hall           '-P 1'
loop_
_symmetry_equiv_pos_site_id
_symmetry_equiv_pos_as_xyz
1 x,y,z
2 -x,-y,-z
_cell_length_a                   9.895(3)
_cell_length_b                   10.405(3)
_cell_length_c                   13.082(4)
_cell_angle_alpha                95.130(6)
_cell_angle_beta                 109.149(5)
_cell_angle_gamma                93.123(5)
_cell_volume                     1262.23
_exptl_crystal_colour            colorless
_exptl_crystal_description       block
_cell_formula_units_Z            2
loop_
_atom_site_label
_atom_site_type_symbol
_atom_site_fract_x
_atom_site_fract_y
_atom_site_fract_z
S1 S 0.45470(4) 0.21008(4) 0.31768(4)
O1 O 0.36928(14) 0.12151(13) 0.22663(11)
O2 O 0.38866(13) 0.29317(12) 0.37644(11)
O3 O 0.99241(12) 0.40863(12) 0.35448(10)
H1 H 1.0487 0.3981 0.4164
O4 O 0.89695(14) 0.67308(12) 0.44137(10)
O5 O 0.53828(14) 0.65340(12) 0.33041(11)
O6 O 0.38501(14) 0.49895(13) 0.21189(11)
N1 N 0.55497(14) 0.30783(13) 0.27214(11)
C1 C 0.60266(18) 0.43677(16) 0.32864(13)
C2 C 0.76463(18) 0.47227(16) 0.36596(13)
C3 C 0.85130(17) 0.35993(16) 0.34376(14)
H2 H 0.8580 0.2986 0.3995
C4 C 0.85053(19) 0.24508(17) 0.16356(14)
H3 H 0.9514 0.2656 0.1853
C5 C 0.7789(2) 0.17353(17) 0.06261(15)
C6 C 0.6312(2) 0.14625(17) 0.03229(15)
H4 H 0.5808 0.0978 -0.0361
C7 C 0.55544(19) 0.18812(16) 0.09945(14)
H5 H 0.4543 0.1689 0.0768
C8 C 0.62820(17) 0.25832(16) 0.20008(13)
C9 C 0.77722(17) 0.28679(16) 0.23260(13)
C10 C 0.69298(18) 0.45893(18) 0.44949(14)
H6 H 0.6827 0.5391 0.4921
H7 H 0.7102 0.3822 0.4902
C11 C 0.8606(2) 0.1293(2) -0.01129(17)
H8 H 0.8827 0.2025 -0.0471
H9 H 0.8019 0.0604 -0.0665
H10 H 0.9501 0.0963 0.0317
C12 C 0.57694(18) 0.12230(16) 0.40956(14)
C13 C 0.60555(19) 0.15107(17) 0.52084(15)
H11 H 0.5564 0.2149 0.5474
C14 C 0.7068(2) 0.08540(17) 0.59268(16)
H12 H 0.7271 0.1053 0.6688
C15 C 0.77928(19) -0.00917(17) 0.55521(16)
C16 C 0.7464(2) -0.03805(18) 0.44303(17)
H13 H 0.7938 -0.1033 0.4164
C17 C 0.6461(2) 0.02623(18) 0.36978(16)
H14 H 0.6246 0.0054 0.2936
C18 C 0.8880(2) -0.08171(19) 0.63383(18)
H15 H 0.8936 -0.0525 0.7085
H16 H 0.9824 -0.0648 0.6261
H17 H 0.8586 -0.1748 0.6178
C19 C 0.50673(18) 0.54236(17) 0.29123(14)
C20 C 0.2778(2) 0.5920(2) 0.1775(2)
H18 H 0.2822 0.6255 0.1101
H19 H 0.2971 0.6661 0.2349
C21 C 0.1348(3) 0.5257(3) 0.1579(3)
H20 H 0.1177 0.4512 0.1025
H21 H 0.0613 0.5859 0.1325
H22 H 0.1302 0.4958 0.2258
C22 C 0.82821(17) 0.60517(16) 0.35745(14)
C23 C 0.81422(18) 0.65013(16) 0.24979(14)
C24 C 0.8939(2) 0.76458(18) 0.24856(15)
H23 H 0.9559 0.8099 0.3152
C25 C 0.8832(2) 0.8126(2) 0.15119(16)
H24 H 0.9370 0.8910 0.1512
C26 C 0.7941(2) 0.7464(2) 0.05366(16)
H25 H 0.7877 0.7788 -0.0132
C27 C 0.7142(2) 0.6329(2) 0.05385(15)
H26 H 0.6521 0.5881 -0.0130
C28 C 0.72468(19) 0.58439(18) 0.15129(14)
H27 H 0.6705 0.5060 0.1508
loop_
_geom_bond_atom_site_label_1
_geom_bond_atom_site_label_2
_geom_bond_site_symmetry_1
_geom_bond_site_symmetry_2
S1 O1 1_555 1_555
O2 S1 1_555 1_555
O3 H1 1_555 1_555
O4 C22 1_555 1_555
O5 C19 1_555 1_555
O6 C19 1_555 1_555
N1 S1 1_555 1_555
C1 N1 1_555 1_555
C2 C1 1_555 1_555
C3 O3 1_555 1_555
H2 C3 1_555 1_555
C4 H3 1_555 1_555
C5 C4 1_555 1_555
C6 C5 1_555 1_555
H4 C6 1_555 1_555
C7 C6 1_555 1_555
H5 C7 1_555 1_555
C8 N1 1_555 1_555
C9 C3 1_555 1_555
C10 C1 1_555 1_555
H6 C10 1_555 1_555
H7 C10 1_555 1_555
C11 C5 1_555 1_555
H8 C11 1_555 1_555
H9 C11 1_555 1_555
H10 C11 1_555 1_555
C12 S1 1_555 1_555
C13 C12 1_555 1_555
H11 C13 1_555 1_555
C14 C13 1_555 1_555
H12 C14 1_555 1_555
C15 C14 1_555 1_555
C16 C15 1_555 1_555
H13 C16 1_555 1_555
C17 C12 1_555 1_555
H14 C17 1_555 1_555
C18 C15 1_555 1_555
H15 C18 1_555 1_555
H16 C18 1_555 1_555
H17 C18 1_555 1_555
C19 C1 1_555 1_555
C20 O6 1_555 1_555
H18 C20 1_555 1_555
H19 C20 1_555 1_555
C21 C20 1_555 1_555
H20 C21 1_555 1_555
H21 C21 1_555 1_555
H22 C21 1_555 1_555
C22 C2 1_555 1_555
C23 C22 1_555 1_555
C24 C23 1_555 1_555
H23 C24 1_555 1_555
C25 C24 1_555 1_555
H24 C25 1_555 1_555
C26 C25 1_555 1_555
H25 C26 1_555 1_555
C27 C26 1_555 1_555
H26 C27 1_555 1_555
C28 C23 1_555 1_555
H27 C28 1_555 1_555
C2 C3 1_555 1_555
C2 C10 1_555 1_555
C4 C9 1_555 1_555
C7 C8 1_555 1_555
C8 C9 1_555 1_555
C16 C17 1_555 1_555
C27 C28 1_555 1_555

#END
