
#######################################################################
#
#                 Cambridge Crystallographic Data Centre
#                                CCDC 
#
#######################################################################
#
# If this CIF has been generated from an entry in the Cambridge 
# Structural Database, then it will include bibliographic, chemical, 
# crystal, experimental, refinement or atomic coordinate data resulting 
# from the CCDC's data processing and validation procedures.
#
#######################################################################

data_GECPUB
_chemical_formula_moiety         'C1 H1 Cl3,C82 H41 B1 O10'
_chemical_name_systematic        
'tetrakis(t-butylperoxo)-(phenylborane-dioxy)-C60fullerene chloroform solvate'
_symmetry_cell_setting           monoclinic
_symmetry_space_group_name_H-M   'P 21/n'
_symmetry_Int_Tables_number      14
_space_group_name_Hall           '-P 2yn'
loop_
_symmetry_equiv_pos_site_id
_symmetry_equiv_pos_as_xyz
1 x,y,z
2 1/2-x,1/2+y,1/2-z
3 -x,-y,-z
4 1/2+x,1/2-y,1/2+z
_cell_length_a                   15.234(3)
_cell_length_b                   15.951(3)
_cell_length_c                   23.802(5)
_cell_angle_alpha                90
_cell_angle_beta                 97.03(3)
_cell_angle_gamma                90
_cell_volume                     5740.35
_exptl_crystal_colour            red
_cell_formula_units_Z            4
loop_
_atom_site_label
_atom_site_type_symbol
_atom_site_fract_x
_atom_site_fract_y
_atom_site_fract_z
B1 B 1.1229(2) 0.9366(2) 0.12548(14)
C1 C 1.10206(17) 0.91211(18) 0.21699(12)
C2 C 1.01922(17) 0.88279(17) 0.17629(11)
C3 C 0.99479(18) 0.78949(17) 0.18166(11)
C4 C 1.05805(19) 0.72181(18) 0.20357(12)
C5 C 1.12461(18) 0.75941(19) 0.25041(12)
C6 C 1.14291(17) 0.84251(19) 0.25622(12)
C7 C 0.93107(18) 0.92585(17) 0.18529(11)
C8 C 0.86740(17) 0.86808(17) 0.18194(11)
C9 C 0.90687(18) 0.78321(17) 0.18014(11)
C10 C 0.84646(18) 1.01075(17) 0.24806(12)
C11 C 0.77951(18) 0.95308(18) 0.24122(12)
C12 C 0.77513(17) 0.88161(18) 0.19707(12)
C13 C 0.74981(18) 0.80656(19) 0.23188(12)
C14 C 0.78508(18) 0.72775(18) 0.22917(12)
C15 C 0.85726(19) 0.70557(18) 0.19222(12)
C16 C 0.5825(2) 0.7672(2) 0.12590(17)
H1 H 0.6390 0.7579 0.1112
H2 H 0.5351 0.7392 0.1013
H3 H 0.5855 0.7443 0.1643
C17 C 0.5568(2) 0.9012(2) 0.06904(15)
H4 H 0.5550 0.9623 0.0730
H5 H 0.5027 0.8820 0.0461
H6 H 0.6083 0.8853 0.0504
C18 C 0.56356(19) 0.8607(2) 0.12728(14)
C19 C 0.4815(2) 0.8783(3) 0.15522(17)
H7 H 0.4905 0.8584 0.1945
H8 H 0.4309 0.8490 0.1346
H9 H 0.4699 0.9387 0.1547
C20 C 1.15842(19) 0.7385(2) 0.35358(13)
C21 C 1.17896(18) 0.8264(2) 0.35957(13)
C22 C 1.16885(18) 0.87719(19) 0.31151(12)
C23 C 1.13062(18) 0.95991(19) 0.31392(13)
C24 C 1.08048(18) 0.97773(18) 0.26019(12)
C25 C 1.00321(18) 1.02129(17) 0.25806(12)
C26 C 0.92432(18) 1.01130(17) 0.21182(12)
C27 C 1.16541(19) 0.96315(19) 0.07235(13)
C28 C 1.2534(2) 0.9917(2) 0.07615(14)
H10 H 1.2874 0.9973 0.1122
C29 C 1.2906(2) 1.0117(3) 0.02780(15)
H11 H 1.3501 1.0305 0.0307
C30 C 1.2411(3) 1.0045(3) -0.02527(15)
H12 H 1.2674 1.0174 -0.0584
C31 C 1.1540(2) 0.9786(3) -0.02976(15)
H13 H 1.1197 0.9755 -0.0658
C32 C 1.1168(2) 0.9572(2) 0.01900(14)
H14 H 1.0573 0.9383 0.0157
C33 C 1.2280(2) 0.6992(2) 0.11906(14)
C34 C 1.2869(2) 0.6840(3) 0.17461(16)
H15 H 1.2956 0.7369 0.1955
H16 H 1.3443 0.6624 0.1667
H17 H 1.2587 0.6431 0.1973
C35 C 1.2644(3) 0.7670(3) 0.08417(18)
H18 H 1.2242 0.7756 0.0492
H19 H 1.3227 0.7501 0.0747
H20 H 1.2699 0.8193 0.1059
C36 C 1.2115(3) 0.6192(3) 0.08482(17)
H21 H 1.1853 0.5769 0.1076
H22 H 1.2677 0.5981 0.0743
H23 H 1.1710 0.6309 0.0505
C37 C 0.8735(2) 0.6543(2) 0.05336(14)
C38 C 0.8494(3) 0.7457(3) 0.04161(18)
H24 H 0.7954 0.7593 0.0582
H25 H 0.8395 0.7551 0.0006
H26 H 0.8979 0.7817 0.0584
C39 C 0.9621(3) 0.6326(4) 0.03392(17)
H27 H 1.0077 0.6705 0.0520
H28 H 0.9581 0.6386 -0.0073
H29 H 0.9777 0.5746 0.0445
C40 C 0.8016(2) 0.5950(3) 0.02956(15)
H30 H 0.8176 0.5377 0.0416
H31 H 0.7944 0.5981 -0.0119
H32 H 0.7459 0.6106 0.0435
C41 C 1.0213(2) 1.17245(19) 0.14363(14)
C42 C 1.0248(3) 1.2157(2) 0.20079(15)
H33 H 0.9658 1.2153 0.2132
H34 H 1.0447 1.2737 0.1975
H35 H 1.0663 1.1859 0.2286
C43 C 0.9555(2) 1.2136(2) 0.09860(14)
H36 H 0.9604 1.1878 0.0617
H37 H 0.9685 1.2736 0.0968
H38 H 0.8954 1.2058 0.1083
C44 C 1.1121(2) 1.1657(2) 0.1246(2)
H39 H 1.1526 1.1384 0.1542
H40 H 1.1342 1.2219 0.1174
H41 H 1.1085 1.1324 0.0898
C45 C 0.87674(19) 1.04192(17) 0.30364(12)
C46 C 1.0217(2) 1.03518(18) 0.36194(13)
C47 C 0.97210(19) 1.04902(17) 0.30990(12)
C48 C 1.10353(19) 0.98897(19) 0.36429(13)
C49 C 0.76426(19) 0.95779(19) 0.34296(13)
C50 C 0.73961(18) 0.92530(19) 0.28911(12)
C51 C 1.14835(19) 0.8563(2) 0.41155(12)
C52 C 1.11200(19) 0.9353(2) 0.41400(12)
C53 C 0.72022(18) 0.83572(19) 0.28321(13)
C54 C 0.72539(18) 0.7845(2) 0.33082(13)
C55 C 1.0185(2) 0.62011(19) 0.33905(14)
C56 C 0.8755(2) 0.62803(18) 0.28114(13)
C57 C 0.9243(2) 0.61102(19) 0.33323(14)
C58 C 0.8929(2) 0.64020(19) 0.38493(14)
C59 C 1.1158(2) 0.7126(2) 0.40201(13)
C60 C 0.7627(2) 0.70214(19) 0.32844(13)
C61 C 0.7940(2) 0.67518(18) 0.27839(13)
C62 C 0.9687(2) 0.6675(2) 0.42301(13)
C63 C 0.8132(2) 0.68420(19) 0.38271(14)
C64 C 1.0464(2) 0.6549(2) 0.39460(14)
C65 C 0.9626(2) 0.7377(2) 0.45775(12)
C66 C 1.0345(2) 0.7976(2) 0.46537(12)
C67 C 0.7520(2) 0.8194(2) 0.38663(13)
C68 C 0.8066(2) 0.7574(2) 0.41880(13)
C69 C 1.1095(2) 0.7857(2) 0.43792(13)
C70 C 0.8801(2) 0.7836(2) 0.45583(13)
C71 C 0.9790(2) 1.01020(19) 0.41053(12)
C72 C 0.8869(2) 1.00191(19) 0.40476(12)
C73 C 0.83521(19) 1.01846(18) 0.35032(13)
C74 C 1.0346(2) 0.9488(2) 0.44215(12)
C75 C 0.77211(19) 0.9040(2) 0.39235(13)
C76 C 0.8472(2) 0.9310(2) 0.43055(12)
C77 C 0.9963(2) 0.8808(2) 0.46759(12)
C78 C 0.9006(2) 0.8719(2) 0.46180(12)
C79 C 0.9192(2) 0.65063(17) 0.23286(12)
C80 C 1.0091(2) 0.65825(18) 0.23804(13)
C81 C 1.13045(19) 0.7062(2) 0.30048(13)
C82 C 1.0597(2) 0.64549(19) 0.29274(13)
O1 O 1.16210(12) 0.94375(13) 0.18018(8)
O2 O 1.04003(12) 0.90139(13) 0.12066(8)
O3 O 1.09777(14) 0.67391(13) 0.16235(9)
O4 O 1.14378(14) 0.73605(13) 0.13032(9)
O5 O 0.81746(13) 0.66328(13) 0.14237(9)
O6 O 0.89451(14) 0.63841(14) 0.11383(9)
O7 O 0.71748(12) 0.89551(13) 0.14599(8)
O8 O 0.62972(12) 0.90528(14) 0.16599(9)
O9 O 0.91298(12) 1.08045(12) 0.17317(8)
O10 O 0.99771(13) 1.08383(13) 0.14844(9)
C83 C 0.0659(3) 0.4761(3) 0.1760(2)
H42 H 0.061(3) 0.537(3) 0.1657(19)
Cl1 Cl 0.14876(6) 0.46667(7) 0.23358(5)
Cl2 Cl 0.09813(9) 0.42121(8) 0.11636(6)
Cl3 Cl -0.03637(7) 0.44455(7) 0.18986(6)
loop_
_geom_bond_atom_site_label_1
_geom_bond_atom_site_label_2
_geom_bond_site_symmetry_1
_geom_bond_site_symmetry_2
B1 C27 1_555 1_555
C1 C2 1_555 1_555
C2 C3 1_555 1_555
C3 C4 1_555 1_555
C4 C5 1_555 1_555
C5 C6 1_555 1_555
C6 C1 1_555 1_555
C7 C2 1_555 1_555
C8 C7 1_555 1_555
C9 C3 1_555 1_555
C10 C11 1_555 1_555
C11 C12 1_555 1_555
C12 C8 1_555 1_555
C13 C12 1_555 1_555
C14 C13 1_555 1_555
C15 C9 1_555 1_555
C16 H1 1_555 1_555
H2 C16 1_555 1_555
H3 C16 1_555 1_555
C17 H4 1_555 1_555
H5 C17 1_555 1_555
H6 C17 1_555 1_555
C18 C16 1_555 1_555
C19 C18 1_555 1_555
H7 C19 1_555 1_555
H8 C19 1_555 1_555
H9 C19 1_555 1_555
C20 C21 1_555 1_555
C21 C22 1_555 1_555
C22 C6 1_555 1_555
C23 C22 1_555 1_555
C24 C1 1_555 1_555
C25 C24 1_555 1_555
C26 C7 1_555 1_555
C27 C28 1_555 1_555
C28 H10 1_555 1_555
C29 C28 1_555 1_555
H11 C29 1_555 1_555
C30 C29 1_555 1_555
H12 C30 1_555 1_555
C31 C30 1_555 1_555
H13 C31 1_555 1_555
C32 C27 1_555 1_555
H14 C32 1_555 1_555
C33 C34 1_555 1_555
C34 H15 1_555 1_555
H16 C34 1_555 1_555
H17 C34 1_555 1_555
C35 C33 1_555 1_555
H18 C35 1_555 1_555
H19 C35 1_555 1_555
H20 C35 1_555 1_555
C36 C33 1_555 1_555
H21 C36 1_555 1_555
H22 C36 1_555 1_555
H23 C36 1_555 1_555
C37 C38 1_555 1_555
C38 H24 1_555 1_555
H25 C38 1_555 1_555
H26 C38 1_555 1_555
C39 C37 1_555 1_555
H27 C39 1_555 1_555
H28 C39 1_555 1_555
H29 C39 1_555 1_555
C40 C37 1_555 1_555
H30 C40 1_555 1_555
H31 C40 1_555 1_555
H32 C40 1_555 1_555
C41 C42 1_555 1_555
C42 H33 1_555 1_555
H34 C42 1_555 1_555
H35 C42 1_555 1_555
C43 C41 1_555 1_555
H36 C43 1_555 1_555
H37 C43 1_555 1_555
H38 C43 1_555 1_555
C44 C41 1_555 1_555
H39 C44 1_555 1_555
H40 C44 1_555 1_555
H41 C44 1_555 1_555
C45 C10 1_555 1_555
C46 C47 1_555 1_555
C47 C25 1_555 1_555
C48 C23 1_555 1_555
C49 C50 1_555 1_555
C50 C11 1_555 1_555
C51 C21 1_555 1_555
C52 C48 1_555 1_555
C53 C13 1_555 1_555
C54 C53 1_555 1_555
C55 C57 1_555 1_555
C56 C57 1_555 1_555
C57 C58 1_555 1_555
C58 C62 1_555 1_555
C59 C20 1_555 1_555
C60 C54 1_555 1_555
C61 C14 1_555 1_555
C62 C64 1_555 1_555
C63 C58 1_555 1_555
C64 C55 1_555 1_555
C65 C62 1_555 1_555
C66 C65 1_555 1_555
C67 C54 1_555 1_555
C68 C63 1_555 1_555
C69 C51 1_555 1_555
C70 C65 1_555 1_555
C71 C46 1_555 1_555
C72 C71 1_555 1_555
C73 C45 1_555 1_555
C74 C52 1_555 1_555
C75 C49 1_555 1_555
C76 C72 1_555 1_555
C77 C66 1_555 1_555
C78 C70 1_555 1_555
C79 C15 1_555 1_555
C80 C4 1_555 1_555
C81 C5 1_555 1_555
C82 C55 1_555 1_555
C83 H42 1_555 1_555
Cl1 C83 1_555 1_555
Cl2 C83 1_555 1_555
Cl3 C83 1_555 1_555
O1 B1 1_555 1_555
O2 B1 1_555 1_555
O3 C4 1_555 1_555
O4 C33 1_555 1_555
O5 C15 1_555 1_555
O6 C37 1_555 1_555
O7 C12 1_555 1_555
O8 C18 1_555 1_555
O9 C26 1_555 1_555
O10 C41 1_555 1_555
C1 O1 1_555 1_555
C2 O2 1_555 1_555
C8 C9 1_555 1_555
C10 C26 1_555 1_555
C14 C15 1_555 1_555
C17 C18 1_555 1_555
C20 C81 1_555 1_555
C23 C24 1_555 1_555
C25 C26 1_555 1_555
C31 C32 1_555 1_555
C45 C47 1_555 1_555
C46 C48 1_555 1_555
C49 C73 1_555 1_555
C50 C53 1_555 1_555
C51 C52 1_555 1_555
C56 C61 1_555 1_555
C56 C79 1_555 1_555
C59 C64 1_555 1_555
C59 C69 1_555 1_555
C60 C61 1_555 1_555
C60 C63 1_555 1_555
C66 C69 1_555 1_555
C67 C68 1_555 1_555
C67 C75 1_555 1_555
C68 C70 1_555 1_555
C71 C74 1_555 1_555
C72 C73 1_555 1_555
C74 C77 1_555 1_555
C75 C76 1_555 1_555
C76 C78 1_555 1_555
C77 C78 1_555 1_555
C79 C80 1_555 1_555
C80 C82 1_555 1_555
C81 C82 1_555 1_555
O3 O4 1_555 1_555
O5 O6 1_555 1_555
O7 O8 1_555 1_555
O9 O10 1_555 1_555

#END
