
#######################################################################
#
#                 Cambridge Crystallographic Data Centre
#                                CCDC 
#
#######################################################################
#
# If this CIF has been generated from an entry in the Cambridge 
# Structural Database, then it will include bibliographic, chemical, 
# crystal, experimental, refinement or atomic coordinate data resulting 
# from the CCDC's data processing and validation procedures.
#
#######################################################################

data_GECQUC
_chemical_formula_moiety         'C11 H20 B10'
_chemical_name_systematic        
4-methyl-3,4-dihydronaphtho(1,2)-1,2-dicarba-closo-dodecaborane
_symmetry_cell_setting           orthorhombic
_symmetry_space_group_name_H-M   'P c a 21'
_symmetry_Int_Tables_number      29
_space_group_name_Hall           'P 2c -2ac'
loop_
_symmetry_equiv_pos_site_id
_symmetry_equiv_pos_as_xyz
1 x,y,z
2 -x,-y,1/2+z
3 1/2+x,-y,z
4 1/2-x,y,1/2+z
_cell_length_a                   15.473(3)
_cell_length_b                   7.6470(16)
_cell_length_c                   13.045(3)
_cell_angle_alpha                90
_cell_angle_beta                 90
_cell_angle_gamma                90
_cell_volume                     1543.51
_exptl_crystal_colour            colorless
_exptl_crystal_description       block
_cell_formula_units_Z            4
loop_
_atom_site_label
_atom_site_type_symbol
_atom_site_fract_x
_atom_site_fract_y
_atom_site_fract_z
C1 C 0.28754(19) 0.1279(5) 0.1967(3)
C2 C 0.37539(16) 0.1740(3) 0.1349(2)
C3 C 0.2053(2) 0.2168(7) 0.1564(4)
H1 H 0.1806 0.1439 0.1031
H2 H 0.1636 0.2232 0.2119
C4 C 0.2180(2) 0.3940(5) 0.1149(3)
H3 H 0.2346 0.4651 0.1741
C5 C 0.29296(19) 0.4097(4) 0.0413(3)
C6 C 0.2926(2) 0.5344(5) -0.0377(3)
H4 H 0.2440 0.6042 -0.0467
C7 C 0.3624(3) 0.5565(5) -0.1023(3)
H5 H 0.3602 0.6407 -0.1537
C8 C 0.4339(3) 0.4560(5) -0.0913(3)
H6 H 0.4809 0.4711 -0.1348
C9 C 0.4362(2) 0.3314(4) -0.0153(3)
H7 H 0.4850 0.2614 -0.0086
C10 C 0.36726(18) 0.3076(4) 0.0518(2)
C11 C 0.1335(2) 0.4731(7) 0.0781(4)
H8 H 0.0899 0.4573 0.1296
H9 H 0.1157 0.4165 0.0159
H10 H 0.1415 0.5958 0.0655
B1 B 0.3625(3) 0.2488(6) 0.2590(3)
H11 H 0.3546 0.3873 0.2798
B2 B 0.3060(3) 0.0807(7) 0.3214(4)
H12 H 0.2602 0.1087 0.3838
B3 B 0.2856(3) -0.0841(7) 0.2343(5)
H13 H 0.2263 -0.1628 0.2400
B4 B 0.3295(4) -0.0259(4) 0.1127(4)
H14 H 0.3004 -0.0669 0.0396
B5 B 0.4613(3) 0.1663(6) 0.2187(3)
H15 H 0.5185 0.2512 0.2135
B6 B 0.4176(4) 0.1001(6) 0.3374(4)
H16 H 0.4462 0.1399 0.4110
B7 B 0.3716(3) -0.1075(6) 0.3208(4)
H17 H 0.3705 -0.2043 0.3831
B8 B 0.3852(4) -0.1734(6) 0.1931(5)
H18 H 0.3923 -0.3119 0.1718
B9 B 0.4432(3) -0.0013(6) 0.1287(4)
H19 H 0.4889 -0.0250 0.0656
B10 B 0.4673(3) -0.0553(7) 0.2576(4)
H20 H 0.5290 -0.1173 0.2784
loop_
_geom_bond_atom_site_label_1
_geom_bond_atom_site_label_2
_geom_bond_site_symmetry_1
_geom_bond_site_symmetry_2
C1 C2 1_555 1_555
C2 C10 1_555 1_555
C3 C1 1_555 1_555
H1 C3 1_555 1_555
H2 C3 1_555 1_555
C4 C3 1_555 1_555
H3 C4 1_555 1_555
C5 C4 1_555 1_555
C6 C5 1_555 1_555
H4 C6 1_555 1_555
C7 C6 1_555 1_555
H5 C7 1_555 1_555
C8 C7 1_555 1_555
H6 C8 1_555 1_555
C9 C8 1_555 1_555
H7 C9 1_555 1_555
C10 C5 1_555 1_555
C11 C4 1_555 1_555
H8 C11 1_555 1_555
H9 C11 1_555 1_555
H10 C11 1_555 1_555
B1 C1 1_555 1_555
H11 B1 1_555 1_555
B2 C1 1_555 1_555
H12 B2 1_555 1_555
B3 C1 1_555 1_555
H13 B3 1_555 1_555
B4 C1 1_555 1_555
H14 B4 1_555 1_555
B5 C2 1_555 1_555
H15 B5 1_555 1_555
B6 B1 1_555 1_555
H16 B6 1_555 1_555
B7 B2 1_555 1_555
H17 B7 1_555 1_555
B8 B3 1_555 1_555
H18 B8 1_555 1_555
B9 C2 1_555 1_555
H19 B9 1_555 1_555
B10 B5 1_555 1_555
H20 B10 1_555 1_555
C2 B1 1_555 1_555
C2 B4 1_555 1_555
C9 C10 1_555 1_555
B1 B2 1_555 1_555
B1 B5 1_555 1_555
B2 B3 1_555 1_555
B2 B6 1_555 1_555
B3 B4 1_555 1_555
B3 B7 1_555 1_555
B4 B8 1_555 1_555
B4 B9 1_555 1_555
B5 B6 1_555 1_555
B5 B9 1_555 1_555
B6 B7 1_555 1_555
B6 B10 1_555 1_555
B7 B8 1_555 1_555
B7 B10 1_555 1_555
B8 B9 1_555 1_555
B8 B10 1_555 1_555
B9 B10 1_555 1_555

#END
