
#######################################################################
#
#                 Cambridge Crystallographic Data Centre
#                                CCDC 
#
#######################################################################
#
# If this CIF has been generated from an entry in the Cambridge 
# Structural Database, then it will include bibliographic, chemical, 
# crystal, experimental, refinement or atomic coordinate data resulting 
# from the CCDC's data processing and validation procedures.
#
#######################################################################

data_GECROX
_chemical_formula_moiety         'C13 H26 B10 Si1'
_chemical_name_systematic        
3-(trimethylsilyl)-3,4-dihydronaphtho(1,2)-1,2-dicarba-closo-dodecaborane
_symmetry_cell_setting           triclinic
_symmetry_space_group_name_H-M   'P -1'
_symmetry_Int_Tables_number      2
_space_group_name_Hall           '-P 1'
loop_
_symmetry_equiv_pos_site_id
_symmetry_equiv_pos_as_xyz
1 x,y,z
2 -x,-y,-z
_cell_length_a                   10.0613(7)
_cell_length_b                   10.4607(7)
_cell_length_c                   11.0846(7)
_cell_angle_alpha                98.6650(10)
_cell_angle_beta                 106.4090(10)
_cell_angle_gamma                116.3450(10)
_cell_volume                     949.78
_exptl_crystal_colour            colorless
_exptl_crystal_description       block
_cell_formula_units_Z            2
loop_
_atom_site_label
_atom_site_type_symbol
_atom_site_fract_x
_atom_site_fract_y
_atom_site_fract_z
Si1 Si 0.91331(6) 1.05832(6) 0.23720(5)
C1 C 0.5755(2) 0.84373(19) 0.19729(16)
C2 C 0.3965(2) 0.6938(2) 0.09213(18)
C3 C 0.6850(2) 0.93777(19) 0.13402(16)
H1 H 0.6501 1.0084 0.1129
C4 C 0.9685(3) 1.1908(3) 0.3996(2)
H2 H 1.0837 1.2475 0.4461
H3 H 0.9202 1.1348 0.4517
H4 H 0.9299 1.2585 0.3845
C5 C 1.0042(3) 0.9373(3) 0.2582(2)
H5 H 1.1181 0.9997 0.3100
H6 H 0.9857 0.8804 0.1726
H7 H 0.9553 0.8696 0.3028
C6 C 0.9954(3) 1.1758(3) 0.1359(2)
H8 H 1.1103 1.2397 0.1818
H9 H 0.9474 1.2366 0.1225
H10 H 0.9707 1.1113 0.0515
C7 C 0.6573(2) 0.8398(2) 0.00003(18)
H11 H 0.7148 0.9061 -0.0429
H12 H 0.7050 0.7784 0.0181
C8 C 0.4845(2) 0.7376(2) -0.09595(17)
C9 C 0.4448(3) 0.7084(3) -0.23231(19)
H13 H 0.5247 0.7591 -0.2623
C10 C 0.2904(3) 0.6066(3) -0.3232(2)
H14 H 0.2668 0.5888 -0.4135
C11 C 0.1710(3) 0.5312(3) -0.2807(2)
H15 H 0.0668 0.4610 -0.3421
C12 C 0.2059(3) 0.5596(3) -0.1465(2)
H16 H 0.1244 0.5091 -0.1178
C13 C 0.3619(2) 0.6632(2) -0.05344(17)
B1 B 0.5432(3) 0.6648(3) 0.1879(2)
H17 H 0.6064 0.6178 0.1482
B2 B 0.6418(3) 0.8089(3) 0.3422(2)
H18 H 0.7698 0.8554 0.4039
B3 B 0.5555(3) 0.9251(3) 0.3321(2)
H19 H 0.6276 1.0466 0.3868
B4 B 0.4012(2) 0.8518(2) 0.1721(2)
H20 H 0.3731 0.9252 0.1219
B5 B 0.3369(3) 0.5535(3) 0.1604(3)
H21 H 0.2657 0.4329 0.1025
B6 B 0.4896(4) 0.6250(3) 0.3221(3)
H22 H 0.5173 0.5507 0.3709
B7 B 0.4986(3) 0.7866(3) 0.4131(2)
H23 H 0.5330 0.8179 0.5213
B8 B 0.3485(3) 0.8129(3) 0.3063(2)
H24 H 0.2853 0.8607 0.3450
B9 B 0.2495(3) 0.6688(3) 0.1515(2)
H25 H 0.1220 0.6228 0.0884
B10 B 0.3095(3) 0.6282(3) 0.3007(3)
H26 H 0.2207 0.5560 0.3360
loop_
_geom_bond_atom_site_label_1
_geom_bond_atom_site_label_2
_geom_bond_site_symmetry_1
_geom_bond_site_symmetry_2
Si1 C3 1_555 1_555
C1 C2 1_555 1_555
C2 C13 1_555 1_555
C3 C1 1_555 1_555
H1 C3 1_555 1_555
C4 Si1 1_555 1_555
H2 C4 1_555 1_555
H3 C4 1_555 1_555
H4 C4 1_555 1_555
C5 Si1 1_555 1_555
H5 C5 1_555 1_555
H6 C5 1_555 1_555
H7 C5 1_555 1_555
C6 Si1 1_555 1_555
H8 C6 1_555 1_555
H9 C6 1_555 1_555
H10 C6 1_555 1_555
C7 C3 1_555 1_555
H11 C7 1_555 1_555
H12 C7 1_555 1_555
C8 C7 1_555 1_555
C9 C8 1_555 1_555
H13 C9 1_555 1_555
C10 C9 1_555 1_555
H14 C10 1_555 1_555
C11 C10 1_555 1_555
H15 C11 1_555 1_555
C12 C11 1_555 1_555
H16 C12 1_555 1_555
C13 C8 1_555 1_555
B1 C1 1_555 1_555
H17 B1 1_555 1_555
B2 C1 1_555 1_555
H18 B2 1_555 1_555
B3 C1 1_555 1_555
H19 B3 1_555 1_555
B4 C1 1_555 1_555
H20 B4 1_555 1_555
B5 C2 1_555 1_555
H21 B5 1_555 1_555
B6 B1 1_555 1_555
H22 B6 1_555 1_555
B7 B2 1_555 1_555
H23 B7 1_555 1_555
B8 B3 1_555 1_555
H24 B8 1_555 1_555
B9 C2 1_555 1_555
H25 B9 1_555 1_555
B10 B5 1_555 1_555
H26 B10 1_555 1_555
C2 B1 1_555 1_555
C2 B4 1_555 1_555
C12 C13 1_555 1_555
B1 B2 1_555 1_555
B1 B5 1_555 1_555
B2 B3 1_555 1_555
B2 B6 1_555 1_555
B3 B4 1_555 1_555
B3 B7 1_555 1_555
B4 B8 1_555 1_555
B4 B9 1_555 1_555
B5 B6 1_555 1_555
B5 B9 1_555 1_555
B6 B7 1_555 1_555
B6 B10 1_555 1_555
B7 B8 1_555 1_555
B7 B10 1_555 1_555
B8 B9 1_555 1_555
B8 B10 1_555 1_555
B9 B10 1_555 1_555

#END
