
#######################################################################
#
#                 Cambridge Crystallographic Data Centre
#                                CCDC 
#
#######################################################################
#
# If this CIF has been generated from an entry in the Cambridge 
# Structural Database, then it will include bibliographic, chemical, 
# crystal, experimental, refinement or atomic coordinate data resulting 
# from the CCDC's data processing and validation procedures.
#
#######################################################################

data_GECRIR
_chemical_formula_moiety         'C13 H22 B10'
_chemical_name_systematic        
3-(cyclopropyl)-3,4-dihydronaphtho(1,2)-1,2-dicarba-closo-dodecaborane
_symmetry_cell_setting           triclinic
_symmetry_space_group_name_H-M   'P -1'
_symmetry_Int_Tables_number      2
_space_group_name_Hall           '-P 1'
loop_
_symmetry_equiv_pos_site_id
_symmetry_equiv_pos_as_xyz
1 x,y,z
2 -x,-y,-z
_cell_length_a                   7.0881(5)
_cell_length_b                   8.7646(6)
_cell_length_c                   13.7310(10)
_cell_angle_alpha                77.5140(10)
_cell_angle_beta                 80.356(2)
_cell_angle_gamma                86.319(2)
_cell_volume                     820.737
_exptl_crystal_colour            colorless
_exptl_crystal_description       block
_cell_formula_units_Z            2
loop_
_atom_site_label
_atom_site_type_symbol
_atom_site_fract_x
_atom_site_fract_y
_atom_site_fract_z
C1 C 0.2002(2) 0.6447(2) 0.78421(12)
C2 C 0.0669(2) 0.6388(2) 0.69598(12)
C3 C 0.1854(3) 0.7964(2) 0.82446(14)
H1 H 0.2767 0.8686 0.7784
C4 C 0.2415(3) 0.7725(3) 0.92724(16)
H2 H 0.1586 0.7030 0.9805
C5 C 0.3125(4) 0.9083(3) 0.9599(2)
H3 H 0.3325 1.0055 0.9104
H4 H 0.2689 0.9201 1.0287
C6 C 0.4409(4) 0.7730(4) 0.9441(2)
H5 H 0.5402 0.7880 0.8853
H6 H 0.4767 0.7026 1.0035
C7 C -0.0117(3) 0.8750(3) 0.82276(17)
H7 H -0.1011 0.8143 0.8761
H8 H -0.0069 0.9774 0.8382
C8 C -0.0888(3) 0.8945(2) 0.72457(16)
C9 C -0.2043(3) 1.0245(3) 0.69295(19)
H9 H -0.2257 1.1022 0.7305
C10 C -0.2874(3) 1.0408(3) 0.60754(18)
H10 H -0.3634 1.1289 0.5877
C11 C -0.2580(3) 0.9274(3) 0.55181(17)
H11 H -0.3149 0.9379 0.4943
C12 C -0.1440(3) 0.7971(2) 0.58075(15)
H12 H -0.1245 0.7200 0.5427
C13 C -0.0584(2) 0.7807(2) 0.66652(13)
B1 B 0.3107(3) 0.6608(3) 0.66028(15)
H13 H 0.3771 0.7676 0.6130
B2 B 0.4140(3) 0.5466(3) 0.76205(16)
H14 H 0.5488 0.5788 0.7810
B3 B 0.2252(3) 0.4623(2) 0.85725(15)
H15 H 0.2379 0.4395 0.9379
B4 B 0.0054(3) 0.5248(2) 0.81511(14)
H16 H -0.1247 0.5440 0.8677
B5 B 0.1848(3) 0.5364(3) 0.60996(16)
H17 H 0.1704 0.5619 0.5295
B6 B 0.4056(3) 0.4725(3) 0.65225(17)
H18 H 0.5360 0.4546 0.5994
B7 B 0.3537(3) 0.3498(3) 0.77400(18)
H19 H 0.4507 0.2522 0.8003
B8 B 0.1004(3) 0.3372(3) 0.80672(17)
H20 H 0.0324 0.2313 0.8543
B9 B -0.0043(3) 0.4529(2) 0.70469(16)
H21 H -0.1407 0.4245 0.6855
B10 B 0.2110(4) 0.3429(3) 0.67961(18)
H22 H 0.2148 0.2409 0.6446
loop_
_geom_bond_atom_site_label_1
_geom_bond_atom_site_label_2
_geom_bond_site_symmetry_1
_geom_bond_site_symmetry_2
C1 C2 1_555 1_555
C2 C13 1_555 1_555
C3 C1 1_555 1_555
H1 C3 1_555 1_555
C4 C3 1_555 1_555
H2 C4 1_555 1_555
C5 C4 1_555 1_555
H3 C5 1_555 1_555
H4 C5 1_555 1_555
C6 C4 1_555 1_555
H5 C6 1_555 1_555
H6 C6 1_555 1_555
C7 C3 1_555 1_555
H7 C7 1_555 1_555
H8 C7 1_555 1_555
C8 C7 1_555 1_555
C9 C8 1_555 1_555
H9 C9 1_555 1_555
C10 C9 1_555 1_555
H10 C10 1_555 1_555
C11 C10 1_555 1_555
H11 C11 1_555 1_555
C12 C11 1_555 1_555
H12 C12 1_555 1_555
C13 C8 1_555 1_555
B1 C1 1_555 1_555
H13 B1 1_555 1_555
B2 C1 1_555 1_555
H14 B2 1_555 1_555
B3 C1 1_555 1_555
H15 B3 1_555 1_555
B4 C1 1_555 1_555
H16 B4 1_555 1_555
B5 C2 1_555 1_555
H17 B5 1_555 1_555
B6 B1 1_555 1_555
H18 B6 1_555 1_555
B7 B2 1_555 1_555
H19 B7 1_555 1_555
B8 B3 1_555 1_555
H20 B8 1_555 1_555
B9 C2 1_555 1_555
H21 B9 1_555 1_555
B10 B5 1_555 1_555
H22 B10 1_555 1_555
C2 B1 1_555 1_555
C2 B4 1_555 1_555
C5 C6 1_555 1_555
C12 C13 1_555 1_555
B1 B2 1_555 1_555
B1 B5 1_555 1_555
B2 B3 1_555 1_555
B2 B6 1_555 1_555
B3 B4 1_555 1_555
B3 B7 1_555 1_555
B4 B8 1_555 1_555
B4 B9 1_555 1_555
B5 B6 1_555 1_555
B5 B9 1_555 1_555
B6 B7 1_555 1_555
B6 B10 1_555 1_555
B7 B8 1_555 1_555
B7 B10 1_555 1_555
B8 B9 1_555 1_555
B8 B10 1_555 1_555
B9 B10 1_555 1_555

#END
