
#######################################################################
#
#                 Cambridge Crystallographic Data Centre
#                                CCDC 
#
#######################################################################
#
# If this CIF has been generated from an entry in the Cambridge 
# Structural Database, then it will include bibliographic, chemical, 
# crystal, experimental, refinement or atomic coordinate data resulting 
# from the CCDC's data processing and validation procedures.
#
#######################################################################

data_GECREN
_chemical_formula_moiety         'C11 H20 B10'
_chemical_name_systematic        
3-methyl-3,4-dihydronaphtho(1,2)-1,2-dicarba-closo-dodecaborane
_symmetry_cell_setting           monoclinic
_symmetry_space_group_name_H-M   'P 21/c'
_symmetry_Int_Tables_number      14
_space_group_name_Hall           '-P 2ybc'
loop_
_symmetry_equiv_pos_site_id
_symmetry_equiv_pos_as_xyz
1 x,y,z
2 -x,1/2+y,1/2-z
3 -x,-y,-z
4 x,1/2-y,1/2+z
_cell_length_a                   12.8608(14)
_cell_length_b                   7.1632(8)
_cell_length_c                   16.7767(18)
_cell_angle_alpha                90
_cell_angle_beta                 101.301(2)
_cell_angle_gamma                90
_cell_volume                     1515.58
_exptl_crystal_colour            colorless
_exptl_crystal_description       block
_cell_formula_units_Z            4
loop_
_atom_site_label
_atom_site_type_symbol
_atom_site_fract_x
_atom_site_fract_y
_atom_site_fract_z
C1 C 0.69481(14) 1.2304(3) 0.08304(11)
C2 C 0.78838(13) 1.0788(2) 0.07133(10)
C3 C 0.65467(19) 1.2161(3) 0.16369(14)
H1 H 0.7053 1.2859 0.2041
C4 C 0.5478(2) 1.3101(5) 0.15910(16)
H2 H 0.5261 1.2977 0.2104
H3 H 0.4963 1.2519 0.1173
H4 H 0.5536 1.4400 0.1466
C5 C 0.6562(2) 1.0199(4) 0.19419(15)
H5 H 0.6003 0.9505 0.1593
H6 H 0.6400 1.0217 0.2483
C6 C 0.75921(17) 0.9171(3) 0.19791(12)
C7 C 0.7935(2) 0.7886(4) 0.26008(14)
H7 H 0.7535 0.7708 0.3000
C8 C 0.8851(2) 0.6882(3) 0.26340(14)
H8 H 0.9071 0.6050 0.3059
C9 C 0.94429(17) 0.7099(3) 0.20438(14)
H9 H 1.0057 0.6402 0.2063
C10 C 0.91218(15) 0.8360(3) 0.14200(12)
H10 H 0.9524 0.8509 0.1020
C11 C 0.82044(14) 0.9407(2) 0.13852(11)
B1 B 0.66361(18) 1.0547(3) 0.01163(14)
H11 H 0.6094 0.9382 0.0164
B2 B 0.61773(19) 1.2870(4) -0.00882(15)
H12 H 0.5329 1.3219 -0.0178
B3 B 0.71638(19) 1.4415(3) 0.04182(16)
H13 H 0.6955 1.5763 0.0659
B4 B 0.82442(18) 1.3083(3) 0.09376(15)
H14 H 0.8738 1.3547 0.1515
B5 B 0.77962(19) 1.0249(3) -0.02910(13)
H15 H 0.8010 0.8884 -0.0512
B6 B 0.6716(2) 1.1594(4) -0.08158(15)
H16 H 0.6220 1.1109 -0.1389
B7 B 0.7036(2) 1.3995(4) -0.06363(16)
H17 H 0.6748 1.5075 -0.1092
B8 B 0.83177(19) 1.4124(3) 0.00005(17)
H18 H 0.8863 1.5287 -0.0040
B9 B 0.87771(17) 1.1814(3) 0.02094(14)
H19 H 0.9625 1.1456 0.0311
B10 B 0.8041(2) 1.2382(4) -0.07645(15)
H20 H 0.8407 1.2413 -0.1305
loop_
_geom_bond_atom_site_label_1
_geom_bond_atom_site_label_2
_geom_bond_site_symmetry_1
_geom_bond_site_symmetry_2
C1 C2 1_555 1_555
C2 C11 1_555 1_555
C3 C1 1_555 1_555
H1 C3 1_555 1_555
C4 C3 1_555 1_555
H2 C4 1_555 1_555
H3 C4 1_555 1_555
H4 C4 1_555 1_555
C5 C3 1_555 1_555
H5 C5 1_555 1_555
H6 C5 1_555 1_555
C6 C5 1_555 1_555
C7 C6 1_555 1_555
H7 C7 1_555 1_555
C8 C7 1_555 1_555
H8 C8 1_555 1_555
C9 C8 1_555 1_555
H9 C9 1_555 1_555
C10 C9 1_555 1_555
H10 C10 1_555 1_555
C11 C6 1_555 1_555
B1 C1 1_555 1_555
H11 B1 1_555 1_555
B2 C1 1_555 1_555
H12 B2 1_555 1_555
B3 C1 1_555 1_555
H13 B3 1_555 1_555
B4 C1 1_555 1_555
H14 B4 1_555 1_555
B5 C2 1_555 1_555
H15 B5 1_555 1_555
B6 B1 1_555 1_555
H16 B6 1_555 1_555
B7 B2 1_555 1_555
H17 B7 1_555 1_555
B8 B3 1_555 1_555
H18 B8 1_555 1_555
B9 C2 1_555 1_555
H19 B9 1_555 1_555
B10 B5 1_555 1_555
H20 B10 1_555 1_555
C2 B1 1_555 1_555
C2 B4 1_555 1_555
C10 C11 1_555 1_555
B1 B2 1_555 1_555
B1 B5 1_555 1_555
B2 B3 1_555 1_555
B2 B6 1_555 1_555
B3 B4 1_555 1_555
B3 B7 1_555 1_555
B4 B8 1_555 1_555
B4 B9 1_555 1_555
B5 B6 1_555 1_555
B5 B9 1_555 1_555
B6 B7 1_555 1_555
B6 B10 1_555 1_555
B7 B8 1_555 1_555
B7 B10 1_555 1_555
B8 B9 1_555 1_555
B8 B10 1_555 1_555
B9 B10 1_555 1_555

#END
