
#######################################################################
#
#                 Cambridge Crystallographic Data Centre
#                                CCDC 
#
#######################################################################
#
# If this CIF has been generated from an entry in the Cambridge 
# Structural Database, then it will include bibliographic, chemical, 
# crystal, experimental, refinement or atomic coordinate data resulting 
# from the CCDC's data processing and validation procedures.
#
#######################################################################

data_GECRIP
_chemical_formula_moiety         'C44 H54 N2 O3'
_chemical_name_systematic        
2,4,9,11-Tetra-t-butyl-14-p-tolyl-13-p-tolylimino-14-azadispiro(5.0.5.3)pentadeca-1,4,8,11-tetraene-3,10,15-trione
_symmetry_cell_setting           monoclinic
_symmetry_space_group_name_H-M   'P 21/c'
_symmetry_Int_Tables_number      14
_space_group_name_Hall           '-P 2ybc'
loop_
_symmetry_equiv_pos_site_id
_symmetry_equiv_pos_as_xyz
1 x,y,z
2 -x,1/2+y,1/2-z
3 -x,-y,-z
4 x,1/2-y,1/2+z
_cell_length_a                   11.149(3)
_cell_length_b                   10.111(7)
_cell_length_c                   36.391(19)
_cell_angle_alpha                90
_cell_angle_beta                 90.93(2)
_cell_angle_gamma                90
_cell_volume                     4101.73
_exptl_crystal_colour            yellow
_chemical_melting_point          231-232deg.C
_cell_formula_units_Z            4
loop_
_atom_site_label
_atom_site_type_symbol
_atom_site_fract_x
_atom_site_fract_y
_atom_site_fract_z
O1 O 0.4766(2) 0.5922(2) 0.41673(7)
O2 O 0.5497(4) 1.0883(4) 0.28180(8)
O3 O 0.0842(3) 0.8638(6) 0.3710(1)
N1 N 0.6044(2) 0.7652(3) 0.43124(7)
N2 N 0.7018(3) 0.9663(3) 0.43432(8)
C1 C 0.6293(3) 0.8930(3) 0.41791(9)
C2 C 0.5522(3) 0.9115(3) 0.38265(9)
C3 C 0.4434(3) 0.8144(3) 0.39137(9)
C4 C 0.5076(3) 0.7067(4) 0.41353(9)
C5 C 0.6224(3) 0.8594(3) 0.35127(9)
C6 C 0.6297(3) 0.9176(4) 0.3186(1)
C7 C 0.5598(4) 1.0418(4) 0.3127(1)
C8 C 0.5042(3) 1.1093(3) 0.34409(9)
C9 C 0.5073(3) 1.0486(3) 0.37664(9)
C10 C 0.7070(4) 0.8649(4) 0.2876(1)
C11 C 0.7729(4) 0.7402(5) 0.2991(1)
C12 C 0.8066(5) 0.9713(6) 0.2801(1)
C13 C 0.6379(5) 0.8323(6) 0.2532(1)
C14 C 0.4451(4) 1.2444(4) 0.3382(1)
C15 C 0.4043(4) 1.3028(4) 0.3745(1)
C16 C 0.3313(5) 1.2267(5) 0.3147(1)
C17 C 0.5325(5) 1.3425(5) 0.3217(2)
C18 C 0.3810(3) 0.7642(4) 0.3576(1)
C19 C 0.2655(3) 0.7805(4) 0.3498(1)
C20 C 0.1909(4) 0.8476(6) 0.3773(1)
C21 C 0.2438(3) 0.8958(4) 0.4121(1)
C22 C 0.3591(3) 0.8800(4) 0.4178(1)
C23 C 0.2071(4) 0.7306(5) 0.3143(1)
C24 C 0.2961(5) 0.6605(6) 0.2902(1)
C25 C 0.1516(5) 0.8473(7) 0.2941(2)
C26 C 0.1104(5) 0.6282(7) 0.3218(2)
C27 C 0.1630(4) 0.9629(5) 0.4404(1)
C28 C 0.2325(5) 1.0040(6) 0.4738(1)
C29 C 0.0643(6) 0.8704(7) 0.4504(2)
C30 C 0.1089(5) 1.0901(6) 0.4244(2)
C31 C 0.7326(3) 1.0929(4) 0.4195(1)
C32 C 0.6993(4) 1.2078(4) 0.4373(1)
C33 C 0.7304(5) 1.3285(4) 0.4235(1)
C34 C 0.7984(4) 1.3429(4) 0.3932(1)
C35 C 0.8333(4) 1.2295(5) 0.3761(1)
C36 C 0.8028(4) 1.1011(4) 0.3888(1)
C37 C 0.8309(7) 1.4768(5) 0.3788(2)
C38 C 0.6650(3) 0.7049(3) 0.46232(9)
C39 C 0.7861(4) 0.6927(4) 0.4632(1)
C40 C 0.8433(4) 0.6352(4) 0.4935(1)
C41 C 0.7777(4) 0.5882(4) 0.5228(1)
C42 C 0.6560(4) 0.6008(4) 0.5209(1)
C43 C 0.5989(3) 0.6588(4) 0.4911(1)
C44 C 0.8413(5) 0.5252(5) 0.5556(1)
H1 H 0.665(3) 0.775(3) 0.3547(9)
H2 H 0.470(3) 1.086(3) 0.3974(9)
H3 H 0.430(3) 0.727(3) 0.3418(9)
H4 H 0.400(3) 0.916(3) 0.4415(9)
H5 H 0.655(3) 1.197(3) 0.4603(9)
H6 H 0.709(3) 1.400(3) 0.4347(9)
H7 H 0.880(3) 1.214(3) 0.3596(9)
H8 H 0.832(3) 1.020(3) 0.3756(8)
H9 H 0.834(3) 0.727(3) 0.4448(9)
H10 H 0.925(3) 0.636(3) 0.4962(9)
H11 H 0.608(3) 0.564(3) 0.5378(9)
H12 H 0.514(3) 0.660(3) 0.4882(9)
H13 H 0.705(3) 0.669(3) 0.3038(9)
H14 H 0.824(3) 0.716(3) 0.2805(9)
H15 H 0.822(3) 0.759(3) 0.3189(9)
H16 H 0.843(3) 0.948(3) 0.2593(9)
H17 H 0.744(3) 0.997(3) 0.2653(8)
H18 H 0.862(3) 0.990(3) 0.3042(9)
H19 H 0.593(3) 0.872(3) 0.2526(9)
H20 H 0.571(3) 0.762(3) 0.2592(9)
H21 H 0.696(3) 0.800(3) 0.2355(9)
H22 H 0.326(3) 1.244(3) 0.3862(9)
H23 H 0.373(3) 1.395(3) 0.3694(9)
H24 H 0.481(3) 1.312(3) 0.3873(9)
H25 H 0.360(3) 1.202(3) 0.2932(9)
H26 H 0.278(3) 1.304(3) 0.3080(9)
H27 H 0.271(3) 1.150(3) 0.3284(9)
H28 H 0.632(3) 1.333(3) 0.3376(9)
H29 H 0.498(3) 1.423(3) 0.3195(9)
H30 H 0.557(3) 1.314(3) 0.3036(9)
H31 H 0.358(3) 0.719(3) 0.2815(9)
H32 H 0.265(3) 0.633(3) 0.2647(9)
H33 H 0.287(3) 0.574(3) 0.3133(9)
H34 H 0.115(3) 0.833(3) 0.2787(9)
H35 H 0.235(3) 0.884(3) 0.2855(9)
H36 H 0.077(3) 0.899(3) 0.3064(9)
H37 H 0.159(3) 0.575(3) 0.3350(9)
H38 H 0.062(3) 0.661(3) 0.3345(9)
H39 H 0.067(3) 0.603(3) 0.2993(9)
H40 H 0.305(3) 0.970(3) 0.4834(9)
H41 H 0.186(3) 1.053(3) 0.4886(9)
H42 H 0.294(3) 1.058(3) 0.4658(9)
H43 H 0.107(3) 0.836(3) 0.4720(9)
H44 H 0.027(3) 0.908(3) 0.4583(9)
H45 H 0.042(3) 0.828(3) 0.4330(9)
H46 H 0.075(3) 1.104(3) 0.4018(9)
H47 H 0.058(3) 1.120(3) 0.4416(9)
H48 H 0.179(3) 1.125(3) 0.4248(9)
H49 H 0.877(3) 1.445(3) 0.3586(8)
H50 H 0.856(9) 1.527(3) 0.3923(9)
H51 H 0.808(3) 1.478(3) 0.3577(8)
H52 H 0.790(3) 0.451(3) 0.5596(9)
H53 H 0.866(3) 0.597(3) 0.5642(9)
H54 H 0.938(3) 0.572(3) 0.5559(9)
loop_
_geom_bond_atom_site_label_1
_geom_bond_atom_site_label_2
_geom_bond_site_symmetry_1
_geom_bond_site_symmetry_2
O1 C4 1_555 1_555
O2 C7 1_555 1_555
O3 C20 1_555 1_555
N1 C1 1_555 1_555
N2 C1 1_555 1_555
C1 C2 1_555 1_555
C2 C3 1_555 1_555
C3 C4 1_555 1_555
C4 N1 1_555 1_555
C5 C2 1_555 1_555
C6 C5 1_555 1_555
C7 C6 1_555 1_555
C8 C7 1_555 1_555
C9 C2 1_555 1_555
C10 C6 1_555 1_555
C11 C10 1_555 1_555
C12 C10 1_555 1_555
C13 C10 1_555 1_555
C14 C8 1_555 1_555
C15 C14 1_555 1_555
C16 C14 1_555 1_555
C17 C14 1_555 1_555
C18 C3 1_555 1_555
C19 C18 1_555 1_555
C20 C19 1_555 1_555
C21 C20 1_555 1_555
C22 C3 1_555 1_555
C23 C19 1_555 1_555
C24 C23 1_555 1_555
C25 C23 1_555 1_555
C26 C23 1_555 1_555
C27 C21 1_555 1_555
C28 C27 1_555 1_555
C29 C27 1_555 1_555
C30 C27 1_555 1_555
C31 N2 1_555 1_555
C32 C31 1_555 1_555
C33 C32 1_555 1_555
C34 C33 1_555 1_555
C35 C34 1_555 1_555
C36 C31 1_555 1_555
C37 C34 1_555 1_555
C38 N1 1_555 1_555
C39 C38 1_555 1_555
C40 C39 1_555 1_555
C41 C40 1_555 1_555
C42 C41 1_555 1_555
C43 C38 1_555 1_555
C44 C41 1_555 1_555
H1 C5 1_555 1_555
H2 C9 1_555 1_555
H3 C18 1_555 1_555
H4 C22 1_555 1_555
H5 C32 1_555 1_555
H6 C33 1_555 1_555
H7 C35 1_555 1_555
H8 C36 1_555 1_555
H9 C39 1_555 1_555
H10 C40 1_555 1_555
H11 C42 1_555 1_555
H12 C43 1_555 1_555
H13 C11 1_555 1_555
H14 C11 1_555 1_555
H15 C11 1_555 1_555
H16 C12 1_555 1_555
H17 C12 1_555 1_555
H18 C12 1_555 1_555
H19 C13 1_555 1_555
H20 C13 1_555 1_555
H21 C13 1_555 1_555
H22 C15 1_555 1_555
H23 C15 1_555 1_555
H24 C15 1_555 1_555
H25 C16 1_555 1_555
H26 C16 1_555 1_555
H27 C16 1_555 1_555
H28 C17 1_555 1_555
H29 C17 1_555 1_555
H30 C17 1_555 1_555
H31 C24 1_555 1_555
H32 C24 1_555 1_555
H33 C24 1_555 1_555
H34 C25 1_555 1_555
H35 C25 1_555 1_555
H36 C25 1_555 1_555
H37 C26 1_555 1_555
H38 C26 1_555 1_555
H39 C26 1_555 1_555
H40 C28 1_555 1_555
H41 C28 1_555 1_555
H42 C28 1_555 1_555
H43 C29 1_555 1_555
H44 C29 1_555 1_555
H45 C29 1_555 1_555
H46 C30 1_555 1_555
H47 C30 1_555 1_555
H48 C30 1_555 1_555
H49 C37 1_555 1_555
H50 C37 1_555 1_555
H51 C37 1_555 1_555
H52 C44 1_555 1_555
H53 C44 1_555 1_555
H54 C44 1_555 1_555
C8 C9 1_555 1_555
C21 C22 1_555 1_555
C35 C36 1_555 1_555
C42 C43 1_555 1_555

#END
