
#######################################################################
#
#                 Cambridge Crystallographic Data Centre
#                                CCDC 
#
#######################################################################
#
# If this CIF has been generated from an entry in the Cambridge 
# Structural Database, then it will include bibliographic, chemical, 
# crystal, experimental, refinement or atomic coordinate data resulting 
# from the CCDC's data processing and validation procedures.
#
#######################################################################

data_GECSIS
_chemical_formula_moiety         'C13 H22 B10'
_chemical_name_systematic        
3-isopropylnaphtho(1,2)-1,2-dicarba-closo-dodecaborane
_symmetry_cell_setting           monoclinic
_symmetry_space_group_name_H-M   'P 21/c'
_symmetry_Int_Tables_number      14
_space_group_name_Hall           '-P 2ybc'
loop_
_symmetry_equiv_pos_site_id
_symmetry_equiv_pos_as_xyz
1 x,y,z
2 -x,1/2+y,1/2-z
3 -x,-y,-z
4 x,1/2-y,1/2+z
_cell_length_a                   16.0766(16)
_cell_length_b                   12.0547(12)
_cell_length_c                   9.1522(9)
_cell_angle_alpha                90
_cell_angle_beta                 105.299(2)
_cell_angle_gamma                90
_cell_volume                     1710.83
_exptl_crystal_colour            colorless
_exptl_crystal_description       block
_cell_formula_units_Z            4
loop_
_atom_site_label
_atom_site_type_symbol
_atom_site_fract_x
_atom_site_fract_y
_atom_site_fract_z
C1 C 0.22357(12) 0.48995(18) 0.1153(2)
C2 C 0.32565(12) 0.46964(17) 0.1183(2)
C3 C 0.19785(13) 0.4587(2) 0.2551(2)
C4 C 0.10410(14) 0.4708(2) 0.2545(3)
H1 H 0.0725 0.4955 0.1530
C5 C 0.0921(2) 0.5572(4) 0.3646(4)
H2 H 0.1159 0.6263 0.3426
H3 H 0.1210 0.5343 0.4657
H4 H 0.0317 0.5664 0.3560
C6 C 0.0679(2) 0.3596(4) 0.2816(7)
H5 H 0.0083 0.3678 0.2802
H6 H 0.0996 0.3313 0.3783
H7 H 0.0728 0.3088 0.2034
C7 C 0.25860(14) 0.4256(2) 0.3775(3)
H8 H 0.2415 0.4147 0.4659
C8 C 0.34898(13) 0.40484(17) 0.3858(2)
C9 C 0.40431(14) 0.36493(19) 0.5195(2)
H9 H 0.3833 0.3537 0.6038
C10 C 0.48919(14) 0.34195(19) 0.5290(3)
H10 H 0.5250 0.3146 0.6187
C11 C 0.52129(14) 0.3594(2) 0.4052(3)
H11 H 0.5788 0.3440 0.4114
C12 C 0.46790(14) 0.39992(19) 0.2719(3)
H12 H 0.4897 0.4118 0.1886
C13 C 0.38216(12) 0.42300(17) 0.2613(2)
B1 B 0.24865(15) 0.3828(2) 0.0077(3)
H13 H 0.2419 0.2941 0.0305
B2 B 0.15832(17) 0.4695(3) -0.0646(3)
H14 H 0.0922 0.4367 -0.0897
B3 B 0.18399(17) 0.6057(2) 0.0104(3)
H15 H 0.1344 0.6608 0.0338
B4 B 0.29054(16) 0.6041(2) 0.1293(3)
H16 H 0.3107 0.6572 0.2302
B5 B 0.33551(17) 0.4346(2) -0.0577(3)
H17 H 0.3855 0.3789 -0.0780
B6 B 0.22907(18) 0.4369(3) -0.1770(3)
H18 H 0.2091 0.3831 -0.2772
B7 B 0.18892(18) 0.5741(3) -0.1758(3)
H19 H 0.1426 0.6096 -0.2753
B8 B 0.27057(19) 0.6565(3) -0.0563(3)
H20 H 0.2776 0.7453 -0.0780
B9 B 0.36077(17) 0.5703(2) 0.0164(3)
H21 H 0.4272 0.6023 0.0438
B10 B 0.29855(19) 0.5521(3) -0.1719(3)
H22 H 0.3239 0.5730 -0.2690
loop_
_geom_bond_atom_site_label_1
_geom_bond_atom_site_label_2
_geom_bond_site_symmetry_1
_geom_bond_site_symmetry_2
C1 C2 1_555 1_555
C2 C13 1_555 1_555
C3 C1 1_555 1_555
C4 C3 1_555 1_555
H1 C4 1_555 1_555
C5 C4 1_555 1_555
H2 C5 1_555 1_555
H3 C5 1_555 1_555
H4 C5 1_555 1_555
C6 C4 1_555 1_555
H5 C6 1_555 1_555
H6 C6 1_555 1_555
H7 C6 1_555 1_555
C7 C3 1_555 1_555
H8 C7 1_555 1_555
C8 C7 1_555 1_555
C9 C8 1_555 1_555
H9 C9 1_555 1_555
C10 C9 1_555 1_555
H10 C10 1_555 1_555
C11 C10 1_555 1_555
H11 C11 1_555 1_555
C12 C11 1_555 1_555
H12 C12 1_555 1_555
C13 C8 1_555 1_555
B1 C1 1_555 1_555
H13 B1 1_555 1_555
B2 C1 1_555 1_555
H14 B2 1_555 1_555
B3 C1 1_555 1_555
H15 B3 1_555 1_555
B4 C1 1_555 1_555
H16 B4 1_555 1_555
B5 C2 1_555 1_555
H17 B5 1_555 1_555
B6 B1 1_555 1_555
H18 B6 1_555 1_555
B7 B2 1_555 1_555
H19 B7 1_555 1_555
B8 B3 1_555 1_555
H20 B8 1_555 1_555
B9 C2 1_555 1_555
H21 B9 1_555 1_555
B10 B5 1_555 1_555
H22 B10 1_555 1_555
C2 B1 1_555 1_555
C2 B4 1_555 1_555
C12 C13 1_555 1_555
B1 B2 1_555 1_555
B1 B5 1_555 1_555
B2 B3 1_555 1_555
B2 B6 1_555 1_555
B3 B4 1_555 1_555
B3 B7 1_555 1_555
B4 B8 1_555 1_555
B4 B9 1_555 1_555
B5 B6 1_555 1_555
B5 B9 1_555 1_555
B6 B7 1_555 1_555
B6 B10 1_555 1_555
B7 B8 1_555 1_555
B7 B10 1_555 1_555
B8 B9 1_555 1_555
B8 B10 1_555 1_555
B9 B10 1_555 1_555

#END
