
#######################################################################
#
#                 Cambridge Crystallographic Data Centre
#                                CCDC 
#
#######################################################################
#
# If this CIF has been generated from an entry in the Cambridge 
# Structural Database, then it will include bibliographic, chemical, 
# crystal, experimental, refinement or atomic coordinate data resulting 
# from the CCDC's data processing and validation procedures.
#
#######################################################################

data_GECTAL
_chemical_formula_moiety         'C14 H18 B10'
_chemical_name_systematic        
phenanthreno(3,4)-1,2-dicarba-closo-dodecaborane
_symmetry_cell_setting           monoclinic
_symmetry_space_group_name_H-M   'P 21/c'
_symmetry_Int_Tables_number      14
_space_group_name_Hall           '-P 2ybc'
loop_
_symmetry_equiv_pos_site_id
_symmetry_equiv_pos_as_xyz
1 x,y,z
2 -x,1/2+y,1/2-z
3 -x,-y,-z
4 x,1/2-y,1/2+z
_cell_length_a                   7.2236(7)
_cell_length_b                   10.5280(9)
_cell_length_c                   21.5618(19)
_cell_angle_alpha                90
_cell_angle_beta                 98.851(2)
_cell_angle_gamma                90
_cell_volume                     1620.25
_exptl_crystal_colour            colorless
_exptl_crystal_description       block
_cell_formula_units_Z            4
loop_
_atom_site_label
_atom_site_type_symbol
_atom_site_fract_x
_atom_site_fract_y
_atom_site_fract_z
C1 C 0.2601(2) 0.19829(18) 0.17942(8)
C2 C 0.2777(2) 0.21770(15) 0.10361(7)
C3 C 0.2146(3) 0.3121(2) 0.21302(9)
H1 H 0.2000 0.3058 0.2550
C4 C 0.1939(3) 0.4235(2) 0.18471(9)
H2 H 0.1641 0.4925 0.2082
C5 C 0.2139(2) 0.44668(17) 0.12008(8)
C6 C 0.1939(2) 0.57400(18) 0.09910(10)
H3 H 0.1685 0.6368 0.1269
C7 C 0.2108(2) 0.60638(18) 0.04012(10)
H4 H 0.1986 0.6910 0.0278
C8 C 0.2466(2) 0.51405(17) -0.00318(8)
C9 C 0.2644(2) 0.54984(19) -0.06493(9)
H5 H 0.2540 0.6352 -0.0760
C10 C 0.2959(3) 0.4640(2) -0.10845(9)
H6 H 0.3070 0.4897 -0.1490
C11 C 0.3115(3) 0.33701(19) -0.09191(8)
H7 H 0.3325 0.2773 -0.1218
C12 C 0.2967(2) 0.29761(17) -0.03244(8)
H8 H 0.3079 0.2115 -0.0229
C13 C 0.2649(2) 0.38405(16) 0.01501(8)
C14 C 0.24971(19) 0.35148(15) 0.07873(8)
B1 B 0.4801(3) 0.1915(2) 0.15773(9)
H9 H 0.5907 0.2631 0.1699
B2 B 0.4124(3) 0.0871(2) 0.21430(10)
H10 H 0.4798 0.0908 0.2636
B3 B 0.1699(3) 0.0543(2) 0.19349(10)
H11 H 0.0801 0.0364 0.2294
B4 B 0.0837(3) 0.1382(2) 0.12422(10)
H12 H -0.0602 0.1753 0.1148
B5 B 0.4454(3) 0.11407(19) 0.08486(9)
H13 H 0.5352 0.1346 0.0492
B6 B 0.5286(3) 0.0288(2) 0.15401(10)
H14 H 0.6728 -0.0078 0.1637
B7 B 0.3384(3) -0.0573(2) 0.17662(11)
H15 H 0.3590 -0.1492 0.2010
B8 B 0.1353(3) -0.0245(2) 0.12085(11)
H16 H 0.0241 -0.0957 0.1090
B9 B 0.2002(3) 0.08089(19) 0.06411(10)
H17 H 0.1308 0.0798 0.0150
B10 B 0.3575(3) -0.0396(2) 0.09555(11)
H18 H 0.3905 -0.1203 0.0667
loop_
_geom_bond_atom_site_label_1
_geom_bond_atom_site_label_2
_geom_bond_site_symmetry_1
_geom_bond_site_symmetry_2
C1 C2 1_555 1_555
C2 C14 1_555 1_555
C3 C1 1_555 1_555
H1 C3 1_555 1_555
C4 C3 1_555 1_555
H2 C4 1_555 1_555
C5 C4 1_555 1_555
C6 C5 1_555 1_555
H3 C6 1_555 1_555
C7 C6 1_555 1_555
H4 C7 1_555 1_555
C8 C7 1_555 1_555
C9 C8 1_555 1_555
H5 C9 1_555 1_555
C10 C9 1_555 1_555
H6 C10 1_555 1_555
C11 C10 1_555 1_555
H7 C11 1_555 1_555
C12 C11 1_555 1_555
H8 C12 1_555 1_555
C13 C8 1_555 1_555
C14 C5 1_555 1_555
B1 C1 1_555 1_555
H9 B1 1_555 1_555
B2 C1 1_555 1_555
H10 B2 1_555 1_555
B3 C1 1_555 1_555
H11 B3 1_555 1_555
B4 C1 1_555 1_555
H12 B4 1_555 1_555
B5 C2 1_555 1_555
H13 B5 1_555 1_555
B6 B1 1_555 1_555
H14 B6 1_555 1_555
B7 B2 1_555 1_555
H15 B7 1_555 1_555
B8 B3 1_555 1_555
H16 B8 1_555 1_555
B9 C2 1_555 1_555
H17 B9 1_555 1_555
B10 B5 1_555 1_555
H18 B10 1_555 1_555
C2 B1 1_555 1_555
C2 B4 1_555 1_555
C12 C13 1_555 1_555
C13 C14 1_555 1_555
B1 B2 1_555 1_555
B1 B5 1_555 1_555
B2 B3 1_555 1_555
B2 B6 1_555 1_555
B3 B4 1_555 1_555
B3 B7 1_555 1_555
B4 B8 1_555 1_555
B4 B9 1_555 1_555
B5 B6 1_555 1_555
B5 B9 1_555 1_555
B6 B7 1_555 1_555
B6 B10 1_555 1_555
B7 B8 1_555 1_555
B7 B10 1_555 1_555
B8 B9 1_555 1_555
B8 B10 1_555 1_555
B9 B10 1_555 1_555

#END
