
#######################################################################
#
#                 Cambridge Crystallographic Data Centre
#                                CCDC 
#
#######################################################################
#
# If this CIF has been generated from an entry in the Cambridge 
# Structural Database, then it will include bibliographic, chemical, 
# crystal, experimental, refinement or atomic coordinate data resulting 
# from the CCDC's data processing and validation procedures.
#
#######################################################################

data_GECTIT
_chemical_formula_moiety         'C13 H22 B10'
_chemical_name_systematic        
(E)-4-(propylidene)-3,4-dihydronaphtho(1,2)-1,2-dicarba-closo-dodecaborane
_symmetry_cell_setting           monoclinic
_symmetry_space_group_name_H-M   'P 21/c'
_symmetry_Int_Tables_number      14
_space_group_name_Hall           '-P 2ybc'
loop_
_symmetry_equiv_pos_site_id
_symmetry_equiv_pos_as_xyz
1 x,y,z
2 -x,1/2+y,1/2-z
3 -x,-y,-z
4 x,1/2-y,1/2+z
_cell_length_a                   12.2022(19)
_cell_length_b                   6.9710(11)
_cell_length_c                   20.539(3)
_cell_angle_alpha                90
_cell_angle_beta                 103.094(3)
_cell_angle_gamma                90
_cell_volume                     1701.65
_exptl_crystal_colour            colorless
_exptl_crystal_description       block
_cell_formula_units_Z            4
loop_
_atom_site_label
_atom_site_type_symbol
_atom_site_fract_x
_atom_site_fract_y
_atom_site_fract_z
C1 C 0.18461(16) 0.6911(3) 0.06384(9)
C2 C 0.29632(15) 0.8281(3) 0.08708(9)
C3 C 0.12479(17) 0.6312(3) 0.11849(10)
H1 H 0.0669 0.7281 0.1216
H2 H 0.0860 0.5074 0.1059
C4 C 0.20418(17) 0.6106(3) 0.18569(10)
C5 C 0.20595(19) 0.4583(3) 0.22506(11)
H3 H 0.2623 0.4596 0.2655
C6 C 0.1311(2) 0.2850(4) 0.21431(12)
H4 H 0.1728 0.1752 0.2012
H5 H 0.0652 0.3106 0.1773
C7 C 0.0908(3) 0.2327(5) 0.27663(14)
H6 H 0.0429 0.1185 0.2678
H7 H 0.0476 0.3398 0.2891
H8 H 0.1558 0.2061 0.3133
C8 C 0.28286(17) 0.7740(3) 0.20643(10)
C9 C 0.31385(18) 0.8291(3) 0.27359(10)
H9 H 0.2831 0.7625 0.3056
C10 C 0.38805(19) 0.9781(4) 0.29442(11)
H10 H 0.4084 1.0117 0.3404
C11 C 0.43282(19) 1.0783(4) 0.24851(11)
H11 H 0.4838 1.1809 0.2628
C12 C 0.40287(17) 1.0283(3) 0.18133(10)
H12 H 0.4338 1.0968 0.1497
C13 C 0.32801(16) 0.8789(3) 0.16002(9)
B1 B 0.31531(19) 0.5905(3) 0.06658(12)
H13 H 0.3564 0.4780 0.1030
B2 B 0.19762(19) 0.5395(4) 0.00071(11)
H14 H 0.1609 0.3917 -0.0066
B3 B 0.1111(2) 0.7470(4) -0.01424(11)
H15 H 0.0174 0.7349 -0.0313
B4 B 0.1738(2) 0.9306(3) 0.04140(12)
H16 H 0.1227 1.0401 0.0614
B5 B 0.3934(2) 0.7788(4) 0.04029(12)
H17 H 0.4867 0.7905 0.0594
B6 B 0.3300(2) 0.5961(4) -0.01695(13)
H18 H 0.3813 0.4866 -0.0367
B7 B 0.2032(2) 0.6930(4) -0.06728(12)
H19 H 0.1708 0.6468 -0.1204
B8 B 0.1887(2) 0.9352(4) -0.04183(13)
H20 H 0.1470 1.0481 -0.0778
B9 B 0.3069(2) 0.9867(4) 0.02462(11)
H21 H 0.3439 1.1341 0.0333
B10 B 0.3250(2) 0.8410(4) -0.04292(13)
H22 H 0.3734 0.8924 -0.0798
loop_
_geom_bond_atom_site_label_1
_geom_bond_atom_site_label_2
_geom_bond_site_symmetry_1
_geom_bond_site_symmetry_2
C1 C2 1_555 1_555
C2 C13 1_555 1_555
C3 C1 1_555 1_555
H1 C3 1_555 1_555
H2 C3 1_555 1_555
C4 C3 1_555 1_555
C5 C4 1_555 1_555
H3 C5 1_555 1_555
C6 C5 1_555 1_555
H4 C6 1_555 1_555
H5 C6 1_555 1_555
C7 C6 1_555 1_555
H6 C7 1_555 1_555
H7 C7 1_555 1_555
H8 C7 1_555 1_555
C8 C4 1_555 1_555
C9 C8 1_555 1_555
H9 C9 1_555 1_555
C10 C9 1_555 1_555
H10 C10 1_555 1_555
C11 C10 1_555 1_555
H11 C11 1_555 1_555
C12 C11 1_555 1_555
H12 C12 1_555 1_555
C13 C8 1_555 1_555
B1 C1 1_555 1_555
H13 B1 1_555 1_555
B2 C1 1_555 1_555
H14 B2 1_555 1_555
B3 C1 1_555 1_555
H15 B3 1_555 1_555
B4 C1 1_555 1_555
H16 B4 1_555 1_555
B5 C2 1_555 1_555
H17 B5 1_555 1_555
B6 B1 1_555 1_555
H18 B6 1_555 1_555
B7 B2 1_555 1_555
H19 B7 1_555 1_555
B8 B3 1_555 1_555
H20 B8 1_555 1_555
B9 C2 1_555 1_555
H21 B9 1_555 1_555
B10 B5 1_555 1_555
H22 B10 1_555 1_555
C2 B1 1_555 1_555
C2 B4 1_555 1_555
C12 C13 1_555 1_555
B1 B2 1_555 1_555
B1 B5 1_555 1_555
B2 B3 1_555 1_555
B2 B6 1_555 1_555
B3 B4 1_555 1_555
B3 B7 1_555 1_555
B4 B8 1_555 1_555
B4 B9 1_555 1_555
B5 B6 1_555 1_555
B5 B9 1_555 1_555
B6 B7 1_555 1_555
B6 B10 1_555 1_555
B7 B8 1_555 1_555
B7 B10 1_555 1_555
B8 B9 1_555 1_555
B8 B10 1_555 1_555
B9 B10 1_555 1_555

#END
