
#######################################################################
#
#                 Cambridge Crystallographic Data Centre
#                                CCDC 
#
#######################################################################
#
# If this CIF has been generated from an entry in the Cambridge 
# Structural Database, then it will include bibliographic, chemical, 
# crystal, experimental, refinement or atomic coordinate data resulting 
# from the CCDC's data processing and validation procedures.
#
#######################################################################

data_GECTIU
_chemical_formula_moiety         'C15 H15 N3 O2'
_chemical_name_systematic        
1-methyl-2-(1-(4-nitrophenyl)ethylidene)-1-phenylhydrazine
_symmetry_cell_setting           orthorhombic
_symmetry_space_group_name_H-M   'P 21 21 21'
_symmetry_Int_Tables_number      19
_space_group_name_Hall           'P 2ac 2ab'
loop_
_symmetry_equiv_pos_site_id
_symmetry_equiv_pos_as_xyz
1 x,y,z
2 1/2+x,1/2-y,-z
3 -x,1/2+y,1/2-z
4 1/2-x,-y,1/2+z
_cell_length_a                   13.3066(6)
_cell_length_b                   13.7374(6)
_cell_length_c                   14.7211(6)
_cell_angle_alpha                90
_cell_angle_beta                 90
_cell_angle_gamma                90
_cell_volume                     2690.99
_exptl_crystal_colour            red
_exptl_crystal_description       block
_cell_formula_units_Z            8
loop_
_atom_site_label
_atom_site_type_symbol
_atom_site_fract_x
_atom_site_fract_y
_atom_site_fract_z
C1 C 0.82106(16) 1.15797(16) -0.01636(16)
C2 C 0.72738(17) 1.18002(17) -0.04969(16)
H1 H 0.7136 1.2425 -0.0744
C3 C 0.65353(16) 1.10935(16) -0.04646(17)
H2 H 0.5880 1.1242 -0.0681
C4 C 0.67330(15) 1.01655(15) -0.01207(16)
C5 C 0.76995(16) 0.99777(17) 0.02237(17)
H3 H 0.7845 0.9356 0.0474
C6 C 0.84368(16) 1.06777(16) 0.02051(17)
H4 H 0.9088 1.0546 0.0440
C7 C 0.59623(15) 0.93820(16) -0.01226(16)
C8 C 0.49217(17) 0.9602(2) -0.0463(2)
H5 H 0.4567 0.8991 -0.0588
H6 H 0.4966 0.9988 -0.1022
H7 H 0.4553 0.9971 -0.0001
C9 C 0.47994(19) 0.78426(19) 0.08365(19)
H8 H 0.5022 0.7549 0.1409
H9 H 0.4201 0.7501 0.0616
H10 H 0.4637 0.8530 0.0937
C10 C 0.60740(15) 0.68520(16) 0.00656(16)
C11 C 0.56358(17) 0.60030(17) 0.04046(17)
H11 H 0.5023 0.6039 0.0734
C12 C 0.60912(19) 0.51087(17) 0.02624(18)
H12 H 0.5787 0.4535 0.0495
C13 C 0.69791(18) 0.50430(17) -0.02128(18)
H13 H 0.7293 0.4429 -0.0301
C14 C 0.74083(17) 0.58770(17) -0.05598(18)
H14 H 0.8017 0.5834 -0.0895
C15 C 0.69613(16) 0.67784(17) -0.04248(16)
H15 H 0.7264 0.7347 -0.0669
N1 N 0.90114(15) 1.23208(15) -0.02101(15)
N2 N 0.62878(13) 0.85418(13) 0.01246(14)
N3 N 0.56023(13) 0.77654(13) 0.01611(14)
O1 O 0.98487(13) 1.21019(13) 0.00658(15)
O2 O 0.88002(14) 1.31236(13) -0.05235(14)
C16 C 0.41025(16) 0.53710(17) 0.25374(16)
C17 C 0.43517(17) 0.62086(18) 0.29945(17)
H16 H 0.5009 0.6295 0.3232
C18 C 0.36311(17) 0.69236(18) 0.31028(17)
H17 H 0.3800 0.7509 0.3410
C19 C 0.26548(16) 0.67987(16) 0.27665(15)
C20 C 0.24398(17) 0.59391(17) 0.22980(17)
H18 H 0.1787 0.5847 0.2051
C21 C 0.31513(17) 0.52230(17) 0.21862(17)
H19 H 0.2992 0.4638 0.1874
C22 C 0.18757(17) 0.75615(16) 0.28937(16)
C23 C 0.21408(19) 0.84648(18) 0.34147(19)
H20 H 0.2525 0.8906 0.3023
H21 H 0.2546 0.8289 0.3946
H22 H 0.1524 0.8790 0.3615
C24 C 0.04018(19) 0.89657(16) 0.21563(19)
H23 H 0.1119 0.9125 0.2176
H24 H 0.0018 0.9479 0.2461
H25 H 0.0183 0.8914 0.1522
C25 C -0.07292(17) 0.76070(16) 0.24886(16)
C26 C -0.15227(19) 0.81365(19) 0.21251(18)
H26 H -0.1420 0.8792 0.1941
C27 C -0.2464(2) 0.7716(2) 0.2028(2)
H27 H -0.3001 0.8086 0.1779
C28 C -0.2631(2) 0.6770(2) 0.22881(19)
H28 H -0.3271 0.6478 0.2205
C29 C -0.18520(19) 0.62507(18) 0.26719(19)
H29 H -0.1963 0.5599 0.2864
C30 C -0.09119(18) 0.66631(16) 0.27824(18)
H30 H -0.0389 0.6299 0.3061
N4 N 0.48734(15) 0.46179(15) 0.24083(15)
N5 N 0.10027(14) 0.73401(13) 0.25656(13)
N6 N 0.02303(14) 0.80366(13) 0.26183(13)
O3 O 0.46537(14) 0.38925(14) 0.19615(14)
O4 O 0.57073(12) 0.47499(14) 0.27435(14)
loop_
_geom_bond_atom_site_label_1
_geom_bond_atom_site_label_2
_geom_bond_site_symmetry_1
_geom_bond_site_symmetry_2
C1 C2 1_555 1_555
C2 H1 1_555 1_555
C3 C2 1_555 1_555
H2 C3 1_555 1_555
C4 C3 1_555 1_555
C5 C4 1_555 1_555
H3 C5 1_555 1_555
C6 C1 1_555 1_555
H4 C6 1_555 1_555
C7 C4 1_555 1_555
C8 C7 1_555 1_555
H5 C8 1_555 1_555
H6 C8 1_555 1_555
H7 C8 1_555 1_555
C9 H8 1_555 1_555
H9 C9 1_555 1_555
H10 C9 1_555 1_555
C10 C11 1_555 1_555
C11 H11 1_555 1_555
C12 C11 1_555 1_555
H12 C12 1_555 1_555
C13 C12 1_555 1_555
H13 C13 1_555 1_555
C14 C13 1_555 1_555
H14 C14 1_555 1_555
C15 C10 1_555 1_555
H15 C15 1_555 1_555
N1 C1 1_555 1_555
N2 C7 1_555 1_555
N3 C9 1_555 1_555
O1 N1 1_555 1_555
O2 N1 1_555 1_555
C16 C17 1_555 1_555
C17 H16 1_555 1_555
C18 C17 1_555 1_555
H17 C18 1_555 1_555
C19 C18 1_555 1_555
C20 C19 1_555 1_555
H18 C20 1_555 1_555
C21 C16 1_555 1_555
H19 C21 1_555 1_555
C22 C19 1_555 1_555
C23 C22 1_555 1_555
H20 C23 1_555 1_555
H21 C23 1_555 1_555
H22 C23 1_555 1_555
C24 H23 1_555 1_555
H24 C24 1_555 1_555
H25 C24 1_555 1_555
C25 C26 1_555 1_555
C26 H26 1_555 1_555
C27 C26 1_555 1_555
H27 C27 1_555 1_555
C28 C27 1_555 1_555
H28 C28 1_555 1_555
C29 C28 1_555 1_555
H29 C29 1_555 1_555
C30 C25 1_555 1_555
H30 C30 1_555 1_555
N4 C16 1_555 1_555
N5 C22 1_555 1_555
N6 C24 1_555 1_555
O3 N4 1_555 1_555
O4 N4 1_555 1_555
C5 C6 1_555 1_555
C10 N3 1_555 1_555
C14 C15 1_555 1_555
N2 N3 1_555 1_555
C20 C21 1_555 1_555
C25 N6 1_555 1_555
C29 C30 1_555 1_555
N5 N6 1_555 1_555

#END
