
#######################################################################
#
#                 Cambridge Crystallographic Data Centre
#                                CCDC 
#
#######################################################################
#
# If this CIF has been generated from an entry in the Cambridge 
# Structural Database, then it will include bibliographic, chemical, 
# crystal, experimental, refinement or atomic coordinate data resulting 
# from the CCDC's data processing and validation procedures.
#
#######################################################################

data_GECTUF
_chemical_formula_moiety         'C18 H18 S3'
_chemical_name_systematic        
1,2-Dipropylthieno[3',2':4,5]thieno[2,3-b][1]benzothiophene
_symmetry_cell_setting           triclinic
_symmetry_space_group_name_H-M   'P -1'
_symmetry_Int_Tables_number      2
_space_group_name_Hall           '-P 1'
loop_
_symmetry_equiv_pos_site_id
_symmetry_equiv_pos_as_xyz
1 x,y,z
2 -x,-y,-z
_cell_length_a                   7.8716(16)
_cell_length_b                   9.829(2)
_cell_length_c                   10.717(2)
_cell_angle_alpha                84.86(3)
_cell_angle_beta                 76.51(3)
_cell_angle_gamma                77.81(3)
_cell_volume                     787.408
_cell_formula_units_Z            2
loop_
_atom_site_label
_atom_site_type_symbol
_atom_site_fract_x
_atom_site_fract_y
_atom_site_fract_z
C1 C 0.3513(3) 0.4450(2) 0.2222(2)
C2 C 0.3019(3) 0.5741(2) 0.4141(2)
C3 C 0.1926(3) 0.5407(2) 0.64603(19)
C4 C 0.1956(3) 0.4246(2) 0.5829(2)
C5 C 0.2592(3) 0.4433(2) 0.44523(19)
C6 C 0.2896(3) 0.3658(2) 0.33016(19)
C7 C 0.2758(3) 0.2296(2) 0.2940(2)
C8 C 0.2193(3) 0.1148(2) 0.3677(2)
H1 H 0.1837 0.1188 0.4585
C9 C 0.2154(4) -0.0036(3) 0.3086(2)
H2 H 0.1787 -0.0807 0.3598
C10 C 0.2642(4) -0.0122(3) 0.1752(2)
H3 H 0.2592 -0.0941 0.1365
C11 C 0.3199(3) 0.0984(3) 0.0996(2)
H4 H 0.3534 0.0934 0.0088
C12 C 0.3260(3) 0.2175(2) 0.1588(2)
C13 C 0.1441(3) 0.2940(2) 0.6520(2)
H5 H 0.0729 0.2564 0.6034
H6 H 0.0683 0.3175 0.7379
C14 C 0.3055(3) 0.1819(2) 0.6679(2)
H7 H 0.3856 0.1635 0.5825
H8 H 0.3720 0.2174 0.7216
C15 C 0.2564(4) 0.0452(3) 0.7294(3)
H9 H 0.1766 0.0625 0.8139
H10 H 0.3648 -0.0212 0.7393
H11 H 0.1961 0.0067 0.6745
C16 C 0.1362(3) 0.5627(2) 0.78894(19)
H12 H 0.2125 0.4908 0.8332
H13 H 0.0120 0.5489 0.8195
C17 C 0.1467(3) 0.7062(2) 0.8277(2)
H14 H 0.2709 0.7205 0.7986
H15 H 0.0703 0.7789 0.7840
C18 C 0.0873(4) 0.7226(3) 0.9724(2)
H16 H -0.0330 0.7030 1.0024
H17 H 0.0869 0.8181 0.9922
H18 H 0.1698 0.6571 1.0155
S1 S 0.39155(8) 0.36666(6) 0.07702(5)
S2 S 0.37571(8) 0.60960(6) 0.25117(5)
S3 S 0.26811(8) 0.67428(6) 0.54308(5)
loop_
_geom_bond_atom_site_label_1
_geom_bond_atom_site_label_2
_geom_bond_site_symmetry_1
_geom_bond_site_symmetry_2
C1 C6 1_555 1_555
C2 C5 1_555 1_555
C3 C4 1_555 1_555
C4 C5 1_555 1_555
C5 C6 1_555 1_555
C6 C7 1_555 1_555
C7 C8 1_555 1_555
C8 H1 1_555 1_555
C9 C8 1_555 1_555
H2 C9 1_555 1_555
C10 C9 1_555 1_555
H3 C10 1_555 1_555
C11 C10 1_555 1_555
H4 C11 1_555 1_555
C12 C7 1_555 1_555
C13 C4 1_555 1_555
H5 C13 1_555 1_555
H6 C13 1_555 1_555
C14 C13 1_555 1_555
H7 C14 1_555 1_555
H8 C14 1_555 1_555
C15 C14 1_555 1_555
H9 C15 1_555 1_555
H10 C15 1_555 1_555
H11 C15 1_555 1_555
C16 C3 1_555 1_555
H12 C16 1_555 1_555
H13 C16 1_555 1_555
C17 C16 1_555 1_555
H14 C17 1_555 1_555
H15 C17 1_555 1_555
C18 C17 1_555 1_555
H16 C18 1_555 1_555
H17 C18 1_555 1_555
H18 C18 1_555 1_555
S1 C1 1_555 1_555
S2 C1 1_555 1_555
S3 C2 1_555 1_555
C2 S2 1_555 1_555
C3 S3 1_555 1_555
C11 C12 1_555 1_555
C12 S1 1_555 1_555

#END
