
#######################################################################
#
#                 Cambridge Crystallographic Data Centre
#                                CCDC 
#
#######################################################################
#
# If this CIF has been generated from an entry in the Cambridge 
# Structural Database, then it will include bibliographic, chemical, 
# crystal, experimental, refinement or atomic coordinate data resulting 
# from the CCDC's data processing and validation procedures.
#
#######################################################################

data_GECVIW
_chemical_formula_moiety         'C26 H22 Ba1 Cl2 N6 O10'
_chemical_name_systematic        
bis(perchlorato)-bis(N'-(pyridin-2-ylmethylene)benzohydrazide)-barium(ii)
_symmetry_cell_setting           triclinic
_symmetry_space_group_name_H-M   'P -1'
_symmetry_Int_Tables_number      2
_space_group_name_Hall           '-P 1'
loop_
_symmetry_equiv_pos_site_id
_symmetry_equiv_pos_as_xyz
1 x,y,z
2 -x,-y,-z
_cell_length_a                   10.1994(3)
_cell_length_b                   11.9917(5)
_cell_length_c                   13.6801(6)
_cell_angle_alpha                73.597(2)
_cell_angle_beta                 71.614(2)
_cell_angle_gamma                82.635(2)
_cell_volume                     1521.75
_exptl_crystal_colour            colorless
_exptl_crystal_description       prism
_cell_formula_units_Z            2
loop_
_atom_site_label
_atom_site_type_symbol
_atom_site_fract_x
_atom_site_fract_y
_atom_site_fract_z
C1 C 0.4201(4) 0.9051(4) 0.2414(4)
H1 H 0.4867 0.9618 0.2002
C2 C 0.2805(4) 0.9407(4) 0.2666(4)
H2 H 0.2530 1.0202 0.2438
C3 C 0.1826(4) 0.8582(4) 0.3253(3)
H3 H 0.0869 0.8801 0.3445
C4 C 0.2272(4) 0.7430(4) 0.3553(3)
H4 H 0.1625 0.6840 0.3936
C5 C 0.3684(4) 0.7154(3) 0.3281(3)
C6 C 0.4177(4) 0.5941(3) 0.3624(3)
H5 H 0.3534 0.5343 0.3970
C7 C 0.7243(4) 0.4254(3) 0.3581(3)
C8 C 0.7659(4) 0.3001(3) 0.3881(3)
C9 C 0.6715(4) 0.2118(3) 0.4336(3)
H6 H 0.5751 0.2309 0.4497
C10 C 0.7184(4) 0.0960(4) 0.4556(4)
H7 H 0.6543 0.0357 0.4871
C11 C 0.8593(4) 0.0690(4) 0.4312(4)
H8 H 0.8916 -0.0101 0.4448
C12 C 0.9534(4) 0.1562(4) 0.3873(4)
H9 H 1.0498 0.1369 0.3721
C13 C 0.9066(4) 0.2719(4) 0.3655(3)
H10 H 0.9710 0.3319 0.3351
C14 C 1.1155(5) 0.5820(4) 0.1747(4)
H11 H 1.0541 0.5199 0.2076
C15 C 1.2557(5) 0.5548(4) 0.1391(4)
H12 H 1.2888 0.4759 0.1480
C16 C 1.3461(4) 0.6431(4) 0.0909(4)
H13 H 1.4428 0.6266 0.0665
C17 C 1.2933(4) 0.7568(4) 0.0785(3)
H14 H 1.3528 0.8201 0.0438
C18 C 1.1518(4) 0.7765(4) 0.1178(3)
C19 C 1.0962(4) 0.8964(4) 0.1100(3)
H15 H 1.1555 0.9595 0.0726
C20 C 0.7857(4) 1.0524(3) 0.1908(3)
C21 C 0.7347(4) 1.1757(4) 0.1778(3)
C22 C 0.8217(5) 1.2693(4) 0.1300(4)
H16 H 0.9189 1.2560 0.1052
C23 C 0.7647(5) 1.3824(4) 0.1189(4)
H17 H 0.8235 1.4463 0.0861
C24 C 0.6244(5) 1.4022(4) 0.1549(4)
H18 H 0.5865 1.4797 0.1465
C25 C 0.5372(5) 1.3090(4) 0.2037(4)
H19 H 0.4400 1.3227 0.2292
C26 C 0.5927(4) 1.1975(4) 0.2145(4)
H20 H 0.5333 1.1340 0.2477
N1 N 0.4645(3) 0.7949(3) 0.2726(3)
N2 N 0.5465(3) 0.5696(3) 0.3457(3)
N3 N 0.5856(3) 0.4545(3) 0.3809(3)
H21 H 0.5237 0.4015 0.4168
N4 N 1.0622(3) 0.6906(3) 0.1652(3)
N5 N 0.9681(3) 0.9163(3) 0.1533(3)
N6 N 0.9218(3) 1.0310(3) 0.1442(3)
H22 H 0.9784 1.0883 0.1095
O1 O 0.8097(3) 0.5016(2) 0.3132(3)
O2 O 0.7076(3) 0.9715(3) 0.2390(3)
O3 O 0.6588(3) 0.6826(3) 0.4823(3)
O4 O 0.8784(3) 0.7555(3) 0.4158(3)
O5 O 0.7211(4) 0.8047(3) 0.5659(3)
O6 O 0.8149(4) 0.6181(3) 0.5814(3)
O7 O 0.6835(8) 0.6775(8) 0.0813(7)
O8 O 0.8331(8) 0.8314(7) 0.0160(7)
O9 O 0.6215(8) 0.8477(7) -0.0301(7)
O10 O 0.8162(8) 0.7267(7) -0.1001(6)
Cl1 Cl 0.77010(11) 0.71562(9) 0.51261(9)
Cl2 Cl 0.74007(11) 0.77653(11) -0.01029(9)
Ba1 Ba 0.76192(2) 0.738531(19) 0.250922(18)
O11? O 0.7507(8) 0.6741(8) 0.0649(7)
O12? O 0.7283(8) 0.8736(7) 0.0472(6)
O13? O 0.6239(8) 0.7879(7) -0.0442(7)
O14? O 0.8516(8) 0.8093(7) -0.1035(6)
loop_
_geom_bond_atom_site_label_1
_geom_bond_atom_site_label_2
_geom_bond_site_symmetry_1
_geom_bond_site_symmetry_2
C1 H1 1_555 1_555
C2 C1 1_555 1_555
H2 C2 1_555 1_555
C3 C2 1_555 1_555
H3 C3 1_555 1_555
C4 C3 1_555 1_555
H4 C4 1_555 1_555
C5 C4 1_555 1_555
C6 C5 1_555 1_555
H5 C6 1_555 1_555
C7 C8 1_555 1_555
C8 C9 1_555 1_555
C9 H6 1_555 1_555
C10 C9 1_555 1_555
H7 C10 1_555 1_555
C11 C10 1_555 1_555
H8 C11 1_555 1_555
C12 C11 1_555 1_555
H9 C12 1_555 1_555
C13 C8 1_555 1_555
H10 C13 1_555 1_555
C14 H11 1_555 1_555
C15 C14 1_555 1_555
H12 C15 1_555 1_555
C16 C15 1_555 1_555
H13 C16 1_555 1_555
C17 C16 1_555 1_555
H14 C17 1_555 1_555
C18 C17 1_555 1_555
C19 C18 1_555 1_555
H15 C19 1_555 1_555
C20 C21 1_555 1_555
C21 C22 1_555 1_555
C22 H16 1_555 1_555
C23 C22 1_555 1_555
H17 C23 1_555 1_555
C24 C23 1_555 1_555
H18 C24 1_555 1_555
C25 C24 1_555 1_555
H19 C25 1_555 1_555
C26 C21 1_555 1_555
H20 C26 1_555 1_555
N1 C1 1_555 1_555
N2 C6 1_555 1_555
N3 C7 1_555 1_555
H21 N3 1_555 1_555
N4 C14 1_555 1_555
N5 C19 1_555 1_555
N6 C20 1_555 1_555
H22 N6 1_555 1_555
O1 C7 1_555 1_555
O2 C20 1_555 1_555
O3 Cl1 1_555 1_555
O4 Cl1 1_555 1_555
O5 Cl1 1_555 1_555
O6 Cl1 1_555 1_555
O7 Cl2 1_555 1_555
O8 Cl2 1_555 1_555
O9 Cl2 1_555 1_555
O10 Cl2 1_555 1_555
Ba1 N1 1_555 1_555
C5 N1 1_555 1_555
C12 C13 1_555 1_555
C18 N4 1_555 1_555
C25 C26 1_555 1_555
N2 N3 1_555 1_555
N2 Ba1 1_555 1_555
N4 Ba1 1_555 1_555
N5 N6 1_555 1_555
N5 Ba1 1_555 1_555
O1 Ba1 1_555 1_555
O2 Ba1 1_555 1_555
O3 Ba1 1_555 1_555
O4 Ba1 1_555 1_555
O7 Ba1 1_555 1_555
O8 Ba1 1_555 1_555

#END
