
#######################################################################
#
#                 Cambridge Crystallographic Data Centre
#                                CCDC 
#
#######################################################################
#
# If this CIF has been generated from an entry in the Cambridge 
# Structural Database, then it will include bibliographic, chemical, 
# crystal, experimental, refinement or atomic coordinate data resulting 
# from the CCDC's data processing and validation procedures.
#
#######################################################################

data_GECWUJ
_chemical_compound_source        
'air-dried leaves of Millettia oblata ssp. teitensis'
_chemical_name_common            'Oblarotenoid C'
_chemical_formula_moiety         'C18 H14 O6'
_chemical_name_systematic        
(S,S)-9-methoxy-6a,12a-dihydrochromeno[2,3-c][1,3]dioxolo[4,5-g]chromen-12(6H)-one
_chemical_properties_biological  
'weak activity against the human breast cancer cell line MDA-MB-231'
_symmetry_cell_setting           orthorhombic
_symmetry_space_group_name_H-M   'P 21 21 21'
_symmetry_Int_Tables_number      19
_space_group_name_Hall           'P 2ac 2ab'
loop_
_symmetry_equiv_pos_site_id
_symmetry_equiv_pos_as_xyz
1 x,y,z
2 1/2-x,-y,1/2+z
3 1/2+x,1/2-y,-z
4 -x,1/2+y,1/2-z
_cell_length_a                   5.19667(5)
_cell_length_b                   13.40708(9)
_cell_length_c                   42.3221(3)
_cell_angle_alpha                90
_cell_angle_beta                 90
_cell_angle_gamma                90
_cell_volume                     2948.67
_exptl_crystal_colour            colorless
_exptl_crystal_description       needle
_chemical_melting_point          '193-195 deg.C'
_cell_formula_units_Z            8
loop_
_atom_site_label
_atom_site_type_symbol
_atom_site_fract_x
_atom_site_fract_y
_atom_site_fract_z
C1 C 0.6787(4) 0.70180(14) 0.80760(4)
C2 C 0.5097(4) 0.64028(13) 0.79151(4)
H1 H 0.4927 0.5735 0.7970
C3 C 0.3651(3) 0.68053(13) 0.76677(4)
C4 C 0.3906(4) 0.78080(13) 0.75794(4)
C5 C 0.5637(4) 0.84110(13) 0.77483(4)
H2 H 0.5811 0.9079 0.7694
C6 C 0.7080(4) 0.80308(14) 0.79932(4)
H3 H 0.8229 0.8436 0.8102
C7 C 0.0034(4) 0.65863(13) 0.73313(4)
H4 H -0.1297 0.6842 0.7474
C8 C 0.0962(4) 0.74281(13) 0.71174(4)
H5 H -0.0549 0.7760 0.7027
C9 C 0.2485(4) 0.81930(13) 0.73052(4)
C10 C -0.1063(4) 0.57438(14) 0.71381(4)
H6 H -0.1696 0.5228 0.7279
H7 H -0.2506 0.5989 0.7015
C11 C 0.2379(4) 0.59837(13) 0.67735(4)
C12 C 0.2548(4) 0.69998(13) 0.68479(4)
C13 C 0.3889(4) 0.55486(13) 0.65345(4)
H8 H 0.3794 0.4871 0.6489
C14 C 0.5503(4) 0.61716(13) 0.63725(4)
C15 C 0.5659(4) 0.71840(13) 0.64386(4)
C16 C 0.4225(4) 0.76147(13) 0.66728(4)
H9 H 0.4353 0.8293 0.6715
C17 C 0.8367(5) 0.68468(15) 0.60434(5)
H10 H 1.0215 0.6791 0.6071
H11 H 0.8021 0.6990 0.5823
C18 C 0.8109(6) 0.56913(16) 0.84149(6)
H12 H 0.8509 0.5271 0.8238
H13 H 0.6397 0.5550 0.8487
H14 H 0.9312 0.5566 0.8582
O1 O 0.8273(3) 0.67148(10) 0.83212(3)
O2 O 0.2081(3) 0.61562(9) 0.75153(3)
O3 O 0.2560(3) 0.90676(10) 0.72241(3)
O4 O 0.0818(3) 0.53259(9) 0.69299(3)
O5 O 0.7156(3) 0.59332(10) 0.61316(3)
O6 O 0.7392(3) 0.76324(10) 0.62365(4)
C19 C -0.0261(4) 0.55358(13) 0.44722(4)
C20 C 0.1409(4) 0.47754(13) 0.45632(4)
H15 H 0.1724 0.4239 0.4429
C21 C 0.2597(3) 0.48296(12) 0.48563(4)
C22 C 0.2163(4) 0.56355(12) 0.50622(4)
C23 C 0.0513(4) 0.64005(13) 0.49593(4)
H16 H 0.0223 0.6945 0.5091
C24 C -0.0689(4) 0.63647(14) 0.46682(5)
H17 H -0.1763 0.6880 0.4603
C25 C 0.6023(3) 0.42479(12) 0.51775(4)
H18 H 0.7366 0.4685 0.5092
C26 C 0.4850(3) 0.47291(12) 0.54720(4)
H19 H 0.6260 0.4949 0.5609
C27 C 0.3271(4) 0.56425(12) 0.53809(4)
C28 C 0.7171(3) 0.32516(13) 0.52574(4)
H20 H 0.7938 0.2966 0.5069
H21 H 0.8525 0.3342 0.5413
C29 C 0.3537(3) 0.29536(13) 0.55920(4)
C30 C 0.3244(3) 0.39701(12) 0.56534(4)
C31 C 0.1977(4) 0.22273(12) 0.57385(4)
H22 H 0.2154 0.1552 0.5693
C32 C 0.0189(3) 0.25655(13) 0.59509(4)
C33 C -0.0031(4) 0.35682(14) 0.60273(4)
C34 C 0.1443(4) 0.42822(13) 0.58820(4)
H23 H 0.1259 0.4953 0.5933
C35 C -0.2913(4) 0.27207(14) 0.63154(4)
H24 H -0.4757 0.2699 0.6280
H25 H -0.2583 0.2551 0.6534
C36 C -0.3173(5) 0.61571(16) 0.40858(5)
H26 H -0.3816 0.5991 0.3880
H27 H -0.2319 0.6792 0.4078
H28 H -0.4579 0.6191 0.4233
O7 O -0.1392(3) 0.54083(10) 0.41864(3)
O8 O 0.4136(2) 0.40529(9) 0.49360(3)
O9 O 0.2925(3) 0.63290(9) 0.55679(3)
O10 O 0.5281(3) 0.25754(9) 0.53804(3)
O11 O -0.1631(3) 0.20204(10) 0.61096(3)
O12 O -0.1951(3) 0.36967(11) 0.62481(3)
loop_
_geom_bond_atom_site_label_1
_geom_bond_atom_site_label_2
_geom_bond_site_symmetry_1
_geom_bond_site_symmetry_2
C1 C2 1_555 1_555
C2 H1 1_555 1_555
C3 C2 1_555 1_555
C4 C3 1_555 1_555
C5 C4 1_555 1_555
H2 C5 1_555 1_555
C6 C1 1_555 1_555
H3 C6 1_555 1_555
C7 H4 1_555 1_555
C8 C7 1_555 1_555
H5 C8 1_555 1_555
C9 C4 1_555 1_555
C10 C7 1_555 1_555
H6 C10 1_555 1_555
H7 C10 1_555 1_555
C11 C12 1_555 1_555
C12 C8 1_555 1_555
C13 C11 1_555 1_555
H8 C13 1_555 1_555
C14 C13 1_555 1_555
C15 C14 1_555 1_555
C16 C12 1_555 1_555
H9 C16 1_555 1_555
C17 H10 1_555 1_555
H11 C17 1_555 1_555
C18 H12 1_555 1_555
H13 C18 1_555 1_555
H14 C18 1_555 1_555
O1 C1 1_555 1_555
O2 C3 1_555 1_555
O3 C9 1_555 1_555
O4 C10 1_555 1_555
O5 C14 1_555 1_555
O6 C15 1_555 1_555
C19 C20 1_555 1_555
C20 H15 1_555 1_555
C21 C20 1_555 1_555
C22 C21 1_555 1_555
C23 C22 1_555 1_555
H16 C23 1_555 1_555
C24 C19 1_555 1_555
H17 C24 1_555 1_555
C25 H18 1_555 1_555
C26 C25 1_555 1_555
H19 C26 1_555 1_555
C27 C22 1_555 1_555
C28 C25 1_555 1_555
H20 C28 1_555 1_555
H21 C28 1_555 1_555
C29 C30 1_555 1_555
C30 C26 1_555 1_555
C31 C29 1_555 1_555
H22 C31 1_555 1_555
C32 C31 1_555 1_555
C33 C32 1_555 1_555
C34 C30 1_555 1_555
H23 C34 1_555 1_555
C35 H24 1_555 1_555
H25 C35 1_555 1_555
C36 H26 1_555 1_555
H27 C36 1_555 1_555
H28 C36 1_555 1_555
O7 C19 1_555 1_555
O8 C21 1_555 1_555
O9 C27 1_555 1_555
O10 C28 1_555 1_555
O11 C32 1_555 1_555
O12 C33 1_555 1_555
C5 C6 1_555 1_555
C7 O2 1_555 1_555
C8 C9 1_555 1_555
C11 O4 1_555 1_555
C15 C16 1_555 1_555
C17 O5 1_555 1_555
C17 O6 1_555 1_555
C18 O1 1_555 1_555
C23 C24 1_555 1_555
C25 O8 1_555 1_555
C26 C27 1_555 1_555
C29 O10 1_555 1_555
C33 C34 1_555 1_555
C35 O11 1_555 1_555
C35 O12 1_555 1_555
C36 O7 1_555 1_555

#END
