
#######################################################################
#
#                 Cambridge Crystallographic Data Centre
#                                CCDC 
#
#######################################################################
#
# If this CIF has been generated from an entry in the Cambridge 
# Structural Database, then it will include bibliographic, chemical, 
# crystal, experimental, refinement or atomic coordinate data resulting 
# from the CCDC's data processing and validation procedures.
#
#######################################################################

data_GECXIY
_chemical_formula_moiety         'C12 H12 N1 O2 1+,Cl1 1-,H2 O1'
_chemical_name_systematic        
'1-methoxy-1,2-dihydro[1,3]oxazolo[3,2-a]quinolin-10-ium chloride monohydrate'
_symmetry_cell_setting           triclinic
_symmetry_space_group_name_H-M   'P -1'
_symmetry_Int_Tables_number      2
_space_group_name_Hall           '-P 1'
loop_
_symmetry_equiv_pos_site_id
_symmetry_equiv_pos_as_xyz
1 x,y,z
2 -x,-y,-z
_cell_length_a                   7.05190(10)
_cell_length_b                   9.3447(2)
_cell_length_c                   9.4759(2)
_cell_angle_alpha                85.1090(10)
_cell_angle_beta                 80.6940(10)
_cell_angle_gamma                86.3890(10)
_cell_volume                     613.211
_exptl_crystal_colour            colorless
_exptl_crystal_description       plate
_cell_formula_units_Z            2
loop_
_atom_site_label
_atom_site_type_symbol
_atom_site_fract_x
_atom_site_fract_y
_atom_site_fract_z
O1 O 0.0550(2) 0.83752(19) 0.84167(18)
O2 O 0.2123(3) 0.6134(2) 0.6052(2)
C1 C 0.2466(4) 0.6235(3) 0.7531(3)
H1 H 0.3725 0.5812 0.7658
H2 H 0.1496 0.5743 0.8212
C2 C 0.2776(4) 1.2742(3) 0.4693(3)
H3 H 0.2819 1.3704 0.4350
C3 C 0.2983(3) 1.2344(3) 0.6129(3)
H4 H 0.3179 1.3046 0.6722
C4 C 0.2900(3) 1.0925(3) 0.6668(3)
H5 H 0.3044 1.0666 0.7616
C5 C 0.2596(3) 0.9888(3) 0.5765(3)
N1 N 0.2485(3) 0.8446(2) 0.6238(2)
C6 C 0.2343(4) 0.7856(3) 0.7737(3)
H6 H 0.3402 0.8138 0.8192
C7 C 0.0287(4) 0.8092(3) 0.9945(3)
H7 H 0.0326 0.7073 1.0182
H8 H -0.0937 0.8507 1.0358
H9 H 0.1294 0.8509 1.0320
C8 C 0.2210(3) 0.7434(3) 0.5393(3)
C9 C 0.2511(3) 1.1719(3) 0.3799(3)
H10 H 0.2397 1.1991 0.2848
C10 C 0.2408(3) 1.0260(3) 0.4308(3)
C11 C 0.2119(3) 0.9151(3) 0.3429(3)
H11 H 0.1988 0.9394 0.2476
C12 C 0.2030(4) 0.7750(3) 0.3942(3)
H12 H 0.1857 0.7032 0.3360
O3 O 0.5674(6) 0.6720(3) 0.0814(4)
Cl2 Cl 0.23947(16) 0.49214(11) 0.15464(11)
Cl1? Cl 0.5000 0.0000 0.0000
loop_
_geom_bond_atom_site_label_1
_geom_bond_atom_site_label_2
_geom_bond_site_symmetry_1
_geom_bond_site_symmetry_2
O1 C6 1_555 1_555
O2 C1 1_555 1_555
C1 H1 1_555 1_555
H2 C1 1_555 1_555
C2 H3 1_555 1_555
C3 C2 1_555 1_555
H4 C3 1_555 1_555
C4 C3 1_555 1_555
H5 C4 1_555 1_555
C5 C4 1_555 1_555
N1 C5 1_555 1_555
C6 C1 1_555 1_555
H6 C6 1_555 1_555
C7 O1 1_555 1_555
H7 C7 1_555 1_555
H8 C7 1_555 1_555
H9 C7 1_555 1_555
C8 O2 1_555 1_555
C9 C2 1_555 1_555
H10 C9 1_555 1_555
C10 C5 1_555 1_555
C11 C10 1_555 1_555
H11 C11 1_555 1_555
C12 C8 1_555 1_555
H12 C12 1_555 1_555
N1 C6 1_555 1_555
N1 C8 1_555 1_555
C9 C10 1_555 1_555
C11 C12 1_555 1_555

#END
