
#######################################################################
#
#                 Cambridge Crystallographic Data Centre
#                                CCDC 
#
#######################################################################
#
# If this CIF has been generated from an entry in the Cambridge 
# Structural Database, then it will include bibliographic, chemical, 
# crystal, experimental, refinement or atomic coordinate data resulting 
# from the CCDC's data processing and validation procedures.
#
#######################################################################

data_GEDCOJ
_chemical_formula_moiety         'C23 H31 N1 O5'
_chemical_name_systematic        
'13-Ethyl-15-methyl-21-oxo-8,10-dioxa-13-azahexacyclo[9.7.2.1^2,7^.0^1,12^.0^7,11^.0^15,19^]henicos-4-en-18-yl acetate'
_symmetry_cell_setting           orthorhombic
_symmetry_space_group_name_H-M   'P 21 21 21'
_symmetry_Int_Tables_number      19
_space_group_name_Hall           'P 2ac 2ab'
loop_
_symmetry_equiv_pos_site_id
_symmetry_equiv_pos_as_xyz
1 x,y,z
2 1/2-x,-y,1/2+z
3 1/2+x,1/2-y,-z
4 -x,1/2+y,1/2-z
_cell_length_a                   9.1939(4)
_cell_length_b                   9.4727(4)
_cell_length_c                   23.6259(11)
_cell_angle_alpha                90
_cell_angle_beta                 90
_cell_angle_gamma                90
_cell_volume                     2057.6
_exptl_crystal_colour            colorless
_exptl_crystal_description       block
_cell_formula_units_Z            4
loop_
_atom_site_label
_atom_site_type_symbol
_atom_site_fract_x
_atom_site_fract_y
_atom_site_fract_z
O1 O 0.3021(4) 0.1378(3) 0.21435(14)
O2 O 0.2757(4) 0.3779(3) 0.28485(11)
O3 O 0.2997(3) 0.6031(3) 0.24973(10)
O4 O 0.1494(2) 0.4733(2) 0.03782(9)
O5 O 0.1467(4) 0.3576(4) -0.04448(14)
N1 N 0.3027(3) 0.6860(3) 0.12423(12)
C1 C 0.3046(3) 0.4458(4) 0.04630(15)
H1 H 0.3289 0.3558 0.0282
C2 C 0.3866(4) 0.5621(5) 0.01655(15)
H2 H 0.3349 0.6505 0.0215
H3 H 0.3902 0.5417 -0.0237
C3 C 0.5415(4) 0.5780(5) 0.03907(17)
H4 H 0.5987 0.4977 0.0267
H5 H 0.5845 0.6622 0.0227
C4 C 0.5501(4) 0.5885(4) 0.10344(15)
C5 C 0.4885(4) 0.4512(4) 0.12868(15)
H6 H 0.5478 0.3697 0.1177
C6 C 0.4752(4) 0.4620(4) 0.19378(15)
H7 H 0.4966 0.3720 0.2115
H8 H 0.5414 0.5327 0.2086
C7 C 0.3158(4) 0.5050(3) 0.20432(14)
C8 C 0.2273(5) 0.3794(4) 0.22712(16)
C9 C 0.2762(5) 0.2530(4) 0.19411(18)
C10 C 0.2821(4) 0.2775(4) 0.12995(16)
H9 H 0.3583 0.2144 0.1157
C11 C 0.3275(4) 0.4304(3) 0.11069(14)
C12 C 0.1385(4) 0.2185(4) 0.10719(19)
H10 H 0.1377 0.2324 0.0665
H11 H 0.1383 0.1175 0.1138
C13 C -0.0008(5) 0.2771(5) 0.1303(2)
H12 H -0.0816 0.2616 0.1075
C14 C 0.3137(7) 0.5188(5) 0.29904(18)
H13 H 0.2498 0.5539 0.3286
H14 H 0.4130 0.5223 0.3129
C15 C 0.0620(5) 0.3920(5) 0.22641(19)
H15 H 0.0267 0.3402 0.2591
H16 H 0.0396 0.4906 0.2332
C16 C -0.0288(5) 0.3469(5) 0.1775(2)
H17 H -0.1257 0.3736 0.1808
C17 C 0.2578(3) 0.5495(3) 0.14622(13)
H18 H 0.1516 0.5414 0.1453
C18 C 0.7081(4) 0.6125(6) 0.11988(19)
H19 H 0.7662 0.5352 0.1066
H20 H 0.7157 0.6189 0.1603
H21 H 0.7421 0.6988 0.1031
C19 C 0.4602(3) 0.7122(4) 0.12670(16)
H22 H 0.4880 0.7294 0.1657
H23 H 0.4825 0.7965 0.1051
C20 C 0.2186(4) 0.8054(3) 0.14711(17)
H24 H 0.2669 0.8931 0.1374
H25 H 0.2153 0.7984 0.1881
C21 C 0.0664(4) 0.8075(5) 0.12426(19)
H26 H 0.0688 0.7929 0.0841
H27 H 0.0224 0.8972 0.1323
H28 H 0.0107 0.7337 0.1418
C22 C 0.0857(4) 0.4280(4) -0.01023(15)
C23 C -0.0679(5) 0.4739(5) -0.01187(19)
H29 H -0.1244 0.4162 0.0133
H30 H -0.1046 0.4646 -0.0497
H31 H -0.0744 0.5708 -0.0002
loop_
_geom_bond_atom_site_label_1
_geom_bond_atom_site_label_2
_geom_bond_site_symmetry_1
_geom_bond_site_symmetry_2
O1 C9 1_555 1_555
O2 C8 1_555 1_555
O3 C7 1_555 1_555
O4 C1 1_555 1_555
O5 C22 1_555 1_555
N1 C17 1_555 1_555
C1 H1 1_555 1_555
C2 C1 1_555 1_555
H2 C2 1_555 1_555
H3 C2 1_555 1_555
C3 C2 1_555 1_555
H4 C3 1_555 1_555
H5 C3 1_555 1_555
C4 C3 1_555 1_555
C5 C4 1_555 1_555
H6 C5 1_555 1_555
C6 C5 1_555 1_555
H7 C6 1_555 1_555
H8 C6 1_555 1_555
C7 C6 1_555 1_555
C8 C7 1_555 1_555
C9 C8 1_555 1_555
C10 C9 1_555 1_555
H9 C10 1_555 1_555
C11 C1 1_555 1_555
C12 C10 1_555 1_555
H10 C12 1_555 1_555
H11 C12 1_555 1_555
C13 C12 1_555 1_555
H12 C13 1_555 1_555
C14 O2 1_555 1_555
H13 C14 1_555 1_555
H14 C14 1_555 1_555
C15 C8 1_555 1_555
H15 C15 1_555 1_555
H16 C15 1_555 1_555
C16 C13 1_555 1_555
H17 C16 1_555 1_555
C17 C7 1_555 1_555
H18 C17 1_555 1_555
C18 C4 1_555 1_555
H19 C18 1_555 1_555
H20 C18 1_555 1_555
H21 C18 1_555 1_555
C19 N1 1_555 1_555
H22 C19 1_555 1_555
H23 C19 1_555 1_555
C20 N1 1_555 1_555
H24 C20 1_555 1_555
H25 C20 1_555 1_555
C21 C20 1_555 1_555
H26 C21 1_555 1_555
H27 C21 1_555 1_555
H28 C21 1_555 1_555
C22 O4 1_555 1_555
C23 C22 1_555 1_555
H29 C23 1_555 1_555
H30 C23 1_555 1_555
H31 C23 1_555 1_555
O3 C14 1_555 1_555
C4 C19 1_555 1_555
C5 C11 1_555 1_555
C10 C11 1_555 1_555
C11 C17 1_555 1_555
C15 C16 1_555 1_555

#END
