
#######################################################################
#
#                 Cambridge Crystallographic Data Centre
#                                CCDC 
#
#######################################################################
#
# If this CIF has been generated from an entry in the Cambridge 
# Structural Database, then it will include bibliographic, chemical, 
# crystal, experimental, refinement or atomic coordinate data resulting 
# from the CCDC's data processing and validation procedures.
#
#######################################################################

data_GEDKOQ
_chemical_formula_moiety         'C20 H26 O2'
_chemical_name_systematic        (+-)-Shonanol
_symmetry_cell_setting           monoclinic
_symmetry_space_group_name_H-M   'C 2/c'
_symmetry_Int_Tables_number      15
_space_group_name_Hall           '-C 2yn'
loop_
_symmetry_equiv_pos_site_id
_symmetry_equiv_pos_as_xyz
1 x,y,z
2 1/2+x,1/2+y,z
3 -x,y,1/2-z
4 1/2-x,1/2+y,1/2-z
5 -x,-y,-z
6 1/2-x,1/2-y,-z
7 x,-y,1/2+z
8 1/2+x,1/2-y,1/2+z
_cell_length_a                   20.174(4)
_cell_length_b                   11.531(2)
_cell_length_c                   14.839(3)
_cell_angle_alpha                90.00
_cell_angle_beta                 92.66(3)
_cell_angle_gamma                90.00
_cell_volume                     3448.22
_exptl_crystal_colour            colorless
_exptl_crystal_description       plate
_chemical_melting_point          '210-212 deg.C'
_cell_formula_units_Z            8
_exptl_crystal_recrystallization_method 'ether/petroleum ether'
loop_
_atom_site_label
_atom_site_type_symbol
_atom_site_fract_x
_atom_site_fract_y
_atom_site_fract_z
O1 O 0.75707(7) 0.66614(12) 1.11763(9)
O2 O 0.64458(7) 0.96378(12) 0.96545(9)
H1 H 0.6664 0.9149 0.9397
C1 C 0.72078(9) 0.61046(17) 1.16480(13)
C2 C 0.74204(12) 0.4981(2) 1.20093(17)
H2 H 0.7754 0.4583 1.1728
C3 C 0.71578(12) 0.4508(2) 1.27202(17)
H3 H 0.7308 0.3775 1.2894
C4 C 0.66387(11) 0.50540(19) 1.32683(16)
C5 C 0.64939(9) 0.63119(17) 1.29267(12)
H4 H 0.6861 0.6780 1.3184
C6 C 0.58758(10) 0.68456(17) 1.32858(14)
H5 H 0.5852 0.6661 1.3921
H6 H 0.5487 0.6521 1.2969
C7 C 0.58788(11) 0.81457(17) 1.31651(13)
H7 H 0.5444 0.8450 1.3290
H8 H 0.6198 0.8484 1.3597
C8 C 0.60502(9) 0.84984(16) 1.22287(12)
C9 C 0.63564(8) 0.77460(15) 1.16412(11)
C10 C 0.65148(9) 0.64891(15) 1.18907(12)
C11 C 0.64717(9) 0.81439(15) 1.07756(12)
H9 H 0.6659 0.7641 1.0369
C12 C 0.63187(10) 0.92533(16) 1.05035(12)
C13 C 0.60188(10) 1.00223(16) 1.10822(14)
C14 C 0.58931(10) 0.96092(17) 1.19313(13)
H10 H 0.5691 1.0107 1.2328
C15 C 0.58525(14) 1.12488(19) 1.07842(17)
H11 H 0.5752 1.1188 1.0133
C16 C 0.6400(3) 1.2057(4) 1.0868(5)
H12 H 0.6235 1.2834 1.0794
H13 H 0.6710 1.1895 1.0413
H14 H 0.6617 1.1979 1.1454
C17 C 0.5206(4) 1.1698(5) 1.1172(4)
H15 H 0.4862 1.1130 1.1073
H16 H 0.5077 1.2409 1.0876
H17 H 0.5276 1.1833 1.1807
C20 C 0.69348(14) 0.5121(3) 1.42343(18)
H24 H 0.7039 0.4354 1.4448
H25 H 0.6619 0.5471 1.4616
H26 H 0.7332 0.5582 1.4245
C21 C 0.60269(14) 0.4271(2) 1.3279(2)
H27 H 0.5770 0.4358 1.2722
H28 H 0.5762 0.4486 1.3773
H29 H 0.6165 0.3478 1.3348
C22 C 0.60185(11) 0.57145(17) 1.13429(15)
H30 H 0.5577 0.5861 1.1530
H31 H 0.6128 0.4914 1.1446
H32 H 0.6042 0.5887 1.0712
C18? C 0.6169(8) 1.2077(7) 1.1509(8)
H18? H 0.6037 1.1846 1.2095
H19? H 0.6023 1.2856 1.1388
H20? H 0.6644 1.2041 1.1491
C19? C 0.5154(6) 1.1434(12) 1.0546(11)
H21? H 0.5076 1.1320 0.9909
H22? H 0.5033 1.2211 1.0703
H23? H 0.4892 1.0893 1.0869
loop_
_geom_bond_atom_site_label_1
_geom_bond_atom_site_label_2
_geom_bond_site_symmetry_1
_geom_bond_site_symmetry_2
O1 C1 1_555 1_555
O2 H1 1_555 1_555
C1 C2 1_555 1_555
C2 H2 1_555 1_555
C3 C2 1_555 1_555
H3 C3 1_555 1_555
C4 C3 1_555 1_555
C5 C4 1_555 1_555
H4 C5 1_555 1_555
C6 C5 1_555 1_555
H5 C6 1_555 1_555
H6 C6 1_555 1_555
C7 C6 1_555 1_555
H7 C7 1_555 1_555
H8 C7 1_555 1_555
C8 C7 1_555 1_555
C9 C8 1_555 1_555
C10 C1 1_555 1_555
C11 C9 1_555 1_555
H9 C11 1_555 1_555
C12 O2 1_555 1_555
C13 C12 1_555 1_555
C14 C8 1_555 1_555
H10 C14 1_555 1_555
C15 C13 1_555 1_555
H11 C15 1_555 1_555
C16 C15 1_555 1_555
H12 C16 1_555 1_555
H13 C16 1_555 1_555
H14 C16 1_555 1_555
C17 C15 1_555 1_555
H15 C17 1_555 1_555
H16 C17 1_555 1_555
H17 C17 1_555 1_555
C20 C4 1_555 1_555
H24 C20 1_555 1_555
H25 C20 1_555 1_555
H26 C20 1_555 1_555
C21 C4 1_555 1_555
H27 C21 1_555 1_555
H28 C21 1_555 1_555
H29 C21 1_555 1_555
C22 C10 1_555 1_555
H30 C22 1_555 1_555
H31 C22 1_555 1_555
H32 C22 1_555 1_555
C5 C10 1_555 1_555
C9 C10 1_555 1_555
C11 C12 1_555 1_555
C13 C14 1_555 1_555

#END
