
#######################################################################
#
#                 Cambridge Crystallographic Data Centre
#                                CCDC 
#
#######################################################################
#
# If this CIF has been generated from an entry in the Cambridge 
# Structural Database, then it will include bibliographic, chemical, 
# crystal, experimental, refinement or atomic coordinate data resulting 
# from the CCDC's data processing and validation procedures.
#
#######################################################################

data_GEDLIL
_chemical_formula_moiety         'C6 H10 N3 O2 1+,C2 F6 N1 O4 S2 1-'
_chemical_name_systematic        
'1,2,3-Trimethyl-4-nitroimidazolium bis(trifluoromethanesulfonyl)amide'
_symmetry_cell_setting           triclinic
_symmetry_space_group_name_H-M   'P -1'
_symmetry_Int_Tables_number      2
_space_group_name_Hall           '-P 1'
loop_
_symmetry_equiv_pos_site_id
_symmetry_equiv_pos_as_xyz
1 x,y,z
2 -x,-y,-z
_cell_length_a                   8.113(2)
_cell_length_b                   12.596(4)
_cell_length_c                   17.035(5)
_cell_angle_alpha                70.065(5)
_cell_angle_beta                 81.042(5)
_cell_angle_gamma                77.570(5)
_cell_volume                     1591.72
_exptl_crystal_colour            colorless
_exptl_crystal_description       needle
_cell_formula_units_Z            4
_exptl_crystal_recrystallization_method 'methanol/diethyl ether'
loop_
_atom_site_label
_atom_site_type_symbol
_atom_site_fract_x
_atom_site_fract_y
_atom_site_fract_z
S1 S 0.15896(9) 0.27828(6) 0.37888(5)
S3 S 0.23246(9) 0.20003(6) 0.24034(5)
F1 F 0.3370(3) 0.11150(17) 0.48918(13)
F3 F 0.1362(3) 0.06193(17) 0.44932(14)
F5 F 0.0805(3) 0.16038(19) 0.53329(13)
F7 F 0.1265(3) 0.31474(18) 0.09364(12)
F9 F 0.0917(3) 0.41408(15) 0.17610(13)
F11 F 0.3400(3) 0.36931(16) 0.11873(12)
O5 O 0.2299(3) 0.35473(17) 0.40370(14)
O7 O -0.0166(3) 0.3055(2) 0.36595(16)
O9 O 0.3790(3) 0.13341(17) 0.21114(14)
O11 O 0.0772(3) 0.15828(18) 0.25834(14)
N7 N 0.2854(3) 0.2423(2) 0.30869(15)
C13 C 0.1813(4) 0.1449(3) 0.4674(2)
C15 C 0.1967(4) 0.3326(3) 0.1525(2)
S2 S 0.82953(9) 0.72942(6) 0.11806(5)
S4 S 0.81588(9) 0.80378(6) 0.25588(5)
F2 F 0.9299(3) 0.90229(18) -0.00281(14)
F4 F 0.6969(3) 0.94928(15) 0.06292(12)
F6 F 0.7037(3) 0.85762(18) -0.02155(13)
F8 F 0.7013(3) 0.7033(2) 0.40820(13)
F10 F 0.7033(3) 0.61088(18) 0.32553(13)
F12 F 0.9347(3) 0.61280(19) 0.36987(14)
O6 O 0.9535(3) 0.66044(18) 0.07858(14)
O8 O 0.6674(3) 0.69681(17) 0.14574(13)
O10 O 0.9267(3) 0.85523(18) 0.28320(14)
O12 O 0.6470(3) 0.86291(18) 0.24250(14)
N8 N 0.9163(3) 0.7578(2) 0.18345(15)
C14 C 0.7885(4) 0.8673(3) 0.0348(2)
C16 C 0.7898(4) 0.6734(3) 0.3442(2)
O1 O 0.3035(3) 0.76689(19) 0.07132(13)
O3 O 0.3565(3) 0.58253(18) 0.13052(14)
N1 N 0.2945(3) 0.66120(19) 0.34778(14)
N3 N 0.2993(3) 0.79645(18) 0.22823(14)
N5 N 0.3237(3) 0.6812(2) 0.13253(15)
C1 C 0.2914(3) 0.7748(2) 0.31141(17)
C3 C 0.3090(3) 0.6941(2) 0.21400(17)
C5 C 0.3063(4) 0.6101(3) 0.28788(19)
H1 H 0.307(3) 0.536(2) 0.3011(17)
C7 C 0.2854(5) 0.6009(3) 0.4391(2)
H3 H 0.188(4) 0.635(3) 0.463(2)
H4 H 0.286(5) 0.522(4) 0.448(2)
H5 H 0.383(5) 0.606(3) 0.460(2)
C9 C 0.2801(4) 0.8590(3) 0.3547(2)
H9 H 0.283(4) 0.824(3) 0.415(2)
H10 H 0.178(5) 0.909(3) 0.349(2)
H11 H 0.370(5) 0.904(3) 0.332(2)
C11 C 0.2917(5) 0.9119(3) 0.1668(2)
H15 H 0.299(5) 0.961(3) 0.194(2)
H16 H 0.394(5) 0.909(3) 0.121(3)
H17 H 0.186(5) 0.934(3) 0.142(2)
O2 O 0.5874(3) 0.40896(18) 0.38463(13)
O4 O 0.6445(3) 0.22312(18) 0.43358(13)
N2 N 0.7099(3) 0.3607(2) 0.15646(14)
N4 N 0.6967(3) 0.21349(18) 0.26889(14)
N6 N 0.6294(3) 0.3136(2) 0.37594(15)
C2 C 0.7251(3) 0.2458(2) 0.18491(18)
C4 C 0.6631(3) 0.3112(2) 0.29127(17)
C6 C 0.6712(4) 0.4027(3) 0.22214(18)
H2 H 0.657(3) 0.482(3) 0.2140(18)
C8 C 0.7282(5) 0.4325(4) 0.0672(2)
H6 H 0.825(6) 0.403(4) 0.042(3)
H7 H 0.736(6) 0.504(4) 0.063(3)
H8 H 0.636(5) 0.429(3) 0.045(3)
C10 C 0.7669(5) 0.1692(3) 0.1334(2)
H12 H 0.859(6) 0.114(4) 0.149(3)
H13 H 0.685(6) 0.130(4) 0.138(3)
H14 H 0.793(5) 0.214(4) 0.074(3)
C12 C 0.7041(5) 0.0936(3) 0.3231(2)
H18 H 0.601(4) 0.084(3) 0.363(2)
H19 H 0.715(5) 0.049(3) 0.285(3)
H20 H 0.797(5) 0.075(3) 0.350(2)
loop_
_geom_bond_atom_site_label_1
_geom_bond_atom_site_label_2
_geom_bond_site_symmetry_1
_geom_bond_site_symmetry_2
S1 O5 1_555 1_555
S2 O6 1_555 1_555
S3 O9 1_555 1_555
S4 O10 1_555 1_555
F1 C13 1_555 1_555
F2 C14 1_555 1_555
F3 C13 1_555 1_555
F4 C14 1_555 1_555
F5 C13 1_555 1_555
F6 C14 1_555 1_555
F7 C15 1_555 1_555
F8 C16 1_555 1_555
F9 C15 1_555 1_555
F10 C16 1_555 1_555
F11 C15 1_555 1_555
F12 C16 1_555 1_555
O1 N5 1_555 1_555
O2 N6 1_555 1_555
O3 N5 1_555 1_555
O4 N6 1_555 1_555
O7 S1 1_555 1_555
O8 S2 1_555 1_555
O11 S3 1_555 1_555
O12 S4 1_555 1_555
N1 C1 1_555 1_555
N2 C2 1_555 1_555
N3 C1 1_555 1_555
N4 C2 1_555 1_555
N5 C3 1_555 1_555
N6 C4 1_555 1_555
N7 S1 1_555 1_555
N8 S2 1_555 1_555
C1 C9 1_555 1_555
C2 C10 1_555 1_555
C3 N3 1_555 1_555
C4 N4 1_555 1_555
C5 N1 1_555 1_555
H1 C5 1_555 1_555
C6 N2 1_555 1_555
H2 C6 1_555 1_555
C7 N1 1_555 1_555
H3 C7 1_555 1_555
H4 C7 1_555 1_555
H5 C7 1_555 1_555
C8 N2 1_555 1_555
H6 C8 1_555 1_555
H7 C8 1_555 1_555
H8 C8 1_555 1_555
C9 H9 1_555 1_555
H10 C9 1_555 1_555
H11 C9 1_555 1_555
C10 H12 1_555 1_555
H13 C10 1_555 1_555
H14 C10 1_555 1_555
C11 N3 1_555 1_555
H15 C11 1_555 1_555
H16 C11 1_555 1_555
H17 C11 1_555 1_555
C12 N4 1_555 1_555
H18 C12 1_555 1_555
H19 C12 1_555 1_555
H20 C12 1_555 1_555
C13 S1 1_555 1_555
C14 S2 1_555 1_555
C15 S3 1_555 1_555
C16 S4 1_555 1_555
S3 N7 1_555 1_555
S4 N8 1_555 1_555
C3 C5 1_555 1_555
C4 C6 1_555 1_555

#END
