
#######################################################################
#
#                 Cambridge Crystallographic Data Centre
#                                CCDC 
#
#######################################################################
#
# If this CIF has been generated from an entry in the Cambridge 
# Structural Database, then it will include bibliographic, chemical, 
# crystal, experimental, refinement or atomic coordinate data resulting 
# from the CCDC's data processing and validation procedures.
#
#######################################################################

data_GEDZEW
_chemical_compound_source        'Isodon eriocalyx var. laxiflora'
_chemical_formula_moiety         'C21 H26 O7,C5 H5 N1'
_chemical_name_systematic        'Neolaxiflorin E pyridine solvate'
_symmetry_cell_setting           orthorhombic
_symmetry_space_group_name_H-M   'P 21 21 21'
_symmetry_Int_Tables_number      19
_space_group_name_Hall           'P 2ac 2ab'
loop_
_symmetry_equiv_pos_site_id
_symmetry_equiv_pos_as_xyz
1 x,y,z
2 1/2+x,1/2-y,-z
3 -x,1/2+y,1/2-z
4 1/2-x,-y,1/2+z
_cell_length_a                   5.82160(10)
_cell_length_b                   16.3475(2)
_cell_length_c                   23.2984(3)
_cell_angle_alpha                90
_cell_angle_beta                 90
_cell_angle_gamma                90
_cell_volume                     2217.28
_exptl_crystal_colour            colorless
_exptl_crystal_description       needle
_cell_formula_units_Z            4
loop_
_atom_site_label
_atom_site_type_symbol
_atom_site_fract_x
_atom_site_fract_y
_atom_site_fract_z
O1 O 0.0678(6) 1.07983(15) 0.05109(10)
O2 O 0.0353(3) 0.64951(11) 0.05992(7)
O3 O 0.2201(3) 0.87931(9) 0.22976(6)
O4 O 0.1605(3) 0.99195(10) 0.17697(7)
O5 O 0.6934(3) 0.87658(10) 0.19438(6)
H1 H 0.6980 0.8763 0.2304
O6 O 0.6262(3) 0.75575(9) 0.15158(7)
C2 C 0.2581(7) 1.05332(17) 0.06060(11)
C3 C 0.3217(5) 0.96533(15) 0.04573(10)
H3 H 0.4114 0.9687 0.0092
C4 C 0.1106(5) 0.91335(16) 0.03165(10)
H4 H -0.0224 0.9343 0.0537
H5 H 0.0745 0.9192 -0.0097
C5 C 0.1438(5) 0.82277(15) 0.04542(10)
H6 H 0.2840 0.8021 0.0262
H7 H 0.0109 0.7910 0.0311
C6 C 0.1659(4) 0.81216(13) 0.11051(9)
H8 H 0.0159 0.8292 0.1276
C7 C 0.2215(4) 0.72586(14) 0.13488(9)
C8 C 0.1885(4) 0.73380(13) 0.20099(9)
H9 H 0.0284 0.7547 0.2063
C9 C 0.2009(4) 0.65400(14) 0.23661(9)
C10 C 0.0903(4) 0.67013(15) 0.29581(10)
H10 H -0.0664 0.6907 0.2905
H11 H 0.1814 0.7108 0.3167
H12 H 0.0857 0.6191 0.3178
C11 C 0.0751(4) 0.65622(14) 0.11093(10)
C12 C 0.0022(4) 0.59204(14) 0.15105(11)
H13 H -0.0940 0.5497 0.1369
C13 C 0.0632(4) 0.58958(14) 0.20635(10)
H14 H 0.0156 0.5435 0.2281
C14 C 0.3454(4) 0.80257(13) 0.22230(9)
H15 H 0.4248 0.7864 0.2586
C15 C 0.2364(4) 0.92365(14) 0.18024(9)
C16 C 0.3558(4) 0.87292(13) 0.13498(9)
C17 C 0.4815(4) 0.92143(14) 0.08918(10)
H16 H 0.5840 0.8839 0.0678
H17 H 0.5793 0.9629 0.1082
C18 C 0.5199(4) 0.82552(14) 0.17582(9)
C19 C 0.4722(4) 0.70571(14) 0.11907(9)
H18 H 0.5036 0.6473 0.1271
H19 H 0.4967 0.7154 0.0776
C20 C 0.4439(4) 0.62005(16) 0.24760(11)
H20 H 0.4328 0.5683 0.2687
H21 H 0.5321 0.6595 0.2703
H22 H 0.5214 0.6107 0.2108
O7 O 0.4130(14) 1.22007(18) 0.01801(11)
H27 H 0.5503 1.2300 0.0094
C25 C 0.4474(8) 1.10814(16) 0.08502(12)
H28 H 0.4639 1.0970 0.1266
H29 H 0.5949 1.0942 0.0662
C26 C 0.3993(12) 1.1985(2) 0.07647(14)
H30 H 0.2440 1.2116 0.0912
H31 H 0.5121 1.2311 0.0986
N1 N 0.2948(4) 0.39484(12) 0.18598(8)
C1 C 0.1125(4) 0.37411(15) 0.15438(11)
H2 H -0.0157 0.3503 0.1733
C21 C 0.2846(5) 0.42033(16) 0.06795(10)
H23 H 0.2821 0.4287 0.0276
C22 C 0.4738(5) 0.44303(15) 0.10013(11)
H24 H 0.6033 0.4677 0.0824
C23 C 0.4709(5) 0.42913(16) 0.15878(11)
H25 H 0.6012 0.4449 0.1807
C24 C 0.0998(5) 0.38534(15) 0.09553(11)
H26 H -0.0330 0.3693 0.0747
loop_
_geom_bond_atom_site_label_1
_geom_bond_atom_site_label_2
_geom_bond_site_symmetry_1
_geom_bond_site_symmetry_2
O1 C2 1_555 1_555
O2 C11 1_555 1_555
O3 C14 1_555 1_555
O4 C15 1_555 1_555
O5 H1 1_555 1_555
O6 C18 1_555 1_555
N1 C1 1_555 1_555
C1 H2 1_555 1_555
C2 C3 1_555 1_555
C3 H3 1_555 1_555
C4 C3 1_555 1_555
H4 C4 1_555 1_555
H5 C4 1_555 1_555
C5 C4 1_555 1_555
H6 C5 1_555 1_555
H7 C5 1_555 1_555
C6 C5 1_555 1_555
H8 C6 1_555 1_555
C7 C6 1_555 1_555
C8 C7 1_555 1_555
H9 C8 1_555 1_555
C9 C8 1_555 1_555
C10 C9 1_555 1_555
H10 C10 1_555 1_555
H11 C10 1_555 1_555
H12 C10 1_555 1_555
C11 C7 1_555 1_555
C12 C11 1_555 1_555
H13 C12 1_555 1_555
C13 C9 1_555 1_555
H14 C13 1_555 1_555
C14 C8 1_555 1_555
H15 C14 1_555 1_555
C15 O3 1_555 1_555
C16 C6 1_555 1_555
C17 C3 1_555 1_555
H16 C17 1_555 1_555
H17 C17 1_555 1_555
C18 O5 1_555 1_555
C19 O6 1_555 1_555
H18 C19 1_555 1_555
H19 C19 1_555 1_555
C20 C9 1_555 1_555
H20 C20 1_555 1_555
H21 C20 1_555 1_555
H22 C20 1_555 1_555
C21 H23 1_555 1_555
C22 C21 1_555 1_555
H24 C22 1_555 1_555
C23 N1 1_555 1_555
H25 C23 1_555 1_555
C24 C1 1_555 1_555
H26 C24 1_555 1_555
O7 H27 1_555 1_555
C25 C2 1_555 1_555
H28 C25 1_555 1_555
H29 C25 1_555 1_555
C26 O7 1_555 1_555
H30 C26 1_555 1_555
H31 C26 1_555 1_555
C7 C19 1_555 1_555
C12 C13 1_555 1_555
C14 C18 1_555 1_555
C15 C16 1_555 1_555
C16 C17 1_555 1_555
C16 C18 1_555 1_555
C21 C24 1_555 1_555
C22 C23 1_555 1_555
C25 C26 1_555 1_555

#END
