
#######################################################################
#
#                 Cambridge Crystallographic Data Centre
#                                CCDC 
#
#######################################################################
#
# If this CIF has been generated from an entry in the Cambridge 
# Structural Database, then it will include bibliographic, chemical, 
# crystal, experimental, refinement or atomic coordinate data resulting 
# from the CCDC's data processing and validation procedures.
#
#######################################################################

data_GEDZAR
_chemical_formula_moiety         'C11 H16 F1 N1 O3'
_chemical_name_systematic        
'Methyl exo-5-acetamido-anti-7-fluoronornbornane-exo-2-carboxylate'
_symmetry_cell_setting           orthorhombic
_symmetry_space_group_name_H-M   'P b c a'
_symmetry_Int_Tables_number      61
_space_group_name_Hall           '-P 2ac 2ab'
loop_
_symmetry_equiv_pos_site_id
_symmetry_equiv_pos_as_xyz
1 x,y,z
2 1/2-x,-y,1/2+z
3 1/2+x,1/2-y,-z
4 -x,1/2+y,1/2-z
5 -x,-y,-z
6 1/2+x,y,1/2-z
7 1/2-x,1/2+y,z
8 x,1/2-y,1/2+z
_cell_length_a                   9.343(3)
_cell_length_b                   11.249(3)
_cell_length_c                   21.983(5)
_cell_angle_alpha                90
_cell_angle_beta                 90
_cell_angle_gamma                90
_cell_volume                     2310.4
_exptl_crystal_colour            colorless
_exptl_crystal_description       block
_chemical_melting_point          117-118deg.C
_cell_formula_units_Z            8
loop_
_atom_site_label
_atom_site_type_symbol
_atom_site_fract_x
_atom_site_fract_y
_atom_site_fract_z
C1 C -0.7677(3) -0.0527(2) -0.83660(11)
H1 H -0.8548 -0.0112 -0.8237
C2 C -0.6325(3) -0.0234(2) -0.79845(12)
H2 H -0.5855 0.0475 -0.8149
C3 C -0.5370(3) -0.1346(3) -0.80991(12)
H3 H -0.4452 -0.1119 -0.827
H4 H -0.521 -0.1783 -0.7725
C4 C -0.6231(3) -0.2087(2) -0.85513(12)
H5 H -0.5952 -0.2926 -0.8575
C5 C -0.6257(3) -0.1433(2) -0.91640(11)
H6 H -0.5302 -0.1114 -0.925
C6 C -0.7305(3) -0.0389(2) -0.90429(12)
H7 H -0.6849 0.0371 -0.9121
H8 H -0.8154 -0.0455 -0.9294
C7 C -0.7727(3) -0.1867(2) -0.82990(12)
H9 H -0.7806 -0.2109 -0.7872
C8 C -0.6666(3) -0.0045(3) -0.73209(12)
C9 C -0.7564(4) 0.1306(3) -0.66001(13)
H10 H -0.6712 0.1299 -0.6356
H11 H -0.8233 0.0736 -0.6442
H12 H -0.7985 0.2084 -0.6589
C10 C -0.5841(3) -0.2944(3) -0.99370(11)
C11 C -0.6455(3) -0.3683(3) -1.04374(12)
H13 H -0.5969 -0.3506 -1.0811
H14 H -0.7456 -0.3509 -1.0481
H15 H -0.6335 -0.451 -1.0342
F1 F -0.87964(15) -0.23825(15) -0.86591(7)
N1 N -0.6716(3) -0.2167(2) -0.96696(10)
H16 H -0.754(3) -0.209(2) -0.9810(12)
O1 O -0.7208(3) 0.10029(19) -0.72192(9)
O2 O -0.6521(3) -0.0765(2) -0.69300(10)
O3 O -0.4576(2) -0.3056(2) -0.97766(9)
loop_
_geom_bond_atom_site_label_1
_geom_bond_atom_site_label_2
_geom_bond_site_symmetry_1
_geom_bond_site_symmetry_2
C1 H1 1_555 1_555
C2 C1 1_555 1_555
H2 C2 1_555 1_555
C3 C2 1_555 1_555
H3 C3 1_555 1_555
H4 C3 1_555 1_555
C4 C3 1_555 1_555
H5 C4 1_555 1_555
C5 C4 1_555 1_555
H6 C5 1_555 1_555
C6 C1 1_555 1_555
H7 C6 1_555 1_555
H8 C6 1_555 1_555
C7 C1 1_555 1_555
H9 C7 1_555 1_555
C8 C2 1_555 1_555
C9 H10 1_555 1_555
H11 C9 1_555 1_555
H12 C9 1_555 1_555
C10 C11 1_555 1_555
C11 H13 1_555 1_555
H14 C11 1_555 1_555
H15 C11 1_555 1_555
F1 C7 1_555 1_555
N1 C5 1_555 1_555
H16 N1 1_555 1_555
O1 C8 1_555 1_555
O2 C8 1_555 1_555
O3 C10 1_555 1_555
C4 C7 1_555 1_555
C5 C6 1_555 1_555
C9 O1 1_555 1_555
C10 N1 1_555 1_555

#END
