
#######################################################################
#
#                 Cambridge Crystallographic Data Centre
#                                CCDC 
#
#######################################################################
#
# If this CIF has been generated from an entry in the Cambridge 
# Structural Database, then it will include bibliographic, chemical, 
# crystal, experimental, refinement or atomic coordinate data resulting 
# from the CCDC's data processing and validation procedures.
#
#######################################################################

data_GEDZIZ
_chemical_formula_moiety         'C11 H14 F2 O4'
_chemical_name_systematic        
'Dimethyl anti-7,exo-5-difluoro-cis-norbornane-exo-2,3-dicarboxylate'
_symmetry_cell_setting           orthorhombic
_symmetry_space_group_name_H-M   'P b c n'
_symmetry_Int_Tables_number      60
_space_group_name_Hall           '-P 2n 2ab'
loop_
_symmetry_equiv_pos_site_id
_symmetry_equiv_pos_as_xyz
1 x,y,z
2 1/2+x,1/2-y,-z
3 -x,y,1/2-z
4 1/2-x,1/2-y,1/2+z
5 -x,-y,-z
6 1/2-x,1/2+y,z
7 x,-y,1/2+z
8 1/2+x,1/2+y,1/2-z
_cell_length_a                   18.975(3)
_cell_length_b                   11.9106(18)
_cell_length_c                   10.2216(15)
_cell_angle_alpha                90
_cell_angle_beta                 90
_cell_angle_gamma                90
_cell_volume                     2310.12
_exptl_crystal_colour            colorless
_exptl_crystal_description       prism
_chemical_melting_point          '368 K'
_cell_formula_units_Z            8
loop_
_atom_site_label
_atom_site_type_symbol
_atom_site_fract_x
_atom_site_fract_y
_atom_site_fract_z
F1 F 0.93175(7) 0.25881(13) 0.42279(14)
F2 F 0.98341(13) 0.0770(3) 0.5899(2)
O1 O 0.7623(1) 0.05655(15) 0.30181(14)
O2 O 0.68042(9) 0.02459(13) 0.45485(15)
O3 O 0.70602(9) 0.29341(14) 0.45734(15)
O4 O 0.65476(8) 0.22439(13) 0.63716(14)
C1 C 0.91427(13) 0.0910(2) 0.6147(2)
C2 C 0.86912(13) 0.0916(2) 0.4904(2)
C3 C 0.79311(12) 0.0717(2) 0.5305(2)
C4 C 0.77404(11) 0.18289(18) 0.60773(19)
C5 C 0.84095(12) 0.2541(2) 0.5897(2)
C6 C 0.89775(13) 0.2039(2) 0.6791(2)
C7 C 0.86569(12) 0.2150(2) 0.4563(2)
C8 C 0.74574(14) 0.05074(19) 0.4145(2)
C9 C 0.62880(18) 0.0075(3) 0.3532(3)
C10 C 0.70922(11) 0.24050(18) 0.5581(2)
C11 C 0.58753(13) 0.2660(3) 0.5920(3)
H1 H 0.9050(14) 0.027(2) 0.671(2)
H2 H 0.8803(13) 0.043(2) 0.427(3)
H3 H 0.7864(11) 0.008(2) 0.586(2)
H4 H 0.768(1) 0.1629(18) 0.700(2)
H5 H 0.832(1) 0.333(2) 0.5991(19)
H6 H 0.8828(12) 0.195(2) 0.768(3)
H7 H 0.836(1) 0.2366(17) 0.3881(18)
H8 H 0.5847(15) -0.020(2) 0.398(2)
H9 H 0.6467(16) -0.047(3) 0.289(3)
H10 H 0.6192(15) 0.072(3) 0.315(3)
H11 H 0.5553(16) 0.261(3) 0.663(4)
H12 H 0.5913(16) 0.347(3) 0.568(3)
H13 H 0.5716(15) 0.221(2) 0.518(3)
F3? F 0.95609(15) 0.2792(3) 0.6783(3)
loop_
_geom_bond_atom_site_label_1
_geom_bond_atom_site_label_2
_geom_bond_site_symmetry_1
_geom_bond_site_symmetry_2
F1 C7 1_555 1_555
F2 C1 1_555 1_555
O1 C8 1_555 1_555
O2 C8 1_555 1_555
O3 C10 1_555 1_555
O4 C10 1_555 1_555
C1 C2 1_555 1_555
C2 C3 1_555 1_555
C3 C4 1_555 1_555
C4 C5 1_555 1_555
C5 C6 1_555 1_555
C6 C1 1_555 1_555
C7 C2 1_555 1_555
C8 C3 1_555 1_555
C9 O2 1_555 1_555
C10 C4 1_555 1_555
C11 O4 1_555 1_555
H1 C1 1_555 1_555
H2 C2 1_555 1_555
H3 C3 1_555 1_555
H4 C4 1_555 1_555
H5 C5 1_555 1_555
H6 C6 1_555 1_555
H7 C7 1_555 1_555
H8 C9 1_555 1_555
H9 C9 1_555 1_555
H10 C9 1_555 1_555
H11 C11 1_555 1_555
H12 C11 1_555 1_555
H13 C11 1_555 1_555
C5 C7 1_555 1_555

#END
