
#######################################################################
#
#                 Cambridge Crystallographic Data Centre
#                                CCDC 
#
#######################################################################
#
# If this CIF has been generated from an entry in the Cambridge 
# Structural Database, then it will include bibliographic, chemical, 
# crystal, experimental, refinement or atomic coordinate data resulting 
# from the CCDC's data processing and validation procedures.
#
#######################################################################

data_GEFBOL
_chemical_formula_moiety         'C16 H13 N1 O2'
_chemical_name_systematic        
3-[(2-hydroxyphenyl)methylidene]-1-methyl-1,3-dihydro-2H-indol-2-one
_symmetry_cell_setting           monoclinic
_symmetry_space_group_name_H-M   'P 21/c'
_symmetry_Int_Tables_number      14
_space_group_name_Hall           '-P 2ybc'
loop_
_symmetry_equiv_pos_site_id
_symmetry_equiv_pos_as_xyz
1 x,y,z
2 -x,1/2+y,1/2-z
3 -x,-y,-z
4 x,1/2-y,1/2+z
_cell_length_a                   9.8300(5)
_cell_length_b                   10.1369(4)
_cell_length_c                   12.4497(5)
_cell_angle_alpha                90
_cell_angle_beta                 95.021(2)
_cell_angle_gamma                90
_cell_volume                     1235.8
_exptl_crystal_colour            yellow
_exptl_crystal_description       block
_cell_formula_units_Z            4
loop_
_atom_site_label
_atom_site_type_symbol
_atom_site_fract_x
_atom_site_fract_y
_atom_site_fract_z
O1 O 1.00792(10) 0.35001(10) 0.40609(7)
H1 H 1.090102 0.326388 0.409703
O2 O 0.72751(10) 0.70978(10) 0.54968(8)
N1 N 0.51025(11) 0.69086(11) 0.46798(9)
C1 C 0.44328(15) 0.77734(14) 0.54025(11)
H2 H 0.504913 0.794247 0.604976
H3 H 0.359738 0.735075 0.560833
H4 H 0.420042 0.860972 0.503635
C2 C 0.44453(13) 0.62588(12) 0.37822(10)
C3 C 0.30778(14) 0.63074(14) 0.34112(11)
H5 H 0.245245 0.684669 0.375211
C4 C 0.26536(14) 0.55370(13) 0.25203(12)
H6 H 0.172691 0.557128 0.223213
C5 C 0.35619(14) 0.47175(14) 0.20442(11)
H7 H 0.323903 0.416749 0.145860
C6 C 0.49429(14) 0.46931(13) 0.24163(10)
H8 H 0.555963 0.413289 0.208620
C7 C 0.54056(13) 0.54993(12) 0.32764(10)
C8 C 0.67354(13) 0.57164(12) 0.38815(10)
C9 C 0.64610(13) 0.66227(13) 0.47905(10)
C10 C 0.80163(13) 0.53036(12) 0.37591(10)
H9 H 0.867135 0.547115 0.435041
C11 C 0.85321(13) 0.46318(12) 0.28368(10)
C12 C 0.80971(13) 0.49657(13) 0.17695(10)
H10 H 0.736399 0.556983 0.163027
C13 C 0.87184(14) 0.44296(14) 0.09160(10)
H11 H 0.842032 0.467289 0.019677
C14 C 0.97788(14) 0.35352(14) 0.11136(11)
H12 H 1.019276 0.315310 0.052621
C15 C 1.02385(13) 0.31948(13) 0.21585(11)
H13 H 1.096179 0.257789 0.228800
C16 C 0.96368(13) 0.37604(12) 0.30207(10)
loop_
_geom_bond_atom_site_label_1
_geom_bond_atom_site_label_2
_geom_bond_site_symmetry_1
_geom_bond_site_symmetry_2
O1 H1 1_555 1_555
O2 C9 1_555 1_555
N1 C1 1_555 1_555
C1 H2 1_555 1_555
H3 C1 1_555 1_555
H4 C1 1_555 1_555
C2 N1 1_555 1_555
C3 C2 1_555 1_555
H5 C3 1_555 1_555
C4 C3 1_555 1_555
H6 C4 1_555 1_555
C5 C4 1_555 1_555
H7 C5 1_555 1_555
C6 C5 1_555 1_555
H8 C6 1_555 1_555
C7 C2 1_555 1_555
C8 C7 1_555 1_555
C9 N1 1_555 1_555
C10 C8 1_555 1_555
H9 C10 1_555 1_555
C11 C10 1_555 1_555
C12 C11 1_555 1_555
H10 C12 1_555 1_555
C13 C12 1_555 1_555
H11 C13 1_555 1_555
C14 C13 1_555 1_555
H12 C14 1_555 1_555
C15 C14 1_555 1_555
H13 C15 1_555 1_555
C16 O1 1_555 1_555
C6 C7 1_555 1_555
C8 C9 1_555 1_555
C11 C16 1_555 1_555
C15 C16 1_555 1_555

#END
