
#######################################################################
#
#                 Cambridge Crystallographic Data Centre
#                                CCDC 
#
#######################################################################
#
# If this CIF has been generated from an entry in the Cambridge 
# Structural Database, then it will include bibliographic, chemical, 
# crystal, experimental, refinement or atomic coordinate data resulting 
# from the CCDC's data processing and validation procedures.
#
#######################################################################

data_GEFCOK
_chemical_formula_moiety         'C15 H22 N2 O2'
_chemical_name_systematic        
7-Amino-3-hexyl-3-hydroxy-2-methyl-2,3-dihydroisoindol-1-one
_chemical_properties_biological  
'antibiotic activity against Staphylococcus aureus'
_symmetry_cell_setting           monoclinic
_symmetry_space_group_name_H-M   'P 21/c'
_symmetry_Int_Tables_number      14
_space_group_name_Hall           '-P 2ybc'
loop_
_symmetry_equiv_pos_site_id
_symmetry_equiv_pos_as_xyz
1 x,y,z
2 -x,1/2+y,1/2-z
3 -x,-y,-z
4 x,1/2-y,1/2+z
_cell_length_a                   14.365(3)
_cell_length_b                   8.446(2)
_cell_length_c                   12.304(2)
_cell_angle_alpha                90
_cell_angle_beta                 97.88(3)
_cell_angle_gamma                90
_cell_volume                     1478.71
_exptl_crystal_colour            colorless
_exptl_crystal_description       prism
_chemical_melting_point          129deg.C
_cell_formula_units_Z            4
loop_
_atom_site_label
_atom_site_type_symbol
_atom_site_fract_x
_atom_site_fract_y
_atom_site_fract_z
C1 C 0.5517(4) 0.6251(13) 0.8688(9)
H1 H 0.5846 0.5358 0.9096
H2 H 0.5864 0.6587 0.8085
C2 C 0.5322(8) 0.7645(14) 0.9448(8)
H3 H 0.5920 0.8077 0.9805
H4 H 0.4953 0.7263 1.0008
H5 H 0.4971 0.8474 0.9011
C5 C 0.1699(2) 0.6421(3) 0.5249(2)
C6 C 0.1878(2) 0.4882(3) 0.4689(2)
C7 C 0.14412(19) 0.3661(3) 0.5163(2)
C8 C 0.0898(2) 0.4325(4) 0.5980(2)
C9 C 0.0654(2) 0.6976(4) 0.6739(3)
H11 H 0.0859 0.8059 0.6612
H12 H 0.0870 0.6674 0.7501
H13 H -0.0033 0.6921 0.6601
C10 C 0.2587(2) 0.7171(4) 0.5863(2)
H14 H 0.3031 0.7387 0.5333
H15 H 0.2418 0.8199 0.6169
C11 C 0.3078(2) 0.6167(4) 0.6784(3)
H16 H 0.3216 0.5116 0.6487
H17 H 0.2647 0.6002 0.7337
C12 C 0.3985(2) 0.6885(4) 0.7343(3)
H18 H 0.3848 0.7944 0.7629
H19 H 0.4420 0.7031 0.6793
C13 C 0.4467(3) 0.5881(6) 0.8284(4)
H20 H 0.4419 0.4757 0.8054
H21 H 0.4112 0.5998 0.8914
C14 C 0.2372(2) 0.4616(5) 0.3821(3)
H22 H 0.2665 0.5455 0.3481
C15 C 0.2420(3) 0.3046(5) 0.3465(3)
H23 H 0.2745 0.2821 0.2861
C16 C 0.2013(3) 0.1827(5) 0.3959(3)
H24 H 0.2076 0.0778 0.3700
C17 C 0.1505(2) 0.2085(4) 0.4836(3)
N1 N 0.10497(16) 0.5899(3) 0.60038(18)
N2 N 0.1089(3) 0.0894(4) 0.5336(4)
O1 O 0.03761(14) 0.3616(3) 0.65400(16)
O2 O 0.12780(16) 0.7587(2) 0.45196(18)
H25 H 0.119(3) -0.013(6) 0.506(4)
H26 H 0.080(3) 0.113(6) 0.592(4)
H27 H 0.083(3) 0.724(5) 0.418(3)
C3? C 0.5343(5) 0.6727(11) 0.8903(8)
H6? H 0.5636 0.5997 0.9481
H7? H 0.5799 0.6875 0.8378
C4? C 0.5216(11) 0.8353(16) 0.9455(12)
H8? H 0.5827 0.8734 0.9810
H9? H 0.4788 0.8234 1.0005
H10? H 0.4952 0.9117 0.8896
loop_
_geom_bond_atom_site_label_1
_geom_bond_atom_site_label_2
_geom_bond_site_symmetry_1
_geom_bond_site_symmetry_2
C1 H1 1_555 1_555
H2 C1 1_555 1_555
C2 C1 1_555 1_555
H3 C2 1_555 1_555
H4 C2 1_555 1_555
H5 C2 1_555 1_555
C5 C6 1_555 1_555
C6 C7 1_555 1_555
C7 C8 1_555 1_555
C8 N1 1_555 1_555
C9 H11 1_555 1_555
H12 C9 1_555 1_555
H13 C9 1_555 1_555
C10 C5 1_555 1_555
H14 C10 1_555 1_555
H15 C10 1_555 1_555
C11 C10 1_555 1_555
H16 C11 1_555 1_555
H17 C11 1_555 1_555
C12 C11 1_555 1_555
H18 C12 1_555 1_555
H19 C12 1_555 1_555
C13 C1 1_555 1_555
H20 C13 1_555 1_555
H21 C13 1_555 1_555
C14 C6 1_555 1_555
H22 C14 1_555 1_555
C15 C14 1_555 1_555
H23 C15 1_555 1_555
C16 C15 1_555 1_555
H24 C16 1_555 1_555
C17 C7 1_555 1_555
N1 C5 1_555 1_555
N2 C17 1_555 1_555
O1 C8 1_555 1_555
O2 C5 1_555 1_555
H25 N2 1_555 1_555
H26 N2 1_555 1_555
H27 O2 1_555 1_555
C9 N1 1_555 1_555
C12 C13 1_555 1_555
C16 C17 1_555 1_555

#END
