
#######################################################################
#
#                 Cambridge Crystallographic Data Centre
#                                CCDC 
#
#######################################################################
#
# If this CIF has been generated from an entry in the Cambridge 
# Structural Database, then it will include bibliographic, chemical, 
# crystal, experimental, refinement or atomic coordinate data resulting 
# from the CCDC's data processing and validation procedures.
#
#######################################################################

data_GEFDAX
_chemical_formula_moiety         'C36 H45 N5 O4 S1,2(C1 H4 O1)'
_chemical_name_systematic        
"(1E,2'Z,4'E,4''E)-(1''S,2'''R)-5-(Dimethylamino)-N'-(5'-(1''-hydroxy-4''-(2'''-(methoxymethyl)pyrrolidin-1'''-ylimino)-2'',2''-dimethyl-1'',2'',3'',4''-tetrahydronaphthalen-1''-yl)-3'-methylpenta-2',4'-dienylidene)naphthalene-1-sulfononhydrazide methanol solvate"
_symmetry_cell_setting           orthorhombic
_symmetry_space_group_name_H-M   'P 21 21 21'
_symmetry_Int_Tables_number      19
_space_group_name_Hall           'P 2ac 2ab'
loop_
_symmetry_equiv_pos_site_id
_symmetry_equiv_pos_as_xyz
1 x,y,z
2 1/2-x,-y,1/2+z
3 1/2+x,1/2-y,-z
4 -x,1/2+y,1/2-z
_cell_length_a                   11.2340(2)
_cell_length_b                   16.3940(2)
_cell_length_c                   20.9930(3)
_cell_angle_alpha                90
_cell_angle_beta                 90
_cell_angle_gamma                90
_cell_volume                     3866.28
_exptl_crystal_colour            colorless
_chemical_melting_point          110.1-114.9deg.C(dec)
_cell_formula_units_Z            4
loop_
_atom_site_label
_atom_site_type_symbol
_atom_site_fract_x
_atom_site_fract_y
_atom_site_fract_z
S1 S 0.26049(6) 0.19172(4) -0.04378(3)
O1 O 0.30681(18) 0.17238(12) -0.10551(9)
O2 O 0.20475(18) 0.26934(11) -0.03380(9)
O3 O 0.86764(17) 0.16878(11) 0.16681(8)
H1 H 0.8480 0.2166 0.1571
O4 O 1.5169(2) -0.04258(19) 0.29358(12)
N1 N 0.37600(18) 0.18714(14) 0.00370(10)
H4 H 0.4471 0.1724 -0.0096
N2 N 0.35291(19) 0.20840(13) 0.06676(10)
N3 N 0.0093(3) -0.16372(15) -0.00485(13)
N4 N 1.2009(2) 0.08611(13) 0.24706(11)
N5 N 1.2389(2) 0.01541(14) 0.21467(11)
C1 C 0.1580(2) 0.11580(16) -0.01894(12)
C2 C 0.0576(2) 0.14256(17) 0.01133(13)
H5 H 0.0453 0.1994 0.0173
C3 C -0.0274(3) 0.08687(18) 0.03370(14)
H6 H -0.0958 0.1057 0.0558
C4 C -0.0111(3) 0.00518(18) 0.02344(13)
H7 H -0.0689 -0.0322 0.0388
C5 C 0.0895(2) -0.02495(16) -0.00949(13)
C6 C 0.1040(3) -0.11100(17) -0.02204(14)
C7 C 0.2086(3) -0.13755(17) -0.04790(15)
H8 H 0.2204 -0.1943 -0.0543
C8 C 0.2992(3) -0.08288(18) -0.06528(14)
H9 H 0.3714 -0.1034 -0.0825
C9 C 0.2852(2) -0.00036(17) -0.05783(13)
H10 H 0.3462 0.0359 -0.0713
C10 C 0.1796(2) 0.03072(16) -0.02991(12)
C11 C 0.4413(2) 0.19790(16) 0.10542(13)
H11 H 0.5156 0.1784 0.0902
C12 C 0.4252(2) 0.21625(17) 0.17194(14)
H12 H 0.3481 0.2337 0.1846
C13 C 0.5080(2) 0.21120(16) 0.21810(13)
C14 C 0.6322(2) 0.19089(16) 0.20468(13)
H13 H 0.6555 0.1883 0.1612
C15 C 0.7152(2) 0.17580(16) 0.24820(13)
H14 H 0.6925 0.1784 0.2918
C16 C 0.8434(2) 0.15477(16) 0.23317(12)
C17 C 0.8672(2) 0.06166(17) 0.24370(14)
C18 C 0.9943(2) 0.04434(16) 0.22077(14)
H15 H 1.0150 -0.0126 0.2320
H16 H 0.9960 0.0487 0.1737
C19 C 1.0876(2) 0.09970(16) 0.24759(13)
C20 C 1.0489(2) 0.17631(16) 0.27947(12)
C21 C 1.1295(3) 0.22154(17) 0.31615(13)
H17 H 1.2089 0.2027 0.3210
C22 C 1.0949(3) 0.29324(18) 0.34530(15)
H18 H 1.1500 0.3231 0.3705
C23 C 0.9790(3) 0.32162(19) 0.33769(15)
H19 H 0.9549 0.3710 0.3575
C24 C 0.8993(3) 0.27790(18) 0.30131(14)
H20 H 0.8211 0.2985 0.2954
C25 C 0.9310(2) 0.20374(16) 0.27285(13)
C26 C 1.2212(3) 0.01680(19) 0.14436(13)
H21 H 1.2150 0.0737 0.1289
H22 H 1.1474 -0.0126 0.1327
C27 C 1.3279(3) -0.0245(3) 0.11567(18)
H23 H 1.3754 0.0147 0.0904
H24 H 1.3030 -0.0700 0.0877
C28 C 1.3991(3) -0.0560(2) 0.17147(18)
H25 H 1.4855 -0.0549 0.1621
H26 H 1.3755 -0.1125 0.1825
C29 C 1.3681(2) 0.00283(18) 0.22499(15)
H27 H 1.4115 0.0555 0.2187
C30 C -0.0992(3) -0.1552(2) -0.04287(19)
H28 H -0.1673 -0.1760 -0.0186
H29 H -0.0909 -0.1865 -0.0824
H30 H -0.1120 -0.0976 -0.0531
C31 C 0.0419(4) -0.2493(2) 0.0028(3)
H31 H -0.0256 -0.2794 0.0207
H32 H 0.1102 -0.2535 0.0316
H33 H 0.0629 -0.2723 -0.0387
C32 C 0.4727(3) 0.2254(2) 0.28619(14)
H34 H 0.5289 0.2633 0.3061
H35 H 0.4737 0.1734 0.3093
H36 H 0.3924 0.2486 0.2877
C33 C 0.7814(3) 0.00934(18) 0.20474(17)
H37 H 0.6999 0.0180 0.2199
H38 H 0.8026 -0.0483 0.2096
H39 H 0.7868 0.0247 0.1597
C34 C 0.8539(3) 0.03893(19) 0.31464(15)
H40 H 0.7728 0.0516 0.3289
H41 H 0.9111 0.0703 0.3400
H42 H 0.8692 -0.0195 0.3202
C35 C 1.3925(3) -0.0297(2) 0.29018(16)
H43 H 1.3669 0.0100 0.3230
H44 H 1.3492 -0.0815 0.2971
C36 C 1.5557(3) -0.0706(2) 0.35148(16)
H45 H 1.5381 -0.0300 0.3844
H46 H 1.6418 -0.0801 0.3497
H47 H 1.5150 -0.1218 0.3617
O5 O 0.55504(19) 0.07432(14) -0.02129(12)
H2 H 0.6001 0.1002 -0.0460
C37 C 0.6197(4) 0.0148(3) 0.0100(3)
H48 H 0.6643 0.0397 0.0451
H49 H 0.6754 -0.0108 -0.0199
H50 H 0.5654 -0.0266 0.0270
O6 O 0.1800(2) 0.33520(13) 0.10219(10)
H3 H 0.2301 0.3006 0.0898
C38 C 0.1115(3) 0.3018(2) 0.15183(16)
H51 H 0.1520 0.3109 0.1926
H52 H 0.1016 0.2431 0.1448
H53 H 0.0332 0.3281 0.1527
loop_
_geom_bond_atom_site_label_1
_geom_bond_atom_site_label_2
_geom_bond_site_symmetry_1
_geom_bond_site_symmetry_2
S1 O1 1_555 1_555
O2 S1 1_555 1_555
O3 H1 1_555 1_555
O4 C35 1_555 1_555
O5 H2 1_555 1_555
O6 H3 1_555 1_555
N1 S1 1_555 1_555
H4 N1 1_555 1_555
N2 N1 1_555 1_555
N3 C6 1_555 1_555
N4 N5 1_555 1_555
N5 C26 1_555 1_555
C1 S1 1_555 1_555
C2 C1 1_555 1_555
H5 C2 1_555 1_555
C3 C2 1_555 1_555
H6 C3 1_555 1_555
C4 C3 1_555 1_555
H7 C4 1_555 1_555
C5 C4 1_555 1_555
C6 C5 1_555 1_555
C7 C6 1_555 1_555
H8 C7 1_555 1_555
C8 C7 1_555 1_555
H9 C8 1_555 1_555
C9 C8 1_555 1_555
H10 C9 1_555 1_555
C10 C1 1_555 1_555
C11 N2 1_555 1_555
H11 C11 1_555 1_555
C12 C11 1_555 1_555
H12 C12 1_555 1_555
C13 C12 1_555 1_555
C14 C13 1_555 1_555
H13 C14 1_555 1_555
C15 C14 1_555 1_555
H14 C15 1_555 1_555
C16 O3 1_555 1_555
C17 C16 1_555 1_555
C18 C17 1_555 1_555
H15 C18 1_555 1_555
H16 C18 1_555 1_555
C19 N4 1_555 1_555
C20 C19 1_555 1_555
C21 C20 1_555 1_555
H17 C21 1_555 1_555
C22 C21 1_555 1_555
H18 C22 1_555 1_555
C23 C22 1_555 1_555
H19 C23 1_555 1_555
C24 C23 1_555 1_555
H20 C24 1_555 1_555
C25 C16 1_555 1_555
C26 H21 1_555 1_555
H22 C26 1_555 1_555
C27 C26 1_555 1_555
H23 C27 1_555 1_555
H24 C27 1_555 1_555
C28 C27 1_555 1_555
H25 C28 1_555 1_555
H26 C28 1_555 1_555
C29 N5 1_555 1_555
H27 C29 1_555 1_555
C30 N3 1_555 1_555
H28 C30 1_555 1_555
H29 C30 1_555 1_555
H30 C30 1_555 1_555
C31 N3 1_555 1_555
H31 C31 1_555 1_555
H32 C31 1_555 1_555
H33 C31 1_555 1_555
C32 C13 1_555 1_555
H34 C32 1_555 1_555
H35 C32 1_555 1_555
H36 C32 1_555 1_555
C33 C17 1_555 1_555
H37 C33 1_555 1_555
H38 C33 1_555 1_555
H39 C33 1_555 1_555
C34 C17 1_555 1_555
H40 C34 1_555 1_555
H41 C34 1_555 1_555
H42 C34 1_555 1_555
C35 C29 1_555 1_555
H43 C35 1_555 1_555
H44 C35 1_555 1_555
C36 O4 1_555 1_555
H45 C36 1_555 1_555
H46 C36 1_555 1_555
H47 C36 1_555 1_555
C37 O5 1_555 1_555
H48 C37 1_555 1_555
H49 C37 1_555 1_555
H50 C37 1_555 1_555
C38 O6 1_555 1_555
H51 C38 1_555 1_555
H52 C38 1_555 1_555
H53 C38 1_555 1_555
C5 C10 1_555 1_555
C9 C10 1_555 1_555
C15 C16 1_555 1_555
C18 C19 1_555 1_555
C20 C25 1_555 1_555
C24 C25 1_555 1_555
C28 C29 1_555 1_555

#END
