
#######################################################################
#
#                 Cambridge Crystallographic Data Centre
#                                CCDC 
#
#######################################################################
#
# If this CIF has been generated from an entry in the Cambridge 
# Structural Database, then it will include bibliographic, chemical, 
# crystal, experimental, refinement or atomic coordinate data resulting 
# from the CCDC's data processing and validation procedures.
#
#######################################################################

data_GEFDAW
_chemical_formula_moiety         'C18 H21 N1 O3'
_chemical_name_systematic        
10-Methoxy-5-methyl-7-phenyl-2,3,4,5-tetrahydro-7H-1,6,5-benzodioxazonine
_symmetry_cell_setting           monoclinic
_symmetry_space_group_name_H-M   'P 21/c'
_symmetry_Int_Tables_number      14
_space_group_name_Hall           '-P 2ybc'
loop_
_symmetry_equiv_pos_site_id
_symmetry_equiv_pos_as_xyz
1 x,y,z
2 -x,1/2+y,1/2-z
3 -x,-y,-z
4 x,1/2-y,1/2+z
_cell_length_a                   9.051(5)
_cell_length_b                   18.654(7)
_cell_length_c                   9.267(6)
_cell_angle_alpha                90
_cell_angle_beta                 90.85(5)
_cell_angle_gamma                90
_cell_volume                     1564.44
_exptl_crystal_colour            colorless
_chemical_melting_point          82-83deg.C
_cell_formula_units_Z            4
loop_
_atom_site_label
_atom_site_type_symbol
_atom_site_fract_x
_atom_site_fract_y
_atom_site_fract_z
C1 C 0.2636(4) 0.6076(2) 0.1783(4)
C2 C 0.1899(5) 0.6638(2) 0.2404(5)
C3 C 0.1091(5) 0.6514(2) 0.3647(5)
O1 O 0.0345(3) 0.7106(2) 0.4144(3)
C4 C -0.06336 0.7009(3) 0.5304(6)
C5 C 0.1074(5) 0.5844(2) 0.4281(4)
C6 C 0.1853(5) 0.5290(2) 0.3623(4)
C7 C 0.2624(4) 0.5386(2) 0.2368(4)
C8 C 0.3315(4) 0.4787(2) 0.1508(4)
C9 C 0.3707(4) 0.4120(2) 0.2372(4)
C10 C 0.4622(5) 0.4187(2) 0.3581(5)
C11 C 0.5105(5) 0.3591(3) 0.4335(5)
C12 C 0.4705(6) 0.2912(3) 0.3877(6)
C13 C 0.3791(6) 0.2840(2) 0.2680(6)
C14 C 0.3305(5) 0.3441(2) 0.1938(5)
O2 O 0.2276(3) 0.4603(1) 0.0358(3)
N1 N 0.2878(4) 0.4797(2) -0.1040(3)
C15 C 0.3102(5) 0.4118(3) -0.1792(5)
C16 C 0.1717(5) 0.5206(3) -0.1772(5)
C17 C 0.1318(5) 0.5908(3) -0.1061(5)
C18 C 0.2577(5) 0.6405(3) -0.0698(5)
O3 O 0.3441(3) 0.6173(1) 0.0536(3)
H1 H 0.192 0.712 0.198
H2 H -0.139 0.666 0.503
H3 H -0.011 0.681 0.612
H4 H -0.118 0.741 0.568
H5 H 0.055 0.577 0.519
H6 H 0.185 0.481 0.409
H7 H 0.424 0.496 0.108
H8 H 0.496 0.466 0.390
H9 H 0.571 0.365 0.521
H10 H 0.506 0.249 0.441
H11 H 0.350 0.236 0.235
H12 H 0.265 0.338 0.110
H13 H 0.221 0.382 -0.179
H14 H 0.339 0.417 -0.276
H15 H 0.386 0.383 -0.131
H16 H 0.203 0.531 -0.275
H17 H 0.084 0.490 -0.188
H18 H 0.058 0.614 -0.163
H19 H 0.085 0.578 -0.015
H20 H 0.317 0.646 -0.154
H21 H 0.216 0.688 -0.051
loop_
_geom_bond_atom_site_label_1
_geom_bond_atom_site_label_2
_geom_bond_site_symmetry_1
_geom_bond_site_symmetry_2
C1 C2 1_555 1_555
C2 C3 1_555 1_555
C3 O1 1_555 1_555
O1 C4 1_555 1_555
C4 H2 1_555 1_555
C5 C3 1_555 1_555
C6 C5 1_555 1_555
C7 C1 1_555 1_555
C8 C7 1_555 1_555
C9 C8 1_555 1_555
C10 C9 1_555 1_555
C11 C10 1_555 1_555
C12 C11 1_555 1_555
C13 C12 1_555 1_555
C14 C9 1_555 1_555
O2 C8 1_555 1_555
N1 O2 1_555 1_555
C15 N1 1_555 1_555
C16 N1 1_555 1_555
C17 C16 1_555 1_555
C18 C17 1_555 1_555
O3 C1 1_555 1_555
H1 C2 1_555 1_555
H3 C4 1_555 1_555
H4 C4 1_555 1_555
H5 C5 1_555 1_555
H6 C6 1_555 1_555
H7 C8 1_555 1_555
H8 C10 1_555 1_555
H9 C11 1_555 1_555
H10 C12 1_555 1_555
H11 C13 1_555 1_555
H12 C14 1_555 1_555
H13 C15 1_555 1_555
H14 C15 1_555 1_555
H15 C15 1_555 1_555
H16 C16 1_555 1_555
H17 C16 1_555 1_555
H18 C17 1_555 1_555
H19 C17 1_555 1_555
H20 C18 1_555 1_555
H21 C18 1_555 1_555
C6 C7 1_555 1_555
C13 C14 1_555 1_555
C18 O3 1_555 1_555

#END
