
#######################################################################
#
#                 Cambridge Crystallographic Data Centre
#                                CCDC 
#
#######################################################################
#
# If this CIF has been generated from an entry in the Cambridge 
# Structural Database, then it will include bibliographic, chemical, 
# crystal, experimental, refinement or atomic coordinate data resulting 
# from the CCDC's data processing and validation procedures.
#
#######################################################################

data_GEFFUV
_chemical_formula_moiety         'C18 H25 N1 O4'
_chemical_name_systematic        
16'H-spiro[1,3-dioxolane-2,10'-[18]oxa[5]azapentacyclo[10.4.1.1^2,5^.0^1,9^.0^9,14^]octadecan]-16'-one
_symmetry_cell_setting           monoclinic
_symmetry_space_group_name_H-M   'P 21/c'
_symmetry_Int_Tables_number      14
_space_group_name_Hall           '-P 2ybc'
loop_
_symmetry_equiv_pos_site_id
_symmetry_equiv_pos_as_xyz
1 x,y,z
2 -x,1/2+y,1/2-z
3 -x,-y,-z
4 x,1/2-y,1/2+z
_cell_length_a                   8.3782(7)
_cell_length_b                   22.5803(16)
_cell_length_c                   8.7664(7)
_cell_angle_alpha                90
_cell_angle_beta                 111.944(9)
_cell_angle_gamma                90
_cell_volume                     1538.29
_exptl_crystal_colour            colorless
_exptl_crystal_description       block
_chemical_melting_point          '506 K'
_cell_formula_units_Z            4
_exptl_crystal_recrystallization_method 'petroleum ether/ethyl acetate'
loop_
_atom_site_label
_atom_site_type_symbol
_atom_site_fract_x
_atom_site_fract_y
_atom_site_fract_z
O1 O -0.4461(2) -0.66268(9) -0.0711(2)
O2 O -0.0839(3) -0.65548(12) -0.0261(3)
O3 O -0.2321(3) -0.55068(9) 0.5214(2)
O4 O -0.3971(2) -0.63257(10) 0.4535(2)
N1 N -0.6293(3) -0.66444(13) -0.1012(3)
C1 C -0.2039(3) -0.65528(12) 0.1887(3)
C2 C -0.2419(3) -0.59926(11) 0.2754(3)
C3 C -0.3982(3) -0.56124(12) 0.1693(3)
H1 H -0.3902 -0.5241 0.2272
H2 H -0.3813 -0.5520 0.0684
C4 C -0.5861(3) -0.58291(14) 0.1189(3)
H3 H -0.5883 -0.6134 0.1959
H4 H -0.6545 -0.5501 0.1319
C5 C -0.6741(4) -0.60738(16) -0.0538(4)
H5 H -0.7964 -0.6084 -0.0756
H6 H -0.6580 -0.5784 -0.1285
C6 C -0.3473(4) -0.69487(13) 0.0786(3)
H7 H -0.2931 -0.7286 0.0466
C7 C -0.4769(4) -0.71962(14) 0.1459(4)
H8 H -0.4801 -0.6962 0.2374
H9 H -0.4512 -0.7604 0.1809
C8 C -0.6458(4) -0.71470(15) -0.0032(4)
H10 H -0.6668 -0.7508 -0.0678
H11 H -0.7412 -0.7085 0.0323
C9 C -0.1135(3) -0.62882(14) 0.0793(4)
C10 C -0.0604(4) -0.56608(14) 0.1311(4)
H12 H -0.1382 -0.5380 0.0559
H13 H 0.0559 -0.5584 0.1377
C11 C -0.0722(3) -0.56348(14) 0.3003(3)
H14 H -0.0803 -0.5225 0.3338
C12 C -0.0623(4) -0.69325(14) 0.3182(4)
H15 H -0.1148 -0.7273 0.3485
H16 H 0.0184 -0.7076 0.2711
C13 C 0.0334(4) -0.65607(15) 0.4715(4)
H17 H 0.1358 -0.6774 0.5435
C14 C 0.0847(4) -0.59580(16) 0.4267(4)
H18 H 0.1727 -0.6009 0.3808
H19 H 0.1327 -0.5718 0.5252
C15 C -0.0896(4) -0.64629(16) 0.5591(4)
H20 H -0.0303 -0.6264 0.6631
H21 H -0.1309 -0.6841 0.5818
C16 C -0.2412(3) -0.60871(12) 0.4517(3)
C17 C -0.3096(5) -0.55500(18) 0.6395(4)
H22 H -0.3763 -0.5198 0.6382
H23 H -0.2229 -0.5600 0.7490
C18 C -0.4218(5) -0.6075(2) 0.5907(4)
H24 H -0.3914 -0.6357 0.6804
H25 H -0.5412 -0.5961 0.5618
loop_
_geom_bond_atom_site_label_1
_geom_bond_atom_site_label_2
_geom_bond_site_symmetry_1
_geom_bond_site_symmetry_2
O1 N1 1_555 1_555
O2 C9 1_555 1_555
O3 C16 1_555 1_555
O4 C16 1_555 1_555
N1 C5 1_555 1_555
C1 C2 1_555 1_555
C2 C3 1_555 1_555
C3 H1 1_555 1_555
H2 C3 1_555 1_555
C4 C3 1_555 1_555
H3 C4 1_555 1_555
H4 C4 1_555 1_555
C5 C4 1_555 1_555
H5 C5 1_555 1_555
H6 C5 1_555 1_555
C6 O1 1_555 1_555
H7 C6 1_555 1_555
C7 C6 1_555 1_555
H8 C7 1_555 1_555
H9 C7 1_555 1_555
C8 N1 1_555 1_555
H10 C8 1_555 1_555
H11 C8 1_555 1_555
C9 C1 1_555 1_555
C10 C9 1_555 1_555
H12 C10 1_555 1_555
H13 C10 1_555 1_555
C11 C2 1_555 1_555
H14 C11 1_555 1_555
C12 C1 1_555 1_555
H15 C12 1_555 1_555
H16 C12 1_555 1_555
C13 C12 1_555 1_555
H17 C13 1_555 1_555
C14 C11 1_555 1_555
H18 C14 1_555 1_555
H19 C14 1_555 1_555
C15 C13 1_555 1_555
H20 C15 1_555 1_555
H21 C15 1_555 1_555
C16 C2 1_555 1_555
C17 O3 1_555 1_555
H22 C17 1_555 1_555
H23 C17 1_555 1_555
C18 O4 1_555 1_555
H24 C18 1_555 1_555
H25 C18 1_555 1_555
C1 C6 1_555 1_555
C7 C8 1_555 1_555
C10 C11 1_555 1_555
C13 C14 1_555 1_555
C15 C16 1_555 1_555
C17 C18 1_555 1_555

#END
