
#######################################################################
#
#                 Cambridge Crystallographic Data Centre
#                                CCDC 
#
#######################################################################
#
# If this CIF has been generated from an entry in the Cambridge 
# Structural Database, then it will include bibliographic, chemical, 
# crystal, experimental, refinement or atomic coordinate data resulting 
# from the CCDC's data processing and validation procedures.
#
#######################################################################

data_GEFHUW
_chemical_formula_moiety         'C24 H26 O4'
_chemical_name_systematic        
5,6-Dimethoxy-3-(4-methoxyphenyl)-10-methyl-3,4,4a,10-tetrahydroanthracen-9(2H)-one
_symmetry_cell_setting           monoclinic
_symmetry_space_group_name_H-M   'P 21/c'
_symmetry_Int_Tables_number      14
_space_group_name_Hall           '-P 2ybc'
loop_
_symmetry_equiv_pos_site_id
_symmetry_equiv_pos_as_xyz
1 x,y,z
2 -x,1/2+y,1/2-z
3 -x,-y,-z
4 x,1/2-y,1/2+z
_cell_length_a                   12.9405(16)
_cell_length_b                   7.3738(8)
_cell_length_c                   20.306(3)
_cell_angle_alpha                90
_cell_angle_beta                 99.717(5)
_cell_angle_gamma                90
_cell_volume                     1909.81
_exptl_crystal_colour            colorless
_cell_formula_units_Z            4
loop_
_atom_site_label
_atom_site_type_symbol
_atom_site_fract_x
_atom_site_fract_y
_atom_site_fract_z
O1 O 0.94631(17) 0.1704(3) 0.54947(12)
O2 O 0.07140(12) 0.8405(2) 0.20494(8)
O3 O 0.44491(13) 1.2898(2) 0.37271(8)
O4 O 0.22862(12) 0.61882(19) 0.25349(8)
C1 C 0.9305(2) 0.0648(4) 0.60371(18)
H1 H 0.9415 0.1375 0.6435
H2 H 0.9789 -0.0348 0.6089
H3 H 0.8600 0.0190 0.5962
C2 C 0.87479(19) 0.3056(3) 0.52823(13)
C3 C 0.8821(2) 0.3800(4) 0.46671(14)
H4 H 0.9334 0.3389 0.4433
C4 C 0.8139(2) 0.5147(4) 0.43968(13)
H5 H 0.8192 0.5607 0.3978
C5 C 0.73736(17) 0.5835(3) 0.47324(11)
C6 C 0.66050(17) 0.7239(3) 0.44020(11)
H6 H 0.6659 0.7264 0.3926
C7 C 0.54735(17) 0.6730(3) 0.44530(11)
H7 H 0.5336 0.5510 0.4282
H8 H 0.5398 0.6724 0.4920
C8 C 0.46532(17) 0.8010(3) 0.40723(11)
H9 H 0.4081 0.8064 0.4333
C9 C 0.41548(17) 0.7346(3) 0.33710(11)
H10 H 0.3831 0.6165 0.3423
C10 C 0.32896(17) 0.8645(3) 0.30839(10)
C11 C 0.23976(17) 0.8022(3) 0.26630(11)
C12 C 0.15766(17) 0.9204(3) 0.24133(11)
C13 C -0.01419(18) 0.9567(3) 0.17782(13)
H11 H -0.0399 1.0178 0.2136
H12 H -0.0694 0.8853 0.1529
H13 H 0.0095 1.0446 0.1488
C14 C 0.79980(19) 0.3708(4) 0.56277(13)
H14 H 0.7939 0.3222 0.6042
C15 C 0.73242(18) 0.5100(4) 0.53558(12)
H15 H 0.6831 0.5544 0.5599
C16 C 0.68264(17) 0.9168(3) 0.46759(12)
H16 H 0.6834 0.9171 0.5154
H17 H 0.7511 0.9559 0.4597
C17 C 0.60037(17) 1.0462(3) 0.43436(11)
H18 H 0.6164 1.1692 0.4344
C18 C 0.50536(17) 0.9924(3) 0.40477(11)
C19 C 0.49319(18) 0.7096(3) 0.28903(12)
H19 H 0.4558 0.6796 0.2454
H20 H 0.5410 0.6134 0.3048
H21 H 0.5316 0.8201 0.2866
C20 C 0.33658(17) 1.0511(3) 0.32363(10)
C21 C 0.43078(17) 1.1258(3) 0.36769(11)
C22 C 0.25650(18) 1.1685(3) 0.29628(12)
H22 H 0.2631 1.2919 0.3054
C23 C 0.16742(18) 1.1050(3) 0.25580(12)
H23 H 0.1142 1.1849 0.2383
C24 C 0.23230(18) 0.5678(3) 0.18546(11)
H24 H 0.1706 0.6115 0.1569
H25 H 0.2354 0.4381 0.1823
H26 H 0.2934 0.6199 0.1719
loop_
_geom_bond_atom_site_label_1
_geom_bond_atom_site_label_2
_geom_bond_site_symmetry_1
_geom_bond_site_symmetry_2
O1 C1 1_555 1_555
O2 C12 1_555 1_555
O3 C21 1_555 1_555
O4 C11 1_555 1_555
C1 H1 1_555 1_555
H2 C1 1_555 1_555
H3 C1 1_555 1_555
C2 O1 1_555 1_555
C3 C2 1_555 1_555
H4 C3 1_555 1_555
C4 C3 1_555 1_555
H5 C4 1_555 1_555
C5 C4 1_555 1_555
C6 C5 1_555 1_555
H6 C6 1_555 1_555
C7 C6 1_555 1_555
H7 C7 1_555 1_555
H8 C7 1_555 1_555
C8 C7 1_555 1_555
H9 C8 1_555 1_555
C9 C8 1_555 1_555
H10 C9 1_555 1_555
C10 C9 1_555 1_555
C11 C10 1_555 1_555
C12 C11 1_555 1_555
C13 O2 1_555 1_555
H11 C13 1_555 1_555
H12 C13 1_555 1_555
H13 C13 1_555 1_555
C14 C2 1_555 1_555
H14 C14 1_555 1_555
C15 C5 1_555 1_555
H15 C15 1_555 1_555
C16 C6 1_555 1_555
H16 C16 1_555 1_555
H17 C16 1_555 1_555
C17 C16 1_555 1_555
H18 C17 1_555 1_555
C18 C8 1_555 1_555
C19 C9 1_555 1_555
H19 C19 1_555 1_555
H20 C19 1_555 1_555
H21 C19 1_555 1_555
C20 C10 1_555 1_555
C21 C18 1_555 1_555
C22 C20 1_555 1_555
H22 C22 1_555 1_555
C23 C12 1_555 1_555
H23 C23 1_555 1_555
C24 O4 1_555 1_555
H24 C24 1_555 1_555
H25 C24 1_555 1_555
H26 C24 1_555 1_555
C14 C15 1_555 1_555
C17 C18 1_555 1_555
C20 C21 1_555 1_555
C22 C23 1_555 1_555

#END
