
#######################################################################
#
#                 Cambridge Crystallographic Data Centre
#                                CCDC 
#
#######################################################################
#
# If this CIF has been generated from an entry in the Cambridge 
# Structural Database, then it will include bibliographic, chemical, 
# crystal, experimental, refinement or atomic coordinate data resulting 
# from the CCDC's data processing and validation procedures.
#
#######################################################################

data_GEFJAE
_chemical_formula_moiety         'C22 H21 F1 O3'
_chemical_name_systematic        
3-(4-Fluorophenyl)-5,6-dimethoxy-3,4,4a,10-tetrahydroanthracen-9(2H)-one
_symmetry_cell_setting           triclinic
_symmetry_space_group_name_H-M   'P -1'
_symmetry_Int_Tables_number      2
_space_group_name_Hall           '-P 1'
loop_
_symmetry_equiv_pos_site_id
_symmetry_equiv_pos_as_xyz
1 x,y,z
2 -x,-y,-z
_cell_length_a                   7.2758(6)
_cell_length_b                   10.3204(8)
_cell_length_c                   12.2836(10)
_cell_angle_alpha                93.652(2)
_cell_angle_beta                 97.441(2)
_cell_angle_gamma                92.694(2)
_cell_volume                     911.317
_exptl_crystal_colour            colorless
_exptl_crystal_description       block
_cell_formula_units_Z            2
loop_
_atom_site_label
_atom_site_type_symbol
_atom_site_fract_x
_atom_site_fract_y
_atom_site_fract_z
F1 F 1.3864(2) 0.86093(17) 0.91679(15)
O1 O 0.3622(2) 0.19756(15) 0.46624(12)
O2 O -0.1871(2) 0.11841(16) 0.81907(14)
O3 O 0.1134(2) 0.26372(14) 0.90953(12)
C1 C 0.3608(3) 0.2534(2) 0.55746(18)
C2 C 0.2140(3) 0.22070(19) 0.62581(16)
C3 C 0.0581(3) 0.14490(19) 0.57884(18)
H1 H 0.0459 0.1179 0.5044
C4 C -0.0792(3) 0.1087(2) 0.6402(2)
H2 H -0.1842 0.0592 0.6072
C5 C -0.0592(3) 0.1468(2) 0.75125(19)
C6 C 0.0978(3) 0.2219(2) 0.79986(17)
C7 C 0.2351(3) 0.26046(19) 0.73830(17)
C8 C 0.4020(3) 0.3457(2) 0.78891(18)
H3 H 0.5016 0.2915 0.8149
H4 H 0.3704 0.3977 0.8518
C9 C 0.4688(3) 0.4357(2) 0.7061(2)
H5 H 0.3570 0.4801 0.6801
C10 C 0.5055(3) 0.35479(19) 0.60480(17)
C11 C 0.6612(3) 0.3691(2) 0.56086(17)
H6 H 0.6725 0.3184 0.4970
C12 C 0.8195(3) 0.4614(2) 0.60726(17)
H7 H 0.9355 0.4209 0.6004
H8 H 0.8169 0.5384 0.5659
C13 C 0.8097(6) 0.4991(4) 0.7243(4)
H9 H 0.8299 0.4234 0.7677
C14 C 0.6169(5) 0.5478(4) 0.7350(3)
H10 H 0.5911 0.6166 0.6859
H11 H 0.6134 0.5832 0.8097
C15 C 0.9570(3) 0.6111(2) 0.77025(19)
C16 C 1.0647(3) 0.5824(2) 0.8642(2)
H12 H 1.0392 0.5053 0.8959
C17 C 1.2107(3) 0.6654(2) 0.9131(2)
H13 H 1.2832 0.6447 0.9770
C18 C 1.2460(3) 0.7770(2) 0.8666(2)
C19 C 1.1444(4) 0.8110(3) 0.7741(2)
H14 H 1.1712 0.8887 0.7435
C20 C 0.9991(4) 0.7265(3) 0.7263(2)
H15 H 0.9275 0.7484 0.6625
C21 C -0.3424(4) 0.0317(3) 0.7756(3)
H16 H -0.4107 0.0677 0.7135
H17 H -0.4217 0.0201 0.8313
H18 H -0.2989 -0.0508 0.7528
C22 C 0.1693(4) 0.1679(3) 0.9837(2)
H19 H 0.0745 0.0989 0.9775
H20 H 0.1883 0.2067 1.0577
H21 H 0.2829 0.1334 0.9660
C23? C 0.7713(10) 0.5586(7) 0.7061(6)
C24? C 0.6669(7) 0.4829(6) 0.7837(5)
H22? H 0.9355 0.4205 0.6010
H23? H 0.8174 0.5380 0.5653
H24? H 0.6988 0.6296 0.6774
H25? H 0.6459 0.5379 0.8474
H26? H 0.7341 0.4088 0.8082
H27? H 0.3575 0.4806 0.6799
loop_
_geom_bond_atom_site_label_1
_geom_bond_atom_site_label_2
_geom_bond_site_symmetry_1
_geom_bond_site_symmetry_2
F1 C18 1_555 1_555
O1 C1 1_555 1_555
O2 C5 1_555 1_555
O3 C6 1_555 1_555
C1 C2 1_555 1_555
C2 C3 1_555 1_555
C3 H1 1_555 1_555
C4 C3 1_555 1_555
H2 C4 1_555 1_555
C5 C4 1_555 1_555
C6 C5 1_555 1_555
C7 C2 1_555 1_555
C8 C7 1_555 1_555
H3 C8 1_555 1_555
H4 C8 1_555 1_555
C9 C8 1_555 1_555
H5 C9 1_555 1_555
C10 C1 1_555 1_555
C11 C10 1_555 1_555
H6 C11 1_555 1_555
C12 C11 1_555 1_555
H7 C12 1_555 1_555
H8 C12 1_555 1_555
C13 C12 1_555 1_555
H9 C13 1_555 1_555
C14 C9 1_555 1_555
H10 C14 1_555 1_555
H11 C14 1_555 1_555
C15 C13 1_555 1_555
C16 C15 1_555 1_555
H12 C16 1_555 1_555
C17 C16 1_555 1_555
H13 C17 1_555 1_555
C18 C17 1_555 1_555
C19 C18 1_555 1_555
H14 C19 1_555 1_555
C20 C15 1_555 1_555
H15 C20 1_555 1_555
C21 O2 1_555 1_555
H16 C21 1_555 1_555
H17 C21 1_555 1_555
H18 C21 1_555 1_555
C22 O3 1_555 1_555
H19 C22 1_555 1_555
H20 C22 1_555 1_555
H21 C22 1_555 1_555
C6 C7 1_555 1_555
C9 C10 1_555 1_555
C13 C14 1_555 1_555
C19 C20 1_555 1_555

#END
