
#######################################################################
#
#                 Cambridge Crystallographic Data Centre
#                                CCDC 
#
#######################################################################
#
# If this CIF has been generated from an entry in the Cambridge 
# Structural Database, then it will include bibliographic, chemical, 
# crystal, experimental, refinement or atomic coordinate data resulting 
# from the CCDC's data processing and validation procedures.
#
#######################################################################

data_GEFNEM
_chemical_formula_moiety         'C18 H13 N3 S1'
_chemical_name_systematic        
6-(2-Thienyl)-5,6-dihydrobenzimidazo[1,2-c]quinazoline
_symmetry_cell_setting           monoclinic
_symmetry_space_group_name_H-M   'P 21'
_symmetry_Int_Tables_number      4
_space_group_name_Hall           'P 2yb'
loop_
_symmetry_equiv_pos_site_id
_symmetry_equiv_pos_as_xyz
1 x,y,z
2 -x,1/2+y,-z
_cell_length_a                   8.584(4)
_cell_length_b                   13.148(7)
_cell_length_c                   13.382(7)
_cell_angle_alpha                90
_cell_angle_beta                 98.640(9)
_cell_angle_gamma                90
_cell_volume                     1493.19
_exptl_crystal_colour            white
_exptl_crystal_description       block
_cell_formula_units_Z            4
loop_
_atom_site_label
_atom_site_type_symbol
_atom_site_fract_x
_atom_site_fract_y
_atom_site_fract_z
S1 S 0.1155(3) 0.4508(3) 0.45976(18)
N1 N 0.4193(6) 0.3839(4) 0.7034(3)
C1 C 0.5668(7) 0.5362(5) 0.7562(4)
C2 C 0.4936(7) 0.4427(5) 0.7815(4)
N2 N 0.5156(5) 0.4861(4) 0.5797(3)
H1 H 0.5526 0.4844 0.5235
C3 C 0.5733(7) 0.5569(5) 0.6527(4)
C4 C 0.3857(8) 0.3217(5) 0.8522(4)
C5 C 0.1456(6) 0.5210(5) 0.6408(6)
H2 H 0.1794 0.5394 0.7076
C6 C 0.2275(9) 0.1763(6) 0.8781(6)
H3 H 0.1879 0.1306 0.9210
N3 N 0.4794(6) 0.4073(4) 0.8711(3)
C7 C 0.2282(7) 0.4585(5) 0.5703(4)
C8 C 0.6417(8) 0.6462(6) 0.6281(5)
H4 H 0.6465 0.6604 0.5605
C9 C 0.2506(8) 0.2294(5) 0.7068(6)
H5 H 0.2269 0.2198 0.6373
C10 C 0.6346(8) 0.6055(6) 0.8305(5)
H6 H 0.6359 0.5913 0.8987
C11 C 0.3930(7) 0.4145(4) 0.5973(4)
H7 H 0.4011 0.3540 0.5556
C12 C 0.3468(7) 0.3059(5) 0.7471(4)
C13 C -0.0233(8) 0.5238(8) 0.4972(11)
H8 H -0.1181 0.5482 0.4628
C14 C 0.1888(9) 0.1654(6) 0.7758(6)
H9 H 0.1192 0.1140 0.7508
C15 C 0.6985(10) 0.6939(6) 0.8015(6)
H10 H 0.7397 0.7409 0.8504
C16 C 0.7030(9) 0.7148(7) 0.7007(6)
H11 H 0.7474 0.7752 0.6822
C17 C 0.3236(9) 0.2535(6) 0.9181(5)
H12 H 0.3481 0.2612 0.9878
C18 C 0.050(2) 0.5365(12) 0.5984(8)
H13 H -0.0175 0.5710 0.6350
C19 C 0.6063(7) 0.0510(5) 0.9031(4)
H14 H 0.5762 0.1117 0.9382
N4 N 0.5329(6) 0.0605(4) 0.6279(3)
S2 S 0.8988(3) -0.0458(2) 0.9016(2)
C20 C 0.5161(7) 0.0232(5) 0.7176(4)
C21 C 0.6754(7) 0.1554(5) 0.7549(4)
C22 C 0.8447(12) 0.0401(12) 1.0494(6)
H15 H 0.7878 0.0739 1.0932
N5 N 0.4947(6) -0.0263(5) 0.9145(3)
H16 H 0.4743 -0.0368 0.9746
N6 N 0.5953(6) 0.0763(4) 0.7965(3)
C23 C 0.4211(6) -0.0637(5) 0.7374(4)
C24 C 0.6955(8) 0.2122(5) 0.5875(5)
H17 H 0.6687 0.2059 0.5178
C25 C 0.4174(7) -0.0847(5) 0.8401(4)
C26 C 0.3433(8) -0.1239(6) 0.6631(5)
H18 H 0.3575 -0.1134 0.5963
C27 C 0.7703(7) 0.0235(5) 0.9489(5)
C28 C 0.7948(8) 0.2863(6) 0.6273(5)
H19 H 0.8383 0.3300 0.5844
C29 C 0.6333(7) 0.1447(5) 0.6527(4)
C30 C 0.8339(9) 0.2987(6) 0.7340(5)
H20 H 0.8977 0.3526 0.7599
C31 C 0.7775(8) 0.2309(6) 0.7992(5)
H21 H 0.8060 0.2355 0.8689
C32 C 0.2463(11) -0.1984(7) 0.6849(6)
H22 H 0.1838 -0.2333 0.6333
C33 C 0.3235(9) -0.1683(6) 0.8611(6)
H23 H 0.3182 -0.1867 0.9276
C34 C 0.2403(11) -0.2220(7) 0.7826(6)
H24 H 0.1779 -0.2763 0.7970
C35 C 1.0271(9) -0.0419(8) 1.0149(9)
H25 H 1.1255 -0.0715 1.0340
C36 C 0.931(2) 0.0225(15) 1.0707(13)
H26 H 0.9749 0.0441 1.1350
loop_
_geom_bond_atom_site_label_1
_geom_bond_atom_site_label_2
_geom_bond_site_symmetry_1
_geom_bond_site_symmetry_2
S1 C7 1_555 1_555
N1 C2 1_555 1_555
C1 C2 1_555 1_555
C2 N3 1_555 1_555
N2 H1 1_555 1_555
C3 C1 1_555 1_555
C4 N3 1_555 1_555
C5 H2 1_555 1_555
C6 H3 1_555 1_555
C7 C5 1_555 1_555
C8 C3 1_555 1_555
H4 C8 1_555 1_555
C9 H5 1_555 1_555
C10 C1 1_555 1_555
H6 C10 1_555 1_555
C11 N1 1_555 1_555
H7 C11 1_555 1_555
C12 N1 1_555 1_555
C13 S1 1_555 1_555
H8 C13 1_555 1_555
C14 C6 1_555 1_555
H9 C14 1_555 1_555
C15 C10 1_555 1_555
H10 C15 1_555 1_555
C16 C8 1_555 1_555
H11 C16 1_555 1_555
C17 C4 1_555 1_555
H12 C17 1_555 1_555
C18 C5 1_555 1_555
H13 C18 1_555 1_555
C19 H14 1_555 1_555
N4 C20 1_555 1_555
S2 C27 1_555 1_555
C20 N6 1_555 1_555
C21 N6 1_555 1_555
C22 H15 1_555 1_555
N5 C19 1_555 1_555
H16 N5 1_555 1_555
N6 C19 1_555 1_555
C23 C20 1_555 1_555
C24 H17 1_555 1_555
C25 N5 1_555 1_555
C26 C23 1_555 1_555
H18 C26 1_555 1_555
C27 C19 1_555 1_555
C28 C24 1_555 1_555
H19 C28 1_555 1_555
C29 N4 1_555 1_555
C30 C28 1_555 1_555
H20 C30 1_555 1_555
C31 C21 1_555 1_555
H21 C31 1_555 1_555
C32 C26 1_555 1_555
H22 C32 1_555 1_555
C33 C25 1_555 1_555
H23 C33 1_555 1_555
C34 C32 1_555 1_555
H24 C34 1_555 1_555
C35 S2 1_555 1_555
H25 C35 1_555 1_555
C36 C22 1_555 1_555
H26 C36 1_555 1_555
N2 C3 1_555 1_555
N2 C11 1_555 1_555
C4 C12 1_555 1_555
C6 C17 1_555 1_555
C7 C11 1_555 1_555
C9 C12 1_555 1_555
C9 C14 1_555 1_555
C13 C18 1_555 1_555
C15 C16 1_555 1_555
C21 C29 1_555 1_555
C22 C27 1_555 1_555
C23 C25 1_555 1_555
C24 C29 1_555 1_555
C30 C31 1_555 1_555
C33 C34 1_555 1_555
C35 C36 1_555 1_555

#END
