
#######################################################################
#
#                 Cambridge Crystallographic Data Centre
#                                CCDC 
#
#######################################################################
#
# If this CIF has been generated from an entry in the Cambridge 
# Structural Database, then it will include bibliographic, chemical, 
# crystal, experimental, refinement or atomic coordinate data resulting 
# from the CCDC's data processing and validation procedures.
#
#######################################################################

data_GEFNAJ
_chemical_formula_moiety         'C28 H18 Cl1 N3 O2'
_chemical_name_systematic        
2^4^-amino-2^6^-benzoyl-3^4^-chloro-1^4^-methoxy[1^1^,2^1^:2^2^,3^1^-terphenyl]-2^3^,2^5^-dicarbonitrile
_symmetry_cell_setting           monoclinic
_symmetry_space_group_name_H-M   'P 21/c'
_symmetry_Int_Tables_number      14
_space_group_name_Hall           '-P 2ybc'
loop_
_symmetry_equiv_pos_site_id
_symmetry_equiv_pos_as_xyz
1 x,y,z
2 -x,1/2+y,1/2-z
3 -x,-y,-z
4 x,1/2-y,1/2+z
_cell_length_a                   11.579(3)
_cell_length_b                   12.312(3)
_cell_length_c                   17.454(4)
_cell_angle_alpha                90
_cell_angle_beta                 107.948(10)
_cell_angle_gamma                90
_cell_volume                     2367.17
_exptl_crystal_colour            colorless
_exptl_crystal_description       block
_cell_formula_units_Z            4
loop_
_atom_site_label
_atom_site_type_symbol
_atom_site_fract_x
_atom_site_fract_y
_atom_site_fract_z
Cl1 Cl 0.44098(6) 1.11692(6) 0.11036(5)
C1 C 0.90379(14) 0.61531(13) 0.30386(10)
C2 C 0.72293(15) 0.87514(12) 0.24491(10)
C3 C 0.81953(14) 0.68936(13) 0.25722(10)
C4 C 0.73824(15) 0.66286(13) 0.17438(10)
C5 C 0.85436(14) 0.41022(13) 0.28925(10)
N1 N 1.05008(16) 0.77126(13) 0.48900(9)
H1 H 1.1011 0.7243 0.5166
H2 H 1.0464 0.8349 0.5084
C6 C 0.97874(15) 0.64169(13) 0.38124(10)
O1 O 0.99413(14) 0.49535(11) 0.23436(10)
C7 C 0.81325(14) 0.79242(12) 0.29015(10)
C8 C 0.92158(15) 0.50442(13) 0.27159(10)
C9 C 0.77106(15) 0.42179(14) 0.33149(11)
H3 H 0.7563 0.4900 0.3494
O2 O 0.51834(16) 0.62154(13) -0.06292(8)
C10 C 0.63355(16) 0.91097(14) 0.27696(11)
H4 H 0.6317 0.8847 0.3265
C11 C 0.8169(2) 0.21819(15) 0.28056(14)
H5 H 0.8326 0.1494 0.2641
C12 C 0.89106(15) 0.81941(13) 0.36682(10)
N2 N 0.89222(16) 1.01245(13) 0.42347(10)
C13 C 0.61255(16) 0.66663(14) 0.15651(10)
H6 H 0.5792 0.6786 0.1979
C14 C 0.97538(15) 0.74490(14) 0.41494(10)
C15 C 0.72519(16) 0.91530(15) 0.17118(11)
H7 H 0.7848 0.8919 0.1494
C16 C 0.88994(16) 0.92790(14) 0.39692(10)
C17 C 0.55077(17) 1.02403(15) 0.16294(13)
N3 N 1.13342(19) 0.50403(16) 0.46693(11)
C18 C 0.54731(17) 0.98552(15) 0.23560(13)
H8 H 0.4875 1.0092 0.2571
C19 C 1.06444(17) 0.56394(15) 0.42806(11)
C20 C 0.53550(17) 0.65293(15) 0.07826(11)
H9 H 0.4518 0.6556 0.0677
C21 C 0.87742(18) 0.30723(14) 0.26411(12)
H10 H 0.9336 0.2986 0.2363
C22 C 0.73297(19) 0.23085(16) 0.32142(13)
H11 H 0.6917 0.1705 0.3317
C23 C 0.78511(18) 0.64247(17) 0.11141(11)
H12 H 0.8687 0.6376 0.1218
C24 C 0.58431(19) 0.63546(16) 0.01673(11)
C25 C 0.70976(18) 0.33135(16) 0.34697(13)
H13 H 0.6532 0.3391 0.3746
C26 C 0.63905(19) 0.99019(16) 0.12972(13)
H14 H 0.6405 1.0173 0.0803
C27 C 0.7091(2) 0.6294(2) 0.03378(12)
H15 H 0.7421 0.6163 -0.0077
C28 C 0.3923(2) 0.6423(2) -0.08670(15)
H16 H 0.3536 0.5914 -0.0608
H17 H 0.3592 0.6347 -0.1441
H18 H 0.3783 0.7148 -0.0714
loop_
_geom_bond_atom_site_label_1
_geom_bond_atom_site_label_2
_geom_bond_site_symmetry_1
_geom_bond_site_symmetry_2
Cl1 C17 1_555 1_555
C1 C3 1_555 1_555
C2 C7 1_555 1_555
C3 C4 1_555 1_555
C4 C13 1_555 1_555
C5 C8 1_555 1_555
N1 H1 1_555 1_555
H2 N1 1_555 1_555
C6 C1 1_555 1_555
O1 C8 1_555 1_555
C7 C3 1_555 1_555
C8 C1 1_555 1_555
C9 C5 1_555 1_555
H3 C9 1_555 1_555
O2 C24 1_555 1_555
C10 C2 1_555 1_555
H4 C10 1_555 1_555
C11 H5 1_555 1_555
C12 C7 1_555 1_555
N2 C16 1_555 1_555
C13 H6 1_555 1_555
C14 N1 1_555 1_555
C15 C2 1_555 1_555
H7 C15 1_555 1_555
C16 C12 1_555 1_555
C17 C18 1_555 1_555
N3 C19 1_555 1_555
C18 C10 1_555 1_555
H8 C18 1_555 1_555
C19 C6 1_555 1_555
C20 C13 1_555 1_555
H9 C20 1_555 1_555
C21 C5 1_555 1_555
H10 C21 1_555 1_555
C22 C11 1_555 1_555
H11 C22 1_555 1_555
C23 C4 1_555 1_555
H12 C23 1_555 1_555
C24 C20 1_555 1_555
C25 C9 1_555 1_555
H13 C25 1_555 1_555
C26 C15 1_555 1_555
H14 C26 1_555 1_555
C27 C23 1_555 1_555
H15 C27 1_555 1_555
C28 O2 1_555 1_555
H16 C28 1_555 1_555
H17 C28 1_555 1_555
H18 C28 1_555 1_555
C6 C14 1_555 1_555
C11 C21 1_555 1_555
C12 C14 1_555 1_555
C17 C26 1_555 1_555
C22 C25 1_555 1_555
C24 C27 1_555 1_555

#END
