
#######################################################################
#
#                 Cambridge Crystallographic Data Centre
#                                CCDC 
#
#######################################################################
#
# If this CIF has been generated from an entry in the Cambridge 
# Structural Database, then it will include bibliographic, chemical, 
# crystal, experimental, refinement or atomic coordinate data resulting 
# from the CCDC's data processing and validation procedures.
#
#######################################################################

data_GEFNAI
_chemical_name_common            'Resformicol A hexamethyl ether'
_chemical_formula_moiety         'C34 H36 O6'
_chemical_name_systematic        
2-(3,5-Dimethoxyphenyl)-6,8-dimethoxy-1,3-bis(4-methoxyphenyl)-1,2,3,4-tetrahydronaphthalene
_symmetry_cell_setting           triclinic
_symmetry_space_group_name_H-M   'P -1'
_symmetry_Int_Tables_number      2
_space_group_name_Hall           '-P 1'
loop_
_symmetry_equiv_pos_site_id
_symmetry_equiv_pos_as_xyz
1 x,y,z
2 -x,-y,-z
_cell_length_a                   8.1352(4)
_cell_length_b                   12.4030(7)
_cell_length_c                   14.4696(8)
_cell_angle_alpha                82.5160(10)
_cell_angle_beta                 84.5690(10)
_cell_angle_gamma                84.1820(10)
_cell_volume                     1435.18
_exptl_crystal_description       platelet
_chemical_melting_point          '411 K'
_cell_formula_units_Z            2
loop_
_atom_site_label
_atom_site_type_symbol
_atom_site_fract_x
_atom_site_fract_y
_atom_site_fract_z
O1 O 0.3625(2) 1.30294(12) 0.13231(12)
O2 O 1.09165(19) 0.46576(13) 0.38167(11)
O3 O 0.24640(18) 0.79836(13) 0.58751(10)
O4 O 0.78738(17) 0.90457(13) 0.49606(10)
O5 O -0.00744(15) 0.91188(11) 0.15130(10)
O6 O 0.0701(2) 0.66677(15) -0.07881(12)
C1 C 0.2870(4) 1.37835(19) 0.1915(2)
H1 H 0.1725 1.3656 0.2063
H2 H 0.2946 1.4512 0.1605
H3 H 0.3423 1.3697 0.2481
C2 C 0.3393(2) 1.19443(16) 0.15934(15)
C3 C 0.2591(3) 1.15450(17) 0.24164(15)
H4 H 0.2148 1.2017 0.2844
C4 C 0.2434(2) 1.04320(16) 0.26169(14)
H5 H 0.1898 1.017 0.3186
C5 C 0.3047(2) 0.97071(14) 0.20019(12)
C6 C 0.2911(2) 0.84806(14) 0.22419(12)
H6 H 0.2051 0.8385 0.276
C7 C 0.4573(2) 0.79436(14) 0.26099(12)
H7 H 0.5455 0.8302 0.2214
C8 C 0.4877(2) 0.67192(14) 0.24934(12)
H8 H 0.3944 0.6349 0.2824
C9 C 0.6460(2) 0.61713(14) 0.28805(13)
C10 C 0.6451(3) 0.52817(16) 0.35576(14)
H9 H 0.544 0.5032 0.3802
C11 C 0.7900(3) 0.47458(17) 0.38878(15)
H10 H 0.7856 0.4144 0.4343
C12 C 0.9398(3) 0.51112(17) 0.35377(15)
C13 C 1.0943(3) 0.3644(2) 0.44143(19)
H11 H 1.0263 0.3739 0.4982
H12 H 1.2061 0.341 0.4558
H13 H 1.0524 0.3104 0.4104
C14 C 0.4042(3) 1.12354(17) 0.09735(15)
H14 H 0.4607 1.1498 0.0414
C15 C 0.3860(2) 1.01342(16) 0.11767(14)
H15 H 0.4299 0.9666 0.0745
C16 C 0.2376(2) 0.79576(14) 0.14358(12)
C17 C 0.3308(2) 0.71005(14) 0.10507(12)
C18 C 0.4893(2) 0.66098(15) 0.14560(13)
H16 H 0.5816 0.6969 0.112
H17 H 0.5061 0.5843 0.137
C19 C 0.9451(2) 0.60037(17) 0.28642(15)
H18 H 1.0463 0.6258 0.2628
C20 C 0.7997(2) 0.65182(15) 0.25420(14)
H19 H 0.8047 0.7116 0.2084
C21 C 0.4756(2) 0.81649(14) 0.36040(12)
C22 C 0.6218(2) 0.85546(14) 0.37970(13)
H20 H 0.7039 0.8705 0.3318
C23 C 0.6449(2) 0.87169(15) 0.46990(14)
C24 C 0.5222(2) 0.85387(16) 0.54150(14)
H21 H 0.5373 0.867 0.6018
C25 C 0.3779(2) 0.81654(16) 0.52228(13)
C26 C 0.2699(3) 0.8060(3) 0.68254(16)
H22 H 0.3603 0.7548 0.7021
H23 H 0.1706 0.7896 0.721
H24 H 0.2945 0.8786 0.6887
C27 C 0.3554(2) 0.79557(15) 0.43222(13)
H25 H 0.2587 0.7673 0.4206
C28 C 0.9246(3) 0.9085(2) 0.42836(18)
H26 H 0.9413 0.8412 0.4012
H27 H 1.022 0.9188 0.4576
H28 H 0.9036 0.9681 0.3803
C29 C 0.2782(2) 0.66519(16) 0.03084(13)
H29 H 0.3427 0.608 0.0058
C30 C 0.1314(3) 0.70518(17) -0.00536(14)
C31 C 0.0327(2) 0.78833(16) 0.03276(14)
H30 H -0.0678 0.8145 0.0088
C32 C 0.0845(2) 0.83228(15) 0.10671(13)
C33 C -0.1558(2) 0.96073(18) 0.11373(16)
H31 H -0.1324 0.9882 0.0492
H32 H -0.2008 1.0198 0.148
H33 H -0.2347 0.9073 0.1186
C34 C 0.1627(4) 0.5747(3) -0.1149(2)
H34 H 0.2734 0.5924 -0.1354
H35 H 0.1102 0.5562 -0.1667
H36 H 0.1664 0.5137 -0.0667
loop_
_geom_bond_atom_site_label_1
_geom_bond_atom_site_label_2
_geom_bond_site_symmetry_1
_geom_bond_site_symmetry_2
O1 C1 1_555 1_555
O2 C12 1_555 1_555
O3 C25 1_555 1_555
O4 C23 1_555 1_555
O5 C32 1_555 1_555
O6 C30 1_555 1_555
C1 H1 1_555 1_555
H2 C1 1_555 1_555
H3 C1 1_555 1_555
C2 O1 1_555 1_555
C3 C2 1_555 1_555
H4 C3 1_555 1_555
C4 C3 1_555 1_555
H5 C4 1_555 1_555
C5 C4 1_555 1_555
C6 C5 1_555 1_555
H6 C6 1_555 1_555
C7 C6 1_555 1_555
H7 C7 1_555 1_555
C8 C7 1_555 1_555
H8 C8 1_555 1_555
C9 C8 1_555 1_555
C10 C9 1_555 1_555
H9 C10 1_555 1_555
C11 C10 1_555 1_555
H10 C11 1_555 1_555
C12 C11 1_555 1_555
C13 O2 1_555 1_555
H11 C13 1_555 1_555
H12 C13 1_555 1_555
H13 C13 1_555 1_555
C14 C2 1_555 1_555
H14 C14 1_555 1_555
C15 C5 1_555 1_555
H15 C15 1_555 1_555
C16 C6 1_555 1_555
C17 C16 1_555 1_555
C18 C8 1_555 1_555
H16 C18 1_555 1_555
H17 C18 1_555 1_555
C19 C12 1_555 1_555
H18 C19 1_555 1_555
C20 C9 1_555 1_555
H19 C20 1_555 1_555
C21 C7 1_555 1_555
C22 C21 1_555 1_555
H20 C22 1_555 1_555
C23 C22 1_555 1_555
C24 C23 1_555 1_555
H21 C24 1_555 1_555
C25 C24 1_555 1_555
C26 O3 1_555 1_555
H22 C26 1_555 1_555
H23 C26 1_555 1_555
H24 C26 1_555 1_555
C27 C21 1_555 1_555
H25 C27 1_555 1_555
C28 O4 1_555 1_555
H26 C28 1_555 1_555
H27 C28 1_555 1_555
H28 C28 1_555 1_555
C29 C17 1_555 1_555
H29 C29 1_555 1_555
C30 C29 1_555 1_555
C31 C30 1_555 1_555
H30 C31 1_555 1_555
C32 C16 1_555 1_555
C33 O5 1_555 1_555
H31 C33 1_555 1_555
H32 C33 1_555 1_555
H33 C33 1_555 1_555
C34 O6 1_555 1_555
H34 C34 1_555 1_555
H35 C34 1_555 1_555
H36 C34 1_555 1_555
C14 C15 1_555 1_555
C17 C18 1_555 1_555
C19 C20 1_555 1_555
C25 C27 1_555 1_555
C31 C32 1_555 1_555

#END
