
#######################################################################
#
#                 Cambridge Crystallographic Data Centre
#                                CCDC 
#
#######################################################################
#
# If this CIF has been generated from an entry in the Cambridge 
# Structural Database, then it will include bibliographic, chemical, 
# crystal, experimental, refinement or atomic coordinate data resulting 
# from the CCDC's data processing and validation procedures.
#
#######################################################################

data_GEFVET
_chemical_formula_moiety         'C20 H23 N1 O5 S1'
_chemical_name_systematic        
'Dimethyl 1-(2-(methoxymethyl)pyrrolidinyl)cyclobuta(b)(1)benzothiophene-2,2a(7bH)-dicarboxylate'
_chemical_properties_biological  
'HIV-1 reverse transcriptase inhibitory activity'
_symmetry_cell_setting           monoclinic
_symmetry_space_group_name_H-M   'P 21'
_symmetry_Int_Tables_number      4
_space_group_name_Hall           'P 2yb'
loop_
_symmetry_equiv_pos_site_id
_symmetry_equiv_pos_as_xyz
1 x,y,z
2 -x,1/2+y,-z
_cell_length_a                   10.2832(18)
_cell_length_b                   15.663(3)
_cell_length_c                   11.975(2)
_cell_angle_alpha                90
_cell_angle_beta                 98.871(3)
_cell_angle_gamma                90
_cell_volume                     1905.69
_exptl_crystal_colour            colorless
_exptl_crystal_description       prism
_cell_formula_units_Z            4
_exptl_crystal_recrystallization_method 'diethyl ether/hexane'
loop_
_atom_site_label
_atom_site_type_symbol
_atom_site_fract_x
_atom_site_fract_y
_atom_site_fract_z
C1 C 0.1157(4) 0.8825(2) 0.9027(3)
S1 S -0.21930(9) 0.87510(6) 0.90260(8)
N1 N 0.2258(3) 0.8499(2) 0.8786(3)
O1 O 0.1653(3) 0.8310(2) 1.1638(2)
C2 C 0.0517(3) 0.8940(2) 0.9945(3)
O2 O -0.0244(3) 0.9035(2) 1.1636(2)
C3 C -0.0657(4) 0.9379(2) 0.9277(3)
O3 O -0.2003(3) 1.0543(2) 0.9791(3)
C4 C 0.0063(4) 0.9280(2) 0.8210(3)
H1 H 0.0348 0.9835 0.7913
O4 O 0.0105(3) 1.0790(2) 0.9602(3)
C5 C -0.0766(3) 0.8746(3) 0.7333(3)
O5 O 0.5216(3) 0.8466(2) 1.0961(3)
C6 C -0.1909(4) 0.8408(3) 0.7679(3)
C7 C -0.2769(4) 0.7895(3) 0.6964(4)
H2 H -0.3523 0.7660 0.7218
C8 C -0.2524(4) 0.7727(3) 0.5875(4)
H3 H -0.3102 0.7369 0.5388
C9 C -0.1433(4) 0.8086(3) 0.5500(4)
H4 H -0.1287 0.7988 0.4746
C10 C -0.0545(4) 0.8590(3) 0.6224(3)
H5 H 0.0205 0.8826 0.5964
C11 C 0.3337(4) 0.8127(3) 0.9603(3)
H6 H 0.2979 0.7725 1.0129
C12 C 0.4127(4) 0.7637(3) 0.8817(3)
H7 H 0.5062 0.7579 0.9162
H8 H 0.3753 0.7062 0.8638
C13 C 0.3985(4) 0.8201(3) 0.7756(3)
H9 H 0.4578 0.8702 0.7874
H10 H 0.4180 0.7875 0.7094
C14 C 0.2554(4) 0.8473(3) 0.7601(3)
H11 H 0.2433 0.9042 0.7239
H12 H 0.1986 0.8054 0.7137
C15 C 0.4121(4) 0.8836(3) 1.0260(3)
H13 H 0.4428 0.9248 0.9731
H14 H 0.3560 0.9144 1.0729
C16 C 0.0741(4) 0.8722(3) 1.1124(3)
C17 C -0.0186(5) 0.8803(4) 1.2803(4)
H15 H -0.0952 0.9038 1.3092
H16 H 0.0622 0.9033 1.3242
H17 H -0.0187 0.8179 1.2871
C18 C -0.0969(4) 1.0295(3) 0.9595(3)
C19 C -0.0120(5) 1.1693(3) 0.9783(5)
H18 H 0.0717 1.2002 0.9848
H19 H -0.0497 1.1766 1.0481
H20 H -0.0732 1.1920 0.9144
C20 C 0.6029(5) 0.9088(4) 1.1578(4)
H21 H 0.6850 0.8821 1.1936
H22 H 0.5571 0.9335 1.2161
H23 H 0.6229 0.9540 1.1064
C21 C 0.4286(4) 0.5539(2) 0.4641(3)
S2 S 0.76423(9) 0.54459(7) 0.45483(9)
N2 N 0.3081(3) 0.5860(2) 0.4409(3)
O6 O 0.4916(3) 0.6316(2) 0.7134(3)
C22 C 0.5322(4) 0.5514(2) 0.5531(3)
O7 O 0.6758(3) 0.5509(2) 0.7202(2)
C23 C 0.6163(4) 0.4944(3) 0.4923(3)
O8 O 0.7375(3) 0.3627(2) 0.5223(3)
C24 C 0.5019(4) 0.4998(3) 0.3864(3)
H24 H 0.4592 0.4441 0.3623
O9 O 0.5484(3) 0.3778(2) 0.5926(3)
C25 C 0.5530(4) 0.5487(3) 0.2942(3)
O10 O 0.1340(4) 0.6470(2) 0.6741(3)
C26 C 0.6789(4) 0.5821(3) 0.3243(4)
C27 C 0.7342(4) 0.6362(3) 0.2518(4)
H25 H 0.8192 0.6601 0.2738
C28 C 0.6615(5) 0.6541(4) 0.1463(5)
H26 H 0.6967 0.6920 0.0967
C29 C 0.5394(5) 0.6178(3) 0.1124(4)
H27 H 0.4930 0.6292 0.0390
C30 C 0.4838(4) 0.5643(3) 0.1862(4)
H28 H 0.4000 0.5389 0.1631
C31 C 0.2418(4) 0.6402(2) 0.5155(3)
H29 H 0.3027 0.6861 0.5501
C32 C 0.1274(4) 0.6791(3) 0.4339(4)
H30 H 0.0510 0.6905 0.4729
H31 H 0.1544 0.7330 0.4010
C33 C 0.0944(4) 0.6106(3) 0.3427(4)
H32 H 0.0413 0.5640 0.3688
H33 H 0.0461 0.6353 0.2721
C34 C 0.2301(4) 0.5791(3) 0.3260(3)
H34 H 0.2263 0.5193 0.2989
H35 H 0.2677 0.6154 0.2713
C35 C 0.1908(4) 0.5886(3) 0.6069(4)
H36 H 0.1243 0.5466 0.5727
H37 H 0.2638 0.5574 0.6531
C36 C 0.5602(4) 0.5834(3) 0.6675(3)
C37 C 0.7168(4) 0.5800(3) 0.8347(4)
H38 H 0.7955 0.5485 0.8684
H39 H 0.6458 0.5700 0.8792
H40 H 0.7367 0.6411 0.8342
C38 C 0.6430(4) 0.4043(3) 0.5377(3)
C39 C 0.5620(5) 0.2918(3) 0.6391(4)
H41 H 0.4965 0.2828 0.6893
H42 H 0.6505 0.2846 0.6819
H43 H 0.5481 0.2502 0.5773
C40 C 0.0298(5) 0.6157(4) 0.7248(5)
H44 H -0.0117 0.6630 0.7596
H45 H 0.0635 0.5739 0.7830
H46 H -0.0351 0.5884 0.6675
loop_
_geom_bond_atom_site_label_1
_geom_bond_atom_site_label_2
_geom_bond_site_symmetry_1
_geom_bond_site_symmetry_2
C1 N1 1_555 1_555
S1 C3 1_555 1_555
N1 C11 1_555 1_555
O1 C16 1_555 1_555
C2 C1 1_555 1_555
O2 C16 1_555 1_555
C3 C2 1_555 1_555
O3 C18 1_555 1_555
C4 C1 1_555 1_555
H1 C4 1_555 1_555
O4 C18 1_555 1_555
C5 C4 1_555 1_555
O5 C15 1_555 1_555
C6 S1 1_555 1_555
C7 C6 1_555 1_555
H2 C7 1_555 1_555
C8 C7 1_555 1_555
H3 C8 1_555 1_555
C9 C8 1_555 1_555
H4 C9 1_555 1_555
C10 C5 1_555 1_555
H5 C10 1_555 1_555
C11 H6 1_555 1_555
C12 C11 1_555 1_555
H7 C12 1_555 1_555
H8 C12 1_555 1_555
C13 C12 1_555 1_555
H9 C13 1_555 1_555
H10 C13 1_555 1_555
C14 N1 1_555 1_555
H11 C14 1_555 1_555
H12 C14 1_555 1_555
C15 C11 1_555 1_555
H13 C15 1_555 1_555
H14 C15 1_555 1_555
C16 C2 1_555 1_555
C17 O2 1_555 1_555
H15 C17 1_555 1_555
H16 C17 1_555 1_555
H17 C17 1_555 1_555
C18 C3 1_555 1_555
C19 O4 1_555 1_555
H18 C19 1_555 1_555
H19 C19 1_555 1_555
H20 C19 1_555 1_555
C20 O5 1_555 1_555
H21 C20 1_555 1_555
H22 C20 1_555 1_555
H23 C20 1_555 1_555
C21 N2 1_555 1_555
S2 C23 1_555 1_555
N2 C31 1_555 1_555
O6 C36 1_555 1_555
C22 C21 1_555 1_555
O7 C36 1_555 1_555
C23 C22 1_555 1_555
O8 C38 1_555 1_555
C24 C21 1_555 1_555
H24 C24 1_555 1_555
O9 C38 1_555 1_555
C25 C24 1_555 1_555
O10 C35 1_555 1_555
C26 S2 1_555 1_555
C27 C26 1_555 1_555
H25 C27 1_555 1_555
C28 C27 1_555 1_555
H26 C28 1_555 1_555
C29 C28 1_555 1_555
H27 C29 1_555 1_555
C30 C25 1_555 1_555
H28 C30 1_555 1_555
C31 H29 1_555 1_555
C32 C31 1_555 1_555
H30 C32 1_555 1_555
H31 C32 1_555 1_555
C33 C32 1_555 1_555
H32 C33 1_555 1_555
H33 C33 1_555 1_555
C34 N2 1_555 1_555
H34 C34 1_555 1_555
H35 C34 1_555 1_555
C35 C31 1_555 1_555
H36 C35 1_555 1_555
H37 C35 1_555 1_555
C36 C22 1_555 1_555
C37 O7 1_555 1_555
H38 C37 1_555 1_555
H39 C37 1_555 1_555
H40 C37 1_555 1_555
C38 C23 1_555 1_555
C39 O9 1_555 1_555
H41 C39 1_555 1_555
H42 C39 1_555 1_555
H43 C39 1_555 1_555
C40 O10 1_555 1_555
H44 C40 1_555 1_555
H45 C40 1_555 1_555
H46 C40 1_555 1_555
C3 C4 1_555 1_555
C5 C6 1_555 1_555
C9 C10 1_555 1_555
C13 C14 1_555 1_555
C23 C24 1_555 1_555
C25 C26 1_555 1_555
C29 C30 1_555 1_555
C33 C34 1_555 1_555

#END
