
#######################################################################
#
#                 Cambridge Crystallographic Data Centre
#                                CCDC 
#
#######################################################################
#
# If this CIF has been generated from an entry in the Cambridge 
# Structural Database, then it will include bibliographic, chemical, 
# crystal, experimental, refinement or atomic coordinate data resulting 
# from the CCDC's data processing and validation procedures.
#
#######################################################################

data_GEFVUK
_chemical_formula_moiety         'C16 H15 Br1 N2 O3'
_chemical_name_systematic        
N'-(5-Bromo-2-methoxybenzylidene)-2-hydroxy-3-methylbenzohydrazide
_symmetry_cell_setting           orthorhombic
_symmetry_space_group_name_H-M   'P 21 21 21'
_symmetry_Int_Tables_number      19
_space_group_name_Hall           'P 2ac 2ab'
loop_
_symmetry_equiv_pos_site_id
_symmetry_equiv_pos_as_xyz
1 x,y,z
2 1/2-x,-y,1/2+z
3 -x,1/2+y,1/2-z
4 1/2+x,1/2-y,-z
_cell_length_a                   7.852(2)
_cell_length_b                   17.979(3)
_cell_length_c                   22.751(2)
_cell_angle_alpha                90
_cell_angle_beta                 90
_cell_angle_gamma                90
_cell_volume                     3211.78
_exptl_crystal_colour            colorless
_exptl_crystal_description       block
_cell_formula_units_Z            8
loop_
_atom_site_label
_atom_site_type_symbol
_atom_site_fract_x
_atom_site_fract_y
_atom_site_fract_z
Br1 Br -0.09208(13) 1.15337(4) 0.85380(5)
N1 N 0.4389(6) 0.9857(3) 0.7734(2)
N2 N 0.5792(7) 0.9534(2) 0.7470(2)
O1 O 0.1162(5) 0.8346(2) 0.8325(2)
O2 O 0.6973(5) 1.0662(2) 0.73019(18)
O3 O 0.9842(6) 1.0788(3) 0.6792(2)
C1 C 0.1649(7) 0.9600(4) 0.8159(2)
C2 C 0.0599(7) 0.9062(4) 0.8401(3)
C3 C -0.0894(9) 0.9247(4) 0.8669(3)
H1 H -0.1594 0.8875 0.8819
C4 C -0.1371(9) 0.9981(4) 0.8720(3)
H2 H -0.2386 1.0110 0.8904
C5 C -0.0307(9) 1.0525(4) 0.8489(3)
C6 C 0.1179(8) 1.0338(3) 0.8212(2)
H3 H 0.1876 1.0708 0.8059
C7 C 0.3210(7) 0.9388(3) 0.7864(2)
H4 H 0.3367 0.8891 0.7764
C8 C 0.7077(7) 0.9968(3) 0.7273(2)
C9 C 0.8587(7) 0.9601(3) 0.7025(2)
C10 C 0.9892(8) 1.0031(4) 0.6787(3)
C11 C 1.1339(8) 0.9700(4) 0.6533(3)
C12 C 1.1430(9) 0.8945(5) 0.6534(3)
H5 H 1.2381 0.8715 0.6372
C13 C 1.0142(10) 0.8506(4) 0.6772(4)
H6 H 1.0225 0.7990 0.6760
C14 C 0.8776(9) 0.8833(3) 0.7019(3)
H7 H 0.7939 0.8538 0.7189
C15 C 1.2725(9) 1.0174(4) 0.6298(3)
H8 H 1.3350 1.0389 0.6619
H9 H 1.2246 1.0563 0.6061
H10 H 1.3478 0.9877 0.6063
C16 C 0.0100(9) 0.7753(4) 0.8522(4)
H11 H 0.0087 0.7744 0.8944
H12 H 0.0534 0.7289 0.8376
H13 H -0.1037 0.7827 0.8378
H14 H 0.579(8) 0.9034(6) 0.747(3)
H15 H 0.884(4) 1.076(3) 0.698(2)
Br2 Br 0.67492(15) 0.90961(4) 0.53182(4)
N3 N 0.5484(6) 0.7306(2) 0.7162(2)
N4 N 0.5010(6) 0.7041(2) 0.7711(2)
O4 O 0.5882(6) 0.5850(2) 0.58502(16)
O5 O 0.5844(5) 0.81275(19) 0.81111(15)
O6 O 0.4763(5) 0.8530(2) 0.91104(16)
C17 C 0.5839(8) 0.7097(3) 0.6147(2)
C18 C 0.6112(8) 0.6573(3) 0.5705(3)
C19 C 0.6618(9) 0.6805(4) 0.5148(3)
H16 H 0.6812 0.6461 0.4850
C20 C 0.6826(11) 0.7553(4) 0.5049(3)
H17 H 0.7203 0.7713 0.4683
C21 C 0.6493(9) 0.8063(3) 0.5473(3)
C22 C 0.6023(8) 0.7841(3) 0.6020(2)
H18 H 0.5823 0.8194 0.6311
C23 C 0.5390(6) 0.6842(3) 0.6743(3)
H19 H 0.5046 0.6354 0.6810
C24 C 0.5170(7) 0.7512(3) 0.8170(2)
C25 C 0.4477(6) 0.7273(3) 0.8747(2)
C26 C 0.4250(7) 0.7814(3) 0.9190(2)
C27 C 0.3474(7) 0.7643(3) 0.9725(3)
C28 C 0.2964(9) 0.6928(4) 0.9810(3)
H20 H 0.2402 0.6807 1.0157
C29 C 0.3254(8) 0.6373(3) 0.9398(3)
H21 H 0.2952 0.5884 0.9481
C30 C 0.3981(7) 0.6545(3) 0.8871(2)
H22 H 0.4148 0.6174 0.8593
C31 C 0.3135(9) 0.8258(3) 1.0165(2)
H23 H 0.2420 0.8629 0.9988
H24 H 0.4195 0.8480 1.0281
H25 H 0.2576 0.8055 1.0504
C32 C 0.6380(11) 0.5293(3) 0.5438(3)
H26 H 0.5724 0.5347 0.5084
H27 H 0.6181 0.4810 0.5604
H28 H 0.7568 0.5348 0.5349
H29 H 0.432(6) 0.664(2) 0.774(3)
H30 H 0.541(6) 0.847(3) 0.8786(16)
loop_
_geom_bond_atom_site_label_1
_geom_bond_atom_site_label_2
_geom_bond_site_symmetry_1
_geom_bond_site_symmetry_2
Br1 C5 1_555 1_555
N1 N2 1_555 1_555
N2 C8 1_555 1_555
O1 C2 1_555 1_555
O2 C8 1_555 1_555
O3 C10 1_555 1_555
C1 C2 1_555 1_555
C2 C3 1_555 1_555
C3 H1 1_555 1_555
C4 C3 1_555 1_555
H2 C4 1_555 1_555
C5 C4 1_555 1_555
C6 C1 1_555 1_555
H3 C6 1_555 1_555
C7 N1 1_555 1_555
H4 C7 1_555 1_555
C8 C9 1_555 1_555
C9 C10 1_555 1_555
C10 C11 1_555 1_555
C11 C12 1_555 1_555
C12 H5 1_555 1_555
C13 C12 1_555 1_555
H6 C13 1_555 1_555
C14 C9 1_555 1_555
H7 C14 1_555 1_555
C15 C11 1_555 1_555
H8 C15 1_555 1_555
H9 C15 1_555 1_555
H10 C15 1_555 1_555
C16 O1 1_555 1_555
H11 C16 1_555 1_555
H12 C16 1_555 1_555
H13 C16 1_555 1_555
H14 N2 1_555 1_555
H15 O3 1_555 1_555
Br2 C21 1_555 1_555
N3 N4 1_555 1_555
N4 C24 1_555 1_555
O4 C18 1_555 1_555
O5 C24 1_555 1_555
O6 C26 1_555 1_555
C17 C18 1_555 1_555
C18 C19 1_555 1_555
C19 H16 1_555 1_555
C20 C19 1_555 1_555
H17 C20 1_555 1_555
C21 C20 1_555 1_555
C22 C17 1_555 1_555
H18 C22 1_555 1_555
C23 N3 1_555 1_555
H19 C23 1_555 1_555
C24 C25 1_555 1_555
C25 C26 1_555 1_555
C26 C27 1_555 1_555
C27 C28 1_555 1_555
C28 H20 1_555 1_555
C29 C28 1_555 1_555
H21 C29 1_555 1_555
C30 C25 1_555 1_555
H22 C30 1_555 1_555
C31 C27 1_555 1_555
H23 C31 1_555 1_555
H24 C31 1_555 1_555
H25 C31 1_555 1_555
C32 O4 1_555 1_555
H26 C32 1_555 1_555
H27 C32 1_555 1_555
H28 C32 1_555 1_555
H29 N4 1_555 1_555
H30 O6 1_555 1_555
C1 C7 1_555 1_555
C5 C6 1_555 1_555
C13 C14 1_555 1_555
C17 C23 1_555 1_555
C21 C22 1_555 1_555
C29 C30 1_555 1_555

#END
