
#######################################################################
#
#                 Cambridge Crystallographic Data Centre
#                                CCDC 
#
#######################################################################
#
# If this CIF has been generated from an entry in the Cambridge 
# Structural Database, then it will include bibliographic, chemical, 
# crystal, experimental, refinement or atomic coordinate data resulting 
# from the CCDC's data processing and validation procedures.
#
#######################################################################

data_GEFVAP
_chemical_formula_moiety         'C19 H21 N1 O4 S1'
_chemical_name_systematic        
'Dimethyl 1-(1-piperidinyl)cyclobuta(b)(1)benzothiophene-2,2a(7bH)-dicarboxylate'
_chemical_properties_biological  
'HIV-1 reverse transcriptase inhibitory activity'
_symmetry_cell_setting           monoclinic
_symmetry_space_group_name_H-M   'P 21'
_symmetry_Int_Tables_number      4
_space_group_name_Hall           'P 2yb'
loop_
_symmetry_equiv_pos_site_id
_symmetry_equiv_pos_as_xyz
1 x,y,z
2 -x,1/2+y,-z
_cell_length_a                   9.1594(2)
_cell_length_b                   10.4554(2)
_cell_length_c                   9.4888(2)
_cell_angle_alpha                90
_cell_angle_beta                 97.2230(10)
_cell_angle_gamma                90
_cell_volume                     901.486
_exptl_crystal_colour            colorless
_exptl_crystal_description       prism
_cell_formula_units_Z            2
_exptl_crystal_recrystallization_method toluene
loop_
_atom_site_label
_atom_site_type_symbol
_atom_site_fract_x
_atom_site_fract_y
_atom_site_fract_z
S1 S -0.16045(6) -0.64739(5) -0.42692(6)
C1 C -0.2667(2) -0.9691(2) -0.3768(2)
O1 O -0.5207(2) -0.8654(2) -0.2066(3)
N1 N -0.3236(2) -1.0836(2) -0.4050(2)
O2 O -0.3739(2) -0.69363(18) -0.17376(19)
C2 C -0.2905(2) -0.8613(2) -0.2984(2)
C3 C -0.1489(2) -0.7977(2) -0.3272(2)
O3 O 0.0108(3) -0.6835(2) -0.1497(3)
O4 O 0.0144(2) -0.8948(2) -0.1471(2)
C4 C -0.1306(2) -0.9122(2) -0.4318(2)
H1 H -0.0403 -0.9622 -0.4086
C5 C -0.1533(2) -0.8602(2) -0.5813(2)
C6 C -0.1696(2) -0.7282(2) -0.5903(2)
C7 C -0.1864(2) -0.6651(3) -0.7207(3)
H2 H -0.1975 -0.5768 -0.7253
C8 C -0.1863(3) -0.7370(3) -0.8428(3)
H3 H -0.1953 -0.6963 -0.9307
C9 C -0.1732(3) -0.8677(3) -0.8361(3)
H4 H -0.1765 -0.9148 -0.9196
C10 C -0.1549(3) -0.9304(3) -0.7060(2)
H5 H -0.1439 -1.0188 -0.7023
C11 C -0.2610(3) -1.1761(2) -0.4948(3)
H6 H -0.1697 -1.1426 -0.5218
H7 H -0.3285 -1.1894 -0.5808
C12 C -0.2314(4) -1.3020(3) -0.4195(4)
H8 H -0.1535 -1.2912 -0.3412
H9 H -0.1987 -1.3640 -0.4848
C13 C -0.3689(4) -1.3515(3) -0.3632(4)
H10 H -0.4435 -1.3715 -0.4419
H11 H -0.3458 -1.4293 -0.3092
C14 C -0.4263(3) -1.2528(3) -0.2702(3)
H12 H -0.3545 -1.2386 -0.1875
H13 H -0.5160 -1.2839 -0.2377
C15 C -0.4573(3) -1.1281(3) -0.3479(3)
H14 H -0.5363 -1.1398 -0.4250
H15 H -0.4883 -1.0645 -0.2835
C16 C -0.4064(3) -0.8133(3) -0.2219(3)
C17 C -0.4854(3) -0.6302(4) -0.1055(3)
H16 H -0.4515 -0.5464 -0.0754
H17 H -0.5053 -0.6790 -0.0244
H18 H -0.5737 -0.6228 -0.1711
C18 C -0.0310(2) -0.7831(3) -0.2005(2)
C19 C 0.1320(3) -0.8924(4) -0.0285(3)
H19 H 0.1561 -0.9783 0.0016
H20 H 0.1001 -0.8452 0.0489
H21 H 0.2173 -0.8520 -0.0578
loop_
_geom_bond_atom_site_label_1
_geom_bond_atom_site_label_2
_geom_bond_site_symmetry_1
_geom_bond_site_symmetry_2
S1 C3 1_555 1_555
C1 N1 1_555 1_555
O1 C16 1_555 1_555
N1 C11 1_555 1_555
O2 C16 1_555 1_555
C2 C1 1_555 1_555
C3 C2 1_555 1_555
O3 C18 1_555 1_555
O4 C18 1_555 1_555
C4 C1 1_555 1_555
H1 C4 1_555 1_555
C5 C4 1_555 1_555
C6 S1 1_555 1_555
C7 C6 1_555 1_555
H2 C7 1_555 1_555
C8 C7 1_555 1_555
H3 C8 1_555 1_555
C9 C8 1_555 1_555
H4 C9 1_555 1_555
C10 C5 1_555 1_555
H5 C10 1_555 1_555
C11 H6 1_555 1_555
H7 C11 1_555 1_555
C12 C11 1_555 1_555
H8 C12 1_555 1_555
H9 C12 1_555 1_555
C13 C12 1_555 1_555
H10 C13 1_555 1_555
H11 C13 1_555 1_555
C14 C13 1_555 1_555
H12 C14 1_555 1_555
H13 C14 1_555 1_555
C15 N1 1_555 1_555
H14 C15 1_555 1_555
H15 C15 1_555 1_555
C16 C2 1_555 1_555
C17 O2 1_555 1_555
H16 C17 1_555 1_555
H17 C17 1_555 1_555
H18 C17 1_555 1_555
C18 C3 1_555 1_555
C19 O4 1_555 1_555
H19 C19 1_555 1_555
H20 C19 1_555 1_555
H21 C19 1_555 1_555
C3 C4 1_555 1_555
C5 C6 1_555 1_555
C9 C10 1_555 1_555
C14 C15 1_555 1_555

#END
