
#######################################################################
#
#                 Cambridge Crystallographic Data Centre
#                                CCDC 
#
#######################################################################
#
# If this CIF has been generated from an entry in the Cambridge 
# Structural Database, then it will include bibliographic, chemical, 
# crystal, experimental, refinement or atomic coordinate data resulting 
# from the CCDC's data processing and validation procedures.
#
#######################################################################

data_GEFWEV
_chemical_formula_moiety         'C15 H12 Br1 F1 N2 O2'
_chemical_name_systematic        
N'-(5-Bromo-2-methoxybenzylidene)-2-fluorobenzohydrazide
_symmetry_cell_setting           monoclinic
_symmetry_space_group_name_H-M   'P 21/c'
_symmetry_Int_Tables_number      14
_space_group_name_Hall           '-P 2ybc'
loop_
_symmetry_equiv_pos_site_id
_symmetry_equiv_pos_as_xyz
1 x,y,z
2 -x,1/2+y,1/2-z
3 -x,-y,-z
4 x,1/2-y,1/2+z
_cell_length_a                   13.725(3)
_cell_length_b                   11.382(3)
_cell_length_c                   9.636(2)
_cell_angle_alpha                90
_cell_angle_beta                 98.553(3)
_cell_angle_gamma                90
_cell_volume                     1488.58
_exptl_crystal_colour            colorless
_exptl_crystal_description       block
_cell_formula_units_Z            4
loop_
_atom_site_label
_atom_site_type_symbol
_atom_site_fract_x
_atom_site_fract_y
_atom_site_fract_z
Br1 Br 0.35828(3) 0.56515(5) 0.08818(5)
N1 N 0.7241(2) 0.3898(3) 0.3124(3)
N2 N 0.8060(2) 0.3211(3) 0.3567(3)
O1 O 0.67508(19) 0.6327(3) 0.5840(3)
O2 O 0.81273(19) 0.2511(2) 0.1396(3)
C1 C 0.6100(3) 0.5289(3) 0.3819(4)
C2 C 0.5987(3) 0.6198(3) 0.4775(4)
C3 C 0.5158(3) 0.6894(3) 0.4583(4)
H1 H 0.5084 0.7486 0.5224
C4 C 0.4432(3) 0.6715(4) 0.3441(4)
H2 H 0.3865 0.7175 0.3318
C5 C 0.4559(3) 0.5849(3) 0.2493(4)
C6 C 0.5377(3) 0.5129(3) 0.2680(4)
H3 H 0.5440 0.4534 0.2038
C7 C 0.6975(3) 0.4529(3) 0.4088(4)
H4 H 0.7340 0.4510 0.4982
C8 C 0.8457(2) 0.2556(3) 0.2649(4)
C9 C 0.6677(4) 0.7224(4) 0.6853(5)
H5 H 0.6623 0.7976 0.6398
H6 H 0.7255 0.7211 0.7551
H7 H 0.6104 0.7088 0.7294
C10 C 0.9377(3) 0.1932(4) 0.3244(4)
C11 C 1.0424(7) 0.0250(8) 0.3266(9)
H8 H 1.0531 -0.0504 0.2947
C12 C 1.1107(6) 0.0769(11) 0.4185(10)
H9 H 1.1689 0.0371 0.4508
C13 C 1.0970(5) 0.1879(10) 0.4663(8)
H10 H 1.1456 0.2247 0.5290
H11 H 0.825(3) 0.313(4) 0.4491(14)
F1 F 0.8909(5) 0.0271(4) 0.1901(6)
C14 C 0.9569(5) 0.0821(5) 0.2794(6)
C15 C 1.0091(4) 0.2438(7) 0.4191(6)
H12 H 0.9982 0.3185 0.4529
C16? C 1.0091(4) 0.2438(7) 0.4191(6)
C17? C 0.9569(5) 0.0821(5) 0.2794(6)
F2? F 1.0023(8) 0.3484(10) 0.4692(12)
H13? H 0.9100 0.0448 0.2146
loop_
_geom_bond_atom_site_label_1
_geom_bond_atom_site_label_2
_geom_bond_site_symmetry_1
_geom_bond_site_symmetry_2
Br1 C5 1_555 1_555
N1 N2 1_555 1_555
N2 C8 1_555 1_555
O1 C2 1_555 1_555
O2 C8 1_555 1_555
C1 C2 1_555 1_555
C2 C3 1_555 1_555
C3 H1 1_555 1_555
C4 C3 1_555 1_555
H2 C4 1_555 1_555
C5 C4 1_555 1_555
C6 C1 1_555 1_555
H3 C6 1_555 1_555
C7 N1 1_555 1_555
H4 C7 1_555 1_555
C8 C10 1_555 1_555
C9 O1 1_555 1_555
H5 C9 1_555 1_555
H6 C9 1_555 1_555
H7 C9 1_555 1_555
C10 C14 1_555 1_555
C11 H8 1_555 1_555
C12 C11 1_555 1_555
H9 C12 1_555 1_555
C13 C12 1_555 1_555
H10 C13 1_555 1_555
H11 N2 1_555 1_555
F1 C14 1_555 1_555
C14 C11 1_555 1_555
C15 C10 1_555 1_555
H12 C15 1_555 1_555
C1 C7 1_555 1_555
C5 C6 1_555 1_555
C13 C15 1_555 1_555

#END
