
#######################################################################
#
#                 Cambridge Crystallographic Data Centre
#                                CCDC 
#
#######################################################################
#
# If this CIF has been generated from an entry in the Cambridge 
# Structural Database, then it will include bibliographic, chemical, 
# crystal, experimental, refinement or atomic coordinate data resulting 
# from the CCDC's data processing and validation procedures.
#
#######################################################################

data_GEFYOI
_chemical_formula_moiety         'C27 H40 O5'
_chemical_name_systematic        
2-(4-(1-((4-methoxyphenyl)methoxy)-3-methylbut-3-en-1-yl)-2,2,4a,6-tetramethyl-4a,5,8,8a-tetrahydro-2H,4H-1,3-benzodioxin-5-yl)ethan-1-ol
_symmetry_cell_setting           orthorhombic
_symmetry_space_group_name_H-M   'P 21 21 21'
_symmetry_Int_Tables_number      19
_space_group_name_Hall           'P 2ac 2ab'
loop_
_symmetry_equiv_pos_site_id
_symmetry_equiv_pos_as_xyz
1 x,y,z
2 1/2-x,-y,1/2+z
3 -x,1/2+y,1/2-z
4 1/2+x,1/2-y,-z
_cell_length_a                   10.3909(3)
_cell_length_b                   14.1188(4)
_cell_length_c                   17.2909(6)
_cell_angle_alpha                90
_cell_angle_beta                 90
_cell_angle_gamma                90
_cell_volume                     2536.7
_exptl_crystal_colour            colorless
_exptl_crystal_description       block
_cell_formula_units_Z            4
loop_
_atom_site_label
_atom_site_type_symbol
_atom_site_fract_x
_atom_site_fract_y
_atom_site_fract_z
C1 C 0.9478(2) 0.59949(18) 0.78571(17)
H1 H 1.0401 0.6027 0.7849
H2 H 0.9183 0.5991 0.8383
H3 H 0.9128 0.6535 0.7593
C2 C 0.9040(2) 0.50975(14) 0.74562(13)
C3 C 0.9909(2) 0.44983(17) 0.71858(15)
H4 H 1.0769 0.4632 0.7286
C4 C 0.9623(2) 0.36315(16) 0.67360(17)
H5 H 0.9726 0.3078 0.7063
H6 H 1.0220 0.3578 0.6307
C5 C 0.8269(2) 0.36745(14) 0.64356(15)
H7 H 0.8230 0.4157 0.6029
O1 O 0.80041(16) 0.27706(10) 0.60939(11)
C6 C 0.6769(3) 0.26890(16) 0.57518(17)
O2 O 0.58079(14) 0.29831(9) 0.62832(9)
C7 C 0.59843(19) 0.39120(13) 0.66101(12)
H8 H 0.6095 0.4345 0.6172
C8 C 0.72716(18) 0.39313(12) 0.70667(12)
C9 C 0.75919(18) 0.49417(12) 0.73655(12)
H9 H 0.7291 0.5389 0.6972
C10 C 0.6671(3) 0.3229(2) 0.49904(16)
H10 H 0.7293 0.2984 0.4632
H11 H 0.6836 0.3889 0.5080
H12 H 0.5823 0.3153 0.4780
C11 C 0.6535(3) 0.16407(17) 0.5633(2)
H13 H 0.6611 0.1317 0.6119
H14 H 0.7161 0.1394 0.5277
H15 H 0.5687 0.1546 0.5427
C12 C 0.7325(2) 0.31897(14) 0.77176(15)
H16 H 0.8123 0.3251 0.7994
H17 H 0.7267 0.2566 0.7499
H18 H 0.6620 0.3289 0.8067
C13 C 0.68866(19) 0.51936(14) 0.81268(13)
H19 H 0.6152 0.4775 0.8181
H20 H 0.7463 0.5066 0.8555
C14 C 0.6418(2) 0.62073(15) 0.81953(16)
H21 H 0.6152 0.6334 0.8723
H22 H 0.7110 0.6640 0.8065
O3 O 0.53808(17) 0.63448(10) 0.76929(12)
H23 H 0.5245 0.6914 0.7643
C15 C 0.46923(18) 0.41579(13) 0.69746(12)
H24 H 0.4759 0.4781 0.7222
C16 C 0.3623(2) 0.41936(15) 0.63623(14)
H25 H 0.3729 0.3658 0.6016
H26 H 0.2800 0.4120 0.6621
C17 C 0.3582(2) 0.50818(18) 0.58873(17)
C18 C 0.3902(3) 0.5086(3) 0.5154(2)
H27 H 0.3849 0.5644 0.4869
H28 H 0.4181 0.4531 0.4917
C19 C 0.3131(3) 0.59567(19) 0.6284(2)
H29 H 0.3124 0.6474 0.5923
H30 H 0.3700 0.6103 0.6705
H31 H 0.2277 0.5858 0.6480
O4 O 0.43705(13) 0.34658(9) 0.75533(8)
C20 C 0.3547(2) 0.38372(15) 0.81470(14)
H32 H 0.2866 0.4211 0.7914
H33 H 0.4039 0.4247 0.8487
C21 C 0.2974(2) 0.30422(14) 0.86040(13)
C22 C 0.3722(2) 0.24201(17) 0.90214(16)
H34 H 0.4611 0.2493 0.9015
C23 C 0.3196(3) 0.16960(17) 0.94468(17)
H35 H 0.3726 0.1286 0.9722
C24 C 0.1879(3) 0.15795(15) 0.94636(14)
C25 C 0.1120(2) 0.21865(18) 0.90633(15)
H36 H 0.0231 0.2115 0.9074
C26 C 0.1670(2) 0.29160(16) 0.86375(14)
H37 H 0.1137 0.3330 0.8368
O5 O 0.1439(2) 0.08290(13) 0.98952(11)
C27 C 0.0116(3) 0.0594(2) 0.9829(2)
H38 H -0.0081 0.0449 0.9300
H39 H -0.0398 0.1120 0.9996
H40 H -0.0068 0.0053 1.0147
loop_
_geom_bond_atom_site_label_1
_geom_bond_atom_site_label_2
_geom_bond_site_symmetry_1
_geom_bond_site_symmetry_2
C1 H1 1_555 1_555
H2 C1 1_555 1_555
H3 C1 1_555 1_555
C2 C1 1_555 1_555
C3 C2 1_555 1_555
H4 C3 1_555 1_555
C4 C3 1_555 1_555
H5 C4 1_555 1_555
H6 C4 1_555 1_555
C5 C4 1_555 1_555
H7 C5 1_555 1_555
O1 C5 1_555 1_555
C6 O1 1_555 1_555
O2 C6 1_555 1_555
C7 O2 1_555 1_555
H8 C7 1_555 1_555
C8 C5 1_555 1_555
C9 C2 1_555 1_555
H9 C9 1_555 1_555
C10 C6 1_555 1_555
H10 C10 1_555 1_555
H11 C10 1_555 1_555
H12 C10 1_555 1_555
C11 C6 1_555 1_555
H13 C11 1_555 1_555
H14 C11 1_555 1_555
H15 C11 1_555 1_555
C12 C8 1_555 1_555
H16 C12 1_555 1_555
H17 C12 1_555 1_555
H18 C12 1_555 1_555
C13 C9 1_555 1_555
H19 C13 1_555 1_555
H20 C13 1_555 1_555
C14 C13 1_555 1_555
H21 C14 1_555 1_555
H22 C14 1_555 1_555
O3 C14 1_555 1_555
H23 O3 1_555 1_555
C15 C7 1_555 1_555
H24 C15 1_555 1_555
C16 C15 1_555 1_555
H25 C16 1_555 1_555
H26 C16 1_555 1_555
C17 C16 1_555 1_555
C18 C17 1_555 1_555
H27 C18 1_555 1_555
H28 C18 1_555 1_555
C19 C17 1_555 1_555
H29 C19 1_555 1_555
H30 C19 1_555 1_555
H31 C19 1_555 1_555
O4 C15 1_555 1_555
C20 O4 1_555 1_555
H32 C20 1_555 1_555
H33 C20 1_555 1_555
C21 C20 1_555 1_555
C22 C21 1_555 1_555
H34 C22 1_555 1_555
C23 C22 1_555 1_555
H35 C23 1_555 1_555
C24 C23 1_555 1_555
C25 C24 1_555 1_555
H36 C25 1_555 1_555
C26 C21 1_555 1_555
H37 C26 1_555 1_555
O5 C24 1_555 1_555
C27 O5 1_555 1_555
H38 C27 1_555 1_555
H39 C27 1_555 1_555
H40 C27 1_555 1_555
C7 C8 1_555 1_555
C8 C9 1_555 1_555
C25 C26 1_555 1_555

#END
