
#######################################################################
#
#                 Cambridge Crystallographic Data Centre
#                                CCDC 
#
#######################################################################
#
# If this CIF has been generated from an entry in the Cambridge 
# Structural Database, then it will include bibliographic, chemical, 
# crystal, experimental, refinement or atomic coordinate data resulting 
# from the CCDC's data processing and validation procedures.
#
#######################################################################

data_GEFZUO
_chemical_formula_moiety         'C17 H20 N2'
_chemical_name_systematic        (E)-4-(4-(Diethylamino)styryl)pyridine
_symmetry_cell_setting           orthorhombic
_symmetry_space_group_name_H-M   'P n a 21'
_symmetry_Int_Tables_number      33
_space_group_name_Hall           'P 2c -2n'
loop_
_symmetry_equiv_pos_site_id
_symmetry_equiv_pos_as_xyz
1 x,y,z
2 -x,-y,1/2+z
3 1/2-x,1/2+y,1/2+z
4 1/2+x,1/2-y,z
_cell_length_a                   12.717(8)
_cell_length_b                   15.016(9)
_cell_length_c                   7.578(5)
_cell_angle_alpha                90
_cell_angle_beta                 90
_cell_angle_gamma                90
_cell_volume                     1447.08
_cell_formula_units_Z            4
loop_
_atom_site_label
_atom_site_type_symbol
_atom_site_fract_x
_atom_site_fract_y
_atom_site_fract_z
N1 N 0.6003(4) 0.8501(3) 0.7226(8)
N2 N 0.6529(3) 0.1285(3) 0.7017(8)
C1 C 0.5284(5) 0.8061(4) 0.6311(9)
H1 H 0.4784 0.8395 0.5708
C2 C 0.5219(4) 0.7148(3) 0.6181(8)
H2 H 0.4692 0.6888 0.5501
C3 C 0.5934(4) 0.6618(3) 0.7060(8)
C4 C 0.6683(4) 0.7078(3) 0.8046(9)
H3 H 0.7187 0.6761 0.8676
C5 C 0.6691(5) 0.7990(4) 0.8100(10)
H4 H 0.7202 0.8270 0.8781
C6 C 0.5873(4) 0.5646(3) 0.6911(7)
H5 H 0.5296 0.5417 0.6309
C7 C 0.6555(4) 0.5060(3) 0.7543(7)
H6 H 0.7115 0.5294 0.8181
C8 C 0.6534(4) 0.4096(3) 0.7361(7)
C9 C 0.5843(4) 0.3634(3) 0.6239(7)
H7 H 0.5368 0.3957 0.5559
C10 C 0.5845(4) 0.2722(3) 0.6116(8)
H8 H 0.5379 0.2445 0.5345
C11 C 0.6530(4) 0.2196(3) 0.7120(8)
C12 C 0.7226(4) 0.2656(3) 0.8227(8)
H9 H 0.7706 0.2336 0.8901
C13 C 0.7214(4) 0.3572(3) 0.8340(8)
H10 H 0.7683 0.3850 0.9106
C14 C 0.5808(4) 0.0805(3) 0.5860(8)
H11 H 0.6102 0.0224 0.5599
H12 H 0.5745 0.1127 0.4755
C15 C 0.4719(4) 0.0684(4) 0.6650(9)
H13 H 0.4760 0.0291 0.7646
H14 H 0.4257 0.0434 0.5779
H15 H 0.4451 0.1252 0.7024
C16 C 0.7146(4) 0.0724(3) 0.8207(9)
H16 H 0.6771 0.0170 0.8398
H17 H 0.7207 0.1022 0.9338
C17 C 0.8229(4) 0.0516(4) 0.7532(9)
H18 H 0.8178 0.0262 0.6372
H19 H 0.8564 0.0099 0.8310
H20 H 0.8636 0.1053 0.7482
loop_
_geom_bond_atom_site_label_1
_geom_bond_atom_site_label_2
_geom_bond_site_symmetry_1
_geom_bond_site_symmetry_2
N1 C1 1_555 1_555
N2 C11 1_555 1_555
C1 H1 1_555 1_555
C2 C1 1_555 1_555
H2 C2 1_555 1_555
C3 C2 1_555 1_555
C4 C3 1_555 1_555
H3 C4 1_555 1_555
C5 N1 1_555 1_555
H4 C5 1_555 1_555
C6 C3 1_555 1_555
H5 C6 1_555 1_555
C7 C6 1_555 1_555
H6 C7 1_555 1_555
C8 C7 1_555 1_555
C9 C8 1_555 1_555
H7 C9 1_555 1_555
C10 C9 1_555 1_555
H8 C10 1_555 1_555
C11 C10 1_555 1_555
C12 C11 1_555 1_555
H9 C12 1_555 1_555
C13 C8 1_555 1_555
H10 C13 1_555 1_555
C14 N2 1_555 1_555
H11 C14 1_555 1_555
H12 C14 1_555 1_555
C15 C14 1_555 1_555
H13 C15 1_555 1_555
H14 C15 1_555 1_555
H15 C15 1_555 1_555
C16 N2 1_555 1_555
H16 C16 1_555 1_555
H17 C16 1_555 1_555
C17 C16 1_555 1_555
H18 C17 1_555 1_555
H19 C17 1_555 1_555
H20 C17 1_555 1_555
C4 C5 1_555 1_555
C12 C13 1_555 1_555

#END
