
#######################################################################
#
#                 Cambridge Crystallographic Data Centre
#                                CCDC 
#
#######################################################################
#
# If this CIF has been generated from an entry in the Cambridge 
# Structural Database, then it will include bibliographic, chemical, 
# crystal, experimental, refinement or atomic coordinate data resulting 
# from the CCDC's data processing and validation procedures.
#
#######################################################################

data_GEGDII
_chemical_formula_moiety         'C23 H20 F7 N1 O3'
_chemical_name_systematic        
'2-(2-methylpropyl)-2-{[2,3,5,6-tetrafluoro-4-(trifluoromethyl)phenyl]carbamoyl}cyclobutyl benzoate'
_symmetry_cell_setting           orthorhombic
_symmetry_space_group_name_H-M   'P 21 21 21'
_symmetry_Int_Tables_number      19
_space_group_name_Hall           'P 2ac 2ab'
loop_
_symmetry_equiv_pos_site_id
_symmetry_equiv_pos_as_xyz
1 x,y,z
2 1/2-x,-y,1/2+z
3 -x,1/2+y,1/2-z
4 1/2+x,1/2-y,-z
_cell_length_a                   9.7948(2)
_cell_length_b                   12.7635(3)
_cell_length_c                   17.1970(4)
_cell_angle_alpha                90
_cell_angle_beta                 90
_cell_angle_gamma                90
_cell_volume                     2149.9
_exptl_crystal_colour            colorless
_exptl_crystal_description       Block
_cell_formula_units_Z            4
loop_
_atom_site_label
_atom_site_type_symbol
_atom_site_fract_x
_atom_site_fract_y
_atom_site_fract_z
F1 F 0.50410(12) 0.85938(9) 0.35040(7)
F2 F 0.56912(12) 0.80672(9) 0.20458(7)
F3 F 0.74462(13) 0.48342(9) 0.29664(7)
F4 F 0.67365(12) 0.53487(9) 0.43903(7)
F5 F 0.58879(15) 0.61021(15) 0.11756(8)
F6 F 0.77356(15) 0.69739(11) 0.13123(7)
F7 F 0.77219(17) 0.53345(12) 0.15478(8)
O1 O 0.76821(13) 0.71055(11) 0.52194(8)
O2 O 0.45864(13) 0.60610(10) 0.61520(8)
O3 O 0.28629(14) 0.58232(11) 0.69955(8)
N1 N 0.55336(16) 0.72851(13) 0.47515(9)
H1 H 0.467(2) 0.753(2) 0.4836(17)
C1 C 0.64800(19) 0.73177(14) 0.53338(11)
C2 C 0.59488(18) 0.76889(14) 0.61125(11)
C3 C 0.47171(19) 0.70987(15) 0.64808(11)
H2 H 0.3848 0.7510 0.6486
C4 C 0.5477(2) 0.70857(17) 0.72629(11)
H3 H 0.5499 0.6388 0.7515
H4 H 0.5163 0.7630 0.7632
C5 C 0.6815(2) 0.73726(15) 0.68319(11)
H5 H 0.7426 0.6768 0.6739
H6 H 0.7319 0.7963 0.7070
C6 C 0.55942(19) 0.88692(14) 0.60632(11)
H7 H 0.4738 0.8942 0.5762
H8 H 0.5407 0.9124 0.6596
C7 C 0.6669(2) 0.95915(15) 0.56968(11)
H9 H 0.6891 0.9314 0.5168
C8 C 0.6051(2) 1.06764(16) 0.56007(14)
H10 H 0.5232 1.0630 0.5276
H11 H 0.6718 1.1141 0.5352
H12 H 0.5806 1.0957 0.6112
C9 C 0.7996(2) 0.96549(17) 0.61616(13)
H13 H 0.7797 0.9896 0.6691
H14 H 0.8621 1.0149 0.5909
H15 H 0.8421 0.8961 0.6183
C10 C 0.58989(19) 0.70027(15) 0.39889(11)
C11 C 0.56273(19) 0.76651(15) 0.33689(11)
C12 C 0.5969(2) 0.73933(16) 0.26196(11)
C13 C 0.6616(2) 0.64451(16) 0.24503(11)
C14 C 0.6870(2) 0.57752(15) 0.30728(11)
C15 C 0.65141(19) 0.60459(15) 0.38214(11)
C16 C 0.6994(2) 0.62036(17) 0.16238(12)
C17 C 0.35859(19) 0.54856(15) 0.64840(11)
C18 C 0.34740(19) 0.44127(15) 0.61563(11)
C19 C 0.2398(2) 0.37833(16) 0.64172(11)
H16 H 0.1755 0.4056 0.6778
C20 C 0.2268(2) 0.27648(16) 0.61512(12)
H17 H 0.1544 0.2335 0.6335
C21 C 0.3196(2) 0.23728(16) 0.56162(12)
H18 H 0.3105 0.1674 0.5432
C22 C 0.4261(2) 0.29988(16) 0.53473(12)
H19 H 0.4891 0.2727 0.4979
C23 C 0.4404(2) 0.40180(15) 0.56158(12)
H20 H 0.5130 0.4445 0.5433
loop_
_geom_bond_atom_site_label_1
_geom_bond_atom_site_label_2
_geom_bond_site_symmetry_1
_geom_bond_site_symmetry_2
F1 C11 1_555 1_555
F2 C12 1_555 1_555
F3 C14 1_555 1_555
F4 C15 1_555 1_555
F5 C16 1_555 1_555
F6 C16 1_555 1_555
F7 C16 1_555 1_555
O1 C1 1_555 1_555
O2 C3 1_555 1_555
O3 C17 1_555 1_555
N1 H1 1_555 1_555
C1 N1 1_555 1_555
C2 C1 1_555 1_555
C3 C2 1_555 1_555
H2 C3 1_555 1_555
C4 C3 1_555 1_555
H3 C4 1_555 1_555
H4 C4 1_555 1_555
C5 C2 1_555 1_555
H5 C5 1_555 1_555
H6 C5 1_555 1_555
C6 C2 1_555 1_555
H7 C6 1_555 1_555
H8 C6 1_555 1_555
C7 C6 1_555 1_555
H9 C7 1_555 1_555
C8 C7 1_555 1_555
H10 C8 1_555 1_555
H11 C8 1_555 1_555
H12 C8 1_555 1_555
C9 C7 1_555 1_555
H13 C9 1_555 1_555
H14 C9 1_555 1_555
H15 C9 1_555 1_555
C10 N1 1_555 1_555
C11 C10 1_555 1_555
C12 C11 1_555 1_555
C13 C12 1_555 1_555
C14 C13 1_555 1_555
C15 C10 1_555 1_555
C16 C13 1_555 1_555
C17 O2 1_555 1_555
C18 C17 1_555 1_555
C19 C18 1_555 1_555
H16 C19 1_555 1_555
C20 C19 1_555 1_555
H17 C20 1_555 1_555
C21 C20 1_555 1_555
H18 C21 1_555 1_555
C22 C21 1_555 1_555
H19 C22 1_555 1_555
C23 C18 1_555 1_555
H20 C23 1_555 1_555
C4 C5 1_555 1_555
C14 C15 1_555 1_555
C22 C23 1_555 1_555

#END
