
#######################################################################
#
#                 Cambridge Crystallographic Data Centre
#                                CCDC 
#
#######################################################################
#
# If this CIF has been generated from an entry in the Cambridge 
# Structural Database, then it will include bibliographic, chemical, 
# crystal, experimental, refinement or atomic coordinate data resulting 
# from the CCDC's data processing and validation procedures.
#
#######################################################################

data_GEGDUT
_chemical_formula_moiety         'C67 H46 N2 O8,2(C1 H1 Cl3)'
_chemical_name_systematic        
"9,9'-(Propane-1,3-diyl)bis(7,11-bis(4-methoxyphenyl)-8H-acenaphtho[1,2-f]isoindole-8,10(9H)-dione) chloroform solvate"
_symmetry_cell_setting           triclinic
_symmetry_space_group_name_H-M   'P -1'
_symmetry_Int_Tables_number      2
_space_group_name_Hall           '-P 1'
loop_
_symmetry_equiv_pos_site_id
_symmetry_equiv_pos_as_xyz
1 x,y,z
2 -x,-y,-z
_cell_length_a                   13.507(4)
_cell_length_b                   14.759(5)
_cell_length_c                   15.313(5)
_cell_angle_alpha                110.149(7)
_cell_angle_beta                 90.272(4)
_cell_angle_gamma                91.206(4)
_cell_volume                     2864.95
_exptl_crystal_colour            yellow
_exptl_crystal_description       line
_cell_formula_units_Z            2
loop_
_atom_site_label
_atom_site_type_symbol
_atom_site_fract_x
_atom_site_fract_y
_atom_site_fract_z
N1 N 0.2973(2) 0.2958(2) 0.2667(2)
N2 N 0.1341(2) 0.4475(2) 0.3455(2)
O1 O 0.35034(17) 0.40236(17) 0.40875(17)
O2 O 0.2582(2) 0.15672(19) 0.14400(18)
O3 O 0.04445(19) 0.30393(18) 0.30069(17)
O4 O 0.21338(19) 0.59046(17) 0.43238(19)
O5 O 0.49096(19) 0.51920(19) 0.77783(18)
O6 O 0.1267(2) -0.2060(2) -0.0399(2)
O7 O -0.06265(18) -0.05537(17) 0.3516(2)
O8 O 0.4610(2) 0.7972(2) 0.7653(2)
C1 C 0.2993(3) 0.3601(3) 0.2131(3)
H1 H 0.3401 0.3314 0.1572
H2 H 0.3313 0.4223 0.2510
C2 C 0.1956(3) 0.3793(3) 0.1826(3)
H3 H 0.2021 0.3967 0.1259
H4 H 0.1555 0.3186 0.1657
C3 C 0.1401(3) 0.4581(3) 0.2546(3)
H5 H 0.1730 0.5210 0.2621
H6 H 0.0721 0.4595 0.2309
C4 C 0.3285(3) 0.3210(3) 0.3594(3)
C5 C 0.3281(2) 0.2289(2) 0.3796(3)
C6 C 0.3563(2) 0.2135(2) 0.4611(2)
C7 C 0.3507(2) 0.1164(2) 0.4556(2)
C8 C 0.3785(3) 0.0735(3) 0.5254(3)
C9 C 0.4231(3) 0.1063(3) 0.6129(3)
H7 H 0.4432 0.1721 0.6410
C10 C 0.4379(3) 0.0399(3) 0.6591(3)
H8 H 0.4688 0.0625 0.7188
C11 C 0.4096(3) -0.0564(3) 0.6216(3)
H9 H 0.4210 -0.0984 0.6555
C12 C 0.3635(3) -0.0924(3) 0.5323(3)
C13 C 0.3514(3) -0.0257(3) 0.4871(3)
C14 C 0.3099(3) -0.0489(3) 0.3967(3)
C15 C 0.2771(3) -0.1426(3) 0.3517(3)
H10 H 0.2490 -0.1612 0.2909
C16 C 0.2860(3) -0.2110(3) 0.3975(3)
H11 H 0.2623 -0.2753 0.3668
C17 C 0.3276(3) -0.1870(3) 0.4845(3)
H12 H 0.3323 -0.2348 0.5129
C18 C 0.3117(3) 0.0411(2) 0.3755(3)
C19 C 0.2824(3) 0.0592(2) 0.2962(3)
C20 C 0.2942(3) 0.1551(3) 0.3006(2)
C21 C 0.2790(3) 0.1967(3) 0.2257(3)
C22 C 0.3900(3) 0.2928(2) 0.5462(3)
C23 C 0.4814(3) 0.3394(3) 0.5484(3)
H13 H 0.5221 0.3199 0.4951
C24 C 0.5131(3) 0.4129(3) 0.6268(3)
H14 H 0.5762 0.4430 0.6280
C25 C 0.4532(3) 0.4434(3) 0.7042(3)
C26 C 0.3625(3) 0.3976(3) 0.7036(3)
H15 H 0.3218 0.4176 0.7570
C27 C 0.3316(3) 0.3226(3) 0.6249(3)
H16 H 0.2695 0.2910 0.6246
C28 C 0.4228(3) 0.5694(3) 0.8488(3)
H17 H 0.3653 0.5881 0.8201
H18 H 0.4556 0.6273 0.8924
H19 H 0.4009 0.5270 0.8825
C29 C 0.2383(3) -0.0145(3) 0.2107(3)
C30 C 0.2941(3) -0.0894(3) 0.1528(3)
H20 H 0.3601 -0.0973 0.1703
C31 C 0.2546(3) -0.1521(3) 0.0703(3)
H21 H 0.2936 -0.2025 0.0311
C32 C 0.1583(3) -0.1418(3) 0.0445(3)
C33 C 0.1004(3) -0.0697(3) 0.1018(3)
H22 H 0.0339 -0.0632 0.0849
C34 C 0.1414(3) -0.0066(3) 0.1847(3)
H23 H 0.1020 0.0431 0.2243
C35 C 0.0301(4) -0.1932(4) -0.0721(3)
H24 H -0.0196 -0.1999 -0.0282
H25 H 0.0172 -0.2422 -0.1334
H26 H 0.0267 -0.1288 -0.0768
C36 C 0.0832(3) 0.3714(3) 0.3614(3)
C37 C 0.0876(2) 0.3932(2) 0.4634(3)
C38 C 0.0520(2) 0.3372(2) 0.5143(2)
C39 C 0.0637(2) 0.3798(2) 0.6110(3)
C40 C 0.0357(2) 0.3422(3) 0.6846(2)
C41 C -0.0163(3) 0.2615(3) 0.6882(3)
H27 H -0.0431 0.2150 0.6330
C42 C -0.0287(3) 0.2499(3) 0.7749(3)
H28 H -0.0638 0.1943 0.7771
C43 C 0.0078(3) 0.3154(3) 0.8565(3)
H29 H -0.0023 0.3046 0.9135
C44 C 0.0610(3) 0.3999(3) 0.8558(3)
C45 C 0.0726(3) 0.4096(3) 0.7689(3)
C46 C 0.1202(3) 0.4898(2) 0.7545(3)
C47 C 0.1559(3) 0.5632(3) 0.8317(3)
H30 H 0.1858 0.6195 0.8255
C48 C 0.1478(3) 0.5540(3) 0.9197(3)
H31 H 0.1744 0.6042 0.9723
C49 C 0.1025(3) 0.4747(3) 0.9325(3)
H32 H 0.0993 0.4707 0.9930
C50 C 0.1153(2) 0.4711(3) 0.6530(2)
C51 C 0.1574(2) 0.5216(2) 0.5998(2)
C52 C 0.1390(2) 0.4810(2) 0.5042(2)
C53 C 0.1695(3) 0.5170(3) 0.4287(3)
C54 C 0.0161(3) 0.2351(2) 0.4708(2)
C55 C -0.0808(3) 0.2099(3) 0.4410(3)
H33 H -0.1280 0.2587 0.4480
C56 C -0.1094(3) 0.1128(3) 0.4007(3)
H34 H -0.1758 0.0958 0.3799
C57 C -0.0424(3) 0.0420(2) 0.3908(3)
C58 C 0.0547(3) 0.0665(3) 0.4214(3)
H35 H 0.1014 0.0176 0.4156
C59 C 0.0826(3) 0.1622(3) 0.4602(3)
H36 H 0.1493 0.1788 0.4802
C60 C -0.1636(3) -0.0861(3) 0.3358(3)
H37 H -0.1998 -0.0609 0.3943
H38 H -0.1680 -0.1568 0.3127
H39 H -0.1927 -0.0617 0.2897
C61 C 0.2316(3) 0.6025(3) 0.6397(3)
C62 C 0.3303(3) 0.5832(3) 0.6174(3)
H40 H 0.3472 0.5231 0.5725
C63 C 0.4042(3) 0.6501(3) 0.6596(3)
H41 H 0.4714 0.6360 0.6437
C64 C 0.3799(3) 0.7386(3) 0.7255(3)
C65 C 0.2822(3) 0.7611(3) 0.7451(3)
H42 H 0.2654 0.8227 0.7875
C66 C 0.2080(3) 0.6928(3) 0.7024(3)
H43 H 0.1405 0.7080 0.7163
C67 C 0.4411(4) 0.8844(3) 0.8407(3)
H44 H 0.3987 0.9252 0.8185
H45 H 0.5036 0.9191 0.8650
H46 H 0.4074 0.8684 0.8903
C68 C 0.3618(3) 0.5914(3) 0.1433(3)
H47 H 0.3808 0.5774 0.2005
Cl1 Cl 0.36493(9) 0.48270(8) 0.04730(8)
Cl2 Cl 0.24129(8) 0.63687(8) 0.15768(7)
Cl3 Cl 0.44771(9) 0.67682(9) 0.12922(10)
C69 C 0.2848(4) 0.1610(4) 0.9530(4)
H48 H 0.2677 0.1826 1.0204
Cl4 Cl 0.41339(12) 0.14744(12) 0.94406(12)
Cl5 Cl 0.22192(13) 0.05052(12) 0.89646(12)
Cl6 Cl 0.24755(18) 0.24934(12) 0.90914(12)
loop_
_geom_bond_atom_site_label_1
_geom_bond_atom_site_label_2
_geom_bond_site_symmetry_1
_geom_bond_site_symmetry_2
N1 C1 1_555 1_555
N2 C3 1_555 1_555
O1 C4 1_555 1_555
O2 C21 1_555 1_555
O3 C36 1_555 1_555
O4 C53 1_555 1_555
O5 C25 1_555 1_555
O6 C32 1_555 1_555
O7 C57 1_555 1_555
O8 C64 1_555 1_555
C1 H1 1_555 1_555
H2 C1 1_555 1_555
C2 C1 1_555 1_555
H3 C2 1_555 1_555
H4 C2 1_555 1_555
C3 C2 1_555 1_555
H5 C3 1_555 1_555
H6 C3 1_555 1_555
C4 N1 1_555 1_555
C5 C4 1_555 1_555
C6 C5 1_555 1_555
C7 C6 1_555 1_555
C8 C7 1_555 1_555
C9 C8 1_555 1_555
H7 C9 1_555 1_555
C10 C9 1_555 1_555
H8 C10 1_555 1_555
C11 C10 1_555 1_555
H9 C11 1_555 1_555
C12 C11 1_555 1_555
C13 C8 1_555 1_555
C14 C13 1_555 1_555
C15 C14 1_555 1_555
H10 C15 1_555 1_555
C16 C15 1_555 1_555
H11 C16 1_555 1_555
C17 C12 1_555 1_555
H12 C17 1_555 1_555
C18 C7 1_555 1_555
C19 C18 1_555 1_555
C20 C5 1_555 1_555
C21 N1 1_555 1_555
C22 C6 1_555 1_555
C23 C22 1_555 1_555
H13 C23 1_555 1_555
C24 C23 1_555 1_555
H14 C24 1_555 1_555
C25 C24 1_555 1_555
C26 C25 1_555 1_555
H15 C26 1_555 1_555
C27 C22 1_555 1_555
H16 C27 1_555 1_555
C28 O5 1_555 1_555
H17 C28 1_555 1_555
H18 C28 1_555 1_555
H19 C28 1_555 1_555
C29 C19 1_555 1_555
C30 C29 1_555 1_555
H20 C30 1_555 1_555
C31 C30 1_555 1_555
H21 C31 1_555 1_555
C32 C31 1_555 1_555
C33 C32 1_555 1_555
H22 C33 1_555 1_555
C34 C29 1_555 1_555
H23 C34 1_555 1_555
C35 O6 1_555 1_555
H24 C35 1_555 1_555
H25 C35 1_555 1_555
H26 C35 1_555 1_555
C36 N2 1_555 1_555
C37 C36 1_555 1_555
C38 C37 1_555 1_555
C39 C38 1_555 1_555
C40 C39 1_555 1_555
C41 C40 1_555 1_555
H27 C41 1_555 1_555
C42 C41 1_555 1_555
H28 C42 1_555 1_555
C43 C42 1_555 1_555
H29 C43 1_555 1_555
C44 C43 1_555 1_555
C45 C40 1_555 1_555
C46 C45 1_555 1_555
C47 C46 1_555 1_555
H30 C47 1_555 1_555
C48 C47 1_555 1_555
H31 C48 1_555 1_555
C49 C44 1_555 1_555
H32 C49 1_555 1_555
C50 C39 1_555 1_555
C51 C50 1_555 1_555
C52 C37 1_555 1_555
C53 N2 1_555 1_555
C54 C38 1_555 1_555
C55 C54 1_555 1_555
H33 C55 1_555 1_555
C56 C55 1_555 1_555
H34 C56 1_555 1_555
C57 C56 1_555 1_555
C58 C57 1_555 1_555
H35 C58 1_555 1_555
C59 C54 1_555 1_555
H36 C59 1_555 1_555
C60 O7 1_555 1_555
H37 C60 1_555 1_555
H38 C60 1_555 1_555
H39 C60 1_555 1_555
C61 C51 1_555 1_555
C62 C61 1_555 1_555
H40 C62 1_555 1_555
C63 C62 1_555 1_555
H41 C63 1_555 1_555
C64 C63 1_555 1_555
C65 C64 1_555 1_555
H42 C65 1_555 1_555
C66 C61 1_555 1_555
H43 C66 1_555 1_555
C67 O8 1_555 1_555
H44 C67 1_555 1_555
H45 C67 1_555 1_555
H46 C67 1_555 1_555
C68 H47 1_555 1_555
C69 H48 1_555 1_555
Cl1 C68 1_555 1_555
Cl2 C68 1_555 1_555
Cl3 C68 1_555 1_555
Cl4 C69 1_555 1_555
Cl5 C69 1_555 1_555
Cl6 C69 1_555 1_555
C12 C13 1_555 1_555
C14 C18 1_555 1_555
C16 C17 1_555 1_555
C19 C20 1_555 1_555
C20 C21 1_555 1_555
C26 C27 1_555 1_555
C33 C34 1_555 1_555
C44 C45 1_555 1_555
C46 C50 1_555 1_555
C48 C49 1_555 1_555
C51 C52 1_555 1_555
C52 C53 1_555 1_555
C58 C59 1_555 1_555
C65 C66 1_555 1_555

#END
