
#######################################################################
#
#                 Cambridge Crystallographic Data Centre
#                                CCDC 
#
#######################################################################
#
# If this CIF has been generated from an entry in the Cambridge 
# Structural Database, then it will include bibliographic, chemical, 
# crystal, experimental, refinement or atomic coordinate data resulting 
# from the CCDC's data processing and validation procedures.
#
#######################################################################

data_GEGDOO
_chemical_formula_moiety         'C20 H15 Cl1 F7 N1 O2'
_chemical_name_systematic        
1-[2-(4-chlorophenyl)ethyl]-2-hydroxy-N-[2,3,5,6-tetrafluoro-4-(trifluoromethyl)phenyl]cyclobutane-1-carboxamide
_symmetry_cell_setting           orthorhombic
_symmetry_space_group_name_H-M   'P 21 21 21'
_symmetry_Int_Tables_number      19
_space_group_name_Hall           'P 2ac 2ab'
loop_
_symmetry_equiv_pos_site_id
_symmetry_equiv_pos_as_xyz
1 x,y,z
2 1/2-x,-y,1/2+z
3 -x,1/2+y,1/2-z
4 1/2+x,1/2-y,-z
_cell_length_a                   6.2716(2)
_cell_length_b                   15.4423(4)
_cell_length_c                   19.9876(5)
_cell_angle_alpha                90
_cell_angle_beta                 90
_cell_angle_gamma                90
_cell_volume                     1935.76
_exptl_crystal_colour            colorless
_exptl_crystal_description       Block
_cell_formula_units_Z            4
loop_
_atom_site_label
_atom_site_type_symbol
_atom_site_fract_x
_atom_site_fract_y
_atom_site_fract_z
Cl1 Cl -0.13827(9) 0.32471(4) 0.97052(3)
F1 F 0.79468(18) 0.46172(8) 0.45944(6)
F2 F 0.6700(2) 0.37115(9) 0.35390(6)
F3 F 0.03882(19) 0.29353(8) 0.46953(6)
F4 F 0.16931(19) 0.38233(8) 0.57467(6)
F5 F 0.3782(2) 0.28384(9) 0.29466(6)
F6 F 0.2933(3) 0.18912(8) 0.36861(7)
F7 F 0.0656(2) 0.28373(9) 0.33708(6)
O1 O 0.2595(2) 0.55647(9) 0.58775(7)
O2 O 0.8967(2) 0.50126(9) 0.64843(7)
H1 H 1.005(4) 0.525(2) 0.6250(15)
N1 N 0.5567(3) 0.47511(10) 0.57453(8)
H2 H 0.692(3) 0.4675(14) 0.5883(11)
C1 C 0.4387(3) 0.53579(11) 0.60680(9)
C2 C 0.5355(3) 0.57506(12) 0.66949(9)
C3 C 0.7838(3) 0.57096(12) 0.67832(9)
H3 H 0.8196 0.5738 0.7270
C4 C 0.8030(3) 0.66165(13) 0.64767(11)
H4 H 0.8410 0.6615 0.5996
H5 H 0.8965 0.7013 0.6733
C5 C 0.5623(3) 0.67508(13) 0.66116(10)
H6 H 0.4834 0.6993 0.6226
H7 H 0.5319 0.7083 0.7024
C6 C 0.4036(3) 0.54489(12) 0.72976(9)
H8 H 0.4573 0.5742 0.7705
H9 H 0.2536 0.5630 0.7232
C7 C 0.4097(3) 0.44714(13) 0.74099(10)
H10 H 0.3596 0.4174 0.7000
H11 H 0.5587 0.4290 0.7493
C8 C 0.2720(3) 0.41963(12) 0.79958(10)
C9 C 0.0620(3) 0.39333(12) 0.78879(10)
H12 H 0.0051 0.3943 0.7447
C10 C -0.0645(3) 0.36584(12) 0.84126(10)
H13 H -0.2071 0.3477 0.8333
C11 C 0.0183(3) 0.36496(12) 0.90547(10)
C12 C 0.2247(3) 0.39239(13) 0.91834(10)
H14 H 0.2800 0.3923 0.9626
C13 C 0.3489(3) 0.42002(13) 0.86484(10)
H15 H 0.4900 0.4397 0.8731
C14 C 0.4822(3) 0.42881(11) 0.51897(9)
C15 C 0.6050(3) 0.42139(12) 0.46153(10)
C16 C 0.5399(3) 0.37406(12) 0.40683(9)
C17 C 0.3449(3) 0.33076(12) 0.40703(9)
C18 C 0.2232(3) 0.33752(12) 0.46475(10)
C19 C 0.2888(3) 0.38456(12) 0.51923(9)
C20 C 0.2718(3) 0.27204(13) 0.35139(10)
loop_
_geom_bond_atom_site_label_1
_geom_bond_atom_site_label_2
_geom_bond_site_symmetry_1
_geom_bond_site_symmetry_2
Cl1 C11 1_555 1_555
F1 C15 1_555 1_555
F2 C16 1_555 1_555
F3 C18 1_555 1_555
F4 C19 1_555 1_555
F5 C20 1_555 1_555
F6 C20 1_555 1_555
F7 C20 1_555 1_555
O1 C1 1_555 1_555
O2 H1 1_555 1_555
N1 H2 1_555 1_555
C1 N1 1_555 1_555
C2 C1 1_555 1_555
C3 O2 1_555 1_555
H3 C3 1_555 1_555
C4 C3 1_555 1_555
H4 C4 1_555 1_555
H5 C4 1_555 1_555
C5 C2 1_555 1_555
H6 C5 1_555 1_555
H7 C5 1_555 1_555
C6 C2 1_555 1_555
H8 C6 1_555 1_555
H9 C6 1_555 1_555
C7 C6 1_555 1_555
H10 C7 1_555 1_555
H11 C7 1_555 1_555
C8 C7 1_555 1_555
C9 C8 1_555 1_555
H12 C9 1_555 1_555
C10 C9 1_555 1_555
H13 C10 1_555 1_555
C11 C10 1_555 1_555
C12 C11 1_555 1_555
H14 C12 1_555 1_555
C13 C8 1_555 1_555
H15 C13 1_555 1_555
C14 N1 1_555 1_555
C15 C14 1_555 1_555
C16 C15 1_555 1_555
C17 C16 1_555 1_555
C18 C17 1_555 1_555
C19 C14 1_555 1_555
C20 C17 1_555 1_555
C2 C3 1_555 1_555
C4 C5 1_555 1_555
C12 C13 1_555 1_555
C18 C19 1_555 1_555

#END
