
#######################################################################
#
#                 Cambridge Crystallographic Data Centre
#                                CCDC 
#
#######################################################################
#
# If this CIF has been generated from an entry in the Cambridge 
# Structural Database, then it will include bibliographic, chemical, 
# crystal, experimental, refinement or atomic coordinate data resulting 
# from the CCDC's data processing and validation procedures.
#
#######################################################################

data_GEGFUV
_chemical_formula_moiety         'C68 H48 N2 O8,4(C1 H1 Cl3)'
_chemical_name_systematic        
"9,9'-(Butane-1,4-diyl)bis(7,11-bis(4-methoxyphenyl)-8H-acenaphtho[1,2-f]isoindole-8,10(9H)-dione) chloroform solvate"
_symmetry_cell_setting           monoclinic
_symmetry_space_group_name_H-M   'P 21/c'
_symmetry_Int_Tables_number      14
_space_group_name_Hall           '-P 2ybc'
loop_
_symmetry_equiv_pos_site_id
_symmetry_equiv_pos_as_xyz
1 x,y,z
2 -x,1/2+y,1/2-z
3 -x,-y,-z
4 x,1/2-y,1/2+z
_cell_length_a                   14.759(4)
_cell_length_b                   22.637(6)
_cell_length_c                   10.135(3)
_cell_angle_alpha                90
_cell_angle_beta                 94.415(4)
_cell_angle_gamma                90
_cell_volume                     3376.05
_exptl_crystal_colour            colorless
_exptl_crystal_description       prism
_cell_formula_units_Z            2
loop_
_atom_site_label
_atom_site_type_symbol
_atom_site_fract_x
_atom_site_fract_y
_atom_site_fract_z
O1 O 0.4535(2) 0.88350(18) 0.2877(3)
O2 O 0.76894(19) 0.91084(12) 0.0256(3)
O3 O 1.01679(18) 0.83129(12) -0.1493(3)
O4 O 1.23237(19) 0.62930(13) -0.2249(3)
N1 N 0.8969(2) 0.88332(14) -0.0749(3)
C1 C 0.7568(2) 0.77450(17) 0.0833(4)
C2 C 0.7760(2) 0.71381(17) 0.0931(4)
C3 C 0.7237(3) 0.66547(17) 0.1477(4)
C4 C 0.6434(3) 0.6605(2) 0.2100(5)
H1 H 0.6099 0.6947 0.2303
C5 C 0.6127(3) 0.6042(2) 0.2422(5)
H2 H 0.5583 0.6011 0.2862
C6 C 0.6575(3) 0.5531(2) 0.2133(5)
H3 H 0.6336 0.5159 0.2370
C7 C 0.7385(3) 0.55537(18) 0.1488(4)
C8 C 0.7911(3) 0.50831(19) 0.1063(5)
H4 H 0.7739 0.4688 0.1243
C9 C 0.8666(3) 0.51847(19) 0.0395(5)
H5 H 0.9002 0.4856 0.0115
C10 C 0.8969(3) 0.57602(18) 0.0103(4)
H6 H 0.9495 0.5817 -0.0367
C11 C 0.8479(3) 0.62385(18) 0.0520(4)
C12 C 0.8525(3) 0.68871(17) 0.0362(4)
C13 C 0.9139(2) 0.72288(17) -0.0298(3)
C14 C 0.8930(2) 0.78271(17) -0.0405(3)
C15 C 0.8175(2) 0.80740(17) 0.0142(4)
C16 C 0.8196(3) 0.87254(18) -0.0081(4)
C17 C 0.9457(3) 0.83238(18) -0.0970(4)
C18 C 0.7698(3) 0.61234(18) 0.1191(4)
C19 C 0.6774(2) 0.80213(17) 0.1403(4)
C20 C 0.5988(3) 0.8140(4) 0.0652(5)
H7 H 0.5941 0.8030 -0.0255
C21 C 0.5258(4) 0.8414(4) 0.1167(6)
H8 H 0.4723 0.8490 0.0612
C22 C 0.5298(3) 0.8575(2) 0.2459(4)
C23 C 0.6071(3) 0.8467(3) 0.3230(5)
H9 H 0.6115 0.8579 0.4136
C24 C 0.6799(3) 0.8193(3) 0.2696(5)
H10 H 0.7336 0.8121 0.3251
C25 C 0.4518(4) 0.8983(3) 0.4218(5)
H11 H 0.4623 0.8627 0.4760
H12 H 0.3924 0.9151 0.4375
H13 H 0.4994 0.9274 0.4456
C26 C 0.9965(2) 0.69680(16) -0.0838(4)
C27 C 1.0671(2) 0.67444(17) 0.0006(4)
H14 H 1.0626 0.6752 0.0936
C28 C 1.1430(2) 0.65122(17) -0.0498(4)
H15 H 1.1905 0.6356 0.0086
C29 C 1.1513(3) 0.65026(17) -0.1850(4)
C30 C 1.0814(3) 0.67213(19) -0.2712(4)
H16 H 1.0863 0.6711 -0.3641
C31 C 1.0045(3) 0.69544(18) -0.2199(4)
H17 H 0.9567 0.7107 -0.2784
C32 C 1.2414(3) 0.6228(3) -0.3607(5)
H18 H 1.1948 0.5955 -0.3986
H19 H 1.3018 0.6069 -0.3743
H20 H 1.2341 0.6613 -0.4043
C33 C 0.9285(3) 0.94308(18) -0.1037(4)
H21 H 0.8754 0.9690 -0.1256
H22 H 0.9650 0.9418 -0.1816
C34 C 0.9853(3) 0.96847(18) 0.0133(4)
H23 H 1.0399 0.9436 0.0324
H24 H 0.9497 0.9679 0.0921
O1B O 1.5465(2) 1.11650(18) -0.2877(3)
O2B O 1.23106(19) 1.08916(12) -0.0256(3)
O3B O 0.98321(18) 1.16871(12) 0.1493(3)
O4B O 0.76763(19) 1.37070(13) 0.2249(3)
N1B N 1.1031(2) 1.11668(14) 0.0749(3)
C1B C 1.2432(2) 1.22550(17) -0.0833(4)
C2B C 1.2240(2) 1.28619(17) -0.0931(4)
C3B C 1.2763(3) 1.33453(17) -0.1477(4)
C4B C 1.3566(3) 1.3395(2) -0.2100(5)
H1B H 1.3901 1.3053 -0.2303
C5B C 1.3873(3) 1.3958(2) -0.2422(5)
H2B H 1.4417 1.3989 -0.2862
C6B C 1.3425(3) 1.4469(2) -0.2133(5)
H3B H 1.3664 1.4841 -0.2370
C7B C 1.2615(3) 1.44463(18) -0.1488(4)
C8B C 1.2089(3) 1.49169(19) -0.1063(5)
H4B H 1.2261 1.5312 -0.1243
C9B C 1.1334(3) 1.48153(19) -0.0395(5)
H5B H 1.0998 1.5144 -0.0115
C10B C 1.1031(3) 1.42398(18) -0.0103(4)
H6B H 1.0505 1.4183 0.0367
C11B C 1.1521(3) 1.37615(18) -0.0520(4)
C12B C 1.1475(3) 1.31129(17) -0.0362(4)
C13B C 1.0861(2) 1.27712(17) 0.0298(3)
C14B C 1.1070(2) 1.21729(17) 0.0405(3)
C15B C 1.1825(2) 1.19260(17) -0.0142(4)
C16B C 1.1804(3) 1.12746(18) 0.0081(4)
C17B C 1.0543(3) 1.16762(18) 0.0970(4)
C18B C 1.2302(3) 1.38766(18) -0.1191(4)
C19B C 1.3226(2) 1.19787(17) -0.1403(4)
C20B C 1.4012(3) 1.1860(4) -0.0652(5)
H7B H 1.4059 1.1970 0.0255
C21B C 1.4742(4) 1.1586(4) -0.1167(6)
H8B H 1.5277 1.1510 -0.0612
C22B C 1.4702(3) 1.1425(2) -0.2459(4)
C23B C 1.3929(3) 1.1533(3) -0.3230(5)
H9B H 1.3885 1.1421 -0.4136
C24B C 1.3201(3) 1.1807(3) -0.2696(5)
H10B H 1.2664 1.1879 -0.3251
C25B C 1.5482(4) 1.1017(3) -0.4218(5)
H11B H 1.5377 1.1373 -0.4760
H12B H 1.6076 1.0849 -0.4375
H13B H 1.5006 1.0726 -0.4456
C26B C 1.0035(2) 1.30320(16) 0.0838(4)
C27B C 0.9329(2) 1.32556(17) -0.0006(4)
H14B H 0.9374 1.3248 -0.0936
C28B C 0.8570(2) 1.34878(17) 0.0498(4)
H15B H 0.8095 1.3644 -0.0086
C29B C 0.8487(3) 1.34974(17) 0.1850(4)
C30B C 0.9186(3) 1.32787(19) 0.2712(4)
H16B H 0.9137 1.3289 0.3641
C31B C 0.9955(3) 1.30456(18) 0.2199(4)
H17B H 1.0433 1.2893 0.2784
C32B C 0.7586(3) 1.3772(3) 0.3607(5)
H18B H 0.8052 1.4045 0.3986
H19B H 0.6982 1.3931 0.3743
H20B H 0.7659 1.3387 0.4043
C33B C 1.0715(3) 1.05692(18) 0.1037(4)
H21B H 1.1246 1.0310 0.1256
H22B H 1.0350 1.0582 0.1816
C34B C 1.0147(3) 1.03153(18) -0.0133(4)
H23B H 0.9601 1.0564 -0.0324
H24B H 1.0503 1.0321 -0.0921
Cl1 Cl 0.39037(12) 0.52197(8) 0.44891(15)
Cl2 Cl 0.21647(11) 0.54247(8) 0.30657(16)
Cl3 Cl 0.37374(13) 0.51363(9) 0.16663(15)
C35 C 0.3185(4) 0.5025(2) 0.3116(5)
H25 H 0.3038 0.4595 0.3183
Cl4 Cl 0.4043(2) 0.68102(17) 0.2605(3)
Cl5 Cl 0.2239(6) 0.7036(4) 0.3030(11)
Cl6 Cl 0.3589(2) 0.76209(14) 0.4602(3)
C36 C 0.3274(4) 0.7366(3) 0.2976(7)
Cl7? Cl 0.3572(10) 0.7236(7) 0.1347(11)
Cl8? Cl 0.21846(19) 0.70675(14) 0.3038(3)
Cl9? Cl 0.4142(6) 0.7157(5) 0.4079(11)
loop_
_geom_bond_atom_site_label_1
_geom_bond_atom_site_label_2
_geom_bond_site_symmetry_1
_geom_bond_site_symmetry_2
O1 C22 1_555 1_555
O2 C16 1_555 1_555
O3 C17 1_555 1_555
O4 C29 1_555 1_555
N1 C16 1_555 1_555
C1 C2 1_555 1_555
C2 C3 1_555 1_555
C3 C4 1_555 1_555
C4 H1 1_555 1_555
C5 C4 1_555 1_555
H2 C5 1_555 1_555
C6 C5 1_555 1_555
H3 C6 1_555 1_555
C7 C6 1_555 1_555
C8 C7 1_555 1_555
H4 C8 1_555 1_555
C9 C8 1_555 1_555
H5 C9 1_555 1_555
C10 C9 1_555 1_555
H6 C10 1_555 1_555
C11 C10 1_555 1_555
C12 C2 1_555 1_555
C13 C12 1_555 1_555
C14 C13 1_555 1_555
C15 C1 1_555 1_555
C16 C15 1_555 1_555
C17 N1 1_555 1_555
C18 C3 1_555 1_555
C19 C1 1_555 1_555
C20 C19 1_555 1_555
H7 C20 1_555 1_555
C21 C20 1_555 1_555
H8 C21 1_555 1_555
C22 C21 1_555 1_555
C23 C22 1_555 1_555
H9 C23 1_555 1_555
C24 C19 1_555 1_555
H10 C24 1_555 1_555
C25 O1 1_555 1_555
H11 C25 1_555 1_555
H12 C25 1_555 1_555
H13 C25 1_555 1_555
C26 C13 1_555 1_555
C27 C26 1_555 1_555
H14 C27 1_555 1_555
C28 C27 1_555 1_555
H15 C28 1_555 1_555
C29 C28 1_555 1_555
C30 C29 1_555 1_555
H16 C30 1_555 1_555
C31 C26 1_555 1_555
H17 C31 1_555 1_555
C32 O4 1_555 1_555
H18 C32 1_555 1_555
H19 C32 1_555 1_555
H20 C32 1_555 1_555
C33 N1 1_555 1_555
H21 C33 1_555 1_555
H22 C33 1_555 1_555
C34 C33 1_555 1_555
H23 C34 1_555 1_555
H24 C34 1_555 1_555
Cl1 C35 1_555 1_555
Cl2 C35 1_555 1_555
Cl3 C35 1_555 1_555
C35 H25 1_555 1_555
Cl4 C36 1_555 1_555
Cl5 C36 1_555 1_555
Cl6 C36 1_555 1_555
O1B C22B 1_555 1_555
O2B C16B 1_555 1_555
O3B C17B 1_555 1_555
O4B C29B 1_555 1_555
N1B C16B 1_555 1_555
C1B C2B 1_555 1_555
C2B C3B 1_555 1_555
C3B C4B 1_555 1_555
C4B H1B 1_555 1_555
C5B C4B 1_555 1_555
H2B C5B 1_555 1_555
C6B C5B 1_555 1_555
H3B C6B 1_555 1_555
C7B C6B 1_555 1_555
C8B C7B 1_555 1_555
H4B C8B 1_555 1_555
C9B C8B 1_555 1_555
H5B C9B 1_555 1_555
C10B C9B 1_555 1_555
H6B C10B 1_555 1_555
C11B C10B 1_555 1_555
C12B C2B 1_555 1_555
C13B C12B 1_555 1_555
C14B C13B 1_555 1_555
C15B C1B 1_555 1_555
C16B C15B 1_555 1_555
C17B N1B 1_555 1_555
C18B C3B 1_555 1_555
C19B C1B 1_555 1_555
C20B C19B 1_555 1_555
H7B C20B 1_555 1_555
C21B C20B 1_555 1_555
H8B C21B 1_555 1_555
C22B C21B 1_555 1_555
C23B C22B 1_555 1_555
H9B C23B 1_555 1_555
C24B C19B 1_555 1_555
H10B C24B 1_555 1_555
C25B O1B 1_555 1_555
H11B C25B 1_555 1_555
H12B C25B 1_555 1_555
H13B C25B 1_555 1_555
C26B C13B 1_555 1_555
C27B C26B 1_555 1_555
H14B C27B 1_555 1_555
C28B C27B 1_555 1_555
H15B C28B 1_555 1_555
C29B C28B 1_555 1_555
C30B C29B 1_555 1_555
H16B C30B 1_555 1_555
C31B C26B 1_555 1_555
H17B C31B 1_555 1_555
C32B O4B 1_555 1_555
H18B C32B 1_555 1_555
H19B C32B 1_555 1_555
H20B C32B 1_555 1_555
C33B N1B 1_555 1_555
H21B C33B 1_555 1_555
H22B C33B 1_555 1_555
C34B C34 1_555 1_555
H23B C34B 1_555 1_555
H24B C34B 1_555 1_555
C7 C18 1_555 1_555
C11 C12 1_555 1_555
C11 C18 1_555 1_555
C14 C15 1_555 1_555
C14 C17 1_555 1_555
C23 C24 1_555 1_555
C30 C31 1_555 1_555
C7B C18B 1_555 1_555
C11B C12B 1_555 1_555
C11B C18B 1_555 1_555
C14B C15B 1_555 1_555
C14B C17B 1_555 1_555
C23B C24B 1_555 1_555
C30B C31B 1_555 1_555
C33B C34B 1_555 1_555

#END
