
#######################################################################
#
#                 Cambridge Crystallographic Data Centre
#                                CCDC 
#
#######################################################################
#
# If this CIF has been generated from an entry in the Cambridge 
# Structural Database, then it will include bibliographic, chemical, 
# crystal, experimental, refinement or atomic coordinate data resulting 
# from the CCDC's data processing and validation procedures.
#
#######################################################################

data_GEGJUY
_chemical_formula_moiety         'C14 H24 N4 O2'
_chemical_name_systematic        
N,N'-Dibutyl-1-methyl-1H-pyrazole-3,5-dicarboxamide
_symmetry_cell_setting           triclinic
_symmetry_space_group_name_H-M   'P -1'
_symmetry_Int_Tables_number      2
_space_group_name_Hall           '-P 1'
loop_
_symmetry_equiv_pos_site_id
_symmetry_equiv_pos_as_xyz
1 x,y,z
2 -x,-y,-z
_cell_length_a                   4.8959(3)
_cell_length_b                   10.6111(6)
_cell_length_c                   15.9522(10)
_cell_angle_alpha                103.883(2)
_cell_angle_beta                 96.697(3)
_cell_angle_gamma                99.552(2)
_cell_volume                     782.703
_exptl_crystal_colour            colorless
_exptl_crystal_description       laths
_chemical_melting_point          114-116deg.C
_cell_formula_units_Z            2
_exptl_crystal_recrystallization_method dichloromethane
loop_
_atom_site_label
_atom_site_type_symbol
_atom_site_fract_x
_atom_site_fract_y
_atom_site_fract_z
N1 N 0.8268(4) 0.17417(17) 0.50313(12)
N2 N 0.7096(4) 0.16042(17) 0.57354(12)
C1 C 0.5617(5) 0.2566(2) 0.60020(15)
C2 C 0.5850(5) 0.3364(2) 0.54405(14)
H1 H 0.5048 0.4133 0.5453
C3 C 0.7504(5) 0.2824(2) 0.48536(14)
C4 C 0.7617(5) 0.0518(2) 0.61131(15)
H2 H 0.8757 0.0014 0.5773
H3 H 0.8569 0.0870 0.6706
H4 H 0.5857 -0.0045 0.6103
C5 C 0.4225(5) 0.2675(2) 0.67889(15)
O1 O 0.4451(4) 0.19342(16) 0.72713(11)
N3 N 0.2732(4) 0.3634(2) 0.69271(13)
C6 C 0.1517(5) 0.4011(2) 0.77120(14)
H5 H 0.1119 0.3248 0.7935
H6 H -0.0220 0.4282 0.7575
C7 C 0.3438(5) 0.5122(2) 0.84109(14)
H7 H 0.4098 0.5826 0.8157
H8 H 0.5033 0.4802 0.8625
C8 C 0.2064(6) 0.5682(2) 0.91806(16)
H9 H 0.1435 0.4980 0.9440
H10 H 0.0448 0.5984 0.8964
C9 C 0.3990(6) 0.6814(3) 0.98698(17)
H11 H 0.3016 0.7133 1.0341
H12 H 0.5593 0.6508 1.0091
H13 H 0.4597 0.7520 0.9611
C10 C 0.8382(5) 0.3293(2) 0.41066(15)
O2 O 0.7598(4) 0.42591(16) 0.39257(10)
N4 N 0.9973(5) 0.2604(2) 0.36349(14)
C11 C 1.0968(5) 0.2916(2) 0.28719(15)
H14 H 1.2488 0.3672 0.3063
H15 H 0.9473 0.3141 0.2528
C12 C 1.1918(5) 0.1753(2) 0.23162(16)
H16 H 1.3267 0.1479 0.2685
H17 H 1.2839 0.2027 0.1871
C13 C 0.9587(5) 0.0580(2) 0.18683(17)
H18 H 0.8198 0.0854 0.1514
H19 H 0.8714 0.0273 0.2311
C14 C 1.0652(7) -0.0556(3) 0.13024(18)
H20 H 0.9112 -0.1285 0.1036
H21 H 1.1499 -0.0252 0.0854
H22 H 1.2020 -0.0839 0.1659
H23 H 1.041(6) 0.197(3) 0.3789(18)
H24 H 0.271(5) 0.416(2) 0.6581(16)
loop_
_geom_bond_atom_site_label_1
_geom_bond_atom_site_label_2
_geom_bond_site_symmetry_1
_geom_bond_site_symmetry_2
N1 N2 1_555 1_555
N2 C1 1_555 1_555
C1 C2 1_555 1_555
C2 H1 1_555 1_555
C3 N1 1_555 1_555
C4 N2 1_555 1_555
H2 C4 1_555 1_555
H3 C4 1_555 1_555
H4 C4 1_555 1_555
C5 C1 1_555 1_555
O1 C5 1_555 1_555
N3 C5 1_555 1_555
C6 N3 1_555 1_555
H5 C6 1_555 1_555
H6 C6 1_555 1_555
C7 C6 1_555 1_555
H7 C7 1_555 1_555
H8 C7 1_555 1_555
C8 C7 1_555 1_555
H9 C8 1_555 1_555
H10 C8 1_555 1_555
C9 C8 1_555 1_555
H11 C9 1_555 1_555
H12 C9 1_555 1_555
H13 C9 1_555 1_555
C10 C3 1_555 1_555
O2 C10 1_555 1_555
N4 C10 1_555 1_555
C11 N4 1_555 1_555
H14 C11 1_555 1_555
H15 C11 1_555 1_555
C12 C11 1_555 1_555
H16 C12 1_555 1_555
H17 C12 1_555 1_555
C13 C12 1_555 1_555
H18 C13 1_555 1_555
H19 C13 1_555 1_555
C14 C13 1_555 1_555
H20 C14 1_555 1_555
H21 C14 1_555 1_555
H22 C14 1_555 1_555
H23 N4 1_555 1_555
H24 N3 1_555 1_555
C2 C3 1_555 1_555

#END
