
#######################################################################
#
#                 Cambridge Crystallographic Data Centre
#                                CCDC 
#
#######################################################################
#
# If this CIF has been generated from an entry in the Cambridge 
# Structural Database, then it will include bibliographic, chemical, 
# crystal, experimental, refinement or atomic coordinate data resulting 
# from the CCDC's data processing and validation procedures.
#
#######################################################################

data_GEGJAF
_chemical_formula_moiety         'C58 H68 N2 O2 S4'
_chemical_name_systematic        
2,5-Dihexyl-3,6-bis(4-(5'-hexyl-2,2'-bithiophen-5-yl)phenyl)-2,5-dihydropyrrolo[3,4-c]pyrrole-1,4-dione
_symmetry_cell_setting           monoclinic
_symmetry_space_group_name_H-M   'P 21/c'
_symmetry_Int_Tables_number      14
_space_group_name_Hall           '-P 2ybc'
loop_
_symmetry_equiv_pos_site_id
_symmetry_equiv_pos_as_xyz
1 x,y,z
2 -x,1/2+y,1/2-z
3 -x,-y,-z
4 x,1/2-y,1/2+z
_cell_length_a                   18.2356(12)
_cell_length_b                   14.3381(10)
_cell_length_c                   9.8764(6)
_cell_angle_alpha                90
_cell_angle_beta                 96.891(5)
_cell_angle_gamma                90
_cell_volume                     2563.67
_exptl_crystal_colour            red
_exptl_crystal_description       plate
_cell_formula_units_Z            2
loop_
_atom_site_label
_atom_site_type_symbol
_atom_site_fract_x
_atom_site_fract_y
_atom_site_fract_z
S1 S 0.30791(3) 0.46308(5) 0.23754(6)
S2 S 0.28648(3) 0.32730(4) 0.62681(6)
O1 O 0.46398(9) 0.68774(12) -0.61270(16)
N1 N 0.43578(10) 0.60695(14) -0.42250(19)
C1 C 0.32007(12) 0.39163(16) 0.3790(2)
C2 C 0.42911(12) 0.49228(17) -0.2304(2)
C3 C 0.40610(12) 0.33530(17) 0.2444(2)
H1 H 0.4446 0.2958 0.2213
C4 C 0.21774(12) 0.38041(18) 0.7047(2)
C5 C 0.37440(12) 0.32780(17) 0.3674(2)
H2 H 0.3894 0.2827 0.4356
C6 C 0.45392(12) 0.39608(16) -0.0279(2)
H3 H 0.4837 0.3506 0.0225
C7 C 0.36636(12) 0.52604(18) -0.1790(2)
H4 H 0.3353 0.5695 -0.2310
C8 C 0.18876(13) 0.45378(19) 0.6285(3)
H5 H 0.1506 0.4925 0.6546
C9 C 0.45244(12) 0.52101(16) -0.3597(2)
C10 C 0.47170(12) 0.42462(16) -0.1525(2)
H6 H 0.5135 0.3983 -0.1871
C11 C 0.37570(12) 0.40545(17) 0.1616(2)
C12 C 0.39267(11) 0.43297(17) 0.0260(2)
C13 C 0.34867(12) 0.49728(18) -0.0538(2)
H7 H 0.3057 0.5216 -0.0208
C14 C 0.22125(13) 0.46668(19) 0.5062(3)
H8 H 0.2070 0.5147 0.4421
C15 C 0.49524(12) 0.47266(16) -0.4421(2)
C16 C 0.27518(12) 0.40291(17) 0.4902(2)
C17 C 0.46885(12) 0.61571(16) -0.5447(2)
C18 C 0.20056(13) 0.34265(19) 0.8387(2)
H9 H 0.2470 0.3391 0.9017
H10 H 0.1814 0.2783 0.8246
C19 C 0.13001(14) 0.3582(2) 1.0420(3)
H11 H 0.1778 0.3462 1.0980
H12 H 0.1046 0.2975 1.0251
C20 C 0.14473(14) 0.3998(2) 0.9061(3)
H13 H 0.0978 0.4030 0.8444
H14 H 0.1635 0.4642 0.9210
C21 C 0.08312(16) 0.4208(2) 1.1216(3)
H15 H 0.1080 0.4820 1.1364
H16 H 0.0349 0.4315 1.0662
C22 C 0.06958(17) 0.3809(3) 1.2587(3)
H17 H 0.1176 0.3708 1.3148
H18 H 0.0449 0.3196 1.2444
C23 C 0.0220(2) 0.4447(3) 1.3357(4)
H19 H 0.0442 0.5071 1.3436
H20 H 0.0190 0.4193 1.4270
H21 H -0.0277 0.4489 1.2859
C24 C 0.40152(13) 0.68852(17) -0.3694(2)
H22 H 0.4306 0.7445 -0.3873
H23 H 0.4027 0.6821 -0.2694
C25 C 0.32196(13) 0.70261(18) -0.4322(3)
H24 H 0.3209 0.7159 -0.5308
H25 H 0.2936 0.6446 -0.4224
C26 C 0.28627(16) 0.7820(2) -0.3645(3)
H26 H 0.3200 0.8364 -0.3597
H27 H 0.2805 0.7635 -0.2698
C27 C 0.21136(18) 0.8121(3) -0.4349(4)
H28 H 0.1944 0.8671 -0.3868
H29 H 0.2170 0.8313 -0.5294
C28 C 0.1544(2) 0.7391(3) -0.4395(7)
H30 H 0.1532 0.7136 -0.3467
H31 H 0.1675 0.6876 -0.4989
C29 C 0.0775(3) 0.7760(5) -0.4933(10)
H32 H 0.0617 0.8217 -0.4289
H33 H 0.0423 0.7241 -0.5033
H34 H 0.0793 0.8058 -0.5821
S1B S 0.69209(3) 0.53692(5) -1.23754(6)
S2B S 0.71352(3) 0.67270(4) -1.62681(6)
O1B O 0.53602(9) 0.31226(12) -0.38730(16)
N1B N 0.56422(10) 0.39305(14) -0.57750(19)
C1B C 0.67993(12) 0.60837(16) -1.3790(2)
C2B C 0.57089(12) 0.50772(17) -0.7696(2)
C3B C 0.59390(12) 0.66470(17) -1.2444(2)
H1B H 0.5554 0.7042 -1.2213
C4B C 0.78226(12) 0.61959(18) -1.7047(2)
C5B C 0.62560(12) 0.67220(17) -1.3674(2)
H2B H 0.6106 0.7173 -1.4356
C6B C 0.54608(12) 0.60392(16) -0.9721(2)
H3B H 0.5163 0.6494 -1.0225
C7B C 0.63364(12) 0.47396(18) -0.8210(2)
H4B H 0.6647 0.4305 -0.7690
C8B C 0.81124(13) 0.54622(19) -1.6285(3)
H5B H 0.8494 0.5075 -1.6546
C9B C 0.54756(12) 0.47899(16) -0.6403(2)
C10B C 0.52830(12) 0.57538(16) -0.8475(2)
H6B H 0.4865 0.6017 -0.8129
C11B C 0.62430(12) 0.59455(17) -1.1616(2)
C12B C 0.60733(11) 0.56703(17) -1.0260(2)
C13B C 0.65133(12) 0.50272(18) -0.9462(2)
H7B H 0.6943 0.4784 -0.9792
C14B C 0.77875(13) 0.53332(19) -1.5062(3)
H8B H 0.7930 0.4853 -1.4421
C15B C 0.50476(12) 0.52734(16) -0.5579(2)
C16B C 0.72482(12) 0.59709(17) -1.4902(2)
C17B C 0.53115(12) 0.38429(16) -0.4553(2)
C18B C 0.79944(13) 0.65735(19) -1.8387(2)
H9B H 0.7530 0.6609 -1.9017
H10B H 0.8186 0.7217 -1.8246
C19B C 0.86999(14) 0.6418(2) -2.0420(3)
H11B H 0.8222 0.6538 -2.0980
H12B H 0.8954 0.7025 -2.0251
C20B C 0.85527(14) 0.6002(2) -1.9061(3)
H13B H 0.9022 0.5970 -1.8444
H14B H 0.8365 0.5358 -1.9210
C21B C 0.91688(16) 0.5792(2) -2.1216(3)
H15B H 0.8920 0.5180 -2.1364
H16B H 0.9651 0.5685 -2.0662
C22B C 0.93042(17) 0.6191(3) -2.2587(3)
H17B H 0.8824 0.6292 -2.3148
H18B H 0.9551 0.6804 -2.2444
C23B C 0.9780(2) 0.5553(3) -2.3357(4)
H19B H 0.9558 0.4929 -2.3436
H20B H 0.9810 0.5807 -2.4270
H21B H 1.0277 0.5511 -2.2859
C24B C 0.59848(13) 0.31148(17) -0.6306(2)
H22B H 0.5694 0.2555 -0.6127
H23B H 0.5973 0.3179 -0.7306
C25B C 0.67804(13) 0.29739(18) -0.5678(3)
H24B H 0.6791 0.2841 -0.4692
H25B H 0.7064 0.3554 -0.5776
C26B C 0.71373(16) 0.2180(2) -0.6355(3)
H26B H 0.6800 0.1636 -0.6403
H27B H 0.7195 0.2365 -0.7302
C27B C 0.78864(18) 0.1879(3) -0.5651(4)
H28B H 0.8056 0.1329 -0.6132
H29B H 0.7830 0.1687 -0.4706
C28B C 0.8456(2) 0.2609(3) -0.5605(7)
H30B H 0.8468 0.2864 -0.6533
H31B H 0.8325 0.3124 -0.5011
C29B C 0.9225(3) 0.2240(5) -0.5067(10)
H32B H 0.9383 0.1783 -0.5711
H33B H 0.9577 0.2759 -0.4967
H34B H 0.9207 0.1942 -0.4179
loop_
_geom_bond_atom_site_label_1
_geom_bond_atom_site_label_2
_geom_bond_site_symmetry_1
_geom_bond_site_symmetry_2
S1 C1 1_555 1_555
S2 C4 1_555 1_555
O1 C17 1_555 1_555
N1 C9 1_555 1_555
C1 C5 1_555 1_555
C2 C7 1_555 1_555
C3 H1 1_555 1_555
C4 C8 1_555 1_555
C5 C3 1_555 1_555
H2 C5 1_555 1_555
C6 H3 1_555 1_555
C7 H4 1_555 1_555
C8 H5 1_555 1_555
C9 C2 1_555 1_555
C10 C2 1_555 1_555
H6 C10 1_555 1_555
C11 S1 1_555 1_555
C12 C6 1_555 1_555
C13 C7 1_555 1_555
H7 C13 1_555 1_555
C14 C8 1_555 1_555
H8 C14 1_555 1_555
C15 C9 1_555 1_555
C16 S2 1_555 1_555
C17 N1 1_555 1_555
C18 C4 1_555 1_555
H9 C18 1_555 1_555
H10 C18 1_555 1_555
C19 H11 1_555 1_555
H12 C19 1_555 1_555
C20 C18 1_555 1_555
H13 C20 1_555 1_555
H14 C20 1_555 1_555
C21 C19 1_555 1_555
H15 C21 1_555 1_555
H16 C21 1_555 1_555
C22 C21 1_555 1_555
H17 C22 1_555 1_555
H18 C22 1_555 1_555
C23 C22 1_555 1_555
H19 C23 1_555 1_555
H20 C23 1_555 1_555
H21 C23 1_555 1_555
C24 N1 1_555 1_555
H22 C24 1_555 1_555
H23 C24 1_555 1_555
C25 C24 1_555 1_555
H24 C25 1_555 1_555
H25 C25 1_555 1_555
C26 C25 1_555 1_555
H26 C26 1_555 1_555
H27 C26 1_555 1_555
C27 C26 1_555 1_555
H28 C27 1_555 1_555
H29 C27 1_555 1_555
C28 C27 1_555 1_555
H30 C28 1_555 1_555
H31 C28 1_555 1_555
C29 C28 1_555 1_555
H32 C29 1_555 1_555
H33 C29 1_555 1_555
H34 C29 1_555 1_555
S1B C1B 1_555 1_555
S2B C4B 1_555 1_555
O1B C17B 1_555 1_555
N1B C9B 1_555 1_555
C1B C5B 1_555 1_555
C2B C7B 1_555 1_555
C3B H1B 1_555 1_555
C4B C8B 1_555 1_555
C5B C3B 1_555 1_555
H2B C5B 1_555 1_555
C6B H3B 1_555 1_555
C7B H4B 1_555 1_555
C8B H5B 1_555 1_555
C9B C2B 1_555 1_555
C10B C2B 1_555 1_555
H6B C10B 1_555 1_555
C11B S1B 1_555 1_555
C12B C6B 1_555 1_555
C13B C7B 1_555 1_555
H7B C13B 1_555 1_555
C14B C8B 1_555 1_555
H8B C14B 1_555 1_555
C15B C15 1_555 1_555
C16B S2B 1_555 1_555
C17B C15 1_555 1_555
C18B C4B 1_555 1_555
H9B C18B 1_555 1_555
H10B C18B 1_555 1_555
C19B H11B 1_555 1_555
H12B C19B 1_555 1_555
C20B C18B 1_555 1_555
H13B C20B 1_555 1_555
H14B C20B 1_555 1_555
C21B C19B 1_555 1_555
H15B C21B 1_555 1_555
H16B C21B 1_555 1_555
C22B C21B 1_555 1_555
H17B C22B 1_555 1_555
H18B C22B 1_555 1_555
C23B C22B 1_555 1_555
H19B C23B 1_555 1_555
H20B C23B 1_555 1_555
H21B C23B 1_555 1_555
C24B N1B 1_555 1_555
H22B C24B 1_555 1_555
H23B C24B 1_555 1_555
C25B C24B 1_555 1_555
H24B C25B 1_555 1_555
H25B C25B 1_555 1_555
C26B C25B 1_555 1_555
H26B C26B 1_555 1_555
H27B C26B 1_555 1_555
C27B C26B 1_555 1_555
H28B C27B 1_555 1_555
H29B C27B 1_555 1_555
C28B C27B 1_555 1_555
H30B C28B 1_555 1_555
H31B C28B 1_555 1_555
C29B C28B 1_555 1_555
H32B C29B 1_555 1_555
H33B C29B 1_555 1_555
H34B C29B 1_555 1_555
C1 C16 1_555 1_555
C3 C11 1_555 1_555
C6 C10 1_555 1_555
C11 C12 1_555 1_555
C12 C13 1_555 1_555
C14 C16 1_555 1_555
C17 C15B 1_555 1_555
C19 C20 1_555 1_555
N1B C17B 1_555 1_555
C1B C16B 1_555 1_555
C3B C11B 1_555 1_555
C6B C10B 1_555 1_555
C9B C15B 1_555 1_555
C11B C12B 1_555 1_555
C12B C13B 1_555 1_555
C14B C16B 1_555 1_555
C19B C20B 1_555 1_555

#END
