
#######################################################################
#
#                 Cambridge Crystallographic Data Centre
#                                CCDC 
#
#######################################################################
#
# If this CIF has been generated from an entry in the Cambridge 
# Structural Database, then it will include bibliographic, chemical, 
# crystal, experimental, refinement or atomic coordinate data resulting 
# from the CCDC's data processing and validation procedures.
#
#######################################################################

data_GEGKEL
_chemical_formula_moiety         'C19 H17 N1 O1'
_chemical_name_systematic        2-(4'-methoxy-5-methylbiphenyl-2-yl)pyridine
_symmetry_cell_setting           monoclinic
_symmetry_space_group_name_H-M   'P 21/c'
_symmetry_Int_Tables_number      14
_space_group_name_Hall           '-P 2ybc'
loop_
_symmetry_equiv_pos_site_id
_symmetry_equiv_pos_as_xyz
1 x,y,z
2 -x,1/2+y,1/2-z
3 -x,-y,-z
4 x,1/2-y,1/2+z
_cell_length_a                   13.397(6)
_cell_length_b                   10.365(4)
_cell_length_c                   11.081(5)
_cell_angle_alpha                90
_cell_angle_beta                 98.438(10)
_cell_angle_gamma                90
_cell_volume                     1522.05
_exptl_crystal_colour            colorless
_exptl_crystal_description       block
_cell_formula_units_Z            4
loop_
_atom_site_label
_atom_site_type_symbol
_atom_site_fract_x
_atom_site_fract_y
_atom_site_fract_z
N1 N 0.1204(4) -0.0588(5) 0.2958(5)
O1 O 0.5519(3) 0.3606(4) 0.3886(4)
C1 C 0.6197(5) 0.3093(6) 0.3129(6)
H1 H 0.6536 0.2354 0.3519
H2 H 0.6686 0.3738 0.3002
H3 H 0.5826 0.2842 0.2358
C2 C 0.4835(4) 0.2786(6) 0.4316(5)
C3 C 0.4610(5) 0.1552(6) 0.3889(5)
H4 H 0.4943 0.1201 0.3286
C4 C 0.3885(4) 0.0841(5) 0.4368(5)
H5 H 0.3730 0.0020 0.4059
C5 C 0.3380(4) 0.1300(6) 0.5286(5)
C6 C 0.3634(4) 0.2525(6) 0.5714(5)
H6 H 0.3319 0.2865 0.6337
C7 C 0.4344(4) 0.3259(6) 0.5238(6)
H7 H 0.4494 0.4084 0.5542
C8 C 0.2613(4) 0.0506(5) 0.5784(5)
C9 C 0.2771(4) 0.0194(6) 0.7034(5)
H8 H 0.3326 0.0538 0.7533
C10 C 0.2121(5) -0.0613(6) 0.7539(6)
C11 C 0.1309(5) -0.1121(6) 0.6797(6)
H9 H 0.0865 -0.1668 0.7118
C12 C 0.1152(4) -0.0822(5) 0.5580(6)
H10 H 0.0603 -0.1194 0.5092
C13 C 0.1766(4) 0.0003(6) 0.5037(6)
C14 C 0.1494(4) 0.0384(6) 0.3743(6)
C15 C 0.1466(4) 0.1669(6) 0.3366(6)
H11 H 0.1663 0.2327 0.3921
C16 C 0.1142(5) 0.1944(8) 0.2159(7)
H12 H 0.1103 0.2795 0.1891
C17 C 0.0879(6) 0.0964(10) 0.1359(7)
H13 H 0.0672 0.1127 0.0535
C18 C 0.0927(6) -0.0252(9) 0.1799(7)
H14 H 0.0752 -0.0914 0.1242
C19 C 0.2314(5) -0.0931(7) 0.8894(6)
H15 H 0.3019 -0.1105 0.9135
H16 H 0.1928 -0.1677 0.9050
H17 H 0.2118 -0.0212 0.9352
loop_
_geom_bond_atom_site_label_1
_geom_bond_atom_site_label_2
_geom_bond_site_symmetry_1
_geom_bond_site_symmetry_2
N1 C14 1_555 1_555
O1 C1 1_555 1_555
C1 H1 1_555 1_555
H2 C1 1_555 1_555
H3 C1 1_555 1_555
C2 O1 1_555 1_555
C3 C2 1_555 1_555
H4 C3 1_555 1_555
C4 C3 1_555 1_555
H5 C4 1_555 1_555
C5 C4 1_555 1_555
C6 C5 1_555 1_555
H6 C6 1_555 1_555
C7 C2 1_555 1_555
H7 C7 1_555 1_555
C8 C5 1_555 1_555
C9 C8 1_555 1_555
H8 C9 1_555 1_555
C10 C9 1_555 1_555
C11 C10 1_555 1_555
H9 C11 1_555 1_555
C12 C11 1_555 1_555
H10 C12 1_555 1_555
C13 C8 1_555 1_555
C14 C13 1_555 1_555
C15 C14 1_555 1_555
H11 C15 1_555 1_555
C16 C15 1_555 1_555
H12 C16 1_555 1_555
C17 C16 1_555 1_555
H13 C17 1_555 1_555
C18 N1 1_555 1_555
H14 C18 1_555 1_555
C19 C10 1_555 1_555
H15 C19 1_555 1_555
H16 C19 1_555 1_555
H17 C19 1_555 1_555
C6 C7 1_555 1_555
C12 C13 1_555 1_555
C17 C18 1_555 1_555

#END
