
#######################################################################
#
#                 Cambridge Crystallographic Data Centre
#                                CCDC 
#
#######################################################################
#
# If this CIF has been generated from an entry in the Cambridge 
# Structural Database, then it will include bibliographic, chemical, 
# crystal, experimental, refinement or atomic coordinate data resulting 
# from the CCDC's data processing and validation procedures.
#
#######################################################################

data_GEGKUB
_chemical_formula_moiety         'C14 H13 N1 O1'
_chemical_name_systematic        N-(biphenyl-2-yl)acetamide
_symmetry_cell_setting           orthorhombic
_symmetry_space_group_name_H-M   'P c a 21'
_symmetry_Int_Tables_number      29
_space_group_name_Hall           'P 2c -2ac'
loop_
_symmetry_equiv_pos_site_id
_symmetry_equiv_pos_as_xyz
1 x,y,z
2 -x,-y,1/2+z
3 1/2+x,-y,z
4 1/2-x,y,1/2+z
_cell_length_a                   9.574(2)
_cell_length_b                   15.825(4)
_cell_length_c                   15.502(3)
_cell_angle_alpha                90
_cell_angle_beta                 90
_cell_angle_gamma                90
_cell_volume                     2348.69
_exptl_crystal_colour            colorless
_exptl_crystal_description       block
_cell_formula_units_Z            8
loop_
_atom_site_label
_atom_site_type_symbol
_atom_site_fract_x
_atom_site_fract_y
_atom_site_fract_z
N1 N 0.9701(2) 0.55469(14) 0.05940(18)
H1 H 0.8859 0.5360 0.0577
O1 O 1.1972(2) 0.51974(15) 0.0551(2)
C1 C 1.0294(4) 0.4083(2) 0.0493(3)
H2 H 1.0893 0.3784 0.0101
H3 H 0.9348 0.4058 0.0287
H4 H 1.0347 0.3828 0.1054
C2 C 1.0746(3) 0.4979(2) 0.0547(2)
C3 C 0.9897(3) 0.64404(19) 0.0669(2)
C4 C 1.0608(4) 0.6872(2) 0.0024(3)
H5 H 1.0996 0.6575 -0.0435
C5 C 1.0740(4) 0.7736(2) 0.0059(3)
H6 H 1.1222 0.8020 -0.0374
C6 C 1.0170(4) 0.8177(2) 0.0724(3)
H7 H 1.0256 0.8762 0.0740
C7 C 0.9459(4) 0.7758(2) 0.1379(3)
H8 H 0.9073 0.8066 0.1831
C8 C 0.9318(3) 0.6873(2) 0.1365(2)
C9 C 0.8586(3) 0.6433(2) 0.2083(2)
C10 C 0.7280(4) 0.6713(2) 0.2349(3)
H9 H 0.6845 0.7151 0.2054
C11 C 0.6622(4) 0.6347(3) 0.3044(3)
H10 H 0.5758 0.6547 0.3227
C12 C 0.7243(5) 0.5688(3) 0.3466(3)
H11 H 0.6787 0.5434 0.3927
C13 C 0.8521(4) 0.5400(3) 0.3218(3)
H12 H 0.8942 0.4956 0.3512
C14 C 0.9183(4) 0.5773(2) 0.2527(2)
H13 H 1.0055 0.5574 0.2356
N2 N 0.1427(3) 0.95396(17) 0.2800(2)
H14 H 0.0535 0.9597 0.2829
O2 O 0.3433(2) 1.0247(2) 0.2695(3)
C15 C 0.1390(4) 1.1030(2) 0.2955(3)
H15 H 0.1199 1.1089 0.3560
H16 H 0.0526 1.1007 0.2641
H17 H 0.1928 1.1506 0.2761
C16 C 0.2186(3) 1.0246(2) 0.2805(3)
C17 C 0.1953(3) 0.8695(2) 0.2749(2)
C18 C 0.2840(4) 0.8484(3) 0.2089(3)
H18 H 0.3166 0.8900 0.1716
C19 C 0.3249(4) 0.7661(3) 0.1977(3)
H19 H 0.3848 0.7517 0.1528
C20 C 0.2768(5) 0.7048(3) 0.2533(4)
H20 H 0.3038 0.6488 0.2458
C21 C 0.1890(4) 0.7263(2) 0.3197(3)
H21 H 0.1566 0.6845 0.3569
C22 C 0.1476(3) 0.8100(2) 0.3325(3)
C23 C 0.0518(4) 0.8318(2) 0.4047(2)
C24 C -0.0708(4) 0.7859(2) 0.4182(3)
H22 H -0.0911 0.7404 0.3824
C25 C -0.1625(5) 0.8064(3) 0.4834(3)
H23 H -0.2437 0.7750 0.4909
C26 C -0.1347(5) 0.8726(3) 0.5371(3)
H24 H -0.1977 0.8872 0.5803
C27 C -0.0129(5) 0.9176(3) 0.5272(3)
H25 H 0.0075 0.9615 0.5650
C28 C 0.0804(4) 0.8980(2) 0.4609(3)
H26 H 0.1619 0.9294 0.4544
loop_
_geom_bond_atom_site_label_1
_geom_bond_atom_site_label_2
_geom_bond_site_symmetry_1
_geom_bond_site_symmetry_2
N1 H1 1_555 1_555
O1 C2 1_555 1_555
C1 H2 1_555 1_555
H3 C1 1_555 1_555
H4 C1 1_555 1_555
C2 N1 1_555 1_555
C3 N1 1_555 1_555
C4 C3 1_555 1_555
H5 C4 1_555 1_555
C5 C4 1_555 1_555
H6 C5 1_555 1_555
C6 C5 1_555 1_555
H7 C6 1_555 1_555
C7 C6 1_555 1_555
H8 C7 1_555 1_555
C8 C3 1_555 1_555
C9 C8 1_555 1_555
C10 C9 1_555 1_555
H9 C10 1_555 1_555
C11 C10 1_555 1_555
H10 C11 1_555 1_555
C12 C11 1_555 1_555
H11 C12 1_555 1_555
C13 C12 1_555 1_555
H12 C13 1_555 1_555
C14 C9 1_555 1_555
H13 C14 1_555 1_555
N2 H14 1_555 1_555
O2 C16 1_555 1_555
C15 H15 1_555 1_555
H16 C15 1_555 1_555
H17 C15 1_555 1_555
C16 N2 1_555 1_555
C17 N2 1_555 1_555
C18 C17 1_555 1_555
H18 C18 1_555 1_555
C19 C18 1_555 1_555
H19 C19 1_555 1_555
C20 C19 1_555 1_555
H20 C20 1_555 1_555
C21 C20 1_555 1_555
H21 C21 1_555 1_555
C22 C17 1_555 1_555
C23 C22 1_555 1_555
C24 C23 1_555 1_555
H22 C24 1_555 1_555
C25 C24 1_555 1_555
H23 C25 1_555 1_555
C26 C25 1_555 1_555
H24 C26 1_555 1_555
C27 C26 1_555 1_555
H25 C27 1_555 1_555
C28 C23 1_555 1_555
H26 C28 1_555 1_555
C1 C2 1_555 1_555
C7 C8 1_555 1_555
C13 C14 1_555 1_555
C15 C16 1_555 1_555
C21 C22 1_555 1_555
C27 C28 1_555 1_555

#END
