
#######################################################################
#
#                 Cambridge Crystallographic Data Centre
#                                CCDC 
#
#######################################################################
#
# If this CIF has been generated from an entry in the Cambridge 
# Structural Database, then it will include bibliographic, chemical, 
# crystal, experimental, refinement or atomic coordinate data resulting 
# from the CCDC's data processing and validation procedures.
#
#######################################################################

data_GEGLUC
_chemical_name_common            3-benzoyl-1-benzyl-1H-indazole-2-oxide
_chemical_formula_moiety         'C21 H16 N2 O2'
_chemical_name_systematic        
(1-benzyl-2-oxo-1H-2-indazol-3-yl)(phenyl)methanone
_symmetry_cell_setting           monoclinic
_symmetry_space_group_name_H-M   'P 21/n'
_symmetry_Int_Tables_number      14
_space_group_name_Hall           '-P 2yn'
loop_
_symmetry_equiv_pos_site_id
_symmetry_equiv_pos_as_xyz
1 x,y,z
2 1/2-x,1/2+y,1/2-z
3 -x,-y,-z
4 1/2+x,1/2-y,1/2+z
_cell_length_a                   10.8967(7)
_cell_length_b                   9.3048(4)
_cell_length_c                   16.7968(10)
_cell_angle_alpha                90
_cell_angle_beta                 107.964(7)
_cell_angle_gamma                90
_cell_volume                     1620.03
_exptl_crystal_colour            yellow
_exptl_crystal_description       parallelepiped
_cell_formula_units_Z            4
loop_
_atom_site_label
_atom_site_type_symbol
_atom_site_fract_x
_atom_site_fract_y
_atom_site_fract_z
O1 O 0.53458(10) 0.64475(13) 0.08177(7)
O2 O 0.19674(9) 0.53695(11) 0.14468(6)
N1 N 0.34065(11) 0.39588(13) 0.23975(7)
N2 N 0.31132(11) 0.48795(12) 0.17275(7)
C1 C 0.20297(14) 0.57196(16) -0.02155(9)
H1 H 0.1988 0.4786 0.0003
C2 C 0.10140(15) 0.62228(17) -0.08811(9)
H2 H 0.0284 0.5631 -0.1124
C3 C 0.10742(15) 0.75949(17) -0.11889(10)
H3 H 0.0377 0.7943 -0.1641
C4 C 0.21329(15) 0.84611(17) -0.08478(9)
H4 H 0.2162 0.9402 -0.1061
C5 C 0.31558(15) 0.79515(16) -0.01922(9)
H5 H 0.3893 0.8539 0.0038
C6 C 0.31070(14) 0.65785(15) 0.01316(9)
C7 C 0.42663(14) 0.60753(16) 0.08120(9)
C8 C 0.41834(13) 0.51205(15) 0.14928(9)
C9 C 0.52194(13) 0.43258(15) 0.20572(8)
C10 C 0.65195(14) 0.41057(16) 0.21278(9)
H6 H 0.6900 0.4569 0.1758
C11 C 0.72335(14) 0.31976(17) 0.27479(9)
H7 H 0.8116 0.3034 0.2802
C12 C 0.66836(14) 0.25078(16) 0.33026(9)
H8 H 0.7207 0.1900 0.3727
C13 C 0.54056(14) 0.26939(16) 0.32439(9)
H9 H 0.5031 0.2223 0.3614
C14 C 0.46893(13) 0.36082(15) 0.26137(8)
C15 C 0.24131(14) 0.35321(15) 0.27596(9)
H10 H 0.2700 0.2654 0.3099
H11 H 0.1619 0.3289 0.2302
C16 C 0.20957(14) 0.46759(15) 0.33044(9)
C17 C 0.30653(16) 0.54269(17) 0.38933(10)
H12 H 0.3944 0.5252 0.3941
C18 C 0.27535(19) 0.64286(19) 0.44096(10)
H13 H 0.3420 0.6945 0.4805
C19 C 0.14788(19) 0.66817(18) 0.43528(11)
H14 H 0.1270 0.7354 0.4717
C20 C 0.05138(18) 0.59552(19) 0.37664(10)
H15 H -0.0363 0.6137 0.3720
C21 C 0.08182(15) 0.49568(17) 0.32413(9)
H16 H 0.0147 0.4463 0.2836
loop_
_geom_bond_atom_site_label_1
_geom_bond_atom_site_label_2
_geom_bond_site_symmetry_1
_geom_bond_site_symmetry_2
O1 C7 1_555 1_555
O2 N2 1_555 1_555
N1 N2 1_555 1_555
N2 C8 1_555 1_555
C1 H1 1_555 1_555
C2 C1 1_555 1_555
H2 C2 1_555 1_555
C3 C2 1_555 1_555
H3 C3 1_555 1_555
C4 C3 1_555 1_555
H4 C4 1_555 1_555
C5 C4 1_555 1_555
H5 C5 1_555 1_555
C6 C1 1_555 1_555
C7 C6 1_555 1_555
C8 C7 1_555 1_555
C9 C8 1_555 1_555
C10 C9 1_555 1_555
H6 C10 1_555 1_555
C11 C10 1_555 1_555
H7 C11 1_555 1_555
C12 C11 1_555 1_555
H8 C12 1_555 1_555
C13 C12 1_555 1_555
H9 C13 1_555 1_555
C14 N1 1_555 1_555
C15 N1 1_555 1_555
H10 C15 1_555 1_555
H11 C15 1_555 1_555
C16 C15 1_555 1_555
C17 C16 1_555 1_555
H12 C17 1_555 1_555
C18 C17 1_555 1_555
H13 C18 1_555 1_555
C19 C18 1_555 1_555
H14 C19 1_555 1_555
C20 C19 1_555 1_555
H15 C20 1_555 1_555
C21 C16 1_555 1_555
H16 C21 1_555 1_555
C5 C6 1_555 1_555
C9 C14 1_555 1_555
C13 C14 1_555 1_555
C20 C21 1_555 1_555

#END
