
#######################################################################
#
#                 Cambridge Crystallographic Data Centre
#                                CCDC 
#
#######################################################################
#
# If this CIF has been generated from an entry in the Cambridge 
# Structural Database, then it will include bibliographic, chemical, 
# crystal, experimental, refinement or atomic coordinate data resulting 
# from the CCDC's data processing and validation procedures.
#
#######################################################################

data_GEGMUD
_chemical_formula_moiety         'C41 H36 B1 F2 N3 O6'
_chemical_name_systematic        
'(ethyl 3-[5-{[3,5-bis(4-methoxyphenyl)-2H-pyrrol-2-ylidene]amino}-2,4-bis(4-methoxyphenyl)-1H-pyrrol-3-yl]prop-2-enoatato)(difluoro)boron'
_symmetry_cell_setting           triclinic
_symmetry_space_group_name_H-M   'P -1'
_symmetry_Int_Tables_number      2
_space_group_name_Hall           '-P 1'
loop_
_symmetry_equiv_pos_site_id
_symmetry_equiv_pos_as_xyz
1 x,y,z
2 -x,-y,-z
_cell_length_a                   11.441(12)
_cell_length_b                   12.524(13)
_cell_length_c                   13.818(14)
_cell_angle_alpha                95.751(13)
_cell_angle_beta                 90.470(12)
_cell_angle_gamma                107.762(11)
_cell_volume                     1874.5
_exptl_crystal_colour            colorless
_exptl_crystal_description       block
_cell_formula_units_Z            2
loop_
_atom_site_label
_atom_site_type_symbol
_atom_site_fract_x
_atom_site_fract_y
_atom_site_fract_z
B1 B 0.4474(4) 0.1485(4) 0.4250(4)
C1 C 0.2941(3) 0.1313(3) 0.5723(3)
C2 C 0.1834(3) 0.0485(3) 0.5984(3)
H1 H 0.1400 0.0550 0.6541
C3 C 0.1525(3) -0.0423(3) 0.5267(3)
C4 C 0.2458(3) -0.0167(3) 0.4546(3)
C5 C 0.3554(3) -0.0496(3) 0.3190(3)
C6 C 0.3809(3) -0.1080(3) 0.2332(3)
C7 C 0.4878(3) -0.0331(3) 0.1944(3)
C8 C 0.5218(3) 0.0681(3) 0.2606(3)
C9 C 0.3565(3) 0.2369(3) 0.6365(3)
C10 C 0.4201(4) 0.3406(3) 0.6025(3)
H2 H 0.4248 0.3460 0.5359
C11 C 0.4768(3) 0.4365(3) 0.6688(3)
H3 H 0.5175 0.5046 0.6453
C12 C 0.4726(4) 0.4302(3) 0.7695(3)
C13 C 0.4064(4) 0.3276(3) 0.8038(3)
H4 H 0.4000 0.3222 0.8703
C14 C 0.3501(4) 0.2338(3) 0.7367(3)
H5 H 0.3067 0.1665 0.7601
C15 C 0.5398(9) 0.5306(7) 0.9350(5)
H6 H 0.5674 0.4736 0.9608
H7 H 0.4553 0.5193 0.9498
H8 H 0.5888 0.6037 0.9639
C16 C 0.0456(3) -0.1473(3) 0.5275(3)
C17 C 0.0340(4) -0.2454(3) 0.4650(3)
H9 H 0.0913 -0.2443 0.4174
C18 C -0.0632(4) -0.3467(3) 0.4725(3)
H10 H -0.0688 -0.4117 0.4314
C19 C -0.1503(3) -0.3464(3) 0.5431(3)
C20 C -0.1422(4) -0.2503(3) 0.6041(3)
H11 H -0.2008 -0.2513 0.6505
C21 C -0.0445(3) -0.1496(3) 0.5963(3)
H12 H -0.0402 -0.0847 0.6371
C22 C -0.2613(4) -0.5451(3) 0.4949(4)
H13 H -0.2779 -0.5343 0.4290
H14 H -0.3280 -0.6048 0.5157
H15 H -0.1866 -0.5645 0.4987
C23 C 0.3078(4) -0.2270(3) 0.1940(3)
C24 C 0.2698(4) -0.2551(4) 0.0963(3)
H16 H 0.2895 -0.1998 0.0538
C25 C 0.2020(5) -0.3660(4) 0.0616(4)
H17 H 0.1724 -0.3832 -0.0028
C26 C 0.1792(4) -0.4499(3) 0.1237(4)
C27 C 0.2145(4) -0.4235(3) 0.2218(4)
H18 H 0.1949 -0.4792 0.2639
C28 C 0.2805(4) -0.3112(3) 0.2566(3)
H19 H 0.3060 -0.2931 0.3219
C29 C 0.0928(6) -0.6507(4) 0.1304(5)
H20 H 0.1696 -0.6642 0.1425
H21 H 0.0376 -0.7157 0.0933
H22 H 0.0576 -0.6363 0.1912
C30 C 0.5529(4) -0.0648(3) 0.1116(3)
H23 H 0.5159 -0.1365 0.0796
C31 C 0.6596(4) -0.0053(3) 0.0740(3)
H24 H 0.6996 0.0682 0.1006
C32 C 0.7120(4) -0.0558(3) -0.0077(3)
C33 C 0.8731(5) -0.0149(4) -0.1226(4)
H25 H 0.8142 -0.0417 -0.1773
H26 H 0.9046 -0.0756 -0.1087
C34 C 0.9779(6) 0.0871(6) -0.1462(5)
H27 H 0.9450 0.1446 -0.1641
H28 H 1.0222 0.0649 -0.1992
H29 H 1.0325 0.1159 -0.0900
C35 C 0.6251(3) 0.1761(3) 0.2529(3)
C36 C 0.6098(4) 0.2538(4) 0.1933(3)
H30 H 0.5380 0.2367 0.1549
C37 C 0.7018(4) 0.3589(4) 0.1897(3)
H31 H 0.6897 0.4118 0.1512
C38 C 0.8114(4) 0.3815(3) 0.2454(3)
C39 C 0.8279(4) 0.3025(3) 0.3007(3)
H32 H 0.9020 0.3171 0.3355
C40 C 0.7363(4) 0.2002(3) 0.3062(3)
H33 H 0.7491 0.1481 0.3452
C41 C 0.8858(4) 0.5750(3) 0.2041(4)
H34 H 0.8688 0.5527 0.1356
H35 H 0.9579 0.6396 0.2137
H36 H 0.8172 0.5938 0.2323
F1 F 0.55397(19) 0.1702(2) 0.48369(17)
F2 F 0.4389(2) 0.24770(18) 0.39066(18)
N1 N 0.3302(3) 0.0936(2) 0.4849(2)
N2 N 0.2590(3) -0.0812(3) 0.3767(2)
N3 N 0.4453(3) 0.0602(3) 0.3360(2)
O1 O 0.5093(6) 0.5232(5) 0.8327(4)
O2 O -0.2484(2) -0.4402(2) 0.5586(2)
O3 O 0.1127(4) -0.5574(3) 0.0782(3)
O4 O 0.9062(2) 0.4831(2) 0.2502(2)
O5 O 0.6769(3) -0.1518(3) -0.0461(3)
O6 O 0.8154(3) 0.0220(2) -0.0380(2)
B1A B 0.5526(4) 0.8515(4) 1.5750(4)
C1A C 0.7059(3) 0.8687(3) 1.4277(3)
C2A C 0.8166(3) 0.9515(3) 1.4016(3)
H1A H 0.8600 0.9450 1.3459
C3A C 0.8475(3) 1.0423(3) 1.4733(3)
C4A C 0.7542(3) 1.0167(3) 1.5454(3)
C5A C 0.6446(3) 1.0496(3) 1.6810(3)
C6A C 0.6191(3) 1.1080(3) 1.7668(3)
C7A C 0.5122(3) 1.0331(3) 1.8056(3)
C8A C 0.4782(3) 0.9319(3) 1.7394(3)
C9A C 0.6435(3) 0.7631(3) 1.3635(3)
C10A C 0.5799(4) 0.6594(3) 1.3975(3)
H2A H 0.5752 0.6540 1.4641
C11A C 0.5232(3) 0.5635(3) 1.3312(3)
H3A H 0.4825 0.4954 1.3547
C12A C 0.5274(4) 0.5698(3) 1.2305(3)
C13A C 0.5936(4) 0.6724(3) 1.1962(3)
H4A H 0.6000 0.6778 1.1297
C14A C 0.6499(4) 0.7662(3) 1.2633(3)
H5A H 0.6933 0.8335 1.2399
C15A C 0.4602(9) 0.4694(7) 1.0650(5)
H6A H 0.4326 0.5264 1.0392
H7A H 0.5447 0.4807 1.0502
H8A H 0.4112 0.3963 1.0361
C16A C 0.9544(3) 1.1473(3) 1.4725(3)
C17A C 0.9660(4) 1.2454(3) 1.5350(3)
H9A H 0.9087 1.2443 1.5826
C18A C 1.0632(4) 1.3467(3) 1.5275(3)
H10A H 1.0688 1.4117 1.5686
C19A C 1.1503(3) 1.3464(3) 1.4569(3)
C20A C 1.1422(4) 1.2503(3) 1.3959(3)
H11A H 1.2008 1.2513 1.3495
C21A C 1.0445(3) 1.1496(3) 1.4037(3)
H12A H 1.0402 1.0847 1.3629
C22A C 1.2613(4) 1.5451(3) 1.5051(4)
H13A H 1.2779 1.5343 1.5710
H14A H 1.3280 1.6048 1.4843
H15A H 1.1866 1.5645 1.5013
C23A C 0.6922(4) 1.2270(3) 1.8060(3)
C24A C 0.7302(4) 1.2551(4) 1.9037(3)
H16A H 0.7105 1.1998 1.9462
C25A C 0.7980(5) 1.3660(4) 1.9384(4)
H17A H 0.8276 1.3832 2.0028
C26A C 0.8208(4) 1.4499(3) 1.8763(4)
C27A C 0.7855(4) 1.4235(3) 1.7782(4)
H18A H 0.8051 1.4792 1.7361
C28A C 0.7195(4) 1.3112(3) 1.7434(3)
H19A H 0.6940 1.2931 1.6781
C29A C 0.9072(6) 1.6507(4) 1.8696(5)
H20A H 0.8304 1.6642 1.8575
H21A H 0.9624 1.7157 1.9067
H22A H 0.9424 1.6363 1.8088
C30A C 0.4471(4) 1.0648(3) 1.8884(3)
H23A H 0.4841 1.1365 1.9204
C31A C 0.3404(4) 1.0053(3) 1.9260(3)
H24A H 0.3004 0.9318 1.8994
C32A C 0.2880(4) 1.0558(3) 2.0077(3)
C33A C 0.1269(5) 1.0149(4) 2.1226(4)
H25A H 0.1858 1.0417 2.1773
H26A H 0.0954 1.0756 2.1087
C34A C 0.0221(6) 0.9129(6) 2.1462(5)
H27A H 0.0550 0.8554 2.1641
H28A H -0.0222 0.9351 2.1992
H29A H -0.0325 0.8841 2.0900
C35A C 0.3749(3) 0.8239(3) 1.7471(3)
C36A C 0.3902(4) 0.7462(4) 1.8067(3)
H30A H 0.4620 0.7633 1.8451
C37A C 0.2982(4) 0.6411(4) 1.8103(3)
H31A H 0.3103 0.5882 1.8488
C38A C 0.1886(4) 0.6185(3) 1.7546(3)
C39A C 0.1721(4) 0.6975(3) 1.6993(3)
H32A H 0.0980 0.6829 1.6645
C40A C 0.2637(4) 0.7998(3) 1.6938(3)
H33A H 0.2509 0.8519 1.6548
C41A C 0.1142(4) 0.4250(3) 1.7959(4)
H34A H 0.1312 0.4473 1.8644
H35A H 0.0421 0.3604 1.7863
H36A H 0.1828 0.4062 1.7677
F1A F 0.44603(19) 0.8298(2) 1.51631(17)
F2A F 0.5611(2) 0.75230(18) 1.60934(18)
N1A N 0.6698(3) 0.9064(2) 1.5151(2)
N2A N 0.7410(3) 1.0812(3) 1.6233(2)
N3A N 0.5547(3) 0.9398(3) 1.6640(2)
O1A O 0.4907(6) 0.4768(5) 1.1673(4)
O2A O 1.2484(2) 1.4402(2) 1.4414(2)
O3A O 0.8873(4) 1.5574(3) 1.9218(3)
O4A O 0.0938(2) 0.5169(2) 1.7498(2)
O5A O 0.3231(3) 1.1518(3) 2.0461(3)
O6A O 0.1846(3) 0.9780(2) 2.0380(2)
H37? H 0.6668 0.5954 0.7703
H38? H 0.6325 0.6768 0.8509
H39? H 0.5633 0.6489 0.7486
O7? O 0.5516(5) 0.5232(5) 0.8309(4)
C42? C 0.6008(8) 0.6193(6) 0.7976(7)
loop_
_geom_bond_atom_site_label_1
_geom_bond_atom_site_label_2
_geom_bond_site_symmetry_1
_geom_bond_site_symmetry_2
B1 F1 1_555 1_555
C1 C2 1_555 1_555
C2 H1 1_555 1_555
C3 C2 1_555 1_555
C4 C3 1_555 1_555
C5 C6 1_555 1_555
C6 C7 1_555 1_555
C7 C8 1_555 1_555
C8 C35 1_555 1_555
C9 C1 1_555 1_555
C10 C9 1_555 1_555
H2 C10 1_555 1_555
C11 C10 1_555 1_555
H3 C11 1_555 1_555
C12 C11 1_555 1_555
C13 C12 1_555 1_555
H4 C13 1_555 1_555
C14 C9 1_555 1_555
H5 C14 1_555 1_555
C15 H6 1_555 1_555
H7 C15 1_555 1_555
H8 C15 1_555 1_555
C16 C3 1_555 1_555
C17 C16 1_555 1_555
H9 C17 1_555 1_555
C18 C17 1_555 1_555
H10 C18 1_555 1_555
C19 C18 1_555 1_555
C20 C19 1_555 1_555
H11 C20 1_555 1_555
C21 C16 1_555 1_555
H12 C21 1_555 1_555
C22 H13 1_555 1_555
H14 C22 1_555 1_555
H15 C22 1_555 1_555
C23 C6 1_555 1_555
C24 C23 1_555 1_555
H16 C24 1_555 1_555
C25 C24 1_555 1_555
H17 C25 1_555 1_555
C26 C25 1_555 1_555
C27 C26 1_555 1_555
H18 C27 1_555 1_555
C28 C23 1_555 1_555
H19 C28 1_555 1_555
C29 H20 1_555 1_555
H21 C29 1_555 1_555
H22 C29 1_555 1_555
C30 C7 1_555 1_555
H23 C30 1_555 1_555
C31 C30 1_555 1_555
H24 C31 1_555 1_555
C32 C31 1_555 1_555
C33 H25 1_555 1_555
H26 C33 1_555 1_555
C34 C33 1_555 1_555
H27 C34 1_555 1_555
H28 C34 1_555 1_555
H29 C34 1_555 1_555
C35 C36 1_555 1_555
C36 H30 1_555 1_555
C37 C36 1_555 1_555
H31 C37 1_555 1_555
C38 C37 1_555 1_555
C39 C38 1_555 1_555
H32 C39 1_555 1_555
C40 C35 1_555 1_555
H33 C40 1_555 1_555
C41 H34 1_555 1_555
H35 C41 1_555 1_555
H36 C41 1_555 1_555
F2 B1 1_555 1_555
N1 B1 1_555 1_555
N2 C4 1_555 1_555
N3 B1 1_555 1_555
O1 C12 1_555 1_555
O2 C19 1_555 1_555
O3 C26 1_555 1_555
O4 C38 1_555 1_555
O5 C32 1_555 1_555
O6 C32 1_555 1_555
B1A F1A 1_555 1_555
C1A C2A 1_555 1_555
C2A H1A 1_555 1_555
C3A C2A 1_555 1_555
C4A C3A 1_555 1_555
C5A C6A 1_555 1_555
C6A C7A 1_555 1_555
C7A C8A 1_555 1_555
C8A C35A 1_555 1_555
C9A C1A 1_555 1_555
C10A C9A 1_555 1_555
H2A C10A 1_555 1_555
C11A C10A 1_555 1_555
H3A C11A 1_555 1_555
C12A C11A 1_555 1_555
C13A C12A 1_555 1_555
H4A C13A 1_555 1_555
C14A C9A 1_555 1_555
H5A C14A 1_555 1_555
C15A H6A 1_555 1_555
H7A C15A 1_555 1_555
H8A C15A 1_555 1_555
C16A C3A 1_555 1_555
C17A C16A 1_555 1_555
H9A C17A 1_555 1_555
C18A C17A 1_555 1_555
H10A C18A 1_555 1_555
C19A C18A 1_555 1_555
C20A C19A 1_555 1_555
H11A C20A 1_555 1_555
C21A C16A 1_555 1_555
H12A C21A 1_555 1_555
C22A H13A 1_555 1_555
H14A C22A 1_555 1_555
H15A C22A 1_555 1_555
C23A C6A 1_555 1_555
C24A C23A 1_555 1_555
H16A C24A 1_555 1_555
C25A C24A 1_555 1_555
H17A C25A 1_555 1_555
C26A C25A 1_555 1_555
C27A C26A 1_555 1_555
H18A C27A 1_555 1_555
C28A C23A 1_555 1_555
H19A C28A 1_555 1_555
C29A H20A 1_555 1_555
H21A C29A 1_555 1_555
H22A C29A 1_555 1_555
C30A C7A 1_555 1_555
H23A C30A 1_555 1_555
C31A C30A 1_555 1_555
H24A C31A 1_555 1_555
C32A C31A 1_555 1_555
C33A H25A 1_555 1_555
H26A C33A 1_555 1_555
C34A C33A 1_555 1_555
H27A C34A 1_555 1_555
H28A C34A 1_555 1_555
H29A C34A 1_555 1_555
C35A C36A 1_555 1_555
C36A H30A 1_555 1_555
C37A C36A 1_555 1_555
H31A C37A 1_555 1_555
C38A C37A 1_555 1_555
C39A C38A 1_555 1_555
H32A C39A 1_555 1_555
C40A C35A 1_555 1_555
H33A C40A 1_555 1_555
C41A H34A 1_555 1_555
H35A C41A 1_555 1_555
H36A C41A 1_555 1_555
F2A B1A 1_555 1_555
N1A B1A 1_555 1_555
N2A C4A 1_555 1_555
N3A B1A 1_555 1_555
O1A C12A 1_555 1_555
O2A C19A 1_555 1_555
O3A C26A 1_555 1_555
O4A C38A 1_555 1_555
O5A C32A 1_555 1_555
O6A C32A 1_555 1_555
C1 N1 1_555 1_555
C4 N1 1_555 1_555
C5 N2 1_555 1_555
C5 N3 1_555 1_555
C8 N3 1_555 1_555
C13 C14 1_555 1_555
C15 O1 1_555 1_555
C20 C21 1_555 1_555
C22 O2 1_555 1_555
C27 C28 1_555 1_555
C29 O3 1_555 1_555
C33 O6 1_555 1_555
C39 C40 1_555 1_555
C41 O4 1_555 1_555
C1A N1A 1_555 1_555
C4A N1A 1_555 1_555
C5A N2A 1_555 1_555
C5A N3A 1_555 1_555
C8A N3A 1_555 1_555
C13A C14A 1_555 1_555
C15A O1A 1_555 1_555
C20A C21A 1_555 1_555
C22A O2A 1_555 1_555
C27A C28A 1_555 1_555
C29A O3A 1_555 1_555
C33A O6A 1_555 1_555
C39A C40A 1_555 1_555
C41A O4A 1_555 1_555

#END
