
#######################################################################
#
#                 Cambridge Crystallographic Data Centre
#                                CCDC 
#
#######################################################################
#
# If this CIF has been generated from an entry in the Cambridge 
# Structural Database, then it will include bibliographic, chemical, 
# crystal, experimental, refinement or atomic coordinate data resulting 
# from the CCDC's data processing and validation procedures.
#
#######################################################################

data_GEGPIT
_chemical_formula_moiety         'C8 H10 O3'
_chemical_name_systematic        
3-Hydroxy-3,3a,6,6a-tetrahydro-1H-cyclopenta[c]furan-4-carbaldehyde
_symmetry_cell_setting           monoclinic
_symmetry_space_group_name_H-M   'P 21/c'
_symmetry_Int_Tables_number      14
_space_group_name_Hall           '-P 2ybc'
loop_
_symmetry_equiv_pos_site_id
_symmetry_equiv_pos_as_xyz
1 x,y,z
2 -x,1/2+y,1/2-z
3 -x,-y,-z
4 x,1/2-y,1/2+z
_cell_length_a                   12.189(2)
_cell_length_b                   6.3719(11)
_cell_length_c                   19.250(3)
_cell_angle_alpha                90
_cell_angle_beta                 102.214(3)
_cell_angle_gamma                90
_cell_volume                     1461.25
_exptl_crystal_colour            colorless
_exptl_crystal_description       plate
_cell_formula_units_Z            8
loop_
_atom_site_label
_atom_site_type_symbol
_atom_site_fract_x
_atom_site_fract_y
_atom_site_fract_z
O1 O 0.39024(10) 0.94581(18) 0.05863(6)
O2 O 0.36831(11) 1.29959(19) 0.02706(7)
H1 H 0.4286(18) 1.338(3) 0.0541(11)
O3 O 0.10950(11) 1.3079(2) 0.12531(7)
C1 C 0.35328(15) 0.8586(3) -0.01180(10)
H3 H 0.3754 0.7093 -0.0129
H4 H 0.3856 0.9375 -0.0470
C2 C 0.32571(14) 1.1313(3) 0.06000(9)
H5 H 0.3230 1.1685 0.1101
C3 C 0.20812(14) 1.0751(3) 0.01795(9)
H6 H 0.1749(15) 1.193(3) -0.0089(10)
C4 C 0.22627(16) 0.8810(3) -0.02711(10)
H7 H 0.1976(16) 0.903(3) -0.0753(11)
C5 C 0.16567(16) 0.6958(3) 0.00055(11)
H8 H 0.1089 0.6333 -0.0384
H9 H 0.2199 0.5857 0.0215
C6 C 0.11147(14) 0.7892(3) 0.05526(10)
H10 H 0.0662 0.7117 0.0807
C7 C 0.13299(14) 0.9931(3) 0.06502(9)
C8 C 0.08867(15) 1.1221(3) 0.11494(10)
H11 H 0.0402 1.0572 0.1412
O4 O 0.44245(9) 0.91940(17) 0.36922(6)
O5 O 0.44504(10) 1.27216(19) 0.33623(7)
H2 H 0.4929(19) 1.313(3) 0.3729(12)
O6 O 0.11312(11) 1.2831(2) 0.33497(7)
C9 C 0.45920(15) 0.8341(3) 0.30264(9)
H12 H 0.4805 0.6841 0.3079
H13 H 0.5187 0.9120 0.2857
C10 C 0.37839(13) 1.1070(2) 0.35106(9)
H14 H 0.3387 1.1467 0.3896
C11 C 0.29401(14) 1.0525(3) 0.28247(9)
H15 H 0.2836(14) 1.175(3) 0.2514(9)
C12 C 0.34653(15) 0.8605(3) 0.25141(10)
H16 H 0.3573(15) 0.883(3) 0.2042(10)
C13 C 0.26452(16) 0.6755(3) 0.25186(10)
H17 H 0.2382 0.6185 0.2034
H18 H 0.3011 0.5615 0.2834
C14 C 0.16985(15) 0.7667(3) 0.27898(10)
H19 H 0.1058 0.6886 0.2844
C15 C 0.18405(14) 0.9699(3) 0.29499(9)
C16 C 0.10212(15) 1.0970(3) 0.32108(10)
H20 H 0.0355 1.0300 0.3277
loop_
_geom_bond_atom_site_label_1
_geom_bond_atom_site_label_2
_geom_bond_site_symmetry_1
_geom_bond_site_symmetry_2
O1 C1 1_555 1_555
O2 H1 1_555 1_555
O3 C8 1_555 1_555
O4 C9 1_555 1_555
O5 H2 1_555 1_555
O6 C16 1_555 1_555
C1 H3 1_555 1_555
H4 C1 1_555 1_555
C2 O1 1_555 1_555
H5 C2 1_555 1_555
C3 C2 1_555 1_555
H6 C3 1_555 1_555
C4 C1 1_555 1_555
H7 C4 1_555 1_555
C5 C4 1_555 1_555
H8 C5 1_555 1_555
H9 C5 1_555 1_555
C6 C5 1_555 1_555
H10 C6 1_555 1_555
C7 C3 1_555 1_555
C8 C7 1_555 1_555
H11 C8 1_555 1_555
C9 H12 1_555 1_555
H13 C9 1_555 1_555
C10 O4 1_555 1_555
H14 C10 1_555 1_555
C11 C10 1_555 1_555
H15 C11 1_555 1_555
C12 C9 1_555 1_555
H16 C12 1_555 1_555
C13 C12 1_555 1_555
H17 C13 1_555 1_555
H18 C13 1_555 1_555
C14 C13 1_555 1_555
H19 C14 1_555 1_555
C15 C11 1_555 1_555
C16 C15 1_555 1_555
H20 C16 1_555 1_555
O2 C2 1_555 1_555
O5 C10 1_555 1_555
C3 C4 1_555 1_555
C6 C7 1_555 1_555
C11 C12 1_555 1_555
C14 C15 1_555 1_555

#END
