
#######################################################################
#
#                 Cambridge Crystallographic Data Centre
#                                CCDC 
#
#######################################################################
#
# If this CIF has been generated from an entry in the Cambridge 
# Structural Database, then it will include bibliographic, chemical, 
# crystal, experimental, refinement or atomic coordinate data resulting 
# from the CCDC's data processing and validation procedures.
#
#######################################################################

data_GEGPUE
_chemical_formula_moiety         'C42 H28,2(C4 H10 O1)'
_chemical_name_systematic        
'trans-1,2-bis(Fluoren-9-ylidene)-3,4-diphenylcyclobutane diethyl ether solvate'
_symmetry_cell_setting           rhombohedral
_symmetry_space_group_name_H-M   'R -3'
_symmetry_Int_Tables_number      148
_space_group_name_Hall           '-R 3'
loop_
_symmetry_equiv_pos_site_id
_symmetry_equiv_pos_as_xyz
1 x,y,z
2 -y,x-y,z
3 -x+y,-x,z
4 2/3+x,1/3+y,1/3+z
5 2/3-y,1/3+x-y,1/3+z
6 2/3-x+y,1/3-x,1/3+z
7 1/3+x,2/3+y,2/3+z
8 1/3-y,2/3+x-y,2/3+z
9 1/3-x+y,2/3-x,2/3+z
10 -x,-y,-z
11 y,-x+y,-z
12 x-y,x,-z
13 1/3-x,2/3-y,2/3-z
14 1/3+y,2/3-x+y,2/3-z
15 1/3+x-y,2/3+x,2/3-z
16 2/3-x,1/3-y,1/3-z
17 2/3+y,1/3-x+y,1/3-z
18 2/3+x-y,1/3+x,1/3-z
_cell_length_a                   44.0683(19)
_cell_length_b                   44.0683(19)
_cell_length_c                   9.6514(9)
_cell_angle_alpha                90
_cell_angle_beta                 90
_cell_angle_gamma                120.00
_cell_volume                     16232.1
_exptl_crystal_colour            red
_exptl_crystal_description       needle
_chemical_melting_point          223-226deg.C
_cell_formula_units_Z            18
_exptl_crystal_recrystallization_method dichloromethane/pentane
loop_
_atom_site_label
_atom_site_type_symbol
_atom_site_fract_x
_atom_site_fract_y
_atom_site_fract_z
C1 C 0.41747(3) 0.18533(3) 0.48877(12)
C2 C 0.40761(3) 0.18942(3) 0.35919(11)
C3 C 0.42005(3) 0.22329(3) 0.28785(12)
C4 C 0.44366(4) 0.25738(3) 0.32770(13)
H1 H 0.4544 0.2622 0.4165
C5 C 0.45130(4) 0.28444(4) 0.23474(15)
H2 H 0.4672 0.3079 0.2611
C6 C 0.43610(4) 0.27773(4) 0.10444(15)
H3 H 0.4417 0.2966 0.0429
C7 C 0.41293(4) 0.24383(4) 0.06318(14)
H4 H 0.4027 0.2392 -0.0265
C8 C 0.40492(3) 0.21666(3) 0.15473(12)
C9 C 0.38107(3) 0.17907(3) 0.14057(12)
C10 C 0.35813(4) 0.15972(4) 0.03466(13)
H5 H 0.3578 0.1707 -0.0494
C11 C 0.33583(3) 0.12415(4) 0.05348(13)
H6 H 0.3205 0.1105 -0.0192
C12 C 0.33567(3) 0.10825(3) 0.17771(13)
H7 H 0.3195 0.0840 0.1906
C13 C 0.35879(3) 0.12721(3) 0.28337(12)
H8 H 0.3585 0.1161 0.3681
C14 C 0.38233(3) 0.16263(3) 0.26391(12)
C15 C 0.41241(3) 0.15654(3) 0.57603(11)
C16 C 0.40663(3) 0.12331(3) 0.56042(11)
C17 C 0.40969(3) 0.10590(3) 0.43602(12)
C18 C 0.42290(3) 0.11900(3) 0.30506(12)
H9 H 0.4308 0.1428 0.2830
C19 C 0.42428(3) 0.09664(4) 0.20719(13)
H10 H 0.4335 0.1053 0.1177
C20 C 0.41237(4) 0.06175(4) 0.23844(14)
H11 H 0.4128 0.0466 0.1691
C21 C 0.39993(3) 0.04870(3) 0.36921(14)
H12 H 0.3920 0.0248 0.3903
C22 C 0.39925(3) 0.07090(3) 0.46906(12)
C23 C 0.38986(3) 0.06525(3) 0.61620(12)
C24 C 0.37690(3) 0.03545(3) 0.69782(13)
H13 H 0.3734 0.0140 0.6601
C25 C 0.36913(3) 0.03746(3) 0.83547(14)
H14 H 0.3600 0.0172 0.8922
C26 C 0.37443(3) 0.06873(3) 0.89146(13)
H15 H 0.3690 0.0696 0.9862
C27 C 0.38747(3) 0.09873(3) 0.81107(12)
H16 H 0.3909 0.1200 0.8498
C28 C 0.39547(3) 0.09714(3) 0.67274(12)
C29 C 0.42254(3) 0.17898(3) 0.70708(12)
H17 H 0.4015 0.1726 0.7656
C30 C 0.45207(3) 0.18129(3) 0.79337(12)
C31 C 0.47770(4) 0.17553(4) 0.73816(15)
H18 H 0.4768 0.1698 0.6428
C32 C 0.50468(5) 0.17798(5) 0.81991(19)
H19 H 0.5221 0.1740 0.7804
C33 C 0.50624(5) 0.18617(5) 0.95799(19)
H20 H 0.5247 0.1878 1.0143
C34 C 0.48120(5) 0.19198(6) 1.01366(17)
H21 H 0.4822 0.1977 1.1091
C35 C 0.45431(4) 0.18967(5) 0.93223(15)
H22 H 0.4371 0.1939 0.9725
C36 C 0.43109(3) 0.21133(3) 0.61002(12)
H23 H 0.4568 0.2283 0.6032
C37 C 0.41034(3) 0.22901(3) 0.64539(11)
C38 C 0.37402(3) 0.21064(3) 0.63362(12)
H24 H 0.3627 0.1877 0.5955
C39 C 0.35410(4) 0.22520(3) 0.67648(13)
H25 H 0.3293 0.2122 0.6681
C40 C 0.37025(4) 0.25859(3) 0.73147(13)
H26 H 0.3566 0.2686 0.7617
C41 C 0.40622(4) 0.27733(3) 0.74230(12)
H27 H 0.4174 0.3004 0.7794
C42 C 0.42627(4) 0.26273(3) 0.69933(12)
H28 H 0.4511 0.2759 0.7069
loop_
_geom_bond_atom_site_label_1
_geom_bond_atom_site_label_2
_geom_bond_site_symmetry_1
_geom_bond_site_symmetry_2
C1 C2 1_555 1_555
C2 C3 1_555 1_555
C3 C4 1_555 1_555
C4 H1 1_555 1_555
C5 C4 1_555 1_555
H2 C5 1_555 1_555
C6 C5 1_555 1_555
H3 C6 1_555 1_555
C7 C6 1_555 1_555
H4 C7 1_555 1_555
C8 C3 1_555 1_555
C9 C8 1_555 1_555
C10 C9 1_555 1_555
H5 C10 1_555 1_555
C11 C10 1_555 1_555
H6 C11 1_555 1_555
C12 C11 1_555 1_555
H7 C12 1_555 1_555
C13 C12 1_555 1_555
H8 C13 1_555 1_555
C14 C2 1_555 1_555
C15 C1 1_555 1_555
C16 C15 1_555 1_555
C17 C16 1_555 1_555
C18 C17 1_555 1_555
H9 C18 1_555 1_555
C19 C18 1_555 1_555
H10 C19 1_555 1_555
C20 C19 1_555 1_555
H11 C20 1_555 1_555
C21 C20 1_555 1_555
H12 C21 1_555 1_555
C22 C17 1_555 1_555
C23 C22 1_555 1_555
C24 C23 1_555 1_555
H13 C24 1_555 1_555
C25 C24 1_555 1_555
H14 C25 1_555 1_555
C26 C25 1_555 1_555
H15 C26 1_555 1_555
C27 C26 1_555 1_555
H16 C27 1_555 1_555
C28 C16 1_555 1_555
C29 C15 1_555 1_555
H17 C29 1_555 1_555
C30 C29 1_555 1_555
C31 C30 1_555 1_555
H18 C31 1_555 1_555
C32 C31 1_555 1_555
H19 C32 1_555 1_555
C33 C32 1_555 1_555
H20 C33 1_555 1_555
C34 C33 1_555 1_555
H21 C34 1_555 1_555
C35 C30 1_555 1_555
H22 C35 1_555 1_555
C36 C1 1_555 1_555
H23 C36 1_555 1_555
C37 C36 1_555 1_555
C38 C37 1_555 1_555
H24 C38 1_555 1_555
C39 C38 1_555 1_555
H25 C39 1_555 1_555
C40 C39 1_555 1_555
H26 C40 1_555 1_555
C41 C40 1_555 1_555
H27 C41 1_555 1_555
C42 C37 1_555 1_555
H28 C42 1_555 1_555
C7 C8 1_555 1_555
C9 C14 1_555 1_555
C13 C14 1_555 1_555
C21 C22 1_555 1_555
C23 C28 1_555 1_555
C27 C28 1_555 1_555
C29 C36 1_555 1_555
C34 C35 1_555 1_555
C41 C42 1_555 1_555

#END
