
#######################################################################
#
#                 Cambridge Crystallographic Data Centre
#                                CCDC 
#
#######################################################################
#
# If this CIF has been generated from an entry in the Cambridge 
# Structural Database, then it will include bibliographic, chemical, 
# crystal, experimental, refinement or atomic coordinate data resulting 
# from the CCDC's data processing and validation procedures.
#
#######################################################################

data_GEGQOZ
_chemical_formula_moiety         'C27 H28 Si1'
_chemical_name_systematic        2-Triethylsilyl-fluorene-9'-spiro-1-1H-indene
_symmetry_cell_setting           triclinic
_symmetry_space_group_name_H-M   'P -1'
_symmetry_Int_Tables_number      2
_space_group_name_Hall           '-P 1'
loop_
_symmetry_equiv_pos_site_id
_symmetry_equiv_pos_as_xyz
1 x,y,z
2 -x,-y,-z
_cell_length_a                   9.7574(15)
_cell_length_b                   10.3304(16)
_cell_length_c                   21.297(3)
_cell_angle_alpha                95.133(3)
_cell_angle_beta                 92.099(3)
_cell_angle_gamma                97.908(3)
_cell_volume                     2115.14
_exptl_crystal_colour            colorless
_exptl_crystal_description       lath
_cell_formula_units_Z            4
loop_
_atom_site_label
_atom_site_type_symbol
_atom_site_fract_x
_atom_site_fract_y
_atom_site_fract_z
Si1 Si -0.02885(16) 0.29946(16) 0.39924(8)
C1 C 0.0986(6) 0.2578(5) 0.4596(3)
C2 C 0.0860(6) 0.2720(6) 0.5228(3)
H1 H 0.0116 0.3068 0.5427
C3 C 0.2013(6) 0.2271(6) 0.5568(3)
C4 C 0.2319(7) 0.2211(6) 0.6206(3)
H2 H 0.1728 0.2513 0.6515
C5 C 0.3493(7) 0.1704(6) 0.6383(3)
H3 H 0.3706 0.1648 0.6817
C6 C 0.4369(7) 0.1275(6) 0.5934(3)
H4 H 0.5173 0.0926 0.6065
C7 C 0.4083(6) 0.1349(6) 0.5301(3)
H5 H 0.4685 0.1060 0.4994
C8 C 0.2908(6) 0.1851(5) 0.5122(3)
C9 C 0.2371(6) 0.2051(6) 0.4466(3)
C10 C 0.2250(6) 0.0842(6) 0.3997(3)
C11 C 0.1502(6) -0.0401(6) 0.4042(3)
H6 H 0.0973 -0.0577 0.4398
C12 C 0.1556(6) -0.1371(6) 0.3550(3)
H7 H 0.1072 -0.2228 0.3573
C13 C 0.2304(6) -0.1103(6) 0.3030(3)
H8 H 0.2313 -0.1778 0.2696
C14 C 0.3038(6) 0.0114(6) 0.2980(3)
H9 H 0.3548 0.0289 0.2618
C15 C 0.3012(6) 0.1081(6) 0.3474(3)
C16 C 0.3722(6) 0.2464(6) 0.3558(3)
C17 C 0.4594(6) 0.3168(6) 0.3182(3)
H10 H 0.4831 0.2790 0.2784
C18 C 0.5122(6) 0.4468(7) 0.3404(3)
H11 H 0.5743 0.4974 0.3157
C19 C 0.4757(6) 0.5020(6) 0.3975(3)
H12 H 0.5120 0.5905 0.4113
C20 C 0.3872(6) 0.4310(6) 0.4348(3)
H13 H 0.3621 0.4692 0.4742
C21 C 0.3358(5) 0.3026(6) 0.4133(3)
C22 C -0.1734(6) 0.3666(6) 0.4412(3)
H14 H -0.1325 0.4333 0.4755
H15 H -0.2253 0.4116 0.4111
C23 C -0.2756(6) 0.2651(6) 0.4696(3)
H16 H -0.3117 0.1946 0.4369
H17 H -0.3524 0.3072 0.4864
H18 H -0.2283 0.2283 0.5038
C24 C -0.0989(6) 0.1434(6) 0.3493(3)
H19 H -0.0224 0.1145 0.3248
H20 H -0.1273 0.0751 0.3779
C25 C -0.2212(7) 0.1488(7) 0.3031(3)
H21 H -0.2978 0.1786 0.3263
H22 H -0.2515 0.0611 0.2816
H23 H -0.1928 0.2101 0.2719
C26 C 0.0613(7) 0.4281(7) 0.3524(3)
H24 H 0.1063 0.5017 0.3824
H25 H 0.1359 0.3902 0.3300
C27 C -0.0269(7) 0.4847(7) 0.3039(3)
H26 H -0.0603 0.4163 0.2697
H27 H 0.0291 0.5579 0.2864
H28 H -0.1062 0.5161 0.3242
Si2 Si 0.00075(16) 0.84452(15) 0.09939(7)
C28 C 0.1090(6) 0.7729(5) 0.0381(3)
C29 C 0.0805(6) 0.7572(6) -0.0248(3)
H29 H 0.0004 0.7817 -0.0446
C30 C 0.1869(6) 0.6981(5) -0.0588(3)
C31 C 0.2016(6) 0.6623(6) -0.1226(3)
H30 H 0.1337 0.6768 -0.1533
C32 C 0.3154(7) 0.6057(6) -0.1404(3)
H31 H 0.3259 0.5813 -0.1839
C33 C 0.4158(6) 0.5836(6) -0.0959(3)
H32 H 0.4933 0.5435 -0.1090
C34 C 0.4024(6) 0.6201(5) -0.0324(3)
H33 H 0.4706 0.6058 -0.0017
C35 C 0.2888(6) 0.6773(5) -0.0145(3)
C36 C 0.2512(6) 0.7263(5) 0.0511(3)
C37 C 0.2513(6) 0.6264(5) 0.0989(3)
C38 C 0.1758(6) 0.5025(6) 0.0957(3)
H34 H 0.1146 0.4703 0.0604
C39 C 0.1909(6) 0.4253(6) 0.1453(3)
H35 H 0.1412 0.3391 0.1435
C40 C 0.2782(6) 0.4743(6) 0.1971(3)
H36 H 0.2859 0.4219 0.2312
C41 C 0.3545(6) 0.5978(6) 0.2003(3)
H37 H 0.4150 0.6304 0.2358
C42 C 0.3406(6) 0.6726(6) 0.1508(3)
C43 C 0.4081(6) 0.8065(6) 0.1404(3)
C44 C 0.5050(6) 0.8944(6) 0.1770(3)
H38 H 0.5416 0.8726 0.2160
C45 C 0.5480(6) 1.0164(6) 0.1549(3)
H39 H 0.6135 1.0790 0.1796
C46 C 0.4961(6) 1.0464(6) 0.0978(3)
H40 H 0.5272 1.1293 0.0833
C47 C 0.3994(6) 0.9582(6) 0.0611(3)
H41 H 0.3633 0.9799 0.0220
C48 C 0.3565(6) 0.8379(6) 0.0827(3)
C49 C -0.1585(6) 0.8883(6) 0.0589(3)
H42 H -0.2030 0.9460 0.0891
H43 H -0.1295 0.9396 0.0234
C50 C -0.2667(6) 0.7725(6) 0.0333(3)
H44 H -0.2269 0.7186 0.0004
H45 H -0.3476 0.8054 0.0154
H46 H -0.2949 0.7192 0.0677
C51 C -0.0500(6) 0.7173(6) 0.1551(3)
H47 H -0.0865 0.6338 0.1298
H48 H 0.0346 0.7027 0.1789
C52 C -0.1576(7) 0.7482(7) 0.2027(3)
H49 H -0.1174 0.8217 0.2330
H50 H -0.1855 0.6708 0.2252
H51 H -0.2389 0.7717 0.1804
C53 C 0.1043(6) 0.9985(6) 0.1404(3)
H52 H 0.1875 0.9742 0.1618
H53 H 0.1366 1.0570 0.1079
C54 C 0.0279(7) 1.0759(6) 0.1890(3)
H54 H -0.0566 1.0982 0.1689
H55 H 0.0879 1.1567 0.2055
H56 H 0.0034 1.0224 0.2237
loop_
_geom_bond_atom_site_label_1
_geom_bond_atom_site_label_2
_geom_bond_site_symmetry_1
_geom_bond_site_symmetry_2
Si1 C1 1_555 1_555
C1 C2 1_555 1_555
C2 H1 1_555 1_555
C3 C2 1_555 1_555
C4 C3 1_555 1_555
H2 C4 1_555 1_555
C5 C4 1_555 1_555
H3 C5 1_555 1_555
C6 C5 1_555 1_555
H4 C6 1_555 1_555
C7 C6 1_555 1_555
H5 C7 1_555 1_555
C8 C3 1_555 1_555
C9 C1 1_555 1_555
C10 C9 1_555 1_555
C11 C10 1_555 1_555
H6 C11 1_555 1_555
C12 C11 1_555 1_555
H7 C12 1_555 1_555
C13 C12 1_555 1_555
H8 C13 1_555 1_555
C14 C13 1_555 1_555
H9 C14 1_555 1_555
C15 C10 1_555 1_555
C16 C15 1_555 1_555
C17 C16 1_555 1_555
H10 C17 1_555 1_555
C18 C17 1_555 1_555
H11 C18 1_555 1_555
C19 C18 1_555 1_555
H12 C19 1_555 1_555
C20 C19 1_555 1_555
H13 C20 1_555 1_555
C21 C9 1_555 1_555
C22 Si1 1_555 1_555
H14 C22 1_555 1_555
H15 C22 1_555 1_555
C23 C22 1_555 1_555
H16 C23 1_555 1_555
H17 C23 1_555 1_555
H18 C23 1_555 1_555
C24 Si1 1_555 1_555
H19 C24 1_555 1_555
H20 C24 1_555 1_555
C25 C24 1_555 1_555
H21 C25 1_555 1_555
H22 C25 1_555 1_555
H23 C25 1_555 1_555
C26 Si1 1_555 1_555
H24 C26 1_555 1_555
H25 C26 1_555 1_555
C27 C26 1_555 1_555
H26 C27 1_555 1_555
H27 C27 1_555 1_555
H28 C27 1_555 1_555
Si2 C28 1_555 1_555
C28 C29 1_555 1_555
C29 H29 1_555 1_555
C30 C29 1_555 1_555
C31 C30 1_555 1_555
H30 C31 1_555 1_555
C32 C31 1_555 1_555
H31 C32 1_555 1_555
C33 C32 1_555 1_555
H32 C33 1_555 1_555
C34 C33 1_555 1_555
H33 C34 1_555 1_555
C35 C30 1_555 1_555
C36 C28 1_555 1_555
C37 C36 1_555 1_555
C38 C37 1_555 1_555
H34 C38 1_555 1_555
C39 C38 1_555 1_555
H35 C39 1_555 1_555
C40 C39 1_555 1_555
H36 C40 1_555 1_555
C41 C40 1_555 1_555
H37 C41 1_555 1_555
C42 C37 1_555 1_555
C43 C42 1_555 1_555
C44 C43 1_555 1_555
H38 C44 1_555 1_555
C45 C44 1_555 1_555
H39 C45 1_555 1_555
C46 C45 1_555 1_555
H40 C46 1_555 1_555
C47 C46 1_555 1_555
H41 C47 1_555 1_555
C48 C36 1_555 1_555
C49 Si2 1_555 1_555
H42 C49 1_555 1_555
H43 C49 1_555 1_555
C50 C49 1_555 1_555
H44 C50 1_555 1_555
H45 C50 1_555 1_555
H46 C50 1_555 1_555
C51 Si2 1_555 1_555
H47 C51 1_555 1_555
H48 C51 1_555 1_555
C52 C51 1_555 1_555
H49 C52 1_555 1_555
H50 C52 1_555 1_555
H51 C52 1_555 1_555
C53 Si2 1_555 1_555
H52 C53 1_555 1_555
H53 C53 1_555 1_555
C54 C53 1_555 1_555
H54 C54 1_555 1_555
H55 C54 1_555 1_555
H56 C54 1_555 1_555
C7 C8 1_555 1_555
C8 C9 1_555 1_555
C14 C15 1_555 1_555
C16 C21 1_555 1_555
C20 C21 1_555 1_555
C34 C35 1_555 1_555
C35 C36 1_555 1_555
C41 C42 1_555 1_555
C43 C48 1_555 1_555
C47 C48 1_555 1_555

#END
