
#######################################################################
#
#                 Cambridge Crystallographic Data Centre
#                                CCDC 
#
#######################################################################
#
# If this CIF has been generated from an entry in the Cambridge 
# Structural Database, then it will include bibliographic, chemical, 
# crystal, experimental, refinement or atomic coordinate data resulting 
# from the CCDC's data processing and validation procedures.
#
#######################################################################

data_GEGQUG
_chemical_formula_moiety         'C16 H10 N6 O6,1.3(C1 H4 O1)'
_chemical_name_systematic        
'3,17-Dioxa-4,6,14,16,23,24-hexaazatricyclo[17.3.1.1^8,12^]tetracosa-1(23),4,8(24),9,11,15,19,21-octaene-2,7,13,18-tetrone methanol solvate'
_symmetry_cell_setting           monoclinic
_symmetry_space_group_name_H-M   'C 2/m'
_symmetry_Int_Tables_number      12
_space_group_name_Hall           '-C 2y'
loop_
_symmetry_equiv_pos_site_id
_symmetry_equiv_pos_as_xyz
1 x,y,z
2 -x,y,-z
3 1/2+x,1/2+y,z
4 1/2-x,1/2+y,-z
5 -x,-y,-z
6 x,-y,z
7 1/2-x,1/2-y,-z
8 1/2+x,1/2-y,z
_cell_length_a                   17.5387(3)
_cell_length_b                   13.3386(2)
_cell_length_c                   7.87380(10)
_cell_angle_alpha                90
_cell_angle_beta                 99.1200(10)
_cell_angle_gamma                90
_cell_volume                     1818.72
_exptl_crystal_colour            colorless
_exptl_crystal_description       block
_cell_formula_units_Z            4
loop_
_atom_site_label
_atom_site_type_symbol
_atom_site_fract_x
_atom_site_fract_y
_atom_site_fract_z
O3 O 0.0000 0.0000 0.0000
C11 C 0.0575(5) 0.0000 -0.0717(14)
C11A C -0.0575(5) 0.0000 0.0717(14)
C10 C 0.26084(16) 0.0000 0.1290(3)
O5 O 0.30836(9) 0.0000 -0.0021(2)
H7 H 0.284(3) 0.0000 -0.112(6)
O1 O 0.18729(8) 0.26343(9) -0.37725(17)
O2 O 0.48602(8) 0.26298(10) 0.23200(19)
N1 N 0.21211(10) 0.0000 -0.3304(2)
N2 N 0.46355(10) 0.0000 0.1830(2)
C1 C 0.0807(2) 0.0000 -0.5787(5)
H1 H 0.0351 0.0000 -0.6619
C2 C 0.11391(13) 0.08935(16) -0.5180(3)
H2 H 0.0926 0.1517 -0.5600
C3 C 0.17968(10) 0.08552(13) -0.3931(2)
C4 C 0.21437(9) 0.18325(12) -0.3277(2)
O4 O 0.2804(6) 0.1771(8) -0.2099(17)
N3 N 0.3093(11) 0.2674(11) -0.1480(18)
C5 C 0.3672(9) 0.2541(10) -0.033(2)
H3 H 0.3942 0.3140 0.0033
N4 N 0.3971(13) 0.1733(11) 0.0463(17)
H4 H 0.3774 0.1139 0.0173
C6 C 0.46099(9) 0.18260(13) 0.1778(2)
C7 C 0.49695(9) 0.08552(13) 0.24338(19)
C8 C 0.56497(10) 0.08941(15) 0.3630(2)
H5 H 0.5871 0.1518 0.4028
C9 C 0.59908(13) 0.0000 0.4215(3)
H6 H 0.6457 0.0000 0.5015
O1E O 0.18729(8) -0.26343(9) -0.37725(17)
O2E O 0.48602(8) -0.26298(10) 0.23200(19)
C2E C 0.11391(13) -0.08935(16) -0.5180(3)
H2E H 0.0926 -0.1517 -0.5600
C3E C 0.17968(10) -0.08552(13) -0.3931(2)
C4E C 0.21437(9) -0.18325(12) -0.3277(2)
O4E O 0.2804(6) -0.1771(8) -0.2099(17)
N3E N 0.3093(11) -0.2674(11) -0.1480(18)
C5E C 0.3672(9) -0.2541(10) -0.033(2)
H3E H 0.3942 -0.3140 0.0033
N4E N 0.3971(13) -0.1733(11) 0.0463(17)
H4E H 0.3774 -0.1139 0.0173
C6E C 0.46099(9) -0.18260(13) 0.1778(2)
C7E C 0.49695(9) -0.08552(13) 0.24338(19)
C8E C 0.56497(10) -0.08941(15) 0.3630(2)
H5E H 0.5871 -0.1518 0.4028
C12? C 0.318(2) 0.262(2) -0.152(5)
H8? H 0.2861 0.0984 -0.1572
H9? H 0.361(3) 0.0000 0.034(8)
H10? H 0.3041 0.3186 -0.2236
N5? N 0.3725(15) 0.2737(16) -0.014(3)
N6? N 0.2743(18) 0.158(2) -0.201(5)
O6? O 0.405(2) 0.1718(18) 0.049(3)
loop_
_geom_bond_atom_site_label_1
_geom_bond_atom_site_label_2
_geom_bond_site_symmetry_1
_geom_bond_site_symmetry_2
O1 C4 1_555 1_555
O2 C6 1_555 1_555
O3 C11 1_555 1_555
N1 C3 1_555 1_555
N2 C7 1_555 1_555
C1 H1 1_555 1_555
C2 C1 1_555 1_555
H2 C2 1_555 1_555
C3 C2 1_555 1_555
C4 C3 1_555 1_555
O4 C4 1_555 1_555
N3 O4 1_555 1_555
C5 N3 1_555 1_555
H3 C5 1_555 1_555
N4 C5 1_555 1_555
H4 N4 1_555 1_555
C6 N4 1_555 1_555
C7 C6 1_555 1_555
C8 C7 1_555 1_555
H5 C8 1_555 1_555
C9 C8 1_555 1_555
H6 C9 1_555 1_555
C10 O5 1_555 1_555
O5 H7 1_555 1_555
O1E C4E 1_555 1_555
O2E C6E 1_555 1_555
C2E C1 1_555 1_555
H2E C2E 1_555 1_555
C3E N1 1_555 1_555
C4E C3E 1_555 1_555
O4E C4E 1_555 1_555
N3E O4E 1_555 1_555
C5E N3E 1_555 1_555
H3E C5E 1_555 1_555
N4E C5E 1_555 1_555
H4E N4E 1_555 1_555
C6E N4E 1_555 1_555
C7E N2 1_555 1_555
C8E C9 1_555 1_555
H5E C8E 1_555 1_555
C11A O3 1_555 1_555
C2E C3E 1_555 1_555
C6E C7E 1_555 1_555
C7E C8E 1_555 1_555

#END
