
#######################################################################
#
#                 Cambridge Crystallographic Data Centre
#                                CCDC 
#
#######################################################################
#
# If this CIF has been generated from an entry in the Cambridge 
# Structural Database, then it will include bibliographic, chemical, 
# crystal, experimental, refinement or atomic coordinate data resulting 
# from the CCDC's data processing and validation procedures.
#
#######################################################################

data_GEGQEP
_chemical_formula_moiety         'C42 H26,2(C4 H10 O1)'
_chemical_name_systematic        
"bis(Fluorene)-9',9''-dispiro-5,11-(5H,11H-tetracene) diethyl ether solvate"
_symmetry_cell_setting           triclinic
_symmetry_space_group_name_H-M   'P -1'
_symmetry_Int_Tables_number      2
_space_group_name_Hall           '-P 1'
loop_
_symmetry_equiv_pos_site_id
_symmetry_equiv_pos_as_xyz
1 x,y,z
2 -x,-y,-z
_cell_length_a                   9.7183(17)
_cell_length_b                   11.473(2)
_cell_length_c                   18.316(3)
_cell_angle_alpha                93.463(3)
_cell_angle_beta                 97.648(4)
_cell_angle_gamma                113.730(3)
_cell_volume                     1838.23
_exptl_crystal_description       block
_cell_formula_units_Z            2
loop_
_atom_site_label
_atom_site_type_symbol
_atom_site_fract_x
_atom_site_fract_y
_atom_site_fract_z
C1 C 0.4629(3) 0.1453(3) 0.04489(16)
C2 C 0.3242(3) 0.0963(3) 0.08474(16)
C3 C 0.1814(3) -0.0005(3) 0.06047(17)
H1 H 0.1579 -0.0490 0.0131
C4 C 0.0722(4) -0.0264(3) 0.10606(18)
H2 H -0.0264 -0.0936 0.0900
C5 C 0.1063(4) 0.0453(3) 0.17488(18)
H3 H 0.0307 0.0262 0.2057
C6 C 0.2485(4) 0.1439(3) 0.19931(17)
H4 H 0.2711 0.1928 0.2465
C7 C 0.3580(3) 0.1705(3) 0.15373(16)
C8 C 0.5128(3) 0.2725(3) 0.16280(16)
C9 C 0.5966(4) 0.3724(3) 0.21949(17)
H5 H 0.5545 0.3826 0.2621
C10 C 0.7424(4) 0.4565(3) 0.21282(18)
H6 H 0.8006 0.5248 0.2514
C11 C 0.8049(4) 0.4429(3) 0.15087(19)
H7 H 0.9053 0.5017 0.1474
C12 C 0.7216(3) 0.3439(3) 0.09380(18)
H8 H 0.7644 0.3342 0.0514
C13 C 0.5756(3) 0.2597(3) 0.09963(16)
C14 C 0.4142(3) 0.1851(3) -0.02872(16)
C15 C 0.3962(3) 0.2994(3) -0.03053(17)
H9 H 0.4245 0.3570 0.0138
C16 C 0.3378(3) 0.3304(3) -0.09580(17)
H10 H 0.3265 0.4089 -0.0961
C17 C 0.2957(3) 0.2470(3) -0.16068(18)
H11 H 0.2539 0.2675 -0.2054
C18 C 0.3146(3) 0.1343(3) -0.16033(17)
H12 H 0.2873 0.0780 -0.2052
C19 C 0.3735(3) 0.1016(3) -0.09441(16)
C20 C 0.4024(3) -0.0137(3) -0.09504(16)
H13 H 0.3664 -0.0729 -0.1391
C21 C 0.5212(3) 0.0399(3) 0.03514(16)
C1A C 0.5371(3) -0.1453(3) -0.04489(16)
C2A C 0.6758(3) -0.0963(3) -0.08474(16)
C3A C 0.8186(3) 0.0005(3) -0.06047(17)
H1A H 0.8421 0.0490 -0.0131
C4A C 0.9278(4) 0.0264(3) -0.10606(18)
H2A H 1.0264 0.0936 -0.0900
C5A C 0.8937(4) -0.0453(3) -0.17488(18)
H3A H 0.9693 -0.0262 -0.2057
C6A C 0.7515(4) -0.1439(3) -0.19931(17)
H4A H 0.7289 -0.1928 -0.2465
C7A C 0.6420(3) -0.1705(3) -0.15373(16)
C8A C 0.4872(3) -0.2725(3) -0.16280(16)
C9A C 0.4034(4) -0.3724(3) -0.21949(17)
H5A H 0.4455 -0.3826 -0.2621
C10A C 0.2576(4) -0.4565(3) -0.21282(18)
H6A H 0.1994 -0.5248 -0.2514
C11A C 0.1951(4) -0.4429(3) -0.15087(19)
H7A H 0.0947 -0.5017 -0.1474
C12A C 0.2784(3) -0.3439(3) -0.09380(18)
H8A H 0.2356 -0.3342 -0.0514
C13A C 0.4244(3) -0.2597(3) -0.09963(16)
C14A C 0.5858(3) -0.1851(3) 0.02872(16)
C15A C 0.6038(3) -0.2994(3) 0.03053(17)
H9A H 0.5755 -0.3570 -0.0138
C16A C 0.6622(3) -0.3304(3) 0.09580(17)
H10A H 0.6735 -0.4089 0.0961
C17A C 0.7043(3) -0.2470(3) 0.16068(18)
H11A H 0.7461 -0.2675 0.2054
C18A C 0.6854(3) -0.1343(3) 0.16033(17)
H12A H 0.7127 -0.0780 0.2052
C19A C 0.6265(3) -0.1016(3) 0.09441(16)
C20A C 0.5976(3) 0.0137(3) 0.09504(16)
H13A H 0.6336 0.0729 0.1391
C21A C 0.4788(3) -0.0399(3) -0.03514(16)
C22 C 0.9280(3) 0.1231(3) 0.45319(16)
C23 C 0.7574(3) 0.0576(3) 0.41792(16)
C24 C 0.6365(3) -0.0291(3) 0.44568(16)
H14 H 0.6530 -0.0603 0.4914
C25 C 0.4899(3) -0.0698(3) 0.40524(17)
H15 H 0.4058 -0.1302 0.4234
C26 C 0.4650(4) -0.0235(3) 0.33906(17)
H16 H 0.3641 -0.0516 0.3125
C27 C 0.5855(3) 0.0631(3) 0.31133(17)
H17 H 0.5681 0.0947 0.2658
C28 C 0.7336(3) 0.1041(3) 0.35081(16)
C29 C 0.8796(3) 0.1954(3) 0.33551(16)
C30 C 0.9160(3) 0.2640(3) 0.27603(16)
H18 H 0.8387 0.2550 0.2356
C31 C 1.0662(4) 0.3458(3) 0.27614(17)
H19 H 1.0917 0.3943 0.2359
C32 C 1.1807(4) 0.3580(3) 0.33458(17)
H20 H 1.2835 0.4144 0.3339
C33 C 1.1447(3) 0.2879(3) 0.39387(16)
H21 H 1.2225 0.2949 0.4335
C34 C 0.9944(3) 0.2079(3) 0.39426(16)
C35 C 0.9382(3) 0.2007(3) 0.52635(16)
C36 C 0.9217(3) 0.3154(3) 0.52640(17)
H22 H 0.9166 0.3512 0.4812
C37 C 0.9125(3) 0.3786(3) 0.59149(17)
H23 H 0.9017 0.4572 0.5906
C38 C 0.9191(3) 0.3275(3) 0.65732(17)
H24 H 0.9097 0.3693 0.7016
C39 C 0.9395(3) 0.2148(3) 0.65862(16)
H25 H 0.9464 0.1807 0.7043
C40 C 0.9499(3) 0.1507(3) 0.59382(16)
C41 C 0.9809(3) 0.0367(3) 0.59613(16)
H26 H 0.9826 0.0014 0.6417
C42 C 0.9924(3) 0.0214(3) 0.46381(15)
C22A C 1.0720(3) -0.1231(3) 0.54681(16)
C23A C 1.2426(3) -0.0576(3) 0.58208(16)
C24A C 1.3635(3) 0.0291(3) 0.55432(16)
H14A H 1.3470 0.0603 0.5086
C25A C 1.5101(3) 0.0698(3) 0.59476(17)
H15A H 1.5942 0.1302 0.5766
C26A C 1.5350(4) 0.0235(3) 0.66094(17)
H16A H 1.6359 0.0516 0.6875
C27A C 1.4145(3) -0.0631(3) 0.68867(17)
H17A H 1.4319 -0.0947 0.7342
C28A C 1.2664(3) -0.1041(3) 0.64919(16)
C29A C 1.1204(3) -0.1954(3) 0.66449(16)
C30A C 1.0840(3) -0.2640(3) 0.72397(16)
H18A H 1.1613 -0.2550 0.7644
C31A C 0.9338(4) -0.3458(3) 0.72386(17)
H19A H 0.9083 -0.3943 0.7641
C32A C 0.8193(4) -0.3580(3) 0.66542(17)
H20A H 0.7165 -0.4144 0.6661
C33A C 0.8553(3) -0.2879(3) 0.60613(16)
H21A H 0.7775 -0.2949 0.5665
C34A C 1.0056(3) -0.2079(3) 0.60574(16)
C35A C 1.0618(3) -0.2007(3) 0.47365(16)
C36A C 1.0783(3) -0.3154(3) 0.47360(17)
H22A H 1.0834 -0.3512 0.5188
C37A C 1.0875(3) -0.3786(3) 0.40851(17)
H23A H 1.0983 -0.4572 0.4094
C38A C 1.0809(3) -0.3275(3) 0.34268(17)
H24A H 1.0903 -0.3693 0.2984
C39A C 1.0605(3) -0.2148(3) 0.34138(16)
H25A H 1.0536 -0.1807 0.2957
C40A C 1.0501(3) -0.1507(3) 0.40618(16)
C41A C 1.0191(3) -0.0367(3) 0.40387(16)
H26A H 1.0174 -0.0014 0.3583
C42A C 1.0076(3) -0.0214(3) 0.53619(15)
C43 C 0.2188(5) 0.4367(4) 0.0965(3)
H27 H 0.2712 0.4210 0.1425
H28 H 0.2931 0.4673 0.0623
C45 C 0.0896(4) 0.3166(3) 0.0616(2)
H31 H 0.0171 0.2860 0.0959
H32 H 0.1273 0.2516 0.0496
H33 H 0.0384 0.3325 0.0159
O1 O 0.1644(2) 0.53262(19) 0.11385(12)
C47 C 0.2795(5) 0.6484(4) 0.1495(3)
H37 H 0.3699 0.6715 0.1248
H38 H 0.3104 0.6392 0.2018
C49 C 0.2232(7) 0.7513(4) 0.1469(4)
H41 H 0.1958 0.7620 0.0950
H42 H 0.3035 0.8321 0.1728
H43 H 0.1332 0.7276 0.1710
C51 C 0.5547(4) 0.6669(3) 0.33300(19)
H47 H 0.5154 0.6122 0.2851
H48 H 0.6145 0.7557 0.3250
H49 H 0.4692 0.6631 0.3572
C52 C 0.6544(4) 0.6207(3) 0.38145(18)
H50 H 0.7398 0.6224 0.3569
H51 H 0.6975 0.6771 0.4294
O2 O 0.5636(2) 0.49324(19) 0.39371(11)
C53 C 0.6525(4) 0.4329(3) 0.42934(19)
H52 H 0.7159 0.4863 0.4761
H53 H 0.7211 0.4225 0.3966
C54 C 0.5452(4) 0.3036(3) 0.44567(19)
H54 H 0.4889 0.3152 0.4840
H55 H 0.6037 0.2553 0.4632
H56 H 0.4730 0.2561 0.4004
C44? C 0.146(2) 0.4571(16) 0.0517(11)
H29? H 0.2441 0.4847 0.0336
H30? H 0.0716 0.4682 0.0132
C46? C 0.0896(4) 0.3166(3) 0.0616(2)
H34? H 0.1600 0.3051 0.1010
H35? H 0.0847 0.2672 0.0150
H36? H -0.0122 0.2865 0.0751
C48? C 0.242(2) 0.6698(17) 0.1071(13)
H39? H 0.1817 0.6927 0.0673
H40? H 0.3434 0.6883 0.0934
C50? C 0.262(3) 0.751(2) 0.1812(13)
H44? H 0.1676 0.7165 0.2017
H45? H 0.2857 0.8402 0.1725
H46? H 0.3459 0.7487 0.2164
loop_
_geom_bond_atom_site_label_1
_geom_bond_atom_site_label_2
_geom_bond_site_symmetry_1
_geom_bond_site_symmetry_2
C1 C2 1_555 1_555
C2 C3 1_555 1_555
C3 H1 1_555 1_555
C4 C3 1_555 1_555
H2 C4 1_555 1_555
C5 C4 1_555 1_555
H3 C5 1_555 1_555
C6 C5 1_555 1_555
H4 C6 1_555 1_555
C7 C2 1_555 1_555
C8 C7 1_555 1_555
C9 C8 1_555 1_555
H5 C9 1_555 1_555
C10 C9 1_555 1_555
H6 C10 1_555 1_555
C11 C10 1_555 1_555
H7 C11 1_555 1_555
C12 C11 1_555 1_555
H8 C12 1_555 1_555
C13 C1 1_555 1_555
C14 C1 1_555 1_555
C15 C14 1_555 1_555
H9 C15 1_555 1_555
C16 C15 1_555 1_555
H10 C16 1_555 1_555
C17 C16 1_555 1_555
H11 C17 1_555 1_555
C18 C17 1_555 1_555
H12 C18 1_555 1_555
C19 C14 1_555 1_555
C20 C19 1_555 1_555
H13 C20 1_555 1_555
C21 C1 1_555 1_555
C22 C23 1_555 1_555
C23 C24 1_555 1_555
C24 H14 1_555 1_555
C25 C24 1_555 1_555
H15 C25 1_555 1_555
C26 C25 1_555 1_555
H16 C26 1_555 1_555
C27 C26 1_555 1_555
H17 C27 1_555 1_555
C28 C23 1_555 1_555
C29 C28 1_555 1_555
C30 C29 1_555 1_555
H18 C30 1_555 1_555
C31 C30 1_555 1_555
H19 C31 1_555 1_555
C32 C31 1_555 1_555
H20 C32 1_555 1_555
C33 C32 1_555 1_555
H21 C33 1_555 1_555
C34 C22 1_555 1_555
C35 C22 1_555 1_555
C36 C35 1_555 1_555
H22 C36 1_555 1_555
C37 C36 1_555 1_555
H23 C37 1_555 1_555
C38 C37 1_555 1_555
H24 C38 1_555 1_555
C39 C38 1_555 1_555
H25 C39 1_555 1_555
C40 C35 1_555 1_555
C41 C40 1_555 1_555
H26 C41 1_555 1_555
C42 C22 1_555 1_555
C43 H27 1_555 1_555
H28 C43 1_555 1_555
C45 C43 1_555 1_555
H31 C45 1_555 1_555
H32 C45 1_555 1_555
H33 C45 1_555 1_555
O1 C43 1_555 1_555
C47 O1 1_555 1_555
H37 C47 1_555 1_555
H38 C47 1_555 1_555
C49 C47 1_555 1_555
H41 C49 1_555 1_555
H42 C49 1_555 1_555
H43 C49 1_555 1_555
C51 H47 1_555 1_555
H48 C51 1_555 1_555
H49 C51 1_555 1_555
C52 C51 1_555 1_555
H50 C52 1_555 1_555
H51 C52 1_555 1_555
O2 C52 1_555 1_555
C53 O2 1_555 1_555
H52 C53 1_555 1_555
H53 C53 1_555 1_555
C54 C53 1_555 1_555
H54 C54 1_555 1_555
H55 C54 1_555 1_555
H56 C54 1_555 1_555
C1A C2A 1_555 1_555
C2A C3A 1_555 1_555
C3A H1A 1_555 1_555
C4A C3A 1_555 1_555
H2A C4A 1_555 1_555
C5A C4A 1_555 1_555
H3A C5A 1_555 1_555
C6A C5A 1_555 1_555
H4A C6A 1_555 1_555
C7A C2A 1_555 1_555
C8A C7A 1_555 1_555
C9A C8A 1_555 1_555
H5A C9A 1_555 1_555
C10A C9A 1_555 1_555
H6A C10A 1_555 1_555
C11A C10A 1_555 1_555
H7A C11A 1_555 1_555
C12A C11A 1_555 1_555
H8A C12A 1_555 1_555
C13A C1A 1_555 1_555
C14A C1A 1_555 1_555
C15A C14A 1_555 1_555
H9A C15A 1_555 1_555
C16A C15A 1_555 1_555
H10A C16A 1_555 1_555
C17A C16A 1_555 1_555
H11A C17A 1_555 1_555
C18A C17A 1_555 1_555
H12A C18A 1_555 1_555
C19A C14A 1_555 1_555
C20A C21 1_555 1_555
H13A C20A 1_555 1_555
C21A C20 1_555 1_555
C22A C23A 1_555 1_555
C23A C24A 1_555 1_555
C24A H14A 1_555 1_555
C25A C24A 1_555 1_555
H15A C25A 1_555 1_555
C26A C25A 1_555 1_555
H16A C26A 1_555 1_555
C27A C26A 1_555 1_555
H17A C27A 1_555 1_555
C28A C23A 1_555 1_555
C29A C28A 1_555 1_555
C30A C29A 1_555 1_555
H18A C30A 1_555 1_555
C31A C30A 1_555 1_555
H19A C31A 1_555 1_555
C32A C31A 1_555 1_555
H20A C32A 1_555 1_555
C33A C32A 1_555 1_555
H21A C33A 1_555 1_555
C34A C22A 1_555 1_555
C35A C22A 1_555 1_555
C36A C35A 1_555 1_555
H22A C36A 1_555 1_555
C37A C36A 1_555 1_555
H23A C37A 1_555 1_555
C38A C37A 1_555 1_555
H24A C38A 1_555 1_555
C39A C38A 1_555 1_555
H25A C39A 1_555 1_555
C40A C35A 1_555 1_555
C41A C42 1_555 1_555
H26A C41A 1_555 1_555
C42A C41 1_555 1_555
C6 C7 1_555 1_555
C8 C13 1_555 1_555
C12 C13 1_555 1_555
C18 C19 1_555 1_555
C21 C21A 1_555 1_555
C27 C28 1_555 1_555
C29 C34 1_555 1_555
C33 C34 1_555 1_555
C39 C40 1_555 1_555
C42 C42A 1_555 1_555
C1A C21A 1_555 1_555
C6A C7A 1_555 1_555
C8A C13A 1_555 1_555
C12A C13A 1_555 1_555
C18A C19A 1_555 1_555
C19A C20A 1_555 1_555
C22A C42A 1_555 1_555
C27A C28A 1_555 1_555
C29A C34A 1_555 1_555
C33A C34A 1_555 1_555
C39A C40A 1_555 1_555
C40A C41A 1_555 1_555

#END
