
#######################################################################
#
#                 Cambridge Crystallographic Data Centre
#                                CCDC 
#
#######################################################################
#
# If this CIF has been generated from an entry in the Cambridge 
# Structural Database, then it will include bibliographic, chemical, 
# crystal, experimental, refinement or atomic coordinate data resulting 
# from the CCDC's data processing and validation procedures.
#
#######################################################################

data_GEGRAM
_chemical_formula_moiety         'C42 H28,C4 H10 O1'
_chemical_name_systematic        
'4-(Fluoren-9-ylidene)-1-(fluoren-9-yl)-2,3-diphenylcyclobut-1-ene diethyl ether solvate'
_symmetry_cell_setting           triclinic
_symmetry_space_group_name_H-M   'P -1'
_symmetry_Int_Tables_number      2
_space_group_name_Hall           '-P 1'
loop_
_symmetry_equiv_pos_site_id
_symmetry_equiv_pos_as_xyz
1 x,y,z
2 -x,-y,-z
_cell_length_a                   8.8824(12)
_cell_length_b                   11.3304(15)
_cell_length_c                   16.048(2)
_cell_angle_alpha                86.752(2)
_cell_angle_beta                 84.894(2)
_cell_angle_gamma                88.268(2)
_cell_volume                     1605.58
_exptl_crystal_colour            yellow
_exptl_crystal_description       rod
_chemical_melting_point          132-135deg.C(dec.)
_cell_formula_units_Z            2
_exptl_crystal_recrystallization_method 'dichloromethane/diethyl ether/hexane'
loop_
_atom_site_label
_atom_site_type_symbol
_atom_site_fract_x
_atom_site_fract_y
_atom_site_fract_z
C1 C 0.08476(15) 0.86467(12) 0.74588(8)
C2 C 0.09500(16) 0.91003(13) 0.83138(8)
H1 H 0.1283(16) 0.9928(14) 0.8235(9)
C3 C 0.20359(17) 0.83996(12) 0.88436(9)
C4 C 0.35216(18) 0.80454(13) 0.86364(10)
H2 H 0.4014(17) 0.8219(13) 0.8066(10)
C5 C 0.4311(2) 0.74332(14) 0.92424(11)
H3 H 0.538(2) 0.7179(15) 0.9100(10)
C6 C 0.3612(2) 0.71765(14) 1.00394(11)
H4 H 0.419(2) 0.6732(16) 1.0461(11)
C7 C 0.21162(19) 0.75053(13) 1.02457(10)
H5 H 0.1652(18) 0.7283(14) 1.0804(10)
C8 C 0.13297(17) 0.81254(12) 0.96448(9)
C9 C -0.02390(17) 0.85727(12) 0.96729(9)
C10 C -0.14010(18) 0.85140(13) 1.03175(9)
H6 H -0.1211(17) 0.8125(14) 1.0863(10)
C11 C -0.28023(19) 0.89912(14) 1.01574(10)
H7 H -0.3649(19) 0.8931(14) 1.0602(10)
C12 C -0.30609(18) 0.95210(14) 0.93811(10)
H8 H -0.409(2) 0.9862(15) 0.9277(10)
C13 C -0.19051(17) 0.95844(13) 0.87382(9)
H9 H -0.2088(17) 0.9963(13) 0.8181(10)
C14 C -0.05002(16) 0.91070(12) 0.88918(8)
C15 C 0.00269(15) 0.77831(12) 0.71704(8)
C16 C -0.10183(15) 0.68761(12) 0.75069(9)
C17 C -0.10786(17) 0.64162(12) 0.83346(9)
H10 H -0.0387(17) 0.6701(13) 0.8718(10)
C18 C -0.20856(19) 0.55480(13) 0.86184(10)
H11 H -0.2095(18) 0.5229(14) 0.9195(11)
C19 C -0.30682(18) 0.51271(14) 0.80847(10)
H12 H -0.3809(19) 0.4504(15) 0.8282(10)
C20 C -0.30116(18) 0.55665(13) 0.72597(10)
H13 H -0.3717(19) 0.5268(15) 0.6883(10)
C21 C -0.19879(16) 0.64179(12) 0.69718(9)
H14 H -0.1936(16) 0.6722(13) 0.6382(10)
C22 C 0.05864(16) 0.80616(12) 0.62564(8)
H15 H -0.0197(16) 0.8393(12) 0.5906(8)
C23 C 0.14317(15) 0.70477(12) 0.58365(8)
C24 C 0.26348(16) 0.64608(12) 0.61972(9)
H16 H 0.3002(17) 0.6740(13) 0.6707(10)
C25 C 0.33197(17) 0.54747(13) 0.58464(9)
H17 H 0.4132(18) 0.5059(13) 0.6106(9)
C26 C 0.28302(17) 0.50603(13) 0.51204(9)
H18 H 0.3298(18) 0.4359(15) 0.4882(10)
C27 C 0.16522(17) 0.56428(13) 0.47519(9)
H19 H 0.1273(18) 0.5360(14) 0.4241(10)
C28 C 0.09531(17) 0.66228(13) 0.51121(9)
H20 H 0.0086(18) 0.7002(13) 0.4866(9)
C29 C 0.14916(15) 0.90307(12) 0.66180(8)
C30 C 0.23992(15) 0.98696(12) 0.62260(9)
C31 C 0.33711(15) 1.07320(12) 0.65745(9)
C32 C 0.37702(17) 1.08822(13) 0.73809(9)
H21 H 0.3364(17) 1.0369(13) 0.7865(10)
C33 C 0.47736(17) 1.17541(13) 0.75119(10)
H22 H 0.5053(17) 1.1847(13) 0.8084(10)
C34 C 0.54038(17) 1.24732(13) 0.68498(10)
H23 H 0.6126(17) 1.3068(14) 0.6961(9)
C35 C 0.50541(17) 1.23157(13) 0.60421(10)
H24 H 0.5520(17) 1.2787(14) 0.5575(10)
C36 C 0.40498(16) 1.14472(12) 0.59064(9)
C37 C 0.35761(16) 1.10597(12) 0.51205(9)
C38 C 0.39792(17) 1.14613(13) 0.43003(9)
H25 H 0.4688(18) 1.2106(14) 0.4185(9)
C39 C 0.33917(17) 1.09121(13) 0.36542(9)
H26 H 0.3661(17) 1.1192(13) 0.3068(10)
C40 C 0.24000(17) 0.99914(13) 0.38292(9)
H27 H 0.1977(17) 0.9621(14) 0.3362(10)
C41 C 0.19852(17) 0.95899(13) 0.46489(9)
H28 H 0.1259(16) 0.8950(13) 0.4749(9)
C42 C 0.25948(15) 1.01097(12) 0.53042(9)
O1 O 0.11119(13) 0.34679(10) 0.80381(7)
C43 C 0.0778(2) 0.33513(15) 0.72014(10)
H29 H 0.1714 0.3168 0.6844
H30 H 0.0320 0.4096 0.6976
C44 C -0.02963(19) 0.23749(15) 0.72111(10)
H31 H 0.0184 0.1637 0.7415
H32 H -0.0583 0.2288 0.6643
H33 H -0.1201 0.2554 0.7582
C45 C 0.21084(19) 0.43732(14) 0.81000(10)
H34 H 0.1699 0.5122 0.7851
H35 H 0.3092 0.4186 0.7789
C46 C 0.2328(3) 0.45120(17) 0.90163(12)
H36 H 0.1344 0.4652 0.9327
H37 H 0.2978 0.5184 0.9065
H38 H 0.2804 0.3789 0.9249
loop_
_geom_bond_atom_site_label_1
_geom_bond_atom_site_label_2
_geom_bond_site_symmetry_1
_geom_bond_site_symmetry_2
C1 C2 1_555 1_555
C2 H1 1_555 1_555
C3 C2 1_555 1_555
C4 C3 1_555 1_555
H2 C4 1_555 1_555
C5 C4 1_555 1_555
H3 C5 1_555 1_555
C6 C5 1_555 1_555
H4 C6 1_555 1_555
C7 C6 1_555 1_555
H5 C7 1_555 1_555
C8 C3 1_555 1_555
C9 C8 1_555 1_555
C10 C9 1_555 1_555
H6 C10 1_555 1_555
C11 C10 1_555 1_555
H7 C11 1_555 1_555
C12 C11 1_555 1_555
H8 C12 1_555 1_555
C13 C12 1_555 1_555
H9 C13 1_555 1_555
C14 C2 1_555 1_555
C15 C1 1_555 1_555
C16 C15 1_555 1_555
C17 C16 1_555 1_555
H10 C17 1_555 1_555
C18 C17 1_555 1_555
H11 C18 1_555 1_555
C19 C18 1_555 1_555
H12 C19 1_555 1_555
C20 C19 1_555 1_555
H13 C20 1_555 1_555
C21 C16 1_555 1_555
H14 C21 1_555 1_555
C22 C15 1_555 1_555
H15 C22 1_555 1_555
C23 C22 1_555 1_555
C24 C23 1_555 1_555
H16 C24 1_555 1_555
C25 C24 1_555 1_555
H17 C25 1_555 1_555
C26 C25 1_555 1_555
H18 C26 1_555 1_555
C27 C26 1_555 1_555
H19 C27 1_555 1_555
C28 C23 1_555 1_555
H20 C28 1_555 1_555
C29 C1 1_555 1_555
C30 C29 1_555 1_555
C31 C30 1_555 1_555
C32 C31 1_555 1_555
H21 C32 1_555 1_555
C33 C32 1_555 1_555
H22 C33 1_555 1_555
C34 C33 1_555 1_555
H23 C34 1_555 1_555
C35 C34 1_555 1_555
H24 C35 1_555 1_555
C36 C31 1_555 1_555
C37 C36 1_555 1_555
C38 C37 1_555 1_555
H25 C38 1_555 1_555
C39 C38 1_555 1_555
H26 C39 1_555 1_555
C40 C39 1_555 1_555
H27 C40 1_555 1_555
C41 C40 1_555 1_555
H28 C41 1_555 1_555
C42 C30 1_555 1_555
O1 C43 1_555 1_555
C43 H29 1_555 1_555
H30 C43 1_555 1_555
C44 C43 1_555 1_555
H31 C44 1_555 1_555
H32 C44 1_555 1_555
H33 C44 1_555 1_555
C45 O1 1_555 1_555
H34 C45 1_555 1_555
H35 C45 1_555 1_555
C46 C45 1_555 1_555
H36 C46 1_555 1_555
H37 C46 1_555 1_555
H38 C46 1_555 1_555
C7 C8 1_555 1_555
C9 C14 1_555 1_555
C13 C14 1_555 1_555
C20 C21 1_555 1_555
C22 C29 1_555 1_555
C27 C28 1_555 1_555
C35 C36 1_555 1_555
C37 C42 1_555 1_555
C41 C42 1_555 1_555

#END
