
#######################################################################
#
#                 Cambridge Crystallographic Data Centre
#                                CCDC 
#
#######################################################################
#
# If this CIF has been generated from an entry in the Cambridge 
# Structural Database, then it will include bibliographic, chemical, 
# crystal, experimental, refinement or atomic coordinate data resulting 
# from the CCDC's data processing and validation procedures.
#
#######################################################################

data_GEGRIT01
_chemical_formula_moiety         'C12 H28 N2 O4 2+,2(N1 O3 1-)'
_chemical_name_systematic        '7,16-Diazonio-18-crown-6 dinitrate'
_symmetry_cell_setting           monoclinic
_symmetry_space_group_name_H-M   'P 21/n'
_symmetry_Int_Tables_number      14
_space_group_name_Hall           '-P 2yn'
loop_
_symmetry_equiv_pos_site_id
_symmetry_equiv_pos_as_xyz
1 x,y,z
2 1/2-x,1/2+y,1/2-z
3 -x,-y,-z
4 1/2+x,1/2-y,1/2+z
_cell_length_a                   7.811(2)
_cell_length_b                   10.626(4)
_cell_length_c                   11.823(6)
_cell_angle_alpha                90
_cell_angle_beta                 106.51(3)
_cell_angle_gamma                90
_cell_volume                     940.846
_cell_formula_units_Z            2
loop_
_atom_site_label
_atom_site_type_symbol
_atom_site_fract_x
_atom_site_fract_y
_atom_site_fract_z
N1 N 0.6879(2) -0.0232(1) 0.1912(1)
O1 O 0.4142(2) 0.1511(1) 0.1909(1)
O2 O 0.7801(2) -0.2123(1) 0.0515(1)
C1 C 0.2306(3) 0.1851(2) 0.1566(2)
C2 C 0.4546(3) 0.0557(2) 0.2769(2)
C3 C 0.6487(3) 0.0224(2) 0.3006(2)
C4 C 0.8710(3) -0.0763(2) 0.2143(2)
C5 C 0.9064(3) -0.1176(2) 0.1011(2)
C6 C 0.1940(3) 0.2696(2) 0.0516(2)
H1 H 0.6757(33) 0.0378(23) 0.1467(22)
H2 H 0.6110(33) -0.0723(23) 0.1520(21)
H3 H 0.1575(36) 0.1112(25) 0.1343(22)
H4 H 0.1978(32) 0.2212(22) 0.2159(23)
H5 H 0.3762(31) -0.0170(22) 0.2482(20)
H6 H 0.4296(30) 0.0830(21) 0.3494(19)
H7 H 0.6818(29) -0.0400(22) 0.3540(20)
H8 H 0.7220(30) 0.0936(22) 0.3251(19)
H9 H 0.8762(28) -0.1451(21) 0.2656(19)
H10 H 0.9497(33) -0.0097(25) 0.2535(22)
H11 H 0.8871(27) -0.0491(23) 0.0489(18)
H12 H 1.0298(40) -0.1475(26) 0.1160(24)
H13 H 0.2817(32) 0.3434(22) 0.0674(20)
H14 H 0.0774(32) 0.2998(22) 0.0332(21)
C6B C 0.8060(3) -0.2696(2) -0.0516(2)
O2B O 0.2199(2) 0.2123(1) -0.0515(1)
C1B C 0.7694(3) -0.1851(2) -0.1566(2)
H13B H 0.7183(32) -0.3434(22) -0.0674(20)
H14B H 0.9226(32) -0.2998(22) -0.0332(21)
C5B C 0.0936(3) 0.1176(2) -0.1011(2)
O1B O 0.5858(2) -0.1511(1) -0.1909(1)
H3B H 0.8425(36) -0.1112(25) -0.1343(22)
H4B H 0.8022(32) -0.2212(22) -0.2159(23)
C4B C 0.1290(3) 0.0763(2) -0.2143(2)
H11B H 0.1129(27) 0.0491(23) -0.0489(18)
H12B H -0.0298(40) 0.1475(26) -0.1160(24)
C2B C 0.5454(3) -0.0557(2) -0.2769(2)
N1B N 0.3121(2) 0.0232(1) -0.1912(1)
H9B H 0.1238(28) 0.1451(21) -0.2656(19)
H10B H 0.0503(33) 0.0097(25) -0.2535(22)
C3B C 0.3513(3) -0.0224(2) -0.3006(2)
H5B H 0.6238(31) 0.0170(22) -0.2482(20)
H6B H 0.5704(30) -0.0830(21) -0.3494(19)
H1B H 0.3243(33) -0.0378(23) -0.1467(22)
H2B H 0.3890(33) 0.0723(23) -0.1520(21)
H7B H 0.3182(29) 0.0400(22) -0.3540(20)
H8B H 0.2780(30) -0.0936(22) -0.3251(19)
N2 N 0.6901(2) 0.2282(2) -0.0007(2)
O3 O 0.7775(3) 0.2219(1) 0.1054(2)
O4 O 0.6667(4) 0.3294(2) -0.0494(2)
O5 O 0.6364(2) 0.1275(2) -0.0502(2)
loop_
_geom_bond_atom_site_label_1
_geom_bond_atom_site_label_2
_geom_bond_site_symmetry_1
_geom_bond_site_symmetry_2
N1 C3 1_555 1_555
O1 C1 1_555 1_555
O2 C5 1_555 1_555
C1 C6 1_555 1_555
C2 O1 1_555 1_555
C3 C2 1_555 1_555
C4 N1 1_555 1_555
C5 C4 1_555 1_555
C6 O2B 1_555 1_555
N2 O3 1_555 1_555
O4 N2 1_555 1_555
O5 N2 1_555 1_555
H1 N1 1_555 1_555
H2 N1 1_555 1_555
H3 C1 1_555 1_555
H4 C1 1_555 1_555
H5 C2 1_555 1_555
H6 C2 1_555 1_555
H7 C3 1_555 1_555
H8 C3 1_555 1_555
H9 C4 1_555 1_555
H10 C4 1_555 1_555
H11 C5 1_555 1_555
H12 C5 1_555 1_555
H13 C6 1_555 1_555
H14 C6 1_555 1_555
C6B O2 1_555 1_555
O2B C5B 1_555 1_555
C1B C6B 1_555 1_555
H13B C6B 1_555 1_555
H14B C6B 1_555 1_555
C5B C4B 1_555 1_555
O1B C1B 1_555 1_555
H3B C1B 1_555 1_555
H4B C1B 1_555 1_555
C4B N1B 1_555 1_555
H11B C5B 1_555 1_555
H12B C5B 1_555 1_555
C2B O1B 1_555 1_555
N1B C3B 1_555 1_555
H9B C4B 1_555 1_555
H10B C4B 1_555 1_555
C3B C2B 1_555 1_555
H5B C2B 1_555 1_555
H6B C2B 1_555 1_555
H1B N1B 1_555 1_555
H2B N1B 1_555 1_555
H7B C3B 1_555 1_555
H8B C3B 1_555 1_555

#END
