
#######################################################################
#
#                 Cambridge Crystallographic Data Centre
#                                CCDC 
#
#######################################################################
#
# If this CIF has been generated from an entry in the Cambridge 
# Structural Database, then it will include bibliographic, chemical, 
# crystal, experimental, refinement or atomic coordinate data resulting 
# from the CCDC's data processing and validation procedures.
#
#######################################################################

data_GEGRUI
_chemical_formula_moiety         'C39 H32 B1 F2 N3 O4'
_chemical_name_systematic        
'(ethyl 3-[2-(4-methoxyphenyl)-5-{[5-(4-methoxyphenyl)-3-phenyl-2H-pyrrol-2-ylidene]amino}-4-phenyl-1H-pyrrol-3-yl]prop-2-enoatato)(difluoro)boron'
_symmetry_cell_setting           triclinic
_symmetry_space_group_name_H-M   'P -1'
_symmetry_Int_Tables_number      2
_space_group_name_Hall           '-P 1'
loop_
_symmetry_equiv_pos_site_id
_symmetry_equiv_pos_as_xyz
1 x,y,z
2 -x,-y,-z
_cell_length_a                   10.8724(12)
_cell_length_b                   12.3475(14)
_cell_length_c                   13.0261(15)
_cell_angle_alpha                106.1840(10)
_cell_angle_beta                 98.2920(10)
_cell_angle_gamma                98.5180(10)
_cell_volume                     1628.9
_exptl_crystal_colour            colorless
_exptl_crystal_description       block
_cell_formula_units_Z            2
loop_
_atom_site_label
_atom_site_type_symbol
_atom_site_fract_x
_atom_site_fract_y
_atom_site_fract_z
B1 B 0.5472(2) -0.04300(19) 0.19049(18)
C1 C 0.45142(18) 0.06405(16) 0.36145(16)
C2 C 0.4718(2) 0.17985(17) 0.43046(17)
H1 H 0.4311 0.2055 0.4881
C3 C 0.56070(19) 0.24737(16) 0.39848(16)
C4 C 0.59572(18) 0.17085(15) 0.30678(15)
C5 C 0.70791(18) 0.12153(15) 0.17069(15)
C6 C 0.79277(19) 0.14345(17) 0.10350(16)
C7 C 0.78746(19) 0.03856(16) 0.02464(16)
C8 C 0.69993(19) -0.04571(16) 0.04756(15)
C9 C 0.36460(19) -0.03200(16) 0.37304(16)
C10 C 0.3281(2) -0.14086(19) 0.29577(18)
H2 H 0.3597 -0.1549 0.2317
C11 C 0.2463(3) -0.2277(2) 0.3126(2)
H3 H 0.2240 -0.2996 0.2600
C12 C 0.1970(2) -0.20994(18) 0.40635(18)
C13 C 0.2320(2) -0.10310(19) 0.48474(18)
H4 H 0.2003 -0.0898 0.5488
C14 C 0.3143(2) -0.01645(18) 0.46745(18)
H5 H 0.3370 0.0549 0.5208
C15 C 0.0677(3) -0.2899(2) 0.5108(2)
H6 H 0.1365 -0.2668 0.5725
H7 H 0.0178 -0.3624 0.5070
H8 H 0.0155 -0.2330 0.5185
C16 C 0.61645(19) 0.37017(16) 0.44896(17)
C17 C 0.6741(2) 0.43679(18) 0.39221(19)
H9 H 0.6757 0.4039 0.3190
C18 C 0.7291(2) 0.55129(19) 0.4433(2)
H10 H 0.7676 0.5944 0.4042
C19 C 0.7276(2) 0.6019(2) 0.5506(2)
H11 H 0.7653 0.6789 0.5847
C20 C 0.6697(3) 0.5378(2) 0.6076(2)
H12 H 0.6675 0.5719 0.6805
C21 C 0.6147(2) 0.42313(19) 0.55776(18)
H13 H 0.5760 0.3809 0.5975
C22 C 0.8572(2) 0.26101(16) 0.11461(16)
C23 C 0.9440(3) 0.3265(2) 0.2074(2)
H14 H 0.9700 0.2930 0.2604
C24 C 0.9925(3) 0.4399(3) 0.2227(3)
H15 H 1.0513 0.4828 0.2855
C25 C 0.9546(3) 0.4900(2) 0.1459(4)
H16 H 0.9858 0.5675 0.1570
C26 C 0.8709(4) 0.4263(3) 0.0526(4)
H17 H 0.8458 0.4603 -0.0002
C27 C 0.8229(3) 0.3107(2) 0.0360(2)
H18 H 0.7674 0.2672 -0.0285
C28 C 0.8541(2) 0.02847(19) -0.06573(17)
H19 H 0.9191 0.0908 -0.0555
C29 C 0.8392(3) -0.0515(2) -0.1577(2)
H20 H 0.7766 -0.1166 -0.1710
C30 C 0.9152(3) -0.0473(2) -0.2449(2)
C31 C 1.0708(3) 0.0675(3) -0.3018(2)
H21 H 1.1370 0.0233 -0.2975
H22 H 1.0195 0.0377 -0.3748
C32 C 1.1275(3) 0.1888(3) -0.2794(3)
H23 H 1.0618 0.2328 -0.2795
H24 H 1.1748 0.1969 -0.3345
H25 H 1.1833 0.2162 -0.2093
C33 C 0.6698(2) -0.17053(16) -0.00683(15)
C34 C 0.7694(2) -0.22977(19) -0.01952(19)
H26 H 0.8526 -0.1893 0.0049
C35 C 0.7463(3) -0.3470(2) -0.0676(2)
H27 H 0.8137 -0.3849 -0.0760
C36 C 0.6232(3) -0.40856(18) -0.10342(19)
C37 C 0.5227(3) -0.3515(2) -0.09468(19)
H28 H 0.4397 -0.3921 -0.1208
C38 C 0.5475(2) -0.23310(18) -0.04652(17)
H29 H 0.4800 -0.1949 -0.0408
C39 C 0.4854(4) -0.5929(2) -0.1804(3)
H30 H 0.4401 -0.5738 -0.1219
H31 H 0.4897 -0.6730 -0.1986
H32 H 0.4420 -0.5778 -0.2430
F1 F 0.58703(14) -0.12564(10) 0.23172(11)
F2 F 0.43564(13) -0.08651(12) 0.11510(10)
N1 N 0.52674(15) 0.05968(13) 0.28571(13)
N2 N 0.68180(16) 0.20003(13) 0.25352(13)
N3 N 0.65071(16) 0.00621(13) 0.13482(13)
O1 O 0.11679(16) -0.30120(14) 0.41405(14)
O2 O 0.6103(2) -0.52508(14) -0.14755(18)
O3 O 0.9065(3) -0.12390(19) -0.32263(18)
O4 O 0.99097(18) 0.05612(16) -0.22134(14)
loop_
_geom_bond_atom_site_label_1
_geom_bond_atom_site_label_2
_geom_bond_site_symmetry_1
_geom_bond_site_symmetry_2
B1 F1 1_555 1_555
C1 C2 1_555 1_555
C2 H1 1_555 1_555
C3 C2 1_555 1_555
C4 C3 1_555 1_555
C5 C6 1_555 1_555
C6 C7 1_555 1_555
C7 C8 1_555 1_555
C8 C33 1_555 1_555
C9 C1 1_555 1_555
C10 C9 1_555 1_555
H2 C10 1_555 1_555
C11 C10 1_555 1_555
H3 C11 1_555 1_555
C12 C11 1_555 1_555
C13 C12 1_555 1_555
H4 C13 1_555 1_555
C14 C9 1_555 1_555
H5 C14 1_555 1_555
C15 H6 1_555 1_555
H7 C15 1_555 1_555
H8 C15 1_555 1_555
C16 C3 1_555 1_555
C17 C16 1_555 1_555
H9 C17 1_555 1_555
C18 C17 1_555 1_555
H10 C18 1_555 1_555
C19 C18 1_555 1_555
H11 C19 1_555 1_555
C20 C19 1_555 1_555
H12 C20 1_555 1_555
C21 C16 1_555 1_555
H13 C21 1_555 1_555
C22 C6 1_555 1_555
C23 C22 1_555 1_555
H14 C23 1_555 1_555
C24 C23 1_555 1_555
H15 C24 1_555 1_555
C25 C24 1_555 1_555
H16 C25 1_555 1_555
C26 C25 1_555 1_555
H17 C26 1_555 1_555
C27 C22 1_555 1_555
H18 C27 1_555 1_555
C28 C7 1_555 1_555
H19 C28 1_555 1_555
C29 C28 1_555 1_555
H20 C29 1_555 1_555
C30 C29 1_555 1_555
C31 H21 1_555 1_555
H22 C31 1_555 1_555
C32 C31 1_555 1_555
H23 C32 1_555 1_555
H24 C32 1_555 1_555
H25 C32 1_555 1_555
C33 C34 1_555 1_555
C34 H26 1_555 1_555
C35 C34 1_555 1_555
H27 C35 1_555 1_555
C36 C35 1_555 1_555
C37 C36 1_555 1_555
H28 C37 1_555 1_555
C38 C33 1_555 1_555
H29 C38 1_555 1_555
C39 H30 1_555 1_555
H31 C39 1_555 1_555
H32 C39 1_555 1_555
F2 B1 1_555 1_555
N1 B1 1_555 1_555
N2 C4 1_555 1_555
N3 B1 1_555 1_555
O1 C12 1_555 1_555
O2 C36 1_555 1_555
O3 C30 1_555 1_555
O4 C30 1_555 1_555
C1 N1 1_555 1_555
C4 N1 1_555 1_555
C5 N2 1_555 1_555
C5 N3 1_555 1_555
C8 N3 1_555 1_555
C13 C14 1_555 1_555
C15 O1 1_555 1_555
C20 C21 1_555 1_555
C26 C27 1_555 1_555
C31 O4 1_555 1_555
C37 C38 1_555 1_555
C39 O2 1_555 1_555

#END
