
#######################################################################
#
#                 Cambridge Crystallographic Data Centre
#                                CCDC 
#
#######################################################################
#
# If this CIF has been generated from an entry in the Cambridge 
# Structural Database, then it will include bibliographic, chemical, 
# crystal, experimental, refinement or atomic coordinate data resulting 
# from the CCDC's data processing and validation procedures.
#
#######################################################################

data_GEGSEQ03
_chemical_formula_moiety         'C17 H13 N1'
_chemical_name_systematic        2-(2-phenylvinyl)quinoline
_symmetry_cell_setting           monoclinic
_symmetry_space_group_name_H-M   'P 21/c'
_symmetry_Int_Tables_number      14
_space_group_name_Hall           '-P 2ybc'
loop_
_symmetry_equiv_pos_site_id
_symmetry_equiv_pos_as_xyz
1 x,y,z
2 -x,1/2+y,1/2-z
3 -x,-y,-z
4 x,1/2-y,1/2+z
_cell_length_a                   6.6680(16)
_cell_length_b                   19.172(3)
_cell_length_c                   14.717(2)
_cell_angle_alpha                90
_cell_angle_beta                 96.264(19)
_cell_angle_gamma                90
_cell_volume                     1870.17
_exptl_crystal_colour            colorless
_exptl_crystal_description       prism
_cell_formula_units_Z            6
loop_
_atom_site_label
_atom_site_type_symbol
_atom_site_fract_x
_atom_site_fract_y
_atom_site_fract_z
N1 N 0.1091(3) 0.39737(11) 0.75561(14)
C1 C 0.0530(4) 0.35544(12) 0.68548(16)
C2 C -0.1478(4) 0.35476(13) 0.64105(17)
H1 H -0.1824 0.3248 0.5904
C3 C -0.2906(4) 0.39736(13) 0.67157(17)
H2 H -0.4252 0.3963 0.6428
C4 C -0.2385(4) 0.44279(12) 0.74562(16)
C5 C -0.0329(4) 0.44160(12) 0.78520(16)
C6 C 0.0271(4) 0.48803(13) 0.85814(17)
H3 H 0.1631 0.4880 0.8854
C7 C -0.1098(4) 0.53300(14) 0.88971(18)
H4 H -0.0669 0.5640 0.9383
C8 C -0.3140(4) 0.53389(13) 0.85099(18)
H5 H -0.4072 0.5650 0.8740
C9 C -0.3765(4) 0.48984(13) 0.78029(17)
H6 H -0.5132 0.4907 0.7542
C10 C 0.2108(4) 0.30881(13) 0.65743(17)
H7 H 0.3356 0.3079 0.6954
C11 C 0.1952(4) 0.26756(12) 0.58356(17)
H8 H 0.0708 0.2690 0.5454
C12 C 0.3515(4) 0.22002(12) 0.55531(16)
C13 C 0.3137(4) 0.18395(13) 0.47290(17)
H9 H 0.1868 0.1892 0.4374
C14 C 0.4592(4) 0.14022(13) 0.44155(18)
H10 H 0.4306 0.1163 0.3851
C15 C 0.6452(4) 0.13157(13) 0.49265(18)
H11 H 0.7448 0.1023 0.4712
C16 C 0.6839(4) 0.16624(13) 0.57548(18)
H12 H 0.8102 0.1603 0.6112
C17 C 0.5386(4) 0.20972(13) 0.60644(18)
H13 H 0.5671 0.2329 0.6635
C18? C 0.8673(9) 0.4170(3) 0.3629(4)
C19? C 1.0098(9) 0.3769(3) 0.3244(4)
C20? C 0.1808(9) 0.7244(3) 0.6662(4)
C21? C 0.0033(9) 0.6912(3) 0.6831(4)
C22? C 0.3239(9) 0.6888(3) 0.6221(4)
H14? H -0.1237 0.6014 0.6971
H15? H 0.7957 0.2286 0.3153
H16? H 1.0945 0.2844 0.2868
H17? H 0.5548 0.2885 0.3894
C23? C 0.7006(9) 0.3851(3) 0.3942(4)
H18? H 0.1163 0.5339 0.6323
H19? H 0.6810 0.5080 0.4632
C24? C 0.4075(13) 0.5183(4) 0.5243(5)
N2? N 0.4311(9) 0.5834(3) 0.5500(4)
C25? C 0.2202(10) 0.4834(3) 0.5415(4)
H20? H 0.1974(9) 0.4354(3) 0.5222(4)
C26? C 0.0777(9) 0.5180(3) 0.5848(4)
H21? H -0.0435 0.4951 0.5962
C27? C 0.1121(9) 0.5868(3) 0.6119(4)
C28? C 0.2896(9) 0.6200(3) 0.5950(4)
C29? C -0.0310(9) 0.6224(3) 0.6560(4)
H22? H -0.1524 0.5997 0.6675
C30? C 0.4380(9) 0.5167(3) 0.5267(4)
C31? C 0.4626(9) 0.5796(3) 0.5572(4)
H23? H 0.5834 0.6041 0.5493
C32? C 0.3234(9) 0.6867(3) 0.6129(4)
H24? H 0.4373 0.7085 0.5914
C33? C 0.1809(9) 0.7268(3) 0.6513(4)
H25? H 0.1973 0.7759 0.6562
C34? C 0.0142(9) 0.6950(3) 0.6827(4)
H26? H -0.0832 0.7224 0.7090
loop_
_geom_bond_atom_site_label_1
_geom_bond_atom_site_label_2
_geom_bond_site_symmetry_1
_geom_bond_site_symmetry_2
N1 C1 1_555 1_555
C1 C2 1_555 1_555
C2 H1 1_555 1_555
C3 C2 1_555 1_555
H2 C3 1_555 1_555
C4 C3 1_555 1_555
C5 N1 1_555 1_555
C6 C5 1_555 1_555
H3 C6 1_555 1_555
C7 C6 1_555 1_555
H4 C7 1_555 1_555
C8 C7 1_555 1_555
H5 C8 1_555 1_555
C9 C4 1_555 1_555
H6 C9 1_555 1_555
C10 C1 1_555 1_555
H7 C10 1_555 1_555
C11 C10 1_555 1_555
H8 C11 1_555 1_555
C12 C11 1_555 1_555
C13 C12 1_555 1_555
H9 C13 1_555 1_555
C14 C13 1_555 1_555
H10 C14 1_555 1_555
C15 C14 1_555 1_555
H11 C15 1_555 1_555
C16 C15 1_555 1_555
H12 C16 1_555 1_555
C17 C12 1_555 1_555
H13 C17 1_555 1_555
C4 C5 1_555 1_555
C8 C9 1_555 1_555
C16 C17 1_555 1_555

#END
