
#######################################################################
#
#                 Cambridge Crystallographic Data Centre
#                                CCDC 
#
#######################################################################
#
# If this CIF has been generated from an entry in the Cambridge 
# Structural Database, then it will include bibliographic, chemical, 
# crystal, experimental, refinement or atomic coordinate data resulting 
# from the CCDC's data processing and validation procedures.
#
#######################################################################

data_GEGSIU
_chemical_formula_moiety         'C16 Cl10'
_chemical_name_systematic        Decachlorofluoranthene
_symmetry_cell_setting           triclinic
_symmetry_space_group_name_H-M   'P -1'
_symmetry_Int_Tables_number      2
_space_group_name_Hall           '-P 1'
loop_
_symmetry_equiv_pos_site_id
_symmetry_equiv_pos_as_xyz
1 x,y,z
2 -x,-y,-z
_cell_length_a                   7.4590(7)
_cell_length_b                   11.4920(7)
_cell_length_c                   11.8800(8)
_cell_angle_alpha                112.346(5)
_cell_angle_beta                 90.858(6)
_cell_angle_gamma                106.277(6)
_cell_volume                     895.604
_exptl_crystal_colour            orange
_exptl_crystal_description       prism
_cell_formula_units_Z            2
loop_
_atom_site_label
_atom_site_type_symbol
_atom_site_fract_x
_atom_site_fract_y
_atom_site_fract_z
Cl1 Cl 0.0625(3) 0.1736(2) 1.0167(2)
Cl2 Cl 0.1339(3) 0.4668(2) 1.1822(2)
Cl3 Cl 0.2986(3) 0.6837(2) 1.0846(2)
Cl4 Cl 0.4064(3) 0.6108(2) 0.8239(2)
Cl5 Cl 0.1961(4) 0.4453(2) 0.5596(2)
Cl6 Cl 0.2167(3) 0.2409(2) 0.3119(2)
Cl7 Cl 0.2462(3) -0.0258(2) 0.2759(2)
Cl8 Cl 0.2519(3) -0.2104(2) 0.4029(2)
Cl9 Cl 0.2880(3) -0.2273(2) 0.6492(2)
Cl10 Cl 0.3217(3) 0.0070(2) 0.8909(2)
C1 C 0.2272(10) 0.2584(6) 0.8459(6)
C2 C 0.1717(10) 0.2913(7) 0.9631(6)
C3 C 0.1933(10) 0.4229(7) 1.0342(6)
C4 C 0.2641(10) 0.5198(7) 0.9909(6)
C5 C 0.2993(10) 0.4852(7) 0.8683(6)
C6 C 0.2623(9) 0.3527(6) 0.7920(6)
C7 C 0.2583(10) 0.2787(7) 0.6581(6)
C8 C 0.2374(11) 0.3052(7) 0.5555(7)
C9 C 0.2351(10) 0.2049(7) 0.4397(6)
C10 C 0.2454(11) 0.0820(7) 0.4223(7)
C11 C 0.2501(10) 0.0474(7) 0.5269(6)
C12 C 0.2571(10) -0.0733(7) 0.5325(7)
C13 C 0.2710(11) -0.0839(7) 0.6439(7)
C14 C 0.2688(10) 0.0207(7) 0.7577(7)
C15 C 0.2400(10) 0.1325(6) 0.7533(6)
C16 C 0.2487(10) 0.1483(6) 0.6404(6)
loop_
_geom_bond_atom_site_label_1
_geom_bond_atom_site_label_2
_geom_bond_site_symmetry_1
_geom_bond_site_symmetry_2
Cl1 C2 1_555 1_555
Cl2 C3 1_555 1_555
Cl3 C4 1_555 1_555
Cl4 C5 1_555 1_555
Cl5 C8 1_555 1_555
Cl6 C9 1_555 1_555
Cl7 C10 1_555 1_555
Cl8 C12 1_555 1_555
Cl9 C13 1_555 1_555
Cl10 C14 1_555 1_555
C1 C2 1_555 1_555
C2 C3 1_555 1_555
C3 C4 1_555 1_555
C4 C5 1_555 1_555
C5 C6 1_555 1_555
C6 C1 1_555 1_555
C7 C6 1_555 1_555
C8 C7 1_555 1_555
C9 C8 1_555 1_555
C10 C9 1_555 1_555
C11 C10 1_555 1_555
C12 C11 1_555 1_555
C13 C12 1_555 1_555
C14 C13 1_555 1_555
C15 C1 1_555 1_555
C16 C7 1_555 1_555
C11 C16 1_555 1_555
C14 C15 1_555 1_555
C15 C16 1_555 1_555

#END
