
#######################################################################
#
#                 Cambridge Crystallographic Data Centre
#                                CCDC 
#
#######################################################################
#
# If this CIF has been generated from an entry in the Cambridge 
# Structural Database, then it will include bibliographic, chemical, 
# crystal, experimental, refinement or atomic coordinate data resulting 
# from the CCDC's data processing and validation procedures.
#
#######################################################################

data_GEGSUI
_chemical_formula_moiety         'C27 H24 Br3 N1'
_chemical_name_systematic        
2,6,10-Tribromo-4,4,8,8,12,12-hexamethyl-4H,8H,12H-benzo[1,9]quinolizino[3,4,5,6,7-defg]acridine
_symmetry_cell_setting           orthorhombic
_symmetry_space_group_name_H-M   'P 21 21 21'
_symmetry_Int_Tables_number      19
_space_group_name_Hall           'P 2ac 2ab'
loop_
_symmetry_equiv_pos_site_id
_symmetry_equiv_pos_as_xyz
1 x,y,z
2 1/2-x,-y,1/2+z
3 -x,1/2+y,1/2-z
4 1/2+x,1/2-y,-z
_cell_length_a                   7.5089(4)
_cell_length_b                   14.4140(7)
_cell_length_c                   21.5562(10)
_cell_angle_alpha                90
_cell_angle_beta                 90
_cell_angle_gamma                90
_cell_volume                     2333.1
_exptl_crystal_colour            colorless
_exptl_crystal_description       'long rod'
_cell_formula_units_Z            4
loop_
_atom_site_label
_atom_site_type_symbol
_atom_site_fract_x
_atom_site_fract_y
_atom_site_fract_z
Br1 Br 0.79639(6) -0.16221(3) 0.35814(2)
Br2 Br -0.26459(6) 0.21982(3) 0.165391(15)
Br3 Br -0.21936(8) 0.09910(5) 0.649541(18)
N1 N 0.0900(4) 0.0424(2) 0.39089(12)
C1 C 0.2493(5) -0.0105(2) 0.38268(13)
C2 C 0.3262(5) -0.0578(2) 0.43312(15)
C3 C 0.4879(5) -0.1026(2) 0.42496(16)
H1 H 0.5397 -0.1337 0.4582
C4 C 0.5724(5) -0.1019(2) 0.36874(17)
C5 C 0.4936(5) -0.0605(3) 0.31889(16)
H2 H 0.5500 -0.0621 0.2805
C6 C 0.3315(5) -0.0165(2) 0.32464(15)
C7 C 0.2480(5) 0.0199(2) 0.26550(14)
C8 C 0.0772(5) 0.0719(2) 0.27886(16)
C9 C -0.0105(5) 0.1111(3) 0.22858(16)
H3 H 0.0319 0.1000 0.1887
C10 C -0.1568(5) 0.1653(3) 0.23636(15)
C11 C -0.2180(5) 0.1845(2) 0.29465(14)
H4 H -0.3140 0.2246 0.2997
C12 C -0.1383(4) 0.1448(2) 0.34644(14)
C13 C 0.0099(5) 0.0866(2) 0.33924(14)
C14 C -0.2085(5) 0.1732(2) 0.40963(14)
C15 C -0.1228(5) 0.1173(3) 0.46083(15)
C16 C 0.0180(5) 0.0551(2) 0.45111(14)
C17 C 0.0865(5) 0.0045(3) 0.50181(15)
C18 C 0.0113(6) 0.0174(3) 0.56036(16)
H5 H 0.0528 -0.0173 0.5937
C19 C -0.1216(6) 0.0797(3) 0.56937(16)
C20 C -0.1875(6) 0.1299(3) 0.52009(16)
H6 H -0.2774 0.1731 0.5269
C21 C 0.2355(5) -0.0662(2) 0.49585(14)
C22 C 0.2062(6) -0.0638(3) 0.22323(16)
H7 H 0.1312 -0.1067 0.2451
H8 H 0.3152 -0.0941 0.2118
H9 H 0.1461 -0.0427 0.1865
C23 C 0.3762(5) 0.0870(3) 0.23314(18)
H10 H 0.3234 0.1088 0.1953
H11 H 0.4857 0.0554 0.2239
H12 H 0.4000 0.1387 0.2599
C24 C -0.1699(6) 0.2769(3) 0.42001(18)
H13 H -0.2077 0.2944 0.4609
H14 H -0.2334 0.3129 0.3898
H15 H -0.0444 0.2880 0.4158
C25 C -0.4127(5) 0.1589(3) 0.41173(17)
H16 H -0.4393 0.0941 0.4074
H17 H -0.4673 0.1928 0.3784
H18 H -0.4581 0.1810 0.4506
C26 C 0.3732(7) -0.0516(4) 0.54806(19)
H19 H 0.4607 -0.1001 0.5465
H20 H 0.3141 -0.0530 0.5875
H21 H 0.4306 0.0073 0.5427
C27 C 0.1548(8) -0.1641(3) 0.5012(2)
H22 H 0.0672 -0.1726 0.4693
H23 H 0.0997 -0.1711 0.5411
H24 H 0.2473 -0.2096 0.4966
loop_
_geom_bond_atom_site_label_1
_geom_bond_atom_site_label_2
_geom_bond_site_symmetry_1
_geom_bond_site_symmetry_2
Br1 C4 1_555 1_555
Br2 C10 1_555 1_555
Br3 C19 1_555 1_555
N1 C1 1_555 1_555
C1 C2 1_555 1_555
C2 C3 1_555 1_555
C3 H1 1_555 1_555
C4 C3 1_555 1_555
C5 C4 1_555 1_555
H2 C5 1_555 1_555
C6 C1 1_555 1_555
C7 C6 1_555 1_555
C8 C7 1_555 1_555
C9 C8 1_555 1_555
H3 C9 1_555 1_555
C10 C9 1_555 1_555
C11 C10 1_555 1_555
H4 C11 1_555 1_555
C12 C11 1_555 1_555
C13 N1 1_555 1_555
C14 C12 1_555 1_555
C15 C14 1_555 1_555
C16 N1 1_555 1_555
C17 C16 1_555 1_555
C18 C17 1_555 1_555
H5 C18 1_555 1_555
C19 C18 1_555 1_555
C20 C15 1_555 1_555
H6 C20 1_555 1_555
C21 C2 1_555 1_555
C22 C7 1_555 1_555
H7 C22 1_555 1_555
H8 C22 1_555 1_555
H9 C22 1_555 1_555
C23 C7 1_555 1_555
H10 C23 1_555 1_555
H11 C23 1_555 1_555
H12 C23 1_555 1_555
C24 C14 1_555 1_555
H13 C24 1_555 1_555
H14 C24 1_555 1_555
H15 C24 1_555 1_555
C25 C14 1_555 1_555
H16 C25 1_555 1_555
H17 C25 1_555 1_555
H18 C25 1_555 1_555
C26 C21 1_555 1_555
H19 C26 1_555 1_555
H20 C26 1_555 1_555
H21 C26 1_555 1_555
C27 C21 1_555 1_555
H22 C27 1_555 1_555
H23 C27 1_555 1_555
H24 C27 1_555 1_555
C5 C6 1_555 1_555
C8 C13 1_555 1_555
C12 C13 1_555 1_555
C15 C16 1_555 1_555
C17 C21 1_555 1_555
C19 C20 1_555 1_555

#END
