
#######################################################################
#
#                 Cambridge Crystallographic Data Centre
#                                CCDC 
#
#######################################################################
#
# If this CIF has been generated from an entry in the Cambridge 
# Structural Database, then it will include bibliographic, chemical, 
# crystal, experimental, refinement or atomic coordinate data resulting 
# from the CCDC's data processing and validation procedures.
#
#######################################################################

data_GEGYUN
_chemical_formula_moiety         'C18 H14 O2 S3,0.5(C4 H8 O2)'
_chemical_name_systematic        
'9-(4,5-dimethyl-1,3-dithiol-2-ylidene)thioxanthene S,S-dioxide ethyl acetate solvate'
_symmetry_cell_setting           triclinic
_symmetry_space_group_name_H-M   'P -1'
_symmetry_Int_Tables_number      2
_space_group_name_Hall           '-P 1'
loop_
_symmetry_equiv_pos_site_id
_symmetry_equiv_pos_as_xyz
1 x,y,z
2 -x,-y,-z
_cell_length_a                   7.713(1)
_cell_length_b                   10.907(1)
_cell_length_c                   12.042(1)
_cell_angle_alpha                81.42(1)
_cell_angle_beta                 77.72(1)
_cell_angle_gamma                71.13(1)
_cell_volume                     933.115
_exptl_crystal_colour            yellow
_chemical_melting_point          '243-244 deg.C'
_cell_formula_units_Z            2
loop_
_atom_site_label
_atom_site_type_symbol
_atom_site_fract_x
_atom_site_fract_y
_atom_site_fract_z
S1 S 0.19849(4) 0.72908(3) 0.40204(3)
S2 S 0.21190(4) 0.52678(3) 0.03165(2)
S3 S -0.04959(5) 0.78691(3) 0.02297(3)
O1 O 0.33652(14) 0.76333(10) 0.31241(9)
O2 O 0.20520(17) 0.74527(11) 0.51762(9)
C1 C 0.16434(17) 0.41443(12) 0.28537(10)
H1 H 0.1191 0.3939 0.2254
C2 C 0.25466(19) 0.31480(12) 0.35879(11)
H2 H 0.2736 0.2272 0.3464
C3 C 0.31804(18) 0.34139(13) 0.44973(11)
H3 H 0.3779 0.2724 0.4997
C4 C 0.29285(17) 0.46939(13) 0.46654(10)
H4 H 0.3332 0.4891 0.5290
C5 C -0.1341(2) 0.92051(13) 0.43030(12)
H5 H -0.0921 0.9453 0.4895
C6 C -0.3059(2) 0.99007(13) 0.40140(15)
H6 H -0.3793 1.0660 0.4378
C7 C -0.3696(2) 0.94870(14) 0.31897(14)
H7 H -0.4892 0.9947 0.3015
C8 C -0.26104(18) 0.84004(13) 0.26222(12)
H8 H -0.3081 0.8123 0.2070
C9 C 0.03789(15) 0.65462(11) 0.22652(9)
C10 C 0.13919(15) 0.54468(11) 0.29903(9)
C11 C 0.20752(16) 0.56845(11) 0.39064(9)
C12 C -0.02373(17) 0.81360(12) 0.37105(10)
C13 C -0.08235(16) 0.77121(11) 0.28472(10)
C14 C 0.06034(16) 0.65371(12) 0.11078(10)
C15 C 0.1976(2) 0.61084(16) -0.10442(10)
C16 C 0.0784(2) 0.73064(16) -0.10821(11)
C17 C 0.3232(3) 0.5375(2) -0.20274(13)
H9 H 0.3054(16) 0.5912(10) -0.2726(10)
H10 H 0.2936(15) 0.4590(14) -0.2049(8)
H11 H 0.4505(18) 0.5162(14) -0.1936(7)
C18 C 0.0392(3) 0.8271(2) -0.21005(14)
H12 H 0.1030(19) 0.7876(7) -0.2780(9)
H13 H 0.079(2) 0.8992(12) -0.2054(7)
H14 H -0.0903(18) 0.8556(12) -0.2104(7)
O3? O 0.5081(3) -0.0020(2) 0.02241(15)
O4? O 0.6060(3) -0.1072(2) -0.13648(19)
C19? C 0.5212(4) -0.0974(3) -0.0410(2)
C20? C 0.4159(6) -0.1875(4) 0.0229(4)
H15? H 0.4295 -0.2536 -0.0253
H16? H 0.4656 -0.2270 0.0906
H17? H 0.2866 -0.1409 0.0433
C21? C 0.6014(5) 0.0932(3) -0.0325(3)
H18? H 0.5694 0.1244 -0.1065
H19? H 0.7336 0.0549 -0.0410
C22? C 0.5369(6) 0.2020(4) 0.0425(5)
H20? H 0.5955 0.2675 0.0098
H21? H 0.4045 0.2390 0.0503
H22? H 0.5695 0.1691 0.1160
loop_
_geom_bond_atom_site_label_1
_geom_bond_atom_site_label_2
_geom_bond_site_symmetry_1
_geom_bond_site_symmetry_2
S1 O1 1_555 1_555
S2 C14 1_555 1_555
S3 C14 1_555 1_555
O2 S1 1_555 1_555
C1 H1 1_555 1_555
C2 C1 1_555 1_555
H2 C2 1_555 1_555
C3 C2 1_555 1_555
H3 C3 1_555 1_555
C4 C3 1_555 1_555
H4 C4 1_555 1_555
C5 H5 1_555 1_555
C6 C5 1_555 1_555
H6 C6 1_555 1_555
C7 C6 1_555 1_555
H7 C7 1_555 1_555
C8 C7 1_555 1_555
H8 C8 1_555 1_555
C9 C10 1_555 1_555
C10 C1 1_555 1_555
C11 S1 1_555 1_555
C12 S1 1_555 1_555
C13 C8 1_555 1_555
C14 C9 1_555 1_555
C15 S2 1_555 1_555
C16 S3 1_555 1_555
C17 C15 1_555 1_555
H9 C17 1_555 1_555
H10 C17 1_555 1_555
H11 C17 1_555 1_555
C18 C16 1_555 1_555
H12 C18 1_555 1_555
H13 C18 1_555 1_555
H14 C18 1_555 1_555
C4 C11 1_555 1_555
C5 C12 1_555 1_555
C9 C13 1_555 1_555
C10 C11 1_555 1_555
C12 C13 1_555 1_555
C15 C16 1_555 1_555

#END
