
#######################################################################
#
#                 Cambridge Crystallographic Data Centre
#                                CCDC 
#
#######################################################################
#
# If this CIF has been generated from an entry in the Cambridge 
# Structural Database, then it will include bibliographic, chemical, 
# crystal, experimental, refinement or atomic coordinate data resulting 
# from the CCDC's data processing and validation procedures.
#
#######################################################################

data_GEGYOH
_chemical_formula_moiety         'C18 H14 S3'
_chemical_name_systematic        
9-(4,5-dimethyl-1,3-dithiol-2-ylidene)thioxanthene
_symmetry_cell_setting           monoclinic
_symmetry_space_group_name_H-M   'P 21/n'
_symmetry_Int_Tables_number      14
_space_group_name_Hall           '-P 2yn'
loop_
_symmetry_equiv_pos_site_id
_symmetry_equiv_pos_as_xyz
1 x,y,z
2 1/2-x,1/2+y,1/2-z
3 -x,-y,-z
4 1/2+x,1/2-y,1/2+z
_cell_length_a                   9.978(2)
_cell_length_b                   7.797(1)
_cell_length_c                   19.429(3)
_cell_angle_alpha                90
_cell_angle_beta                 91.87(1)
_cell_angle_gamma                90
_cell_volume                     1510.74
_exptl_crystal_colour            yellow
_exptl_crystal_description       block
_cell_formula_units_Z            4
loop_
_atom_site_label
_atom_site_type_symbol
_atom_site_fract_x
_atom_site_fract_y
_atom_site_fract_z
S1 S 0.67099(4) 0.14509(6) 0.24389(2)
S2 S 0.58044(4) 0.26801(6) 0.51297(2)
S3 S 0.32417(4) 0.25253(6) 0.43714(2)
C1 C 0.79203(18) 0.4015(2) 0.41611(10)
H1 H 0.754(2) 0.469(3) 0.4518(11)
C2 C 0.93028(18) 0.3886(3) 0.41219(10)
H2 H 0.987(2) 0.448(3) 0.4456(10)
C3 C 0.98646(19) 0.2961(3) 0.35955(10)
H3 H 1.079(2) 0.288(3) 0.3563(12)
C4 C 0.90495(18) 0.2221(2) 0.30924(10)
H4 H 0.944(2) 0.164(3) 0.2721(12)
C5 C 0.44910(19) 0.2857(2) 0.18388(10)
H5 H 0.479(2) 0.230(3) 0.1444(12)
C6 C 0.33226(19) 0.3810(2) 0.18157(10)
H6 H 0.282(2) 0.394(3) 0.1406(11)
C7 C 0.29007(19) 0.4620(3) 0.24076(10)
H7 H 0.211(2) 0.528(3) 0.2402(11)
C8 C 0.36335(18) 0.4436(2) 0.30204(10)
H8 H 0.336(2) 0.504(3) 0.3416(11)
C9 C 0.55855(17) 0.3219(2) 0.37188(9)
C10 C 0.70677(17) 0.3222(2) 0.36731(9)
C11 C 0.76565(18) 0.2377(2) 0.31214(9)
C12 C 0.52339(17) 0.2681(2) 0.24567(9)
C13 C 0.48023(17) 0.3434(2) 0.30663(9)
C14 C 0.49762(17) 0.2909(2) 0.43221(9)
C15 C 0.44313(18) 0.1901(2) 0.55780(10)
C16 C 0.32608(18) 0.1809(2) 0.52273(10)
C17 C 0.4707(2) 0.1449(3) 0.63158(10)
H9 H 0.519(2) 0.238(3) 0.6568(13)
H10 H 0.388(3) 0.124(3) 0.6524(13)
H11 H 0.520(3) 0.037(4) 0.6350(13)
C18 C 0.1948(2) 0.1163(3) 0.54771(12)
H12 H 0.198(3) 0.104(3) 0.5947(15)
H13 H 0.120(3) 0.190(3) 0.5342(13)
H14 H 0.170(3) 0.002(4) 0.5289(13)
loop_
_geom_bond_atom_site_label_1
_geom_bond_atom_site_label_2
_geom_bond_site_symmetry_1
_geom_bond_site_symmetry_2
S1 C11 1_555 1_555
S2 C14 1_555 1_555
S3 C14 1_555 1_555
C1 H1 1_555 1_555
C2 C1 1_555 1_555
H2 C2 1_555 1_555
C3 C2 1_555 1_555
H3 C3 1_555 1_555
C4 C3 1_555 1_555
H4 C4 1_555 1_555
C5 H5 1_555 1_555
C6 C5 1_555 1_555
H6 C6 1_555 1_555
C7 C6 1_555 1_555
H7 C7 1_555 1_555
C8 C7 1_555 1_555
H8 C8 1_555 1_555
C9 C10 1_555 1_555
C10 C1 1_555 1_555
C11 C4 1_555 1_555
C12 S1 1_555 1_555
C13 C8 1_555 1_555
C14 C9 1_555 1_555
C15 S2 1_555 1_555
C16 S3 1_555 1_555
C17 C15 1_555 1_555
H9 C17 1_555 1_555
H10 C17 1_555 1_555
H11 C17 1_555 1_555
C18 C16 1_555 1_555
H12 C18 1_555 1_555
H13 C18 1_555 1_555
H14 C18 1_555 1_555
C5 C12 1_555 1_555
C9 C13 1_555 1_555
C10 C11 1_555 1_555
C12 C13 1_555 1_555
C15 C16 1_555 1_555

#END
