
#######################################################################
#
#                 Cambridge Crystallographic Data Centre
#                                CCDC 
#
#######################################################################
#
# If this CIF has been generated from an entry in the Cambridge 
# Structural Database, then it will include bibliographic, chemical, 
# crystal, experimental, refinement or atomic coordinate data resulting 
# from the CCDC's data processing and validation procedures.
#
#######################################################################

data_GEGYEX
_chemical_formula_moiety         'C18 H12 I2 S2'
_chemical_name_systematic        
2,7-di-iodo-9-(4,5-dimethyl-1,3-dithiol-2-ylidene)fluorene
_symmetry_cell_setting           monoclinic
_symmetry_space_group_name_H-M   'P 21/n'
_symmetry_Int_Tables_number      14
_space_group_name_Hall           '-P 2yn'
loop_
_symmetry_equiv_pos_site_id
_symmetry_equiv_pos_as_xyz
1 x,y,z
2 1/2-x,1/2+y,1/2-z
3 -x,-y,-z
4 1/2+x,1/2-y,1/2+z
_cell_length_a                   7.867(1)
_cell_length_b                   17.522(3)
_cell_length_c                   12.147(2)
_cell_angle_alpha                90
_cell_angle_beta                 94.58(1)
_cell_angle_gamma                90
_cell_volume                     1669.06
_exptl_crystal_colour            yellow
_exptl_crystal_description       prism
_chemical_melting_point          '543 K (dec.)'
_cell_formula_units_Z            4
_exptl_crystal_recrystallization_method chlorobenzene
loop_
_atom_site_label
_atom_site_type_symbol
_atom_site_fract_x
_atom_site_fract_y
_atom_site_fract_z
I1 I 0.548183(19) 0.618971(8) 0.994314(11)
I2 I 0.003509(19) 0.498477(8) 0.152971(11)
S1 S 0.50714(7) 0.37685(3) 0.70702(4)
S2 S 0.34851(7) 0.34467(3) 0.48935(4)
C1 C 0.4406(3) 0.54993(12) 0.77101(18)
H1 H 0.502(3) 0.5093(14) 0.800(2)
C2 C 0.4336(3) 0.61676(12) 0.83226(17)
C3 C 0.3464(3) 0.68158(12) 0.79209(18)
H2 H 0.340(3) 0.7254(15) 0.840(2)
C4 C 0.2621(3) 0.67983(12) 0.68706(18)
H3 H 0.205(3) 0.7260(15) 0.660(2)
C5 C 0.0912(3) 0.64278(12) 0.44123(18)
H4 H 0.065(4) 0.6977(16) 0.456(2)
C6 C 0.0350(3) 0.61364(12) 0.33830(18)
H5 H -0.032(3) 0.6442(13) 0.2865(19)
C7 C 0.0778(3) 0.53920(12) 0.31178(17)
C8 C 0.1724(3) 0.49160(12) 0.38486(18)
H6 H 0.196(3) 0.4444(15) 0.365(2)
C9 C 0.3309(3) 0.48693(11) 0.58284(17)
C10 C 0.3534(3) 0.54750(11) 0.66638(17)
C11 C 0.2649(3) 0.61344(12) 0.62525(17)
C12 C 0.1885(3) 0.59653(11) 0.51487(17)
C13 C 0.2284(3) 0.52082(12) 0.48863(17)
C14 C 0.3884(3) 0.41342(12) 0.59184(16)
C15 C 0.5389(3) 0.28517(12) 0.65520(17)
C16 C 0.4647(3) 0.27059(11) 0.55463(18)
C17 C 0.6484(3) 0.23310(13) 0.7289(2)
H7 H 0.615(4) 0.2301(17) 0.800(3)
H8 H 0.636(4) 0.1806(18) 0.710(2)
H9 H 0.770(4) 0.2457(16) 0.734(2)
C18 C 0.4682(3) 0.19761(13) 0.4904(2)
H10 H 0.511(4) 0.2082(17) 0.420(3)
H11 H 0.362(5) 0.1738(19) 0.485(3)
H12 H 0.556(5) 0.161(2) 0.522(3)
loop_
_geom_bond_atom_site_label_1
_geom_bond_atom_site_label_2
_geom_bond_site_symmetry_1
_geom_bond_site_symmetry_2
I1 C2 1_555 1_555
I2 C7 1_555 1_555
S1 C14 1_555 1_555
S2 C14 1_555 1_555
C1 H1 1_555 1_555
C2 C1 1_555 1_555
C3 C2 1_555 1_555
H2 C3 1_555 1_555
C4 C3 1_555 1_555
H3 C4 1_555 1_555
C5 H4 1_555 1_555
C6 C5 1_555 1_555
H5 C6 1_555 1_555
C7 C6 1_555 1_555
C8 C7 1_555 1_555
H6 C8 1_555 1_555
C9 C10 1_555 1_555
C10 C1 1_555 1_555
C11 C4 1_555 1_555
C12 C5 1_555 1_555
C13 C8 1_555 1_555
C14 C9 1_555 1_555
C15 S1 1_555 1_555
C16 S2 1_555 1_555
C17 C15 1_555 1_555
H7 C17 1_555 1_555
H8 C17 1_555 1_555
H9 C17 1_555 1_555
C18 C16 1_555 1_555
H10 C18 1_555 1_555
H11 C18 1_555 1_555
H12 C18 1_555 1_555
C9 C13 1_555 1_555
C10 C11 1_555 1_555
C11 C12 1_555 1_555
C12 C13 1_555 1_555
C15 C16 1_555 1_555

#END
