
#######################################################################
#
#                 Cambridge Crystallographic Data Centre
#                                CCDC 
#
#######################################################################
#
# If this CIF has been generated from an entry in the Cambridge 
# Structural Database, then it will include bibliographic, chemical, 
# crystal, experimental, refinement or atomic coordinate data resulting 
# from the CCDC's data processing and validation procedures.
#
#######################################################################

data_GEGZOK
_chemical_formula_moiety         'C144 H132 Br12'
_chemical_name_systematic        
'4,5,11,12,18,19,25,26,31,32,37,38-dodecabromo-1^2^,1^4^,1^6^,8^2^,8^4^,8^6^,15^2^,15^4^,15^6^,22^2^,22^4^,22^6^-dodecathyl-1,8,15,22(1,3,5)-3,6,10,13,17,20,24,27,30,33,36,39(1,4)-hexadecabenzenatricyclo[13.13.6.6^8,22^]tetraconta-4,11,18,25,31,37-hexaene unknown solvate'
_symmetry_cell_setting           monoclinic
_symmetry_space_group_name_H-M   'C 2/c'
_symmetry_Int_Tables_number      15
_space_group_name_Hall           '-C 2yn'
loop_
_symmetry_equiv_pos_site_id
_symmetry_equiv_pos_as_xyz
1 x,y,z
2 -x,y,1/2-z
3 1/2+x,1/2+y,z
4 1/2-x,1/2+y,1/2-z
5 -x,-y,-z
6 x,-y,1/2+z
7 1/2-x,1/2-y,-z
8 1/2+x,1/2-y,1/2+z
_cell_length_a                   43.8917(19)
_cell_length_b                   20.3623(8)
_cell_length_c                   25.1357(10)
_cell_angle_alpha                90
_cell_angle_beta                 121.4860(10)
_cell_angle_gamma                90
_cell_volume                     19157.2
_exptl_crystal_colour            colorless
_exptl_crystal_description       block
_cell_formula_units_Z            4
_exptl_crystal_recrystallization_method chloroform/toluene
loop_
_atom_site_label
_atom_site_type_symbol
_atom_site_fract_x
_atom_site_fract_y
_atom_site_fract_z
C1 C 0.35198(12) 0.0427(2) 0.3771(2)
C2 C 0.36689(12) -0.0142(2) 0.4131(2)
C3 C 0.40073(12) -0.0354(2) 0.4270(2)
C4 C 0.42043(12) 0.0015(2) 0.4083(2)
C5 C 0.40554(13) 0.0588(2) 0.3735(2)
C6 C 0.37100(13) 0.0789(2) 0.3568(2)
C7 C 0.31486(13) 0.0657(2) 0.3604(2)
H1 H 0.3014 0.0270 0.3611
H2 H 0.3023 0.0823 0.3170
C8 C 0.3131(3) 0.1192(4) 0.4019(5)
C9 C 0.2813(3) 0.1532(4) 0.3805(3)
H3 H 0.2612 0.1441 0.3403
C10 C 0.2789(2) 0.2005(4) 0.4179(3)
H4 H 0.2571 0.2238 0.4033
C11 C 0.3082(2) 0.2139(3) 0.4768(3)
C12 C 0.3400(2) 0.1799(4) 0.4982(4)
H5 H 0.3601 0.1890 0.5384
C13 C 0.3424(3) 0.1325(4) 0.4608(5)
H6 H 0.3642 0.1092 0.4754
C14 C 0.3043(2) 0.2619(4) 0.5183(4)
C15 C 0.2958(2) 0.3248(4) 0.5067(4)
Br1 Br 0.30845(8) 0.22349(15) 0.59064(16)
Br2 Br 0.28874(7) 0.36440(9) 0.43001(11)
C16 C 0.29015(16) 0.3724(3) 0.5473(3)
C17 C 0.25799(17) 0.4066(4) 0.5184(3)
H7 H 0.2405 0.3979 0.4760
C18 C 0.2515(2) 0.4533(4) 0.5516(4)
H8 H 0.2295 0.4766 0.5319
C19 C 0.2771(3) 0.4659(4) 0.6137(4)
C20 C 0.3093(2) 0.4318(4) 0.6425(3)
H9 H 0.3268 0.4404 0.6849
C21 C 0.31581(16) 0.3850(3) 0.6093(3)
H10 H 0.3378 0.3617 0.6291
C22 C 0.26779(14) 0.5138(3) 0.6502(3)
H11 H 0.2518 0.5480 0.6208
H12 H 0.2539 0.4893 0.6646
C23 C 0.34705(15) -0.0520(3) 0.4376(3)
H13 H 0.3325 -0.0209 0.4454
H14 H 0.3646 -0.0725 0.4779
C24 C 0.32254(16) -0.1058(3) 0.3928(3)
H15 H 0.3106 -0.1286 0.4113
H16 H 0.3368 -0.1372 0.3853
H17 H 0.3045 -0.0858 0.3532
C25 C 0.41675(13) -0.0975(2) 0.4636(2)
H18 H 0.4302 -0.1198 0.4471
H19 H 0.3971 -0.1272 0.4567
C26 C 0.44169(13) -0.0872(3) 0.5336(2)
C27 C 0.44474(18) -0.0276(3) 0.5613(2)
H20 H 0.4315 0.0090 0.5364
C28 C 0.4674(2) -0.0199(3) 0.6265(3)
H21 H 0.4700 0.0219 0.6454
C29 C 0.48565(14) -0.0736(3) 0.6625(2)
C30 C 0.48299(18) -0.1316(4) 0.6347(3)
H22 H 0.4963 -0.1682 0.6594
C31 C 0.46111(16) -0.1389(3) 0.5708(3)
H23 H 0.4595 -0.1804 0.5524
C32 C 0.50615(13) -0.0693(3) 0.7313(2)
C33 C 0.45774(13) -0.0204(3) 0.4262(2)
H24 H 0.4687 -0.0445 0.4663
H25 H 0.4725 0.0190 0.4327
C34 C 0.45813(15) -0.0645(3) 0.3771(3)
H26 H 0.4827 -0.0785 0.3921
H27 H 0.4488 -0.0399 0.3381
H28 H 0.4431 -0.1031 0.3698
C35 C 0.42683(14) 0.1007(3) 0.3546(2)
H29 H 0.4104 0.1178 0.3120
H30 H 0.4447 0.0725 0.3529
C36 C 0.44612(13) 0.1583(3) 0.3974(2)
C37 C 0.46329(18) 0.1542(3) 0.4627(3)
H31 H 0.4598 0.1165 0.4812
C38 C 0.4850(2) 0.2038(4) 0.5000(3)
H32 H 0.4970 0.1994 0.5440
C39 C 0.48995(18) 0.2604(3) 0.4748(3)
C40 C 0.47103(16) 0.2669(3) 0.4105(3)
H33 H 0.4726 0.3068 0.3924
C41 C 0.44999(13) 0.2164(3) 0.3724(3)
H34 H 0.4380 0.2214 0.3284
C42 C 0.64663(12) 0.5347(2) 0.6158(3)
H35 H 0.6655 0.5093 0.6146
H36 H 0.6406 0.5727 0.5875
C43 C 0.29840(12) 0.5483(2) 0.7065(3)
C44 C 0.31356(12) 0.6044(2) 0.6968(2)
C45 C 0.33975(12) 0.6394(2) 0.7484(2)
C46 C 0.35234(12) 0.6173(2) 0.8087(2)
C47 C 0.33832(12) 0.5600(2) 0.8188(2)
C48 C 0.31111(12) 0.5254(2) 0.7671(3)
C49 C 0.30105(15) 0.6274(3) 0.6315(3)
H37 H 0.2933 0.5887 0.6035
H38 H 0.3215 0.6477 0.6312
C50 C 0.27002(17) 0.6774(4) 0.6054(3)
H39 H 0.2630 0.6894 0.5627
H40 H 0.2778 0.7168 0.6316
H41 H 0.2496 0.6578 0.6053
C51 C 0.35503(13) 0.7016(2) 0.7376(2)
H42 H 0.3363 0.7224 0.6984
H43 H 0.3611 0.7326 0.7721
C52 C 0.38794(13) 0.6912(2) 0.7333(2)
C53 C 0.39750(15) 0.7410(3) 0.7063(3)
H44 H 0.3827 0.7786 0.6894
C54 C 0.42806(16) 0.7359(3) 0.7040(3)
H45 H 0.4339 0.7697 0.6847
C55 C 0.45023(15) 0.6824(3) 0.7293(3)
C56 C 0.44097(16) 0.6320(3) 0.7562(3)
H46 H 0.4558 0.5944 0.7732
C57 C 0.40980(15) 0.6372(3) 0.7577(3)
H47 H 0.4035 0.6029 0.7759
C58 C 0.48323(16) 0.6793(4) 0.7271(3)
C59 C 0.38108(13) 0.6558(3) 0.8651(2)
H48 H 0.3959 0.6805 0.8527
H49 H 0.3969 0.6245 0.8983
C60 C 0.36528(17) 0.7040(3) 0.8912(3)
H50 H 0.3845 0.7304 0.9243
H51 H 0.3531 0.6794 0.9082
H52 H 0.3482 0.7330 0.8577
C61 C 0.29539(16) 0.4648(3) 0.7783(3)
H53 H 0.3146 0.4405 0.8144
H54 H 0.2856 0.4359 0.7413
C62 C 0.26566(15) 0.4810(3) 0.7911(3)
H55 H 0.2556 0.4401 0.7961
H56 H 0.2468 0.5060 0.7560
H57 H 0.2755 0.5072 0.8293
C63 C 0.35412(15) 0.1379(2) 0.3147(2)
H58 H 0.3729 0.1705 0.3236
H59 H 0.3370 0.1587 0.3240
C64 C 0.33455(18) 0.1195(3) 0.2454(3)
H60 H 0.3233 0.1587 0.2200
H61 H 0.3162 0.0866 0.2365
H62 H 0.3517 0.1013 0.2355
Br3 Br 0.56212(12) 0.2632(3) 0.5774(2)
Br4 Br 0.47767(4) 0.41688(7) 0.45345(11)
C65 C 0.5178(3) 0.3105(4) 0.5149(13)
C66 C 0.5204(2) 0.3708(4) 0.5092(7)
C67 C 0.55379(16) 0.4105(4) 0.5434(4)
C68 C 0.5714(2) 0.4200(4) 0.5114(3)
H63 H 0.5628 0.3995 0.4721
C69 C 0.6017(2) 0.4593(4) 0.5370(4)
H64 H 0.6138 0.4658 0.5151
C70 C 0.61441(16) 0.4892(3) 0.5945(4)
C71 C 0.59677(18) 0.4798(4) 0.6265(3)
H65 H 0.6054 0.5002 0.6659
C72 C 0.56647(18) 0.4404(4) 0.6009(4)
H66 H 0.5544 0.4339 0.6228
Br5 Br 0.55723(6) -0.0672(6) 0.7701(2)
Br6 Br 0.47446(15) 0.6859(5) 0.64339(17)
C1A C 0.64802(12) 0.0427(2) 1.1229(2)
C2A C 0.63311(12) -0.0142(2) 1.0869(2)
C3A C 0.59927(12) -0.0354(2) 1.0730(2)
C4A C 0.57957(12) 0.0015(2) 1.0917(2)
C5A C 0.59446(13) 0.0588(2) 1.1265(2)
C6A C 0.62900(13) 0.0789(2) 1.1432(2)
C7A C 0.68514(13) 0.0657(2) 1.1396(2)
H1A H 0.6986 0.0270 1.1389
H2A H 0.6977 0.0823 1.1830
C8A C 0.6869(3) 0.1192(4) 1.0981(5)
C9A C 0.7187(3) 0.1532(4) 1.1195(3)
H3A H 0.7388 0.1441 1.1597
C10A C 0.7211(2) 0.2005(4) 1.0821(3)
H4A H 0.7429 0.2238 1.0967
C11A C 0.6918(2) 0.2139(3) 1.0232(3)
C12A C 0.6600(2) 0.1799(4) 1.0018(4)
H5A H 0.6399 0.1890 0.9616
C13A C 0.6576(3) 0.1325(4) 1.0392(5)
H6A H 0.6358 0.1092 1.0246
C14A C 0.6957(2) 0.2619(4) 0.9817(4)
C15A C 0.7042(2) 0.3248(4) 0.9933(4)
Br1A Br 0.69155(8) 0.22349(15) 0.90936(16)
Br2A Br 0.71126(7) 0.36440(9) 1.06999(11)
C16A C 0.70985(16) 0.3724(3) 0.9527(3)
C17A C 0.74201(17) 0.4066(4) 0.9816(3)
H7A H 0.7595 0.3979 1.0240
C18A C 0.7485(2) 0.4533(4) 0.9484(4)
H8A H 0.7705 0.4766 0.9681
C19A C 0.7229(3) 0.4659(4) 0.8863(4)
C20A C 0.6907(2) 0.4318(4) 0.8575(3)
H9A H 0.6732 0.4404 0.8151
C21A C 0.68419(16) 0.3850(3) 0.8907(3)
H10A H 0.6622 0.3617 0.8709
C22A C 0.73221(14) 0.5138(3) 0.8498(3)
H11A H 0.7482 0.5480 0.8792
H12A H 0.7461 0.4893 0.8354
C23A C 0.65295(15) -0.0520(3) 1.0624(3)
H13A H 0.6675 -0.0209 1.0546
H14A H 0.6354 -0.0725 1.0221
C24A C 0.67746(16) -0.1058(3) 1.1072(3)
H15A H 0.6894 -0.1286 1.0887
H16A H 0.6632 -0.1372 1.1147
H17A H 0.6955 -0.0858 1.1468
C25A C 0.58325(13) -0.0975(2) 1.0364(2)
H18A H 0.5698 -0.1198 1.0529
H19A H 0.6029 -0.1272 1.0433
C26A C 0.55831(13) -0.0872(3) 0.9664(2)
C27A C 0.55526(18) -0.0276(3) 0.9387(2)
H20A H 0.5685 0.0090 0.9636
C28A C 0.5326(2) -0.0199(3) 0.8735(3)
H21A H 0.5300 0.0219 0.8546
C29A C 0.51435(14) -0.0736(3) 0.8375(2)
C30A C 0.51701(18) -0.1316(4) 0.8653(3)
H22A H 0.5037 -0.1682 0.8406
C31A C 0.53889(16) -0.1389(3) 0.9292(3)
H23A H 0.5405 -0.1804 0.9476
C32A C 0.49385(13) -0.0693(3) 0.7687(2)
C33A C 0.54226(13) -0.0204(3) 1.0738(2)
H24A H 0.5313 -0.0445 1.0337
H25A H 0.5275 0.0190 1.0673
C34A C 0.54187(15) -0.0645(3) 1.1229(3)
H26A H 0.5173 -0.0785 1.1079
H27A H 0.5512 -0.0399 1.1619
H28A H 0.5569 -0.1031 1.1302
C35A C 0.57317(14) 0.1007(3) 1.1454(2)
H29A H 0.5896 0.1178 1.1880
H30A H 0.5553 0.0725 1.1471
C36A C 0.55388(13) 0.1583(3) 1.1026(2)
C37A C 0.53671(18) 0.1542(3) 1.0373(3)
H31A H 0.5402 0.1165 1.0188
C38A C 0.5150(2) 0.2038(4) 1.0000(3)
H32A H 0.5030 0.1994 0.9560
C39A C 0.51005(18) 0.2604(3) 1.0252(3)
C40A C 0.52897(16) 0.2669(3) 1.0895(3)
H33A H 0.5274 0.3068 1.1076
C41A C 0.55001(13) 0.2164(3) 1.1276(3)
H34A H 0.5620 0.2214 1.1716
C42A C 0.35337(12) 0.5347(2) 0.8842(3)
H35A H 0.3345 0.5093 0.8854
H36A H 0.3594 0.5727 0.9125
C43A C 0.70160(12) 0.5483(2) 0.7935(3)
C44A C 0.68644(12) 0.6044(2) 0.8032(2)
C45A C 0.66025(12) 0.6394(2) 0.7516(2)
C46A C 0.64766(12) 0.6173(2) 0.6913(2)
C47A C 0.66168(12) 0.5600(2) 0.6812(2)
C48A C 0.68889(12) 0.5254(2) 0.7329(3)
C49A C 0.69895(15) 0.6274(3) 0.8685(3)
H37A H 0.7067 0.5887 0.8965
H38A H 0.6785 0.6477 0.8688
C50A C 0.72998(17) 0.6774(4) 0.8946(3)
H39A H 0.7370 0.6894 0.9373
H40A H 0.7222 0.7168 0.8684
H41A H 0.7504 0.6578 0.8947
C51A C 0.64497(13) 0.7016(2) 0.7624(2)
H42A H 0.6637 0.7224 0.8016
H43A H 0.6389 0.7326 0.7279
C52A C 0.61206(13) 0.6912(2) 0.7667(2)
C53A C 0.60250(15) 0.7410(3) 0.7937(3)
H44A H 0.6173 0.7786 0.8106
C54A C 0.57194(16) 0.7359(3) 0.7960(3)
H45A H 0.5661 0.7697 0.8153
C55A C 0.54977(15) 0.6824(3) 0.7707(3)
C56A C 0.55903(16) 0.6320(3) 0.7438(3)
H46A H 0.5442 0.5944 0.7268
C57A C 0.59020(15) 0.6372(3) 0.7423(3)
H47A H 0.5965 0.6029 0.7241
C58A C 0.51677(16) 0.6793(4) 0.7729(3)
C59A C 0.61892(13) 0.6558(3) 0.6349(2)
H48A H 0.6041 0.6805 0.6473
H49A H 0.6031 0.6245 0.6017
C60A C 0.63472(17) 0.7040(3) 0.6088(3)
H50A H 0.6155 0.7304 0.5757
H51A H 0.6469 0.6794 0.5918
H52A H 0.6518 0.7330 0.6423
C61A C 0.70461(16) 0.4648(3) 0.7217(3)
H53A H 0.6854 0.4405 0.6856
H54A H 0.7144 0.4359 0.7587
C62A C 0.73434(15) 0.4810(3) 0.7089(3)
H55A H 0.7444 0.4401 0.7039
H56A H 0.7532 0.5060 0.7440
H57A H 0.7245 0.5072 0.6707
C63A C 0.64588(15) 0.1379(2) 1.1853(2)
H58A H 0.6271 0.1705 1.1764
H59A H 0.6630 0.1587 1.1760
C64A C 0.66545(18) 0.1195(3) 1.2546(3)
H60A H 0.6767 0.1587 1.2800
H61A H 0.6838 0.0866 1.2635
H62A H 0.6483 0.1013 1.2645
Br3A Br 0.43788(12) 0.2632(3) 0.9226(2)
Br4A Br 0.52233(4) 0.41688(7) 1.04655(11)
C65A C 0.4822(3) 0.3105(4) 0.9851(13)
C66A C 0.4796(2) 0.3708(4) 0.9908(7)
C67A C 0.44621(16) 0.4105(4) 0.9566(4)
C68A C 0.4286(2) 0.4200(4) 0.9886(3)
H63A H 0.4372 0.3995 1.0279
C69A C 0.3983(2) 0.4593(4) 0.9630(4)
H64A H 0.3862 0.4658 0.9849
C70A C 0.38559(16) 0.4892(3) 0.9055(4)
C71A C 0.40323(18) 0.4798(4) 0.8735(3)
H65A H 0.3946 0.5002 0.8341
C72A C 0.43353(18) 0.4404(4) 0.8991(4)
H66A H 0.4456 0.4339 0.8772
Br5A Br 0.44277(6) -0.0672(6) 0.7299(2)
Br6A Br 0.52554(15) 0.6859(5) 0.85661(17)
C73? C 0.3146(8) 0.1280(10) 0.3946(12)
C74? C 0.2819(7) 0.1601(10) 0.3677(9)
H67? H 0.2626 0.1465 0.3281
C75? C 0.2773(5) 0.2121(8) 0.3987(6)
H68? H 0.2550 0.2341 0.3803
C76? C 0.3055(4) 0.2320(5) 0.4566(6)
C77? C 0.3382(4) 0.1999(7) 0.4835(8)
H69? H 0.3574 0.2135 0.5231
C78? C 0.3427(6) 0.1479(8) 0.4525(12)
H70? H 0.3651 0.1259 0.4709
C79? C 0.3015(4) 0.2897(5) 0.4898(6)
C80? C 0.3033(4) 0.2950(5) 0.5438(5)
Br7? Br 0.30104(12) 0.3683(2) 0.4513(2)
Br8? Br 0.31549(19) 0.2150(4) 0.5934(4)
C81? C 0.2971(3) 0.3519(5) 0.5757(5)
C82? C 0.2654(4) 0.3861(7) 0.5393(6)
H71? H 0.2495 0.3738 0.4971
C83? C 0.2568(5) 0.4384(9) 0.5647(8)
H72? H 0.2351 0.4618 0.5398
C84? C 0.2800(6) 0.4564(9) 0.6265(9)
C85? C 0.3117(5) 0.4221(8) 0.6629(6)
H73? H 0.3276 0.4344 0.7052
C86? C 0.3203(4) 0.3699(6) 0.6375(5)
H74? H 0.3420 0.3465 0.6624
Br9? Br 0.56846(18) 0.2621(5) 0.5668(4)
Br10? Br 0.47801(7) 0.41177(13) 0.48723(17)
C87? C 0.5212(4) 0.3057(5) 0.514(2)
C88? C 0.5222(3) 0.3669(5) 0.5208(11)
C89? C 0.5548(2) 0.4089(5) 0.5478(6)
C90? C 0.5617(3) 0.4396(6) 0.5057(5)
H75? H 0.5463 0.4323 0.4622
C91? C 0.5911(3) 0.4808(5) 0.5273(6)
H76? H 0.5958 0.5018 0.4986
C92? C 0.6136(2) 0.4914(5) 0.5910(6)
C93? C 0.6067(3) 0.4608(6) 0.6331(5)
H77? H 0.6220 0.4680 0.6766
C94? C 0.5773(3) 0.4195(6) 0.6115(6)
H78? H 0.5726 0.3986 0.6402
Br11? Br 0.5563(3) -0.0837(17) 0.7683(9)
Br12? Br 0.4719(3) 0.6667(14) 0.6434(3)
loop_
_geom_bond_atom_site_label_1
_geom_bond_atom_site_label_2
_geom_bond_site_symmetry_1
_geom_bond_site_symmetry_2
C1 C2 1_555 1_555
C2 C3 1_555 1_555
C3 C4 1_555 1_555
C4 C5 1_555 1_555
C5 C6 1_555 1_555
C6 C1 1_555 1_555
C7 C1 1_555 1_555
H1 C7 1_555 1_555
H2 C7 1_555 1_555
C8 C7 1_555 1_555
C9 C8 1_555 1_555
H3 C9 1_555 1_555
C10 C9 1_555 1_555
H4 C10 1_555 1_555
C11 C10 1_555 1_555
C12 C11 1_555 1_555
H5 C12 1_555 1_555
C13 C8 1_555 1_555
H6 C13 1_555 1_555
C14 C11 1_555 1_555
C15 C14 1_555 1_555
Br1 C14 1_555 1_555
Br2 C15 1_555 1_555
C16 C15 1_555 1_555
C17 C16 1_555 1_555
H7 C17 1_555 1_555
C18 C17 1_555 1_555
H8 C18 1_555 1_555
C19 C18 1_555 1_555
C20 C19 1_555 1_555
H9 C20 1_555 1_555
C21 C16 1_555 1_555
H10 C21 1_555 1_555
C22 C19 1_555 1_555
H11 C22 1_555 1_555
H12 C22 1_555 1_555
C23 C2 1_555 1_555
H13 C23 1_555 1_555
H14 C23 1_555 1_555
C24 C23 1_555 1_555
H15 C24 1_555 1_555
H16 C24 1_555 1_555
H17 C24 1_555 1_555
C25 C3 1_555 1_555
H18 C25 1_555 1_555
H19 C25 1_555 1_555
C26 C25 1_555 1_555
C27 C26 1_555 1_555
H20 C27 1_555 1_555
C28 C27 1_555 1_555
H21 C28 1_555 1_555
C29 C28 1_555 1_555
C30 C29 1_555 1_555
H22 C30 1_555 1_555
C31 C26 1_555 1_555
H23 C31 1_555 1_555
C32 C29 1_555 1_555
C33 C4 1_555 1_555
H24 C33 1_555 1_555
H25 C33 1_555 1_555
C34 C33 1_555 1_555
H26 C34 1_555 1_555
H27 C34 1_555 1_555
H28 C34 1_555 1_555
C35 C5 1_555 1_555
H29 C35 1_555 1_555
H30 C35 1_555 1_555
C36 C35 1_555 1_555
C37 C36 1_555 1_555
H31 C37 1_555 1_555
C38 C37 1_555 1_555
H32 C38 1_555 1_555
C39 C38 1_555 1_555
C40 C39 1_555 1_555
H33 C40 1_555 1_555
C41 C36 1_555 1_555
H34 C41 1_555 1_555
C42 H35 1_555 1_555
H36 C42 1_555 1_555
C43 C22 1_555 1_555
C44 C43 1_555 1_555
C45 C44 1_555 1_555
C46 C45 1_555 1_555
C47 C46 1_555 1_555
C48 C43 1_555 1_555
C49 C44 1_555 1_555
H37 C49 1_555 1_555
H38 C49 1_555 1_555
C50 C49 1_555 1_555
H39 C50 1_555 1_555
H40 C50 1_555 1_555
H41 C50 1_555 1_555
C51 C45 1_555 1_555
H42 C51 1_555 1_555
H43 C51 1_555 1_555
C52 C51 1_555 1_555
C53 C52 1_555 1_555
H44 C53 1_555 1_555
C54 C53 1_555 1_555
H45 C54 1_555 1_555
C55 C54 1_555 1_555
C56 C55 1_555 1_555
H46 C56 1_555 1_555
C57 C52 1_555 1_555
H47 C57 1_555 1_555
C58 C55 1_555 1_555
C59 C46 1_555 1_555
H48 C59 1_555 1_555
H49 C59 1_555 1_555
C60 C59 1_555 1_555
H50 C60 1_555 1_555
H51 C60 1_555 1_555
H52 C60 1_555 1_555
C61 C48 1_555 1_555
H53 C61 1_555 1_555
H54 C61 1_555 1_555
C62 C61 1_555 1_555
H55 C62 1_555 1_555
H56 C62 1_555 1_555
H57 C62 1_555 1_555
C63 C6 1_555 1_555
H58 C63 1_555 1_555
H59 C63 1_555 1_555
C64 C63 1_555 1_555
H60 C64 1_555 1_555
H61 C64 1_555 1_555
H62 C64 1_555 1_555
Br3 C65 1_555 1_555
Br4 C66 1_555 1_555
C65 C39 1_555 1_555
C66 C65 1_555 1_555
C67 C66 1_555 1_555
C68 C67 1_555 1_555
H63 C68 1_555 1_555
C69 C68 1_555 1_555
H64 C69 1_555 1_555
C70 C42 1_555 1_555
C71 C70 1_555 1_555
H65 C71 1_555 1_555
C72 C67 1_555 1_555
H66 C72 1_555 1_555
Br5 C32 1_555 1_555
Br6 C58 1_555 1_555
C1A C2A 1_555 1_555
C2A C3A 1_555 1_555
C3A C4A 1_555 1_555
C4A C5A 1_555 1_555
C5A C6A 1_555 1_555
C6A C1A 1_555 1_555
C7A C1A 1_555 1_555
H1A C7A 1_555 1_555
H2A C7A 1_555 1_555
C8A C7A 1_555 1_555
C9A C8A 1_555 1_555
H3A C9A 1_555 1_555
C10A C9A 1_555 1_555
H4A C10A 1_555 1_555
C11A C10A 1_555 1_555
C12A C11A 1_555 1_555
H5A C12A 1_555 1_555
C13A C8A 1_555 1_555
H6A C13A 1_555 1_555
C14A C11A 1_555 1_555
C15A C14A 1_555 1_555
Br1A C14A 1_555 1_555
Br2A C15A 1_555 1_555
C16A C15A 1_555 1_555
C17A C16A 1_555 1_555
H7A C17A 1_555 1_555
C18A C17A 1_555 1_555
H8A C18A 1_555 1_555
C19A C18A 1_555 1_555
C20A C19A 1_555 1_555
H9A C20A 1_555 1_555
C21A C16A 1_555 1_555
H10A C21A 1_555 1_555
C22A C19A 1_555 1_555
H11A C22A 1_555 1_555
H12A C22A 1_555 1_555
C23A C2A 1_555 1_555
H13A C23A 1_555 1_555
H14A C23A 1_555 1_555
C24A C23A 1_555 1_555
H15A C24A 1_555 1_555
H16A C24A 1_555 1_555
H17A C24A 1_555 1_555
C25A C3A 1_555 1_555
H18A C25A 1_555 1_555
H19A C25A 1_555 1_555
C26A C25A 1_555 1_555
C27A C26A 1_555 1_555
H20A C27A 1_555 1_555
C28A C27A 1_555 1_555
H21A C28A 1_555 1_555
C29A C28A 1_555 1_555
C30A C29A 1_555 1_555
H22A C30A 1_555 1_555
C31A C26A 1_555 1_555
H23A C31A 1_555 1_555
C32A C32 1_555 1_555
C33A C4A 1_555 1_555
H24A C33A 1_555 1_555
H25A C33A 1_555 1_555
C34A C33A 1_555 1_555
H26A C34A 1_555 1_555
H27A C34A 1_555 1_555
H28A C34A 1_555 1_555
C35A C5A 1_555 1_555
H29A C35A 1_555 1_555
H30A C35A 1_555 1_555
C36A C35A 1_555 1_555
C37A C36A 1_555 1_555
H31A C37A 1_555 1_555
C38A C37A 1_555 1_555
H32A C38A 1_555 1_555
C39A C38A 1_555 1_555
C40A C39A 1_555 1_555
H33A C40A 1_555 1_555
C41A C36A 1_555 1_555
H34A C41A 1_555 1_555
C42A C47 1_555 1_555
H35A C42A 1_555 1_555
H36A C42A 1_555 1_555
C43A C22A 1_555 1_555
C44A C43A 1_555 1_555
C45A C44A 1_555 1_555
C46A C45A 1_555 1_555
C47A C42 1_555 1_555
C48A C43A 1_555 1_555
C49A C44A 1_555 1_555
H37A C49A 1_555 1_555
H38A C49A 1_555 1_555
C50A C49A 1_555 1_555
H39A C50A 1_555 1_555
H40A C50A 1_555 1_555
H41A C50A 1_555 1_555
C51A C45A 1_555 1_555
H42A C51A 1_555 1_555
H43A C51A 1_555 1_555
C52A C51A 1_555 1_555
C53A C52A 1_555 1_555
H44A C53A 1_555 1_555
C54A C53A 1_555 1_555
H45A C54A 1_555 1_555
C55A C54A 1_555 1_555
C56A C55A 1_555 1_555
H46A C56A 1_555 1_555
C57A C52A 1_555 1_555
H47A C57A 1_555 1_555
C58A C58 1_555 1_555
C59A C46A 1_555 1_555
H48A C59A 1_555 1_555
H49A C59A 1_555 1_555
C60A C59A 1_555 1_555
H50A C60A 1_555 1_555
H51A C60A 1_555 1_555
H52A C60A 1_555 1_555
C61A C48A 1_555 1_555
H53A C61A 1_555 1_555
H54A C61A 1_555 1_555
C62A C61A 1_555 1_555
H55A C62A 1_555 1_555
H56A C62A 1_555 1_555
H57A C62A 1_555 1_555
C63A C6A 1_555 1_555
H58A C63A 1_555 1_555
H59A C63A 1_555 1_555
C64A C63A 1_555 1_555
H60A C64A 1_555 1_555
H61A C64A 1_555 1_555
H62A C64A 1_555 1_555
Br3A C65A 1_555 1_555
Br4A C66A 1_555 1_555
C65A C39A 1_555 1_555
C66A C65A 1_555 1_555
C67A C66A 1_555 1_555
C68A C67A 1_555 1_555
H63A C68A 1_555 1_555
C69A C68A 1_555 1_555
H64A C69A 1_555 1_555
C70A C42A 1_555 1_555
C71A C70A 1_555 1_555
H65A C71A 1_555 1_555
C72A C67A 1_555 1_555
H66A C72A 1_555 1_555
Br5A C32A 1_555 1_555
Br6A C58A 1_555 1_555
C12 C13 1_555 1_555
C20 C21 1_555 1_555
C30 C31 1_555 1_555
C40 C41 1_555 1_555
C47 C48 1_555 1_555
C56 C57 1_555 1_555
C69 C70 1_555 1_555
C71 C72 1_555 1_555
C12A C13A 1_555 1_555
C20A C21A 1_555 1_555
C29A C32A 1_555 1_555
C30A C31A 1_555 1_555
C40A C41A 1_555 1_555
C46A C47A 1_555 1_555
C47A C48A 1_555 1_555
C55A C58A 1_555 1_555
C56A C57A 1_555 1_555
C69A C70A 1_555 1_555
C71A C72A 1_555 1_555

#END
