
#######################################################################
#
#                 Cambridge Crystallographic Data Centre
#                                CCDC 
#
#######################################################################
#
# If this CIF has been generated from an entry in the Cambridge 
# Structural Database, then it will include bibliographic, chemical, 
# crystal, experimental, refinement or atomic coordinate data resulting 
# from the CCDC's data processing and validation procedures.
#
#######################################################################

data_GEHDOP
_chemical_formula_moiety         'C34 H40 N2 O4 S2'
_chemical_name_systematic        
5,12-dioctylbisthieno[2,3-e:2,3-e']benzo[1,2-c:4,5-c']bisazepine-4,6,11,13(5H,12H)-tetrone
_symmetry_cell_setting           triclinic
_symmetry_space_group_name_H-M   'P -1'
_symmetry_Int_Tables_number      2
_space_group_name_Hall           '-P 1'
loop_
_symmetry_equiv_pos_site_id
_symmetry_equiv_pos_as_xyz
1 x,y,z
2 -x,-y,-z
_cell_length_a                   9.639(5)
_cell_length_b                   11.745(5)
_cell_length_c                   22.285(8)
_cell_angle_alpha                76.86(5)
_cell_angle_beta                 81.81(3)
_cell_angle_gamma                88.16(4)
_cell_volume                     2431.77
_cell_formula_units_Z            3
loop_
_atom_site_label
_atom_site_type_symbol
_atom_site_fract_x
_atom_site_fract_y
_atom_site_fract_z
S1 S 0.87135(14) 0.40554(16) 0.05560(8)
O1 O 0.7430(4) 0.6971(4) -0.10621(19)
C1 C 0.6396(5) 0.5256(6) -0.0147(3)
C2 C 0.5534(5) 0.5774(5) -0.0576(3)
C3 C 0.5935(6) 0.4488(5) 0.0428(3)
C4 C 0.6258(6) 0.6633(6) -0.1113(3)
N1 N 0.5800(5) 0.7034(4) -0.1690(2)
C5 C 0.6957(5) 0.3987(5) 0.0833(3)
C6 C 0.9174(7) 0.3466(6) 0.1278(3)
O2 O 0.4516(5) 0.6964(5) -0.2443(3)
C7 C 0.6747(6) 0.3502(5) 0.1474(3)
C8 C 0.4524(6) 0.6793(5) -0.1881(3)
C9 C 0.8053(7) 0.3187(6) 0.1720(3)
C10 C 0.7821(8) 0.7042(7) -0.2519(3)
C11 C 0.6834(7) 0.7761(7) -0.2179(3)
C12 C 0.9960(10) 0.7078(10) -0.3340(4)
C13 C 0.8944(9) 0.7781(8) -0.2983(4)
C14 C 1.212(2) 0.685(3) -0.4099(10)
C15 C 1.1095(14) 0.7718(13) -0.3778(6)
C16 C 1.401(3) 0.615(3) -0.4604(12)
C17 C 1.314(3) 0.700(3) -0.426(2)
S1A S 0.12865(14) 0.59446(16) -0.05560(8)
O1A O 0.2570(4) 0.3029(4) 0.10621(19)
C1A C 0.3604(5) 0.4744(6) 0.0147(3)
C2A C 0.4466(5) 0.4226(5) 0.0576(3)
C3A C 0.4065(6) 0.5512(5) -0.0428(3)
C4A C 0.3742(6) 0.3367(6) 0.1113(3)
N1A N 0.4200(5) 0.2966(4) 0.1690(2)
C5A C 0.3043(5) 0.6013(5) -0.0833(3)
C6A C 0.0826(7) 0.6534(6) -0.1278(3)
O2A O 0.5484(5) 0.3036(5) 0.2443(3)
C7A C 0.3253(6) 0.6498(5) -0.1474(3)
C8A C 0.5476(6) 0.3207(5) 0.1881(3)
C9A C 0.1947(7) 0.6813(6) -0.1720(3)
C10A C 0.2179(8) 0.2958(7) 0.2519(3)
C11A C 0.3166(7) 0.2239(7) 0.2179(3)
C12A C 0.0040(10) 0.2922(10) 0.3340(4)
C13A C 0.1056(9) 0.2219(8) 0.2983(4)
C14A C -0.212(2) 0.315(3) 0.4099(10)
C15A C -0.1095(14) 0.2282(13) 0.3778(6)
C16A C -0.401(3) 0.385(3) 0.4604(12)
C17A C -0.314(3) 0.300(3) 0.426(2)
O3 O 1.5469(4) 0.4170(4) -0.15945(19)
S2 S 1.65663(16) 0.15713(16) 0.01673(8)
S3 S 0.93603(16) 0.35335(16) -0.11067(8)
N2 N 1.3977(5) 0.3903(5) -0.2249(2)
N3 N 1.1987(5) -0.0006(4) 0.1099(2)
C18 C 1.1546(6) 0.2134(6) -0.0375(3)
C19 C 1.2363(6) 0.1550(5) 0.0060(3)
C20 C 1.3844(5) 0.1711(5) -0.0073(3)
O4 O 1.2634(5) 0.3701(5) -0.2974(3)
C21 C 1.4382(5) 0.2437(5) -0.0655(3)
C22 C 1.4354(6) 0.3764(6) -0.1652(3)
C23 C 1.3556(6) 0.2999(5) -0.1093(3)
C24 C 1.2068(6) 0.2820(6) -0.0948(3)
C25 C 1.1365(6) 0.3733(6) -0.2020(3)
C26 C 1.1521(7) 0.0850(8) 0.0622(3)
C27 C 1.4839(6) 0.1171(5) 0.0364(3)
C28 C 1.0839(7) -0.0690(6) 0.1520(3)
O5 O 1.0264(5) 0.0949(8) 0.0654(3)
C29 C 1.1090(6) 0.3377(5) -0.1369(3)
C30 C 0.8954(7) 0.4036(7) -0.1857(4)
C31 C 1.0086(8) 0.4098(7) -0.2291(3)
C32 C 1.2642(7) 0.3734(6) -0.2423(3)
C33 C 1.0142(7) -0.0142(6) 0.2019(3)
C34 C 1.4590(6) 0.0427(6) 0.0938(3)
C35 C 0.8774(8) -0.0730(7) 0.2345(4)
C36 C 1.6978(7) 0.0725(7) 0.0849(4)
C37 C 1.5834(6) 0.0182(6) 0.1207(3)
C38 C 1.5110(7) 0.4355(7) -0.2768(3)
C39 C 1.6059(8) 0.3365(8) -0.2929(4)
C40 C 1.3362(7) -0.0182(7) 0.1274(4)
C41 C 0.7959(9) -0.0114(8) 0.2808(5)
C42 C 1.7286(9) 0.3875(10) -0.3414(4)
O6 O 1.3422(6) -0.0909(8) 0.1721(4)
C43 C 0.6569(9) -0.0691(10) 0.3097(4)
C44 C 0.5760(11) 0.0011(11) 0.3550(5)
C45 C 1.8355(11) 0.2900(12) -0.3572(5)
C46 C 0.4337(15) -0.0507(14) 0.3806(7)
C47 C 1.9562(11) 0.3409(16) -0.4072(6)
C48 C 2.0500(16) 0.249(2) -0.4230(8)
C49 C 0.3513(19) 0.017(3) 0.4245(11)
C50 C 2.181(3) 0.328(3) -0.492(2)
C51 C 2.201(6) 0.238(4) -0.483(3)
loop_
_geom_bond_atom_site_label_1
_geom_bond_atom_site_label_2
_geom_bond_site_symmetry_1
_geom_bond_site_symmetry_2
S1 C5 1_555 1_555
O1 C4 1_555 1_555
C1 C2 1_555 1_555
C2 C4 1_555 1_555
C3 C1 1_555 1_555
C4 N1 1_555 1_555
N1 C8 1_555 1_555
C5 C3 1_555 1_555
C6 S1 1_555 1_555
O2 C8 1_555 1_555
C7 C5 1_555 1_555
C8 C7A 1_555 1_555
C9 C6 1_555 1_555
C10 C11 1_555 1_555
C11 N1 1_555 1_555
C12 C13 1_555 1_555
C13 C10 1_555 1_555
C14 C15 1_555 1_555
C15 C12 1_555 1_555
C16 C17 1_555 1_555
C17 C14 1_555 1_555
O3 C22 1_555 1_555
S2 C27 1_555 1_555
S3 C29 1_555 1_555
N2 C22 1_555 1_555
N3 C26 1_555 1_555
C18 C19 1_555 1_555
C19 C20 1_555 1_555
C20 C21 1_555 1_555
O4 C32 1_555 1_555
C21 C23 1_555 1_555
C22 C23 1_555 1_555
C23 C24 1_555 1_555
C24 C18 1_555 1_555
C25 C29 1_555 1_555
C26 C19 1_555 1_555
C27 C20 1_555 1_555
C28 N3 1_555 1_555
O5 C26 1_555 1_555
C29 C24 1_555 1_555
C30 S3 1_555 1_555
C31 C25 1_555 1_555
C32 N2 1_555 1_555
C33 C28 1_555 1_555
C34 C27 1_555 1_555
C35 C33 1_555 1_555
C36 S2 1_555 1_555
C37 C34 1_555 1_555
C38 N2 1_555 1_555
C39 C38 1_555 1_555
C40 N3 1_555 1_555
C41 C35 1_555 1_555
C42 C39 1_555 1_555
O6 C40 1_555 1_555
C43 C41 1_555 1_555
C44 C43 1_555 1_555
C45 C42 1_555 1_555
C46 C44 1_555 1_555
C47 C45 1_555 1_555
C48 C47 1_555 1_555
C49 C46 1_555 1_555
C50 C51 1_555 1_555
C51 C48 1_555 1_555
S1A C5A 1_555 1_555
O1A C4A 1_555 1_555
C1A C2A 1_555 1_555
C2A C3 1_555 1_555
C3A C2 1_555 1_555
C4A C2A 1_555 1_555
N1A C4A 1_555 1_555
C5A C3A 1_555 1_555
C6A S1A 1_555 1_555
O2A C8A 1_555 1_555
C7A C5A 1_555 1_555
C8A C7 1_555 1_555
C9A C6A 1_555 1_555
C10A C11A 1_555 1_555
C11A N1A 1_555 1_555
C12A C13A 1_555 1_555
C13A C10A 1_555 1_555
C14A C15A 1_555 1_555
C15A C12A 1_555 1_555
C16A C17A 1_555 1_555
C17A C14A 1_555 1_555
C7 C9 1_555 1_555
C25 C32 1_555 1_555
C30 C31 1_555 1_555
C34 C40 1_555 1_555
C36 C37 1_555 1_555
C1A C3A 1_555 1_555
N1A C8A 1_555 1_555
C7A C9A 1_555 1_555

#END
