
#######################################################################
#
#                 Cambridge Crystallographic Data Centre
#                                CCDC 
#
#######################################################################
#
# If this CIF has been generated from an entry in the Cambridge 
# Structural Database, then it will include bibliographic, chemical, 
# crystal, experimental, refinement or atomic coordinate data resulting 
# from the CCDC's data processing and validation procedures.
#
#######################################################################

data_GEHFOR
_chemical_formula_moiety         'C9 H8 I1 N4 1+,Cl1 1-'
_chemical_name_systematic        
'4-{[(4-iodophenyl)methylidene]amino}-4H-1,2,4-triazol-1-ium chloride'
_symmetry_cell_setting           monoclinic
_symmetry_space_group_name_H-M   'P 21/c'
_symmetry_Int_Tables_number      14
_space_group_name_Hall           '-P 2ybc'
loop_
_symmetry_equiv_pos_site_id
_symmetry_equiv_pos_as_xyz
1 x,y,z
2 -x,1/2+y,1/2-z
3 -x,-y,-z
4 x,1/2-y,1/2+z
_cell_length_a                   9.5620(19)
_cell_length_b                   6.6530(13)
_cell_length_c                   17.748(4)
_cell_angle_alpha                90
_cell_angle_beta                 93.05(3)
_cell_angle_gamma                90
_cell_volume                     1127.46
_cell_formula_units_Z            4
loop_
_atom_site_label
_atom_site_type_symbol
_atom_site_fract_x
_atom_site_fract_y
_atom_site_fract_z
I1 I 0.65909(4) -0.39477(6) 0.40315(2)
N1 N 0.0158(6) 0.8679(7) 0.3561(3)
H1 H -0.0427 0.9363 0.3809
C1 C 0.0768(6) 0.7038(10) 0.3814(3)
H2 H 0.0665 0.6442 0.4281
N2 N 0.0556(6) 0.9183(7) 0.2862(3)
C2 C 0.1415(7) 0.7737(9) 0.2697(3)
H3 H 0.1865 0.7645 0.2246
N3 N 0.1565(5) 0.6382(7) 0.3273(2)
C3 C 0.2392(6) 0.3414(9) 0.3734(3)
H4 H 0.1684 0.3501 0.4072
N4 N 0.2505(5) 0.4772(8) 0.3242(3)
C4 C 0.3359(6) 0.1706(9) 0.3779(3)
C5 C 0.4478(7) 0.1558(10) 0.3310(3)
H5 H 0.4621 0.2550 0.2952
C6 C 0.5381(7) -0.0081(9) 0.3378(3)
H6 H 0.6122 -0.0198 0.3062
C7 C 0.5173(6) -0.1528(8) 0.3914(3)
C8 C 0.4068(6) -0.1407(9) 0.4382(3)
H7 H 0.3928 -0.2415 0.4732
C9 C 0.3170(6) 0.0225(9) 0.4325(3)
H8 H 0.2442 0.0338 0.4650
Cl1 Cl 0.89342(17) 0.2355(2) 0.42956(8)
loop_
_geom_bond_atom_site_label_1
_geom_bond_atom_site_label_2
_geom_bond_site_symmetry_1
_geom_bond_site_symmetry_2
I1 C7 1_555 1_555
N1 H1 1_555 1_555
C1 N1 1_555 1_555
H2 C1 1_555 1_555
N2 N1 1_555 1_555
C2 N2 1_555 1_555
H3 C2 1_555 1_555
N3 C1 1_555 1_555
C3 H4 1_555 1_555
N4 N3 1_555 1_555
C4 C3 1_555 1_555
C5 C4 1_555 1_555
H5 C5 1_555 1_555
C6 C5 1_555 1_555
H6 C6 1_555 1_555
C7 C6 1_555 1_555
C8 C7 1_555 1_555
H7 C8 1_555 1_555
C9 C4 1_555 1_555
H8 C9 1_555 1_555
C2 N3 1_555 1_555
C3 N4 1_555 1_555
C8 C9 1_555 1_555

#END
