
#######################################################################
#
#                 Cambridge Crystallographic Data Centre
#                                CCDC 
#
#######################################################################
#
# If this CIF has been generated from an entry in the Cambridge 
# Structural Database, then it will include bibliographic, chemical, 
# crystal, experimental, refinement or atomic coordinate data resulting 
# from the CCDC's data processing and validation procedures.
#
#######################################################################

data_GEHHAF
_chemical_formula_moiety         'C10 H9 F2 N1 O2'
_chemical_name_systematic        
4,4-difluoro-3-methoxy-3,4-dihydroisoquinolin-1(2H)-one
_symmetry_cell_setting           monoclinic
_symmetry_space_group_name_H-M   'P 21/n'
_symmetry_Int_Tables_number      14
_space_group_name_Hall           '-P 2yn'
loop_
_symmetry_equiv_pos_site_id
_symmetry_equiv_pos_as_xyz
1 x,y,z
2 1/2-x,1/2+y,1/2-z
3 -x,-y,-z
4 1/2+x,1/2-y,1/2+z
_cell_length_a                   11.53896(15)
_cell_length_b                   7.57923(11)
_cell_length_c                   20.9318(3)
_cell_angle_alpha                90
_cell_angle_beta                 95.3562(12)
_cell_angle_gamma                90
_cell_volume                     1822.63
_exptl_crystal_colour            colorless
_exptl_crystal_description       block
_cell_formula_units_Z            8
loop_
_atom_site_label
_atom_site_type_symbol
_atom_site_fract_x
_atom_site_fract_y
_atom_site_fract_z
F1 F 0.89954(7) 0.34063(11) 0.15505(4)
F2 F 1.06605(8) 0.33540(11) 0.21312(4)
O1 O 1.29462(9) 0.09647(14) 0.07269(5)
O2 O 0.95024(8) 0.04726(13) 0.08755(5)
N1 N 1.14247(10) 0.05757(16) 0.13155(6)
H1 H 1.1751 -0.0320 0.1510
C1 C 1.21556(12) 0.4325(2) 0.02980(7)
H2 H 1.2785 0.3857 0.0108
C2 C 1.02932(12) 0.57649(19) 0.08831(7)
H3 H 0.9682 0.6252 0.1083
C3 C 1.20479(12) 0.15377(19) 0.09206(7)
C4 C 0.83778(13) -0.0142(2) 0.10080(8)
H4 H 0.8010 -0.0726 0.0636
H5 H 0.7910 0.0842 0.1116
H6 H 0.8459 -0.0954 0.1361
C5 C 1.17494(13) 0.6006(2) 0.01367(7)
H7 H 1.2100 0.6656 -0.0169
C6 C 1.16109(12) 0.33436(18) 0.07480(7)
C7 C 1.06813(12) 0.40685(18) 0.10385(6)
C8 C 1.08251(13) 0.67265(19) 0.04274(7)
H8 H 1.0562 0.7855 0.0317
C9 C 1.02411(12) 0.09919(18) 0.14215(6)
H9 H 1.0023 0.0359 0.1800
C10 C 1.01410(12) 0.29780(19) 0.15275(7)
F3 F 1.70892(7) -0.39503(12) 0.12428(4)
F4 F 1.65148(8) -0.22684(12) 0.19951(4)
O3 O 1.26711(8) -0.27572(14) 0.17292(5)
O4 O 1.51924(9) -0.33957(13) 0.04633(5)
N2 N 1.42816(10) -0.18877(16) 0.12797(6)
H10 H 1.4018 -0.0830 0.1231
C11 C 1.60596(13) -0.6447(2) 0.19863(7)
H11 H 1.6856 -0.6561 0.1960
C12 C 1.54842(12) -0.49162(19) 0.17725(6)
C13 C 1.42869(12) -0.47293(18) 0.18171(6)
C14 C 1.54355(14) -0.7807(2) 0.22397(7)
H12 H 1.5814 -0.8841 0.2379
C15 C 1.36699(12) -0.30633(19) 0.16032(6)
C16 C 1.61182(12) -0.33968(19) 0.15073(7)
C17 C 1.46850(13) -0.2463(2) -0.00884(7)
H13 H 1.4464 -0.3287 -0.0426
H14 H 1.5242 -0.1643 -0.0230
H15 H 1.4009 -0.1832 0.0021
C18 C 1.53549(12) -0.23295(19) 0.10136(7)
H16 H 1.5761 -0.1244 0.0912
C19 C 1.42462(13) -0.7624(2) 0.22860(7)
H17 H 1.3832 -0.8537 0.2456
C20 C 1.36764(12) -0.60854(19) 0.20801(7)
H18 H 1.2884 -0.5962 0.2118
loop_
_geom_bond_atom_site_label_1
_geom_bond_atom_site_label_2
_geom_bond_site_symmetry_1
_geom_bond_site_symmetry_2
F1 C10 1_555 1_555
F2 C10 1_555 1_555
O1 C3 1_555 1_555
O2 C4 1_555 1_555
N1 H1 1_555 1_555
C1 H2 1_555 1_555
C2 H3 1_555 1_555
C3 N1 1_555 1_555
C4 H4 1_555 1_555
H5 C4 1_555 1_555
H6 C4 1_555 1_555
C5 C1 1_555 1_555
H7 C5 1_555 1_555
C6 C1 1_555 1_555
C7 C2 1_555 1_555
C8 C2 1_555 1_555
H8 C8 1_555 1_555
C9 O2 1_555 1_555
H9 C9 1_555 1_555
C10 C7 1_555 1_555
F3 C16 1_555 1_555
F4 C16 1_555 1_555
O3 C15 1_555 1_555
O4 C17 1_555 1_555
N2 H10 1_555 1_555
C11 H11 1_555 1_555
C12 C11 1_555 1_555
C13 C12 1_555 1_555
C14 C11 1_555 1_555
H12 C14 1_555 1_555
C15 N2 1_555 1_555
C16 C12 1_555 1_555
C17 H13 1_555 1_555
H14 C17 1_555 1_555
H15 C17 1_555 1_555
C18 O4 1_555 1_555
H16 C18 1_555 1_555
C19 C14 1_555 1_555
H17 C19 1_555 1_555
C20 C13 1_555 1_555
H18 C20 1_555 1_555
N1 C9 1_555 1_555
C3 C6 1_555 1_555
C5 C8 1_555 1_555
C6 C7 1_555 1_555
C9 C10 1_555 1_555
N2 C18 1_555 1_555
C13 C15 1_555 1_555
C16 C18 1_555 1_555
C19 C20 1_555 1_555

#END
