
#######################################################################
#
#                 Cambridge Crystallographic Data Centre
#                                CCDC 
#
#######################################################################
#
# If this CIF has been generated from an entry in the Cambridge 
# Structural Database, then it will include bibliographic, chemical, 
# crystal, experimental, refinement or atomic coordinate data resulting 
# from the CCDC's data processing and validation procedures.
#
#######################################################################

data_GEHLIR
_chemical_formula_moiety         'C31 H24 F6 N4 O3'
_chemical_name_systematic        
'1-cyclopropyl-6-fluoro-4-oxo-7-{4-[N-(pentafluorophenyl)-2-phenylethanimidoyl]piperazin-1-yl}-1,4-dihydroquinoline-3-carboxylic acid'
_chemical_properties_biological  'antibacterial activity'
_symmetry_cell_setting           triclinic
_symmetry_space_group_name_H-M   'P -1'
_symmetry_Int_Tables_number      2
_space_group_name_Hall           '-P 1'
loop_
_symmetry_equiv_pos_site_id
_symmetry_equiv_pos_as_xyz
1 x,y,z
2 -x,-y,-z
_cell_length_a                   9.2482(3)
_cell_length_b                   10.8201(3)
_cell_length_c                   15.1507(4)
_cell_angle_alpha                104.0060(10)
_cell_angle_beta                 94.7270(10)
_cell_angle_gamma                108.8730(10)
_cell_volume                     1370.43
_exptl_crystal_description       prism
_cell_formula_units_Z            2
loop_
_atom_site_label
_atom_site_type_symbol
_atom_site_fract_x
_atom_site_fract_y
_atom_site_fract_z
F1 F 0.8698(3) 0.4681(2) -0.44269(12)
F2 F 0.6813(2) 0.2863(2) -0.36908(13)
F3 F 0.6757(2) 0.35124(17) -0.18799(13)
F4 F 1.0551(2) 0.78087(19) -0.14887(14)
F5 F 1.0662(2) 0.7120(2) -0.32898(15)
F6 F 0.68687(16) 0.91049(14) 0.37028(10)
O1 O 1.0513(2) 1.31819(18) 0.61680(12)
O2 O 1.2946(3) 1.5076(2) 0.70972(14)
H1 H 1.196(5) 1.452(4) 0.681(3)
O3 O 1.5194(3) 1.5343(2) 0.66099(14)
N1 N 0.8618(3) 0.6032(2) -0.06699(15)
N2 N 0.7468(2) 0.6551(2) 0.05637(14)
N3 N 0.8538(2) 0.83375(19) 0.23898(13)
N4 N 1.3101(2) 1.20983(19) 0.42669(13)
C1 C 0.8695(4) 0.4982(3) -0.35170(19)
C2 C 0.7753(3) 0.4088(3) -0.3144(2)
C3 C 0.7729(3) 0.4438(3) -0.22187(19)
C4 C 0.8620(3) 0.5697(3) -0.16206(17)
C5 C 0.9607(3) 0.6566(3) -0.2024(2)
C6 C 0.9655(3) 0.6224(3) -0.2952(2)
C7 C 0.7485(3) 0.6333(2) -0.03543(17)
C8 C 0.6164(3) 0.6459(2) -0.09404(17)
H2 H 0.6110 0.5975 -0.1578
H3 H 0.5202 0.6005 -0.0752
C9 C 0.6258(3) 0.7892(3) -0.09004(16)
C10 C 0.7614(3) 0.9010(3) -0.05762(19)
H4 H 0.8521 0.8897 -0.0360
C11 C 0.7635(4) 1.0295(3) -0.0570(2)
H5 H 0.8549 1.1044 -0.0338
C12 C 0.6322(5) 1.0470(4) -0.0903(2)
H6 H 0.6344 1.1333 -0.0910
C13 C 0.4968(5) 0.9367(4) -0.1227(2)
H7 H 0.4068 0.9482 -0.1453
C14 C 0.4938(3) 0.8097(3) -0.12198(19)
H8 H 0.4011 0.7358 -0.1434
C15 C 0.6432(3) 0.7096(3) 0.10659(17)
H9 H 0.5869 0.6459 0.1381
H10 H 0.5681 0.7205 0.0633
C16 C 0.7324(3) 0.8451(2) 0.17618(17)
H11 H 0.7793 0.9116 0.1442
H12 H 0.6619 0.8766 0.2115
C17 C 0.8678(3) 0.6432(3) 0.11849(17)
H13 H 0.9378 0.6114 0.0829
H14 H 0.8209 0.5769 0.1506
C18 C 0.9580(3) 0.7793(3) 0.18817(17)
H15 H 1.0336 0.7685 0.2312
H16 H 1.0137 0.8430 0.1565
C19 C 0.9259(3) 0.9490(2) 0.31559(15)
C20 C 1.0824(3) 1.0251(2) 0.33210(16)
H17 H 1.1435 1.0024 0.2897
C21 C 1.1511(3) 1.1353(2) 0.41076(16)
C22 C 1.0609(3) 1.1733(2) 0.47458(15)
C23 C 0.9022(3) 1.0963(2) 0.45799(16)
H18 H 0.8400 1.1194 0.4995
C24 C 0.8390(3) 0.9887(2) 0.38210(17)
C25 C 1.1311(3) 1.2868(2) 0.55746(16)
C26 C 1.2934(3) 1.3583(2) 0.56689(16)
C27 C 1.3736(3) 1.3172(2) 0.50125(17)
H19 H 1.4790 1.3669 0.5088
C28 C 1.4033(3) 1.1711(3) 0.35946(18)
H20 H 1.3840 1.1880 0.2997
C29 C 1.5645(3) 1.1840(3) 0.3911(2)
H21 H 1.6405 1.2103 0.3523
H22 H 1.6043 1.2185 0.4570
C30 C 1.4412(3) 1.0474(3) 0.3563(2)
H23 H 1.4419 0.9904 0.2962
H24 H 1.4057 0.9986 0.4009
C31 C 1.3807(4) 1.4745(3) 0.64906(18)
loop_
_geom_bond_atom_site_label_1
_geom_bond_atom_site_label_2
_geom_bond_site_symmetry_1
_geom_bond_site_symmetry_2
F1 C1 1_555 1_555
F2 C2 1_555 1_555
F3 C3 1_555 1_555
F4 C5 1_555 1_555
F5 C6 1_555 1_555
F6 C24 1_555 1_555
O1 C25 1_555 1_555
O2 H1 1_555 1_555
O3 C31 1_555 1_555
N1 C4 1_555 1_555
N2 C7 1_555 1_555
N3 C16 1_555 1_555
N4 C21 1_555 1_555
C1 C2 1_555 1_555
C2 C3 1_555 1_555
C3 C4 1_555 1_555
C4 C5 1_555 1_555
C5 C6 1_555 1_555
C6 C1 1_555 1_555
C7 N1 1_555 1_555
C8 C7 1_555 1_555
H2 C8 1_555 1_555
H3 C8 1_555 1_555
C9 C8 1_555 1_555
C10 C9 1_555 1_555
H4 C10 1_555 1_555
C11 C10 1_555 1_555
H5 C11 1_555 1_555
C12 C11 1_555 1_555
H6 C12 1_555 1_555
C13 C12 1_555 1_555
H7 C13 1_555 1_555
C14 C9 1_555 1_555
H8 C14 1_555 1_555
C15 N2 1_555 1_555
H9 C15 1_555 1_555
H10 C15 1_555 1_555
C16 C15 1_555 1_555
H11 C16 1_555 1_555
H12 C16 1_555 1_555
C17 N2 1_555 1_555
H13 C17 1_555 1_555
H14 C17 1_555 1_555
C18 N3 1_555 1_555
H15 C18 1_555 1_555
H16 C18 1_555 1_555
C19 N3 1_555 1_555
C20 C19 1_555 1_555
H17 C20 1_555 1_555
C21 C20 1_555 1_555
C22 C21 1_555 1_555
C23 C22 1_555 1_555
H18 C23 1_555 1_555
C24 C19 1_555 1_555
C25 C22 1_555 1_555
C26 C25 1_555 1_555
C27 N4 1_555 1_555
H19 C27 1_555 1_555
C28 N4 1_555 1_555
H20 C28 1_555 1_555
C29 C28 1_555 1_555
H21 C29 1_555 1_555
H22 C29 1_555 1_555
C30 C28 1_555 1_555
H23 C30 1_555 1_555
H24 C30 1_555 1_555
C31 O2 1_555 1_555
C13 C14 1_555 1_555
C17 C18 1_555 1_555
C23 C24 1_555 1_555
C26 C27 1_555 1_555
C26 C31 1_555 1_555
C29 C30 1_555 1_555

#END
