
#######################################################################
#
#                 Cambridge Crystallographic Data Centre
#                                CCDC 
#
#######################################################################
#
# If this CIF has been generated from an entry in the Cambridge 
# Structural Database, then it will include bibliographic, chemical, 
# crystal, experimental, refinement or atomic coordinate data resulting 
# from the CCDC's data processing and validation procedures.
#
#######################################################################

data_GEHLEN
_chemical_formula_moiety         'C82 H62 N4 S7,C1 H2 Cl2'
_chemical_name_systematic        
'6,15,25,34-tetramesityl-40,43,46,51,52,55,56-heptathia-50,53,54,57-tetraazatridecacyclo[18.18.9.1^2,5^.1^7,10^.1^11,14^.1^16,19^.1^21,24^.1^26,29^.1^30,33^.1^35,38^.1^39,42^.1^44,47^.0^41,45^]heptapentaconta-1(39),2(57),3,5,7,9,11,13,15,17,19(54),20(47),21(53),22,24,26,28,30,32,34,36,38(50),41(45),42(49),44(48)-pentacosaene dichloromethane unknown solvate'
_symmetry_cell_setting           monoclinic
_symmetry_space_group_name_H-M   'P 21/n'
_symmetry_Int_Tables_number      14
_space_group_name_Hall           '-P 2yn'
loop_
_symmetry_equiv_pos_site_id
_symmetry_equiv_pos_as_xyz
1 x,y,z
2 1/2-x,1/2+y,1/2-z
3 -x,-y,-z
4 1/2+x,1/2-y,1/2+z
_cell_length_a                   20.2245(9)
_cell_length_b                   14.9645(9)
_cell_length_c                   52.604(3)
_cell_angle_alpha                90
_cell_angle_beta                 95.595(5)
_cell_angle_gamma                90
_cell_volume                     15844.7
_exptl_crystal_colour            red
_exptl_crystal_description       plates
_cell_formula_units_Z            8
_exptl_crystal_recrystallization_method dichloromethane/hexane
loop_
_atom_site_label
_atom_site_type_symbol
_atom_site_fract_x
_atom_site_fract_y
_atom_site_fract_z
C1 C 0.6848(7) 0.1553(10) 0.6837(3)
C2 C 0.6160(8) 0.1602(11) 0.6795(3)
H1 H 0.590018 0.200178 0.688390
C3 C 0.5891(8) 0.1012(11) 0.6610(3)
H2 H 0.542700 0.096042 0.656333
C4 C 0.6373(7) 0.0490(10) 0.6498(3)
C5 C 0.6239(7) -0.0086(10) 0.6284(3)
C6 C 0.5616(7) -0.0210(11) 0.6152(3)
H3 H 0.522483 0.006758 0.619982
C7 C 0.5619(8) -0.0764(11) 0.5946(3)
H4 H 0.523420 -0.089749 0.583450
C8 C 0.6236(7) -0.1111(11) 0.5918(3)
C9 C 0.6393(7) -0.1692(11) 0.5717(3)
C10 C 0.6993(7) -0.2094(10) 0.5683(3)
C11 C 0.7187(8) -0.2555(12) 0.5460(3)
H5 H 0.691522 -0.265351 0.530494
C12 C 0.7821(7) -0.2816(11) 0.5512(3)
H6 H 0.809677 -0.308988 0.539792
C13 C 0.7992(7) -0.2594(11) 0.5776(3)
C14 C 0.8618(7) -0.2800(12) 0.5932(3)
C15 C 0.8691(7) -0.2653(11) 0.6192(3)
C16 C 0.9217(7) -0.2969(10) 0.6367(3)
H7 H 0.953684 -0.338916 0.632106
C17 C 0.9227(7) -0.2628(10) 0.6603(3)
C18 C 0.8698(6) -0.1994(10) 0.6622(3)
C19 C 0.8802(6) -0.1425(10) 0.6834(3)
C20 C 0.9428(7) -0.1617(11) 0.6970(3)
C21 C 0.9625(7) -0.0937(10) 0.7134(3)
H8 H 1.001428 -0.095838 0.725045
C22 C 0.9189(7) -0.0205(11) 0.7112(3)
C23 C 0.9327(7) 0.0665(10) 0.7209(3)
C24 C 0.8844(7) 0.1365(11) 0.7189(3)
C25 C 0.8942(8) 0.2300(11) 0.7251(3)
H9 H 0.934683 0.257295 0.731676
C26 C 0.8353(7) 0.2711(10) 0.7197(3)
H10 H 0.825577 0.332484 0.722118
C27 C 0.7895(7) 0.2015(11) 0.7094(3)
C28 C 0.7242(7) 0.2179(11) 0.6994(3)
C29 C 1.0026(7) 0.0871(10) 0.7289(3)
C30 C 1.0297(7) 0.1407(10) 0.7505(3)
H11 H 1.005599 0.168413 0.763001
C31 C 1.0962(7) 0.1430(10) 0.7494(3)
H12 H 1.127837 0.171780 0.761198
C32 C 1.1102(7) 0.0945(9) 0.7272(3)
C33 C 1.1693(7) 0.0843(11) 0.7173(3)
C34 C 1.1772(7) 0.0291(10) 0.6946(3)
C35 C 1.2349(7) 0.0309(10) 0.6824(3)
H13 H 1.272431 0.066365 0.688031
C36 C 1.2323(7) -0.0227(12) 0.6617(3)
H14 H 1.267928 -0.027484 0.651283
C37 C 1.1743(7) -0.0699(10) 0.6569(3)
C38 C 1.1625(8) -0.1368(12) 0.6368(3)
C39 C 1.2139(9) -0.1751(13) 0.6246(4)
H15 H 1.259447 -0.162794 0.629466
C40 C 1.1931(8) -0.2309(12) 0.6055(3)
H16 H 1.222870 -0.259563 0.595216
C41 C 1.1249(7) -0.2434(11) 0.6019(3)
C42 C 1.0950(7) -0.3063(10) 0.5832(3)
C43 C 1.0271(8) -0.3184(10) 0.5777(3)
C44 C 0.9935(9) -0.3786(13) 0.5590(4)
H17 H 1.013893 -0.416034 0.547424
C45 C 0.9277(9) -0.3710(12) 0.5611(3)
H18 H 0.892672 -0.399273 0.550763
C46 C 0.9216(8) -0.3117(12) 0.5822(3)
C47 C 0.5823(8) -0.1811(11) 0.5502(3)
C48 C 0.5761(8) -0.1210(12) 0.5299(3)
C49 C 0.5227(9) -0.1346(13) 0.5116(4)
H19 H 0.515869 -0.093769 0.497742
C50 C 0.4795(9) -0.2052(13) 0.5127(4)
C51 C 0.4859(9) -0.2618(14) 0.5324(4)
H20 H 0.453378 -0.307335 0.533185
C52 C 0.5376(9) -0.2576(13) 0.5517(3)
C53 C 0.6238(10) -0.0478(14) 0.5281(4)
H21 H 0.639536 -0.027066 0.545322
H22 H 0.602159 0.001705 0.518348
H23 H 0.661633 -0.069165 0.519494
C54 C 0.4235(9) -0.2215(14) 0.4905(4)
H24 H 0.388013 -0.257487 0.496756
H25 H 0.442097 -0.253288 0.476517
H26 H 0.405356 -0.163981 0.484219
C55 C 0.5420(8) -0.3151(13) 0.5736(3)
H27 H 0.539303 -0.279144 0.589091
H28 H 0.584342 -0.347277 0.574878
H29 H 0.505240 -0.358060 0.571951
C56 C 0.6940(7) 0.3081(11) 0.7041(3)
C57 C 0.6730(7) 0.3285(10) 0.7273(3)
C58 C 0.6525(8) 0.4228(12) 0.7300(3)
H30 H 0.639374 0.442812 0.745862
C59 C 0.6520(8) 0.4778(11) 0.7114(3)
C60 C 0.6708(7) 0.4565(10) 0.6885(3)
H31 H 0.667526 0.499768 0.675260
C61 C 0.6951(7) 0.3709(11) 0.6839(3)
C62 C 0.6718(10) 0.2673(15) 0.7487(4)
H32 H 0.643894 0.215643 0.743448
H33 H 0.653618 0.297833 0.762917
H34 H 0.717085 0.247001 0.754042
C63 C 0.6312(8) 0.5771(11) 0.7152(4)
H35 H 0.584231 0.584726 0.709137
H36 H 0.658320 0.616401 0.705536
H37 H 0.638154 0.592423 0.733406
C64 C 0.7209(8) 0.3507(12) 0.6586(3)
H38 H 0.701342 0.392577 0.645690
H39 H 0.708790 0.289435 0.653484
H40 H 0.769379 0.356847 0.660259
C65 C 1.2278(7) 0.1326(9) 0.7291(3)
C66 C 1.2312(7) 0.2253(10) 0.7219(3)
C67 C 1.2858(8) 0.2734(12) 0.7325(3)
H41 H 1.290773 0.333921 0.727569
C68 C 1.3337(8) 0.2358(12) 0.7503(3)
C69 C 1.3281(8) 0.1509(11) 0.7570(3)
H42 H 1.360511 0.126449 0.769300
C70 C 1.2744(7) 0.0936(11) 0.7461(3)
C71 C 1.1795(8) 0.2691(12) 0.7035(4)
H43 H 1.139434 0.280567 0.712098
H44 H 1.168423 0.229499 0.688865
H45 H 1.196850 0.325691 0.697574
C72 C 1.3912(8) 0.2940(13) 0.7616(4)
H46 H 1.382108 0.314656 0.778630
H47 H 1.396046 0.345632 0.750527
H48 H 1.432323 0.258933 0.763046
C73 C 1.2706(9) -0.0027(11) 0.7539(3)
H49 H 1.224879 -0.017197 0.757080
H50 H 1.300267 -0.012859 0.769492
H51 H 1.284165 -0.040829 0.740179
C74 C 1.1415(7) -0.3522(11) 0.5673(3)
C75 C 1.1782(10) -0.4273(14) 0.5784(4)
C76 C 1.2300(10) -0.4550(15) 0.5646(4)
H52 H 1.257322 -0.501625 0.572054
C77 C 1.2459(11) -0.4228(16) 0.5416(4)
C78 C 1.2059(9) -0.3498(13) 0.5311(4)
H53 H 1.215899 -0.321082 0.515808
C79 C 1.1537(9) -0.3230(13) 0.5434(4)
C80 C 1.1671(9) -0.4635(14) 0.6034(4)
H54 H 1.169135 -0.528938 0.602817
H55 H 1.123323 -0.444866 0.607900
H56 H 1.201514 -0.441208 0.616244
C81 C 1.3058(11) -0.4522(17) 0.5292(5)
H57 H 1.345135 -0.448934 0.541598
H58 H 1.311905 -0.412998 0.514676
H59 H 1.299498 -0.513833 0.523163
C82 C 1.1167(9) -0.2398(13) 0.5315(4)
H60 H 1.070080 -0.255059 0.526561
H61 H 1.137618 -0.220357 0.516434
H62 H 1.118912 -0.191305 0.544122
N1 N 0.7506(6) -0.2165(8) 0.5878(3)
N2 N 0.8211(6) 0.1214(8) 0.7092(2)
N3 N 1.0512(6) 0.0559(8) 0.7163(2)
N4 N 0.9804(6) -0.2807(9) 0.5914(2)
S1 S 0.71555(18) 0.0747(3) 0.66448(8)
S2 S 0.68286(18) -0.0723(3) 0.61567(8)
S3 S 0.81530(17) -0.1962(3) 0.63476(8)
S4 S 0.98271(19) -0.2557(3) 0.68633(8)
S5 S 0.84671(17) -0.0440(3) 0.69128(8)
S6 S 1.11907(17) -0.0411(3) 0.67874(8)
S7 S 1.08675(18) -0.1795(3) 0.62362(8)
C83 C 0.0934(8) 0.3383(11) 0.6480(3)
C84 C 0.0506(10) 0.2617(13) 0.6469(4)
H63 H 0.008534 0.261478 0.653507
C85 C 0.0760(10) 0.1894(14) 0.6357(4)
H64 H 0.053220 0.133938 0.633714
C86 C 0.1388(8) 0.2038(11) 0.6272(3)
C87 C 0.1740(9) 0.1423(13) 0.6118(4)
C88 C 0.1478(10) 0.0651(14) 0.6004(4)
H65 H 0.105797 0.041604 0.603639
C89 C 0.1884(9) 0.0249(13) 0.5840(4)
H66 H 0.176096 -0.026076 0.573877
C90 C 0.2508(10) 0.0693(13) 0.5842(4)
C91 C 0.3011(9) 0.0462(13) 0.5685(4)
C92 C 0.3655(10) 0.0727(14) 0.5698(4)
C93 C 0.4146(10) 0.0558(15) 0.5516(4)
H67 H 0.408658 0.019296 0.536727
C94 C 0.4691(11) 0.1016(16) 0.5598(4)
H68 H 0.509045 0.105908 0.551826
C95 C 0.4543(7) 0.1450(9) 0.5844(3)
C96 C 0.4995(9) 0.2010(13) 0.5988(4)
C97 C 0.4812(7) 0.2406(11) 0.6211(3)
C98 C 0.5231(9) 0.2855(12) 0.6396(3)
H69 H 0.570163 0.285366 0.640009
C99 C 0.4885(8) 0.3306(12) 0.6575(3)
C100 C 0.4155(8) 0.3179(12) 0.6530(3)
C101 C 0.3838(7) 0.3725(11) 0.6670(3)
C102 C 0.4251(9) 0.4279(12) 0.6829(3)
C103 C 0.3927(8) 0.4961(13) 0.6922(3)
H70 H 0.412618 0.538028 0.704138
C104 C 0.3242(8) 0.4992(12) 0.6820(3)
C105 C 0.2815(8) 0.5735(11) 0.6815(3)
C106 C 0.2119(8) 0.5648(12) 0.6746(3)
C107 C 0.1595(8) 0.6361(12) 0.6723(3)
H71 H 0.163540 0.698822 0.674837
C108 C 0.1034(10) 0.5845(13) 0.6655(3)
H72 H 0.059573 0.607690 0.662733
C109 C 0.1198(7) 0.4925(10) 0.6633(3)
C110 C 0.0767(9) 0.4221(13) 0.6575(4)
C111 C 0.3118(8) 0.6627(11) 0.6851(3)
C112 C 0.2882(8) 0.7449(12) 0.6955(3)
H73 H 0.246745 0.753819 0.702156
C113 C 0.3367(7) 0.8070(12) 0.6938(3)
H74 H 0.336054 0.867372 0.699391
C114 C 0.3885(8) 0.7638(11) 0.6821(3)
C115 C 0.4482(8) 0.8042(13) 0.6762(3)
C116 C 0.5014(7) 0.7572(11) 0.6643(3)
C117 C 0.5616(8) 0.7998(13) 0.6610(3)
H75 H 0.571425 0.859507 0.666178
C118 C 0.6046(9) 0.7467(12) 0.6496(3)
H76 H 0.647718 0.765771 0.646204
C119 C 0.5810(8) 0.6658(11) 0.6436(3)
C120 C 0.6188(8) 0.6003(12) 0.6285(3)
C121 C 0.6790(8) 0.6203(12) 0.6199(3)
H77 H 0.701562 0.674966 0.623950
C122 C 0.7044(9) 0.5553(12) 0.6051(3)
H78 H 0.745379 0.561669 0.597890
C123 C 0.6646(7) 0.4794(11) 0.6016(3)
C124 C 0.6788(8) 0.4051(13) 0.5871(3)
C125 C 0.6441(8) 0.3243(11) 0.5849(3)
C126 C 0.6615(9) 0.2412(12) 0.5736(3)
H79 H 0.700409 0.229948 0.565358
C127 C 0.6118(9) 0.1811(15) 0.5768(4)
H80 H 0.608244 0.120732 0.571242
C128 C 0.5653(8) 0.2327(12) 0.5910(3)
C129 C 0.2804(10) -0.0116(15) 0.5450(4)
C130 C 0.2420(11) 0.0247(18) 0.5242(5)
C131 C 0.2264(11) -0.0191(17) 0.5014(4)
C132 C 0.2467(11) -0.1109(16) 0.5030(4)
C133 C 0.2814(12) -0.1518(18) 0.5210(5)
C134 C 0.2992(11) -0.1007(16) 0.5449(5)
C135 C 0.2252(16) 0.124(2) 0.5240(6)
H81 H 0.195454 0.136703 0.537212
H82 H 0.203231 0.140624 0.507248
H83 H 0.266156 0.158896 0.527461
C136 C 0.2286(13) -0.1606(19) 0.4774(5)
H84 H 0.257665 -0.140027 0.464712
H85 H 0.182218 -0.148048 0.471206
H86 H 0.234424 -0.225014 0.480025
C137 C 0.3387(12) -0.1438(17) 0.5665(5)
H87 H 0.386121 -0.135676 0.564738
H88 H 0.328354 -0.207708 0.566703
H89 H 0.327984 -0.116522 0.582583
C138 C 0.0037(8) 0.4446(11) 0.6608(3)
C139 C -0.0121(8) 0.4556(12) 0.6857(3)
C140 C -0.0767(9) 0.4889(12) 0.6893(4)
C141 C -0.1200(8) 0.5055(12) 0.6675(4)
C142 C -0.1055(8) 0.4950(11) 0.6436(4)
C143 C -0.0398(8) 0.4623(11) 0.6394(3)
C144 C 0.0355(9) 0.4310(15) 0.7085(4)
H90 H 0.029123 0.368214 0.712877
H91 H 0.027206 0.468957 0.722986
H92 H 0.081267 0.439935 0.704289
C145 C -0.1865(8) 0.5594(13) 0.6727(4)
H93 H -0.180609 0.623024 0.669141
H94 H -0.194916 0.551880 0.690649
H95 H -0.224244 0.536043 0.661634
C146 C -0.0240(9) 0.4548(15) 0.6134(4)
H96 H 0.021096 0.477287 0.612105
H97 H -0.055711 0.490076 0.602258
H98 H -0.026540 0.392015 0.608121
C147 C 0.4549(8) 0.8977(13) 0.6830(4)
C148 C 0.4801(8) 0.9244(10) 0.7073(3)
C149 C 0.4796(9) 1.0156(13) 0.7140(4)
C150 C 0.4465(9) 1.0780(13) 0.6966(4)
C151 C 0.4244(9) 1.0542(13) 0.6724(4)
C152 C 0.4279(8) 0.9646(12) 0.6648(3)
C153 C 0.5091(9) 0.8582(12) 0.7253(4)
H99 H 0.473580 0.823310 0.731984
H100 H 0.535119 0.888514 0.739487
H101 H 0.538104 0.818278 0.716686
C154 C 0.4436(11) 1.1748(15) 0.7052(4)
H102 H 0.474671 1.210671 0.696232
H103 H 0.455872 1.178427 0.723627
H104 H 0.398422 1.197837 0.701181
C155 C 0.4018(8) 0.9338(12) 0.6387(3)
H105 H 0.381165 0.984181 0.629020
H106 H 0.368750 0.886706 0.640133
H107 H 0.438513 0.910270 0.629785
C156 C 0.7400(8) 0.4087(12) 0.5717(3)
C157 C 0.7334(8) 0.4613(13) 0.5492(3)
C158 C 0.7884(10) 0.4611(14) 0.5342(4)
C159 C 0.8448(10) 0.4152(14) 0.5418(4)
C160 C 0.8535(9) 0.3700(13) 0.5642(4)
C161 C 0.7984(9) 0.3684(13) 0.5793(4)
C162 C 0.6697(10) 0.5051(15) 0.5401(4)
H108 H 0.660128 0.552498 0.552075
H109 H 0.633910 0.460741 0.539112
H110 H 0.673088 0.530878 0.523182
C163 C 0.9032(11) 0.4173(18) 0.5248(5)
H111 H 0.930004 0.471094 0.528664
H112 H 0.885635 0.418156 0.506740
H113 H 0.930983 0.364177 0.528154
C164 C 0.8087(8) 0.3156(14) 0.6043(4)
H114 H 0.794321 0.351835 0.618239
H115 H 0.855836 0.300715 0.607896
H116 H 0.782461 0.260483 0.602643
N5 N 0.3969(7) 0.1279(10) 0.5893(3)
N6 N 0.1901(7) 0.4852(9) 0.6683(3)
N7 N 0.3706(6) 0.6716(9) 0.6758(3)
N8 N 0.5822(5) 0.3101(9) 0.5951(2)
S8 S 0.1656(2) 0.3098(3) 0.63540(9)
S9 S 0.2541(2) 0.1591(3) 0.60481(10)
S10 S 0.3969(2) 0.2462(3) 0.62744(9)
S11 S 0.5091(2) 0.4053(3) 0.68163(9)
S12 S 0.3012(2) 0.4017(3) 0.66484(9)
S13 S 0.5040(2) 0.6497(3) 0.65337(9)
S14 S 0.5932(2) 0.4958(3) 0.61799(9)
C165 C 0.3558(10) -0.4240(14) 0.6200(4)
H117 H 0.369177 -0.415151 0.638393
H118 H 0.308701 -0.442930 0.617958
Cl1 Cl 0.3642(3) -0.3242(5) 0.60386(15)
Cl2 Cl 0.4045(4) -0.5065(4) 0.60826(14)
C166 C 0.6987(13) -0.0230(18) 0.7261(5)
H119 H 0.747292 -0.020964 0.730883
H120 H 0.688848 0.023453 0.712855
Cl3 Cl 0.6822(3) -0.1236(5) 0.71158(14)
Cl4 Cl 0.6638(4) 0.0089(4) 0.75091(15)
loop_
_geom_bond_atom_site_label_1
_geom_bond_atom_site_label_2
_geom_bond_site_symmetry_1
_geom_bond_site_symmetry_2
C1 C2 1_555 1_555
C2 H1 1_555 1_555
C3 C2 1_555 1_555
H2 C3 1_555 1_555
C4 C3 1_555 1_555
C5 C4 1_555 1_555
C6 C5 1_555 1_555
H3 C6 1_555 1_555
C7 C6 1_555 1_555
H4 C7 1_555 1_555
C8 C7 1_555 1_555
C9 C8 1_555 1_555
C10 C9 1_555 1_555
C11 C10 1_555 1_555
H5 C11 1_555 1_555
C12 C11 1_555 1_555
H6 C12 1_555 1_555
C13 C12 1_555 1_555
C14 C13 1_555 1_555
C15 C14 1_555 1_555
C16 C15 1_555 1_555
H7 C16 1_555 1_555
C17 C16 1_555 1_555
C18 C17 1_555 1_555
C19 C18 1_555 1_555
C20 C19 1_555 1_555
C21 C20 1_555 1_555
H8 C21 1_555 1_555
C22 C21 1_555 1_555
C23 C22 1_555 1_555
C24 C23 1_555 1_555
C25 C24 1_555 1_555
H9 C25 1_555 1_555
C26 C25 1_555 1_555
H10 C26 1_555 1_555
C27 C26 1_555 1_555
C28 C1 1_555 1_555
C29 C23 1_555 1_555
C30 C29 1_555 1_555
H11 C30 1_555 1_555
C31 C30 1_555 1_555
H12 C31 1_555 1_555
C32 C31 1_555 1_555
C33 C32 1_555 1_555
C34 C33 1_555 1_555
C35 C34 1_555 1_555
H13 C35 1_555 1_555
C36 C35 1_555 1_555
H14 C36 1_555 1_555
C37 C36 1_555 1_555
C38 C37 1_555 1_555
C39 C38 1_555 1_555
H15 C39 1_555 1_555
C40 C39 1_555 1_555
H16 C40 1_555 1_555
C41 C40 1_555 1_555
C42 C41 1_555 1_555
C43 C42 1_555 1_555
C44 C43 1_555 1_555
H17 C44 1_555 1_555
C45 C44 1_555 1_555
H18 C45 1_555 1_555
C46 C14 1_555 1_555
C47 C9 1_555 1_555
C48 C47 1_555 1_555
C49 C48 1_555 1_555
H19 C49 1_555 1_555
C50 C49 1_555 1_555
C51 C50 1_555 1_555
H20 C51 1_555 1_555
C52 C47 1_555 1_555
C53 C48 1_555 1_555
H21 C53 1_555 1_555
H22 C53 1_555 1_555
H23 C53 1_555 1_555
C54 C50 1_555 1_555
H24 C54 1_555 1_555
H25 C54 1_555 1_555
H26 C54 1_555 1_555
C55 C52 1_555 1_555
H27 C55 1_555 1_555
H28 C55 1_555 1_555
H29 C55 1_555 1_555
C56 C28 1_555 1_555
C57 C56 1_555 1_555
C58 C57 1_555 1_555
H30 C58 1_555 1_555
C59 C58 1_555 1_555
C60 C59 1_555 1_555
H31 C60 1_555 1_555
C61 C56 1_555 1_555
C62 C57 1_555 1_555
H32 C62 1_555 1_555
H33 C62 1_555 1_555
H34 C62 1_555 1_555
C63 C59 1_555 1_555
H35 C63 1_555 1_555
H36 C63 1_555 1_555
H37 C63 1_555 1_555
C64 C61 1_555 1_555
H38 C64 1_555 1_555
H39 C64 1_555 1_555
H40 C64 1_555 1_555
C65 C33 1_555 1_555
C66 C65 1_555 1_555
C67 C66 1_555 1_555
H41 C67 1_555 1_555
C68 C67 1_555 1_555
C69 C68 1_555 1_555
H42 C69 1_555 1_555
C70 C65 1_555 1_555
C71 C66 1_555 1_555
H43 C71 1_555 1_555
H44 C71 1_555 1_555
H45 C71 1_555 1_555
C72 C68 1_555 1_555
H46 C72 1_555 1_555
H47 C72 1_555 1_555
H48 C72 1_555 1_555
C73 C70 1_555 1_555
H49 C73 1_555 1_555
H50 C73 1_555 1_555
H51 C73 1_555 1_555
C74 C42 1_555 1_555
C75 C74 1_555 1_555
C76 C75 1_555 1_555
H52 C76 1_555 1_555
C77 C76 1_555 1_555
C78 C77 1_555 1_555
H53 C78 1_555 1_555
C79 C74 1_555 1_555
C80 C75 1_555 1_555
H54 C80 1_555 1_555
H55 C80 1_555 1_555
H56 C80 1_555 1_555
C81 C77 1_555 1_555
H57 C81 1_555 1_555
H58 C81 1_555 1_555
H59 C81 1_555 1_555
C82 C79 1_555 1_555
H60 C82 1_555 1_555
H61 C82 1_555 1_555
H62 C82 1_555 1_555
N1 C10 1_555 1_555
N2 C24 1_555 1_555
N3 C29 1_555 1_555
N4 C43 1_555 1_555
S1 C1 1_555 1_555
S2 C5 1_555 1_555
S3 C15 1_555 1_555
S4 C17 1_555 1_555
S5 C19 1_555 1_555
S6 C34 1_555 1_555
S7 C38 1_555 1_555
C83 C84 1_555 1_555
C84 H63 1_555 1_555
C85 C84 1_555 1_555
H64 C85 1_555 1_555
C86 C85 1_555 1_555
C87 C86 1_555 1_555
C88 C87 1_555 1_555
H65 C88 1_555 1_555
C89 C88 1_555 1_555
H66 C89 1_555 1_555
C90 C89 1_555 1_555
C91 C90 1_555 1_555
C92 C91 1_555 1_555
C93 C92 1_555 1_555
H67 C93 1_555 1_555
C94 C93 1_555 1_555
H68 C94 1_555 1_555
C95 C94 1_555 1_555
C96 C95 1_555 1_555
C97 C96 1_555 1_555
C98 C97 1_555 1_555
H69 C98 1_555 1_555
C99 C98 1_555 1_555
C100 C99 1_555 1_555
C101 C100 1_555 1_555
C102 C101 1_555 1_555
C103 C102 1_555 1_555
H70 C103 1_555 1_555
C104 C103 1_555 1_555
C105 C104 1_555 1_555
C106 C105 1_555 1_555
C107 C106 1_555 1_555
H71 C107 1_555 1_555
C108 C107 1_555 1_555
H72 C108 1_555 1_555
C109 C108 1_555 1_555
C110 C83 1_555 1_555
C111 C105 1_555 1_555
C112 C111 1_555 1_555
H73 C112 1_555 1_555
C113 C112 1_555 1_555
H74 C113 1_555 1_555
C114 C113 1_555 1_555
C115 C114 1_555 1_555
C116 C115 1_555 1_555
C117 C116 1_555 1_555
H75 C117 1_555 1_555
C118 C117 1_555 1_555
H76 C118 1_555 1_555
C119 C118 1_555 1_555
C120 C119 1_555 1_555
C121 C120 1_555 1_555
H77 C121 1_555 1_555
C122 C121 1_555 1_555
H78 C122 1_555 1_555
C123 C122 1_555 1_555
C124 C123 1_555 1_555
C125 C124 1_555 1_555
C126 C125 1_555 1_555
H79 C126 1_555 1_555
C127 C126 1_555 1_555
H80 C127 1_555 1_555
C128 C96 1_555 1_555
C129 C91 1_555 1_555
C130 C129 1_555 1_555
C131 C130 1_555 1_555
C132 C131 1_555 1_555
C133 C132 1_555 1_555
C134 C129 1_555 1_555
C135 C130 1_555 1_555
H81 C135 1_555 1_555
H82 C135 1_555 1_555
H83 C135 1_555 1_555
C136 C132 1_555 1_555
H84 C136 1_555 1_555
H85 C136 1_555 1_555
H86 C136 1_555 1_555
C137 C134 1_555 1_555
H87 C137 1_555 1_555
H88 C137 1_555 1_555
H89 C137 1_555 1_555
C138 C110 1_555 1_555
C139 C138 1_555 1_555
C140 C139 1_555 1_555
C141 C140 1_555 1_555
C142 C141 1_555 1_555
C143 C138 1_555 1_555
C144 C139 1_555 1_555
H90 C144 1_555 1_555
H91 C144 1_555 1_555
H92 C144 1_555 1_555
C145 C141 1_555 1_555
H93 C145 1_555 1_555
H94 C145 1_555 1_555
H95 C145 1_555 1_555
C146 C143 1_555 1_555
H96 C146 1_555 1_555
H97 C146 1_555 1_555
H98 C146 1_555 1_555
C147 C115 1_555 1_555
C148 C147 1_555 1_555
C149 C148 1_555 1_555
C150 C149 1_555 1_555
C151 C150 1_555 1_555
C152 C147 1_555 1_555
C153 C148 1_555 1_555
H99 C153 1_555 1_555
H100 C153 1_555 1_555
H101 C153 1_555 1_555
C154 C150 1_555 1_555
H102 C154 1_555 1_555
H103 C154 1_555 1_555
H104 C154 1_555 1_555
C155 C152 1_555 1_555
H105 C155 1_555 1_555
H106 C155 1_555 1_555
H107 C155 1_555 1_555
C156 C124 1_555 1_555
C157 C156 1_555 1_555
C158 C157 1_555 1_555
C159 C158 1_555 1_555
C160 C159 1_555 1_555
C161 C156 1_555 1_555
C162 C157 1_555 1_555
H108 C162 1_555 1_555
H109 C162 1_555 1_555
H110 C162 1_555 1_555
C163 C159 1_555 1_555
H111 C163 1_555 1_555
H112 C163 1_555 1_555
H113 C163 1_555 1_555
C164 C161 1_555 1_555
H114 C164 1_555 1_555
H115 C164 1_555 1_555
H116 C164 1_555 1_555
N5 C92 1_555 1_555
N6 C106 1_555 1_555
N7 C111 1_555 1_555
N8 C125 1_555 1_555
S8 C83 1_555 1_555
S9 C87 1_555 1_555
S10 C97 1_555 1_555
S11 C99 1_555 1_555
S12 C101 1_555 1_555
S13 C116 1_555 1_555
S14 C120 1_555 1_555
C165 H117 1_555 1_555
H118 C165 1_555 1_555
Cl1 C165 1_555 1_555
Cl2 C165 1_555 1_555
C166 H119 1_555 1_555
H120 C166 1_555 1_555
Cl3 C166 1_555 1_555
Cl4 C166 1_555 1_555
C4 S1 1_555 1_555
C8 S2 1_555 1_555
C13 N1 1_555 1_555
C18 S3 1_555 1_555
C20 S4 1_555 1_555
C22 S5 1_555 1_555
C27 C28 1_555 1_555
C27 N2 1_555 1_555
C32 N3 1_555 1_555
C37 S6 1_555 1_555
C41 S7 1_555 1_555
C45 C46 1_555 1_555
C46 N4 1_555 1_555
C51 C52 1_555 1_555
C60 C61 1_555 1_555
C69 C70 1_555 1_555
C78 C79 1_555 1_555
C86 S8 1_555 1_555
C90 S9 1_555 1_555
C95 N5 1_555 1_555
C100 S10 1_555 1_555
C102 S11 1_555 1_555
C104 S12 1_555 1_555
C109 C110 1_555 1_555
C109 N6 1_555 1_555
C114 N7 1_555 1_555
C119 S13 1_555 1_555
C123 S14 1_555 1_555
C127 C128 1_555 1_555
C128 N8 1_555 1_555
C133 C134 1_555 1_555
C142 C143 1_555 1_555
C151 C152 1_555 1_555
C160 C161 1_555 1_555

#END
