
#######################################################################
#
#                 Cambridge Crystallographic Data Centre
#                                CCDC 
#
#######################################################################
#
# If this CIF has been generated from an entry in the Cambridge 
# Structural Database, then it will include bibliographic, chemical, 
# crystal, experimental, refinement or atomic coordinate data resulting 
# from the CCDC's data processing and validation procedures.
#
#######################################################################

data_GEHNEP
_chemical_formula_moiety         'C12 H18 Ca1 N2 O5 2+,C4 H2 N14 2-,4(H2 O1)'
_chemical_name_systematic        
"penta-aqua-(1,10-phenanthroline)-calcium(ii) 5,5'-(1,2,4,5-tetrazine-3,6-diyldiazanediyl)bis(tetrazolide) tetrahydrate"
_symmetry_cell_setting           monoclinic
_symmetry_space_group_name_H-M   'P 21/c'
_symmetry_Int_Tables_number      14
_space_group_name_Hall           '-P 2ybc'
loop_
_symmetry_equiv_pos_site_id
_symmetry_equiv_pos_as_xyz
1 x,y,z
2 -x,1/2+y,1/2-z
3 -x,-y,-z
4 x,1/2-y,1/2+z
_cell_length_a                   6.8697(11)
_cell_length_b                   33.477(5)
_cell_length_c                   11.942(2)
_cell_angle_alpha                90
_cell_angle_beta                 96.614(3)
_cell_angle_gamma                90
_cell_volume                     2728.11
_cell_formula_units_Z            4
loop_
_atom_site_label
_atom_site_type_symbol
_atom_site_fract_x
_atom_site_fract_y
_atom_site_fract_z
N1 N 0.0951(5) 0.18406(10) 0.6938(3)
Ca1 Ca 0.14228(12) 0.13703(2) 0.86651(7)
N2 N 0.1149(5) 0.10330(10) 0.6718(3)
O1 O -0.1482(4) 0.17201(9) 0.8960(2)
H1 H -0.1974 0.1906 0.8463
H2 H -0.2093 0.1666 0.9571
O2 O 0.3694(5) 0.18751(9) 0.9232(2)
H3 H 0.3838 0.2084 0.8774
H4 H 0.4420 0.1860 0.9908
O3 O 0.4292(4) 0.09415(9) 0.8906(2)
H5 H 0.5164 0.0949 0.8399
H6 H 0.4485 0.0776 0.9502
O4 O -0.0503(5) 0.07852(9) 0.8946(2)
H7 H -0.1489 0.0713 0.8422
H8 H -0.0236 0.0638 0.9576
O5 O 0.1449(5) 0.13298(12) 1.0649(3)
H9 H 0.1216 0.1550 1.1048
H10 H 0.1691 0.1095 1.1004
C1 C 0.1349(6) 0.06368(13) 0.6598(4)
H11 H 0.1629 0.0483 0.7245
C2 C 0.1160(7) 0.04451(15) 0.5567(4)
H12 H 0.1324 0.0170 0.5526
C3 C 0.0727(7) 0.06673(16) 0.4604(4)
H13 H 0.0581 0.0542 0.3904
C4 C 0.0507(6) 0.10797(16) 0.4677(4)
C5 C 0.0052(7) 0.13328(18) 0.3720(4)
H14 H -0.0151 0.1219 0.3005
C6 C -0.0090(8) 0.17286(19) 0.3827(4)
H15 H -0.0374 0.1884 0.3184
C7 C 0.0184(6) 0.19183(15) 0.4906(4)
C8 C 0.0060(7) 0.23333(17) 0.5064(5)
H16 H -0.0258 0.2500 0.4447
C9 C 0.0404(7) 0.24926(15) 0.6119(4)
H17 H 0.0352 0.2767 0.6228
C10 C 0.0837(7) 0.22336(13) 0.7035(4)
H18 H 0.1059 0.2344 0.7752
C11 C 0.0618(6) 0.16836(13) 0.5883(3)
C12 C 0.0778(6) 0.12533(13) 0.5766(3)
N3 N 0.6790(6) 0.03046(10) 0.7622(3)
N4 N 0.6605(7) -0.00562(11) 0.8114(3)
N5 N 0.5417(6) -0.01267(10) 0.6369(3)
N6 N 0.5813(7) -0.03123(11) 0.7376(3)
N7 N 0.5936(5) 0.05178(9) 0.5690(3)
H19 H 0.5916 0.0422 0.5021
N8 N 0.5980(5) 0.11061(9) 0.6769(3)
N9 N 0.5859(5) 0.15120(9) 0.6763(3)
N10 N 0.5420(5) 0.14989(9) 0.4754(3)
N11 N 0.5559(5) 0.11129(9) 0.4750(3)
N12 N 0.5487(5) 0.20940(9) 0.5674(3)
H20 H 0.5390 0.2190 0.5001
N13 N 0.5766(5) 0.22951(9) 0.7648(3)
N14 N 0.5603(6) 0.26588(10) 0.8129(3)
N15 N 0.5278(6) 0.29284(10) 0.7346(3)
N16 N 0.5217(5) 0.27564(9) 0.6317(3)
C13 C 0.6055(6) 0.02457(11) 0.6564(3)
C14 C 0.5847(6) 0.09256(11) 0.5779(3)
C15 C 0.5608(6) 0.16882(11) 0.5766(3)
C16 C 0.5501(6) 0.23706(11) 0.6546(3)
O6 O 0.2534(7) 0.02220(12) 0.9594(3)
H21 H 0.2337 -0.0009 0.9948
H22 H 0.1766 0.0435 0.9688
O7 O 0.8443(13) 0.0445(2) 0.1725(6)
H23 H 0.9110 0.0216 0.1862
H24 H 0.8308 0.0551 0.1028
O8 O 0.4563(5) 0.12370(9) 0.2253(3)
H25 H 0.4166 0.1029 0.1804
H26 H 0.4661 0.1482 0.1955
O9 O 0.7278(7) 0.11926(17) 0.0768(4)
H27 H 0.8157 0.1022 0.0533
H28 H 0.6705 0.1377 0.0291
loop_
_geom_bond_atom_site_label_1
_geom_bond_atom_site_label_2
_geom_bond_site_symmetry_1
_geom_bond_site_symmetry_2
N1 Ca1 1_555 1_555
Ca1 N2 1_555 1_555
N2 C1 1_555 1_555
O1 Ca1 1_555 1_555
H1 O1 1_555 1_555
H2 O1 1_555 1_555
O2 Ca1 1_555 1_555
H3 O2 1_555 1_555
H4 O2 1_555 1_555
O3 Ca1 1_555 1_555
H5 O3 1_555 1_555
H6 O3 1_555 1_555
O4 Ca1 1_555 1_555
H7 O4 1_555 1_555
H8 O4 1_555 1_555
O5 Ca1 1_555 1_555
H9 O5 1_555 1_555
H10 O5 1_555 1_555
C1 H11 1_555 1_555
C2 C1 1_555 1_555
H12 C2 1_555 1_555
C3 C2 1_555 1_555
H13 C3 1_555 1_555
C4 C3 1_555 1_555
C5 C4 1_555 1_555
H14 C5 1_555 1_555
C6 C5 1_555 1_555
H15 C6 1_555 1_555
C7 C6 1_555 1_555
C8 C7 1_555 1_555
H16 C8 1_555 1_555
C9 C8 1_555 1_555
H17 C9 1_555 1_555
C10 N1 1_555 1_555
H18 C10 1_555 1_555
C11 N1 1_555 1_555
C12 N2 1_555 1_555
N3 N4 1_555 1_555
N4 N6 1_555 1_555
N5 N6 1_555 1_555
N7 H19 1_555 1_555
N8 N9 1_555 1_555
N9 C15 1_555 1_555
N10 N11 1_555 1_555
N11 C14 1_555 1_555
N12 H20 1_555 1_555
N13 N14 1_555 1_555
N14 N15 1_555 1_555
N15 N16 1_555 1_555
N16 C16 1_555 1_555
C13 N3 1_555 1_555
C14 N7 1_555 1_555
C15 N10 1_555 1_555
C16 N12 1_555 1_555
O6 H21 1_555 1_555
H22 O6 1_555 1_555
O7 H23 1_555 1_555
H24 O7 1_555 1_555
O8 H25 1_555 1_555
H26 O8 1_555 1_555
O9 H27 1_555 1_555
H28 O9 1_555 1_555
C4 C12 1_555 1_555
C7 C11 1_555 1_555
C9 C10 1_555 1_555
C11 C12 1_555 1_555
N5 C13 1_555 1_555
N7 C13 1_555 1_555
N8 C14 1_555 1_555
N12 C15 1_555 1_555
N13 C16 1_555 1_555

#END
