
#######################################################################
#
#                 Cambridge Crystallographic Data Centre
#                                CCDC 
#
#######################################################################
#
# If this CIF has been generated from an entry in the Cambridge 
# Structural Database, then it will include bibliographic, chemical, 
# crystal, experimental, refinement or atomic coordinate data resulting 
# from the CCDC's data processing and validation procedures.
#
#######################################################################

data_GEHRIV
_chemical_formula_moiety         'C8 H5 N1 O1'
_chemical_name_systematic        2-Formylbenzonitrile
_symmetry_cell_setting           monoclinic
_symmetry_space_group_name_H-M   'P 21/c'
_symmetry_Int_Tables_number      14
_space_group_name_Hall           '-P 2ybc'
loop_
_symmetry_equiv_pos_site_id
_symmetry_equiv_pos_as_xyz
1 x,y,z
2 -x,1/2+y,1/2-z
3 -x,-y,-z
4 x,1/2-y,1/2+z
_cell_length_a                   3.7889(9)
_cell_length_b                   15.580(4)
_cell_length_c                   10.759(3)
_cell_angle_alpha                90
_cell_angle_beta                 93.73(3)
_cell_angle_gamma                90
_cell_volume                     633.77
_exptl_crystal_colour            colorless
_exptl_crystal_description       needle
_cell_formula_units_Z            4
_exptl_crystal_recrystallization_method chloroform
loop_
_atom_site_label
_atom_site_type_symbol
_atom_site_fract_x
_atom_site_fract_y
_atom_site_fract_z
O1 O 0.2865(4) 0.69998(8) 0.88147(12)
N1 N 0.4433(4) 0.87051(10) 1.05357(14)
C1 C 0.1212(4) 0.88277(10) 0.83388(14)
C2 C 0.0145(4) 0.81241(10) 0.75790(15)
C3 C -0.1618(4) 0.82789(11) 0.64310(15)
H1 H -0.2372 0.7809 0.5917
C4 C -0.2293(4) 0.91114(11) 0.60254(15)
H2 H -0.3470 0.9209 0.5231
C5 C -0.1256(4) 0.97997(11) 0.67752(16)
H3 H -0.1739 1.0369 0.6497
C6 C 0.0491(4) 0.96605(11) 0.79340(15)
H4 H 0.1192 1.0134 0.8449
C7 C 0.3021(4) 0.87205(10) 0.95581(15)
C8 C 0.0904(4) 0.72222(11) 0.79371(15)
H5 H -0.0231 0.6785 0.7443
loop_
_geom_bond_atom_site_label_1
_geom_bond_atom_site_label_2
_geom_bond_site_symmetry_1
_geom_bond_site_symmetry_2
O1 C8 1_555 1_555
N1 C7 1_555 1_555
C1 C2 1_555 1_555
C2 C3 1_555 1_555
C3 H1 1_555 1_555
C4 C3 1_555 1_555
H2 C4 1_555 1_555
C5 C4 1_555 1_555
H3 C5 1_555 1_555
C6 C1 1_555 1_555
H4 C6 1_555 1_555
C7 C1 1_555 1_555
C8 C2 1_555 1_555
H5 C8 1_555 1_555
C5 C6 1_555 1_555

#END
