
#######################################################################
#
#                 Cambridge Crystallographic Data Centre
#                                CCDC 
#
#######################################################################
#
# If this CIF has been generated from an entry in the Cambridge 
# Structural Database, then it will include bibliographic, chemical, 
# crystal, experimental, refinement or atomic coordinate data resulting 
# from the CCDC's data processing and validation procedures.
#
#######################################################################

data_GEHSUI
_chemical_formula_moiety         'C27 H27 N1 O2'
_chemical_name_systematic        
(2RS,3SR,5RS,6SR)-3,5-Dimethyl-N-phenylacetyl-2,6-diphenyl-4-piperidinone
_symmetry_cell_setting           triclinic
_symmetry_space_group_name_H-M   'P -1'
_symmetry_Int_Tables_number      2
_space_group_name_Hall           '-P 1'
loop_
_symmetry_equiv_pos_site_id
_symmetry_equiv_pos_as_xyz
1 x,y,z
2 -x,-y,-z
_cell_length_a                   9.9503(4)
_cell_length_b                   11.8623(6)
_cell_length_c                   18.5654(8)
_cell_angle_alpha                77.920(2)
_cell_angle_beta                 84.699(3)
_cell_angle_gamma                85.731(2)
_cell_volume                     2130.23
_exptl_crystal_colour            colorless
_exptl_crystal_description       plate
_chemical_melting_point          '431-433 K'
_cell_formula_units_Z            4
_exptl_crystal_recrystallization_method ethanol
loop_
_atom_site_label
_atom_site_type_symbol
_atom_site_fract_x
_atom_site_fract_y
_atom_site_fract_z
N1 N 0.0383(3) 0.6564(2) 0.21673(15)
C1 C -0.0010(3) 0.5740(3) 0.27651(19)
O1 O -0.0961(2) 0.5141(2) 0.27565(13)
C2 C 0.0707(4) 0.5619(3) 0.3468(2)
C3 C 0.0722(4) 0.4409(3) 0.39322(18)
C4 C 0.1804(4) 0.3633(3) 0.3826(2)
C5 C 0.1864(4) 0.2521(3) 0.4248(2)
C6 C 0.0859(4) 0.2179(3) 0.4788(2)
C7 C -0.0213(4) 0.2933(3) 0.49087(19)
C8 C -0.0298(4) 0.4043(3) 0.44745(19)
C9 C -0.0238(3) 0.6604(3) 0.14664(17)
C10 C -0.1163(3) 0.7689(3) 0.12561(19)
C11 C -0.0966(4) 0.8486(3) 0.0594(2)
C12 C -0.1822(4) 0.9477(3) 0.0451(3)
C13 C -0.2863(4) 0.9689(4) 0.0942(3)
C14 C -0.3096(4) 0.8886(4) 0.1597(3)
C15 C -0.2245(4) 0.7892(3) 0.1752(2)
C16 C 0.0861(3) 0.6368(3) 0.08789(19)
C17 C 0.1553(4) 0.5159(3) 0.1103(2)
C18 C 0.1939(3) 0.7234(3) 0.0760(2)
O2 O 0.2698(3) 0.7391(2) 0.02026(15)
C19 C 0.2041(3) 0.7897(3) 0.13706(18)
C20 C 0.3464(3) 0.8313(3) 0.1347(2)
C21 C 0.1594(3) 0.7227(3) 0.21610(18)
C22 C 0.1372(3) 0.8071(3) 0.26792(18)
C23 C 0.0189(4) 0.8753(3) 0.2719(2)
C24 C 0.0000(4) 0.9533(3) 0.31841(19)
C25 C 0.1025(4) 0.9657(3) 0.3614(2)
C26 C 0.2220(4) 0.8994(3) 0.3579(2)
C27 C 0.2397(4) 0.8196(3) 0.31175(19)
H1 H 0.1650 0.5844 0.3334
H2 H 0.0253 0.6159 0.3766
H3 H 0.2513 0.3869 0.3458
H4 H 0.2601 0.1997 0.4162
H5 H 0.0904 0.1418 0.5079
H6 H -0.0899 0.2696 0.5290
H7 H -0.1058 0.4552 0.4550
H8 H -0.0834 0.5938 0.1562
H9 H -0.0250 0.8355 0.0241
H10 H -0.1675 1.0019 -0.0001
H11 H -0.3424 1.0378 0.0839
H12 H -0.3834 0.9015 0.1939
H13 H -0.2406 0.7347 0.2200
H14 H 0.0441 0.6419 0.0403
H15 H 0.1972 0.5103 0.1568
H16 H 0.2249 0.5028 0.0716
H17 H 0.0879 0.4577 0.1170
H18 H 0.1417 0.8602 0.1265
H19 H 0.4097 0.7648 0.1492
H20 H 0.3472 0.8840 0.1689
H21 H 0.3737 0.8718 0.0844
H22 H 0.2353 0.6663 0.2335
H23 H -0.0513 0.8684 0.2419
H24 H -0.0828 0.9982 0.3209
H25 H 0.0905 1.0196 0.3931
H26 H 0.2926 0.9081 0.3871
H27 H 0.3218 0.7735 0.3102
N2 N 0.5709(3) 0.3974(2) 0.22787(15)
C28 C 0.5165(3) 0.4656(3) 0.27579(18)
O3 O 0.4144(2) 0.5292(2) 0.26297(13)
C29 C 0.5839(3) 0.4561(3) 0.34736(19)
C30 C 0.5518(3) 0.5581(3) 0.38355(18)
C31 C 0.4303(3) 0.5712(3) 0.42567(19)
C32 C 0.4084(4) 0.6618(3) 0.4624(2)
C33 C 0.5060(4) 0.7410(3) 0.4584(2)
C34 C 0.6265(4) 0.7287(3) 0.4163(2)
C35 C 0.6485(4) 0.6384(3) 0.3792(2)
C36 C 0.5109(3) 0.4110(3) 0.15647(17)
C37 C 0.4319(3) 0.3080(3) 0.15173(19)
C38 C 0.4514(4) 0.2465(3) 0.0953(2)
C39 C 0.3680(4) 0.1589(4) 0.0936(3)
C40 C 0.2652(4) 0.1296(3) 0.1471(3)
C41 C 0.2452(4) 0.1884(3) 0.2049(2)
C42 C 0.3279(3) 0.2770(3) 0.2066(2)
C43 C 0.6174(3) 0.4547(3) 0.09328(19)
C44 C 0.6266(4) 0.5851(3) 0.0827(2)
C45 C 0.7543(3) 0.3930(3) 0.10719(19)
O4 O 0.8571(2) 0.4322(2) 0.07512(14)
C46 C 0.7537(3) 0.2856(3) 0.16780(19)
C47 C 0.8936(4) 0.2250(4) 0.1746(2)
C48 C 0.6993(3) 0.3247(3) 0.24021(18)
C49 C 0.6852(3) 0.2225(3) 0.30519(19)
C50 C 0.5906(4) 0.1405(3) 0.3089(2)
C51 C 0.5799(4) 0.0493(3) 0.3688(2)
C52 C 0.6634(4) 0.0377(3) 0.4261(2)
C53 C 0.7599(4) 0.1172(3) 0.42185(19)
C54 C 0.7713(3) 0.2093(3) 0.36168(19)
H28 H 0.5550 0.3856 0.3825
H29 H 0.6830 0.4473 0.3368
H30 H 0.3624 0.5177 0.4291
H31 H 0.3252 0.6699 0.4909
H32 H 0.4905 0.8027 0.4841
H33 H 0.6943 0.7823 0.4129
H34 H 0.7313 0.6312 0.3502
H35 H 0.4414 0.4766 0.1558
H36 H 0.5224 0.2647 0.0576
H37 H 0.3823 0.1181 0.0543
H38 H 0.2083 0.0698 0.1448
H39 H 0.1754 0.1682 0.2430
H40 H 0.3134 0.3173 0.2461
H41 H 0.5882 0.4378 0.0467
H42 H 0.6503 0.6040 0.1288
H43 H 0.5393 0.6240 0.0695
H44 H 0.6963 0.6112 0.0431
H45 H 0.6903 0.2311 0.1566
H46 H 0.9309 0.2121 0.1261
H47 H 0.8869 0.1507 0.2094
H48 H 0.9530 0.2733 0.1928
H49 H 0.7674 0.3748 0.2519
H50 H 0.5329 0.1473 0.2701
H51 H 0.5146 -0.0060 0.3707
H52 H 0.6544 -0.0241 0.4677
H53 H 0.8190 0.1091 0.4602
H54 H 0.8381 0.2634 0.3592
loop_
_geom_bond_atom_site_label_1
_geom_bond_atom_site_label_2
_geom_bond_site_symmetry_1
_geom_bond_site_symmetry_2
N1 C1 1_555 1_555
C1 O1 1_555 1_555
C2 C1 1_555 1_555
C3 C2 1_555 1_555
C4 C3 1_555 1_555
C5 C4 1_555 1_555
C6 C5 1_555 1_555
C7 C6 1_555 1_555
C8 C3 1_555 1_555
C9 N1 1_555 1_555
C10 C9 1_555 1_555
C11 C10 1_555 1_555
C12 C11 1_555 1_555
C13 C12 1_555 1_555
C14 C13 1_555 1_555
C15 C10 1_555 1_555
C16 C9 1_555 1_555
C17 C16 1_555 1_555
C18 C16 1_555 1_555
O2 C18 1_555 1_555
C19 C18 1_555 1_555
C20 C19 1_555 1_555
C21 N1 1_555 1_555
C22 C21 1_555 1_555
C23 C22 1_555 1_555
C24 C23 1_555 1_555
C25 C24 1_555 1_555
C26 C25 1_555 1_555
C27 C22 1_555 1_555
N2 C28 1_555 1_555
C28 O3 1_555 1_555
C29 C28 1_555 1_555
C30 C29 1_555 1_555
C31 C30 1_555 1_555
C32 C31 1_555 1_555
C33 C32 1_555 1_555
C34 C33 1_555 1_555
C35 C30 1_555 1_555
C36 N2 1_555 1_555
C37 C36 1_555 1_555
C38 C37 1_555 1_555
C39 C38 1_555 1_555
C40 C39 1_555 1_555
C41 C40 1_555 1_555
C42 C37 1_555 1_555
C43 C36 1_555 1_555
C44 C43 1_555 1_555
C45 C43 1_555 1_555
O4 C45 1_555 1_555
C46 C45 1_555 1_555
C47 C46 1_555 1_555
C48 N2 1_555 1_555
C49 C48 1_555 1_555
C50 C49 1_555 1_555
C51 C50 1_555 1_555
C52 C51 1_555 1_555
C53 C52 1_555 1_555
C54 C49 1_555 1_555
H1 C2 1_555 1_555
H2 C2 1_555 1_555
H3 C4 1_555 1_555
H4 C5 1_555 1_555
H5 C6 1_555 1_555
H6 C7 1_555 1_555
H7 C8 1_555 1_555
H8 C9 1_555 1_555
H9 C11 1_555 1_555
H10 C12 1_555 1_555
H11 C13 1_555 1_555
H12 C14 1_555 1_555
H13 C15 1_555 1_555
H14 C16 1_555 1_555
H15 C17 1_555 1_555
H16 C17 1_555 1_555
H17 C17 1_555 1_555
H18 C19 1_555 1_555
H19 C20 1_555 1_555
H20 C20 1_555 1_555
H21 C20 1_555 1_555
H22 C21 1_555 1_555
H23 C23 1_555 1_555
H24 C24 1_555 1_555
H25 C25 1_555 1_555
H26 C26 1_555 1_555
H27 C27 1_555 1_555
H28 C29 1_555 1_555
H29 C29 1_555 1_555
H30 C31 1_555 1_555
H31 C32 1_555 1_555
H32 C33 1_555 1_555
H33 C34 1_555 1_555
H34 C35 1_555 1_555
H35 C36 1_555 1_555
H36 C38 1_555 1_555
H37 C39 1_555 1_555
H38 C40 1_555 1_555
H39 C41 1_555 1_555
H40 C42 1_555 1_555
H41 C43 1_555 1_555
H42 C44 1_555 1_555
H43 C44 1_555 1_555
H44 C44 1_555 1_555
H45 C46 1_555 1_555
H46 C47 1_555 1_555
H47 C47 1_555 1_555
H48 C47 1_555 1_555
H49 C48 1_555 1_555
H50 C50 1_555 1_555
H51 C51 1_555 1_555
H52 C52 1_555 1_555
H53 C53 1_555 1_555
H54 C54 1_555 1_555
C7 C8 1_555 1_555
C14 C15 1_555 1_555
C19 C21 1_555 1_555
C26 C27 1_555 1_555
C34 C35 1_555 1_555
C41 C42 1_555 1_555
C46 C48 1_555 1_555
C53 C54 1_555 1_555

#END
