
#######################################################################
#
#                 Cambridge Crystallographic Data Centre
#                                CCDC 
#
#######################################################################
#
# If this CIF has been generated from an entry in the Cambridge 
# Structural Database, then it will include bibliographic, chemical, 
# crystal, experimental, refinement or atomic coordinate data resulting 
# from the CCDC's data processing and validation procedures.
#
#######################################################################

data_GEHWAS
_chemical_formula_moiety         'C4 H14 N2 2+,2(C7 H4 N1 O3 S1 1-)'
_chemical_name_systematic        '1,4-Butane-1,4-diammonium bis(saccharinate)'
_symmetry_cell_setting           monoclinic
_symmetry_space_group_name_H-M   'P 21/n'
_symmetry_Int_Tables_number      14
_space_group_name_Hall           '-P 2yn'
loop_
_symmetry_equiv_pos_site_id
_symmetry_equiv_pos_as_xyz
1 x,y,z
2 1/2-x,1/2+y,1/2-z
3 -x,-y,-z
4 1/2+x,1/2-y,1/2+z
_cell_length_a                   9.0016(11)
_cell_length_b                   11.2539(13)
_cell_length_c                   10.0269(12)
_cell_angle_alpha                90
_cell_angle_beta                 109.1960(10)
_cell_angle_gamma                90
_cell_volume                     959.279
_exptl_crystal_colour            colorless
_exptl_crystal_description       block
_cell_formula_units_Z            2
_exptl_crystal_recrystallization_method methanol
loop_
_atom_site_label
_atom_site_type_symbol
_atom_site_fract_x
_atom_site_fract_y
_atom_site_fract_z
N1 N 0.77564(15) 0.50781(13) 0.18396(14)
C1 C 0.92744(17) 0.52218(14) 0.01673(15)
H1 H 0.9365 0.6089 0.0339
H2 H 0.8320 0.5075 -0.0656
C2 C 0.91076(18) 0.45989(14) 0.14593(16)
H3 H 0.8952 0.3737 0.1265
H4 H 1.0089 0.4704 0.2268
H9 H 0.789(2) 0.585(2) 0.205(2)
H10 H 0.762(2) 0.4708(19) 0.265(2)
H11 H 0.689(2) 0.4967(18) 0.115(2)
N1B N 1.22436(15) 0.49219(13) -0.18396(14)
C1B C 1.07256(17) 0.47782(14) -0.01673(15)
H1B H 1.0635 0.3911 -0.0339
H2B H 1.1680 0.4925 0.0656
C2B C 1.08924(18) 0.54011(14) -0.14593(16)
H3B H 1.1048 0.6263 -0.1265
H4B H 0.9911 0.5296 -0.2268
H9B H 1.211(2) 0.415(2) -0.205(2)
H10B H 1.238(2) 0.5292(19) -0.265(2)
H11B H 1.311(2) 0.5033(18) -0.115(2)
O1 O 0.47033(12) 0.38723(10) 0.06019(11)
S1 S 0.48326(4) 0.26812(3) 0.11793(4)
O2 O 0.64212(12) 0.23881(10) 0.20604(11)
C3 C 0.34846(17) 0.25008(13) 0.20967(15)
C4 C 0.24053(17) 0.16557(13) 0.13613(14)
C5 C 0.28125(17) 0.12043(13) 0.01075(15)
C6 C 0.11468(17) 0.13566(14) 0.18006(15)
H5 H 0.0395 0.0781 0.1307
C7 C 0.33885(18) 0.30757(14) 0.32847(15)
H6 H 0.4146 0.3650 0.3774
C8 C 0.10214(18) 0.19295(14) 0.29909(16)
H7 H 0.0164 0.1743 0.3308
C9 C 0.21249(18) 0.27709(14) 0.37284(16)
H8 H 0.2014 0.3140 0.4542
N2 N 0.41263(15) 0.17045(12) -0.00215(13)
O3 O 0.20080(12) 0.04441(10) -0.07077(11)
loop_
_geom_bond_atom_site_label_1
_geom_bond_atom_site_label_2
_geom_bond_site_symmetry_1
_geom_bond_site_symmetry_2
N1 C2 1_555 1_555
C1 H1 1_555 1_555
H2 C1 1_555 1_555
C2 C1 1_555 1_555
H3 C2 1_555 1_555
H4 C2 1_555 1_555
O1 S1 1_555 1_555
S1 O2 1_555 1_555
C3 S1 1_555 1_555
C4 C3 1_555 1_555
C5 C4 1_555 1_555
C6 C4 1_555 1_555
H5 C6 1_555 1_555
C7 C3 1_555 1_555
H6 C7 1_555 1_555
C8 C6 1_555 1_555
H7 C8 1_555 1_555
C9 C7 1_555 1_555
H8 C9 1_555 1_555
N2 S1 1_555 1_555
H9 N1 1_555 1_555
H10 N1 1_555 1_555
O3 C5 1_555 1_555
H11 N1 1_555 1_555
N1B C2B 1_555 1_555
C1B C1 1_555 1_555
H1B C1B 1_555 1_555
H2B C1B 1_555 1_555
C2B C1B 1_555 1_555
H3B C2B 1_555 1_555
H4B C2B 1_555 1_555
H9B N1B 1_555 1_555
H10B N1B 1_555 1_555
H11B N1B 1_555 1_555
C5 N2 1_555 1_555
C8 C9 1_555 1_555

#END
