
#######################################################################
#
#                 Cambridge Crystallographic Data Centre
#                                CCDC 
#
#######################################################################
#
# If this CIF has been generated from an entry in the Cambridge 
# Structural Database, then it will include bibliographic, chemical, 
# crystal, experimental, refinement or atomic coordinate data resulting 
# from the CCDC's data processing and validation procedures.
#
#######################################################################

data_GEHXEZ
_chemical_formula_moiety         'C30 H40 N2 O2,2(C14 H22 O2)'
_chemical_name_systematic        
"5,5',7,7'-tetra-t-butyl-2,2'-bi-1,3-benzoxazole bis(3,5-di-t-butylbenzene-1,2-diol)"
_symmetry_cell_setting           triclinic
_symmetry_space_group_name_H-M   'P -1'
_symmetry_Int_Tables_number      2
_space_group_name_Hall           '-P 1'
loop_
_symmetry_equiv_pos_site_id
_symmetry_equiv_pos_as_xyz
1 x,y,z
2 -x,-y,-z
_cell_length_a                   9.1035(2)
_cell_length_b                   11.2303(2)
_cell_length_c                   13.8595(2)
_cell_angle_alpha                79.8630(10)
_cell_angle_beta                 81.5500(10)
_cell_angle_gamma                85.7350(10)
_cell_volume                     1377.95
_exptl_crystal_colour            green
_exptl_crystal_description       block
_cell_formula_units_Z            1
_exptl_crystal_recrystallization_method 'acetonitrile/diethyl ether'
loop_
_atom_site_label
_atom_site_type_symbol
_atom_site_fract_x
_atom_site_fract_y
_atom_site_fract_z
C1 C 0.70432(13) 0.67783(11) 0.42322(9)
H1 H 0.7877 0.6570 0.4553
C2 C 0.61588(12) 0.78137(11) 0.43688(8)
C3 C 0.49253(12) 0.81349(11) 0.38810(8)
C4 C 0.44432(12) 0.74586(11) 0.32453(9)
C5 C 0.53551(13) 0.64279(12) 0.31366(9)
H2 H 0.5100 0.5932 0.2723
C6 C 0.66415(13) 0.60685(11) 0.36028(9)
C7 C 0.75202(15) 0.48967(13) 0.34162(11)
C8 C 0.8962(2) 0.47210(19) 0.38826(19)
H3 H 0.9587 0.5381 0.3602
H4 H 0.9471 0.3973 0.3754
H5 H 0.8732 0.4698 0.4584
C9 C 0.6559(2) 0.38198(15) 0.38850(16)
H6 H 0.6307 0.3824 0.4582
H7 H 0.7104 0.3077 0.3782
H8 H 0.5665 0.3886 0.3584
C10 C 0.7894(2) 0.4874(2) 0.23124(14)
H9 H 0.6991 0.4911 0.2025
H10 H 0.8460 0.4139 0.2212
H11 H 0.8466 0.5557 0.2004
N1 N 0.62818(10) 0.86755(9) 0.49597(7)
O1 O 0.42945(8) 0.92039(7) 0.41584(6)
C11 C 0.32810(18) 0.90485(14) 0.20536(12)
H12 H 0.4143 0.8974 0.1574
H13 H 0.3422 0.9659 0.2432
H14 H 0.2423 0.9274 0.1721
C12 C 0.17151(15) 0.79609(15) 0.35407(12)
H15 H 0.0837 0.8196 0.3231
H16 H 0.1892 0.8566 0.3915
H17 H 0.1580 0.7199 0.3974
C13 C 0.30503(13) 0.78366(12) 0.27447(10)
C14 C 0.27174(17) 0.68951(16) 0.21431(13)
H18 H 0.3534 0.6816 0.1631
H19 H 0.1828 0.7149 0.1851
H20 H 0.2581 0.6128 0.2570
C15 C 0.51877(12) 0.94480(11) 0.47958(8)
C1A C 0.29568(13) 1.32217(11) 0.57678(9)
H1A H 0.2123 1.3430 0.5447
C2A C 0.38412(12) 1.21863(11) 0.56312(8)
C3A C 0.50747(12) 1.18651(11) 0.61190(8)
C4A C 0.55568(12) 1.25414(11) 0.67547(9)
C5A C 0.46449(13) 1.35721(12) 0.68634(9)
H2A H 0.4900 1.4068 0.7277
C6A C 0.33585(13) 1.39315(11) 0.63972(9)
C7A C 0.24798(15) 1.51033(13) 0.65838(11)
C8A C 0.1038(2) 1.52790(19) 0.61174(19)
H3A H 0.0413 1.4619 0.6398
H4A H 0.0529 1.6027 0.6246
H5A H 0.1268 1.5302 0.5416
C9A C 0.3441(2) 1.61802(15) 0.61150(16)
H6A H 0.3693 1.6176 0.5418
H7A H 0.2896 1.6923 0.6218
H8A H 0.4335 1.6114 0.6416
C10A C 0.2106(2) 1.5126(2) 0.76876(14)
H9A H 0.3009 1.5089 0.7975
H10A H 0.1540 1.5861 0.7788
H11A H 0.1534 1.4443 0.7996
N1A N 0.37182(10) 1.13245(9) 0.50403(7)
O1A O 0.57055(8) 1.07961(7) 0.58416(6)
C11A C 0.67190(18) 1.09515(14) 0.79464(12)
H12A H 0.5857 1.1026 0.8426
H13A H 0.6578 1.0341 0.7568
H14A H 0.7577 1.0726 0.8279
C12A C 0.82849(15) 1.20391(15) 0.64593(12)
H15A H 0.9163 1.1804 0.6769
H16A H 0.8108 1.1434 0.6085
H17A H 0.8420 1.2801 0.6026
C13A C 0.69497(13) 1.21634(12) 0.72553(10)
C14A C 0.72826(17) 1.31049(16) 0.78569(13)
H18A H 0.6466 1.3184 0.8369
H19A H 0.8172 1.2851 0.8149
H20A H 0.7419 1.3872 0.7430
C15A C 0.48123(12) 1.05520(11) 0.52042(8)
C16 C 0.09294(12) 0.14241(12) 0.33486(8)
C17 C 0.16811(12) 0.24699(11) 0.17035(9)
C18 C -0.02788(12) 0.09729(12) 0.30471(8)
C19 C -0.05287(12) 0.12523(12) 0.20580(9)
C20 C 0.04699(13) 0.19979(12) 0.14194(9)
H21 H 0.0321 0.2195 0.0759
C21 C 0.18949(12) 0.21609(11) 0.26942(9)
H22 H 0.2694 0.2454 0.2913
O2 O -0.12087(10) 0.02485(10) 0.37300(7)
O3 O 0.10696(11) 0.10855(10) 0.43341(6)
C22 C 0.39481(18) 0.37523(16) 0.13985(14)
H23 H 0.3518 0.4166 0.1930
H24 H 0.4530 0.4299 0.0903
H25 H 0.4574 0.3076 0.1648
C23 C 0.27056(14) 0.32970(13) 0.09402(10)
C24 C -0.18463(14) 0.07364(14) 0.17151(9)
C25 C -0.33041(14) 0.11138(17) 0.23110(12)
H26 H -0.3414 0.1981 0.2222
H27 H -0.3290 0.0795 0.2999
H28 H -0.4123 0.0802 0.2085
C26 C -0.19592(19) 0.1214(2) 0.06176(11)
H29 H -0.2086 0.2081 0.0515
H30 H -0.2796 0.0880 0.0432
H31 H -0.1066 0.0979 0.0220
C27 C 0.18096(19) 0.44264(17) 0.05115(14)
H32 H 0.1056 0.4190 0.0176
H33 H 0.2462 0.4958 0.0052
H34 H 0.1350 0.4838 0.1038
C28 C -0.16737(19) -0.06457(16) 0.18574(14)
H35 H -0.2493 -0.0956 0.1631
H36 H -0.1661 -0.0964 0.2546
H37 H -0.0759 -0.0884 0.1484
C29 C 0.3420(2) 0.2613(2) 0.01235(15)
H38 H 0.3961 0.1902 0.0406
H39 H 0.4089 0.3124 -0.0341
H40 H 0.2661 0.2381 -0.0210
H41 H -0.0837(19) 0.0092(16) 0.4265(14)
H42 H 0.188(2) 0.1251(18) 0.4449(14)
loop_
_geom_bond_atom_site_label_1
_geom_bond_atom_site_label_2
_geom_bond_site_symmetry_1
_geom_bond_site_symmetry_2
C1 H1 1_555 1_555
C2 C1 1_555 1_555
C3 C2 1_555 1_555
C4 C3 1_555 1_555
C5 C4 1_555 1_555
H2 C5 1_555 1_555
C6 C1 1_555 1_555
C7 C6 1_555 1_555
C8 C7 1_555 1_555
H3 C8 1_555 1_555
H4 C8 1_555 1_555
H5 C8 1_555 1_555
C9 C7 1_555 1_555
H6 C9 1_555 1_555
H7 C9 1_555 1_555
H8 C9 1_555 1_555
C10 C7 1_555 1_555
H9 C10 1_555 1_555
H10 C10 1_555 1_555
H11 C10 1_555 1_555
N1 C2 1_555 1_555
O1 C3 1_555 1_555
C11 H12 1_555 1_555
H13 C11 1_555 1_555
H14 C11 1_555 1_555
C12 H15 1_555 1_555
H16 C12 1_555 1_555
H17 C12 1_555 1_555
C13 C4 1_555 1_555
C14 C13 1_555 1_555
H18 C14 1_555 1_555
H19 C14 1_555 1_555
H20 C14 1_555 1_555
C15 N1 1_555 1_555
C16 C18 1_555 1_555
C17 C20 1_555 1_555
C18 C19 1_555 1_555
C19 C20 1_555 1_555
C20 H21 1_555 1_555
C21 C16 1_555 1_555
H22 C21 1_555 1_555
O2 C18 1_555 1_555
O3 C16 1_555 1_555
C22 H23 1_555 1_555
H24 C22 1_555 1_555
H25 C22 1_555 1_555
C23 C17 1_555 1_555
C24 C19 1_555 1_555
C25 C24 1_555 1_555
H26 C25 1_555 1_555
H27 C25 1_555 1_555
H28 C25 1_555 1_555
C26 C24 1_555 1_555
H29 C26 1_555 1_555
H30 C26 1_555 1_555
H31 C26 1_555 1_555
C27 C23 1_555 1_555
H32 C27 1_555 1_555
H33 C27 1_555 1_555
H34 C27 1_555 1_555
C28 C24 1_555 1_555
H35 C28 1_555 1_555
H36 C28 1_555 1_555
H37 C28 1_555 1_555
C29 C23 1_555 1_555
H38 C29 1_555 1_555
H39 C29 1_555 1_555
H40 C29 1_555 1_555
H41 O2 1_555 1_555
H42 O3 1_555 1_555
C1A H1A 1_555 1_555
C2A C1A 1_555 1_555
C3A C2A 1_555 1_555
C4A C3A 1_555 1_555
C5A C4A 1_555 1_555
H2A C5A 1_555 1_555
C6A C1A 1_555 1_555
C7A C6A 1_555 1_555
C8A C7A 1_555 1_555
H3A C8A 1_555 1_555
H4A C8A 1_555 1_555
H5A C8A 1_555 1_555
C9A C7A 1_555 1_555
H6A C9A 1_555 1_555
H7A C9A 1_555 1_555
H8A C9A 1_555 1_555
C10A C7A 1_555 1_555
H9A C10A 1_555 1_555
H10A C10A 1_555 1_555
H11A C10A 1_555 1_555
N1A C2A 1_555 1_555
O1A C3A 1_555 1_555
C11A H12A 1_555 1_555
H13A C11A 1_555 1_555
H14A C11A 1_555 1_555
C12A H15A 1_555 1_555
H16A C12A 1_555 1_555
H17A C12A 1_555 1_555
C13A C4A 1_555 1_555
C14A C13A 1_555 1_555
H18A C14A 1_555 1_555
H19A C14A 1_555 1_555
H20A C14A 1_555 1_555
C15A C15 1_555 1_555
C5 C6 1_555 1_555
O1 C15 1_555 1_555
C11 C13 1_555 1_555
C12 C13 1_555 1_555
C17 C21 1_555 1_555
C22 C23 1_555 1_555
C5A C6A 1_555 1_555
N1A C15A 1_555 1_555
O1A C15A 1_555 1_555
C11A C13A 1_555 1_555
C12A C13A 1_555 1_555

#END
