
#######################################################################
#
#                 Cambridge Crystallographic Data Centre
#                                CCDC 
#
#######################################################################
#
# If this CIF has been generated from an entry in the Cambridge 
# Structural Database, then it will include bibliographic, chemical, 
# crystal, experimental, refinement or atomic coordinate data resulting 
# from the CCDC's data processing and validation procedures.
#
#######################################################################

data_GEHZEA
_chemical_formula_moiety         'C12 H13 N1 O4'
_chemical_name_systematic        
8-Hydroxy-5,10-dioxa-11-azapentacyclo[7.6.0.0^2,6^.0^6,12^.0^11,15^]pentadec-2-en-4-one
_symmetry_cell_setting           monoclinic
_symmetry_space_group_name_H-M   'P 21'
_symmetry_Int_Tables_number      4
_space_group_name_Hall           'P 2yb'
loop_
_symmetry_equiv_pos_site_id
_symmetry_equiv_pos_as_xyz
1 x,y,z
2 -x,1/2+y,-z
_cell_length_a                   10.1645(4)
_cell_length_b                   8.6050(3)
_cell_length_c                   11.9296(5)
_cell_angle_alpha                90
_cell_angle_beta                 96.541(4)
_cell_angle_gamma                90
_cell_volume                     1036.64
_exptl_crystal_colour            white
_exptl_crystal_description       block
_cell_formula_units_Z            4
loop_
_atom_site_label
_atom_site_type_symbol
_atom_site_fract_x
_atom_site_fract_y
_atom_site_fract_z
O1 O 0.32428(14) 0.9034(2) 0.13668(11)
O2 O 0.18534(13) 0.86678(18) 0.26706(10)
O3 O 0.36022(16) 0.55445(19) 0.49257(14)
O4 O 0.15865(15) 0.83512(19) 0.62213(13)
C1 C 0.40671(19) 0.8894(3) 0.33596(15)
C2 C 0.3666(2) 0.8794(3) 0.54982(15)
N1 N 0.15758(19) 0.9849(2) 0.57072(16)
C3 C 0.30925(19) 0.8884(2) 0.23573(16)
C4 C 0.2809(2) 0.7560(3) 0.60117(18)
C5 C 0.34193(18) 0.8688(2) 0.42510(16)
C6 C 0.19742(19) 0.8472(3) 0.38921(16)
C7 C 0.1526(2) 0.6820(3) 0.41826(18)
C8 C 0.2968(2) 1.0325(3) 0.58152(19)
C9 C 0.1228(2) 0.9801(3) 0.44442(18)
C10 C 0.2416(2) 0.6214(2) 0.52197(18)
C11 C 0.1731(2) 1.1388(3) 0.4132(2)
C12 C 0.2967(3) 1.1683(3) 0.5000(2)
H4 H 0.496(2) 0.911(3) 0.3274(18)
H5 H 0.196(2) 1.142(3) 0.332(2)
H8 H 0.062(3) 0.677(3) 0.432(2)
H9 H 0.325(2) 0.715(3) 0.673(2)
H10 H 0.163(2) 0.608(3) 0.353(2)
H12 H 0.463(2) 0.877(3) 0.5787(18)
H13 H 0.374(3) 1.182(3) 0.462(2)
H15 H 0.021(2) 0.963(3) 0.4245(19)
H17 H 0.325(3) 1.063(3) 0.660(2)
H19 H 0.102(3) 1.211(4) 0.424(2)
H21 H 0.190(2) 0.541(3) 0.5640(17)
H22 H 0.289(3) 1.272(3) 0.542(2)
H26 H 0.339(4) 0.517(5) 0.416(3)
O5 O 0.85545(16) 0.55036(18) 0.02841(14)
O6 O 0.60090(13) 0.8953(2) -0.08989(11)
C13 C 0.81821(19) 0.8731(2) -0.00818(16)
N2 N 0.75650(18) 0.97062(19) 0.20921(14)
O7 O 0.77815(16) 0.81292(16) 0.24794(12)
C14 C 0.6496(2) 0.6920(3) 0.05338(19)
C15 C 0.8808(2) 1.0134(2) 0.16601(18)
C16 C 0.8221(2) 0.9086(3) -0.11587(18)
C17 C 0.67870(18) 0.8594(3) 0.01661(15)
C18 C 0.91082(19) 0.8647(2) 0.09733(16)
C19 C 0.8437(2) 1.1618(3) 0.1008(2)
C20 C 0.6569(2) 0.9843(2) 0.10676(17)
C21 C 0.8630(2) 0.7362(2) 0.17360(18)
O8 O 0.64266(19) 0.9519(3) -0.26569(14)
C22 C 0.7756(2) 0.6144(2) 0.10849(18)
C23 C 0.6859(2) 0.9220(3) -0.16902(18)
C24 C 0.6921(2) 1.1472(3) 0.0686(2)
H1 H 0.936(2) 0.691(3) 0.220(2)
H2 H 1.004(2) 0.857(3) 0.0847(19)
H3 H 0.580(2) 0.694(3) 0.1012(19)
H6 H 0.644(2) 1.225(3) 0.108(2)
H7 H 0.755(2) 0.536(3) 0.1641(17)
H11 H 0.561(2) 0.974(3) 0.1266(18)
H14 H 0.621(2) 0.624(3) -0.015(2)
H16 H 0.670(3) 1.156(3) -0.011(2)
H18 H 0.896(3) 1.168(4) 0.035(3)
H20 H 0.955(3) 1.026(3) 0.231(2)
H23 H 0.891(2) 0.925(3) -0.154(2)
H24 H 0.861(2) 1.253(3) 0.147(2)
H25 H 0.796(3) 0.501(4) -0.022(2)
loop_
_geom_bond_atom_site_label_1
_geom_bond_atom_site_label_2
_geom_bond_site_symmetry_1
_geom_bond_site_symmetry_2
O1 C3 1_555 1_555
O2 C3 1_555 1_555
O3 C10 1_555 1_555
O4 N1 1_555 1_555
C1 C3 1_555 1_555
C2 C4 1_555 1_555
N1 C8 1_555 1_555
C4 O4 1_555 1_555
C5 C1 1_555 1_555
C6 O2 1_555 1_555
C7 C6 1_555 1_555
C8 C2 1_555 1_555
C9 N1 1_555 1_555
C10 C4 1_555 1_555
C11 C9 1_555 1_555
C12 C8 1_555 1_555
O5 C22 1_555 1_555
O6 C17 1_555 1_555
C13 C16 1_555 1_555
N2 O7 1_555 1_555
O7 C21 1_555 1_555
C14 C17 1_555 1_555
C15 N2 1_555 1_555
C16 C23 1_555 1_555
C17 C13 1_555 1_555
C18 C13 1_555 1_555
C19 C15 1_555 1_555
C20 N2 1_555 1_555
C21 C18 1_555 1_555
O8 C23 1_555 1_555
C22 C14 1_555 1_555
C23 O6 1_555 1_555
C24 C19 1_555 1_555
H1 C21 1_555 1_555
H2 C18 1_555 1_555
H3 C14 1_555 1_555
H4 C1 1_555 1_555
H5 C11 1_555 1_555
H6 C24 1_555 1_555
H7 C22 1_555 1_555
H8 C7 1_555 1_555
H9 C4 1_555 1_555
H10 C7 1_555 1_555
H11 C20 1_555 1_555
H12 C2 1_555 1_555
H13 C12 1_555 1_555
H14 C14 1_555 1_555
H15 C9 1_555 1_555
H16 C24 1_555 1_555
H17 C8 1_555 1_555
H18 C19 1_555 1_555
H19 C11 1_555 1_555
H20 C15 1_555 1_555
H21 C10 1_555 1_555
H22 C12 1_555 1_555
H23 C16 1_555 1_555
H24 C19 1_555 1_555
H25 O5 1_555 1_555
H26 O3 1_555 1_555
C2 C5 1_555 1_555
C5 C6 1_555 1_555
C6 C9 1_555 1_555
C7 C10 1_555 1_555
C11 C12 1_555 1_555
C15 C18 1_555 1_555
C17 C20 1_555 1_555
C20 C24 1_555 1_555
C21 C22 1_555 1_555

#END
