
#######################################################################
#
#                 Cambridge Crystallographic Data Centre
#                                CCDC 
#
#######################################################################
#
# If this CIF has been generated from an entry in the Cambridge 
# Structural Database, then it will include bibliographic, chemical, 
# crystal, experimental, refinement or atomic coordinate data resulting 
# from the CCDC's data processing and validation procedures.
#
#######################################################################

data_GEJCED
_chemical_formula_moiety         'C15 H28 B1 N1'
_chemical_name_systematic        N-(9-Borabicyclo(4.2.1)nonyl)quinuclidine
_symmetry_cell_setting           orthorhombic
_symmetry_space_group_name_H-M   'P 21 21 21'
_symmetry_Int_Tables_number      19
_space_group_name_Hall           'P 2ac 2ab'
loop_
_symmetry_equiv_pos_site_id
_symmetry_equiv_pos_as_xyz
1 x,y,z
2 1/2+x,1/2-y,-z
3 -x,1/2+y,1/2-z
4 1/2-x,-y,1/2+z
_cell_length_a                   9.546(5)
_cell_length_b                   10.568(4)
_cell_length_c                   13.360(6)
_cell_angle_alpha                90
_cell_angle_beta                 90
_cell_angle_gamma                90
_cell_volume                     1347.79
_exptl_crystal_colour            colorless
_chemical_melting_point          171-172deg.C
_cell_formula_units_Z            4
loop_
_atom_site_label
_atom_site_type_symbol
_atom_site_fract_x
_atom_site_fract_y
_atom_site_fract_z
N1 N 0.9216(2) -0.0064(2) 0.1874(1)
B1 B 1.0740(2) 0.0211(2) 0.1312(2)
C1 C 1.1788(2) -0.1022(2) 0.1386(2)
C2 C 1.1442(2) -0.1852(2) 0.0457(2)
C3 C 1.0804(2) -0.0969(2) -0.0352(2)
C4 C 1.0610(2) 0.0385(2) 0.0101(1)
C5 C 1.1717(2) 0.1323(2) -0.0303(2)
C6 C 1.3173(2) 0.1306(2) 0.0196(2)
C7 C 1.3833(2) 0.0016(2) 0.0394(2)
C8 C 1.3344(2) -0.0638(2) 0.1357(2)
C9 C 0.9432(2) -0.0044(2) 0.2992(1)
C10 C 0.8101(2) -0.0469(2) 0.3546(2)
C11 C 0.6861(2) -0.0403(2) 0.2823(2)
C12 C 0.7070(2) -0.1425(2) 0.2025(2)
C13 C 0.8571(2) -0.1314(2) 0.1611(2)
C14 C 0.8180(2) 0.0958(2) 0.1626(2)
C15 C 0.6891(2) 0.0897(2) 0.2321(2)
H1 H 1.1103(23) 0.1045(21) 0.1737(16)
H2 H 1.1640 -0.1529 0.1972
H3 H 1.0802 -0.2517 0.0631
H4 H 1.2287 -0.2212 0.0192
H5 H 1.1410 -0.0913 -0.0923
H6 H 0.9920 -0.1323 -0.0551
H7 H 0.9716 0.0709 -0.0105
H8 H 1.1344 0.2156 -0.0202
H9 H 1.1817 0.1166 -0.1008
H10 H 1.3111 0.1698 0.0843
H11 H 1.3752 0.1812 -0.0234
H12 H 1.3663 -0.0503 -0.0183
H13 H 1.4822 0.0156 0.0465
H14 H 1.3890 -0.1394 0.1435
H15 H 1.3540 -0.0070 0.1900
H16 H 1.0219 -0.0582 0.3131
H17 H 0.9680 0.0819 0.3129
H18 H 0.7952 0.0097 0.4099
H19 H 0.8244 -0.1312 0.3794
H20 H 0.5976 -0.0511 0.3154
H21 H 0.6979 -0.2264 0.2294
H22 H 0.6424 -0.1319 0.1481
H23 H 0.8531 -0.1395 0.0896
H24 H 0.9153 -0.1970 0.1882
H25 H 0.8666 0.1752 0.1662
H26 H 0.7875 0.0812 0.0952
H27 H 0.6057 0.1024 0.1932
H28 H 0.6966 0.1552 0.2816
loop_
_geom_bond_atom_site_label_1
_geom_bond_atom_site_label_2
_geom_bond_site_symmetry_1
_geom_bond_site_symmetry_2
N1 B1 1_555 1_555
B1 C1 1_555 1_555
C1 C2 1_555 1_555
C2 C3 1_555 1_555
C3 C4 1_555 1_555
C4 B1 1_555 1_555
C5 C4 1_555 1_555
C6 C5 1_555 1_555
C7 C6 1_555 1_555
C8 C1 1_555 1_555
C9 N1 1_555 1_555
C10 C9 1_555 1_555
C11 C10 1_555 1_555
C12 C11 1_555 1_555
C13 N1 1_555 1_555
C14 N1 1_555 1_555
C15 C11 1_555 1_555
H1 B1 1_555 1_555
H2 C1 1_555 1_555
H3 C2 1_555 1_555
H4 C2 1_555 1_555
H5 C3 1_555 1_555
H6 C3 1_555 1_555
H7 C4 1_555 1_555
H8 C5 1_555 1_555
H9 C5 1_555 1_555
H10 C6 1_555 1_555
H11 C6 1_555 1_555
H12 C7 1_555 1_555
H13 C7 1_555 1_555
H14 C8 1_555 1_555
H15 C8 1_555 1_555
H16 C9 1_555 1_555
H17 C9 1_555 1_555
H18 C10 1_555 1_555
H19 C10 1_555 1_555
H20 C11 1_555 1_555
H21 C12 1_555 1_555
H22 C12 1_555 1_555
H23 C13 1_555 1_555
H24 C13 1_555 1_555
H25 C14 1_555 1_555
H26 C14 1_555 1_555
H27 C15 1_555 1_555
H28 C15 1_555 1_555
C7 C8 1_555 1_555
C12 C13 1_555 1_555
C14 C15 1_555 1_555

#END
