
#######################################################################
#
#                 Cambridge Crystallographic Data Centre
#                                CCDC 
#
#######################################################################
#
# If this CIF has been generated from an entry in the Cambridge 
# Structural Database, then it will include bibliographic, chemical, 
# crystal, experimental, refinement or atomic coordinate data resulting 
# from the CCDC's data processing and validation procedures.
#
#######################################################################

data_GEJCOP
_chemical_formula_moiety         
'C78 H88 Cs1 N4 O9 1+,F1 1-,0.15(C1 H4 O1),2(C1 H1 Cl3),0.65(H2 O1)'
_chemical_name_systematic        
'(1,57,62,62,71,71-hexamethyl-6,9,23,26,29,32,35,49,52-nonaoxa-76,77,78,79-tetra-azatetradecacyclo-[55.9.9.22,5.253,56.111,37.121,47.158,61.163,66.167,70.172,75.010,15.017,22.-036,41.043,48]-pentaoctaconta-2,4,10,12,14,17,19,21,36,38,40,43,45,47,53,55,58,60,63,65,67,69,72,74,80,84-hexacosaene)-cesium fluoride methanol chloroform solvate hydrate'
_symmetry_cell_setting           orthorhombic
_symmetry_space_group_name_H-M   'P b c a'
_symmetry_Int_Tables_number      61
_space_group_name_Hall           '-P 2ac 2ab'
loop_
_symmetry_equiv_pos_site_id
_symmetry_equiv_pos_as_xyz
1 x,y,z
2 1/2-x,-y,1/2+z
3 1/2+x,1/2-y,-z
4 -x,1/2+y,1/2-z
5 -x,-y,-z
6 1/2+x,y,1/2-z
7 1/2-x,1/2+y,z
8 x,1/2-y,1/2+z
_cell_length_a                   20.6930(13)
_cell_length_b                   26.3422(16)
_cell_length_c                   28.8106(16)
_cell_angle_alpha                90
_cell_angle_beta                 90
_cell_angle_gamma                90
_cell_volume                     15704.6
_exptl_crystal_colour            colorless
_exptl_crystal_description       needle
_cell_formula_units_Z            8
loop_
_atom_site_label
_atom_site_type_symbol
_atom_site_fract_x
_atom_site_fract_y
_atom_site_fract_z
Cs1 Cs 0.83428(3) 0.47604(2) 0.33638(2)
O1 O 0.6790(3) 0.2669(2) 0.45925(19)
O2 O 0.7058(3) 0.3683(2) 0.41902(18)
O3 O 0.8124(3) 0.5106(2) 0.4290(2)
O4 O 0.8593(4) 0.5843(2) 0.3663(2)
O5 O 0.8738(4) 0.5570(2) 0.2701(2)
O6 O 0.8815(4) 0.4514(2) 0.2408(2)
O7 O 0.8479(3) 0.3754(2) 0.30236(18)
O8 O 0.9394(3) 0.3730(2) 0.44452(18)
O9 O 1.0116(3) 0.3848(2) 0.53688(17)
N1 N 0.9599(4) 0.1644(3) 0.6335(2)
H1 H 0.9309 0.1812 0.6172
N2 N 0.8318(4) 0.1059(3) 0.5951(2)
H2 H 0.8387 0.1388 0.5979
N3 N 0.7425(3) 0.1854(3) 0.6521(2)
H3 H 0.7751 0.1946 0.6343
N4 N 0.8665(4) 0.2480(2) 0.6868(2)
H4 H 0.8607 0.2385 0.6578
C1 C 0.9952(4) 0.1839(3) 0.6687(3)
C2 C 1.0332(4) 0.1462(3) 0.6859(3)
H5 H 1.0622 0.1490 0.7114
C3 C 1.0218(5) 0.1028(3) 0.6597(3)
H6 H 1.0424 0.0708 0.6638
C4 C 0.9762(4) 0.1139(3) 0.6269(3)
C5 C 0.9500(5) 0.0828(3) 0.5860(3)
C6 C 0.8798(5) 0.0695(3) 0.5901(3)
C7 C 0.8481(5) 0.0239(4) 0.5865(3)
H7 H 0.8681 -0.0083 0.5824
C8 C 0.7812(5) 0.0325(3) 0.5898(3)
H8 H 0.7486 0.0072 0.5887
C9 C 0.7711(5) 0.0828(3) 0.5948(3)
C10 C 0.7095(4) 0.1145(3) 0.6006(3)
C11 C 0.7056(4) 0.1419(3) 0.6460(3)
C12 C 0.6622(5) 0.1417(3) 0.6808(3)
H9 H 0.6304 0.1163 0.6859
C13 C 0.6715(5) 0.1847(3) 0.7082(3)
H10 H 0.6475 0.1935 0.7351
C14 C 0.7210(4) 0.2119(3) 0.6896(3)
C15 C 0.7487(5) 0.2644(3) 0.7012(3)
C16 C 0.8184(5) 0.2629(3) 0.7164(3)
C17 C 0.8461(5) 0.2731(3) 0.7582(3)
H11 H 0.8242 0.2836 0.7855
C18 C 0.9137(5) 0.2651(3) 0.7537(3)
H12 H 0.9451 0.2695 0.7774
C19 C 0.9253(5) 0.2500(3) 0.7093(3)
C20 C 0.9889(4) 0.2394(3) 0.6837(3)
C21 C 0.9891(5) 0.0338(3) 0.5819(3)
H13 H 0.9804 0.0122 0.6089
H14 H 1.0353 0.0420 0.5808
H15 H 0.9768 0.0159 0.5535
C22 C 0.9592(5) 0.1136(4) 0.5401(3)
H16 H 0.9377 0.1466 0.5430
H17 H 0.9401 0.0947 0.5141
H18 H 1.0054 0.1187 0.5343
C23 C 0.6523(5) 0.0764(3) 0.5969(3)
H19 H 0.6557 0.0511 0.6217
H20 H 0.6537 0.0593 0.5667
H21 H 0.6113 0.0948 0.5999
C24 C 0.7437(5) 0.2982(4) 0.6570(3)
H22 H 0.7708 0.2839 0.6324
H23 H 0.7584 0.3327 0.6643
H24 H 0.6987 0.2994 0.6465
C25 C 0.7067(5) 0.2877(4) 0.7396(3)
H25 H 0.7110 0.2676 0.7680
H26 H 0.6614 0.2879 0.7297
H27 H 0.7209 0.3226 0.7456
C26 C 1.0443(5) 0.2526(3) 0.7174(3)
H28 H 1.0410 0.2314 0.7453
H29 H 1.0414 0.2885 0.7262
H30 H 1.0859 0.2464 0.7022
C27 C 0.7009(4) 0.1552(3) 0.5618(3)
C28 C 0.7356(4) 0.1535(3) 0.5201(3)
H31 H 0.7647 0.1263 0.5144
C29 C 0.7277(5) 0.1908(3) 0.4873(3)
H32 H 0.7518 0.1895 0.4593
C30 C 0.6846(5) 0.2309(4) 0.4948(3)
C31 C 0.6505(5) 0.2332(3) 0.5365(3)
H33 H 0.6217 0.2604 0.5427
C32 C 0.6597(5) 0.1952(3) 0.5682(3)
H34 H 0.6360 0.1967 0.5964
C33 C 0.6473(5) 0.3118(4) 0.4708(3)
H35 H 0.6711 0.3293 0.4960
H36 H 0.6033 0.3041 0.4822
C34 C 0.6430(5) 0.3464(3) 0.4285(3)
H37 H 0.6282 0.3267 0.4013
H38 H 0.6113 0.3738 0.4344
C35 C 0.6995(4) 0.4043(3) 0.3845(3)
C36 C 0.7057(4) 0.3887(3) 0.3378(3)
C37 C 0.6911(5) 0.4242(4) 0.3032(3)
H39 H 0.6935 0.4139 0.2717
C38 C 0.6735(5) 0.4729(4) 0.3131(3)
H40 H 0.6628 0.4960 0.2890
C39 C 0.6717(5) 0.4883(4) 0.3599(3)
H41 H 0.6595 0.5222 0.3670
C40 C 0.6873(4) 0.4551(3) 0.3964(3)
C41 C 0.6860(4) 0.4729(3) 0.4460(3)
H42 H 0.6462 0.4596 0.4607
H43 H 0.6827 0.5104 0.4460
C42 C 0.7431(4) 0.4581(3) 0.4764(3)
C43 C 0.8063(5) 0.4760(3) 0.4662(3)
C44 C 0.8601(5) 0.4589(3) 0.4902(3)
C45 C 0.8500(5) 0.4258(3) 0.5271(3)
H44 H 0.8859 0.4137 0.5444
C46 C 0.7878(5) 0.4103(3) 0.5388(3)
H45 H 0.7814 0.3886 0.5647
C47 C 0.7350(5) 0.4265(3) 0.5129(3)
H46 H 0.6928 0.4152 0.5209
C48 C 0.9285(4) 0.4743(3) 0.4776(3)
H47 H 0.9583 0.4582 0.5001
H48 H 0.9323 0.5115 0.4818
C49 C 0.9522(4) 0.4613(3) 0.4285(3)
C50 C 0.9550(4) 0.4102(3) 0.4136(3)
C51 C 0.9714(4) 0.3982(3) 0.3669(3)
C52 C 0.9927(4) 0.4381(3) 0.3390(3)
H49 H 1.0055 0.4311 0.3080
C53 C 0.9958(4) 0.4877(3) 0.3550(3)
H50 H 1.0125 0.5139 0.3357
C54 C 0.9746(5) 0.4985(4) 0.3989(3)
H51 H 0.9754 0.5328 0.4093
C55 C 0.9676(5) 0.3453(3) 0.3469(3)
H52 H 1.0022 0.3244 0.3609
H53 H 0.9761 0.3472 0.3131
C56 C 0.9028(5) 0.3186(3) 0.3544(3)
C57 C 0.8461(4) 0.3348(3) 0.3335(3)
C58 C 0.7865(5) 0.3143(3) 0.3451(3)
C59 C 0.7851(5) 0.2731(4) 0.3747(3)
H54 H 0.7450 0.2578 0.3826
C60 C 0.8424(6) 0.2539(4) 0.3929(3)
H55 H 0.8413 0.2249 0.4125
C61 C 0.8998(5) 0.2761(4) 0.3830(3)
H56 H 0.9384 0.2626 0.3958
C62 C 0.7243(5) 0.3345(3) 0.3242(3)
H57 H 0.6886 0.3116 0.3333
H58 H 0.7281 0.3330 0.2899
C63 C 0.8229(6) 0.5620(4) 0.4430(3)
H59 H 0.8661 0.5649 0.4575
H60 H 0.7902 0.5717 0.4664
C64 C 0.8189(6) 0.5971(4) 0.4028(3)
H61 H 0.7737 0.5976 0.3914
H62 H 0.8297 0.6318 0.4134
C65 C 0.8615(5) 0.6194(3) 0.3297(3)
H63 H 0.8800 0.6517 0.3411
H64 H 0.8170 0.6262 0.3187
C66 C 0.9005(6) 0.6004(4) 0.2910(4)
H65 H 0.9047 0.6275 0.2673
H66 H 0.9444 0.5923 0.3024
C67 C 0.9063(7) 0.5393(4) 0.2312(4)
H67 H 0.9514 0.5314 0.2399
H68 H 0.9074 0.5666 0.2076
C68 C 0.8770(7) 0.4942(4) 0.2107(4)
H69 H 0.8310 0.5011 0.2038
H70 H 0.8990 0.4863 0.1810
C69 C 0.8530(5) 0.4057(4) 0.2244(3)
H71 H 0.8059 0.4108 0.2207
H72 H 0.8712 0.3974 0.1936
C70 C 0.8640(5) 0.3644(3) 0.2552(3)
H73 H 0.9101 0.3546 0.2535
H74 H 0.8381 0.3349 0.2447
C71 C 0.9937(4) 0.3434(3) 0.4608(3)
H75 H 1.0184 0.3312 0.4336
H76 H 0.9772 0.3133 0.4775
C72 C 1.0397(5) 0.3725(3) 0.4929(3)
H77 H 1.0789 0.3518 0.4981
H78 H 1.0531 0.4043 0.4774
C73 C 1.0075(4) 0.3472(3) 0.5702(3)
C74 C 0.9770(4) 0.3602(3) 0.6099(3)
H79 H 0.9604 0.3936 0.6134
C75 C 0.9695(4) 0.3255(3) 0.6457(3)
H80 H 0.9474 0.3356 0.6730
C76 C 0.9936(4) 0.2766(3) 0.6425(3)
C77 C 1.0269(4) 0.2642(3) 0.6026(3)
H81 H 1.0456 0.2314 0.5997
C78 C 1.0337(5) 0.2993(3) 0.5660(3)
H82 H 1.0562 0.2900 0.5385
Cl1 Cl 0.4422(3) 0.7080(2) 0.34996(17)
Cl2 Cl 0.4166(3) 0.62150(18) 0.40813(19)
Cl3 Cl 0.5184(16) 0.6294(10) 0.3377(8)
C79 C 0.4785(5) 0.6605(3) 0.3849(4)
F1 F 0.8507(2) 0.21026(17) 0.59763(15)
O10 O 0.8741(4) 0.2405(2) 0.5136(2)
H83 H 0.8780 0.2304 0.5411
C80 C 0.8467(5) 0.2903(4) 0.5134(4)
H84 H 0.8013 0.2884 0.5231
H85 H 0.8492 0.3044 0.4820
H86 H 0.8707 0.3121 0.5349
O11 O 0.9840(6) 0.2147(4) 0.4728(4)
Cl4? Cl 0.6593(2) 0.56981(18) 0.15899(14)
Cl5? Cl 0.5877(2) 0.57757(17) 0.24400(14)
Cl6? Cl 0.7284(2) 0.57950(15) 0.24487(14)
C81? C 0.6578(3) 0.5988(6) 0.2149(2)
Cl7? Cl 0.6694(13) 0.6049(11) 0.3010(7)
Cl8? Cl 0.5413(10) 0.5958(13) 0.2620(10)
Cl9? Cl 0.6532(12) 0.5706(10) 0.2067(7)
C82? C 0.6229(11) 0.6128(10) 0.2497(7)
Cl10? Cl 0.5310(7) 0.6226(5) 0.3506(5)
O12? O 0.9260(12) 0.1715(8) 0.4486(7)
C83? C 0.8809(17) 0.1254(12) 0.4384(10)
loop_
_geom_bond_atom_site_label_1
_geom_bond_atom_site_label_2
_geom_bond_site_symmetry_1
_geom_bond_site_symmetry_2
Cs1 O3 1_555 1_555
O1 C30 1_555 1_555
O2 C34 1_555 1_555
O3 C43 1_555 1_555
O4 Cs1 1_555 1_555
O5 Cs1 1_555 1_555
O6 Cs1 1_555 1_555
O7 Cs1 1_555 1_555
O8 C50 1_555 1_555
O9 C72 1_555 1_555
N1 H1 1_555 1_555
N2 H2 1_555 1_555
N3 H3 1_555 1_555
N4 H4 1_555 1_555
C1 N1 1_555 1_555
C2 C1 1_555 1_555
H5 C2 1_555 1_555
C3 C2 1_555 1_555
H6 C3 1_555 1_555
C4 N1 1_555 1_555
C5 C4 1_555 1_555
C6 N2 1_555 1_555
C7 C6 1_555 1_555
H7 C7 1_555 1_555
C8 C7 1_555 1_555
H8 C8 1_555 1_555
C9 N2 1_555 1_555
C10 C9 1_555 1_555
C11 N3 1_555 1_555
C12 C11 1_555 1_555
H9 C12 1_555 1_555
C13 C12 1_555 1_555
H10 C13 1_555 1_555
C14 N3 1_555 1_555
C15 C14 1_555 1_555
C16 N4 1_555 1_555
C17 C16 1_555 1_555
H11 C17 1_555 1_555
C18 C17 1_555 1_555
H12 C18 1_555 1_555
C19 N4 1_555 1_555
C20 C1 1_555 1_555
C21 C5 1_555 1_555
H13 C21 1_555 1_555
H14 C21 1_555 1_555
H15 C21 1_555 1_555
C22 C5 1_555 1_555
H16 C22 1_555 1_555
H17 C22 1_555 1_555
H18 C22 1_555 1_555
C23 C10 1_555 1_555
H19 C23 1_555 1_555
H20 C23 1_555 1_555
H21 C23 1_555 1_555
C24 C15 1_555 1_555
H22 C24 1_555 1_555
H23 C24 1_555 1_555
H24 C24 1_555 1_555
C25 C15 1_555 1_555
H25 C25 1_555 1_555
H26 C25 1_555 1_555
H27 C25 1_555 1_555
C26 C20 1_555 1_555
H28 C26 1_555 1_555
H29 C26 1_555 1_555
H30 C26 1_555 1_555
C27 C10 1_555 1_555
C28 C27 1_555 1_555
H31 C28 1_555 1_555
C29 C28 1_555 1_555
H32 C29 1_555 1_555
C30 C29 1_555 1_555
C31 C30 1_555 1_555
H33 C31 1_555 1_555
C32 C27 1_555 1_555
H34 C32 1_555 1_555
C33 O1 1_555 1_555
H35 C33 1_555 1_555
H36 C33 1_555 1_555
C34 C33 1_555 1_555
H37 C34 1_555 1_555
H38 C34 1_555 1_555
C35 O2 1_555 1_555
C36 C35 1_555 1_555
C37 C36 1_555 1_555
H39 C37 1_555 1_555
C38 C37 1_555 1_555
H40 C38 1_555 1_555
C39 C38 1_555 1_555
H41 C39 1_555 1_555
C40 C35 1_555 1_555
C41 C40 1_555 1_555
H42 C41 1_555 1_555
H43 C41 1_555 1_555
C42 C41 1_555 1_555
C43 C42 1_555 1_555
C44 C43 1_555 1_555
C45 C44 1_555 1_555
H44 C45 1_555 1_555
C46 C45 1_555 1_555
H45 C46 1_555 1_555
C47 C42 1_555 1_555
H46 C47 1_555 1_555
C48 C44 1_555 1_555
H47 C48 1_555 1_555
H48 C48 1_555 1_555
C49 C48 1_555 1_555
C50 C49 1_555 1_555
C51 C50 1_555 1_555
C52 C51 1_555 1_555
H49 C52 1_555 1_555
C53 C52 1_555 1_555
H50 C53 1_555 1_555
C54 C49 1_555 1_555
H51 C54 1_555 1_555
C55 C51 1_555 1_555
H52 C55 1_555 1_555
H53 C55 1_555 1_555
C56 C55 1_555 1_555
C57 O7 1_555 1_555
C58 C57 1_555 1_555
C59 C58 1_555 1_555
H54 C59 1_555 1_555
C60 C59 1_555 1_555
H55 C60 1_555 1_555
C61 C56 1_555 1_555
H56 C61 1_555 1_555
C62 C36 1_555 1_555
H57 C62 1_555 1_555
H58 C62 1_555 1_555
C63 O3 1_555 1_555
H59 C63 1_555 1_555
H60 C63 1_555 1_555
C64 O4 1_555 1_555
H61 C64 1_555 1_555
H62 C64 1_555 1_555
C65 O4 1_555 1_555
H63 C65 1_555 1_555
H64 C65 1_555 1_555
C66 O5 1_555 1_555
H65 C66 1_555 1_555
H66 C66 1_555 1_555
C67 O5 1_555 1_555
H67 C67 1_555 1_555
H68 C67 1_555 1_555
C68 O6 1_555 1_555
H69 C68 1_555 1_555
H70 C68 1_555 1_555
C69 O6 1_555 1_555
H71 C69 1_555 1_555
H72 C69 1_555 1_555
C70 O7 1_555 1_555
H73 C70 1_555 1_555
H74 C70 1_555 1_555
C71 O8 1_555 1_555
H75 C71 1_555 1_555
H76 C71 1_555 1_555
C72 C71 1_555 1_555
H77 C72 1_555 1_555
H78 C72 1_555 1_555
C73 O9 1_555 1_555
C74 C73 1_555 1_555
H79 C74 1_555 1_555
C75 C74 1_555 1_555
H80 C75 1_555 1_555
C76 C20 1_555 1_555
C77 C76 1_555 1_555
H81 C77 1_555 1_555
C78 C73 1_555 1_555
H82 C78 1_555 1_555
Cl1 C79 1_555 1_555
Cl2 C79 1_555 1_555
Cl3 C79 1_555 1_555
O10 H83 1_555 1_555
C80 O10 1_555 1_555
H84 C80 1_555 1_555
H85 C80 1_555 1_555
H86 C80 1_555 1_555
C3 C4 1_555 1_555
C5 C6 1_555 1_555
C8 C9 1_555 1_555
C10 C11 1_555 1_555
C13 C14 1_555 1_555
C15 C16 1_555 1_555
C18 C19 1_555 1_555
C19 C20 1_555 1_555
C31 C32 1_555 1_555
C39 C40 1_555 1_555
C46 C47 1_555 1_555
C53 C54 1_555 1_555
C56 C57 1_555 1_555
C58 C62 1_555 1_555
C60 C61 1_555 1_555
C63 C64 1_555 1_555
C65 C66 1_555 1_555
C67 C68 1_555 1_555
C69 C70 1_555 1_555
C75 C76 1_555 1_555
C77 C78 1_555 1_555

#END
