
#######################################################################
#
#                 Cambridge Crystallographic Data Centre
#                                CCDC 
#
#######################################################################
#
# If this CIF has been generated from an entry in the Cambridge 
# Structural Database, then it will include bibliographic, chemical, 
# crystal, experimental, refinement or atomic coordinate data resulting 
# from the CCDC's data processing and validation procedures.
#
#######################################################################

data_GEJDAB
_chemical_formula_moiety         'C18 H22 O4'
_chemical_name_systematic        
3,3'-(p-Phenylene-dimethylene)-bis(pentane-2,4-dione)
_symmetry_cell_setting           monoclinic
_symmetry_space_group_name_H-M   'P 21/c'
_symmetry_Int_Tables_number      14
_space_group_name_Hall           '-P 2ybc'
loop_
_symmetry_equiv_pos_site_id
_symmetry_equiv_pos_as_xyz
1 x,y,z
2 -x,1/2+y,1/2-z
3 -x,-y,-z
4 x,1/2-y,1/2+z
_cell_length_a                   13.959(5)
_cell_length_b                   5.679(2)
_cell_length_c                   10.860(4)
_cell_angle_alpha                90
_cell_angle_beta                 107.386(6)
_cell_angle_gamma                90
_cell_volume                     821.575
_exptl_crystal_colour            colorless
_exptl_crystal_description       prism
_cell_formula_units_Z            2
_exptl_crystal_recrystallization_method water/acetonitrile
loop_
_atom_site_label
_atom_site_type_symbol
_atom_site_fract_x
_atom_site_fract_y
_atom_site_fract_z
C1 C 0.36175(17) 0.2014(4) 0.4927(2)
C2 C 0.27058(16) 0.1295(4) 0.5331(2)
H1 H 0.2684 0.2253 0.6073
O1 O 0.30398(18) -0.2731(3) 0.50680(19)
C3 C 0.28219(16) -0.1296(4) 0.5740(2)
C4 C 0.08157(17) 0.0823(5) 0.4608(2)
C5 C 0.04743(19) 0.2040(5) 0.5495(3)
H2 H 0.0791 0.3435 0.5841
C6 C 0.03242(18) -0.1240(5) 0.4118(2)
H3 H 0.0535 -0.2103 0.3518
C7 C 0.17246(17) 0.1639(5) 0.4246(2)
H4 H 0.1647 0.3295 0.4019
H5 H 0.1761 0.0775 0.3491
C8 C 0.45682(18) 0.2425(5) 0.5994(3)
H6 H 0.5085 0.2936 0.5637
H7 H 0.4772 0.0989 0.6466
H8 H 0.4457 0.3615 0.6565
C9 C 0.2638(2) -0.1965(5) 0.6965(3)
H9 H 0.2756 -0.3622 0.7111
H10 H 0.1955 -0.1609 0.6916
H11 H 0.3083 -0.1099 0.7663
O2 O 0.35750(13) 0.2207(3) 0.38087(18)
C1B C -0.36175(17) -0.2014(4) 0.5073(2)
C2B C -0.27058(16) -0.1295(4) 0.4669(2)
H1B H -0.2684 -0.2253 0.3927
O1B O -0.30398(18) 0.2731(3) 0.49320(19)
C3B C -0.28219(16) 0.1296(4) 0.4260(2)
C4B C -0.08157(17) -0.0823(5) 0.5392(2)
C5B C -0.04743(19) -0.2040(5) 0.4505(3)
H2B H -0.0791 -0.3435 0.4159
C6B C -0.03242(18) 0.1240(5) 0.5882(2)
H3B H -0.0535 0.2103 0.6482
C7B C -0.17246(17) -0.1639(5) 0.5754(2)
H4B H -0.1647 -0.3295 0.5981
H5B H -0.1761 -0.0775 0.6509
C8B C -0.45682(18) -0.2425(5) 0.4006(3)
H6B H -0.5085 -0.2936 0.4363
H7B H -0.4772 -0.0989 0.3534
H8B H -0.4457 -0.3615 0.3435
C9B C -0.2638(2) 0.1965(5) 0.3035(3)
H9B H -0.2756 0.3622 0.2889
H10B H -0.1955 0.1609 0.3084
H11B H -0.3083 0.1099 0.2337
O2B O -0.35750(13) -0.2207(3) 0.61913(18)
loop_
_geom_bond_atom_site_label_1
_geom_bond_atom_site_label_2
_geom_bond_site_symmetry_1
_geom_bond_site_symmetry_2
C1 C2 1_555 1_555
C2 H1 1_555 1_555
O1 C3 1_555 1_555
C3 C2 1_555 1_555
C4 C5 1_555 1_555
C5 H2 1_555 1_555
C6 C4 1_555 1_555
H3 C6 1_555 1_555
C7 C2 1_555 1_555
H4 C7 1_555 1_555
H5 C7 1_555 1_555
C8 C1 1_555 1_555
H6 C8 1_555 1_555
H7 C8 1_555 1_555
H8 C8 1_555 1_555
C9 C3 1_555 1_555
H9 C9 1_555 1_555
H10 C9 1_555 1_555
H11 C9 1_555 1_555
O2 C1 1_555 1_555
C1B C2B 1_555 1_555
C2B H1B 1_555 1_555
O1B C3B 1_555 1_555
C3B C2B 1_555 1_555
C4B C5B 1_555 1_555
C5B C6 1_555 1_555
H2B C5B 1_555 1_555
C6B C5 1_555 1_555
H3B C6B 1_555 1_555
C7B C2B 1_555 1_555
H4B C7B 1_555 1_555
H5B C7B 1_555 1_555
C8B C1B 1_555 1_555
H6B C8B 1_555 1_555
H7B C8B 1_555 1_555
H8B C8B 1_555 1_555
C9B C3B 1_555 1_555
H9B C9B 1_555 1_555
H10B C9B 1_555 1_555
H11B C9B 1_555 1_555
O2B C1B 1_555 1_555
C4 C7 1_555 1_555
C4B C6B 1_555 1_555
C4B C7B 1_555 1_555

#END
