
#######################################################################
#
#                 Cambridge Crystallographic Data Centre
#                                CCDC 
#
#######################################################################
#
# If this CIF has been generated from an entry in the Cambridge 
# Structural Database, then it will include bibliographic, chemical, 
# crystal, experimental, refinement or atomic coordinate data resulting 
# from the CCDC's data processing and validation procedures.
#
#######################################################################

data_GEJFOR
_chemical_formula_moiety         'C4 H10 N2 O8,2(C4 H4 N2),2(H2 O1)'
_chemical_name_systematic        
'Piperazine-2,3,5,6-tetrayl tetrahydroperoxide pyrazine solvate dihydrate'
_symmetry_cell_setting           triclinic
_symmetry_space_group_name_H-M   'P -1'
_symmetry_Int_Tables_number      2
_space_group_name_Hall           '-P 1'
loop_
_symmetry_equiv_pos_site_id
_symmetry_equiv_pos_as_xyz
1 x,y,z
2 -x,-y,-z
_cell_length_a                   6.1538(6)
_cell_length_b                   7.3047(8)
_cell_length_c                   10.3364(12)
_cell_angle_alpha                97.729(3)
_cell_angle_beta                 95.974(4)
_cell_angle_gamma                91.417(3)
_cell_volume                     457.563
_exptl_crystal_colour            colorless
_exptl_crystal_description       needle
_cell_formula_units_Z            1
loop_
_atom_site_label
_atom_site_type_symbol
_atom_site_fract_x
_atom_site_fract_y
_atom_site_fract_z
N1 N 1.1231(2) 0.79178(18) 0.50775(13)
N2 N 0.7499(2) 0.63944(18) 0.35086(14)
C1 C 0.9426(3) 0.7464(2) 0.55999(16)
C2 C 0.7583(3) 0.6716(2) 0.48149(18)
C3 C 1.1158(3) 0.7607(2) 0.37735(15)
C4 C 0.9304(3) 0.6850(2) 0.29966(16)
H1 H 0.940(3) 0.768(3) 0.651(2)
H2 H 0.628(3) 0.643(3) 0.519(2)
H3 H 1.240(3) 0.794(2) 0.3417(18)
H4 H 0.929(3) 0.668(2) 0.2075(19)
N3 N 0.32175(19) 0.87876(16) 0.97556(12)
C5 C 0.3104(2) 1.03857(19) 1.07043(14)
C6 C 0.4605(2) 0.88510(19) 0.87366(14)
O1 O 0.36537(16) 1.00211(14) 0.78281(10)
O2 O 0.19076(15) 1.17748(13) 1.00797(10)
O3 O 0.11802(16) 1.30694(14) 1.11516(11)
O4 O 0.47963(18) 0.96406(16) 0.66468(11)
H7 H 0.230(3) 1.008(2) 1.1425(16)
H8 H 0.469(2) 0.764(2) 0.8258(15)
H9 H 0.202(3) 0.826(3) 0.9490(18)
H10 H 0.211(3) 1.400(3) 1.1126(19)
H11 H 0.369(3) 0.907(3) 0.612(2)
N3A N 0.67825(19) 1.12124(16) 1.02444(12)
C5A C 0.6896(2) 0.96143(19) 0.92957(14)
C6A C 0.5395(2) 1.11490(19) 1.12634(14)
O1A O 0.63463(16) 0.99789(14) 1.21719(10)
O2A O 0.80924(15) 0.82252(13) 0.99203(10)
O3A O 0.88198(16) 0.69306(14) 0.88484(11)
O4A O 0.52037(18) 1.03594(16) 1.33532(11)
H7A H 0.770(3) 0.992(2) 0.8575(16)
H8A H 0.531(2) 1.236(2) 1.1742(15)
H9A H 0.798(3) 1.174(3) 1.0510(18)
H10A H 0.789(3) 0.600(3) 0.8874(19)
H11A H 0.631(3) 1.093(3) 1.388(2)
O5 O 0.4042(2) 0.58225(17) 0.14218(13)
H5 H 0.508(4) 0.600(4) 0.209(3)
H6 H 0.412(4) 0.661(4) 0.088(3)
loop_
_geom_bond_atom_site_label_1
_geom_bond_atom_site_label_2
_geom_bond_site_symmetry_1
_geom_bond_site_symmetry_2
N1 C1 1_555 1_555
N2 C2 1_555 1_555
C1 C2 1_555 1_555
C2 H2 1_555 1_555
C3 N1 1_555 1_555
C4 N2 1_555 1_555
N3 C5 1_555 1_555
C5 O2 1_555 1_555
C6 N3 1_555 1_555
O1 C6 1_555 1_555
O2 O3 1_555 1_555
O3 H10 1_555 1_555
O4 O1 1_555 1_555
O5 H5 1_555 1_555
H1 C1 1_555 1_555
H3 C3 1_555 1_555
H4 C4 1_555 1_555
H6 O5 1_555 1_555
H7 C5 1_555 1_555
H8 C6 1_555 1_555
H9 N3 1_555 1_555
H11 O4 1_555 1_555
N3A C5A 1_555 1_555
C5A C6 1_555 1_555
C6A C5 1_555 1_555
O1A C6A 1_555 1_555
O2A C5A 1_555 1_555
O3A O2A 1_555 1_555
O4A O1A 1_555 1_555
H7A C5A 1_555 1_555
H8A C6A 1_555 1_555
H9A N3A 1_555 1_555
H10A O3A 1_555 1_555
H11A O4A 1_555 1_555
C3 C4 1_555 1_555
N3A C6A 1_555 1_555

#END
