
#######################################################################
#
#                 Cambridge Crystallographic Data Centre
#                                CCDC 
#
#######################################################################
#
# If this CIF has been generated from an entry in the Cambridge 
# Structural Database, then it will include bibliographic, chemical, 
# crystal, experimental, refinement or atomic coordinate data resulting 
# from the CCDC's data processing and validation procedures.
#
#######################################################################

data_GEJHOT
_chemical_name_common            ethambutal
_chemical_formula_moiety         'C10 H24 N2 O2'
_chemical_name_systematic        2,2'-(Ethane-1,2-diyldiimino)dibutan-1-ol
_chemical_properties_biological  
'An antitubercular agent that inhibits the transfer of mycolic acids into the cell wall of the tubercle bacillus.'
_symmetry_cell_setting           monoclinic
_symmetry_space_group_name_H-M   'P 21'
_symmetry_Int_Tables_number      4
_space_group_name_Hall           'P 2yb'
loop_
_symmetry_equiv_pos_site_id
_symmetry_equiv_pos_as_xyz
1 x,y,z
2 -x,1/2+y,-z
_cell_length_a                   7.157(3)
_cell_length_b                   8.440(4)
_cell_length_c                   10.193(5)
_cell_angle_alpha                90
_cell_angle_beta                 95.631(8)
_cell_angle_gamma                90
_cell_volume                     612.738
_exptl_crystal_colour            colorless
_exptl_crystal_description       block
_cell_formula_units_Z            2
_exptl_crystal_recrystallization_method methanol
loop_
_atom_site_label
_atom_site_type_symbol
_atom_site_fract_x
_atom_site_fract_y
_atom_site_fract_z
O1 O 0.1972(3) 0.7636(3) 0.6659(2)
H1 H 0.145(5) 0.667(6) 0.639(3)
O2 O 1.3357(3) 1.0029(3) 0.39638(19)
H2 H 1.376(4) 1.111(5) 0.400(3)
N1 N 0.5708(3) 0.8209(3) 0.6068(2)
H3 H 0.481(4) 0.845(4) 0.549(3)
N2 N 0.9494(3) 0.9540(3) 0.4033(2)
H4 H 1.036(4) 0.964(4) 0.473(3)
C1 C 0.3535(3) 0.7352(3) 0.7597(3)
H5 H 0.3962 0.6269 0.7514
H6 H 0.3162 0.7489 0.8480
C2 C 0.5125(3) 0.8485(3) 0.7386(2)
H7 H 0.6188 0.8190 0.8019
C3 C 0.4630(4) 1.0212(4) 0.7683(3)
H8 H 0.5529 1.0907 0.7321
H9 H 0.3398 1.0452 0.7244
C4 C 0.4627(6) 1.0550(5) 0.9136(3)
H10 H 0.5803 1.0225 0.9590
H11 H 0.3623 0.9976 0.9477
H12 H 0.4453 1.1665 0.9265
C5 C 0.7343(3) 0.9135(3) 0.5739(3)
H13 H 0.8345 0.9052 0.6448
H14 H 0.6998 1.0243 0.5634
C6 C 0.8011(4) 0.8520(3) 0.4479(3)
H15 H 0.8492 0.7452 0.4619
H16 H 0.6962 0.8477 0.3801
C7 C 1.2165(4) 0.9866(4) 0.2782(2)
H17 H 1.2866 0.9407 0.2109
H18 H 1.1730 1.0904 0.2480
C8 C 1.0489(4) 0.8826(3) 0.2974(2)
H19 H 1.0935 0.7770 0.3254
C9 C 0.9224(4) 0.8677(4) 0.1694(3)
H20 H 0.8030 0.8236 0.1888
H21 H 0.8984 0.9729 0.1333
C10 C 1.0003(5) 0.7663(6) 0.0660(3)
H22 H 1.0407 0.6664 0.1040
H23 H 1.1052 0.8191 0.0334
H24 H 0.9048 0.7486 -0.0054
loop_
_geom_bond_atom_site_label_1
_geom_bond_atom_site_label_2
_geom_bond_site_symmetry_1
_geom_bond_site_symmetry_2
O1 H1 1_555 1_555
O2 H2 1_555 1_555
N1 H3 1_555 1_555
N2 H4 1_555 1_555
C1 O1 1_555 1_555
H5 C1 1_555 1_555
H6 C1 1_555 1_555
C2 N1 1_555 1_555
H7 C2 1_555 1_555
C3 C2 1_555 1_555
H8 C3 1_555 1_555
H9 C3 1_555 1_555
C4 C3 1_555 1_555
H10 C4 1_555 1_555
H11 C4 1_555 1_555
H12 C4 1_555 1_555
C5 N1 1_555 1_555
H13 C5 1_555 1_555
H14 C5 1_555 1_555
C6 N2 1_555 1_555
H15 C6 1_555 1_555
H16 C6 1_555 1_555
C7 O2 1_555 1_555
H17 C7 1_555 1_555
H18 C7 1_555 1_555
C8 N2 1_555 1_555
H19 C8 1_555 1_555
C9 C8 1_555 1_555
H20 C9 1_555 1_555
H21 C9 1_555 1_555
C10 C9 1_555 1_555
H22 C10 1_555 1_555
H23 C10 1_555 1_555
H24 C10 1_555 1_555
C1 C2 1_555 1_555
C5 C6 1_555 1_555
C7 C8 1_555 1_555

#END
