
#######################################################################
#
#                 Cambridge Crystallographic Data Centre
#                                CCDC 
#
#######################################################################
#
# If this CIF has been generated from an entry in the Cambridge 
# Structural Database, then it will include bibliographic, chemical, 
# crystal, experimental, refinement or atomic coordinate data resulting 
# from the CCDC's data processing and validation procedures.
#
#######################################################################

data_GEJJOV
_chemical_formula_moiety         'C11 H10 Cl1 N3 O2 S1'
_chemical_name_systematic        
N-(6-Chloropyridazin-3-yl)-4-methylbenzenesulfonamide
_symmetry_cell_setting           monoclinic
_symmetry_space_group_name_H-M   'C 2/c'
_symmetry_Int_Tables_number      15
_space_group_name_Hall           '-C 2yn'
loop_
_symmetry_equiv_pos_site_id
_symmetry_equiv_pos_as_xyz
1 x,y,z
2 1/2+x,1/2+y,z
3 -x,y,1/2-z
4 1/2-x,1/2+y,1/2-z
5 -x,-y,-z
6 1/2-x,1/2-y,-z
7 x,-y,1/2+z
8 1/2+x,1/2-y,1/2+z
_cell_length_a                   29.8577(4)
_cell_length_b                   5.61980(10)
_cell_length_c                   16.1140(2)
_cell_angle_alpha                90
_cell_angle_beta                 116.8920(10)
_cell_angle_gamma                90
_cell_volume                     2411.45
_exptl_crystal_colour            colorless
_exptl_crystal_description       Rod
_cell_formula_units_Z            8
loop_
_atom_site_label
_atom_site_type_symbol
_atom_site_fract_x
_atom_site_fract_y
_atom_site_fract_z
S1 S 0.149188(17) 0.16291(9) 0.34156(3)
Cl1 Cl -0.08085(2) 0.45853(12) -0.02156(5)
O1 O 0.13103(6) -0.0735(3) 0.33793(11)
O2 O 0.18807(6) 0.2488(3) 0.42799(10)
N1 N 0.10183(6) 0.3493(3) 0.31781(12)
N2 N 0.04107(8) 0.5648(3) 0.20208(16)
N3 N -0.00186(8) 0.5919(3) 0.12367(17)
C1 C 0.05824(7) 0.3496(3) 0.23199(13)
C2 C 0.03368(8) 0.1437(3) 0.18517(15)
H1 H 0.0461 -0.0068 0.2080
C3 C -0.00945(8) 0.1727(4) 0.10440(16)
H2 H -0.0272 0.0431 0.0689
C4 C -0.02557(7) 0.4030(4) 0.07782(15)
C5 C 0.16706(6) 0.1989(3) 0.25361(12)
C6 C 0.19286(7) 0.4054(3) 0.25216(14)
H3 H 0.2003 0.5210 0.2978
C7 C 0.20707(7) 0.4362(3) 0.18292(15)
H4 H 0.2243 0.5734 0.1821
C8 C 0.19603(7) 0.2638(3) 0.11340(13)
C9 C 0.16950(8) 0.0594(4) 0.11517(14)
H5 H 0.1616 -0.0556 0.0692
C10 C 0.15498(7) 0.0274(3) 0.18414(14)
H6 H 0.1372 -0.1080 0.1845
C11 C 0.21237(10) 0.2905(4) 0.04729(16)
H7 H 0.1847 0.2684 -0.0133
H8 H 0.2379 0.1745 0.0571
H9 H 0.2260 0.4473 0.0516
H10 H 0.1152(12) 0.504(6) 0.346(2)
loop_
_geom_bond_atom_site_label_1
_geom_bond_atom_site_label_2
_geom_bond_site_symmetry_1
_geom_bond_site_symmetry_2
S1 O1 1_555 1_555
Cl1 C4 1_555 1_555
O2 S1 1_555 1_555
N1 S1 1_555 1_555
N2 N3 1_555 1_555
N3 C4 1_555 1_555
C1 N1 1_555 1_555
C2 C1 1_555 1_555
H1 C2 1_555 1_555
C3 C2 1_555 1_555
H2 C3 1_555 1_555
C4 C3 1_555 1_555
C5 S1 1_555 1_555
C6 C5 1_555 1_555
H3 C6 1_555 1_555
C7 C6 1_555 1_555
H4 C7 1_555 1_555
C8 C7 1_555 1_555
C9 C8 1_555 1_555
H5 C9 1_555 1_555
C10 C5 1_555 1_555
H6 C10 1_555 1_555
C11 C8 1_555 1_555
H7 C11 1_555 1_555
H8 C11 1_555 1_555
H9 C11 1_555 1_555
H10 N1 1_555 1_555
N2 C1 1_555 1_555
C9 C10 1_555 1_555

#END
