
#######################################################################
#
#                 Cambridge Crystallographic Data Centre
#                                CCDC 
#
#######################################################################
#
# If this CIF has been generated from an entry in the Cambridge 
# Structural Database, then it will include bibliographic, chemical, 
# crystal, experimental, refinement or atomic coordinate data resulting 
# from the CCDC's data processing and validation procedures.
#
#######################################################################

data_GEJKOW
_chemical_formula_moiety         'C20 H28 O2'
_chemical_name_systematic        (+-)-1-Oxoferruginol
_symmetry_cell_setting           monoclinic
_symmetry_space_group_name_H-M   'C 2/c'
_symmetry_Int_Tables_number      15
_space_group_name_Hall           '-C 2yn'
loop_
_symmetry_equiv_pos_site_id
_symmetry_equiv_pos_as_xyz
1 x,y,z
2 1/2+x,1/2+y,z
3 -x,y,1/2-z
4 1/2-x,1/2+y,1/2-z
5 -x,-y,-z
6 1/2-x,1/2-y,-z
7 x,-y,1/2+z
8 1/2+x,1/2-y,1/2+z
_cell_length_a                   25.180(5)
_cell_length_b                   10.111(2)
_cell_length_c                   14.081(3)
_cell_angle_alpha                90.00
_cell_angle_beta                 108.73(3)
_cell_angle_gamma                90.00
_cell_volume                     3395.1
_chemical_melting_point          '192-194 deg.C'
_cell_formula_units_Z            8
loop_
_atom_site_label
_atom_site_type_symbol
_atom_site_fract_x
_atom_site_fract_y
_atom_site_fract_z
O1 O 0.68825(9) 0.7765(2) 0.05164(14)
O2 O 0.88072(8) 0.8324(2) 0.12948(12)
H1 H 0.8576 0.8127 0.0754
C1 C 0.67506(12) 0.7894(3) 0.12657(17)
C2 C 0.62529(13) 0.7187(3) 0.1368(2)
H2 H 0.6374 0.6465 0.1843
H3 H 0.6034 0.6818 0.0725
C3 C 0.58966(13) 0.8149(3) 0.17308(19)
H4 H 0.5548 0.7722 0.1706
H5 H 0.5807 0.8907 0.1285
C4 C 0.61991(12) 0.8626(3) 0.28102(18)
C5 C 0.68428(11) 0.8608(2) 0.30175(17)
H6 H 0.6957 0.7696 0.3221
C6 C 0.71748(12) 0.9455(3) 0.39097(17)
H7 H 0.7160 1.0375 0.3708
H8 H 0.7010 0.9382 0.4443
C7 C 0.77716(12) 0.9000(3) 0.42807(18)
H9 H 0.7792 0.8175 0.4641
H10 H 0.7994 0.9650 0.4749
C8 C 0.80218(11) 0.8799(2) 0.34521(16)
C9 C 0.76932(11) 0.8731(2) 0.24373(16)
C10 C 0.70530(11) 0.8870(2) 0.21071(16)
C11 C 0.79709(12) 0.8589(2) 0.17328(17)
H11 H 0.7761 0.8578 0.1056
C12 C 0.85427(12) 0.8465(2) 0.20003(18)
C13 C 0.88787(12) 0.8469(2) 0.30123(18)
C14 C 0.85955(12) 0.8666(2) 0.36969(17)
H12 H 0.8808 0.8712 0.4372
C15 C 0.95052(12) 0.8327(3) 0.33238(19)
H13 H 0.9596 0.7956 0.2752
C16 C 0.97424(14) 0.7395(3) 0.4204(2)
H14 H 1.0142 0.7337 0.4361
H15 H 0.9580 0.6533 0.4032
H16 H 0.9655 0.7725 0.4776
C17 C 0.97919(14) 0.9664(3) 0.3556(2)
H17 H 0.9671 1.0108 0.4054
H18 H 0.9695 1.0188 0.2956
H19 H 1.0191 0.9541 0.3805
C18 C 0.60657(14) 0.7658(3) 0.3542(2)
H20 H 0.6182 0.6784 0.3430
H21 H 0.5670 0.7661 0.3435
H22 H 0.6262 0.7924 0.4218
C19 C 0.59683(14) 0.9991(3) 0.2964(2)
H23 H 0.5568 0.9944 0.2790
H24 H 0.6066 1.0630 0.2543
H25 H 0.6127 1.0251 0.3653
C20 C 0.68995(13) 1.0274(3) 0.1640(2)
H26 H 0.7102 1.0444 0.1181
H27 H 0.6998 1.0926 0.2164
H28 H 0.6504 1.0317 0.1289
loop_
_geom_bond_atom_site_label_1
_geom_bond_atom_site_label_2
_geom_bond_site_symmetry_1
_geom_bond_site_symmetry_2
O1 C1 1_555 1_555
O2 H1 1_555 1_555
C1 C2 1_555 1_555
C2 H2 1_555 1_555
H3 C2 1_555 1_555
C3 C2 1_555 1_555
H4 C3 1_555 1_555
H5 C3 1_555 1_555
C4 C3 1_555 1_555
C5 C4 1_555 1_555
H6 C5 1_555 1_555
C6 C5 1_555 1_555
H7 C6 1_555 1_555
H8 C6 1_555 1_555
C7 C6 1_555 1_555
H9 C7 1_555 1_555
H10 C7 1_555 1_555
C8 C7 1_555 1_555
C9 C8 1_555 1_555
C10 C1 1_555 1_555
C11 C9 1_555 1_555
H11 C11 1_555 1_555
C12 O2 1_555 1_555
C13 C12 1_555 1_555
C14 C8 1_555 1_555
H12 C14 1_555 1_555
C15 C13 1_555 1_555
H13 C15 1_555 1_555
C16 C15 1_555 1_555
H14 C16 1_555 1_555
H15 C16 1_555 1_555
H16 C16 1_555 1_555
C17 C15 1_555 1_555
H17 C17 1_555 1_555
H18 C17 1_555 1_555
H19 C17 1_555 1_555
C18 C4 1_555 1_555
H20 C18 1_555 1_555
H21 C18 1_555 1_555
H22 C18 1_555 1_555
C19 C4 1_555 1_555
H23 C19 1_555 1_555
H24 C19 1_555 1_555
H25 C19 1_555 1_555
C20 C10 1_555 1_555
H26 C20 1_555 1_555
H27 C20 1_555 1_555
H28 C20 1_555 1_555
C5 C10 1_555 1_555
C9 C10 1_555 1_555
C11 C12 1_555 1_555
C13 C14 1_555 1_555

#END
