
#######################################################################
#
#                 Cambridge Crystallographic Data Centre
#                                CCDC 
#
#######################################################################
#
# If this CIF has been generated from an entry in the Cambridge 
# Structural Database, then it will include bibliographic, chemical, 
# crystal, experimental, refinement or atomic coordinate data resulting 
# from the CCDC's data processing and validation procedures.
#
#######################################################################

data_GEJKEN
_chemical_compound_source        'marine-derived fungus Aspergillus sp'
_chemical_name_common            'Chrodrimanin B'
_chemical_formula_moiety         'C27 H32 O8'
_chemical_name_systematic        
'(5S*,6R*,7R*,8S*,9R*,19S*,20S*)-5,8-Dihydroxy-2,7a,10,10,13a-pentamethyl-4,11-dioxo-1,7a,8,9,9a,10,11,13a,13b,14-decahydro-2H,4H-benzo[a]pyrano[3,4-j]xanthen-1-yl acetate'
_chemical_properties_biological  'no cytotoxicity found in vitro'
_symmetry_cell_setting           orthorhombic
_symmetry_space_group_name_H-M   'P 21 21 21'
_symmetry_Int_Tables_number      19
_space_group_name_Hall           'P 2ac 2ab'
loop_
_symmetry_equiv_pos_site_id
_symmetry_equiv_pos_as_xyz
1 x,y,z
2 1/2-x,-y,1/2+z
3 -x,1/2+y,1/2-z
4 1/2+x,1/2-y,-z
_cell_length_a                   10.7484(15)
_cell_length_b                   13.1269(18)
_cell_length_c                   16.739(2)
_cell_angle_alpha                90
_cell_angle_beta                 90
_cell_angle_gamma                90
_cell_volume                     2361.76
_exptl_crystal_colour            colorless
_exptl_crystal_description       block
_cell_formula_units_Z            4
_exptl_crystal_recrystallization_method 'methanol/ethyl acetate'
loop_
_atom_site_label
_atom_site_type_symbol
_atom_site_fract_x
_atom_site_fract_y
_atom_site_fract_z
O1 O 1.2786(5) -0.0925(4) -0.0591(2)
O2 O 1.2631(3) -0.0813(2) 0.07329(18)
O3 O 1.1747(3) -0.2013(2) 0.20103(19)
O4 O 1.1309(3) -0.1205(3) 0.31236(19)
O5 O 0.9713(3) 0.0282(3) 0.31631(17)
H1 H 1.0185 -0.0163 0.3358
O6 O 0.8429(3) 0.1668(2) 0.07460(17)
O7 O 0.8534(4) 0.3451(2) 0.0153(2)
H2 H 0.8376 0.3350 0.0638
O8 O 0.7996(5) 0.1222(4) -0.3773(2)
C1 C 1.4573(5) -0.0589(4) 0.0161(4)
H3 H 1.4991 -0.0574 -0.0359
H4 H 1.4941 -0.1125 0.0493
H5 H 1.4673 0.0071 0.0426
C2 C 1.3267(5) -0.0795(3) 0.0047(3)
C3 C 1.1387(4) -0.1222(3) 0.0717(3)
H6 H 1.1113 -0.1350 0.0155
C4 C 1.0559(4) -0.0446(3) 0.1112(2)
C5 C 1.0507(4) -0.0476(3) 0.1947(3)
C6 C 1.1198(4) -0.1227(3) 0.2404(3)
C7 C 1.1414(4) -0.2203(3) 0.1188(3)
H7 H 1.0564 -0.2512 0.1175
C8 C 1.2324(5) -0.2970(3) 0.0885(3)
H8 H 1.2286 -0.3583 0.1218
H9 H 1.3165 -0.2684 0.0905
H10 H 1.2117 -0.3148 0.0332
C9 C 0.9874(4) 0.0259(3) 0.0671(2)
C10 C 0.9136(4) 0.0946(3) 0.1102(2)
C11 C 0.9103(4) 0.0945(3) 0.1924(2)
H11 H 0.8610 0.1434 0.2197
C12 C 0.9775(4) 0.0244(3) 0.2352(2)
C13 C 0.9881(4) 0.0291(4) -0.0226(3)
H12 H 0.9333 -0.0252 -0.0437
H13 H 1.0735 0.0162 -0.0423
C14 C 0.9431(4) 0.1331(3) -0.0530(2)
H14 H 1.0063 0.1840 -0.0348
C15 C 0.8211(4) 0.1620(3) -0.0116(2)
C16 C 0.7157(4) 0.0868(4) -0.0230(3)
H15 H 0.7444 0.0182 -0.0091
H16 H 0.6887 0.0878 -0.0789
H17 H 0.6458 0.1058 0.0115
C17 C 0.9388(4) 0.1409(4) -0.1462(3)
C18 C 0.8279(4) 0.2095(3) -0.1714(2)
H18 H 0.7522 0.1691 -0.1573
C19 C 0.8220(6) 0.3021(4) -0.1182(3)
H19 H 0.7599 0.3505 -0.1398
H20 H 0.9040 0.3365 -0.1182
C20 C 0.7866(5) 0.2741(3) -0.0321(2)
H21 H 0.6952 0.2844 -0.0242
C21 C 1.0666(5) 0.1734(6) -0.1714(4)
H22 H 1.1279 0.1241 -0.1519
H23 H 1.0850 0.2408 -0.1490
H24 H 1.0706 0.1767 -0.2298
C22 C 0.9134(6) 0.0392(4) -0.1912(3)
H25 H 0.9337 -0.0233 -0.1658
C23 C 0.8647(6) 0.0371(4) -0.2633(3)
H26 H 0.8548 -0.0271 -0.2887
C24 C 0.8254(6) 0.1274(4) -0.3061(3)
C25 C 0.8146(4) 0.2312(3) -0.2616(2)
C26 C 0.9032(6) 0.3083(5) -0.2982(3)
H27 H 0.8956 0.3734 -0.2699
H28 H 0.8825 0.3181 -0.3547
H29 H 0.9888 0.2833 -0.2936
C27 C 0.6810(5) 0.2632(5) -0.2786(3)
H30 H 0.6640 0.3285 -0.2524
H31 H 0.6238 0.2113 -0.2580
H32 H 0.6692 0.2704 -0.3364
loop_
_geom_bond_atom_site_label_1
_geom_bond_atom_site_label_2
_geom_bond_site_symmetry_1
_geom_bond_site_symmetry_2
O1 C2 1_555 1_555
O2 C2 1_555 1_555
O3 C6 1_555 1_555
O4 C6 1_555 1_555
O5 H1 1_555 1_555
O6 C10 1_555 1_555
O7 H2 1_555 1_555
O8 C24 1_555 1_555
C1 H3 1_555 1_555
H4 C1 1_555 1_555
H5 C1 1_555 1_555
C2 C1 1_555 1_555
C3 O2 1_555 1_555
H6 C3 1_555 1_555
C4 C3 1_555 1_555
C5 C4 1_555 1_555
C6 C5 1_555 1_555
C7 O3 1_555 1_555
H7 C7 1_555 1_555
C8 C7 1_555 1_555
H8 C8 1_555 1_555
H9 C8 1_555 1_555
H10 C8 1_555 1_555
C9 C4 1_555 1_555
C10 C9 1_555 1_555
C11 C10 1_555 1_555
H11 C11 1_555 1_555
C12 O5 1_555 1_555
C13 C9 1_555 1_555
H12 C13 1_555 1_555
H13 C13 1_555 1_555
C14 C13 1_555 1_555
H14 C14 1_555 1_555
C15 O6 1_555 1_555
C16 C15 1_555 1_555
H15 C16 1_555 1_555
H16 C16 1_555 1_555
H17 C16 1_555 1_555
C17 C14 1_555 1_555
C18 C17 1_555 1_555
H18 C18 1_555 1_555
C19 C18 1_555 1_555
H19 C19 1_555 1_555
H20 C19 1_555 1_555
C20 O7 1_555 1_555
H21 C20 1_555 1_555
C21 C17 1_555 1_555
H22 C21 1_555 1_555
H23 C21 1_555 1_555
H24 C21 1_555 1_555
C22 C17 1_555 1_555
H25 C22 1_555 1_555
C23 C22 1_555 1_555
H26 C23 1_555 1_555
C24 C23 1_555 1_555
C25 C18 1_555 1_555
C26 C25 1_555 1_555
H27 C26 1_555 1_555
H28 C26 1_555 1_555
H29 C26 1_555 1_555
C27 C25 1_555 1_555
H30 C27 1_555 1_555
H31 C27 1_555 1_555
H32 C27 1_555 1_555
C3 C7 1_555 1_555
C5 C12 1_555 1_555
C11 C12 1_555 1_555
C14 C15 1_555 1_555
C15 C20 1_555 1_555
C19 C20 1_555 1_555
C24 C25 1_555 1_555

#END
