
#######################################################################
#
#                 Cambridge Crystallographic Data Centre
#                                CCDC 
#
#######################################################################
#
# If this CIF has been generated from an entry in the Cambridge 
# Structural Database, then it will include bibliographic, chemical, 
# crystal, experimental, refinement or atomic coordinate data resulting 
# from the CCDC's data processing and validation procedures.
#
#######################################################################

data_GEJLAJ
_chemical_formula_moiety         'C11 H14 F2 O4'
_chemical_name_systematic        
'Dimethyl anti-7,endo-5-difluoro-cis-norbornane-exo-2,3-dicarboxylate'
_symmetry_cell_setting           monoclinic
_symmetry_space_group_name_H-M   'C 2/c'
_symmetry_Int_Tables_number      15
_space_group_name_Hall           '-C 2yn'
loop_
_symmetry_equiv_pos_site_id
_symmetry_equiv_pos_as_xyz
1 x,y,z
2 1/2+x,1/2+y,z
3 -x,y,1/2-z
4 1/2-x,1/2+y,1/2-z
5 -x,-y,-z
6 1/2-x,1/2-y,-z
7 x,-y,1/2+z
8 1/2+x,1/2-y,1/2+z
_cell_length_a                   13.625(3)
_cell_length_b                   13.871(3)
_cell_length_c                   13.625(3)
_cell_angle_alpha                90
_cell_angle_beta                 117.1
_cell_angle_gamma                90
_cell_volume                     2292.32
_exptl_crystal_colour            colorless
_exptl_crystal_description       sphere
_chemical_melting_point          54.5-55deg.C
_cell_formula_units_Z            8
loop_
_atom_site_label
_atom_site_type_symbol
_atom_site_fract_x
_atom_site_fract_y
_atom_site_fract_z
C1 C -0.29491(19) -0.95827(16) -0.97892(19)
H1 H -0.3542 -0.917 -0.9808
C2 C -0.31511(17) -1.06705(15) -0.97662(17)
H2 H -0.3562 -1.0895 -1.0529
C3 C -0.19586(18) -1.11174(15) -0.92660(16)
H3 H -0.1896 -1.1557 -0.9798
C4 C -0.12412(17) -1.02134(17) -0.91097(17)
H4 H -0.046 -1.0291 -0.8588
C5 C -0.1464(2) -0.98329(18) -1.02488(19)
H5 H -0.0922 -0.9336 -1.017
C6 C -0.2612(2) -0.93843(19) -1.0708(2)
H6 H -0.3117 -0.969 -1.1394
H7 H -0.2588 -0.8698 -1.0831
C7 C -0.18606(19) -0.94762(16) -0.87712(19)
H8 H -0.1906 -0.967 -0.8101
C8 C -0.38065(18) -1.09210(17) -0.91607(18)
C9 C -0.4536(3) -1.2251(2) -0.8613(3)
H9 H -0.5316 -1.2146 -0.9031
H10 H -0.427 -1.1927 -0.7916
H11 H -0.4393 -1.2929 -0.8493
C10 C -0.16306(19) -1.16303(16) -0.81772(18)
C11 C -0.1225(3) -1.3109(2) -0.7248(3)
H12 H -0.1115 -1.3774 -0.7365
H13 H -0.183 -1.3054 -0.7073
H14 H -0.0569 -1.2858 -0.6649
F1 F -0.14223(16) -1.05823(12) -1.09225(14)
F2 F -0.14217(16) -0.85463(11) -0.86825(15)
O1 O -0.41449(17) -1.03684(15) -0.87091(17)
O2 O -0.39792(16) -1.18734(13) -0.92157(16)
O3 O -0.1537(2) -1.12496(14) -0.73501(15)
O4 O -0.14686(17) -1.25635(12) -0.82409(14)
loop_
_geom_bond_atom_site_label_1
_geom_bond_atom_site_label_2
_geom_bond_site_symmetry_1
_geom_bond_site_symmetry_2
C1 H1 1_555 1_555
C2 C1 1_555 1_555
H2 C2 1_555 1_555
C3 C2 1_555 1_555
H3 C3 1_555 1_555
C4 C3 1_555 1_555
H4 C4 1_555 1_555
C5 C4 1_555 1_555
H5 C5 1_555 1_555
C6 C1 1_555 1_555
H6 C6 1_555 1_555
H7 C6 1_555 1_555
C7 C1 1_555 1_555
H8 C7 1_555 1_555
C8 C2 1_555 1_555
C9 H9 1_555 1_555
H10 C9 1_555 1_555
H11 C9 1_555 1_555
C10 C3 1_555 1_555
C11 H12 1_555 1_555
H13 C11 1_555 1_555
H14 C11 1_555 1_555
F1 C5 1_555 1_555
F2 C7 1_555 1_555
O1 C8 1_555 1_555
O2 C8 1_555 1_555
O3 C10 1_555 1_555
O4 C10 1_555 1_555
C4 C7 1_555 1_555
C5 C6 1_555 1_555
C9 O2 1_555 1_555
C11 O4 1_555 1_555

#END
