
#######################################################################
#
#                 Cambridge Crystallographic Data Centre
#                                CCDC 
#
#######################################################################
#
# If this CIF has been generated from an entry in the Cambridge 
# Structural Database, then it will include bibliographic, chemical, 
# crystal, experimental, refinement or atomic coordinate data resulting 
# from the CCDC's data processing and validation procedures.
#
#######################################################################

data_GEJNAL
_chemical_formula_moiety         'C24 H34 O8'
_chemical_name_systematic        
3-t-Butyl-5-((5-(2,2-dimethyl-1,3-dioxolan-4-yl)-2,2-dimethyltetrahydrofuro(2,3-d)(1,3)dioxol-6-yloxy)methyl)-2-hydroxybenzaldehyde
_symmetry_cell_setting           monoclinic
_symmetry_space_group_name_H-M   'P 21'
_symmetry_Int_Tables_number      4
_space_group_name_Hall           'P 2yb'
loop_
_symmetry_equiv_pos_site_id
_symmetry_equiv_pos_as_xyz
1 x,y,z
2 -x,1/2+y,-z
_cell_length_a                   10.288(4)
_cell_length_b                   9.992(3)
_cell_length_c                   11.983(4)
_cell_angle_alpha                90
_cell_angle_beta                 101.552(6)
_cell_angle_gamma                90
_cell_volume                     1206.87
_exptl_crystal_colour            colorless
_exptl_crystal_description       block
_chemical_melting_point          369-371K
_cell_formula_units_Z            2
_exptl_crystal_recrystallization_method 'petroleum ether/ethyl acetate'
loop_
_atom_site_label
_atom_site_type_symbol
_atom_site_fract_x
_atom_site_fract_y
_atom_site_fract_z
O1 O 0.1023(3) 0.2965(3) 0.9930(2)
H1 H 0.015(4) 0.301(6) 1.000(5)
O2 O -0.1408(3) 0.3831(4) 0.9716(3)
O3 O 0.0917(2) 0.7819(2) 0.64049(18)
O4 O -0.0362(2) 0.8290(3) 0.4037(2)
O5 O -0.2263(2) 0.6466(3) 0.5789(2)
O6 O -0.4041(3) 0.7580(4) 0.4823(4)
O7 O 0.1763(3) 0.5978(2) 0.4034(2)
O8 O 0.0926(3) 0.7598(3) 0.2764(2)
C1 C 0.1675(3) 0.6256(4) 0.7983(3)
C2 C 0.2667(3) 0.5314(4) 0.8375(3)
H2 H 0.3492 0.5445 0.8186
C3 C 0.2510(4) 0.4192(4) 0.9029(3)
C4 C 0.1250(4) 0.4025(4) 0.9288(3)
C5 C 0.0224(3) 0.4933(4) 0.8886(3)
C6 C 0.0441(3) 0.6033(4) 0.8241(3)
H3 H -0.0250 0.6627 0.7980
C7 C 0.3643(4) 0.3190(5) 0.9411(3)
C8 C 0.3204(6) 0.1791(5) 0.8930(5)
H4 H 0.3945 0.1189 0.9085
H5 H 0.2886 0.1853 0.8122
H6 H 0.2508 0.1462 0.9283
C9 C 0.3988(5) 0.3144(7) 1.0736(4)
H7 H 0.4318 0.4001 1.1025
H8 H 0.4653 0.2474 1.0980
H9 H 0.3205 0.2929 1.1021
C10 C 0.4904(4) 0.3583(6) 0.9000(4)
H10 H 0.5214 0.4432 0.9322
H11 H 0.4715 0.3647 0.8184
H12 H 0.5574 0.2916 0.9236
C11 C -0.1106(4) 0.4735(5) 0.9127(3)
H13 H -0.1765 0.5338 0.8810
C12 C 0.1971(3) 0.7468(4) 0.7339(3)
H14 H 0.2142 0.8220 0.7859
H15 H 0.2771 0.7304 0.7047
C13 C 0.0707(3) 0.6870(3) 0.5496(3)
H16 H 0.0759 0.5944 0.5772
C14 C -0.0630(4) 0.7183(4) 0.4720(3)
H17 H -0.0912 0.6412 0.4225
C15 C 0.0930(4) 0.8160(4) 0.3844(3)
H18 H 0.1391 0.9024 0.3928
C16 C 0.1659(4) 0.7137(3) 0.4695(3)
H19 H 0.2525 0.7462 0.5098
C17 C -0.1761(3) 0.7605(4) 0.5285(3)
H20 H -0.1448 0.8279 0.5871
C18 C -0.2963(4) 0.8138(5) 0.4449(4)
H21 H -0.2994 0.9108 0.4472
H22 H -0.2946 0.7855 0.3678
C19 C -0.3644(4) 0.6392(5) 0.5401(4)
C20 C -0.3981(6) 0.5218(7) 0.4613(7)
H23 H -0.3777 0.4403 0.5035
H24 H -0.3472 0.5264 0.4025
H25 H -0.4910 0.5238 0.4277
C21 C -0.4299(6) 0.6271(11) 0.6403(6)
H26 H -0.4154 0.7076 0.6847
H27 H -0.3928 0.5524 0.6863
H28 H -0.5234 0.6135 0.6142
C22 C 0.1578(4) 0.6354(4) 0.2863(3)
C23 C 0.0694(6) 0.5346(6) 0.2161(4)
H29 H 0.0504 0.5628 0.1379
H30 H -0.0119 0.5272 0.2433
H31 H 0.1131 0.4493 0.2219
C24 C 0.2892(5) 0.6497(8) 0.2513(4)
H32 H 0.3421 0.7148 0.2990
H33 H 0.2753 0.6782 0.1733
H34 H 0.3343 0.5650 0.2592
loop_
_geom_bond_atom_site_label_1
_geom_bond_atom_site_label_2
_geom_bond_site_symmetry_1
_geom_bond_site_symmetry_2
O1 H1 1_555 1_555
O2 C11 1_555 1_555
O3 C12 1_555 1_555
O4 C14 1_555 1_555
O5 C17 1_555 1_555
O6 C18 1_555 1_555
O7 C16 1_555 1_555
O8 C15 1_555 1_555
C1 C2 1_555 1_555
C2 H2 1_555 1_555
C3 C2 1_555 1_555
C4 O1 1_555 1_555
C5 C4 1_555 1_555
C6 C1 1_555 1_555
H3 C6 1_555 1_555
C7 C3 1_555 1_555
C8 C7 1_555 1_555
H4 C8 1_555 1_555
H5 C8 1_555 1_555
H6 C8 1_555 1_555
C9 C7 1_555 1_555
H7 C9 1_555 1_555
H8 C9 1_555 1_555
H9 C9 1_555 1_555
C10 C7 1_555 1_555
H10 C10 1_555 1_555
H11 C10 1_555 1_555
H12 C10 1_555 1_555
C11 C5 1_555 1_555
H13 C11 1_555 1_555
C12 C1 1_555 1_555
H14 C12 1_555 1_555
H15 C12 1_555 1_555
C13 O3 1_555 1_555
H16 C13 1_555 1_555
C14 C13 1_555 1_555
H17 C14 1_555 1_555
C15 O4 1_555 1_555
H18 C15 1_555 1_555
C16 C13 1_555 1_555
H19 C16 1_555 1_555
C17 C14 1_555 1_555
H20 C17 1_555 1_555
C18 C17 1_555 1_555
H21 C18 1_555 1_555
H22 C18 1_555 1_555
C19 O5 1_555 1_555
C20 C19 1_555 1_555
H23 C20 1_555 1_555
H24 C20 1_555 1_555
H25 C20 1_555 1_555
C21 C19 1_555 1_555
H26 C21 1_555 1_555
H27 C21 1_555 1_555
H28 C21 1_555 1_555
C22 O7 1_555 1_555
C23 C22 1_555 1_555
H29 C23 1_555 1_555
H30 C23 1_555 1_555
H31 C23 1_555 1_555
C24 C22 1_555 1_555
H32 C24 1_555 1_555
H33 C24 1_555 1_555
H34 C24 1_555 1_555
O6 C19 1_555 1_555
O8 C22 1_555 1_555
C3 C4 1_555 1_555
C5 C6 1_555 1_555
C15 C16 1_555 1_555

#END
