
#######################################################################
#
#                 Cambridge Crystallographic Data Centre
#                                CCDC 
#
#######################################################################
#
# If this CIF has been generated from an entry in the Cambridge 
# Structural Database, then it will include bibliographic, chemical, 
# crystal, experimental, refinement or atomic coordinate data resulting 
# from the CCDC's data processing and validation procedures.
#
#######################################################################

data_GEJQUK
_chemical_formula_moiety         'C23 H20 Cl1 N1 O2'
_chemical_name_systematic        
(3aR,4R,5S,7aS)-4-(benzenecarbonyl)-5-(4-chlorophenyl)-7-oxooctahydro-1H-indene-4-carbonitrile
_symmetry_cell_setting           monoclinic
_symmetry_space_group_name_H-M   'P 21'
_symmetry_Int_Tables_number      4
_space_group_name_Hall           'P 2yb'
loop_
_symmetry_equiv_pos_site_id
_symmetry_equiv_pos_as_xyz
1 x,y,z
2 -x,1/2+y,-z
_cell_length_a                   10.4670(4)
_cell_length_b                   16.0682(6)
_cell_length_c                   12.1224(5)
_cell_angle_alpha                90
_cell_angle_beta                 106.760(2)
_cell_angle_gamma                90
_cell_volume                     1952.21
_cell_formula_units_Z            4
loop_
_atom_site_label
_atom_site_type_symbol
_atom_site_fract_x
_atom_site_fract_y
_atom_site_fract_z
Cl1 Cl -0.32633(7) 1.11910(5) 0.50991(7)
C1 C -0.1382(2) 1.12490(16) 0.3992(2)
H1 H -0.1538 1.1819 0.3931
C2 C -0.0168(2) 1.00489(14) 0.36416(18)
C3 C -0.0412(2) 1.08971(15) 0.3582(2)
H2 H 0.0097 1.1239 0.3254
C4 C -0.2116(2) 1.07469(17) 0.4491(2)
C5 C -0.0980(3) 0.95611(16) 0.4100(2)
H3 H -0.0874 0.8986 0.4115
C6 C -0.1941(2) 0.99041(17) 0.4534(2)
H4 H -0.2464 0.9566 0.4853
C7 C 0.3225(2) 1.01975(16) 0.6258(2)
C8 C 0.2401(3) 0.99597(18) 0.6917(2)
H5 H 0.1547 0.9761 0.6557
C9 C 0.2839(4) 1.0016(2) 0.8098(3)
H6 H 0.2273 0.9871 0.8534
C10 C 0.4088(4) 1.0281(3) 0.8625(3)
H7 H 0.4383 1.0309 0.9425
C11 C 0.4489(3) 1.0472(3) 0.6819(3)
H8 H 0.5057 1.0634 0.6394
C12 C 0.4924(4) 1.0509(3) 0.8001(3)
H9 H 0.5785 1.0688 0.8372
C13 C 0.2762(2) 1.02304(17) 0.4976(2)
O1 O 0.28855(18) 1.08628(11) 0.44696(16)
C14 C 0.3333(3) 0.90702(16) 0.3806(2)
H10 H 0.4010 0.8846 0.4477
C15 C 0.4031(3) 0.96378(18) 0.3171(3)
H11 H 0.4703 0.9972 0.3707
H12 H 0.3398 1.0005 0.2654
C16 C 0.2849(3) 0.83515(17) 0.2945(2)
H13 H 0.2682 0.7857 0.3356
C17 C 0.4045(3) 0.8199(2) 0.2507(3)
H14 H 0.3769 0.7962 0.1738
H15 H 0.4669 0.7821 0.3013
C18 C 0.4674(4) 0.9047(3) 0.2495(4)
H16 H 0.4514 0.9242 0.1710
H17 H 0.5630 0.9018 0.2853
C19 C 0.0950(2) 0.96967(15) 0.32274(19)
H18 H 0.1231 1.0138 0.2789
C20 C 0.2194(2) 0.94590(14) 0.42416(19)
C21 C 0.0492(3) 0.89640(17) 0.2408(2)
H19 H 0.0113 0.8541 0.2791
H20 H -0.0207 0.9152 0.1739
C22 C 0.1590(3) 0.85840(18) 0.2015(3)
O2 O 0.1443(2) 0.84589(15) 0.09950(19)
C23 C 0.1837(3) 0.87912(17) 0.4940(2)
N1 N 0.1591(3) 0.82489(16) 0.5425(2)
Cl2 Cl 0.86880(8) 0.10062(6) 0.04231(7)
C24 C 0.5377(2) 0.22299(16) 0.15349(19)
C25 C 0.6613(2) 0.10118(18) 0.1314(2)
H21 H 0.6745 0.0440 0.1396
C26 C 0.5599(2) 0.13854(16) 0.1666(2)
H22 H 0.5066 0.1063 0.1994
C27 C 0.7408(2) 0.1475(2) 0.0852(2)
C28 C 0.6215(3) 0.26860(18) 0.1066(2)
H23 H 0.6093 0.3258 0.0982
C29 C 0.7223(3) 0.2319(2) 0.0719(2)
H24 H 0.7769 0.2637 0.0400
C30 C 0.1763(3) 0.29761(17) 0.1429(2)
H25 H 0.0898 0.2783 0.0936
C31 C 0.1799(3) 0.2790(2) 0.2682(2)
H26 H 0.1492 0.2219 0.2736
C32 C 0.1740(3) 0.39221(19) 0.1395(3)
H27 H 0.1329 0.4124 0.0619
H28 H 0.2634 0.4149 0.1674
C33 C 0.0792(3) 0.3397(3) 0.2895(3)
H29 H -0.0101 0.3166 0.2644
H30 H 0.1003 0.3535 0.3707
C34 C 0.0897(5) 0.4151(3) 0.2201(4)
H31 H 0.1316 0.4602 0.2707
H32 H 0.0015 0.4330 0.1753
C35 C 0.4264(2) 0.26674(16) 0.18884(18)
H33 H 0.4447 0.3266 0.1889
C36 C 0.2851(2) 0.25276(14) 0.10263(18)
C37 C 0.4268(3) 0.24390(19) 0.3121(2)
H34 H 0.4137 0.1844 0.3167
H35 H 0.5130 0.2577 0.3650
C38 C 0.3190(3) 0.28923(19) 0.3480(2)
O3 O 0.3446(2) 0.33009(16) 0.4347(2)
N2 N 0.2284(2) 0.09407(17) 0.0969(2)
C39 C 0.2079(2) 0.24644(15) -0.12558(19)
C40 C 0.2582(3) 0.25595(19) -0.2193(2)
H36 H 0.3368 0.2853 -0.2117
C41 C 0.1900(5) 0.2214(3) -0.3230(3)
H37 H 0.2232 0.2265 -0.3860
C42 C 0.2844(2) 0.28721(17) -0.0176(2)
O4 O 0.34661(19) 0.34986(13) -0.01930(15)
C43 C 0.0903(2) 0.20417(17) -0.1382(2)
H38 H 0.0566 0.1978 -0.0757
C44 C 0.0737(6) 0.1797(3) -0.3341(4)
H39 H 0.0285 0.1565 -0.4049
C45 C 0.0228(3) 0.1714(2) -0.2437(4)
H40 H -0.0576 0.1437 -0.2531
C46 C 0.2547(2) 0.16315(19) 0.09673(19)
loop_
_geom_bond_atom_site_label_1
_geom_bond_atom_site_label_2
_geom_bond_site_symmetry_1
_geom_bond_site_symmetry_2
Cl1 C4 1_555 1_555
C1 H1 1_555 1_555
C2 C3 1_555 1_555
C3 C1 1_555 1_555
H2 C3 1_555 1_555
C4 C1 1_555 1_555
C5 C2 1_555 1_555
H3 C5 1_555 1_555
C6 C4 1_555 1_555
H4 C6 1_555 1_555
C7 C8 1_555 1_555
C8 H5 1_555 1_555
C9 C8 1_555 1_555
H6 C9 1_555 1_555
C10 C9 1_555 1_555
H7 C10 1_555 1_555
C11 C7 1_555 1_555
H8 C11 1_555 1_555
C12 C10 1_555 1_555
H9 C12 1_555 1_555
C13 C7 1_555 1_555
O1 C13 1_555 1_555
C14 H10 1_555 1_555
C15 C14 1_555 1_555
H11 C15 1_555 1_555
H12 C15 1_555 1_555
C16 C14 1_555 1_555
H13 C16 1_555 1_555
C17 C16 1_555 1_555
H14 C17 1_555 1_555
H15 C17 1_555 1_555
C18 C15 1_555 1_555
H16 C18 1_555 1_555
H17 C18 1_555 1_555
C19 C2 1_555 1_555
H18 C19 1_555 1_555
C20 C13 1_555 1_555
C21 C19 1_555 1_555
H19 C21 1_555 1_555
H20 C21 1_555 1_555
C22 C16 1_555 1_555
O2 C22 1_555 1_555
C23 C20 1_555 1_555
N1 C23 1_555 1_555
Cl2 C27 1_555 1_555
C24 C26 1_555 1_555
C25 H21 1_555 1_555
C26 C25 1_555 1_555
H22 C26 1_555 1_555
C27 C25 1_555 1_555
C28 C24 1_555 1_555
H23 C28 1_555 1_555
C29 C27 1_555 1_555
H24 C29 1_555 1_555
C30 H25 1_555 1_555
C31 C30 1_555 1_555
H26 C31 1_555 1_555
C32 C30 1_555 1_555
H27 C32 1_555 1_555
H28 C32 1_555 1_555
C33 C31 1_555 1_555
H29 C33 1_555 1_555
H30 C33 1_555 1_555
C34 C32 1_555 1_555
H31 C34 1_555 1_555
H32 C34 1_555 1_555
C35 C24 1_555 1_555
H33 C35 1_555 1_555
C36 C30 1_555 1_555
C37 C35 1_555 1_555
H34 C37 1_555 1_555
H35 C37 1_555 1_555
C38 C31 1_555 1_555
O3 C38 1_555 1_555
N2 C46 1_555 1_555
C39 C40 1_555 1_555
C40 H36 1_555 1_555
C41 C40 1_555 1_555
H37 C41 1_555 1_555
C42 C36 1_555 1_555
O4 C42 1_555 1_555
C43 C39 1_555 1_555
H38 C43 1_555 1_555
C44 C41 1_555 1_555
H39 C44 1_555 1_555
C45 C43 1_555 1_555
H40 C45 1_555 1_555
C46 C36 1_555 1_555
C5 C6 1_555 1_555
C11 C12 1_555 1_555
C14 C20 1_555 1_555
C17 C18 1_555 1_555
C19 C20 1_555 1_555
C21 C22 1_555 1_555
C28 C29 1_555 1_555
C33 C34 1_555 1_555
C35 C36 1_555 1_555
C37 C38 1_555 1_555
C39 C42 1_555 1_555
C44 C45 1_555 1_555

#END
