
#######################################################################
#
#                 Cambridge Crystallographic Data Centre
#                                CCDC 
#
#######################################################################
#
# If this CIF has been generated from an entry in the Cambridge 
# Structural Database, then it will include bibliographic, chemical, 
# crystal, experimental, refinement or atomic coordinate data resulting 
# from the CCDC's data processing and validation procedures.
#
#######################################################################

data_GEJREV
_chemical_compound_source        'twigs and leaves of Camellia crapnelliana'
_chemical_name_common            'Harpullone dichloromethane solvate'
_chemical_formula_moiety         'C30 H48 O5,0.5(C1 H2 Cl2)'
_chemical_name_systematic        
'15\a,16\a,22\a,28-tetrahydroxyolean-12-en-3-one dichloromethane solvate'
_symmetry_cell_setting           monoclinic
_symmetry_space_group_name_H-M   'P 21'
_symmetry_Int_Tables_number      4
_space_group_name_Hall           'P 2yb'
loop_
_symmetry_equiv_pos_site_id
_symmetry_equiv_pos_as_xyz
1 x,y,z
2 -x,1/2+y,-z
_cell_length_a                   9.8304(3)
_cell_length_b                   7.6333(2)
_cell_length_c                   20.2122(6)
_cell_angle_alpha                90
_cell_angle_beta                 102.819(2)
_cell_angle_gamma                90
_cell_volume                     1478.89
_exptl_crystal_colour            colorless
_exptl_crystal_description       block
_chemical_melting_point          '263-264 deg.C'
_cell_formula_units_Z            2
loop_
_atom_site_label
_atom_site_type_symbol
_atom_site_fract_x
_atom_site_fract_y
_atom_site_fract_z
O1 O -0.6194(5) -0.2435(9) -0.5064(2)
O2 O -0.1950(3) -0.5545(4) -0.07841(15)
H1 H -0.2327 -0.4663 -0.0678
O3 O 0.2303(4) -0.3778(4) 0.02527(15)
H2 H 0.2291 -0.2744 0.0361
O4 O 0.0241(3) -0.8083(3) -0.07148(16)
H3 H -0.0518 -0.8360 -0.0640
O5 O 0.3031(4) -0.7306(4) 0.03686(15)
H4 H 0.3193 -0.6396 0.0588
C1 C -0.2654(5) -0.2812(8) -0.4111(2)
H5 H -0.1750 -0.2439 -0.4178
H6 H -0.2697 -0.4079 -0.4149
C2 C -0.3790(6) -0.2017(9) -0.4662(3)
H7 H -0.3619 -0.0769 -0.4680
H8 H -0.3715 -0.2511 -0.5095
C3 C -0.5260(6) -0.2283(8) -0.4579(3)
C4 C -0.5530(6) -0.2269(9) -0.3854(3)
C5 C -0.4237(5) -0.2884(6) -0.3318(2)
H9 H -0.4222 -0.4158 -0.3376
C6 C -0.4380(5) -0.2631(6) -0.2581(2)
H10 H -0.4217 -0.1410 -0.2454
H11 H -0.5321 -0.2927 -0.2547
C7 C -0.3350(4) -0.3769(6) -0.2098(2)
H12 H -0.3574 -0.4988 -0.2206
H13 H -0.3463 -0.3561 -0.1640
C8 C -0.1807(4) -0.3453(5) -0.21175(19)
C9 C -0.1668(4) -0.3350(5) -0.2877(2)
H14 H -0.1785 -0.4561 -0.3041
C10 C -0.2791(5) -0.2277(6) -0.3394(2)
C11 C -0.0181(5) -0.2868(7) -0.2910(2)
H15 H -0.0047 -0.3109 -0.3362
H16 H -0.0042 -0.1623 -0.2826
C12 C 0.0882(4) -0.3861(6) -0.2404(2)
H17 H 0.1802 -0.3793 -0.2448
C13 C 0.0636(4) -0.4833(5) -0.1898(2)
C14 C -0.0840(4) -0.5046(5) -0.17616(19)
C15 C -0.0672(4) -0.5065(5) -0.09767(19)
H18 H -0.0445 -0.3867 -0.0816
C16 C 0.0482(4) -0.6267(5) -0.0577(2)
H19 H 0.0519 -0.6087 -0.0093
C17 C 0.1925(4) -0.5785(5) -0.07032(19)
C18 C 0.1884(4) -0.5810(5) -0.14772(19)
H20 H 0.2708 -0.5153 -0.1532
C19 C 0.2045(4) -0.7646(6) -0.1759(2)
H21 H 0.1225 -0.8329 -0.1737
H22 H 0.2076 -0.7538 -0.2234
C20 C 0.3341(4) -0.8654(6) -0.1391(2)
C21 C 0.3284(5) -0.8745(6) -0.0636(2)
H23 H 0.2509 -0.9487 -0.0591
H24 H 0.4134 -0.9289 -0.0385
C22 C 0.3121(4) -0.6984(5) -0.0325(2)
H25 H 0.3994 -0.6345 -0.0306
C23 C -0.6753(7) -0.3514(15) -0.3856(4)
H26 H -0.6498 -0.4679 -0.3960
H27 H -0.7549 -0.3139 -0.4193
H28 H -0.6977 -0.3504 -0.3418
C24 C -0.6002(8) -0.0381(12) -0.3743(3)
H29 H -0.6259 -0.0308 -0.3313
H30 H -0.6789 -0.0079 -0.4099
H31 H -0.5249 0.0417 -0.3750
C25 C -0.2575(6) -0.0279(7) -0.3317(3)
H32 H -0.2949 0.0131 -0.2944
H33 H -0.3045 0.0293 -0.3727
H34 H -0.1596 -0.0019 -0.3231
C26 C -0.1321(5) -0.1732(5) -0.1741(2)
H35 H -0.1419 -0.1821 -0.1280
H36 H -0.1882 -0.0780 -0.1961
H37 H -0.0361 -0.1523 -0.1746
C27 C -0.1455(4) -0.6825(5) -0.2050(2)
H38 H -0.1720 -0.6759 -0.2536
H39 H -0.2260 -0.7095 -0.1873
H40 H -0.0767 -0.7727 -0.1920
C28 C 0.2300(4) -0.3900(5) -0.0456(2)
H41 H 0.3213 -0.3593 -0.0529
H42 H 0.1623 -0.3087 -0.0711
C29 C 0.3281(6) -1.0502(7) -0.1671(3)
H43 H 0.4091 -1.1141 -0.1442
H44 H 0.3257 -1.0460 -0.2148
H45 H 0.2457 -1.1077 -0.1599
C30 C 0.4687(5) -0.7777(8) -0.1493(3)
H46 H 0.4652 -0.7668 -0.1970
H47 H 0.5475 -0.8481 -0.1285
H48 H 0.4773 -0.6636 -0.1289
Cl1 Cl -0.0088(7) -0.5771(9) -0.4909(3)
Cl2 Cl 0.0364(7) -0.7256(11) -0.3585(3)
C31 C -0.050(4) -0.775(5) -0.4477(12)
H49 H -0.0112 -0.8790 -0.4640
H50 H -0.1499 -0.7898 -0.4531
Cl3? Cl -0.0033(7) -0.4489(9) -0.5261(3)
C32? C 0.061(3) -0.624(3) -0.4721(13)
H51? H 0.1106 -0.7017 -0.4966
H52? H 0.1293 -0.5769 -0.4341
Cl4? Cl -0.056(2) -0.752(3) -0.4389(11)
loop_
_geom_bond_atom_site_label_1
_geom_bond_atom_site_label_2
_geom_bond_site_symmetry_1
_geom_bond_site_symmetry_2
O1 C3 1_555 1_555
O2 H1 1_555 1_555
O3 H2 1_555 1_555
O4 H3 1_555 1_555
O5 H4 1_555 1_555
C1 H5 1_555 1_555
H6 C1 1_555 1_555
C2 C1 1_555 1_555
H7 C2 1_555 1_555
H8 C2 1_555 1_555
C3 C2 1_555 1_555
C4 C3 1_555 1_555
C5 C4 1_555 1_555
H9 C5 1_555 1_555
C6 C5 1_555 1_555
H10 C6 1_555 1_555
H11 C6 1_555 1_555
C7 C6 1_555 1_555
H12 C7 1_555 1_555
H13 C7 1_555 1_555
C8 C7 1_555 1_555
C9 C8 1_555 1_555
H14 C9 1_555 1_555
C10 C1 1_555 1_555
C11 C9 1_555 1_555
H15 C11 1_555 1_555
H16 C11 1_555 1_555
C12 C11 1_555 1_555
H17 C12 1_555 1_555
C13 C12 1_555 1_555
C14 C8 1_555 1_555
C15 O2 1_555 1_555
H18 C15 1_555 1_555
C16 O4 1_555 1_555
H19 C16 1_555 1_555
C17 C16 1_555 1_555
C18 C13 1_555 1_555
H20 C18 1_555 1_555
C19 C18 1_555 1_555
H21 C19 1_555 1_555
H22 C19 1_555 1_555
C20 C19 1_555 1_555
C21 C20 1_555 1_555
H23 C21 1_555 1_555
H24 C21 1_555 1_555
C22 O5 1_555 1_555
H25 C22 1_555 1_555
C23 C4 1_555 1_555
H26 C23 1_555 1_555
H27 C23 1_555 1_555
H28 C23 1_555 1_555
C24 C4 1_555 1_555
H29 C24 1_555 1_555
H30 C24 1_555 1_555
H31 C24 1_555 1_555
C25 C10 1_555 1_555
H32 C25 1_555 1_555
H33 C25 1_555 1_555
H34 C25 1_555 1_555
C26 C8 1_555 1_555
H35 C26 1_555 1_555
H36 C26 1_555 1_555
H37 C26 1_555 1_555
C27 C14 1_555 1_555
H38 C27 1_555 1_555
H39 C27 1_555 1_555
H40 C27 1_555 1_555
C28 O3 1_555 1_555
H41 C28 1_555 1_555
H42 C28 1_555 1_555
C29 C20 1_555 1_555
H43 C29 1_555 1_555
H44 C29 1_555 1_555
H45 C29 1_555 1_555
C30 C20 1_555 1_555
H46 C30 1_555 1_555
H47 C30 1_555 1_555
H48 C30 1_555 1_555
Cl1 C31 1_555 1_555
Cl2 C31 1_555 1_555
C31 H49 1_555 1_555
H50 C31 1_555 1_555
C5 C10 1_555 1_555
C9 C10 1_555 1_555
C13 C14 1_555 1_555
C14 C15 1_555 1_555
C15 C16 1_555 1_555
C17 C18 1_555 1_555
C17 C22 1_555 1_555
C17 C28 1_555 1_555
C21 C22 1_555 1_555

#END
