
#######################################################################
#
#                 Cambridge Crystallographic Data Centre
#                                CCDC 
#
#######################################################################
#
# If this CIF has been generated from an entry in the Cambridge 
# Structural Database, then it will include bibliographic, chemical, 
# crystal, experimental, refinement or atomic coordinate data resulting 
# from the CCDC's data processing and validation procedures.
#
#######################################################################

data_GEJTEX
_chemical_formula_moiety         'C16 H26 O2'
_chemical_name_systematic        
(3aR,5aS,9aS)-3a,6,6,9a-tetramethyldecahydronaphtho[2,1-b]furan-2(3aH)-one
_symmetry_cell_setting           monoclinic
_symmetry_space_group_name_H-M   'P 21'
_symmetry_Int_Tables_number      4
_space_group_name_Hall           'P 2yb'
loop_
_symmetry_equiv_pos_site_id
_symmetry_equiv_pos_as_xyz
1 x,y,z
2 -x,1/2+y,-z
_cell_length_a                   7.4988(5)
_cell_length_b                   10.6861(7)
_cell_length_c                   9.4162(7)
_cell_angle_alpha                90
_cell_angle_beta                 110.507(3)
_cell_angle_gamma                90
_cell_volume                     706.732
_exptl_crystal_colour            colorless
_cell_formula_units_Z            2
loop_
_atom_site_label
_atom_site_type_symbol
_atom_site_fract_x
_atom_site_fract_y
_atom_site_fract_z
O1 O -0.46743(18) 0.66248(14) 0.42641(16)
O2 O -0.16145(16) 0.60880(11) 0.49190(14)
C1 C 0.3520(3) 0.2213(2) 1.0056(2)
H1 H 0.4187 0.2284 0.9332
H2 H 0.2408 0.1668 0.9635
H3 H 0.4381 0.1856 1.1008
C2 C 0.2873(2) 0.35068(18) 1.0358(2)
C3 C 0.1671(2) 0.42301(17) 0.89096(19)
H4 H 0.1494 0.5078 0.9291
C4 C -0.0413(2) 0.37397(16) 0.80874(19)
C5 C -0.1320(2) 0.47772(17) 0.69447(19)
H5 H -0.1090 0.5555 0.7574
C6 C -0.3435(2) 0.48441(19) 0.5971(2)
H6 H -0.3882 0.4063 0.5390
H7 H -0.4234 0.5026 0.6589
C7 C -0.3410(2) 0.59238(19) 0.4950(2)
C8 C -0.0385(2) 0.50505(17) 0.57652(19)
C9 C -0.0577(2) 0.24558(18) 0.7331(2)
H8 H -0.1812 0.2388 0.6509
H9 H -0.0470 0.1799 0.8083
H10 H 0.0447 0.2358 0.6919
C10 C 0.4671(3) 0.4269(2) 1.1222(2)
H11 H 0.5291 0.3906 1.2231
H12 H 0.4313 0.5138 1.1323
H13 H 0.5552 0.4248 1.0661
C11 C 0.1690(3) 0.3433(2) 1.1408(2)
H14 H 0.2368 0.2888 1.2281
H15 H 0.1616 0.4280 1.1809
C12 C -0.0321(2) 0.2935(2) 1.0654(2)
H16 H -0.0263 0.2051 1.0359
H17 H -0.0998 0.2964 1.1387
C13 C -0.1423(2) 0.36951(18) 0.9257(2)
H18 H -0.1588 0.4559 0.9570
H19 H -0.2704 0.3324 0.8777
C14 C 0.2685(2) 0.44915(17) 0.7772(2)
H20 H 0.2769 0.3704 0.7246
H21 H 0.3999 0.4780 0.8333
C15 C 0.1648(2) 0.54857(18) 0.6583(2)
H22 H 0.1646 0.6298 0.7087
H23 H 0.2310 0.5597 0.5848
C16 C -0.0475(3) 0.40697(18) 0.4580(2)
H24 H -0.1722 0.3658 0.4252
H25 H 0.0526 0.3446 0.5014
H26 H -0.0287 0.4471 0.3707
loop_
_geom_bond_atom_site_label_1
_geom_bond_atom_site_label_2
_geom_bond_site_symmetry_1
_geom_bond_site_symmetry_2
O1 C7 1_555 1_555
O2 C7 1_555 1_555
C1 H1 1_555 1_555
H2 C1 1_555 1_555
H3 C1 1_555 1_555
C2 C1 1_555 1_555
C3 C2 1_555 1_555
H4 C3 1_555 1_555
C4 C3 1_555 1_555
C5 C4 1_555 1_555
H5 C5 1_555 1_555
C6 C5 1_555 1_555
H6 C6 1_555 1_555
H7 C6 1_555 1_555
C7 C6 1_555 1_555
C8 O2 1_555 1_555
C9 C4 1_555 1_555
H8 C9 1_555 1_555
H9 C9 1_555 1_555
H10 C9 1_555 1_555
C10 C2 1_555 1_555
H11 C10 1_555 1_555
H12 C10 1_555 1_555
H13 C10 1_555 1_555
C11 C2 1_555 1_555
H14 C11 1_555 1_555
H15 C11 1_555 1_555
C12 C11 1_555 1_555
H16 C12 1_555 1_555
H17 C12 1_555 1_555
C13 C4 1_555 1_555
H18 C13 1_555 1_555
H19 C13 1_555 1_555
C14 C3 1_555 1_555
H20 C14 1_555 1_555
H21 C14 1_555 1_555
C15 C8 1_555 1_555
H22 C15 1_555 1_555
H23 C15 1_555 1_555
C16 C8 1_555 1_555
H24 C16 1_555 1_555
H25 C16 1_555 1_555
H26 C16 1_555 1_555
C5 C8 1_555 1_555
C12 C13 1_555 1_555
C14 C15 1_555 1_555

#END
