
#######################################################################
#
#                 Cambridge Crystallographic Data Centre
#                                CCDC 
#
#######################################################################
#
# If this CIF has been generated from an entry in the Cambridge 
# Structural Database, then it will include bibliographic, chemical, 
# crystal, experimental, refinement or atomic coordinate data resulting 
# from the CCDC's data processing and validation procedures.
#
#######################################################################

data_GEJVEZ
_chemical_compound_source        
'isolated from the roots of Reynoutria ciliinervis (Nakai) Moldenke'
_chemical_formula_moiety         'C18 H23 N1 O3'
_chemical_name_systematic        
5-(butoxymethyl)-1-[2-(4-hydroxyphenyl)ethyl]-1H-pyrrole-2-carbaldehyde
_chemical_properties_biological  
'antimicrobial activity, potent antifungal activity against Sclerotinia sclerotiorum with MIC value of 31.2  g/mL'
_symmetry_cell_setting           triclinic
_symmetry_space_group_name_H-M   'P -1'
_symmetry_Int_Tables_number      2
_space_group_name_Hall           '-P 1'
loop_
_symmetry_equiv_pos_site_id
_symmetry_equiv_pos_as_xyz
1 x,y,z
2 -x,-y,-z
_cell_length_a                   7.9902(4)
_cell_length_b                   10.0595(5)
_cell_length_c                   11.2848(5)
_cell_angle_alpha                64.683(3)
_cell_angle_beta                 86.478(3)
_cell_angle_gamma                82.846(3)
_cell_volume                     813.51
_exptl_crystal_colour            colorless
_exptl_crystal_description       block
_cell_formula_units_Z            2
loop_
_atom_site_label
_atom_site_type_symbol
_atom_site_fract_x
_atom_site_fract_y
_atom_site_fract_z
C1 C 0.5890(2) 0.8343(2) 0.30353(17)
C2 C 0.6299(3) 0.6840(2) 0.3630(2)
H1 H 0.6170 0.6273 0.3178
C3 C 0.6900(3) 0.6163(2) 0.4893(2)
H2 H 0.7180 0.5144 0.5276
C4 C 0.7098(2) 0.6958(2) 0.56078(18)
C5 C 0.6658(3) 0.8461(2) 0.49926(19)
H3 H 0.6759 0.9027 0.5450
C6 C 0.6074(3) 0.9161(2) 0.37232(19)
H4 H 0.5806 1.0182 0.3334
C7 C 0.7762(2) 0.6224(2) 0.69872(18)
H5 H 0.8315 0.6931 0.7155
H6 H 0.8602 0.5408 0.7064
C8 C 0.6404(2) 0.5647(2) 0.80151(17)
H7 H 0.5531 0.6449 0.7913
H8 H 0.5895 0.4895 0.7884
C9 C 0.7688(2) 0.3579(2) 1.00590(18)
C10 C 0.8324(3) 0.3457(2) 1.12130(19)
H9 H 0.8809 0.2592 1.1879
C11 C 0.8117(2) 0.4838(2) 1.12096(19)
H10 H 0.8441 0.5072 1.1869
C12 C 0.7342(2) 0.5813(2) 1.00490(18)
C13 C 0.6869(3) 0.7341(2) 0.9692(2)
H11 H 0.7158 0.7701 1.0277
C14 C 0.7724(3) 0.2399(2) 0.9600(2)
H12 H 0.7610 0.1455 1.0339
H13 H 0.6796 0.2615 0.9007
C15 C 0.9402(3) 0.1349(3) 0.8324(2)
H14 H 0.8734 0.0541 0.8820
H15 H 1.0566 0.0933 0.8331
C16 C 0.8797(3) 0.2106(3) 0.6946(2)
H16 H 0.9484 0.2901 0.6455
H17 H 0.7647 0.2548 0.6946
C17 C 0.8843(3) 0.1121(3) 0.6251(2)
H18 H 0.8119 0.0347 0.6712
H19 H 0.9984 0.0655 0.6263
C18 C 0.8270(3) 0.1971(3) 0.4847(2)
H20 H 0.7116 0.2379 0.4832
H21 H 0.8367 0.1316 0.4422
H22 H 0.8963 0.2756 0.4394
N1 N 0.70744(18) 0.50161(18) 0.93482(14)
O1 O 0.92880(19) 0.23348(17) 0.89417(15)
O2 O 0.5314(2) 0.89610(17) 0.17757(12)
H23 H 0.4924 0.9822 0.1577
O3 O 0.6125(2) 0.82402(17) 0.87049(15)
loop_
_geom_bond_atom_site_label_1
_geom_bond_atom_site_label_2
_geom_bond_site_symmetry_1
_geom_bond_site_symmetry_2
C1 C2 1_555 1_555
C2 H1 1_555 1_555
C3 C2 1_555 1_555
H2 C3 1_555 1_555
C4 C3 1_555 1_555
C5 C4 1_555 1_555
H3 C5 1_555 1_555
C6 C1 1_555 1_555
H4 C6 1_555 1_555
C7 C4 1_555 1_555
H5 C7 1_555 1_555
H6 C7 1_555 1_555
C8 C7 1_555 1_555
H7 C8 1_555 1_555
H8 C8 1_555 1_555
C9 C10 1_555 1_555
C10 H9 1_555 1_555
C11 C10 1_555 1_555
H10 C11 1_555 1_555
C12 C11 1_555 1_555
C13 C12 1_555 1_555
H11 C13 1_555 1_555
C14 C9 1_555 1_555
H12 C14 1_555 1_555
H13 C14 1_555 1_555
C15 H14 1_555 1_555
H15 C15 1_555 1_555
C16 C15 1_555 1_555
H16 C16 1_555 1_555
H17 C16 1_555 1_555
C17 C16 1_555 1_555
H18 C17 1_555 1_555
H19 C17 1_555 1_555
C18 C17 1_555 1_555
H20 C18 1_555 1_555
H21 C18 1_555 1_555
H22 C18 1_555 1_555
N1 C8 1_555 1_555
O1 C14 1_555 1_555
O2 C1 1_555 1_555
H23 O2 1_555 1_555
O3 C13 1_555 1_555
C5 C6 1_555 1_555
C9 N1 1_555 1_555
C12 N1 1_555 1_555
C15 O1 1_555 1_555

#END
