
#######################################################################
#
#                 Cambridge Crystallographic Data Centre
#                                CCDC 
#
#######################################################################
#
# If this CIF has been generated from an entry in the Cambridge 
# Structural Database, then it will include bibliographic, chemical, 
# crystal, experimental, refinement or atomic coordinate data resulting 
# from the CCDC's data processing and validation procedures.
#
#######################################################################

data_GEKGEL
_chemical_formula_moiety         'C48 H24 N8,2(C1 H1 Cl3)'
_chemical_name_systematic        
"4,4',4'',4''',4'''',4'''''-(pyrrolo[3,2-b]pyrrole-1,2,3,4,5,6-hexayl)hexabenzonitrile chloroform solvate"
_symmetry_cell_setting           triclinic
_symmetry_space_group_name_H-M   'P -1'
_symmetry_Int_Tables_number      2
_space_group_name_Hall           '-P 1'
loop_
_symmetry_equiv_pos_site_id
_symmetry_equiv_pos_as_xyz
1 x,y,z
2 -x,-y,-z
_cell_length_a                   9.3269(3)
_cell_length_b                   12.2334(3)
_cell_length_c                   20.1002(6)
_cell_angle_alpha                78.7630(10)
_cell_angle_beta                 88.1100(10)
_cell_angle_gamma                88.4470(10)
_cell_volume                     2247.74
_exptl_crystal_colour            green
_exptl_crystal_description       block
_cell_formula_units_Z            2
loop_
_atom_site_label
_atom_site_type_symbol
_atom_site_fract_x
_atom_site_fract_y
_atom_site_fract_z
N1 N 0.2849(4) 0.8893(3) 0.51470(18)
N2 N 1.0483(4) 1.2871(3) 0.4138(2)
N3 N 1.5239(4) 1.2665(3) 0.15311(16)
N4 N 1.7435(3) 0.6260(3) -0.03368(17)
N5 N 0.8338(4) 0.1388(3) 0.1116(2)
N6 N 0.4429(4) 0.1844(3) 0.3575(2)
N7 N 0.9440(3) 0.8166(2) 0.29107(13)
N8 N 1.0529(3) 0.6184(2) 0.19559(13)
C1 C 1.0264(3) 0.7690(2) 0.24432(15)
C2 C 0.7219(3) 0.7617(2) 0.36449(15)
C3 C 1.2741(3) 0.6730(2) 0.12104(14)
C4 C 1.1436(3) 0.7875(2) 0.19802(13)
C5 C 1.1588(3) 0.6934(2) 0.16896(14)
C6 C 0.4991(4) 0.8214(2) 0.44671(16)
C7 C 0.9674(3) 0.9208(2) 0.31247(14)
C8 C 0.9709(3) 0.6669(2) 0.24166(14)
C9 C 0.8503(3) 0.6491(2) 0.28555(13)
C10 C 1.3068(3) 0.7539(2) 0.06358(15)
C11 C 0.9231(3) 0.3237(3) 0.13835(16)
C12 C 1.1027(3) 0.9414(3) 0.33436(16)
C13 C 1.0169(3) 0.5161(2) 0.17379(15)
C14 C 1.4742(3) 0.5591(2) 0.09208(16)
C15 C 1.2293(3) 0.8888(2) 0.18474(14)
C16 C 0.5792(3) 0.7453(3) 0.35036(16)
C17 C 1.1596(3) 0.9918(3) 0.16853(16)
C18 C 1.3564(3) 0.5737(2) 0.13368(15)
C19 C 0.8557(3) 0.9981(2) 0.31342(15)
C20 C 0.8364(3) 0.7414(2) 0.31632(15)
C21 C 0.7515(3) 0.8025(2) 0.42313(15)
C22 C 1.5089(3) 0.6430(2) 0.03646(15)
C23 C 0.7644(3) 0.5485(2) 0.30128(15)
C24 C 1.3778(3) 0.8826(3) 0.19052(17)
C25 C 0.8764(3) 1.0930(2) 0.34017(16)
C26 C 0.6405(4) 0.8337(3) 0.46383(16)
C27 C 1.2362(3) 1.0895(3) 0.15993(16)
C28 C 0.6007(3) 0.3588(3) 0.33050(17)
C29 C 1.4235(3) 0.7391(2) 0.02142(15)
C30 C 1.3843(3) 1.0833(3) 0.16763(15)
C31 C 1.0272(4) 0.4158(3) 0.21939(16)
C32 C 0.9146(4) 0.4234(3) 0.09164(17)
C33 C 0.6907(3) 0.5145(3) 0.24996(16)
C34 C 1.4560(3) 0.9802(3) 0.18215(18)
C35 C 0.9622(3) 0.5203(3) 0.10962(16)
C36 C 0.6744(4) 0.3921(3) 0.38200(17)
C37 C 1.4627(4) 1.1851(3) 0.15987(16)
C38 C 0.8723(4) 0.2219(3) 0.12220(19)
C39 C 0.6093(3) 0.4194(3) 0.26432(17)
C40 C 1.0317(4) 1.2094(3) 0.39188(19)
C41 C 1.0106(4) 1.1113(2) 0.36350(16)
C42 C 1.6383(3) 0.6324(3) -0.00360(17)
C43 C 0.5123(4) 0.2609(3) 0.34569(19)
C44 C 0.3809(4) 0.8594(3) 0.48572(18)
C45 C 1.1255(4) 1.0372(3) 0.35959(17)
C46 C 0.7567(3) 0.4872(3) 0.36703(16)
C47 C 0.9806(4) 0.3191(3) 0.20164(17)
C48 C 0.4679(3) 0.7742(3) 0.39142(18)
Cl1 Cl 0.34910(12) 0.46796(9) 0.46630(5)
Cl2 Cl 0.11156(11) 0.62409(8) 0.44261(6)
Cl3 Cl 0.27169(12) 0.55871(9) 0.32929(5)
C49 C 0.2052(4) 0.5149(3) 0.41347(19)
Cl4 Cl 0.74405(14) 0.79987(9) 0.13140(5)
Cl5 Cl 0.94681(10) 0.85030(9) 0.01855(7)
Cl6 Cl 0.66745(9) 0.95672(7) 0.01095(5)
C50 C 0.8080(4) 0.9040(3) 0.06477(19)
loop_
_geom_bond_atom_site_label_1
_geom_bond_atom_site_label_2
_geom_bond_site_symmetry_1
_geom_bond_site_symmetry_2
N1 C44 1_555 1_555
N2 C40 1_555 1_555
N3 C37 1_555 1_555
N4 C42 1_555 1_555
N5 C38 1_555 1_555
N6 C43 1_555 1_555
N7 C1 1_555 1_555
N8 C5 1_555 1_555
C1 C4 1_555 1_555
C2 C16 1_555 1_555
C3 C5 1_555 1_555
C4 C5 1_555 1_555
C6 C26 1_555 1_555
C7 N7 1_555 1_555
C8 N8 1_555 1_555
C9 C8 1_555 1_555
C10 C3 1_555 1_555
C11 C32 1_555 1_555
C12 C7 1_555 1_555
C13 N8 1_555 1_555
C14 C18 1_555 1_555
C15 C4 1_555 1_555
C16 C48 1_555 1_555
C17 C15 1_555 1_555
C18 C3 1_555 1_555
C19 C7 1_555 1_555
C20 N7 1_555 1_555
C21 C2 1_555 1_555
C22 C14 1_555 1_555
C23 C9 1_555 1_555
C24 C15 1_555 1_555
C25 C19 1_555 1_555
C26 C21 1_555 1_555
C27 C17 1_555 1_555
C28 C36 1_555 1_555
C29 C10 1_555 1_555
C30 C27 1_555 1_555
C31 C13 1_555 1_555
C32 C35 1_555 1_555
C33 C23 1_555 1_555
C34 C24 1_555 1_555
C35 C13 1_555 1_555
C36 C46 1_555 1_555
C37 C30 1_555 1_555
C38 C11 1_555 1_555
C39 C28 1_555 1_555
C40 C41 1_555 1_555
C41 C25 1_555 1_555
C42 C22 1_555 1_555
C43 C28 1_555 1_555
C44 C6 1_555 1_555
C45 C12 1_555 1_555
C46 C23 1_555 1_555
C47 C11 1_555 1_555
C48 C6 1_555 1_555
Cl1 C49 1_555 1_555
Cl2 C49 1_555 1_555
Cl3 C49 1_555 1_555
Cl4 C50 1_555 1_555
Cl5 C50 1_555 1_555
Cl6 C50 1_555 1_555
C1 C8 1_555 1_555
C2 C20 1_555 1_555
C9 C20 1_555 1_555
C22 C29 1_555 1_555
C30 C34 1_555 1_555
C31 C47 1_555 1_555
C33 C39 1_555 1_555
C41 C45 1_555 1_555

#END
