
#######################################################################
#
#                 Cambridge Crystallographic Data Centre
#                                CCDC 
#
#######################################################################
#
# If this CIF has been generated from an entry in the Cambridge 
# Structural Database, then it will include bibliographic, chemical, 
# crystal, experimental, refinement or atomic coordinate data resulting 
# from the CCDC's data processing and validation procedures.
#
#######################################################################

data_GEKLAL
_chemical_formula_moiety         'C13 H12 N1 1+,Cl1 O4 1-'
_chemical_name_systematic        
'4-((E)-2-Phenyl-1-ethenyl)pyridinium perchlorate'
_symmetry_cell_setting           monoclinic
_symmetry_space_group_name_H-M   'C 2/c'
_symmetry_Int_Tables_number      15
_space_group_name_Hall           '-C 2yn'
loop_
_symmetry_equiv_pos_site_id
_symmetry_equiv_pos_as_xyz
1 x,y,z
2 -x,y,1/2-z
3 1/2+x,1/2+y,z
4 1/2-x,1/2+y,1/2-z
5 -x,-y,-z
6 x,-y,1/2+z
7 1/2-x,1/2-y,-z
8 1/2+x,1/2-y,1/2+z
_cell_length_a                   9.8873(3)
_cell_length_b                   12.6317(4)
_cell_length_c                   19.9393(6)
_cell_angle_alpha                90
_cell_angle_beta                 92.120(1)
_cell_angle_gamma                90
_cell_volume                     2488.58
_exptl_crystal_colour            'light yellow'
_exptl_crystal_description       prism
_chemical_melting_point          '228-230 deg.C'
_cell_formula_units_Z            8
_chemical_properties_physical    light-sensitive
loop_
_atom_site_label
_atom_site_type_symbol
_atom_site_fract_x
_atom_site_fract_y
_atom_site_fract_z
Cl1 Cl 0.21325(3) 0.47514(3) 0.154390(14)
O1 O 0.10965(10) 0.50599(9) 0.20062(5)
O2 O 0.34433(10) 0.49665(10) 0.18464(5)
O3 O 0.19517(12) 0.53440(9) 0.09305(5)
O4 O 0.20159(11) 0.36376(9) 0.14008(5)
N1 N 0.1896(5) 0.4324(3) -0.15823(19)
H1 H 0.1394 0.4493 -0.1940
C1 C 0.1286(5) 0.4087(3) -0.1007(3)
H2 H 0.0326 0.4091 -0.0992
C2 C 0.2060(5) 0.3841(5) -0.0447(3)
H3 H 0.1632 0.3677 -0.0041
C3 C 0.3468(6) 0.3826(5) -0.0461(3)
C4 C 0.4064(4) 0.4051(3) -0.10797(19)
H4 H 0.5018 0.4022 -0.1115
C5 C 0.3256(5) 0.4308(3) -0.1624(2)
H5 H 0.3654 0.4478 -0.2037
C6 C 0.4279(2) 0.35701(14) 0.01480(9)
H6 H 0.3802 0.3400 0.0539
C7 C 0.5624(2) 0.35551(14) 0.02016(9)
H7 H 0.6101 0.3718 -0.0190
C8 C 0.6424(8) 0.3314(8) 0.0803(4)
C9 C 0.7850(4) 0.3305(4) 0.0770(2)
H8 H 0.8254 0.3458 0.0356
C10 C 0.8668(4) 0.3078(3) 0.1330(3)
H9 H 0.9624 0.3072 0.1295
C11 C 0.8097(5) 0.2860(4) 0.1942(3)
H10 H 0.8662 0.2710 0.2326
C12 C 0.6690(4) 0.2862(5) 0.1992(3)
H11 H 0.6296 0.2713 0.2409
C13 C 0.5862(6) 0.3086(4) 0.1422(2)
H12 H 0.4906 0.3082 0.1457
C14? C 0.1309(14) 0.3985(10) -0.0747(6)
C15? C 0.8556(14) 0.3212(10) 0.1078(6)
C16? C 0.8438(16) 0.2968(11) 0.1742(7)
C17? C 0.7154(13) 0.2878(14) 0.1988(9)
C18? C 0.6059(15) 0.3018(13) 0.1597(6)
C19? C 0.2407(14) 0.3792(14) -0.0337(8)
C20? C 0.3698(14) 0.3837(13) -0.0611(6)
C21? C 0.3748(10) 0.4102(8) -0.1280(5)
C22? C 0.2642(14) 0.4275(8) -0.1666(5)
C23? C 0.4914(5) 0.3674(4) -0.0180(3)
C24? C 0.4953(6) 0.3439(4) 0.0466(3)
C25? C 0.623(2) 0.325(2) 0.0915(10)
C26? C 0.7442(10) 0.3343(12) 0.0663(8)
H13? H 0.0698 0.4330 -0.1657
H14? H 0.0433 0.3957 -0.0568
H15? H 0.9431 0.3293 0.0903
H16? H 0.9219 0.2862 0.2027
H17? H 0.7056 0.2712 0.2449
H18? H 0.5180 0.2966 0.1772
H19? H 0.2307 0.3631 0.0124
H20? H 0.4607 0.4163 -0.1474
H21? H 0.2719 0.4440 -0.2128
H22? H 0.5760 0.3744 -0.0387
H23? H 0.4108 0.3383 0.0675
H24? H 0.7534 0.3499 0.0201
N2? N 0.1429(12) 0.4217(9) -0.1402(6)
loop_
_geom_bond_atom_site_label_1
_geom_bond_atom_site_label_2
_geom_bond_site_symmetry_1
_geom_bond_site_symmetry_2
Cl1 O1 1_555 1_555
O2 Cl1 1_555 1_555
O3 Cl1 1_555 1_555
O4 Cl1 1_555 1_555
N1 H1 1_555 1_555
C1 N1 1_555 1_555
H2 C1 1_555 1_555
C2 C1 1_555 1_555
H3 C2 1_555 1_555
C3 C2 1_555 1_555
C4 C3 1_555 1_555
H4 C4 1_555 1_555
C5 N1 1_555 1_555
H5 C5 1_555 1_555
C6 C3 1_555 1_555
H6 C6 1_555 1_555
C7 C6 1_555 1_555
H7 C7 1_555 1_555
C8 C7 1_555 1_555
C9 C8 1_555 1_555
H8 C9 1_555 1_555
C10 C9 1_555 1_555
H9 C10 1_555 1_555
C11 C10 1_555 1_555
H10 C11 1_555 1_555
C12 C11 1_555 1_555
H11 C12 1_555 1_555
C13 C8 1_555 1_555
H12 C13 1_555 1_555
C4 C5 1_555 1_555
C12 C13 1_555 1_555

#END
