
#######################################################################
#
#                 Cambridge Crystallographic Data Centre
#                                CCDC 
#
#######################################################################
#
# If this CIF has been generated from an entry in the Cambridge 
# Structural Database, then it will include bibliographic, chemical, 
# crystal, experimental, refinement or atomic coordinate data resulting 
# from the CCDC's data processing and validation procedures.
#
#######################################################################

data_GEKLEP
_chemical_formula_moiety         'C13 H11 N2 O2 1+,Cl1 O4 1-'
_chemical_name_systematic        
'4-((E)-2-(4-Nitrophenyl)-1-ethenyl)pyridinium perchlorate'
_symmetry_cell_setting           monoclinic
_symmetry_space_group_name_H-M   'P 21/n'
_symmetry_Int_Tables_number      14
_space_group_name_Hall           '-P 2yn'
loop_
_symmetry_equiv_pos_site_id
_symmetry_equiv_pos_as_xyz
1 x,y,z
2 1/2-x,1/2+y,1/2-z
3 -x,-y,-z
4 1/2+x,1/2-y,1/2+z
_cell_length_a                   7.9262(3)
_cell_length_b                   13.8640(6)
_cell_length_c                   12.9850(5)
_cell_angle_alpha                90
_cell_angle_beta                 101.976(2)
_cell_angle_gamma                90
_cell_volume                     1395.85
_exptl_crystal_colour            'pale yellow'
_exptl_crystal_description       block
_chemical_melting_point          'above 250deg.C.(dec.)'
_cell_formula_units_Z            4
_chemical_properties_physical    light-sensitive
loop_
_atom_site_label
_atom_site_type_symbol
_atom_site_fract_x
_atom_site_fract_y
_atom_site_fract_z
Cl1 Cl 0.05496(6) 0.20818(3) 0.48386(4)
O1 O 0.02333(19) 0.10791(10) 0.50576(12)
O2 O -0.1074(2) 0.25212(13) 0.43466(16)
O3 O 0.1181(3) 0.25829(13) 0.58097(16)
O4 O 0.1745(3) 0.21494(17) 0.4185(2)
N1 N -0.1954(2) 0.48869(13) 0.13894(13)
N2 N 0.7476(2) 0.60494(15) 0.85214(13)
O5 O 0.8097(2) 0.54063(15) 0.91327(12)
O6 O 0.7882(2) 0.69026(15) 0.86462(14)
C1 C -0.1388(3) 0.57911(16) 0.15498(16)
C2 C -0.0224(3) 0.60203(14) 0.24555(16)
C3 C 0.0398(2) 0.53084(14) 0.31997(14)
C4 C -0.0230(3) 0.43687(14) 0.29934(16)
C5 C -0.1415(3) 0.41778(15) 0.20857(16)
C6 C 0.1673(2) 0.55967(14) 0.41321(15)
C7 C 0.2387(2) 0.50030(14) 0.49160(15)
C8 C 0.3713(2) 0.52965(15) 0.58272(15)
C9 C 0.4248(3) 0.46273(16) 0.66372(16)
C10 C 0.5484(3) 0.48671(17) 0.75209(16)
C11 C 0.6180(2) 0.57837(16) 0.75833(14)
C12 C 0.5743(3) 0.64567(16) 0.67835(16)
C13 C 0.4499(3) 0.62079(16) 0.59028(15)
H1 H -0.265(4) 0.474(2) 0.085(2)
H2 H -0.186(4) 0.627(2) 0.102(2)
H3 H 0.017(3) 0.6668(19) 0.257(2)
H4 H 0.013(3) 0.3904(19) 0.344(2)
H5 H -0.192(3) 0.3593(19) 0.1915(19)
H6 H 0.209(4) 0.626(2) 0.420(2)
H7 H 0.200(3) 0.434(2) 0.495(2)
H8 H 0.371(4) 0.398(2) 0.660(2)
H9 H 0.582(4) 0.440(2) 0.809(2)
H10 H 0.625(3) 0.698(2) 0.682(2)
H11 H 0.428(4) 0.667(2) 0.540(2)
loop_
_geom_bond_atom_site_label_1
_geom_bond_atom_site_label_2
_geom_bond_site_symmetry_1
_geom_bond_site_symmetry_2
Cl1 O1 1_555 1_555
O2 Cl1 1_555 1_555
O3 Cl1 1_555 1_555
O4 Cl1 1_555 1_555
N1 C1 1_555 1_555
N2 O5 1_555 1_555
O6 N2 1_555 1_555
C1 C2 1_555 1_555
C2 C3 1_555 1_555
C3 C4 1_555 1_555
C4 C5 1_555 1_555
C5 N1 1_555 1_555
C6 C3 1_555 1_555
C7 C6 1_555 1_555
C8 C7 1_555 1_555
C9 C8 1_555 1_555
C10 C9 1_555 1_555
C11 N2 1_555 1_555
C12 C11 1_555 1_555
C13 C8 1_555 1_555
H1 N1 1_555 1_555
H2 C1 1_555 1_555
H3 C2 1_555 1_555
H4 C4 1_555 1_555
H5 C5 1_555 1_555
H6 C6 1_555 1_555
H7 C7 1_555 1_555
H8 C9 1_555 1_555
H9 C10 1_555 1_555
H10 C12 1_555 1_555
H11 C13 1_555 1_555
C10 C11 1_555 1_555
C12 C13 1_555 1_555

#END
