
#######################################################################
#
#                 Cambridge Crystallographic Data Centre
#                                CCDC 
#
#######################################################################
#
# If this CIF has been generated from an entry in the Cambridge 
# Structural Database, then it will include bibliographic, chemical, 
# crystal, experimental, refinement or atomic coordinate data resulting 
# from the CCDC's data processing and validation procedures.
#
#######################################################################

data_GEKMEQ
_chemical_formula_moiety         'C14 H14 N1 S1 1+,Cl1 O4 1-'
_chemical_name_systematic        
'4-((E)-2-(4-Methylsulfanylphenyl)-1-ethenyl)pyridinium perchlorate'
_symmetry_cell_setting           triclinic
_symmetry_space_group_name_H-M   'P -1'
_symmetry_Int_Tables_number      2
_space_group_name_Hall           '-P 1'
loop_
_symmetry_equiv_pos_site_id
_symmetry_equiv_pos_as_xyz
1 x,y,z
2 -x,-y,-z
_cell_length_a                   8.0773(14)
_cell_length_b                   9.6610(16)
_cell_length_c                   10.0253(17)
_cell_angle_alpha                93.815(7)
_cell_angle_beta                 101.120(7)
_cell_angle_gamma                106.520(6)
_cell_volume                     729.795
_exptl_crystal_colour            yellow
_exptl_crystal_description       block
_chemical_melting_point          '228-230 deg.C.(dec.)'
_cell_formula_units_Z            2
_chemical_properties_physical    light-sensitive
loop_
_atom_site_label
_atom_site_type_symbol
_atom_site_fract_x
_atom_site_fract_y
_atom_site_fract_z
Cl1 Cl 0.0359(2) 0.77433(15) 0.18499(14)
O1 O -0.0017(6) 0.8774(5) 0.0948(4)
O2 O 0.2208(6) 0.8161(6) 0.2417(5)
O3 O -0.0563(7) 0.7734(5) 0.2939(5)
O4 O -0.0212(8) 0.6327(5) 0.1094(5)
S1 S 0.4255(2) 0.12681(16) 0.07282(16)
N1 N 0.1057(7) 0.8534(6) 0.8214(5)
H1 H 0.065(13) 0.912(11) 0.895(11)
C1 C 0.1547(8) 0.9208(7) 0.7161(7)
H2 H 0.1571 1.0193 0.7120
C2 C 0.2013(8) 0.8481(7) 0.6146(6)
H3 H 0.2364 0.8962 0.5405
C3 C 0.1973(7) 0.7025(6) 0.6200(6)
C4 C 0.1450(8) 0.6376(7) 0.7323(6)
H4 H 0.1419 0.5395 0.7400
C5 C 0.0984(8) 0.7140(7) 0.8306(6)
H5 H 0.0609 0.6686 0.9054
C6 C 0.2463(8) 0.6263(7) 0.5116(6)
H6 H 0.2796 0.6785 0.4391
C7 C 0.2481(7) 0.4872(7) 0.5059(6)
H7 H 0.2164 0.4365 0.5797
C8 C 0.2940(7) 0.4064(6) 0.3975(6)
C9 C 0.2956(8) 0.2636(6) 0.4104(6)
H8 H 0.2685 0.2221 0.4898
C10 C 0.3354(8) 0.1818(6) 0.3109(6)
H9 H 0.3349 0.0848 0.3222
C11 C 0.3763(7) 0.2395(6) 0.1947(6)
C12 C 0.3760(8) 0.3826(7) 0.1790(6)
H10 H 0.4031 0.4234 0.0993
C13 C 0.3359(8) 0.4646(7) 0.2805(6)
H11 H 0.3371 0.5618 0.2699
C14 C 0.4848(9) 0.2412(7) -0.0542(7)
H12 H 0.5147 0.1860 -0.1267
H13 H 0.5874 0.3251 -0.0118
H14 H 0.3849 0.2752 -0.0936
loop_
_geom_bond_atom_site_label_1
_geom_bond_atom_site_label_2
_geom_bond_site_symmetry_1
_geom_bond_site_symmetry_2
Cl1 O1 1_555 1_555
O2 Cl1 1_555 1_555
O3 Cl1 1_555 1_555
O4 Cl1 1_555 1_555
S1 C11 1_555 1_555
N1 H1 1_555 1_555
C1 N1 1_555 1_555
H2 C1 1_555 1_555
C2 C1 1_555 1_555
H3 C2 1_555 1_555
C3 C2 1_555 1_555
C4 C3 1_555 1_555
H4 C4 1_555 1_555
C5 N1 1_555 1_555
H5 C5 1_555 1_555
C6 C3 1_555 1_555
H6 C6 1_555 1_555
C7 C6 1_555 1_555
H7 C7 1_555 1_555
C8 C7 1_555 1_555
C9 C8 1_555 1_555
H8 C9 1_555 1_555
C10 C9 1_555 1_555
H9 C10 1_555 1_555
C11 C10 1_555 1_555
C12 C11 1_555 1_555
H10 C12 1_555 1_555
C13 C8 1_555 1_555
H11 C13 1_555 1_555
C14 S1 1_555 1_555
H12 C14 1_555 1_555
H13 C14 1_555 1_555
H14 C14 1_555 1_555
C4 C5 1_555 1_555
C12 C13 1_555 1_555

#END
