
#######################################################################
#
#                 Cambridge Crystallographic Data Centre
#                                CCDC 
#
#######################################################################
#
# If this CIF has been generated from an entry in the Cambridge 
# Structural Database, then it will include bibliographic, chemical, 
# crystal, experimental, refinement or atomic coordinate data resulting 
# from the CCDC's data processing and validation procedures.
#
#######################################################################

data_GEKNOC
_chemical_formula_moiety         'C25 H22 F3 N1 O4 S1'
_chemical_name_systematic        
5-(4-methoxyphenyl)-3-(4-methylphenyl)-2-[(4-methylphenyl)sulfonyl]-4-(trifluoromethyl)-2,3-dihydro-1,2-oxazole
_symmetry_cell_setting           monoclinic
_symmetry_space_group_name_H-M   'P 21/n'
_symmetry_Int_Tables_number      14
_space_group_name_Hall           '-P 2yn'
loop_
_symmetry_equiv_pos_site_id
_symmetry_equiv_pos_as_xyz
1 x,y,z
2 1/2-x,1/2+y,1/2-z
3 -x,-y,-z
4 1/2+x,1/2-y,1/2+z
_cell_length_a                   14.1119(17)
_cell_length_b                   9.9385(11)
_cell_length_c                   17.9114(19)
_cell_angle_alpha                90
_cell_angle_beta                 110.798(3)
_cell_angle_gamma                90
_cell_volume                     2348.4
_exptl_crystal_colour            colorless
_exptl_crystal_description       block
_cell_formula_units_Z            4
loop_
_atom_site_label
_atom_site_type_symbol
_atom_site_fract_x
_atom_site_fract_y
_atom_site_fract_z
N1 N 0.30606(12) 1.14902(17) 0.09365(10)
S1 S 0.38907(4) 1.11773(6) 0.18723(3)
F1 F 0.24982(18) 0.88571(17) -0.12877(9)
F2 F 0.29716(14) 0.75497(14) -0.02956(10)
F3 F 0.40069(16) 0.8962(2) -0.04603(15)
O1 O 0.47806(12) 1.18781(17) 0.18823(11)
O2 O 0.33745(14) 1.1559(2) 0.23892(10)
O3 O 0.21321(10) 1.07660(15) 0.08354(8)
O4 O -0.10927(14) 0.6129(2) 0.00578(12)
C1 C 0.4671(3) 0.5203(3) 0.2133(2)
H1 H 0.5251 0.5000 0.1992
H2 H 0.4796 0.4916 0.2672
H3 H 0.4089 0.4740 0.1777
C2 C 0.44796(19) 0.6700(2) 0.20687(15)
C3 C 0.36865(19) 0.7243(3) 0.22416(15)
H4 H 0.3261 0.6676 0.2392
C4 C 0.35076(17) 0.8602(3) 0.21979(13)
H5 H 0.2971 0.8952 0.2323
C5 C 0.41302(15) 0.9449(2) 0.19664(11)
C6 C 0.49292(17) 0.8926(2) 0.17807(14)
H6 H 0.5346 0.9491 0.1620
C7 C 0.50959(19) 0.7568(3) 0.18374(16)
H7 H 0.5636 0.7216 0.1718
C8 C 0.33879(15) 1.1076(2) 0.02638(11)
H8 H 0.4113 1.0860 0.0471
C9 C 0.31934(14) 1.2219(2) -0.03348(11)
C10 C 0.38014(16) 1.3345(2) -0.01335(13)
H9 H 0.4342 1.3368 0.0351
C11 C 0.36218(18) 1.4434(2) -0.06373(14)
H10 H 0.4031 1.5193 -0.0480
C12 C 0.28466(17) 1.4426(2) -0.13720(12)
C13 C 0.22469(17) 1.3293(2) -0.15752(13)
H11 H 0.1721 1.3261 -0.2068
C14 C 0.24073(16) 1.2206(2) -0.10660(13)
H12 H 0.1984 1.1459 -0.1215
C15 C 0.2663(2) 1.5616(3) -0.19256(16)
H13 H 0.3154 1.6304 -0.1683
H14 H 0.2725 1.5342 -0.2420
H15 H 0.1994 1.5963 -0.2027
C16 C 0.27857(16) 0.9810(2) -0.00132(12)
C17 C 0.3062(2) 0.8801(2) -0.05035(15)
C18 C 0.20650(15) 0.9727(2) 0.03052(11)
C19 C 0.12219(15) 0.8811(2) 0.02161(12)
C20 C 0.08864(17) 0.8579(3) 0.08435(13)
H16 H 0.1191 0.9034 0.1323
C21 C 0.01111(18) 0.7688(3) 0.07713(14)
H17 H -0.0100 0.7541 0.1201
C22 C -0.03513(16) 0.7015(2) 0.00633(14)
C23 C -0.00514(18) 0.7250(3) -0.05727(14)
H18 H -0.0373 0.6810 -0.1055
C24 C 0.07316(18) 0.8145(3) -0.04982(13)
H19 H 0.0931 0.8300 -0.0933
C25 C -0.1658(2) 0.5476(3) -0.0665(2)
H20 H -0.2147 0.4888 -0.0577
H21 H -0.2000 0.6137 -0.1060
H22 H -0.1208 0.4961 -0.0850
loop_
_geom_bond_atom_site_label_1
_geom_bond_atom_site_label_2
_geom_bond_site_symmetry_1
_geom_bond_site_symmetry_2
N1 S1 1_555 1_555
S1 O1 1_555 1_555
F1 C17 1_555 1_555
F2 C17 1_555 1_555
F3 C17 1_555 1_555
O2 S1 1_555 1_555
O3 N1 1_555 1_555
O4 C22 1_555 1_555
C1 H1 1_555 1_555
H2 C1 1_555 1_555
H3 C1 1_555 1_555
C2 C1 1_555 1_555
C3 C2 1_555 1_555
H4 C3 1_555 1_555
C4 C3 1_555 1_555
H5 C4 1_555 1_555
C5 S1 1_555 1_555
C6 C5 1_555 1_555
H6 C6 1_555 1_555
C7 C2 1_555 1_555
H7 C7 1_555 1_555
C8 N1 1_555 1_555
H8 C8 1_555 1_555
C9 C8 1_555 1_555
C10 C9 1_555 1_555
H9 C10 1_555 1_555
C11 C10 1_555 1_555
H10 C11 1_555 1_555
C12 C11 1_555 1_555
C13 C12 1_555 1_555
H11 C13 1_555 1_555
C14 C9 1_555 1_555
H12 C14 1_555 1_555
C15 C12 1_555 1_555
H13 C15 1_555 1_555
H14 C15 1_555 1_555
H15 C15 1_555 1_555
C16 C8 1_555 1_555
C17 C16 1_555 1_555
C18 O3 1_555 1_555
C19 C18 1_555 1_555
C20 C19 1_555 1_555
H16 C20 1_555 1_555
C21 C20 1_555 1_555
H17 C21 1_555 1_555
C22 C21 1_555 1_555
C23 C22 1_555 1_555
H18 C23 1_555 1_555
C24 C19 1_555 1_555
H19 C24 1_555 1_555
C25 O4 1_555 1_555
H20 C25 1_555 1_555
H21 C25 1_555 1_555
H22 C25 1_555 1_555
C4 C5 1_555 1_555
C6 C7 1_555 1_555
C13 C14 1_555 1_555
C16 C18 1_555 1_555
C23 C24 1_555 1_555

#END
