
#######################################################################
#
#                 Cambridge Crystallographic Data Centre
#                                CCDC 
#
#######################################################################
#
# If this CIF has been generated from an entry in the Cambridge 
# Structural Database, then it will include bibliographic, chemical, 
# crystal, experimental, refinement or atomic coordinate data resulting 
# from the CCDC's data processing and validation procedures.
#
#######################################################################

data_GEKNOB
_chemical_formula_moiety         'H4 N1 1+,C23 H30 N1 O6 1+,2(Cl1 O4 1-)'
_chemical_name_systematic        
'Ammonium 4-((E)-2-(2,3,5,6,8,9,11,12,14,15-decahydrobenzo(1,4,7,10,13,16)hexa-oxacyclooctadecen-18-yl)-1-ethenyl)pyridinium diperchlorate'
_symmetry_cell_setting           triclinic
_symmetry_space_group_name_H-M   'P -1'
_symmetry_Int_Tables_number      2
_space_group_name_Hall           '-P 1'
loop_
_symmetry_equiv_pos_site_id
_symmetry_equiv_pos_as_xyz
1 x,y,z
2 -x,-y,-z
_cell_length_a                   6.2285(6)
_cell_length_b                   12.3326(11)
_cell_length_c                   19.1841(16)
_cell_angle_alpha                82.251(4)
_cell_angle_beta                 84.565(4)
_cell_angle_gamma                76.145(3)
_cell_volume                     1414.67
_exptl_crystal_colour            yellow
_exptl_crystal_description       plate
_cell_formula_units_Z            2
_chemical_properties_physical    light-sensitive
loop_
_atom_site_label
_atom_site_type_symbol
_atom_site_fract_x
_atom_site_fract_y
_atom_site_fract_z
Cl1 Cl 0.2020(3) 0.61640(15) 0.14962(9)
O1 O 0.2832(9) 0.7064(4) 0.1683(3)
O2 O -0.0356(8) 0.6491(4) 0.1485(3)
O3 O 0.2551(9) 0.5207(4) 0.2014(3)
O4 O 0.3011(9) 0.5866(5) 0.0818(3)
Cl2 Cl 0.1425(3) 0.26906(15) 0.57708(9)
O5 O 0.0503(7) 0.3790(4) 0.5407(2)
O6 O 0.0428(8) 0.2630(4) 0.6493(2)
O7 O 0.3765(8) 0.2542(5) 0.5772(3)
O8 O 0.0906(9) 0.1839(4) 0.5425(2)
O9 O 1.0404(7) 0.0765(4) 0.2915(2)
O10 O 1.6797(8) -0.0148(4) 0.1112(2)
O11 O 1.4562(8) 0.1864(4) 0.0419(2)
O12 O 1.0187(7) 0.2960(4) 0.0739(2)
O13 O 0.8350(7) 0.2430(4) 0.2077(2)
N1 N -0.6288(13) 0.5293(7) 0.3869(4)
H1 H -0.735(15) 0.563(7) 0.401(5)
C1 C -0.5238(13) 0.5696(6) 0.3290(4)
H6 H -0.5995 0.6328 0.2997
C2 C -0.3085(11) 0.5208(6) 0.3117(4)
H7 H -0.2347 0.5502 0.2705
C3 C -0.1942(11) 0.4265(6) 0.3549(3)
C4 C -0.3100(12) 0.3894(6) 0.4166(4)
H8 H -0.2378 0.3288 0.4485
C5 C -0.5264(14) 0.4410(7) 0.4305(4)
H9 H -0.6058 0.4144 0.4714
C6 C 0.0347(11) 0.3734(6) 0.3341(4)
H10 H 0.1004 0.4054 0.2921
C7 C 0.1574(11) 0.2841(6) 0.3696(3)
H11 H 0.0902 0.2522 0.4114
C8 C 0.3895(11) 0.2296(6) 0.3499(3)
C9 C 0.5111(12) 0.1455(6) 0.3963(4)
H12 H 0.4429 0.1231 0.4406
C10 C 0.7290(11) 0.0938(6) 0.3791(3)
H13 H 0.8087 0.0373 0.4118
C11 C 0.8314(11) 0.1235(5) 0.3150(3)
C12 C 0.7151(11) 0.2126(6) 0.2684(3)
C13 C 0.4975(11) 0.2613(5) 0.2842(3)
H14 H 0.4176 0.3169 0.2510
C14 C 1.1665(11) -0.0207(5) 0.3334(3)
H15 H 1.0638 -0.0578 0.3651
H16 H 1.2639 0.0039 0.3629
C15 C 1.307(2) -0.1038(11) 0.2860(7)
H17 H 1.3888 -0.1704 0.3152
H18 H 1.2095 -0.1293 0.2568
O14 O 1.459(2) -0.0518(10) 0.2415(7)
C16 C 1.6268(13) -0.1396(7) 0.2124(4)
H19 H 1.5638 -0.1786 0.1803
H20 H 1.7000 -0.1953 0.2500
C17 C 1.7831(13) -0.0754(6) 0.1733(4)
H21 H 1.8152 -0.0223 0.2032
H22 H 1.9243 -0.1273 0.1601
C18 C 1.7962(12) 0.0627(6) 0.0754(4)
H23 H 1.9459 0.0229 0.0587
H24 H 1.8126 0.1164 0.1075
C19 C 1.6674(12) 0.1244(7) 0.0139(4)
H25 H 1.7494 0.1767 -0.0143
H26 H 1.6442 0.0705 -0.0169
C20 C 1.3154(12) 0.2484(6) -0.0118(4)
H27 H 1.2338 0.1989 -0.0293
H28 H 1.4050 0.2783 -0.0519
C21 C 1.1577(11) 0.3421(6) 0.0196(3)
H29 H 1.2400 0.3886 0.0398
H30 H 1.0658 0.3904 -0.0171
C22 C 0.8848(12) 0.3831(6) 0.1127(4)
H31 H 0.8077 0.4458 0.0796
H32 H 0.9800 0.4126 0.1403
C23 C 0.7207(12) 0.3363(6) 0.1605(4)
H33 H 0.6297 0.3952 0.1881
H34 H 0.6209 0.3102 0.1327
N2 N 1.2542(10) 0.1011(5) 0.1536(3)
H2 H 1.304(10) 0.110(5) 0.1146(15)
H3 H 1.282(9) 0.150(4) 0.174(3)
H4 H 1.316(9) 0.043(3) 0.173(3)
H5 H 1.128(4) 0.107(5) 0.156(3)
C24? C 1.400(4) -0.0440(19) 0.3031(11)
H35? H 1.4606 0.0243 0.2979
H36? H 1.4964 -0.1047 0.3330
O15? O 1.383(3) -0.0780(18) 0.2362(13)
loop_
_geom_bond_atom_site_label_1
_geom_bond_atom_site_label_2
_geom_bond_site_symmetry_1
_geom_bond_site_symmetry_2
Cl1 O1 1_555 1_555
O2 Cl1 1_555 1_555
O3 Cl1 1_555 1_555
O4 Cl1 1_555 1_555
Cl2 O5 1_555 1_555
O6 Cl2 1_555 1_555
O7 Cl2 1_555 1_555
O8 Cl2 1_555 1_555
O9 C11 1_555 1_555
O10 C17 1_555 1_555
O11 C19 1_555 1_555
O12 C21 1_555 1_555
O13 C12 1_555 1_555
N1 H1 1_555 1_555
N2 H2 1_555 1_555
H3 N2 1_555 1_555
H4 N2 1_555 1_555
H5 N2 1_555 1_555
C1 N1 1_555 1_555
H6 C1 1_555 1_555
C2 C1 1_555 1_555
H7 C2 1_555 1_555
C3 C2 1_555 1_555
C4 C3 1_555 1_555
H8 C4 1_555 1_555
C5 N1 1_555 1_555
H9 C5 1_555 1_555
C6 C3 1_555 1_555
H10 C6 1_555 1_555
C7 C6 1_555 1_555
H11 C7 1_555 1_555
C8 C7 1_555 1_555
C9 C8 1_555 1_555
H12 C9 1_555 1_555
C10 C9 1_555 1_555
H13 C10 1_555 1_555
C11 C10 1_555 1_555
C12 C11 1_555 1_555
C13 C8 1_555 1_555
H14 C13 1_555 1_555
C14 O9 1_555 1_555
H15 C14 1_555 1_555
H16 C14 1_555 1_555
C15 C14 1_555 1_555
H17 C15 1_555 1_555
H18 C15 1_555 1_555
O14 C15 1_555 1_555
C16 O14 1_555 1_555
H19 C16 1_555 1_555
H20 C16 1_555 1_555
C17 C16 1_555 1_555
H21 C17 1_555 1_555
H22 C17 1_555 1_555
C18 O10 1_555 1_555
H23 C18 1_555 1_555
H24 C18 1_555 1_555
C19 C18 1_555 1_555
H25 C19 1_555 1_555
H26 C19 1_555 1_555
C20 O11 1_555 1_555
H27 C20 1_555 1_555
H28 C20 1_555 1_555
C21 C20 1_555 1_555
H29 C21 1_555 1_555
H30 C21 1_555 1_555
C22 O12 1_555 1_555
H31 C22 1_555 1_555
H32 C22 1_555 1_555
C23 O13 1_555 1_555
H33 C23 1_555 1_555
H34 C23 1_555 1_555
C4 C5 1_555 1_555
C12 C13 1_555 1_555
C22 C23 1_555 1_555

#END
