
#######################################################################
#
#                 Cambridge Crystallographic Data Centre
#                                CCDC 
#
#######################################################################
#
# If this CIF has been generated from an entry in the Cambridge 
# Structural Database, then it will include bibliographic, chemical, 
# crystal, experimental, refinement or atomic coordinate data resulting 
# from the CCDC's data processing and validation procedures.
#
#######################################################################

data_GEKNER
_chemical_formula_moiety         
'C42 H52 N2 O10 2+,2(Cl1 O4 1-),C6 H6,0.25(H2 O1)'
_chemical_name_systematic        
'4-(2,4-bis(2,3,5,6,8,9,11,12-Octahydro-1,4,7,10,13-pentaoxabenzocyclopentadecen-15-yl)-3-(pyridin-4-ium-1-yl)cyclobutyl)pyridinium diperchlorate benzene solvate hydrate'
_symmetry_cell_setting           triclinic
_symmetry_space_group_name_H-M   'P -1'
_symmetry_Int_Tables_number      2
_space_group_name_Hall           '-P 1'
loop_
_symmetry_equiv_pos_site_id
_symmetry_equiv_pos_as_xyz
1 x,y,z
2 -x,-y,-z
_cell_length_a                   15.8911(8)
_cell_length_b                   16.2070(8)
_cell_length_c                   19.3135(9)
_cell_angle_alpha                80.241(3)
_cell_angle_beta                 85.211(3)
_cell_angle_gamma                79.987(3)
_cell_volume                     4820.01
_exptl_crystal_colour            yellowish
_exptl_crystal_description       block
_cell_formula_units_Z            4
loop_
_atom_site_label
_atom_site_type_symbol
_atom_site_fract_x
_atom_site_fract_y
_atom_site_fract_z
Cl1 Cl 0.04540(18) 0.7824(2) 0.74874(15)
O1 O 0.0223(6) 0.7102(6) 0.7285(5)
O2 O 0.0019(7) 0.7999(6) 0.8117(5)
O3 O 0.0380(7) 0.8522(6) 0.6954(5)
O4 O 0.1343(7) 0.7592(8) 0.7637(6)
Cl2 Cl 0.5332(2) 0.7961(3) 0.77359(16)
O5 O 0.5216(5) 0.7894(5) 0.7026(4)
O6 O 0.4646(5) 0.7672(6) 0.8185(4)
O7 O 0.6117(6) 0.7485(7) 0.7960(5)
O8 O 0.5332(7) 0.8850(7) 0.7798(5)
Cl3 Cl 0.4442(2) 0.2037(2) 0.75605(15)
O9 O 0.4881(5) 0.2584(6) 0.7808(5)
O10 O 0.3540(6) 0.2386(6) 0.7571(5)
O11 O 0.4721(6) 0.1929(6) 0.6866(4)
O12 O 0.4532(7) 0.1251(7) 0.8020(5)
Cl4 Cl 0.0010(4) 0.2736(6) 0.7030(3)
O13 O -0.0454(7) 0.3435(7) 0.6616(6)
O14 O 0.0735(7) 0.2386(10) 0.6634(7)
O15 O 0.0291(9) 0.3002(10) 0.7609(7)
O16 O -0.0523(10) 0.2116(11) 0.7217(10)
O17 O -0.3931(5) 0.4171(5) 0.4677(4)
O18 O -0.3531(6) 0.5883(6) 0.4318(5)
O19 O -0.3291(7) 0.6243(6) 0.5678(6)
O20 O -0.3487(5) 0.3667(5) 0.5958(4)
O21 O 0.3895(5) 0.0928(5) 0.4438(3)
O22 O 0.3598(5) -0.0810(6) 0.4518(4)
O23 O 0.3063(5) -0.1535(4) 0.5945(4)
O24 O 0.2865(4) -0.0142(5) 0.6674(3)
O25 O 0.3136(4) 0.1295(4) 0.5609(4)
N1 N 0.1721(6) -0.0324(6) 0.5436(7)
H1 H 0.2143 -0.0728 0.5583
N2 N -0.1478(9) 0.5431(8) 0.4134(9)
H2 H -0.1826 0.5888 0.3957
C1 C 0.1635(8) -0.0097(8) 0.4761(9)
H3 H 0.2013 -0.0378 0.4435
C2 C 0.1005(8) 0.0540(9) 0.4526(6)
H4 H 0.0921 0.0681 0.4036
C3 C 0.0470(7) 0.1000(8) 0.5001(7)
C4 C 0.0543(7) 0.0718(7) 0.5709(6)
H5 H 0.0168 0.0975 0.6050
C5 C 0.1189(8) 0.0038(8) 0.5908(6)
H6 H 0.1251 -0.0172 0.6394
C6 C -0.0077(7) 0.1810(8) 0.4703(6)
H7 H -0.0432 0.1714 0.4329
C7 C -0.0603(8) 0.2380(8) 0.5182(6)
H8 H -0.0534 0.2131 0.5688
C8 C -0.1540(8) 0.2713(8) 0.5041(7)
C9 C -0.1794(8) 0.2910(8) 0.4366(7)
H9 H -0.1427 0.2710 0.3994
C10 C -0.2604(8) 0.3411(8) 0.4217(7)
H10 H -0.2776 0.3552 0.3747
C11 C -0.3140(8) 0.3692(8) 0.4760(7)
C12 C -0.2897(8) 0.3425(8) 0.5450(7)
C13 C -0.2117(9) 0.2956(8) 0.5572(6)
H11 H -0.1959 0.2787 0.6046
C14 C -0.4097(8) 0.4736(9) 0.4021(7)
H12 H -0.4589 0.4595 0.3808
H13 H -0.3591 0.4665 0.3689
C15 C -0.4287(8) 0.5617(9) 0.4151(7)
H14 H -0.4523 0.5990 0.3727
H15 H -0.4724 0.5664 0.4546
C16 C -0.3648(11) 0.6696(11) 0.4514(10)
H16 H -0.4078 0.7078 0.4216
H17 H -0.3102 0.6921 0.4417
C17 C -0.3930(10) 0.6720(10) 0.5261(10)
H18 H -0.4037 0.7313 0.5352
H19 H -0.4468 0.6483 0.5373
C18 C -0.3424(13) 0.6310(9) 0.6397(7)
H20 H -0.2935 0.6543 0.6530
H21 H -0.3941 0.6739 0.6448
C19 C -0.352(2) 0.5625(13) 0.6872(12)
H22 H -0.4130 0.5565 0.6915
H23 H -0.3365 0.5727 0.7334
O26 O -0.3031(13) 0.4849(10) 0.6731(11)
C20 C -0.341(2) 0.4153(16) 0.7028(10)
H24 H -0.3187 0.3940 0.7499
H25 H -0.4035 0.4355 0.7101
C21 C -0.3319(12) 0.3488(11) 0.6672(7)
H26 H -0.3699 0.3091 0.6910
H27 H -0.2723 0.3186 0.6714
C22 C -0.1575(10) 0.5157(10) 0.4799(10)
H28 H -0.2006 0.5439 0.5087
C23 C -0.0995(10) 0.4391(10) 0.5093(9)
H29 H -0.1014 0.4190 0.5585
C24 C -0.0436(10) 0.3981(11) 0.4654(9)
C25 C -0.0329(10) 0.4327(11) 0.3930(9)
H30 H 0.0097 0.4063 0.3626
C26 C -0.0874(12) 0.5065(12) 0.3690(10)
H31 H -0.0826 0.5317 0.3210
C27 C 0.0025(8) 0.3075(9) 0.4922(7)
H32 H 0.0404 0.3090 0.5307
C28 C 0.0504(8) 0.2538(8) 0.4398(6)
H33 H 0.0333 0.2803 0.3914
C29 C 0.1453(7) 0.2305(8) 0.4390(8)
C30 C 0.1888(10) 0.2126(9) 0.3771(7)
H34 H 0.1618 0.2304 0.3338
C31 C 0.2691(10) 0.1703(9) 0.3779(7)
H35 H 0.2989 0.1611 0.3345
C32 C 0.3101(8) 0.1394(8) 0.4396(6)
C33 C 0.2684(8) 0.1605(7) 0.5032(6)
C34 C 0.1870(9) 0.2056(8) 0.5028(6)
H36 H 0.1586 0.2201 0.5454
C35 C 0.4168(8) 0.0369(10) 0.3929(6)
H37 H 0.4683 0.0534 0.3652
H38 H 0.3710 0.0415 0.3601
C36 C 0.4367(9) -0.0514(9) 0.4293(7)
H39 H 0.4703 -0.0875 0.3968
H40 H 0.4711 -0.0536 0.4701
C37 C 0.3748(8) -0.1695(8) 0.4852(7)
H41 H 0.3254 -0.1965 0.4785
H42 H 0.4262 -0.1996 0.4620
C38 C 0.3871(8) -0.1787(8) 0.5601(7)
H43 H 0.4100 -0.2385 0.5787
H44 H 0.4284 -0.1426 0.5683
C39 C 0.3110(8) -0.1604(8) 0.6701(6)
H45 H 0.3493 -0.2136 0.6875
H46 H 0.2533 -0.1641 0.6929
C40 C 0.3426(7) -0.0886(8) 0.6910(6)
H47 H 0.3448 -0.0965 0.7428
H48 H 0.4010 -0.0849 0.6698
C41 C 0.3156(7) 0.0607(8) 0.6783(5)
H49 H 0.3784 0.0547 0.6692
H50 H 0.3019 0.0699 0.7277
C42 C 0.2733(7) 0.1334(7) 0.6303(6)
H51 H 0.2115 0.1307 0.6301
H52 H 0.2794 0.1871 0.6458
O27 O 0.1265(5) 0.8812(5) 1.0693(4)
O28 O 0.1355(4) 1.0621(5) 1.0633(4)
O29 O 0.1773(5) 1.1390(5) 0.9223(4)
O30 O 0.2041(4) 1.0051(5) 0.8443(4)
O31 O 0.1938(4) 0.8562(5) 0.9464(4)
O32 O 0.8999(5) 0.5846(5) 1.0370(4)
O33 O 0.8537(6) 0.4147(6) 1.0617(5)
O34 O 0.8278(6) 0.3673(5) 0.9247(5)
O35 O 0.8302(6) 0.5139(6) 0.8240(4)
O36 O 0.8562(5) 0.6334(5) 0.9076(4)
N3 N 0.6902(6) 0.4808(6) 0.9656(7)
H53 H 0.7314 0.4379 0.9606
N4 N 0.3178(6) 1.0253(6) 0.9705(6)
H54 H 0.2721 1.0625 0.9586
C43 C 0.6503(9) 0.5229(9) 0.9104(8)
H55 H 0.6645 0.5050 0.8659
C44 C 0.5875(8) 0.5934(9) 0.9158(7)
H56 H 0.5579 0.6218 0.8755
C45 C 0.5683(7) 0.6217(9) 0.9790(7)
C46 C 0.6049(8) 0.5733(9) 1.0369(7)
H57 H 0.5871 0.5875 1.0822
C47 C 0.6687(9) 0.5028(10) 1.0306(8)
H58 H 0.6963 0.4710 1.0708
C48 C 0.5187(7) 0.7121(8) 0.9796(6)
H59 H 0.4786 0.7280 0.9405
C49 C 0.4741(7) 0.7385(8) 1.0480(6)
H60 H 0.4985 0.6998 1.0901
C50 C 0.3768(7) 0.7545(7) 1.0551(7)
C51 C 0.3379(8) 0.7623(8) 1.1196(6)
H61 H 0.3688 0.7397 1.1605
C52 C 0.2542(8) 0.8023(7) 1.1270(6)
H62 H 0.2286 0.8075 1.1727
C53 C 0.2071(8) 0.8351(7) 1.0680(6)
C54 C 0.2460(7) 0.8226(7) 1.0018(6)
C55 C 0.3284(7) 0.7801(7) 0.9955(6)
H63 H 0.3524 0.7681 0.9509
C56 C 0.1043(7) 0.9305(7) 1.1255(5)
H64 H 0.1559 0.9303 1.1510
H65 H 0.0618 0.9053 1.1592
C57 C 0.0681(7) 1.0190(8) 1.0957(6)
H66 H 0.0263 1.0186 1.0605
H67 H 0.0379 1.0488 1.1336
C58 C 0.1096(9) 1.1469(9) 1.0342(8)
H68 H 0.1533 1.1805 1.0419
H69 H 0.0554 1.1691 1.0589
C59 C 0.0965(8) 1.1584(8) 0.9572(7)
H70 H 0.0579 1.1203 0.9479
H71 H 0.0704 1.2177 0.9403
C60 C 0.1758(8) 1.1522(8) 0.8459(7)
H72 H 0.2337 1.1589 0.8249
H73 H 0.1361 1.2050 0.8299
C61 C 0.1479(8) 1.0797(10) 0.8215(7)
H74 H 0.0891 1.0742 0.8407
H75 H 0.1478 1.0896 0.7695
C62 C 0.1772(7) 0.9296(8) 0.8321(6)
H76 H 0.1864 0.9241 0.7817
H77 H 0.1156 0.9310 0.8458
C63 C 0.2298(7) 0.8560(8) 0.8762(5)
H78 H 0.2262 0.8019 0.8601
H79 H 0.2906 0.8635 0.8733
C64 C 0.3321(8) 0.9991(8) 1.0385(8)
H80 H 0.2942 1.0225 1.0734
C65 C 0.4005(8) 0.9393(8) 1.0580(6)
H81 H 0.4114 0.9233 1.1064
C66 C 0.4543(7) 0.9013(7) 1.0086(7)
C67 C 0.4389(7) 0.9332(8) 0.9374(7)
H82 H 0.4755 0.9108 0.9012
C68 C 0.3719(8) 0.9957(8) 0.9204(6)
H83 H 0.3633 1.0187 0.8724
C69 C 0.5175(7) 0.8237(8) 1.0315(6)
H84 H 0.5485 0.8307 1.0726
C70 C 0.5797(8) 0.7831(8) 0.9763(6)
H85 H 0.5791 0.8209 0.9296
C71 C 0.6707(7) 0.7451(8) 0.9967(7)
C72 C 0.6936(8) 0.7228(9) 1.0655(7)
H86 H 0.6565 0.7417 1.1028
C73 C 0.7721(9) 0.6722(8) 1.0788(7)
H87 H 0.7900 0.6599 1.1257
C74 C 0.8241(7) 0.6395(8) 1.0276(7)
C75 C 0.8006(7) 0.6652(7) 0.9574(7)
C76 C 0.7251(8) 0.7184(8) 0.9427(6)
H88 H 0.7104 0.7368 0.8953
C77 C 0.9034(9) 0.5254(10) 1.1021(7)
H89 H 0.8474 0.5330 1.1288
H90 H 0.9473 0.5366 1.1313
C78 C 0.9248(9) 0.4374(9) 1.0872(7)
H91 H 0.9735 0.4331 1.0518
H92 H 0.9418 0.3983 1.1307
C79 C 0.8720(10) 0.3314(10) 1.0414(9)
H93 H 0.8211 0.3033 1.0540
H94 H 0.9195 0.2972 1.0689
C80 C 0.8953(11) 0.3316(11) 0.9662(10)
H95 H 0.9433 0.3637 0.9523
H96 H 0.9152 0.2725 0.9579
C81 C 0.8367(11) 0.3718(11) 0.8471(9)
H97 H 0.8687 0.3168 0.8366
H98 H 0.7787 0.3782 0.8296
C82 C 0.8772(12) 0.4362(11) 0.8091(9)
H99 H 0.8786 0.4341 0.7581
H100 H 0.9368 0.4297 0.8232
C83 C 0.8746(9) 0.5824(10) 0.7987(8)
H101 H 0.8697 0.5989 0.7472
H102 H 0.9360 0.5657 0.8082
C84 C 0.8366(8) 0.6531(8) 0.8347(6)
H103 H 0.8593 0.7050 0.8124
H104 H 0.7737 0.6639 0.8309
C85 C 0.7033(17) 1.0893(15) 0.7189(11)
H105 H 0.6652 1.1400 0.7036
C86 C 0.7908(18) 1.0846(12) 0.7018(8)
H106 H 0.8135 1.1323 0.6767
C87 C 0.8455(10) 1.0062(14) 0.7232(8)
H107 H 0.9053 0.9996 0.7115
C88 C 0.8088(13) 0.9406(11) 0.7611(8)
H108 H 0.8446 0.8885 0.7768
C89 C 0.7248(16) 0.9475(13) 0.7768(7)
H109 H 0.7016 0.9001 0.8019
C90 C 0.6724(13) 1.0218(18) 0.7571(10)
H110 H 0.6131 1.0267 0.7704
C91 C 0.314(3) 0.6240(10) 0.7829(14)
H111 H 0.2932 0.6820 0.7858
C92 C 0.2590(11) 0.5708(18) 0.7715(13)
H112 H 0.1999 0.5924 0.7665
C93 C 0.2899(19) 0.4861(15) 0.7672(12)
H113 H 0.2520 0.4497 0.7594
C94 C 0.376(2) 0.4545(15) 0.7745(14)
H114 H 0.3976 0.3966 0.7716
C95 C 0.4319(9) 0.508(3) 0.7859(15)
H115 H 0.4910 0.4862 0.7909
C96 C 0.401(2) 0.593(3) 0.7902(14)
H116 H 0.4388 0.6289 0.7980
O37 O 0.7915(8) 0.6644(7) 0.3017(6)
C97? C 0.429(2) 0.4694(17) 0.7773(16)
C98? C 0.4404(17) 0.550(3) 0.7850(14)
C99? C 0.370(3) 0.6149(11) 0.7855(17)
C100? C 0.289(2) 0.598(3) 0.778(2)
C101? C 0.2773(18) 0.517(4) 0.771(2)
C102? C 0.347(4) 0.453(2) 0.7701(18)
C103? C -0.2873(17) 0.5702(16) 0.6815(11)
C104? C -0.3632(15) 0.4591(18) 0.6815(14)
C105? C -0.315(3) 0.395(4) 0.652(3)
Cl5? Cl -0.0106(12) 0.2366(13) 0.7166(10)
H117? H 0.4770 0.4253 0.7769
H118? H 0.4961 0.5617 0.7898
H119? H 0.3780 0.6703 0.7907
H120? H 0.2407 0.6425 0.7787
H121? H 0.2216 0.5061 0.7658
H122? H 0.3397 0.3975 0.7649
H123? H -0.2622 0.5987 0.7143
H124? H -0.2399 0.5455 0.6508
H125? H -0.4094 0.4355 0.7118
H126? H -0.3909 0.5002 0.6428
H127? H -0.3040 0.3452 0.6901
H128? H -0.2595 0.4118 0.6354
O38? O -0.325(2) 0.5042(13) 0.7208(13)
O39? O -0.0811(19) 0.2953(19) 0.6893(14)
O40? O -0.0014(11) 0.2432(12) 0.7859(9)
O41? O 0.0645(18) 0.255(3) 0.6751(15)
O42? O -0.022(2) 0.1549(15) 0.7090(16)
loop_
_geom_bond_atom_site_label_1
_geom_bond_atom_site_label_2
_geom_bond_site_symmetry_1
_geom_bond_site_symmetry_2
Cl1 O1 1_555 1_555
O2 Cl1 1_555 1_555
O3 Cl1 1_555 1_555
O4 Cl1 1_555 1_555
Cl2 O5 1_555 1_555
O6 Cl2 1_555 1_555
O7 Cl2 1_555 1_555
O8 Cl2 1_555 1_555
Cl3 O9 1_555 1_555
O10 Cl3 1_555 1_555
O11 Cl3 1_555 1_555
O12 Cl3 1_555 1_555
Cl4 O13 1_555 1_555
O14 Cl4 1_555 1_555
O15 Cl4 1_555 1_555
O16 Cl4 1_555 1_555
O17 C11 1_555 1_555
O18 C15 1_555 1_555
O19 C17 1_555 1_555
O20 C12 1_555 1_555
O21 C32 1_555 1_555
O22 C36 1_555 1_555
O23 C38 1_555 1_555
O24 C40 1_555 1_555
O25 C33 1_555 1_555
N1 H1 1_555 1_555
N2 H2 1_555 1_555
C1 N1 1_555 1_555
H3 C1 1_555 1_555
C2 C1 1_555 1_555
H4 C2 1_555 1_555
C3 C2 1_555 1_555
C4 C3 1_555 1_555
H5 C4 1_555 1_555
C5 N1 1_555 1_555
H6 C5 1_555 1_555
C6 C3 1_555 1_555
H7 C6 1_555 1_555
C7 C6 1_555 1_555
H8 C7 1_555 1_555
C8 C7 1_555 1_555
C9 C8 1_555 1_555
H9 C9 1_555 1_555
C10 C9 1_555 1_555
H10 C10 1_555 1_555
C11 C10 1_555 1_555
C12 C11 1_555 1_555
C13 C8 1_555 1_555
H11 C13 1_555 1_555
C14 O17 1_555 1_555
H12 C14 1_555 1_555
H13 C14 1_555 1_555
C15 C14 1_555 1_555
H14 C15 1_555 1_555
H15 C15 1_555 1_555
C16 O18 1_555 1_555
H16 C16 1_555 1_555
H17 C16 1_555 1_555
C17 C16 1_555 1_555
H18 C17 1_555 1_555
H19 C17 1_555 1_555
C18 O19 1_555 1_555
H20 C18 1_555 1_555
H21 C18 1_555 1_555
C19 C18 1_555 1_555
H22 C19 1_555 1_555
H23 C19 1_555 1_555
O26 C19 1_555 1_555
C20 O26 1_555 1_555
H24 C20 1_555 1_555
H25 C20 1_555 1_555
C21 O20 1_555 1_555
H26 C21 1_555 1_555
H27 C21 1_555 1_555
C22 N2 1_555 1_555
H28 C22 1_555 1_555
C23 C22 1_555 1_555
H29 C23 1_555 1_555
C24 C23 1_555 1_555
C25 C24 1_555 1_555
H30 C25 1_555 1_555
C26 N2 1_555 1_555
H31 C26 1_555 1_555
C27 C7 1_555 1_555
H32 C27 1_555 1_555
C28 C6 1_555 1_555
H33 C28 1_555 1_555
C29 C28 1_555 1_555
C30 C29 1_555 1_555
H34 C30 1_555 1_555
C31 C30 1_555 1_555
H35 C31 1_555 1_555
C32 C31 1_555 1_555
C33 C32 1_555 1_555
C34 C29 1_555 1_555
H36 C34 1_555 1_555
C35 O21 1_555 1_555
H37 C35 1_555 1_555
H38 C35 1_555 1_555
C36 C35 1_555 1_555
H39 C36 1_555 1_555
H40 C36 1_555 1_555
C37 O22 1_555 1_555
H41 C37 1_555 1_555
H42 C37 1_555 1_555
C38 C37 1_555 1_555
H43 C38 1_555 1_555
H44 C38 1_555 1_555
C39 O23 1_555 1_555
H45 C39 1_555 1_555
H46 C39 1_555 1_555
C40 C39 1_555 1_555
H47 C40 1_555 1_555
H48 C40 1_555 1_555
C41 O24 1_555 1_555
H49 C41 1_555 1_555
H50 C41 1_555 1_555
C42 O25 1_555 1_555
H51 C42 1_555 1_555
H52 C42 1_555 1_555
O27 C53 1_555 1_555
O28 C57 1_555 1_555
O29 C59 1_555 1_555
O30 C61 1_555 1_555
O31 C54 1_555 1_555
O32 C74 1_555 1_555
O33 C78 1_555 1_555
O34 C80 1_555 1_555
O35 C82 1_555 1_555
O36 C75 1_555 1_555
N3 H53 1_555 1_555
N4 H54 1_555 1_555
C43 N3 1_555 1_555
H55 C43 1_555 1_555
C44 C43 1_555 1_555
H56 C44 1_555 1_555
C45 C44 1_555 1_555
C46 C45 1_555 1_555
H57 C46 1_555 1_555
C47 N3 1_555 1_555
H58 C47 1_555 1_555
C48 C45 1_555 1_555
H59 C48 1_555 1_555
C49 C48 1_555 1_555
H60 C49 1_555 1_555
C50 C49 1_555 1_555
C51 C50 1_555 1_555
H61 C51 1_555 1_555
C52 C51 1_555 1_555
H62 C52 1_555 1_555
C53 C52 1_555 1_555
C54 C53 1_555 1_555
C55 C50 1_555 1_555
H63 C55 1_555 1_555
C56 O27 1_555 1_555
H64 C56 1_555 1_555
H65 C56 1_555 1_555
C57 C56 1_555 1_555
H66 C57 1_555 1_555
H67 C57 1_555 1_555
C58 O28 1_555 1_555
H68 C58 1_555 1_555
H69 C58 1_555 1_555
C59 C58 1_555 1_555
H70 C59 1_555 1_555
H71 C59 1_555 1_555
C60 O29 1_555 1_555
H72 C60 1_555 1_555
H73 C60 1_555 1_555
C61 C60 1_555 1_555
H74 C61 1_555 1_555
H75 C61 1_555 1_555
C62 O30 1_555 1_555
H76 C62 1_555 1_555
H77 C62 1_555 1_555
C63 O31 1_555 1_555
H78 C63 1_555 1_555
H79 C63 1_555 1_555
C64 N4 1_555 1_555
H80 C64 1_555 1_555
C65 C64 1_555 1_555
H81 C65 1_555 1_555
C66 C65 1_555 1_555
C67 C66 1_555 1_555
H82 C67 1_555 1_555
C68 N4 1_555 1_555
H83 C68 1_555 1_555
C69 C49 1_555 1_555
H84 C69 1_555 1_555
C70 C48 1_555 1_555
H85 C70 1_555 1_555
C71 C70 1_555 1_555
C72 C71 1_555 1_555
H86 C72 1_555 1_555
C73 C72 1_555 1_555
H87 C73 1_555 1_555
C74 C73 1_555 1_555
C75 C74 1_555 1_555
C76 C71 1_555 1_555
H88 C76 1_555 1_555
C77 O32 1_555 1_555
H89 C77 1_555 1_555
H90 C77 1_555 1_555
C78 C77 1_555 1_555
H91 C78 1_555 1_555
H92 C78 1_555 1_555
C79 O33 1_555 1_555
H93 C79 1_555 1_555
H94 C79 1_555 1_555
C80 C79 1_555 1_555
H95 C80 1_555 1_555
H96 C80 1_555 1_555
C81 O34 1_555 1_555
H97 C81 1_555 1_555
H98 C81 1_555 1_555
C82 C81 1_555 1_555
H99 C82 1_555 1_555
H100 C82 1_555 1_555
C83 O35 1_555 1_555
H101 C83 1_555 1_555
H102 C83 1_555 1_555
C84 O36 1_555 1_555
H103 C84 1_555 1_555
H104 C84 1_555 1_555
C85 H105 1_555 1_555
C86 C85 1_555 1_555
H106 C86 1_555 1_555
C87 C86 1_555 1_555
H107 C87 1_555 1_555
C88 C87 1_555 1_555
H108 C88 1_555 1_555
C89 C88 1_555 1_555
H109 C89 1_555 1_555
C90 C85 1_555 1_555
H110 C90 1_555 1_555
C91 H111 1_555 1_555
C92 C91 1_555 1_555
H112 C92 1_555 1_555
C93 C92 1_555 1_555
H113 C93 1_555 1_555
C94 C93 1_555 1_555
H114 C94 1_555 1_555
C95 C94 1_555 1_555
H115 C95 1_555 1_555
C96 C91 1_555 1_555
H116 C96 1_555 1_555
C4 C5 1_555 1_555
C12 C13 1_555 1_555
C20 C21 1_555 1_555
C24 C27 1_555 1_555
C25 C26 1_555 1_555
C27 C28 1_555 1_555
C33 C34 1_555 1_555
C41 C42 1_555 1_555
C46 C47 1_555 1_555
C54 C55 1_555 1_555
C62 C63 1_555 1_555
C66 C69 1_555 1_555
C67 C68 1_555 1_555
C69 C70 1_555 1_555
C75 C76 1_555 1_555
C83 C84 1_555 1_555
C89 C90 1_555 1_555
C95 C96 1_555 1_555

#END
