
#######################################################################
#
#                 Cambridge Crystallographic Data Centre
#                                CCDC 
#
#######################################################################
#
# If this CIF has been generated from an entry in the Cambridge 
# Structural Database, then it will include bibliographic, chemical, 
# crystal, experimental, refinement or atomic coordinate data resulting 
# from the CCDC's data processing and validation procedures.
#
#######################################################################

data_GEKNIV
_chemical_formula_moiety         
'C23 H30 N1 O6 1+,Cl1 O4 1-,C2 H3 N1,0.5(C6 H6),H2 O1'
_chemical_name_systematic        
'4-((E)-2-(2,3,5,6,8,9,11,12,14,15-Decahydrobenzo(1,4,7,10,13,16)hexa-oxacyclo-octadecen-18-yl)-1-ethenyl)pyridinium perchlorate acetonitrile solvate benzene solvate monohydrate'
_symmetry_cell_setting           triclinic
_symmetry_space_group_name_H-M   'P -1'
_symmetry_Int_Tables_number      2
_space_group_name_Hall           '-P 1'
loop_
_symmetry_equiv_pos_site_id
_symmetry_equiv_pos_as_xyz
1 x,y,z
2 -x,-y,-z
_cell_length_a                   7.691(2)
_cell_length_b                   13.959(4)
_cell_length_c                   14.546(4)
_cell_angle_alpha                77.688(5)
_cell_angle_beta                 84.591(5)
_cell_angle_gamma                78.839(5)
_cell_volume                     1494.58
_exptl_crystal_colour            yellow
_exptl_crystal_description       block
_cell_formula_units_Z            2
_chemical_properties_physical    light-sensitive
loop_
_atom_site_label
_atom_site_type_symbol
_atom_site_fract_x
_atom_site_fract_y
_atom_site_fract_z
Cl1 Cl 0.88461(10) 0.35993(5) 0.26974(5)
O1 O 0.8868(3) 0.27873(16) 0.22470(15)
O2 O 0.9151(4) 0.44560(16) 0.19963(16)
O3 O 0.7155(3) 0.3832(2) 0.31776(17)
O4 O 1.0191(3) 0.33655(17) 0.33636(15)
O5 O 0.3401(2) 0.87489(13) 0.25798(12)
O6 O -0.0126(2) 0.98068(13) 0.22265(13)
O7 O 0.2491(2) 0.62082(15) 0.09408(13)
O8 O 0.4381(2) 0.70171(13) 0.21491(12)
N1 N 1.0348(3) 0.25210(19) 0.72159(17)
H1 H 1.073(5) 0.206(3) 0.767(2)
C1 C 0.9876(4) 0.2289(2) 0.64418(19)
H2 H 1.0125 0.1617 0.6365
C2 C 0.9045(3) 0.3009(2) 0.57654(18)
H3 H 0.8713 0.2838 0.5217
C3 C 0.8673(3) 0.39997(19) 0.58691(17)
C4 C 0.9215(3) 0.4208(2) 0.66806(18)
H4 H 0.9000 0.4875 0.6773
C5 C 1.0050(4) 0.3462(2) 0.73424(19)
H5 H 1.0421 0.3610 0.7893
C6 C 0.7705(3) 0.4752(2) 0.51441(17)
H6 H 0.7382 0.4539 0.4616
C7 C 0.7248(3) 0.5713(2) 0.51763(18)
H7 H 0.7582 0.5906 0.5713
C8 C 0.6293(3) 0.65048(19) 0.44843(18)
C9 C 0.5813(4) 0.7452(2) 0.46776(19)
H8 H 0.6138 0.7576 0.5250
C10 C 0.4875(3) 0.8219(2) 0.40568(19)
H9 H 0.4562 0.8864 0.4203
C11 C 0.4386(3) 0.80547(19) 0.32204(18)
C12 C 0.4915(3) 0.70967(18) 0.29989(17)
C13 C 0.5842(3) 0.63420(19) 0.36217(17)
H10 H 0.6187 0.5700 0.3471
C14 C 0.2624(4) 0.96684(19) 0.2873(2)
H11 H 0.3564 1.0043 0.2930
H12 H 0.1979 0.9528 0.3495
C15 C 0.1376(4) 1.0267(2) 0.2155(2)
H13 H 0.1013 1.0954 0.2267
H14 H 0.1962 1.0299 0.1516
C16 C -0.1454(4) 1.0376(2) 0.1617(2)
H15 H -0.1022 1.0414 0.0950
H16 H -0.1793 1.1061 0.1738
C17 C -0.3013(8) 0.9837(4) 0.1835(4)
H17 H -0.3339 0.9744 0.2519
H18 H -0.4044 1.0251 0.1496
O9 O -0.2627(5) 0.8887(3) 0.1568(2)
C18 C -0.2894(13) 0.8955(5) 0.0614(6)
H19 H -0.2139 0.9400 0.0217
H20 H -0.4149 0.9243 0.0486
C19 C -0.2437(8) 0.7944(5) 0.0376(4)
H21 H -0.3034 0.7471 0.0845
H22 H -0.2862 0.7969 -0.0252
O10 O -0.0577(4) 0.7613(2) 0.0371(2)
C20 C -0.0049(9) 0.6678(5) 0.0073(4)
H23 H -0.0500 0.6734 -0.0555
H24 H -0.0578 0.6158 0.0521
C21 C 0.1851(4) 0.6391(2) 0.00272(19)
H25 H 0.2193 0.5783 -0.0242
H26 H 0.2388 0.6929 -0.0389
C22 C 0.4331(4) 0.6154(2) 0.09180(19)
H27 H 0.4661 0.6758 0.0501
H28 H 0.4938 0.5567 0.0659
C23 C 0.4922(4) 0.6068(2) 0.18899(18)
H29 H 0.4378 0.5557 0.2341
H30 H 0.6229 0.5869 0.1898
O11 O 0.2383(4) 0.86460(19) 0.06265(17)
H31 H 0.285(6) 0.848(4) 0.121(2)
H32 H 0.154(5) 0.829(4) 0.058(4)
C24 C 0.848(3) -0.0211(16) 0.4776(16)
H33 H 0.7418 -0.0394 0.4637
C25 C 0.884(3) 0.0721(14) 0.4320(15)
H34 H 0.8083 0.1181 0.3885
C26 C 0.958(3) -0.0901(12) 0.5431(17)
H35 H 0.9215 -0.1516 0.5713
C24A C 1.152(3) 0.0211(16) 0.5224(16)
H33A H 1.2582 0.0394 0.5363
C25A C 1.116(3) -0.0721(14) 0.5680(15)
H34A H 1.1917 -0.1181 0.6115
C26A C 1.042(3) 0.0901(12) 0.4569(17)
H35A H 1.0785 0.1516 0.4287
N2 N 0.4768(7) 0.1519(5) 0.3121(5)
C27 C 0.4460(8) 0.2298(6) 0.2640(7)
C28 C 0.4078(15) 0.3278(7) 0.2040(8)
H36 H 0.3141 0.3293 0.1622
H37 H 0.5153 0.3424 0.1660
H38 H 0.3682 0.3779 0.2431
C29? C 0.405(5) 0.3582(14) 0.211(2)
C30? C -0.269(2) 0.9732(14) 0.1454(11)
C31? C -0.288(3) 0.8598(14) 0.0515(13)
C32? C -0.184(2) 0.7840(11) 0.0005(9)
C33? C -0.0246(18) 0.6210(10) 0.0169(9)
C34? C 0.916(4) -0.0814(13) 0.5272(15)
C35? C 0.833(3) 0.001(2) 0.4660(18)
C36? C 0.925(4) 0.0794(13) 0.4418(15)
C37? C 0.4256(19) 0.2576(12) 0.1956(14)
H39? H 0.2972 0.3984 0.1827
H40? H 0.5082 0.3874 0.1828
H41? H 0.3954 0.3570 0.2792
H42? H -0.3337 0.9508 0.2057
H43? H -0.3568 1.0137 0.1008
H44? H -0.3407 0.9185 0.0050
H45? H -0.3865 0.8318 0.0898
H46? H -0.2565 0.7745 -0.0485
H47? H -0.0769 0.8085 -0.0314
H48? H -0.0697 0.6239 -0.0454
H49? H -0.0293 0.5539 0.0557
H50? H 0.8624 -0.1387 0.5472
H51? H 0.7210 0.0033 0.4423
H52? H 0.8711 0.1370 0.3996
N3? N 0.4431(19) 0.1747(10) 0.1964(15)
O12? O -0.1862(12) 0.8906(6) 0.1102(8)
O13? O -0.1331(8) 0.6932(5) 0.0609(4)
loop_
_geom_bond_atom_site_label_1
_geom_bond_atom_site_label_2
_geom_bond_site_symmetry_1
_geom_bond_site_symmetry_2
Cl1 O1 1_555 1_555
O2 Cl1 1_555 1_555
O3 Cl1 1_555 1_555
O4 Cl1 1_555 1_555
O5 C11 1_555 1_555
O6 C15 1_555 1_555
O7 C21 1_555 1_555
O8 C12 1_555 1_555
N1 H1 1_555 1_555
C1 N1 1_555 1_555
H2 C1 1_555 1_555
C2 C1 1_555 1_555
H3 C2 1_555 1_555
C3 C2 1_555 1_555
C4 C3 1_555 1_555
H4 C4 1_555 1_555
C5 N1 1_555 1_555
H5 C5 1_555 1_555
C6 C3 1_555 1_555
H6 C6 1_555 1_555
C7 C6 1_555 1_555
H7 C7 1_555 1_555
C8 C7 1_555 1_555
C9 C8 1_555 1_555
H8 C9 1_555 1_555
C10 C9 1_555 1_555
H9 C10 1_555 1_555
C11 C10 1_555 1_555
C12 C11 1_555 1_555
C13 C8 1_555 1_555
H10 C13 1_555 1_555
C14 O5 1_555 1_555
H11 C14 1_555 1_555
H12 C14 1_555 1_555
C15 C14 1_555 1_555
H13 C15 1_555 1_555
H14 C15 1_555 1_555
C16 O6 1_555 1_555
H15 C16 1_555 1_555
H16 C16 1_555 1_555
C17 C16 1_555 1_555
H17 C17 1_555 1_555
H18 C17 1_555 1_555
O9 C17 1_555 1_555
C18 O9 1_555 1_555
H19 C18 1_555 1_555
H20 C18 1_555 1_555
C19 C18 1_555 1_555
H21 C19 1_555 1_555
H22 C19 1_555 1_555
O10 C19 1_555 1_555
C20 O10 1_555 1_555
H23 C20 1_555 1_555
H24 C20 1_555 1_555
C21 C20 1_555 1_555
H25 C21 1_555 1_555
H26 C21 1_555 1_555
C22 O7 1_555 1_555
H27 C22 1_555 1_555
H28 C22 1_555 1_555
C23 O8 1_555 1_555
H29 C23 1_555 1_555
H30 C23 1_555 1_555
O11 H31 1_555 1_555
H32 O11 1_555 1_555
C24 H33 1_555 1_555
C25 C24 1_555 1_555
H34 C25 1_555 1_555
C26 C24 1_555 1_555
H35 C26 1_555 1_555
N2 C27 1_555 1_555
C27 C28 1_555 1_555
C28 H36 1_555 1_555
H37 C28 1_555 1_555
H38 C28 1_555 1_555
C24A H33A 1_555 1_555
C25A C26 1_555 1_555
H34A C25A 1_555 1_555
C26A C25 1_555 1_555
H35A C26A 1_555 1_555
C4 C5 1_555 1_555
C12 C13 1_555 1_555
C22 C23 1_555 1_555
C24A C25A 1_555 1_555
C24A C26A 1_555 1_555

#END
