
#######################################################################
#
#                 Cambridge Crystallographic Data Centre
#                                CCDC 
#
#######################################################################
#
# If this CIF has been generated from an entry in the Cambridge 
# Structural Database, then it will include bibliographic, chemical, 
# crystal, experimental, refinement or atomic coordinate data resulting 
# from the CCDC's data processing and validation procedures.
#
#######################################################################

data_GEKPIV
_chemical_compound_source        
'aerial parts of Delphinium siwanense var. leptogen'
_chemical_formula_moiety         'C25 H35 N1 O8'
_chemical_name_systematic        'Siwanine D'
_symmetry_cell_setting           orthorhombic
_symmetry_space_group_name_H-M   'P 21 21 21'
_symmetry_Int_Tables_number      19
_space_group_name_Hall           'P 2ac 2ab'
loop_
_symmetry_equiv_pos_site_id
_symmetry_equiv_pos_as_xyz
1 x,y,z
2 1/2-x,-y,1/2+z
3 1/2+x,1/2-y,-z
4 -x,1/2+y,1/2-z
_cell_length_a                   14.144(1)
_cell_length_b                   15.432(2)
_cell_length_c                   10.500(2)
_cell_angle_alpha                90
_cell_angle_beta                 90
_cell_angle_gamma                90
_cell_volume                     2291.84
_exptl_crystal_colour            colorless
_chemical_melting_point          226-228deg.C
_cell_formula_units_Z            4
loop_
_atom_site_label
_atom_site_type_symbol
_atom_site_fract_x
_atom_site_fract_y
_atom_site_fract_z
O1 O 0.2045(1) 0.3151(1) 0.1076(2)
O2 O 0.3409(1) 0.3365(1) -0.0080(2)
O3 O 0.3871(2) 0.6105(1) 0.1698(2)
O4 O 0.5206(2) 0.4685(1) 0.0314(2)
O5 O 0.5364(1) 0.2887(1) 0.3545(2)
O6 O 0.3386(2) 0.3857(1) 0.5771(2)
O7 O 0.3947(1) 0.1831(1) 0.1216(2)
O8 O 0.2948(2) 0.1362(2) -0.0307(3)
N1 N 0.1890(2) 0.3062(2) 0.3987(2)
C1 C 0.3766(2) 0.3040(2) 0.5312(3)
C2 C 0.3345(3) 0.2319(2) 0.6076(3)
C3 C 0.2850(3) 0.1684(2) 0.5580(3)
C4 C 0.2646(2) 0.1615(2) 0.4173(3)
C5 C 0.3474(2) 0.2021(2) 0.3414(3)
C6 C 0.3175(2) 0.2115(2) 0.2022(3)
C7 C 0.2852(2) 0.3084(2) 0.1889(3)
C8 C 0.3560(2) 0.3671(2) 0.1222(3)
C9 C 0.4559(2) 0.3509(2) 0.1700(3)
C10 C 0.4545(2) 0.3383(2) 0.3197(3)
C11 C 0.3641(2) 0.2973(2) 0.3841(3)
C12 C 0.4755(2) 0.4320(2) 0.3696(3)
C13 C 0.4785(2) 0.4919(2) 0.2533(3)
C14 C 0.5198(2) 0.4312(2) 0.1543(3)
C15 C 0.3294(2) 0.4647(2) 0.1223(3)
C16 C 0.3792(2) 0.5233(2) 0.2186(3)
C17 C 0.2722(2) 0.3366(2) 0.3295(3)
C18 C 0.2504(3) 0.0666(2) 0.3800(4)
C19 C 0.1737(2) 0.2125(2) 0.3888(3)
C20 C 0.3885(3) 0.4154(3) 0.6856(3)
C21 C 0.5671(3) 0.4162(3) -0.0600(3)
C22 C 0.2409(2) 0.3284(2) -0.0183(3)
C23 C 0.1024(2) 0.3531(2) 0.3662(4)
C24 C 0.3739(3) 0.1490(2) 0.0071(3)
C25 C 0.4603(3) 0.1306(3) -0.0662(4)
loop_
_geom_bond_atom_site_label_1
_geom_bond_atom_site_label_2
_geom_bond_site_symmetry_1
_geom_bond_site_symmetry_2
O1 C7 1_555 1_555
O2 C8 1_555 1_555
O3 C16 1_555 1_555
O4 C14 1_555 1_555
O5 C10 1_555 1_555
O6 C1 1_555 1_555
O7 C6 1_555 1_555
O8 C24 1_555 1_555
N1 C17 1_555 1_555
C1 C2 1_555 1_555
C2 C3 1_555 1_555
C3 C4 1_555 1_555
C4 C5 1_555 1_555
C5 C6 1_555 1_555
C6 C7 1_555 1_555
C7 C8 1_555 1_555
C8 C9 1_555 1_555
C9 C10 1_555 1_555
C10 C11 1_555 1_555
C11 C1 1_555 1_555
C12 C10 1_555 1_555
C13 C12 1_555 1_555
C14 C9 1_555 1_555
C15 C8 1_555 1_555
C16 C13 1_555 1_555
C17 C7 1_555 1_555
C18 C4 1_555 1_555
C19 N1 1_555 1_555
C20 O6 1_555 1_555
C21 O4 1_555 1_555
C22 O1 1_555 1_555
C23 N1 1_555 1_555
C24 O7 1_555 1_555
C25 C24 1_555 1_555
O2 C22 1_555 1_555
C4 C19 1_555 1_555
C5 C11 1_555 1_555
C11 C17 1_555 1_555
C13 C14 1_555 1_555
C15 C16 1_555 1_555

#END
