
#######################################################################
#
#                 Cambridge Crystallographic Data Centre
#                                CCDC 
#
#######################################################################
#
# If this CIF has been generated from an entry in the Cambridge 
# Structural Database, then it will include bibliographic, chemical, 
# crystal, experimental, refinement or atomic coordinate data resulting 
# from the CCDC's data processing and validation procedures.
#
#######################################################################

data_GEKVAW
_chemical_formula_moiety         'C22 H14 S2'
_chemical_name_systematic        
2-(biphenyl-4-yl)thieno[3,2-b][1]benzothiophene
_symmetry_cell_setting           monoclinic
_symmetry_space_group_name_H-M   'P n'
_symmetry_Int_Tables_number      7
_space_group_name_Hall           'P -2yac'
loop_
_symmetry_equiv_pos_site_id
_symmetry_equiv_pos_as_xyz
1 x,y,z
2 1/2+x,-y,1/2+z
_cell_length_a                   5.8953(7)
_cell_length_b                   7.5358(9)
_cell_length_c                   35.049(4)
_cell_angle_alpha                90
_cell_angle_beta                 90.563(7)
_cell_angle_gamma                90
_cell_volume                     1557
_exptl_crystal_colour            colorless
_exptl_crystal_description       plate
_cell_formula_units_Z            4
loop_
_atom_site_label
_atom_site_type_symbol
_atom_site_fract_x
_atom_site_fract_y
_atom_site_fract_z
S1 S 1.2695(2) 0.92221(16) 0.57842(4)
S2 S 0.6892(2) 0.73297(17) 0.63180(4)
C1 C 1.0865(10) 0.8514(7) 0.54219(19)
C2 C 1.1250(11) 0.8645(7) 0.50345(18)
H1 H 1.2609 0.9168 0.4944
C3 C 0.9643(11) 0.8007(7) 0.47793(19)
H2 H 0.9904 0.8077 0.4513
C4 C 0.7621(10) 0.7253(7) 0.49141(17)
H3 H 0.6524 0.6819 0.4737
C5 C 0.7205(10) 0.7136(7) 0.53036(17)
H4 H 0.5831 0.6628 0.5391
C6 C 0.8820(11) 0.7768(7) 0.5565(2)
C7 C 0.8850(11) 0.7845(7) 0.59669(19)
C8 C 0.8669(10) 0.8178(7) 0.66785(18)
C9 C 1.0657(10) 0.8806(7) 0.65309(18)
H5 H 1.1841 0.9319 0.6680
C10 C 1.0738(10) 0.8599(7) 0.61278(19)
C11 C 0.7891(9) 0.8199(7) 0.70733(18)
C12 C 0.5854(10) 0.7379(7) 0.71738(16)
H6 H 0.4969 0.6799 0.6983
C13 C 0.5106(10) 0.7401(7) 0.75493(18)
H7 H 0.3719 0.6829 0.7610
C14 C 0.6338(10) 0.8242(7) 0.78384(16)
C15 C 0.8369(10) 0.9055(7) 0.77342(17)
H8 H 0.9253 0.9640 0.7924
C16 C 0.9132(10) 0.9031(7) 0.73603(18)
H9 H 1.0526 0.9593 0.7300
C17 C 0.5544(10) 0.8230(7) 0.82438(17)
C18 C 0.3493(11) 0.7446(8) 0.83418(17)
H10 H 0.2570 0.6931 0.8148
C19 C 0.2766(11) 0.7401(8) 0.87180(19)
H11 H 0.1368 0.6846 0.8778
C20 C 0.4066(11) 0.8157(8) 0.90036(19)
H12 H 0.3577 0.8125 0.9261
C21 C 0.6107(11) 0.8972(8) 0.89093(18)
H13 H 0.7023 0.9498 0.9103
C22 C 0.6797(10) 0.9013(8) 0.85352(17)
H14 H 0.8176 0.9597 0.8475
S3 S 0.7654(2) 0.20437(16) 0.57712(4)
S4 S 0.1874(2) 0.40178(17) 0.62967(4)
C23 C 0.5805(11) 0.2659(7) 0.54040(18)
C24 C 0.6178(11) 0.2432(8) 0.50159(17)
H15 H 0.7551 0.1915 0.4930
C25 C 0.4552(10) 0.2959(7) 0.47586(16)
H16 H 0.4785 0.2788 0.4493
C26 C 0.2516(10) 0.3761(7) 0.48871(18)
H17 H 0.1407 0.4139 0.4706
C27 C 0.2128(10) 0.3997(7) 0.52734(17)
H18 H 0.0763 0.4539 0.5356
C28 C 0.3756(10) 0.3435(7) 0.55408(18)
C29 C 0.3792(11) 0.3465(7) 0.59487(18)
C30 C 0.3670(11) 0.3232(7) 0.66590(18)
C31 C 0.5659(11) 0.2608(7) 0.65130(19)
H19 H 0.6860 0.2139 0.6665
C32 C 0.5732(11) 0.2741(7) 0.61077(19)
C33 C 0.2877(10) 0.3251(7) 0.70546(18)
C34 C 0.0850(10) 0.4056(8) 0.71571(17)
H20 H -0.0041 0.4625 0.6966
C35 C 0.0092(10) 0.4054(7) 0.75285(17)
H21 H -0.1314 0.4607 0.7585
C36 C 0.1342(9) 0.3260(7) 0.78234(16)
C37 C 0.3397(10) 0.2457(7) 0.77199(17)
H22 H 0.4298 0.1899 0.7911
C38 C 0.4146(11) 0.2453(7) 0.73467(18)
H23 H 0.5548 0.1900 0.7288
C39 C 0.0515(9) 0.3237(7) 0.82236(16)
C40 C -0.1495(11) 0.4102(8) 0.83259(18)
H24 H -0.2359 0.4691 0.8134
C41 C -0.2258(11) 0.4122(8) 0.86967(19)
H25 H -0.3626 0.4723 0.8756
C42 C -0.1043(11) 0.3274(8) 0.89813(18)
H26 H -0.1549 0.3301 0.9238
C43 C 0.0929(11) 0.2382(8) 0.88866(18)
H27 H 0.1761 0.1772 0.9079
C44 C 0.1707(11) 0.2369(8) 0.85132(17)
H28 H 0.3071 0.1759 0.8455
loop_
_geom_bond_atom_site_label_1
_geom_bond_atom_site_label_2
_geom_bond_site_symmetry_1
_geom_bond_site_symmetry_2
S1 C1 1_555 1_555
S2 C7 1_555 1_555
C1 C2 1_555 1_555
C2 H1 1_555 1_555
C3 C2 1_555 1_555
H2 C3 1_555 1_555
C4 C3 1_555 1_555
H3 C4 1_555 1_555
C5 C4 1_555 1_555
H4 C5 1_555 1_555
C6 C1 1_555 1_555
C7 C6 1_555 1_555
C8 S2 1_555 1_555
C9 C8 1_555 1_555
H5 C9 1_555 1_555
C10 S1 1_555 1_555
C11 C8 1_555 1_555
C12 C11 1_555 1_555
H6 C12 1_555 1_555
C13 C12 1_555 1_555
H7 C13 1_555 1_555
C14 C13 1_555 1_555
C15 C14 1_555 1_555
H8 C15 1_555 1_555
C16 C11 1_555 1_555
H9 C16 1_555 1_555
C17 C14 1_555 1_555
C18 C17 1_555 1_555
H10 C18 1_555 1_555
C19 C18 1_555 1_555
H11 C19 1_555 1_555
C20 C19 1_555 1_555
H12 C20 1_555 1_555
C21 C20 1_555 1_555
H13 C21 1_555 1_555
C22 C17 1_555 1_555
H14 C22 1_555 1_555
S3 C23 1_555 1_555
S4 C29 1_555 1_555
C23 C24 1_555 1_555
C24 H15 1_555 1_555
C25 C24 1_555 1_555
H16 C25 1_555 1_555
C26 C25 1_555 1_555
H17 C26 1_555 1_555
C27 C26 1_555 1_555
H18 C27 1_555 1_555
C28 C23 1_555 1_555
C29 C28 1_555 1_555
C30 S4 1_555 1_555
C31 C30 1_555 1_555
H19 C31 1_555 1_555
C32 S3 1_555 1_555
C33 C30 1_555 1_555
C34 C33 1_555 1_555
H20 C34 1_555 1_555
C35 C34 1_555 1_555
H21 C35 1_555 1_555
C36 C35 1_555 1_555
C37 C36 1_555 1_555
H22 C37 1_555 1_555
C38 C33 1_555 1_555
H23 C38 1_555 1_555
C39 C36 1_555 1_555
C40 C39 1_555 1_555
H24 C40 1_555 1_555
C41 C40 1_555 1_555
H25 C41 1_555 1_555
C42 C41 1_555 1_555
H26 C42 1_555 1_555
C43 C42 1_555 1_555
H27 C43 1_555 1_555
C44 C39 1_555 1_555
H28 C44 1_555 1_555
C5 C6 1_555 1_555
C7 C10 1_555 1_555
C9 C10 1_555 1_555
C15 C16 1_555 1_555
C21 C22 1_555 1_555
C27 C28 1_555 1_555
C29 C32 1_555 1_555
C31 C32 1_555 1_555
C37 C38 1_555 1_555
C43 C44 1_555 1_555

#END
