
#######################################################################
#
#                 Cambridge Crystallographic Data Centre
#                                CCDC 
#
#######################################################################
#
# If this CIF has been generated from an entry in the Cambridge 
# Structural Database, then it will include bibliographic, chemical, 
# crystal, experimental, refinement or atomic coordinate data resulting 
# from the CCDC's data processing and validation procedures.
#
#######################################################################

data_GELCUX
_chemical_name_common            
'N-((1-Hexyl-4-hydroxy-2-oxo-1,2-dihydroquinolin-3-yl)carbonyl)pyridine-4-carbohydrazonoyl bromide'
_chemical_formula_moiety         'C22 H23 Br1 N4 O3'
_chemical_name_systematic        
'1-Hexyl-4-hydroxy-2-oxo-1,2-dihydro-quinoline-3-carboxylic acid (bromo(pyridin-4-yl)methylene)hydrazide'
_symmetry_cell_setting           triclinic
_symmetry_space_group_name_H-M   'P -1'
_symmetry_Int_Tables_number      2
_space_group_name_Hall           '-P 1'
loop_
_symmetry_equiv_pos_site_id
_symmetry_equiv_pos_as_xyz
1 x,y,z
2 -x,-y,-z
_cell_length_a                   8.9157(8)
_cell_length_b                   9.9100(8)
_cell_length_c                   12.344(1)
_cell_angle_alpha                86.395(7)
_cell_angle_beta                 74.162(7)
_cell_angle_gamma                82.196(7)
_cell_volume                     1039.15
_exptl_crystal_colour            'light orange'
_exptl_crystal_description       stick
_chemical_melting_point          '155-157 deg.C'
_cell_formula_units_Z            2
_exptl_crystal_recrystallization_method ethanol
loop_
_atom_site_label
_atom_site_type_symbol
_atom_site_fract_x
_atom_site_fract_y
_atom_site_fract_z
Br1 Br 0.88648(8) 0.33817(7) 0.07672(5)
N1 N 0.6008(4) 0.8192(4) -0.1435(3)
N2 N 0.5940(5) 0.5403(4) 0.1300(3)
H1 H 0.6644 0.5274 0.0670
N3 N 0.6030(5) 0.4605(4) 0.2194(3)
N4 N 0.7534(7) 0.1190(6) 0.5020(4)
O1 O 0.7150(4) 0.6283(3) -0.0739(2)
O2 O 0.2319(3) 0.8526(3) 0.1402(2)
H2 H 0.2440 0.7918 0.1863
O3 O 0.3657(3) 0.6555(3) 0.2268(2)
C1 C 0.4749(5) 0.9224(5) -0.1406(3)
C2 C 0.4748(5) 1.0147(5) -0.2292(4)
H3 H 0.5593 1.0115 -0.2932
C3 C 0.3435(6) 1.1135(5) -0.2198(4)
H4 H 0.3412 1.1761 -0.2788
C4 C 0.2182(6) 1.1199(5) -0.1254(4)
H5 H 0.1321 1.1855 -0.1223
C5 C 0.2184(6) 1.0330(5) -0.0378(4)
H6 H 0.1339 1.0399 0.0262
C6 C 0.3479(5) 0.9299(5) -0.0427(3)
C7 C 0.3514(5) 0.8380(5) 0.0483(3)
C8 C 0.4727(6) 0.7315(5) 0.0418(3)
C9 C 0.6032(6) 0.7217(5) -0.0623(3)
C10 C 0.4727(6) 0.6423(5) 0.1385(4)
C11 C 0.7173(6) 0.3682(5) 0.2123(3)
C12 C 0.7314(5) 0.2803(5) 0.3103(3)
C13 C 0.6521(6) 0.3220(5) 0.4185(4)
H7 H 0.5896 0.4058 0.4289
C14 C 0.6653(7) 0.2418(7) 0.5084(4)
H8 H 0.6102 0.2729 0.5795
C15 C 0.8291(8) 0.0796(6) 0.3992(5)
H9 H 0.8909 -0.0045 0.3919
C16 C 0.8231(7) 0.1543(5) 0.3016(4)
H10 H 0.8794 0.1208 0.2315
C17 C 0.7422(5) 0.8117(4) -0.2439(3)
H11 H 0.8335 0.7678 -0.2214
H12 H 0.7621 0.9032 -0.2714
C18 C 0.7172(4) 0.7319(4) -0.3381(3)
H13 H 0.6237 0.7732 -0.3591
H14 H 0.7028 0.6388 -0.3124
C19 C 0.8612(4) 0.7329(4) -0.4403(3)
H15 H 0.8753 0.8264 -0.4646
H16 H 0.9541 0.6923 -0.4182
C20 C 0.8450(5) 0.6551(4) -0.5385(3)
H17 H 0.8352 0.5607 -0.5151
H18 H 0.7499 0.6934 -0.5586
C21 C 0.9850(5) 0.6610(5) -0.6414(3)
H19 H 1.0808 0.6282 -0.6201
H20 H 0.9907 0.7549 -0.6677
C22 C 0.9740(6) 0.5755(4) -0.7374(3)
H21 H 1.0557 0.5925 -0.8038
H22 H 0.8736 0.5998 -0.7524
H23 H 0.9860 0.4806 -0.7161
loop_
_geom_bond_atom_site_label_1
_geom_bond_atom_site_label_2
_geom_bond_site_symmetry_1
_geom_bond_site_symmetry_2
Br1 C11 1_555 1_555
N1 C1 1_555 1_555
N2 H1 1_555 1_555
N3 N2 1_555 1_555
N4 C14 1_555 1_555
O1 C9 1_555 1_555
O2 H2 1_555 1_555
O3 C10 1_555 1_555
C1 C2 1_555 1_555
C2 H3 1_555 1_555
C3 C2 1_555 1_555
H4 C3 1_555 1_555
C4 C3 1_555 1_555
H5 C4 1_555 1_555
C5 C4 1_555 1_555
H6 C5 1_555 1_555
C6 C1 1_555 1_555
C7 O2 1_555 1_555
C8 C7 1_555 1_555
C9 N1 1_555 1_555
C10 N2 1_555 1_555
C11 N3 1_555 1_555
C12 C11 1_555 1_555
C13 C12 1_555 1_555
H7 C13 1_555 1_555
C14 C13 1_555 1_555
H8 C14 1_555 1_555
C15 N4 1_555 1_555
H9 C15 1_555 1_555
C16 C12 1_555 1_555
H10 C16 1_555 1_555
C17 N1 1_555 1_555
H11 C17 1_555 1_555
H12 C17 1_555 1_555
C18 C17 1_555 1_555
H13 C18 1_555 1_555
H14 C18 1_555 1_555
C19 C18 1_555 1_555
H15 C19 1_555 1_555
H16 C19 1_555 1_555
C20 C19 1_555 1_555
H17 C20 1_555 1_555
H18 C20 1_555 1_555
C21 C20 1_555 1_555
H19 C21 1_555 1_555
H20 C21 1_555 1_555
C22 C21 1_555 1_555
H21 C22 1_555 1_555
H22 C22 1_555 1_555
H23 C22 1_555 1_555
C5 C6 1_555 1_555
C6 C7 1_555 1_555
C8 C9 1_555 1_555
C8 C10 1_555 1_555
C15 C16 1_555 1_555

#END
