
#######################################################################
#
#                 Cambridge Crystallographic Data Centre
#                                CCDC 
#
#######################################################################
#
# If this CIF has been generated from an entry in the Cambridge 
# Structural Database, then it will include bibliographic, chemical, 
# crystal, experimental, refinement or atomic coordinate data resulting 
# from the CCDC's data processing and validation procedures.
#
#######################################################################

data_GELHUD
_chemical_formula_moiety         'C16 H15 N3 O5'
_chemical_name_systematic        
'2-((2-(benzoylamino)benzoyl)amino)ethyl nitrate'
_symmetry_cell_setting           triclinic
_symmetry_space_group_name_H-M   'P -1'
_symmetry_Int_Tables_number      2
_space_group_name_Hall           '-P 1'
loop_
_symmetry_equiv_pos_site_id
_symmetry_equiv_pos_as_xyz
1 x,y,z
2 -x,-y,-z
_cell_length_a                   7.4889(7)
_cell_length_b                   8.9633(8)
_cell_length_c                   12.2743(11)
_cell_angle_alpha                98.953(3)
_cell_angle_beta                 106.482(3)
_cell_angle_gamma                98.679(3)
_cell_volume                     763.709
_cell_formula_units_Z            2
loop_
_atom_site_label
_atom_site_type_symbol
_atom_site_fract_x
_atom_site_fract_y
_atom_site_fract_z
C1 C 0.6503(3) 0.6379(3) 0.77691(19)
H1 H 0.6107 0.5743 0.7034
C2 C 0.6355(3) 0.5767(3) 0.8713(2)
H2 H 0.5864 0.4720 0.8611
C3 C 0.6937(3) 0.6707(3) 0.9813(2)
H3 H 0.6837 0.6292 1.0447
C4 C 0.7668(3) 0.8267(3) 0.9965(2)
H4 H 0.8051 0.8902 1.0700
C5 C 0.7827(3) 0.8879(3) 0.90226(18)
H5 H 0.8330 0.9925 0.9130
C6 C 0.7243(3) 0.7946(2) 0.79143(18)
C7 C 0.7478(3) 0.8683(3) 0.69390(19)
C8 C 0.6004(3) 0.8380(2) 0.47875(17)
C9 C 0.7450(3) 0.9339(2) 0.45749(18)
H6 H 0.8582 0.9771 0.5172
C10 C 0.7220(3) 0.9658(3) 0.34815(19)
H7 H 0.8194 1.0311 0.3352
C11 C 0.5555(3) 0.9015(3) 0.25779(19)
H8 H 0.5423 0.9203 0.1838
C12 C 0.4090(3) 0.8089(2) 0.27896(18)
H9 H 0.2965 0.7664 0.2186
C13 C 0.4266(3) 0.7780(2) 0.38914(18)
C14 C 0.2622(3) 0.6836(2) 0.41069(18)
C15 C -0.0831(3) 0.6066(2) 0.35658(19)
H10 H -0.1910 0.6500 0.3212
H11 H -0.0720 0.6146 0.4381
C16 C -0.1214(3) 0.4378(2) 0.29910(17)
H12 H -0.0125 0.3928 0.3296
H13 H -0.2316 0.3806 0.3119
N1 N -0.2077(3) 0.2862(2) 0.10722(17)
N2 N 0.0879(3) 0.6968(2) 0.34762(15)
H14 H 0.0780 0.7599 0.3012
N3 N 0.6196(2) 0.7980(2) 0.58762(14)
H15 H 0.5395 0.7181 0.5871
O1 O 0.8717(2) 0.98344(17) 0.70985(12)
O2 O 0.2821(2) 0.59718(17) 0.48116(13)
O3 O -0.2204(3) 0.17968(19) 0.15464(14)
O4 O -0.2333(3) 0.2862(2) 0.00596(14)
O5 O -0.1560(2) 0.43578(16) 0.17637(12)
loop_
_geom_bond_atom_site_label_1
_geom_bond_atom_site_label_2
_geom_bond_site_symmetry_1
_geom_bond_site_symmetry_2
C1 H1 1_555 1_555
C2 C1 1_555 1_555
H2 C2 1_555 1_555
C3 C2 1_555 1_555
H3 C3 1_555 1_555
C4 C3 1_555 1_555
H4 C4 1_555 1_555
C5 C4 1_555 1_555
H5 C5 1_555 1_555
C6 C1 1_555 1_555
C7 C6 1_555 1_555
C8 C9 1_555 1_555
C9 H6 1_555 1_555
C10 C9 1_555 1_555
H7 C10 1_555 1_555
C11 C10 1_555 1_555
H8 C11 1_555 1_555
C12 C11 1_555 1_555
H9 C12 1_555 1_555
C13 C8 1_555 1_555
C14 C13 1_555 1_555
C15 H10 1_555 1_555
H11 C15 1_555 1_555
C16 C15 1_555 1_555
H12 C16 1_555 1_555
H13 C16 1_555 1_555
N1 O3 1_555 1_555
N2 C14 1_555 1_555
H14 N2 1_555 1_555
N3 C7 1_555 1_555
H15 N3 1_555 1_555
O1 C7 1_555 1_555
O2 C14 1_555 1_555
O4 N1 1_555 1_555
O5 C16 1_555 1_555
C5 C6 1_555 1_555
C8 N3 1_555 1_555
C12 C13 1_555 1_555
C15 N2 1_555 1_555
N1 O5 1_555 1_555

#END
