
#######################################################################
#
#                 Cambridge Crystallographic Data Centre
#                                CCDC 
#
#######################################################################
#
# If this CIF has been generated from an entry in the Cambridge 
# Structural Database, then it will include bibliographic, chemical, 
# crystal, experimental, refinement or atomic coordinate data resulting 
# from the CCDC's data processing and validation procedures.
#
#######################################################################

data_GELKIU
_chemical_formula_moiety         'C19 H16 Br1 N1 O1'
_chemical_name_systematic        
(6R,6aR,10aR)-6-(4-bromophenyl)-6,6a,10,10a-tetrahydrophenanthridin-9(5H)-one
_symmetry_cell_setting           monoclinic
_symmetry_space_group_name_H-M   'P 21'
_symmetry_Int_Tables_number      4
_space_group_name_Hall           'P 2yb'
loop_
_symmetry_equiv_pos_site_id
_symmetry_equiv_pos_as_xyz
1 x,y,z
2 -x,1/2+y,-z
_cell_length_a                   5.4711(2)
_cell_length_b                   16.7702(4)
_cell_length_c                   8.5913(2)
_cell_angle_alpha                90
_cell_angle_beta                 92.743(2)
_cell_angle_gamma                90
_cell_volume                     787.361
_exptl_crystal_colour            colorless
_exptl_crystal_description       block
_chemical_melting_point          '115.5-116.5 deg.C'
_cell_formula_units_Z            2
loop_
_atom_site_label
_atom_site_type_symbol
_atom_site_fract_x
_atom_site_fract_y
_atom_site_fract_z
Br1 Br 0.40542(11) 0.74741(4) -0.16474(7)
C1 C 0.7843(9) 0.5320(3) 0.6644(6)
O1 O 0.1163(6) 0.2510(2) 0.4842(4)
N1 N 0.7060(8) 0.5778(2) 0.5363(5)
C2 C 0.7714(11) 0.4139(3) 0.8211(6)
H1 H 0.6979 0.3642 0.8437
C3 C 0.9666(11) 0.4393(3) 0.9145(6)
H2 H 1.0284 0.4072 0.9985
C4 C 1.0722(9) 0.5125(3) 0.8844(5)
H3 H 1.2066 0.5311 0.9484
C5 C 0.9817(9) 0.5582(3) 0.7614(5)
H4 H 1.0546 0.6084 0.7419
C6 C 0.6760(9) 0.4580(3) 0.6943(5)
C7 C 0.4558(9) 0.4300(3) 0.5956(5)
H5 H 0.3067 0.4477 0.6491
C8 C 0.4499(8) 0.4712(2) 0.4346(5)
H6 H 0.5968 0.4529 0.3796
C9 C 0.4711(9) 0.5616(3) 0.4563(5)
H7 H 0.3376 0.5801 0.5232
C10 C 0.4351(9) 0.3392(3) 0.5726(6)
H8 H 0.5824 0.3195 0.5222
H9 H 0.4281 0.3130 0.6755
C11 C 0.2107(8) 0.3172(3) 0.4736(5)
C12 C 0.1182(9) 0.3754(3) 0.3592(6)
H10 H -0.0248 0.3632 0.2966
C13 C 0.2290(10) 0.4453(3) 0.3401(6)
H11 H 0.1634 0.4804 0.2620
C14 C 0.4528(8) 0.6067(2) 0.3035(5)
C15 C 0.2565(8) 0.6570(3) 0.2687(6)
H12 H 0.1328 0.6634 0.3416
C16 C 0.2391(8) 0.6984(3) 0.1279(6)
H13 H 0.1026 0.7317 0.1028
C17 C 0.4209(9) 0.6900(3) 0.0279(5)
C18 C 0.6177(9) 0.6401(3) 0.0562(6)
H14 H 0.7399 0.6342 -0.0179
C19 C 0.6326(8) 0.5984(3) 0.1961(5)
H15 H 0.7674 0.5639 0.2186
loop_
_geom_bond_atom_site_label_1
_geom_bond_atom_site_label_2
_geom_bond_site_symmetry_1
_geom_bond_site_symmetry_2
Br1 C17 1_555 1_555
C1 N1 1_555 1_555
O1 C11 1_555 1_555
N1 C9 1_555 1_555
C2 H1 1_555 1_555
C3 C2 1_555 1_555
H2 C3 1_555 1_555
C4 C3 1_555 1_555
H3 C4 1_555 1_555
C5 C1 1_555 1_555
H4 C5 1_555 1_555
C6 C1 1_555 1_555
C7 C6 1_555 1_555
H5 C7 1_555 1_555
C8 C7 1_555 1_555
H6 C8 1_555 1_555
C9 C8 1_555 1_555
H7 C9 1_555 1_555
C10 C7 1_555 1_555
H8 C10 1_555 1_555
H9 C10 1_555 1_555
C11 C10 1_555 1_555
C12 C11 1_555 1_555
H10 C12 1_555 1_555
C13 C8 1_555 1_555
H11 C13 1_555 1_555
C14 C9 1_555 1_555
C15 C14 1_555 1_555
H12 C15 1_555 1_555
C16 C15 1_555 1_555
H13 C16 1_555 1_555
C17 C16 1_555 1_555
C18 C17 1_555 1_555
H14 C18 1_555 1_555
C19 C14 1_555 1_555
H15 C19 1_555 1_555
C2 C6 1_555 1_555
C4 C5 1_555 1_555
C12 C13 1_555 1_555
C18 C19 1_555 1_555

#END
