
#######################################################################
#
#                 Cambridge Crystallographic Data Centre
#                                CCDC 
#
#######################################################################
#
# If this CIF has been generated from an entry in the Cambridge 
# Structural Database, then it will include bibliographic, chemical, 
# crystal, experimental, refinement or atomic coordinate data resulting 
# from the CCDC's data processing and validation procedures.
#
#######################################################################

data_GELKUG
_chemical_formula_moiety         'C20 H19 N1 O1'
_chemical_name_systematic        
(6R,6aR,10aS)-1-methyl-6-phenyl-6,6a,10,10a-tetrahydrophenanthridin-9(5H)-one
_symmetry_cell_setting           triclinic
_symmetry_space_group_name_H-M   'P -1'
_symmetry_Int_Tables_number      2
_space_group_name_Hall           '-P 1'
loop_
_symmetry_equiv_pos_site_id
_symmetry_equiv_pos_as_xyz
1 x,y,z
2 -x,-y,-z
_cell_length_a                   8.5036(5)
_cell_length_b                   9.0126(5)
_cell_length_c                   10.4698(6)
_cell_angle_alpha                78.865(2)
_cell_angle_beta                 87.470(2)
_cell_angle_gamma                74.316(2)
_cell_volume                     757.955
_exptl_crystal_colour            colorless
_exptl_crystal_description       block
_chemical_melting_point          '131.2-132.4 deg.C'
_cell_formula_units_Z            2
loop_
_atom_site_label
_atom_site_type_symbol
_atom_site_fract_x
_atom_site_fract_y
_atom_site_fract_z
C1 C 0.43538(18) 0.79428(17) 0.47040(14)
H1 H 0.5277 0.7390 0.5206
C2 C 0.3310(2) 0.92598(18) 0.50752(16)
H2 H 0.3533 0.9576 0.5827
C3 C 0.19454(19) 1.01007(18) 0.43338(17)
H3 H 0.1251 1.0990 0.4577
C4 C 0.16181(19) 0.96105(18) 0.32266(17)
H4 H 0.0695 1.0170 0.2726
C5 C 0.26561(18) 0.82901(17) 0.28564(15)
H5 H 0.2426 0.7972 0.2108
C6 C 0.40389(16) 0.74399(15) 0.35966(13)
C7 C 0.51974(16) 0.59992(15) 0.32094(13)
H6 H 0.5792 0.5338 0.3987
C8 C 0.64504(16) 0.64036(15) 0.21771(13)
H7 H 0.5853 0.7007 0.1382
C9 C 0.73977(17) 0.73888(16) 0.26350(14)
H8 H 0.6904 0.8457 0.2561
C10 C 0.89005(18) 0.68313(17) 0.31408(15)
H9 H 0.9417 0.7523 0.3384
C11 C 0.97600(16) 0.51642(17) 0.33249(14)
C12 C 0.88386(16) 0.40894(16) 0.29734(14)
H10 H 0.8264 0.3712 0.3735
H11 H 0.9612 0.3188 0.2722
C13 C 0.76007(16) 0.48881(15) 0.18567(13)
H12 H 0.8213 0.5177 0.1076
C14 C 0.66797(16) 0.37671(15) 0.15650(13)
C15 C 0.74043(18) 0.25798(17) 0.08662(13)
C16 C 0.65799(19) 0.14793(17) 0.07200(14)
H13 H 0.7073 0.0671 0.0281
C17 C 0.50266(19) 0.15838(17) 0.12262(14)
H14 H 0.4493 0.0835 0.1135
C18 C 0.42671(18) 0.27879(17) 0.18632(14)
H15 H 0.3211 0.2868 0.2173
C19 C 0.50843(16) 0.38927(15) 0.20446(13)
C20 C 0.9037(2) 0.2513(2) 0.02122(16)
H16 H 0.9393 0.1570 -0.0139
H17 H 0.9825 0.2520 0.0839
H18 H 0.8930 0.3408 -0.0478
N1 N 0.42866(14) 0.51037(13) 0.26734(12)
O1 O 1.11578(12) 0.46530(13) 0.37636(11)
loop_
_geom_bond_atom_site_label_1
_geom_bond_atom_site_label_2
_geom_bond_site_symmetry_1
_geom_bond_site_symmetry_2
C1 H1 1_555 1_555
C2 C1 1_555 1_555
H2 C2 1_555 1_555
C3 C2 1_555 1_555
H3 C3 1_555 1_555
C4 C3 1_555 1_555
H4 C4 1_555 1_555
C5 C4 1_555 1_555
H5 C5 1_555 1_555
C6 C1 1_555 1_555
C7 C6 1_555 1_555
H6 C7 1_555 1_555
C8 C7 1_555 1_555
H7 C8 1_555 1_555
C9 C8 1_555 1_555
H8 C9 1_555 1_555
C10 C9 1_555 1_555
H9 C10 1_555 1_555
C11 C10 1_555 1_555
C12 C11 1_555 1_555
H10 C12 1_555 1_555
H11 C12 1_555 1_555
C13 C8 1_555 1_555
H12 C13 1_555 1_555
C14 C13 1_555 1_555
C15 C14 1_555 1_555
C16 C15 1_555 1_555
H13 C16 1_555 1_555
C17 C16 1_555 1_555
H14 C17 1_555 1_555
C18 C17 1_555 1_555
H15 C18 1_555 1_555
C19 C14 1_555 1_555
C20 C15 1_555 1_555
H16 C20 1_555 1_555
H17 C20 1_555 1_555
H18 C20 1_555 1_555
N1 C7 1_555 1_555
O1 C11 1_555 1_555
C5 C6 1_555 1_555
C12 C13 1_555 1_555
C18 C19 1_555 1_555
C19 N1 1_555 1_555

#END
