
#######################################################################
#
#                 Cambridge Crystallographic Data Centre
#                                CCDC 
#
#######################################################################
#
# If this CIF has been generated from an entry in the Cambridge 
# Structural Database, then it will include bibliographic, chemical, 
# crystal, experimental, refinement or atomic coordinate data resulting 
# from the CCDC's data processing and validation procedures.
#
#######################################################################

data_GELLAN
_chemical_formula_moiety         'C19 H16 Br1 N1 O1'
_chemical_name_systematic        
(6R,6aR,10aS)-1-bromo-6-phenyl-6,6a,10,10a-tetrahydrophenanthridin-9(5H)-one
_symmetry_cell_setting           orthorhombic
_symmetry_space_group_name_H-M   'P 21 21 21'
_symmetry_Int_Tables_number      19
_space_group_name_Hall           'P 2ac 2ab'
loop_
_symmetry_equiv_pos_site_id
_symmetry_equiv_pos_as_xyz
1 x,y,z
2 1/2-x,-y,1/2+z
3 1/2+x,1/2-y,-z
4 -x,1/2+y,1/2-z
_cell_length_a                   8.5965(14)
_cell_length_b                   8.908(3)
_cell_length_c                   20.905(4)
_cell_angle_alpha                90
_cell_angle_beta                 90
_cell_angle_gamma                90
_cell_volume                     1600.86
_exptl_crystal_colour            yellow
_exptl_crystal_description       block
_chemical_melting_point          '187.3-188.6 deg.C'
_cell_formula_units_Z            4
loop_
_atom_site_label
_atom_site_type_symbol
_atom_site_fract_x
_atom_site_fract_y
_atom_site_fract_z
Br1 Br 0.16218(4) 0.58423(5) 1.42271(2)
O1 O -0.0972(2) 0.7969(3) 1.23436(12)
N1 N 0.5862(3) 0.6739(3) 1.24328(11)
H1 H 0.6841 0.6628 1.2317
C1 C 0.5475(3) 0.6703(3) 1.30724(13)
C2 C 0.6638(4) 0.6906(3) 1.35334(13)
H2 H 0.7661 0.7068 1.3405
C3 C 0.6281(4) 0.6868(3) 1.41736(15)
H3 H 0.7057 0.7043 1.4474
C4 C 0.4780(4) 0.6572(4) 1.43759(14)
H4 H 0.4539 0.6532 1.4809
C5 C 0.3654(4) 0.6340(3) 1.39200(14)
C6 C 0.3921(3) 0.6430(3) 1.32632(13)
C7 C 0.2649(3) 0.6258(3) 1.27718(13)
H5 H 0.1990 0.5415 1.2903
C8 C 0.1617(3) 0.7665(3) 1.27312(13)
H6 H 0.1172 0.7872 1.3148
H7 H 0.2247 0.8521 1.2608
C9 C 0.0331(3) 0.7450(3) 1.22522(14)
C10 C 0.0717(3) 0.6613(4) 1.16706(15)
H8 H -0.0009 0.6557 1.1342
C11 C 0.2082(3) 0.5932(4) 1.16026(13)
H9 H 0.2284 0.5451 1.1217
C12 C 0.3317(3) 0.5890(3) 1.21068(11)
H10 H 0.3732 0.4866 1.2122
C13 C 0.4676(3) 0.6956(3) 1.19470(12)
H11 H 0.4301 0.7993 1.1971
C14 C 0.5349(3) 0.6691(3) 1.12907(13)
C15 C 0.5028(4) 0.7688(4) 1.08040(16)
H12 H 0.4432 0.8536 1.0888
C16 C 0.5582(5) 0.7441(5) 1.01925(16)
H13 H 0.5347 0.8116 0.9867
C17 C 0.6474(4) 0.6206(4) 1.00636(14)
H14 H 0.6840 0.6040 0.9651
C18 C 0.6828(4) 0.5214(4) 1.05435(16)
H15 H 0.7450 0.4383 1.0459
C19 C 0.6253(4) 0.5455(3) 1.11563(15)
H16 H 0.6482 0.4773 1.1480
loop_
_geom_bond_atom_site_label_1
_geom_bond_atom_site_label_2
_geom_bond_site_symmetry_1
_geom_bond_site_symmetry_2
Br1 C5 1_555 1_555
O1 C9 1_555 1_555
N1 H1 1_555 1_555
C1 N1 1_555 1_555
C2 C1 1_555 1_555
H2 C2 1_555 1_555
C3 C2 1_555 1_555
H3 C3 1_555 1_555
C4 C3 1_555 1_555
H4 C4 1_555 1_555
C5 C4 1_555 1_555
C6 C1 1_555 1_555
C7 C6 1_555 1_555
H5 C7 1_555 1_555
C8 C7 1_555 1_555
H6 C8 1_555 1_555
H7 C8 1_555 1_555
C9 C8 1_555 1_555
C10 C9 1_555 1_555
H8 C10 1_555 1_555
C11 C10 1_555 1_555
H9 C11 1_555 1_555
C12 C7 1_555 1_555
H10 C12 1_555 1_555
C13 N1 1_555 1_555
H11 C13 1_555 1_555
C14 C13 1_555 1_555
C15 C14 1_555 1_555
H12 C15 1_555 1_555
C16 C15 1_555 1_555
H13 C16 1_555 1_555
C17 C16 1_555 1_555
H14 C17 1_555 1_555
C18 C17 1_555 1_555
H15 C18 1_555 1_555
C19 C14 1_555 1_555
H16 C19 1_555 1_555
C5 C6 1_555 1_555
C11 C12 1_555 1_555
C12 C13 1_555 1_555
C18 C19 1_555 1_555

#END
