
#######################################################################
#
#                 Cambridge Crystallographic Data Centre
#                                CCDC 
#
#######################################################################
#
# If this CIF has been generated from an entry in the Cambridge 
# Structural Database, then it will include bibliographic, chemical, 
# crystal, experimental, refinement or atomic coordinate data resulting 
# from the CCDC's data processing and validation procedures.
#
#######################################################################

data_GELLER
_chemical_formula_moiety         'C19 H16 Cl1 N1 O1'
_chemical_name_systematic        
(6R,6aR,10aR)-2-chloro-6-phenyl-6,6a,10,10a-tetrahydrophenanthridin-9(5H)-one
_symmetry_cell_setting           orthorhombic
_symmetry_space_group_name_H-M   'P 21 21 21'
_symmetry_Int_Tables_number      19
_space_group_name_Hall           'P 2ac 2ab'
loop_
_symmetry_equiv_pos_site_id
_symmetry_equiv_pos_as_xyz
1 x,y,z
2 1/2-x,-y,1/2+z
3 1/2+x,1/2-y,-z
4 -x,1/2+y,1/2-z
_cell_length_a                   9.929(2)
_cell_length_b                   17.448(3)
_cell_length_c                   17.626(4)
_cell_angle_alpha                90
_cell_angle_beta                 90
_cell_angle_gamma                90
_cell_volume                     3053.55
_exptl_crystal_colour            yellow
_exptl_crystal_description       block
_chemical_melting_point          '187.3-188.1 deg.C'
_cell_formula_units_Z            8
loop_
_atom_site_label
_atom_site_type_symbol
_atom_site_fract_x
_atom_site_fract_y
_atom_site_fract_z
N1 N 0.2108(3) 0.03717(13) -0.11435(12)
H1 H 0.1999 0.0399 -0.0660
O1 O 0.3088(3) -0.07743(12) -0.45105(11)
Cl1 Cl -0.13318(7) 0.23353(4) -0.30629(4)
C1 C 0.1350(3) 0.08459(14) -0.15994(14)
C2 C 0.0529(3) 0.14039(15) -0.12732(16)
H2 H 0.0520 0.1460 -0.0749
C3 C -0.0273(3) 0.18754(15) -0.17135(16)
H3 H -0.0809 0.2249 -0.1489
C4 C 0.0557(3) 0.12394(14) -0.28323(16)
H4 H 0.0556 0.1189 -0.3358
C5 C -0.0265(3) 0.17821(15) -0.24938(16)
C6 C 0.2343(3) 0.01939(14) -0.27434(14)
H5 H 0.3218 0.0449 -0.2797
C7 C 0.1383(3) 0.07701(14) -0.23971(13)
C8 C 0.1941(3) -0.00933(15) -0.35292(14)
H6 H 0.1044 -0.0313 -0.3504
H7 H 0.1910 0.0337 -0.3877
C9 C 0.3082(3) -0.01715(14) -0.14396(14)
H8 H 0.3925 0.0103 -0.1540
C10 C 0.2542(3) -0.04810(13) -0.21945(13)
H9 H 0.1653 -0.0704 -0.2095
C11 C 0.3398(3) -0.10946(15) -0.25343(14)
H10 H 0.3839 -0.1431 -0.2209
C12 C 0.3564(3) -0.11845(15) -0.32784(14)
H11 H 0.4118 -0.1577 -0.3452
C13 C 0.2906(3) -0.06865(15) -0.38303(14)
C14 C 0.3362(3) -0.07918(14) -0.08547(14)
C15 C 0.4969(4) -0.14608(18) -0.00650(18)
H12 H 0.5844 -0.1520 0.0115
C16 C 0.4663(3) -0.08940(15) -0.05990(16)
H13 H 0.5347 -0.0581 -0.0785
C17 C 0.2643(4) -0.18315(18) -0.00632(17)
H14 H 0.1960 -0.2151 0.0111
C18 C 0.2351(3) -0.12562(17) -0.05768(16)
H15 H 0.1468 -0.1182 -0.0736
C19 C 0.3940(4) -0.19341(16) 0.01920(16)
H16 H 0.4129 -0.2322 0.0538
C20 C 0.4493(4) -0.36417(17) -0.10582(15)
H17 H 0.4484 -0.3578 -0.0534
N2 N 0.3187(3) -0.47908(13) -0.09098(12)
Cl2 Cl 0.61139(7) -0.25802(3) -0.28349(4)
C21 C 0.3826(3) -0.42660(14) -0.13786(14)
O2 O 0.1440(3) -0.56341(13) -0.42670(10)
C22 C 0.5169(3) -0.31156(17) -0.15052(16)
H18 H 0.5629 -0.2709 -0.1284
C23 C 0.5152(3) -0.32007(14) -0.22810(14)
C24 C 0.4446(3) -0.37941(14) -0.26149(14)
H19 H 0.4419 -0.3832 -0.3141
C25 C 0.3090(3) -0.50251(14) -0.25341(12)
H20 H 0.3800 -0.5395 -0.2658
C26 C 0.3776(3) -0.43353(13) -0.21782(13)
C27 C 0.2330(3) -0.48597(14) -0.32699(14)
H21 H 0.1641 -0.4478 -0.3173
H22 H 0.2951 -0.4650 -0.3641
C28 C 0.2146(2) -0.54182(13) -0.19671(13)
H23 H 0.1413 -0.5057 -0.1862
C29 C 0.1681(3) -0.55696(15) -0.35908(14)
C30 C 0.1319(3) -0.61820(15) -0.30580(14)
H24 H 0.0939 -0.6631 -0.3245
C31 C 0.1519(3) -0.61132(14) -0.23173(14)
H25 H 0.1259 -0.6514 -0.2002
C32 C 0.0214(3) -0.6229(2) 0.01659(17)
H26 H -0.0606 -0.6065 0.0362
C33 C 0.0909(3) -0.57711(17) -0.03429(14)
H27 H 0.0558 -0.5298 -0.0483
C34 C 0.2119(3) -0.60140(14) -0.06417(13)
C35 C 0.2891(3) -0.55478(14) -0.12183(13)
H28 H 0.3744 -0.5809 -0.1326
C36 C 0.2636(3) -0.67125(16) -0.04119(16)
H29 H 0.3457 -0.6878 -0.0605
C37 C 0.1951(4) -0.71694(17) 0.01014(17)
H30 H 0.2313 -0.7636 0.0254
C38 C 0.0739(4) -0.69303(19) 0.03834(17)
H31 H 0.0267 -0.7239 0.0721
loop_
_geom_bond_atom_site_label_1
_geom_bond_atom_site_label_2
_geom_bond_site_symmetry_1
_geom_bond_site_symmetry_2
N1 H1 1_555 1_555
O1 C13 1_555 1_555
Cl1 C5 1_555 1_555
C1 N1 1_555 1_555
C2 C1 1_555 1_555
H2 C2 1_555 1_555
C3 C2 1_555 1_555
H3 C3 1_555 1_555
C4 H4 1_555 1_555
C5 C3 1_555 1_555
C6 H5 1_555 1_555
C7 C1 1_555 1_555
C8 C6 1_555 1_555
H6 C8 1_555 1_555
H7 C8 1_555 1_555
C9 N1 1_555 1_555
H8 C9 1_555 1_555
C10 C6 1_555 1_555
H9 C10 1_555 1_555
C11 C10 1_555 1_555
H10 C11 1_555 1_555
C12 C11 1_555 1_555
H11 C12 1_555 1_555
C13 C8 1_555 1_555
C14 C9 1_555 1_555
C15 H12 1_555 1_555
C16 C14 1_555 1_555
H13 C16 1_555 1_555
C17 H14 1_555 1_555
C18 C14 1_555 1_555
H15 C18 1_555 1_555
C19 C15 1_555 1_555
H16 C19 1_555 1_555
C20 H17 1_555 1_555
N2 C21 1_555 1_555
Cl2 C23 1_555 1_555
C21 C20 1_555 1_555
O2 C29 1_555 1_555
C22 C20 1_555 1_555
H18 C22 1_555 1_555
C23 C22 1_555 1_555
C24 C23 1_555 1_555
H19 C24 1_555 1_555
C25 H20 1_555 1_555
C26 C21 1_555 1_555
C27 C25 1_555 1_555
H21 C27 1_555 1_555
H22 C27 1_555 1_555
C28 C25 1_555 1_555
H23 C28 1_555 1_555
C29 C27 1_555 1_555
C30 C29 1_555 1_555
H24 C30 1_555 1_555
C31 C28 1_555 1_555
H25 C31 1_555 1_555
C32 H26 1_555 1_555
C33 C32 1_555 1_555
H27 C33 1_555 1_555
C34 C33 1_555 1_555
C35 N2 1_555 1_555
H28 C35 1_555 1_555
C36 C34 1_555 1_555
H29 C36 1_555 1_555
C37 C36 1_555 1_555
H30 C37 1_555 1_555
C38 C32 1_555 1_555
H31 C38 1_555 1_555
C4 C5 1_555 1_555
C4 C7 1_555 1_555
C6 C7 1_555 1_555
C9 C10 1_555 1_555
C12 C13 1_555 1_555
C15 C16 1_555 1_555
C17 C18 1_555 1_555
C17 C19 1_555 1_555
C24 C26 1_555 1_555
C25 C26 1_555 1_555
C28 C35 1_555 1_555
C30 C31 1_555 1_555
C34 C35 1_555 1_555
C37 C38 1_555 1_555

#END
