
#######################################################################
#
#                 Cambridge Crystallographic Data Centre
#                                CCDC 
#
#######################################################################
#
# If this CIF has been generated from an entry in the Cambridge 
# Structural Database, then it will include bibliographic, chemical, 
# crystal, experimental, refinement or atomic coordinate data resulting 
# from the CCDC's data processing and validation procedures.
#
#######################################################################

data_GELSEW
_chemical_formula_moiety         'C14 H13 O4 P1'
_chemical_name_systematic        
(3aR,4aR,7aR,7bR)-4-Phenylperhydrofuro(2',3':4,5)phospholo(3,2-b)furan-2,6-dione
_symmetry_cell_setting           orthorhombic
_symmetry_space_group_name_H-M   'P 21 21 21'
_symmetry_Int_Tables_number      19
_space_group_name_Hall           'P 2ac 2ab'
loop_
_symmetry_equiv_pos_site_id
_symmetry_equiv_pos_as_xyz
1 x,y,z
2 1/2-x,-y,1/2+z
3 -x,1/2+y,1/2-z
4 1/2+x,1/2-y,-z
_cell_length_a                   11.014(2)
_cell_length_b                   11.543(2)
_cell_length_c                   19.755(4)
_cell_angle_alpha                90
_cell_angle_beta                 90
_cell_angle_gamma                90
_cell_volume                     2511.54
_exptl_crystal_colour            colorless
_exptl_crystal_description       prism
_chemical_melting_point          164deg.C
_cell_formula_units_Z            8
_exptl_crystal_recrystallization_method benzene
loop_
_atom_site_label
_atom_site_type_symbol
_atom_site_fract_x
_atom_site_fract_y
_atom_site_fract_z
P1 P -0.55203(3) -0.94910(3) -0.051834(16)
O1 O -0.29180(8) -0.95980(8) 0.05436(5)
O2 O -0.54277(9) -1.15927(8) 0.06588(4)
O3 O -0.17823(11) -0.80900(11) 0.02571(6)
O4 O -0.69585(10) -1.27419(9) 0.03581(5)
C1 C -0.49154(13) -0.89149(12) 0.02987(7)
C2 C -0.41873(11) -0.98778(12) 0.06528(7)
C3 C -0.43897(12) -1.10497(11) 0.03315(6)
C4 C -0.47567(11) -1.09391(11) -0.04118(6)
C5 C -0.55651(13) -1.19999(11) -0.05015(7)
H1 H -0.6209 -1.1854 -0.0841
H2 H -0.5084 -1.2682 -0.0644
C6 C -0.60976(13) -1.21760(12) 0.01912(7)
C7 C -0.39829(15) -0.79458(13) 0.02020(8)
H3 H -0.4026 -0.7631 -0.0264
H4 H -0.4130 -0.7308 0.0527
C8 C -0.27728(13) -0.84929(12) 0.03280(7)
C9 C -0.71139(12) -0.98348(11) -0.03186(7)
C10 C -0.78249(14) -1.01771(14) -0.08690(8)
H5 H -0.7463 -1.0251 -0.1304
C11 C -0.90536(15) -1.04114(16) -0.07890(10)
H6 H -0.9524 -1.0659 -0.1165
C12 C -0.95894(15) -1.02846(14) -0.01629(11)
H7 H -1.0436 -1.0415 -0.0110
C13 C -0.88931(15) -0.99685(14) 0.03843(10)
H8 H -0.9261 -0.9900 0.0818
C14 C -0.76601(13) -0.97481(13) 0.03132(8)
H9 H -0.7190 -0.9538 0.0697
H19 H -0.5594(17) -0.8678(15) 0.0589(9)
H20 H -0.4337(15) -0.9909(13) 0.1139(8)
H21 H -0.3691(14) -1.1563(14) 0.0424(8)
H22 H -0.4041(17) -1.0949(16) -0.0704(9)
P2 P -0.69040(3) -1.32207(3) 0.292031(16)
O5 O -0.93854(9) -1.26375(9) 0.19357(5)
O6 O -0.72301(10) -1.03747(9) 0.19214(6)
O7 O -1.05913(11) -1.41438(10) 0.21274(7)
O8 O -0.59090(13) -0.91183(11) 0.23479(9)
C15 C -0.83988(12) -1.24561(12) 0.29900(7)
C16 C -0.86393(12) -1.18358(13) 0.23185(7)
C17 C -0.74697(13) -1.16108(12) 0.19256(7)
C18 C -0.63712(13) -1.21827(12) 0.22752(7)
C19 C -0.57035(15) -1.11634(14) 0.25977(9)
H10 H -0.5819 -1.1164 0.3095
H11 H -0.4823 -1.1206 0.2499
C20 C -0.62414(15) -1.01020(14) 0.22930(9)
C21 C -0.95005(13) -1.32388(14) 0.30662(7)
H12 H -0.9279 -1.3979 0.3287
H13 H -1.0145 -1.2856 0.3334
C22 C -0.99055(13) -1.34341(13) 0.23450(8)
C23 C -0.72472(11) -1.45350(12) 0.24329(7)
C24 C -0.70993(13) -1.46431(13) 0.17347(7)
H14 H -0.6928 -1.3976 0.1470
C25 C -0.72003(15) -1.57169(16) 0.14238(9)
H15 H -0.7086 -1.5781 0.0949
C26 C -0.74649(15) -1.66873(15) 0.17979(10)
H16 H -0.7522 -1.7420 0.1582
C27 C -0.76483(14) -1.65993(14) 0.24899(10)
H17 H -0.7849 -1.7267 0.2748
C28 C -0.75362(13) -1.55290(13) 0.28035(8)
H18 H -0.7658 -1.5471 0.3278
H23 H -0.8309(17) -1.1922(17) 0.3351(9)
H24 H -0.9044(14) -1.1143(15) 0.2364(8)
H25 H -0.7584(14) -1.1874(16) 0.1446(9)
H26 H -0.5898(19) -1.2572(17) 0.1967(10)
loop_
_geom_bond_atom_site_label_1
_geom_bond_atom_site_label_2
_geom_bond_site_symmetry_1
_geom_bond_site_symmetry_2
P1 C1 1_555 1_555
P2 C15 1_555 1_555
O1 C2 1_555 1_555
O2 C3 1_555 1_555
O3 C8 1_555 1_555
O4 C6 1_555 1_555
O5 C16 1_555 1_555
O6 C17 1_555 1_555
O7 C22 1_555 1_555
O8 C20 1_555 1_555
C1 C2 1_555 1_555
C2 C3 1_555 1_555
C3 C4 1_555 1_555
C4 P1 1_555 1_555
C5 C4 1_555 1_555
H1 C5 1_555 1_555
H2 C5 1_555 1_555
C6 O2 1_555 1_555
C7 C1 1_555 1_555
H3 C7 1_555 1_555
H4 C7 1_555 1_555
C8 O1 1_555 1_555
C9 P1 1_555 1_555
C10 C9 1_555 1_555
H5 C10 1_555 1_555
C11 C10 1_555 1_555
H6 C11 1_555 1_555
C12 C11 1_555 1_555
H7 C12 1_555 1_555
C13 C12 1_555 1_555
H8 C13 1_555 1_555
C14 C9 1_555 1_555
H9 C14 1_555 1_555
C15 C16 1_555 1_555
C16 C17 1_555 1_555
C17 C18 1_555 1_555
C18 P2 1_555 1_555
C19 C18 1_555 1_555
H10 C19 1_555 1_555
H11 C19 1_555 1_555
C20 O6 1_555 1_555
C21 C15 1_555 1_555
H12 C21 1_555 1_555
H13 C21 1_555 1_555
C22 O5 1_555 1_555
C23 P2 1_555 1_555
C24 C23 1_555 1_555
H14 C24 1_555 1_555
C25 C24 1_555 1_555
H15 C25 1_555 1_555
C26 C25 1_555 1_555
H16 C26 1_555 1_555
C27 C26 1_555 1_555
H17 C27 1_555 1_555
C28 C23 1_555 1_555
H18 C28 1_555 1_555
H19 C1 1_555 1_555
H20 C2 1_555 1_555
H21 C3 1_555 1_555
H22 C4 1_555 1_555
H23 C15 1_555 1_555
H24 C16 1_555 1_555
H25 C17 1_555 1_555
H26 C18 1_555 1_555
C5 C6 1_555 1_555
C7 C8 1_555 1_555
C13 C14 1_555 1_555
C19 C20 1_555 1_555
C21 C22 1_555 1_555
C27 C28 1_555 1_555

#END
