
#######################################################################
#
#                 Cambridge Crystallographic Data Centre
#                                CCDC 
#
#######################################################################
#
# If this CIF has been generated from an entry in the Cambridge 
# Structural Database, then it will include bibliographic, chemical, 
# crystal, experimental, refinement or atomic coordinate data resulting 
# from the CCDC's data processing and validation procedures.
#
#######################################################################

data_GELXON
_chemical_formula_moiety         'C20 H28 O4'
_chemical_name_systematic        
'3,4a,5-trimethyl-2-oxo-2,4,4a,5,6,7,8,8a,9,9a-decahydronaphtho[2,3-b]furan-4-yl 2-methylbut-2-enoate'
_symmetry_cell_setting           orthorhombic
_symmetry_space_group_name_H-M   'P 21 21 21'
_symmetry_Int_Tables_number      19
_space_group_name_Hall           'P 2ac 2ab'
loop_
_symmetry_equiv_pos_site_id
_symmetry_equiv_pos_as_xyz
1 x,y,z
2 1/2-x,-y,1/2+z
3 1/2+x,1/2-y,-z
4 -x,1/2+y,1/2-z
_cell_length_a                   7.38321(14)
_cell_length_b                   14.3927(3)
_cell_length_c                   17.0937(4)
_cell_angle_alpha                90
_cell_angle_beta                 90
_cell_angle_gamma                90
_cell_volume                     1816.45
_exptl_crystal_colour            colorless
_exptl_crystal_description       block
_cell_formula_units_Z            4
loop_
_atom_site_label
_atom_site_type_symbol
_atom_site_fract_x
_atom_site_fract_y
_atom_site_fract_z
O1 O 0.3348(2) 0.32937(10) 0.34474(8)
O2 O 0.1863(3) 0.31437(12) 0.45823(8)
O3 O 0.02851(15) 0.35414(8) 0.13807(7)
C1 C 0.4366(3) 0.14123(13) 0.10602(11)
H1 H 0.4011 0.1334 0.0518
H2 H 0.5635 0.1587 0.1070
C2 C -0.1150(2) 0.40962(11) 0.13000(10)
C3 C 0.4125(3) 0.04946(13) 0.14909(13)
H3 H 0.4768 0.0009 0.1213
H4 H 0.4646 0.0545 0.2010
C4 C -0.0656(3) 0.49305(11) 0.08307(10)
C5 C 0.2144(3) 0.02320(12) 0.15596(12)
H5 H 0.2043 -0.0317 0.1886
H6 H 0.1691 0.0072 0.1044
C6 C -0.1878(3) 0.55646(13) 0.06459(12)
H7 H -0.1455 0.6064 0.0354
C7 C 0.0950(2) 0.10010(10) 0.19046(9)
H8 H 0.1375 0.1113 0.2440
C8 C -0.3817(4) 0.55860(19) 0.08402(15)
H9 H -0.4474 0.5209 0.0474
H10 H -0.4249 0.6214 0.0814
H11 H -0.3993 0.5348 0.1359
C9 C 0.1189(2) 0.19284(10) 0.14455(8)
C10 C 0.1312(3) 0.50222(14) 0.05812(13)
H12 H 0.2068 0.5063 0.1037
H13 H 0.1457 0.5573 0.0271
H14 H 0.1654 0.4488 0.0279
C11 C 0.0123(2) 0.27085(10) 0.18622(8)
H15 H -0.1151 0.2533 0.1927
C12 C 0.0948(2) 0.29401(9) 0.26279(9)
C13 C 0.2902(2) 0.31943(11) 0.26296(10)
H16 H 0.3073 0.3789 0.2360
C14 C 0.4010(2) 0.24486(12) 0.22309(11)
H17 H 0.4038 0.1899 0.2559
H18 H 0.5245 0.2666 0.2168
C15 C 0.3237(2) 0.21908(11) 0.14271(10)
H19 H 0.3360 0.2738 0.1090
C16 C 0.0313(3) 0.28829(11) 0.33567(9)
C17 C 0.1840(3) 0.31137(12) 0.38832(11)
C18 C -0.1495(3) 0.26340(15) 0.36667(12)
H20 H -0.2410 0.2824 0.3301
H21 H -0.1686 0.2943 0.4157
H22 H -0.1560 0.1974 0.3742
C19 C 0.0442(3) 0.18448(14) 0.06088(10)
H23 H 0.0862 0.2359 0.0301
H24 H -0.0858 0.1849 0.0624
H25 H 0.0855 0.1274 0.0379
C20 C -0.0996(3) 0.06644(13) 0.19631(14)
H26 H -0.1733 0.1144 0.2190
H27 H -0.1044 0.0120 0.2286
H28 H -0.1440 0.0517 0.1450
O4 O -0.2662(11) 0.3838(5) 0.1439(4)
O5? O -0.2455(12) 0.3976(7) 0.1731(4)
loop_
_geom_bond_atom_site_label_1
_geom_bond_atom_site_label_2
_geom_bond_site_symmetry_1
_geom_bond_site_symmetry_2
O1 C13 1_555 1_555
O2 C17 1_555 1_555
O3 C2 1_555 1_555
C1 H1 1_555 1_555
H2 C1 1_555 1_555
C2 C4 1_555 1_555
C3 C1 1_555 1_555
H3 C3 1_555 1_555
H4 C3 1_555 1_555
C4 C6 1_555 1_555
C5 C3 1_555 1_555
H5 C5 1_555 1_555
H6 C5 1_555 1_555
C6 H7 1_555 1_555
C7 C5 1_555 1_555
H8 C7 1_555 1_555
C8 C6 1_555 1_555
H9 C8 1_555 1_555
H10 C8 1_555 1_555
H11 C8 1_555 1_555
C9 C7 1_555 1_555
C10 C4 1_555 1_555
H12 C10 1_555 1_555
H13 C10 1_555 1_555
H14 C10 1_555 1_555
C11 O3 1_555 1_555
H15 C11 1_555 1_555
C12 C11 1_555 1_555
C13 C12 1_555 1_555
H16 C13 1_555 1_555
C14 C13 1_555 1_555
H17 C14 1_555 1_555
H18 C14 1_555 1_555
C15 C1 1_555 1_555
H19 C15 1_555 1_555
C16 C12 1_555 1_555
C17 O1 1_555 1_555
C18 C16 1_555 1_555
H20 C18 1_555 1_555
H21 C18 1_555 1_555
H22 C18 1_555 1_555
C19 C9 1_555 1_555
H23 C19 1_555 1_555
H24 C19 1_555 1_555
H25 C19 1_555 1_555
C20 C7 1_555 1_555
H26 C20 1_555 1_555
H27 C20 1_555 1_555
H28 C20 1_555 1_555
O4 C2 1_555 1_555
C9 C11 1_555 1_555
C9 C15 1_555 1_555
C14 C15 1_555 1_555
C16 C17 1_555 1_555

#END
