
#######################################################################
#
#                 Cambridge Crystallographic Data Centre
#                                CCDC 
#
#######################################################################
#
# If this CIF has been generated from an entry in the Cambridge 
# Structural Database, then it will include bibliographic, chemical, 
# crystal, experimental, refinement or atomic coordinate data resulting 
# from the CCDC's data processing and validation procedures.
#
#######################################################################

data_GEMCIN
_chemical_compound_source        
'fermentation of a mutant strain of the deep-sea actinomycete Streptomyces olivaceus SCSIO T05'
_chemical_name_common            'olimycin A methanol solvate'
_chemical_formula_moiety         'C31 H35 N1 O7,1.5(C1 H4 O1)'
_chemical_name_systematic        
'(4R,6S,10R)-12-ethyl-16-hydroxy-5a,17-dimethyl-8-(2-methylpropyl)-2,5a,9,12,13,14-hexahydro-3H-1,19-methano[5]benzoxacyclopentadecino[2,3-c]azepine-3,6,15,20,21(8H)-pentone methanol solvate'
_symmetry_cell_setting           monoclinic
_symmetry_space_group_name_H-M   'P 21'
_symmetry_Int_Tables_number      4
_space_group_name_Hall           'P 2yb'
loop_
_symmetry_equiv_pos_site_id
_symmetry_equiv_pos_as_xyz
1 x,y,z
2 -x,1/2+y,-z
_cell_length_a                   12.2692(2)
_cell_length_b                   12.0836(2)
_cell_length_c                   20.1332(4)
_cell_angle_alpha                90
_cell_angle_beta                 94.015(2)
_cell_angle_gamma                90
_cell_volume                     2977.54
_exptl_crystal_description       plate
_cell_formula_units_Z            4
loop_
_atom_site_label
_atom_site_type_symbol
_atom_site_fract_x
_atom_site_fract_y
_atom_site_fract_z
O1 O 0.4731(2) 0.6069(2) 0.63800(15)
O2 O 0.6652(3) 0.4644(2) 0.61777(16)
O3 O 0.9023(3) 0.4029(3) 0.59281(17)
O4 O 1.0279(3) 0.3766(3) 0.73152(17)
H1 H 1.072139 0.336567 0.754377
O5 O 0.2255(3) 0.3059(3) 0.77696(17)
O6 O 0.4564(3) 0.5501(3) 0.53131(16)
O7 O 0.5698(3) 0.2876(3) 0.84656(17)
N1 N 0.4045(3) 0.3244(3) 0.76544(19)
H2 H 0.411342 0.298129 0.806288
C1 C 0.4645(3) 0.5312(3) 0.5904(2)
C2 C 0.5041(3) 0.3476(3) 0.7394(2)
C3 C 0.7086(4) 0.3237(3) 0.7747(2)
C4 C 0.5277(3) 0.3897(3) 0.6799(2)
C5 C 0.5947(3) 0.3167(3) 0.7916(2)
C6 C 0.8763(4) 0.4528(4) 0.6413(2)
C7 C 0.6431(4) 0.4138(3) 0.6675(2)
C8 C 0.9248(4) 0.3542(3) 0.7475(2)
C9 C 0.2978(4) 0.3339(3) 0.7407(2)
C10 C 0.9024(4) 0.2990(3) 0.8070(2)
C11 C 0.8417(4) 0.3921(3) 0.7018(2)
C12 C 0.4667(4) 0.7256(3) 0.6174(2)
H3 H 0.464954 0.730951 0.567799
C13 C 0.7571(4) 0.8024(4) 0.6107(2)
H4 H 0.750137 0.879394 0.619081
C14 C 0.8800(4) 0.6397(4) 0.5825(2)
H5 H 0.819243 0.608683 0.553279
H6 H 0.948570 0.624994 0.560806
C15 C 0.7939(3) 0.2854(3) 0.8191(2)
H7 H 0.776305 0.248831 0.858765
C16 C 0.7338(4) 0.3750(3) 0.7155(2)
C17 C 0.3293(4) 0.4083(3) 0.6259(2)
H8 H 0.287491 0.434374 0.587569
C18 C 0.8850(4) 0.8165(4) 0.5183(2)
H9 H 0.957259 0.791431 0.505224
H10 H 0.829181 0.787806 0.484693
C19 C 0.2680(4) 0.3764(4) 0.6740(2)
H11 H 0.191527 0.382290 0.663346
C20 C 0.8644(4) 0.7652(4) 0.5864(2)
H12 H 0.923029 0.793796 0.618931
C21 C 0.3631(4) 0.7726(4) 0.6413(3)
H13 H 0.361376 0.852834 0.631256
H14 H 0.365926 0.764701 0.690349
C22 C 0.8849(4) 0.5775(4) 0.6486(2)
H15 H 0.954612 0.595626 0.673993
H16 H 0.824693 0.603856 0.674793
C23 C 0.4742(4) 0.3274(4) 0.5636(2)
H17 H 0.422266 0.338490 0.524962
H18 H 0.466332 0.252246 0.580891
H19 H 0.548851 0.337796 0.550274
C24 C 0.5685(4) 0.7824(4) 0.6481(2)
H20 H 0.562582 0.862909 0.639513
H21 H 0.572448 0.771318 0.696956
C25 C 0.4509(3) 0.4123(3) 0.6184(2)
C26 C 0.6717(4) 0.7406(4) 0.6217(2)
H22 H 0.676011 0.663756 0.612174
C27 C 0.8820(4) 0.9431(4) 0.5163(3)
H23 H 0.902803 0.968868 0.472784
H24 H 0.933411 0.972700 0.551335
H25 H 0.808047 0.968840 0.523514
C28 C 0.2554(4) 0.7214(4) 0.6122(3)
H26 H 0.256755 0.640711 0.623340
C29 C 0.9934(4) 0.2621(4) 0.8554(3)
H27 H 1.037363 0.205987 0.834477
H28 H 0.962770 0.230427 0.894908
H29 H 1.039580 0.325627 0.868635
C30 C 0.2393(5) 0.7320(5) 0.5373(3)
H30 H 0.242359 0.810213 0.524767
H31 H 0.168049 0.701242 0.521923
H32 H 0.297212 0.691271 0.516608
C31 C 0.1608(5) 0.7738(5) 0.6460(4)
H33 H 0.174898 0.769017 0.694419
H34 H 0.092967 0.734425 0.632558
H35 H 0.153706 0.851639 0.632743
O8 O 0.6380(2) 1.1308(3) 0.64327(15)
O9 O 0.7849(2) 0.9213(2) 0.86323(15)
O10 O 0.5807(3) 0.7791(2) 0.83498(15)
O11 O 0.3092(2) 1.0802(3) 0.70447(16)
O12 O 0.6008(3) 0.8234(3) 0.94419(15)
O13 O 1.0298(3) 0.9831(3) 0.88728(16)
O14 O 1.1209(2) 1.0155(3) 0.75235(17)
H36 H 1.160182 1.054437 0.729061
N2 N 0.4906(3) 1.0688(3) 0.71883(18)
H37 H 0.488304 1.100711 0.679458
C32 C 0.7514(3) 0.9733(3) 0.8136(2)
C33 C 0.6749(3) 1.0852(3) 0.6940(2)
C34 C 0.7927(3) 1.0697(3) 0.7089(2)
C35 C 0.8671(3) 1.1119(3) 0.6659(2)
H38 H 0.840447 1.151164 0.627274
C36 C 0.3887(3) 1.0532(3) 0.7417(2)
C37 C 0.6332(3) 0.9984(3) 0.8028(2)
C38 C 0.9792(4) 1.0978(3) 0.6784(2)
C39 C 0.5964(3) 1.0453(3) 0.7442(2)
C40 C 0.8293(3) 1.0126(3) 0.7659(2)
C41 C 1.0150(3) 1.0367(3) 0.7354(2)
C42 C 0.5898(3) 0.8491(3) 0.8864(2)
C43 C 0.9413(3) 0.9944(3) 0.7794(2)
C44 C 0.5813(4) 0.6589(3) 0.8501(2)
H39 H 0.586891 0.646837 0.899397
C45 C 0.9964(4) 0.8087(4) 0.8336(2)
H40 H 1.062882 0.789324 0.810925
H41 H 0.932479 0.782881 0.805068
C46 C 0.5685(3) 0.9695(3) 0.8628(2)
C47 C 0.9904(3) 0.9329(4) 0.8398(2)
C48 C 0.3727(4) 1.0070(4) 0.8072(2)
H42 H 0.298540 0.999619 0.817214
C49 C 1.0584(4) 1.1444(4) 0.6319(2)
H43 H 1.089210 1.083999 0.606705
H44 H 1.117350 1.183103 0.657782
H45 H 1.020204 1.196401 0.601035
C50 C 0.4458(4) 0.9734(4) 0.8553(2)
H46 H 0.412806 0.945850 0.893298
C51 C 0.4753(4) 0.6105(4) 0.8194(3)
H47 H 0.472737 0.531374 0.831945
H48 H 0.477446 0.613749 0.770350
C52 C 0.3689(4) 0.6650(4) 0.8380(3)
H49 H 0.368810 0.743341 0.822034
C53 C 0.9990(4) 0.7472(4) 0.8997(3)
H50 H 0.941084 0.777572 0.926366
H51 H 1.070117 0.761413 0.924600
C54 C 0.6015(4) 1.0484(3) 0.9212(2)
H52 H 0.679781 1.040378 0.933602
H53 H 0.559829 1.029740 0.959472
H54 H 0.585846 1.124919 0.907621
C55 C 0.7864(4) 0.6502(4) 0.8512(3)
H55 H 0.791365 0.725614 0.864428
C56 C 0.6794(4) 0.6106(4) 0.8196(3)
H56 H 0.676562 0.528994 0.823235
H57 H 0.675521 0.629634 0.771670
C57 C 0.9827(5) 0.6213(4) 0.8930(3)
H58 H 1.039080 0.592936 0.863723
C58 C 0.3586(5) 0.6662(5) 0.9124(3)
H59 H 0.364609 0.590515 0.929685
H60 H 0.287458 0.697168 0.921798
H61 H 0.416964 0.711830 0.933865
C59 C 0.8739(4) 0.5886(4) 0.8621(3)
H62 H 0.866764 0.513488 0.848423
C60 C 0.9992(5) 0.5607(5) 0.9600(3)
H63 H 0.954985 0.598099 0.992662
H64 H 0.971500 0.484129 0.954363
C61 C 0.2715(5) 0.6054(5) 0.8023(3)
H65 H 0.281256 0.602590 0.754405
H66 H 0.204116 0.645501 0.809900
H67 H 0.266844 0.529897 0.819653
C62 C 1.1156(5) 0.5564(6) 0.9878(4)
H68 H 1.120343 0.513295 1.029127
H69 H 1.142153 0.631714 0.997026
H70 H 1.160618 0.521305 0.955375
O15 O 0.5667(3) 0.5327(3) 0.41858(18)
H71 H 0.519188 0.527322 0.446462
C63 C 0.6696(5) 0.5510(5) 0.4521(3)
H72 H 0.727048 0.537110 0.421687
H73 H 0.679149 0.500752 0.490313
H74 H 0.674347 0.627744 0.467737
O16 O 0.7582(4) 0.4213(5) 1.0561(2)
H75 H 0.821170 0.448487 1.062079
C64 C 0.7332(6) 0.4032(7) 0.9868(3)
H76 H 0.772413 0.457326 0.961159
H77 H 0.654340 0.411676 0.976508
H78 H 0.755464 0.328275 0.975029
O17 O 0.3535(6) 0.2929(9) 0.9127(3)
H79 H 0.381301 0.325724 0.946590
C65 C 0.2673(6) 0.2157(7) 0.9326(4)
H80 H 0.224088 0.190021 0.892851
H81 H 0.219580 0.254175 0.962144
H82 H 0.301463 0.152161 0.956065
loop_
_geom_bond_atom_site_label_1
_geom_bond_atom_site_label_2
_geom_bond_site_symmetry_1
_geom_bond_site_symmetry_2
O1 C1 1_555 1_555
O2 C7 1_555 1_555
O3 C6 1_555 1_555
O4 H1 1_555 1_555
O5 C9 1_555 1_555
O6 C1 1_555 1_555
O7 C5 1_555 1_555
N1 H2 1_555 1_555
C1 C25 1_555 1_555
C2 N1 1_555 1_555
C3 C5 1_555 1_555
C4 C2 1_555 1_555
C5 C2 1_555 1_555
C6 C11 1_555 1_555
C7 C4 1_555 1_555
C8 O4 1_555 1_555
C9 N1 1_555 1_555
C10 C8 1_555 1_555
C11 C8 1_555 1_555
C12 O1 1_555 1_555
H3 C12 1_555 1_555
C13 H4 1_555 1_555
C14 H5 1_555 1_555
H6 C14 1_555 1_555
C15 C3 1_555 1_555
H7 C15 1_555 1_555
C16 C3 1_555 1_555
C17 H8 1_555 1_555
C18 H9 1_555 1_555
H10 C18 1_555 1_555
C19 C9 1_555 1_555
H11 C19 1_555 1_555
C20 C13 1_555 1_555
H12 C20 1_555 1_555
C21 C12 1_555 1_555
H13 C21 1_555 1_555
H14 C21 1_555 1_555
C22 C6 1_555 1_555
H15 C22 1_555 1_555
H16 C22 1_555 1_555
C23 H17 1_555 1_555
H18 C23 1_555 1_555
H19 C23 1_555 1_555
C24 C12 1_555 1_555
H20 C24 1_555 1_555
H21 C24 1_555 1_555
C25 C4 1_555 1_555
C26 C13 1_555 1_555
H22 C26 1_555 1_555
C27 C18 1_555 1_555
H23 C27 1_555 1_555
H24 C27 1_555 1_555
H25 C27 1_555 1_555
C28 C21 1_555 1_555
H26 C28 1_555 1_555
C29 C10 1_555 1_555
H27 C29 1_555 1_555
H28 C29 1_555 1_555
H29 C29 1_555 1_555
C30 C28 1_555 1_555
H30 C30 1_555 1_555
H31 C30 1_555 1_555
H32 C30 1_555 1_555
C31 C28 1_555 1_555
H33 C31 1_555 1_555
H34 C31 1_555 1_555
H35 C31 1_555 1_555
O8 C33 1_555 1_555
O9 C32 1_555 1_555
O10 C42 1_555 1_555
O11 C36 1_555 1_555
O12 C42 1_555 1_555
O13 C47 1_555 1_555
O14 H36 1_555 1_555
N2 H37 1_555 1_555
C32 C37 1_555 1_555
C33 C34 1_555 1_555
C34 C35 1_555 1_555
C35 H38 1_555 1_555
C36 N2 1_555 1_555
C37 C39 1_555 1_555
C38 C35 1_555 1_555
C39 N2 1_555 1_555
C40 C32 1_555 1_555
C41 O14 1_555 1_555
C42 C46 1_555 1_555
C43 C40 1_555 1_555
C44 O10 1_555 1_555
H39 C44 1_555 1_555
C45 H40 1_555 1_555
H41 C45 1_555 1_555
C46 C37 1_555 1_555
C47 C43 1_555 1_555
C48 C36 1_555 1_555
H42 C48 1_555 1_555
C49 C38 1_555 1_555
H43 C49 1_555 1_555
H44 C49 1_555 1_555
H45 C49 1_555 1_555
C50 C46 1_555 1_555
H46 C50 1_555 1_555
C51 C44 1_555 1_555
H47 C51 1_555 1_555
H48 C51 1_555 1_555
C52 C51 1_555 1_555
H49 C52 1_555 1_555
C53 C45 1_555 1_555
H50 C53 1_555 1_555
H51 C53 1_555 1_555
C54 C46 1_555 1_555
H52 C54 1_555 1_555
H53 C54 1_555 1_555
H54 C54 1_555 1_555
C55 H55 1_555 1_555
C56 C44 1_555 1_555
H56 C56 1_555 1_555
H57 C56 1_555 1_555
C57 C53 1_555 1_555
H58 C57 1_555 1_555
C58 C52 1_555 1_555
H59 C58 1_555 1_555
H60 C58 1_555 1_555
H61 C58 1_555 1_555
C59 C55 1_555 1_555
H62 C59 1_555 1_555
C60 C57 1_555 1_555
H63 C60 1_555 1_555
H64 C60 1_555 1_555
C61 C52 1_555 1_555
H65 C61 1_555 1_555
H66 C61 1_555 1_555
H67 C61 1_555 1_555
C62 C60 1_555 1_555
H68 C62 1_555 1_555
H69 C62 1_555 1_555
H70 C62 1_555 1_555
O15 H71 1_555 1_555
C63 O15 1_555 1_555
H72 C63 1_555 1_555
H73 C63 1_555 1_555
H74 C63 1_555 1_555
O16 H75 1_555 1_555
C64 O16 1_555 1_555
H76 C64 1_555 1_555
H77 C64 1_555 1_555
H78 C64 1_555 1_555
O17 H79 1_555 1_555
C65 O17 1_555 1_555
H80 C65 1_555 1_555
H81 C65 1_555 1_555
H82 C65 1_555 1_555
C7 C16 1_555 1_555
C10 C15 1_555 1_555
C11 C16 1_555 1_555
C14 C20 1_555 1_555
C14 C22 1_555 1_555
C17 C19 1_555 1_555
C17 C25 1_555 1_555
C18 C20 1_555 1_555
C23 C25 1_555 1_555
C24 C26 1_555 1_555
C33 C39 1_555 1_555
C34 C40 1_555 1_555
C38 C41 1_555 1_555
C41 C43 1_555 1_555
C45 C47 1_555 1_555
C48 C50 1_555 1_555
C55 C56 1_555 1_555
C57 C59 1_555 1_555

#END
