
#######################################################################
#
#                 Cambridge Crystallographic Data Centre
#                                CCDC 
#
#######################################################################
#
# If this CIF has been generated from an entry in the Cambridge 
# Structural Database, then it will include bibliographic, chemical, 
# crystal, experimental, refinement or atomic coordinate data resulting 
# from the CCDC's data processing and validation procedures.
#
#######################################################################

data_GEMGAH
_chemical_formula_moiety         'C5 H18 B12,C10 H8'
_chemical_name_systematic        
'2,3-(Trimethylene)-2,3-dicarba-closo-tetradecaborane naphthalene solvate'
_symmetry_cell_setting           monoclinic
_symmetry_space_group_name_H-M   'P 21/c'
_symmetry_Int_Tables_number      14
_space_group_name_Hall           '-P 2ybc'
loop_
_symmetry_equiv_pos_site_id
_symmetry_equiv_pos_as_xyz
1 x,y,z
2 -x,1/2+y,1/2-z
3 -x,-y,-z
4 x,1/2-y,1/2+z
_cell_length_a                   7.836(4)
_cell_length_b                   16.662(8)
_cell_length_c                   15.795(8)
_cell_angle_alpha                90
_cell_angle_beta                 100.691(11)
_cell_angle_gamma                90
_cell_volume                     2026.45
_exptl_crystal_colour            colorless
_exptl_crystal_description       block
_cell_formula_units_Z            4
loop_
_atom_site_label
_atom_site_type_symbol
_atom_site_fract_x
_atom_site_fract_y
_atom_site_fract_z
B1 B 0.2243(5) 0.3269(2) 0.7975(2)
H1 H 0.337(4) 0.3625(18) 0.8131(18)
C1 C 0.2792(4) 0.22353(17) 0.84698(19)
C2 C 0.1789(4) 0.28160(17) 0.90268(17)
B2 B 0.0475(5) 0.3534(2) 0.8585(2)
H2 H 0.0499 0.4095 0.8954
B3 B 0.0029(5) 0.3621(2) 0.7469(3)
H3 H -0.0255 0.4230 0.7212
B4 B 0.1104(6) 0.2989(3) 0.6870(2)
H4 H 0.1419 0.3245 0.6275
B5 B 0.2585(6) 0.2302(2) 0.7409(2)
H5 H 0.3754 0.2190 0.7134
B6 B 0.1077(5) 0.1858(2) 0.8862(2)
H6 H 0.1131 0.1389 0.9357
B7 B -0.0362(5) 0.2627(2) 0.8909(3)
H7 H -0.1116 0.2581 0.9430
B8 B -0.1400(5) 0.3077(3) 0.7987(3)
H8 H -0.2731 0.3277 0.8003
B9 B -0.1010(6) 0.2758(3) 0.6992(3)
H9 H -0.2128 0.2775 0.6456
B10 B 0.0479(6) 0.1986(3) 0.6953(3)
H10 H 0.0196 0.1577 0.6398
B11 B 0.1496(6) 0.1546(2) 0.7889(3)
H11 H 0.1769 0.0901 0.7848
B12 B -0.0772(6) 0.1985(3) 0.7891(3)
H12 H -0.179(5) 0.156(2) 0.785(2)
C3 C 0.3034(5) 0.2980(2) 0.9861(2)
H13 H 0.3512 0.3516 0.9856
H14 H 0.2440 0.2936 1.0345
C4 C 0.4449(6) 0.2368(3) 0.9932(3)
H15 H 0.4190 0.1915 1.0273
H16 H 0.5544 0.2601 1.0211
C5 C 0.4568(4) 0.2095(2) 0.9028(3)
H17 H 0.4873 0.1531 0.9028
H18 H 0.5447 0.2401 0.8810
C6 C 0.5048(9) 0.0338(3) 0.1121(3)
H19 H 0.5825 0.0574 0.1569
C7 C 0.5525(4) 0.01860(18) 0.0338(2)
C8 C 0.7306(6) 0.0421(3) 0.0192(4)
H20 H 0.8101 0.0681 0.0612
C9 C 0.7698(6) 0.0222(3) -0.0623(4)
H21 H 0.8783 0.0347 -0.0745
C10 C 0.3488(8) 0.0146(3) 0.1218(4)
H22 H 0.3169 0.0272 0.1741
C6B C 0.4952(9) -0.0338(3) -0.1121(3)
H19B H 0.4175 -0.0574 -0.1569
C7B C 0.4475(4) -0.01860(18) -0.0338(2)
C8B C 0.2694(6) -0.0421(3) -0.0192(4)
H20B H 0.1899 -0.0681 -0.0612
C9B C 0.2302(6) -0.0222(3) 0.0623(4)
H21B H 0.1217 -0.0347 0.0745
C10B C 0.6512(8) -0.0146(3) -0.1218(4)
H22B H 0.6831 -0.0272 -0.1741
C11 C 0.4820(7) 0.4549(2) 0.1492(2)
H23 H 0.5006 0.4330 0.2043
C12 C 0.6073(5) 0.4478(2) 0.1003(2)
H24 H 0.7111 0.4218 0.1223
C13 C 0.5790(4) 0.48035(17) 0.0151(2)
C14 C 0.7019(5) 0.4743(2) -0.0394(3)
H25 H 0.8061 0.4476 -0.0200
C15 C 0.3285(7) 0.4939(3) 0.1183(3)
H26 H 0.2448 0.4982 0.1529
C11B C 0.5180(7) 0.5451(2) -0.1492(2)
H23B H 0.4994 0.5670 -0.2043
C12B C 0.3927(5) 0.5522(2) -0.1003(2)
H24B H 0.2889 0.5782 -0.1223
C13B C 0.4210(4) 0.51965(17) -0.0151(2)
C14B C 0.2981(5) 0.5257(2) 0.0394(3)
H25B H 0.1939 0.5524 0.0200
C15B C 0.6715(7) 0.5061(3) -0.1183(3)
H26B H 0.7552 0.5018 -0.1529
loop_
_geom_bond_atom_site_label_1
_geom_bond_atom_site_label_2
_geom_bond_site_symmetry_1
_geom_bond_site_symmetry_2
B1 H1 1_555 1_555
C1 B1 1_555 1_555
C2 B1 1_555 1_555
B2 B1 1_555 1_555
H2 B2 1_555 1_555
B3 B1 1_555 1_555
H3 B3 1_555 1_555
B4 B1 1_555 1_555
H4 B4 1_555 1_555
B5 B1 1_555 1_555
H5 B5 1_555 1_555
B6 C1 1_555 1_555
H6 B6 1_555 1_555
B7 C2 1_555 1_555
H7 B7 1_555 1_555
B8 B2 1_555 1_555
H8 B8 1_555 1_555
B9 B3 1_555 1_555
H9 B9 1_555 1_555
B10 B4 1_555 1_555
H10 B10 1_555 1_555
B11 C1 1_555 1_555
H11 B11 1_555 1_555
B12 B6 1_555 1_555
H12 B12 1_555 1_555
C3 C2 1_555 1_555
H13 C3 1_555 1_555
H14 C3 1_555 1_555
C4 C3 1_555 1_555
H15 C4 1_555 1_555
H16 C4 1_555 1_555
C5 C1 1_555 1_555
H17 C5 1_555 1_555
H18 C5 1_555 1_555
C6 H19 1_555 1_555
C7 C6 1_555 1_555
C8 C7 1_555 1_555
H20 C8 1_555 1_555
C9 C8 1_555 1_555
H21 C9 1_555 1_555
C10 C6 1_555 1_555
H22 C10 1_555 1_555
C11 H23 1_555 1_555
C12 C11 1_555 1_555
H24 C12 1_555 1_555
C13 C12 1_555 1_555
C14 C13 1_555 1_555
H25 C14 1_555 1_555
C15 C11 1_555 1_555
H26 C15 1_555 1_555
C6B H19B 1_555 1_555
C7B C7 1_555 1_555
C8B C7B 1_555 1_555
H20B C8B 1_555 1_555
C9B C10 1_555 1_555
H21B C9B 1_555 1_555
C10B C9 1_555 1_555
H22B C10B 1_555 1_555
C11B H23B 1_555 1_555
C12B C11B 1_555 1_555
H24B C12B 1_555 1_555
C13B C13 1_555 1_555
C14B C15 1_555 1_555
H25B C14B 1_555 1_555
C15B C14 1_555 1_555
H26B C15B 1_555 1_555
C1 C2 1_555 1_555
C1 B5 1_555 1_555
C2 B2 1_555 1_555
C2 B6 1_555 1_555
B2 B3 1_555 1_555
B2 B7 1_555 1_555
B3 B4 1_555 1_555
B3 B8 1_555 1_555
B4 B5 1_555 1_555
B4 B9 1_555 1_555
B5 B10 1_555 1_555
B5 B11 1_555 1_555
B6 B7 1_555 1_555
B6 B11 1_555 1_555
B7 B8 1_555 1_555
B7 B12 1_555 1_555
B8 B9 1_555 1_555
B8 B12 1_555 1_555
B9 B10 1_555 1_555
B9 B12 1_555 1_555
B10 B11 1_555 1_555
B10 B12 1_555 1_555
B11 B12 1_555 1_555
C4 C5 1_555 1_555
C6B C7B 1_555 1_555
C6B C10B 1_555 1_555
C8B C9B 1_555 1_555
C11B C15B 1_555 1_555
C12B C13B 1_555 1_555
C13B C14B 1_555 1_555

#END
