
#######################################################################
#
#                 Cambridge Crystallographic Data Centre
#                                CCDC 
#
#######################################################################
#
# If this CIF has been generated from an entry in the Cambridge 
# Structural Database, then it will include bibliographic, chemical, 
# crystal, experimental, refinement or atomic coordinate data resulting 
# from the CCDC's data processing and validation procedures.
#
#######################################################################

data_GEMMUJ
_chemical_formula_moiety         'C7 H10 F3 N1 O1'
_chemical_name_systematic        6-methyl-6-(trifluoromethyl)piperidin-2-one
_symmetry_cell_setting           orthorhombic
_symmetry_space_group_name_H-M   'P 21 21 21'
_symmetry_Int_Tables_number      19
_space_group_name_Hall           'P 2ac 2ab'
loop_
_symmetry_equiv_pos_site_id
_symmetry_equiv_pos_as_xyz
1 x,y,z
2 1/2-x,-y,1/2+z
3 -x,1/2+y,1/2-z
4 1/2+x,1/2-y,-z
_cell_length_a                   7.6153(2)
_cell_length_b                   10.1936(2)
_cell_length_c                   10.5261(2)
_cell_angle_alpha                90
_cell_angle_beta                 90
_cell_angle_gamma                90
_cell_volume                     817.113
_exptl_crystal_colour            colorless
_exptl_crystal_description       block
_cell_formula_units_Z            4
loop_
_atom_site_label
_atom_site_type_symbol
_atom_site_fract_x
_atom_site_fract_y
_atom_site_fract_z
F1 F 0.3996(6) 0.6486(3) 0.4880(3)
F2 F 0.6634(5) 0.5745(3) 0.4913(3)
F3 F 0.5880(5) 0.7225(2) 0.6222(3)
O1 O 0.2509(3) 0.2370(2) 0.5122(3)
N1 N 0.4305(3) 0.3920(2) 0.5865(2)
H1 H 0.514607 0.353313 0.546784
C1 C 0.2713(4) 0.3376(3) 0.5743(3)
C2 C 0.1192(4) 0.3998(4) 0.6422(4)
H2 H 0.019052 0.400633 0.585320
H3 H 0.088631 0.345151 0.714394
C3 C 0.1500(5) 0.5378(5) 0.6892(6)
H4 H 0.136251 0.598779 0.619155
H5 H 0.062830 0.559314 0.753118
C4 C 0.3279(5) 0.5525(4) 0.7443(4)
H6 H 0.333044 0.502428 0.822568
H7 H 0.345438 0.644073 0.766125
C5 C 0.4792(4) 0.5088(3) 0.6588(3)
C6 C 0.5331(6) 0.6128(3) 0.5651(4)
C7 C 0.6383(6) 0.4774(4) 0.7411(4)
H8 H 0.607714 0.410826 0.801649
H9 H 0.675094 0.555140 0.785128
H10 H 0.732317 0.446456 0.688230
loop_
_geom_bond_atom_site_label_1
_geom_bond_atom_site_label_2
_geom_bond_site_symmetry_1
_geom_bond_site_symmetry_2
F1 C6 1_555 1_555
F2 C6 1_555 1_555
F3 C6 1_555 1_555
O1 C1 1_555 1_555
N1 H1 1_555 1_555
C1 N1 1_555 1_555
C2 C1 1_555 1_555
H2 C2 1_555 1_555
H3 C2 1_555 1_555
C3 C2 1_555 1_555
H4 C3 1_555 1_555
H5 C3 1_555 1_555
C4 C3 1_555 1_555
H6 C4 1_555 1_555
H7 C4 1_555 1_555
C5 N1 1_555 1_555
C6 C5 1_555 1_555
C7 C5 1_555 1_555
H8 C7 1_555 1_555
H9 C7 1_555 1_555
H10 C7 1_555 1_555
C4 C5 1_555 1_555

#END
