
#######################################################################
#
#                 Cambridge Crystallographic Data Centre
#                                CCDC 
#
#######################################################################
#
# If this CIF has been generated from an entry in the Cambridge 
# Structural Database, then it will include bibliographic, chemical, 
# crystal, experimental, refinement or atomic coordinate data resulting 
# from the CCDC's data processing and validation procedures.
#
#######################################################################

data_GEMPEW
_chemical_compound_source        
'isolated from the seeds of Alpinia katsumadai Hayata'
_chemical_name_common            'Calyxin T'
_chemical_formula_moiety         'C35 H34 O5'
_chemical_name_systematic        
7-hydroxy-8-(5-hydroxy-1,7-diphenylhept-2-en-1-yl)-5-methoxy-2-phenyl-2,3-dihydro-4H-chromen-4-one
_chemical_properties_biological  
'growth inhibitory effects against SMMC-7721 cells'
_symmetry_cell_setting           orthorhombic
_symmetry_space_group_name_H-M   'P 21 21 21'
_symmetry_Int_Tables_number      19
_space_group_name_Hall           'P 2ac 2ab'
loop_
_symmetry_equiv_pos_site_id
_symmetry_equiv_pos_as_xyz
1 x,y,z
2 1/2-x,-y,1/2+z
3 1/2+x,1/2-y,-z
4 -x,1/2+y,1/2-z
_cell_length_a                   9.42100(10)
_cell_length_b                   13.9701(2)
_cell_length_c                   21.8493(3)
_cell_angle_alpha                90
_cell_angle_beta                 90
_cell_angle_gamma                90
_cell_volume                     2875.64
_cell_formula_units_Z            4
loop_
_atom_site_label
_atom_site_type_symbol
_atom_site_fract_x
_atom_site_fract_y
_atom_site_fract_z
O1 O 0.48894(11) 0.37728(7) 0.69032(5)
O2 O 0.05941(10) 0.53000(8) 0.87092(5)
H1 H 0.1017 0.5798 0.8632
O3 O 0.79312(11) 0.52271(8) 0.83082(5)
H2 H 0.8751 0.5200 0.8433
O4 O 0.96198(12) 0.25812(9) 0.71236(6)
O5 O 0.78806(14) 0.19214(8) 0.62643(6)
C1 C 0.63670(14) 0.44555(9) 0.76305(6)
C2 C 0.72936(16) 0.31567(10) 0.69763(6)
C3 C 0.00105(17) 0.43553(11) 0.95838(8)
H3 H 0.0418 0.3990 0.9918
H4 H -0.0433 0.3906 0.9305
C4 C -0.23381(16) 0.44741(10) 1.01310(7)
C5 C 0.61974(15) 0.37766(9) 0.71670(6)
C6 C 0.77200(15) 0.45349(10) 0.78828(6)
C7 C 0.45238(15) 0.57281(10) 0.73705(6)
C8 C 0.51487(14) 0.50776(9) 0.78641(6)
H5 H 0.5563 0.5504 0.8172
C9 C 0.40301(14) 0.45008(10) 0.81924(7)
H6 H 0.3629 0.3984 0.7987
C10 C 0.45016(17) 0.29822(10) 0.65171(7)
H7 H 0.4281 0.2429 0.6776
C11 C 0.88324(15) 0.39263(11) 0.77185(7)
H8 H 0.9718 0.3992 0.7902
C12 C 0.86115(15) 0.32270(10) 0.72825(7)
C13 C 0.23889(17) 0.41886(12) 0.90733(8)
H9 H 0.2750 0.3882 0.9440
H10 H 0.2012 0.3692 0.8809
C14 C 0.70642(17) 0.25375(10) 0.64487(7)
C15 C 0.57228(18) 0.27247(12) 0.61005(7)
H11 H 0.5475 0.2159 0.5867
H12 H 0.5882 0.3244 0.5814
C16 C 0.11939(16) 0.48690(11) 0.92495(7)
H13 H 0.1576 0.5374 0.9514
C17 C -0.11299(18) 0.50172(11) 0.98414(8)
H14 H -0.0706 0.5436 1.0145
H15 H -0.1499 0.5415 0.9514
C18 C 0.2911(2) 0.41951(12) 0.60158(8)
H16 H 0.3527 0.4678 0.6140
C19 C 0.30788(17) 0.58320(12) 0.72866(8)
H17 H 0.2453 0.5490 0.7532
C20 C 0.35864(15) 0.46829(11) 0.87520(7)
H18 H 0.4059 0.5161 0.8967
C21 C 0.31884(17) 0.32573(11) 0.61651(6)
C22 C 0.2260(2) 0.25476(13) 0.59711(8)
H19 H 0.2451 0.1912 0.6067
C23 C -0.3256(2) 0.39326(14) 0.97793(9)
H20 H -0.3160 0.3935 0.9356
C24 C -0.4316(2) 0.33865(14) 1.00442(10)
H21 H -0.4908 0.3015 0.9800
C25 C 0.5421(2) 0.62679(12) 0.70095(8)
H22 H 0.6398 0.6220 0.7065
C26 C -0.2558(2) 0.44846(14) 1.07530(8)
H23 H -0.1970 0.4853 1.1001
C27 C 0.1707(2) 0.44170(15) 0.56800(9)
H24 H 0.1520 0.5051 0.5578
C28 C 1.09561(19) 0.26345(16) 0.74260(9)
H25 H 1.1560 0.2129 0.7282
H26 H 1.0819 0.2569 0.7859
H27 H 1.1391 0.3241 0.7340
C29 C 0.1063(2) 0.27684(17) 0.56386(10)
H28 H 0.0447 0.2287 0.5512
C30 C 0.2552(2) 0.64396(14) 0.68403(9)
H29 H 0.1577 0.6494 0.6785
C31 C -0.3640(2) 0.39558(16) 1.10165(9)
H30 H -0.3786 0.3985 1.1437
C32 C -0.4491(2) 0.33951(14) 1.06658(10)
H31 H -0.5188 0.3019 1.0847
C33 C 0.3445(3) 0.69574(14) 0.64824(10)
H32 H 0.3082 0.7362 0.6183
C34 C 0.0787(2) 0.37100(19) 0.54955(9)
H33 H -0.0023 0.3868 0.5274
C35 C 0.4890(3) 0.68824(15) 0.65645(10)
H34 H 0.5507 0.7241 0.6324
loop_
_geom_bond_atom_site_label_1
_geom_bond_atom_site_label_2
_geom_bond_site_symmetry_1
_geom_bond_site_symmetry_2
O1 C5 1_555 1_555
O2 H1 1_555 1_555
O3 H2 1_555 1_555
O4 C12 1_555 1_555
O5 C14 1_555 1_555
C1 C5 1_555 1_555
C2 C5 1_555 1_555
C3 H3 1_555 1_555
H4 C3 1_555 1_555
C4 C17 1_555 1_555
C6 O3 1_555 1_555
C7 C8 1_555 1_555
C8 C1 1_555 1_555
H5 C8 1_555 1_555
C9 C8 1_555 1_555
H6 C9 1_555 1_555
C10 O1 1_555 1_555
H7 C10 1_555 1_555
C11 C6 1_555 1_555
H8 C11 1_555 1_555
C12 C2 1_555 1_555
C13 H9 1_555 1_555
H10 C13 1_555 1_555
C14 C2 1_555 1_555
C15 C10 1_555 1_555
H11 C15 1_555 1_555
H12 C15 1_555 1_555
C16 O2 1_555 1_555
H13 C16 1_555 1_555
C17 C3 1_555 1_555
H14 C17 1_555 1_555
H15 C17 1_555 1_555
C18 H16 1_555 1_555
C19 C7 1_555 1_555
H17 C19 1_555 1_555
C20 C9 1_555 1_555
H18 C20 1_555 1_555
C21 C10 1_555 1_555
C22 C21 1_555 1_555
H19 C22 1_555 1_555
C23 C4 1_555 1_555
H20 C23 1_555 1_555
C24 C23 1_555 1_555
H21 C24 1_555 1_555
C25 C7 1_555 1_555
H22 C25 1_555 1_555
C26 C4 1_555 1_555
H23 C26 1_555 1_555
C27 C18 1_555 1_555
H24 C27 1_555 1_555
C28 O4 1_555 1_555
H25 C28 1_555 1_555
H26 C28 1_555 1_555
H27 C28 1_555 1_555
C29 C22 1_555 1_555
H28 C29 1_555 1_555
C30 C19 1_555 1_555
H29 C30 1_555 1_555
C31 C26 1_555 1_555
H30 C31 1_555 1_555
C32 C24 1_555 1_555
H31 C32 1_555 1_555
C33 C30 1_555 1_555
H32 C33 1_555 1_555
C34 C27 1_555 1_555
H33 C34 1_555 1_555
C35 C25 1_555 1_555
H34 C35 1_555 1_555
C1 C6 1_555 1_555
C3 C16 1_555 1_555
C11 C12 1_555 1_555
C13 C16 1_555 1_555
C13 C20 1_555 1_555
C14 C15 1_555 1_555
C18 C21 1_555 1_555
C29 C34 1_555 1_555
C31 C32 1_555 1_555
C33 C35 1_555 1_555

#END
