
#######################################################################
#
#                 Cambridge Crystallographic Data Centre
#                                CCDC 
#
#######################################################################
#
# If this CIF has been generated from an entry in the Cambridge 
# Structural Database, then it will include bibliographic, chemical, 
# crystal, experimental, refinement or atomic coordinate data resulting 
# from the CCDC's data processing and validation procedures.
#
#######################################################################

data_GEMVEC
_chemical_formula_moiety         'C106 H124 N8 O8'
_chemical_name_systematic        
"28,28'-{diazene-1,2-diylbis[(4,1-phenylene)-1H-1,2,3-triazole-1,4-diylmethyleneoxy]}bis[5,11,17,23-tetra-t-butylpentacyclo[19.3.1.1^3,7^.1^9,13^.1^15,19^]octacosa-1(25),3(28),4,6,9(27),10,12,15(26),16,18,21,23-dodecaene-25,26,27-triol] unknown solvate"
_symmetry_cell_setting           monoclinic
_symmetry_space_group_name_H-M   'C 2/c'
_symmetry_Int_Tables_number      15
_space_group_name_Hall           '-C 2yn'
loop_
_symmetry_equiv_pos_site_id
_symmetry_equiv_pos_as_xyz
1 x,y,z
2 -x,y,1/2-z
3 1/2+x,1/2+y,z
4 1/2-x,1/2+y,1/2-z
5 -x,-y,-z
6 x,-y,1/2+z
7 1/2-x,1/2-y,-z
8 1/2+x,1/2-y,1/2+z
_cell_length_a                   36.5263(18)
_cell_length_b                   14.3181(3)
_cell_length_c                   26.3568(11)
_cell_angle_alpha                90
_cell_angle_beta                 110.445(5)
_cell_angle_gamma                90
_cell_volume                     12916
_exptl_crystal_colour            orange
_chemical_melting_point          '205-206 deg.C'
_cell_formula_units_Z            4
_chemical_properties_physical    Photo-sensitive
_exptl_crystal_recrystallization_method 'ethyl acetate/n-hexane'
loop_
_atom_site_label
_atom_site_type_symbol
_atom_site_fract_x
_atom_site_fract_y
_atom_site_fract_z
O1 O 0.04184(6) 0.13777(13) 0.14055(8)
O2 O 0.10296(7) -0.01834(16) 0.16341(9)
H1 H 0.1007(14) -0.037(3) 0.1905(12)
O3 O 0.10225(7) -0.03945(16) 0.26299(9)
H2 H 0.0851(9) -0.001(3) 0.2607(13)
O4 O 0.05305(7) 0.10294(15) 0.24640(9)
H3 H 0.0449(14) 0.116(3) 0.2151(9)
N1 N 0.01447(9) -0.47445(19) 0.00923(12)
N2 N -0.01109(7) -0.10225(17) 0.05480(10)
N3 N -0.04736(8) -0.0663(2) 0.03764(13)
N4 N -0.04432(8) 0.0216(2) 0.05176(13)
C1 C 0.00566(10) -0.3809(2) 0.02023(13)
C2 C -0.03117(9) -0.3484(2) 0.01297(13)
H4 H -0.052980 -0.389044 -0.000711
C3 C -0.03676(10) -0.2572(2) 0.02538(14)
H5 H -0.062189 -0.235552 0.021488
C4 C -0.00502(9) -0.1972(2) 0.04357(11)
C5 C 0.03244(10) -0.2289(2) 0.05060(16)
H6 H 0.054187 -0.187857 0.063108
C6 C 0.03742(10) -0.3204(2) 0.03917(16)
H7 H 0.062925 -0.342877 0.044231
C7 C 0.01502(10) -0.0355(2) 0.07965(14)
H8 H 0.042599 -0.041625 0.095370
C8 C -0.00660(9) 0.0423(2) 0.07735(12)
C9 C 0.00552(10) 0.1405(2) 0.09548(13)
H9 H 0.008808 0.176762 0.065376
H10 H -0.014835 0.171219 0.106441
C10 C 0.06506(8) 0.21689(19) 0.14293(11)
C11 C 0.06013(8) 0.2941(2) 0.17158(11)
C12 C 0.08252(10) 0.3739(2) 0.17211(12)
H11 H 0.079430 0.427574 0.191395
C13 C 0.10889(10) 0.3765(2) 0.14541(12)
C14 C 0.11393(9) 0.2961(2) 0.11886(12)
H12 H 0.132561 0.296646 0.101159
C15 C 0.09254(9) 0.2147(2) 0.11739(11)
C16 C 0.10217(10) 0.1266(2) 0.09190(12)
H13 H 0.080538 0.081167 0.084784
H14 H 0.104997 0.142557 0.056897
C17 C 0.13952(9) 0.0835(2) 0.12907(11)
C18 C 0.17549(10) 0.1126(2) 0.12839(13)
H15 H 0.176014 0.155609 0.101200
C19 C 0.21075(10) 0.0823(2) 0.16532(13)
C20 C 0.20872(10) 0.0167(2) 0.20413(13)
H16 H 0.232346 -0.005699 0.230036
C21 C 0.17345(9) -0.0162(2) 0.20586(12)
C22 C 0.13885(9) 0.0154(2) 0.16715(12)
C23 C 0.17349(10) -0.0870(2) 0.24919(12)
H17 H 0.150803 -0.129273 0.234126
H18 H 0.197477 -0.125421 0.258514
C24 C 0.17164(10) -0.0421(2) 0.30068(12)
C25 C 0.20542(10) -0.0249(2) 0.34449(13)
H19 H 0.229802 -0.043068 0.342176
C26 C 0.20510(11) 0.0179(3) 0.39174(13)
C27 C 0.16872(11) 0.0454(2) 0.39339(13)
H20 H 0.167822 0.076030 0.424916
C28 C 0.13408(10) 0.0299(2) 0.35103(13)
C29 C 0.13572(10) -0.0153(2) 0.30519(12)
C30 C 0.09499(11) 0.0591(3) 0.35527(13)
H21 H 0.074430 0.015582 0.333568
H22 H 0.096705 0.053808 0.393481
C31 C 0.08319(10) 0.1578(2) 0.33593(13)
C32 C 0.09194(10) 0.2321(3) 0.37249(13)
H23 H 0.104936 0.219313 0.409859
C33 C 0.08242(10) 0.3241(3) 0.35642(14)
C34 C 0.06365(10) 0.3408(2) 0.30181(13)
H24 H 0.057353 0.403375 0.290030
C35 C 0.05357(9) 0.2697(2) 0.26331(12)
C36 C 0.06322(9) 0.1779(2) 0.28141(12)
C37 C 0.03265(9) 0.2929(2) 0.20395(12)
H25 H 0.020047 0.354831 0.201128
H26 H 0.011834 0.246135 0.187945
C38 C 0.13405(11) 0.4629(2) 0.14573(15)
C39 C 0.12455(15) 0.5446(3) 0.1756(2)
H27 H 0.129131 0.526666 0.213189
H28 H 0.141294 0.597745 0.174960
H29 H 0.097088 0.562205 0.157895
C40 C 0.12652(12) 0.4936(2) 0.08706(17)
H30 H 0.132473 0.441786 0.066900
H31 H 0.099049 0.511510 0.069912
H32 H 0.143255 0.547049 0.086976
C41 C 0.17769(12) 0.4365(3) 0.17333(17)
H33 H 0.183970 0.383721 0.154173
H34 H 0.194054 0.490157 0.172169
H35 H 0.182642 0.419088 0.211103
C42 C 0.24963(12) 0.1167(3) 0.16194(17)
C43 C 0.2481(2) 0.2228(5) 0.1516(5)
H36 H 0.225081 0.237765 0.119874
H37 H 0.246522 0.255842 0.183311
H38 H 0.271762 0.242350 0.144945
C44 C 0.2537(3) 0.0709(7) 0.1102(4)
H39 H 0.230971 0.087518 0.078410
H40 H 0.277540 0.093536 0.105331
H41 H 0.255001 0.002809 0.114443
C45 C 0.2838(2) 0.0913(9) 0.2092(4)
H42 H 0.307527 0.115229 0.204526
H43 H 0.281183 0.118430 0.241907
H44 H 0.285405 0.023112 0.212719
C46 C 0.24291(14) 0.0340(4) 0.44013(17)
C47 C 0.2781(2) 0.0053(15) 0.4303(4)
H45 H 0.300974 0.017493 0.462671
H46 H 0.276569 -0.061532 0.421883
H47 H 0.280289 0.040755 0.399690
C48 C 0.2389(3) -0.0285(8) 0.4878(3)
H48 H 0.215348 -0.010247 0.495033
H49 H 0.237002 -0.094427 0.477147
H50 H 0.261895 -0.019388 0.520504
C49 C 0.2439(3) 0.1361(8) 0.4606(4)
H51 H 0.219314 0.150005 0.466241
H52 H 0.265754 0.143440 0.494828
H53 H 0.247170 0.179105 0.433592
C50 C 0.09110(15) 0.4039(3) 0.39839(16)
C51 C 0.1163(4) 0.3672(7) 0.4560(3)
H54 H 0.102324 0.316446 0.466415
H55 H 0.141360 0.344039 0.455437
H56 H 0.120868 0.418260 0.482299
C52 C 0.0520(3) 0.4383(8) 0.3994(4)
H57 H 0.038669 0.387386 0.410684
H58 H 0.056293 0.490375 0.424939
H59 H 0.035846 0.459504 0.363075
C53 C 0.1115(4) 0.4815(7) 0.3811(4)
H60 H 0.136664 0.459210 0.380515
H61 H 0.095300 0.502651 0.344846
H62 H 0.115747 0.533522 0.406711
O1D O -0.04184(6) -1.13777(13) -0.14055(8)
O2D O -0.10296(7) -0.98166(16) -0.16341(9)
H1D H -0.1007(14) -0.963(3) -0.1905(12)
O3D O -0.10225(7) -0.96055(16) -0.26299(9)
H2D H -0.0851(9) -0.999(3) -0.2607(13)
O4D O -0.05305(7) -1.10294(15) -0.24640(9)
H3D H -0.0449(14) -1.116(3) -0.2151(9)
N1D N -0.01447(9) -0.52555(19) -0.00923(12)
N2D N 0.01109(7) -0.89775(17) -0.05480(10)
N3D N 0.04736(8) -0.9337(2) -0.03764(13)
N4D N 0.04432(8) -1.0216(2) -0.05176(13)
C1D C -0.00566(10) -0.6191(2) -0.02023(13)
C2D C 0.03117(9) -0.6516(2) -0.01297(13)
H4D H 0.052980 -0.610956 0.000711
C3D C 0.03676(10) -0.7428(2) -0.02538(14)
H5D H 0.062189 -0.764448 -0.021488
C4D C 0.00502(9) -0.8028(2) -0.04357(11)
C5D C -0.03244(10) -0.7711(2) -0.05060(16)
H6D H -0.054187 -0.812143 -0.063108
C6D C -0.03742(10) -0.6796(2) -0.03917(16)
H7D H -0.062925 -0.657123 -0.044231
C7D C -0.01502(10) -0.9645(2) -0.07965(14)
H8D H -0.042599 -0.958375 -0.095370
C8D C 0.00660(9) -1.0423(2) -0.07735(12)
C9D C -0.00552(10) -1.1405(2) -0.09548(13)
H9D H -0.008808 -1.176762 -0.065376
H10D H 0.014835 -1.171219 -0.106441
C10D C -0.06506(8) -1.21689(19) -0.14293(11)
C11D C -0.06013(8) -1.2941(2) -0.17158(11)
C12D C -0.08252(10) -1.3739(2) -0.17211(12)
H11D H -0.079430 -1.427574 -0.191395
C13D C -0.10889(10) -1.3765(2) -0.14541(12)
C14D C -0.11393(9) -1.2961(2) -0.11886(12)
H12D H -0.132561 -1.296646 -0.101159
C15D C -0.09254(9) -1.2147(2) -0.11739(11)
C16D C -0.10217(10) -1.1266(2) -0.09190(12)
H13D H -0.080538 -1.081167 -0.084784
H14D H -0.104997 -1.142557 -0.056897
C17D C -0.13952(9) -1.0835(2) -0.12907(11)
C18D C -0.17549(10) -1.1126(2) -0.12839(13)
H15D H -0.176014 -1.155609 -0.101200
C19D C -0.21075(10) -1.0823(2) -0.16532(13)
C20D C -0.20872(10) -1.0167(2) -0.20413(13)
H16D H -0.232346 -0.994301 -0.230036
C21D C -0.17345(9) -0.9838(2) -0.20586(12)
C22D C -0.13885(9) -1.0154(2) -0.16715(12)
C23D C -0.17349(10) -0.9130(2) -0.24919(12)
H17D H -0.150803 -0.870727 -0.234126
H18D H -0.197477 -0.874579 -0.258514
C24D C -0.17164(10) -0.9579(2) -0.30068(12)
C25D C -0.20542(10) -0.9751(2) -0.34449(13)
H19D H -0.229802 -0.956932 -0.342176
C26D C -0.20510(11) -1.0179(3) -0.39174(13)
C27D C -0.16872(11) -1.0454(2) -0.39339(13)
H20D H -0.167822 -1.076030 -0.424916
C28D C -0.13408(10) -1.0299(2) -0.35103(13)
C29D C -0.13572(10) -0.9847(2) -0.30519(12)
C30D C -0.09499(11) -1.0591(3) -0.35527(13)
H21D H -0.074430 -1.015582 -0.333568
H22D H -0.096705 -1.053808 -0.393481
C31D C -0.08319(10) -1.1578(2) -0.33593(13)
C32D C -0.09194(10) -1.2321(3) -0.37249(13)
H23D H -0.104936 -1.219313 -0.409859
C33D C -0.08242(10) -1.3241(3) -0.35642(14)
C34D C -0.06365(10) -1.3408(2) -0.30181(13)
H24D H -0.057353 -1.403375 -0.290030
C35D C -0.05357(9) -1.2697(2) -0.26331(12)
C36D C -0.06322(9) -1.1779(2) -0.28141(12)
C37D C -0.03265(9) -1.2929(2) -0.20395(12)
H25D H -0.020047 -1.354831 -0.201128
H26D H -0.011834 -1.246135 -0.187945
C38D C -0.13405(11) -1.4629(2) -0.14573(15)
C39D C -0.12455(15) -1.5446(3) -0.1756(2)
H27D H -0.129131 -1.526666 -0.213189
H28D H -0.141294 -1.597745 -0.174960
H29D H -0.097088 -1.562205 -0.157895
C40D C -0.12652(12) -1.4936(2) -0.08706(17)
H30D H -0.132473 -1.441786 -0.066900
H31D H -0.099049 -1.511510 -0.069912
H32D H -0.143255 -1.547049 -0.086976
C41D C -0.17769(12) -1.4365(3) -0.17333(17)
H33D H -0.183970 -1.383721 -0.154173
H34D H -0.194054 -1.490157 -0.172169
H35D H -0.182642 -1.419088 -0.211103
C42D C -0.24963(12) -1.1167(3) -0.16194(17)
C43D C -0.2481(2) -1.2228(5) -0.1516(5)
H36D H -0.225081 -1.237765 -0.119874
H37D H -0.246522 -1.255842 -0.183311
H38D H -0.271762 -1.242350 -0.144945
C44D C -0.2537(3) -1.0709(7) -0.1102(4)
H39D H -0.230971 -1.087518 -0.078410
H40D H -0.277540 -1.093536 -0.105331
H41D H -0.255001 -1.002809 -0.114443
C45D C -0.2838(2) -1.0913(9) -0.2092(4)
H42D H -0.307527 -1.115229 -0.204526
H43D H -0.281183 -1.118430 -0.241907
H44D H -0.285405 -1.023112 -0.212719
C46D C -0.24291(14) -1.0340(4) -0.44013(17)
C47D C -0.2781(2) -1.0053(15) -0.4303(4)
H45D H -0.300974 -1.017493 -0.462671
H46D H -0.276569 -0.938468 -0.421883
H47D H -0.280289 -1.040755 -0.399690
C48D C -0.2389(3) -0.9715(8) -0.4878(3)
H48D H -0.215348 -0.989753 -0.495033
H49D H -0.237002 -0.905573 -0.477147
H50D H -0.261895 -0.980612 -0.520504
C49D C -0.2439(3) -1.1361(8) -0.4606(4)
H51D H -0.219314 -1.150005 -0.466241
H52D H -0.265754 -1.143440 -0.494828
H53D H -0.247170 -1.179105 -0.433592
C50D C -0.09110(15) -1.4039(3) -0.39839(16)
C51D C -0.1163(4) -1.3672(7) -0.4560(3)
H54D H -0.102324 -1.316446 -0.466415
H55D H -0.141360 -1.344039 -0.455437
H56D H -0.120868 -1.418260 -0.482299
C52D C -0.0520(3) -1.4383(8) -0.3994(4)
H57D H -0.038669 -1.387386 -0.410684
H58D H -0.056293 -1.490375 -0.424939
H59D H -0.035846 -1.459504 -0.363075
C53D C -0.1115(4) -1.4815(7) -0.3811(4)
H60D H -0.136664 -1.459210 -0.380515
H61D H -0.095300 -1.502651 -0.344846
H62D H -0.115747 -1.533522 -0.406711
C54? C 0.2473(4) 0.1866(11) 0.1201(7)
H63? H 0.273779 0.203199 0.121857
H64? H 0.232709 0.160737 0.084355
H65? H 0.234006 0.242546 0.126320
C55? C 0.2747(3) 0.0308(8) 0.1557(5)
H66? H 0.276206 -0.015700 0.183629
H67? H 0.262442 0.002778 0.119813
H68? H 0.301124 0.051920 0.159772
C56? C 0.2734(4) 0.1655(10) 0.2187(5)
H69? H 0.275874 0.121738 0.248278
H70? H 0.299503 0.183016 0.219256
H71? H 0.259440 0.221498 0.223167
C57? C 0.2732(5) 0.0968(14) 0.4163(7)
H72? H 0.276418 0.064039 0.385441
H73? H 0.261867 0.158648 0.404629
H74? H 0.298745 0.103865 0.445014
C58? C 0.2635(5) -0.0590(12) 0.4593(6)
H75? H 0.264606 -0.094437 0.428056
H76? H 0.290167 -0.047292 0.484350
H77? H 0.249131 -0.094876 0.477860
C59? C 0.2406(5) 0.0891(13) 0.4849(6)
H78? H 0.227222 0.148125 0.471219
H79? H 0.225988 0.054444 0.503700
H80? H 0.267024 0.102029 0.510191
C60? C 0.1301(5) 0.4060(14) 0.4370(8)
H81? H 0.132746 0.458681 0.461778
H82? H 0.135444 0.347546 0.457652
H83? H 0.148661 0.413208 0.418009
C61? C 0.0625(6) 0.3886(14) 0.4312(8)
H84? H 0.035457 0.386814 0.406016
H85? H 0.068841 0.329527 0.451140
H86? H 0.065590 0.440217 0.456851
C62? C 0.0795(7) 0.5044(10) 0.3719(7)
H87? H 0.052816 0.502572 0.345477
H88? H 0.080903 0.550068 0.400193
H89? H 0.097616 0.522556 0.353582
loop_
_geom_bond_atom_site_label_1
_geom_bond_atom_site_label_2
_geom_bond_site_symmetry_1
_geom_bond_site_symmetry_2
O1 C9 1_555 1_555
O2 H1 1_555 1_555
O3 H2 1_555 1_555
O4 H3 1_555 1_555
N1 C1 1_555 1_555
N2 N3 1_555 1_555
N3 N4 1_555 1_555
N4 C8 1_555 1_555
C1 C2 1_555 1_555
C2 H4 1_555 1_555
C3 C2 1_555 1_555
H5 C3 1_555 1_555
C4 N2 1_555 1_555
C5 C4 1_555 1_555
H6 C5 1_555 1_555
C6 C1 1_555 1_555
H7 C6 1_555 1_555
C7 N2 1_555 1_555
H8 C7 1_555 1_555
C8 C7 1_555 1_555
C9 C8 1_555 1_555
H9 C9 1_555 1_555
H10 C9 1_555 1_555
C10 O1 1_555 1_555
C11 C10 1_555 1_555
C12 C11 1_555 1_555
H11 C12 1_555 1_555
C13 C12 1_555 1_555
C14 C13 1_555 1_555
H12 C14 1_555 1_555
C15 C10 1_555 1_555
C16 C15 1_555 1_555
H13 C16 1_555 1_555
H14 C16 1_555 1_555
C17 C16 1_555 1_555
C18 C17 1_555 1_555
H15 C18 1_555 1_555
C19 C18 1_555 1_555
C20 C19 1_555 1_555
H16 C20 1_555 1_555
C21 C20 1_555 1_555
C22 O2 1_555 1_555
C23 C21 1_555 1_555
H17 C23 1_555 1_555
H18 C23 1_555 1_555
C24 C23 1_555 1_555
C25 C24 1_555 1_555
H19 C25 1_555 1_555
C26 C25 1_555 1_555
C27 C26 1_555 1_555
H20 C27 1_555 1_555
C28 C27 1_555 1_555
C29 O3 1_555 1_555
C30 C28 1_555 1_555
H21 C30 1_555 1_555
H22 C30 1_555 1_555
C31 C30 1_555 1_555
C32 C31 1_555 1_555
H23 C32 1_555 1_555
C33 C32 1_555 1_555
C34 C33 1_555 1_555
H24 C34 1_555 1_555
C35 C34 1_555 1_555
C36 O4 1_555 1_555
C37 C11 1_555 1_555
H25 C37 1_555 1_555
H26 C37 1_555 1_555
C38 C13 1_555 1_555
C39 C38 1_555 1_555
H27 C39 1_555 1_555
H28 C39 1_555 1_555
H29 C39 1_555 1_555
C40 C38 1_555 1_555
H30 C40 1_555 1_555
H31 C40 1_555 1_555
H32 C40 1_555 1_555
C41 C38 1_555 1_555
H33 C41 1_555 1_555
H34 C41 1_555 1_555
H35 C41 1_555 1_555
C42 C19 1_555 1_555
C43 C42 1_555 1_555
H36 C43 1_555 1_555
H37 C43 1_555 1_555
H38 C43 1_555 1_555
C44 C42 1_555 1_555
H39 C44 1_555 1_555
H40 C44 1_555 1_555
H41 C44 1_555 1_555
C45 C42 1_555 1_555
H42 C45 1_555 1_555
H43 C45 1_555 1_555
H44 C45 1_555 1_555
C46 C26 1_555 1_555
C47 C46 1_555 1_555
H45 C47 1_555 1_555
H46 C47 1_555 1_555
H47 C47 1_555 1_555
C48 C46 1_555 1_555
H48 C48 1_555 1_555
H49 C48 1_555 1_555
H50 C48 1_555 1_555
C49 C46 1_555 1_555
H51 C49 1_555 1_555
H52 C49 1_555 1_555
H53 C49 1_555 1_555
C50 C33 1_555 1_555
C51 C50 1_555 1_555
H54 C51 1_555 1_555
H55 C51 1_555 1_555
H56 C51 1_555 1_555
C52 C50 1_555 1_555
H57 C52 1_555 1_555
H58 C52 1_555 1_555
H59 C52 1_555 1_555
C53 C50 1_555 1_555
H60 C53 1_555 1_555
H61 C53 1_555 1_555
H62 C53 1_555 1_555
O1D C9D 1_555 1_555
O2D H1D 1_555 1_555
O3D H2D 1_555 1_555
O4D H3D 1_555 1_555
N1D N1 1_555 1_555
N2D N3D 1_555 1_555
N3D N4D 1_555 1_555
N4D C8D 1_555 1_555
C1D N1D 1_555 1_555
C2D C1D 1_555 1_555
H4D C2D 1_555 1_555
C3D C2D 1_555 1_555
H5D C3D 1_555 1_555
C4D N2D 1_555 1_555
C5D C4D 1_555 1_555
H6D C5D 1_555 1_555
C6D C1D 1_555 1_555
H7D C6D 1_555 1_555
C7D N2D 1_555 1_555
H8D C7D 1_555 1_555
C8D C7D 1_555 1_555
C9D C8D 1_555 1_555
H9D C9D 1_555 1_555
H10D C9D 1_555 1_555
C10D O1D 1_555 1_555
C11D C10D 1_555 1_555
C12D C11D 1_555 1_555
H11D C12D 1_555 1_555
C13D C12D 1_555 1_555
C14D C13D 1_555 1_555
H12D C14D 1_555 1_555
C15D C10D 1_555 1_555
C16D C15D 1_555 1_555
H13D C16D 1_555 1_555
H14D C16D 1_555 1_555
C17D C16D 1_555 1_555
C18D C17D 1_555 1_555
H15D C18D 1_555 1_555
C19D C18D 1_555 1_555
C20D C19D 1_555 1_555
H16D C20D 1_555 1_555
C21D C20D 1_555 1_555
C22D O2D 1_555 1_555
C23D C21D 1_555 1_555
H17D C23D 1_555 1_555
H18D C23D 1_555 1_555
C24D C23D 1_555 1_555
C25D C24D 1_555 1_555
H19D C25D 1_555 1_555
C26D C25D 1_555 1_555
C27D C26D 1_555 1_555
H20D C27D 1_555 1_555
C28D C27D 1_555 1_555
C29D O3D 1_555 1_555
C30D C28D 1_555 1_555
H21D C30D 1_555 1_555
H22D C30D 1_555 1_555
C31D C30D 1_555 1_555
C32D C31D 1_555 1_555
H23D C32D 1_555 1_555
C33D C32D 1_555 1_555
C34D C33D 1_555 1_555
H24D C34D 1_555 1_555
C35D C34D 1_555 1_555
C36D O4D 1_555 1_555
C37D C11D 1_555 1_555
H25D C37D 1_555 1_555
H26D C37D 1_555 1_555
C38D C13D 1_555 1_555
C39D C38D 1_555 1_555
H27D C39D 1_555 1_555
H28D C39D 1_555 1_555
H29D C39D 1_555 1_555
C40D C38D 1_555 1_555
H30D C40D 1_555 1_555
H31D C40D 1_555 1_555
H32D C40D 1_555 1_555
C41D C38D 1_555 1_555
H33D C41D 1_555 1_555
H34D C41D 1_555 1_555
H35D C41D 1_555 1_555
C42D C19D 1_555 1_555
C43D C42D 1_555 1_555
H36D C43D 1_555 1_555
H37D C43D 1_555 1_555
H38D C43D 1_555 1_555
C44D C42D 1_555 1_555
H39D C44D 1_555 1_555
H40D C44D 1_555 1_555
H41D C44D 1_555 1_555
C45D C42D 1_555 1_555
H42D C45D 1_555 1_555
H43D C45D 1_555 1_555
H44D C45D 1_555 1_555
C46D C26D 1_555 1_555
C47D C46D 1_555 1_555
H45D C47D 1_555 1_555
H46D C47D 1_555 1_555
H47D C47D 1_555 1_555
C48D C46D 1_555 1_555
H48D C48D 1_555 1_555
H49D C48D 1_555 1_555
H50D C48D 1_555 1_555
C49D C46D 1_555 1_555
H51D C49D 1_555 1_555
H52D C49D 1_555 1_555
H53D C49D 1_555 1_555
C50D C33D 1_555 1_555
C51D C50D 1_555 1_555
H54D C51D 1_555 1_555
H55D C51D 1_555 1_555
H56D C51D 1_555 1_555
C52D C50D 1_555 1_555
H57D C52D 1_555 1_555
H58D C52D 1_555 1_555
H59D C52D 1_555 1_555
C53D C50D 1_555 1_555
H60D C53D 1_555 1_555
H61D C53D 1_555 1_555
H62D C53D 1_555 1_555
C3 C4 1_555 1_555
C5 C6 1_555 1_555
C14 C15 1_555 1_555
C17 C22 1_555 1_555
C21 C22 1_555 1_555
C24 C29 1_555 1_555
C28 C29 1_555 1_555
C31 C36 1_555 1_555
C35 C36 1_555 1_555
C35 C37 1_555 1_555
C3D C4D 1_555 1_555
C5D C6D 1_555 1_555
C14D C15D 1_555 1_555
C17D C22D 1_555 1_555
C21D C22D 1_555 1_555
C24D C29D 1_555 1_555
C28D C29D 1_555 1_555
C31D C36D 1_555 1_555
C35D C36D 1_555 1_555
C35D C37D 1_555 1_555

#END
