
#######################################################################
#
#                 Cambridge Crystallographic Data Centre
#                                CCDC 
#
#######################################################################
#
# If this CIF has been generated from an entry in the Cambridge 
# Structural Database, then it will include bibliographic, chemical, 
# crystal, experimental, refinement or atomic coordinate data resulting 
# from the CCDC's data processing and validation procedures.
#
#######################################################################

data_GEMWUT
_chemical_name_common            
'tri-N-butyl-mono-N-benzylated tetrabenzotetraaza[8]circulene tetrahydrofuran solvate'
_chemical_formula_moiety         'C59 H50 N4,0.667(C4 H8 O1)'
_chemical_name_systematic        
'5-benzyl-10,15,20-tributyl-5,10,15,20-tetrahydro-5,10,15,20-tetraazatetracyclopenta[fgh,pqr,za_1_b_1_,j_1_k_1_l_1_]tetranaphthylene  tetrahydrofuran solvate'
_symmetry_cell_setting           triclinic
_symmetry_space_group_name_H-M   'P -1'
_symmetry_Int_Tables_number      2
_space_group_name_Hall           '-P 1'
loop_
_symmetry_equiv_pos_site_id
_symmetry_equiv_pos_as_xyz
1 x,y,z
2 -x,-y,-z
_cell_length_a                   13.822(2)
_cell_length_b                   14.448(2)
_cell_length_c                   17.886(2)
_cell_angle_alpha                111.087(17)
_cell_angle_beta                 97.90(3)
_cell_angle_gamma                94.07(4)
_cell_volume                     3272.88
_exptl_crystal_colour            colorless
_exptl_crystal_description       prism
_cell_formula_units_Z            3
_exptl_crystal_recrystallization_method 'Vapour deposition'
loop_
_atom_site_label
_atom_site_type_symbol
_atom_site_fract_x
_atom_site_fract_y
_atom_site_fract_z
C1 C 0.2827(2) 0.2543(2) 0.30200(18)
C2 C 0.2553(2) 0.3518(2) 0.3306(2)
H1 H 0.2996 0.4063 0.3325
C3 C 0.1677(3) 0.3698(2) 0.3552(2)
H2 H 0.1514 0.4362 0.3743
C4 C 0.1016(3) 0.2905(3) 0.3525(3)
H3 H 0.0405 0.3031 0.3703
C5 C 0.1246(2) 0.1943(2) 0.3242(2)
H4 H 0.0787 0.1413 0.3228
C6 C 0.2148(2) 0.1721(2) 0.29693(18)
C7 C 0.2399(2) 0.0734(2) 0.25661(18)
C8 C 0.3219(2) 0.0551(2) 0.21787(17)
C9 C 0.31628(19) -0.0508(2) 0.17674(17)
C10 C 0.2294(2) -0.0929(2) 0.19063(17)
C11 C 0.1876(2) -0.1952(2) 0.14628(18)
C12 C 0.0866(2) -0.2318(2) 0.1365(2)
H5 H 0.0449 -0.1901 0.1678
C13 C 0.0483(2) -0.3262(3) 0.0829(2)
H6 H -0.0193 -0.3493 0.0778
C14 C 0.1077(2) -0.3887(2) 0.0357(2)
H7 H 0.0803 -0.4540 -0.0014
C15 C 0.2048(2) -0.3566(2) 0.04256(19)
H8 H 0.2442 -0.3998 0.0097
C16 C 0.2483(2) -0.2599(2) 0.09778(18)
C17 C 0.3453(2) -0.2187(2) 0.09818(17)
C18 C 0.37763(19) -0.11601(19) 0.12919(17)
C19 C 0.46736(19) -0.10394(19) 0.09932(16)
C20 C 0.48613(19) -0.2000(2) 0.05292(17)
C21 C 0.56422(19) -0.2188(2) 0.00644(17)
C22 C 0.5727(2) -0.3147(2) -0.04989(18)
H9 H 0.5249 -0.3694 -0.0577
C23 C 0.6479(2) -0.3307(2) -0.09346(18)
H10 H 0.6507 -0.3954 -0.1324
C24 C 0.7206(2) -0.2518(2) -0.08056(18)
H11 H 0.7748 -0.2633 -0.1087
C25 C 0.7138(2) -0.1578(2) -0.02736(18)
H12 H 0.7647 -0.1053 -0.0182
C26 C 0.63335(19) -0.1364(2) 0.01456(17)
C27 C 0.61401(18) -0.03780(19) 0.06316(16)
C28 C 0.53332(18) -0.01993(19) 0.10365(16)
C29 C 0.53810(19) 0.08620(19) 0.14299(16)
C30 C 0.62239(19) 0.12933(19) 0.12600(17)
C31 C 0.6522(2) 0.2357(2) 0.15441(17)
C32 C 0.7374(2) 0.2834(2) 0.14128(18)
H13 H 0.7850 0.2439 0.1169
C33 C 0.7531(2) 0.3853(2) 0.16284(19)
H14 H 0.8112 0.4150 0.1532
C34 C 0.6846(2) 0.4457(2) 0.19885(19)
H15 H 0.6933 0.5154 0.2098
C35 C 0.6046(2) 0.4030(2) 0.21818(18)
H16 H 0.5590 0.4443 0.2440
C36 C 0.5888(2) 0.2987(2) 0.20031(17)
C37 C 0.5086(2) 0.2537(2) 0.22231(17)
C38 C 0.47895(19) 0.15111(19) 0.19340(17)
C39 C 0.39012(19) 0.13804(19) 0.22476(17)
C40 C 0.3709(2) 0.2332(2) 0.27009(17)
N1 N 0.18372(17) -0.01799(17) 0.24141(15)
C41 C 0.1266(2) -0.0363(2) 0.30021(19)
H17 H 0.1072 -0.1092 0.2829
H18 H 0.0655 -0.0045 0.2989
C42 C 0.1830(3) 0.0039(3) 0.3870(2)
H19 H 0.1971 0.0776 0.4058
H20 H 0.1407 -0.0116 0.4224
C43 C 0.2780(3) -0.0377(4) 0.3968(3)
H21 H 0.3181 -0.0270 0.3581
H22 H 0.3149 0.0002 0.4525
C44 C 0.2664(5) -0.1463(4) 0.3831(4)
H23 H 0.2302 -0.1574 0.4232
H24 H 0.3315 -0.1683 0.3889
H25 H 0.2298 -0.1847 0.3281
N2 N 0.41332(16) -0.27117(16) 0.05450(15)
C45 C 0.4321(2) -0.3698(2) 0.0583(2)
H26 H 0.4333 -0.4174 0.0025
H27 H 0.3768 -0.3957 0.0781
C46 C 0.5281(3) -0.3663(2) 0.1130(2)
H28 H 0.5342 -0.4345 0.1122
H29 H 0.5837 -0.3466 0.0901
C47 C 0.5375(3) -0.2953(3) 0.2006(2)
H30 H 0.5306 -0.2273 0.2014
H31 H 0.6045 -0.2933 0.2295
C48 C 0.4629(4) -0.3221(4) 0.2469(3)
H32 H 0.3963 -0.3194 0.2213
H33 H 0.4760 -0.2744 0.3035
H34 H 0.4682 -0.3898 0.2459
N3 N 0.66779(16) 0.05369(16) 0.07654(14)
C49 C 0.7328(2) 0.0704(2) 0.02318(18)
H35 H 0.7182 0.1317 0.0135
H36 H 0.7169 0.0137 -0.0300
C50 C 0.8430(2) 0.0815(2) 0.05493(19)
C51 C 0.8790(2) 0.0482(2) 0.1140(2)
H37 H 0.8352 0.0178 0.1376
C52 C 0.9802(3) 0.0587(3) 0.1397(2)
H38 H 1.0056 0.0344 0.1802
C53 C 1.0441(2) 0.1046(3) 0.1064(2)
H39 H 1.1131 0.1126 0.1248
C54 C 1.0087(2) 0.1380(3) 0.0479(2)
H40 H 1.0527 0.1692 0.0250
C55 C 0.9075(2) 0.1267(2) 0.0212(2)
H41 H 0.8825 0.1500 -0.0201
N4 N 0.44564(17) 0.30655(16) 0.27281(15)
C56 C 0.4939(2) 0.3770(2) 0.35611(19)
H42 H 0.4426 0.4077 0.3868
H43 H 0.5372 0.4313 0.3511
C57 C 0.5550(2) 0.3258(2) 0.40380(19)
H44 H 0.5121 0.2707 0.4081
H45 H 0.6073 0.2963 0.3737
C58 C 0.6019(3) 0.3977(3) 0.4885(2)
H46 H 0.6497 0.4490 0.4841
H47 H 0.5502 0.4323 0.5166
C59 C 0.6542(3) 0.3457(3) 0.5392(2)
H48 H 0.6060 0.2995 0.5484
H49 H 0.6874 0.3957 0.5917
H50 H 0.7030 0.3082 0.5104
C60? C 0.7273(16) 0.022(3) 0.2801(16)
H51? H 0.7200 0.0844 0.2701
H52? H 0.7047 -0.0355 0.2281
C61? C 0.5714(8) 0.0446(9) 0.3334(7)
H53? H 0.5773 0.1087 0.3251
H54? H 0.5323 -0.0059 0.2826
C62? C 0.5140(9) 0.0565(9) 0.3949(8)
H55? H 0.5134 -0.0022 0.4101
H56? H 0.4464 0.0636 0.3746
H57? H 0.5422 0.1165 0.4426
C63? C 0.6685(8) 0.0163(9) 0.3404(8)
H58? H 0.6626 -0.0533 0.3382
H59? H 0.7055 0.0593 0.3950
N5? N 1.0522(5) 0.2899(9) 0.6030(7)
C64? C 1.1172(3) 0.3803(3) 0.6117(3)
H60? H 1.1133 0.4340 0.6641
H61? H 1.0924 0.4032 0.5676
C65? C 1.2238(4) 0.3649(4) 0.6091(3)
H62? H 1.2481 0.3414 0.6530
H63? H 1.2626 0.4304 0.6209
C66? C 1.2438(6) 0.2907(7) 0.5284(5)
H64? H 1.2086 0.3030 0.4815
H65? H 1.2239 0.2207 0.5222
C67? C 1.3622(6) 0.3140(10) 0.5370(6)
H66? H 1.3769 0.3447 0.4984
H67? H 1.3912 0.2514 0.5252
H68? H 1.3900 0.3600 0.5926
H69? H 1.0547 0.4252 0.6040
H70? H 1.1230 0.4124 0.6788
H71? H 0.8863 0.3259 0.6853
H72? H 0.7911 0.4072 0.7818
C68? C 0.8700(5) 0.5456(6) 0.8197(4)
H73? H 0.8314 0.5786 0.8588
H74? H 0.9668 0.6686 0.8394
H75? H 1.0620 0.5872 0.7428
O1? O 0.9618(4) 0.4851(5) 0.7332(4)
C69? C 0.9647(7) 0.5511(10) 0.8113(6)
C70? C 0.8984(9) 0.4009(10) 0.7284(8)
C71? C 0.8184(9) 0.4448(12) 0.7816(9)
C72? C 1.2796(7) 0.3296(6) 0.6350(5)
C73? C 1.2901(8) 0.3875(7) 0.5808(6)
O2? O 1.2954(7) 0.2290(6) 0.5886(6)
C74? C 1.3565(6) 0.2515(7) 0.5351(6)
C75? C 1.2486(9) 0.2769(8) 0.5464(10)
C76? C 0.9242(2) -0.2219(2) 0.36077(19)
C77? C 0.8737(2) -0.2455(2) 0.27954(18)
C78? C 0.8576(2) -0.3423(2) 0.2180(2)
H76? H 0.876(2) -0.3893(19) 0.227(2)
C79? C 0.8135(2) -0.3595(2) 0.14015(19)
H77? H 0.8002 -0.4259 0.1008
C80? C 0.7879(2) -0.2799(2) 0.11834(19)
H78? H 0.7591 -0.2916 0.0638
C81? C 0.8046(2) -0.1846(2) 0.17602(19)
H79? H 0.7895 -0.1305 0.1601
C82? C 0.8435(2) -0.1645(2) 0.25818(18)
C83? C 0.8625(2) -0.0667(2) 0.32066(18)
C84? C 0.9215(2) -0.0439(2) 0.39635(17)
C85? C 0.9546(2) -0.12444(19) 0.41710(17)
C86? C 0.9330(2) 0.0630(2) 0.43684(17)
C87? C 0.8799(2) 0.1002(2) 0.38365(17)
C88? C 0.8760(2) 0.2042(2) 0.40108(18)
C89? C 0.8292(2) 0.2432(2) 0.34534(19)
H80? H 0.8019 0.1990 0.2914
C90? C 0.8224(2) 0.3432(2) 0.3675(2)
H81? H 0.7913 0.3678 0.3290
C91? C 0.8610(2) 0.4089(2) 0.4465(2)
H82? H 0.8518 0.4775 0.4630
C92? C 0.9120(3) 0.3748(2) 0.5004(2)
H83? H 0.935(2) 0.411(2) 0.5443(14)
C93? C 0.9251(2) 0.2732(2) 0.47906(19)
C94? C 0.9834(2) 0.2341(2) 0.53049(19)
C95? C 0.9862(2) 0.1327(2) 0.51332(17)
N6? N 0.83349(18) 0.02027(17) 0.31247(15)
C96? C 0.7302(8) 0.0174(12) 0.2746(7)
H84? H 0.7052 -0.0531 0.2397
H85? H 0.7316 0.0552 0.2383
C97? C 0.6560(5) 0.0568(6) 0.3287(4)
H86? H 0.5932 0.0588 0.2956
H87? H 0.6809 0.1255 0.3681
C98? C 0.6394(6) -0.0156(6) 0.3753(5)
H88? H 0.6967 -0.0030 0.4191
H89? H 0.6348 -0.0858 0.3370
C99? C 0.5420(8) -0.0004(8) 0.4139(7)
H90? H 0.5443 0.0701 0.4488
H91? H 0.5372 -0.0421 0.4463
H92? H 0.4844 -0.0199 0.3702
N7? N 1.0264(8) 0.2892(11) 0.6105(9)
C100? C 1.0552(6) 0.3977(6) 0.6474(5)
C101? C 0.9831(5) 0.4489(4) 0.7050(4)
C102? C 0.9026(6) 0.3955(4) 0.7166(5)
C103? C 0.8461(5) 0.4438(5) 0.7739(5)
C104? C 0.9505(5) 0.5990(4) 0.8081(4)
C105? C 1.0070(4) 0.5507(4) 0.7508(4)
C106? C 0.8773(11) 0.5401(11) 0.8457(10)
loop_
_geom_bond_atom_site_label_1
_geom_bond_atom_site_label_2
_geom_bond_site_symmetry_1
_geom_bond_site_symmetry_2
C1 C2 1_555 1_555
C2 H1 1_555 1_555
C3 C2 1_555 1_555
H2 C3 1_555 1_555
C4 C3 1_555 1_555
H3 C4 1_555 1_555
C5 C4 1_555 1_555
H4 C5 1_555 1_555
C6 C1 1_555 1_555
C7 C6 1_555 1_555
C8 C7 1_555 1_555
C9 C8 1_555 1_555
C10 C9 1_555 1_555
C11 C10 1_555 1_555
C12 C11 1_555 1_555
H5 C12 1_555 1_555
C13 C12 1_555 1_555
H6 C13 1_555 1_555
C14 C13 1_555 1_555
H7 C14 1_555 1_555
C15 C14 1_555 1_555
H8 C15 1_555 1_555
C16 C11 1_555 1_555
C17 C16 1_555 1_555
C18 C9 1_555 1_555
C19 C18 1_555 1_555
C20 C19 1_555 1_555
C21 C20 1_555 1_555
C22 C21 1_555 1_555
H9 C22 1_555 1_555
C23 C22 1_555 1_555
H10 C23 1_555 1_555
C24 C23 1_555 1_555
H11 C24 1_555 1_555
C25 C24 1_555 1_555
H12 C25 1_555 1_555
C26 C21 1_555 1_555
C27 C26 1_555 1_555
C28 C19 1_555 1_555
C29 C28 1_555 1_555
C30 C29 1_555 1_555
C31 C30 1_555 1_555
C32 C31 1_555 1_555
H13 C32 1_555 1_555
C33 C32 1_555 1_555
H14 C33 1_555 1_555
C34 C33 1_555 1_555
H15 C34 1_555 1_555
C35 C34 1_555 1_555
H16 C35 1_555 1_555
C36 C31 1_555 1_555
C37 C36 1_555 1_555
C38 C29 1_555 1_555
C39 C8 1_555 1_555
C40 C1 1_555 1_555
N1 C7 1_555 1_555
C41 N1 1_555 1_555
H17 C41 1_555 1_555
H18 C41 1_555 1_555
C42 C41 1_555 1_555
H19 C42 1_555 1_555
H20 C42 1_555 1_555
C43 C42 1_555 1_555
H21 C43 1_555 1_555
H22 C43 1_555 1_555
C44 C43 1_555 1_555
H23 C44 1_555 1_555
H24 C44 1_555 1_555
H25 C44 1_555 1_555
N2 C17 1_555 1_555
C45 N2 1_555 1_555
H26 C45 1_555 1_555
H27 C45 1_555 1_555
C46 C45 1_555 1_555
H28 C46 1_555 1_555
H29 C46 1_555 1_555
C47 C46 1_555 1_555
H30 C47 1_555 1_555
H31 C47 1_555 1_555
C48 C47 1_555 1_555
H32 C48 1_555 1_555
H33 C48 1_555 1_555
H34 C48 1_555 1_555
N3 C27 1_555 1_555
C49 N3 1_555 1_555
H35 C49 1_555 1_555
H36 C49 1_555 1_555
C50 C49 1_555 1_555
C51 C50 1_555 1_555
H37 C51 1_555 1_555
C52 C51 1_555 1_555
H38 C52 1_555 1_555
C53 C52 1_555 1_555
H39 C53 1_555 1_555
C54 C53 1_555 1_555
H40 C54 1_555 1_555
C55 C50 1_555 1_555
H41 C55 1_555 1_555
N4 C37 1_555 1_555
C56 N4 1_555 1_555
H42 C56 1_555 1_555
H43 C56 1_555 1_555
C57 C56 1_555 1_555
H44 C57 1_555 1_555
H45 C57 1_555 1_555
C58 C57 1_555 1_555
H46 C58 1_555 1_555
H47 C58 1_555 1_555
C59 C58 1_555 1_555
H48 C59 1_555 1_555
H49 C59 1_555 1_555
H50 C59 1_555 1_555
C5 C6 1_555 1_555
C10 N1 1_555 1_555
C15 C16 1_555 1_555
C17 C18 1_555 1_555
C20 N2 1_555 1_555
C25 C26 1_555 1_555
C27 C28 1_555 1_555
C30 N3 1_555 1_555
C35 C36 1_555 1_555
C37 C38 1_555 1_555
C38 C39 1_555 1_555
C39 C40 1_555 1_555
C40 N4 1_555 1_555
C54 C55 1_555 1_555

#END
