
#######################################################################
#
#                 Cambridge Crystallographic Data Centre
#                                CCDC 
#
#######################################################################
#
# If this CIF has been generated from an entry in the Cambridge 
# Structural Database, then it will include bibliographic, chemical, 
# crystal, experimental, refinement or atomic coordinate data resulting 
# from the CCDC's data processing and validation procedures.
#
#######################################################################

data_GEMWED
_chemical_name_common            
'opp-di-N-butyltetrabenzotetraaza[8]circulene tetrahydrofuran solvate'
_chemical_formula_moiety         'C48 H36 N4,2(C4 H8 O1)'
_chemical_name_systematic        
'5,15-dibutyl-5,10,15,20-tetrahydro-5,10,15,20-tetraazatetracyclopenta[fgh,pqr,za_1_b_1_,j_1_k_1_l_1_]tetranaphthylene tetrahydrofuran solvate'
_symmetry_cell_setting           triclinic
_symmetry_space_group_name_H-M   'P -1'
_symmetry_Int_Tables_number      2
_space_group_name_Hall           '-P 1'
loop_
_symmetry_equiv_pos_site_id
_symmetry_equiv_pos_as_xyz
1 x,y,z
2 -x,-y,-z
_cell_length_a                   6.489(3)
_cell_length_b                   11.181(5)
_cell_length_c                   14.324(6)
_cell_angle_alpha                77.599(19)
_cell_angle_beta                 79.52(4)
_cell_angle_gamma                84.77(4)
_cell_volume                     996.608
_exptl_crystal_colour            colorless
_exptl_crystal_description       prism
_cell_formula_units_Z            1
_exptl_crystal_recrystallization_method 'Vapour deposition'
loop_
_atom_site_label
_atom_site_type_symbol
_atom_site_fract_x
_atom_site_fract_y
_atom_site_fract_z
N1 N 0.46829(18) 0.82423(11) 0.76369(8)
H1 H 0.4616 0.7839 0.8240
C1 C 0.6062(2) 0.91255(13) 0.71755(10)
C2 C 0.7638(2) 0.95344(13) 0.75833(10)
C3 C 0.3426(2) 0.80898(13) 0.70039(10)
C4 C 0.1817(2) 0.72443(13) 0.71994(10)
C5 C 0.7032(2) 1.04844(12) 0.56252(10)
C6 C 0.8965(2) 1.04591(13) 0.69946(10)
N2 N 0.03430(18) 0.81980(11) 0.46960(8)
C7 C 0.1221(2) 0.80579(13) 0.55360(10)
C8 C 0.0666(2) 0.72121(13) 0.64474(10)
C9 C 0.5693(2) 0.95634(12) 0.62268(10)
C10 C 0.9430(2) 0.94339(14) 0.89417(11)
H2 H 0.9588 0.9097 0.9594
C11 C -0.0135(2) 0.55976(14) 0.82758(11)
H3 H -0.0413 0.5053 0.8887
C12 C 0.8590(2) 1.09067(13) 0.60135(10)
C13 C 1.0505(2) 1.08326(14) 0.74381(10)
H4 H 1.1406 1.1452 0.7073
C14 C -0.0873(2) 0.63350(15) 0.66584(11)
H5 H -0.1662 0.6282 0.6172
C15 C 0.1373(2) 0.64276(13) 0.81050(10)
H6 H 0.2141 0.6458 0.8604
C16 C 1.0743(2) 1.03323(15) 0.83760(11)
H7 H 1.1814 1.0600 0.8643
C17 C 0.7916(2) 0.90458(14) 0.85470(10)
H8 H 0.7027 0.8431 0.8931
C18 C 0.3988(2) 0.88952(13) 0.61177(10)
C19 C -0.1264(3) 0.55576(16) 0.75438(11)
H9 H -0.2320 0.4983 0.7660
C20 C -0.1883(4) 0.6723(2) 0.42449(17)
H10 H -0.0813 0.6755 0.3653
H11 H -0.1558 0.5979 0.4722
C21 C -0.1801(3) 0.78655(18) 0.46668(13)
H12 H -0.2507 0.8569 0.4276
H13 H -0.2604 0.7727 0.5334
C22 C -0.4325(4) 0.5475(2) 0.36748(14)
H14 H -0.3305 0.5414 0.3089
H15 H -0.5750 0.5482 0.3535
H16 H -0.4097 0.4770 0.4192
C23 C -0.4051(5) 0.6652(3) 0.39972(17)
H17 H -0.5123 0.6721 0.4574
H18 H -0.4303 0.7358 0.3474
C24 C 0.7158(2) 1.11340(12) 0.46449(10)
N1A N 0.53171(18) 1.17577(11) 0.23631(8)
H1A H 0.5384 1.2161 0.1760
C1A C 0.3938(2) 1.08745(13) 0.28245(10)
C2A C 0.2362(2) 1.04656(13) 0.24167(10)
C3A C 0.6574(2) 1.19102(13) 0.29961(10)
C4A C 0.8183(2) 1.27557(13) 0.28006(10)
C5A C 0.2968(2) 0.95156(12) 0.43748(10)
C6A C 0.1035(2) 0.95409(13) 0.30054(10)
N2A N 0.96570(18) 1.18020(11) 0.53040(8)
C7A C 0.8779(2) 1.19421(13) 0.44640(10)
C8A C 0.9334(2) 1.27879(13) 0.35526(10)
C9A C 0.4307(2) 1.04366(12) 0.37732(10)
C10A C 0.0570(2) 1.05661(14) 0.10583(11)
H2A H 0.0412 1.0903 0.0406
C11A C 1.0135(2) 1.44024(14) 0.17242(11)
H3A H 1.0413 1.4947 0.1113
C12A C 0.1410(2) 0.90933(13) 0.39865(10)
C13A C -0.0505(2) 0.91674(14) 0.25619(10)
H4A H -0.1406 0.8548 0.2927
C14A C 1.0873(2) 1.36650(15) 0.33416(11)
H5A H 1.1662 1.3718 0.3828
C15A C 0.8627(2) 1.35724(13) 0.18950(10)
H6A H 0.7859 1.3542 0.1396
C16A C -0.0743(2) 0.96677(15) 0.16240(11)
H7A H -0.1814 0.9400 0.1357
C17A C 0.2084(2) 1.09542(14) 0.14530(10)
H8A H 0.2973 1.1569 0.1069
C18A C 0.6012(2) 1.11048(13) 0.38823(10)
C19A C 1.1264(3) 1.44424(16) 0.24562(11)
H9A H 1.2320 1.5017 0.2340
C20A C 1.1883(4) 1.3277(2) 0.57551(17)
H10A H 1.0813 1.3245 0.6347
H11A H 1.1558 1.4021 0.5278
C21A C 1.1801(3) 1.21345(18) 0.53332(13)
H12A H 1.2507 1.1431 0.5724
H13A H 1.2604 1.2273 0.4666
C22A C 1.4325(4) 1.4525(2) 0.63252(14)
H14A H 1.3305 1.4586 0.6911
H15A H 1.5750 1.4518 0.6465
H16A H 1.4097 1.5230 0.5808
C23A C 1.4051(5) 1.3348(3) 0.60028(17)
H17A H 1.5123 1.3279 0.5426
H18A H 1.4303 1.2642 0.6526
C24A C 0.2842(2) 0.88660(12) 0.53551(10)
O1 O 0.42870(18) 0.69488(11) 0.98663(8)
C29 C 0.6354(3) 0.70397(16) 1.10199(12)
H28 H 0.7444 0.7603 1.0650
H29 H 0.6860 0.6547 1.1604
C30 C 0.5772(3) 0.62352(16) 1.04055(12)
H30 H 0.7025 0.5993 0.9964
H31 H 0.5145 0.5484 1.0817
C31 C 0.3160(3) 0.77698(17) 1.04482(13)
H32 H 0.1707 0.7514 1.0694
H33 H 0.3099 0.8614 1.0057
C32 C 0.4301(3) 0.7731(2) 1.12844(16)
H34 H 0.4536 0.8569 1.1350
H35 H 0.3498 0.7297 1.1900
C25? C -0.0324(11) 0.7061(6) 0.4425(4)
H19? H 0.0099 0.6322 0.4883
H20? H 0.0412 0.7000 0.3767
C26? C -0.5478(13) 0.6254(7) 0.3802(5)
H21? H -0.6343 0.6058 0.4445
H22? H -0.5699 0.5666 0.3416
H23? H -0.5877 0.7085 0.3477
C27? C -0.3189(15) 0.6184(9) 0.3904(6)
H24? H -0.2807 0.5348 0.4246
H25? H -0.2321 0.6326 0.3251
C28? C -0.2693(15) 0.7094(8) 0.4447(6)
H26? H -0.3422 0.6899 0.5127
H27? H -0.3194 0.7927 0.4149
loop_
_geom_bond_atom_site_label_1
_geom_bond_atom_site_label_2
_geom_bond_site_symmetry_1
_geom_bond_site_symmetry_2
N1 H1 1_555 1_555
C1 N1 1_555 1_555
C2 C1 1_555 1_555
C3 N1 1_555 1_555
C4 C3 1_555 1_555
C5 C9 1_555 1_555
C6 C2 1_555 1_555
N2 C7 1_555 1_555
C7 C8 1_555 1_555
C8 C4 1_555 1_555
C9 C1 1_555 1_555
C10 H2 1_555 1_555
C11 H3 1_555 1_555
C12 C5 1_555 1_555
C13 C6 1_555 1_555
H4 C13 1_555 1_555
C14 C8 1_555 1_555
H5 C14 1_555 1_555
C15 C4 1_555 1_555
H6 C15 1_555 1_555
C16 C10 1_555 1_555
H7 C16 1_555 1_555
C17 C2 1_555 1_555
H8 C17 1_555 1_555
C18 C3 1_555 1_555
C19 C11 1_555 1_555
H9 C19 1_555 1_555
C20 H10 1_555 1_555
H11 C20 1_555 1_555
C21 N2 1_555 1_555
H12 C21 1_555 1_555
H13 C21 1_555 1_555
C22 H14 1_555 1_555
H15 C22 1_555 1_555
H16 C22 1_555 1_555
C23 C20 1_555 1_555
H17 C23 1_555 1_555
H18 C23 1_555 1_555
C24 C5 1_555 1_555
O1 C30 1_555 1_555
C29 H28 1_555 1_555
H29 C29 1_555 1_555
C30 C29 1_555 1_555
H30 C30 1_555 1_555
H31 C30 1_555 1_555
C31 O1 1_555 1_555
H32 C31 1_555 1_555
H33 C31 1_555 1_555
C32 C29 1_555 1_555
H34 C32 1_555 1_555
H35 C32 1_555 1_555
N1A H1A 1_555 1_555
C1A N1A 1_555 1_555
C2A C1A 1_555 1_555
C3A N1A 1_555 1_555
C4A C3A 1_555 1_555
C5A C9A 1_555 1_555
C6A C2A 1_555 1_555
N2A C12 1_555 1_555
C7A C24 1_555 1_555
C8A C4A 1_555 1_555
C9A C1A 1_555 1_555
C10A H2A 1_555 1_555
C11A H3A 1_555 1_555
C12A N2 1_555 1_555
C13A C6A 1_555 1_555
H4A C13A 1_555 1_555
C14A C8A 1_555 1_555
H5A C14A 1_555 1_555
C15A C4A 1_555 1_555
H6A C15A 1_555 1_555
C16A C10A 1_555 1_555
H7A C16A 1_555 1_555
C17A C2A 1_555 1_555
H8A C17A 1_555 1_555
C18A C24 1_555 1_555
C19A C11A 1_555 1_555
H9A C19A 1_555 1_555
C20A H10A 1_555 1_555
H11A C20A 1_555 1_555
C21A N2A 1_555 1_555
H12A C21A 1_555 1_555
H13A C21A 1_555 1_555
C22A H14A 1_555 1_555
H15A C22A 1_555 1_555
H16A C22A 1_555 1_555
C23A C20A 1_555 1_555
H17A C23A 1_555 1_555
H18A C23A 1_555 1_555
C24A C7 1_555 1_555
C6 C12 1_555 1_555
C9 C18 1_555 1_555
C10 C17 1_555 1_555
C11 C15 1_555 1_555
C13 C16 1_555 1_555
C14 C19 1_555 1_555
C18 C24A 1_555 1_555
C20 C21 1_555 1_555
C22 C23 1_555 1_555
C31 C32 1_555 1_555
C3A C18A 1_555 1_555
C5A C12A 1_555 1_555
C5A C24A 1_555 1_555
C6A C12A 1_555 1_555
N2A C7A 1_555 1_555
C7A C8A 1_555 1_555
C9A C18A 1_555 1_555
C10A C17A 1_555 1_555
C11A C15A 1_555 1_555
C13A C16A 1_555 1_555
C14A C19A 1_555 1_555
C20A C21A 1_555 1_555
C22A C23A 1_555 1_555

#END
