
#######################################################################
#
#                 Cambridge Crystallographic Data Centre
#                                CCDC 
#
#######################################################################
#
# If this CIF has been generated from an entry in the Cambridge 
# Structural Database, then it will include bibliographic, chemical, 
# crystal, experimental, refinement or atomic coordinate data resulting 
# from the CCDC's data processing and validation procedures.
#
#######################################################################

data_GEMWED01
_chemical_name_common            
'opp-di-N-butyltetrabenzotetraaza[8]circulene tetrahydrofuran solvate'
_chemical_formula_moiety         'C48 H36 N4,2(C4 H8 O1)'
_chemical_name_systematic        
'5,15-dibutyl-5,10,15,20-tetrahydro-5,10,15,20-tetraazatetracyclopenta[fgh,pqr,za_1_b_1_,j_1_k_1_l_1_]tetranaphthylene tetrahydrofuran solvate'
_symmetry_cell_setting           monoclinic
_symmetry_space_group_name_H-M   'P 21/a'
_symmetry_Int_Tables_number      14
_space_group_name_Hall           '-P 2yab'
loop_
_symmetry_equiv_pos_site_id
_symmetry_equiv_pos_as_xyz
1 x,y,z
2 1/2-x,1/2+y,-z
3 -x,-y,-z
4 1/2+x,1/2-y,z
_cell_length_a                   13.299(2)
_cell_length_b                   10.7982(16)
_cell_length_c                   15.038(3)
_cell_angle_alpha                90
_cell_angle_beta                 110.676(5)
_cell_angle_gamma                90
_cell_volume                     2020.44
_exptl_crystal_colour            yellow
_exptl_crystal_description       prism
_cell_formula_units_Z            2
_exptl_crystal_recrystallization_method 'Vapour deposition'
loop_
_atom_site_label
_atom_site_type_symbol
_atom_site_fract_x
_atom_site_fract_y
_atom_site_fract_z
C1 C 0.61623(15) 0.38898(17) 0.05058(13)
C2 C 0.59000(15) 0.45623(17) 0.12165(13)
C3 C 0.65059(15) 0.43139(18) 0.21669(13)
C4 C 0.73477(15) 0.34213(17) 0.24746(13)
C5 C 0.76246(16) 0.27655(18) 0.17675(13)
C6 C 0.84382(17) 0.1857(2) 0.20798(14)
H1 H 0.8621 0.1392 0.1623
C7 C 0.89703(17) 0.1632(2) 0.30298(14)
H2 H 0.9520 0.1022 0.3221
C8 C 0.87084(16) 0.22959(19) 0.37170(14)
H3 H 0.9086 0.2144 0.4373
C9 C 0.79071(16) 0.31640(18) 0.34428(13)
H4 H 0.7725 0.3601 0.3913
C10 C 0.51426(15) 0.55097(17) 0.12157(13)
C11 C 0.53359(15) 0.57959(17) 0.21693(13)
N1 N 0.61601(12) 0.50657(15) 0.27398(11)
H5 H 0.6422 0.5078 0.3365
C12 C 0.47810(15) 0.67365(18) 0.24803(13)
C13 C 0.50453(15) 0.70491(18) 0.34477(13)
H6 H 0.5566 0.6574 0.3922
C14 C 0.45587(16) 0.80318(19) 0.37109(14)
H7 H 0.4725 0.8217 0.4365
C15 C 0.38186(17) 0.8759(2) 0.30164(14)
H8 H 0.3513 0.9465 0.3200
C16 C 0.35280(16) 0.84653(18) 0.20713(14)
H9 H 0.3027 0.8975 0.1609
C17 C 0.39613(15) 0.74184(18) 0.17746(13)
C18 C 0.36871(16) 0.70217(18) 0.08027(13)
C19 C 0.42828(15) 0.61470(17) 0.05111(13)
C20 C 0.29784(16) 0.69464(18) -0.07894(13)
C21 C 0.17827(16) 0.7745(2) 0.00656(14)
H10 H 0.1497 0.8515 -0.0291
H11 H 0.1861 0.7886 0.0737
C22 C 0.09794(17) 0.6702(2) -0.03361(15)
H12 H 0.0873 0.6588 -0.1017
H13 H 0.0279 0.6939 -0.0292
C23 C 0.13450(18) 0.5473(2) 0.01862(16)
H14 H 0.0831 0.4816 -0.0147
H15 H 0.2056 0.5251 0.0160
C24 C 0.1425(2) 0.5514(2) 0.12196(17)
H16 H 0.2050 0.6012 0.1588
H17 H 0.1507 0.4671 0.1476
H18 H 0.0772 0.5887 0.1261
N2 N 0.28569(13) 0.74832(15) 0.00146(11)
C1B C 0.38377(15) 0.61102(17) -0.05058(13)
C2B C 0.41000(15) 0.54377(17) -0.12165(13)
C3B C 0.34941(15) 0.56861(18) -0.21669(13)
C4B C 0.26523(15) 0.65787(17) -0.24746(13)
C5B C 0.23754(16) 0.72345(18) -0.17675(13)
C6B C 0.15618(17) 0.8143(2) -0.20798(14)
H1B H 0.1379 0.8608 -0.1623
C7B C 0.10297(17) 0.8368(2) -0.30298(14)
H2B H 0.0480 0.8978 -0.3221
C8B C 0.12916(16) 0.77041(19) -0.37170(14)
H3B H 0.0914 0.7856 -0.4373
C9B C 0.20929(16) 0.68360(18) -0.34428(13)
H4B H 0.2275 0.6399 -0.3913
C10B C 0.48574(15) 0.44903(17) -0.12157(13)
C11B C 0.46641(15) 0.42041(17) -0.21693(13)
N1B N 0.38399(12) 0.49343(15) -0.27398(11)
H5B H 0.3578 0.4922 -0.3365
C12B C 0.52190(15) 0.32635(18) -0.24803(13)
C13B C 0.49547(15) 0.29509(18) -0.34477(13)
H6B H 0.4434 0.3426 -0.3922
C14B C 0.54413(16) 0.19682(19) -0.37109(14)
H7B H 0.5275 0.1783 -0.4365
C15B C 0.61814(17) 0.1241(2) -0.30164(14)
H8B H 0.6487 0.0535 -0.3200
C16B C 0.64720(16) 0.15347(18) -0.20713(14)
H9B H 0.6973 0.1025 -0.1609
C17B C 0.60387(15) 0.25816(18) -0.17746(13)
C18B C 0.63129(16) 0.29783(18) -0.08027(13)
C19B C 0.57172(15) 0.38530(17) -0.05111(13)
C20B C 0.70216(16) 0.30536(18) 0.07894(13)
C21B C 0.82173(16) 0.2255(2) -0.00656(14)
H10B H 0.8503 0.1485 0.0291
H11B H 0.8139 0.2114 -0.0737
C22B C 0.90206(17) 0.3298(2) 0.03361(15)
H12B H 0.9127 0.3412 0.1017
H13B H 0.9721 0.3061 0.0292
C23B C 0.86550(18) 0.4527(2) -0.01862(16)
H14B H 0.9169 0.5184 0.0147
H15B H 0.7944 0.4749 -0.0160
C24B C 0.8575(2) 0.4486(2) -0.12196(17)
H16B H 0.7950 0.3988 -0.1588
H17B H 0.8493 0.5329 -0.1476
H18B H 0.9228 0.4113 -0.1261
N2B N 0.71431(13) 0.25168(15) -0.00146(11)
C25 C 0.16376(18) 0.0680(2) 0.52969(15)
H19 H 0.1084 0.0271 0.5494
H20 H 0.1302 0.1385 0.4875
C26 C 0.25628(19) 0.1123(2) 0.61569(16)
H21 H 0.2317 0.1342 0.6686
H22 H 0.2925 0.1848 0.6000
C27 C 0.31686(18) -0.0515(2) 0.54304(15)
H23 H 0.3709 -0.0150 0.5193
H24 H 0.3258 -0.1426 0.5460
C28 C 0.32988(18) 0.0000(2) 0.64022(15)
H25 H 0.4053 0.0242 0.6755
H26 H 0.3067 -0.0607 0.6784
O1 O 0.20925(12) -0.01836(14) 0.48162(10)
loop_
_geom_bond_atom_site_label_1
_geom_bond_atom_site_label_2
_geom_bond_site_symmetry_1
_geom_bond_site_symmetry_2
C1 C2 1_555 1_555
C2 C3 1_555 1_555
C3 C4 1_555 1_555
C4 C5 1_555 1_555
C5 C6 1_555 1_555
C6 H1 1_555 1_555
C7 C6 1_555 1_555
H2 C7 1_555 1_555
C8 C7 1_555 1_555
H3 C8 1_555 1_555
C9 C4 1_555 1_555
H4 C9 1_555 1_555
C10 C2 1_555 1_555
C11 C10 1_555 1_555
N1 C3 1_555 1_555
H5 N1 1_555 1_555
C12 C11 1_555 1_555
C13 C12 1_555 1_555
H6 C13 1_555 1_555
C14 C13 1_555 1_555
H7 C14 1_555 1_555
C15 C14 1_555 1_555
H8 C15 1_555 1_555
C16 C15 1_555 1_555
H9 C16 1_555 1_555
C17 C12 1_555 1_555
C18 C17 1_555 1_555
C19 C10 1_555 1_555
C20 N2 1_555 1_555
C21 H10 1_555 1_555
H11 C21 1_555 1_555
C22 C21 1_555 1_555
H12 C22 1_555 1_555
H13 C22 1_555 1_555
C23 C22 1_555 1_555
H14 C23 1_555 1_555
H15 C23 1_555 1_555
C24 C23 1_555 1_555
H16 C24 1_555 1_555
H17 C24 1_555 1_555
H18 C24 1_555 1_555
N2 C18 1_555 1_555
C25 H19 1_555 1_555
H20 C25 1_555 1_555
C26 C25 1_555 1_555
H21 C26 1_555 1_555
H22 C26 1_555 1_555
C27 H23 1_555 1_555
H24 C27 1_555 1_555
C28 C26 1_555 1_555
H25 C28 1_555 1_555
H26 C28 1_555 1_555
O1 C25 1_555 1_555
C1B C19 1_555 1_555
C2B C1B 1_555 1_555
C3B C2B 1_555 1_555
C4B C3B 1_555 1_555
C5B C20 1_555 1_555
C6B C5B 1_555 1_555
H1B C6B 1_555 1_555
C7B C6B 1_555 1_555
H2B C7B 1_555 1_555
C8B C7B 1_555 1_555
H3B C8B 1_555 1_555
C9B C4B 1_555 1_555
H4B C9B 1_555 1_555
C10B C2B 1_555 1_555
C11B C10B 1_555 1_555
N1B C3B 1_555 1_555
H5B N1B 1_555 1_555
C12B C11B 1_555 1_555
C13B C12B 1_555 1_555
H6B C13B 1_555 1_555
C14B C13B 1_555 1_555
H7B C14B 1_555 1_555
C15B C14B 1_555 1_555
H8B C15B 1_555 1_555
C16B C15B 1_555 1_555
H9B C16B 1_555 1_555
C17B C12B 1_555 1_555
C18B C17B 1_555 1_555
C19B C1 1_555 1_555
C20B C1 1_555 1_555
C21B H10B 1_555 1_555
H11B C21B 1_555 1_555
C22B C21B 1_555 1_555
H12B C22B 1_555 1_555
H13B C22B 1_555 1_555
C23B C22B 1_555 1_555
H14B C23B 1_555 1_555
H15B C23B 1_555 1_555
C24B C23B 1_555 1_555
H16B C24B 1_555 1_555
H17B C24B 1_555 1_555
H18B C24B 1_555 1_555
N2B C18B 1_555 1_555
C5 C20B 1_555 1_555
C8 C9 1_555 1_555
C11 N1 1_555 1_555
C16 C17 1_555 1_555
C18 C19 1_555 1_555
C20 C1B 1_555 1_555
C21 N2 1_555 1_555
C27 C28 1_555 1_555
C27 O1 1_555 1_555
C4B C5B 1_555 1_555
C8B C9B 1_555 1_555
C10B C19B 1_555 1_555
C11B N1B 1_555 1_555
C16B C17B 1_555 1_555
C18B C19B 1_555 1_555
C20B N2B 1_555 1_555
C21B N2B 1_555 1_555

#END
