
#######################################################################
#
#                 Cambridge Crystallographic Data Centre
#                                CCDC 
#
#######################################################################
#
# If this CIF has been generated from an entry in the Cambridge 
# Structural Database, then it will include bibliographic, chemical, 
# crystal, experimental, refinement or atomic coordinate data resulting 
# from the CCDC's data processing and validation procedures.
#
#######################################################################

data_GEMXEE
_chemical_formula_moiety         'C20 H18 N2 O4,H2 O1'
_chemical_name_systematic        
"12,14-dimethyl-10c,14-dihydro-2H,3H-naphtho[1'',2'':5',6']pyrano[4',3':4,5]pyrano[2,3-d]pyrimidine-11,13(2aH,12H)-dione monohydrate"
_symmetry_cell_setting           monoclinic
_symmetry_space_group_name_H-M   'P 21/n'
_symmetry_Int_Tables_number      14
_space_group_name_Hall           '-P 2yn'
loop_
_symmetry_equiv_pos_site_id
_symmetry_equiv_pos_as_xyz
1 x,y,z
2 1/2-x,1/2+y,1/2-z
3 -x,-y,-z
4 1/2+x,1/2-y,1/2+z
_cell_length_a                   11.3553(9)
_cell_length_b                   8.9579(7)
_cell_length_c                   17.5249(13)
_cell_angle_alpha                90
_cell_angle_beta                 105.819(2)
_cell_angle_gamma                90
_cell_volume                     1715.11
_exptl_crystal_colour            colorless
_exptl_crystal_description       needle
_cell_formula_units_Z            4
loop_
_atom_site_label
_atom_site_type_symbol
_atom_site_fract_x
_atom_site_fract_y
_atom_site_fract_z
C1 C 0.6639(3) 0.9889(6) 0.1327(2)
C2 C 0.2559(3) 0.7782(3) 0.03456(15)
H1 H 0.1789 0.7753 0.0473
H2 H 0.2865 0.6784 0.0339
H3 H 0.2448 0.8229 -0.0167
C3 C 0.4591(2) 0.8817(3) 0.08460(15)
C4 C 0.3075(2) 0.9201(3) 0.15932(13)
C5 C 0.39719(19) 0.9982(2) 0.21893(13)
C6 C 0.5069(2) 1.0229(3) 0.20529(14)
C7 C 0.5682(3) 1.1884(3) 0.31371(17)
C8 C 0.4901(2) 1.0980(3) 0.35329(15)
C9 C 0.3685(2) 1.0603(3) 0.29264(13)
C10 C 0.5581(2) 0.9587(3) 0.38953(18)
C11 C 0.3617(2) 0.8630(3) 0.39091(15)
C12 C 0.3047(3) 0.7740(3) 0.43720(16)
C13 C 0.1844(3) 0.7906(3) 0.43027(16)
C14 C 0.1138(2) 0.8955(3) 0.37680(14)
C15 C -0.0105(3) 0.9199(4) 0.3732(2)
C16 C -0.0777(3) 1.0213(4) 0.3225(2)
C17 C -0.0252(2) 1.1023(3) 0.27181(19)
C18 C 0.0956(2) 1.0816(3) 0.27392(16)
C19 C 0.1698(2) 0.9793(3) 0.32715(13)
C20 C 0.2978(2) 0.9601(2) 0.33483(13)
N1 N 0.34360(18) 0.8665(2) 0.09428(11)
N2 N 0.53977(17) 0.9658(2) 0.14129(12)
O1 O 0.48789(18) 0.8268(2) 0.02861(11)
O2 O 0.20180(15) 0.89707(19) 0.16217(10)
O3 O 0.59909(14) 1.1028(2) 0.25145(10)
O4 O 0.48607(17) 0.8446(2) 0.40836(14)
H4 H 0.724(3) 0.946(4) 0.176(2)
H5 H 0.679(4) 1.104(6) 0.135(3)
H6 H 0.671(3) 0.951(4) 0.084(3)
H7 H 0.528(2) 1.279(3) 0.2901(14)
H8 H 0.649(3) 1.213(3) 0.3511(16)
H9 H 0.144(2) 0.731(3) 0.4623(16)
H10 H 0.473(2) 1.161(3) 0.3953(16)
H11 H 0.324(2) 1.157(3) 0.2795(13)
H12 H 0.598(3) 0.903(4) 0.3520(19)
H13 H 0.619(3) 0.984(4) 0.436(2)
H14 H 0.354(3) 0.704(3) 0.4754(17)
H15 H -0.046(3) 0.860(4) 0.4075(19)
H16 H -0.156(3) 1.038(4) 0.323(2)
H17 H -0.074(3) 1.174(3) 0.2277(18)
H18 H 0.128(2) 1.138(3) 0.2378(15)
O5 O -0.0370(3) 0.9838(3) 0.07699(17)
loop_
_geom_bond_atom_site_label_1
_geom_bond_atom_site_label_2
_geom_bond_site_symmetry_1
_geom_bond_site_symmetry_2
C1 N2 1_555 1_555
C2 H1 1_555 1_555
H2 C2 1_555 1_555
H3 C2 1_555 1_555
C3 N1 1_555 1_555
C4 C5 1_555 1_555
C5 C6 1_555 1_555
C6 N2 1_555 1_555
C7 C8 1_555 1_555
C8 C9 1_555 1_555
C9 C5 1_555 1_555
C10 C8 1_555 1_555
C11 C12 1_555 1_555
C12 C13 1_555 1_555
C13 C14 1_555 1_555
C14 C15 1_555 1_555
C15 C16 1_555 1_555
C16 C17 1_555 1_555
C17 C18 1_555 1_555
C18 C19 1_555 1_555
C19 C14 1_555 1_555
C20 C9 1_555 1_555
N1 C2 1_555 1_555
N2 C3 1_555 1_555
O1 C3 1_555 1_555
O2 C4 1_555 1_555
O3 C6 1_555 1_555
O4 C10 1_555 1_555
H4 C1 1_555 1_555
H5 C1 1_555 1_555
H6 C1 1_555 1_555
H7 C7 1_555 1_555
H8 C7 1_555 1_555
H9 C13 1_555 1_555
H10 C8 1_555 1_555
H11 C9 1_555 1_555
H12 C10 1_555 1_555
H13 C10 1_555 1_555
H14 C12 1_555 1_555
H15 C15 1_555 1_555
H16 C16 1_555 1_555
H17 C17 1_555 1_555
H18 C18 1_555 1_555
C4 N1 1_555 1_555
C7 O3 1_555 1_555
C11 C20 1_555 1_555
C11 O4 1_555 1_555
C19 C20 1_555 1_555

#END
