
#######################################################################
#
#                 Cambridge Crystallographic Data Centre
#                                CCDC 
#
#######################################################################
#
# If this CIF has been generated from an entry in the Cambridge 
# Structural Database, then it will include bibliographic, chemical, 
# crystal, experimental, refinement or atomic coordinate data resulting 
# from the CCDC's data processing and validation procedures.
#
#######################################################################

data_GENFEN
_chemical_formula_moiety         'C54 H72 N7 1+,C1 F3 O3 S1 1-'
_chemical_name_systematic        
'2-(3-{1,3-bis[2,6-di-isopropylphenyl]imidazol-2-ylidene}triaz-1-en-1-yl)-1,3-bis[2,6-di-isopropylphenyl]-1H-imidazol-3-ium trifluoromethanesulfonate'
_symmetry_cell_setting           orthorhombic
_symmetry_space_group_name_H-M   'P b c a'
_symmetry_Int_Tables_number      61
_space_group_name_Hall           '-P 2ac 2ab'
loop_
_symmetry_equiv_pos_site_id
_symmetry_equiv_pos_as_xyz
1 x,y,z
2 1/2-x,-y,1/2+z
3 -x,1/2+y,1/2-z
4 1/2+x,1/2-y,-z
5 -x,-y,-z
6 1/2+x,y,1/2-z
7 x,1/2-y,1/2+z
8 1/2-x,1/2+y,z
_cell_length_a                   22.246(4)
_cell_length_b                   20.400(4)
_cell_length_c                   23.835(5)
_cell_angle_alpha                90
_cell_angle_beta                 90
_cell_angle_gamma                90
_cell_volume                     10816.8
_exptl_crystal_colour            orange
_exptl_crystal_description       plate
_cell_formula_units_Z            8
loop_
_atom_site_label
_atom_site_type_symbol
_atom_site_fract_x
_atom_site_fract_y
_atom_site_fract_z
S1 S 0.74240(2) 0.49338(2) 0.16574(2)
F1 F 0.69874(8) 0.46501(9) 0.06604(6)
F2 F 0.78723(10) 0.50438(9) 0.06416(8)
F3 F 0.77236(10) 0.40473(8) 0.09039(7)
O1 O 0.70053(8) 0.44674(9) 0.18866(7)
O2 O 0.71979(9) 0.55905(8) 0.15904(7)
O3 O 0.80220(8) 0.48951(10) 0.18765(9)
C1 C 0.75135(11) 0.46552(11) 0.09316(9)
N1 N 0.42783(7) 0.80243(7) 0.37120(5)
N2 N 0.47724(7) 0.84868(8) 0.43946(6)
N3 N 0.51914(7) 0.74981(8) 0.40855(6)
N4 N 0.54254(7) 0.72651(7) 0.36187(6)
N5 N 0.57086(7) 0.67251(8) 0.37235(6)
N6 N 0.60058(7) 0.58615(8) 0.31338(6)
N7 N 0.65673(7) 0.67308(8) 0.30717(6)
C2 C 0.47826(8) 0.79788(8) 0.40299(6)
C3 C 0.39515(9) 0.85715(9) 0.38771(7)
H1 H 0.3582 0.8717 0.3721
C4 C 0.42583(9) 0.88580(9) 0.43012(7)
H2 H 0.4143 0.9242 0.4499
C5 C 0.40459(7) 0.75435(8) 0.33209(6)
C6 C 0.38274(8) 0.69492(9) 0.35298(7)
C7 C 0.35932(9) 0.65036(9) 0.31407(8)
H3 H 0.3459 0.6086 0.3264
C8 C 0.35549(9) 0.66655(10) 0.25778(8)
H4 H 0.3393 0.6358 0.2319
C9 C 0.37503(9) 0.72714(11) 0.23865(7)
H5 H 0.3706 0.7380 0.2001
C10 C 0.40112(8) 0.77232(9) 0.27534(6)
C11 C 0.38201(9) 0.67873(10) 0.41506(8)
H6 H 0.4025 0.7153 0.4354
C12 C 0.41708(13) 0.61531(13) 0.42686(11)
H7 H 0.4160 0.6058 0.4672
H8 H 0.3987 0.5790 0.4062
H9 H 0.4589 0.6207 0.4148
C13 C 0.31707(11) 0.67453(12) 0.43684(9)
H10 H 0.3175 0.6641 0.4770
H11 H 0.2969 0.7167 0.4310
H12 H 0.2954 0.6402 0.4164
C14 C 0.42755(9) 0.83664(10) 0.25473(7)
H13 H 0.4258 0.8678 0.2871
C15 C 0.49244(11) 0.82772(16) 0.24118(16)
H14 H 0.5128 0.8069 0.2730
H15 H 0.4964 0.7999 0.2079
H16 H 0.5108 0.8705 0.2338
C16 C 0.39328(12) 0.86871(14) 0.20713(11)
H17 H 0.3510 0.8736 0.2178
H18 H 0.4105 0.9120 0.1994
H19 H 0.3962 0.8413 0.1735
C17 C 0.52257(9) 0.86120(9) 0.48158(7)
C18 C 0.52216(10) 0.82332(10) 0.53048(7)
C19 C 0.56646(12) 0.83747(12) 0.57058(8)
H20 H 0.5680 0.8127 0.6043
C20 C 0.60784(12) 0.88677(14) 0.56185(9)
H21 H 0.6372 0.8959 0.5897
C21 C 0.60699(11) 0.92316(13) 0.51264(9)
H22 H 0.6360 0.9567 0.5072
C22 C 0.56404(9) 0.91129(10) 0.47090(8)
C23 C 0.56446(11) 0.94873(11) 0.41578(8)
H23 H 0.5230 0.9459 0.3997
C24 C 0.6067(2) 0.91592(18) 0.37450(13)
H24 H 0.6067 0.9404 0.3391
H25 H 0.6475 0.9153 0.3901
H26 H 0.5933 0.8709 0.3676
C25 C 0.57943(15) 1.02112(13) 0.42254(12)
H27 H 0.5515 1.0411 0.4494
H28 H 0.6207 1.0257 0.4364
H29 H 0.5757 1.0432 0.3862
C26 C 0.47617(11) 0.76982(10) 0.54082(8)
H30 H 0.4548 0.7620 0.5045
C27 C 0.50480(19) 0.70591(17) 0.5578(2)
H31 H 0.4734 0.6730 0.5640
H32 H 0.5318 0.6910 0.5280
H33 H 0.5277 0.7122 0.5925
C28 C 0.42909(12) 0.79132(15) 0.58329(15)
H34 H 0.4112 0.8329 0.5712
H35 H 0.3976 0.7578 0.5859
H36 H 0.4481 0.7971 0.6201
C29 C 0.60574(8) 0.64886(10) 0.32992(7)
C30 C 0.64921(8) 0.56982(10) 0.27977(7)
H37 H 0.6567 0.5285 0.2628
C31 C 0.68399(8) 0.62401(10) 0.27578(7)
H38 H 0.7204 0.6278 0.2553
C32 C 0.55223(8) 0.54333(9) 0.33057(7)
C33 C 0.55763(9) 0.51323(10) 0.38334(7)
C34 C 0.51097(10) 0.47252(10) 0.40026(8)
H39 H 0.5134 0.4508 0.4354
C35 C 0.46077(10) 0.46311(10) 0.36643(9)
H40 H 0.4290 0.4356 0.3789
C36 C 0.45696(9) 0.49363(10) 0.31466(9)
H41 H 0.4225 0.4866 0.2919
C37 C 0.50279(8) 0.53448(9) 0.29514(7)
C38 C 0.61196(11) 0.52317(13) 0.42093(8)
H42 H 0.6386 0.5563 0.4026
C39 C 0.64774(13) 0.45945(17) 0.42677(10)
H43 H 0.6825 0.4669 0.4512
H44 H 0.6220 0.4255 0.4432
H45 H 0.6615 0.4452 0.3897
C40 C 0.59315(13) 0.55051(13) 0.47857(8)
H46 H 0.6289 0.5565 0.5020
H47 H 0.5729 0.5928 0.4735
H48 H 0.5656 0.5196 0.4968
C41 C 0.49678(9) 0.56338(10) 0.23625(7)
H49 H 0.4533 0.5598 0.2261
C42 C 0.53098(11) 0.52115(12) 0.19347(8)
H50 H 0.5198 0.4750 0.1984
H51 H 0.5206 0.5353 0.1554
H52 H 0.5743 0.5262 0.1994
C43 C 0.51329(10) 0.63566(10) 0.22960(8)
H53 H 0.5078 0.6488 0.1904
H54 H 0.4873 0.6623 0.2537
H55 H 0.5554 0.6422 0.2404
C44 C 0.68493(9) 0.73572(12) 0.31875(9)
C45 C 0.70800(10) 0.74694(16) 0.37313(11)
C46 C 0.73743(13) 0.8069(2) 0.38150(14)
H56 H 0.7530 0.8171 0.4176
C47 C 0.74414(15) 0.85074(19) 0.33869(17)
H57 H 0.7647 0.8908 0.3457
C48 C 0.72205(13) 0.83867(15) 0.28567(15)
H58 H 0.7277 0.8701 0.2568
C49 C 0.69138(9) 0.78032(11) 0.27417(11)
C50 C 0.70358(11) 0.69825(19) 0.42057(10)
H59 H 0.6792 0.6601 0.4073
C51 C 0.76641(14) 0.6731(3) 0.43648(16)
H60 H 0.7630 0.6415 0.4673
H61 H 0.7848 0.6517 0.4039
H62 H 0.7915 0.7101 0.4484
C52 C 0.67187(14) 0.7281(2) 0.47171(12)
H63 H 0.6697 0.6955 0.5018
H64 H 0.6945 0.7664 0.4849
H65 H 0.6311 0.7417 0.4612
C53 C 0.66750(10) 0.76817(11) 0.21587(11)
H66 H 0.6376 0.7317 0.2179
C54 C 0.71777(13) 0.74776(16) 0.17526(11)
H67 H 0.7007 0.7403 0.1379
H68 H 0.7480 0.7826 0.1732
H69 H 0.7367 0.7073 0.1888
C55 C 0.63612(12) 0.82839(14) 0.19141(18)
H70 H 0.6214 0.8182 0.1536
H71 H 0.6022 0.8406 0.2154
H72 H 0.6647 0.8649 0.1894
loop_
_geom_bond_atom_site_label_1
_geom_bond_atom_site_label_2
_geom_bond_site_symmetry_1
_geom_bond_site_symmetry_2
S1 O1 1_555 1_555
F1 C1 1_555 1_555
F2 C1 1_555 1_555
F3 C1 1_555 1_555
O2 S1 1_555 1_555
O3 S1 1_555 1_555
C1 S1 1_555 1_555
N1 C2 1_555 1_555
N2 C2 1_555 1_555
N3 N4 1_555 1_555
N4 N5 1_555 1_555
N5 C29 1_555 1_555
N6 C29 1_555 1_555
N7 C29 1_555 1_555
C2 N3 1_555 1_555
C3 N1 1_555 1_555
H1 C3 1_555 1_555
C4 N2 1_555 1_555
H2 C4 1_555 1_555
C5 N1 1_555 1_555
C6 C5 1_555 1_555
C7 C6 1_555 1_555
H3 C7 1_555 1_555
C8 C7 1_555 1_555
H4 C8 1_555 1_555
C9 C8 1_555 1_555
H5 C9 1_555 1_555
C10 C5 1_555 1_555
C11 C6 1_555 1_555
H6 C11 1_555 1_555
C12 C11 1_555 1_555
H7 C12 1_555 1_555
H8 C12 1_555 1_555
H9 C12 1_555 1_555
C13 C11 1_555 1_555
H10 C13 1_555 1_555
H11 C13 1_555 1_555
H12 C13 1_555 1_555
C14 C10 1_555 1_555
H13 C14 1_555 1_555
C15 C14 1_555 1_555
H14 C15 1_555 1_555
H15 C15 1_555 1_555
H16 C15 1_555 1_555
C16 C14 1_555 1_555
H17 C16 1_555 1_555
H18 C16 1_555 1_555
H19 C16 1_555 1_555
C17 N2 1_555 1_555
C18 C17 1_555 1_555
C19 C18 1_555 1_555
H20 C19 1_555 1_555
C20 C19 1_555 1_555
H21 C20 1_555 1_555
C21 C20 1_555 1_555
H22 C21 1_555 1_555
C22 C17 1_555 1_555
C23 C22 1_555 1_555
H23 C23 1_555 1_555
C24 C23 1_555 1_555
H24 C24 1_555 1_555
H25 C24 1_555 1_555
H26 C24 1_555 1_555
C25 C23 1_555 1_555
H27 C25 1_555 1_555
H28 C25 1_555 1_555
H29 C25 1_555 1_555
C26 C18 1_555 1_555
H30 C26 1_555 1_555
C27 C26 1_555 1_555
H31 C27 1_555 1_555
H32 C27 1_555 1_555
H33 C27 1_555 1_555
C28 C26 1_555 1_555
H34 C28 1_555 1_555
H35 C28 1_555 1_555
H36 C28 1_555 1_555
C30 N6 1_555 1_555
H37 C30 1_555 1_555
C31 N7 1_555 1_555
H38 C31 1_555 1_555
C32 N6 1_555 1_555
C33 C32 1_555 1_555
C34 C33 1_555 1_555
H39 C34 1_555 1_555
C35 C34 1_555 1_555
H40 C35 1_555 1_555
C36 C35 1_555 1_555
H41 C36 1_555 1_555
C37 C32 1_555 1_555
C38 C33 1_555 1_555
H42 C38 1_555 1_555
C39 C38 1_555 1_555
H43 C39 1_555 1_555
H44 C39 1_555 1_555
H45 C39 1_555 1_555
C40 C38 1_555 1_555
H46 C40 1_555 1_555
H47 C40 1_555 1_555
H48 C40 1_555 1_555
C41 C37 1_555 1_555
H49 C41 1_555 1_555
C42 C41 1_555 1_555
H50 C42 1_555 1_555
H51 C42 1_555 1_555
H52 C42 1_555 1_555
C43 C41 1_555 1_555
H53 C43 1_555 1_555
H54 C43 1_555 1_555
H55 C43 1_555 1_555
C44 N7 1_555 1_555
C45 C44 1_555 1_555
C46 C45 1_555 1_555
H56 C46 1_555 1_555
C47 C46 1_555 1_555
H57 C47 1_555 1_555
C48 C47 1_555 1_555
H58 C48 1_555 1_555
C49 C44 1_555 1_555
C50 C45 1_555 1_555
H59 C50 1_555 1_555
C51 C50 1_555 1_555
H60 C51 1_555 1_555
H61 C51 1_555 1_555
H62 C51 1_555 1_555
C52 C50 1_555 1_555
H63 C52 1_555 1_555
H64 C52 1_555 1_555
H65 C52 1_555 1_555
C53 C49 1_555 1_555
H66 C53 1_555 1_555
C54 C53 1_555 1_555
H67 C54 1_555 1_555
H68 C54 1_555 1_555
H69 C54 1_555 1_555
C55 C53 1_555 1_555
H70 C55 1_555 1_555
H71 C55 1_555 1_555
H72 C55 1_555 1_555
C3 C4 1_555 1_555
C9 C10 1_555 1_555
C21 C22 1_555 1_555
C30 C31 1_555 1_555
C36 C37 1_555 1_555
C48 C49 1_555 1_555

#END
