
#######################################################################
#
#                 Cambridge Crystallographic Data Centre
#                                CCDC 
#
#######################################################################
#
# If this CIF has been generated from an entry in the Cambridge 
# Structural Database, then it will include bibliographic, chemical, 
# crystal, experimental, refinement or atomic coordinate data resulting 
# from the CCDC's data processing and validation procedures.
#
#######################################################################

data_GENFAJ
_chemical_formula_moiety         'C42 H48 N7 1+,C2 H3 N1,Cl1 1-'
_chemical_name_systematic        
'2-{3-[1,3-bis(2,4,6-trimethylphenyl)-1,3-dihydro-2H-imidazol-2-ylidene]triaz-1-en-1-yl}-1,3-bis(2,4,6-trimethylphenyl)-1H-imidazol-3-ium chloride acetonitrile unknown solvate'
_symmetry_cell_setting           monoclinic
_symmetry_space_group_name_H-M   'C 2/c'
_symmetry_Int_Tables_number      15
_space_group_name_Hall           '-C 2yn'
loop_
_symmetry_equiv_pos_site_id
_symmetry_equiv_pos_as_xyz
1 x,y,z
2 -x,y,1/2-z
3 1/2+x,1/2+y,z
4 1/2-x,1/2+y,1/2-z
5 -x,-y,-z
6 x,-y,1/2+z
7 1/2-x,1/2-y,-z
8 1/2+x,1/2-y,1/2+z
_cell_length_a                   23.316(5)
_cell_length_b                   19.506(4)
_cell_length_c                   21.187(4)
_cell_angle_alpha                90
_cell_angle_beta                 114.64(3)
_cell_angle_gamma                90
_cell_volume                     8758.49
_exptl_crystal_colour            orange
_exptl_crystal_description       block
_cell_formula_units_Z            8
loop_
_atom_site_label
_atom_site_type_symbol
_atom_site_fract_x
_atom_site_fract_y
_atom_site_fract_z
Cl1 Cl 0.39123(2) 0.94821(3) 0.64455(2)
N1 N 0.37602(5) 0.70718(7) 0.38254(7)
N2 N 0.40491(5) 0.87956(7) 0.28998(6)
N3 N 0.48558(5) 0.89762(7) 0.38846(6)
N4 N 0.30681(6) 0.61393(7) 0.35979(7)
N5 N 0.43232(5) 0.79425(7) 0.38463(7)
N6 N 0.37469(5) 0.77064(7) 0.36164(6)
N7 N 0.26612(5) 0.71090(7) 0.37193(7)
C1 C 0.52293(6) 0.89450(8) 0.46252(8)
C2 C 0.43702(6) 0.85471(8) 0.35492(8)
C3 C 0.29795(6) 0.80014(8) 0.46133(8)
C4 C 0.35077(7) 0.56521(8) 0.35367(9)
C5 C 0.26058(7) 0.78020(8) 0.39270(8)
C6 C 0.58746(7) 0.88040(8) 0.48828(8)
C7 C 0.49191(6) 0.90636(8) 0.50546(8)
C8 C 0.43511(7) 0.93905(8) 0.28285(8)
H1 H 0.4227 0.9667 0.2424
C9 C 0.48486(7) 0.94996(8) 0.34375(8)
H2 H 0.5141 0.9867 0.3542
C10 C 0.24685(7) 0.59978(9) 0.35541(8)
H3 H 0.2273 0.5560 0.3485
C11 C 0.52647(7) 0.89794(8) 0.57670(8)
H4 H 0.5059 0.9035 0.6068
C12 C 0.29165(7) 0.86708(9) 0.47975(9)
H5 H 0.3170 0.8821 0.5257
C13 C 0.31791(6) 0.68171(8) 0.36985(8)
C14 C 0.34756(7) 0.85444(8) 0.23503(8)
C15 C 0.22172(7) 0.65942(9) 0.36281(8)
H6 H 0.1810 0.6656 0.3620
C16 C 0.34995(7) 0.79805(9) 0.19603(8)
C17 C 0.42403(7) 0.92830(9) 0.47706(9)
H7 H 0.4173 0.9668 0.4450
H8 H 0.4136 0.9426 0.5154
H9 H 0.3969 0.8899 0.4523
C18 C 0.62000(7) 0.87460(8) 0.56023(9)
H10 H 0.6640 0.8656 0.5794
C19 C 0.24938(8) 0.91296(9) 0.43307(9)
C20 C 0.21609(7) 0.82366(9) 0.34470(9)
C21 C 0.59061(7) 0.88151(8) 0.60498(9)
C22 C 0.29244(7) 0.89194(9) 0.22018(9)
C23 C 0.34393(8) 0.75180(10) 0.51360(9)
H11 H 0.3221 0.7093 0.5151
H12 H 0.3611 0.7733 0.5596
H13 H 0.3784 0.7414 0.5001
C24 C 0.35620(7) 0.56034(9) 0.29085(9)
C25 C 0.29433(8) 0.78017(10) 0.13884(9)
H14 H 0.2943 0.7411 0.1120
C26 C 0.38708(8) 0.52599(10) 0.41164(10)
C27 C 0.62005(7) 0.87075(10) 0.44092(10)
H15 H 0.5976 0.8359 0.4059
H16 H 0.6636 0.8558 0.4681
H17 H 0.6202 0.9142 0.4178
C28 C 0.21137(8) 0.88989(9) 0.36673(10)
H18 H 0.1811 0.9203 0.3352
C29 C 0.40978(8) 0.75825(10) 0.21420(10)
H19 H 0.4437 0.7896 0.2173
H20 H 0.4035 0.7239 0.1782
H21 H 0.4212 0.7353 0.2590
C30 C 0.17498(8) 0.80073(10) 0.27188(9)
H22 H 0.2010 0.7775 0.2521
H23 H 0.1545 0.8407 0.2434
H24 H 0.1427 0.7690 0.2728
C31 C 0.23897(8) 0.87275(10) 0.16170(10)
H25 H 0.2011 0.8981 0.1499
C32 C 0.39958(8) 0.51329(10) 0.28703(10)
H26 H 0.4045 0.5092 0.2449
C33 C 0.24788(9) 0.98631(10) 0.45407(11)
H27 H 0.2653 0.9894 0.5048
H28 H 0.2042 1.0028 0.4342
H29 H 0.2732 1.0145 0.4369
C34 C 0.62523(9) 0.87028(10) 0.68190(9)
H30 H 0.6191 0.9100 0.7067
H31 H 0.6703 0.8644 0.6940
H32 H 0.6089 0.8291 0.6952
C35 C 0.31707(8) 0.60360(11) 0.22959(9)
H33 H 0.2725 0.5909 0.2135
H34 H 0.3306 0.5962 0.1921
H35 H 0.3225 0.6521 0.2430
C36 C 0.43574(8) 0.47228(10) 0.34275(12)
C37 C 0.23905(8) 0.81818(11) 0.12027(10)
C38 C 0.29090(8) 0.94949(10) 0.26632(11)
H36 H 0.3055 0.9328 0.3141
H37 H 0.2476 0.9667 0.2504
H38 H 0.3186 0.9866 0.2646
C39 C 0.42896(8) 0.47880(10) 0.40399(12)
H39 H 0.4534 0.4504 0.4422
C40 C 0.18095(10) 0.80038(13) 0.05577(12)
H40 H 0.1704 0.8386 0.0229
H41 H 0.1456 0.7917 0.0683
H42 H 0.1892 0.7592 0.0343
C41 C 0.48266(10) 0.42155(12) 0.33695(15)
H43 H 0.4648 0.4004 0.2908
H44 H 0.4917 0.3859 0.3724
H45 H 0.5218 0.4456 0.3439
C42 C 0.38212(11) 0.53511(15) 0.47928(12)
H46 H 0.3872 0.5837 0.4922
H47 H 0.4152 0.5083 0.5153
H48 H 0.3407 0.5193 0.4746
N8 N 0.59090(10) 0.57790(13) 0.36995(12)
C43 C 0.55763(9) 0.60856(11) 0.38587(12)
C44 C 0.51600(9) 0.64679(12) 0.40790(13)
H49 H 0.4730 0.6289 0.3842
H50 H 0.5166 0.6953 0.3962
H51 H 0.5302 0.6420 0.4582
loop_
_geom_bond_atom_site_label_1
_geom_bond_atom_site_label_2
_geom_bond_site_symmetry_1
_geom_bond_site_symmetry_2
N1 N6 1_555 1_555
N2 C2 1_555 1_555
N3 C1 1_555 1_555
N4 C4 1_555 1_555
N5 N6 1_555 1_555
N7 C5 1_555 1_555
C1 C6 1_555 1_555
C2 N3 1_555 1_555
C3 C5 1_555 1_555
C4 C24 1_555 1_555
C5 C20 1_555 1_555
C6 C18 1_555 1_555
C7 C1 1_555 1_555
C8 N2 1_555 1_555
H1 C8 1_555 1_555
C9 N3 1_555 1_555
H2 C9 1_555 1_555
C10 N4 1_555 1_555
H3 C10 1_555 1_555
C11 C7 1_555 1_555
H4 C11 1_555 1_555
C12 C3 1_555 1_555
H5 C12 1_555 1_555
C13 N1 1_555 1_555
C14 N2 1_555 1_555
C15 N7 1_555 1_555
H6 C15 1_555 1_555
C16 C14 1_555 1_555
C17 C7 1_555 1_555
H7 C17 1_555 1_555
H8 C17 1_555 1_555
H9 C17 1_555 1_555
C18 H10 1_555 1_555
C19 C12 1_555 1_555
C20 C28 1_555 1_555
C21 C11 1_555 1_555
C22 C14 1_555 1_555
C23 C3 1_555 1_555
H11 C23 1_555 1_555
H12 C23 1_555 1_555
H13 C23 1_555 1_555
C24 C32 1_555 1_555
C25 C16 1_555 1_555
H14 C25 1_555 1_555
C26 C4 1_555 1_555
C27 C6 1_555 1_555
H15 C27 1_555 1_555
H16 C27 1_555 1_555
H17 C27 1_555 1_555
C28 C19 1_555 1_555
H18 C28 1_555 1_555
C29 C16 1_555 1_555
H19 C29 1_555 1_555
H20 C29 1_555 1_555
H21 C29 1_555 1_555
C30 C20 1_555 1_555
H22 C30 1_555 1_555
H23 C30 1_555 1_555
H24 C30 1_555 1_555
C31 C22 1_555 1_555
H25 C31 1_555 1_555
C32 H26 1_555 1_555
C33 C19 1_555 1_555
H27 C33 1_555 1_555
H28 C33 1_555 1_555
H29 C33 1_555 1_555
C34 C21 1_555 1_555
H30 C34 1_555 1_555
H31 C34 1_555 1_555
H32 C34 1_555 1_555
C35 C24 1_555 1_555
H33 C35 1_555 1_555
H34 C35 1_555 1_555
H35 C35 1_555 1_555
C36 C32 1_555 1_555
C37 C25 1_555 1_555
C38 C22 1_555 1_555
H36 C38 1_555 1_555
H37 C38 1_555 1_555
H38 C38 1_555 1_555
C39 C26 1_555 1_555
H39 C39 1_555 1_555
C40 C37 1_555 1_555
H40 C40 1_555 1_555
H41 C40 1_555 1_555
H42 C40 1_555 1_555
C41 C36 1_555 1_555
H43 C41 1_555 1_555
H44 C41 1_555 1_555
H45 C41 1_555 1_555
C42 C26 1_555 1_555
H46 C42 1_555 1_555
H47 C42 1_555 1_555
H48 C42 1_555 1_555
N8 C43 1_555 1_555
C43 C44 1_555 1_555
C44 H49 1_555 1_555
H50 C44 1_555 1_555
H51 C44 1_555 1_555
N4 C13 1_555 1_555
N5 C2 1_555 1_555
N7 C13 1_555 1_555
C8 C9 1_555 1_555
C10 C15 1_555 1_555
C18 C21 1_555 1_555
C31 C37 1_555 1_555
C36 C39 1_555 1_555

#END
