
#######################################################################
#
#                 Cambridge Crystallographic Data Centre
#                                CCDC 
#
#######################################################################
#
# If this CIF has been generated from an entry in the Cambridge 
# Structural Database, then it will include bibliographic, chemical, 
# crystal, experimental, refinement or atomic coordinate data resulting 
# from the CCDC's data processing and validation procedures.
#
#######################################################################

data_GENGUE
_chemical_formula_moiety         'C54 H73 N7'
_chemical_name_systematic        
2,2'-(triazane-1,3-diylidene)bis{1,3-bis[2,6-di-isopropylphenyl]-2,3-dihydro-1H-imidazole}
_symmetry_cell_setting           monoclinic
_symmetry_space_group_name_H-M   'P 21/n'
_symmetry_Int_Tables_number      14
_space_group_name_Hall           '-P 2yn'
loop_
_symmetry_equiv_pos_site_id
_symmetry_equiv_pos_as_xyz
1 x,y,z
2 1/2-x,1/2+y,1/2-z
3 -x,-y,-z
4 1/2+x,1/2-y,1/2+z
_cell_length_a                   12.520(3)
_cell_length_b                   27.190(5)
_cell_length_c                   14.380(3)
_cell_angle_alpha                90
_cell_angle_beta                 92.42(3)
_cell_angle_gamma                90
_cell_volume                     4890.86
_exptl_crystal_colour            'light orange'
_exptl_crystal_description       block
_cell_formula_units_Z            4
loop_
_atom_site_label
_atom_site_type_symbol
_atom_site_fract_x
_atom_site_fract_y
_atom_site_fract_z
N1 N 0.60540(17) 0.46369(8) 0.13991(18)
N2 N 0.76896(17) 0.44746(9) 0.09906(18)
N3 N 0.84031(18) 0.31481(8) 0.41603(18)
N4 N 0.70643(19) 0.26483(9) 0.37754(19)
N5 N 0.73539(18) 0.32557(9) 0.26791(19)
N6 N 0.69254(18) 0.40567(9) 0.23444(19)
N7 N 0.78377(19) 0.37402(10) 0.2554(2)
C1 C 0.8720(2) 0.42562(11) 0.0823(2)
C2 C 0.5019(2) 0.45758(11) 0.1781(2)
C3 C 0.6945(2) 0.43466(11) 0.1640(2)
C4 C 0.7621(2) 0.30585(11) 0.3466(2)
C5 C 0.9280(2) 0.34877(11) 0.4178(2)
C6 C 0.6257(2) 0.49274(11) 0.0632(2)
H1 H 0.5778 0.5156 0.0340
C7 C 0.4359(2) 0.41900(11) 0.1450(2)
C8 C 0.7249(2) 0.48268(11) 0.0379(2)
H2 H 0.7595 0.4970 -0.0130
C9 C 0.5146(2) 0.28127(11) 0.3678(2)
C10 C 0.6010(2) 0.25297(11) 0.3405(2)
C11 C 1.0179(2) 0.33791(11) 0.3668(2)
C12 C 0.4709(2) 0.49102(11) 0.2453(2)
C13 C 0.9555(2) 0.49924(11) 0.1662(2)
H3 H 0.8918 0.5178 0.1409
C14 C 0.4708(2) 0.38237(11) 0.0730(2)
H4 H 0.5352 0.3960 0.0434
C15 C 0.3689(2) 0.48565(12) 0.2802(2)
H5 H 0.3449 0.5080 0.3256
C16 C 0.9636(2) 0.45217(11) 0.1098(2)
C17 C 0.8745(2) 0.38134(11) 0.0325(2)
C18 C 0.3348(2) 0.41525(12) 0.1824(2)
H6 H 0.2877 0.3898 0.1616
C19 C 0.8292(3) 0.28059(11) 0.4889(2)
H7 H 0.8725 0.2788 0.5447
C20 C 0.7468(3) 0.25115(12) 0.4653(2)
H8 H 0.7203 0.2253 0.5023
C21 C 0.4140(3) 0.26902(12) 0.3308(2)
H9 H 0.3535 0.2874 0.3482
C22 C 1.0610(2) 0.43310(12) 0.0830(2)
H10 H 1.1253 0.4498 0.1007
C23 C 0.9240(2) 0.38953(12) 0.4773(2)
C24 C 1.0152(2) 0.41845(12) 0.4886(2)
H11 H 1.0149 0.4461 0.5289
C25 C 1.0656(2) 0.39032(13) 0.0312(2)
H12 H 1.1328 0.3786 0.0122
C26 C 0.3840(2) 0.37333(12) -0.0043(2)
H13 H 0.3221 0.3573 0.0223
H14 H 0.4127 0.3521 -0.0523
H15 H 0.3619 0.4048 -0.0321
C27 C 0.7731(2) 0.35425(11) 0.0042(3)
H16 H 0.7152 0.3671 0.0435
C28 C 0.5281(2) 0.32357(11) 0.4364(2)
H17 H 0.6064 0.3277 0.4509
C29 C 1.0182(3) 0.29488(11) 0.2991(2)
H18 H 0.9445 0.2919 0.2700
C30 C 0.5425(2) 0.53273(11) 0.2782(2)
H19 H 0.6140 0.5278 0.2513
C31 C 0.3027(2) 0.44784(12) 0.2487(3)
H20 H 0.2339 0.4444 0.2734
C32 C 0.9743(2) 0.36472(12) 0.0071(2)
H21 H 0.9792 0.3351 -0.0276
C33 C 0.5021(2) 0.33317(11) 0.1179(2)
H22 H 0.5594 0.3384 0.1654
H23 H 0.5270 0.3107 0.0702
H24 H 0.4398 0.3188 0.1470
C34 C 1.1071(3) 0.36857(12) 0.3806(3)
H25 H 1.1694 0.3624 0.3469
C35 C 0.5890(3) 0.21375(13) 0.2779(3)
C36 C 0.4006(3) 0.23068(12) 0.2692(2)
H26 H 0.3310 0.2230 0.2445
C37 C 1.0530(2) 0.53287(12) 0.1587(2)
H27 H 1.1163 0.5166 0.1868
H28 H 1.0404 0.5638 0.1915
H29 H 1.0647 0.5398 0.0930
C38 C 1.1063(3) 0.40744(13) 0.4418(3)
H30 H 1.1689 0.4268 0.4520
C39 C 0.9357(3) 0.48707(12) 0.2684(2)
H31 H 0.8711 0.4669 0.2717
H32 H 0.9264 0.5176 0.3032
H33 H 0.9971 0.4689 0.2955
C40 C 0.7828(3) 0.29863(11) 0.0225(3)
H34 H 0.8365 0.2846 -0.0174
H35 H 0.7136 0.2828 0.0087
H36 H 0.8044 0.2930 0.0880
C41 C 0.8216(3) 0.40264(13) 0.5251(3)
H37 H 0.7791 0.3717 0.5293
C42 C 0.4860(3) 0.20345(13) 0.2431(3)
H38 H 0.4749 0.1771 0.2004
C43 C 0.4863(3) 0.37217(11) 0.3948(3)
H39 H 0.5240 0.3795 0.3380
H40 H 0.4988 0.3987 0.4400
H41 H 0.4095 0.3693 0.3796
C44 C 0.4756(3) 0.31239(13) 0.5271(2)
H42 H 0.3981 0.3095 0.5156
H43 H 0.4909 0.3390 0.5716
H44 H 0.5038 0.2814 0.5527
C45 C 1.0949(3) 0.30192(13) 0.2209(3)
H45 H 1.0804 0.3335 0.1902
H46 H 1.0850 0.2753 0.1755
H47 H 1.1686 0.3015 0.2467
C46 C 0.7404(3) 0.36525(13) -0.0970(3)
H48 H 0.7323 0.4008 -0.1054
H49 H 0.6724 0.3489 -0.1132
H50 H 0.7957 0.3531 -0.1375
C47 C 0.4998(3) 0.58222(12) 0.2449(3)
H51 H 0.4931 0.5823 0.1767
H52 H 0.5492 0.6083 0.2660
H53 H 0.4295 0.5880 0.2704
C48 C 0.5586(3) 0.53342(15) 0.3843(3)
H54 H 0.4901 0.5400 0.4124
H55 H 0.6098 0.5593 0.4025
H56 H 0.5861 0.5015 0.4057
C49 C 1.0437(4) 0.24675(13) 0.3495(3)
H57 H 1.1152 0.2487 0.3798
H58 H 1.0416 0.2196 0.3046
H59 H 0.9907 0.2409 0.3966
C50 C 0.7562(5) 0.4373(2) 0.4723(5)
H60 H 0.7952 0.4684 0.4665
H61 H 0.6899 0.4433 0.5043
H62 H 0.7392 0.4239 0.4101
C51 C 0.8464(5) 0.4207(2) 0.6280(4)
H63 H 0.8990 0.3988 0.6586
H64 H 0.7804 0.4204 0.6623
H65 H 0.8751 0.4542 0.6269
H66 H 0.824(3) 0.3725(14) 0.206(3)
C52 C 0.6775(10) 0.1883(4) 0.2345(8)
H67 H 0.7435 0.2081 0.2482
C53 C 0.6709(8) 0.1791(3) 0.1301(5)
H68 H 0.6110 0.1569 0.1147
H69 H 0.7377 0.1640 0.1111
H70 H 0.6599 0.2103 0.0972
C54 C 0.6917(11) 0.1387(5) 0.2874(10)
H71 H 0.7039 0.1452 0.3540
H72 H 0.7532 0.1210 0.2639
H73 H 0.6271 0.1187 0.2776
H74? H 0.7643 0.3844 0.4890
C55? C 0.6936(13) 0.1779(6) 0.2694(11)
H75? H 0.7444 0.1831 0.3241
C56? C 0.7956(14) 0.4630(5) 0.5016(12)
H76? H 0.8448 0.4837 0.5391
H77? H 0.7218 0.4706 0.5168
H78? H 0.8051 0.4694 0.4354
C57? C 0.8038(12) 0.3922(6) 0.6150(12)
H79? H 0.7966 0.3565 0.6225
H80? H 0.7380 0.4084 0.6331
H81? H 0.8641 0.4040 0.6546
C58? C 0.6637(16) 0.1229(7) 0.2618(15)
H82? H 0.6253 0.1130 0.3168
H83? H 0.7289 0.1032 0.2580
H84? H 0.6179 0.1176 0.2057
C59? C 0.7422(12) 0.1973(4) 0.1819(10)
H85? H 0.6956 0.1889 0.1277
H86? H 0.8127 0.1824 0.1752
H87? H 0.7496 0.2331 0.1863
loop_
_geom_bond_atom_site_label_1
_geom_bond_atom_site_label_2
_geom_bond_site_symmetry_1
_geom_bond_site_symmetry_2
N1 C2 1_555 1_555
N2 C1 1_555 1_555
N3 C4 1_555 1_555
N4 C4 1_555 1_555
N5 N7 1_555 1_555
N6 N7 1_555 1_555
N7 H66 1_555 1_555
C1 C16 1_555 1_555
C2 C7 1_555 1_555
C3 N1 1_555 1_555
C4 N5 1_555 1_555
C5 N3 1_555 1_555
C6 N1 1_555 1_555
H1 C6 1_555 1_555
C7 C14 1_555 1_555
C8 N2 1_555 1_555
H2 C8 1_555 1_555
C9 C10 1_555 1_555
C10 N4 1_555 1_555
C11 C5 1_555 1_555
C12 C2 1_555 1_555
C13 H3 1_555 1_555
C14 H4 1_555 1_555
C15 C12 1_555 1_555
H5 C15 1_555 1_555
C16 C13 1_555 1_555
C17 C1 1_555 1_555
C18 C7 1_555 1_555
H6 C18 1_555 1_555
C19 N3 1_555 1_555
H7 C19 1_555 1_555
C20 N4 1_555 1_555
H8 C20 1_555 1_555
C21 C9 1_555 1_555
H9 C21 1_555 1_555
C22 C16 1_555 1_555
H10 C22 1_555 1_555
C23 C5 1_555 1_555
C24 C23 1_555 1_555
H11 C24 1_555 1_555
C25 C22 1_555 1_555
H12 C25 1_555 1_555
C26 C14 1_555 1_555
H13 C26 1_555 1_555
H14 C26 1_555 1_555
H15 C26 1_555 1_555
C27 C17 1_555 1_555
H16 C27 1_555 1_555
C28 C9 1_555 1_555
H17 C28 1_555 1_555
C29 C11 1_555 1_555
H18 C29 1_555 1_555
C30 C12 1_555 1_555
H19 C30 1_555 1_555
C31 C15 1_555 1_555
H20 C31 1_555 1_555
C32 C17 1_555 1_555
H21 C32 1_555 1_555
C33 C14 1_555 1_555
H22 C33 1_555 1_555
H23 C33 1_555 1_555
H24 C33 1_555 1_555
C34 C11 1_555 1_555
H25 C34 1_555 1_555
C35 C10 1_555 1_555
C36 C21 1_555 1_555
H26 C36 1_555 1_555
C37 C13 1_555 1_555
H27 C37 1_555 1_555
H28 C37 1_555 1_555
H29 C37 1_555 1_555
C38 C24 1_555 1_555
H30 C38 1_555 1_555
C39 C13 1_555 1_555
H31 C39 1_555 1_555
H32 C39 1_555 1_555
H33 C39 1_555 1_555
C40 C27 1_555 1_555
H34 C40 1_555 1_555
H35 C40 1_555 1_555
H36 C40 1_555 1_555
C41 C23 1_555 1_555
H37 C41 1_555 1_555
C42 C35 1_555 1_555
H38 C42 1_555 1_555
C43 C28 1_555 1_555
H39 C43 1_555 1_555
H40 C43 1_555 1_555
H41 C43 1_555 1_555
C44 C28 1_555 1_555
H42 C44 1_555 1_555
H43 C44 1_555 1_555
H44 C44 1_555 1_555
C45 C29 1_555 1_555
H45 C45 1_555 1_555
H46 C45 1_555 1_555
H47 C45 1_555 1_555
C46 C27 1_555 1_555
H48 C46 1_555 1_555
H49 C46 1_555 1_555
H50 C46 1_555 1_555
C47 C30 1_555 1_555
H51 C47 1_555 1_555
H52 C47 1_555 1_555
H53 C47 1_555 1_555
C48 C30 1_555 1_555
H54 C48 1_555 1_555
H55 C48 1_555 1_555
H56 C48 1_555 1_555
C49 C29 1_555 1_555
H57 C49 1_555 1_555
H58 C49 1_555 1_555
H59 C49 1_555 1_555
C50 C41 1_555 1_555
H60 C50 1_555 1_555
H61 C50 1_555 1_555
H62 C50 1_555 1_555
C51 C41 1_555 1_555
H63 C51 1_555 1_555
H64 C51 1_555 1_555
H65 C51 1_555 1_555
C52 C35 1_555 1_555
H67 C52 1_555 1_555
C53 C52 1_555 1_555
H68 C53 1_555 1_555
H69 C53 1_555 1_555
H70 C53 1_555 1_555
C54 C52 1_555 1_555
H71 C54 1_555 1_555
H72 C54 1_555 1_555
H73 C54 1_555 1_555
N2 C3 1_555 1_555
N6 C3 1_555 1_555
C6 C8 1_555 1_555
C18 C31 1_555 1_555
C19 C20 1_555 1_555
C25 C32 1_555 1_555
C34 C38 1_555 1_555
C36 C42 1_555 1_555

#END
