
#######################################################################
#
#                 Cambridge Crystallographic Data Centre
#                                CCDC 
#
#######################################################################
#
# If this CIF has been generated from an entry in the Cambridge 
# Structural Database, then it will include bibliographic, chemical, 
# crystal, experimental, refinement or atomic coordinate data resulting 
# from the CCDC's data processing and validation procedures.
#
#######################################################################

data_GENLER
_chemical_formula_moiety         'C13 H19 N1 Si1'
_chemical_name_systematic        
N,N'-Dimethyl-4-((trimethylsilyl)ethynyl)aniline
_symmetry_cell_setting           orthorhombic
_symmetry_space_group_name_H-M   'P n m a'
_symmetry_Int_Tables_number      62
_space_group_name_Hall           '-P 2ac 2n'
loop_
_symmetry_equiv_pos_site_id
_symmetry_equiv_pos_as_xyz
1 x,y,z
2 1/2-x,-y,1/2+z
3 -x,1/2+y,-z
4 1/2+x,1/2-y,1/2-z
5 -x,-y,-z
6 1/2+x,y,1/2-z
7 x,1/2-y,z
8 1/2-x,1/2+y,1/2+z
_cell_length_a                   13.015(2)
_cell_length_b                   9.581(3)
_cell_length_c                   32.611(6)
_cell_angle_alpha                90
_cell_angle_beta                 90
_cell_angle_gamma                90
_cell_volume                     4066.48
_exptl_crystal_colour            colorless
_exptl_crystal_description       block
_chemical_melting_point          '353 K'
_cell_formula_units_Z            12
_exptl_crystal_recrystallization_method methanol
loop_
_atom_site_label
_atom_site_type_symbol
_atom_site_fract_x
_atom_site_fract_y
_atom_site_fract_z
Si1 Si 0.00022(4) 0.2500 0.727960(15)
N1 N 0.13574(11) 0.2500 0.46804(4)
C1 C 0.12443(12) 0.2500 0.50983(5)
C2 C 0.11737(9) 0.12407(13) 0.53220(4)
H1 H 0.1232(10) 0.0379(16) 0.5190(4)
C3 C 0.10165(9) 0.12478(13) 0.57403(4)
H2 H 0.0961(9) 0.0385(15) 0.5876(4)
C4 C 0.09239(12) 0.2500 0.59601(5)
C5 C 0.14589(11) 0.11962(15) 0.44585(4)
H3 H 0.0862(12) 0.0618(17) 0.4497(5)
H4 H 0.2064(12) 0.0648(17) 0.4535(5)
H5 H 0.1516(14) 0.1375(18) 0.4170(5)
C6 C 0.06998(13) 0.2500 0.63908(5)
C7 C 0.04725(14) 0.2500 0.67505(5)
C8 C -0.08004(15) 0.09184(19) 0.73592(6)
H6 H -0.0417(17) 0.011(2) 0.7338(6)
H7 H -0.1329(17) 0.088(2) 0.7170(7)
H8 H -0.1118(16) 0.095(2) 0.7627(7)
C9 C 0.1110(2) 0.2500 0.76411(7)
H9 H 0.088(2) 0.2500 0.7906(9)
H10 H 0.1542(16) 0.163(2) 0.7598(6)
C2F C 0.11737(9) 0.37593(13) 0.53220(4)
H1F H 0.1232(10) 0.4621(16) 0.5190(4)
C3F C 0.10165(9) 0.37522(13) 0.57403(4)
H2F H 0.0961(9) 0.4615(15) 0.5876(4)
C5F C 0.14589(11) 0.38038(15) 0.44585(4)
H3F H 0.0862(12) 0.4382(17) 0.4497(5)
H4F H 0.2064(12) 0.4352(17) 0.4535(5)
H5F H 0.1516(14) 0.3625(18) 0.4170(5)
C8F C -0.08004(15) 0.40816(19) 0.73592(6)
H6F H -0.0417(17) 0.489(2) 0.7338(6)
H7F H -0.1329(17) 0.412(2) 0.7170(7)
H8F H -0.1118(16) 0.405(2) 0.7627(7)
H10F H 0.1542(16) 0.337(2) 0.7598(6)
Si2 Si 0.38974(4) 0.2500 0.343949(16)
N2 N 0.36709(13) 0.2500 0.60871(5)
C10 C 0.37782(13) 0.2500 0.56662(5)
C11 C 0.38428(9) 0.12418(14) 0.54453(4)
H11 H 0.3792(10) 0.0369(16) 0.5581(4)
C12 C 0.39424(9) 0.12493(13) 0.50237(4)
H12 H 0.3973(10) 0.0361(16) 0.4888(4)
C13 C 0.39897(12) 0.2500 0.48038(5)
C14 C 0.35481(15) 0.1206(2) 0.63042(5)
H13 H 0.4165(15) 0.061(2) 0.6283(5)
H14 H 0.2971(15) 0.064(2) 0.6199(6)
H15 H 0.3445(17) 0.142(2) 0.6598(7)
C15 C 0.40526(13) 0.2500 0.43644(6)
C16 C 0.40766(15) 0.2500 0.39945(6)
C17 C 0.3147(2) 0.0922(3) 0.33035(6)
H16 H 0.2990(18) 0.095(3) 0.3031(8)
H17 H 0.258(2) 0.078(3) 0.3464(7)
H18 H 0.3627(19) 0.018(3) 0.3339(7)
C18 C 0.5158(2) 0.2500 0.31728(9)
H19 H 0.511(2) 0.2500 0.2876(10)
H20 H 0.557(2) 0.174(2) 0.3253(7)
C11F C 0.38428(9) 0.37582(14) 0.54453(4)
H11F H 0.3792(10) 0.4631(16) 0.5581(4)
C12F C 0.39424(9) 0.37507(13) 0.50237(4)
H12F H 0.3973(10) 0.4639(16) 0.4888(4)
C14F C 0.35481(15) 0.3794(2) 0.63042(5)
H13F H 0.4165(15) 0.439(2) 0.6283(5)
H14F H 0.2971(15) 0.436(2) 0.6199(6)
H15F H 0.3445(17) 0.358(2) 0.6598(7)
C17F C 0.3147(2) 0.4078(3) 0.33035(6)
H16F H 0.2990(18) 0.405(3) 0.3031(8)
H17F H 0.258(2) 0.422(3) 0.3464(7)
H18F H 0.3627(19) 0.482(3) 0.3339(7)
H20F H 0.557(2) 0.326(2) 0.3253(7)
Si3 Si 0.86449(4) 0.2500 0.325774(15)
N3 N 0.72948(11) 0.2500 0.58583(4)
C19 C 0.74572(13) 0.2500 0.54417(5)
C20 C 0.66234(13) 0.2500 0.51628(5)
H21 H 0.5940(15) 0.2500 0.5258(5)
C21 C 0.67889(13) 0.2500 0.47450(5)
H22 H 0.6205(14) 0.2500 0.4565(6)
C22 C 0.77831(13) 0.2500 0.45823(5)
C23 C 0.86112(13) 0.2500 0.48575(5)
H23 H 0.9282(15) 0.2500 0.4753(5)
C24 C 0.84530(13) 0.2500 0.52766(5)
H24 H 0.9036(15) 0.2500 0.5449(6)
C25 C 0.62590(16) 0.2500 0.60171(7)
H25 H 0.6262(17) 0.2500 0.6310(7)
H26 H 0.5876(14) 0.164(2) 0.5927(6)
C26 C 0.81533(15) 0.2500 0.61387(6)
H27 H 0.7909(16) 0.2500 0.6421(7)
H28 H 0.8601(13) 0.1643(18) 0.6093(5)
C27 C 0.79761(13) 0.2500 0.41485(5)
C28 C 0.81825(14) 0.2500 0.37874(5)
C29 C 0.81710(13) 0.09228(16) 0.29874(5)
H29 H 0.8440(14) 0.0903(19) 0.2717(6)
H30 H 0.8384(13) 0.005(2) 0.3122(5)
H31 H 0.7442(15) 0.0901(18) 0.2968(5)
C30 C 1.00739(17) 0.2500 0.32851(8)
H32 H 1.043(2) 0.2500 0.2996(9)
H33 H 1.0308(14) 0.1686(19) 0.3422(5)
H26F H 0.5876(14) 0.336(2) 0.5927(6)
H28F H 0.8601(13) 0.3357(18) 0.6093(5)
C29F C 0.81710(13) 0.40772(16) 0.29874(5)
H29F H 0.8440(14) 0.4097(19) 0.2717(6)
H30F H 0.8384(13) 0.495(2) 0.3122(5)
H31F H 0.7442(15) 0.4099(18) 0.2968(5)
H33F H 1.0308(14) 0.3314(19) 0.3422(5)
loop_
_geom_bond_atom_site_label_1
_geom_bond_atom_site_label_2
_geom_bond_site_symmetry_1
_geom_bond_site_symmetry_2
Si1 C7 1_555 1_555
N1 C1 1_555 1_555
C1 C2 1_555 1_555
C2 H1 1_555 1_555
C3 C2 1_555 1_555
H2 C3 1_555 1_555
C4 C3 1_555 1_555
C5 N1 1_555 1_555
H3 C5 1_555 1_555
H4 C5 1_555 1_555
H5 C5 1_555 1_555
C6 C4 1_555 1_555
C7 C6 1_555 1_555
C8 Si1 1_555 1_555
H6 C8 1_555 1_555
H7 C8 1_555 1_555
H8 C8 1_555 1_555
C9 Si1 1_555 1_555
H9 C9 1_555 1_555
H10 C9 1_555 1_555
Si2 C16 1_555 1_555
N2 C10 1_555 1_555
C10 C11 1_555 1_555
C11 H11 1_555 1_555
C12 C11 1_555 1_555
H12 C12 1_555 1_555
C13 C12 1_555 1_555
C14 N2 1_555 1_555
H13 C14 1_555 1_555
H14 C14 1_555 1_555
H15 C14 1_555 1_555
C15 C13 1_555 1_555
C16 C15 1_555 1_555
C17 Si2 1_555 1_555
H16 C17 1_555 1_555
H17 C17 1_555 1_555
H18 C17 1_555 1_555
C18 Si2 1_555 1_555
H19 C18 1_555 1_555
H20 C18 1_555 1_555
Si3 C28 1_555 1_555
N3 C19 1_555 1_555
C19 C20 1_555 1_555
C20 H21 1_555 1_555
C21 C20 1_555 1_555
H22 C21 1_555 1_555
C22 C21 1_555 1_555
C23 C22 1_555 1_555
H23 C23 1_555 1_555
C24 C19 1_555 1_555
H24 C24 1_555 1_555
C25 N3 1_555 1_555
H25 C25 1_555 1_555
H26 C25 1_555 1_555
C26 N3 1_555 1_555
H27 C26 1_555 1_555
H28 C26 1_555 1_555
C27 C22 1_555 1_555
C28 C27 1_555 1_555
C29 Si3 1_555 1_555
H29 C29 1_555 1_555
H30 C29 1_555 1_555
H31 C29 1_555 1_555
C30 Si3 1_555 1_555
H32 C30 1_555 1_555
H33 C30 1_555 1_555
C2F C1 1_555 1_555
H1F C2F 1_555 1_555
C3F C4 1_555 1_555
H2F C3F 1_555 1_555
C5F N1 1_555 1_555
H3F C5F 1_555 1_555
H4F C5F 1_555 1_555
H5F C5F 1_555 1_555
C8F Si1 1_555 1_555
H6F C8F 1_555 1_555
H7F C8F 1_555 1_555
H8F C8F 1_555 1_555
H10F C9 1_555 1_555
C11F C10 1_555 1_555
H11F C11F 1_555 1_555
C12F C13 1_555 1_555
H12F C12F 1_555 1_555
C14F N2 1_555 1_555
H13F C14F 1_555 1_555
H14F C14F 1_555 1_555
H15F C14F 1_555 1_555
C17F Si2 1_555 1_555
H16F C17F 1_555 1_555
H17F C17F 1_555 1_555
H18F C17F 1_555 1_555
H20F C18 1_555 1_555
H26F C25 1_555 1_555
H28F C26 1_555 1_555
C29F Si3 1_555 1_555
H29F C29F 1_555 1_555
H30F C29F 1_555 1_555
H31F C29F 1_555 1_555
H33F C30 1_555 1_555
C23 C24 1_555 1_555
C2F C3F 1_555 1_555
C11F C12F 1_555 1_555

#END
