
#######################################################################
#
#                 Cambridge Crystallographic Data Centre
#                                CCDC 
#
#######################################################################
#
# If this CIF has been generated from an entry in the Cambridge 
# Structural Database, then it will include bibliographic, chemical, 
# crystal, experimental, refinement or atomic coordinate data resulting 
# from the CCDC's data processing and validation procedures.
#
#######################################################################

data_GENMAQ
_chemical_name_common            '(E)-1-phenyl-2-tosylethanone oxime'
_chemical_formula_moiety         'C15 H15 N1 O3 S1'
_chemical_name_systematic        
(E)-N-hydroxy-2-[(4-methylphenyl)sulfonyl]-1-phenylethan-1-imine
_symmetry_cell_setting           monoclinic
_symmetry_space_group_name_H-M   'P 21/c'
_symmetry_Int_Tables_number      14
_space_group_name_Hall           '-P 2ybc'
loop_
_symmetry_equiv_pos_site_id
_symmetry_equiv_pos_as_xyz
1 x,y,z
2 -x,1/2+y,1/2-z
3 -x,-y,-z
4 x,1/2-y,1/2+z
_cell_length_a                   15.2479(4)
_cell_length_b                   5.55410(10)
_cell_length_c                   16.8079(3)
_cell_angle_alpha                90
_cell_angle_beta                 95.501(2)
_cell_angle_gamma                90
_cell_volume                     1416.88
_exptl_crystal_colour            white
_exptl_crystal_description       block
_chemical_melting_point          '474.16-475.16 K'
_cell_formula_units_Z            4
_exptl_crystal_recrystallization_method 'dichloromethane/petroleum ether'
loop_
_atom_site_label
_atom_site_type_symbol
_atom_site_fract_x
_atom_site_fract_y
_atom_site_fract_z
S1 S 0.28795(3) 0.70321(8) 0.57223(2)
O1 O 0.33841(9) 0.5926(3) 0.51452(7)
O2 O 0.27400(10) 0.9582(3) 0.56853(9)
O3 O 0.06706(10) 0.9114(3) 0.57334(7)
H1 H 0.0303 1.0194 0.5713
N1 N 0.06756(10) 0.8058(3) 0.49811(8)
C1 C 0.12890(10) 0.5227(3) 0.41572(9)
C2 C 0.33447(10) 0.6277(3) 0.66912(9)
C3 C 0.12402(10) 0.6374(3) 0.49467(9)
C4 C 0.18238(10) 0.5578(3) 0.56732(9)
H2 H 0.1904 0.3847 0.5655
H3 H 0.1541 0.5957 0.6151
C5 C 0.40458(10) 0.5059(3) 0.82203(9)
C6 C 0.32193(11) 0.7790(3) 0.73245(11)
H4 H 0.2899 0.9206 0.7239
C7 C 0.38174(11) 0.4169(3) 0.68097(10)
H5 H 0.3901 0.3158 0.6382
C8 C 0.35740(12) 0.7177(3) 0.80835(10)
H6 H 0.3496 0.8198 0.8509
C9 C 0.41642(11) 0.3586(3) 0.75738(10)
H7 H 0.4485 0.2170 0.7657
C10 C 0.08598(13) 0.6273(4) 0.34731(10)
H8 H 0.0548 0.7698 0.3518
C11 C 0.17565(13) 0.3135(3) 0.40664(13)
H9 H 0.2059 0.2408 0.4510
C12 C 0.13456(15) 0.3163(4) 0.26537(14)
H10 H 0.1364 0.2464 0.2153
C13 C 0.08890(15) 0.5237(4) 0.27316(11)
H11 H 0.0595 0.5959 0.2283
C14 C 0.17774(15) 0.2109(4) 0.33137(16)
H12 H 0.2089 0.0689 0.3259
C15 C 0.44249(15) 0.4378(5) 0.90498(12)
H13 H 0.4626 0.5800 0.9336
H14 H 0.4911 0.3295 0.9016
H15 H 0.3979 0.3604 0.9326
loop_
_geom_bond_atom_site_label_1
_geom_bond_atom_site_label_2
_geom_bond_site_symmetry_1
_geom_bond_site_symmetry_2
S1 O1 1_555 1_555
O2 S1 1_555 1_555
O3 H1 1_555 1_555
N1 O3 1_555 1_555
C1 C3 1_555 1_555
C2 S1 1_555 1_555
C3 N1 1_555 1_555
C4 S1 1_555 1_555
H2 C4 1_555 1_555
H3 C4 1_555 1_555
C5 C8 1_555 1_555
C6 C2 1_555 1_555
H4 C6 1_555 1_555
C7 C2 1_555 1_555
H5 C7 1_555 1_555
C8 C6 1_555 1_555
H6 C8 1_555 1_555
C9 C5 1_555 1_555
H7 C9 1_555 1_555
C10 C1 1_555 1_555
H8 C10 1_555 1_555
C11 C1 1_555 1_555
H9 C11 1_555 1_555
C12 H10 1_555 1_555
C13 C10 1_555 1_555
H11 C13 1_555 1_555
C14 C11 1_555 1_555
H12 C14 1_555 1_555
C15 C5 1_555 1_555
H13 C15 1_555 1_555
H14 C15 1_555 1_555
H15 C15 1_555 1_555
C3 C4 1_555 1_555
C7 C9 1_555 1_555
C12 C13 1_555 1_555
C12 C14 1_555 1_555

#END
