
#######################################################################
#
#                 Cambridge Crystallographic Data Centre
#                                CCDC 
#
#######################################################################
#
# If this CIF has been generated from an entry in the Cambridge 
# Structural Database, then it will include bibliographic, chemical, 
# crystal, experimental, refinement or atomic coordinate data resulting 
# from the CCDC's data processing and validation procedures.
#
#######################################################################

data_GENPEX
_chemical_compound_source        'Agarwood of Aquilaria malaccensis'
_chemical_name_common            'daphnauranol D'
_chemical_formula_moiety         'C16 H22 O4'
_chemical_name_systematic        
'methyl 7-hydroxy-1,4-dimethyl-6-oxo-2,3,6,7,8,8a-hexahydro-1H-3a,7-ethanoazulene-9-carboxylate'
_symmetry_cell_setting           monoclinic
_symmetry_space_group_name_H-M   'P 21'
_symmetry_Int_Tables_number      4
_space_group_name_Hall           'P 2yb'
loop_
_symmetry_equiv_pos_site_id
_symmetry_equiv_pos_as_xyz
1 x,y,z
2 -x,1/2+y,-z
_cell_length_a                   12.01771(12)
_cell_length_b                   6.66052(7)
_cell_length_c                   18.21093(19)
_cell_angle_alpha                90
_cell_angle_beta                 98.0021(9)
_cell_angle_gamma                90
_cell_volume                     1443.49
_exptl_crystal_colour            colorless
_exptl_crystal_description       block
_cell_formula_units_Z            4
loop_
_atom_site_label
_atom_site_type_symbol
_atom_site_fract_x
_atom_site_fract_y
_atom_site_fract_z
O1 O 0.35738(9) -0.27905(18) -0.04997(6)
H1 H 0.3190 -0.3813 -0.0537
O2 O 0.16503(9) -0.37273(17) -0.00341(6)
O3 O 0.16818(11) 0.02237(19) -0.11072(6)
O4 O 0.25526(10) 0.32057(18) -0.10016(6)
C1 C 0.29405(12) 0.1236(2) 0.11635(8)
C2 C 0.32609(13) 0.2630(2) 0.18371(8)
H2 H 0.3270 0.4024 0.1684
H3 H 0.2739 0.2480 0.2195
C3 C 0.44404(13) 0.1922(3) 0.21620(9)
H4 H 0.4647 0.2415 0.2664
H5 H 0.4997 0.2361 0.1859
C4 C 0.43218(13) -0.0371(3) 0.21498(9)
H6 H 0.3928 -0.0739 0.2567
C5 C 0.35034(12) -0.0816(2) 0.14261(8)
H7 H 0.2910 -0.1699 0.1559
C6 C 0.40058(12) -0.1822(2) 0.07927(8)
H8 H 0.4105 -0.3246 0.0894
H9 H 0.4737 -0.1246 0.0756
C7 C 0.32257(12) -0.1525(2) 0.00539(8)
C8 C 0.20060(12) -0.2064(2) 0.01599(8)
C9 C 0.13013(12) -0.0569(2) 0.04748(8)
H10 H 0.0526 -0.0698 0.0357
C10 C 0.16863(12) 0.0965(2) 0.09185(8)
C11 C 0.33338(13) 0.0665(2) -0.01851(8)
H11 H 0.4044 0.0753 -0.0390
C12 C 0.34538(12) 0.2098(2) 0.04937(8)
H12 H 0.4245 0.2373 0.0647
H13 H 0.3088 0.3361 0.0346
C13 C 0.24188(13) 0.1278(2) -0.08079(8)
C14 C 0.08865(12) 0.2448(2) 0.11782(8)
H14 H 0.0904 0.2326 0.1705
H15 H 0.0139 0.2183 0.0936
H16 H 0.1104 0.3783 0.1060
C15 C 0.54282(15) -0.1528(3) 0.22459(10)
H17 H 0.5277 -0.2940 0.2198
H18 H 0.5834 -0.1256 0.2728
H19 H 0.5870 -0.1115 0.1872
C16 C 0.16654(16) 0.4030(3) -0.15355(9)
H20 H 0.1618 0.3286 -0.1990
H21 H 0.1827 0.5412 -0.1628
H22 H 0.0963 0.3939 -0.1343
O5 O 0.05016(9) 1.28375(18) 0.41218(7)
H23 H 0.0751 1.3717 0.3875
O6 O 0.24999(10) 1.37259(18) 0.37866(7)
O7 O 0.13178(13) 1.0064(2) 0.29097(7)
O8 O 0.07376(10) 0.70046(19) 0.31897(7)
C17 C 0.27904(12) 0.8489(2) 0.50749(8)
C18 C 0.32775(13) 0.6918(3) 0.56561(9)
H24 H 0.3100 0.5565 0.5481
H25 H 0.4087 0.7054 0.5772
C19 C 0.27002(14) 0.7407(3) 0.63308(9)
H26 H 0.1926 0.6954 0.6259
H27 H 0.3093 0.6795 0.6776
C20 C 0.27678(14) 0.9695(3) 0.63735(9)
H28 H 0.3531 1.0036 0.6602
C21 C 0.26482(13) 1.0416(2) 0.55499(8)
H29 H 0.3287 1.1299 0.5504
C22 C 0.15800(13) 1.1562(2) 0.52445(9)
H30 H 0.1649 1.2950 0.5406
H31 H 0.0942 1.0978 0.5440
C23 C 0.13751(12) 1.1482(2) 0.43890(9)
C24 C 0.24460(12) 1.2063(2) 0.40634(8)
C25 C 0.33546(12) 1.0592(2) 0.40552(8)
H32 H 0.3869 1.0835 0.3728
C26 C 0.35141(12) 0.8935(2) 0.44729(8)
C27 C 0.10027(12) 0.9326(2) 0.41703(8)
H33 H 0.0208 0.9237 0.4236
C28 C 0.16236(12) 0.7756(2) 0.47000(8)
H34 H 0.1720 0.6538 0.4424
H35 H 0.1164 0.7431 0.5081
C29 C 0.10506(13) 0.8899(3) 0.33550(9)
C30 C 0.44178(14) 0.7468(3) 0.43487(10)
H36 H 0.4776 0.7904 0.3937
H37 H 0.4091 0.6166 0.4244
H38 H 0.4965 0.7397 0.4786
C31 C 0.19652(17) 1.0645(4) 0.68498(10)
H39 H 0.2038 1.2079 0.6837
H40 H 0.2144 1.0181 0.7351
H41 H 0.1207 1.0273 0.6661
C32 C 0.08391(16) 0.6302(3) 0.24504(10)
H42 H 0.0861 0.7431 0.2125
H43 H 0.0206 0.5470 0.2274
H44 H 0.1518 0.5537 0.2462
loop_
_geom_bond_atom_site_label_1
_geom_bond_atom_site_label_2
_geom_bond_site_symmetry_1
_geom_bond_site_symmetry_2
O1 H1 1_555 1_555
O2 C8 1_555 1_555
O3 C13 1_555 1_555
O4 C13 1_555 1_555
C1 C2 1_555 1_555
C2 H2 1_555 1_555
H3 C2 1_555 1_555
C3 C2 1_555 1_555
H4 C3 1_555 1_555
H5 C3 1_555 1_555
C4 C3 1_555 1_555
H6 C4 1_555 1_555
C5 C1 1_555 1_555
H7 C5 1_555 1_555
C6 C5 1_555 1_555
H8 C6 1_555 1_555
H9 C6 1_555 1_555
C7 O1 1_555 1_555
C8 C7 1_555 1_555
C9 C8 1_555 1_555
H10 C9 1_555 1_555
C10 C1 1_555 1_555
C11 C7 1_555 1_555
H11 C11 1_555 1_555
C12 C1 1_555 1_555
H12 C12 1_555 1_555
H13 C12 1_555 1_555
C13 C11 1_555 1_555
C14 C10 1_555 1_555
H14 C14 1_555 1_555
H15 C14 1_555 1_555
H16 C14 1_555 1_555
C15 C4 1_555 1_555
H17 C15 1_555 1_555
H18 C15 1_555 1_555
H19 C15 1_555 1_555
C16 O4 1_555 1_555
H20 C16 1_555 1_555
H21 C16 1_555 1_555
H22 C16 1_555 1_555
O5 H23 1_555 1_555
O6 C24 1_555 1_555
O7 C29 1_555 1_555
O8 C29 1_555 1_555
C17 C18 1_555 1_555
C18 H24 1_555 1_555
H25 C18 1_555 1_555
C19 C18 1_555 1_555
H26 C19 1_555 1_555
H27 C19 1_555 1_555
C20 C19 1_555 1_555
H28 C20 1_555 1_555
C21 C17 1_555 1_555
H29 C21 1_555 1_555
C22 C21 1_555 1_555
H30 C22 1_555 1_555
H31 C22 1_555 1_555
C23 O5 1_555 1_555
C24 C23 1_555 1_555
C25 C24 1_555 1_555
H32 C25 1_555 1_555
C26 C17 1_555 1_555
C27 C23 1_555 1_555
H33 C27 1_555 1_555
C28 C17 1_555 1_555
H34 C28 1_555 1_555
H35 C28 1_555 1_555
C29 C27 1_555 1_555
C30 C26 1_555 1_555
H36 C30 1_555 1_555
H37 C30 1_555 1_555
H38 C30 1_555 1_555
C31 C20 1_555 1_555
H39 C31 1_555 1_555
H40 C31 1_555 1_555
H41 C31 1_555 1_555
C32 O8 1_555 1_555
H42 C32 1_555 1_555
H43 C32 1_555 1_555
H44 C32 1_555 1_555
C4 C5 1_555 1_555
C6 C7 1_555 1_555
C9 C10 1_555 1_555
C11 C12 1_555 1_555
C20 C21 1_555 1_555
C22 C23 1_555 1_555
C25 C26 1_555 1_555
C27 C28 1_555 1_555

#END
