
#######################################################################
#
#                 Cambridge Crystallographic Data Centre
#                                CCDC 
#
#######################################################################
#
# If this CIF has been generated from an entry in the Cambridge 
# Structural Database, then it will include bibliographic, chemical, 
# crystal, experimental, refinement or atomic coordinate data resulting 
# from the CCDC's data processing and validation procedures.
#
#######################################################################

data_GENPAT
_chemical_compound_source        'Agarwood of Aquilaria malaccensis'
_chemical_name_common            'aquilanol B'
_chemical_formula_moiety         'C15 H24 O3'
_chemical_name_systematic        
1,6,6-trimethyl-4,13-dioxatricyclo[7.3.2.0^3,5^]tetradec-8-en-12-ol
_symmetry_cell_setting           monoclinic
_symmetry_space_group_name_H-M   'P 21/n'
_symmetry_Int_Tables_number      14
_space_group_name_Hall           '-P 2yn'
loop_
_symmetry_equiv_pos_site_id
_symmetry_equiv_pos_as_xyz
1 x,y,z
2 1/2-x,1/2+y,1/2-z
3 -x,-y,-z
4 1/2+x,1/2-y,1/2+z
_cell_length_a                   11.6837(3)
_cell_length_b                   6.4948(2)
_cell_length_c                   18.4991(6)
_cell_angle_alpha                90
_cell_angle_beta                 100.765(3)
_cell_angle_gamma                90
_cell_volume                     1379.07
_exptl_crystal_colour            colorless
_exptl_crystal_description       block
_cell_formula_units_Z            4
loop_
_atom_site_label
_atom_site_type_symbol
_atom_site_fract_x
_atom_site_fract_y
_atom_site_fract_z
O1 O 0.46857(8) 0.53651(15) 0.58783(5)
O2 O 0.37575(11) 0.2023(2) 0.49532(6)
H1 H 0.4418 0.2421 0.4936
O3 O 0.30696(8) 0.50613(18) 0.79496(5)
C1 C 0.63482(12) 0.4609(3) 0.81759(8)
H2 H 0.6509 0.5933 0.7973
H3 H 0.7001 0.4271 0.8564
C2 C 0.62555(11) 0.3007(3) 0.75817(8)
H4 H 0.6497 0.1687 0.7734
C3 C 0.58683(10) 0.3255(2) 0.68621(8)
C4 C 0.56658(12) 0.1442(2) 0.63519(9)
H5 H 0.6139 0.0295 0.6571
H6 H 0.5909 0.1790 0.5894
C5 C 0.43821(13) 0.0789(2) 0.61899(9)
H7 H 0.4332 -0.0567 0.5967
H8 H 0.4116 0.0667 0.6654
C6 C 0.35547(12) 0.2211(2) 0.56927(8)
H9 H 0.2767 0.1689 0.5689
C7 C 0.35455(11) 0.4509(2) 0.59026(7)
C8 C 0.30497(10) 0.4996(2) 0.66031(7)
H10 H 0.3026 0.6485 0.6640
H11 H 0.2247 0.4531 0.6507
C9 C 0.35858(10) 0.4211(2) 0.73573(6)
H12 H 0.3777 0.2741 0.7392
C10 C 0.42642(12) 0.5534(2) 0.79114(7)
H13 H 0.4378 0.6930 0.7737
C11 C 0.52372(12) 0.4798(2) 0.85130(7)
C12 C 0.55876(11) 0.5336(2) 0.65157(7)
H14 H 0.5364 0.6246 0.6882
H15 H 0.6290 0.5894 0.6383
C13 C 0.27488(14) 0.5662(3) 0.52797(8)
H16 H 0.2694 0.7081 0.5415
H17 H 0.1987 0.5052 0.5197
H18 H 0.3066 0.5574 0.4838
C14 C 0.54396(19) 0.6411(4) 0.91255(9)
H19 H 0.6054 0.5959 0.9512
H20 H 0.4738 0.6591 0.9318
H21 H 0.5654 0.7696 0.8931
C15 C 0.49496(14) 0.2739(3) 0.88357(8)
H22 H 0.4839 0.1710 0.8456
H23 H 0.4249 0.2875 0.9032
H24 H 0.5580 0.2338 0.9221
loop_
_geom_bond_atom_site_label_1
_geom_bond_atom_site_label_2
_geom_bond_site_symmetry_1
_geom_bond_site_symmetry_2
O1 C7 1_555 1_555
O2 H1 1_555 1_555
O3 C9 1_555 1_555
C1 H2 1_555 1_555
H3 C1 1_555 1_555
C2 C1 1_555 1_555
H4 C2 1_555 1_555
C3 C2 1_555 1_555
C4 C3 1_555 1_555
H5 C4 1_555 1_555
H6 C4 1_555 1_555
C5 C4 1_555 1_555
H7 C5 1_555 1_555
H8 C5 1_555 1_555
C6 O2 1_555 1_555
H9 C6 1_555 1_555
C7 C6 1_555 1_555
C8 C7 1_555 1_555
H10 C8 1_555 1_555
H11 C8 1_555 1_555
C9 C8 1_555 1_555
H12 C9 1_555 1_555
C10 O3 1_555 1_555
H13 C10 1_555 1_555
C11 C1 1_555 1_555
C12 O1 1_555 1_555
H14 C12 1_555 1_555
H15 C12 1_555 1_555
C13 C7 1_555 1_555
H16 C13 1_555 1_555
H17 C13 1_555 1_555
H18 C13 1_555 1_555
C14 C11 1_555 1_555
H19 C14 1_555 1_555
H20 C14 1_555 1_555
H21 C14 1_555 1_555
C15 C11 1_555 1_555
H22 C15 1_555 1_555
H23 C15 1_555 1_555
H24 C15 1_555 1_555
C3 C12 1_555 1_555
C5 C6 1_555 1_555
C9 C10 1_555 1_555
C10 C11 1_555 1_555

#END
