
#######################################################################
#
#                 Cambridge Crystallographic Data Centre
#                                CCDC 
#
#######################################################################
#
# If this CIF has been generated from an entry in the Cambridge 
# Structural Database, then it will include bibliographic, chemical, 
# crystal, experimental, refinement or atomic coordinate data resulting 
# from the CCDC's data processing and validation procedures.
#
#######################################################################

data_GENTAU
_chemical_formula_moiety         'C21 H17 Cl2 O1 P1'
_chemical_name_systematic        1,3-Dichloroacetonyl-triphenylphosphorane
_symmetry_cell_setting           monoclinic
_symmetry_space_group_name_H-M   'P 21/n'
_symmetry_Int_Tables_number      14
_space_group_name_Hall           '-P 2yn'
loop_
_symmetry_equiv_pos_site_id
_symmetry_equiv_pos_as_xyz
1 x,y,z
2 1/2+x,1/2-y,1/2+z
3 -x,-y,-z
4 1/2-x,1/2+y,1/2-z
_cell_length_a                   13.257(3)
_cell_length_b                   9.846(2)
_cell_length_c                   14.671(3)
_cell_angle_alpha                90
_cell_angle_beta                 99.79(2)
_cell_angle_gamma                90
_cell_volume                     1887.1
_exptl_crystal_colour            colorless
_exptl_crystal_description       plates
_cell_formula_units_Z            4
loop_
_atom_site_label
_atom_site_type_symbol
_atom_site_fract_x
_atom_site_fract_y
_atom_site_fract_z
P1 P 0.49271(7) 0.12544(9) 0.18446(6)
C1 C 0.4148(3) 0.1889(3) 0.0859(2)
Cl1 Cl 0.31833(8) 0.08768(11) 0.02465(7)
C2 C 0.4240(3) 0.3260(4) 0.0669(2)
O1 O 0.49026(19) 0.3989(3) 0.11458(18)
C3 C 0.3536(3) 0.3913(4) -0.0140(3)
H1 H 0.3298 0.3231 -0.0604
H2 H 0.3909 0.4599 -0.0422
Cl2 Cl 0.24691(9) 0.46731(14) 0.02583(9)
C4 C 0.4750(3) 0.2216(4) 0.2851(2)
C5 C 0.5523(3) 0.2414(5) 0.3589(3)
H3 H 0.6178 0.2094 0.3566
C6 C 0.5328(4) 0.3088(5) 0.4365(3)
H4 H 0.5855 0.3226 0.4862
C7 C 0.4371(4) 0.3553(5) 0.4410(3)
H5 H 0.4241 0.3983 0.4942
C8 C 0.3598(4) 0.3388(5) 0.3670(3)
H6 H 0.2946 0.3718 0.3694
C9 C 0.3794(3) 0.2727(5) 0.2888(3)
H7 H 0.3273 0.2626 0.2381
C10 C 0.4560(2) -0.0471(4) 0.2026(2)
C11 C 0.4709(3) -0.1460(4) 0.1378(3)
H8 H 0.4991 -0.1218 0.0863
C12 C 0.4442(3) -0.2777(4) 0.1496(3)
H9 H 0.4535 -0.3425 0.1057
C13 C 0.4038(3) -0.3152(4) 0.2260(3)
H10 H 0.3862 -0.4054 0.2337
C14 C 0.3891(3) -0.2210(5) 0.2906(3)
H11 H 0.3615 -0.2473 0.3420
C15 C 0.4153(3) -0.0857(4) 0.2799(3)
H12 H 0.4057 -0.0216 0.3243
C16 C 0.6274(3) 0.1179(4) 0.1790(2)
C17 C 0.6898(3) 0.0271(4) 0.2356(3)
H13 H 0.6617 -0.0300 0.2751
C18 C 0.7937(3) 0.0216(5) 0.2330(3)
H14 H 0.8356 -0.0385 0.2711
C19 C 0.8342(3) 0.1053(5) 0.1742(3)
H15 H 0.9039 0.1015 0.1725
C20 C 0.7737(3) 0.1947(4) 0.1176(3)
H16 H 0.8025 0.2507 0.0779
C21 C 0.6704(3) 0.2015(4) 0.1196(3)
H17 H 0.6293 0.2621 0.0812
loop_
_geom_bond_atom_site_label_1
_geom_bond_atom_site_label_2
_geom_bond_site_symmetry_1
_geom_bond_site_symmetry_2
P1 C1 1_555 1_555
C1 Cl1 1_555 1_555
C2 C1 1_555 1_555
O1 C2 1_555 1_555
C3 C2 1_555 1_555
H1 C3 1_555 1_555
H2 C3 1_555 1_555
Cl2 C3 1_555 1_555
C4 P1 1_555 1_555
C5 C4 1_555 1_555
H3 C5 1_555 1_555
C6 C5 1_555 1_555
H4 C6 1_555 1_555
C7 C6 1_555 1_555
H5 C7 1_555 1_555
C8 C7 1_555 1_555
H6 C8 1_555 1_555
C9 C4 1_555 1_555
H7 C9 1_555 1_555
C10 P1 1_555 1_555
C11 C10 1_555 1_555
H8 C11 1_555 1_555
C12 C11 1_555 1_555
H9 C12 1_555 1_555
C13 C12 1_555 1_555
H10 C13 1_555 1_555
C14 C13 1_555 1_555
H11 C14 1_555 1_555
C15 C10 1_555 1_555
H12 C15 1_555 1_555
C16 P1 1_555 1_555
C17 C16 1_555 1_555
H13 C17 1_555 1_555
C18 C17 1_555 1_555
H14 C18 1_555 1_555
C19 C18 1_555 1_555
H15 C19 1_555 1_555
C20 C19 1_555 1_555
H16 C20 1_555 1_555
C21 C16 1_555 1_555
H17 C21 1_555 1_555
C8 C9 1_555 1_555
C14 C15 1_555 1_555
C20 C21 1_555 1_555

#END
