
#######################################################################
#
#                 Cambridge Crystallographic Data Centre
#                                CCDC 
#
#######################################################################
#
# If this CIF has been generated from an entry in the Cambridge 
# Structural Database, then it will include bibliographic, chemical, 
# crystal, experimental, refinement or atomic coordinate data resulting 
# from the CCDC's data processing and validation procedures.
#
#######################################################################

data_GENTAX
_chemical_name_common            
'5-(4-Hydroxy-2-oxo-2H-chromen-3-yl)-N-(2-(pyridin-2-yl)quinolin-8-yl)pentanamide dimethyl sulfoxide solvate'
_chemical_formula_moiety         'C28 H23 N3 O4,C2 H6 O1 S1'
_chemical_name_systematic        
'5-(4-hydroxy-2-oxo-2H-1-benzopyran-3-yl)-N-(2-(pyridin-2-yl)quinolin-8-yl)pentanamide dimethyl sulfoxide solvate'
_symmetry_cell_setting           triclinic
_symmetry_space_group_name_H-M   'P -1'
_symmetry_Int_Tables_number      2
_space_group_name_Hall           '-P 1'
loop_
_symmetry_equiv_pos_site_id
_symmetry_equiv_pos_as_xyz
1 x,y,z
2 -x,-y,-z
_cell_length_a                   8.1556(11)
_cell_length_b                   10.4321(13)
_cell_length_c                   16.817(2)
_cell_angle_alpha                76.394(3)
_cell_angle_beta                 79.665(4)
_cell_angle_gamma                71.200(3)
_cell_volume                     1308.08
_exptl_crystal_colour            colorless
_exptl_crystal_description       Block
_cell_formula_units_Z            2
_exptl_crystal_recrystallization_method 'deuterodimethyl sulfoxide'
loop_
_atom_site_label
_atom_site_type_symbol
_atom_site_fract_x
_atom_site_fract_y
_atom_site_fract_z
O1 O 0.87014(19) 0.82051(13) 0.15728(8)
O2 O 0.33547(17) 0.32220(13) 0.46879(8)
H1 H 0.317(4) 0.387(2) 0.4206(13)
O3 O 0.79972(15) 0.01056(12) 0.48997(7)
O4 O 0.90140(16) 0.07667(14) 0.36180(8)
N1 N 0.81607(19) 0.67969(15) 0.08699(9)
H2 H 0.781(3) 0.6038(18) 0.0891(12)
N2 N 0.77560(18) 0.55304(14) -0.02235(8)
N3 N 0.6545(2) 0.29791(15) -0.08964(9)
C1 C 0.8243(2) 0.71978(17) 0.15666(11)
C2 C 0.7738(2) 0.63030(18) 0.23646(10)
H3 H 0.685550 0.692162 0.270049
H4 H 0.878160 0.589480 0.266502
C3 C 0.7025(2) 0.51340(17) 0.23425(10)
H5 H 0.781968 0.454795 0.196340
H6 H 0.587245 0.552172 0.213107
C4 C 0.6840(2) 0.42558(18) 0.32003(10)
H7 H 0.607511 0.485605 0.357898
H8 H 0.800061 0.386202 0.340313
C5 C 0.6086(2) 0.30780(18) 0.32235(10)
H9 H 0.485512 0.346834 0.310836
H10 H 0.674122 0.255558 0.278744
C6 C 0.6180(2) 0.21088(18) 0.40484(10)
C7 C 0.4899(2) 0.22479(17) 0.46920(11)
C8 C 0.5137(2) 0.12897(17) 0.54755(10)
C9 C 0.6710(2) 0.02542(17) 0.55498(10)
C10 C 0.7784(2) 0.10025(18) 0.41489(10)
C11 C 0.3874(2) 0.13696(18) 0.61570(11)
H11 H 0.278504 0.206419 0.611750
C12 C 0.4199(2) 0.04431(18) 0.68905(11)
H12 H 0.333115 0.049693 0.735130
C13 C 0.5795(2) -0.05643(18) 0.69504(11)
H13 H 0.602269 -0.118684 0.745777
C14 C 0.7061(2) -0.06735(18) 0.62804(10)
H14 H 0.814748 -0.137095 0.632102
C15 C 0.8573(2) 0.73737(17) 0.00448(10)
C16 C 0.9133(2) 0.85229(18) -0.02314(11)
H15 H 0.927880 0.900800 0.015076
C17 C 0.9494(2) 0.89851(18) -0.10847(11)
H16 H 0.988323 0.978262 -0.126881
C18 C 0.9298(2) 0.83156(18) -0.16527(11)
H17 H 0.956002 0.864205 -0.222351
C19 C 0.8702(2) 0.71304(17) -0.13866(10)
C20 C 0.8335(2) 0.66556(17) -0.05310(10)
C21 C 0.8406(2) 0.63789(18) -0.19179(11)
H18 H 0.863941 0.664816 -0.249690
C22 C 0.7788(2) 0.52732(18) -0.16071(10)
H19 H 0.756585 0.478200 -0.196541
C23 C 0.7480(2) 0.48644(17) -0.07402(10)
C24 C 0.6858(2) 0.36437(17) -0.03709(11)
C25 C 0.6654(2) 0.32023(18) 0.04791(11)
H20 H 0.686169 0.370408 0.083515
C26 C 0.6145(2) 0.20246(18) 0.07979(11)
H21 H 0.601213 0.169883 0.137587
C27 C 0.5832(2) 0.13298(19) 0.02670(12)
H22 H 0.548192 0.051646 0.046854
C28 C 0.6042(2) 0.18508(19) -0.05704(12)
H23 H 0.581456 0.137421 -0.093541
S1 S 0.10105(7) 0.66866(5) 0.35985(3)
O5 O 0.2195(2) 0.52820(13) 0.34989(8)
C29 C 0.2004(4) 0.7883(2) 0.29406(14)
H24 H 0.320038 0.767494 0.306631
H25 H 0.134060 0.881827 0.302381
H26 H 0.202064 0.782079 0.236661
C30 C 0.1292(3) 0.6959(2) 0.45618(13)
H27 H 0.081334 0.634049 0.500753
H28 H 0.068116 0.791862 0.461147
H29 H 0.253679 0.676813 0.459817
S2? S 0.2546(12) 0.6687(9) 0.3646(5)
H30? H 0.212586 0.871883 0.306335
H31? H 0.078561 0.803062 0.286916
H32? H 0.274816 0.767446 0.243329
H33? H 0.131153 0.606895 0.492337
H34? H 0.008966 0.747676 0.445661
H35? H 0.175959 0.748636 0.482769
loop_
_geom_bond_atom_site_label_1
_geom_bond_atom_site_label_2
_geom_bond_site_symmetry_1
_geom_bond_site_symmetry_2
O1 C1 1_555 1_555
O2 H1 1_555 1_555
O3 C9 1_555 1_555
O4 C10 1_555 1_555
N1 H2 1_555 1_555
N2 C20 1_555 1_555
N3 C24 1_555 1_555
C1 N1 1_555 1_555
C2 C1 1_555 1_555
H3 C2 1_555 1_555
H4 C2 1_555 1_555
C3 C2 1_555 1_555
H5 C3 1_555 1_555
H6 C3 1_555 1_555
C4 C3 1_555 1_555
H7 C4 1_555 1_555
H8 C4 1_555 1_555
C5 C4 1_555 1_555
H9 C5 1_555 1_555
H10 C5 1_555 1_555
C6 C5 1_555 1_555
C7 O2 1_555 1_555
C8 C7 1_555 1_555
C9 C8 1_555 1_555
C10 O3 1_555 1_555
C11 C8 1_555 1_555
H11 C11 1_555 1_555
C12 C11 1_555 1_555
H12 C12 1_555 1_555
C13 C12 1_555 1_555
H13 C13 1_555 1_555
C14 C9 1_555 1_555
H14 C14 1_555 1_555
C15 N1 1_555 1_555
C16 C15 1_555 1_555
H15 C16 1_555 1_555
C17 C16 1_555 1_555
H16 C17 1_555 1_555
C18 C17 1_555 1_555
H17 C18 1_555 1_555
C19 C18 1_555 1_555
C20 C15 1_555 1_555
C21 C19 1_555 1_555
H18 C21 1_555 1_555
C22 C21 1_555 1_555
H19 C22 1_555 1_555
C23 N2 1_555 1_555
C24 C23 1_555 1_555
C25 C24 1_555 1_555
H20 C25 1_555 1_555
C26 C25 1_555 1_555
H21 C26 1_555 1_555
C27 C26 1_555 1_555
H22 C27 1_555 1_555
C28 N3 1_555 1_555
H23 C28 1_555 1_555
S1 O5 1_555 1_555
C29 S1 1_555 1_555
H24 C29 1_555 1_555
H25 C29 1_555 1_555
H26 C29 1_555 1_555
C30 S1 1_555 1_555
H27 C30 1_555 1_555
H28 C30 1_555 1_555
H29 C30 1_555 1_555
C6 C7 1_555 1_555
C6 C10 1_555 1_555
C13 C14 1_555 1_555
C19 C20 1_555 1_555
C22 C23 1_555 1_555
C27 C28 1_555 1_555

#END
