
#######################################################################
#
#                 Cambridge Crystallographic Data Centre
#                                CCDC 
#
#######################################################################
#
# If this CIF has been generated from an entry in the Cambridge 
# Structural Database, then it will include bibliographic, chemical, 
# crystal, experimental, refinement or atomic coordinate data resulting 
# from the CCDC's data processing and validation procedures.
#
#######################################################################

data_GENVEB
_chemical_formula_moiety         'C17 H19 N2 S1 1+,Cl1 1-'
_chemical_name_systematic        
'(4RS,6SR)-2-Amino-6-phenyl-4-p-tolyl-5,6-dihydro-4H-1,3-thiazin-3-ium chloride'
_symmetry_cell_setting           orthorhombic
_symmetry_space_group_name_H-M   'P b c a'
_symmetry_Int_Tables_number      61
_space_group_name_Hall           '-P 2ac 2ab'
loop_
_symmetry_equiv_pos_site_id
_symmetry_equiv_pos_as_xyz
1 x,y,z
2 1/2-x,-y,1/2+z
3 -x,1/2+y,1/2-z
4 1/2+x,1/2-y,-z
5 -x,-y,-z
6 1/2+x,y,1/2-z
7 x,1/2-y,1/2+z
8 1/2-x,1/2+y,z
_cell_length_a                   12.0026(15)
_cell_length_b                   14.5838(17)
_cell_length_c                   18.364(2)
_cell_angle_alpha                90
_cell_angle_beta                 90
_cell_angle_gamma                90
_cell_volume                     3214.5
_exptl_crystal_colour            colorless
_exptl_crystal_description       block
_cell_formula_units_Z            8
_exptl_crystal_recrystallization_method ethanol
loop_
_atom_site_label
_atom_site_type_symbol
_atom_site_fract_x
_atom_site_fract_y
_atom_site_fract_z
C1 C 0.4515(2) 0.90992(16) 0.64349(13)
H1 H 0.4477 0.8707 0.6881
C2 C 0.3342(2) 0.92841(17) 0.61813(13)
H2 H 0.3017 0.8708 0.5992
H3 H 0.3364 0.9731 0.5776
C3 C 0.2597(2) 0.96554(16) 0.67808(13)
H4 H 0.2552 0.9187 0.7178
C4 C 0.41058(19) 1.07834(16) 0.70772(12)
C5 C 0.14344(19) 0.98362(16) 0.65011(12)
C6 C 0.0611(2) 0.91777(17) 0.65855(13)
H5 H 0.0783 0.8618 0.6824
C7 C -0.0455(2) 0.93238(18) 0.63270(14)
H6 H -0.1008 0.8865 0.6394
C8 C -0.0729(2) 1.01314(17) 0.59719(13)
C9 C 0.0100(2) 1.07816(17) 0.58715(14)
H7 H -0.0066 1.1334 0.5619
C10 C 0.1166(2) 1.06373(17) 0.61334(14)
H8 H 0.1721 1.1092 0.6061
C11 C -0.1893(2) 1.0313(2) 0.57035(17)
H9 H -0.2265 0.9729 0.5601
H10 H -0.1860 1.0681 0.5258
H11 H -0.2311 1.0647 0.6077
C12 C 0.5270(2) 0.86332(16) 0.58908(13)
C13 C 0.6276(2) 0.82738(16) 0.61238(16)
H12 H 0.6474 0.8324 0.6623
C14 C 0.6996(2) 0.78448(18) 0.56488(19)
H13 H 0.7684 0.7603 0.5818
C15 C 0.6703(3) 0.77717(19) 0.49250(19)
H14 H 0.7196 0.7484 0.4591
C16 C 0.5698(3) 0.8114(2) 0.46835(17)
H15 H 0.5493 0.8049 0.4187
C17 C 0.4990(3) 0.8552(2) 0.51615(15)
H16 H 0.4306 0.8800 0.4990
N1 N 0.30626(16) 1.05050(13) 0.70867(11)
H17 H 0.2585 1.0873 0.7303
N2 N 0.43598(17) 1.15837(13) 0.73621(11)
H18 H 0.3835 1.1927 0.7556
H19 H 0.5055 1.1776 0.7359
S1 S 0.51948(5) 1.01803(4) 0.66789(3)
Cl1 Cl 0.18364(5) 1.23248(4) 0.75837(4)
loop_
_geom_bond_atom_site_label_1
_geom_bond_atom_site_label_2
_geom_bond_site_symmetry_1
_geom_bond_site_symmetry_2
C1 H1 1_555 1_555
C2 C1 1_555 1_555
H2 C2 1_555 1_555
H3 C2 1_555 1_555
C3 C2 1_555 1_555
H4 C3 1_555 1_555
C4 N1 1_555 1_555
C5 C3 1_555 1_555
C6 C5 1_555 1_555
H5 C6 1_555 1_555
C7 C6 1_555 1_555
H6 C7 1_555 1_555
C8 C7 1_555 1_555
C9 C8 1_555 1_555
H7 C9 1_555 1_555
C10 C5 1_555 1_555
H8 C10 1_555 1_555
C11 C8 1_555 1_555
H9 C11 1_555 1_555
H10 C11 1_555 1_555
H11 C11 1_555 1_555
C12 C1 1_555 1_555
C13 C12 1_555 1_555
H12 C13 1_555 1_555
C14 C13 1_555 1_555
H13 C14 1_555 1_555
C15 C14 1_555 1_555
H14 C15 1_555 1_555
C16 C15 1_555 1_555
H15 C16 1_555 1_555
C17 C12 1_555 1_555
H16 C17 1_555 1_555
N1 C3 1_555 1_555
H17 N1 1_555 1_555
N2 C4 1_555 1_555
H18 N2 1_555 1_555
H19 N2 1_555 1_555
S1 C1 1_555 1_555
C4 S1 1_555 1_555
C9 C10 1_555 1_555
C16 C17 1_555 1_555

#END
