
#######################################################################
#
#                 Cambridge Crystallographic Data Centre
#                                CCDC 
#
#######################################################################
#
# If this CIF has been generated from an entry in the Cambridge 
# Structural Database, then it will include bibliographic, chemical, 
# crystal, experimental, refinement or atomic coordinate data resulting 
# from the CCDC's data processing and validation procedures.
#
#######################################################################

data_GENVUR
_chemical_formula_moiety         'C26 H25 N1 O5'
_chemical_name_systematic        
9-(3,4-Dimethoxyphenyl)-4-p-tolyl-4,5,6,7-tetrahydrofuro(3,4-b)quinoline-1,8(3H,9H)-dione
_symmetry_cell_setting           triclinic
_symmetry_space_group_name_H-M   'P -1'
_symmetry_Int_Tables_number      2
_space_group_name_Hall           '-P 1'
loop_
_symmetry_equiv_pos_site_id
_symmetry_equiv_pos_as_xyz
1 x,y,z
2 -x,-y,-z
_cell_length_a                   8.427(9)
_cell_length_b                   11.453(12)
_cell_length_c                   11.579(12)
_cell_angle_alpha                95.909(14)
_cell_angle_beta                 100.870(13)
_cell_angle_gamma                94.902(15)
_cell_volume                     1085.35
_exptl_crystal_colour            yellow
_exptl_crystal_description       block
_chemical_melting_point          '499 K'
_cell_formula_units_Z            2
_exptl_crystal_recrystallization_method '95% aqueous ethanol'
loop_
_atom_site_label
_atom_site_type_symbol
_atom_site_fract_x
_atom_site_fract_y
_atom_site_fract_z
O1 O 0.8320(2) 0.4164(2) 0.47429(19)
O2 O 0.7230(3) 0.4451(2) 0.2878(2)
O3 O 0.3268(3) 0.8046(2) 0.3693(2)
O4 O 0.6142(3) 0.8793(2) 0.0579(2)
O5 O 0.9099(3) 0.9680(3) 0.1452(3)
N1 N 0.6947(3) 0.6472(3) 0.6582(2)
C1 C 0.7323(3) 0.5707(3) 0.5704(3)
C2 C 0.8327(4) 0.4715(3) 0.5916(3)
H1 H 0.9424 0.5004 0.6330
H2 H 0.7850 0.4169 0.6374
C3 C 0.7403(4) 0.4774(3) 0.3927(3)
C4 C 0.6812(3) 0.5743(3) 0.4550(3)
C5 C 0.5835(3) 0.6662(3) 0.4048(3)
H3 H 0.4875 0.6262 0.3490
C6 C 0.5259(3) 0.7354(3) 0.5062(3)
C7 C 0.3961(4) 0.8089(3) 0.4726(3)
C8 C 0.3441(4) 0.8853(3) 0.5690(3)
H4 H 0.2487 0.8452 0.5890
H5 H 0.3138 0.9582 0.5395
C9 C 0.4739(5) 0.9144(4) 0.6790(3)
H6 H 0.5630 0.9654 0.6628
H7 H 0.4300 0.9563 0.7409
C10 C 0.5357(4) 0.8036(3) 0.7203(3)
H8 H 0.4512 0.7591 0.7492
H9 H 0.6279 0.8243 0.7855
C11 C 0.5861(4) 0.7277(3) 0.6220(3)
C12 C 0.7695(4) 0.6421(3) 0.7811(3)
C13 C 0.6824(4) 0.5953(3) 0.8573(3)
H10 H 0.5740 0.5654 0.8309
C14 C 0.7577(5) 0.5934(4) 0.9732(3)
H11 H 0.6981 0.5611 1.0244
C15 C 0.9141(5) 0.6362(4) 1.0156(3)
C16 C 1.0005(5) 0.6814(4) 0.9376(4)
H12 H 1.1095 0.7095 0.9643
C17 C 0.9288(4) 0.6862(3) 0.8194(3)
H13 H 0.9879 0.7185 0.7681
C18 C 0.9977(5) 0.6307(4) 1.1420(3)
H14 H 1.0983 0.6813 1.1597
H15 H 1.0193 0.5510 1.1519
H16 H 0.9288 0.6563 1.1947
C19 C 0.6765(4) 0.7469(3) 0.3384(3)
C20 C 0.6034(4) 0.7726(3) 0.2274(3)
H17 H 0.4985 0.7384 0.1941
C21 C 0.6816(4) 0.8468(3) 0.1659(3)
C22 C 0.8396(4) 0.8974(3) 0.2141(3)
C23 C 0.9129(4) 0.8726(3) 0.3241(3)
H18 H 1.0183 0.9057 0.3573
C24 C 0.8304(4) 0.7982(3) 0.3860(3)
H19 H 0.8808 0.7832 0.4608
C25 C 0.4478(5) 0.8403(4) 0.0135(3)
H20 H 0.4088 0.8794 -0.0541
H21 H 0.3867 0.8585 0.0739
H22 H 0.4351 0.7565 -0.0094
C26 C 1.0772(5) 0.9987(5) 0.1752(4)
H23 H 1.1123 1.0380 0.1135
H24 H 1.1311 0.9288 0.1844
H25 H 1.1035 1.0507 0.2482
loop_
_geom_bond_atom_site_label_1
_geom_bond_atom_site_label_2
_geom_bond_site_symmetry_1
_geom_bond_site_symmetry_2
O1 C2 1_555 1_555
O2 C3 1_555 1_555
O3 C7 1_555 1_555
O4 C21 1_555 1_555
O5 C22 1_555 1_555
N1 C1 1_555 1_555
C1 C2 1_555 1_555
C2 H1 1_555 1_555
H2 C2 1_555 1_555
C3 O1 1_555 1_555
C4 C1 1_555 1_555
C5 C4 1_555 1_555
H3 C5 1_555 1_555
C6 C5 1_555 1_555
C7 C6 1_555 1_555
C8 C7 1_555 1_555
H4 C8 1_555 1_555
H5 C8 1_555 1_555
C9 C8 1_555 1_555
H6 C9 1_555 1_555
H7 C9 1_555 1_555
C10 C9 1_555 1_555
H8 C10 1_555 1_555
H9 C10 1_555 1_555
C11 N1 1_555 1_555
C12 N1 1_555 1_555
C13 C12 1_555 1_555
H10 C13 1_555 1_555
C14 C13 1_555 1_555
H11 C14 1_555 1_555
C15 C14 1_555 1_555
C16 C15 1_555 1_555
H12 C16 1_555 1_555
C17 C12 1_555 1_555
H13 C17 1_555 1_555
C18 C15 1_555 1_555
H14 C18 1_555 1_555
H15 C18 1_555 1_555
H16 C18 1_555 1_555
C19 C5 1_555 1_555
C20 C19 1_555 1_555
H17 C20 1_555 1_555
C21 C20 1_555 1_555
C22 C21 1_555 1_555
C23 C22 1_555 1_555
H18 C23 1_555 1_555
C24 C19 1_555 1_555
H19 C24 1_555 1_555
C25 O4 1_555 1_555
H20 C25 1_555 1_555
H21 C25 1_555 1_555
H22 C25 1_555 1_555
C26 O5 1_555 1_555
H23 C26 1_555 1_555
H24 C26 1_555 1_555
H25 C26 1_555 1_555
C3 C4 1_555 1_555
C6 C11 1_555 1_555
C10 C11 1_555 1_555
C16 C17 1_555 1_555
C23 C24 1_555 1_555

#END
