
#######################################################################
#
#                 Cambridge Crystallographic Data Centre
#                                CCDC 
#
#######################################################################
#
# If this CIF has been generated from an entry in the Cambridge 
# Structural Database, then it will include bibliographic, chemical, 
# crystal, experimental, refinement or atomic coordinate data resulting 
# from the CCDC's data processing and validation procedures.
#
#######################################################################

data_GENWOO
_chemical_formula_moiety         'C34 H46 F6 N6 O6 S2 Sr1,C4 H8 O1'
_chemical_name_systematic        
'(11,23-di-t-butyl-2,8,14,20-tetramethyl-3,7,15,19,25,26-hexa-azatricyclo[19.3.1.1^9,13^]hexacosa-1(25),2,7,9(26),10,12,14,19,21,23-decaene)-bis(trifluoromethanesulfonato)-strontium tetrahydrofuran solvate'
_symmetry_cell_setting           orthorhombic
_symmetry_space_group_name_H-M   'P 21 21 21'
_symmetry_Int_Tables_number      19
_space_group_name_Hall           'P 2ac 2ab'
loop_
_symmetry_equiv_pos_site_id
_symmetry_equiv_pos_as_xyz
1 x,y,z
2 1/2+x,1/2-y,-z
3 -x,1/2+y,1/2-z
4 1/2-x,-y,1/2+z
_cell_length_a                   10.0097(5)
_cell_length_b                   16.3939(8)
_cell_length_c                   26.9839(14)
_cell_angle_alpha                90
_cell_angle_beta                 90
_cell_angle_gamma                90
_cell_volume                     4428
_exptl_crystal_colour            colorless
_exptl_crystal_description       prism
_cell_formula_units_Z            4
loop_
_atom_site_label
_atom_site_type_symbol
_atom_site_fract_x
_atom_site_fract_y
_atom_site_fract_z
Sr1 Sr 0.56116(3) 0.81801(2) 0.13517(2)
N1 N 0.4780(3) 0.6868(2) 0.08234(11)
N2 N 0.7281(3) 0.69200(19) 0.11579(10)
N3 N 0.8226(3) 0.8260(2) 0.16294(11)
N4 N 0.5849(3) 0.9104(2) 0.21709(11)
N5 N 0.3914(3) 0.94430(18) 0.15051(10)
N6 N 0.3923(3) 0.86503(19) 0.06362(11)
C1 C 0.5338(4) 0.6176(2) 0.08754(12)
C2 C 0.6776(4) 0.6187(2) 0.10373(12)
C3 C 0.7538(4) 0.5475(2) 0.10545(12)
H1 H 0.7148 0.4976 0.0977
C4 C 0.8890(4) 0.5510(2) 0.11890(13)
C5 C 0.9397(4) 0.6272(2) 0.12953(13)
H2 H 1.0295 0.6329 0.1376
C6 C 0.8577(3) 0.6959(2) 0.12837(13)
C7 C 0.9074(4) 0.7787(2) 0.14334(14)
C8 C 0.8577(4) 0.9076(3) 0.18040(15)
H3 H 0.8080 0.9481 0.1618
H4 H 0.9523 0.9172 0.1751
C9 C 0.8256(4) 0.9154(3) 0.23540(16)
H5 H 0.8278 0.9727 0.2444
H6 H 0.8947 0.8879 0.2542
C10 C 0.6899(4) 0.8801(3) 0.25031(14)
H7 H 0.6932 0.8211 0.2487
H8 H 0.6695 0.8957 0.2842
C11 C 0.4887(4) 0.9535(2) 0.23278(13)
C12 C 0.3891(4) 0.9822(2) 0.19454(13)
C13 C 0.3001(4) 1.0456(2) 0.20490(14)
H9 H 0.3027 1.0711 0.2357
C14 C 0.2089(4) 1.0707(2) 0.17001(14)
C15 C 0.2096(4) 1.0288(2) 0.12462(13)
H10 H 0.1483 1.0424 0.1001
C16 C 0.3026(4) 0.9668(2) 0.11650(13)
C17 C 0.3081(4) 0.9229(2) 0.06765(13)
C18 C 0.4121(4) 0.8207(2) 0.01747(13)
H11 H 0.5062 0.8084 0.0133
H12 H 0.3841 0.8544 -0.0102
C19 C 0.3320(4) 0.7414(2) 0.01744(15)
H13 H 0.2392 0.7540 0.0104
H14 H 0.3646 0.7069 -0.0091
C20 C 0.3389(4) 0.6938(3) 0.06585(15)
H15 H 0.2867 0.7216 0.0910
H16 H 0.3013 0.6399 0.0611
C21 C 0.4690(4) 0.5358(2) 0.07908(15)
H17 H 0.4437 0.5126 0.1104
H18 H 0.5309 0.5002 0.0627
H19 H 0.3909 0.5427 0.0588
C22 C 0.9697(4) 0.4719(2) 0.12194(14)
C23 C 0.9076(4) 0.4183(3) 0.16240(17)
H20 H 0.9091 0.4471 0.1934
H21 H 0.9579 0.3687 0.1654
H22 H 0.8170 0.4057 0.1537
C24 C 0.9622(5) 0.4276(3) 0.07149(15)
H23 H 0.8706 0.4159 0.0637
H24 H 1.0117 0.3775 0.0732
H25 H 0.9995 0.4618 0.0462
C25 C 1.1170(4) 0.4882(2) 0.13401(18)
H26 H 1.1572 0.5182 0.1073
H27 H 1.1628 0.4373 0.1382
H28 H 1.1230 0.5194 0.1640
C26 C 1.0497(5) 0.7984(3) 0.1318(3)
H29 H 1.0575 0.8553 0.1239
H30 H 1.0787 0.7664 0.1040
H31 H 1.1044 0.7861 0.1601
C27 C 0.4621(5) 0.9784(3) 0.28537(14)
H32 H 0.5192 0.9481 0.3072
H33 H 0.3704 0.9674 0.2934
H34 H 0.4796 1.0357 0.2891
C28 C 0.1158(4) 1.1432(3) 0.17902(16)
C29 C 0.0851(8) 1.1540(5) 0.2330(2)
H35 H 0.0283 1.2006 0.2373
H36 H 0.1667 1.1620 0.2510
H37 H 0.0405 1.1062 0.2452
C30 C -0.0096(6) 1.1391(4) 0.1484(2)
H38 H -0.0580 1.0903 0.1564
H39 H 0.0134 1.1387 0.1139
H40 H -0.0643 1.1859 0.1554
C31 C 0.1927(7) 1.2188(3) 0.1607(4)
H41 H 0.1385 1.2666 0.1652
H42 H 0.2137 1.2125 0.1262
H43 H 0.2738 1.2245 0.1794
C32 C 0.2154(4) 0.9521(3) 0.02730(14)
H44 H 0.2422 1.0055 0.0167
H45 H 0.1257 0.9541 0.0398
H46 H 0.2195 0.9151 -0.0003
S1 S 0.38892(10) 0.69901(7) 0.21069(4)
O1 O 0.5325(3) 0.68829(18) 0.20642(10)
O2 O 0.3443(3) 0.77171(19) 0.18585(11)
O3 O 0.3087(3) 0.6283(2) 0.20322(13)
C33 C 0.3659(5) 0.7219(3) 0.27624(18)
F1 F 0.3962(4) 0.65897(19) 0.30386(11)
F2 F 0.4424(3) 0.78422(17) 0.29048(9)
F3 F 0.2412(3) 0.7436(2) 0.28556(13)
S2 S 0.74333(10) 0.96849(6) 0.04498(4)
O4 O 0.6861(3) 0.90704(17) 0.07659(10)
O5 O 0.8837(3) 0.98139(19) 0.05305(13)
O6 O 0.7000(3) 0.9642(2) -0.00538(11)
C34 C 0.6656(5) 1.0621(3) 0.06712(18)
F4 F 0.7161(3) 1.12640(17) 0.04434(17)
F5 F 0.5348(2) 1.06268(15) 0.05969(9)
F6 F 0.6852(4) 1.0721(2) 0.11542(12)
O7 O 0.6252(4) 0.3599(2) 0.04772(15)
C35 C 0.5605(11) 0.3103(4) 0.0836(2)
H47 H 0.5389 0.3417 0.1130
H48 H 0.6169 0.2647 0.0930
C36 C 0.4382(10) 0.2814(5) 0.0589(4)
H49 H 0.3668 0.3211 0.0616
H50 H 0.4083 0.2299 0.0726
C37 C 0.4830(8) 0.2718(4) 0.0064(3)
H51 H 0.5318 0.2213 0.0014
H52 H 0.4086 0.2743 -0.0166
C38 C 0.5683(7) 0.3420(3) 0.0023(2)
H53 H 0.6381 0.3314 -0.0218
H54 H 0.5166 0.3884 -0.0091
loop_
_geom_bond_atom_site_label_1
_geom_bond_atom_site_label_2
_geom_bond_site_symmetry_1
_geom_bond_site_symmetry_2
Sr1 N1 1_555 1_555
N1 C1 1_555 1_555
N2 Sr1 1_555 1_555
N3 Sr1 1_555 1_555
N4 Sr1 1_555 1_555
N5 Sr1 1_555 1_555
N6 Sr1 1_555 1_555
C1 C2 1_555 1_555
C2 N2 1_555 1_555
C3 C2 1_555 1_555
H1 C3 1_555 1_555
C4 C3 1_555 1_555
C5 C4 1_555 1_555
H2 C5 1_555 1_555
C6 N2 1_555 1_555
C7 N3 1_555 1_555
C8 N3 1_555 1_555
H3 C8 1_555 1_555
H4 C8 1_555 1_555
C9 C8 1_555 1_555
H5 C9 1_555 1_555
H6 C9 1_555 1_555
C10 N4 1_555 1_555
H7 C10 1_555 1_555
H8 C10 1_555 1_555
C11 N4 1_555 1_555
C12 N5 1_555 1_555
C13 C12 1_555 1_555
H9 C13 1_555 1_555
C14 C13 1_555 1_555
C15 C14 1_555 1_555
H10 C15 1_555 1_555
C16 N5 1_555 1_555
C17 N6 1_555 1_555
C18 N6 1_555 1_555
H11 C18 1_555 1_555
H12 C18 1_555 1_555
C19 C18 1_555 1_555
H13 C19 1_555 1_555
H14 C19 1_555 1_555
C20 N1 1_555 1_555
H15 C20 1_555 1_555
H16 C20 1_555 1_555
C21 C1 1_555 1_555
H17 C21 1_555 1_555
H18 C21 1_555 1_555
H19 C21 1_555 1_555
C22 C4 1_555 1_555
C23 C22 1_555 1_555
H20 C23 1_555 1_555
H21 C23 1_555 1_555
H22 C23 1_555 1_555
C24 C22 1_555 1_555
H23 C24 1_555 1_555
H24 C24 1_555 1_555
H25 C24 1_555 1_555
C25 C22 1_555 1_555
H26 C25 1_555 1_555
H27 C25 1_555 1_555
H28 C25 1_555 1_555
C26 C7 1_555 1_555
H29 C26 1_555 1_555
H30 C26 1_555 1_555
H31 C26 1_555 1_555
C27 C11 1_555 1_555
H32 C27 1_555 1_555
H33 C27 1_555 1_555
H34 C27 1_555 1_555
C28 C14 1_555 1_555
C29 C28 1_555 1_555
H35 C29 1_555 1_555
H36 C29 1_555 1_555
H37 C29 1_555 1_555
C30 C28 1_555 1_555
H38 C30 1_555 1_555
H39 C30 1_555 1_555
H40 C30 1_555 1_555
C31 C28 1_555 1_555
H41 C31 1_555 1_555
H42 C31 1_555 1_555
H43 C31 1_555 1_555
C32 C17 1_555 1_555
H44 C32 1_555 1_555
H45 C32 1_555 1_555
H46 C32 1_555 1_555
S1 O1 1_555 1_555
O1 Sr1 1_555 1_555
O2 Sr1 1_555 1_555
O3 S1 1_555 1_555
C33 S1 1_555 1_555
F1 C33 1_555 1_555
F2 C33 1_555 1_555
F3 C33 1_555 1_555
S2 O4 1_555 1_555
O4 Sr1 1_555 1_555
O5 S2 1_555 1_555
O6 S2 1_555 1_555
C34 S2 1_555 1_555
F4 C34 1_555 1_555
F5 C34 1_555 1_555
F6 C34 1_555 1_555
O7 C35 1_555 1_555
C35 H47 1_555 1_555
H48 C35 1_555 1_555
C36 C35 1_555 1_555
H49 C36 1_555 1_555
H50 C36 1_555 1_555
C37 C36 1_555 1_555
H51 C37 1_555 1_555
H52 C37 1_555 1_555
C38 O7 1_555 1_555
H53 C38 1_555 1_555
H54 C38 1_555 1_555
C5 C6 1_555 1_555
C6 C7 1_555 1_555
C9 C10 1_555 1_555
C11 C12 1_555 1_555
C15 C16 1_555 1_555
C16 C17 1_555 1_555
C19 C20 1_555 1_555
S1 O2 1_555 1_555
C37 C38 1_555 1_555

#END
