
#######################################################################
#
#                 Cambridge Crystallographic Data Centre
#                                CCDC 
#
#######################################################################
#
# If this CIF has been generated from an entry in the Cambridge 
# Structural Database, then it will include bibliographic, chemical, 
# crystal, experimental, refinement or atomic coordinate data resulting 
# from the CCDC's data processing and validation procedures.
#
#######################################################################

data_GENWUU
_chemical_formula_moiety         
'C32 H42 F6 N6 O6 S2 Sr1,C32 H42 F6 N6 O6 S2 Sr1'
_chemical_name_systematic        
(\m-10,21-di-t-butyl-2,7,13,18-tetramethyl-3,6,14,17,23,24-hexa-azatricyclo[17.3.1.1^8,12^]tetracosa-1(23),2,6,8(24),9,11,13,17,19,21-decaene)-bis(trifluoromethanesulfonato)-strontium
_symmetry_cell_setting           triclinic
_symmetry_space_group_name_H-M   'P -1'
_symmetry_Int_Tables_number      2
_space_group_name_Hall           '-P 1'
loop_
_symmetry_equiv_pos_site_id
_symmetry_equiv_pos_as_xyz
1 x,y,z
2 -x,-y,-z
_cell_length_a                   15.2268(14)
_cell_length_b                   16.6444(16)
_cell_length_c                   17.9265(18)
_cell_angle_alpha                64.451(5)
_cell_angle_beta                 69.986(5)
_cell_angle_gamma                75.803(5)
_cell_volume                     3825.87
_exptl_crystal_colour            colorless
_exptl_crystal_description       plank
_cell_formula_units_Z            2
loop_
_atom_site_label
_atom_site_type_symbol
_atom_site_fract_x
_atom_site_fract_y
_atom_site_fract_z
Sr1 Sr 0.5000 1.0000 0.5000
N1 N 0.6733(4) 0.9528(3) 0.4079(3)
N2 N 0.5824(3) 0.8228(3) 0.5466(2)
N3 N 0.4256(4) 0.8682(3) 0.6502(3)
C1 C 0.7160(6) 1.0282(5) 0.3317(6)
H1 H 0.7637 1.0045 0.2901
H2 H 0.7484 1.0593 0.3491
C2 C 0.7182(4) 0.8733(3) 0.4274(3)
C3 C 0.6628(3) 0.7996(3) 0.4952(3)
C4 C 0.6946(4) 0.7101(3) 0.5017(3)
H3 H 0.7524 0.6967 0.4645
C5 C 0.6410(4) 0.6426(3) 0.5626(3)
C6 C 0.5593(4) 0.6671(3) 0.6183(3)
H4 H 0.5216 0.6224 0.6628
C7 C 0.5326(3) 0.7566(3) 0.6090(3)
C8 C 0.4485(3) 0.7839(3) 0.6705(3)
C9 C 0.3585(6) 0.9035(5) 0.7127(5)
H5 H 0.3912 0.9335 0.7311
H6 H 0.3278 0.8543 0.7640
C10 C 0.8195(3) 0.8476(3) 0.3861(3)
H7 H 0.8221 0.8221 0.3452
H8 H 0.8492 0.8030 0.4305
H9 H 0.8531 0.9009 0.3559
C11 C 0.6688(4) 0.5443(3) 0.5710(4)
C12 C 0.7619(4) 0.5321(4) 0.5038(4)
H10 H 0.8122 0.5540 0.5100
H11 H 0.7537 0.5662 0.4459
H12 H 0.7786 0.4684 0.5131
C13 C 0.6800(5) 0.4860(4) 0.6608(4)
H13 H 0.6214 0.4934 0.7036
H14 H 0.7314 0.5040 0.6693
H15 H 0.6945 0.4230 0.6673
C14 C 0.5900(5) 0.5135(4) 0.5580(5)
H16 H 0.6037 0.4492 0.5694
H17 H 0.5860 0.5468 0.4987
H18 H 0.5300 0.5247 0.5976
C15 C 0.4022(3) 0.7108(3) 0.7501(3)
H19 H 0.3543 0.7373 0.7885
H20 H 0.4496 0.6709 0.7793
H21 H 0.3724 0.6766 0.7345
S1 S 0.40581(17) 0.93384(15) 0.36180(14)
O1 O 0.4199(4) 0.9492(4) 0.4295(4)
O2 O 0.4489(4) 0.9933(4) 0.2779(4)
O3 O 0.3123(3) 0.9189(4) 0.3744(3)
C16 C 0.4759(6) 0.8278(5) 0.3695(5)
F1 F 0.5654(4) 0.8304(4) 0.3569(4)
F2 F 0.4704(4) 0.8027(4) 0.3091(4)
F3 F 0.4466(5) 0.7626(3) 0.4432(3)
N1A N 0.3267(4) 1.0472(3) 0.5921(3)
N2A N 0.4176(3) 1.1772(3) 0.4534(2)
N3A N 0.5744(4) 1.1318(3) 0.3498(3)
C1A C 0.2840(6) 0.9718(5) 0.6683(6)
H1A H 0.2363 0.9955 0.7099
H2A H 0.2516 0.9407 0.6509
C2A C 0.2818(4) 1.1267(3) 0.5726(3)
C3A C 0.3372(3) 1.2004(3) 0.5048(3)
C4A C 0.3054(4) 1.2899(3) 0.4983(3)
H3A H 0.2476 1.3033 0.5355
C5A C 0.3590(4) 1.3574(3) 0.4374(3)
C6A C 0.4407(4) 1.3329(3) 0.3817(3)
H4A H 0.4784 1.3776 0.3372
C7A C 0.4674(3) 1.2434(3) 0.3910(3)
C8A C 0.5515(3) 1.2161(3) 0.3295(3)
C9A C 0.6415(6) 1.0965(5) 0.2873(5)
H5A H 0.6088 1.0665 0.2689
H6A H 0.6722 1.1457 0.2360
C10A C 0.1805(3) 1.1524(3) 0.6139(3)
H7A H 0.1779 1.1779 0.6548
H8A H 0.1508 1.1970 0.5695
H9A H 0.1469 1.0991 0.6441
C11A C 0.3312(4) 1.4557(3) 0.4290(4)
C12A C 0.2381(4) 1.4679(4) 0.4962(4)
H10A H 0.1878 1.4460 0.4900
H11A H 0.2463 1.4338 0.5541
H12A H 0.2214 1.5316 0.4869
C13A C 0.3200(5) 1.5140(4) 0.3392(4)
H13A H 0.3786 1.5066 0.2964
H14A H 0.2686 1.4960 0.3307
H15A H 0.3055 1.5770 0.3327
C14A C 0.4100(5) 1.4865(4) 0.4420(5)
H16A H 0.3963 1.5508 0.4306
H17A H 0.4140 1.4532 0.5013
H18A H 0.4700 1.4753 0.4024
C15A C 0.5978(3) 1.2892(3) 0.2499(3)
H19A H 0.6457 1.2627 0.2115
H20A H 0.5504 1.3291 0.2207
H21A H 0.6276 1.3234 0.2655
S1A S 0.59419(17) 1.06616(15) 0.63820(14)
O1A O 0.5801(4) 1.0508(4) 0.5705(4)
O2A O 0.5511(4) 1.0067(4) 0.7221(4)
O3A O 0.6877(3) 1.0811(4) 0.6256(3)
C16A C 0.5241(6) 1.1722(5) 0.6305(5)
F1A F 0.4346(4) 1.1696(4) 0.6431(4)
F2A F 0.5296(4) 1.1973(4) 0.6909(4)
F3A F 0.5534(5) 1.2374(3) 0.5568(3)
Sr2 Sr 1.00495(3) 0.74404(2) 0.75856(2)
N4 N 1.1858(3) 0.6954(3) 0.6826(3)
N5 N 1.0794(3) 0.5656(3) 0.7982(2)
N6 N 0.9266(3) 0.6115(2) 0.9060(2)
N7 N 0.8314(3) 0.7915(2) 0.8503(2)
N8 N 0.9245(3) 0.9202(2) 0.7120(2)
N9 N 1.0979(3) 0.8763(3) 0.6219(3)
C20 C 1.2404(4) 0.7715(3) 0.6300(4)
H26 H 1.3015 0.7520 0.5957
H27 H 1.2532 0.7942 0.6675
C21 C 1.2183(3) 0.6173(3) 0.6835(3)
C22 C 1.1585(3) 0.5428(3) 0.7458(3)
C23 C 1.1853(3) 0.4562(3) 0.7475(3)
H28 H 1.2422 0.4432 0.7089
C24 C 1.1297(3) 0.3886(3) 0.8050(3)
C25 C 1.0485(3) 0.4123(3) 0.8607(3)
H29 H 1.0084 0.3681 0.9021
C26 C 1.0255(3) 0.4998(3) 0.8561(3)
C27 C 0.9422(3) 0.5273(3) 0.9193(3)
C28 C 0.8520(4) 0.6464(3) 0.9654(3)
H30 H 0.8803 0.6734 0.9901
H31 H 0.8184 0.5964 1.0131
C29 C 0.7837(3) 0.7154(3) 0.9206(3)
H32 H 0.7542 0.6880 0.8971
H33 H 0.7333 0.7371 0.9622
C30 C 0.7891(3) 0.8696(3) 0.8324(3)
C31 C 0.8435(3) 0.9441(3) 0.7623(3)
C32 C 0.8112(3) 1.0326(3) 0.7528(3)
H34 H 0.7534 1.0460 0.7902
C33 C 0.8627(4) 1.1022(3) 0.6889(3)
C34 C 0.9453(3) 1.0777(3) 0.6350(3)
H35 H 0.9820 1.1225 0.5893
C35 C 0.9746(3) 0.9871(3) 0.6480(3)
C36 C 1.0629(3) 0.9589(3) 0.5920(3)
C37 C 1.1870(4) 0.8449(4) 0.5709(4)
H36 H 1.2253 0.8954 0.5339
H37 H 1.1740 0.8222 0.5334
C38 C 1.3101(4) 0.5914(4) 0.6279(4)
H38 H 1.3415 0.6451 0.5885
H39 H 1.2983 0.5632 0.5948
H40 H 1.3503 0.5491 0.6641
C39 C 1.1550(4) 0.2922(3) 0.8092(3)
C40 C 1.2457(4) 0.2811(3) 0.7413(3)
H41 H 1.2394 0.3227 0.6841
H42 H 1.2572 0.2194 0.7441
H43 H 1.2985 0.2942 0.7520
C41 C 1.1693(4) 0.2295(3) 0.8982(3)
H44 H 1.1831 0.1674 0.9021
H45 H 1.1120 0.2355 0.9429
H46 H 1.2221 0.2459 0.9063
C42 C 1.0747(4) 0.2648(4) 0.7953(4)
H47 H 1.0641 0.3061 0.7395
H48 H 1.0172 0.2673 0.8410
H49 H 1.0914 0.2037 0.7964
C43 C 0.8883(4) 0.4535(3) 0.9918(3)
H50 H 0.8315 0.4796 1.0240
H51 H 0.9277 0.4146 1.0301
H52 H 0.8704 0.4182 0.9685
C44 C 0.6891(3) 0.8970(3) 0.8735(3)
H53 H 0.6542 0.8446 0.9040
H54 H 0.6598 0.9423 0.8291
H55 H 0.6878 0.9222 0.9143
C45 C 0.8310(4) 1.2001(3) 0.6777(3)
C46 C 0.7392(4) 1.2123(4) 0.7435(4)
H56 H 0.6896 1.1884 0.7387
H57 H 0.7213 1.2763 0.7327
H58 H 0.7478 1.1802 0.8014
C47 C 0.8147(4) 1.2541(3) 0.5869(3)
H59 H 0.7647 1.2307 0.5820
H60 H 0.8730 1.2481 0.5431
H61 H 0.7963 1.3175 0.5784
C48 C 0.9092(4) 1.2361(4) 0.6867(4)
H62 H 0.8888 1.2980 0.6829
H63 H 0.9664 1.2344 0.6405
H64 H 0.9221 1.1988 0.7424
C49 C 1.1072(4) 1.0290(3) 0.5068(3)
H65 H 1.1452 1.0620 0.5159
H66 H 1.0576 1.0707 0.4817
H67 H 1.1474 0.9996 0.4677
S3 S 0.91387(16) 0.70875(16) 0.63339(14)
O7 O 0.9953(3) 0.7551(3) 0.5996(3)
O8 O 0.8838(4) 0.6765(3) 0.7263(3)
O9 O 0.8401(4) 0.7512(4) 0.5919(4)
C50 C 0.9554(6) 0.6084(5) 0.6078(5)
F7 F 1.0270(6) 0.5629(4) 0.6392(5)
F8 F 0.9819(4) 0.6286(4) 0.5249(3)
F9 F 0.8882(4) 0.5562(4) 0.6412(3)
S4 S 1.0951(3) 0.8161(4) 0.8961(3)
O10 O 1.0774(6) 0.7955(6) 0.8342(6)
O11 O 1.0551(7) 0.7603(5) 0.9831(5)
O12 O 1.1885(4) 0.8310(5) 0.8778(5)
C51 C 1.0262(9) 0.9251(6) 0.8857(6)
F10 F 1.0558(7) 0.9852(6) 0.8061(5)
F11 F 0.9367(4) 0.9203(5) 0.9010(4)
F12 F 1.0337(6) 0.9537(4) 0.9404(5)
Sr3 Sr 0.5000 0.5000 1.0000
N10 N 0.3204(3) 0.5473(3) 1.0793(4)
N11 N 0.4278(3) 0.6772(2) 0.9611(2)
N12 N 0.5920(3) 0.6340(3) 0.8634(3)
C54 C 0.2639(8) 0.4757(7) 1.1191(9)
H68 H 0.2571 0.4574 1.0758
H69 H 0.2006 0.4932 1.1518
C55 C 0.2889(3) 0.6259(3) 1.0785(3)
C56 C 0.3476(3) 0.6993(3) 1.0131(3)
C57 C 0.3163(3) 0.7880(3) 1.0082(3)
H70 H 0.2591 0.8011 1.0464
C58 C 0.3702(3) 0.8562(3) 0.9467(3)
C59 C 0.4525(4) 0.8320(3) 0.8918(3)
H71 H 0.4911 0.8765 0.8484
C60 C 0.4780(3) 0.7436(3) 0.9002(3)
C61 C 0.5665(3) 0.7164(3) 0.8420(3)
C62 C 0.6836(8) 0.5981(7) 0.8222(8)
H72 H 0.7232 0.6478 0.7871
H73 H 0.6750 0.5757 0.7825
C63 C 0.1968(4) 0.6515(3) 1.1335(3)
H74 H 0.1670 0.5974 1.1748
H75 H 0.1555 0.6911 1.0972
H76 H 0.2075 0.6828 1.1645
C64 C 0.3418(4) 0.9530(3) 0.9391(4)
C65 C 0.2502(4) 0.9645(3) 1.0067(3)
H77 H 0.1999 0.9415 1.0018
H78 H 0.2327 1.0281 0.9972
H79 H 0.2596 0.9310 1.0642
C66 C 0.3250(5) 1.0109(4) 0.8511(4)
H80 H 0.3828 1.0068 0.8062
H81 H 0.3070 1.0734 0.8459
H82 H 0.2744 0.9898 0.8446
C67 C 0.4217(4) 0.9853(4) 0.9495(5)
H83 H 0.4303 0.9496 1.0071
H84 H 0.4055 1.0486 0.9418
H85 H 0.4801 0.9783 0.9064
C68 C 0.6172(4) 0.7871(3) 0.7625(3)
H86 H 0.6640 0.8062 0.7758
H87 H 0.5718 0.8387 0.7419
H88 H 0.6487 0.7626 0.7178
S7 S 0.58714(18) 0.55037(14) 1.14946(16)
O19 O 0.68445(19) 0.5562(2) 1.1000(3)
O20 O 0.5285(3) 0.5260(2) 1.1157(3)
O21 O 0.5714(3) 0.5092(2) 1.24156(17)
C69 C 0.5415(2) 0.66910(14) 1.13190(19)
F19 F 0.4503(3) 0.6784(2) 1.1734(3)
F20 F 0.5875(4) 0.7050(2) 1.1595(3)
F21 F 0.5498(3) 0.71977(17) 1.0487(2)
N10A N 0.6796(3) 0.4527(3) 0.9207(4)
N11A N 0.5722(3) 0.3228(2) 1.0389(2)
N12A N 0.4080(3) 0.3660(3) 1.1366(3)
C54A C 0.7361(8) 0.5243(7) 0.8809(9)
H68A H 0.7429 0.5426 0.9242
H69A H 0.7994 0.5068 0.8482
C55A C 0.7111(3) 0.3741(3) 0.9215(3)
C56A C 0.6524(3) 0.3007(3) 0.9869(3)
C57A C 0.6837(3) 0.2120(3) 0.9918(3)
H70A H 0.7409 0.1989 0.9536
C58A C 0.6298(3) 0.1438(3) 1.0533(3)
C59A C 0.5475(4) 0.1680(3) 1.1082(3)
H71A H 0.5089 0.1235 1.1516
C60A C 0.5220(3) 0.2564(3) 1.0998(3)
C61A C 0.4335(3) 0.2836(3) 1.1580(3)
C62A C 0.3164(8) 0.4019(7) 1.1778(8)
H72A H 0.2768 0.3522 1.2129
H73A H 0.3250 0.4243 1.2175
C63A C 0.8032(4) 0.3485(3) 0.8665(3)
H74A H 0.8330 0.4026 0.8252
H75A H 0.8445 0.3089 0.9028
H76A H 0.7925 0.3172 0.8355
C64A C 0.6582(4) 0.0470(3) 1.0609(4)
C65A C 0.7498(4) 0.0355(3) 0.9933(3)
H77A H 0.8001 0.0585 0.9982
H78A H 0.7673 -0.0281 1.0028
H79A H 0.7404 0.0690 0.9358
C66A C 0.6750(5) -0.0109(4) 1.1489(4)
H80A H 0.6172 -0.0068 1.1938
H81A H 0.6930 -0.0734 1.1541
H82A H 0.7256 0.0102 1.1554
C67A C 0.5783(4) 0.0147(4) 1.0505(5)
H83A H 0.5697 0.0504 0.9929
H84A H 0.5945 -0.0486 1.0582
H85A H 0.5199 0.0217 1.0936
C68A C 0.3828(4) 0.2129(3) 1.2375(3)
H86A H 0.3360 0.1938 1.2242
H87A H 0.4282 0.1613 1.2581
H88A H 0.3513 0.2374 1.2822
S7A S 0.41286(18) 0.44963(14) 0.85054(16)
O19A O 0.31555(19) 0.4438(2) 0.9000(3)
O20A O 0.4715(3) 0.4740(2) 0.8843(3)
O21A O 0.4286(3) 0.4908(2) 0.75844(17)
C69A C 0.4585(2) 0.33090(14) 0.86810(19)
F19A F 0.5497(3) 0.3216(2) 0.8266(3)
F20A F 0.4125(4) 0.2950(2) 0.8405(3)
F21A F 0.4502(3) 0.28023(17) 0.9513(2)
C17? C 0.7470(17) 1.0256(18) 0.371(2)
H22? H 0.7519 1.0435 0.4150
H23? H 0.8101 1.0070 0.3386
C18? C 0.3140(16) 0.9026(17) 0.6890(16)
H24? H 0.2804 0.8486 0.7215
H25? H 0.3129 0.9262 0.7315
S2? S 0.4124(5) 0.9537(5) 0.3814(5)
O4? O 0.4905(7) 1.0064(6) 0.3322(8)
O5? O 0.3923(9) 0.9228(7) 0.4736(6)
O6? O 0.3311(6) 0.9847(8) 0.3479(8)
C19? C 0.4586(6) 0.8484(5) 0.3623(5)
F4? F 0.3956(9) 0.7892(7) 0.4033(8)
F5? F 0.4819(9) 0.8628(8) 0.2789(6)
F6? F 0.5358(8) 0.8083(6) 0.3895(8)
S5? S 0.9072(3) 0.6895(3) 0.6179(3)
O13? O 0.9211(6) 0.6952(5) 0.6911(5)
O14? O 0.8133(3) 0.6754(5) 0.6276(5)
O15? O 0.9526(6) 0.7522(4) 0.5350(4)
C52? C 0.9759(5) 0.5811(4) 0.6177(4)
F13? F 0.9720(7) 0.5628(6) 0.5533(6)
F14? F 1.0669(4) 0.5802(6) 0.6092(7)
F15? F 0.9443(7) 0.5126(3) 0.6906(5)
S6? S 1.0924(4) 0.8025(3) 0.9016(4)
O16? O 1.0288(7) 0.7747(4) 0.8755(6)
O17? O 1.0831(8) 0.7652(4) 0.9928(4)
O18? O 1.1877(4) 0.8075(6) 0.8470(7)
C53? C 1.0476(5) 0.9220(3) 0.8809(4)
F16? F 1.0981(9) 0.9609(4) 0.9014(6)
F17? F 1.0502(7) 0.9693(4) 0.7982(5)
F18? F 0.9582(6) 0.9321(5) 0.9265(6)
C70? C 0.2708(10) 0.4669(9) 1.1581(7)
H89? H 0.2206 0.4915 1.1977
H90? H 0.2402 0.4382 1.1367
C71? C 0.6650(11) 0.6049(9) 0.7912(8)
H91? H 0.6348 0.5802 0.7660
H92? H 0.6993 0.6553 0.7450
S8? S 0.59108(19) 0.54151(16) 1.11992(16)
O22? O 0.6261(3) 0.5777(2) 1.02742(16)
O23? O 0.5056(3) 0.4996(3) 1.1539(3)
O24? O 0.6617(3) 0.4958(2) 1.1661(3)
C72? C 0.5509(3) 0.6440(2) 1.1445(2)
F22? F 0.5152(4) 0.6246(3) 1.2289(3)
F23? F 0.6212(4) 0.6934(2) 1.1176(3)
F24? F 0.4838(3) 0.6967(3) 1.1069(4)
loop_
_geom_bond_atom_site_label_1
_geom_bond_atom_site_label_2
_geom_bond_site_symmetry_1
_geom_bond_site_symmetry_2
Sr1 N1 1_555 1_555
N1 C1 1_555 1_555
N2 Sr1 1_555 1_555
N3 Sr1 1_555 1_555
C1 H1 1_555 1_555
H2 C1 1_555 1_555
C2 N1 1_555 1_555
C3 N2 1_555 1_555
C4 C3 1_555 1_555
H3 C4 1_555 1_555
C5 C4 1_555 1_555
C6 C5 1_555 1_555
H4 C6 1_555 1_555
C7 N2 1_555 1_555
C8 N3 1_555 1_555
C9 N3 1_555 1_555
H5 C9 1_555 1_555
H6 C9 1_555 1_555
C10 C2 1_555 1_555
H7 C10 1_555 1_555
H8 C10 1_555 1_555
H9 C10 1_555 1_555
C11 C5 1_555 1_555
C12 C11 1_555 1_555
H10 C12 1_555 1_555
H11 C12 1_555 1_555
H12 C12 1_555 1_555
C13 C11 1_555 1_555
H13 C13 1_555 1_555
H14 C13 1_555 1_555
H15 C13 1_555 1_555
C14 C11 1_555 1_555
H16 C14 1_555 1_555
H17 C14 1_555 1_555
H18 C14 1_555 1_555
C15 C8 1_555 1_555
H19 C15 1_555 1_555
H20 C15 1_555 1_555
H21 C15 1_555 1_555
S1 O1 1_555 1_555
O1 Sr1 1_555 1_555
O2 S1 1_555 1_555
O3 S1 1_555 1_555
C16 S1 1_555 1_555
F1 C16 1_555 1_555
F2 C16 1_555 1_555
F3 C16 1_555 1_555
Sr2 N4 1_555 1_555
N4 C20 1_555 1_555
N5 Sr2 1_555 1_555
N6 Sr2 1_555 1_555
N7 Sr2 1_555 1_555
N8 Sr2 1_555 1_555
N9 Sr2 1_555 1_555
C20 H26 1_555 1_555
H27 C20 1_555 1_555
C21 N4 1_555 1_555
C22 N5 1_555 1_555
C23 C22 1_555 1_555
H28 C23 1_555 1_555
C24 C23 1_555 1_555
C25 C24 1_555 1_555
H29 C25 1_555 1_555
C26 N5 1_555 1_555
C27 N6 1_555 1_555
C28 N6 1_555 1_555
H30 C28 1_555 1_555
H31 C28 1_555 1_555
C29 N7 1_555 1_555
H32 C29 1_555 1_555
H33 C29 1_555 1_555
C30 N7 1_555 1_555
C31 N8 1_555 1_555
C32 C31 1_555 1_555
H34 C32 1_555 1_555
C33 C32 1_555 1_555
C34 C33 1_555 1_555
H35 C34 1_555 1_555
C35 N8 1_555 1_555
C36 N9 1_555 1_555
C37 N9 1_555 1_555
H36 C37 1_555 1_555
H37 C37 1_555 1_555
C38 C21 1_555 1_555
H38 C38 1_555 1_555
H39 C38 1_555 1_555
H40 C38 1_555 1_555
C39 C24 1_555 1_555
C40 C39 1_555 1_555
H41 C40 1_555 1_555
H42 C40 1_555 1_555
H43 C40 1_555 1_555
C41 C39 1_555 1_555
H44 C41 1_555 1_555
H45 C41 1_555 1_555
H46 C41 1_555 1_555
C42 C39 1_555 1_555
H47 C42 1_555 1_555
H48 C42 1_555 1_555
H49 C42 1_555 1_555
C43 C27 1_555 1_555
H50 C43 1_555 1_555
H51 C43 1_555 1_555
H52 C43 1_555 1_555
C44 C30 1_555 1_555
H53 C44 1_555 1_555
H54 C44 1_555 1_555
H55 C44 1_555 1_555
C45 C33 1_555 1_555
C46 C45 1_555 1_555
H56 C46 1_555 1_555
H57 C46 1_555 1_555
H58 C46 1_555 1_555
C47 C45 1_555 1_555
H59 C47 1_555 1_555
H60 C47 1_555 1_555
H61 C47 1_555 1_555
C48 C45 1_555 1_555
H62 C48 1_555 1_555
H63 C48 1_555 1_555
H64 C48 1_555 1_555
C49 C36 1_555 1_555
H65 C49 1_555 1_555
H66 C49 1_555 1_555
H67 C49 1_555 1_555
S3 O7 1_555 1_555
O7 Sr2 1_555 1_555
O8 Sr2 1_555 1_555
O9 S3 1_555 1_555
C50 S3 1_555 1_555
F7 C50 1_555 1_555
F8 C50 1_555 1_555
F9 C50 1_555 1_555
S4 O10 1_555 1_555
O10 Sr2 1_555 1_555
O11 S4 1_555 1_555
O12 S4 1_555 1_555
C51 S4 1_555 1_555
F10 C51 1_555 1_555
F11 C51 1_555 1_555
F12 C51 1_555 1_555
Sr3 N10 1_555 1_555
N10 C54 1_555 1_555
N11 Sr3 1_555 1_555
N12 Sr3 1_555 1_555
C54 H68 1_555 1_555
H69 C54 1_555 1_555
C55 N10 1_555 1_555
C56 N11 1_555 1_555
C57 C56 1_555 1_555
H70 C57 1_555 1_555
C58 C57 1_555 1_555
C59 C58 1_555 1_555
H71 C59 1_555 1_555
C60 N11 1_555 1_555
C61 N12 1_555 1_555
C62 N12 1_555 1_555
H72 C62 1_555 1_555
H73 C62 1_555 1_555
C63 C55 1_555 1_555
H74 C63 1_555 1_555
H75 C63 1_555 1_555
H76 C63 1_555 1_555
C64 C58 1_555 1_555
C65 C64 1_555 1_555
H77 C65 1_555 1_555
H78 C65 1_555 1_555
H79 C65 1_555 1_555
C66 C64 1_555 1_555
H80 C66 1_555 1_555
H81 C66 1_555 1_555
H82 C66 1_555 1_555
C67 C64 1_555 1_555
H83 C67 1_555 1_555
H84 C67 1_555 1_555
H85 C67 1_555 1_555
C68 C61 1_555 1_555
H86 C68 1_555 1_555
H87 C68 1_555 1_555
H88 C68 1_555 1_555
S7 O19 1_555 1_555
O20 Sr3 1_555 1_555
O21 S7 1_555 1_555
C69 S7 1_555 1_555
F19 C69 1_555 1_555
F20 C69 1_555 1_555
F21 C69 1_555 1_555
N1A Sr1 1_555 1_555
N2A Sr1 1_555 1_555
N3A Sr1 1_555 1_555
C1A C9 1_555 1_555
H1A C1A 1_555 1_555
H2A C1A 1_555 1_555
C2A N1A 1_555 1_555
C3A N2A 1_555 1_555
C4A C3A 1_555 1_555
H3A C4A 1_555 1_555
C5A C4A 1_555 1_555
C6A C5A 1_555 1_555
H4A C6A 1_555 1_555
C7A N2A 1_555 1_555
C8A N3A 1_555 1_555
C9A C1 1_555 1_555
H5A C9A 1_555 1_555
H6A C9A 1_555 1_555
C10A C2A 1_555 1_555
H7A C10A 1_555 1_555
H8A C10A 1_555 1_555
H9A C10A 1_555 1_555
C11A C5A 1_555 1_555
C12A C11A 1_555 1_555
H10A C12A 1_555 1_555
H11A C12A 1_555 1_555
H12A C12A 1_555 1_555
C13A C11A 1_555 1_555
H13A C13A 1_555 1_555
H14A C13A 1_555 1_555
H15A C13A 1_555 1_555
C14A C11A 1_555 1_555
H16A C14A 1_555 1_555
H17A C14A 1_555 1_555
H18A C14A 1_555 1_555
C15A C8A 1_555 1_555
H19A C15A 1_555 1_555
H20A C15A 1_555 1_555
H21A C15A 1_555 1_555
S1A O1A 1_555 1_555
O1A Sr1 1_555 1_555
O2A S1A 1_555 1_555
O3A S1A 1_555 1_555
C16A S1A 1_555 1_555
F1A C16A 1_555 1_555
F2A C16A 1_555 1_555
F3A C16A 1_555 1_555
N10A Sr3 1_555 1_555
N11A Sr3 1_555 1_555
N12A Sr3 1_555 1_555
C54A C62 1_555 1_555
H68A C54A 1_555 1_555
H69A C54A 1_555 1_555
C55A N10A 1_555 1_555
C56A N11A 1_555 1_555
C57A C56A 1_555 1_555
H70A C57A 1_555 1_555
C58A C57A 1_555 1_555
C59A C58A 1_555 1_555
H71A C59A 1_555 1_555
C60A N11A 1_555 1_555
C61A N12A 1_555 1_555
C62A C54 1_555 1_555
H72A C62A 1_555 1_555
H73A C62A 1_555 1_555
C63A C55A 1_555 1_555
H74A C63A 1_555 1_555
H75A C63A 1_555 1_555
H76A C63A 1_555 1_555
C64A C58A 1_555 1_555
C65A C64A 1_555 1_555
H77A C65A 1_555 1_555
H78A C65A 1_555 1_555
H79A C65A 1_555 1_555
C66A C64A 1_555 1_555
H80A C66A 1_555 1_555
H81A C66A 1_555 1_555
H82A C66A 1_555 1_555
C67A C64A 1_555 1_555
H83A C67A 1_555 1_555
H84A C67A 1_555 1_555
H85A C67A 1_555 1_555
C68A C61A 1_555 1_555
H86A C68A 1_555 1_555
H87A C68A 1_555 1_555
H88A C68A 1_555 1_555
S7A O19A 1_555 1_555
O20A Sr3 1_555 1_555
O21A S7A 1_555 1_555
C69A S7A 1_555 1_555
F19A C69A 1_555 1_555
F20A C69A 1_555 1_555
F21A C69A 1_555 1_555
C2 C3 1_555 1_555
C6 C7 1_555 1_555
C7 C8 1_555 1_555
C20 C37 1_555 1_555
C21 C22 1_555 1_555
C25 C26 1_555 1_555
C26 C27 1_555 1_555
C28 C29 1_555 1_555
C30 C31 1_555 1_555
C34 C35 1_555 1_555
C35 C36 1_555 1_555
S3 O8 1_555 1_555
C55 C56 1_555 1_555
C59 C60 1_555 1_555
C60 C61 1_555 1_555
S7 O20 1_555 1_555
N1A C1A 1_555 1_555
N3A C9A 1_555 1_555
C2A C3A 1_555 1_555
C6A C7A 1_555 1_555
C7A C8A 1_555 1_555
N10A C54A 1_555 1_555
N12A C62A 1_555 1_555
C55A C56A 1_555 1_555
C59A C60A 1_555 1_555
C60A C61A 1_555 1_555
S7A O20A 1_555 1_555

#END
