
#######################################################################
#
#                 Cambridge Crystallographic Data Centre
#                                CCDC 
#
#######################################################################
#
# If this CIF has been generated from an entry in the Cambridge 
# Structural Database, then it will include bibliographic, chemical, 
# crystal, experimental, refinement or atomic coordinate data resulting 
# from the CCDC's data processing and validation procedures.
#
#######################################################################

data_GENZIL
_chemical_compound_source        'Agarwood of Aquilaria malaccensis'
_chemical_name_common            'aquilanol B'
_chemical_formula_moiety         'C15 H24 O3'
_chemical_name_systematic        
1,6,6-trimethyl-4,13-dioxatricyclo[7.3.2.0^3,5^]tetradec-8-en-12-ol
_symmetry_cell_setting           monoclinic
_symmetry_space_group_name_H-M   'P 21/n'
_symmetry_Int_Tables_number      14
_space_group_name_Hall           '-P 2yn'
loop_
_symmetry_equiv_pos_site_id
_symmetry_equiv_pos_as_xyz
1 x,y,z
2 1/2-x,1/2+y,1/2-z
3 -x,-y,-z
4 1/2+x,1/2-y,1/2+z
_cell_length_a                   11.6837(3)
_cell_length_b                   6.49484(20)
_cell_length_c                   18.4991(6)
_cell_angle_alpha                90
_cell_angle_beta                 100.765(3)
_cell_angle_gamma                90
_cell_volume                     1379.08
_exptl_crystal_colour            colorless
_exptl_crystal_description       block
_cell_formula_units_Z            4
loop_
_atom_site_label
_atom_site_type_symbol
_atom_site_fract_x
_atom_site_fract_y
_atom_site_fract_z
O1 O 0.53143(8) 0.46349(15) 0.41218(5)
O2 O 0.62427(12) 0.7977(2) 0.50468(6)
H1 H 0.5583 0.7576 0.5064
O3 O 0.69304(8) 0.49386(18) 0.20504(5)
C1 C 0.36518(12) 0.5391(3) 0.18240(8)
H2 H 0.2999 0.5729 0.1436
H3 H 0.3491 0.4067 0.2027
C2 C 0.37443(11) 0.6993(3) 0.24184(8)
H4 H 0.3503 0.8313 0.2266
C3 C 0.41318(10) 0.6745(2) 0.31380(8)
C4 C 0.43343(12) 0.8558(2) 0.36480(9)
H5 H 0.4091 0.8210 0.4106
H6 H 0.3862 0.9705 0.3429
C5 C 0.56179(13) 0.9211(2) 0.38101(9)
H7 H 0.5884 0.9333 0.3346
H8 H 0.5668 1.0567 0.4033
C6 C 0.64451(12) 0.7789(2) 0.43074(8)
H9 H 0.7233 0.8311 0.4311
C7 C 0.64545(11) 0.5491(2) 0.40975(7)
C8 C 0.69503(10) 0.5004(2) 0.33969(7)
H10 H 0.7753 0.5469 0.3493
H11 H 0.6974 0.3515 0.3359
C9 C 0.64142(10) 0.5789(2) 0.26428(6)
H12 H 0.6223 0.7259 0.2608
C10 C 0.57359(12) 0.4466(2) 0.20886(7)
H13 H 0.5622 0.3069 0.2263
C11 C 0.47628(12) 0.5203(2) 0.14870(7)
C12 C 0.44123(11) 0.4664(2) 0.34842(7)
H14 H 0.3709 0.4106 0.3617
H15 H 0.4635 0.3754 0.3118
C13 C 0.72514(14) 0.4338(3) 0.47202(8)
H16 H 0.6935 0.4428 0.5162
H17 H 0.8013 0.4947 0.4803
H18 H 0.7305 0.2919 0.4585
C14 C 0.45602(19) 0.3589(4) 0.08745(9)
H19 H 0.5261 0.3413 0.0681
H20 H 0.3943 0.4038 0.0489
H21 H 0.4349 0.2303 0.1069
C15 C 0.50507(14) 0.7261(3) 0.11643(8)
H22 H 0.5160 0.8290 0.1543
H23 H 0.4421 0.7661 0.0779
H24 H 0.5752 0.7125 0.0968
loop_
_geom_bond_atom_site_label_1
_geom_bond_atom_site_label_2
_geom_bond_site_symmetry_1
_geom_bond_site_symmetry_2
O1 C7 1_555 1_555
O2 H1 1_555 1_555
O3 C9 1_555 1_555
C1 H2 1_555 1_555
H3 C1 1_555 1_555
C2 C1 1_555 1_555
H4 C2 1_555 1_555
C3 C2 1_555 1_555
C4 C3 1_555 1_555
H5 C4 1_555 1_555
H6 C4 1_555 1_555
C5 C4 1_555 1_555
H7 C5 1_555 1_555
H8 C5 1_555 1_555
C6 O2 1_555 1_555
H9 C6 1_555 1_555
C7 C6 1_555 1_555
C8 C7 1_555 1_555
H10 C8 1_555 1_555
H11 C8 1_555 1_555
C9 C8 1_555 1_555
H12 C9 1_555 1_555
C10 O3 1_555 1_555
H13 C10 1_555 1_555
C11 C1 1_555 1_555
C12 O1 1_555 1_555
H14 C12 1_555 1_555
H15 C12 1_555 1_555
C13 C7 1_555 1_555
H16 C13 1_555 1_555
H17 C13 1_555 1_555
H18 C13 1_555 1_555
C14 C11 1_555 1_555
H19 C14 1_555 1_555
H20 C14 1_555 1_555
H21 C14 1_555 1_555
C15 C11 1_555 1_555
H22 C15 1_555 1_555
H23 C15 1_555 1_555
H24 C15 1_555 1_555
C3 C12 1_555 1_555
C5 C6 1_555 1_555
C9 C10 1_555 1_555
C10 C11 1_555 1_555

#END
