
#######################################################################
#
#                 Cambridge Crystallographic Data Centre
#                                CCDC 
#
#######################################################################
#
# If this CIF has been generated from an entry in the Cambridge 
# Structural Database, then it will include bibliographic, chemical, 
# crystal, experimental, refinement or atomic coordinate data resulting 
# from the CCDC's data processing and validation procedures.
#
#######################################################################

data_GEPCOT02
_chemical_formula_moiety         'C11 H12 O3'
_chemical_name_systematic        (-)-1-Phenyl-2,7,8-trioxabicyclo(3.2.1)octane
_symmetry_cell_setting           monoclinic
_symmetry_space_group_name_H-M   'P 21'
_symmetry_Int_Tables_number      4
_space_group_name_Hall           'P 2yb'
loop_
_symmetry_equiv_pos_site_id
_symmetry_equiv_pos_as_xyz
1 x,y,z
2 -x,1/2+y,-z
_cell_length_a                   7.8520(9)
_cell_length_b                   10.493(1)
_cell_length_c                   6.1048(6)
_cell_angle_alpha                90
_cell_angle_beta                 107.02(1)
_cell_angle_gamma                90
_cell_volume                     480.952
_chemical_melting_point          59.5-60.5deg.C
_cell_formula_units_Z            2
loop_
_atom_site_label
_atom_site_type_symbol
_atom_site_fract_x
_atom_site_fract_y
_atom_site_fract_z
O1 O 0.0254(3) 0.3773(2) 0.2723(4)
O2 O 0.0399(3) 0.2827(2) -0.0646(4)
O3 O 0.1851(3) 0.4679(2) 0.0456(4)
C1 C -0.1216(4) 0.4568(4) 0.1608(7)
C2 C -0.2132(4) 0.4132(4) -0.0857(7)
C3 C -0.0706(4) 0.3794(3) -0.2019(6)
C4 C 0.0659(4) 0.4868(3) -0.1788(6)
C5 C 0.1352(4) 0.3526(3) 0.1316(5)
C6 C 0.2989(4) 0.2778(3) 0.2656(6)
C7 C 0.4359(4) 0.2632(4) 0.1673(6)
C8 C 0.5832(5) 0.1904(5) 0.2775(8)
C9 C 0.5951(5) 0.1333(4) 0.4867(7)
C10 C 0.4581(5) 0.1489(4) 0.5849(6)
C11 C 0.3098(4) 0.2210(4) 0.4745(6)
H1 H -0.2140(30) 0.4560(40) 0.2630(60)
H2 H -0.0730(40) 0.5540(40) 0.1570(60)
H3 H -0.3010(30) 0.4870(40) -0.1830(60)
H4 H -0.2900(30) 0.3270(40) -0.0790(60)
H5 H -0.1260(40) 0.3450(30) -0.3760(50)
H6 H 0.1400(40) 0.4760(30) -0.3030(50)
H7 H 0.0000(40) 0.5790(30) -0.1930(60)
H8 H 0.4300(30) 0.3130(40) 0.0100(60)
H9 H 0.6930(40) 0.1810(40) 0.2040(70)
H10 H 0.7110(40) 0.0780(40) 0.5740(60)
H11 H 0.4600(40) 0.0980(40) 0.7390(60)
H12 H 0.2010(40) 0.2330(30) 0.5460(60)
loop_
_geom_bond_atom_site_label_1
_geom_bond_atom_site_label_2
_geom_bond_site_symmetry_1
_geom_bond_site_symmetry_2
O1 C1 1_555 1_555
O2 C3 1_555 1_555
O3 C4 1_555 1_555
C1 C2 1_555 1_555
C2 C3 1_555 1_555
C3 C4 1_555 1_555
C4 H6 1_555 1_555
C5 O1 1_555 1_555
C6 C5 1_555 1_555
C7 C6 1_555 1_555
C8 C7 1_555 1_555
C9 C8 1_555 1_555
C10 C9 1_555 1_555
C11 C6 1_555 1_555
H1 C1 1_555 1_555
H2 C1 1_555 1_555
H3 C2 1_555 1_555
H4 C2 1_555 1_555
H5 C3 1_555 1_555
H7 C4 1_555 1_555
H8 C7 1_555 1_555
H9 C8 1_555 1_555
H10 C9 1_555 1_555
H11 C10 1_555 1_555
H12 C11 1_555 1_555
O2 C5 1_555 1_555
O3 C5 1_555 1_555
C10 C11 1_555 1_555

#END
