
#######################################################################
#
#                 Cambridge Crystallographic Data Centre
#                                CCDC 
#
#######################################################################
#
# If this CIF has been generated from an entry in the Cambridge 
# Structural Database, then it will include bibliographic, chemical, 
# crystal, experimental, refinement or atomic coordinate data resulting 
# from the CCDC's data processing and validation procedures.
#
#######################################################################

data_GEPDOV
_chemical_formula_moiety         'C14 H11 N3 S1'
_chemical_name_systematic        8-(Pyrimidin-2-ylsulfanylmethyl)quinoline
_symmetry_cell_setting           monoclinic
_symmetry_space_group_name_H-M   'P 21/c'
_symmetry_Int_Tables_number      14
_space_group_name_Hall           '-P 2ybc'
loop_
_symmetry_equiv_pos_site_id
_symmetry_equiv_pos_as_xyz
1 x,y,z
2 -x,1/2+y,1/2-z
3 -x,-y,-z
4 x,1/2-y,1/2+z
_cell_length_a                   9.5743(19)
_cell_length_b                   8.0531(16)
_cell_length_c                   15.951(3)
_cell_angle_alpha                90
_cell_angle_beta                 96.60(3)
_cell_angle_gamma                90
_cell_volume                     1221.72
_exptl_crystal_colour            yellow
_exptl_crystal_description       block
_cell_formula_units_Z            4
_exptl_crystal_recrystallization_method dichloromethane/acetone
loop_
_atom_site_label
_atom_site_type_symbol
_atom_site_fract_x
_atom_site_fract_y
_atom_site_fract_z
S1 S 0.88138(4) 0.14844(5) 0.40183(3)
N1 N 0.61030(14) -0.12236(16) 0.38185(8)
N2 N 0.84663(13) 0.47121(17) 0.43681(8)
N3 N 0.99903(14) 0.39636(19) 0.33502(9)
C1 C 0.33270(18) -0.1042(3) 0.30630(10)
H1 H 0.2403 -0.0993 0.2809
C2 C 0.4087(2) -0.2445(2) 0.30101(11)
H2 H 0.3698 -0.3369 0.2721
C3 C 0.54729(19) -0.2475(2) 0.34007(11)
H3 H 0.5985 -0.3448 0.3362
C4 C 0.53453(15) 0.01958(19) 0.38758(8)
C5 C 0.39362(16) 0.0352(2) 0.35036(9)
C6 C 0.32078(19) 0.1858(3) 0.35887(12)
H4 H 0.2281 0.1969 0.3348
C7 C 0.3864(2) 0.3141(3) 0.40217(12)
H5 H 0.3381 0.4130 0.4076
C8 C 0.52644(19) 0.2996(2) 0.43889(11)
H6 H 0.5693 0.3895 0.4680
C9 C 0.60096(16) 0.15650(18) 0.43280(9)
C10 C 0.74862(17) 0.1396(2) 0.47436(9)
H7 H 0.7574 0.0346 0.5043
H8 H 0.7668 0.2276 0.5157
C11 C 0.90997(15) 0.36251(19) 0.39118(9)
C12 C 0.87589(18) 0.6304(2) 0.42341(12)
H9 H 0.8337 0.7111 0.4538
C13 C 0.9646(2) 0.6805(2) 0.36739(13)
H10 H 0.9834 0.7922 0.3590
C14 C 1.02458(19) 0.5581(3) 0.32415(12)
H11 H 1.0857 0.5884 0.2855
loop_
_geom_bond_atom_site_label_1
_geom_bond_atom_site_label_2
_geom_bond_site_symmetry_1
_geom_bond_site_symmetry_2
S1 C10 1_555 1_555
N1 C3 1_555 1_555
N2 C11 1_555 1_555
N3 C11 1_555 1_555
C1 H1 1_555 1_555
C2 C1 1_555 1_555
H2 C2 1_555 1_555
C3 C2 1_555 1_555
H3 C3 1_555 1_555
C4 N1 1_555 1_555
C5 C1 1_555 1_555
C6 C5 1_555 1_555
H4 C6 1_555 1_555
C7 C6 1_555 1_555
H5 C7 1_555 1_555
C8 C7 1_555 1_555
H6 C8 1_555 1_555
C9 C4 1_555 1_555
C10 C9 1_555 1_555
H7 C10 1_555 1_555
H8 C10 1_555 1_555
C11 S1 1_555 1_555
C12 N2 1_555 1_555
H9 C12 1_555 1_555
C13 C12 1_555 1_555
H10 C13 1_555 1_555
C14 N3 1_555 1_555
H11 C14 1_555 1_555
C4 C5 1_555 1_555
C8 C9 1_555 1_555
C13 C14 1_555 1_555

#END
