
#######################################################################
#
#                 Cambridge Crystallographic Data Centre
#                                CCDC 
#
#######################################################################
#
# If this CIF has been generated from an entry in the Cambridge 
# Structural Database, then it will include bibliographic, chemical, 
# crystal, experimental, refinement or atomic coordinate data resulting 
# from the CCDC's data processing and validation procedures.
#
#######################################################################

data_GEPDEN
_chemical_formula_moiety         'C24 H60 Cl6 Mg4 O12 2+,2(C12 H4 B1 F24 O4 1-)'
_chemical_name_systematic        
'hexakis(\m-chloro)-hexakis(1,2-dimethoxyethane)-tetrs-magnesium(ii) bis(tetrakis(1,1,1,3,3,3-hexafluoropropan-2-olato)borate)'
_symmetry_cell_setting           monoclinic
_symmetry_space_group_name_H-M   'C 2/c'
_symmetry_Int_Tables_number      15
_space_group_name_Hall           '-C 2yn'
loop_
_symmetry_equiv_pos_site_id
_symmetry_equiv_pos_as_xyz
1 x,y,z
2 -x,y,1/2-z
3 1/2+x,1/2+y,z
4 1/2-x,1/2+y,1/2-z
5 -x,-y,-z
6 x,-y,1/2+z
7 1/2-x,1/2-y,-z
8 1/2+x,1/2-y,1/2+z
_cell_length_a                   36.905(5)
_cell_length_b                   13.215(2)
_cell_length_c                   20.962(3)
_cell_angle_alpha                90
_cell_angle_beta                 121.440(3)
_cell_angle_gamma                90
_cell_volume                     8722.26
_exptl_crystal_colour            colorless
_exptl_crystal_description       block
_cell_formula_units_Z            4
loop_
_atom_site_label
_atom_site_type_symbol
_atom_site_fract_x
_atom_site_fract_y
_atom_site_fract_z
Mg1 Mg 0.54788(3) 0.39648(7) 0.24854(5)
Mg2 Mg 0.57935(3) 0.60330(7) 0.18045(5)
O1 O 0.56160(7) 0.24045(15) 0.24534(12)
O2 O 0.61346(6) 0.38213(16) 0.33650(11)
O3 O 0.59803(7) 0.75445(16) 0.22293(12)
O4 O 0.64353(6) 0.58766(17) 0.26285(12)
O5 O 0.52217(7) 0.65790(18) 0.09101(13)
O6 O 0.59519(8) 0.63562(19) 0.09810(13)
C1 C 0.66524(11) 0.6794(3) 0.3000(2)
H1 H 0.6785 0.7104 0.2741
H2 H 0.6878 0.6649 0.3523
C2 C 0.62729(12) 0.2796(3) 0.3543(2)
H3 H 0.6191 0.2512 0.3887
H4 H 0.6586 0.2757 0.3788
C3 C 0.63307(10) 0.7491(3) 0.29837(17)
H5 H 0.6235 0.7234 0.3315
H6 H 0.6455 0.8172 0.3160
C4 C 0.63328(12) 0.4438(3) 0.40339(19)
H7 H 0.6243 0.5144 0.3900
H8 H 0.6642 0.4395 0.4277
H9 H 0.6247 0.4195 0.4378
C5 C 0.56601(16) 0.7061(4) 0.0446(2)
H10 H 0.5690 0.7079 0.0004
H11 H 0.5716 0.7747 0.0666
C6 C 0.60624(12) 0.2213(3) 0.2820(2)
H12 H 0.6172 0.2439 0.2502
H13 H 0.6120 0.1481 0.2920
C7 C 0.56738(13) 0.8284(3) 0.2143(3)
H14 H 0.5451 0.8336 0.1614
H15 H 0.5813 0.8942 0.2321
H16 H 0.5548 0.8079 0.2435
C8 C 0.67217(11) 0.5044(3) 0.2780(2)
H17 H 0.6558 0.4429 0.2542
H18 H 0.6899 0.4938 0.3321
H19 H 0.6903 0.5199 0.2579
C9 C 0.53801(14) 0.1756(3) 0.1816(2)
H20 H 0.5076 0.1891 0.1585
H21 H 0.5438 0.1047 0.1976
H22 H 0.5465 0.1886 0.1452
C10 C 0.52302(16) 0.6730(4) 0.0228(2)
H23 H 0.5020 0.7249 -0.0090
H24 H 0.5159 0.6090 -0.0059
C11 C 0.63551(18) 0.6428(4) 0.1075(3)
H25 H 0.6463 0.7119 0.1222
H26 H 0.6337 0.6260 0.0603
H27 H 0.6549 0.5954 0.1465
C12 C 0.48100(12) 0.6355(4) 0.0773(3)
H28 H 0.4692 0.5774 0.0434
H29 H 0.4625 0.6943 0.0544
H30 H 0.4830 0.6193 0.1247
Cl1 Cl 0.47193(2) 0.37521(6) 0.15563(4)
Cl2 Cl 0.56749(2) 0.42548(6) 0.15109(4)
Cl3 Cl 0.55262(2) 0.58144(6) 0.26323(5)
Mg1A Mg 0.45212(3) 0.39648(7) 0.25146(5)
Mg2A Mg 0.42065(3) 0.60330(7) 0.31955(5)
O1A O 0.43840(7) 0.24045(15) 0.25466(12)
O2A O 0.38654(6) 0.38213(16) 0.16350(11)
O3A O 0.40197(7) 0.75445(16) 0.27707(12)
O4A O 0.35647(6) 0.58766(17) 0.23715(12)
O5A O 0.47783(7) 0.65790(18) 0.40899(13)
O6A O 0.40481(8) 0.63562(19) 0.40190(13)
C1A C 0.33476(11) 0.6794(3) 0.2000(2)
H1A H 0.3215 0.7104 0.2259
H2A H 0.3122 0.6649 0.1477
C2A C 0.37271(12) 0.2796(3) 0.1457(2)
H3A H 0.3809 0.2512 0.1113
H4A H 0.3414 0.2757 0.1212
C3A C 0.36693(10) 0.7491(3) 0.20163(17)
H5A H 0.3765 0.7234 0.1685
H6A H 0.3545 0.8172 0.1840
C4A C 0.36672(12) 0.4438(3) 0.09661(19)
H7A H 0.3757 0.5144 0.1100
H8A H 0.3358 0.4395 0.0723
H9A H 0.3753 0.4195 0.0622
C5A C 0.43399(16) 0.7061(4) 0.4554(2)
H10A H 0.4310 0.7079 0.4996
H11A H 0.4284 0.7747 0.4334
C6A C 0.39376(12) 0.2213(3) 0.2180(2)
H12A H 0.3828 0.2439 0.2498
H13A H 0.3880 0.1481 0.2080
C7A C 0.43262(13) 0.8284(3) 0.2857(3)
H14A H 0.4549 0.8336 0.3386
H15A H 0.4187 0.8942 0.2679
H16A H 0.4452 0.8079 0.2565
C8A C 0.32783(11) 0.5044(3) 0.2220(2)
H17A H 0.3442 0.4429 0.2458
H18A H 0.3101 0.4938 0.1679
H19A H 0.3097 0.5199 0.2421
C9A C 0.46199(14) 0.1756(3) 0.3184(2)
H20A H 0.4924 0.1891 0.3415
H21A H 0.4562 0.1047 0.3024
H22A H 0.4535 0.1886 0.3548
C10A C 0.47698(16) 0.6730(4) 0.4772(2)
H23A H 0.4980 0.7249 0.5090
H24A H 0.4841 0.6090 0.5059
C11A C 0.36449(18) 0.6428(4) 0.3925(3)
H25A H 0.3537 0.7119 0.3778
H26A H 0.3663 0.6260 0.4397
H27A H 0.3451 0.5954 0.3535
C12A C 0.51900(12) 0.6355(4) 0.4227(3)
H28A H 0.5308 0.5774 0.4566
H29A H 0.5375 0.6943 0.4456
H30A H 0.5170 0.6193 0.3753
Cl1A Cl 0.52807(2) 0.37521(6) 0.34437(4)
Cl2A Cl 0.43251(2) 0.42548(6) 0.34891(4)
Cl3A Cl 0.44738(2) 0.58144(6) 0.23677(5)
O7 O 0.80007(6) 0.50938(14) 0.42431(10)
O8 O 0.84234(6) 0.66451(14) 0.47227(10)
O9 O 0.87503(6) 0.50747(14) 0.48070(11)
O10 O 0.82930(6) 0.59054(14) 0.35993(10)
F1 F 0.75012(7) 0.65990(18) 0.25575(12)
F2 F 0.85293(8) 0.40668(15) 0.33048(12)
F3 F 0.74522(7) 0.49808(19) 0.47936(13)
F4 F 0.80676(8) 0.55540(18) 0.55954(12)
F5 F 0.74605(8) 0.5606(2) 0.17139(12)
F6 F 0.74146(7) 0.35082(17) 0.38465(13)
F7 F 0.81390(7) 0.80977(18) 0.53066(11)
F8 F 0.79432(8) 0.67365(18) 0.21966(13)
F9 F 0.80260(9) 0.4111(2) 0.21550(13)
F10 F 0.79863(9) 0.31120(16) 0.39158(16)
F11 F 0.85260(9) 0.5204(2) 0.25854(15)
F12 F 0.78725(8) 0.26339(16) 0.47647(14)
F13 F 0.88133(9) 0.7864(2) 0.42255(18)
F14 F 0.76296(7) 0.7286(2) 0.44244(15)
F15 F 0.98128(7) 0.5808(2) 0.54542(18)
F16 F 0.78966(10) 0.4041(2) 0.57021(14)
F17 F 0.77645(10) 0.8805(2) 0.42493(14)
F18 F 0.95389(8) 0.4359(2) 0.50493(19)
F19 F 0.92941(9) 0.5650(3) 0.43556(17)
F20 F 0.93336(9) 0.4102(3) 0.61056(18)
F21 F 0.96749(8) 0.5482(3) 0.65702(15)
F22 F 0.90322(9) 0.5340(3) 0.62886(13)
C13 C 0.80422(9) 0.4366(2) 0.47491(16)
H31 H 0.8351 0.4223 0.5096
F23 F 0.87934(10) 0.8593(3) 0.5100(2)
C14 C 0.91394(9) 0.5525(2) 0.52928(18)
H32 H 0.9097 0.6272 0.5295
C15 C 0.80225(10) 0.5342(2) 0.29705(16)
H33 H 0.7846 0.4895 0.3087
C16 C 0.78261(11) 0.3404(2) 0.43179(19)
C17 C 0.82209(9) 0.7514(2) 0.43208(17)
H34 H 0.8040 0.7329 0.3780
C18 C 0.79366(11) 0.7931(3) 0.45766(18)
C19 C 0.82783(12) 0.4684(3) 0.27507(19)
C20 C 0.78586(11) 0.4730(3) 0.52044(18)
C21 C 0.92975(12) 0.5108(4) 0.6078(2)
C22 C 0.77314(12) 0.6069(3) 0.2349(2)
C23 C 0.94448(11) 0.5324(3) 0.5037(2)
B1 B 0.83655(10) 0.5682(2) 0.43432(17)
C24 C 0.85530(16) 0.8269(3) 0.4406(3)
F24 F 0.83729(14) 0.9065(3) 0.3962(3)
loop_
_geom_bond_atom_site_label_1
_geom_bond_atom_site_label_2
_geom_bond_site_symmetry_1
_geom_bond_site_symmetry_2
Mg1 O1 1_555 1_555
Mg2 O3 1_555 1_555
O1 C6 1_555 1_555
O2 Mg1 1_555 1_555
O3 C3 1_555 1_555
O4 Mg2 1_555 1_555
O5 Mg2 1_555 1_555
O6 Mg2 1_555 1_555
C1 O4 1_555 1_555
H1 C1 1_555 1_555
H2 C1 1_555 1_555
C2 O2 1_555 1_555
H3 C2 1_555 1_555
H4 C2 1_555 1_555
C3 C1 1_555 1_555
H5 C3 1_555 1_555
H6 C3 1_555 1_555
C4 O2 1_555 1_555
H7 C4 1_555 1_555
H8 C4 1_555 1_555
H9 C4 1_555 1_555
C5 O6 1_555 1_555
H10 C5 1_555 1_555
H11 C5 1_555 1_555
C6 C2 1_555 1_555
H12 C6 1_555 1_555
H13 C6 1_555 1_555
C7 O3 1_555 1_555
H14 C7 1_555 1_555
H15 C7 1_555 1_555
H16 C7 1_555 1_555
C8 O4 1_555 1_555
H17 C8 1_555 1_555
H18 C8 1_555 1_555
H19 C8 1_555 1_555
C9 O1 1_555 1_555
H20 C9 1_555 1_555
H21 C9 1_555 1_555
H22 C9 1_555 1_555
C10 O5 1_555 1_555
H23 C10 1_555 1_555
H24 C10 1_555 1_555
C11 O6 1_555 1_555
H25 C11 1_555 1_555
H26 C11 1_555 1_555
H27 C11 1_555 1_555
C12 O5 1_555 1_555
H28 C12 1_555 1_555
H29 C12 1_555 1_555
H30 C12 1_555 1_555
Cl1 Mg1 1_555 1_555
Cl2 Mg1 1_555 1_555
Cl3 Mg1 1_555 1_555
O7 C13 1_555 1_555
O8 C17 1_555 1_555
O9 C14 1_555 1_555
O10 C15 1_555 1_555
F1 C22 1_555 1_555
F2 C19 1_555 1_555
F3 C20 1_555 1_555
F4 C20 1_555 1_555
F5 C22 1_555 1_555
F6 C16 1_555 1_555
F7 C18 1_555 1_555
F8 C22 1_555 1_555
F9 C19 1_555 1_555
F10 C16 1_555 1_555
F11 C19 1_555 1_555
F12 C16 1_555 1_555
F13 C24 1_555 1_555
F14 C18 1_555 1_555
F15 C23 1_555 1_555
F16 C20 1_555 1_555
F17 C18 1_555 1_555
F18 C23 1_555 1_555
F19 C23 1_555 1_555
F20 C21 1_555 1_555
F21 C21 1_555 1_555
F22 C21 1_555 1_555
C13 H31 1_555 1_555
F23 C24 1_555 1_555
C14 H32 1_555 1_555
C15 H33 1_555 1_555
C16 C13 1_555 1_555
C17 H34 1_555 1_555
C18 C17 1_555 1_555
C19 C15 1_555 1_555
C20 C13 1_555 1_555
C21 C14 1_555 1_555
C22 C15 1_555 1_555
C23 C14 1_555 1_555
B1 O7 1_555 1_555
C24 C17 1_555 1_555
F24 C24 1_555 1_555
Mg1A Cl1 1_555 1_555
Mg2A O3A 1_555 1_555
O1A Mg1A 1_555 1_555
O2A Mg1A 1_555 1_555
O3A C3A 1_555 1_555
O4A Mg2A 1_555 1_555
O5A Mg2A 1_555 1_555
O6A Mg2A 1_555 1_555
C1A O4A 1_555 1_555
H1A C1A 1_555 1_555
H2A C1A 1_555 1_555
C2A O2A 1_555 1_555
H3A C2A 1_555 1_555
H4A C2A 1_555 1_555
C3A C1A 1_555 1_555
H5A C3A 1_555 1_555
H6A C3A 1_555 1_555
C4A O2A 1_555 1_555
H7A C4A 1_555 1_555
H8A C4A 1_555 1_555
H9A C4A 1_555 1_555
C5A O6A 1_555 1_555
H10A C5A 1_555 1_555
H11A C5A 1_555 1_555
C6A O1A 1_555 1_555
H12A C6A 1_555 1_555
H13A C6A 1_555 1_555
C7A O3A 1_555 1_555
H14A C7A 1_555 1_555
H15A C7A 1_555 1_555
H16A C7A 1_555 1_555
C8A O4A 1_555 1_555
H17A C8A 1_555 1_555
H18A C8A 1_555 1_555
H19A C8A 1_555 1_555
C9A O1A 1_555 1_555
H20A C9A 1_555 1_555
H21A C9A 1_555 1_555
H22A C9A 1_555 1_555
C10A O5A 1_555 1_555
H23A C10A 1_555 1_555
H24A C10A 1_555 1_555
C11A O6A 1_555 1_555
H25A C11A 1_555 1_555
H26A C11A 1_555 1_555
H27A C11A 1_555 1_555
C12A O5A 1_555 1_555
H28A C12A 1_555 1_555
H29A C12A 1_555 1_555
H30A C12A 1_555 1_555
Cl1A Mg1 1_555 1_555
Cl2A Mg1A 1_555 1_555
Cl3A Mg1A 1_555 1_555
Mg2 Cl2 1_555 1_555
Mg2 Cl3 1_555 1_555
C5 C10 1_555 1_555
O8 B1 1_555 1_555
O9 B1 1_555 1_555
O10 B1 1_555 1_555
Mg1A Cl1A 1_555 1_555
Mg2A Cl2A 1_555 1_555
Mg2A Cl3A 1_555 1_555
C2A C6A 1_555 1_555
C5A C10A 1_555 1_555

#END
