
#######################################################################
#
#                 Cambridge Crystallographic Data Centre
#                                CCDC 
#
#######################################################################
#
# If this CIF has been generated from an entry in the Cambridge 
# Structural Database, then it will include bibliographic, chemical, 
# crystal, experimental, refinement or atomic coordinate data resulting 
# from the CCDC's data processing and validation procedures.
#
#######################################################################

data_GEPFEN
_chemical_formula_moiety         'C15 H10 Br1 N1 O2'
_chemical_name_systematic        N-(4-Bromobenzyl)phthalimide
_symmetry_cell_setting           monoclinic
_symmetry_space_group_name_H-M   'P 21/c'
_symmetry_Int_Tables_number      14
_space_group_name_Hall           '-P 2ybc'
loop_
_symmetry_equiv_pos_site_id
_symmetry_equiv_pos_as_xyz
1 x,y,z
2 -x,1/2+y,1/2-z
3 -x,-y,-z
4 x,1/2-y,1/2+z
_cell_length_a                   13.086(3)
_cell_length_b                   14.174(3)
_cell_length_c                   7.1967(14)
_cell_angle_alpha                90
_cell_angle_beta                 103.701(3)
_cell_angle_gamma                90
_cell_volume                     1296.87
_exptl_crystal_colour            colorless
_exptl_crystal_description       rod
_chemical_melting_point          '406.5-407.2 K'
_cell_formula_units_Z            4
_exptl_crystal_recrystallization_method ethanol
loop_
_atom_site_label
_atom_site_type_symbol
_atom_site_fract_x
_atom_site_fract_y
_atom_site_fract_z
Br1 Br 0.38537(4) 0.38196(4) 0.08972(8)
O1 O 0.8818(3) 0.5306(2) 0.8005(5)
O2 O 0.8676(2) 0.2094(2) 0.7668(5)
N1 N 0.8511(3) 0.3705(2) 0.7931(5)
C1 C 0.9107(3) 0.4509(3) 0.7820(6)
C2 C 1.0113(3) 0.4163(3) 0.7446(5)
C3 C 1.0978(4) 0.4651(3) 0.7193(6)
H1 H 1.0999 0.5307 0.7237
C4 C 1.1809(4) 0.4138(4) 0.6875(7)
H2 H 1.2406 0.4449 0.6706
C5 C 1.1770(4) 0.3155(4) 0.6801(7)
H3 H 1.2343 0.2823 0.6580
C6 C 1.0898(3) 0.2661(3) 0.7050(6)
H4 H 1.0873 0.2005 0.7003
C7 C 1.0071(3) 0.3185(3) 0.7369(5)
C8 C 0.9032(3) 0.2884(3) 0.7658(5)
C9 C 0.7449(3) 0.3728(3) 0.8241(6)
H5 H 0.7378 0.4286 0.8980
H6 H 0.7353 0.3182 0.8993
C10 C 0.6587(3) 0.3736(2) 0.6412(6)
C11 C 0.6796(3) 0.3773(3) 0.4639(6)
H7 H 0.7491 0.3783 0.4537
C12 C 0.5989(4) 0.3795(3) 0.2983(7)
H8 H 0.6142 0.3822 0.1786
C13 C 0.4967(3) 0.3777(3) 0.3142(7)
C14 C 0.4741(3) 0.3732(3) 0.4894(8)
H9 H 0.4046 0.3719 0.4993
C15 C 0.5547(4) 0.3705(3) 0.6514(7)
H10 H 0.5388 0.3665 0.7705
loop_
_geom_bond_atom_site_label_1
_geom_bond_atom_site_label_2
_geom_bond_site_symmetry_1
_geom_bond_site_symmetry_2
Br1 C13 1_555 1_555
O1 C1 1_555 1_555
O2 C8 1_555 1_555
N1 C1 1_555 1_555
C1 C2 1_555 1_555
C2 C3 1_555 1_555
C3 H1 1_555 1_555
C4 C3 1_555 1_555
H2 C4 1_555 1_555
C5 C4 1_555 1_555
H3 C5 1_555 1_555
C6 C5 1_555 1_555
H4 C6 1_555 1_555
C7 C2 1_555 1_555
C8 N1 1_555 1_555
C9 N1 1_555 1_555
H5 C9 1_555 1_555
H6 C9 1_555 1_555
C10 C9 1_555 1_555
C11 C10 1_555 1_555
H7 C11 1_555 1_555
C12 C11 1_555 1_555
H8 C12 1_555 1_555
C13 C12 1_555 1_555
C14 C13 1_555 1_555
H9 C14 1_555 1_555
C15 C10 1_555 1_555
H10 C15 1_555 1_555
C6 C7 1_555 1_555
C7 C8 1_555 1_555
C14 C15 1_555 1_555

#END
