
#######################################################################
#
#                 Cambridge Crystallographic Data Centre
#                                CCDC 
#
#######################################################################
#
# If this CIF has been generated from an entry in the Cambridge 
# Structural Database, then it will include bibliographic, chemical, 
# crystal, experimental, refinement or atomic coordinate data resulting 
# from the CCDC's data processing and validation procedures.
#
#######################################################################

data_GEPHER
_chemical_formula_moiety         'C24 H48 Cl3 Mg2 O6 1+,C12 H4 B1 F24 O4 1-'
_chemical_name_systematic        
'tris(\m-chloro)-hexakis(tetrahydrofuran)-di-magnesium(ii) tetrakis(1,1,1,3,3,3-hexafluoropropan-2-olato)borate'
_symmetry_cell_setting           triclinic
_symmetry_space_group_name_H-M   'P -1'
_symmetry_Int_Tables_number      2
_space_group_name_Hall           '-P 1'
loop_
_symmetry_equiv_pos_site_id
_symmetry_equiv_pos_as_xyz
1 x,y,z
2 -x,-y,-z
_cell_length_a                   13.389(5)
_cell_length_b                   14.252(5)
_cell_length_c                   16.825(6)
_cell_angle_alpha                108.785(10)
_cell_angle_beta                 90.513(10)
_cell_angle_gamma                114.274(9)
_cell_volume                     2733.4
_exptl_crystal_colour            colorless
_exptl_crystal_description       block
_cell_formula_units_Z            2
loop_
_atom_site_label
_atom_site_type_symbol
_atom_site_fract_x
_atom_site_fract_y
_atom_site_fract_z
Cl1 Cl 0.79468(19) 0.3776(2) 0.42539(14)
Cl2 Cl 0.5814(2) 0.3728(2) 0.53216(14)
Cl3 Cl 0.6042(2) 0.13791(19) 0.42960(15)
Mg1 Mg 0.7292(2) 0.3130(2) 0.54624(17)
Mg2 Mg 0.5892(2) 0.2787(2) 0.37967(17)
O1 O 0.8356(5) 0.4644(5) 0.6352(4)
O2 O 0.5906(5) 0.1880(6) 0.2547(4)
O3 O 0.5929(5) 0.4037(5) 0.3395(4)
O4 O 0.8483(5) 0.2544(5) 0.5516(4)
O5 O 0.4137(5) 0.2055(5) 0.3552(4)
C1 C 0.3474(10) 0.1237(11) 0.3846(10)
H1 H 0.3906 0.1235 0.4311
H2 H 0.3213 0.0524 0.3393
C2 C 0.6279(12) 0.5169(9) 0.4006(7)
H3 H 0.5687 0.5213 0.4322
H4 H 0.6929 0.5386 0.4406
C3 C 0.6528(15) 0.5869(10) 0.3523(8)
H5 H 0.6268 0.6431 0.3747
H6 H 0.7321 0.6225 0.3524
C4 C 0.6831(12) 0.1658(14) 0.2244(8)
H7 H 0.7375 0.2289 0.2136
H8 H 0.7189 0.1524 0.2671
C5 C 0.9307(12) 0.6534(10) 0.6972(9)
H9 H 0.9159 0.7080 0.7406
H10 H 0.9784 0.6886 0.6622
C6 C 0.5010(11) 0.1037(12) 0.1935(8)
H11 H 0.4494 0.0576 0.2206
H12 H 0.4625 0.1357 0.1697
C7 C 1.0055(13) 0.2267(13) 0.5310(11)
H13 H 1.0624 0.2736 0.5809
H14 H 1.0402 0.2046 0.4826
C8 C 0.2512(12) 0.1426(13) 0.4143(11)
H15 H 0.1834 0.0744 0.3948
H16 H 0.2625 0.1741 0.4760
C9 C 0.9451(12) 0.2798(13) 0.5155(11)
H17 H 0.9257 0.2584 0.4546
H18 H 0.9909 0.3588 0.5387
C10 C 0.9232(13) 0.1322(13) 0.5448(11)
H19 H 0.9549 0.1122 0.5851
H20 H 0.8911 0.0696 0.4919
C11 C 0.9802(14) 0.6033(11) 0.7345(10)
H21 H 1.0604 0.6446 0.7478
H22 H 0.9507 0.5939 0.7853
C12 C 0.3518(10) 0.2591(13) 0.3433(10)
H23 H 0.3347 0.2448 0.2832
H24 H 0.3932 0.3380 0.3727
C13 C 0.6419(14) 0.0717(17) 0.1481(11)
H25 H 0.6790 0.0899 0.1022
H26 H 0.6548 0.0129 0.1560
C14 C 0.837(2) 0.170(2) 0.5803(18)
H27 H 0.7629 0.1099 0.5599
H28 H 0.8502 0.1965 0.6420
C15 C 0.5611(19) 0.1605(19) 0.6357(14)
H29 H 0.5641 0.0944 0.5977
H30 H 0.4969 0.1655 0.6139
C16 C 0.5320(13) 0.0399(16) 0.1295(9)
H31 H 0.4909 -0.0369 0.1231
H32 H 0.5157 0.0478 0.0763
C17 C 0.9473(12) 0.5038(12) 0.6684(10)
H33 H 0.9569 0.4512 0.6889
H34 H 0.9926 0.5134 0.6243
C18 C 0.555(3) 0.158(2) 0.7213(14)
H35 H 0.4791 0.1181 0.7277
H36 H 0.5996 0.1245 0.7347
C19 C 0.8329(14) 0.5669(10) 0.6483(11)
H37 H 0.8224 0.5740 0.5938
H38 H 0.7708 0.5694 0.6767
C20 C 0.5959(15) 0.4041(10) 0.2587(8)
H39 H 0.5309 0.3438 0.2195
H40 H 0.6623 0.4006 0.2384
C21 C 0.599(2) 0.2713(18) 0.7744(15)
H41 H 0.6325 0.2832 0.8302
H42 H 0.5406 0.2960 0.7811
C22 C 0.2468(12) 0.2155(13) 0.3788(12)
H43 H 0.2393 0.2758 0.4216
H44 H 0.1831 0.1785 0.3337
C23 C 0.5969(18) 0.5169(11) 0.2714(9)
H45 H 0.6341 0.5457 0.2294
H46 H 0.5216 0.5093 0.2653
C24 C 0.6798(19) 0.3282(16) 0.7309(9)
H47 H 0.7537 0.3492 0.7584
H48 H 0.6741 0.3946 0.7332
O6 O 0.6620(5) 0.2573(5) 0.6435(3)
O7 O 0.9094(5) 0.8439(5) 0.1799(4)
O8 O 0.9740(5) 0.7727(6) 0.0552(4)
O9 O 0.8323(5) 0.6468(5) 0.0994(4)
O10 O 0.7914(5) 0.7691(6) 0.0489(4)
F1 F 0.8061(7) 0.6351(8) -0.1054(5)
C30 C 0.8451(9) 0.8889(9) 0.2202(6)
H61 H 0.7860 0.8740 0.1767
F2 F 0.8545(9) 1.0613(7) 0.2933(5)
F3 F 0.9695(9) 0.8638(8) -0.0685(5)
F4 F 1.0139(9) 0.6901(9) 0.2072(6)
F5 F 1.0884(8) 0.7998(8) -0.0761(6)
F6 F 0.8544(10) 0.3994(7) 0.0059(7)
F7 F 1.1510(7) 0.8998(9) 0.1859(7)
C31 C 1.0514(9) 0.8759(10) 0.0611(7)
H62 H 1.0261 0.9310 0.0919
F8 F 0.8420(9) 0.8340(10) 0.3340(6)
F9 F 0.5800(8) 0.7249(11) 0.0844(7)
F10 F 1.1400(8) 0.9735(8) -0.0257(6)
F11 F 0.7274(9) 0.7244(11) -0.1276(6)
F12 F 0.7286(9) 0.4252(7) 0.0726(7)
F13 F 0.8868(10) 0.5564(10) 0.2139(7)
F14 F 0.7528(11) 0.4574(8) -0.0376(7)
C32 C 0.8861(11) 0.5820(10) 0.0826(8)
H63 H 0.9421 0.6102 0.0486
F15 F 0.6329(8) 0.5614(10) -0.1461(5)
F16 F 1.0095(10) 0.5349(9) 0.1419(7)
F17 F 1.2317(7) 1.0048(9) 0.1249(8)
F18 F 0.9849(9) 1.0267(9) 0.3286(6)
F19 F 0.9725(11) 1.0546(7) 0.2145(7)
F20 F 0.7102(9) 0.7413(8) 0.2351(6)
C33 C 0.6990(9) 0.6844(12) -0.0059(7)
H64 H 0.6884 0.6225 0.0121
C34 C 1.0654(15) 0.8785(14) -0.0256(10)
C35 C 0.8084(17) 0.4653(14) 0.0266(13)
C36 C 0.9129(16) 1.0168(13) 0.2605(10)
F21 F 1.2056(8) 0.8379(9) 0.0763(8)
F22 F 0.5100(7) 0.6304(11) -0.0416(7)
F23 F 0.7334(9) 0.8934(8) 0.3259(6)
B1 B 0.8767(9) 0.7569(10) 0.0943(7)
C37 C 0.5946(15) 0.699(2) 0.0108(13)
F24 F 0.6269(11) 0.8040(13) -0.0052(8)
C38 C 0.9465(18) 0.5885(17) 0.1576(12)
C39 C 0.7938(15) 0.8490(14) 0.2811(10)
C40 C 0.7169(14) 0.6457(16) -0.0952(9)
C41 C 1.1597(14) 0.8996(16) 0.1091(14)
H49? H 0.9435 0.1329 0.6005
H50? H 0.9189 0.0652 0.5023
C25? C 0.7199(9) 0.2694(18) 0.7200(8)
H51? H 0.7680 0.3466 0.7513
H52? H 0.7654 0.2299 0.7071
C26? C 0.5464(5) 0.2064(18) 0.6455(10)
H53? H 0.5105 0.1373 0.5977
H54? H 0.5130 0.2540 0.6419
C27? C 0.5329(12) 0.1870(19) 0.7233(11)
H55? H 0.4931 0.2255 0.7561
H56? H 0.4906 0.1088 0.7120
C28? C 0.6401(17) 0.2259(18) 0.7693(8)
H57? H 0.6482 0.1660 0.7796
H58? H 0.6507 0.2827 0.8238
C29? C 0.8139(19) 0.135(3) 0.539(2)
H59? H 0.7739 0.1151 0.5831
H60? H 0.7684 0.0867 0.4837
loop_
_geom_bond_atom_site_label_1
_geom_bond_atom_site_label_2
_geom_bond_site_symmetry_1
_geom_bond_site_symmetry_2
Cl1 Mg1 1_555 1_555
Cl2 Mg1 1_555 1_555
Cl3 Mg1 1_555 1_555
Mg1 O1 1_555 1_555
Mg2 Cl1 1_555 1_555
O1 C17 1_555 1_555
O2 Mg2 1_555 1_555
O3 Mg2 1_555 1_555
O4 Mg1 1_555 1_555
O5 Mg2 1_555 1_555
C1 O5 1_555 1_555
H1 C1 1_555 1_555
H2 C1 1_555 1_555
C2 O3 1_555 1_555
H3 C2 1_555 1_555
H4 C2 1_555 1_555
C3 C2 1_555 1_555
H5 C3 1_555 1_555
H6 C3 1_555 1_555
C4 O2 1_555 1_555
H7 C4 1_555 1_555
H8 C4 1_555 1_555
C5 H9 1_555 1_555
H10 C5 1_555 1_555
C6 O2 1_555 1_555
H11 C6 1_555 1_555
H12 C6 1_555 1_555
C7 H13 1_555 1_555
H14 C7 1_555 1_555
C8 C1 1_555 1_555
H15 C8 1_555 1_555
H16 C8 1_555 1_555
C9 O4 1_555 1_555
H17 C9 1_555 1_555
H18 C9 1_555 1_555
C10 C7 1_555 1_555
H19 C10 1_555 1_555
H20 C10 1_555 1_555
C11 C5 1_555 1_555
H21 C11 1_555 1_555
H22 C11 1_555 1_555
C12 O5 1_555 1_555
H23 C12 1_555 1_555
H24 C12 1_555 1_555
C13 C4 1_555 1_555
H25 C13 1_555 1_555
H26 C13 1_555 1_555
C14 O4 1_555 1_555
H27 C14 1_555 1_555
H28 C14 1_555 1_555
C15 H29 1_555 1_555
H30 C15 1_555 1_555
C16 C6 1_555 1_555
H31 C16 1_555 1_555
H32 C16 1_555 1_555
C17 C11 1_555 1_555
H33 C17 1_555 1_555
H34 C17 1_555 1_555
C18 C15 1_555 1_555
H35 C18 1_555 1_555
H36 C18 1_555 1_555
C19 O1 1_555 1_555
H37 C19 1_555 1_555
H38 C19 1_555 1_555
C20 O3 1_555 1_555
H39 C20 1_555 1_555
H40 C20 1_555 1_555
C21 C18 1_555 1_555
H41 C21 1_555 1_555
H42 C21 1_555 1_555
C22 C8 1_555 1_555
H43 C22 1_555 1_555
H44 C22 1_555 1_555
C23 C3 1_555 1_555
H45 C23 1_555 1_555
H46 C23 1_555 1_555
C24 C21 1_555 1_555
H47 C24 1_555 1_555
H48 C24 1_555 1_555
O6 Mg1 1_555 1_555
O7 C30 1_555 1_555
O8 C31 1_555 1_555
O9 C32 1_555 1_555
O10 C33 1_555 1_555
F1 C40 1_555 1_555
C30 H61 1_555 1_555
F2 C36 1_555 1_555
F3 C34 1_555 1_555
F4 C38 1_555 1_555
F5 C34 1_555 1_555
F6 C35 1_555 1_555
F7 C41 1_555 1_555
C31 H62 1_555 1_555
F8 C39 1_555 1_555
F9 C37 1_555 1_555
F10 C34 1_555 1_555
F11 C40 1_555 1_555
F12 C35 1_555 1_555
F13 C38 1_555 1_555
F14 C35 1_555 1_555
C32 H63 1_555 1_555
F15 C40 1_555 1_555
F16 C38 1_555 1_555
F17 C41 1_555 1_555
F18 C36 1_555 1_555
F19 C36 1_555 1_555
F20 C39 1_555 1_555
C33 H64 1_555 1_555
C34 C31 1_555 1_555
C35 C32 1_555 1_555
C36 C30 1_555 1_555
F21 C41 1_555 1_555
F22 C37 1_555 1_555
F23 C39 1_555 1_555
B1 O7 1_555 1_555
C37 C33 1_555 1_555
F24 C37 1_555 1_555
C38 C32 1_555 1_555
C39 C30 1_555 1_555
C40 C33 1_555 1_555
C41 C31 1_555 1_555
Cl2 Mg2 1_555 1_555
Cl3 Mg2 1_555 1_555
C5 C19 1_555 1_555
C7 C9 1_555 1_555
C10 C14 1_555 1_555
C12 C22 1_555 1_555
C13 C16 1_555 1_555
C15 O6 1_555 1_555
C20 C23 1_555 1_555
C24 O6 1_555 1_555
O8 B1 1_555 1_555
O9 B1 1_555 1_555
O10 B1 1_555 1_555

#END
