
#######################################################################
#
#                 Cambridge Crystallographic Data Centre
#                                CCDC 
#
#######################################################################
#
# If this CIF has been generated from an entry in the Cambridge 
# Structural Database, then it will include bibliographic, chemical, 
# crystal, experimental, refinement or atomic coordinate data resulting 
# from the CCDC's data processing and validation procedures.
#
#######################################################################

data_GEPMUK
_chemical_formula_moiety         'C22 H16 N4 O2'
_chemical_name_systematic        
N,N'-bis(2-pyridyl)naphthalene-1,4-carboxamide
_symmetry_cell_setting           monoclinic
_symmetry_space_group_name_H-M   'P 21/n'
_symmetry_Int_Tables_number      14
_space_group_name_Hall           '-P 2yn'
loop_
_symmetry_equiv_pos_site_id
_symmetry_equiv_pos_as_xyz
1 x,y,z
2 1/2-x,1/2+y,1/2-z
3 -x,-y,-z
4 1/2+x,1/2-y,1/2+z
_cell_length_a                   13.6987(3)
_cell_length_b                   9.2100(2)
_cell_length_c                   15.1404(4)
_cell_angle_alpha                90
_cell_angle_beta                 113.0910(10)
_cell_angle_gamma                90
_cell_volume                     1757.15
_exptl_crystal_colour            colorless
_exptl_crystal_description       Block
_cell_formula_units_Z            4
_exptl_crystal_recrystallization_method 'dimethyl sulfoxide'
loop_
_atom_site_label
_atom_site_type_symbol
_atom_site_fract_x
_atom_site_fract_y
_atom_site_fract_z
O1 O 0.92098(11) 0.59251(15) 0.58509(12)
O2 O 0.41888(11) 0.20414(17) 0.34590(15)
N1 N 0.79102(12) 0.76025(16) 0.51107(11)
N2 N 0.78213(12) 1.00389(16) 0.53998(11)
N3 N 0.54890(12) 0.03184(16) 0.40203(12)
N4 N 0.55586(12) -0.20997(16) 0.36907(11)
C1 C 0.74703(13) 0.50672(18) 0.49263(13)
C2 C 0.66885(14) 0.48926(19) 0.52696(13)
H1 H 0.6655 0.5526 0.5752
C3 C 0.59342(14) 0.37737(19) 0.49063(13)
H2 H 0.5398 0.3654 0.5151
C4 C 0.59643(13) 0.28569(18) 0.42053(12)
C5 C 0.67934(14) 0.21432(19) 0.30583(13)
H3 H 0.6288 0.1388 0.2802
C6 C 0.75560(15) 0.2370(2) 0.26971(14)
H4 H 0.7564 0.1788 0.2182
C7 C 0.83281(15) 0.3461(2) 0.30847(14)
H5 H 0.8857 0.3602 0.2833
C8 C 0.83222(13) 0.43183(19) 0.38186(13)
H6 H 0.8855 0.5038 0.4082
C9 C 0.75265(13) 0.41414(17) 0.41912(12)
C10 C 0.67526(12) 0.30262(18) 0.38118(12)
C11 C 0.82987(13) 0.62299(19) 0.53493(13)
C12 C 0.84619(14) 0.89075(19) 0.54630(12)
C13 C 0.95671(15) 0.9002(2) 0.58408(14)
H7 H 0.9992 0.8183 0.5850
C14 C 1.00237(16) 1.0332(2) 0.62015(15)
H8 H 1.0774 1.0438 0.6464
C15 C 0.93785(17) 1.1509(2) 0.61772(15)
H9 H 0.9675 1.2423 0.6436
C16 C 0.82909(16) 1.1306(2) 0.57649(14)
H10 H 0.7849 1.2114 0.5739
C17 C 0.51177(14) 0.1708(2) 0.38475(14)
C18 C 0.49261(14) -0.09578(19) 0.36216(12)
C19 C 0.38190(15) -0.1027(2) 0.31845(15)
H11 H 0.3394 -0.0207 0.3173
C20 C 0.33623(15) -0.2329(2) 0.27684(15)
H12 H 0.2612 -0.2414 0.2463
C21 C 0.40045(16) -0.3508(2) 0.28001(13)
H13 H 0.3707 -0.4404 0.2507
C22 C 0.50892(15) -0.3344(2) 0.32702(13)
H14 H 0.5529 -0.4155 0.3298
H15 H 0.717(2) 0.770(3) 0.4730(18)
H16 H 0.622(2) 0.021(3) 0.4368(19)
loop_
_geom_bond_atom_site_label_1
_geom_bond_atom_site_label_2
_geom_bond_site_symmetry_1
_geom_bond_site_symmetry_2
O1 C11 1_555 1_555
O2 C17 1_555 1_555
N1 C11 1_555 1_555
N2 C12 1_555 1_555
N3 C17 1_555 1_555
N4 C18 1_555 1_555
C1 C2 1_555 1_555
C2 H1 1_555 1_555
C3 C2 1_555 1_555
H2 C3 1_555 1_555
C4 C3 1_555 1_555
C5 H3 1_555 1_555
C6 C5 1_555 1_555
H4 C6 1_555 1_555
C7 C6 1_555 1_555
H5 C7 1_555 1_555
C8 C7 1_555 1_555
H6 C8 1_555 1_555
C9 C1 1_555 1_555
C10 C4 1_555 1_555
C11 C1 1_555 1_555
C12 N1 1_555 1_555
C13 C12 1_555 1_555
H7 C13 1_555 1_555
C14 C13 1_555 1_555
H8 C14 1_555 1_555
C15 C14 1_555 1_555
H9 C15 1_555 1_555
C16 N2 1_555 1_555
H10 C16 1_555 1_555
C17 C4 1_555 1_555
C18 N3 1_555 1_555
C19 C18 1_555 1_555
H11 C19 1_555 1_555
C20 C19 1_555 1_555
H12 C20 1_555 1_555
C21 C20 1_555 1_555
H13 C21 1_555 1_555
C22 N4 1_555 1_555
H14 C22 1_555 1_555
H15 N1 1_555 1_555
H16 N3 1_555 1_555
C5 C10 1_555 1_555
C8 C9 1_555 1_555
C9 C10 1_555 1_555
C15 C16 1_555 1_555
C21 C22 1_555 1_555

#END
