
#######################################################################
#
#                 Cambridge Crystallographic Data Centre
#                                CCDC 
#
#######################################################################
#
# If this CIF has been generated from an entry in the Cambridge 
# Structural Database, then it will include bibliographic, chemical, 
# crystal, experimental, refinement or atomic coordinate data resulting 
# from the CCDC's data processing and validation procedures.
#
#######################################################################

data_GEPNAR
_chemical_formula_moiety         'C13 H11 N3 O3'
_chemical_name_systematic        
N-(2-Hydroxylbenzoyl)-N'-(picolinoyl)hydrazine
_symmetry_cell_setting           orthorhombic
_symmetry_space_group_name_H-M   'P 21 21 21'
_symmetry_Int_Tables_number      19
_space_group_name_Hall           'P 2ac 2ab'
loop_
_symmetry_equiv_pos_site_id
_symmetry_equiv_pos_as_xyz
1 x,y,z
2 1/2-x,-y,1/2+z
3 -x,1/2+y,1/2-z
4 1/2+x,1/2-y,-z
_cell_length_a                   4.6152(7)
_cell_length_b                   10.0698(16)
_cell_length_c                   24.928(4)
_cell_angle_alpha                90
_cell_angle_beta                 90
_cell_angle_gamma                90
_cell_volume                     1158.51
_exptl_crystal_colour            colorless
_exptl_crystal_description       Needle
_cell_formula_units_Z            4
_exptl_crystal_recrystallization_method ethanol
loop_
_atom_site_label
_atom_site_type_symbol
_atom_site_fract_x
_atom_site_fract_y
_atom_site_fract_z
C1 C -0.1367(6) 0.7339(2) 0.79610(9)
C2 C -0.0511(7) 0.8402(3) 0.76493(10)
H1 H 0.0859 0.9004 0.7774
C3 C -0.1739(8) 0.8551(3) 0.71454(10)
H2 H -0.1223 0.9264 0.6928
C4 C -0.3717(8) 0.7637(3) 0.69733(11)
H3 H -0.4583 0.7720 0.6638
C5 C -0.4410(7) 0.6584(3) 0.73073(10)
H4 H -0.5722 0.5953 0.7183
C6 C -0.0113(6) 0.7173(2) 0.85127(9)
C7 C 0.1699(6) 0.5271(2) 0.94281(9)
C8 C 0.2413(6) 0.4974(2) 1.00039(9)
C9 C 0.1157(6) 0.5573(2) 1.04466(9)
C10 C 0.1850(6) 0.5137(2) 1.09630(10)
H5 H 0.0969 0.5525 1.1260
C11 C 0.3826(7) 0.4139(3) 1.10318(10)
H6 H 0.4290 0.3860 1.1377
C12 C 0.5135(6) 0.3541(3) 1.06002(11)
H7 H 0.6465 0.2859 1.0652
C13 C 0.4458(6) 0.3964(2) 1.00884(10)
H8 H 0.5371 0.3574 0.9796
N1 N -0.3295(6) 0.6424(2) 0.77979(8)
N2 N -0.1551(5) 0.6327(2) 0.88283(7)
H9 H -0.3074 0.5932 0.8710
N3 N -0.0590(5) 0.6086(2) 0.93463(8)
H10 H -0.1446 0.6453 0.9615
O1 O 0.2039(5) 0.78049(19) 0.86543(7)
O2 O 0.3055(5) 0.47847(18) 0.90543(7)
O3 O -0.0736(5) 0.66020(18) 1.03827(7)
H11 H -0.1280 0.6861 1.0678
loop_
_geom_bond_atom_site_label_1
_geom_bond_atom_site_label_2
_geom_bond_site_symmetry_1
_geom_bond_site_symmetry_2
C1 C2 1_555 1_555
C2 H1 1_555 1_555
C3 C2 1_555 1_555
H2 C3 1_555 1_555
C4 C3 1_555 1_555
H3 C4 1_555 1_555
C5 C4 1_555 1_555
H4 C5 1_555 1_555
C6 C1 1_555 1_555
C7 C8 1_555 1_555
C8 C9 1_555 1_555
C9 C10 1_555 1_555
C10 H5 1_555 1_555
C11 C10 1_555 1_555
H6 C11 1_555 1_555
C12 C11 1_555 1_555
H7 C12 1_555 1_555
C13 C8 1_555 1_555
H8 C13 1_555 1_555
N1 C1 1_555 1_555
N2 C6 1_555 1_555
H9 N2 1_555 1_555
N3 C7 1_555 1_555
H10 N3 1_555 1_555
O1 C6 1_555 1_555
O2 C7 1_555 1_555
O3 C9 1_555 1_555
H11 O3 1_555 1_555
C5 N1 1_555 1_555
C12 C13 1_555 1_555
N2 N3 1_555 1_555

#END
