
#######################################################################
#
#                 Cambridge Crystallographic Data Centre
#                                CCDC 
#
#######################################################################
#
# If this CIF has been generated from an entry in the Cambridge 
# Structural Database, then it will include bibliographic, chemical, 
# crystal, experimental, refinement or atomic coordinate data resulting 
# from the CCDC's data processing and validation procedures.
#
#######################################################################

data_GEPQOK
_chemical_formula_moiety         'C11 H12 N4 2+,2(Cl1 O4 1-)'
_chemical_name_systematic        
'2-[(1H-imidazol-3-ium-1-yl)methyl]-1H-benzimidazol-3-ium diperchlorate'
_symmetry_cell_setting           monoclinic
_symmetry_space_group_name_H-M   'P 21/c'
_symmetry_Int_Tables_number      14
_space_group_name_Hall           '-P 2ybc'
loop_
_symmetry_equiv_pos_site_id
_symmetry_equiv_pos_as_xyz
1 x,y,z
2 -x,1/2+y,1/2-z
3 -x,-y,-z
4 x,1/2-y,1/2+z
_cell_length_a                   10.3989(9)
_cell_length_b                   6.3729(5)
_cell_length_c                   23.0911(18)
_cell_angle_alpha                90
_cell_angle_beta                 96.377(3)
_cell_angle_gamma                90
_cell_volume                     1520.81
_exptl_crystal_colour            yellow
_exptl_crystal_description       plate
_cell_formula_units_Z            4
loop_
_atom_site_label
_atom_site_type_symbol
_atom_site_fract_x
_atom_site_fract_y
_atom_site_fract_z
N1 N 0.6405(2) -0.0090(4) 0.12628(10)
H1 H 0.5991 -0.0470 0.0942
N2 N 0.7785(2) -0.0074(4) 0.20369(10)
H2 H 0.8424 -0.0361 0.2286
N3 N 0.8564(2) -0.2817(4) 0.07983(11)
N4 N 0.9975(3) -0.2440(4) 0.01688(13)
H3 H 1.0684 -0.2311 0.0021
C1 C 0.9865(3) -0.2518(5) 0.07420(14)
H4 H 1.0547 -0.2393 0.1050
C2 C 0.8756(3) -0.2673(4) -0.01128(12)
H5 H 0.8544 -0.2663 -0.0524
C3 C 0.7988(3) -0.3080(5) 0.13503(14)
H6 H 0.8665 -0.3559 0.1657
H7 H 0.7312 -0.4180 0.1299
C4 C 0.7401(3) -0.1096(4) 0.15456(11)
C5 C 0.7014(3) 0.1691(5) 0.20724(12)
C6 C 0.6133(3) 0.1676(5) 0.15730(12)
C7 C 0.5191(3) 0.3236(5) 0.14580(15)
H8 H 0.4589 0.3220 0.1117
C8 C 0.5194(4) 0.4801(5) 0.18723(16)
H9 H 0.4574 0.5899 0.1814
C9 C 0.6080(4) 0.4821(5) 0.23758(16)
H10 H 0.6041 0.5929 0.2649
C10 C 0.7007(4) 0.3286(5) 0.24879(14)
H11 H 0.7609 0.3309 0.2829
C11 C 0.7916(3) -0.2912(5) 0.02727(14)
H12 H 0.7010 -0.3116 0.0187
Cl1 Cl 0.05535(7) 0.25610(12) 0.16252(3)
O1 O 0.0572(5) 0.4493(8) 0.19250(18)
O2 O 0.0528(3) 0.0967(9) 0.2039(2)
O3 O 0.1692(3) 0.2394(7) 0.13563(13)
O4 O -0.0566(2) 0.2521(4) 0.12005(11)
Cl2 Cl 0.36481(6) 0.78106(12) 0.03928(3)
O5 O 0.3508(3) 0.9773(5) 0.06840(14)
O6 O 0.3044(3) 0.6184(5) 0.06891(11)
O7 O 0.5011(2) 0.7352(4) 0.04100(12)
O8 O 0.3068(3) 0.7919(5) -0.01969(11)
loop_
_geom_bond_atom_site_label_1
_geom_bond_atom_site_label_2
_geom_bond_site_symmetry_1
_geom_bond_site_symmetry_2
N1 H1 1_555 1_555
N2 H2 1_555 1_555
N3 C1 1_555 1_555
N4 H3 1_555 1_555
C1 N4 1_555 1_555
H4 C1 1_555 1_555
C2 N4 1_555 1_555
H5 C2 1_555 1_555
C3 N3 1_555 1_555
H6 C3 1_555 1_555
H7 C3 1_555 1_555
C4 N1 1_555 1_555
C5 N2 1_555 1_555
C6 N1 1_555 1_555
C7 C6 1_555 1_555
H8 C7 1_555 1_555
C8 C7 1_555 1_555
H9 C8 1_555 1_555
C9 C8 1_555 1_555
H10 C9 1_555 1_555
C10 C5 1_555 1_555
H11 C10 1_555 1_555
C11 N3 1_555 1_555
H12 C11 1_555 1_555
Cl1 O1 1_555 1_555
O2 Cl1 1_555 1_555
O3 Cl1 1_555 1_555
O4 Cl1 1_555 1_555
Cl2 O5 1_555 1_555
O6 Cl2 1_555 1_555
O7 Cl2 1_555 1_555
O8 Cl2 1_555 1_555
N2 C4 1_555 1_555
C2 C11 1_555 1_555
C3 C4 1_555 1_555
C5 C6 1_555 1_555
C9 C10 1_555 1_555

#END
