
#######################################################################
#
#                 Cambridge Crystallographic Data Centre
#                                CCDC 
#
#######################################################################
#
# If this CIF has been generated from an entry in the Cambridge 
# Structural Database, then it will include bibliographic, chemical, 
# crystal, experimental, refinement or atomic coordinate data resulting 
# from the CCDC's data processing and validation procedures.
#
#######################################################################

data_GEPQIE
_chemical_formula_moiety         'C11 H12 N4 2+,2(N1 O3 1-)'
_chemical_name_systematic        
'2-[(1H-imidazol-3-ium-1-yl)methyl]-1H-benzimidazol-3-ium dinitrate'
_symmetry_cell_setting           monoclinic
_symmetry_space_group_name_H-M   'P 21/n'
_symmetry_Int_Tables_number      14
_space_group_name_Hall           '-P 2yn'
loop_
_symmetry_equiv_pos_site_id
_symmetry_equiv_pos_as_xyz
1 x,y,z
2 1/2-x,1/2+y,1/2-z
3 -x,-y,-z
4 1/2+x,1/2-y,1/2+z
_cell_length_a                   8.8353(4)
_cell_length_b                   16.3571(7)
_cell_length_c                   9.7807(4)
_cell_angle_alpha                90
_cell_angle_beta                 90.6720(10)
_cell_angle_gamma                90
_cell_volume                     1413.41
_exptl_crystal_colour            'pale yellow'
_exptl_crystal_description       needle
_cell_formula_units_Z            4
loop_
_atom_site_label
_atom_site_type_symbol
_atom_site_fract_x
_atom_site_fract_y
_atom_site_fract_z
N1 N 0.1606(2) 0.36238(11) 0.0408(2)
H1 H 0.1034 0.4016 0.0613
N2 N 0.29584(18) 0.25450(10) 0.06177(17)
N3 N 0.1726(2) 0.11001(11) 0.24425(18)
H2 H 0.1582 0.1487 0.3075
N4 N 0.26718(19) 0.04701(10) 0.07026(17)
H3 H 0.3284 0.0332 -0.0003
C1 C 0.2146(2) 0.30970(13) 0.1294(2)
H4 H 0.1990 0.3106 0.2232
C2 C 0.2052(2) 0.34102(13) -0.0879(2)
H5 H 0.1811 0.3682 -0.1688
C3 C 0.2905(2) 0.27320(13) -0.0751(2)
H6 H 0.3368 0.2446 -0.1453
C4 C 0.3764(2) 0.18483(13) 0.1228(2)
H7 H 0.4210 0.2013 0.2096
H8 H 0.4577 0.1683 0.0631
C5 C 0.2736(2) 0.11434(12) 0.14506(19)
C6 C 0.1589(2) -0.00436(13) 0.1232(2)
C7 C 0.1082(3) -0.08137(15) 0.0833(3)
H9 H 0.1481 -0.1084 0.0083
C8 C -0.0037(4) -0.11502(18) 0.1608(5)
H10 H -0.0390 -0.1670 0.1389
C9 C -0.0661(3) -0.0745(2) 0.2704(5)
H11 H -0.1433 -0.0996 0.3187
C10 C -0.0181(3) 0.00125(19) 0.3102(3)
H12 H -0.0603 0.0283 0.3842
C11 C 0.0977(2) 0.03600(13) 0.2337(2)
N5 N 0.4545(2) 0.02566(11) 0.76978(18)
O1 O 0.4992(3) 0.00644(12) 0.65499(18)
O2 O 0.39089(19) -0.02659(10) 0.84180(17)
O3 O 0.4761(2) 0.09488(11) 0.81567(19)
N6 N 0.7499(2) 0.26904(12) 0.01144(19)
O4 O 0.6319(2) 0.27694(15) -0.0590(2)
O5 O 0.7458(3) 0.23440(15) 0.1198(2)
O6 O 0.8650(3) 0.2898(2) -0.0424(3)
loop_
_geom_bond_atom_site_label_1
_geom_bond_atom_site_label_2
_geom_bond_site_symmetry_1
_geom_bond_site_symmetry_2
N1 H1 1_555 1_555
N2 C1 1_555 1_555
N3 H2 1_555 1_555
N4 H3 1_555 1_555
C1 N1 1_555 1_555
H4 C1 1_555 1_555
C2 N1 1_555 1_555
H5 C2 1_555 1_555
C3 N2 1_555 1_555
H6 C3 1_555 1_555
C4 N2 1_555 1_555
H7 C4 1_555 1_555
H8 C4 1_555 1_555
C5 N3 1_555 1_555
C6 N4 1_555 1_555
C7 C6 1_555 1_555
H9 C7 1_555 1_555
C8 C7 1_555 1_555
H10 C8 1_555 1_555
C9 C8 1_555 1_555
H11 C9 1_555 1_555
C10 C9 1_555 1_555
H12 C10 1_555 1_555
C11 N3 1_555 1_555
N5 O1 1_555 1_555
O2 N5 1_555 1_555
O3 N5 1_555 1_555
N6 O4 1_555 1_555
O5 N6 1_555 1_555
O6 N6 1_555 1_555
N4 C5 1_555 1_555
C2 C3 1_555 1_555
C4 C5 1_555 1_555
C6 C11 1_555 1_555
C10 C11 1_555 1_555

#END
