
#######################################################################
#
#                 Cambridge Crystallographic Data Centre
#                                CCDC 
#
#######################################################################
#
# If this CIF has been generated from an entry in the Cambridge 
# Structural Database, then it will include bibliographic, chemical, 
# crystal, experimental, refinement or atomic coordinate data resulting 
# from the CCDC's data processing and validation procedures.
#
#######################################################################

data_GEPREZ
_chemical_formula_moiety         'C27 H19 Cl1 N2 O3 S1'
_chemical_name_systematic        
2a-(4-Chlorophenyl)-2-(2,5-dioxo-2,5-dihydro-1H-3-pyrrol-1-yl)-4-phenyl-2,2a,3,4-tetrahydro-1H-azeto(2,1-d)(1,5)benzothiazepin-1-one
_symmetry_cell_setting           monoclinic
_symmetry_space_group_name_H-M   'P 21/c'
_symmetry_Int_Tables_number      14
_space_group_name_Hall           '-P 2ybc'
loop_
_symmetry_equiv_pos_site_id
_symmetry_equiv_pos_as_xyz
1 x,y,z
2 -x,1/2+y,1/2-z
3 -x,-y,-z
4 x,1/2-y,1/2+z
_cell_length_a                   12.3034(12)
_cell_length_b                   16.6438(16)
_cell_length_c                   12.2606(12)
_cell_angle_alpha                90
_cell_angle_beta                 110.0410(10)
_cell_angle_gamma                90
_cell_volume                     2358.64
_exptl_crystal_colour            colorless
_exptl_crystal_description       Block
_cell_formula_units_Z            4
loop_
_atom_site_label
_atom_site_type_symbol
_atom_site_fract_x
_atom_site_fract_y
_atom_site_fract_z
Cl1 Cl 0.06829(10) -0.10317(5) 0.08245(7)
S1 S 0.48242(5) 0.10398(4) 0.69384(5)
O1 O 0.09909(18) 0.24786(15) 0.22010(18)
O2 O -0.09407(15) 0.15445(13) 0.44879(16)
O3 O 0.24663(16) 0.32565(11) 0.4508(2)
N1 N 0.30468(14) 0.19093(10) 0.47951(14)
N2 N 0.02887(14) 0.20215(10) 0.36043(14)
C1 C 0.42026(17) 0.18481(12) 0.48184(18)
C2 C 0.4501(2) 0.22326(14) 0.3957(2)
H1 H 0.3947 0.2526 0.3387
C3 C 0.5615(2) 0.21818(16) 0.3942(3)
H2 H 0.5818 0.2450 0.3374
C4 C 0.6424(2) 0.17314(17) 0.4770(3)
H3 H 0.7170 0.1684 0.4751
C5 C 0.6135(2) 0.13520(17) 0.5623(2)
H4 H 0.6690 0.1047 0.6175
C6 C 0.50274(18) 0.14129(14) 0.56810(19)
C7 C 0.35033(18) 0.04319(13) 0.64935(17)
H5 H 0.3526 0.0054 0.5889
C8 C 0.3602(2) -0.00360(13) 0.75913(18)
C9 C 0.4423(2) -0.06404(15) 0.7959(2)
H6 H 0.4875 -0.0771 0.7512
C10 C 0.4577(3) -0.10486(17) 0.8979(3)
H7 H 0.5124 -0.1457 0.9213
C11 C 0.3926(4) -0.0854(2) 0.9646(2)
H8 H 0.4037 -0.1125 1.0339
C12 C 0.3114(4) -0.02618(19) 0.9294(2)
H9 H 0.2663 -0.0135 0.9743
C13 C 0.2957(3) 0.01512(16) 0.8269(2)
H10 H 0.2409 0.0559 0.8041
C14 C 0.24173(17) 0.09381(13) 0.60356(16)
H11 H 0.2473 0.1373 0.6579
H12 H 0.1762 0.0608 0.6019
C15 C 0.21721(16) 0.12976(12) 0.48349(16)
C16 C 0.18601(16) 0.06898(12) 0.38511(16)
C17 C 0.1123(2) 0.00589(14) 0.3824(2)
H13 H 0.0864 -0.0014 0.4447
C18 C 0.0760(2) -0.04662(15) 0.2901(2)
H14 H 0.0258 -0.0884 0.2901
C19 C 0.1137(2) -0.03716(15) 0.1991(2)
C20 C 0.1872(3) 0.02414(18) 0.1992(2)
H15 H 0.2131 0.0305 0.1368
C21 C 0.2234(2) 0.07707(16) 0.29178(19)
H16 H 0.2737 0.1186 0.2910
C22 C 0.13085(17) 0.20272(12) 0.46207(18)
H17 H 0.1112 0.2138 0.5316
C23 C -0.07791(19) 0.17837(14) 0.3629(2)
C24 C -0.1600(2) 0.18793(19) 0.2437(2)
H18 H -0.2388 0.1767 0.2190
C25 C -0.1034(3) 0.2149(2) 0.1788(2)
H19 H -0.1360 0.2261 0.0999
C26 C 0.0196(2) 0.22483(16) 0.2487(2)
C27 C 0.23175(19) 0.25535(14) 0.4595(2)
loop_
_geom_bond_atom_site_label_1
_geom_bond_atom_site_label_2
_geom_bond_site_symmetry_1
_geom_bond_site_symmetry_2
Cl1 C19 1_555 1_555
S1 C6 1_555 1_555
O1 C26 1_555 1_555
O2 C23 1_555 1_555
O3 C27 1_555 1_555
N1 C1 1_555 1_555
N2 C22 1_555 1_555
C1 C2 1_555 1_555
C2 H1 1_555 1_555
C3 C2 1_555 1_555
H2 C3 1_555 1_555
C4 C3 1_555 1_555
H3 C4 1_555 1_555
C5 C4 1_555 1_555
H4 C5 1_555 1_555
C6 C1 1_555 1_555
C7 S1 1_555 1_555
H5 C7 1_555 1_555
C8 C7 1_555 1_555
C9 C8 1_555 1_555
H6 C9 1_555 1_555
C10 C9 1_555 1_555
H7 C10 1_555 1_555
C11 C10 1_555 1_555
H8 C11 1_555 1_555
C12 C11 1_555 1_555
H9 C12 1_555 1_555
C13 C8 1_555 1_555
H10 C13 1_555 1_555
C14 C7 1_555 1_555
H11 C14 1_555 1_555
H12 C14 1_555 1_555
C15 N1 1_555 1_555
C16 C15 1_555 1_555
C17 C16 1_555 1_555
H13 C17 1_555 1_555
C18 C17 1_555 1_555
H14 C18 1_555 1_555
C19 C18 1_555 1_555
C20 C19 1_555 1_555
H15 C20 1_555 1_555
C21 C16 1_555 1_555
H16 C21 1_555 1_555
C22 C15 1_555 1_555
H17 C22 1_555 1_555
C23 N2 1_555 1_555
C24 C23 1_555 1_555
H18 C24 1_555 1_555
C25 C24 1_555 1_555
H19 C25 1_555 1_555
C26 N2 1_555 1_555
C27 N1 1_555 1_555
C5 C6 1_555 1_555
C12 C13 1_555 1_555
C14 C15 1_555 1_555
C20 C21 1_555 1_555
C22 C27 1_555 1_555
C25 C26 1_555 1_555

#END
