
#######################################################################
#
#                 Cambridge Crystallographic Data Centre
#                                CCDC 
#
#######################################################################
#
# If this CIF has been generated from an entry in the Cambridge 
# Structural Database, then it will include bibliographic, chemical, 
# crystal, experimental, refinement or atomic coordinate data resulting 
# from the CCDC's data processing and validation procedures.
#
#######################################################################

data_GEPTEC
_chemical_formula_moiety         'C26 H22 N2 O2,C2 H4 O2'
_chemical_name_systematic        
'1-(5-(anthracen-10-yl)-3-(4-methoxyphenyl)-4,5-dihydropyrazol-1-yl)ethanone, acetic acid solvate'
_symmetry_cell_setting           triclinic
_symmetry_space_group_name_H-M   'P -1'
_symmetry_Int_Tables_number      2
_space_group_name_Hall           '-P 1'
loop_
_symmetry_equiv_pos_site_id
_symmetry_equiv_pos_as_xyz
1 x,y,z
2 -x,-y,-z
_cell_length_a                   8.2824(19)
_cell_length_b                   11.048(3)
_cell_length_c                   14.035(3)
_cell_angle_alpha                86.649(3)
_cell_angle_beta                 76.491(3)
_cell_angle_gamma                70.242(3)
_cell_volume                     1174.92
_exptl_crystal_colour            yellow
_exptl_crystal_description       prism
_cell_formula_units_Z            2
loop_
_atom_site_label
_atom_site_type_symbol
_atom_site_fract_x
_atom_site_fract_y
_atom_site_fract_z
N1 N 0.3584(2) 0.85293(14) 0.38000(10)
N2 N 0.2950(2) 0.94010(14) 0.45834(10)
C1 C 0.1015(2) 1.15492(17) 0.50124(12)
O1 O -0.1143(2) 1.46399(14) 0.69913(10)
O2 O 0.50089(19) 0.65407(13) 0.31972(10)
C2 C 0.1833(2) 1.04299(17) 0.43408(12)
C3 C -0.0486(3) 1.36618(19) 0.63110(14)
C4 C -0.0255(2) 1.26430(18) 0.47999(13)
H1 H -0.0613 1.2675 0.4215
C5 C 0.0797(3) 1.2577(2) 0.65285(14)
H2 H 0.1159 1.2550 0.7111
C6 C 0.4135(2) 0.89145(17) 0.19913(12)
C7 C 0.4588(2) 0.73113(18) 0.38906(14)
C8 C -0.1008(3) 1.36943(19) 0.54410(13)
H3 H -0.1865 1.4423 0.5286
C9 C 0.5418(2) 0.95204(18) 0.18958(13)
C10 C 0.1542(3) 1.15377(19) 0.58904(14)
H4 H 0.2411 1.0815 0.6044
C11 C 0.5475(3) 1.03486(19) 0.26187(14)
H5 H 0.4623 1.0508 0.3204
C12 C 0.2767(2) 0.90208(17) 0.29523(12)
H6 H 0.2047 0.8502 0.2881
C13 C 0.5526(3) 0.7968(2) 0.03344(14)
C14 C 0.4152(3) 0.81610(19) 0.12105(13)
C15 C 0.1520(2) 1.03643(18) 0.33323(13)
H7 H 0.1817 1.1029 0.2920
H8 H 0.0304 1.0450 0.3365
C16 C 0.6785(3) 0.9295(2) 0.10133(15)
C17 C -0.2587(3) 1.5726(2) 0.68552(18)
H9 H -0.2912 1.6335 0.7386
H10 H -0.3569 1.5458 0.6841
H11 H -0.2256 1.6121 0.6247
C18 C 0.6798(3) 0.8521(3) 0.02722(16)
H12 H 0.7702 0.8370 -0.0289
C19 C 0.5145(3) 0.6940(2) 0.48354(15)
H13 H 0.5848 0.6045 0.4803
H14 H 0.4121 0.7088 0.5363
H15 H 0.5825 0.7447 0.4947
C20 C 0.6736(3) 1.0914(2) 0.24802(16)
H16 H 0.6706 1.1476 0.2957
C21 C 0.2893(4) 0.7539(3) 0.12126(17)
H17 H 0.1968 0.7644 0.1759
C22 C 0.8078(4) 1.0657(3) 0.1627(2)
H18 H 0.8952 1.1030 0.1544
C23 C 0.8097(4) 0.9873(3) 0.0931(2)
H19 H 0.9006 0.9702 0.0371
C24 C 0.5566(4) 0.7189(3) -0.04461(17)
H20 H 0.6462 0.7065 -0.1010
C25 C 0.4346(5) 0.6628(3) -0.0390(2)
H21 H 0.4395 0.6121 -0.0909
C26 C 0.2997(5) 0.6813(3) 0.0457(2)
H22 H 0.2152 0.6421 0.0495
O3 O 0.7462(2) 0.42565(15) 0.30295(12)
H23 H 0.6706 0.4959 0.3009
C27 C 0.8682(3) 0.4036(2) 0.22036(17)
O4 O 0.9862(2) 0.30306(17) 0.20794(15)
C28 C 0.8501(3) 0.5082(2) 0.14853(17)
H24 H 0.9456 0.4817 0.0918
H25 H 0.8526 0.5838 0.1777
H26 H 0.7402 0.5271 0.1295
loop_
_geom_bond_atom_site_label_1
_geom_bond_atom_site_label_2
_geom_bond_site_symmetry_1
_geom_bond_site_symmetry_2
N1 N2 1_555 1_555
N2 C2 1_555 1_555
C1 C2 1_555 1_555
O1 C3 1_555 1_555
O2 C7 1_555 1_555
C2 C15 1_555 1_555
C3 C5 1_555 1_555
C4 C1 1_555 1_555
H1 C4 1_555 1_555
C5 H2 1_555 1_555
C6 C9 1_555 1_555
C7 N1 1_555 1_555
C8 C3 1_555 1_555
H3 C8 1_555 1_555
C9 C11 1_555 1_555
C10 C1 1_555 1_555
H4 C10 1_555 1_555
C11 H5 1_555 1_555
C12 N1 1_555 1_555
H6 C12 1_555 1_555
C13 C14 1_555 1_555
C14 C6 1_555 1_555
C15 C12 1_555 1_555
H7 C15 1_555 1_555
H8 C15 1_555 1_555
C16 C9 1_555 1_555
C17 O1 1_555 1_555
H9 C17 1_555 1_555
H10 C17 1_555 1_555
H11 C17 1_555 1_555
C18 C13 1_555 1_555
H12 C18 1_555 1_555
C19 C7 1_555 1_555
H13 C19 1_555 1_555
H14 C19 1_555 1_555
H15 C19 1_555 1_555
C20 C11 1_555 1_555
H16 C20 1_555 1_555
C21 C14 1_555 1_555
H17 C21 1_555 1_555
C22 C20 1_555 1_555
H18 C22 1_555 1_555
C23 C16 1_555 1_555
H19 C23 1_555 1_555
C24 C13 1_555 1_555
H20 C24 1_555 1_555
C25 C24 1_555 1_555
H21 C25 1_555 1_555
C26 C21 1_555 1_555
H22 C26 1_555 1_555
O3 H23 1_555 1_555
C27 O3 1_555 1_555
O4 C27 1_555 1_555
C28 C27 1_555 1_555
H24 C28 1_555 1_555
H25 C28 1_555 1_555
H26 C28 1_555 1_555
C4 C8 1_555 1_555
C5 C10 1_555 1_555
C6 C12 1_555 1_555
C16 C18 1_555 1_555
C22 C23 1_555 1_555
C25 C26 1_555 1_555

#END
