
#######################################################################
#
#                 Cambridge Crystallographic Data Centre
#                                CCDC 
#
#######################################################################
#
# If this CIF has been generated from an entry in the Cambridge 
# Structural Database, then it will include bibliographic, chemical, 
# crystal, experimental, refinement or atomic coordinate data resulting 
# from the CCDC's data processing and validation procedures.
#
#######################################################################

data_GEPYEG
_chemical_formula_moiety         'C48 H72 Cs2 O18 2+,2(I3 1-)'
_chemical_name_systematic        
'(\m~2~-Benzo-18-crown-6)-bis(benzo-18-crown-6)-di-cesium bis(triiodide)'
_symmetry_cell_setting           monoclinic
_symmetry_space_group_name_H-M   'C 2/c'
_symmetry_Int_Tables_number      15
_space_group_name_Hall           '-C 2yn'
loop_
_symmetry_equiv_pos_site_id
_symmetry_equiv_pos_as_xyz
1 x,y,z
2 1/2+x,1/2+y,z
3 -x,y,1/2-z
4 1/2-x,1/2+y,1/2-z
5 -x,-y,-z
6 1/2-x,1/2-y,-z
7 x,-y,1/2+z
8 1/2+x,1/2-y,1/2+z
_cell_length_a                   22.9596(10)
_cell_length_b                   20.9266(10)
_cell_length_c                   13.7362(6)
_cell_angle_alpha                90
_cell_angle_beta                 100.209(3)
_cell_angle_gamma                90
_cell_volume                     6495.29
_exptl_crystal_colour            'light brown'
_cell_formula_units_Z            4
loop_
_atom_site_label
_atom_site_type_symbol
_atom_site_fract_x
_atom_site_fract_y
_atom_site_fract_z
Cs1 Cs 0.406199(10) 0.294820(11) 0.718027(16)
O1 O 0.49384(12) 0.17919(12) 0.84261(19)
C1 C 0.48503(19) 0.1791(2) 0.9436(3)
H1 H 0.5051 0.1427 0.9783
H2 H 0.4431 0.1755 0.9457
C2 C 0.50893(17) 0.2395(2) 0.9925(3)
H3 H 0.5042 0.2389 1.0612
H4 H 0.5509 0.2425 0.9906
O2 O 0.47924(11) 0.29360(13) 0.94461(19)
C3 C 0.49689(19) 0.3504(2) 0.9995(3)
H5 H 0.5397 0.3524 1.0163
H6 H 0.4810 0.3505 1.0604
C4 C 0.47407(19) 0.4063(2) 0.9379(3)
H7 H 0.4315 0.4028 0.9176
H8 H 0.4826 0.4453 0.9759
O3 O 0.50189(12) 0.40814(13) 0.8529(2)
C5 C 0.4839(2) 0.46222(19) 0.7926(4)
H9 H 0.4927 0.5011 0.8309
H10 H 0.4415 0.4606 0.7686
C6 C 0.4929(2) 0.0048(2) 0.7958(4)
H11 H 0.4874 -0.0338 0.8266
C7 C 0.48649(17) 0.0620(2) 0.8439(4)
H12 H 0.4765 0.0617 0.9067
C8 C 0.49492(16) 0.12013(17) 0.7984(3)
O4 O 0.33072(11) 0.22984(11) 0.51656(17)
C9 C 0.31871(16) 0.26898(17) 0.4288(3)
H13 H 0.2857 0.2515 0.3825
H14 H 0.3531 0.2702 0.3966
C10 C 0.30423(15) 0.33472(17) 0.4593(3)
H15 H 0.2899 0.3605 0.4013
H16 H 0.2735 0.3327 0.4993
O5 O 0.35612(10) 0.36270(12) 0.51459(18)
C11 C 0.35177(17) 0.43007(18) 0.5256(3)
H17 H 0.3422 0.4492 0.4604
H18 H 0.3901 0.4464 0.5569
C12 C 0.30624(19) 0.45057(19) 0.5854(3)
H19 H 0.3070 0.4966 0.5932
H20 H 0.2670 0.4381 0.5521
O6 O 0.31971(14) 0.42050(17) 0.6791(2)
C13 C 0.28175(19) 0.4379(2) 0.7445(3)
H21 H 0.2412 0.4382 0.7092
H22 H 0.2914 0.4809 0.7688
C14 C 0.2865(4) 0.3955(5) 0.8256(6)
H23 H 0.2904 0.4227 0.8836
H24 H 0.2479 0.3755 0.8195
O7 O 0.3211(2) 0.3534(2) 0.8480(3)
C15 C 0.3249(2) 0.3151(2) 0.9341(3)
H25 H 0.3054 0.3371 0.9816
H26 H 0.3662 0.3098 0.9637
C16 C 0.29749(19) 0.2509(2) 0.9137(3)
H27 H 0.2996 0.2275 0.9752
H28 H 0.2561 0.2557 0.8841
O8 O 0.32750(12) 0.21606(15) 0.84833(19)
C17 C 0.29753(18) 0.1579(2) 0.8200(3)
H29 H 0.2577 0.1671 0.7858
H30 H 0.2946 0.1331 0.8786
C18 C 0.32942(17) 0.1201(2) 0.7541(3)
H31 H 0.3687 0.1090 0.7887
H32 H 0.3081 0.0809 0.7341
O9 O 0.33348(11) 0.15840(12) 0.66892(17)
C19 C 0.34770(15) 0.12805(17) 0.5876(3)
C20 C 0.36306(16) 0.06446(19) 0.5831(3)
H33 H 0.3654 0.0387 0.6389
C21 C 0.37509(18) 0.03877(19) 0.4950(3)
H34 H 0.3850 -0.0042 0.4919
C22 C 0.37223(17) 0.07710(19) 0.4127(3)
H35 H 0.3805 0.0598 0.3542
C23 C 0.35721(16) 0.14106(17) 0.4162(3)
H36 H 0.3552 0.1665 0.3602
C24 C 0.34518(14) 0.16709(16) 0.5036(2)
Cs1B Cs 0.593801(10) 0.294820(11) 0.781973(16)
O1B O 0.50616(12) 0.17919(12) 0.65739(19)
C1B C 0.51497(19) 0.1791(2) 0.5564(3)
H1B H 0.4949 0.1427 0.5217
H2B H 0.5569 0.1755 0.5543
C2B C 0.49107(17) 0.2395(2) 0.5075(3)
H3B H 0.4958 0.2389 0.4388
H4B H 0.4491 0.2425 0.5094
O2B O 0.52076(11) 0.29360(13) 0.55539(19)
C3B C 0.50311(19) 0.3504(2) 0.5005(3)
H5B H 0.4603 0.3524 0.4837
H6B H 0.5190 0.3505 0.4396
C4B C 0.52593(19) 0.4063(2) 0.5621(3)
H7B H 0.5685 0.4028 0.5824
H8B H 0.5174 0.4453 0.5241
O3B O 0.49811(12) 0.40814(13) 0.6471(2)
C5B C 0.5161(2) 0.46222(19) 0.7074(4)
H9B H 0.5073 0.5011 0.6691
H10B H 0.5585 0.4606 0.7314
C6B C 0.5071(2) 0.0048(2) 0.7042(4)
H11B H 0.5126 -0.0338 0.6734
C7B C 0.51351(17) 0.0620(2) 0.6561(4)
H12B H 0.5235 0.0617 0.5933
C8B C 0.50508(16) 0.12013(17) 0.7016(3)
O4B O 0.66928(11) 0.22984(11) 0.98344(17)
C9B C 0.68129(16) 0.26898(17) 1.0712(3)
H13B H 0.7143 0.2515 1.1175
H14B H 0.6469 0.2702 1.1034
C10B C 0.69577(15) 0.33472(17) 1.0407(3)
H15B H 0.7101 0.3605 1.0987
H16B H 0.7265 0.3327 1.0007
O5B O 0.64388(10) 0.36270(12) 0.98541(18)
C11B C 0.64823(17) 0.43007(18) 0.9744(3)
H17B H 0.6578 0.4492 1.0396
H18B H 0.6099 0.4464 0.9431
C12B C 0.69376(19) 0.45057(19) 0.9146(3)
H19B H 0.6930 0.4966 0.9068
H20B H 0.7330 0.4381 0.9479
O6B O 0.68029(14) 0.42050(17) 0.8209(2)
C13B C 0.71825(19) 0.4379(2) 0.7555(3)
H21B H 0.7588 0.4382 0.7908
H22B H 0.7086 0.4809 0.7312
C14B C 0.7135(4) 0.3955(5) 0.6744(6)
H23B H 0.7096 0.4227 0.6164
H24B H 0.7521 0.3755 0.6805
O7B O 0.6789(2) 0.3534(2) 0.6520(3)
C15B C 0.6751(2) 0.3151(2) 0.5659(3)
H25B H 0.6946 0.3371 0.5184
H26B H 0.6338 0.3098 0.5363
C16B C 0.70251(19) 0.2509(2) 0.5863(3)
H27B H 0.7004 0.2275 0.5248
H28B H 0.7439 0.2557 0.6159
O8B O 0.67250(12) 0.21606(15) 0.65167(19)
C17B C 0.70247(18) 0.1579(2) 0.6800(3)
H29B H 0.7423 0.1671 0.7142
H30B H 0.7054 0.1331 0.6214
C18B C 0.67058(17) 0.1201(2) 0.7459(3)
H31B H 0.6313 0.1090 0.7113
H32B H 0.6919 0.0809 0.7659
O9B O 0.66652(11) 0.15840(12) 0.83108(17)
C19B C 0.65230(15) 0.12805(17) 0.9124(3)
C20B C 0.63694(16) 0.06446(19) 0.9169(3)
H33B H 0.6346 0.0387 0.8611
C21B C 0.62491(18) 0.03877(19) 1.0050(3)
H34B H 0.6150 -0.0042 1.0081
C22B C 0.62777(17) 0.07710(19) 1.0873(3)
H35B H 0.6195 0.0598 1.1458
C23B C 0.64279(16) 0.14106(17) 1.0838(3)
H36B H 0.6448 0.1665 1.1398
C24B C 0.65482(14) 0.16709(16) 0.9964(2)
I1 I 0.113424(18) 0.374831(14) 0.86625(2)
I2 I 0.109482(11) 0.240463(12) 0.812406(17)
I3 I 0.114137(15) 0.104849(14) 0.76808(2)
loop_
_geom_bond_atom_site_label_1
_geom_bond_atom_site_label_2
_geom_bond_site_symmetry_1
_geom_bond_site_symmetry_2
Cs1 O1 1_555 1_555
I1 I2 1_555 1_555
I2 I3 1_555 1_555
O1 C1 1_555 1_555
C1 H1 1_555 1_555
H2 C1 1_555 1_555
C2 C1 1_555 1_555
H3 C2 1_555 1_555
H4 C2 1_555 1_555
O2 Cs1 1_555 1_555
C3 O2 1_555 1_555
H5 C3 1_555 1_555
H6 C3 1_555 1_555
C4 C3 1_555 1_555
H7 C4 1_555 1_555
H8 C4 1_555 1_555
O3 Cs1 1_555 1_555
C5 O3 1_555 1_555
H9 C5 1_555 1_555
H10 C5 1_555 1_555
C6 H11 1_555 1_555
C7 C6 1_555 1_555
H12 C7 1_555 1_555
C8 O1 1_555 1_555
O4 Cs1 1_555 1_555
C9 O4 1_555 1_555
H13 C9 1_555 1_555
H14 C9 1_555 1_555
C10 C9 1_555 1_555
H15 C10 1_555 1_555
H16 C10 1_555 1_555
O5 Cs1 1_555 1_555
C11 O5 1_555 1_555
H17 C11 1_555 1_555
H18 C11 1_555 1_555
C12 C11 1_555 1_555
H19 C12 1_555 1_555
H20 C12 1_555 1_555
O6 Cs1 1_555 1_555
C13 O6 1_555 1_555
H21 C13 1_555 1_555
H22 C13 1_555 1_555
C14 C13 1_555 1_555
H23 C14 1_555 1_555
H24 C14 1_555 1_555
O7 Cs1 1_555 1_555
C15 O7 1_555 1_555
H25 C15 1_555 1_555
H26 C15 1_555 1_555
C16 C15 1_555 1_555
H27 C16 1_555 1_555
H28 C16 1_555 1_555
O8 Cs1 1_555 1_555
C17 O8 1_555 1_555
H29 C17 1_555 1_555
H30 C17 1_555 1_555
C18 C17 1_555 1_555
H31 C18 1_555 1_555
H32 C18 1_555 1_555
O9 Cs1 1_555 1_555
C19 O9 1_555 1_555
C20 C19 1_555 1_555
H33 C20 1_555 1_555
C21 C20 1_555 1_555
H34 C21 1_555 1_555
C22 C21 1_555 1_555
H35 C22 1_555 1_555
C23 C22 1_555 1_555
H36 C23 1_555 1_555
C24 O4 1_555 1_555
Cs1B O1 1_555 1_555
O1B Cs1 1_555 1_555
C1B O1B 1_555 1_555
H1B C1B 1_555 1_555
H2B C1B 1_555 1_555
C2B C1B 1_555 1_555
H3B C2B 1_555 1_555
H4B C2B 1_555 1_555
O2B Cs1 1_555 1_555
C3B O2B 1_555 1_555
H5B C3B 1_555 1_555
H6B C3B 1_555 1_555
C4B C3B 1_555 1_555
H7B C4B 1_555 1_555
H8B C4B 1_555 1_555
O3B Cs1 1_555 1_555
C5B C5 1_555 1_555
H9B C5B 1_555 1_555
H10B C5B 1_555 1_555
C6B C6 1_555 1_555
H11B C6B 1_555 1_555
C7B C6B 1_555 1_555
H12B C7B 1_555 1_555
C8B C8 1_555 1_555
O4B Cs1B 1_555 1_555
C9B O4B 1_555 1_555
H13B C9B 1_555 1_555
H14B C9B 1_555 1_555
C10B C9B 1_555 1_555
H15B C10B 1_555 1_555
H16B C10B 1_555 1_555
O5B Cs1B 1_555 1_555
C11B O5B 1_555 1_555
H17B C11B 1_555 1_555
H18B C11B 1_555 1_555
C12B C11B 1_555 1_555
H19B C12B 1_555 1_555
H20B C12B 1_555 1_555
O6B Cs1B 1_555 1_555
C13B O6B 1_555 1_555
H21B C13B 1_555 1_555
H22B C13B 1_555 1_555
C14B C13B 1_555 1_555
H23B C14B 1_555 1_555
H24B C14B 1_555 1_555
O7B Cs1B 1_555 1_555
C15B O7B 1_555 1_555
H25B C15B 1_555 1_555
H26B C15B 1_555 1_555
C16B C15B 1_555 1_555
H27B C16B 1_555 1_555
H28B C16B 1_555 1_555
O8B Cs1B 1_555 1_555
C17B O8B 1_555 1_555
H29B C17B 1_555 1_555
H30B C17B 1_555 1_555
C18B C17B 1_555 1_555
H31B C18B 1_555 1_555
H32B C18B 1_555 1_555
O9B Cs1B 1_555 1_555
C19B O9B 1_555 1_555
C20B C19B 1_555 1_555
H33B C20B 1_555 1_555
C21B C20B 1_555 1_555
H34B C21B 1_555 1_555
C22B C21B 1_555 1_555
H35B C22B 1_555 1_555
C23B C22B 1_555 1_555
H36B C23B 1_555 1_555
C24B O4B 1_555 1_555
C2 O2 1_555 1_555
O2 Cs1B 1_555 1_555
C4 O3 1_555 1_555
O3 Cs1B 1_555 1_555
C7 C8 1_555 1_555
C10 O5 1_555 1_555
C12 O6 1_555 1_555
C14 O7 1_555 1_555
C16 O8 1_555 1_555
C18 O9 1_555 1_555
C19 C24 1_555 1_555
C23 C24 1_555 1_555
Cs1B O1B 1_555 1_555
Cs1B O2B 1_555 1_555
Cs1B O3B 1_555 1_555
O1B C8B 1_555 1_555
C2B O2B 1_555 1_555
C4B O3B 1_555 1_555
O3B C5B 1_555 1_555
C7B C8B 1_555 1_555
C10B O5B 1_555 1_555
C12B O6B 1_555 1_555
C14B O7B 1_555 1_555
C16B O8B 1_555 1_555
C18B O9B 1_555 1_555
C19B C24B 1_555 1_555
C23B C24B 1_555 1_555

#END
