
#######################################################################
#
#                 Cambridge Crystallographic Data Centre
#                                CCDC 
#
#######################################################################
#
# If this CIF has been generated from an entry in the Cambridge 
# Structural Database, then it will include bibliographic, chemical, 
# crystal, experimental, refinement or atomic coordinate data resulting 
# from the CCDC's data processing and validation procedures.
#
#######################################################################

data_GEPYAC
_chemical_formula_moiety         'C32 H48 Cs1 O12 1+,I3 1-'
_chemical_name_systematic        'bis(Benzo-18-crown-6)-cesium triiodide'
_symmetry_cell_setting           monoclinic
_symmetry_space_group_name_H-M   'C 2/c'
_symmetry_Int_Tables_number      15
_space_group_name_Hall           '-C 2yn'
loop_
_symmetry_equiv_pos_site_id
_symmetry_equiv_pos_as_xyz
1 x,y,z
2 1/2+x,1/2+y,z
3 -x,y,1/2-z
4 1/2-x,1/2+y,1/2-z
5 -x,-y,-z
6 1/2-x,1/2-y,-z
7 x,-y,1/2+z
8 1/2+x,1/2-y,1/2+z
_cell_length_a                   20.488(5)
_cell_length_b                   13.295(5)
_cell_length_c                   15.887(5)
_cell_angle_alpha                90
_cell_angle_beta                 110.226(5)
_cell_angle_gamma                90
_cell_volume                     4060.58
_exptl_crystal_colour            'light brown'
_chemical_melting_point          '157 deg.C(dec.)'
_cell_formula_units_Z            4
loop_
_atom_site_label
_atom_site_type_symbol
_atom_site_fract_x
_atom_site_fract_y
_atom_site_fract_z
Cs1 Cs 0.0000 -0.14785(2) 0.7500
O1 O -0.01367(12) 0.04422(18) 0.60736(15)
C1 C -0.08020(18) 0.0630(3) 0.5411(2)
H1 H -0.0754 0.1074 0.4951
H2 H -0.1105 0.0951 0.5683
C2 C -0.11047(19) -0.0350(3) 0.5006(2)
H3 H -0.1522 -0.0235 0.4491
H4 H -0.0773 -0.0711 0.4806
O2 O -0.12681(12) -0.09272(19) 0.56566(15)
C3 C -0.1672(2) -0.1795(3) 0.5290(2)
H5 H -0.2077 -0.1590 0.4787
H6 H -0.1837 -0.2084 0.5741
C4 C -0.1293(2) -0.2590(3) 0.4977(3)
H7 H -0.1595 -0.3164 0.4749
H8 H -0.1149 -0.2329 0.4499
O3 O -0.07039(17) -0.2886(2) 0.57111(19)
C5 C -0.0328(3) -0.3690(3) 0.5505(3)
H9 H -0.0595 -0.4307 0.5436
H10 H -0.0259 -0.3553 0.4942
C6 C 0.0327(5) -0.3817(8) 0.6195(6)
H11 H 0.0305 -0.4500 0.6397
H12 H 0.0649 -0.3842 0.5868
O4 O 0.0621(3) -0.3426(4) 0.6807(4)
C7 C 0.1266(3) -0.3647(5) 0.7453(4)
H13 H 0.1408 -0.4319 0.7352
H14 H 0.1228 -0.3631 0.8044
C8 C 0.1792(3) -0.2915(5) 0.7411(3)
H15 H 0.2238 -0.3081 0.7859
H16 H 0.1839 -0.2943 0.6825
O5 O 0.15894(15) -0.1924(3) 0.7572(2)
C9 C 0.2015(2) -0.1178(5) 0.7410(3)
H17 H 0.1961 -0.1178 0.6779
H18 H 0.2498 -0.1322 0.7754
C10 C 0.1828(2) -0.0178(5) 0.7662(3)
H19 H 0.1866 -0.0180 0.8288
H20 H 0.2145 0.0326 0.7584
O6 O 0.11245(13) 0.0065(2) 0.71049(17)
C11 C 0.0925(2) 0.1053(4) 0.7071(2)
C12 C 0.1339(2) 0.1830(4) 0.7545(3)
H21 H 0.1782 0.1694 0.7947
C13 C 0.1096(3) 0.2807(5) 0.7423(3)
H22 H 0.1379 0.3327 0.7738
C14 C 0.0443(3) 0.3016(4) 0.6842(3)
H23 H 0.0289 0.3679 0.6759
C15 C 0.0000(2) 0.2243(3) 0.6367(3)
H24 H -0.0446 0.2388 0.5979
C16 C 0.02393(18) 0.1266(3) 0.6487(2)
O1B O 0.01367(12) 0.04422(18) 0.89264(15)
C1B C 0.08020(18) 0.0630(3) 0.9589(2)
H1B H 0.0754 0.1074 1.0049
H2B H 0.1105 0.0951 0.9317
C2B C 0.11047(19) -0.0350(3) 0.9994(2)
H3B H 0.1522 -0.0235 1.0509
H4B H 0.0773 -0.0711 1.0194
O2B O 0.12681(12) -0.09272(19) 0.93434(15)
C3B C 0.1672(2) -0.1795(3) 0.9710(2)
H5B H 0.2077 -0.1590 1.0213
H6B H 0.1837 -0.2084 0.9259
C4B C 0.1293(2) -0.2590(3) 1.0023(3)
H7B H 0.1595 -0.3164 1.0251
H8B H 0.1149 -0.2329 1.0501
O3B O 0.07039(17) -0.2886(2) 0.92889(19)
C5B C 0.0328(3) -0.3690(3) 0.9495(3)
H9B H 0.0595 -0.4307 0.9564
H10B H 0.0259 -0.3553 1.0058
C6B C -0.0327(5) -0.3817(8) 0.8805(6)
H11B H -0.0305 -0.4500 0.8603
H12B H -0.0649 -0.3842 0.9132
O4B O -0.0621(3) -0.3426(4) 0.8193(4)
C7B C -0.1266(3) -0.3647(5) 0.7547(4)
H13B H -0.1408 -0.4319 0.7648
H14B H -0.1228 -0.3631 0.6956
C8B C -0.1792(3) -0.2915(5) 0.7589(3)
H15B H -0.2238 -0.3081 0.7141
H16B H -0.1839 -0.2943 0.8175
O5B O -0.15894(15) -0.1924(3) 0.7428(2)
C9B C -0.2015(2) -0.1178(5) 0.7590(3)
H17B H -0.1961 -0.1178 0.8221
H18B H -0.2498 -0.1322 0.7246
C10B C -0.1828(2) -0.0178(5) 0.7338(3)
H19B H -0.1866 -0.0180 0.6712
H20B H -0.2145 0.0326 0.7416
O6B O -0.11245(13) 0.0065(2) 0.78951(17)
C11B C -0.0925(2) 0.1053(4) 0.7929(2)
C12B C -0.1339(2) 0.1830(4) 0.7455(3)
H21B H -0.1782 0.1694 0.7053
C13B C -0.1096(3) 0.2807(5) 0.7577(3)
H22B H -0.1379 0.3327 0.7262
C14B C -0.0443(3) 0.3016(4) 0.8158(3)
H23B H -0.0289 0.3679 0.8241
C15B C 0.0000(2) 0.2243(3) 0.8633(3)
H24B H 0.0446 0.2388 0.9021
C16B C -0.02393(18) 0.1266(3) 0.8513(2)
I1 I 0.2500 -0.2500 0.5000
I2 I 0.187229(19) -0.44800(3) 0.47707(3)
I2E I 0.312771(19) -0.05200(3) 0.52293(3)
loop_
_geom_bond_atom_site_label_1
_geom_bond_atom_site_label_2
_geom_bond_site_symmetry_1
_geom_bond_site_symmetry_2
Cs1 O1 1_555 1_555
I1 I2 1_555 1_555
O1 C1 1_555 1_555
C1 H1 1_555 1_555
H2 C1 1_555 1_555
C2 C1 1_555 1_555
H3 C2 1_555 1_555
H4 C2 1_555 1_555
O2 Cs1 1_555 1_555
C3 O2 1_555 1_555
H5 C3 1_555 1_555
H6 C3 1_555 1_555
C4 C3 1_555 1_555
H7 C4 1_555 1_555
H8 C4 1_555 1_555
O3 Cs1 1_555 1_555
C5 O3 1_555 1_555
H9 C5 1_555 1_555
H10 C5 1_555 1_555
C6 C5 1_555 1_555
H11 C6 1_555 1_555
H12 C6 1_555 1_555
O4 Cs1 1_555 1_555
C7 O4 1_555 1_555
H13 C7 1_555 1_555
H14 C7 1_555 1_555
C8 C7 1_555 1_555
H15 C8 1_555 1_555
H16 C8 1_555 1_555
O5 Cs1 1_555 1_555
C9 O5 1_555 1_555
H17 C9 1_555 1_555
H18 C9 1_555 1_555
C10 C9 1_555 1_555
H19 C10 1_555 1_555
H20 C10 1_555 1_555
O6 Cs1 1_555 1_555
C11 O6 1_555 1_555
C12 C11 1_555 1_555
H21 C12 1_555 1_555
C13 C12 1_555 1_555
H22 C13 1_555 1_555
C14 C13 1_555 1_555
H23 C14 1_555 1_555
C15 C14 1_555 1_555
H24 C15 1_555 1_555
C16 O1 1_555 1_555
I2E I1 1_555 1_555
O1B Cs1 1_555 1_555
C1B O1B 1_555 1_555
H1B C1B 1_555 1_555
H2B C1B 1_555 1_555
C2B C1B 1_555 1_555
H3B C2B 1_555 1_555
H4B C2B 1_555 1_555
O2B Cs1 1_555 1_555
C3B O2B 1_555 1_555
H5B C3B 1_555 1_555
H6B C3B 1_555 1_555
C4B C3B 1_555 1_555
H7B C4B 1_555 1_555
H8B C4B 1_555 1_555
O3B Cs1 1_555 1_555
C5B O3B 1_555 1_555
H9B C5B 1_555 1_555
H10B C5B 1_555 1_555
C6B C5B 1_555 1_555
H11B C6B 1_555 1_555
H12B C6B 1_555 1_555
O4B Cs1 1_555 1_555
C7B O4B 1_555 1_555
H13B C7B 1_555 1_555
H14B C7B 1_555 1_555
C8B C7B 1_555 1_555
H15B C8B 1_555 1_555
H16B C8B 1_555 1_555
O5B Cs1 1_555 1_555
C9B O5B 1_555 1_555
H17B C9B 1_555 1_555
H18B C9B 1_555 1_555
C10B C9B 1_555 1_555
H19B C10B 1_555 1_555
H20B C10B 1_555 1_555
O6B Cs1 1_555 1_555
C11B O6B 1_555 1_555
C12B C11B 1_555 1_555
H21B C12B 1_555 1_555
C13B C12B 1_555 1_555
H22B C13B 1_555 1_555
C14B C13B 1_555 1_555
H23B C14B 1_555 1_555
C15B C14B 1_555 1_555
H24B C15B 1_555 1_555
C16B O1B 1_555 1_555
C2 O2 1_555 1_555
C4 O3 1_555 1_555
C6 O4 1_555 1_555
C8 O5 1_555 1_555
C10 O6 1_555 1_555
C11 C16 1_555 1_555
C15 C16 1_555 1_555
C2B O2B 1_555 1_555
C4B O3B 1_555 1_555
C6B O4B 1_555 1_555
C8B O5B 1_555 1_555
C10B O6B 1_555 1_555
C11B C16B 1_555 1_555
C15B C16B 1_555 1_555

#END
