
#######################################################################
#
#                 Cambridge Crystallographic Data Centre
#                                CCDC 
#
#######################################################################
#
# If this CIF has been generated from an entry in the Cambridge 
# Structural Database, then it will include bibliographic, chemical, 
# crystal, experimental, refinement or atomic coordinate data resulting 
# from the CCDC's data processing and validation procedures.
#
#######################################################################

data_GEQLIA
_chemical_formula_moiety         'C23 H21 N1 O2 S1'
_chemical_name_systematic        
3-((4-methylphenyl)sulfonyl)-1-phenyl-1a,2,3,7b-tetrahydro-1H-cyclopropa[c]quinoline
_symmetry_cell_setting           monoclinic
_symmetry_space_group_name_H-M   'P 21'
_symmetry_Int_Tables_number      4
_space_group_name_Hall           'P 2yb'
loop_
_symmetry_equiv_pos_site_id
_symmetry_equiv_pos_as_xyz
1 x,y,z
2 -x,1/2+y,-z
_cell_length_a                   15.8393(8)
_cell_length_b                   6.4682(3)
_cell_length_c                   19.5503(9)
_cell_angle_alpha                90
_cell_angle_beta                 108.222(3)
_cell_angle_gamma                90
_cell_volume                     1902.52
_cell_formula_units_Z            4
loop_
_atom_site_label
_atom_site_type_symbol
_atom_site_fract_x
_atom_site_fract_y
_atom_site_fract_z
S1 S 0.8148(2) 0.8487(6) 0.5408(2)
C1 C 0.7188(9) 1.198(2) 0.5084(8)
O1 O 0.8653(6) 0.9654(16) 0.6025(5)
N1 N 0.7185(7) 0.9634(17) 0.5104(6)
C2 C 0.8707(8) 0.872(2) 0.4753(7)
C3 C 0.6368(8) 0.868(2) 0.4692(7)
C4 C 0.5844(9) 0.959(2) 0.4064(8)
C5 C 0.9154(9) 1.047(2) 0.4704(8)
C6 C 0.6080(9) 1.157(2) 0.3767(8)
C7 C 0.8632(9) 0.705(2) 0.4273(8)
C8 C 0.5273(9) 0.601(2) 0.4586(8)
C9 C 0.6091(9) 0.688(2) 0.4978(8)
C10 C 0.6829(9) 1.282(2) 0.4327(8)
C11 C 0.9486(9) 0.906(2) 0.3685(7)
C12 C 0.5019(10) 0.867(2) 0.3682(8)
C13 C 0.9535(9) 1.069(2) 0.4160(8)
C14 C 0.9050(10) 0.728(3) 0.3732(8)
C15 C 0.4748(10) 0.683(2) 0.3954(8)
C16 C 0.9938(11) 0.924(3) 0.3076(10)
O2 O 0.7968(6) 0.6342(15) 0.5478(5)
C17 C 0.6766(10) 1.499(3) 0.2949(8)
C18 C 0.7013(9) 1.171(2) 0.3677(8)
C19 C 0.7111(9) 1.304(3) 0.3079(8)
C20 C 0.7597(10) 1.222(3) 0.2659(8)
C21 C 0.7455(11) 1.539(3) 0.2014(9)
C22 C 0.6919(11) 1.636(3) 0.2416(10)
C23 C 0.7763(11) 1.352(3) 0.2113(10)
S2 S 0.1783(2) 0.4164(6) -0.04410(19)
O3 O 0.1231(6) 0.5394(15) -0.1025(5)
O4 O 0.1966(6) 0.2077(15) -0.0542(5)
N2 N 0.2744(7) 0.5355(17) -0.0159(6)
C24 C 0.3125(9) 0.852(2) 0.0637(7)
C25 C 0.3560(8) 0.439(2) 0.0249(7)
C26 C 0.0805(9) 0.604(2) 0.0334(7)
C27 C 0.2944(9) 0.747(2) 0.1294(8)
C28 C 0.2906(9) 0.893(3) 0.1901(8)
C29 C 0.2729(9) 0.768(2) -0.0118(7)
C30 C 0.1281(8) 0.426(2) 0.0246(7)
C31 C 0.3842(9) 0.265(2) -0.0057(7)
C32 C 0.1034(9) 0.267(2) 0.1289(8)
C33 C 0.3881(9) 0.725(2) 0.1173(8)
C34 C 0.0563(9) 0.444(2) 0.1363(8)
C35 C 0.4088(9) 0.526(2) 0.0883(8)
C36 C 0.1396(9) 0.257(2) 0.0722(8)
C37 C 0.4881(10) 0.434(3) 0.1255(8)
C38 C 0.0473(10) 0.606(3) 0.0905(8)
C39 C 0.4653(9) 0.171(2) 0.0335(8)
C40 C 0.5173(10) 0.250(3) 0.0993(9)
C41 C 0.3332(10) 1.081(3) 0.2017(9)
C42 C 0.2447(10) 0.823(2) 0.2375(8)
C43 C 0.2745(11) 1.149(3) 0.2993(9)
C44 C 0.0163(11) 0.447(3) 0.2004(9)
C45 C 0.3271(11) 1.221(3) 0.2552(9)
C46 C 0.2391(11) 0.962(3) 0.2943(10)
loop_
_geom_bond_atom_site_label_1
_geom_bond_atom_site_label_2
_geom_bond_site_symmetry_1
_geom_bond_site_symmetry_2
S1 O1 1_555 1_555
C1 N1 1_555 1_555
N1 S1 1_555 1_555
C2 S1 1_555 1_555
C3 N1 1_555 1_555
C4 C3 1_555 1_555
C5 C2 1_555 1_555
C6 C4 1_555 1_555
C7 C2 1_555 1_555
C8 C9 1_555 1_555
C9 C3 1_555 1_555
C10 C1 1_555 1_555
C11 C13 1_555 1_555
C12 C4 1_555 1_555
C13 C5 1_555 1_555
C14 C7 1_555 1_555
C15 C8 1_555 1_555
C16 C11 1_555 1_555
O2 S1 1_555 1_555
C17 C19 1_555 1_555
C18 C6 1_555 1_555
C19 C18 1_555 1_555
C20 C19 1_555 1_555
C21 C22 1_555 1_555
C22 C17 1_555 1_555
C23 C20 1_555 1_555
S2 O3 1_555 1_555
O4 S2 1_555 1_555
N2 S2 1_555 1_555
C24 C27 1_555 1_555
C25 N2 1_555 1_555
C26 C30 1_555 1_555
C27 C28 1_555 1_555
C28 C41 1_555 1_555
C29 N2 1_555 1_555
C30 S2 1_555 1_555
C31 C25 1_555 1_555
C32 C34 1_555 1_555
C33 C24 1_555 1_555
C34 C38 1_555 1_555
C35 C25 1_555 1_555
C36 C30 1_555 1_555
C37 C35 1_555 1_555
C38 C26 1_555 1_555
C39 C31 1_555 1_555
C40 C37 1_555 1_555
C41 C45 1_555 1_555
C42 C28 1_555 1_555
C43 C45 1_555 1_555
C44 C34 1_555 1_555
C46 C42 1_555 1_555
C6 C10 1_555 1_555
C10 C18 1_555 1_555
C11 C14 1_555 1_555
C12 C15 1_555 1_555
C21 C23 1_555 1_555
C24 C29 1_555 1_555
C27 C33 1_555 1_555
C32 C36 1_555 1_555
C33 C35 1_555 1_555
C39 C40 1_555 1_555
C43 C46 1_555 1_555

#END
