
#######################################################################
#
#                 Cambridge Crystallographic Data Centre
#                                CCDC 
#
#######################################################################
#
# If this CIF has been generated from an entry in the Cambridge 
# Structural Database, then it will include bibliographic, chemical, 
# crystal, experimental, refinement or atomic coordinate data resulting 
# from the CCDC's data processing and validation procedures.
#
#######################################################################

data_GEQRIG
_chemical_formula_moiety         'C20 H19 Br1 O2'
_chemical_name_systematic        
2-[(2-bromophenyl)methyl]-2-methyl-5-phenylcyclohexane-1,3-dione
_symmetry_cell_setting           monoclinic
_symmetry_space_group_name_H-M   'P 21/c'
_symmetry_Int_Tables_number      14
_space_group_name_Hall           '-P 2ybc'
loop_
_symmetry_equiv_pos_site_id
_symmetry_equiv_pos_as_xyz
1 x,y,z
2 -x,1/2+y,1/2-z
3 -x,-y,-z
4 x,1/2-y,1/2+z
_cell_length_a                   13.925(10)
_cell_length_b                   10.932(9)
_cell_length_c                   12.059(9)
_cell_angle_alpha                90
_cell_angle_beta                 106.14(2)
_cell_angle_gamma                90
_cell_volume                     1763.36
_cell_formula_units_Z            4
loop_
_atom_site_label
_atom_site_type_symbol
_atom_site_fract_x
_atom_site_fract_y
_atom_site_fract_z
Br1 Br 0.16687(7) 0.21496(12) 0.70076(9)
C1 C 0.7666(7) 0.2243(9) 0.8425(7)
H1 H 0.7159 0.1921 0.8703
C2 C 0.8635(7) 0.1840(10) 0.8869(9)
H2 H 0.8774 0.1244 0.9442
C3 C 0.9379(8) 0.2292(10) 0.8493(10)
H3 H 1.0031 0.2024 0.8810
C4 C 0.9167(7) 0.3160(11) 0.7627(10)
H4 H 0.9678 0.3455 0.7341
C5 C 0.8225(6) 0.3588(9) 0.7190(8)
H5 H 0.8101 0.4198 0.6631
C6 C 0.7443(5) 0.3126(6) 0.7566(6)
C7 C 0.6388(4) 0.3577(6) 0.7036(5)
H6 H 0.6434 0.4415 0.6765
C8 C 0.5851(5) 0.2791(6) 0.5964(5)
H7 H 0.6246 0.2788 0.5417
H8 H 0.5793 0.1954 0.6204
C9 C 0.4837(5) 0.3287(6) 0.5397(5)
C10 C 0.4126(5) 0.3473(6) 0.6161(5)
C11 C 0.4726(5) 0.4112(6) 0.7288(5)
C12 C 0.5737(5) 0.3615(6) 0.7867(5)
H9 H 0.5672 0.2795 0.8147
H10 H 0.6056 0.4123 0.8526
C13 C 0.3824(5) 0.2180(6) 0.6573(5)
H11 H 0.4417 0.1671 0.6788
H12 H 0.3605 0.2306 0.7261
C14 C 0.3225(6) 0.4214(7) 0.5538(6)
H13 H 0.3438 0.4992 0.5323
H14 H 0.2803 0.4338 0.6036
H15 H 0.2859 0.3785 0.4857
C15 C 0.3025(5) 0.1498(6) 0.5714(5)
C16 C 0.3240(6) 0.0892(6) 0.4789(6)
H16 H 0.3878 0.0962 0.4695
C17 C 0.2542(6) 0.0196(7) 0.4015(6)
H17 H 0.2714 -0.0185 0.3408
C18 C 0.1629(7) 0.0064(9) 0.4127(8)
H18 H 0.1157 -0.0407 0.3603
C19 C 0.1386(7) 0.0642(9) 0.5043(8)
H19 H 0.0754 0.0537 0.5148
C20 C 0.2066(5) 0.1353(7) 0.5775(6)
O1 O 0.4371(4) 0.4967(5) 0.7669(5)
O2 O 0.4574(4) 0.3571(5) 0.4376(4)
loop_
_geom_bond_atom_site_label_1
_geom_bond_atom_site_label_2
_geom_bond_site_symmetry_1
_geom_bond_site_symmetry_2
Br1 C20 1_555 1_555
C1 H1 1_555 1_555
C2 C1 1_555 1_555
H2 C2 1_555 1_555
C3 C2 1_555 1_555
H3 C3 1_555 1_555
C4 C3 1_555 1_555
H4 C4 1_555 1_555
C5 C4 1_555 1_555
H5 C5 1_555 1_555
C6 C1 1_555 1_555
C7 C6 1_555 1_555
H6 C7 1_555 1_555
C8 C7 1_555 1_555
H7 C8 1_555 1_555
H8 C8 1_555 1_555
C9 C8 1_555 1_555
C10 C9 1_555 1_555
C11 C10 1_555 1_555
C12 C7 1_555 1_555
H9 C12 1_555 1_555
H10 C12 1_555 1_555
C13 C10 1_555 1_555
H11 C13 1_555 1_555
H12 C13 1_555 1_555
C14 C10 1_555 1_555
H13 C14 1_555 1_555
H14 C14 1_555 1_555
H15 C14 1_555 1_555
C15 C13 1_555 1_555
C16 C15 1_555 1_555
H16 C16 1_555 1_555
C17 C16 1_555 1_555
H17 C17 1_555 1_555
C18 C17 1_555 1_555
H18 C18 1_555 1_555
C19 C18 1_555 1_555
H19 C19 1_555 1_555
C20 C15 1_555 1_555
O1 C11 1_555 1_555
O2 C9 1_555 1_555
C5 C6 1_555 1_555
C11 C12 1_555 1_555
C19 C20 1_555 1_555

#END
