
#######################################################################
#
#                 Cambridge Crystallographic Data Centre
#                                CCDC 
#
#######################################################################
#
# If this CIF has been generated from an entry in the Cambridge 
# Structural Database, then it will include bibliographic, chemical, 
# crystal, experimental, refinement or atomic coordinate data resulting 
# from the CCDC's data processing and validation procedures.
#
#######################################################################

data_GEQRUS
_chemical_formula_moiety         'C15 H13 N1 O2'
_chemical_name_systematic        
9-methyl-8,11-dioxo-5,6,7,8,9,10-hexahydro-5,9-methanobenzo[8]annulene-3-carbonitrile
_symmetry_cell_setting           monoclinic
_symmetry_space_group_name_H-M   'P 21'
_symmetry_Int_Tables_number      4
_space_group_name_Hall           'P 2yb'
loop_
_symmetry_equiv_pos_site_id
_symmetry_equiv_pos_as_xyz
1 x,y,z
2 -x,1/2+y,-z
_cell_length_a                   7.1098(7)
_cell_length_b                   11.3290(12)
_cell_length_c                   7.2326(7)
_cell_angle_alpha                90
_cell_angle_beta                 95.131(5)
_cell_angle_gamma                90
_cell_volume                     580.229
_cell_formula_units_Z            2
loop_
_atom_site_label
_atom_site_type_symbol
_atom_site_fract_x
_atom_site_fract_y
_atom_site_fract_z
C1 C -0.0049(3) 0.4233(2) -0.1036(3)
C2 C 0.1670(3) 0.4743(2) -0.0172(3)
C3 C 0.2078(3) 0.5932(2) -0.0414(3)
H1 H 0.1248 0.6414 -0.1137
C4 C 0.3746(3) 0.63817(19) 0.0444(3)
H2 H 0.4026 0.7176 0.0295
C5 C 0.5018(3) 0.56713(19) 0.1526(3)
C6 C 0.4547(3) 0.44925(19) 0.1815(3)
C7 C 0.2886(3) 0.40276(19) 0.0958(3)
H3 H 0.2583 0.3240 0.1138
C8 C 0.5748(3) 0.37423(19) 0.3204(3)
H4 H 0.5731 0.2919 0.2785
C9 C 0.7761(3) 0.4182(2) 0.3460(3)
C10 C 0.7917(3) 0.54858(18) 0.3986(3)
C11 C 0.6899(3) 0.61671(19) 0.2302(3)
H5 H 0.6707 0.6976 0.2681
H6 H 0.7734 0.6186 0.1313
C12 C 0.9955(3) 0.5887(2) 0.4336(3)
H7 H 1.0561 0.5458 0.5368
H8 H 0.9988 0.6717 0.4612
H9 H 1.0604 0.5742 0.3251
C13 C 0.6835(3) 0.5721(2) 0.5711(3)
C14 C 0.4999(3) 0.5079(2) 0.5861(3)
H10 H 0.3992 0.5527 0.5195
H11 H 0.4747 0.5059 0.7157
C15 C 0.4930(3) 0.3823(2) 0.5121(3)
H12 H 0.3632 0.3549 0.5002
H13 H 0.5649 0.3311 0.5997
N1 N -0.1394(3) 0.3806(2) -0.1715(4)
O1 O 0.9114(2) 0.35666(15) 0.3260(2)
O2 O 0.7431(2) 0.64310(15) 0.6865(2)
loop_
_geom_bond_atom_site_label_1
_geom_bond_atom_site_label_2
_geom_bond_site_symmetry_1
_geom_bond_site_symmetry_2
C1 C2 1_555 1_555
C2 C3 1_555 1_555
C3 H1 1_555 1_555
C4 C3 1_555 1_555
H2 C4 1_555 1_555
C5 C4 1_555 1_555
C6 C5 1_555 1_555
C7 C2 1_555 1_555
H3 C7 1_555 1_555
C8 C6 1_555 1_555
H4 C8 1_555 1_555
C9 C8 1_555 1_555
C10 C9 1_555 1_555
C11 C5 1_555 1_555
H5 C11 1_555 1_555
H6 C11 1_555 1_555
C12 C10 1_555 1_555
H7 C12 1_555 1_555
H8 C12 1_555 1_555
H9 C12 1_555 1_555
C13 C10 1_555 1_555
C14 C13 1_555 1_555
H10 C14 1_555 1_555
H11 C14 1_555 1_555
C15 C8 1_555 1_555
H12 C15 1_555 1_555
H13 C15 1_555 1_555
N1 C1 1_555 1_555
O1 C9 1_555 1_555
O2 C13 1_555 1_555
C6 C7 1_555 1_555
C10 C11 1_555 1_555
C14 C15 1_555 1_555

#END
