
#######################################################################
#
#                 Cambridge Crystallographic Data Centre
#                                CCDC 
#
#######################################################################
#
# If this CIF has been generated from an entry in the Cambridge 
# Structural Database, then it will include bibliographic, chemical, 
# crystal, experimental, refinement or atomic coordinate data resulting 
# from the CCDC's data processing and validation procedures.
#
#######################################################################

data_GEQSIH
_chemical_formula_moiety         'C20 H18 O2'
_chemical_name_systematic        
9-methyl-6-phenyl-6,7,9,10-tetrahydro-5,9-methanobenzo[8]annulene-8,11(5H)-dione
_symmetry_cell_setting           trigonal
_symmetry_space_group_name_H-M   'P 32'
_symmetry_Int_Tables_number      145
_space_group_name_Hall           'P 32'
loop_
_symmetry_equiv_pos_site_id
_symmetry_equiv_pos_as_xyz
1 x,y,z
2 -y,x-y,2/3+z
3 -x+y,-x,1/3+z
_cell_length_a                   8.9278(2)
_cell_length_b                   8.9278(2)
_cell_length_c                   16.4399(5)
_cell_angle_alpha                90
_cell_angle_beta                 90
_cell_angle_gamma                120
_cell_volume                     1134.8
_cell_formula_units_Z            3
loop_
_atom_site_label
_atom_site_type_symbol
_atom_site_fract_x
_atom_site_fract_y
_atom_site_fract_z
C1 C 0.7349(3) 0.8071(3) 0.44329(12)
C2 C 0.8267(3) 0.9515(3) 0.39390(14)
H1 H 0.7678 0.9957 0.3650
C3 C 1.0049(3) 1.0302(3) 0.38728(14)
H2 H 1.0647 1.1256 0.3535
C4 C 1.0942(3) 0.9669(3) 0.43091(15)
H3 H 1.2139 1.0203 0.4268
C5 C 1.0044(3) 0.8236(3) 0.48059(14)
H4 H 1.0646 0.7821 0.5104
C6 C 0.8251(3) 0.7415(3) 0.48630(12)
C7 C 0.7306(2) 0.5779(3) 0.53761(12)
H5 H 0.7973 0.5911 0.5871
C8 C 0.5542(3) 0.5475(2) 0.56045(13)
C9 C 0.4466(3) 0.5422(3) 0.48729(13)
C10 C 0.5414(3) 0.7293(3) 0.45188(13)
H6 H 0.4931 0.7277 0.3988
H7 H 0.5189 0.8032 0.4870
C11 C 0.2607(3) 0.4870(3) 0.50997(16)
H8 H 0.2037 0.3701 0.5295
H9 H 0.2010 0.4943 0.4629
H10 H 0.2603 0.5619 0.5517
C12 C 0.4520(2) 0.4279(2) 0.41806(12)
C13 C 0.5994(3) 0.3919(3) 0.41152(12)
H11 H 0.6754 0.4641 0.3684
H12 H 0.5519 0.2726 0.3944
C14 C 0.7108(2) 0.4199(3) 0.48775(12)
H13 H 0.8267 0.4517 0.4683
C15 C 0.6492(2) 0.2581(2) 0.53859(12)
C16 C 0.4816(2) 0.1632(3) 0.56981(13)
H14 H 0.4013 0.1977 0.5583
C17 C 0.4334(3) 0.0183(3) 0.61774(14)
H15 H 0.3217 -0.0429 0.6385
C18 C 0.5511(3) -0.0356(3) 0.63485(14)
H16 H 0.5190 -0.1321 0.6674
C19 C 0.7165(3) 0.0550(3) 0.60326(15)
H17 H 0.7957 0.0188 0.6141
C20 C 0.7641(3) 0.2000(3) 0.55533(13)
H18 H 0.8754 0.2596 0.5340
O1 O 0.50318(19) 0.53281(19) 0.62966(9)
O2 O 0.34402(19) 0.37931(19) 0.36498(10)
loop_
_geom_bond_atom_site_label_1
_geom_bond_atom_site_label_2
_geom_bond_site_symmetry_1
_geom_bond_site_symmetry_2
C1 C2 1_555 1_555
C2 H1 1_555 1_555
C3 C2 1_555 1_555
H2 C3 1_555 1_555
C4 C3 1_555 1_555
H3 C4 1_555 1_555
C5 C4 1_555 1_555
H4 C5 1_555 1_555
C6 C1 1_555 1_555
C7 C6 1_555 1_555
H5 C7 1_555 1_555
C8 C7 1_555 1_555
C9 C8 1_555 1_555
C10 C1 1_555 1_555
H6 C10 1_555 1_555
H7 C10 1_555 1_555
C11 C9 1_555 1_555
H8 C11 1_555 1_555
H9 C11 1_555 1_555
H10 C11 1_555 1_555
C12 C9 1_555 1_555
C13 C12 1_555 1_555
H11 C13 1_555 1_555
H12 C13 1_555 1_555
C14 C7 1_555 1_555
H13 C14 1_555 1_555
C15 C14 1_555 1_555
C16 C15 1_555 1_555
H14 C16 1_555 1_555
C17 C16 1_555 1_555
H15 C17 1_555 1_555
C18 C17 1_555 1_555
H16 C18 1_555 1_555
C19 C18 1_555 1_555
H17 C19 1_555 1_555
C20 C15 1_555 1_555
H18 C20 1_555 1_555
O1 C8 1_555 1_555
O2 C12 1_555 1_555
C5 C6 1_555 1_555
C9 C10 1_555 1_555
C13 C14 1_555 1_555
C19 C20 1_555 1_555

#END
