
#######################################################################
#
#                 Cambridge Crystallographic Data Centre
#                                CCDC 
#
#######################################################################
#
# If this CIF has been generated from an entry in the Cambridge 
# Structural Database, then it will include bibliographic, chemical, 
# crystal, experimental, refinement or atomic coordinate data resulting 
# from the CCDC's data processing and validation procedures.
#
#######################################################################

data_GEQSAZ
_chemical_formula_moiety         'C16 H18 O3'
_chemical_name_systematic        
3-methoxy-2,9-dimethyl-6,7,9,10-tetrahydro-5,9-methanobenzo[8]annulene-8,11(5H)-dione
_symmetry_cell_setting           orthorhombic
_symmetry_space_group_name_H-M   'P 21 21 21'
_symmetry_Int_Tables_number      19
_space_group_name_Hall           'P 2ac 2ab'
loop_
_symmetry_equiv_pos_site_id
_symmetry_equiv_pos_as_xyz
1 x,y,z
2 1/2-x,-y,1/2+z
3 -x,1/2+y,1/2-z
4 1/2+x,1/2-y,-z
_cell_length_a                   9.1529(3)
_cell_length_b                   11.1691(4)
_cell_length_c                   12.8208(5)
_cell_angle_alpha                90
_cell_angle_beta                 90
_cell_angle_gamma                90
_cell_volume                     1310.67
_cell_formula_units_Z            4
loop_
_atom_site_label
_atom_site_type_symbol
_atom_site_fract_x
_atom_site_fract_y
_atom_site_fract_z
C1 C 0.3960(2) 0.15373(19) 0.38265(14)
H1 H 0.3815 0.2388 0.3805
H2 H 0.3789 0.1205 0.3147
H3 H 0.4945 0.1368 0.4038
C2 C 0.2963(2) 0.14861(16) 0.55475(13)
C3 C 0.3966(2) 0.23298(16) 0.58892(14)
H4 H 0.4694 0.2598 0.5441
C4 C 0.3886(2) 0.27790(16) 0.69051(14)
C5 C 0.2808(2) 0.23849(16) 0.75818(14)
C6 C 0.1821(2) 0.15218(16) 0.72199(14)
H5 H 0.1096 0.1250 0.7670
C7 C 0.1877(2) 0.10554(15) 0.62189(14)
C8 C 0.0826(2) 0.01082(18) 0.58662(15)
H6 H 0.0236 -0.0143 0.6446
H7 H 0.1360 -0.0565 0.5599
H8 H 0.0208 0.0426 0.5328
C9 C 0.2726(2) 0.27806(17) 0.87109(15)
H9 H 0.2827 0.2078 0.9150
H10 H 0.1762 0.3111 0.8835
C10 C 0.3889(2) 0.37268(17) 0.90652(14)
C11 C 0.3272(2) 0.49766(17) 0.88178(15)
C12 C 0.3089(2) 0.52804(17) 0.76809(15)
H11 H 0.2869 0.6126 0.7612
H12 H 0.2273 0.4832 0.7398
C13 C 0.4465(2) 0.49907(17) 0.70594(15)
H13 H 0.5232 0.5547 0.7252
H14 H 0.4266 0.5095 0.6322
C14 C 0.4997(2) 0.37016(16) 0.72536(14)
H15 H 0.5915 0.3572 0.6877
C15 C 0.5253(2) 0.35238(16) 0.84073(15)
C16 C 0.4190(2) 0.3596(2) 1.02284(15)
H16 H 0.4537 0.2802 1.0370
H17 H 0.3306 0.3737 1.0612
H18 H 0.4917 0.4168 1.0436
O1 O 0.29653(16) 0.10168(12) 0.45563(10)
O2 O 0.64114(16) 0.32209(15) 0.87732(13)
O3 O 0.29361(18) 0.56610(14) 0.95078(11)
loop_
_geom_bond_atom_site_label_1
_geom_bond_atom_site_label_2
_geom_bond_site_symmetry_1
_geom_bond_site_symmetry_2
C1 H1 1_555 1_555
H2 C1 1_555 1_555
H3 C1 1_555 1_555
C2 C3 1_555 1_555
C3 H4 1_555 1_555
C4 C3 1_555 1_555
C5 C4 1_555 1_555
C6 C5 1_555 1_555
H5 C6 1_555 1_555
C7 C2 1_555 1_555
C8 C7 1_555 1_555
H6 C8 1_555 1_555
H7 C8 1_555 1_555
H8 C8 1_555 1_555
C9 C5 1_555 1_555
H9 C9 1_555 1_555
H10 C9 1_555 1_555
C10 C9 1_555 1_555
C11 C10 1_555 1_555
C12 C11 1_555 1_555
H11 C12 1_555 1_555
H12 C12 1_555 1_555
C13 C12 1_555 1_555
H13 C13 1_555 1_555
H14 C13 1_555 1_555
C14 C4 1_555 1_555
H15 C14 1_555 1_555
C15 C10 1_555 1_555
C16 C10 1_555 1_555
H16 C16 1_555 1_555
H17 C16 1_555 1_555
H18 C16 1_555 1_555
O1 C1 1_555 1_555
O2 C15 1_555 1_555
O3 C11 1_555 1_555
C2 O1 1_555 1_555
C6 C7 1_555 1_555
C13 C14 1_555 1_555
C14 C15 1_555 1_555

#END
