
#######################################################################
#
#                 Cambridge Crystallographic Data Centre
#                                CCDC 
#
#######################################################################
#
# If this CIF has been generated from an entry in the Cambridge 
# Structural Database, then it will include bibliographic, chemical, 
# crystal, experimental, refinement or atomic coordinate data resulting 
# from the CCDC's data processing and validation procedures.
#
#######################################################################

data_GEQXOP
_chemical_formula_moiety         'C8 H6 Cl1 N1 O3 S2'
_chemical_name_systematic        
(E)-3-(4-Chloro-5H-1,2,3-dithiazol-5-ylidene)-5,6-dihydro-6-methyl-2H-pyran-2,4-dione
_symmetry_cell_setting           monoclinic
_symmetry_space_group_name_H-M   'P 21/n'
_symmetry_Int_Tables_number      14
_space_group_name_Hall           '-P 2yn'
loop_
_symmetry_equiv_pos_site_id
_symmetry_equiv_pos_as_xyz
1 x,y,z
2 1/2-x,1/2+y,1/2-z
3 -x,-y,-z
4 1/2+x,1/2-y,1/2+z
_cell_length_a                   11.718(2)
_cell_length_b                   7.4999(15)
_cell_length_c                   11.781(2)
_cell_angle_alpha                90
_cell_angle_beta                 101.32(3)
_cell_angle_gamma                90
_cell_volume                     1015.22
_exptl_crystal_colour            red
_chemical_melting_point          '155-160 deg.C(dec.)'
_cell_formula_units_Z            4
_exptl_crystal_recrystallization_method dichloromethane
loop_
_atom_site_label
_atom_site_type_symbol
_atom_site_fract_x
_atom_site_fract_y
_atom_site_fract_z
Cl1 Cl 0.5967(1) 0.0671(1) 0.1276(1)
S1 S 0.7210(1) 0.1834(1) 0.4848(1)
S2 S 0.8540(1) 0.0807(1) 0.4133(1)
O1 O 0.5472(2) 0.2570(3) 0.5527(2)
O2 O 0.4592(1) 0.3687(3) 0.1615(2)
O3 O 0.3177(1) 0.3226(3) 0.2529(2)
N1 N 0.7823(2) 0.0609(3) 0.2814(2)
C1 C 0.6755(2) 0.1137(3) 0.2624(2)
C2 C 0.6237(2) 0.1880(3) 0.3541(2)
C3 C 0.1508(2) 0.2996(5) 0.3367(3)
C4 C 0.2758(2) 0.2435(3) 0.3503(2)
C5 C 0.3506(2) 0.3061(4) 0.4600(2)
C6 C 0.4759(2) 0.2691(3) 0.4611(2)
C7 C 0.5104(2) 0.2474(3) 0.3513(2)
C8 C 0.4314(2) 0.3129(3) 0.2484(2)
H1 H 0.1140(3) 0.2390(4) 0.3900(3)
H2 H 0.1100(3) 0.2640(5) 0.2690(4)
H3 H 0.1460(3) 0.4220(4) 0.3490(3)
H4 H 0.2850(2) 0.1070(3) 0.3420(2)
H5 H 0.3300(3) 0.2650(4) 0.5220(3)
H6 H 0.3390(3) 0.4220(4) 0.4650(3)
loop_
_geom_bond_atom_site_label_1
_geom_bond_atom_site_label_2
_geom_bond_site_symmetry_1
_geom_bond_site_symmetry_2
Cl1 C1 1_555 1_555
S1 S2 1_555 1_555
S2 N1 1_555 1_555
O1 C6 1_555 1_555
O2 C8 1_555 1_555
O3 C4 1_555 1_555
N1 C1 1_555 1_555
C1 C2 1_555 1_555
C2 S1 1_555 1_555
C3 C4 1_555 1_555
C4 C5 1_555 1_555
C5 C6 1_555 1_555
C6 C7 1_555 1_555
C7 C2 1_555 1_555
C8 O3 1_555 1_555
H1 C3 1_555 1_555
H2 C3 1_555 1_555
H3 C3 1_555 1_555
H4 C4 1_555 1_555
H5 C5 1_555 1_555
H6 C5 1_555 1_555
C7 C8 1_555 1_555

#END
