
#######################################################################
#
#                 Cambridge Crystallographic Data Centre
#                                CCDC 
#
#######################################################################
#
# If this CIF has been generated from an entry in the Cambridge 
# Structural Database, then it will include bibliographic, chemical, 
# crystal, experimental, refinement or atomic coordinate data resulting 
# from the CCDC's data processing and validation procedures.
#
#######################################################################

data_GERDEP
_chemical_formula_moiety         'C20 H19 Br1 O2'
_chemical_name_systematic        
2-[(2-bromophenyl)methyl]-2-methyl-5-phenylcyclohexane-1,3-dione
_symmetry_cell_setting           monoclinic
_symmetry_space_group_name_H-M   'P 21/c'
_symmetry_Int_Tables_number      14
_space_group_name_Hall           '-P 2ybc'
loop_
_symmetry_equiv_pos_site_id
_symmetry_equiv_pos_as_xyz
1 x,y,z
2 -x,1/2+y,1/2-z
3 -x,-y,-z
4 x,1/2-y,1/2+z
_cell_length_a                   13.2672(13)
_cell_length_b                   5.7843(6)
_cell_length_c                   21.786(3)
_cell_angle_alpha                90
_cell_angle_beta                 91.337(4)
_cell_angle_gamma                90
_cell_volume                     1671.43
_cell_formula_units_Z            4
loop_
_atom_site_label
_atom_site_type_symbol
_atom_site_fract_x
_atom_site_fract_y
_atom_site_fract_z
Br1 Br 0.18553(2) 0.61970(6) 0.44304(2)
C1 C 0.8030(2) 0.2947(5) 0.38273(14)
H1 H 0.7704 0.4196 0.3642
C2 C 0.9066(2) 0.2980(6) 0.39062(16)
H2 H 0.9432 0.4256 0.3777
C3 C 0.9557(2) 0.1139(6) 0.41738(16)
H3 H 1.0256 0.1159 0.4219
C4 C 0.9023(2) -0.0722(6) 0.43734(14)
H4 H 0.9357 -0.1966 0.4557
C5 C 0.7979(2) -0.0754(5) 0.43016(12)
H5 H 0.7618 -0.2016 0.4443
C6 C 0.74717(17) 0.1067(4) 0.40228(12)
C7 C 0.63295(17) 0.1019(4) 0.39610(11)
H6 H 0.6108 -0.0553 0.4058
C8 C 0.59283(18) 0.1597(5) 0.33152(12)
H7 H 0.6155 0.3131 0.3202
H8 H 0.6201 0.0504 0.3025
C9 C 0.47914(18) 0.1514(4) 0.32764(12)
C10 C 0.42084(16) 0.2851(4) 0.37710(11)
C11 C 0.47319(18) 0.2584(4) 0.44039(11)
C12 C 0.58677(17) 0.2646(5) 0.44308(12)
H9 H 0.6103 0.2209 0.4839
H10 H 0.6094 0.4212 0.4354
C13 C 0.43018(18) 0.5455(4) 0.36049(13)
H11 H 0.3989 0.6372 0.3914
H12 H 0.3973 0.5736 0.3215
H13 H 0.5001 0.5865 0.3583
C14 C 0.30906(18) 0.2035(4) 0.37983(12)
H14 H 0.3065 0.0412 0.3688
H15 H 0.2878 0.2159 0.4220
C15 C 0.23392(17) 0.3315(4) 0.33957(12)
C16 C 0.17775(17) 0.5184(5) 0.35969(12)
C17 C 0.11159(19) 0.6389(5) 0.32105(14)
H16 H 0.0765 0.7658 0.3357
C18 C 0.0982(2) 0.5699(6) 0.26128(15)
H17 H 0.0541 0.6500 0.2352
C19 C 0.1501(2) 0.3822(6) 0.23993(14)
H18 H 0.1406 0.3341 0.1995
C20 C 0.2163(2) 0.2649(6) 0.27844(13)
H19 H 0.2504 0.1373 0.2633
O1 O 0.43539(14) 0.0451(3) 0.28779(9)
O2 O 0.42561(13) 0.2396(3) 0.48699(8)
loop_
_geom_bond_atom_site_label_1
_geom_bond_atom_site_label_2
_geom_bond_site_symmetry_1
_geom_bond_site_symmetry_2
Br1 C16 1_555 1_555
C1 H1 1_555 1_555
C2 C1 1_555 1_555
H2 C2 1_555 1_555
C3 C2 1_555 1_555
H3 C3 1_555 1_555
C4 C3 1_555 1_555
H4 C4 1_555 1_555
C5 C4 1_555 1_555
H5 C5 1_555 1_555
C6 C1 1_555 1_555
C7 C6 1_555 1_555
H6 C7 1_555 1_555
C8 C7 1_555 1_555
H7 C8 1_555 1_555
H8 C8 1_555 1_555
C9 C8 1_555 1_555
C10 C9 1_555 1_555
C11 C10 1_555 1_555
C12 C7 1_555 1_555
H9 C12 1_555 1_555
H10 C12 1_555 1_555
C13 C10 1_555 1_555
H11 C13 1_555 1_555
H12 C13 1_555 1_555
H13 C13 1_555 1_555
C14 C10 1_555 1_555
H14 C14 1_555 1_555
H15 C14 1_555 1_555
C15 C14 1_555 1_555
C16 C15 1_555 1_555
C17 C16 1_555 1_555
H16 C17 1_555 1_555
C18 C17 1_555 1_555
H17 C18 1_555 1_555
C19 C18 1_555 1_555
H18 C19 1_555 1_555
C20 C15 1_555 1_555
H19 C20 1_555 1_555
O1 C9 1_555 1_555
O2 C11 1_555 1_555
C5 C6 1_555 1_555
C11 C12 1_555 1_555
C19 C20 1_555 1_555

#END
