
#######################################################################
#
#                 Cambridge Crystallographic Data Centre
#                                CCDC 
#
#######################################################################
#
# If this CIF has been generated from an entry in the Cambridge 
# Structural Database, then it will include bibliographic, chemical, 
# crystal, experimental, refinement or atomic coordinate data resulting 
# from the CCDC's data processing and validation procedures.
#
#######################################################################

data_GERFOA
_chemical_formula_moiety         'C14 H16 O6'
_chemical_name_systematic        
'2-(1,3-Dimethoxy-1,3-dioxopropan-2-yl)-4,6-dimethylbenzoic acid'
_symmetry_cell_setting           monoclinic
_symmetry_space_group_name_H-M   'P 21/c'
_symmetry_Int_Tables_number      14
_space_group_name_Hall           '-P 2ybc'
loop_
_symmetry_equiv_pos_site_id
_symmetry_equiv_pos_as_xyz
1 x,y,z
2 -x,1/2+y,1/2-z
3 -x,-y,-z
4 x,1/2-y,1/2+z
_cell_length_a                   10.8996(6)
_cell_length_b                   8.2177(4)
_cell_length_c                   15.6063(8)
_cell_angle_alpha                90
_cell_angle_beta                 104.353(3)
_cell_angle_gamma                90
_cell_volume                     1354.22
_exptl_crystal_colour            colorless
_exptl_crystal_description       needle
_cell_formula_units_Z            4
loop_
_atom_site_label
_atom_site_type_symbol
_atom_site_fract_x
_atom_site_fract_y
_atom_site_fract_z
O1 O 0.34212(18) 0.4915(3) 0.46271(12)
O2 O 0.47802(16) 0.6140(3) 0.39799(12)
H1 H 0.5364 0.5816 0.4518
O3 O 0.2694(2) 0.3595(3) 0.07530(12)
O4 O 0.2904(2) 0.2289(2) 0.20285(13)
O5 O 0.41614(18) 0.7405(2) 0.14167(15)
O6 O 0.53099(17) 0.5145(2) 0.14700(14)
C1 C 0.2585(2) 0.6291(3) 0.32740(14)
C2 C 0.25687(19) 0.5929(3) 0.23972(14)
C3 C 0.1526(2) 0.6411(3) 0.17263(14)
H2 H 0.152(3) 0.624(4) 0.1133(19)
C4 C 0.0534(2) 0.7278(3) 0.19123(17)
C5 C 0.0578(2) 0.7642(3) 0.27815(17)
H3 H -0.0081 0.8237 0.2908
C6 C 0.1577(2) 0.7151(3) 0.34775(16)
C7 C 0.3657(2) 0.5733(3) 0.40239(14)
C8 C 0.3618(2) 0.4981(3) 0.21265(15)
H4 H 0.422(2) 0.451(3) 0.2720(14)
C9 C 0.3030(2) 0.3561(3) 0.15377(16)
C10 C 0.2310(3) 0.0841(4) 0.1576(3)
H5 H 0.2275 0.0013 0.2004
H6 H 0.2796 0.0453 0.1182
H7 H 0.1467 0.1098 0.1244
C11 C 0.4371(2) 0.6009(3) 0.16352(16)
C12 C 0.6094(3) 0.5920(5) 0.0974(2)
H8 H 0.6566 0.6784 0.1319
H9 H 0.5571 0.6356 0.0436
H10 H 0.6670 0.5136 0.0835
C13 C -0.0572(3) 0.7812(4) 0.1170(2)
H11 H -0.0977 0.6873 0.0858
H12 H -0.0271 0.8502 0.0770
H13 H -0.1169 0.8401 0.1412
C14 C 0.1544(3) 0.7567(4) 0.44012(19)
H14 H 0.0988 0.8475 0.4394
H15 H 0.2382 0.7845 0.4736
H16 H 0.1242 0.6647 0.4669
loop_
_geom_bond_atom_site_label_1
_geom_bond_atom_site_label_2
_geom_bond_site_symmetry_1
_geom_bond_site_symmetry_2
O1 C7 1_555 1_555
O2 H1 1_555 1_555
O3 C9 1_555 1_555
O4 C9 1_555 1_555
O5 C11 1_555 1_555
O6 C11 1_555 1_555
C1 C2 1_555 1_555
C2 C3 1_555 1_555
C3 H2 1_555 1_555
C4 C3 1_555 1_555
C5 C4 1_555 1_555
H3 C5 1_555 1_555
C6 C1 1_555 1_555
C7 O2 1_555 1_555
C8 C2 1_555 1_555
H4 C8 1_555 1_555
C9 C8 1_555 1_555
C10 O4 1_555 1_555
H5 C10 1_555 1_555
H6 C10 1_555 1_555
H7 C10 1_555 1_555
C11 C8 1_555 1_555
C12 O6 1_555 1_555
H8 C12 1_555 1_555
H9 C12 1_555 1_555
H10 C12 1_555 1_555
C13 C4 1_555 1_555
H11 C13 1_555 1_555
H12 C13 1_555 1_555
H13 C13 1_555 1_555
C14 C6 1_555 1_555
H14 C14 1_555 1_555
H15 C14 1_555 1_555
H16 C14 1_555 1_555
C1 C7 1_555 1_555
C5 C6 1_555 1_555

#END
