
#######################################################################
#
#                 Cambridge Crystallographic Data Centre
#                                CCDC 
#
#######################################################################
#
# If this CIF has been generated from an entry in the Cambridge 
# Structural Database, then it will include bibliographic, chemical, 
# crystal, experimental, refinement or atomic coordinate data resulting 
# from the CCDC's data processing and validation procedures.
#
#######################################################################

data_GERFIU
_chemical_formula_moiety         'C14 H17 N1 O5'
_chemical_name_systematic        
'Dimethyl (2-(N-methoxyethanimidoyl)phenyl)malonate'
_symmetry_cell_setting           monoclinic
_symmetry_space_group_name_H-M   'P 21/c'
_symmetry_Int_Tables_number      14
_space_group_name_Hall           '-P 2ybc'
loop_
_symmetry_equiv_pos_site_id
_symmetry_equiv_pos_as_xyz
1 x,y,z
2 -x,1/2+y,1/2-z
3 -x,-y,-z
4 x,1/2-y,1/2+z
_cell_length_a                   12.5062(4)
_cell_length_b                   14.9297(4)
_cell_length_c                   7.8289(2)
_cell_angle_alpha                90
_cell_angle_beta                 97.847(2)
_cell_angle_gamma                90
_cell_volume                     1448.08
_exptl_crystal_colour            colorless
_exptl_crystal_description       block
_cell_formula_units_Z            4
loop_
_atom_site_label
_atom_site_type_symbol
_atom_site_fract_x
_atom_site_fract_y
_atom_site_fract_z
O1 O 0.52265(8) 0.39155(8) 0.66517(15)
O2 O 0.28128(12) 0.57283(9) 0.77351(15)
O3 O 0.16657(9) 0.45864(7) 0.72670(12)
O4 O 0.11781(10) 0.63940(8) 0.45365(16)
O5 O 0.21837(10) 0.60869(7) 0.24777(13)
N1 N 0.41122(9) 0.38994(8) 0.60191(16)
C1 C 0.27714(11) 0.35734(9) 0.37363(16)
C2 C 0.20483(10) 0.42698(8) 0.39871(15)
C3 C 0.09601(11) 0.41583(10) 0.33725(17)
H1 H 0.0461(12) 0.4644(10) 0.3573(19)
C4 C 0.05834(12) 0.33840(10) 0.25127(18)
H2 H -0.0192(14) 0.3354(12) 0.203(2)
C5 C 0.12930(14) 0.27167(10) 0.22126(18)
H3 H 0.1047(12) 0.2203(11) 0.156(2)
C6 C 0.23737(13) 0.28107(9) 0.28273(18)
H4 H 0.2866(13) 0.2350(12) 0.267(2)
C7 C 0.39303(11) 0.36040(9) 0.44838(18)
C8 C 0.47916(15) 0.32845(15) 0.3468(3)
H5 H 0.4462 0.2999 0.2429
H6 H 0.5251 0.2864 0.4145
H7 H 0.5213 0.3786 0.3180
C9 C 0.53521(17) 0.42536(16) 0.8360(2)
H8 H 0.5070 0.4852 0.8355
H9 H 0.6104 0.4260 0.8820
H10 H 0.4967 0.3878 0.9063
C10 C 0.24224(10) 0.51434(9) 0.48743(16)
H11 H 0.3125(12) 0.5224(10) 0.4764(19)
C11 C 0.23303(12) 0.51914(9) 0.67829(17)
C12 C 0.15393(19) 0.45710(14) 0.9070(2)
H12 H 0.1246 0.5132 0.9384
H13 H 0.2229 0.4476 0.9748
H14 H 0.1058 0.4094 0.9278
C13 C 0.18425(11) 0.59434(9) 0.39796(17)
C14 C 0.17642(19) 0.68715(13) 0.1515(2)
H15 H 0.2016(19) 0.7422(17) 0.212(3)
H16 H 0.2033(18) 0.6814(16) 0.046(3)
H17 H 0.098(2) 0.6818(16) 0.128(3)
loop_
_geom_bond_atom_site_label_1
_geom_bond_atom_site_label_2
_geom_bond_site_symmetry_1
_geom_bond_site_symmetry_2
O1 N1 1_555 1_555
O2 C11 1_555 1_555
O3 C11 1_555 1_555
O4 C13 1_555 1_555
O5 C13 1_555 1_555
N1 C7 1_555 1_555
C1 C2 1_555 1_555
C2 C3 1_555 1_555
C3 H1 1_555 1_555
C4 C3 1_555 1_555
H2 C4 1_555 1_555
C5 C4 1_555 1_555
H3 C5 1_555 1_555
C6 C1 1_555 1_555
H4 C6 1_555 1_555
C7 C1 1_555 1_555
C8 C7 1_555 1_555
H5 C8 1_555 1_555
H6 C8 1_555 1_555
H7 C8 1_555 1_555
C9 O1 1_555 1_555
H8 C9 1_555 1_555
H9 C9 1_555 1_555
H10 C9 1_555 1_555
C10 C2 1_555 1_555
H11 C10 1_555 1_555
C11 C10 1_555 1_555
C12 O3 1_555 1_555
H12 C12 1_555 1_555
H13 C12 1_555 1_555
H14 C12 1_555 1_555
C13 C10 1_555 1_555
C14 O5 1_555 1_555
H15 C14 1_555 1_555
H16 C14 1_555 1_555
H17 C14 1_555 1_555
C5 C6 1_555 1_555

#END
