
#######################################################################
#
#                 Cambridge Crystallographic Data Centre
#                                CCDC 
#
#######################################################################
#
# If this CIF has been generated from an entry in the Cambridge 
# Structural Database, then it will include bibliographic, chemical, 
# crystal, experimental, refinement or atomic coordinate data resulting 
# from the CCDC's data processing and validation procedures.
#
#######################################################################

data_GERPOL
_chemical_formula_moiety         'C24 H15 F3 O2'
_chemical_name_systematic        
7-methyl-4-phenyl-3-[3-(trifluoromethyl)phenyl]naphthalene-1,2-dione
_symmetry_cell_setting           orthorhombic
_symmetry_space_group_name_H-M   'P b c n'
_symmetry_Int_Tables_number      60
_space_group_name_Hall           '-P 2n 2ab'
loop_
_symmetry_equiv_pos_site_id
_symmetry_equiv_pos_as_xyz
1 x,y,z
2 1/2+x,1/2-y,-z
3 -x,y,1/2-z
4 1/2-x,1/2-y,1/2+z
5 -x,-y,-z
6 1/2-x,1/2+y,z
7 x,-y,1/2+z
8 1/2+x,1/2+y,1/2-z
_cell_length_a                   28.482(8)
_cell_length_b                   7.523(2)
_cell_length_c                   17.072(5)
_cell_angle_alpha                90
_cell_angle_beta                 90
_cell_angle_gamma                90
_cell_volume                     3658.02
_exptl_crystal_colour            red
_exptl_crystal_description       Columnar
_cell_formula_units_Z            8
loop_
_atom_site_label
_atom_site_type_symbol
_atom_site_fract_x
_atom_site_fract_y
_atom_site_fract_z
F1 F 0.06082(8) 0.6218(3) 0.50802(13)
F2 F 0.01366(6) 0.5409(2) 0.59656(15)
F3 F 0.07727(8) 0.6766(2) 0.62647(15)
O1 O 0.30727(6) 0.1615(2) 0.71520(11)
O2 O 0.23586(6) 0.3046(2) 0.63071(11)
C1 C 0.31706(9) -0.1148(4) 0.99458(17)
H1 H 0.3430 -0.1731 0.9670
H2 H 0.3045 -0.1953 1.0345
H3 H 0.3285 -0.0059 1.0197
C2 C 0.27895(9) -0.0687(3) 0.93693(16)
C3 C 0.23176(9) -0.0946(3) 0.95558(16)
H4 H 0.2237 -0.1454 1.0047
C4 C 0.19650(9) -0.0474(3) 0.90371(15)
H5 H 0.1647 -0.0669 0.9179
C5 C 0.20677(8) 0.0277(3) 0.83145(14)
C6 C 0.16920(8) 0.0758(3) 0.77553(15)
C7 C 0.17841(8) 0.1547(3) 0.70619(15)
C8 C 0.14101(8) 0.1890(3) 0.64668(15)
C9 C 0.11908(8) 0.3536(3) 0.64095(15)
H6 H 0.1282 0.4483 0.6745
C10 C 0.08384(9) 0.3787(3) 0.58607(16)
C11 C 0.05925(10) 0.5524(4) 0.58057(19)
C12 C 0.11963(8) 0.0369(3) 0.79857(14)
C13 C 0.10157(9) -0.1337(3) 0.79466(16)
H7 H 0.1210 -0.2285 0.7774
C14 C 0.05539(10) -0.1677(4) 0.81567(18)
H8 H 0.0433 -0.2852 0.8123
C15 C 0.02693(9) -0.0317(4) 0.84146(17)
H9 H -0.0047 -0.0550 0.8557
C16 C 0.04461(9) 0.1386(4) 0.84648(18)
H10 H 0.0251 0.2322 0.8648
C17 C 0.09049(9) 0.1740(4) 0.82499(16)
H11 H 0.1023 0.2920 0.8282
C18 C 0.28954(9) 0.0058(3) 0.86453(15)
H12 H 0.3215 0.0234 0.8504
C19 C 0.25441(8) 0.0550(3) 0.81254(14)
C20 C 0.26708(8) 0.1410(3) 0.73767(15)
C21 C 0.22666(8) 0.2085(3) 0.68598(15)
C22 C 0.12768(9) 0.0523(3) 0.59680(16)
H13 H 0.1425 -0.0604 0.6008
C23 C 0.09287(9) 0.0788(4) 0.54127(16)
H14 H 0.0843 -0.0150 0.5069
C24 C 0.07049(9) 0.2422(3) 0.53578(16)
H15 H 0.0464 0.2605 0.4982
loop_
_geom_bond_atom_site_label_1
_geom_bond_atom_site_label_2
_geom_bond_site_symmetry_1
_geom_bond_site_symmetry_2
F1 C11 1_555 1_555
F2 C11 1_555 1_555
F3 C11 1_555 1_555
O1 C20 1_555 1_555
O2 C21 1_555 1_555
C1 H1 1_555 1_555
H2 C1 1_555 1_555
H3 C1 1_555 1_555
C2 C1 1_555 1_555
C3 C2 1_555 1_555
H4 C3 1_555 1_555
C4 C3 1_555 1_555
H5 C4 1_555 1_555
C5 C4 1_555 1_555
C6 C5 1_555 1_555
C7 C6 1_555 1_555
C8 C7 1_555 1_555
C9 C8 1_555 1_555
H6 C9 1_555 1_555
C10 C9 1_555 1_555
C11 C10 1_555 1_555
C12 C6 1_555 1_555
C13 C12 1_555 1_555
H7 C13 1_555 1_555
C14 C13 1_555 1_555
H8 C14 1_555 1_555
C15 C14 1_555 1_555
H9 C15 1_555 1_555
C16 C15 1_555 1_555
H10 C16 1_555 1_555
C17 C12 1_555 1_555
H11 C17 1_555 1_555
C18 C2 1_555 1_555
H12 C18 1_555 1_555
C19 C5 1_555 1_555
C20 C19 1_555 1_555
C21 C7 1_555 1_555
C22 C8 1_555 1_555
H13 C22 1_555 1_555
C23 C22 1_555 1_555
H14 C23 1_555 1_555
C24 C10 1_555 1_555
H15 C24 1_555 1_555
C16 C17 1_555 1_555
C18 C19 1_555 1_555
C20 C21 1_555 1_555
C23 C24 1_555 1_555

#END
