
#######################################################################
#
#                 Cambridge Crystallographic Data Centre
#                                CCDC 
#
#######################################################################
#
# If this CIF has been generated from an entry in the Cambridge 
# Structural Database, then it will include bibliographic, chemical, 
# crystal, experimental, refinement or atomic coordinate data resulting 
# from the CCDC's data processing and validation procedures.
#
#######################################################################

data_GERPIF
_chemical_formula_moiety         'C24 H15 F3 O2'
_chemical_name_systematic        
7-methyl-4-phenyl-3-[4-(trifluoromethyl)phenyl]naphthalene-1,2-dione
_symmetry_cell_setting           triclinic
_symmetry_space_group_name_H-M   'P -1'
_symmetry_Int_Tables_number      2
_space_group_name_Hall           '-P 1'
loop_
_symmetry_equiv_pos_site_id
_symmetry_equiv_pos_as_xyz
1 x,y,z
2 -x,-y,-z
_cell_length_a                   8.6883(6)
_cell_length_b                   8.9079(6)
_cell_length_c                   12.8744(9)
_cell_angle_alpha                100.180(2)
_cell_angle_beta                 99.217(3)
_cell_angle_gamma                109.994(2)
_cell_volume                     895.015
_exptl_crystal_colour            red
_cell_formula_units_Z            2
loop_
_atom_site_label
_atom_site_type_symbol
_atom_site_fract_x
_atom_site_fract_y
_atom_site_fract_z
F1 F 0.15373(10) -0.02348(10) 0.54500(7)
F2 F 0.34463(11) -0.00693(11) 0.45586(7)
F3 F 0.19440(10) 0.13643(10) 0.43670(6)
O1 O 0.79062(11) 0.90580(11) 1.11215(7)
O2 O 0.55714(11) 0.66214(11) 0.94765(7)
C1 C 1.44720(17) 1.12386(17) 1.24498(11)
H1 H 1.5040 1.0694 1.2882
H2 H 1.3966 1.1839 1.2909
H3 H 1.5295 1.2014 1.2163
C2 C 1.31149(16) 0.99639(15) 1.15214(10)
C3 C 1.14169(16) 0.97112(15) 1.14198(10)
H4 H 1.1097 1.0333 1.1962
C4 C 1.01814(16) 0.85592(15) 1.05340(10)
C5 C 1.06185(15) 0.76431(15) 0.97086(10)
C6 C 0.93294(16) 0.64673(15) 0.87474(10)
C7 C 0.76432(16) 0.60676(15) 0.86494(10)
C8 C 0.63380(15) 0.47788(15) 0.77205(10)
C9 C 0.50857(16) 0.34801(15) 0.79337(10)
H5 H 0.5028 0.3474 0.8664
C10 C 0.39251(16) 0.21982(16) 0.70918(11)
H6 H 0.3087 0.1313 0.7247
C11 C 0.39858(15) 0.22064(15) 0.60236(10)
C12 C 0.27439(16) 0.08210(17) 0.51131(11)
C13 C 0.63603(16) 0.47907(15) 0.66380(10)
H7 H 0.7182 0.5686 0.6480
C14 C 0.52017(16) 0.35163(16) 0.57950(10)
H8 H 0.5235 0.3534 0.5063
C15 C 1.35353(16) 0.89963(16) 1.07257(10)
H9 H 1.4679 0.9117 1.0795
C16 C 1.23174(16) 0.78622(15) 0.98356(10)
H10 H 1.2642 0.7225 0.9305
C17 C 0.83885(16) 0.82822(15) 1.04638(10)
C18 C 0.70516(16) 0.69106(15) 0.95025(10)
C19 C 0.99619(15) 0.57096(15) 0.78676(10)
C20 C 0.97109(16) 0.40455(16) 0.76698(11)
H11 H 0.9144 0.3385 0.8101
C21 C 1.02906(18) 0.33522(17) 0.68412(12)
H12 H 1.0144 0.2223 0.6718
C22 C 1.10806(18) 0.42987(19) 0.61943(11)
H13 H 1.1456 0.3813 0.5619
C23 C 1.13263(16) 0.59543(18) 0.63830(11)
H14 H 1.1859 0.6600 0.5933
C24 C 1.07935(16) 0.66668(16) 0.72301(10)
H15 H 1.0997 0.7810 0.7376
loop_
_geom_bond_atom_site_label_1
_geom_bond_atom_site_label_2
_geom_bond_site_symmetry_1
_geom_bond_site_symmetry_2
F1 C12 1_555 1_555
F2 C12 1_555 1_555
F3 C12 1_555 1_555
O1 C17 1_555 1_555
O2 C18 1_555 1_555
C1 H1 1_555 1_555
H2 C1 1_555 1_555
H3 C1 1_555 1_555
C2 C1 1_555 1_555
C3 C2 1_555 1_555
H4 C3 1_555 1_555
C4 C3 1_555 1_555
C5 C4 1_555 1_555
C6 C5 1_555 1_555
C7 C6 1_555 1_555
C8 C7 1_555 1_555
C9 C8 1_555 1_555
H5 C9 1_555 1_555
C10 C9 1_555 1_555
H6 C10 1_555 1_555
C11 C10 1_555 1_555
C12 C11 1_555 1_555
C13 C8 1_555 1_555
H7 C13 1_555 1_555
C14 C11 1_555 1_555
H8 C14 1_555 1_555
C15 C2 1_555 1_555
H9 C15 1_555 1_555
C16 C5 1_555 1_555
H10 C16 1_555 1_555
C17 C4 1_555 1_555
C18 C7 1_555 1_555
C19 C6 1_555 1_555
C20 C19 1_555 1_555
H11 C20 1_555 1_555
C21 C20 1_555 1_555
H12 C21 1_555 1_555
C22 C21 1_555 1_555
H13 C22 1_555 1_555
C23 C22 1_555 1_555
H14 C23 1_555 1_555
C24 C19 1_555 1_555
H15 C24 1_555 1_555
C13 C14 1_555 1_555
C15 C16 1_555 1_555
C17 C18 1_555 1_555
C23 C24 1_555 1_555

#END
