
#######################################################################
#
#                 Cambridge Crystallographic Data Centre
#                                CCDC 
#
#######################################################################
#
# If this CIF has been generated from an entry in the Cambridge 
# Structural Database, then it will include bibliographic, chemical, 
# crystal, experimental, refinement or atomic coordinate data resulting 
# from the CCDC's data processing and validation procedures.
#
#######################################################################

data_GERPOJ01
_chemical_formula_moiety         'C10 H14 N4 O6'
_chemical_name_systematic        1,5-bis(hydroxyethylamino)-2,4-dinitrobenzene
_symmetry_cell_setting           monoclinic
_symmetry_space_group_name_H-M   'P 21/n'
_symmetry_Int_Tables_number      14
_space_group_name_Hall           '-P 2yn'
loop_
_symmetry_equiv_pos_site_id
_symmetry_equiv_pos_as_xyz
1 x,y,z
2 1/2-x,1/2+y,1/2-z
3 -x,-y,-z
4 1/2+x,1/2-y,1/2+z
_cell_length_a                   10.4691(8)
_cell_length_b                   9.4703(7)
_cell_length_c                   12.5781(10)
_cell_angle_alpha                90
_cell_angle_beta                 102.525(2)
_cell_angle_gamma                90
_cell_volume                     1217.38
_exptl_crystal_colour            yellow
_exptl_crystal_description       block
_cell_formula_units_Z            4
_exptl_crystal_recrystallization_method ethanol
_exptl_crystal_preparation       thermochromic
loop_
_atom_site_label
_atom_site_type_symbol
_atom_site_fract_x
_atom_site_fract_y
_atom_site_fract_z
O1 O 0.38207(15) 0.24797(13) 0.39053(12)
O2 O 0.49527(18) 0.31526(16) 0.27661(14)
O3 O 0.49452(15) 0.77141(15) 0.15059(11)
O4 O 0.43529(14) 0.95056(14) 0.23436(11)
O5 O 0.24822(13) 0.27100(14) 0.68810(11)
H1 H 0.277(3) 0.325(3) 0.745(2)
O6 O 0.2009(2) 0.98885(17) 0.64692(12)
H2 H 0.214(3) 1.075(3) 0.667(2)
N1 N 0.42563(16) 0.34227(15) 0.34035(13)
N2 N 0.44923(14) 0.82162(16) 0.22492(11)
N3 N 0.27493(14) 0.43631(15) 0.49963(11)
H3 H 0.298(2) 0.351(2) 0.4914(16)
N4 N 0.3173(2) 0.91397(17) 0.39749(17)
H4 H 0.346(2) 0.968(3) 0.3574(19)
C1 C 0.39508(16) 0.48719(16) 0.35794(13)
C2 C 0.32176(16) 0.52826(16) 0.43659(12)
C3 C 0.30061(19) 0.67284(18) 0.44601(15)
H5 H 0.254(2) 0.703(2) 0.5011(16)
C4 C 0.34224(18) 0.77673(18) 0.38282(14)
C5 C 0.40901(16) 0.72812(17) 0.30147(13)
C6 C 0.43526(16) 0.58664(18) 0.29234(13)
H6 H 0.4798(18) 0.558(2) 0.2394(15)
C7 C 0.1919(2) 0.47737(19) 0.57306(16)
H7 H 0.116(2) 0.533(2) 0.5345(16)
H8 H 0.240(2) 0.538(2) 0.6306(17)
C8 C 0.14359(19) 0.34891(19) 0.62281(16)
H9 H 0.0834(19) 0.377(2) 0.6673(16)
H10 H 0.0996(19) 0.284(2) 0.5655(16)
C9 C 0.2246(3) 0.9628(3) 0.4612(3)
H11 H 0.143(4) 0.903(4) 0.456(3)
H12 H 0.188(3) 1.056(4) 0.436(3)
C10 C 0.3046(4) 0.9739(4) 0.5768(4)
H13 H 0.364(4) 1.047(5) 0.580(3)
H14 H 0.345(4) 0.882(4) 0.593(3)
C11? C 0.3225(7) 0.9615(6) 0.5236(7)
H15? H 0.380(5) 0.913(6) 0.589(4)
H16? H 0.376(8) 1.065(10) 0.544(7)
C12? C 0.1806(6) 0.9693(6) 0.5296(5)
H17? H 0.131(6) 1.048(7) 0.483(6)
H18? H 0.141(6) 0.878(7) 0.496(6)
loop_
_geom_bond_atom_site_label_1
_geom_bond_atom_site_label_2
_geom_bond_site_symmetry_1
_geom_bond_site_symmetry_2
O1 N1 1_555 1_555
O2 N1 1_555 1_555
O3 N2 1_555 1_555
O4 N2 1_555 1_555
O5 H1 1_555 1_555
O6 H2 1_555 1_555
N1 C1 1_555 1_555
N2 C5 1_555 1_555
N3 H3 1_555 1_555
N4 H4 1_555 1_555
C1 C2 1_555 1_555
C2 N3 1_555 1_555
C3 C2 1_555 1_555
H5 C3 1_555 1_555
C4 N4 1_555 1_555
C5 C4 1_555 1_555
C6 C1 1_555 1_555
H6 C6 1_555 1_555
C7 N3 1_555 1_555
H7 C7 1_555 1_555
H8 C7 1_555 1_555
C8 O5 1_555 1_555
H9 C8 1_555 1_555
H10 C8 1_555 1_555
C9 N4 1_555 1_555
H11 C9 1_555 1_555
H12 C9 1_555 1_555
C10 O6 1_555 1_555
H13 C10 1_555 1_555
H14 C10 1_555 1_555
C3 C4 1_555 1_555
C5 C6 1_555 1_555
C7 C8 1_555 1_555
C9 C10 1_555 1_555

#END
