
#######################################################################
#
#                 Cambridge Crystallographic Data Centre
#                                CCDC 
#
#######################################################################
#
# If this CIF has been generated from an entry in the Cambridge 
# Structural Database, then it will include bibliographic, chemical, 
# crystal, experimental, refinement or atomic coordinate data resulting 
# from the CCDC's data processing and validation procedures.
#
#######################################################################

data_GERPAX
_chemical_formula_moiety         'C23 H16 O2'
_chemical_name_systematic        6-methyl-3,4-diphenylnaphthalene-1,2-dione
_symmetry_cell_setting           monoclinic
_symmetry_space_group_name_H-M   'P 21/n'
_symmetry_Int_Tables_number      14
_space_group_name_Hall           '-P 2yn'
loop_
_symmetry_equiv_pos_site_id
_symmetry_equiv_pos_as_xyz
1 x,y,z
2 1/2-x,1/2+y,1/2-z
3 -x,-y,-z
4 1/2+x,1/2-y,1/2+z
_cell_length_a                   10.7155(8)
_cell_length_b                   8.5011(5)
_cell_length_c                   17.9927(13)
_cell_angle_alpha                90
_cell_angle_beta                 90.070(2)
_cell_angle_gamma                90
_cell_volume                     1639.02
_exptl_crystal_colour            red
_cell_formula_units_Z            4
loop_
_atom_site_label
_atom_site_type_symbol
_atom_site_fract_x
_atom_site_fract_y
_atom_site_fract_z
C1 C 0.63073(15) 0.26102(19) 0.50711(8)
C2 C 0.53509(15) 0.17605(18) 0.55686(8)
C3 C 0.40512(15) 0.17215(17) 0.53103(8)
C4 C 0.31230(15) 0.11542(19) 0.57795(9)
H1 H 0.3348 0.0694 0.6242
C5 C 0.18802(16) 0.12508(19) 0.55833(9)
H2 H 0.1259 0.0844 0.5907
C6 C 0.15323(15) 0.19440(19) 0.49113(9)
C7 C 0.24701(15) 0.24584(18) 0.44282(8)
H3 H 0.2239 0.2898 0.3962
C8 C 0.37297(14) 0.23468(17) 0.46086(8)
C9 C 0.47215(15) 0.28763(18) 0.40857(8)
C10 C 0.59366(15) 0.30059(18) 0.42996(8)
C11 C 0.01844(15) 0.2192(2) 0.47215(9)
H4 H -0.0334 0.1502 0.5030
H5 H 0.0047 0.1945 0.4196
H6 H -0.0042 0.3291 0.4815
C12 C 0.43327(14) 0.32799(18) 0.33124(8)
C13 C 0.37670(14) 0.21518(19) 0.28587(8)
H7 H 0.3614 0.1126 0.3047
C14 C 0.34256(15) 0.25180(19) 0.21338(8)
H8 H 0.3045 0.1742 0.1829
C15 C 0.36396(15) 0.4014(2) 0.18550(9)
H9 H 0.3411 0.4264 0.1359
C16 C 0.41897(15) 0.5143(2) 0.23047(9)
H10 H 0.4329 0.6172 0.2117
C17 C 0.45387(15) 0.47804(19) 0.30271(9)
H11 H 0.4921 0.5561 0.3329
C18 C 0.69736(14) 0.34331(18) 0.37858(8)
C19 C 0.72019(16) 0.25164(19) 0.31581(8)
H12 H 0.6664 0.1661 0.3044
C20 C 0.82058(16) 0.28400(19) 0.26987(9)
H13 H 0.8357 0.2201 0.2275
C21 C 0.89907(16) 0.40950(19) 0.28555(9)
H14 H 0.9684 0.4310 0.2543
C22 C 0.87578(16) 0.50321(19) 0.34697(9)
H15 H 0.9281 0.5908 0.3572
C23 C 0.77618(15) 0.46944(19) 0.39369(9)
H16 H 0.7618 0.5329 0.4363
O1 O 0.56993(11) 0.12122(14) 0.61568(6)
O2 O 0.73318(11) 0.28937(17) 0.53273(6)
loop_
_geom_bond_atom_site_label_1
_geom_bond_atom_site_label_2
_geom_bond_site_symmetry_1
_geom_bond_site_symmetry_2
C1 C2 1_555 1_555
C2 C3 1_555 1_555
C3 C4 1_555 1_555
C4 H1 1_555 1_555
C5 C4 1_555 1_555
H2 C5 1_555 1_555
C6 C5 1_555 1_555
C7 C6 1_555 1_555
H3 C7 1_555 1_555
C8 C3 1_555 1_555
C9 C8 1_555 1_555
C10 C1 1_555 1_555
C11 C6 1_555 1_555
H4 C11 1_555 1_555
H5 C11 1_555 1_555
H6 C11 1_555 1_555
C12 C9 1_555 1_555
C13 C12 1_555 1_555
H7 C13 1_555 1_555
C14 C13 1_555 1_555
H8 C14 1_555 1_555
C15 C14 1_555 1_555
H9 C15 1_555 1_555
C16 C15 1_555 1_555
H10 C16 1_555 1_555
C17 C12 1_555 1_555
H11 C17 1_555 1_555
C18 C10 1_555 1_555
C19 C18 1_555 1_555
H12 C19 1_555 1_555
C20 C19 1_555 1_555
H13 C20 1_555 1_555
C21 C20 1_555 1_555
H14 C21 1_555 1_555
C22 C21 1_555 1_555
H15 C22 1_555 1_555
C23 C18 1_555 1_555
H16 C23 1_555 1_555
O1 C2 1_555 1_555
O2 C1 1_555 1_555
C7 C8 1_555 1_555
C9 C10 1_555 1_555
C16 C17 1_555 1_555
C22 C23 1_555 1_555

#END
