
#######################################################################
#
#                 Cambridge Crystallographic Data Centre
#                                CCDC 
#
#######################################################################
#
# If this CIF has been generated from an entry in the Cambridge 
# Structural Database, then it will include bibliographic, chemical, 
# crystal, experimental, refinement or atomic coordinate data resulting 
# from the CCDC's data processing and validation procedures.
#
#######################################################################

data_GERPEB
_chemical_formula_moiety         'C20 H16 O4'
_chemical_name_systematic        
'ethyl 6-methyl-3,4-dioxo-1-phenyl-3,4-dihydronaphthalene-2-carboxylate'
_symmetry_cell_setting           monoclinic
_symmetry_space_group_name_H-M   'C 2/c'
_symmetry_Int_Tables_number      15
_space_group_name_Hall           '-C 2yn'
loop_
_symmetry_equiv_pos_site_id
_symmetry_equiv_pos_as_xyz
1 x,y,z
2 -x,y,1/2-z
3 1/2+x,1/2+y,z
4 1/2-x,1/2+y,1/2-z
5 -x,-y,-z
6 x,-y,1/2+z
7 1/2-x,1/2-y,-z
8 1/2+x,1/2-y,1/2+z
_cell_length_a                   28.897(5)
_cell_length_b                   6.4009(9)
_cell_length_c                   17.085(3)
_cell_angle_alpha                90
_cell_angle_beta                 104.057(6)
_cell_angle_gamma                90
_cell_volume                     3065.53
_exptl_crystal_colour            red
_exptl_crystal_description       Tabular
_cell_formula_units_Z            8
loop_
_atom_site_label
_atom_site_type_symbol
_atom_site_fract_x
_atom_site_fract_y
_atom_site_fract_z
C1 C 0.13678(4) 0.41874(19) 0.64372(7)
H1 H 0.1117 0.4794 0.6006
H2 H 0.1353 0.4804 0.6956
H3 H 0.1321 0.2673 0.6455
C2 C 0.18452(4) 0.46328(17) 0.62756(7)
C3 C 0.22423(4) 0.49431(16) 0.69118(7)
H4 H 0.2204 0.4966 0.7449
C4 C 0.26925(4) 0.52199(17) 0.67777(7)
H5 H 0.2957 0.5442 0.7224
C5 C 0.27640(4) 0.51790(16) 0.60009(7)
C6 C 0.32435(4) 0.53283(16) 0.58605(7)
C7 C 0.33182(4) 0.53249(17) 0.51058(7)
C8 C 0.29217(4) 0.52301(16) 0.43797(7)
C9 C 0.24116(4) 0.49884(16) 0.45078(7)
C10 C 0.23588(4) 0.49515(16) 0.53471(7)
C11 C 0.19084(4) 0.46884(16) 0.54910(7)
H6 H 0.1639 0.4544 0.5047
C12 C 0.36622(4) 0.55004(18) 0.65651(7)
C13 C 0.37806(4) 0.3874(2) 0.71218(7)
H7 H 0.3584 0.2666 0.7069
C14 C 0.41838(4) 0.4023(2) 0.77507(8)
H8 H 0.4264 0.2913 0.8128
C15 C 0.44701(4) 0.5779(2) 0.78322(7)
H9 H 0.4749 0.5865 0.8261
C16 C 0.43506(4) 0.7411(2) 0.72897(7)
H10 H 0.4545 0.8625 0.7351
C17 C 0.39472(4) 0.72789(19) 0.66560(7)
H11 H 0.3866 0.8402 0.6285
C18 C 0.38144(4) 0.53162(18) 0.49820(7)
C19 C 0.45298(4) 0.3349(2) 0.52430(8)
H12 H 0.4707 0.4626 0.5465
H13 H 0.4556 0.3161 0.4680
C20 C 0.47306(5) 0.1482(2) 0.57437(9)
H14 H 0.4703 0.1688 0.6299
H15 H 0.5067 0.1310 0.5741
H16 H 0.4553 0.0229 0.5518
O1 O 0.20783(3) 0.48377(12) 0.39213(5)
O2 O 0.29780(3) 0.52740(12) 0.36974(5)
O3 O 0.39951(3) 0.66866(14) 0.46792(5)
O4 O 0.40346(3) 0.35256(13) 0.52682(5)
loop_
_geom_bond_atom_site_label_1
_geom_bond_atom_site_label_2
_geom_bond_site_symmetry_1
_geom_bond_site_symmetry_2
C1 H1 1_555 1_555
H2 C1 1_555 1_555
H3 C1 1_555 1_555
C2 C1 1_555 1_555
C3 C2 1_555 1_555
H4 C3 1_555 1_555
C4 C3 1_555 1_555
H5 C4 1_555 1_555
C5 C4 1_555 1_555
C6 C5 1_555 1_555
C7 C6 1_555 1_555
C8 C7 1_555 1_555
C9 C8 1_555 1_555
C10 C5 1_555 1_555
C11 C2 1_555 1_555
H6 C11 1_555 1_555
C12 C6 1_555 1_555
C13 C12 1_555 1_555
H7 C13 1_555 1_555
C14 C13 1_555 1_555
H8 C14 1_555 1_555
C15 C14 1_555 1_555
H9 C15 1_555 1_555
C16 C15 1_555 1_555
H10 C16 1_555 1_555
C17 C12 1_555 1_555
H11 C17 1_555 1_555
C18 C7 1_555 1_555
C19 H12 1_555 1_555
H13 C19 1_555 1_555
C20 C19 1_555 1_555
H14 C20 1_555 1_555
H15 C20 1_555 1_555
H16 C20 1_555 1_555
O1 C9 1_555 1_555
O2 C8 1_555 1_555
O3 C18 1_555 1_555
O4 C18 1_555 1_555
C9 C10 1_555 1_555
C10 C11 1_555 1_555
C16 C17 1_555 1_555
C19 O4 1_555 1_555

#END
