
#######################################################################
#
#                 Cambridge Crystallographic Data Centre
#                                CCDC 
#
#######################################################################
#
# If this CIF has been generated from an entry in the Cambridge 
# Structural Database, then it will include bibliographic, chemical, 
# crystal, experimental, refinement or atomic coordinate data resulting 
# from the CCDC's data processing and validation procedures.
#
#######################################################################

data_GERQAY
_chemical_formula_moiety         'C21 H16 N1 O1 1+,F6 P1 1-'
_chemical_name_systematic        
'2,3,5-triphenyl-1,3-oxazol-3-ium hexafluorophosphate'
_symmetry_cell_setting           monoclinic
_symmetry_space_group_name_H-M   'P 21/n'
_symmetry_Int_Tables_number      14
_space_group_name_Hall           '-P 2yn'
loop_
_symmetry_equiv_pos_site_id
_symmetry_equiv_pos_as_xyz
1 x,y,z
2 1/2-x,1/2+y,1/2-z
3 -x,-y,-z
4 1/2+x,1/2-y,1/2+z
_cell_length_a                   8.5432(10)
_cell_length_b                   17.447(2)
_cell_length_c                   13.1073(15)
_cell_angle_alpha                90
_cell_angle_beta                 96.302(3)
_cell_angle_gamma                90
_cell_volume                     1941.88
_exptl_crystal_colour            green
_exptl_crystal_description       prismatic
_cell_formula_units_Z            4
loop_
_atom_site_label
_atom_site_type_symbol
_atom_site_fract_x
_atom_site_fract_y
_atom_site_fract_z
P1 P 0.88866(11) 0.22478(6) 0.23153(7)
F1 F 0.9565(3) 0.2186(2) 0.3477(2)
F2 F 0.8172(3) 0.22981(15) 0.11556(18)
F3 F 1.0107(3) 0.16203(19) 0.2016(2)
F4 F 0.7632(4) 0.28334(17) 0.2623(2)
F5 F 0.7661(3) 0.15794(16) 0.2454(2)
F6 F 1.0124(4) 0.28772(19) 0.2158(2)
N1 N 0.3508(3) 0.26930(14) 0.07753(19)
O1 O 0.2006(2) 0.18026(11) 0.00807(15)
C1 C 0.2195(4) 0.25543(17) 0.0170(2)
C2 C 0.4190(4) 0.19974(17) 0.1078(2)
H1 H 0.5128 0.1929 0.1500
C3 C 0.3258(4) 0.14435(17) 0.0656(2)
C4 C 0.3266(4) 0.06114(17) 0.0669(2)
C5 C 0.4446(4) 0.02315(19) 0.1293(3)
H2 H 0.5209 0.0510 0.1697
C6 C 0.4478(5) -0.0560(2) 0.1308(3)
H3 H 0.5255 -0.0814 0.1732
C7 C 0.3373(5) -0.0974(2) 0.0700(3)
H4 H 0.3407 -0.1506 0.0710
C8 C 0.2215(5) -0.0602(2) 0.0076(3)
H5 H 0.1472 -0.0885 -0.0339
C9 C 0.2151(4) 0.01902(19) 0.0063(3)
H6 H 0.1358 0.0440 -0.0354
C10 C 0.1008(4) 0.30520(19) -0.0357(2)
C11 C -0.0349(4) 0.2709(2) -0.0824(3)
H7 H -0.0463 0.2179 -0.0791
C12 C -0.1522(5) 0.3140(3) -0.1333(3)
H8 H -0.2431 0.2904 -0.1640
C13 C -0.1360(5) 0.3916(3) -0.1390(3)
H9 H -0.2166 0.4211 -0.1725
C14 C -0.0005(6) 0.4263(2) -0.0953(3)
H10 H 0.0111 0.4791 -0.1005
C15 C 0.1184(5) 0.3833(2) -0.0438(3)
H11 H 0.2101 0.4070 -0.0147
C16 C 0.4188(4) 0.34256(17) 0.1112(2)
C17 C 0.3614(4) 0.38041(19) 0.1913(3)
H12 H 0.2764 0.3609 0.2216
C18 C 0.4327(5) 0.4478(2) 0.2254(3)
H13 H 0.3955 0.4743 0.2794
C19 C 0.5569(5) 0.4760(2) 0.1810(3)
H14 H 0.6042 0.5216 0.2047
C20 C 0.6130(5) 0.4374(2) 0.1013(4)
H15 H 0.6980 0.4571 0.0711
C21 C 0.5438(4) 0.3698(2) 0.0657(3)
H16 H 0.5816 0.3432 0.0119
loop_
_geom_bond_atom_site_label_1
_geom_bond_atom_site_label_2
_geom_bond_site_symmetry_1
_geom_bond_site_symmetry_2
P1 F1 1_555 1_555
F2 P1 1_555 1_555
F3 P1 1_555 1_555
F4 P1 1_555 1_555
F5 P1 1_555 1_555
F6 P1 1_555 1_555
N1 C1 1_555 1_555
O1 C1 1_555 1_555
C1 C10 1_555 1_555
C2 N1 1_555 1_555
H1 C2 1_555 1_555
C3 O1 1_555 1_555
C4 C3 1_555 1_555
C5 C4 1_555 1_555
H2 C5 1_555 1_555
C6 C5 1_555 1_555
H3 C6 1_555 1_555
C7 C6 1_555 1_555
H4 C7 1_555 1_555
C8 C7 1_555 1_555
H5 C8 1_555 1_555
C9 C4 1_555 1_555
H6 C9 1_555 1_555
C10 C11 1_555 1_555
C11 H7 1_555 1_555
C12 C11 1_555 1_555
H8 C12 1_555 1_555
C13 C12 1_555 1_555
H9 C13 1_555 1_555
C14 C13 1_555 1_555
H10 C14 1_555 1_555
C15 C10 1_555 1_555
H11 C15 1_555 1_555
C16 N1 1_555 1_555
C17 C16 1_555 1_555
H12 C17 1_555 1_555
C18 C17 1_555 1_555
H13 C18 1_555 1_555
C19 C18 1_555 1_555
H14 C19 1_555 1_555
C20 C19 1_555 1_555
H15 C20 1_555 1_555
C21 C16 1_555 1_555
H16 C21 1_555 1_555
C2 C3 1_555 1_555
C8 C9 1_555 1_555
C14 C15 1_555 1_555
C20 C21 1_555 1_555

#END
