
#######################################################################
#
#                 Cambridge Crystallographic Data Centre
#                                CCDC 
#
#######################################################################
#
# If this CIF has been generated from an entry in the Cambridge 
# Structural Database, then it will include bibliographic, chemical, 
# crystal, experimental, refinement or atomic coordinate data resulting 
# from the CCDC's data processing and validation procedures.
#
#######################################################################

data_GERRUT
_chemical_formula_moiety         'C33 H27 Br1 O5'
_chemical_name_systematic        
'(1S,4R,5S,6R)-4-(4-bromophenyl)-6-hydroxy-5-(methoxycarbonyl)-3,6-diphenylcyclohex-2-enyl benzoate'
_symmetry_cell_setting           monoclinic
_symmetry_space_group_name_H-M   'P 21'
_symmetry_Int_Tables_number      4
_space_group_name_Hall           'P 2yb'
loop_
_symmetry_equiv_pos_site_id
_symmetry_equiv_pos_as_xyz
1 x,y,z
2 -x,1/2+y,-z
_cell_length_a                   10.024(5)
_cell_length_b                   11.074(5)
_cell_length_c                   13.112(6)
_cell_angle_alpha                90
_cell_angle_beta                 92.686(9)
_cell_angle_gamma                90
_cell_volume                     1453.91
_exptl_crystal_colour            orange
_exptl_crystal_description       prism
_chemical_melting_point          '62-63 deg.C'
_cell_formula_units_Z            2
loop_
_atom_site_label
_atom_site_type_symbol
_atom_site_fract_x
_atom_site_fract_y
_atom_site_fract_z
Br1 Br 0.95029(10) 0.04036(8) 0.87074(7)
O1 O 0.6533(4) 0.7938(4) 0.7519(2)
H1 H 0.717177 0.819263 0.786794
O2 O 0.9066(4) 0.7200(4) 0.8430(3)
O3 O 0.9997(3) 0.5705(3) 0.7589(2)
O4 O 0.6179(4) 0.6006(3) 0.5311(2)
O5 O 0.4491(6) 0.6639(6) 0.4301(3)
C1 C 0.4458(6) 0.4407(8) 0.8157(5)
C2 C 0.3636(7) 0.3602(7) 0.7637(6)
H2 H 0.365517 0.354517 0.693009
C3 C 0.2768(8) 0.2864(8) 0.8169(8)
H3 H 0.220224 0.231884 0.782569
C4 C 0.2781(9) 0.2972(11) 0.9205(8)
H4 H 0.224004 0.246226 0.956920
C5 C 0.3543(9) 0.3783(13) 0.9720(6)
H5 H 0.347353 0.386963 1.042078
C6 C 0.4438(7) 0.4494(11) 0.9206(5)
H6 H 0.501315 0.501839 0.956420
C7 C 0.5374(5) 0.5283(7) 0.7598(4)
C8 C 0.6818(5) 0.5366(6) 0.8000(3)
H7 H 0.683767 0.582070 0.864176
C9 C 0.7697(5) 0.6047(4) 0.7244(3)
H8 H 0.791593 0.548376 0.669953
C10 C 0.6998(5) 0.7137(5) 0.6751(3)
C11 C 0.5725(5) 0.6715(5) 0.6184(3)
H9 H 0.519410 0.740973 0.594180
C12 C 0.4896(5) 0.5886(6) 0.6785(4)
H10 H 0.400158 0.578516 0.658194
C13 C 0.7418(5) 0.4140(5) 0.8216(3)
C14 C 0.7292(5) 0.3213(6) 0.7499(4)
H11 H 0.677226 0.333767 0.690181
C15 C 0.7920(6) 0.2117(6) 0.7655(4)
H12 H 0.783381 0.151339 0.716317
C16 C 0.8661(6) 0.1926(5) 0.8526(5)
C17 C 0.8846(6) 0.2814(6) 0.9267(4)
H13 H 0.938224 0.268075 0.985396
C18 C 0.8197(5) 0.3912(5) 0.9096(4)
H14 H 0.829013 0.451277 0.958901
C19 C 0.7879(6) 0.7843(5) 0.6011(4)
C20 C 0.8827(6) 0.7247(6) 0.5455(4)
H15 H 0.899041 0.642854 0.556048
C21 C 0.9538(7) 0.7895(8) 0.4729(5)
H16 H 1.020466 0.751738 0.437616
C22 C 0.9237(9) 0.9082(9) 0.4551(6)
H17 H 0.967462 0.950078 0.405104
C23 C 0.8315(9) 0.9655(8) 0.5090(7)
H18 H 0.813691 1.046910 0.497341
C24 C 0.7632(7) 0.9027(5) 0.5817(5)
H19 H 0.699064 0.942676 0.618078
C25 C 0.8993(5) 0.6403(5) 0.7816(4)
C26 C 1.1241(6) 0.5873(6) 0.8159(5)
H20 H 1.192830 0.541762 0.784811
H21 H 1.115360 0.560069 0.884773
H22 H 1.147362 0.671430 0.816273
C27 C 0.5494(7) 0.6070(6) 0.4414(4)
C28 C 0.6122(6) 0.5329(7) 0.3627(4)
C29 C 0.7234(9) 0.4667(8) 0.3818(5)
H23 H 0.763625 0.467901 0.447130
C30 C 0.7798(11) 0.3972(10) 0.3079(6)
H24 H 0.853096 0.348206 0.324000
C31 C 0.7259(13) 0.4020(10) 0.2111(6)
H25 H 0.765159 0.358312 0.159832
C32 C 0.6199(11) 0.4669(10) 0.1888(5)
H26 H 0.584998 0.469515 0.121905
C33 C 0.5576(7) 0.5332(9) 0.2651(4)
H27 H 0.480131 0.576776 0.249179
loop_
_geom_bond_atom_site_label_1
_geom_bond_atom_site_label_2
_geom_bond_site_symmetry_1
_geom_bond_site_symmetry_2
Br1 C16 1_555 1_555
O1 H1 1_555 1_555
O2 C25 1_555 1_555
O3 C25 1_555 1_555
O4 C11 1_555 1_555
O5 C27 1_555 1_555
C1 C2 1_555 1_555
C2 H2 1_555 1_555
C3 C2 1_555 1_555
H3 C3 1_555 1_555
C4 C3 1_555 1_555
H4 C4 1_555 1_555
C5 C4 1_555 1_555
H5 C5 1_555 1_555
C6 C1 1_555 1_555
H6 C6 1_555 1_555
C7 C1 1_555 1_555
C8 C7 1_555 1_555
H7 C8 1_555 1_555
C9 C8 1_555 1_555
H8 C9 1_555 1_555
C10 O1 1_555 1_555
C11 C10 1_555 1_555
H9 C11 1_555 1_555
C12 C7 1_555 1_555
H10 C12 1_555 1_555
C13 C8 1_555 1_555
C14 C13 1_555 1_555
H11 C14 1_555 1_555
C15 C14 1_555 1_555
H12 C15 1_555 1_555
C16 C15 1_555 1_555
C17 C16 1_555 1_555
H13 C17 1_555 1_555
C18 C13 1_555 1_555
H14 C18 1_555 1_555
C19 C10 1_555 1_555
C20 C19 1_555 1_555
H15 C20 1_555 1_555
C21 C20 1_555 1_555
H16 C21 1_555 1_555
C22 C21 1_555 1_555
H17 C22 1_555 1_555
C23 C22 1_555 1_555
H18 C23 1_555 1_555
C24 C19 1_555 1_555
H19 C24 1_555 1_555
C25 C9 1_555 1_555
C26 O3 1_555 1_555
H20 C26 1_555 1_555
H21 C26 1_555 1_555
H22 C26 1_555 1_555
C27 O4 1_555 1_555
C28 C27 1_555 1_555
C29 C28 1_555 1_555
H23 C29 1_555 1_555
C30 C29 1_555 1_555
H24 C30 1_555 1_555
C31 C30 1_555 1_555
H25 C31 1_555 1_555
C32 C31 1_555 1_555
H26 C32 1_555 1_555
C33 C28 1_555 1_555
H27 C33 1_555 1_555
C5 C6 1_555 1_555
C9 C10 1_555 1_555
C11 C12 1_555 1_555
C17 C18 1_555 1_555
C23 C24 1_555 1_555
C32 C33 1_555 1_555

#END
