
#######################################################################
#
#                 Cambridge Crystallographic Data Centre
#                                CCDC 
#
#######################################################################
#
# If this CIF has been generated from an entry in the Cambridge 
# Structural Database, then it will include bibliographic, chemical, 
# crystal, experimental, refinement or atomic coordinate data resulting 
# from the CCDC's data processing and validation procedures.
#
#######################################################################

data_GERYOU
_chemical_formula_moiety         'C23 H16 O2'
_chemical_name_systematic        7-methyl-3,4-diphenylnaphthalene-1,2-dione
_symmetry_cell_setting           orthorhombic
_symmetry_space_group_name_H-M   'P b c a'
_symmetry_Int_Tables_number      61
_space_group_name_Hall           '-P 2ac 2ab'
loop_
_symmetry_equiv_pos_site_id
_symmetry_equiv_pos_as_xyz
1 x,y,z
2 1/2-x,-y,1/2+z
3 -x,1/2+y,1/2-z
4 1/2+x,1/2-y,-z
5 -x,-y,-z
6 1/2+x,y,1/2-z
7 x,1/2-y,1/2+z
8 1/2-x,1/2+y,z
_cell_length_a                   7.0799(5)
_cell_length_b                   18.7620(13)
_cell_length_c                   25.5141(17)
_cell_angle_alpha                90
_cell_angle_beta                 90
_cell_angle_gamma                90
_cell_volume                     3389.12
_exptl_crystal_colour            red
_exptl_crystal_description       prism
_cell_formula_units_Z            8
loop_
_atom_site_label
_atom_site_type_symbol
_atom_site_fract_x
_atom_site_fract_y
_atom_site_fract_z
C1 C 0.2189(3) 0.27092(12) 0.27108(9)
C2 C 0.2474(4) 0.32672(13) 0.22812(9)
C3 C 0.2321(3) 0.30514(11) 0.17305(8)
C4 C 0.2531(4) 0.36250(11) 0.13311(9)
C5 C 0.4185(4) 0.40165(13) 0.12884(10)
H1 H 0.5204 0.3910 0.1505
C6 C 0.4338(5) 0.45611(14) 0.09294(12)
H2 H 0.5459 0.4817 0.0904
C7 C 0.2852(6) 0.47275(14) 0.06100(11)
H3 H 0.2959 0.5096 0.0368
C8 C 0.1198(5) 0.43473(15) 0.06490(11)
H4 H 0.0184 0.4460 0.0433
C9 C 0.1034(4) 0.38002(13) 0.10069(10)
H5 H -0.0092 0.3547 0.1031
C10 C 0.1927(3) 0.23628(11) 0.16111(8)
C11 C 0.1862(4) 0.21212(11) 0.10537(9)
C12 C 0.3518(4) 0.20958(12) 0.07662(10)
H6 H 0.4645 0.2247 0.0917
C13 C 0.3507(5) 0.18473(16) 0.02573(12)
H7 H 0.4630 0.1827 0.0069
C14 C 0.1867(6) 0.16325(15) 0.00297(11)
H8 H 0.1869 0.1469 -0.0314
C15 C 0.0206(5) 0.16574(15) 0.03076(12)
H9 H -0.0915 0.1509 0.0152
C16 C 0.0199(4) 0.19053(13) 0.08235(10)
H10 H -0.0926 0.1925 0.1011
C17 C 0.1606(3) 0.18128(11) 0.20156(8)
C18 C 0.1236(3) 0.11050(11) 0.18864(9)
H11 H 0.1183 0.0972 0.1536
C19 C 0.0945(3) 0.05953(12) 0.22714(9)
H12 H 0.0696 0.0128 0.2172
C20 C 0.1013(3) 0.07599(12) 0.27959(9)
C21 C 0.0724(4) 0.02028(14) 0.32133(11)
H13 H 0.0825 0.0420 0.3553
H14 H 0.1670 -0.0161 0.3179
H15 H -0.0506 -0.0006 0.3175
C22 C 0.1405(3) 0.14620(12) 0.29276(9)
H16 H 0.1471 0.1587 0.3280
C23 C 0.1699(3) 0.19830(11) 0.25525(8)
O1 O 0.2395(3) 0.28906(9) 0.31661(7)
O2 O 0.2803(4) 0.38727(11) 0.24142(8)
loop_
_geom_bond_atom_site_label_1
_geom_bond_atom_site_label_2
_geom_bond_site_symmetry_1
_geom_bond_site_symmetry_2
C1 C2 1_555 1_555
C2 C3 1_555 1_555
C3 C4 1_555 1_555
C4 C5 1_555 1_555
C5 H1 1_555 1_555
C6 C5 1_555 1_555
H2 C6 1_555 1_555
C7 C6 1_555 1_555
H3 C7 1_555 1_555
C8 C7 1_555 1_555
H4 C8 1_555 1_555
C9 C4 1_555 1_555
H5 C9 1_555 1_555
C10 C3 1_555 1_555
C11 C10 1_555 1_555
C12 C11 1_555 1_555
H6 C12 1_555 1_555
C13 C12 1_555 1_555
H7 C13 1_555 1_555
C14 C13 1_555 1_555
H8 C14 1_555 1_555
C15 C14 1_555 1_555
H9 C15 1_555 1_555
C16 C11 1_555 1_555
H10 C16 1_555 1_555
C17 C10 1_555 1_555
C18 C17 1_555 1_555
H11 C18 1_555 1_555
C19 C18 1_555 1_555
H12 C19 1_555 1_555
C20 C19 1_555 1_555
C21 C20 1_555 1_555
H13 C21 1_555 1_555
H14 C21 1_555 1_555
H15 C21 1_555 1_555
C22 C20 1_555 1_555
H16 C22 1_555 1_555
C23 C1 1_555 1_555
O1 C1 1_555 1_555
O2 C2 1_555 1_555
C8 C9 1_555 1_555
C15 C16 1_555 1_555
C17 C23 1_555 1_555
C22 C23 1_555 1_555

#END
