
#######################################################################
#
#                 Cambridge Crystallographic Data Centre
#                                CCDC 
#
#######################################################################
#
# If this CIF has been generated from an entry in the Cambridge 
# Structural Database, then it will include bibliographic, chemical, 
# crystal, experimental, refinement or atomic coordinate data resulting 
# from the CCDC's data processing and validation procedures.
#
#######################################################################

data_GERYUA
_chemical_formula_moiety         'C17 H11 Br1 O2'
_chemical_name_systematic        
3-bromo-7-methyl-4-phenylnaphthalene-1,2-dione
_symmetry_cell_setting           monoclinic
_symmetry_space_group_name_H-M   'P 21/c'
_symmetry_Int_Tables_number      14
_space_group_name_Hall           '-P 2ybc'
loop_
_symmetry_equiv_pos_site_id
_symmetry_equiv_pos_as_xyz
1 x,y,z
2 -x,1/2+y,1/2-z
3 -x,-y,-z
4 x,1/2-y,1/2+z
_cell_length_a                   10.505(5)
_cell_length_b                   15.956(7)
_cell_length_c                   7.986(4)
_cell_angle_alpha                90
_cell_angle_beta                 98.052(10)
_cell_angle_gamma                90
_cell_volume                     1325.4
_exptl_crystal_colour            red
_cell_formula_units_Z            4
loop_
_atom_site_label
_atom_site_type_symbol
_atom_site_fract_x
_atom_site_fract_y
_atom_site_fract_z
Br1 Br 0.57113(2) 0.74223(2) 0.91025(3)
O1 O 0.98273(18) 0.87928(11) 0.7305(3)
O2 O 0.75251(18) 0.88235(11) 0.8508(3)
C1 C 1.2761(3) 0.64803(19) 0.5312(4)
H1 H 1.3494 0.6563 0.6200
H2 H 1.2750 0.6925 0.4465
H3 H 1.2838 0.5935 0.4772
C2 C 1.1528(2) 0.65074(17) 0.6084(3)
C3 C 1.0883(3) 0.57721(16) 0.6420(3)
H4 H 1.1240 0.5245 0.6189
C4 C 0.9721(2) 0.57976(16) 0.7089(3)
H5 H 0.9303 0.5288 0.7299
C5 C 0.9166(2) 0.65598(15) 0.7453(3)
C6 C 0.7891(2) 0.65853(15) 0.8069(3)
C7 C 0.7204(2) 0.57800(15) 0.8260(3)
C8 C 0.7644(3) 0.52029(16) 0.9526(4)
H6 H 0.8415 0.5308 1.0268
C9 C 0.6948(3) 0.44737(17) 0.9695(4)
H7 H 0.7241 0.4086 1.0568
C10 C 0.5830(3) 0.43058(17) 0.8604(4)
H8 H 0.5361 0.3806 0.8730
C11 C 0.9828(3) 0.73034(15) 0.7146(3)
C12 C 1.0983(3) 0.72726(16) 0.6470(4)
H9 H 1.1408 0.7781 0.6268
C13 C 0.9293(2) 0.81286(15) 0.7509(3)
C14 C 0.7980(3) 0.81509(15) 0.8185(3)
C15 C 0.7355(3) 0.73361(15) 0.8376(3)
C16 C 0.5398(3) 0.48697(16) 0.7327(4)
H10 H 0.4636 0.4753 0.6574
C17 C 0.6079(2) 0.56051(16) 0.7147(4)
H11 H 0.5781 0.5989 0.6270
loop_
_geom_bond_atom_site_label_1
_geom_bond_atom_site_label_2
_geom_bond_site_symmetry_1
_geom_bond_site_symmetry_2
Br1 C15 1_555 1_555
O1 C13 1_555 1_555
O2 C14 1_555 1_555
C1 H1 1_555 1_555
H2 C1 1_555 1_555
H3 C1 1_555 1_555
C2 C1 1_555 1_555
C3 C2 1_555 1_555
H4 C3 1_555 1_555
C4 C3 1_555 1_555
H5 C4 1_555 1_555
C5 C4 1_555 1_555
C6 C5 1_555 1_555
C7 C6 1_555 1_555
C8 C7 1_555 1_555
H6 C8 1_555 1_555
C9 C8 1_555 1_555
H7 C9 1_555 1_555
C10 C9 1_555 1_555
H8 C10 1_555 1_555
C11 C5 1_555 1_555
C12 C2 1_555 1_555
H9 C12 1_555 1_555
C13 C11 1_555 1_555
C14 C13 1_555 1_555
C15 C6 1_555 1_555
C16 C10 1_555 1_555
H10 C16 1_555 1_555
C17 C7 1_555 1_555
H11 C17 1_555 1_555
C11 C12 1_555 1_555
C14 C15 1_555 1_555
C16 C17 1_555 1_555

#END
