
#######################################################################
#
#                 Cambridge Crystallographic Data Centre
#                                CCDC 
#
#######################################################################
#
# If this CIF has been generated from an entry in the Cambridge 
# Structural Database, then it will include bibliographic, chemical, 
# crystal, experimental, refinement or atomic coordinate data resulting 
# from the CCDC's data processing and validation procedures.
#
#######################################################################

data_GERZAG
_chemical_formula_moiety         'C16 H19 N2 1+,C1 F3 O3 S1 1-'
_chemical_name_systematic        
"4-(N,N-Dimethylamino)-4'-N'-methylstilbazolium trifluoromethanesulfonate"
_symmetry_cell_setting           monoclinic
_symmetry_space_group_name_H-M   'P 21/c'
_symmetry_Int_Tables_number      14
_space_group_name_Hall           '-P 2ybc'
loop_
_symmetry_equiv_pos_site_id
_symmetry_equiv_pos_as_xyz
1 x,y,z
2 -x,1/2+y,1/2-z
3 -x,-y,-z
4 x,1/2-y,1/2+z
_cell_length_a                   17.500(12)
_cell_length_b                   7.605(5)
_cell_length_c                   13.547(9)
_cell_angle_alpha                90
_cell_angle_beta                 93.708(13)
_cell_angle_gamma                90
_cell_volume                     1799.16
_exptl_crystal_colour            red
_exptl_crystal_description       prism
_chemical_melting_point          '482 K'
_cell_formula_units_Z            4
_exptl_crystal_recrystallization_method methanol
loop_
_atom_site_label
_atom_site_type_symbol
_atom_site_fract_x
_atom_site_fract_y
_atom_site_fract_z
N1 N 0.61763(10) 0.6687(3) 0.71436(13)
N2 N 0.09435(10) 0.7062(2) 0.24959(13)
C1 C 0.62741(15) 0.5776(4) 0.80846(18)
H1 H 0.6177 0.4545 0.7986
H2 H 0.5921 0.6243 0.8531
H3 H 0.6789 0.5940 0.8359
C2 C 0.68409(13) 0.7523(3) 0.67631(19)
H4 H 0.6951 0.6987 0.6147
H5 H 0.7273 0.7384 0.7230
H6 H 0.6739 0.8752 0.6661
C3 C 0.54917(11) 0.6641(3) 0.65972(15)
C4 C 0.48568(12) 0.5700(3) 0.69086(15)
H7 H 0.4899 0.5089 0.7504
C5 C 0.41763(12) 0.5672(3) 0.63434(15)
H8 H 0.3771 0.5027 0.6568
C6 C 0.40667(11) 0.6571(3) 0.54462(15)
C7 C 0.47027(12) 0.7501(3) 0.51394(16)
H9 H 0.4657 0.8110 0.4543
C8 C 0.53874(12) 0.7543(3) 0.56887(16)
H10 H 0.5793 0.8181 0.5458
C9 C 0.33357(12) 0.6497(3) 0.48893(16)
H11 H 0.2949 0.5898 0.5188
C10 C 0.31436(12) 0.7180(3) 0.39991(16)
H12 H 0.3525 0.7752 0.3675
C11 C 0.23833(12) 0.7097(3) 0.34970(15)
C12 C 0.17477(12) 0.6343(3) 0.39086(16)
H13 H 0.1804 0.5830 0.4532
C13 C 0.10468(12) 0.6352(3) 0.34070(16)
H14 H 0.0631 0.5858 0.3699
C14 C 0.15404(14) 0.7774(3) 0.20776(17)
H15 H 0.1470 0.8252 0.1446
C15 C 0.22485(14) 0.7817(3) 0.25526(17)
H16 H 0.2651 0.8335 0.2243
C16 C 0.01906(13) 0.6959(4) 0.19449(19)
H17 H 0.0184 0.7731 0.1384
H18 H -0.0202 0.7305 0.2369
H19 H 0.0099 0.5774 0.1723
S1 S 0.14035(3) 0.23084(7) 0.09559(4)
F1 F 0.15116(9) 0.3235(3) -0.08960(11)
F2 F 0.08824(9) 0.5035(2) -0.00609(12)
F3 F 0.21034(10) 0.4916(2) 0.01619(14)
O1 O 0.07393(10) 0.1311(3) 0.06283(15)
O2 O 0.13280(11) 0.3352(2) 0.18227(12)
O3 O 0.21099(9) 0.1353(2) 0.09327(12)
C17 C 0.14810(13) 0.3952(3) -0.00030(17)
loop_
_geom_bond_atom_site_label_1
_geom_bond_atom_site_label_2
_geom_bond_site_symmetry_1
_geom_bond_site_symmetry_2
N1 C1 1_555 1_555
N2 C13 1_555 1_555
C1 H1 1_555 1_555
H2 C1 1_555 1_555
H3 C1 1_555 1_555
C2 N1 1_555 1_555
H4 C2 1_555 1_555
H5 C2 1_555 1_555
H6 C2 1_555 1_555
C3 N1 1_555 1_555
C4 C3 1_555 1_555
H7 C4 1_555 1_555
C5 C4 1_555 1_555
H8 C5 1_555 1_555
C6 C5 1_555 1_555
C7 C6 1_555 1_555
H9 C7 1_555 1_555
C8 C3 1_555 1_555
H10 C8 1_555 1_555
C9 C6 1_555 1_555
H11 C9 1_555 1_555
C10 C9 1_555 1_555
H12 C10 1_555 1_555
C11 C10 1_555 1_555
C12 C11 1_555 1_555
H13 C12 1_555 1_555
C13 C12 1_555 1_555
H14 C13 1_555 1_555
C14 N2 1_555 1_555
H15 C14 1_555 1_555
C15 C11 1_555 1_555
H16 C15 1_555 1_555
C16 N2 1_555 1_555
H17 C16 1_555 1_555
H18 C16 1_555 1_555
H19 C16 1_555 1_555
S1 O1 1_555 1_555
F1 C17 1_555 1_555
F2 C17 1_555 1_555
F3 C17 1_555 1_555
O2 S1 1_555 1_555
O3 S1 1_555 1_555
C17 S1 1_555 1_555
C7 C8 1_555 1_555
C14 C15 1_555 1_555

#END
