
#######################################################################
#
#                 Cambridge Crystallographic Data Centre
#                                CCDC 
#
#######################################################################
#
# If this CIF has been generated from an entry in the Cambridge 
# Structural Database, then it will include bibliographic, chemical, 
# crystal, experimental, refinement or atomic coordinate data resulting 
# from the CCDC's data processing and validation procedures.
#
#######################################################################

data_GERZOU
_chemical_formula_moiety         'C16 H19 N2 1+,C6 H5 O4 S1 1-,H2 O1'
_chemical_name_systematic        
'4-(2-(4-(Dimethylamino)phenyl)vinyl)-1-methylpyridinium 4-hydroxybenzenesulfonate monohydrate'
_symmetry_cell_setting           monoclinic
_symmetry_space_group_name_H-M   'P 21/c'
_symmetry_Int_Tables_number      14
_space_group_name_Hall           '-P 2ybc'
loop_
_symmetry_equiv_pos_site_id
_symmetry_equiv_pos_as_xyz
1 x,y,z
2 -x,1/2+y,1/2-z
3 -x,-y,-z
4 x,1/2-y,1/2+z
_cell_length_a                   14.208(6)
_cell_length_b                   10.027(4)
_cell_length_c                   16.146(7)
_cell_angle_alpha                90
_cell_angle_beta                 113.042(6)
_cell_angle_gamma                90
_cell_volume                     2116.7
_cell_formula_units_Z            4
loop_
_atom_site_label
_atom_site_type_symbol
_atom_site_fract_x
_atom_site_fract_y
_atom_site_fract_z
S1 S 0.82904(5) -0.21464(6) 0.22911(4)
C2 C 0.8350(2) -0.2793(3) 0.39573(17)
C3 C 0.77520(18) -0.2310(2) 0.31021(16)
C5 C 0.6333(2) -0.2116(3) 0.35427(19)
O1 O 0.64806(18) -0.2662(3) 0.49925(16)
H1 H 0.6878 -0.3008 0.5458
C7 C 0.7945(2) -0.2920(3) 0.45994(18)
C10 C 0.6931(2) -0.2566(3) 0.43990(18)
C16 C 0.6741(2) -0.1981(3) 0.29075(18)
O2 O 0.7658(2) -0.1198(2) 0.16338(16)
O3 O 0.8270(2) -0.3431(2) 0.18997(17)
O5 O 0.9313(2) -0.1658(3) 0.27722(18)
H17 H 0.837(2) -0.321(3) 0.519(2)
H18 H 0.628(2) -0.161(3) 0.233(2)
H19 H 0.564(2) -0.183(3) 0.342(2)
H20 H 0.905(2) -0.297(3) 0.412(2)
N1 N 0.56474(18) 0.2626(2) 0.40571(17)
C1 C 0.60546(18) 0.2782(2) 0.34290(17)
N2 N 0.90294(16) 0.3249(2) -0.08351(14)
C4 C 0.82351(19) 0.2780(3) 0.04682(18)
C6 C 0.69486(18) 0.3113(3) 0.21484(18)
C8 C 0.62696(19) 0.1677(3) 0.29893(18)
H2 H 0.6114 0.0822 0.3120
C9 C 0.6704(2) 0.1842(3) 0.23728(18)
H3 H 0.6840 0.1094 0.2096
C11 C 0.6705(2) 0.4198(3) 0.2567(2)
C12 C 0.8922(2) 0.2005(3) -0.0586(2)
C13 C 0.7791(2) 0.2462(3) 0.11199(19)
H4 H 0.7753 0.1569 0.1261
C14 C 0.7438(2) 0.3367(3) 0.15231(18)
H5 H 0.7510 0.4255 0.1393
C15 C 0.6275(2) 0.4054(3) 0.31825(19)
C17 C 0.8534(2) 0.1758(3) 0.00516(19)
H6 H 0.8471 0.0881 0.0209
C18 C 0.8353(2) 0.4077(3) 0.0196(2)
C19 C 0.8738(2) 0.4284(3) -0.0449(2)
H7 H 0.8801 0.5151 -0.0626
C20 C 0.9449(3) 0.3480(4) -0.1521(2)
H8 H 0.9611 0.2639 -0.1718
H9 H 1.0058 0.4010 -0.1269
H10 H 0.8953 0.3940 -0.2024
C21 C 0.5465(2) 0.3768(3) 0.4527(2)
H11 H 0.5674 0.4568 0.4320
H12 H 0.5850 0.3670 0.5163
H13 H 0.4749 0.3822 0.4410
C22 C 0.5366(3) 0.1331(3) 0.4282(2)
H14 H 0.5530 0.0657 0.3937
H15 H 0.4645 0.1313 0.4146
H16 H 0.5737 0.1162 0.4912
H21 H 0.610(2) 0.485(3) 0.3458(19)
H22 H 0.811(3) 0.470(4) 0.040(2)
H23 H 0.682(2) 0.509(3) 0.241(2)
H24 H 0.915(2) 0.133(3) -0.090(2)
O4 O 1.0137(3) -0.0130(3) 0.1709(2)
H25 H 0.987(4) -0.051(5) 0.198(3)
H26 H 1.050(4) 0.046(6) 0.206(3)
loop_
_geom_bond_atom_site_label_1
_geom_bond_atom_site_label_2
_geom_bond_site_symmetry_1
_geom_bond_site_symmetry_2
S1 C3 1_555 1_555
N1 C1 1_555 1_555
C1 C8 1_555 1_555
N2 C12 1_555 1_555
C2 C3 1_555 1_555
C3 C16 1_555 1_555
C4 C13 1_555 1_555
C5 C10 1_555 1_555
O1 H1 1_555 1_555
C6 C9 1_555 1_555
C7 C2 1_555 1_555
C8 H2 1_555 1_555
C9 C8 1_555 1_555
H3 C9 1_555 1_555
C10 O1 1_555 1_555
C11 C6 1_555 1_555
C12 C17 1_555 1_555
C13 H4 1_555 1_555
C14 C6 1_555 1_555
H5 C14 1_555 1_555
C15 C1 1_555 1_555
C16 C5 1_555 1_555
O2 S1 1_555 1_555
C17 C4 1_555 1_555
H6 C17 1_555 1_555
C18 C4 1_555 1_555
O3 S1 1_555 1_555
C19 N2 1_555 1_555
H7 C19 1_555 1_555
C20 N2 1_555 1_555
H8 C20 1_555 1_555
H9 C20 1_555 1_555
H10 C20 1_555 1_555
C21 N1 1_555 1_555
H11 C21 1_555 1_555
H12 C21 1_555 1_555
H13 C21 1_555 1_555
C22 N1 1_555 1_555
H14 C22 1_555 1_555
H15 C22 1_555 1_555
H16 C22 1_555 1_555
O4 H25 1_555 1_555
O5 S1 1_555 1_555
H17 C7 1_555 1_555
H18 C16 1_555 1_555
H19 C5 1_555 1_555
H20 C2 1_555 1_555
H21 C15 1_555 1_555
H22 C18 1_555 1_555
H23 C11 1_555 1_555
H24 C12 1_555 1_555
H26 O4 1_555 1_555
C7 C10 1_555 1_555
C11 C15 1_555 1_555
C13 C14 1_555 1_555
C18 C19 1_555 1_555

#END
