
#######################################################################
#
#                 Cambridge Crystallographic Data Centre
#                                CCDC 
#
#######################################################################
#
# If this CIF has been generated from an entry in the Cambridge 
# Structural Database, then it will include bibliographic, chemical, 
# crystal, experimental, refinement or atomic coordinate data resulting 
# from the CCDC's data processing and validation procedures.
#
#######################################################################

data_GERZEL
_chemical_formula_moiety         'C44 H49 B1 N2 O6,C1 H2 Cl2'
_chemical_name_systematic        
'2,7-bis(2,6-di-isopropylphenyl)-4-(4,4,5,5-tetramethyl-1,3,2-dioxaborolan-2-yl)benzo[lmn][3,8]phenanthroline-1,3,6,8(2H,7H)-tetrone dichloromethane solvate'
_symmetry_cell_setting           monoclinic
_symmetry_space_group_name_H-M   'P 21/c'
_symmetry_Int_Tables_number      14
_space_group_name_Hall           '-P 2ybc'
loop_
_symmetry_equiv_pos_site_id
_symmetry_equiv_pos_as_xyz
1 x,y,z
2 -x,1/2+y,1/2-z
3 -x,-y,-z
4 x,1/2-y,1/2+z
_cell_length_a                   10.8384(2)
_cell_length_b                   20.5084(4)
_cell_length_c                   18.9186(4)
_cell_angle_alpha                90
_cell_angle_beta                 91.922(2)
_cell_angle_gamma                90
_cell_volume                     4202.83
_exptl_crystal_colour            colorless
_exptl_crystal_description       block
_cell_formula_units_Z            4
loop_
_atom_site_label
_atom_site_type_symbol
_atom_site_fract_x
_atom_site_fract_y
_atom_site_fract_z
Cl1 Cl 0.74157(7) 0.53424(5) 0.80512(5)
Cl2 Cl 0.81039(10) 0.49843(5) 0.94932(5)
C1 C 0.7982(3) 0.56252(17) 0.88748(18)
H1 H 0.743201 0.595749 0.904850
H2 H 0.878736 0.582164 0.882048
O1 O 0.66928(17) 0.82820(8) 0.47923(10)
O2 O 0.87181(17) 0.63553(8) 0.46056(10)
O3 O 0.43286(19) 0.48649(9) 0.67500(11)
O4 O 0.27776(16) 0.68679(8) 0.72727(9)
O5 O 0.7127(2) 0.45161(8) 0.67163(10)
O6 O 0.62091(18) 0.41252(8) 0.57026(10)
N1 N 0.77414(17) 0.73255(9) 0.47286(10)
N2 N 0.35359(17) 0.58624(9) 0.70137(10)
C2 C 0.8674(2) 0.76310(11) 0.42977(12)
C3 C 0.9677(2) 0.79343(11) 0.46412(13)
C4 C 1.0551(2) 0.82262(12) 0.42160(14)
H3 H 1.122212 0.844109 0.442792
C5 C 1.0437(3) 0.82018(13) 0.34905(15)
H4 H 1.103372 0.839418 0.321637
C6 C 0.9436(3) 0.78911(14) 0.31691(14)
H5 H 0.936949 0.787717 0.267796
C7 C 0.8524(2) 0.75981(13) 0.35620(13)
C8 C 0.7433(3) 0.72603(14) 0.31945(14)
H6 H 0.686267 0.712350 0.355749
C9 C 0.7889(6) 0.6640(3) 0.2814(4)
H7 H 0.844119 0.676335 0.245068
H8 H 0.719429 0.641199 0.260521
H9 H 0.831297 0.636200 0.314962
C10 C 0.6733(7) 0.7703(4) 0.2678(4)
H10 H 0.640647 0.806755 0.292869
H11 H 0.606814 0.746379 0.245235
H12 H 0.728290 0.785608 0.232725
C11 C 0.9822(2) 0.79650(12) 0.54452(13)
H13 H 0.933535 0.760867 0.563948
C12 C 0.9320(3) 0.86045(15) 0.57319(17)
H14 H 0.977625 0.896307 0.554501
H15 H 0.940476 0.860541 0.623864
H16 H 0.846437 0.864731 0.559235
C13 C 1.1156(3) 0.78798(18) 0.57155(17)
H17 H 1.148753 0.748477 0.552654
H18 H 1.118011 0.785714 0.622257
H19 H 1.164013 0.824412 0.556711
C14 C 0.7874(2) 0.66547(11) 0.48567(12)
C15 C 0.6947(2) 0.63462(11) 0.53120(12)
C16 C 0.60353(19) 0.67366(10) 0.56217(11)
C17 C 0.59426(19) 0.74118(11) 0.54792(11)
C18 C 0.6797(2) 0.77170(11) 0.49768(12)
C19 C 0.5057(2) 0.77823(11) 0.57942(12)
H20 H 0.499215 0.822489 0.569237
C20 C 0.4250(2) 0.74954(11) 0.62682(12)
H21 H 0.366283 0.775068 0.648504
C21 C 0.43216(19) 0.68368(11) 0.64154(11)
C22 C 0.52000(19) 0.64430(10) 0.60836(11)
C23 C 0.5281(2) 0.57648(11) 0.62172(12)
C24 C 0.6179(2) 0.53830(11) 0.59170(12)
C25 C 0.7010(2) 0.56905(12) 0.54586(13)
H22 H 0.761592 0.544084 0.525114
C26 C 0.6384(6) 0.2942(2) 0.5836(4)
H23 H 0.554007 0.295223 0.597392
H24 H 0.681824 0.260496 0.609505
H25 H 0.641397 0.285401 0.533884
C27 C 0.7193(3) 0.38039(12) 0.67716(14)
C28 C 0.8324(6) 0.3603(3) 0.7198(4)
H26 H 0.904806 0.374408 0.696310
H27 H 0.833769 0.313651 0.724513
H28 H 0.830810 0.379849 0.765857
C29 C 0.6985(2) 0.35936(11) 0.59966(14)
C30 C 0.8234(4) 0.3609(3) 0.5647(3)
H29 H 0.811182 0.356771 0.514396
H30 H 0.873358 0.325361 0.582223
H31 H 0.864080 0.401404 0.575480
C31 C 0.4371(2) 0.54517(11) 0.66735(13)
C32 C 0.3484(2) 0.65418(11) 0.69374(12)
C33 C 0.2563(2) 0.55555(11) 0.74170(12)
C34 C 0.2830(2) 0.53329(12) 0.81013(13)
C35 C 0.1868(2) 0.50441(13) 0.84630(14)
H32 H 0.201204 0.489657 0.892328
C36 C 0.0708(2) 0.49743(13) 0.81482(14)
H33 H 0.008272 0.477520 0.839491
C37 C 0.0472(2) 0.51980(12) 0.74709(14)
H34 H -0.031419 0.515024 0.726489
C38 C 0.1398(2) 0.54953(11) 0.70898(12)
C39 C 0.1085(2) 0.57408(11) 0.63494(12)
H35 H 0.185102 0.588500 0.613678
C40 C 0.0488(6) 0.5221(2) 0.5869(2)
H36 H 0.100741 0.484157 0.586402
H37 H 0.038518 0.538971 0.539748
H38 H -0.030360 0.510421 0.604404
C41 C 0.0206(5) 0.6325(2) 0.6377(3)
H39 H -0.054665 0.619391 0.658880
H40 H 0.002812 0.647975 0.590535
H41 H 0.058743 0.666718 0.665285
C42 C 0.4089(2) 0.54056(15) 0.84689(15)
H42 H 0.468075 0.552117 0.810911
C43 C 0.4070(4) 0.5959(2) 0.9004(2)
H43 H 0.390721 0.636317 0.876154
H44 H 0.485599 0.598404 0.925159
H45 H 0.343533 0.587982 0.933480
C44 C 0.4517(3) 0.47658(19) 0.8811(2)
H46 H 0.399089 0.465988 0.919263
H47 H 0.535150 0.481216 0.898969
H48 H 0.447681 0.442341 0.846473
B1 B 0.6433(3) 0.46500(13) 0.61293(15)
C45 C 0.6049(5) 0.3589(3) 0.7181(3)
H49 H 0.605044 0.380623 0.763052
H50 H 0.607370 0.312598 0.725324
H51 H 0.531167 0.370215 0.691277
H52? H 0.701277 0.698869 0.353835
H53? H 0.177753 0.600638 0.619432
C46? C 0.7729(13) 0.6847(7) 0.2554(6)
H54? H 0.816049 0.710776 0.222114
H55? H 0.697546 0.668772 0.233595
H56? H 0.823713 0.648546 0.270183
C47? C 0.6536(10) 0.7802(5) 0.2923(7)
H57? H 0.626683 0.805532 0.331580
H58? H 0.583299 0.760616 0.268467
H59? H 0.695251 0.808052 0.259975
C48? C -0.0075(11) 0.6164(8) 0.6321(9)
H60? H -0.078997 0.589162 0.636279
H61? H -0.012660 0.639378 0.587950
H62? H -0.003823 0.647108 0.670403
C49? C 0.0978(17) 0.5144(5) 0.5870(6)
H63? H 0.173178 0.489869 0.590308
H64? H 0.082770 0.528198 0.538969
H65? H 0.030577 0.487574 0.601480
C50? C 0.8568(6) 0.3642(5) 0.6957(6)
H66? H 0.908130 0.382026 0.660129
H67? H 0.867476 0.317754 0.697691
H68? H 0.879771 0.382823 0.740838
C51? C 0.7965(10) 0.3590(6) 0.5441(6)
H69? H 0.757423 0.356239 0.497907
H70? H 0.849862 0.322125 0.551620
H71? H 0.844035 0.398422 0.547697
C52? C 0.6203(12) 0.2973(4) 0.6004(7)
H72? H 0.546692 0.305234 0.625912
H73? H 0.666785 0.262848 0.623024
H74? H 0.598274 0.284818 0.552712
C53? C 0.6404(11) 0.3604(6) 0.7375(5)
H75? H 0.655630 0.315460 0.748866
H76? H 0.554937 0.366157 0.724080
H77? H 0.660516 0.386973 0.778097
loop_
_geom_bond_atom_site_label_1
_geom_bond_atom_site_label_2
_geom_bond_site_symmetry_1
_geom_bond_site_symmetry_2
Cl1 C1 1_555 1_555
Cl2 C1 1_555 1_555
C1 H1 1_555 1_555
H2 C1 1_555 1_555
O1 C18 1_555 1_555
O2 C14 1_555 1_555
O3 C31 1_555 1_555
O4 C32 1_555 1_555
O5 C27 1_555 1_555
O6 C29 1_555 1_555
N1 C2 1_555 1_555
N2 C31 1_555 1_555
C2 C3 1_555 1_555
C3 C4 1_555 1_555
C4 H3 1_555 1_555
C5 C4 1_555 1_555
H4 C5 1_555 1_555
C6 C5 1_555 1_555
H5 C6 1_555 1_555
C7 C2 1_555 1_555
C8 C7 1_555 1_555
H6 C8 1_555 1_555
C9 C8 1_555 1_555
H7 C9 1_555 1_555
H8 C9 1_555 1_555
H9 C9 1_555 1_555
C10 C8 1_555 1_555
H10 C10 1_555 1_555
H11 C10 1_555 1_555
H12 C10 1_555 1_555
C11 C3 1_555 1_555
H13 C11 1_555 1_555
C12 C11 1_555 1_555
H14 C12 1_555 1_555
H15 C12 1_555 1_555
H16 C12 1_555 1_555
C13 C11 1_555 1_555
H17 C13 1_555 1_555
H18 C13 1_555 1_555
H19 C13 1_555 1_555
C14 N1 1_555 1_555
C15 C14 1_555 1_555
C16 C15 1_555 1_555
C17 C16 1_555 1_555
C18 N1 1_555 1_555
C19 C17 1_555 1_555
H20 C19 1_555 1_555
C20 C19 1_555 1_555
H21 C20 1_555 1_555
C21 C20 1_555 1_555
C22 C16 1_555 1_555
C23 C22 1_555 1_555
C24 C23 1_555 1_555
C25 C15 1_555 1_555
H22 C25 1_555 1_555
C26 H23 1_555 1_555
H24 C26 1_555 1_555
H25 C26 1_555 1_555
C27 C28 1_555 1_555
C28 H26 1_555 1_555
H27 C28 1_555 1_555
H28 C28 1_555 1_555
C29 C26 1_555 1_555
C30 C29 1_555 1_555
H29 C30 1_555 1_555
H30 C30 1_555 1_555
H31 C30 1_555 1_555
C31 C23 1_555 1_555
C32 N2 1_555 1_555
C33 N2 1_555 1_555
C34 C33 1_555 1_555
C35 C34 1_555 1_555
H32 C35 1_555 1_555
C36 C35 1_555 1_555
H33 C36 1_555 1_555
C37 C36 1_555 1_555
H34 C37 1_555 1_555
C38 C33 1_555 1_555
C39 C38 1_555 1_555
H35 C39 1_555 1_555
C40 C39 1_555 1_555
H36 C40 1_555 1_555
H37 C40 1_555 1_555
H38 C40 1_555 1_555
C41 C39 1_555 1_555
H39 C41 1_555 1_555
H40 C41 1_555 1_555
H41 C41 1_555 1_555
C42 C34 1_555 1_555
H42 C42 1_555 1_555
C43 C42 1_555 1_555
H43 C43 1_555 1_555
H44 C43 1_555 1_555
H45 C43 1_555 1_555
C44 C42 1_555 1_555
H46 C44 1_555 1_555
H47 C44 1_555 1_555
H48 C44 1_555 1_555
B1 O5 1_555 1_555
C45 C27 1_555 1_555
H49 C45 1_555 1_555
H50 C45 1_555 1_555
H51 C45 1_555 1_555
O6 B1 1_555 1_555
C6 C7 1_555 1_555
C17 C18 1_555 1_555
C21 C22 1_555 1_555
C21 C32 1_555 1_555
C24 C25 1_555 1_555
C24 B1 1_555 1_555
C27 C29 1_555 1_555
C37 C38 1_555 1_555

#END
