
#######################################################################
#
#                 Cambridge Crystallographic Data Centre
#                                CCDC 
#
#######################################################################
#
# If this CIF has been generated from an entry in the Cambridge 
# Structural Database, then it will include bibliographic, chemical, 
# crystal, experimental, refinement or atomic coordinate data resulting 
# from the CCDC's data processing and validation procedures.
#
#######################################################################

data_GERZIO
_chemical_formula_moiety         'C16 H19 N2 1+,C6 H4 Cl1 O3 S1 1-'
_chemical_name_systematic        
'4-(2-(4-(Dimethylamino)phenyl)vinyl)-1-methylpyridinium 4-chlorobenzenesulfonate'
_symmetry_cell_setting           monoclinic
_symmetry_space_group_name_H-M   'C c'
_symmetry_Int_Tables_number      9
_space_group_name_Hall           'C -2yc'
loop_
_symmetry_equiv_pos_site_id
_symmetry_equiv_pos_as_xyz
1 x,y,z
2 x,-y,1/2+z
3 1/2+x,1/2+y,z
4 1/2+x,1/2-y,1/2+z
_cell_length_a                   10.363(5)
_cell_length_b                   11.163(5)
_cell_length_c                   17.892(6)
_cell_angle_alpha                90
_cell_angle_beta                 92.15(3)
_cell_angle_gamma                90
_cell_volume                     2068.33
_exptl_crystal_colour            red
_exptl_crystal_description       plate
_cell_formula_units_Z            4
_exptl_crystal_recrystallization_method water/methanol
loop_
_atom_site_label
_atom_site_type_symbol
_atom_site_fract_x
_atom_site_fract_y
_atom_site_fract_z
N1 N 1.1012(16) 0.1322(14) 0.3311(8)
C1 C 1.1742(19) 0.1568(14) 0.2599(8)
H1 H 1.2134 0.2367 0.2630
H2 H 1.1140 0.1531 0.2164
H3 H 1.2421 0.0965 0.2548
C2 C 1.166(2) 0.1729(14) 0.3939(9)
H4 H 1.1336 0.2526 0.4067
H5 H 1.2584 0.1779 0.3846
H6 H 1.1523 0.1177 0.4354
C3 C 0.9790(15) 0.0940(11) 0.3283(7)
C4 C 0.9168(13) 0.0552(11) 0.2609(7)
H7 H 0.9627 0.0568 0.2159
C5 C 0.7956(15) 0.0165(12) 0.2593(8)
H8 H 0.7551 -0.0010 0.2120
C6 C 0.7242(14) 0.0002(11) 0.3232(7)
C7 C 0.7835(17) 0.0345(14) 0.3924(7)
H9 H 0.7387 0.0295 0.4377
C8 C 0.9114(17) 0.0762(14) 0.3914(8)
H10 H 0.9540 0.0933 0.4382
C9 C 0.5971(17) -0.0404(12) 0.3207(8)
H11 H 0.5650 -0.0596 0.2718
C10 C 0.5130(16) -0.0574(11) 0.3728(8)
H12 H 0.5440 -0.0385 0.4220
C11 C 0.3876(17) -0.0978(13) 0.3682(8)
C12 C 0.3259(15) -0.1358(13) 0.2976(8)
H13 H 0.3730 -0.1283 0.2533
C13 C 0.207(2) -0.1807(18) 0.2922(11)
H14 H 0.1712 -0.2063 0.2452
C14 C 0.1848(17) -0.1562(14) 0.4188(9)
H15 H 0.1367 -0.1595 0.4630
C15 C 0.3080(18) -0.1153(13) 0.4230(9)
H16 H 0.3414 -0.0968 0.4718
C16 C -0.0011(17) -0.2336(16) 0.3529(11)
H17 H -0.0330 -0.2437 0.4034
H18 H -0.0041 -0.3107 0.3267
H19 H -0.0555 -0.1755 0.3253
N2 N 0.1327(13) -0.1898(10) 0.3577(7)
Cl1 Cl -0.1435(5) 0.2283(6) 0.6064(3)
C17 C 0.0213(16) 0.2289(14) 0.6020(6)
C18 C 0.0869(16) 0.1077(13) 0.6000(7)
H20 H 0.0371 0.0364 0.6020
C19 C 0.2206(16) 0.1012(10) 0.5954(7)
H21 H 0.2633 0.0260 0.5994
C20 C 0.2906(18) 0.2044(16) 0.5849(15)
C21 C 0.2265(15) 0.3104(16) 0.5926(9)
H22 H 0.2766 0.3815 0.5966
C22 C 0.102(2) 0.3205(17) 0.5949(10)
H23 H 0.0654 0.3986 0.5911
S1 S 0.4608(4) 0.1910(3) 0.5788(2)
O1 O 0.5113(12) 0.3127(9) 0.5714(6)
O2 O 0.5043(12) 0.1306(13) 0.6495(6)
O3 O 0.4781(13) 0.1242(11) 0.5147(6)
O4? O 0.603(3) 0.148(3) 0.570(2)
loop_
_geom_bond_atom_site_label_1
_geom_bond_atom_site_label_2
_geom_bond_site_symmetry_1
_geom_bond_site_symmetry_2
N1 C1 1_555 1_555
C1 H1 1_555 1_555
H2 C1 1_555 1_555
H3 C1 1_555 1_555
C2 N1 1_555 1_555
H4 C2 1_555 1_555
H5 C2 1_555 1_555
H6 C2 1_555 1_555
C3 N1 1_555 1_555
C4 C3 1_555 1_555
H7 C4 1_555 1_555
C5 C4 1_555 1_555
H8 C5 1_555 1_555
C6 C5 1_555 1_555
C7 C6 1_555 1_555
H9 C7 1_555 1_555
C8 C3 1_555 1_555
H10 C8 1_555 1_555
C9 C6 1_555 1_555
H11 C9 1_555 1_555
C10 C9 1_555 1_555
H12 C10 1_555 1_555
C11 C10 1_555 1_555
C12 C11 1_555 1_555
H13 C12 1_555 1_555
C13 C12 1_555 1_555
H14 C13 1_555 1_555
C14 H15 1_555 1_555
C15 C11 1_555 1_555
H16 C15 1_555 1_555
C16 H17 1_555 1_555
H18 C16 1_555 1_555
H19 C16 1_555 1_555
N2 C13 1_555 1_555
Cl1 C17 1_555 1_555
C17 C18 1_555 1_555
C18 H20 1_555 1_555
C19 C18 1_555 1_555
H21 C19 1_555 1_555
C20 C19 1_555 1_555
C21 C20 1_555 1_555
H22 C21 1_555 1_555
C22 C17 1_555 1_555
H23 C22 1_555 1_555
S1 C20 1_555 1_555
O1 S1 1_555 1_555
O2 S1 1_555 1_555
O3 S1 1_555 1_555
C7 C8 1_555 1_555
C14 C15 1_555 1_555
C14 N2 1_555 1_555
C16 N2 1_555 1_555
C21 C22 1_555 1_555

#END
