
#######################################################################
#
#                 Cambridge Crystallographic Data Centre
#                                CCDC 
#
#######################################################################
#
# If this CIF has been generated from an entry in the Cambridge 
# Structural Database, then it will include bibliographic, chemical, 
# crystal, experimental, refinement or atomic coordinate data resulting 
# from the CCDC's data processing and validation procedures.
#
#######################################################################

data_GERZEK
_chemical_formula_moiety         'C16 H19 N2 1+,C7 H8 N1 O3 S1 1-'
_chemical_name_systematic        
'4-(2-(4-(Dimethylamino)phenyl)vinyl)-1-methylpyridinium 2-amino-5-methylbenzenesulfonate'
_symmetry_cell_setting           triclinic
_symmetry_space_group_name_H-M   'P 1'
_symmetry_Int_Tables_number      1
_space_group_name_Hall           'P 1'
loop_
_symmetry_equiv_pos_site_id
_symmetry_equiv_pos_as_xyz
1 x,y,z
_cell_length_a                   7.2651(6)
_cell_length_b                   8.983(2)
_cell_length_c                   10.1090(15)
_cell_angle_alpha                97.82(8)
_cell_angle_beta                 110.42(5)
_cell_angle_gamma                112.30(6)
_cell_volume                     543.931
_exptl_crystal_colour            red
_exptl_crystal_description       block
_cell_formula_units_Z            1
_exptl_crystal_recrystallization_method water/methanol
loop_
_atom_site_label
_atom_site_type_symbol
_atom_site_fract_x
_atom_site_fract_y
_atom_site_fract_z
S1 S 0.65950(17) 0.66678(15) 0.02423(13)
C1 C 0.4280(7) 0.4797(6) 0.0000(4)
C2 C 0.4380(8) 0.3257(6) -0.0160(5)
H1 H 0.5645 0.3227 -0.0160
C3 C 0.2369(8) 0.4854(6) -0.0008(5)
C4 C 0.0597(8) 0.3344(7) -0.0187(6)
H2 H -0.0683 0.3358 -0.0201
N1 N 0.2213(9) 0.6353(7) 0.0140(8)
H3 H 0.3297 0.7271 0.0239
H4 H 0.1032 0.6366 0.0133
O1 O 0.5851(8) 0.7308(6) -0.0954(6)
C5 C 0.2616(10) 0.1764(6) -0.0319(6)
C6 C 0.0727(9) 0.1823(6) -0.0346(6)
H5 H -0.0470 0.0838 -0.0470
O2 O 0.7234(9) 0.7809(6) 0.1655(5)
O3 O 0.8249(8) 0.6162(7) 0.0212(8)
C7 C 0.2815(16) 0.0095(8) -0.0443(9)
H6 H 0.1473 -0.0802 -0.0545
H7 H 0.4033 0.0239 0.0435
H8 H 0.3062 -0.0185 -0.1296
N2 N 0.9458(7) 0.1487(5) 0.4857(4)
C8 C 1.3677(8) 0.9527(6) 0.5267(5)
C9 C 1.0855(8) 0.4716(6) 0.4549(5)
C10 C 1.2946(8) 0.7853(6) 0.5428(5)
H9 H 1.3510 0.7787 0.6385
C11 C 1.0789(9) 0.2865(7) 0.6075(5)
H10 H 1.1242 0.2731 0.7013
C12 C 1.3802(8) 1.1495(6) 0.3806(5)
H11 H 1.3348 1.1659 0.2881
C13 C 1.5272(8) 1.2935(6) 0.5104(5)
N3 N 1.6033(8) 1.4530(5) 0.5022(5)
C14 C 1.3037(8) 0.9862(6) 0.3894(6)
H12 H 1.2075 0.8959 0.3025
C15 C 1.1518(9) 0.6371(6) 0.4322(6)
H13 H 1.0926 0.6413 0.3358
C16 C 1.5880(9) 1.2588(6) 0.6486(5)
H14 H 1.6806 1.3487 0.7360
C17 C 1.5135(9) 1.0961(6) 0.6561(6)
H15 H 1.5595 1.0792 0.7484
C18 C 1.1476(8) 0.4462(6) 0.5937(5)
H16 H 1.2374 0.5395 0.6788
C19 C 0.8718(11) -0.0192(7) 0.5047(7)
H17 H 0.9344 -0.0083 0.6085
H18 H 0.9191 -0.0845 0.4537
H19 H 0.7134 -0.0752 0.4644
C20 C 0.9446(10) 0.3243(7) 0.3317(6)
H20 H 0.8947 0.3343 0.2368
C21 C 0.8806(10) 0.1687(7) 0.3489(5)
H21 H 0.7901 0.0736 0.2654
C22 C 1.5458(11) 1.4885(7) 0.3605(6)
H22 H 1.4453 1.3844 0.2810
H23 H 1.6775 1.5435 0.3476
H24 H 1.4769 1.5611 0.3597
C23 C 1.7521(12) 1.6003(7) 0.6363(6)
H25 H 1.7784 1.5628 0.7225
H26 H 1.6851 1.6733 0.6417
H27 H 1.8899 1.6609 0.6323
loop_
_geom_bond_atom_site_label_1
_geom_bond_atom_site_label_2
_geom_bond_site_symmetry_1
_geom_bond_site_symmetry_2
S1 C1 1_555 1_555
C1 C2 1_555 1_555
C2 H1 1_555 1_555
C3 C1 1_555 1_555
C4 C3 1_555 1_555
H2 C4 1_555 1_555
N1 C3 1_555 1_555
H3 N1 1_555 1_555
H4 N1 1_555 1_555
O1 S1 1_555 1_555
C5 C2 1_555 1_555
C6 C4 1_555 1_555
H5 C6 1_555 1_555
O2 S1 1_555 1_555
O3 S1 1_555 1_555
C7 C5 1_555 1_555
H6 C7 1_555 1_555
H7 C7 1_555 1_555
H8 C7 1_555 1_555
N2 C11 1_555 1_555
C8 C10 1_555 1_555
C9 C15 1_555 1_555
C10 H9 1_555 1_555
C11 H10 1_555 1_555
C12 H11 1_555 1_555
C13 C12 1_555 1_555
N3 C13 1_555 1_555
C14 C8 1_555 1_555
H12 C14 1_555 1_555
C15 C10 1_555 1_555
H13 C15 1_555 1_555
C16 C13 1_555 1_555
H14 C16 1_555 1_555
C17 C8 1_555 1_555
H15 C17 1_555 1_555
C18 C9 1_555 1_555
H16 C18 1_555 1_555
C19 N2 1_555 1_555
H17 C19 1_555 1_555
H18 C19 1_555 1_555
H19 C19 1_555 1_555
C20 C9 1_555 1_555
H20 C20 1_555 1_555
C21 N2 1_555 1_555
H21 C21 1_555 1_555
C22 N3 1_555 1_555
H22 C22 1_555 1_555
H23 C22 1_555 1_555
H24 C22 1_555 1_555
C23 N3 1_555 1_555
H25 C23 1_555 1_555
H26 C23 1_555 1_555
H27 C23 1_555 1_555
C5 C6 1_555 1_555
C11 C18 1_555 1_555
C12 C14 1_555 1_555
C16 C17 1_555 1_555
C20 C21 1_555 1_555

#END
