
#######################################################################
#
#                 Cambridge Crystallographic Data Centre
#                                CCDC 
#
#######################################################################
#
# If this CIF has been generated from an entry in the Cambridge 
# Structural Database, then it will include bibliographic, chemical, 
# crystal, experimental, refinement or atomic coordinate data resulting 
# from the CCDC's data processing and validation procedures.
#
#######################################################################

data_GESDAK
_chemical_formula_moiety         'C33 H31 N1 O4 S1'
_chemical_name_systematic        
'ethyl 8-benzoyl-1-ethyl-2,3-dimethyl-5,5-diphenyl-1,5-dihydrofuro[3,2-e][1,4]thiazepine-7-carboxylate'
_symmetry_cell_setting           orthorhombic
_symmetry_space_group_name_H-M   'P n a 21'
_symmetry_Int_Tables_number      33
_space_group_name_Hall           'P 2c -2n'
loop_
_symmetry_equiv_pos_site_id
_symmetry_equiv_pos_as_xyz
1 x,y,z
2 -x,-y,1/2+z
3 1/2+x,1/2-y,z
4 1/2-x,1/2+y,1/2+z
_cell_length_a                   20.568(4)
_cell_length_b                   8.4361(17)
_cell_length_c                   32.969(7)
_cell_angle_alpha                90
_cell_angle_beta                 90
_cell_angle_gamma                90
_cell_volume                     5720.57
_exptl_crystal_colour            yellow
_exptl_crystal_description       plate
_chemical_melting_point          '145-146 deg.C'
_cell_formula_units_Z            8
loop_
_atom_site_label
_atom_site_type_symbol
_atom_site_fract_x
_atom_site_fract_y
_atom_site_fract_z
S1 S 0.41478(4) 0.11483(11) 0.29802(2)
N2 N 0.54872(16) 0.2289(3) 0.27888(10)
O1 O 0.59337(13) 0.4005(3) 0.45055(7)
O2 O 0.67033(10) 0.4814(3) 0.40765(6)
O3 O 0.69935(12) 0.2875(3) 0.30987(8)
O4 O 0.52774(12) 0.2690(2) 0.38705(8)
C34 C 0.3407(2) 0.2830(4) 0.36179(12)
H32 H 0.3370 0.2938 0.3338
C35 C 0.29376(18) 0.3506(4) 0.38673(11)
H33 H 0.2589 0.4052 0.3754
C36 C 0.29871(18) 0.3371(4) 0.42731(12)
H34 H 0.2676 0.3828 0.4441
C37 C 0.3496(3) 0.2558(5) 0.44356(15)
H35 H 0.3531 0.2452 0.4715
C38 C 0.39598(18) 0.1893(5) 0.41867(10)
H36 H 0.4307 0.1349 0.4302
C39 C 0.39208(15) 0.2014(4) 0.37748(9)
C40 C 0.51357(17) -0.0918(4) 0.38571(11)
H37 H 0.5480 -0.0208 0.3874
C41 C 0.5196(2) -0.2422(4) 0.40206(17)
H38 H 0.5579 -0.2694 0.4153
C42 C 0.4711(2) -0.3517(4) 0.39935(13)
H39 H 0.4762 -0.4532 0.4099
C43 C 0.4142(3) -0.3074(5) 0.38047(15)
H40 H 0.3801 -0.3795 0.3787
C44 C 0.4069(2) -0.1585(4) 0.36419(12)
H41 H 0.3682 -0.1319 0.3512
C45 C 0.45659(15) -0.0470(3) 0.36682(9)
C46 C 0.74309(16) 0.6019(4) 0.30679(10)
H42 H 0.7740 0.5228 0.3030
C47 C 0.7604(2) 0.7603(4) 0.30107(17)
H43 H 0.8023 0.7866 0.2928
C48 C 0.7152(2) 0.8769(4) 0.30777(12)
H44 H 0.7264 0.9828 0.3043
C49 C 0.6536(2) 0.8374(4) 0.31949(13)
H45 H 0.6231 0.9169 0.3240
C50 C 0.63608(18) 0.6807(4) 0.32475(11)
H46 H 0.5940 0.6552 0.3329
C51 C 0.68111(14) 0.5614(3) 0.31795(9)
C52 C 0.5698(2) 0.3520(5) 0.25096(10)
H47 H 0.6076 0.3143 0.2362
H48 H 0.5830 0.4442 0.2665
C53 C 0.5198(3) 0.3998(6) 0.22175(17)
H49 H 0.5368 0.4811 0.2044
H50 H 0.4826 0.4398 0.2360
H51 H 0.5073 0.3099 0.2057
C54 C 0.53171(16) 0.0795(4) 0.26311(9)
C55 C 0.47581(18) 0.0080(4) 0.27252(9)
C56 C 0.5814(2) 0.0051(6) 0.23476(11)
H52 H 0.5653 -0.0951 0.2253
H53 H 0.6215 -0.0107 0.2490
H54 H 0.5886 0.0741 0.2121
C57 C 0.4582(2) -0.1577(5) 0.25944(14)
H55 H 0.4946 -0.2050 0.2458
H56 H 0.4216 -0.1537 0.2414
H57 H 0.4473 -0.2199 0.2828
C58 C 0.70503(19) 0.5636(4) 0.44000(10)
H58 H 0.6742 0.6135 0.4583
H59 H 0.7308 0.4886 0.4554
C59 C 0.7464(3) 0.6813(7) 0.42232(14)
H60 H 0.7695 0.7362 0.4434
H61 H 0.7206 0.7556 0.4073
H62 H 0.7770 0.6312 0.4045
C60 C 0.44490(14) 0.1213(3) 0.35083(8)
C61 C 0.66421(14) 0.3912(3) 0.32215(8)
C62 C 0.61554(16) 0.4096(3) 0.41722(9)
C63 C 0.50593(15) 0.2168(4) 0.34968(10)
C64 C 0.5489(2) 0.2588(3) 0.31980(13)
C65 C 0.60035(13) 0.3433(3) 0.34080(8)
C66 C 0.58447(14) 0.3458(3) 0.38076(8)
S2 S 0.17021(4) 0.40667(10) 0.14014(2)
N1 N 0.30193(17) 0.2837(4) 0.16085(10)
O5 O 0.34952(13) 0.1083(3) -0.01024(7)
O6 O 0.42477(10) 0.0218(2) 0.03316(6)
O7 O 0.45176(13) 0.2174(3) 0.13339(9)
O8 O 0.28307(12) 0.2435(2) 0.05258(8)
C1 C 0.16233(19) 0.6736(4) 0.07279(12)
H1 H 0.1230 0.6474 0.0850
C2 C 0.1706(2) 0.8215(4) 0.05718(13)
H2 H 0.1374 0.8957 0.0595
C3 C 0.2271(2) 0.8621(4) 0.03812(13)
H3 H 0.2321 0.9633 0.0273
C4 C 0.2765(2) 0.7532(4) 0.03489(17)
H4 H 0.3151 0.7795 0.0218
C5 C 0.26814(16) 0.6035(3) 0.05146(10)
H5 H 0.3016 0.5299 0.0494
C6 C 0.21136(14) 0.5610(3) 0.07085(8)
C7 C 0.14931(18) 0.3212(5) 0.01977(11)
H6 H 0.1823 0.3800 0.0077
C8 C 0.1045(3) 0.2472(5) -0.00406(16)
H7 H 0.1089 0.2509 -0.0321
C9 C 0.05334(18) 0.1677(4) 0.01280(12)
H8 H 0.0222 0.1198 -0.0036
C10 C 0.04856(17) 0.1596(4) 0.05406(12)
H9 H 0.0136 0.1067 0.0658
C11 C 0.0951(2) 0.2289(4) 0.07856(13)
H10 H 0.0915 0.2204 0.1066
C12 C 0.14676(14) 0.3108(4) 0.06192(9)
C13 C 0.38764(18) -0.1727(4) 0.11542(10)
H11 H 0.3457 -0.1458 0.1073
C14 C 0.4045(2) -0.3307(4) 0.11973(12)
H12 H 0.3738 -0.4093 0.1145
C15 C 0.4657(2) -0.3716(4) 0.13153(12)
H13 H 0.4767 -0.4777 0.1348
C16 C 0.5112(2) -0.2552(4) 0.13856(15)
H14 H 0.5534 -0.2830 0.1457
C17 C 0.49460(15) -0.0984(3) 0.13509(10)
H15 H 0.5252 -0.0205 0.1409
C18 C 0.43241(14) -0.0552(3) 0.12298(8)
C19 C 0.3146(2) 0.1515(5) 0.18879(10)
H16 H 0.3326 0.0633 0.1736
H17 H 0.3468 0.1843 0.2086
C20 C 0.2562(3) 0.0987(6) 0.2100(2)
H18 H 0.2669 0.0126 0.2278
H19 H 0.2245 0.0639 0.1905
H20 H 0.2387 0.1849 0.2255
C21 C 0.28609(17) 0.4332(4) 0.17683(10)
C22 C 0.23256(16) 0.5098(4) 0.16539(9)
C23 C 0.33408(19) 0.4971(5) 0.20740(11)
H21 H 0.3198 0.5992 0.2167
H22 H 0.3761 0.5071 0.1949
H23 H 0.3369 0.4257 0.2300
C24 C 0.21841(19) 0.6803(4) 0.17635(12)
H24 H 0.2555 0.7252 0.1898
H25 H 0.1814 0.6845 0.1940
H26 H 0.2094 0.7395 0.1521
C25 C 0.45852(19) -0.0601(4) 0.00079(10)
H27 H 0.4837 0.0148 -0.0151
H28 H 0.4274 -0.1113 -0.0170
C26 C 0.5012(3) -0.1775(7) 0.01872(14)
H29 H 0.5236 -0.2339 -0.0024
H30 H 0.4760 -0.2506 0.0345
H31 H 0.5323 -0.1257 0.0359
C27 C 0.19933(14) 0.3945(3) 0.08736(8)
C28 C 0.37113(15) 0.0974(3) 0.02350(9)
C29 C 0.41629(15) 0.1144(3) 0.11962(9)
C30 C 0.25997(15) 0.2966(4) 0.08926(9)
C31 C 0.3027(2) 0.2521(3) 0.11845(12)
C32 C 0.35377(14) 0.1661(3) 0.09970(8)
C33 C 0.33953(14) 0.1630(3) 0.05974(8)
loop_
_geom_bond_atom_site_label_1
_geom_bond_atom_site_label_2
_geom_bond_site_symmetry_1
_geom_bond_site_symmetry_2
S1 C55 1_555 1_555
S2 C22 1_555 1_555
N1 C19 1_555 1_555
N2 C52 1_555 1_555
O1 C62 1_555 1_555
O2 C58 1_555 1_555
O3 C61 1_555 1_555
O4 C63 1_555 1_555
O5 C28 1_555 1_555
O6 C25 1_555 1_555
O7 C29 1_555 1_555
O8 C30 1_555 1_555
C1 H1 1_555 1_555
C2 C1 1_555 1_555
H2 C2 1_555 1_555
C3 C2 1_555 1_555
H3 C3 1_555 1_555
C4 C3 1_555 1_555
H4 C4 1_555 1_555
C5 C4 1_555 1_555
H5 C5 1_555 1_555
C6 C1 1_555 1_555
C7 H6 1_555 1_555
C8 C7 1_555 1_555
H7 C8 1_555 1_555
C9 C8 1_555 1_555
H8 C9 1_555 1_555
C10 C9 1_555 1_555
H9 C10 1_555 1_555
C11 C10 1_555 1_555
H10 C11 1_555 1_555
C12 C7 1_555 1_555
C13 H11 1_555 1_555
C14 C13 1_555 1_555
H12 C14 1_555 1_555
C15 C14 1_555 1_555
H13 C15 1_555 1_555
C16 C15 1_555 1_555
H14 C16 1_555 1_555
C17 C16 1_555 1_555
H15 C17 1_555 1_555
C18 C13 1_555 1_555
C19 H16 1_555 1_555
H17 C19 1_555 1_555
C20 C19 1_555 1_555
H18 C20 1_555 1_555
H19 C20 1_555 1_555
H20 C20 1_555 1_555
C21 N1 1_555 1_555
C22 C21 1_555 1_555
C23 C21 1_555 1_555
H21 C23 1_555 1_555
H22 C23 1_555 1_555
H23 C23 1_555 1_555
C24 C22 1_555 1_555
H24 C24 1_555 1_555
H25 C24 1_555 1_555
H26 C24 1_555 1_555
C25 H27 1_555 1_555
H28 C25 1_555 1_555
C26 C25 1_555 1_555
H29 C26 1_555 1_555
H30 C26 1_555 1_555
H31 C26 1_555 1_555
C27 S2 1_555 1_555
C28 O6 1_555 1_555
C29 C18 1_555 1_555
C30 C27 1_555 1_555
C31 N1 1_555 1_555
C32 C29 1_555 1_555
C33 O8 1_555 1_555
C34 H32 1_555 1_555
C35 C34 1_555 1_555
H33 C35 1_555 1_555
C36 C35 1_555 1_555
H34 C36 1_555 1_555
C37 C36 1_555 1_555
H35 C37 1_555 1_555
C38 C37 1_555 1_555
H36 C38 1_555 1_555
C39 C34 1_555 1_555
C40 H37 1_555 1_555
C41 C40 1_555 1_555
H38 C41 1_555 1_555
C42 C41 1_555 1_555
H39 C42 1_555 1_555
C43 C42 1_555 1_555
H40 C43 1_555 1_555
C44 C43 1_555 1_555
H41 C44 1_555 1_555
C45 C40 1_555 1_555
C46 H42 1_555 1_555
C47 C46 1_555 1_555
H43 C47 1_555 1_555
C48 C47 1_555 1_555
H44 C48 1_555 1_555
C49 C48 1_555 1_555
H45 C49 1_555 1_555
C50 C49 1_555 1_555
H46 C50 1_555 1_555
C51 C46 1_555 1_555
C52 H47 1_555 1_555
H48 C52 1_555 1_555
C53 C52 1_555 1_555
H49 C53 1_555 1_555
H50 C53 1_555 1_555
H51 C53 1_555 1_555
C54 N2 1_555 1_555
C55 C54 1_555 1_555
C56 C54 1_555 1_555
H52 C56 1_555 1_555
H53 C56 1_555 1_555
H54 C56 1_555 1_555
C57 C55 1_555 1_555
H55 C57 1_555 1_555
H56 C57 1_555 1_555
H57 C57 1_555 1_555
C58 H58 1_555 1_555
H59 C58 1_555 1_555
C59 C58 1_555 1_555
H60 C59 1_555 1_555
H61 C59 1_555 1_555
H62 C59 1_555 1_555
C60 S1 1_555 1_555
C61 C51 1_555 1_555
C62 O2 1_555 1_555
C63 C60 1_555 1_555
C64 N2 1_555 1_555
C65 C61 1_555 1_555
C66 O4 1_555 1_555
C5 C6 1_555 1_555
C6 C27 1_555 1_555
C11 C12 1_555 1_555
C12 C27 1_555 1_555
C17 C18 1_555 1_555
C28 C33 1_555 1_555
C30 C31 1_555 1_555
C31 C32 1_555 1_555
C32 C33 1_555 1_555
C38 C39 1_555 1_555
C39 C60 1_555 1_555
C44 C45 1_555 1_555
C45 C60 1_555 1_555
C50 C51 1_555 1_555
C62 C66 1_555 1_555
C63 C64 1_555 1_555
C64 C65 1_555 1_555
C65 C66 1_555 1_555

#END
