
#######################################################################
#
#                 Cambridge Crystallographic Data Centre
#                                CCDC 
#
#######################################################################
#
# If this CIF has been generated from an entry in the Cambridge 
# Structural Database, then it will include bibliographic, chemical, 
# crystal, experimental, refinement or atomic coordinate data resulting 
# from the CCDC's data processing and validation procedures.
#
#######################################################################

data_GESKEV
_chemical_formula_moiety         'C45 H60 N4 O6 2+,2(I1 1-)'
_chemical_name_systematic        
'3\a,12\a-bis(O-(N~1~-methylbenzimidazolium)acetyl)deoxycholate diiodide'
_symmetry_cell_setting           orthorhombic
_symmetry_space_group_name_H-M   'P 21 21 21'
_symmetry_Int_Tables_number      19
_space_group_name_Hall           'P 2ac 2ab'
loop_
_symmetry_equiv_pos_site_id
_symmetry_equiv_pos_as_xyz
1 x,y,z
2 1/2-x,-y,1/2+z
3 -x,1/2+y,1/2-z
4 1/2+x,1/2-y,-z
_cell_length_a                   11.8167(16)
_cell_length_b                   13.4409(18)
_cell_length_c                   30.412(4)
_cell_angle_alpha                90
_cell_angle_beta                 90
_cell_angle_gamma                90
_cell_volume                     4830.25
_exptl_crystal_colour            colorless
_exptl_crystal_description       block
_chemical_melting_point          '180-182 deg.C'
_cell_formula_units_Z            4
_exptl_crystal_recrystallization_method methanol/hexane
loop_
_atom_site_label
_atom_site_type_symbol
_atom_site_fract_x
_atom_site_fract_y
_atom_site_fract_z
I1 I 0.21717(6) 0.36234(6) 0.18756(4)
I2 I 0.69842(14) 0.0718(2) 0.18685(9)
O1 O -0.5473(11) -0.2942(8) 0.1023(3)
O2 O -0.3991(11) -0.3398(16) 0.1309(5)
O3 O 0.4737(5) 0.2361(4) 0.11331(14)
O4 O 0.5208(6) 0.3962(5) 0.10224(16)
O5 O 0.0262(4) 0.0627(3) 0.09798(13)
O6 O -0.0576(6) 0.2118(4) 0.1018(2)
N1 N 0.5794(4) 0.4162(4) 0.18939(17)
N2 N 0.5976(5) 0.5635(4) 0.21755(17)
N3 N 0.0611(5) 0.0478(5) 0.18239(16)
N4 N 0.0649(6) -0.1045(5) 0.2057(2)
C1 C -0.6184(15) -0.3681(12) 0.1190(5)
H1 H -0.5859 -0.4323 0.1134
H2 H -0.6910 -0.3639 0.1050
H3 H -0.6273 -0.3589 0.1501
C2 C -0.4342(13) -0.2903(9) 0.1083(3)
C3 C -0.3823(14) -0.2068(12) 0.0861(5)
H4 H -0.4194 -0.1460 0.0954
H5 H -0.3935 -0.2138 0.0547
C4 C -0.2619(11) -0.1992(9) 0.0952(4)
H6 H -0.2519 -0.1778 0.1254
H7 H -0.2283 -0.2648 0.0924
C5 C -0.2016(14) -0.1308(11) 0.0665(4)
H8 H -0.2175 -0.1508 0.0362
C6 C -0.2411(16) -0.037(2) 0.0717(10)
H9 H -0.3184 -0.0345 0.0622
H10 H -0.1963 0.0076 0.0545
H11 H -0.2366 -0.0191 0.1022
C7 C -0.0684(10) -0.1272(7) 0.0721(3)
H12 H -0.0550 -0.1049 0.1023
C8 C -0.0067(14) -0.2277(7) 0.0679(3)
H13 H -0.0009 -0.2592 0.0965
H14 H -0.0485 -0.2717 0.0485
C9 C 0.1062(13) -0.2092(6) 0.0501(3)
H15 H 0.1115 -0.2343 0.0202
H16 H 0.1631 -0.2422 0.0679
C10 C 0.1244(9) -0.0987(6) 0.0507(2)
H17 H 0.1423 -0.0818 0.0813
C11 C 0.0060(9) -0.0593(6) 0.0426(2)
C12 C -0.0279(12) -0.0807(10) -0.0066(2)
H18 H 0.0271 -0.0515 -0.0259
H19 H -0.1010 -0.0525 -0.0125
H20 H -0.0306 -0.1513 -0.0114
C13 C 0.0022(7) 0.0510(6) 0.0504(2)
H21 H -0.0732 0.0770 0.0434
C14 C 0.0904(7) 0.1060(6) 0.0248(2)
H22 H 0.0911 0.1748 0.0345
H23 H 0.0692 0.1055 -0.0060
C15 C 0.2094(7) 0.0642(5) 0.0290(2)
H24 H 0.2315 0.0759 0.0597
C16 C 0.2135(9) -0.0476(6) 0.0230(3)
H25 H 0.1967 -0.0619 -0.0080
C17 C 0.3296(11) -0.0869(8) 0.0326(3)
H26 H 0.3320 -0.1569 0.0250
H27 H 0.3437 -0.0813 0.0639
C18 C 0.4273(11) -0.0311(9) 0.0070(3)
H28 H 0.5001 -0.0523 0.0183
H29 H 0.4239 -0.0484 -0.0239
C19 C 0.4155(10) 0.0817(8) 0.0123(2)
H30 H 0.4680 0.1125 -0.0087
C20 C 0.2973(9) 0.1201(7) 0.0012(2)
C21 C 0.2738(11) 0.1081(10) -0.0491(2)
H31 H 0.3361 0.1348 -0.0655
H32 H 0.2058 0.1432 -0.0567
H33 H 0.2649 0.0388 -0.0560
C22 C 0.2993(9) 0.2312(6) 0.0090(2)
H34 H 0.2251 0.2579 0.0023
H35 H 0.3527 0.2610 -0.0113
C23 C 0.3319(8) 0.2632(6) 0.0567(3)
H36 H 0.3331 0.3352 0.0590
H37 H 0.2772 0.2375 0.0776
C24 C 0.4448(7) 0.2223(7) 0.0659(2)
H38 H 0.5009 0.2568 0.0478
C25 C 0.4553(8) 0.1121(7) 0.0588(3)
H39 H 0.4102 0.0774 0.0806
H40 H 0.5336 0.0924 0.0628
C26 C 0.5085(6) 0.3259(6) 0.1253(2)
C27 C 0.5279(6) 0.3262(5) 0.1742(2)
H41 H 0.4560 0.3174 0.1890
H42 H 0.5761 0.2704 0.1819
C28 C 0.5272(6) 0.4899(6) 0.2082(2)
H43 H 0.4502 0.4908 0.2144
C29 C 0.6958(5) 0.4400(5) 0.1861(2)
C30 C 0.7857(6) 0.3888(6) 0.1684(2)
H44 H 0.7772 0.3267 0.1554
C31 C 0.8878(7) 0.4351(7) 0.1714(3)
H45 H 0.9517 0.4032 0.1604
C32 C 0.8997(7) 0.5307(8) 0.1906(3)
H46 H 0.9712 0.5595 0.1922
C33 C 0.8103(7) 0.5803(6) 0.2065(2)
H47 H 0.8183 0.6438 0.2183
C34 C 0.7065(6) 0.5344(5) 0.20472(19)
C35 C 0.5703(9) 0.6607(7) 0.2376(3)
H48 H 0.4899 0.6661 0.2415
H49 H 0.5963 0.7132 0.2188
H50 H 0.6070 0.6659 0.2657
C36 C -0.0105(6) 0.1448(6) 0.1176(2)
C37 C 0.0140(6) 0.1425(5) 0.1661(2)
H51 H 0.0669 0.1955 0.1729
H52 H -0.0556 0.1562 0.1819
C38 C 0.0016(7) -0.0266(6) 0.1969(2)
H53 H -0.0765 -0.0249 0.2005
C39 C 0.1749(6) -0.0793(5) 0.1947(2)
C40 C 0.2708(8) -0.1323(6) 0.1980(2)
H54 H 0.2705 -0.1979 0.2077
C41 C 0.3705(7) -0.0845(7) 0.1860(2)
H55 H 0.4394 -0.1176 0.1885
C42 C 0.3672(7) 0.0147(7) 0.1700(2)
H56 H 0.4342 0.0456 0.1615
C43 C 0.2694(6) 0.0647(5) 0.1670(2)
H57 H 0.2670 0.1296 0.1564
C44 C 0.1742(6) 0.0170(5) 0.17989(18)
C45 C 0.0300(10) -0.1967(7) 0.2236(4)
H58 H -0.0248 -0.1851 0.2464
H59 H 0.0943 -0.2306 0.2357
H60 H -0.0033 -0.2368 0.2009
I3? I 0.72145(13) 0.11948(10) 0.22022(7)
loop_
_geom_bond_atom_site_label_1
_geom_bond_atom_site_label_2
_geom_bond_site_symmetry_1
_geom_bond_site_symmetry_2
O1 C1 1_555 1_555
O2 C2 1_555 1_555
O3 C24 1_555 1_555
O4 C26 1_555 1_555
O5 C13 1_555 1_555
O6 C36 1_555 1_555
N1 C27 1_555 1_555
N2 C28 1_555 1_555
N3 C37 1_555 1_555
N4 C38 1_555 1_555
C1 H1 1_555 1_555
H2 C1 1_555 1_555
H3 C1 1_555 1_555
C2 O1 1_555 1_555
C3 C2 1_555 1_555
H4 C3 1_555 1_555
H5 C3 1_555 1_555
C4 C3 1_555 1_555
H6 C4 1_555 1_555
H7 C4 1_555 1_555
C5 C4 1_555 1_555
H8 C5 1_555 1_555
C6 C5 1_555 1_555
H9 C6 1_555 1_555
H10 C6 1_555 1_555
H11 C6 1_555 1_555
C7 C5 1_555 1_555
H12 C7 1_555 1_555
C8 C7 1_555 1_555
H13 C8 1_555 1_555
H14 C8 1_555 1_555
C9 C8 1_555 1_555
H15 C9 1_555 1_555
H16 C9 1_555 1_555
C10 C9 1_555 1_555
H17 C10 1_555 1_555
C11 C7 1_555 1_555
C12 C11 1_555 1_555
H18 C12 1_555 1_555
H19 C12 1_555 1_555
H20 C12 1_555 1_555
C13 C11 1_555 1_555
H21 C13 1_555 1_555
C14 C13 1_555 1_555
H22 C14 1_555 1_555
H23 C14 1_555 1_555
C15 C14 1_555 1_555
H24 C15 1_555 1_555
C16 C10 1_555 1_555
H25 C16 1_555 1_555
C17 C16 1_555 1_555
H26 C17 1_555 1_555
H27 C17 1_555 1_555
C18 C17 1_555 1_555
H28 C18 1_555 1_555
H29 C18 1_555 1_555
C19 C18 1_555 1_555
H30 C19 1_555 1_555
C20 C15 1_555 1_555
C21 C20 1_555 1_555
H31 C21 1_555 1_555
H32 C21 1_555 1_555
H33 C21 1_555 1_555
C22 C20 1_555 1_555
H34 C22 1_555 1_555
H35 C22 1_555 1_555
C23 C22 1_555 1_555
H36 C23 1_555 1_555
H37 C23 1_555 1_555
C24 C23 1_555 1_555
H38 C24 1_555 1_555
C25 C19 1_555 1_555
H39 C25 1_555 1_555
H40 C25 1_555 1_555
C26 O3 1_555 1_555
C27 C26 1_555 1_555
H41 C27 1_555 1_555
H42 C27 1_555 1_555
C28 N1 1_555 1_555
H43 C28 1_555 1_555
C29 N1 1_555 1_555
C30 C29 1_555 1_555
H44 C30 1_555 1_555
C31 C30 1_555 1_555
H45 C31 1_555 1_555
C32 C31 1_555 1_555
H46 C32 1_555 1_555
C33 C32 1_555 1_555
H47 C33 1_555 1_555
C34 N2 1_555 1_555
C35 N2 1_555 1_555
H48 C35 1_555 1_555
H49 C35 1_555 1_555
H50 C35 1_555 1_555
C36 O5 1_555 1_555
C37 C36 1_555 1_555
H51 C37 1_555 1_555
H52 C37 1_555 1_555
C38 N3 1_555 1_555
H53 C38 1_555 1_555
C39 N4 1_555 1_555
C40 C39 1_555 1_555
H54 C40 1_555 1_555
C41 C40 1_555 1_555
H55 C41 1_555 1_555
C42 C41 1_555 1_555
H56 C42 1_555 1_555
C43 C42 1_555 1_555
H57 C43 1_555 1_555
C44 N3 1_555 1_555
C45 N4 1_555 1_555
H58 C45 1_555 1_555
H59 C45 1_555 1_555
H60 C45 1_555 1_555
C10 C11 1_555 1_555
C15 C16 1_555 1_555
C19 C20 1_555 1_555
C24 C25 1_555 1_555
C29 C34 1_555 1_555
C33 C34 1_555 1_555
C39 C44 1_555 1_555
C43 C44 1_555 1_555

#END
