
#######################################################################
#
#                 Cambridge Crystallographic Data Centre
#                                CCDC 
#
#######################################################################
#
# If this CIF has been generated from an entry in the Cambridge 
# Structural Database, then it will include bibliographic, chemical, 
# crystal, experimental, refinement or atomic coordinate data resulting 
# from the CCDC's data processing and validation procedures.
#
#######################################################################

data_GESKOF
_chemical_formula_moiety         'C31 H46 N2 S1,C1 H2 Cl2'
_chemical_name_systematic        
'1,3-bis(2,5-Di-t-butylphenyl)imidazolidine-2-thione dichloromethane solvate'
_symmetry_cell_setting           triclinic
_symmetry_space_group_name_H-M   'P -1'
_symmetry_Int_Tables_number      2
_space_group_name_Hall           '-P 1'
loop_
_symmetry_equiv_pos_site_id
_symmetry_equiv_pos_as_xyz
1 x,y,z
2 -x,-y,-z
_cell_length_a                   6.9660(14)
_cell_length_b                   12.284(3)
_cell_length_c                   19.940(4)
_cell_angle_alpha                95.76(3)
_cell_angle_beta                 92.36(3)
_cell_angle_gamma                97.40(3)
_cell_volume                     1680.99
_exptl_crystal_colour            colorless
_exptl_crystal_description       prism
_cell_formula_units_Z            2
loop_
_atom_site_label
_atom_site_type_symbol
_atom_site_fract_x
_atom_site_fract_y
_atom_site_fract_z
S1 S 0.03659(13) 0.98083(8) 0.25082(6)
N1 N 0.1685(3) 0.7842(2) 0.23078(14)
N2 N 0.3992(4) 0.9251(2) 0.25699(14)
C1 C 0.2040(5) 0.8964(3) 0.24637(16)
C2 C 0.3483(5) 0.7360(3) 0.2436(2)
H1 H 0.3581 0.6728 0.2113
H2 H 0.3569 0.7143 0.2890
C3 C 0.5003(5) 0.8315(3) 0.23455(19)
H3 H 0.6171 0.8304 0.2626
H4 H 0.5330 0.8323 0.1878
C4 C -0.0097(5) 0.7178(3) 0.24248(18)
C5 C -0.1319(5) 0.6593(3) 0.19000(17)
C6 C -0.2844(5) 0.5868(3) 0.21111(19)
H5 H -0.3698 0.5450 0.1784
C7 C -0.3136(5) 0.5747(3) 0.27749(19)
H6 H -0.4152 0.5233 0.2878
C8 C -0.1978(5) 0.6358(3) 0.33025(18)
C9 C -0.0472(5) 0.7075(3) 0.31024(18)
H7 H 0.0336 0.7513 0.3434
C10 C -0.1026(5) 0.6683(3) 0.11460(18)
C11 C 0.0696(7) 0.6132(5) 0.0919(2)
H8 H 0.1867 0.6543 0.1131
H9 H 0.0749 0.6111 0.0438
H10 H 0.0563 0.5393 0.1045
C12 C -0.2825(7) 0.6121(4) 0.0708(2)
H11 H -0.2661 0.6254 0.0246
H12 H -0.3955 0.6420 0.0863
H13 H -0.2979 0.5341 0.0741
C13 C -0.0770(7) 0.7883(3) 0.0987(2)
H14 H 0.0441 0.8256 0.1190
H15 H -0.1814 0.8243 0.1163
H16 H -0.0778 0.7902 0.0506
C14 C -0.2332(5) 0.6220(3) 0.40387(18)
C15 C -0.2206(8) 0.5030(4) 0.4167(3)
H17 H -0.3064 0.4541 0.3849
H18 H -0.2575 0.4923 0.4617
H19 H -0.0901 0.4875 0.4118
C16 C -0.4392(7) 0.6454(4) 0.4187(2)
H20 H -0.4489 0.7218 0.4149
H21 H -0.4670 0.6290 0.4637
H22 H -0.5305 0.6001 0.3870
C17 C -0.0922(8) 0.6974(5) 0.4517(2)
H23 H 0.0364 0.6797 0.4452
H24 H -0.1250 0.6883 0.4973
H25 H -0.0979 0.7725 0.4432
C18 C 0.4950(4) 1.0351(3) 0.25120(18)
C19 C 0.5804(5) 1.1056(3) 0.30657(17)
C20 C 0.6757(5) 1.2055(3) 0.29025(19)
H26 H 0.7351 1.2559 0.3252
C21 C 0.6871(5) 1.2340(3) 0.22455(19)
H27 H 0.7509 1.3026 0.2170
C22 C 0.6050(5) 1.1620(3) 0.17075(18)
C23 C 0.5087(5) 1.0629(3) 0.18602(18)
H28 H 0.4504 1.0126 0.1508
C24 C 0.5785(6) 1.0799(3) 0.38019(18)
C25 C 0.6668(10) 0.9767(5) 0.3900(3)
H29 H 0.5691 0.9136 0.3810
H30 H 0.7189 0.9807 0.4356
H31 H 0.7688 0.9698 0.3595
C26 C 0.3684(7) 1.0649(5) 0.4029(2)
H32 H 0.3107 1.1305 0.3973
H33 H 0.3691 1.0518 0.4496
H34 H 0.2948 1.0032 0.3760
C27 C 0.6910(9) 1.1713(5) 0.4280(2)
H35 H 0.8226 1.1838 0.4151
H36 H 0.6893 1.1505 0.4732
H37 H 0.6328 1.2377 0.4262
C28 C 0.6255(7) 1.1859(4) 0.0975(2)
C29 C 0.7664(10) 1.1142(6) 0.0661(3)
H38 H 0.7799 1.1275 0.0198
H39 H 0.7183 1.0378 0.0683
H40 H 0.8904 1.1317 0.0903
C30 C 0.4336(11) 1.1526(6) 0.0559(3)
H41 H 0.3370 1.1940 0.0746
H42 H 0.3924 1.0752 0.0570
H43 H 0.4510 1.1677 0.0101
C31 C 0.6925(12) 1.3050(5) 0.0907(3)
H44 H 0.6159 1.3504 0.1175
H45 H 0.6781 1.3181 0.0443
H46 H 0.8263 1.3226 0.1061
C32 C 0.2038(7) 0.2927(4) 0.2635(3)
H47 H 0.0899 0.2381 0.2540
H48 H 0.3170 0.2551 0.2570
Cl1 Cl 0.2011(3) 0.38935(19) 0.20729(15)
Cl2 Cl 0.2078(3) 0.34769(18) 0.34554(13)
loop_
_geom_bond_atom_site_label_1
_geom_bond_atom_site_label_2
_geom_bond_site_symmetry_1
_geom_bond_site_symmetry_2
S1 C1 1_555 1_555
N1 C1 1_555 1_555
N2 C1 1_555 1_555
C2 N1 1_555 1_555
H1 C2 1_555 1_555
H2 C2 1_555 1_555
C3 N2 1_555 1_555
H3 C3 1_555 1_555
H4 C3 1_555 1_555
C4 N1 1_555 1_555
C5 C4 1_555 1_555
C6 C5 1_555 1_555
H5 C6 1_555 1_555
C7 C6 1_555 1_555
H6 C7 1_555 1_555
C8 C7 1_555 1_555
C9 C4 1_555 1_555
H7 C9 1_555 1_555
C10 C5 1_555 1_555
C11 C10 1_555 1_555
H8 C11 1_555 1_555
H9 C11 1_555 1_555
H10 C11 1_555 1_555
C12 C10 1_555 1_555
H11 C12 1_555 1_555
H12 C12 1_555 1_555
H13 C12 1_555 1_555
C13 C10 1_555 1_555
H14 C13 1_555 1_555
H15 C13 1_555 1_555
H16 C13 1_555 1_555
C14 C8 1_555 1_555
C15 C14 1_555 1_555
H17 C15 1_555 1_555
H18 C15 1_555 1_555
H19 C15 1_555 1_555
C16 C14 1_555 1_555
H20 C16 1_555 1_555
H21 C16 1_555 1_555
H22 C16 1_555 1_555
C17 C14 1_555 1_555
H23 C17 1_555 1_555
H24 C17 1_555 1_555
H25 C17 1_555 1_555
C18 N2 1_555 1_555
C19 C18 1_555 1_555
C20 C19 1_555 1_555
H26 C20 1_555 1_555
C21 C20 1_555 1_555
H27 C21 1_555 1_555
C22 C21 1_555 1_555
C23 C18 1_555 1_555
H28 C23 1_555 1_555
C24 C19 1_555 1_555
C25 C24 1_555 1_555
H29 C25 1_555 1_555
H30 C25 1_555 1_555
H31 C25 1_555 1_555
C26 C24 1_555 1_555
H32 C26 1_555 1_555
H33 C26 1_555 1_555
H34 C26 1_555 1_555
C27 C24 1_555 1_555
H35 C27 1_555 1_555
H36 C27 1_555 1_555
H37 C27 1_555 1_555
C28 C22 1_555 1_555
C29 C28 1_555 1_555
H38 C29 1_555 1_555
H39 C29 1_555 1_555
H40 C29 1_555 1_555
C30 C28 1_555 1_555
H41 C30 1_555 1_555
H42 C30 1_555 1_555
H43 C30 1_555 1_555
C31 C28 1_555 1_555
H44 C31 1_555 1_555
H45 C31 1_555 1_555
H46 C31 1_555 1_555
C32 H47 1_555 1_555
H48 C32 1_555 1_555
Cl1 C32 1_555 1_555
Cl2 C32 1_555 1_555
C2 C3 1_555 1_555
C8 C9 1_555 1_555
C22 C23 1_555 1_555

#END
