
#######################################################################
#
#                 Cambridge Crystallographic Data Centre
#                                CCDC 
#
#######################################################################
#
# If this CIF has been generated from an entry in the Cambridge 
# Structural Database, then it will include bibliographic, chemical, 
# crystal, experimental, refinement or atomic coordinate data resulting 
# from the CCDC's data processing and validation procedures.
#
#######################################################################

data_GESLIC
_chemical_formula_moiety         'C92 H98 Mg2 N10 O2 S1,C1 H2 Cl2'
_chemical_name_systematic        
'{\m-2,8,12,18-tetraethyl-3,7,13,17-tetramethyl-5-[6-(2,8,12,18-tetraethyl-3,7,13,17-tetramethylporphyrin-5-yl)dibenzo[b,d]thiophen-4-yl]porphyrinato}-bis((S)-2-amino-2-phenylethan-1-ol)-di-magnesium dichloromethane solvate'
_symmetry_cell_setting           orthorhombic
_symmetry_space_group_name_H-M   'P 21 21 21'
_symmetry_Int_Tables_number      19
_space_group_name_Hall           'P 2ac 2ab'
loop_
_symmetry_equiv_pos_site_id
_symmetry_equiv_pos_as_xyz
1 x,y,z
2 1/2-x,-y,1/2+z
3 1/2+x,1/2-y,-z
4 -x,1/2+y,1/2-z
_cell_length_a                   13.3828(16)
_cell_length_b                   23.917(3)
_cell_length_c                   25.113(3)
_cell_angle_alpha                90
_cell_angle_beta                 90
_cell_angle_gamma                90
_cell_volume                     8038.08
_exptl_crystal_colour            'dark red'
_exptl_crystal_description       block
_cell_formula_units_Z            4
loop_
_atom_site_label
_atom_site_type_symbol
_atom_site_fract_x
_atom_site_fract_y
_atom_site_fract_z
Mg1 Mg 0.47564(18) 0.99911(11) 0.08565(9)
Mg2 Mg 0.46248(17) 1.00370(10) 0.40789(9)
S1 S 0.52703(12) 1.15541(7) 0.24809(7)
O1 O 0.4841(4) 0.9748(2) 0.16441(18)
O2 O 0.4614(4) 0.9834(2) 0.32772(18)
N1 N 0.3801(4) 1.0769(3) 0.3967(2)
N2 N 0.6045(4) 1.0470(3) 0.0888(2)
N3 N 0.5556(4) 0.9369(3) 0.0463(2)
N4 N 0.3343(4) 0.9646(3) 0.4367(2)
N5 N 0.5451(5) 0.9407(3) 0.4454(2)
N6 N 0.3456(5) 0.9601(3) 0.0582(2)
N7 N 0.3937(4) 1.0708(3) 0.1008(2)
N8 N 0.5919(4) 1.0515(3) 0.4016(2)
N9 N 0.6098(4) 1.0057(2) 0.2532(2)
H1 H 0.6277 1.0020 0.2868
H2 H 0.5726 1.0343 0.2435
N10 N 0.3631(5) 1.0297(3) 0.2346(2)
H3 H 0.3452 1.0284 0.2009
H4 H 0.4140 1.0506 0.2444
C1 C 0.4142(6) 1.1269(3) 0.3784(3)
C2 C 0.6139(6) 1.0975(3) 0.1135(3)
C3 C 0.7201(6) 1.1093(4) 0.1249(3)
C4 C 0.3291(6) 1.1645(3) 0.3682(3)
C5 C 0.2451(6) 1.1349(3) 0.3800(3)
C6 C 0.7717(6) 1.0649(4) 0.1051(3)
C7 C 0.2783(6) 1.0799(3) 0.3982(3)
C8 C 0.6997(5) 1.0264(3) 0.0830(3)
C9 C 0.7219(6) 0.9748(4) 0.0598(3)
H5 H 0.7911 0.9673 0.0553
C10 C 0.2140(5) 1.0379(3) 0.4138(3)
H6 H 0.1448 1.0465 0.4121
C11 C 0.2375(5) 0.9841(3) 0.4318(3)
C12 C 0.6593(6) 0.9334(4) 0.0426(3)
C13 C 0.1682(6) 0.9428(3) 0.4503(3)
C14 C 0.6873(6) 0.8814(3) 0.0178(3)
C15 C 0.2227(6) 0.8974(3) 0.4658(3)
C16 C 0.6012(7) 0.8537(4) 0.0063(3)
C17 C 0.3263(6) 0.9124(3) 0.4587(3)
C18 C 0.5203(6) 0.8885(3) 0.0246(3)
C19 C 0.4079(6) 0.8802(3) 0.4745(3)
H7 H 0.3932 0.8455 0.4911
C20 C 0.4192(7) 0.8754(4) 0.0210(3)
H8 H 0.4033 0.8400 0.0060
C21 C 0.5096(5) 0.8936(3) 0.4684(3)
C22 C 0.3375(6) 0.9088(3) 0.0370(3)
C23 C 0.2320(6) 0.8936(4) 0.0303(3)
C24 C 0.6781(6) 0.8859(4) 0.4733(3)
C25 C 0.1785(6) 0.9380(4) 0.0447(3)
C26 C 0.2496(6) 0.9802(4) 0.0636(3)
C27 C 0.6477(6) 0.9373(3) 0.4482(3)
C28 C 0.7120(6) 0.9790(4) 0.4288(3)
H9 H 0.7815 0.9712 0.4310
C29 C 0.2256(6) 1.0318(4) 0.0832(3)
H10 H 0.1562 1.0396 0.0856
C30 C 0.6865(5) 1.0301(3) 0.4067(3)
C31 C 0.2889(6) 1.0748(3) 0.1002(3)
C32 C 0.7579(5) 1.0701(4) 0.3868(3)
C33 C 0.2603(6) 1.1284(4) 0.1177(3)
C34 C 0.7063(6) 1.1151(4) 0.3695(3)
C35 C 0.3429(6) 1.1592(4) 0.1292(3)
C36 C 0.4283(6) 1.1221(4) 0.1183(3)
C37 C 0.5996(6) 1.1036(3) 0.3802(3)
C38 C 0.5186(5) 1.1399(3) 0.3715(3)
C39 C 0.5313(6) 1.1339(3) 0.1243(3)
C40 C 0.3280(7) 1.2245(4) 0.3490(4)
H11 H 0.2596 1.2390 0.3506
H12 H 0.3521 1.2260 0.3122
H13 H 0.3715 1.2472 0.3717
C41 C 0.7687(6) 1.1557(4) 0.1542(4)
H14 H 0.8398 1.1472 0.1591
H15 H 0.7368 1.1602 0.1890
H16 H 0.7618 1.1904 0.1338
C42 C 0.1392(6) 1.1542(4) 0.3770(3)
H17 H 0.1354 1.1934 0.3893
H18 H 0.0979 1.1311 0.4013
C43 C 0.8842(6) 1.0560(4) 0.1078(3)
H19 H 0.9187 1.0923 0.1031
H20 H 0.9054 1.0309 0.0786
C44 C 0.9145(7) 1.0303(5) 0.1617(4)
H21 H 0.9875 1.0276 0.1637
H22 H 0.8853 0.9929 0.1649
H23 H 0.8900 1.0541 0.1907
C45 C 0.0972(7) 1.1504(5) 0.3216(4)
H24 H 0.0249 1.1568 0.3227
H25 H 0.1104 1.1131 0.3070
H26 H 0.1288 1.1787 0.2990
C46 C 0.0548(5) 0.9474(4) 0.4515(3)
H27 H 0.0294 0.9295 0.4843
H28 H 0.0359 0.9874 0.4527
C47 C 0.7919(7) 0.8605(4) 0.0069(3)
H29 H 0.8383 0.8928 0.0057
H30 H 0.7935 0.8420 -0.0284
C48 C 0.8272(7) 0.8193(4) 0.0494(4)
H31 H 0.8983 0.8114 0.0443
H32 H 0.7889 0.7845 0.0464
H33 H 0.8168 0.8356 0.0848
C49 C 0.0061(6) 0.9205(4) 0.4038(3)
H34 H -0.0661 0.9274 0.4048
H35 H 0.0186 0.8801 0.4044
H36 H 0.0341 0.9365 0.3711
C50 C 0.1849(6) 0.8423(3) 0.4865(3)
H37 H 0.1203 0.8479 0.5041
H38 H 0.2330 0.8270 0.5121
H39 H 0.1769 0.8162 0.4568
C51 C 0.5892(8) 0.7988(4) -0.0202(4)
H40 H 0.6515 0.7887 -0.0382
H41 H 0.5350 0.8011 -0.0464
H42 H 0.5729 0.7703 0.0065
C52 C 0.7554(6) 1.1654(4) 0.3448(3)
H43 H 0.8282 1.1612 0.3466
H44 H 0.7353 1.1991 0.3641
H45 H 0.7348 1.1686 0.3075
C53 C 0.5913(6) 0.8585(3) 0.4866(3)
C54 C 0.1938(7) 0.8384(4) 0.0117(4)
H46 H 0.1219 0.8412 0.0046
H47 H 0.2056 0.8102 0.0393
H48 H 0.2287 0.8276 -0.0210
C55 C 0.0646(7) 0.9469(4) 0.0397(4)
H49 H 0.0497 0.9874 0.0384
H50 H 0.0402 0.9297 0.0063
C56 C 0.5798(7) 0.8035(3) 0.5151(3)
H51 H 0.6421 0.7945 0.5338
H52 H 0.5649 0.7740 0.4892
H53 H 0.5251 0.8062 0.5409
C57 C 0.7835(6) 0.8673(4) 0.4862(3)
H54 H 0.8296 0.8991 0.4802
H55 H 0.7870 0.8574 0.5244
C58 C 0.0117(8) 0.9208(6) 0.0867(6)
H56 H -0.0606 0.9257 0.0828
H57 H 0.0341 0.9389 0.1197
H58 H 0.0274 0.8808 0.0883
C59 C 0.1521(6) 1.1480(4) 0.1232(3)
H59 H 0.1477 1.1881 0.1138
H60 H 0.1094 1.1268 0.0982
C60 C 0.8193(7) 0.8179(4) 0.4537(3)
H61 H 0.8840 0.8051 0.4673
H62 H 0.8265 0.8291 0.4163
H63 H 0.7705 0.7874 0.4563
C61 C 0.8692(5) 1.0603(4) 0.3831(3)
H64 H 0.9047 1.0961 0.3893
H65 H 0.8898 1.0338 0.4113
C62 C 0.1145(7) 1.1395(5) 0.1795(4)
H66 H 0.0475 1.1557 0.1829
H67 H 0.1599 1.1580 0.2046
H68 H 0.1117 1.0994 0.1874
C63 C 0.3417(6) 1.2185(4) 0.1456(3)
H69 H 0.2733 1.2330 0.1433
H70 H 0.3853 1.2402 0.1220
H71 H 0.3656 1.2217 0.1824
C64 C 0.8989(7) 1.0372(4) 0.3296(4)
H72 H 0.9701 1.0276 0.3300
H73 H 0.8864 1.0653 0.3020
H74 H 0.8594 1.0036 0.3220
C65 C 0.5414(5) 1.1969(3) 0.3514(3)
C66 C 0.5583(6) 1.1909(3) 0.1439(3)
C67 C 0.5567(5) 1.2029(3) 0.1979(3)
C68 C 0.5500(5) 1.2062(3) 0.2969(3)
C69 C 0.5783(5) 1.2581(3) 0.2757(3)
C70 C 0.5825(6) 1.2557(3) 0.2178(3)
C71 C 0.5978(6) 1.3008(4) 0.3105(3)
H75 H 0.6164 1.3365 0.2973
C72 C 0.6092(7) 1.2977(3) 0.1823(3)
H76 H 0.6266 1.3338 0.1951
C73 C 0.5903(7) 1.2921(4) 0.3642(3)
H77 H 0.6046 1.3218 0.3881
C74 C 0.6105(8) 1.2868(4) 0.1281(4)
H78 H 0.6281 1.3154 0.1035
C75 C 0.5855(7) 1.2332(4) 0.1099(3)
H79 H 0.5875 1.2258 0.0727
C76 C 0.5627(6) 1.2411(4) 0.3839(3)
H80 H 0.5582 1.2362 0.4214
C77 C 0.5524(5) 0.9372(3) 0.1871(3)
H81 H 0.5766 0.9117 0.1588
H82 H 0.5169 0.9142 0.2139
C78 C 0.3781(5) 0.9570(3) 0.3023(3)
H83 H 0.3391 0.9364 0.3295
H84 H 0.4035 0.9293 0.2763
C79 C 0.6422(5) 0.9644(3) 0.2136(3)
H85 H 0.6824 0.9840 0.1857
C80 C 0.3090(6) 0.9977(4) 0.2736(3)
H86 H 0.2800 1.0241 0.3004
C81 C 0.7052(4) 0.9187(2) 0.23760(18)
C82 C 0.7695(4) 0.8884(2) 0.20509(18)
H87 H 0.7776 0.8986 0.1688
C83 C 0.8221(4) 0.8432(2) 0.2257(3)
H88 H 0.8661 0.8225 0.2035
C84 C 0.8104(5) 0.8283(2) 0.2788(3)
H89 H 0.8463 0.7974 0.2929
C85 C 0.7461(5) 0.8585(3) 0.31134(19)
H90 H 0.7380 0.8483 0.3476
C86 C 0.6935(4) 0.9037(2) 0.29073(18)
H91 H 0.6495 0.9244 0.3129
C87 C 0.2253(3) 0.9653(2) 0.2484(2)
C88 C 0.1322(4) 0.9642(2) 0.2729(2)
H92 H 0.1198 0.9871 0.3031
C89 C 0.0574(3) 0.9296(3) 0.2533(2)
H93 H -0.0062 0.9288 0.2700
C90 C 0.0756(3) 0.8961(2) 0.2091(2)
H94 H 0.0244 0.8724 0.1957
C91 C 0.1687(4) 0.8972(2) 0.18455(19)
H95 H 0.1811 0.8743 0.1544
C92 C 0.2435(3) 0.9318(2) 0.2042(2)
H96 H 0.3072 0.9326 0.1874
C93 C 0.1106(11) 0.7898(6) 0.3055(6)
H97 H 0.1822 0.7860 0.3147
H98 H 0.0973 0.8297 0.2979
Cl1 Cl 0.0411(3) 0.76941(16) 0.35717(14)
Cl2 Cl 0.0839(4) 0.74865(15) 0.24671(15)
loop_
_geom_bond_atom_site_label_1
_geom_bond_atom_site_label_2
_geom_bond_site_symmetry_1
_geom_bond_site_symmetry_2
Mg1 O1 1_555 1_555
Mg2 O2 1_555 1_555
S1 C67 1_555 1_555
O1 C77 1_555 1_555
O2 C78 1_555 1_555
N1 Mg2 1_555 1_555
N2 Mg1 1_555 1_555
N3 Mg1 1_555 1_555
N4 Mg2 1_555 1_555
N5 Mg2 1_555 1_555
N6 Mg1 1_555 1_555
N7 Mg1 1_555 1_555
N8 Mg2 1_555 1_555
N9 H1 1_555 1_555
H2 N9 1_555 1_555
N10 H3 1_555 1_555
H4 N10 1_555 1_555
C1 N1 1_555 1_555
C2 N2 1_555 1_555
C3 C2 1_555 1_555
C4 C1 1_555 1_555
C5 C4 1_555 1_555
C6 C3 1_555 1_555
C7 N1 1_555 1_555
C8 N2 1_555 1_555
C9 C8 1_555 1_555
H5 C9 1_555 1_555
C10 C7 1_555 1_555
H6 C10 1_555 1_555
C11 N4 1_555 1_555
C12 N3 1_555 1_555
C13 C11 1_555 1_555
C14 C12 1_555 1_555
C15 C13 1_555 1_555
C16 C14 1_555 1_555
C17 N4 1_555 1_555
C18 N3 1_555 1_555
C19 C17 1_555 1_555
H7 C19 1_555 1_555
C20 C18 1_555 1_555
H8 C20 1_555 1_555
C21 N5 1_555 1_555
C22 N6 1_555 1_555
C23 C22 1_555 1_555
C24 C27 1_555 1_555
C25 C23 1_555 1_555
C26 N6 1_555 1_555
C27 N5 1_555 1_555
C28 C27 1_555 1_555
H9 C28 1_555 1_555
C29 C26 1_555 1_555
H10 C29 1_555 1_555
C30 N8 1_555 1_555
C31 N7 1_555 1_555
C32 C30 1_555 1_555
C33 C31 1_555 1_555
C34 C32 1_555 1_555
C35 C33 1_555 1_555
C36 N7 1_555 1_555
C37 N8 1_555 1_555
C38 C1 1_555 1_555
C39 C2 1_555 1_555
C40 C4 1_555 1_555
H11 C40 1_555 1_555
H12 C40 1_555 1_555
H13 C40 1_555 1_555
C41 C3 1_555 1_555
H14 C41 1_555 1_555
H15 C41 1_555 1_555
H16 C41 1_555 1_555
C42 C5 1_555 1_555
H17 C42 1_555 1_555
H18 C42 1_555 1_555
C43 C6 1_555 1_555
H19 C43 1_555 1_555
H20 C43 1_555 1_555
C44 C43 1_555 1_555
H21 C44 1_555 1_555
H22 C44 1_555 1_555
H23 C44 1_555 1_555
C45 C42 1_555 1_555
H24 C45 1_555 1_555
H25 C45 1_555 1_555
H26 C45 1_555 1_555
C46 C13 1_555 1_555
H27 C46 1_555 1_555
H28 C46 1_555 1_555
C47 C14 1_555 1_555
H29 C47 1_555 1_555
H30 C47 1_555 1_555
C48 C47 1_555 1_555
H31 C48 1_555 1_555
H32 C48 1_555 1_555
H33 C48 1_555 1_555
C49 C46 1_555 1_555
H34 C49 1_555 1_555
H35 C49 1_555 1_555
H36 C49 1_555 1_555
C50 C15 1_555 1_555
H37 C50 1_555 1_555
H38 C50 1_555 1_555
H39 C50 1_555 1_555
C51 C16 1_555 1_555
H40 C51 1_555 1_555
H41 C51 1_555 1_555
H42 C51 1_555 1_555
C52 C34 1_555 1_555
H43 C52 1_555 1_555
H44 C52 1_555 1_555
H45 C52 1_555 1_555
C53 C21 1_555 1_555
C54 C23 1_555 1_555
H46 C54 1_555 1_555
H47 C54 1_555 1_555
H48 C54 1_555 1_555
C55 C25 1_555 1_555
H49 C55 1_555 1_555
H50 C55 1_555 1_555
C56 C53 1_555 1_555
H51 C56 1_555 1_555
H52 C56 1_555 1_555
H53 C56 1_555 1_555
C57 C24 1_555 1_555
H54 C57 1_555 1_555
H55 C57 1_555 1_555
C58 C55 1_555 1_555
H56 C58 1_555 1_555
H57 C58 1_555 1_555
H58 C58 1_555 1_555
C59 C33 1_555 1_555
H59 C59 1_555 1_555
H60 C59 1_555 1_555
C60 C57 1_555 1_555
H61 C60 1_555 1_555
H62 C60 1_555 1_555
H63 C60 1_555 1_555
C61 C32 1_555 1_555
H64 C61 1_555 1_555
H65 C61 1_555 1_555
C62 C59 1_555 1_555
H66 C62 1_555 1_555
H67 C62 1_555 1_555
H68 C62 1_555 1_555
C63 C35 1_555 1_555
H69 C63 1_555 1_555
H70 C63 1_555 1_555
H71 C63 1_555 1_555
C64 C61 1_555 1_555
H72 C64 1_555 1_555
H73 C64 1_555 1_555
H74 C64 1_555 1_555
C65 C38 1_555 1_555
C66 C39 1_555 1_555
C67 C66 1_555 1_555
C68 S1 1_555 1_555
C69 C68 1_555 1_555
C70 C67 1_555 1_555
C71 C69 1_555 1_555
H75 C71 1_555 1_555
C72 C70 1_555 1_555
H76 C72 1_555 1_555
C73 C71 1_555 1_555
H77 C73 1_555 1_555
C74 C72 1_555 1_555
H78 C74 1_555 1_555
C75 C66 1_555 1_555
H79 C75 1_555 1_555
C76 C65 1_555 1_555
H80 C76 1_555 1_555
C77 H81 1_555 1_555
H82 C77 1_555 1_555
C78 H83 1_555 1_555
H84 C78 1_555 1_555
C79 N9 1_555 1_555
H85 C79 1_555 1_555
C80 N10 1_555 1_555
H86 C80 1_555 1_555
C81 C79 1_555 1_555
C82 C81 1_555 1_555
H87 C82 1_555 1_555
C83 C82 1_555 1_555
H88 C83 1_555 1_555
C84 C83 1_555 1_555
H89 C84 1_555 1_555
C85 C84 1_555 1_555
H90 C85 1_555 1_555
C86 C81 1_555 1_555
H91 C86 1_555 1_555
C87 C80 1_555 1_555
C88 C87 1_555 1_555
H92 C88 1_555 1_555
C89 C88 1_555 1_555
H93 C89 1_555 1_555
C90 C89 1_555 1_555
H94 C90 1_555 1_555
C91 C90 1_555 1_555
H95 C91 1_555 1_555
C92 C87 1_555 1_555
H96 C92 1_555 1_555
C93 H97 1_555 1_555
H98 C93 1_555 1_555
Cl1 C93 1_555 1_555
Cl2 C93 1_555 1_555
C5 C7 1_555 1_555
C6 C8 1_555 1_555
C9 C12 1_555 1_555
C10 C11 1_555 1_555
C15 C17 1_555 1_555
C16 C18 1_555 1_555
C19 C21 1_555 1_555
C20 C22 1_555 1_555
C24 C53 1_555 1_555
C25 C26 1_555 1_555
C28 C30 1_555 1_555
C29 C31 1_555 1_555
C34 C37 1_555 1_555
C35 C36 1_555 1_555
C36 C39 1_555 1_555
C37 C38 1_555 1_555
C65 C68 1_555 1_555
C69 C70 1_555 1_555
C73 C76 1_555 1_555
C74 C75 1_555 1_555
C77 C79 1_555 1_555
C78 C80 1_555 1_555
C85 C86 1_555 1_555
C91 C92 1_555 1_555

#END
