
#######################################################################
#
#                 Cambridge Crystallographic Data Centre
#                                CCDC 
#
#######################################################################
#
# If this CIF has been generated from an entry in the Cambridge 
# Structural Database, then it will include bibliographic, chemical, 
# crystal, experimental, refinement or atomic coordinate data resulting 
# from the CCDC's data processing and validation procedures.
#
#######################################################################

data_GESQAW
_chemical_formula_moiety         'C17 H22 O7'
_chemical_name_systematic        
'Dimethyl (12R*,13R*)-3,11-dioxo-2,12-epoxy-cyclotridec-1-ene-1,13-dicarboxylate'
_symmetry_cell_setting           monoclinic
_symmetry_space_group_name_H-M   'C c'
_symmetry_Int_Tables_number      9
_space_group_name_Hall           'C -2yc'
loop_
_symmetry_equiv_pos_site_id
_symmetry_equiv_pos_as_xyz
1 x,y,z
2 x,-y,1/2+z
3 1/2+x,1/2+y,z
4 1/2+x,1/2-y,1/2+z
_cell_length_a                   12.7032(25)
_cell_length_b                   21.3215(65)
_cell_length_c                   8.7575(22)
_cell_angle_alpha                90
_cell_angle_beta                 132.220(13)
_cell_angle_gamma                90
_cell_volume                     1756.62
_exptl_crystal_colour            colorless
_exptl_crystal_description       prism
_cell_formula_units_Z            4
loop_
_atom_site_label
_atom_site_type_symbol
_atom_site_fract_x
_atom_site_fract_y
_atom_site_fract_z
O1 O 0.35250 0.30676(8) 0.27450
C1 C 0.21999(35) 0.35058(13) 0.33197(49)
C2 C 0.23073(32) 0.33649(11) 0.19557(48)
C3 C 0.12852(36) 0.34523(13) -0.03553(49)
O2 O 0.00753(30) 0.32772(12) -0.13975(41)
C4 C 0.19000(47) 0.37274(17) -0.11773(58)
H1 H 0.26701(47) 0.34662(17) -0.07625(58)
H2 H 0.11752(47) 0.37374(17) -0.26551(58)
C5 C 0.24587(44) 0.43908(15) -0.03970(65)
H3 H 0.16778(44) 0.46789(15) -0.12350(65)
H4 H 0.28709(44) 0.44187(15) 0.10052(65)
C6 C 0.35906(44) 0.45734(18) -0.04780(66)
H5 H 0.37352(44) 0.50186(18) -0.02858(66)
H6 H 0.32460(44) 0.44627(18) -0.18099(66)
C7 C 0.49996(41) 0.42524(18) 0.11450(58)
H7 H 0.48327(41) 0.38107(18) 0.10963(58)
H8 H 0.55858(41) 0.43240(18) 0.08364(58)
C8 C 0.57947(42) 0.44866(14) 0.33321(59)
H9 H 0.51232(42) 0.45214(14) 0.34986(59)
H10 H 0.61771(42) 0.48933(14) 0.34757(59)
C9 C 0.70023(41) 0.40735(14) 0.50400(59)
H11 H 0.75868(41) 0.39728(14) 0.47453(59)
H12 H 0.75542(41) 0.43012(14) 0.63146(59)
C10 C 0.64926(38) 0.34573(13) 0.52805(59)
H13 H 0.73118(38) 0.32129(13) 0.63493(59)
H14 H 0.59339(38) 0.32320(13) 0.40005(59)
C11 C 0.56098(34) 0.35531(13) 0.58266(50)
O3 O 0.57711(32) 0.39870(10) 0.68456(45)
C12 C 0.44329(35) 0.30668(12) 0.49831(47)
H15 H 0.48813(35) 0.26728(12) 0.56427(47)
C13 C 0.34748(37) 0.32353(13) 0.53949(50)
H16 H 0.39150(37) 0.35096(13) 0.65534(50)
C14 C 0.10561(38) 0.38260(18) 0.30390(55)
O4 O 0.08985(39) 0.37851(18) 0.42290(52)
O5 O 0.02567(32) 0.41788(12) 0.13946(46)
C15 C -0.09197(47) 0.44850(21) 0.10035(72)
H17 H -0.14393(47) 0.47317(21) -0.02304(72)
H18 H -0.05647(47) 0.47523(21) 0.21450(72)
H19 H -0.15371(47) 0.41740(21) 0.08357(72)
C16 C 0.30455(44) 0.26646(15) 0.58996(57)
O6 O 0.23371(45) 0.22497(14) 0.47303(51)
O7 O 0.35644(36) 0.26777(10) 0.77921(44)
C17 C 0.32088(54) 0.21440(18) 0.84009(69)
H20 H 0.36334(54) 0.21958(18) 0.98036(69)
H21 H 0.35628(54) 0.17671(18) 0.82824(69)
H22 H 0.21951(54) 0.21160(18) 0.75188(69)
loop_
_geom_bond_atom_site_label_1
_geom_bond_atom_site_label_2
_geom_bond_site_symmetry_1
_geom_bond_site_symmetry_2
O1 C2 1_555 1_555
C1 C2 1_555 1_555
C2 C3 1_555 1_555
C3 O2 1_555 1_555
C4 C3 1_555 1_555
H1 C4 1_555 1_555
H2 C4 1_555 1_555
C5 C4 1_555 1_555
H3 C5 1_555 1_555
H4 C5 1_555 1_555
C6 C5 1_555 1_555
H5 C6 1_555 1_555
H6 C6 1_555 1_555
C7 C6 1_555 1_555
H7 C7 1_555 1_555
H8 C7 1_555 1_555
C8 C7 1_555 1_555
H9 C8 1_555 1_555
H10 C8 1_555 1_555
C9 C8 1_555 1_555
H11 C9 1_555 1_555
H12 C9 1_555 1_555
C10 C9 1_555 1_555
H13 C10 1_555 1_555
H14 C10 1_555 1_555
C11 C10 1_555 1_555
O3 C11 1_555 1_555
C12 O1 1_555 1_555
H15 C12 1_555 1_555
C13 C1 1_555 1_555
H16 C13 1_555 1_555
C14 C1 1_555 1_555
O4 C14 1_555 1_555
O5 C14 1_555 1_555
C15 O5 1_555 1_555
H17 C15 1_555 1_555
H18 C15 1_555 1_555
H19 C15 1_555 1_555
C16 C13 1_555 1_555
O6 C16 1_555 1_555
O7 C16 1_555 1_555
C17 O7 1_555 1_555
H20 C17 1_555 1_555
H21 C17 1_555 1_555
H22 C17 1_555 1_555
C11 C12 1_555 1_555
C12 C13 1_555 1_555

#END
