
#######################################################################
#
#                 Cambridge Crystallographic Data Centre
#                                CCDC 
#
#######################################################################
#
# If this CIF has been generated from an entry in the Cambridge 
# Structural Database, then it will include bibliographic, chemical, 
# crystal, experimental, refinement or atomic coordinate data resulting 
# from the CCDC's data processing and validation procedures.
#
#######################################################################

data_GESSOO
_chemical_formula_moiety         'C23 H21 F3 N2 O5'
_chemical_name_systematic        
'Dimethyl 3-benzoyl-2-(trifluoromethyl)-2,3,6,10b-tetrahydropyrazolo[5,1-a]isoquinoline-1,1(5H)-dicarboxylate'
_symmetry_cell_setting           triclinic
_symmetry_space_group_name_H-M   'P -1'
_symmetry_Int_Tables_number      2
_space_group_name_Hall           '-P 1'
loop_
_symmetry_equiv_pos_site_id
_symmetry_equiv_pos_as_xyz
1 x,y,z
2 -x,-y,-z
_cell_length_a                   8.6839(10)
_cell_length_b                   11.0176(13)
_cell_length_c                   13.3497(16)
_cell_angle_alpha                111.765(2)
_cell_angle_beta                 102.275(3)
_cell_angle_gamma                100.684(3)
_cell_volume                     1108.85
_exptl_crystal_colour            colorless
_exptl_crystal_description       prismatic
_cell_formula_units_Z            2
loop_
_atom_site_label
_atom_site_type_symbol
_atom_site_fract_x
_atom_site_fract_y
_atom_site_fract_z
F1 F 0.2103(2) 0.67455(17) 0.50587(12)
F2 F 0.2478(2) 0.48145(17) 0.42721(14)
F3 F 0.40833(19) 0.65925(17) 0.43475(12)
N1 N -0.0310(2) 0.51236(17) 0.28630(15)
N2 N -0.1185(2) 0.60774(16) 0.27728(14)
O1 O -0.0244(2) 0.30346(16) 0.17367(16)
O2 O 0.2565(2) 0.88108(16) 0.43225(13)
O3 O 0.32719(18) 0.88225(15) 0.28205(12)
O4 O 0.1542(2) 0.61913(16) 0.06196(13)
O5 O 0.36104(19) 0.60843(17) 0.18696(13)
C1 C 0.1438(3) 0.5671(2) 0.30144(17)
H1 H 0.1733 0.4929 0.2485
C2 C 0.1519(2) 0.6774(2) 0.25545(16)
C3 C -0.0371(2) 0.6697(2) 0.21520(17)
H2 H -0.0818 0.6057 0.1348
C4 C -0.1120(3) 0.7061(2) 0.38996(18)
H3 H 0.0014 0.7567 0.4353
H4 H -0.1603 0.6580 0.4289
C5 C -0.2065(3) 0.8022(2) 0.3742(2)
H5 H -0.3225 0.7524 0.3377
H6 H -0.1948 0.8727 0.4477
C6 C -0.1471(3) 0.8671(2) 0.30377(18)
C7 C -0.0723(2) 0.8026(2) 0.22572(17)
C8 C -0.0256(3) 0.8623(2) 0.1577(2)
H7 H 0.0207 0.8177 0.1031
C9 C -0.0475(3) 0.9879(3) 0.1706(2)
H8 H -0.0147 1.0282 0.1256
C10 C -0.1176(4) 1.0527(3) 0.2501(3)
H9 H -0.1306 1.1379 0.2598
C11 C -0.1680(3) 0.9930(2) 0.3146(2)
H10 H -0.2174 1.0371 0.3671
C12 C 0.2517(3) 0.5990(3) 0.4184(2)
C13 C 0.2528(3) 0.8241(2) 0.33641(18)
C14 C 0.4021(3) 1.0287(2) 0.3411(2)
H11 H 0.3189 1.0729 0.3567
H12 H 0.4535 1.0600 0.2947
H13 H 0.4834 1.0502 0.4111
C15 C 0.2187(3) 0.6323(2) 0.15484(18)
C16 C 0.4420(4) 0.5643(3) 0.1018(2)
H14 H 0.3692 0.4830 0.0381
H15 H 0.5401 0.5455 0.1330
H16 H 0.4704 0.6350 0.0775
C17 C -0.1077(3) 0.3770(2) 0.2086(2)
C18 C -0.2890(3) 0.3250(2) 0.1774(2)
C19 C -0.3733(4) 0.2270(3) 0.0686(2)
H17 H -0.3168 0.1980 0.0165
C20 C -0.5410(4) 0.1721(3) 0.0374(3)
H18 H -0.5977 0.1071 -0.0363
C21 C -0.6245(4) 0.2118(4) 0.1129(3)
H19 H -0.7381 0.1743 0.0902
C22 C -0.5437(4) 0.3062(3) 0.2217(3)
H20 H -0.6013 0.3315 0.2737
C23 C -0.3744(3) 0.3642(3) 0.2541(2)
H21 H -0.3185 0.4297 0.3278
loop_
_geom_bond_atom_site_label_1
_geom_bond_atom_site_label_2
_geom_bond_site_symmetry_1
_geom_bond_site_symmetry_2
F1 C12 1_555 1_555
F2 C12 1_555 1_555
F3 C12 1_555 1_555
N1 N2 1_555 1_555
N2 C3 1_555 1_555
O1 C17 1_555 1_555
O2 C13 1_555 1_555
O3 C13 1_555 1_555
O4 C15 1_555 1_555
O5 C15 1_555 1_555
C1 N1 1_555 1_555
H1 C1 1_555 1_555
C2 C1 1_555 1_555
C3 C2 1_555 1_555
H2 C3 1_555 1_555
C4 N2 1_555 1_555
H3 C4 1_555 1_555
H4 C4 1_555 1_555
C5 C4 1_555 1_555
H5 C5 1_555 1_555
H6 C5 1_555 1_555
C6 C5 1_555 1_555
C7 C3 1_555 1_555
C8 C7 1_555 1_555
H7 C8 1_555 1_555
C9 C8 1_555 1_555
H8 C9 1_555 1_555
C10 C9 1_555 1_555
H9 C10 1_555 1_555
C11 C6 1_555 1_555
H10 C11 1_555 1_555
C12 C1 1_555 1_555
C13 C2 1_555 1_555
C14 O3 1_555 1_555
H11 C14 1_555 1_555
H12 C14 1_555 1_555
H13 C14 1_555 1_555
C15 C2 1_555 1_555
C16 O5 1_555 1_555
H14 C16 1_555 1_555
H15 C16 1_555 1_555
H16 C16 1_555 1_555
C17 N1 1_555 1_555
C18 C17 1_555 1_555
C19 C18 1_555 1_555
H17 C19 1_555 1_555
C20 C19 1_555 1_555
H18 C20 1_555 1_555
C21 C20 1_555 1_555
H19 C21 1_555 1_555
C22 C21 1_555 1_555
H20 C22 1_555 1_555
C23 C18 1_555 1_555
H21 C23 1_555 1_555
C6 C7 1_555 1_555
C10 C11 1_555 1_555
C22 C23 1_555 1_555

#END
