
#######################################################################
#
#                 Cambridge Crystallographic Data Centre
#                                CCDC 
#
#######################################################################
#
# If this CIF has been generated from an entry in the Cambridge 
# Structural Database, then it will include bibliographic, chemical, 
# crystal, experimental, refinement or atomic coordinate data resulting 
# from the CCDC's data processing and validation procedures.
#
#######################################################################

data_GESWIL
_chemical_formula_moiety         'C21 H22 Cl1 N1 O2'
_chemical_name_systematic        
1,8-Dioxo-3,3-dimethyl-9-(4-chlorophenyl)-1,2,3,4,5,6,7,8,9,10-decahydroacridine
_symmetry_cell_setting           monoclinic
_symmetry_space_group_name_H-M   'P 21/c'
_symmetry_Int_Tables_number      14
_space_group_name_Hall           '-P 2ybc'
loop_
_symmetry_equiv_pos_site_id
_symmetry_equiv_pos_as_xyz
1 x,y,z
2 -x,1/2+y,1/2-z
3 -x,-y,-z
4 x,1/2-y,1/2+z
_cell_length_a                   7.1209(8)
_cell_length_b                   16.3999(19)
_cell_length_c                   15.0997(16)
_cell_angle_alpha                90
_cell_angle_beta                 92.716(4)
_cell_angle_gamma                90
_cell_volume                     1761.39
_exptl_crystal_colour            light-yellow
_exptl_crystal_description       block
_chemical_melting_point          '510-511 K'
_cell_formula_units_Z            4
_exptl_crystal_recrystallization_method ethanol
loop_
_atom_site_label
_atom_site_type_symbol
_atom_site_fract_x
_atom_site_fract_y
_atom_site_fract_z
Cl1 Cl 0.34520(9) 0.42029(3) 0.54182(3)
O1 O 0.42829(16) 0.06404(7) 0.30124(8)
O2 O 0.20215(15) 0.29775(7) 0.11080(8)
N1 N 0.84095(18) 0.22956(8) 0.14637(9)
H1 H 0.9588 0.2420 0.1376
C1 C 0.8003(2) 0.15974(9) 0.19293(10)
C2 C 0.6290(2) 0.15018(9) 0.22658(10)
C3 C 0.4789(2) 0.21542(9) 0.21758(10)
H2 H 0.3575 0.1874 0.2013
C4 C 0.5218(2) 0.27147(9) 0.14133(10)
C5 C 0.6998(2) 0.27990(9) 0.11355(10)
C6 C 0.5788(2) 0.07244(10) 0.26591(10)
C7 C 0.7131(2) 0.00212(10) 0.25780(12)
H3 H 0.6857 -0.0255 0.2003
H4 H 0.6909 -0.0377 0.3054
C8 C 0.9208(2) 0.02715(9) 0.26360(11)
C9 C 0.9499(2) 0.09484(10) 0.19568(11)
H5 H 1.0732 0.1209 0.2094
H6 H 0.9543 0.0699 0.1361
C10 C 0.3670(2) 0.31216(9) 0.09400(10)
C11 C 0.4108(2) 0.37074(10) 0.02088(11)
H7 H 0.3175 0.4156 0.0196
H8 H 0.3984 0.3419 -0.0367
C12 C 0.6073(2) 0.40680(9) 0.03206(11)
H9 H 0.6153 0.4425 0.0850
H10 H 0.6340 0.4402 -0.0204
C13 C 0.7515(2) 0.33861(10) 0.04267(11)
H11 H 0.7593 0.3092 -0.0143
H12 H 0.8767 0.3623 0.0581
C14 C 0.4496(2) 0.26433(9) 0.30160(10)
C15 C 0.5956(2) 0.30677(11) 0.34461(11)
H13 H 0.7184 0.3033 0.3228
C16 C 0.5663(3) 0.35429(11) 0.41886(12)
H14 H 0.6675 0.3831 0.4476
C17 C 0.3871(3) 0.35899(10) 0.45028(11)
C18 C 0.2400(3) 0.31679(11) 0.40969(12)
H15 H 0.1179 0.3197 0.4323
C19 C 0.2718(2) 0.27001(11) 0.33553(12)
H16 H 0.1700 0.2412 0.3072
C20 C 1.0432(2) -0.04622(10) 0.24201(13)
H17 H 1.0164 -0.0914 0.2820
H18 H 1.1761 -0.0311 0.2497
H19 H 1.0155 -0.0631 0.1805
C21 C 0.9755(2) 0.05754(12) 0.35712(11)
H20 H 0.8995 0.1054 0.3706
H21 H 1.1089 0.0724 0.3605
H22 H 0.9530 0.0143 0.4001
loop_
_geom_bond_atom_site_label_1
_geom_bond_atom_site_label_2
_geom_bond_site_symmetry_1
_geom_bond_site_symmetry_2
Cl1 C17 1_555 1_555
O1 C6 1_555 1_555
O2 C10 1_555 1_555
N1 H1 1_555 1_555
C1 N1 1_555 1_555
C2 C1 1_555 1_555
C3 C2 1_555 1_555
H2 C3 1_555 1_555
C4 C3 1_555 1_555
C5 N1 1_555 1_555
C6 C2 1_555 1_555
C7 C6 1_555 1_555
H3 C7 1_555 1_555
H4 C7 1_555 1_555
C8 C7 1_555 1_555
C9 C1 1_555 1_555
H5 C9 1_555 1_555
H6 C9 1_555 1_555
C10 C4 1_555 1_555
C11 C10 1_555 1_555
H7 C11 1_555 1_555
H8 C11 1_555 1_555
C12 C11 1_555 1_555
H9 C12 1_555 1_555
H10 C12 1_555 1_555
C13 C5 1_555 1_555
H11 C13 1_555 1_555
H12 C13 1_555 1_555
C14 C3 1_555 1_555
C15 C14 1_555 1_555
H13 C15 1_555 1_555
C16 C15 1_555 1_555
H14 C16 1_555 1_555
C17 C16 1_555 1_555
C18 C17 1_555 1_555
H15 C18 1_555 1_555
C19 C14 1_555 1_555
H16 C19 1_555 1_555
C20 C8 1_555 1_555
H17 C20 1_555 1_555
H18 C20 1_555 1_555
H19 C20 1_555 1_555
C21 C8 1_555 1_555
H20 C21 1_555 1_555
H21 C21 1_555 1_555
H22 C21 1_555 1_555
C4 C5 1_555 1_555
C8 C9 1_555 1_555
C12 C13 1_555 1_555
C18 C19 1_555 1_555

#END
