
#######################################################################
#
#                 Cambridge Crystallographic Data Centre
#                                CCDC 
#
#######################################################################
#
# If this CIF has been generated from an entry in the Cambridge 
# Structural Database, then it will include bibliographic, chemical, 
# crystal, experimental, refinement or atomic coordinate data resulting 
# from the CCDC's data processing and validation procedures.
#
#######################################################################

data_GESXUY
_chemical_compound_source        'Ypsilandra thibetica'
_chemical_name_common            'Ypsilandroside B methanol solvate'
_chemical_formula_moiety         'C38 H60 O13,C1 H4 O1'
_chemical_name_systematic        
'(3\b,12\a,25R)-3-((\a-L-rhamnopyranosyl-(1-2)-\b-D-apiofuranosyl)oxy)spirost-5-en-12,27-diol methanol solvate'
_chemical_properties_biological  
'no significant antifungal or cytotoxic activity but moderate antibacterial activity against B. cereus'
_symmetry_cell_setting           orthorhombic
_symmetry_space_group_name_H-M   'P 21 21 21'
_symmetry_Int_Tables_number      19
_space_group_name_Hall           'P 2ac 2ab'
loop_
_symmetry_equiv_pos_site_id
_symmetry_equiv_pos_as_xyz
1 x,y,z
2 1/2-x,-y,1/2+z
3 -x,1/2+y,1/2-z
4 1/2+x,1/2-y,-z
_cell_length_a                   7.8890(16)
_cell_length_b                   11.145(2)
_cell_length_c                   44.002(9)
_cell_angle_alpha                90
_cell_angle_beta                 90
_cell_angle_gamma                90
_cell_volume                     3868.78
_exptl_crystal_colour            colorless
_exptl_crystal_description       sheet
_cell_formula_units_Z            4
loop_
_atom_site_label
_atom_site_type_symbol
_atom_site_fract_x
_atom_site_fract_y
_atom_site_fract_z
O1 O 0.0882(7) 0.4227(4) 0.38822(8)
O2 O 0.4312(6) 0.3708(5) 0.21171(9)
H1 H 0.3318 0.3798 0.2068
O3 O 1.0770(6) 0.3864(5) 0.19306(8)
O4 O 0.9815(6) 0.3303(4) 0.14469(8)
O5 O 1.1604(8) 0.2679(6) 0.06594(11)
H2 H 1.0632 0.2420 0.0664
O6 O -0.0113(10) 0.2340(5) 0.40218(11)
O7 O 0.1151(7) 0.4298(4) 0.46131(9)
O8 O -0.0170(9) 0.2032(5) 0.46744(11)
H3 H 0.0169 0.2354 0.4831
O9 O -0.3719(12) 0.2299(8) 0.47596(16)
H4 H -0.4193 0.2428 0.4922
O10 O 0.1264(7) 0.6306(4) 0.44626(9)
O11 O 0.1999(9) 0.6850(5) 0.50789(11)
H5 H 0.2434 0.6902 0.5248
O12 O 0.5263(10) 0.5882(7) 0.50653(14)
H6 H 0.5743 0.6510 0.5021
O13 O 0.5863(9) 0.6017(7) 0.44065(16)
H7 H 0.6511 0.6592 0.4400
C1 C 0.2091(9) 0.4669(7) 0.30687(12)
H8 H 0.1771 0.3904 0.2981
H9 H 0.1714 0.5293 0.2931
C2 C 0.1153(10) 0.4823(7) 0.33744(12)
H10 H 0.1353 0.5625 0.3453
H11 H -0.0057 0.4731 0.3342
C3 C 0.1747(10) 0.3914(7) 0.36031(13)
H12 H 0.1384 0.3113 0.3538
C4 C 0.3634(10) 0.3925(7) 0.36377(13)
H13 H 0.3966 0.3251 0.3764
H14 H 0.3961 0.4654 0.3743
C5 C 0.4608(9) 0.3855(6) 0.33364(11)
C6 C 0.5929(9) 0.3123(6) 0.32986(12)
H15 H 0.6190 0.2603 0.3457
C7 C 0.7030(9) 0.3073(6) 0.30197(12)
H16 H 0.6838 0.2317 0.2916
H17 H 0.8210 0.3097 0.3081
C8 C 0.6689(9) 0.4109(6) 0.27965(12)
H18 H 0.7262 0.4836 0.2868
C9 C 0.4779(9) 0.4338(5) 0.27778(11)
H19 H 0.4259 0.3566 0.2726
C10 C 0.4002(9) 0.4721(6) 0.30912(11)
C11 C 0.4271(9) 0.5220(6) 0.25205(11)
H20 H 0.3045 0.5254 0.2506
H21 H 0.4675 0.6018 0.2571
C12 C 0.5009(9) 0.4843(6) 0.22096(12)
H22 H 0.4715 0.5452 0.2058
C13 C 0.6919(8) 0.4748(6) 0.22307(11)
C14 C 0.7345(8) 0.3785(6) 0.24775(11)
H23 H 0.6743 0.3053 0.2417
C15 C 0.9224(9) 0.3542(7) 0.24216(12)
H24 H 0.9593 0.2815 0.2523
H25 H 0.9920 0.4209 0.2488
C16 C 0.9274(8) 0.3399(6) 0.20725(11)
H26 H 0.9127 0.2553 0.2018
C17 C 0.7780(8) 0.4146(6) 0.19456(11)
H27 H 0.6966 0.3609 0.1847
C18 C 0.4571(11) 0.6006(6) 0.31780(14)
H28 H 0.4073 0.6226 0.3369
H29 H 0.4210 0.6559 0.3024
H30 H 0.5784 0.6029 0.3195
C19 C 0.7689(12) 0.5954(6) 0.23024(13)
H31 H 0.7130 0.6295 0.2476
H32 H 0.7555 0.6478 0.2131
H33 H 0.8874 0.5857 0.2346
C20 C 0.8600(9) 0.4962(6) 0.17049(12)
H34 H 0.8891 0.5727 0.1801
C21 C 0.7483(10) 0.5221(7) 0.14287(13)
H35 H 0.8088 0.5726 0.1289
H36 H 0.6467 0.5621 0.1493
H37 H 0.7193 0.4481 0.1330
C22 C 1.0246(8) 0.4291(7) 0.16345(11)
C23 C 1.1633(10) 0.5062(7) 0.14961(15)
H38 H 1.2077 0.5595 0.1651
H39 H 1.1144 0.5556 0.1337
C24 C 1.3105(9) 0.4330(9) 0.13615(14)
H40 H 1.3794 0.4848 0.1235
H41 H 1.3814 0.4035 0.1525
C25 C 1.2488(10) 0.3284(8) 0.11750(14)
H42 H 1.3469 0.2770 0.1133
C26 C 1.1219(10) 0.2541(7) 0.13606(15)
H43 H 1.0811 0.1872 0.1240
H44 H 1.1767 0.2223 0.1541
C27 C 1.1761(11) 0.3680(8) 0.08682(14)
H45 H 1.0654 0.4038 0.0900
H46 H 1.2494 0.4284 0.0780
C28 C 0.0873(11) 0.3363(6) 0.41090(13)
H47 H 0.2033 0.3121 0.4160
C29 C -0.0022(9) 0.3890(6) 0.43899(11)
H48 H -0.0737 0.4563 0.4326
C30 C -0.1158(9) 0.2867(6) 0.45036(12)
C31 C -0.2630(13) 0.3290(9) 0.46866(18)
H49 H -0.2228 0.3662 0.4872
H50 H -0.3260 0.3886 0.4572
C32 C -0.1614(12) 0.2289(9) 0.41997(16)
H51 H -0.1969 0.1463 0.4229
H52 H -0.2525 0.2726 0.4102
C33 C 0.0980(11) 0.5489(7) 0.47051(12)
H53 H -0.0159 0.5614 0.4788
C34 C 0.2307(11) 0.5685(7) 0.49577(14)
H54 H 0.2142 0.5085 0.5118
C35 C 0.4085(11) 0.5573(8) 0.48313(16)
H55 H 0.4276 0.4735 0.4774
C36 C 0.4356(12) 0.6354(8) 0.45530(17)
H56 H 0.4421 0.7198 0.4614
C37 C 0.2925(11) 0.6183(7) 0.43247(14)
H57 H 0.3019 0.5380 0.4236
C38 C 0.2951(13) 0.7106(8) 0.40702(17)
H58 H 0.2010 0.6968 0.3936
H59 H 0.3991 0.7036 0.3958
H60 H 0.2867 0.7897 0.4155
C39 C -0.6506(17) 0.0353(14) 0.4439(3)
H61 H -0.5592 -0.0157 0.4407
H62 H -0.6361 0.0969 0.4289
H63 H -0.6249 0.0729 0.4630
O14 O -0.826(2) 0.0182(19) 0.4450(4)
H64 H -0.8516 -0.0134 0.4612
loop_
_geom_bond_atom_site_label_1
_geom_bond_atom_site_label_2
_geom_bond_site_symmetry_1
_geom_bond_site_symmetry_2
O1 C3 1_555 1_555
O2 H1 1_555 1_555
O3 C16 1_555 1_555
O4 C22 1_555 1_555
O5 H2 1_555 1_555
O6 C28 1_555 1_555
O7 C29 1_555 1_555
O8 H3 1_555 1_555
O9 H4 1_555 1_555
O10 C33 1_555 1_555
O11 H5 1_555 1_555
O12 H6 1_555 1_555
O13 H7 1_555 1_555
C1 H8 1_555 1_555
H9 C1 1_555 1_555
C2 C1 1_555 1_555
H10 C2 1_555 1_555
H11 C2 1_555 1_555
C3 C2 1_555 1_555
H12 C3 1_555 1_555
C4 C3 1_555 1_555
H13 C4 1_555 1_555
H14 C4 1_555 1_555
C5 C4 1_555 1_555
C6 C5 1_555 1_555
H15 C6 1_555 1_555
C7 C6 1_555 1_555
H16 C7 1_555 1_555
H17 C7 1_555 1_555
C8 C7 1_555 1_555
H18 C8 1_555 1_555
C9 C8 1_555 1_555
H19 C9 1_555 1_555
C10 C1 1_555 1_555
C11 C9 1_555 1_555
H20 C11 1_555 1_555
H21 C11 1_555 1_555
C12 O2 1_555 1_555
H22 C12 1_555 1_555
C13 C12 1_555 1_555
C14 C8 1_555 1_555
H23 C14 1_555 1_555
C15 C14 1_555 1_555
H24 C15 1_555 1_555
H25 C15 1_555 1_555
C16 C15 1_555 1_555
H26 C16 1_555 1_555
C17 C13 1_555 1_555
H27 C17 1_555 1_555
C18 C10 1_555 1_555
H28 C18 1_555 1_555
H29 C18 1_555 1_555
H30 C18 1_555 1_555
C19 C13 1_555 1_555
H31 C19 1_555 1_555
H32 C19 1_555 1_555
H33 C19 1_555 1_555
C20 C17 1_555 1_555
H34 C20 1_555 1_555
C21 C20 1_555 1_555
H35 C21 1_555 1_555
H36 C21 1_555 1_555
H37 C21 1_555 1_555
C22 O3 1_555 1_555
C23 C22 1_555 1_555
H38 C23 1_555 1_555
H39 C23 1_555 1_555
C24 C23 1_555 1_555
H40 C24 1_555 1_555
H41 C24 1_555 1_555
C25 C24 1_555 1_555
H42 C25 1_555 1_555
C26 O4 1_555 1_555
H43 C26 1_555 1_555
H44 C26 1_555 1_555
C27 O5 1_555 1_555
H45 C27 1_555 1_555
H46 C27 1_555 1_555
C28 O1 1_555 1_555
H47 C28 1_555 1_555
C29 C28 1_555 1_555
H48 C29 1_555 1_555
C30 O8 1_555 1_555
C31 O9 1_555 1_555
H49 C31 1_555 1_555
H50 C31 1_555 1_555
C32 O6 1_555 1_555
H51 C32 1_555 1_555
H52 C32 1_555 1_555
C33 O7 1_555 1_555
H53 C33 1_555 1_555
C34 O11 1_555 1_555
H54 C34 1_555 1_555
C35 O12 1_555 1_555
H55 C35 1_555 1_555
C36 O13 1_555 1_555
H56 C36 1_555 1_555
C37 O10 1_555 1_555
H57 C37 1_555 1_555
C38 C37 1_555 1_555
H58 C38 1_555 1_555
H59 C38 1_555 1_555
H60 C38 1_555 1_555
C39 H61 1_555 1_555
H62 C39 1_555 1_555
H63 C39 1_555 1_555
O14 C39 1_555 1_555
H64 O14 1_555 1_555
C5 C10 1_555 1_555
C9 C10 1_555 1_555
C11 C12 1_555 1_555
C13 C14 1_555 1_555
C16 C17 1_555 1_555
C20 C22 1_555 1_555
C25 C26 1_555 1_555
C25 C27 1_555 1_555
C29 C30 1_555 1_555
C30 C31 1_555 1_555
C30 C32 1_555 1_555
C33 C34 1_555 1_555
C34 C35 1_555 1_555
C35 C36 1_555 1_555
C36 C37 1_555 1_555

#END
