
#######################################################################
#
#                 Cambridge Crystallographic Data Centre
#                                CCDC 
#
#######################################################################
#
# If this CIF has been generated from an entry in the Cambridge 
# Structural Database, then it will include bibliographic, chemical, 
# crystal, experimental, refinement or atomic coordinate data resulting 
# from the CCDC's data processing and validation procedures.
#
#######################################################################

data_GESXOT01
_chemical_formula_moiety         'C19 H19 D1 N4 O2,C1 H4 O1'
_chemical_name_systematic        
'3-benzylidene-6-((5-t-butyl-1H-imidazol-4-yl)deuteromethylene)piperazine-2,5-dione methanol solvate'
_chemical_properties_biological  'potent anti-cancer agent'
_symmetry_cell_setting           monoclinic
_symmetry_space_group_name_H-M   'P 21/n'
_symmetry_Int_Tables_number      14
_space_group_name_Hall           '-P 2yn'
loop_
_symmetry_equiv_pos_site_id
_symmetry_equiv_pos_as_xyz
1 x,y,z
2 1/2-x,1/2+y,1/2-z
3 -x,-y,-z
4 1/2+x,1/2-y,1/2+z
_cell_length_a                   14.6192(7)
_cell_length_b                   17.0390(8)
_cell_length_c                   16.0709(11)
_cell_angle_alpha                90
_cell_angle_beta                 103.564(2)
_cell_angle_gamma                90
_cell_volume                     3891.55
_cell_formula_units_Z            8
loop_
_atom_site_label
_atom_site_type_symbol
_atom_site_fract_x
_atom_site_fract_y
_atom_site_fract_z
D1 D 0.6839(18) 0.2512(15) 0.6639(16)
N1 N 0.76645(14) 0.41406(12) 0.61409(14)
H1 H 0.71592(14) 0.43038(12) 0.57947(14)
N2 N 0.92366(14) 0.36157(12) 0.72601(14)
H2 H 0.97413(14) 0.34549(12) 0.76088(14)
N3 N 0.57970(15) 0.39773(12) 0.54402(14)
N4 N 0.44465(14) 0.33476(12) 0.51611(14)
H3 H 0.38583(14) 0.32589(12) 0.49520(14)
O1 O 0.84003(13) 0.52358(11) 0.58564(14)
O2 O 0.85244(13) 0.24790(11) 0.74667(14)
C1 C 0.84188(17) 0.46141(15) 0.62521(17)
C2 C 0.92753(17) 0.43562(15) 0.68933(17)
C3 C 0.84793(18) 0.31235(15) 0.71233(18)
C4 C 0.76120(17) 0.34170(14) 0.65292(16)
C5 C 0.68161(18) 0.30044(16) 0.63715(18)
C6 C 0.59143(17) 0.32446(15) 0.58392(16)
C7 C 0.50652(17) 0.28456(15) 0.56623(17)
C8 C 0.49081(18) 0.40054(15) 0.50486(17)
H4 H 0.46274(18) 0.44323(15) 0.47271(17)
C9 C 0.4777(2) 0.20396(17) 0.5898(2)
C10 C 0.5372(3) 0.14287(19) 0.5558(3)
H5 H 0.5255(3) 0.14737(19) 0.4946(3)
H6 H 0.5208(3) 0.09103(19) 0.5706(3)
H7 H 0.6027(3) 0.15232(19) 0.5806(3)
C11 C 0.4939(3) 0.1975(3) 0.6860(3)
H8 H 0.5602(3) 0.1997(3) 0.7116(3)
H9 H 0.4689(3) 0.1487(3) 0.7007(3)
H10 H 0.4628(3) 0.2403(3) 0.7068(3)
C12 C 0.3740(2) 0.1892(2) 0.5497(3)
H11 H 0.3372(2) 0.2301(2) 0.5669(3)
H12 H 0.3557(2) 0.1394(2) 0.5685(3)
H13 H 0.3636(2) 0.1891(2) 0.4884(3)
C13 C 0.99958(17) 0.48550(15) 0.70811(17)
H14 H 0.99288(17) 0.52896(15) 0.67216(17)
C14 C 1.08687(17) 0.48493(15) 0.77401(17)
C15 C 1.09633(19) 0.44903(17) 0.85351(18)
H15 H 1.04709(19) 0.41961(17) 0.86492(18)
C16 C 1.1793(2) 0.45711(19) 0.9155(2)
H16 H 1.1855(2) 0.43320(19) 0.9686(2)
C17 C 1.2527(2) 0.5003(2) 0.8995(2)
H17 H 1.3083(2) 0.5054(2) 0.9414(2)
C18 C 1.2440(2) 0.5355(2) 0.8212(2)
H18 H 1.2939(2) 0.5641(2) 0.8101(2)
C19 C 1.16138(19) 0.52900(19) 0.7592(2)
H19 H 1.15558(19) 0.55430(19) 0.7069(2)
D2 D 0.2381(18) 0.7632(16) 0.5765(18)
N5 N 0.27893(14) 0.57657(13) 0.60011(14)
H20 H 0.22296(14) 0.56057(13) 0.57694(14)
N6 N 0.45297(14) 0.62975(13) 0.67704(14)
H21 H 0.50843(14) 0.64568(13) 0.70202(14)
N7 N 0.09425(15) 0.60969(14) 0.53740(16)
N8 N -0.02313(15) 0.68323(14) 0.46979(16)
H22 H -0.07907(15) 0.69573(14) 0.44233(16)
O3 O 0.32520(13) 0.45069(12) 0.61806(15)
O4 O 0.40770(13) 0.75605(11) 0.65475(15)
C20 C 0.34346(18) 0.52074(16) 0.62768(18)
C21 C 0.43915(17) 0.54849(16) 0.67170(17)
C22 C 0.38743(18) 0.68625(16) 0.64648(18)
C23 C 0.29234(17) 0.65751(15) 0.60515(16)
C24 C 0.22159(18) 0.70789(17) 0.57485(18)
C25 C 0.12422(18) 0.68715(16) 0.53557(17)
C26 C 0.05081(17) 0.73356(17) 0.49321(17)
C27 C 0.00583(19) 0.61092(17) 0.4967(2)
H23 H -0.03266(19) 0.56679(17) 0.4875(2)
C28 C 0.0410(2) 0.82061(18) 0.4754(2)
C29 C 0.1209(2) 0.85187(19) 0.4383(2)
H24 H 0.1797(2) 0.84513(19) 0.4793(2)
H25 H 0.1109(2) 0.90661(19) 0.4252(2)
H26 H 0.1223(2) 0.82348(19) 0.3870(2)
C30 C 0.0419(3) 0.8630(2) 0.5600(3)
H27 H -0.0060(3) 0.8414(2) 0.5851(3)
H28 H 0.0302(3) 0.9179(2) 0.5491(3)
H29 H 0.1023(3) 0.8562(2) 0.5985(3)
C31 C -0.0512(3) 0.8376(2) 0.4109(3)
H30 H -0.0538(3) 0.8075(2) 0.3599(3)
H31 H -0.0549(3) 0.8924(2) 0.3971(3)
H32 H -0.1031(3) 0.8233(2) 0.4351(3)
C32 C 0.50382(18) 0.49332(16) 0.70312(17)
H33 H 0.48134(18) 0.44217(16) 0.69491(17)
C33 C 0.60269(18) 0.49883(15) 0.74746(17)
C34 C 0.6401(2) 0.43838(18) 0.8031(2)
H34 H 0.6016(2) 0.39699(18) 0.8111(2)
C35 C 0.7334(2) 0.4386(2) 0.8467(2)
H35 H 0.7569(2) 0.3983(2) 0.8847(2)
C36 C 0.7910(2) 0.4980(2) 0.8340(2)
H36 H 0.8539(2) 0.4982(2) 0.8634(2)
C37 C 0.7564(2) 0.55740(18) 0.7780(2)
H37 H 0.7962(2) 0.59745(18) 0.7690(2)
C38 C 0.66314(19) 0.55825(16) 0.73490(18)
H38 H 0.64048(19) 0.59893(16) 0.69710(18)
O5 O 0.74608(15) 0.65993(13) 0.55892(18)
H39 H 0.76808(15) 0.61544(13) 0.56319(18)
C39 C 0.8098(2) 0.7107(2) 0.6086(2)
H40 H 0.7832(2) 0.7318(2) 0.6531(2)
H41 H 0.8236(2) 0.7526(2) 0.5737(2)
H42 H 0.8666(2) 0.6828(2) 0.6338(2)
O6 O 0.79116(16) 0.67791(15) 0.37224(16)
H43 H 0.76854(16) 0.63762(15) 0.38686(16)
C40 C 0.7609(3) 0.6874(2) 0.2839(3)
H44 H 0.6953(3) 0.6745(2) 0.2659(3)
H45 H 0.7965(3) 0.6531(2) 0.2560(3)
H46 H 0.7704(3) 0.7408(2) 0.2687(3)
loop_
_geom_bond_atom_site_label_1
_geom_bond_atom_site_label_2
_geom_bond_site_symmetry_1
_geom_bond_site_symmetry_2
D1 C5 1_555 1_555
N1 H1 1_555 1_555
N2 H2 1_555 1_555
N3 C6 1_555 1_555
N4 H3 1_555 1_555
O1 C1 1_555 1_555
O2 C3 1_555 1_555
C1 N1 1_555 1_555
C2 N2 1_555 1_555
C3 N2 1_555 1_555
C4 N1 1_555 1_555
C5 C4 1_555 1_555
C6 C5 1_555 1_555
C7 N4 1_555 1_555
C8 N3 1_555 1_555
H4 C8 1_555 1_555
C9 C7 1_555 1_555
C10 C9 1_555 1_555
H5 C10 1_555 1_555
H6 C10 1_555 1_555
H7 C10 1_555 1_555
C11 C9 1_555 1_555
H8 C11 1_555 1_555
H9 C11 1_555 1_555
H10 C11 1_555 1_555
C12 C9 1_555 1_555
H11 C12 1_555 1_555
H12 C12 1_555 1_555
H13 C12 1_555 1_555
C13 C2 1_555 1_555
H14 C13 1_555 1_555
C14 C13 1_555 1_555
C15 C14 1_555 1_555
H15 C15 1_555 1_555
C16 C15 1_555 1_555
H16 C16 1_555 1_555
C17 C16 1_555 1_555
H17 C17 1_555 1_555
C18 C17 1_555 1_555
H18 C18 1_555 1_555
C19 C14 1_555 1_555
H19 C19 1_555 1_555
D2 C24 1_555 1_555
N5 H20 1_555 1_555
N6 H21 1_555 1_555
N7 C25 1_555 1_555
N8 H22 1_555 1_555
O3 C20 1_555 1_555
O4 C22 1_555 1_555
C20 N5 1_555 1_555
C21 N6 1_555 1_555
C22 N6 1_555 1_555
C23 N5 1_555 1_555
C24 C23 1_555 1_555
C25 C24 1_555 1_555
C26 N8 1_555 1_555
C27 N7 1_555 1_555
H23 C27 1_555 1_555
C28 C26 1_555 1_555
C29 C28 1_555 1_555
H24 C29 1_555 1_555
H25 C29 1_555 1_555
H26 C29 1_555 1_555
C30 C28 1_555 1_555
H27 C30 1_555 1_555
H28 C30 1_555 1_555
H29 C30 1_555 1_555
C31 C28 1_555 1_555
H30 C31 1_555 1_555
H31 C31 1_555 1_555
H32 C31 1_555 1_555
C32 C21 1_555 1_555
H33 C32 1_555 1_555
C33 C32 1_555 1_555
C34 C33 1_555 1_555
H34 C34 1_555 1_555
C35 C34 1_555 1_555
H35 C35 1_555 1_555
C36 C35 1_555 1_555
H36 C36 1_555 1_555
C37 C36 1_555 1_555
H37 C37 1_555 1_555
C38 C33 1_555 1_555
H38 C38 1_555 1_555
O5 H39 1_555 1_555
C39 O5 1_555 1_555
H40 C39 1_555 1_555
H41 C39 1_555 1_555
H42 C39 1_555 1_555
O6 H43 1_555 1_555
C40 O6 1_555 1_555
H44 C40 1_555 1_555
H45 C40 1_555 1_555
H46 C40 1_555 1_555
N4 C8 1_555 1_555
C1 C2 1_555 1_555
C3 C4 1_555 1_555
C6 C7 1_555 1_555
C18 C19 1_555 1_555
N8 C27 1_555 1_555
C20 C21 1_555 1_555
C22 C23 1_555 1_555
C25 C26 1_555 1_555
C37 C38 1_555 1_555

#END
