
#######################################################################
#
#                 Cambridge Crystallographic Data Centre
#                                CCDC 
#
#######################################################################
#
# If this CIF has been generated from an entry in the Cambridge 
# Structural Database, then it will include bibliographic, chemical, 
# crystal, experimental, refinement or atomic coordinate data resulting 
# from the CCDC's data processing and validation procedures.
#
#######################################################################

data_GESYEJ
_chemical_formula_moiety         'C17 H19 N1 O4'
_chemical_name_systematic        
'1,2,3,4-Tetrahydrobenzo[b]indolizine-6,9-dicarboxylic acid 6-methyl 9-ethyl ester'
_symmetry_cell_setting           triclinic
_symmetry_space_group_name_H-M   'P -1'
_symmetry_Int_Tables_number      2
_space_group_name_Hall           '-P 1'
loop_
_symmetry_equiv_pos_site_id
_symmetry_equiv_pos_as_xyz
1 x,y,z
2 -x,-y,-z
_cell_length_a                   8.0002(2)
_cell_length_b                   8.1926(2)
_cell_length_c                   11.4604(3)
_cell_angle_alpha                79.850(1)
_cell_angle_beta                 88.425(1)
_cell_angle_gamma                76.982(1)
_cell_volume                     720.326
_exptl_crystal_colour            yellow
_exptl_crystal_description       laths
_cell_formula_units_Z            2
loop_
_atom_site_label
_atom_site_type_symbol
_atom_site_fract_x
_atom_site_fract_y
_atom_site_fract_z
N1 N 0.55045(17) 0.23625(17) 0.48509(12)
C1 C 0.5705(2) 0.1203(2) 0.58750(15)
H1 H 0.6799 0.0445 0.6080
C2 C 0.4350(2) 0.1110(2) 0.66147(15)
C3 C 0.2725(2) 0.2209(2) 0.62927(16)
H2 H 0.1768 0.2106 0.6803
C4 C 0.2528(2) 0.3375(2) 0.52741(16)
H3 H 0.1422 0.4104 0.5061
C5 C 0.3933(2) 0.3519(2) 0.45274(15)
C6 C 0.4194(2) 0.4544(2) 0.34625(15)
C7 C 0.5955(2) 0.3978(2) 0.31402(16)
C8 C 0.6964(2) 0.4628(2) 0.21099(16)
H4 H 0.6684 0.5850 0.1960
H5 H 0.6666 0.4244 0.1415
C9 C 0.8891(2) 0.3969(2) 0.23550(16)
H6 H 0.9229 0.4587 0.2912
H7 H 0.9508 0.4197 0.1636
C10 C 0.9370(2) 0.2080(2) 0.28750(16)
H8 H 1.0594 0.1728 0.2967
H9 H 0.9012 0.1450 0.2335
C11 C 0.8534(2) 0.1696(2) 0.40764(16)
H10 H 0.9137 0.2019 0.4680
H11 H 0.8564 0.0502 0.4285
C12 C 0.6718(2) 0.2659(2) 0.39953(16)
C13 C 0.4555(2) -0.0069(2) 0.77572(17)
O1 O 0.34425(17) -0.00908(17) 0.84952(11)
O2 O 0.61175(16) -0.11131(16) 0.79127(11)
C14 C 0.6416(2) -0.2289(2) 0.90266(16)
H12 H 0.7562 -0.2977 0.9051
H13 H 0.6275 -0.1653 0.9665
H14 H 0.5608 -0.3007 0.9107
C15 C 0.2876(2) 0.5957(2) 0.28904(16)
O3 O 0.15034(16) 0.65119(16) 0.33218(11)
O4 O 0.33406(15) 0.66407(16) 0.17995(11)
C16 C 0.2108(2) 0.8093(2) 0.11774(17)
H15 H 0.2686 0.8724 0.0575
H16 H 0.1618 0.8825 0.1726
C17 C 0.0697(3) 0.7560(3) 0.06101(18)
H17 H -0.0106 0.8535 0.0203
H18 H 0.1190 0.6839 0.0056
H19 H 0.0113 0.6940 0.1215
loop_
_geom_bond_atom_site_label_1
_geom_bond_atom_site_label_2
_geom_bond_site_symmetry_1
_geom_bond_site_symmetry_2
N1 C1 1_555 1_555
C1 H1 1_555 1_555
C2 C1 1_555 1_555
C3 C2 1_555 1_555
H2 C3 1_555 1_555
C4 C3 1_555 1_555
H3 C4 1_555 1_555
C5 N1 1_555 1_555
C6 C5 1_555 1_555
C7 C6 1_555 1_555
C8 C7 1_555 1_555
H4 C8 1_555 1_555
H5 C8 1_555 1_555
C9 C8 1_555 1_555
H6 C9 1_555 1_555
H7 C9 1_555 1_555
C10 C9 1_555 1_555
H8 C10 1_555 1_555
H9 C10 1_555 1_555
C11 C10 1_555 1_555
H10 C11 1_555 1_555
H11 C11 1_555 1_555
C12 N1 1_555 1_555
C13 C2 1_555 1_555
O1 C13 1_555 1_555
O2 C13 1_555 1_555
C14 O2 1_555 1_555
H12 C14 1_555 1_555
H13 C14 1_555 1_555
H14 C14 1_555 1_555
C15 C6 1_555 1_555
O3 C15 1_555 1_555
O4 C15 1_555 1_555
C16 O4 1_555 1_555
H15 C16 1_555 1_555
H16 C16 1_555 1_555
C17 C16 1_555 1_555
H17 C17 1_555 1_555
H18 C17 1_555 1_555
H19 C17 1_555 1_555
C4 C5 1_555 1_555
C7 C12 1_555 1_555
C11 C12 1_555 1_555

#END
