
#######################################################################
#
#                 Cambridge Crystallographic Data Centre
#                                CCDC 
#
#######################################################################
#
# If this CIF has been generated from an entry in the Cambridge 
# Structural Database, then it will include bibliographic, chemical, 
# crystal, experimental, refinement or atomic coordinate data resulting 
# from the CCDC's data processing and validation procedures.
#
#######################################################################

data_GESYUA
_chemical_formula_moiety         'C20 H17 Cl1 F4 N4 O4 S1'
_chemical_name_systematic        
N^2^-((4-Chlorophenyl)sulfonyl)-5,5,5-trifluoro-N^2^-(2-fluoro-4-(1,2,4-oxadiazol-3-yl)benzyl)norvalinamide
_symmetry_cell_setting           triclinic
_symmetry_space_group_name_H-M   'P 1'
_symmetry_Int_Tables_number      1
_space_group_name_Hall           'P 1'
loop_
_symmetry_equiv_pos_site_id
_symmetry_equiv_pos_as_xyz
1 x,y,z
_cell_length_a                   8.8278(4)
_cell_length_b                   8.9741(3)
_cell_length_c                   14.7343(6)
_cell_angle_alpha                102.024(2)
_cell_angle_beta                 96.090(2)
_cell_angle_gamma                92.800(2)
_cell_volume                     1132.2
_cell_formula_units_Z            2
loop_
_atom_site_label
_atom_site_type_symbol
_atom_site_fract_x
_atom_site_fract_y
_atom_site_fract_z
C1 C 0.8668(6) 0.8891(6) 0.1625(4)
H1 H 0.9251 0.8784 0.1129
C2 C 0.7063(5) 0.8562(4) 0.2492(3)
C3 C 0.5793(5) 0.7858(4) 0.2860(3)
C4 C 0.5081(6) 0.6465(5) 0.2413(3)
H2 H 0.5371 0.5979 0.1843
C5 C 0.3948(6) 0.5769(5) 0.2789(4)
H3 H 0.3494 0.4821 0.2470
C6 C 0.3466(5) 0.6462(4) 0.3640(3)
C7 C 0.4177(6) 0.7874(4) 0.4054(3)
C8 C 0.5290(6) 0.8595(5) 0.3694(4)
H4 H 0.5709 0.9564 0.4000
C9 C 0.2343(6) 0.5721(5) 0.4137(3)
H5 H 0.2908 0.5272 0.4601
H6 H 0.1767 0.6510 0.4468
C10 C -0.1570(5) 0.5306(5) 0.3983(3)
C11 C -0.1575(7) 0.6702(5) 0.4590(4)
H7 H -0.0965 0.7534 0.4517
C12 C -0.2481(8) 0.6864(6) 0.5302(4)
H8 H -0.2508 0.7806 0.5705
C13 C -0.3339(6) 0.5619(7) 0.5406(4)
C14 C -0.3350(6) 0.4212(7) 0.4823(4)
H9 H -0.3938 0.3381 0.4917
C15 C -0.2463(6) 0.4056(6) 0.4090(4)
H10 H -0.2469 0.3120 0.3674
C16 C 0.1256(5) 0.2957(4) 0.3710(3)
H11 H 0.0326 0.2389 0.3359
C17 C 0.2606(5) 0.2193(4) 0.3302(3)
C18 C 0.1221(6) 0.2880(5) 0.4729(3)
H12 H 0.2184 0.3325 0.5084
H13 H 0.0416 0.3483 0.4978
C19 C 0.0952(8) 0.1259(5) 0.4854(3)
H14 H 0.0135 0.0743 0.4384
H15 H 0.1868 0.0730 0.4740
C20 C 0.0565(7) 0.1130(7) 0.5749(4)
Cl1 Cl -0.4483(3) 0.5811(3) 0.63142(16)
F1 F 0.3746(4) 0.8574(3) 0.4884(3)
F2 F -0.0723(8) 0.1775(9) 0.5936(5)
F3 F 0.0396(7) -0.0279(5) 0.5877(3)
F4 F 0.1465(8) 0.1908(5) 0.6456(3)
N1 N 0.7555(4) 0.7937(4) 0.1643(3)
N2 N 0.7832(5) 0.9805(4) 0.2930(3)
N3 N 0.1258(4) 0.4534(4) 0.3539(2)
N4 N 0.2413(5) 0.1658(5) 0.2384(3)
H16 H 0.3138 0.1222 0.2110
H17 H 0.1562 0.1746 0.2064
O1 O 0.8934(5) 1.0041(4) 0.2359(3)
O2 O -0.1009(4) 0.3859(4) 0.2365(2)
O3 O 0.0010(5) 0.6540(4) 0.2921(3)
O4 O 0.3785(4) 0.2095(4) 0.3785(3)
S1 S -0.03438(12) 0.50807(11) 0.31016(7)
C21 C 0.5905(6) 1.1538(5) 1.1263(4)
H18 H 0.6033 1.2395 1.1751
C22 C 0.5124(4) 0.9460(5) 1.0405(3)
C23 C 0.4234(4) 0.7997(5) 1.0037(3)
C24 C 0.3028(5) 0.7569(5) 1.0477(3)
H19 H 0.2814 0.8186 1.1031
C25 C 0.2140(5) 0.6228(5) 1.0097(3)
H20 H 0.1333 0.5959 1.0403
C26 C 0.2418(4) 0.5281(5) 0.9278(3)
C27 C 0.3682(5) 0.5719(5) 0.8885(3)
C28 C 0.4584(5) 0.7029(5) 0.9244(3)
H21 H 0.5426 0.7267 0.8957
C29 C 0.1411(5) 0.3885(5) 0.8766(3)
H22 H 0.0708 0.4176 0.8292
H23 H 0.2047 0.3142 0.8449
C30 C 0.1148(5) 0.0129(5) 0.8942(3)
C31 C 0.2275(6) -0.0151(6) 0.8367(4)
H24 H 0.3134 0.0526 0.8445
C32 C 0.2103(7) -0.1468(6) 0.7668(4)
H25 H 0.2840 -0.1679 0.7262
C33 C 0.0834(7) -0.2457(5) 0.7581(4)
C34 C -0.0272(7) -0.2175(5) 0.8139(4)
H26 H -0.1128 -0.2857 0.8056
C35 C -0.0132(6) -0.0861(5) 0.8840(4)
H27 H -0.0887 -0.0652 0.9233
C36 C -0.1160(5) 0.2998(4) 0.9166(3)
H28 H -0.1544 0.2263 0.9510
C37 C -0.1748(5) 0.4559(4) 0.9571(3)
C38 C -0.1747(5) 0.2409(5) 0.8132(3)
H29 H -0.1549 0.3197 0.7789
H30 H -0.1206 0.1530 0.7879
C39 C -0.3450(6) 0.1960(6) 0.8008(4)
H31 H -0.3653 0.1303 0.8434
H32 H -0.3988 0.2875 0.8182
C40 C -0.4057(6) 0.1178(8) 0.7065(4)
Cl2 Cl 0.0692(3) -0.41431(17) 0.67271(12)
F5 F 0.3990(4) 0.4805(4) 0.8075(2)
F6 F -0.3836(7) 0.1981(9) 0.6443(4)
F7 F -0.3401(7) -0.0009(7) 0.6743(5)
F8 F -0.5534(5) 0.0810(7) 0.6956(3)
N5 N 0.4947(4) 1.0420(4) 1.1246(3)
N6 N 0.6144(5) 0.9983(5) 0.9953(3)
N7 N 0.0523(4) 0.3152(4) 0.9366(2)
N8 N -0.1831(5) 0.4826(4) 1.0481(3)
H33 H -0.2126 0.5683 1.0761
H34 H -0.1590 0.4144 1.0792
O5 O 0.6692(5) 1.1406(4) 1.0557(3)
O6 O 0.2910(4) 0.2310(5) 1.0035(3)
O7 O 0.0465(4) 0.1549(4) 1.0537(2)
O8 O -0.2064(5) 0.5452(4) 0.9082(3)
S2 S 0.13354(12) 0.18258(11) 0.98213(7)
loop_
_geom_bond_atom_site_label_1
_geom_bond_atom_site_label_2
_geom_bond_site_symmetry_1
_geom_bond_site_symmetry_2
C1 H1 1_555 1_555
C2 C3 1_555 1_555
C3 C4 1_555 1_555
C4 H2 1_555 1_555
C5 C4 1_555 1_555
H3 C5 1_555 1_555
C6 C5 1_555 1_555
C7 C6 1_555 1_555
C8 C3 1_555 1_555
H4 C8 1_555 1_555
C9 C6 1_555 1_555
H5 C9 1_555 1_555
H6 C9 1_555 1_555
C10 C11 1_555 1_555
C11 H7 1_555 1_555
C12 C11 1_555 1_555
H8 C12 1_555 1_555
C13 C12 1_555 1_555
C14 C13 1_555 1_555
H9 C14 1_555 1_555
C15 C10 1_555 1_555
H10 C15 1_555 1_555
C16 H11 1_555 1_555
C17 C16 1_555 1_555
C18 C16 1_555 1_555
H12 C18 1_555 1_555
H13 C18 1_555 1_555
C19 C18 1_555 1_555
H14 C19 1_555 1_555
H15 C19 1_555 1_555
C20 C19 1_555 1_555
Cl1 C13 1_555 1_555
F1 C7 1_555 1_555
F2 C20 1_555 1_555
F3 C20 1_555 1_555
F4 C20 1_555 1_555
N1 C1 1_555 1_555
N2 C2 1_555 1_555
N3 C9 1_555 1_555
N4 C17 1_555 1_555
H16 N4 1_555 1_555
H17 N4 1_555 1_555
O1 C1 1_555 1_555
O2 S1 1_555 1_555
O3 S1 1_555 1_555
O4 C17 1_555 1_555
S1 C10 1_555 1_555
C21 H18 1_555 1_555
C22 C23 1_555 1_555
C23 C24 1_555 1_555
C24 H19 1_555 1_555
C25 C24 1_555 1_555
H20 C25 1_555 1_555
C26 C25 1_555 1_555
C27 C26 1_555 1_555
C28 C23 1_555 1_555
H21 C28 1_555 1_555
C29 C26 1_555 1_555
H22 C29 1_555 1_555
H23 C29 1_555 1_555
C30 C31 1_555 1_555
C31 H24 1_555 1_555
C32 C31 1_555 1_555
H25 C32 1_555 1_555
C33 C32 1_555 1_555
C34 C33 1_555 1_555
H26 C34 1_555 1_555
C35 C30 1_555 1_555
H27 C35 1_555 1_555
C36 H28 1_555 1_555
C37 C36 1_555 1_555
C38 C36 1_555 1_555
H29 C38 1_555 1_555
H30 C38 1_555 1_555
C39 C38 1_555 1_555
H31 C39 1_555 1_555
H32 C39 1_555 1_555
C40 C39 1_555 1_555
Cl2 C33 1_555 1_555
F5 C27 1_555 1_555
F6 C40 1_555 1_555
F7 C40 1_555 1_555
F8 C40 1_555 1_555
N5 C21 1_555 1_555
N6 C22 1_555 1_555
N7 C29 1_555 1_555
N8 C37 1_555 1_555
H33 N8 1_555 1_555
H34 N8 1_555 1_555
O5 C21 1_555 1_555
O6 S2 1_555 1_555
O7 S2 1_555 1_555
O8 C37 1_555 1_555
S2 C30 1_555 1_555
C2 N1 1_555 1_555
C7 C8 1_555 1_555
C14 C15 1_555 1_555
C16 N3 1_555 1_555
N2 O1 1_555 1_555
N3 S1 1_555 1_555
C22 N5 1_555 1_555
C27 C28 1_555 1_555
C34 C35 1_555 1_555
C36 N7 1_555 1_555
N6 O5 1_555 1_555
N7 S2 1_555 1_555

#END
