
#######################################################################
#
#                 Cambridge Crystallographic Data Centre
#                                CCDC 
#
#######################################################################
#
# If this CIF has been generated from an entry in the Cambridge 
# Structural Database, then it will include bibliographic, chemical, 
# crystal, experimental, refinement or atomic coordinate data resulting 
# from the CCDC's data processing and validation procedures.
#
#######################################################################

data_GETCUE
_chemical_formula_moiety         'C30 H42 O4'
_chemical_name_systematic        
'(1S,2R,3E,4R)-(-)-[(1S)-(-)-Bornyl] 3-[2-(-)-bornyloxy-2-oxoethylidene]bicyclo[2.2.1]hept-5-ene-2-carboxylate'
_symmetry_cell_setting           orthorhombic
_symmetry_space_group_name_H-M   'P 21 21 21'
_symmetry_Int_Tables_number      19
_space_group_name_Hall           'P 2ac 2ab'
loop_
_symmetry_equiv_pos_site_id
_symmetry_equiv_pos_as_xyz
1 x,y,z
2 1/2+x,1/2-y,-z
3 -x,1/2+y,1/2-z
4 1/2-x,-y,1/2+z
_cell_length_a                   10.9316(3)
_cell_length_b                   11.0060(3)
_cell_length_c                   23.1602(6)
_cell_angle_alpha                90
_cell_angle_beta                 90
_cell_angle_gamma                90
_cell_volume                     2786.48
_exptl_crystal_colour            colorless
_exptl_crystal_description       platelet
_chemical_melting_point          115deg.C
_cell_formula_units_Z            4
loop_
_atom_site_label
_atom_site_type_symbol
_atom_site_fract_x
_atom_site_fract_y
_atom_site_fract_z
O1 O 0.5282(4) 0.3195(4) 0.8459(2)
O2 O 0.4317(4) 0.4808(4) 0.8866(2)
O3 O 0.7398(4) 0.2183(4) 0.7576(2)
O4 O 0.7285(4) 0.4212(4) 0.7672(2)
C1 C 0.4845(7) 0.4311(7) 0.7336(3)
C2 C 0.5608(6) 0.3205(5) 0.7233(3)
C3 C 0.5731(8) 0.3261(7) 0.6555(3)
C4 C 0.6418(9) 0.4368(12) 0.6412(4)
C5 C 0.5758(9) 0.5319(8) 0.6535(3)
C6 C 0.4564(7) 0.4874(8) 0.6754(3)
C7 C 0.4454(7) 0.3696(7) 0.6399(3)
C8 C 0.4455(7) 0.4703(7) 0.7843(4)
C9 C 0.4737(8) 0.4160(8) 0.8415(4)
C10 C 0.4629(7) 0.4297(7) 0.9418(3)
C11 C 0.4343(8) 0.5212(7) 0.9889(3)
C12 C 0.3002(8) 0.5617(7) 0.9822(3)
C13 C 0.2288(8) 0.4488(8) 1.0020(3)
C14 C 0.3292(8) 0.3572(7) 1.0166(3)
C15 C 0.3858(7) 0.3188(7) 0.9577(3)
C16 C 0.5216(7) 0.6268(6) 0.9916(3)
C17 C 0.4305(8) 0.4372(7) 1.0420(3)
C18 C 0.5482(7) 0.3698(6) 1.0561(3)
C19 C 0.3898(7) 0.5016(6) 1.0981(3)
C20 C 0.6853(7) 0.3123(8) 0.7520(3)
C21 C 0.8517(7) 0.4231(7) 0.7918(3)
C22 C 0.8971(8) 0.5534(8) 0.7948(3)
C23 C 0.8011(8) 0.6246(8) 0.8258(5)
C24 C 0.8087(11) 0.5831(14) 0.8883(5)
C25 C 0.9108(11) 0.4907(10) 0.8853(4)
C26 C 0.8572(7) 0.3786(7) 0.8536(4)
C27 C 0.9312(8) 0.6038(7) 0.7365(3)
C28 C 0.9961(7) 0.5430(7) 0.8408(4)
C29 C 1.1032(6) 0.4623(7) 0.8243(3)
C30 C 1.0533(6) 0.6660(7) 0.8589(3)
H1 H 0.5145 0.2506 0.7335
H2 H 0.5999 0.2538 0.6370
H3 H 0.713(3) 0.434(4) 0.634(2)
H4 H 0.5991 0.6144 0.6487
H5 H 0.3887 0.5414 0.6739
H6 H 0.4345 0.3833 0.5998
H7 H 0.3826 0.3173 0.6536
H8 H 0.404(3) 0.532(3) 0.7856(19)
H9 H 0.5473 0.4096 0.9428
H10 H 0.2827 0.6299 1.0059
H11 H 0.2822 0.5809 0.9431
H12 H 0.1806 0.4667 1.0351
H13 H 0.1775 0.4192 0.9720
H14 H 0.3040 0.2916 1.0405
H15 H 0.4354 0.2485 0.9616
H16 H 0.3241 0.3042 0.9296
H17 H 0.4779 0.6984 1.0016
H18 H 0.5826 0.6112 1.0199
H19 H 0.5592 0.6375 0.9550
H20 H 0.5478 0.2926 1.0378
H21 H 0.5544 0.3593 1.0968
H22 H 0.6161 0.4157 1.0427
H23 H 0.3305 0.5618 1.0891
H24 H 0.3552 0.4437 1.1238
H25 H 0.4586 0.5388 1.1159
H26 H 0.9052 0.3761 0.7684
H27 H 0.8173 0.7092 0.8228
H28 H 0.7225 0.6078 0.8102
H29 H 0.8286 0.6487 0.9132
H30 H 0.7341 0.5470 0.9005
H31 H 0.9480 0.4734 0.9215
H32 H 0.9096 0.3102 0.8572
H33 H 0.7781 0.3585 0.8676
H34 H 1.0162 0.5917 0.7301
H35 H 0.8859 0.5634 0.7073
H36 H 0.9135 0.6883 0.7356
H37 H 1.0891 0.3824 0.8383
H38 H 1.1762 0.4936 0.8409
H39 H 1.1110 0.4605 0.7835
H40 H 0.9927 0.7278 0.8573
H41 H 1.0842 0.6599 0.8971
H42 H 1.1182 0.6859 0.8332
loop_
_geom_bond_atom_site_label_1
_geom_bond_atom_site_label_2
_geom_bond_site_symmetry_1
_geom_bond_site_symmetry_2
O1 C9 1_555 1_555
O2 C9 1_555 1_555
O3 C20 1_555 1_555
O4 C20 1_555 1_555
C1 C2 1_555 1_555
C2 C3 1_555 1_555
C3 C4 1_555 1_555
C4 C5 1_555 1_555
C5 C6 1_555 1_555
C6 C1 1_555 1_555
C7 C3 1_555 1_555
C8 C1 1_555 1_555
C9 C8 1_555 1_555
C10 O2 1_555 1_555
C11 C10 1_555 1_555
C12 C11 1_555 1_555
C13 C12 1_555 1_555
C14 C13 1_555 1_555
C15 C10 1_555 1_555
C16 C11 1_555 1_555
C17 C11 1_555 1_555
C18 C17 1_555 1_555
C19 C17 1_555 1_555
C20 C2 1_555 1_555
C21 O4 1_555 1_555
C22 C21 1_555 1_555
C23 C22 1_555 1_555
C24 C23 1_555 1_555
C25 C24 1_555 1_555
C26 C21 1_555 1_555
C27 C22 1_555 1_555
C28 C22 1_555 1_555
C29 C28 1_555 1_555
C30 C28 1_555 1_555
H1 C2 1_555 1_555
H2 C3 1_555 1_555
H3 C4 1_555 1_555
H4 C5 1_555 1_555
H5 C6 1_555 1_555
H6 C7 1_555 1_555
H7 C7 1_555 1_555
H8 C8 1_555 1_555
H9 C10 1_555 1_555
H10 C12 1_555 1_555
H11 C12 1_555 1_555
H12 C13 1_555 1_555
H13 C13 1_555 1_555
H14 C14 1_555 1_555
H15 C15 1_555 1_555
H16 C15 1_555 1_555
H17 C16 1_555 1_555
H18 C16 1_555 1_555
H19 C16 1_555 1_555
H20 C18 1_555 1_555
H21 C18 1_555 1_555
H22 C18 1_555 1_555
H23 C19 1_555 1_555
H24 C19 1_555 1_555
H25 C19 1_555 1_555
H26 C21 1_555 1_555
H27 C23 1_555 1_555
H28 C23 1_555 1_555
H29 C24 1_555 1_555
H30 C24 1_555 1_555
H31 C25 1_555 1_555
H32 C26 1_555 1_555
H33 C26 1_555 1_555
H34 C27 1_555 1_555
H35 C27 1_555 1_555
H36 C27 1_555 1_555
H37 C29 1_555 1_555
H38 C29 1_555 1_555
H39 C29 1_555 1_555
H40 C30 1_555 1_555
H41 C30 1_555 1_555
H42 C30 1_555 1_555
C6 C7 1_555 1_555
C14 C15 1_555 1_555
C14 C17 1_555 1_555
C25 C26 1_555 1_555
C25 C28 1_555 1_555

#END
