
#######################################################################
#
#                 Cambridge Crystallographic Data Centre
#                                CCDC 
#
#######################################################################
#
# If this CIF has been generated from an entry in the Cambridge 
# Structural Database, then it will include bibliographic, chemical, 
# crystal, experimental, refinement or atomic coordinate data resulting 
# from the CCDC's data processing and validation procedures.
#
#######################################################################

data_GETDEP
_chemical_formula_moiety         'C34 H49 N1 O6'
_chemical_name_systematic        
'(1S,2R,3E,4R)-(+)-[(1S)-(-)-Bornyl] 3-[2-(-)-bornyloxy-2-oxoethylidene]-7-t-butoxycarbonyl-7-azabicyclo[2.2.1]hept-5-ene-2-carboxylate'
_symmetry_cell_setting           orthorhombic
_symmetry_space_group_name_H-M   'P 21 21 21'
_symmetry_Int_Tables_number      19
_space_group_name_Hall           'P 2ac 2ab'
loop_
_symmetry_equiv_pos_site_id
_symmetry_equiv_pos_as_xyz
1 x,y,z
2 1/2+x,1/2-y,-z
3 -x,1/2+y,1/2-z
4 1/2-x,-y,1/2+z
_cell_length_a                   7.2287(5)
_cell_length_b                   19.3154(12)
_cell_length_c                   23.6911(15)
_cell_angle_alpha                90
_cell_angle_beta                 90
_cell_angle_gamma                90
_cell_volume                     3307.88
_exptl_crystal_colour            colorless
_exptl_crystal_description       needle
_chemical_melting_point          138deg.C
_cell_formula_units_Z            4
loop_
_atom_site_label
_atom_site_type_symbol
_atom_site_fract_x
_atom_site_fract_y
_atom_site_fract_z
O1 O 0.2014(3) 0.32867(14) 0.11971(12)
O2 O 0.5070(3) 0.30307(12) 0.12933(11)
O3 O 0.4400(3) 0.01567(14) 0.21799(11)
O4 O 0.2169(3) 0.09600(12) 0.21572(9)
O5 O -0.1290(3) 0.10918(12) 0.09086(13)
O6 O 0.1111(2) 0.03942(12) 0.10155(10)
N1 N 0.3407(4) 0.24773(14) 0.06472(11)
C1 C 0.4641(5) 0.18570(16) 0.06620(13)
C2 C 0.3701(4) 0.14397(16) 0.11374(13)
C3 C 0.1648(4) 0.15946(17) 0.10587(14)
C4 C 0.1678(4) 0.20909(17) 0.05369(13)
C5 C 0.2321(7) 0.1652(2) 0.00403(18)
C6 C 0.4059(7) 0.1513(2) 0.01193(17)
C7 C 0.3391(6) 0.2956(2) 0.10689(17)
C8 C 0.5375(6) 0.3533(2) 0.17577(18)
C9 C 0.5067(7) 0.4247(2) 0.15437(18)
C10 C 0.7446(6) 0.3412(2) 0.1872(2)
C11 C 0.4256(7) 0.3343(2) 0.22628(18)
C12 C 0.4564(5) 0.1055(2) 0.15046(14)
C13 C 0.3726(5) 0.0673(2) 0.19775(14)
C14 C 0.1248(5) 0.0684(2) 0.26565(14)
C15 C 0.1078(5) 0.1252(2) 0.31053(14)
C16 C 0.0129(5) 0.18646(18) 0.28258(16)
C17 C -0.1877(5) 0.1628(2) 0.2731(2)
C18 C -0.1828(5) 0.0892(2) 0.29588(16)
C19 C -0.0741(5) 0.0463(2) 0.25399(14)
C20 C 0.2875(5) 0.1418(2) 0.33976(17)
C21 C -0.0515(5) 0.0947(2) 0.34620(16)
C22 C -0.1194(5) 0.1442(2) 0.39261(17)
C23 C -0.0056(6) 0.0253(2) 0.37485(14)
C24 C 0.0314(5) 0.10031(18) 0.09847(13)
C25 C 0.0026(4) -0.02338(17) 0.09391(14)
C26 C 0.0568(5) -0.06228(19) 0.04150(16)
C27 C 0.2686(6) -0.0722(2) 0.0454(2)
C28 C 0.2938(7) -0.1249(2) 0.0932(2)
C29 C 0.0983(6) -0.1387(2) 0.11029(18)
C30 C 0.0351(6) -0.0744(2) 0.14204(16)
C31 C -0.0111(8) -0.0297(2) -0.01214(18)
C32 C -0.0127(5) -0.13618(18) 0.05528(16)
C33 C -0.2177(6) -0.1426(2) 0.0632(2)
C34 C 0.0416(6) -0.1905(2) 0.01155(18)
H1 H 0.5927 0.1944 0.0705
H2 H 0.123(3) 0.1804(11) 0.1358(9)
H3 H 0.0597 0.2362 0.0480
H4 H 0.493(4) 0.1185(16) -0.0056(13)
H5 H 0.164(4) 0.1488(17) -0.0251(14)
H6 H 0.4153 0.4239 0.1256
H7 H 0.6191 0.4424 0.1394
H8 H 0.4662 0.4535 0.1844
H9 H 0.8045 0.3272 0.1534
H10 H 0.7986 0.3830 0.2004
H11 H 0.7584 0.3062 0.2150
H12 H 0.3093 0.3570 0.2244
H13 H 0.4888 0.3483 0.2596
H14 H 0.4072 0.2856 0.2270
H15 H 0.592(5) 0.1036(18) 0.1482(14)
H16 H 0.1932 0.0305 0.2803
H17 H 0.0174 0.2264 0.3060
H18 H 0.0706 0.1964 0.2475
H19 H -0.2204 0.1634 0.2342
H20 H -0.2720 0.1908 0.2937
H21 H -0.3006 0.0705 0.3051
H22 H -0.0905 -0.0019 0.2604
H23 H -0.1094 0.0572 0.2164
H24 H 0.3875 0.1323 0.3150
H25 H 0.2902 0.1893 0.3502
H26 H 0.2983 0.1139 0.3726
H27 H -0.1031 0.1908 0.3806
H28 H -0.0504 0.1365 0.4262
H29 H -0.2468 0.1359 0.3997
H30 H 0.1232 0.0233 0.3826
H31 H -0.0730 0.0217 0.4091
H32 H -0.0388 -0.0117 0.3505
H33 H -0.1251 -0.0118 0.0920
H34 H 0.3170 -0.0892 0.0108
H35 H 0.3272 -0.0296 0.0545
H36 H 0.3528 -0.1656 0.0797
H37 H 0.3641 -0.1059 0.1234
H38 H 0.0842 -0.1806 0.1308
H39 H -0.0757 -0.0831 0.1624
H40 H 0.1277 -0.0582 0.1672
H41 H -0.0224 0.0190 -0.0072
H42 H -0.1283 -0.0486 -0.0216
H43 H 0.0743 -0.0389 -0.0417
H44 H -0.2530 -0.1239 0.0987
H45 H -0.2504 -0.1902 0.0617
H46 H -0.2796 -0.1184 0.0338
H47 H 0.0857 -0.2307 0.0302
H48 H -0.0630 -0.2021 -0.0108
H49 H 0.1364 -0.1724 -0.0120
loop_
_geom_bond_atom_site_label_1
_geom_bond_atom_site_label_2
_geom_bond_site_symmetry_1
_geom_bond_site_symmetry_2
O1 C7 1_555 1_555
O2 C7 1_555 1_555
O3 C13 1_555 1_555
O4 C13 1_555 1_555
O5 C24 1_555 1_555
O6 C24 1_555 1_555
N1 C1 1_555 1_555
C1 C2 1_555 1_555
C2 C3 1_555 1_555
C3 C4 1_555 1_555
C4 N1 1_555 1_555
C5 C4 1_555 1_555
C6 C1 1_555 1_555
C7 N1 1_555 1_555
C8 O2 1_555 1_555
C9 C8 1_555 1_555
C10 C8 1_555 1_555
C11 C8 1_555 1_555
C12 C2 1_555 1_555
C13 C12 1_555 1_555
C14 O4 1_555 1_555
C15 C14 1_555 1_555
C16 C15 1_555 1_555
C17 C16 1_555 1_555
C18 C17 1_555 1_555
C19 C14 1_555 1_555
C20 C15 1_555 1_555
C21 C15 1_555 1_555
C22 C21 1_555 1_555
C23 C21 1_555 1_555
C24 C3 1_555 1_555
C25 O6 1_555 1_555
C26 C25 1_555 1_555
C27 C26 1_555 1_555
C28 C27 1_555 1_555
C29 C28 1_555 1_555
C30 C25 1_555 1_555
C31 C26 1_555 1_555
C32 C26 1_555 1_555
C33 C32 1_555 1_555
C34 C32 1_555 1_555
H1 C1 1_555 1_555
H2 C3 1_555 1_555
H3 C4 1_555 1_555
H4 C6 1_555 1_555
H5 C5 1_555 1_555
H6 C9 1_555 1_555
H7 C9 1_555 1_555
H8 C9 1_555 1_555
H9 C10 1_555 1_555
H10 C10 1_555 1_555
H11 C10 1_555 1_555
H12 C11 1_555 1_555
H13 C11 1_555 1_555
H14 C11 1_555 1_555
H15 C12 1_555 1_555
H16 C14 1_555 1_555
H17 C16 1_555 1_555
H18 C16 1_555 1_555
H19 C17 1_555 1_555
H20 C17 1_555 1_555
H21 C18 1_555 1_555
H22 C19 1_555 1_555
H23 C19 1_555 1_555
H24 C20 1_555 1_555
H25 C20 1_555 1_555
H26 C20 1_555 1_555
H27 C22 1_555 1_555
H28 C22 1_555 1_555
H29 C22 1_555 1_555
H30 C23 1_555 1_555
H31 C23 1_555 1_555
H32 C23 1_555 1_555
H33 C25 1_555 1_555
H34 C27 1_555 1_555
H35 C27 1_555 1_555
H36 C28 1_555 1_555
H37 C28 1_555 1_555
H38 C29 1_555 1_555
H39 C30 1_555 1_555
H40 C30 1_555 1_555
H41 C31 1_555 1_555
H42 C31 1_555 1_555
H43 C31 1_555 1_555
H44 C33 1_555 1_555
H45 C33 1_555 1_555
H46 C33 1_555 1_555
H47 C34 1_555 1_555
H48 C34 1_555 1_555
H49 C34 1_555 1_555
C5 C6 1_555 1_555
C18 C19 1_555 1_555
C18 C21 1_555 1_555
C29 C30 1_555 1_555
C29 C32 1_555 1_555

#END
