
#######################################################################
#
#                 Cambridge Crystallographic Data Centre
#                                CCDC 
#
#######################################################################
#
# If this CIF has been generated from an entry in the Cambridge 
# Structural Database, then it will include bibliographic, chemical, 
# crystal, experimental, refinement or atomic coordinate data resulting 
# from the CCDC's data processing and validation procedures.
#
#######################################################################

data_GETDAL
_chemical_formula_moiety         'C25 H36 O4'
_chemical_name_systematic        
'(R)-(-)-bis((1R)-Isobornyl) 2,3-pentadienedioate'
_symmetry_cell_setting           tetragonal
_symmetry_space_group_name_H-M   'P 41 21 2'
_symmetry_Int_Tables_number      92
_space_group_name_Hall           'P 4abw 2nw'
loop_
_symmetry_equiv_pos_site_id
_symmetry_equiv_pos_as_xyz
1 x,y,z
2 1/2-y,1/2+x,1/4+z
3 -x,-y,1/2+z
4 1/2+y,1/2-x,3/4+z
5 1/2-x,1/2+y,1/4-z
6 y,x,-z
7 1/2+x,1/2-y,3/4-z
8 -y,-x,1/2-z
_cell_length_a                   13.6803(4)
_cell_length_b                   13.6803(4)
_cell_length_c                   25.1696(10)
_cell_angle_alpha                90
_cell_angle_beta                 90
_cell_angle_gamma                90
_cell_volume                     4710.51
_exptl_crystal_colour            colorless
_exptl_crystal_description       prism
_cell_formula_units_Z            8
_exptl_crystal_recrystallization_method hexane
loop_
_atom_site_label
_atom_site_type_symbol
_atom_site_fract_x
_atom_site_fract_y
_atom_site_fract_z
O1 O 0.38527(11) 0.66635(11) 0.09411(6)
O2 O 0.40649(12) 0.62480(12) 0.00800(6)
O3 O 0.65562(13) 0.54302(16) 0.24017(6)
O4 O 0.66461(12) 0.61791(13) 0.16011(6)
C1 C 0.32260(17) 0.74689(17) 0.07660(9)
C2 C 0.27031(17) 0.79194(16) 0.12492(9)
C3 C 0.18851(18) 0.85435(19) 0.09856(12)
C4 C 0.2434(2) 0.94226(19) 0.07423(12)
C5 C 0.3511(2) 0.91982(19) 0.08810(11)
C6 C 0.3814(2) 0.83211(19) 0.05284(11)
C7 C 0.23296(19) 0.71999(18) 0.16586(10)
C8 C 0.34288(18) 0.87267(18) 0.14413(10)
C9 C 0.2992(2) 0.9421(2) 0.18576(12)
C10 C 0.4399(2) 0.8335(2) 0.16702(11)
C11 C 0.42267(17) 0.61191(17) 0.05475(8)
C12 C 0.48733(17) 0.53312(16) 0.07525(9)
C13 C 0.50892(16) 0.52222(14) 0.12492(10)
C14 C 0.53592(17) 0.50937(17) 0.17423(9)
C15 C 0.62428(18) 0.55754(19) 0.19567(8)
C16 C 0.75704(19) 0.6651(2) 0.17417(10)
C17 C 0.84511(19) 0.61031(19) 0.15079(10)
C18 C 0.9326(2) 0.6594(2) 0.17900(12)
C19 C 0.9411(2) 0.7600(2) 0.15217(13)
C20 C 0.8545(2) 0.7607(2) 0.11334(13)
C21 C 0.7620(2) 0.7666(2) 0.14686(12)
C22 C 0.8417(2) 0.5005(2) 0.15563(12)
C23 C 0.8539(2) 0.6522(2) 0.09401(10)
C24 C 0.7695(2) 0.6285(2) 0.05608(12)
C25 C 0.9487(2) 0.6230(2) 0.06531(13)
H1 H 0.2799(19) 0.7202(18) 0.0573(9)
H2 H 0.145(2) 0.879(2) 0.1238(11)
H3 H 0.148(2) 0.809(2) 0.0694(13)
H4 H 0.209(2) 1.006(2) 0.0861(11)
H5 H 0.227(2) 0.947(2) 0.0266(10)
H6 H 0.398(2) 0.973(2) 0.0873(10)
H7 H 0.455(2) 0.817(2) 0.0556(10)
H8 H 0.364(2) 0.848(2) 0.0168(11)
H9 H 0.2869 0.6905 0.1834
H10 H 0.1951 0.6710 0.1488
H11 H 0.1937 0.7534 0.1911
H12 H 0.2517 0.9078 0.2060
H13 H 0.2693 0.9962 0.1686
H14 H 0.3497 0.9648 0.2086
H15 H 0.4328 0.8233 0.2042
H16 H 0.4904 0.8798 0.1608
H17 H 0.4561 0.7734 0.1503
H18 H 0.514(2) 0.498(2) 0.0550(10)
H19 H 0.497(2) 0.466(2) 0.2017(12)
H20 H 0.767(2) 0.675(2) 0.2170(11)
H21 H 0.9205 0.6663 0.2160
H22 H 0.9905 0.6224 0.1738
H23 H 0.9353 0.8113 0.1774
H24 H 1.002(2) 0.764(2) 0.1325(12)
H25 H 0.8585 0.8077 0.0857
H26 H 0.7676 0.8174 0.1724
H27 H 0.7058 0.7775 0.1255
H28 H 0.8392 0.4829 0.1921
H29 H 0.7849 0.4768 0.1381
H30 H 0.8982 0.4727 0.1398
H31 H 0.792(2) 0.649(2) 0.0191(12)
H32 H 0.772(2) 0.545(2) 0.0477(10)
H33 H 0.707(2) 0.667(2) 0.0698(12)
H34 H 0.9975 0.6707 0.0723
H35 H 0.9369 0.6200 0.0282
H36 H 0.9705 0.5610 0.0775
loop_
_geom_bond_atom_site_label_1
_geom_bond_atom_site_label_2
_geom_bond_site_symmetry_1
_geom_bond_site_symmetry_2
O1 C1 1_555 1_555
O2 C11 1_555 1_555
O3 C15 1_555 1_555
O4 C15 1_555 1_555
C1 C2 1_555 1_555
C2 C3 1_555 1_555
C3 C4 1_555 1_555
C4 C5 1_555 1_555
C5 C6 1_555 1_555
C6 C1 1_555 1_555
C7 C2 1_555 1_555
C8 C2 1_555 1_555
C9 C8 1_555 1_555
C10 C8 1_555 1_555
C11 O1 1_555 1_555
C12 C11 1_555 1_555
C13 C12 1_555 1_555
C14 C13 1_555 1_555
C15 C14 1_555 1_555
C16 O4 1_555 1_555
C17 C16 1_555 1_555
C18 C17 1_555 1_555
C19 C18 1_555 1_555
C20 C19 1_555 1_555
C21 C16 1_555 1_555
C22 C17 1_555 1_555
C23 C17 1_555 1_555
C24 C23 1_555 1_555
C25 C23 1_555 1_555
H1 C1 1_555 1_555
H2 C3 1_555 1_555
H3 C3 1_555 1_555
H4 C4 1_555 1_555
H5 C4 1_555 1_555
H6 C5 1_555 1_555
H7 C6 1_555 1_555
H8 C6 1_555 1_555
H9 C7 1_555 1_555
H10 C7 1_555 1_555
H11 C7 1_555 1_555
H12 C9 1_555 1_555
H13 C9 1_555 1_555
H14 C9 1_555 1_555
H15 C10 1_555 1_555
H16 C10 1_555 1_555
H17 C10 1_555 1_555
H18 C12 1_555 1_555
H19 C14 1_555 1_555
H20 C16 1_555 1_555
H21 C18 1_555 1_555
H22 C18 1_555 1_555
H23 C19 1_555 1_555
H24 C19 1_555 1_555
H25 C20 1_555 1_555
H26 C21 1_555 1_555
H27 C21 1_555 1_555
H28 C22 1_555 1_555
H29 C22 1_555 1_555
H30 C22 1_555 1_555
H31 C24 1_555 1_555
H32 C24 1_555 1_555
H33 C24 1_555 1_555
H34 C25 1_555 1_555
H35 C25 1_555 1_555
H36 C25 1_555 1_555
C5 C8 1_555 1_555
C20 C21 1_555 1_555
C20 C23 1_555 1_555

#END
