
#######################################################################
#
#                 Cambridge Crystallographic Data Centre
#                                CCDC 
#
#######################################################################
#
# If this CIF has been generated from an entry in the Cambridge 
# Structural Database, then it will include bibliographic, chemical, 
# crystal, experimental, refinement or atomic coordinate data resulting 
# from the CCDC's data processing and validation procedures.
#
#######################################################################

data_GETLID
_chemical_formula_moiety         'C20 H22 F1 N3 O2 S1'
_chemical_name_systematic        
'methyl 2-(7-t-butyl-4,5,6,7-tetrahydrothieno[2,3-c]pyridin-2-yl)-5-fluoro-1H-benzimidazole-7-carboxylate'
_symmetry_cell_setting           monoclinic
_symmetry_space_group_name_H-M   'P 21'
_symmetry_Int_Tables_number      4
_space_group_name_Hall           'P 2yb'
loop_
_symmetry_equiv_pos_site_id
_symmetry_equiv_pos_as_xyz
1 x,y,z
2 -x,1/2+y,-z
_cell_length_a                   9.8069(6)
_cell_length_b                   7.2760(4)
_cell_length_c                   27.6340(15)
_cell_angle_alpha                90
_cell_angle_beta                 94.746(3)
_cell_angle_gamma                90
_cell_volume                     1965.06
_cell_formula_units_Z            4
loop_
_atom_site_label
_atom_site_type_symbol
_atom_site_fract_x
_atom_site_fract_y
_atom_site_fract_z
S1 S 0.71373(8) 0.62193(15) 0.03112(3)
F1 F 0.6654(2) 0.4223(4) 0.30723(8)
O1 O 1.1373(2) 0.2344(4) 0.28828(8)
O2 O 1.1704(3) 0.2633(4) 0.20962(9)
N1 N 0.9468(3) 0.4259(4) 0.14625(9)
H1 H 1.0267 0.3951 0.1384
C1 C 0.4820(4) 0.6481(10) -0.05864(16)
H2 H 0.3974 0.5949 -0.0719
H3 H 0.4746 0.7797 -0.0593
H4 H 0.5012 0.6076 -0.0257
C2 C 0.5979(4) 0.5877(9) -0.08891(13)
C3 C 0.7342(3) 0.6788(5) -0.06972(11)
H5 H 0.7128 0.8090 -0.0654
C4 C 0.7973(3) 0.6151(6) -0.02129(10)
C5 C 0.8553(3) 0.5367(5) 0.06524(11)
C6 C 0.8446(3) 0.4999(5) 0.11624(11)
C7 C 0.8988(3) 0.4094(5) 0.19139(11)
C8 C 0.9558(3) 0.3453(5) 0.23628(11)
C9 C 1.0972(4) 0.2778(5) 0.24242(12)
C10 C 1.2753(3) 0.1686(6) 0.29824(13)
H6 H 1.2996 0.0931 0.2718
H7 H 1.2815 0.0974 0.3276
H8 H 1.3367 0.2712 0.3020
C11 C 0.8736(4) 0.3547(5) 0.27510(13)
H9 H 0.9082 0.3173 0.3059
C12 C 0.7422(4) 0.4188(6) 0.26805(13)
C13 C 0.6822(4) 0.4812(6) 0.22423(13)
H10 H 0.5924 0.5234 0.2207
C14 C 0.7642(3) 0.4768(5) 0.18573(12)
N2 N 0.7315(3) 0.5341(4) 0.13845(9)
C15 C 0.9598(4) 0.5088(5) 0.03766(12)
H11 H 1.0449 0.4660 0.0501
C16 C 0.9290(3) 0.5504(4) -0.01219(11)
C17 C 1.0222(4) 0.5289(5) -0.05196(11)
H12 H 1.0764 0.4181 -0.0468
H13 H 1.0841 0.6329 -0.0519
C18 C 0.9379(4) 0.5177(6) -0.10017(12)
H14 H 0.9974 0.5206 -0.1265
H15 H 0.8867 0.4035 -0.1023
N3 N 0.8434(3) 0.6749(5) -0.10414(10)
C19 C 0.5603(4) 0.6522(13) -0.14140(15)
H16 H 0.6118 0.5829 -0.1632
H17 H 0.5814 0.7804 -0.1441
H18 H 0.4643 0.6335 -0.1496
C20 C 0.6070(6) 0.3758(9) -0.0867(2)
H19 H 0.5188 0.3240 -0.0963
H20 H 0.6355 0.3382 -0.0541
H21 H 0.6722 0.3337 -0.1082
H22 H 0.808(3) 0.687(5) -0.1313(12)
S2 S 0.28972(8) 0.58707(15) 0.47754(3)
F2 F 0.3658(2) 0.6742(4) 0.19924(7)
O3 O -0.1461(3) 0.8737(4) 0.28700(9)
O4 O -0.1051(2) 0.8864(4) 0.20884(8)
N4 N 0.1390(3) 0.5197(4) 0.60804(10)
C21 C 0.0591(3) 0.6109(5) 0.51370(10)
N5 N 0.2787(2) 0.6057(4) 0.36781(9)
C22 C 0.3553(4) 0.2495(6) 0.57496(17)
H23 H 0.2808 0.1986 0.5910
H24 H 0.4364 0.1781 0.5829
H25 H 0.3331 0.2471 0.5405
C23 C 0.3799(3) 0.4463(6) 0.59149(12)
C24 C 0.2537(3) 0.5714(5) 0.57972(10)
H26 H 0.2810 0.6962 0.5897
C25 C 0.1942(3) 0.5836(5) 0.52726(10)
C26 C 0.1474(3) 0.6241(5) 0.43866(10)
C27 C 0.1651(3) 0.6465(5) 0.38733(11)
N6 N 0.0651(2) 0.7172(4) 0.35465(8)
H27 H -0.0156 0.7514 0.3607
C28 C 0.1195(3) 0.7225(4) 0.31033(10)
C29 C 0.0683(3) 0.7774(5) 0.26362(11)
C30 C -0.0712(3) 0.8494(5) 0.25549(12)
C31 C -0.2438(4) 0.9536(6) 0.19642(14)
H28 H -0.3079 0.8752 0.2109
H29 H -0.2627 0.9532 0.1618
H30 H -0.2519 1.0765 0.2085
C32 C 0.5050(4) 0.5262(8) 0.56882(15)
H31 H 0.4966 0.5038 0.5345
H32 H 0.5866 0.4685 0.5831
H33 H 0.5098 0.6562 0.5747
C33 C 0.0242(3) 0.6477(5) 0.60022(11)
H34 H 0.0573 0.7730 0.6037
H35 H -0.0404 0.6267 0.6244
C34 C -0.0468(3) 0.6210(6) 0.54984(10)
H36 H -0.1000 0.5085 0.5488
H37 H -0.1085 0.7228 0.5419
C35 C 0.2526(3) 0.6517(5) 0.31901(11)
C36 C 0.1556(3) 0.7589(5) 0.22697(12)
H38 H 0.1257 0.7927 0.1954
C37 C 0.2855(3) 0.6916(6) 0.23666(12)
C38 C 0.3385(3) 0.6360(6) 0.28162(11)
H39 H 0.4271 0.5904 0.2869
C39 C 0.0321(3) 0.6338(5) 0.46305(11)
H40 H -0.0549 0.6533 0.4479
C40 C 0.4146(4) 0.4470(7) 0.64706(13)
H41 H 0.4202 0.5715 0.6585
H42 H 0.5008 0.3868 0.6547
H43 H 0.3443 0.3831 0.6625
H44 H 0.167(4) 0.537(5) 0.6390(14)
loop_
_geom_bond_atom_site_label_1
_geom_bond_atom_site_label_2
_geom_bond_site_symmetry_1
_geom_bond_site_symmetry_2
S1 C4 1_555 1_555
F1 C12 1_555 1_555
O1 C9 1_555 1_555
O2 C9 1_555 1_555
N1 H1 1_555 1_555
C1 H2 1_555 1_555
H3 C1 1_555 1_555
H4 C1 1_555 1_555
C2 C1 1_555 1_555
C3 C2 1_555 1_555
H5 C3 1_555 1_555
C4 C3 1_555 1_555
C5 S1 1_555 1_555
C6 N1 1_555 1_555
C7 N1 1_555 1_555
C8 C7 1_555 1_555
C9 C8 1_555 1_555
C10 O1 1_555 1_555
H6 C10 1_555 1_555
H7 C10 1_555 1_555
H8 C10 1_555 1_555
C11 C8 1_555 1_555
H9 C11 1_555 1_555
C12 C11 1_555 1_555
C13 C12 1_555 1_555
H10 C13 1_555 1_555
C14 C7 1_555 1_555
N2 C6 1_555 1_555
C15 C5 1_555 1_555
H11 C15 1_555 1_555
C16 C4 1_555 1_555
C17 C16 1_555 1_555
H12 C17 1_555 1_555
H13 C17 1_555 1_555
C18 C17 1_555 1_555
H14 C18 1_555 1_555
H15 C18 1_555 1_555
N3 C3 1_555 1_555
C19 C2 1_555 1_555
H16 C19 1_555 1_555
H17 C19 1_555 1_555
H18 C19 1_555 1_555
C20 C2 1_555 1_555
H19 C20 1_555 1_555
H20 C20 1_555 1_555
H21 C20 1_555 1_555
H22 N3 1_555 1_555
S2 C25 1_555 1_555
F2 C37 1_555 1_555
O3 C30 1_555 1_555
O4 C30 1_555 1_555
N4 C24 1_555 1_555
C21 C25 1_555 1_555
N5 C27 1_555 1_555
C22 H23 1_555 1_555
H24 C22 1_555 1_555
H25 C22 1_555 1_555
C23 C22 1_555 1_555
C24 C23 1_555 1_555
H26 C24 1_555 1_555
C25 C24 1_555 1_555
C26 S2 1_555 1_555
C27 C26 1_555 1_555
N6 C27 1_555 1_555
H27 N6 1_555 1_555
C28 N6 1_555 1_555
C29 C28 1_555 1_555
C30 C29 1_555 1_555
C31 O4 1_555 1_555
H28 C31 1_555 1_555
H29 C31 1_555 1_555
H30 C31 1_555 1_555
C32 C23 1_555 1_555
H31 C32 1_555 1_555
H32 C32 1_555 1_555
H33 C32 1_555 1_555
C33 N4 1_555 1_555
H34 C33 1_555 1_555
H35 C33 1_555 1_555
C34 C21 1_555 1_555
H36 C34 1_555 1_555
H37 C34 1_555 1_555
C35 N5 1_555 1_555
C36 C29 1_555 1_555
H38 C36 1_555 1_555
C37 C36 1_555 1_555
C38 C35 1_555 1_555
H39 C38 1_555 1_555
C39 C21 1_555 1_555
H40 C39 1_555 1_555
C40 C23 1_555 1_555
H41 C40 1_555 1_555
H42 C40 1_555 1_555
H43 C40 1_555 1_555
H44 N4 1_555 1_555
C5 C6 1_555 1_555
C13 C14 1_555 1_555
C14 N2 1_555 1_555
C15 C16 1_555 1_555
C18 N3 1_555 1_555
C26 C39 1_555 1_555
C28 C35 1_555 1_555
C33 C34 1_555 1_555
C37 C38 1_555 1_555

#END
