
#######################################################################
#
#                 Cambridge Crystallographic Data Centre
#                                CCDC 
#
#######################################################################
#
# If this CIF has been generated from an entry in the Cambridge 
# Structural Database, then it will include bibliographic, chemical, 
# crystal, experimental, refinement or atomic coordinate data resulting 
# from the CCDC's data processing and validation procedures.
#
#######################################################################

data_GETPUS
_chemical_formula_moiety         '2(C22 H17 I2 N1 O3 S1),C4 H8 O2'
_chemical_name_systematic        
'3-(diiodomethyl)-1-((4-methylphenyl)sulfonyl)-3-phenyl-1,3-dihydro-2H-indol-2-one ethyl acetate solvate'
_symmetry_cell_setting           triclinic
_symmetry_space_group_name_H-M   'P -1'
_symmetry_Int_Tables_number      2
_space_group_name_Hall           '-P 1'
loop_
_symmetry_equiv_pos_site_id
_symmetry_equiv_pos_as_xyz
1 x,y,z
2 -x,-y,-z
_cell_length_a                   10.5540(4)
_cell_length_b                   10.5679(5)
_cell_length_c                   21.6174(9)
_cell_angle_alpha                83.226(2)
_cell_angle_beta                 84.885(2)
_cell_angle_gamma                89.857(2)
_cell_volume                     2384.62
_exptl_crystal_colour            colorless
_exptl_crystal_description       prism
_cell_formula_units_Z            2
loop_
_atom_site_label
_atom_site_type_symbol
_atom_site_fract_x
_atom_site_fract_y
_atom_site_fract_z
C1 C 0.8611(2) 0.6237(3) 0.13603(12)
C2 C 0.8223(3) 0.5031(3) 0.16226(13)
H1 H 0.7365 0.4760 0.1627
C3 C 0.9136(3) 0.4225(3) 0.18807(14)
H2 H 0.8901 0.3381 0.2052
C4 C 1.0379(3) 0.4632(3) 0.18914(14)
H3 H 1.0980 0.4074 0.2079
C5 C 1.0753(3) 0.5855(3) 0.16289(13)
H4 H 1.1604 0.6138 0.1639
C6 C 0.9865(2) 0.6655(3) 0.13529(12)
C7 C 1.0026(2) 0.7993(2) 0.10233(12)
C8 C 0.8684(2) 0.8252(2) 0.07925(12)
C9 C 1.0969(2) 0.8123(3) 0.04372(12)
H5 H 1.0818 0.8974 0.0201
C10 C 1.0244(2) 0.9007(2) 0.14568(12)
C11 C 0.9974(3) 0.8722(3) 0.20954(13)
H6 H 0.9668 0.7895 0.2260
C12 C 1.0141(3) 0.9621(3) 0.24991(14)
H7 H 0.9960 0.9407 0.2937
C13 C 1.0572(3) 1.0832(3) 0.22620(14)
H8 H 1.0698 1.1451 0.2536
C14 C 1.0819(3) 1.1136(3) 0.16227(14)
H9 H 1.1106 1.1970 0.1458
C15 C 1.0653(2) 1.0234(3) 0.12192(13)
H10 H 1.0818 1.0454 0.0781
C16 C 0.6332(2) 0.7088(3) 0.01299(13)
C17 C 0.6189(2) 0.8192(3) -0.02815(13)
H11 H 0.6133 0.9005 -0.0135
C18 C 0.6130(3) 0.8067(3) -0.09070(14)
H12 H 0.6034 0.8806 -0.1194
C19 C 0.6210(3) 0.6876(3) -0.11257(14)
C20 C 0.6108(4) 0.6764(4) -0.18081(16)
H13 H 0.6406 0.5924 -0.1903
H14 H 0.6633 0.7428 -0.2064
H15 H 0.5219 0.6869 -0.1901
C21 C 0.6369(3) 0.5806(3) -0.07044(15)
H16 H 0.6432 0.4993 -0.0851
C22 C 0.6439(3) 0.5898(3) -0.00779(15)
H17 H 0.6557 0.5159 0.0206
I1 I 1.292825(16) 0.809497(19) 0.063494(10)
I2 I 1.05907(2) 0.67105(2) -0.016536(9)
N1 N 0.7890(2) 0.7245(2) 0.10592(11)
O1 O 0.83836(17) 0.91667(18) 0.04512(9)
O2 O 0.58300(19) 0.6078(2) 0.12820(10)
O3 O 0.58318(18) 0.8421(2) 0.10516(10)
S1 S 0.63328(6) 0.72176(7) 0.09277(3)
C23 C 0.6388(2) 0.7667(3) 0.52772(13)
C24 C 0.5177(3) 0.8133(3) 0.54034(15)
H18 H 0.4806 0.8136 0.5820
C25 C 0.4529(3) 0.8597(3) 0.48918(15)
H19 H 0.3690 0.8910 0.4963
C26 C 0.5064(3) 0.8618(3) 0.42868(15)
H20 H 0.4599 0.8955 0.3949
C27 C 0.6287(3) 0.8148(3) 0.41668(14)
H21 H 0.6664 0.8165 0.3750
C28 C 0.6939(2) 0.7654(3) 0.46702(13)
C29 C 0.8232(2) 0.7051(3) 0.46706(12)
C30 C 0.8329(2) 0.6661(3) 0.53815(12)
C31 C 0.8339(2) 0.5798(3) 0.43709(12)
H22 H 0.9147 0.5382 0.4493
C32 C 0.9351(2) 0.7961(3) 0.44411(12)
C33 C 0.9180(3) 0.9266(3) 0.43448(12)
H23 H 0.8351 0.9607 0.4407
C34 C 1.0215(3) 1.0085(3) 0.41570(13)
H24 H 1.0085 1.0979 0.4090
C35 C 1.1424(3) 0.9603(3) 0.40677(13)
H25 H 1.2129 1.0159 0.3940
C36 C 1.1600(3) 0.8294(3) 0.41675(14)
H26 H 1.2430 0.7954 0.4107
C37 C 1.0577(3) 0.7487(3) 0.43534(14)
H27 H 1.0712 0.6594 0.4423
C38 C 0.6780(2) 0.5349(3) 0.67284(12)
C39 C 0.7798(3) 0.4563(3) 0.68656(13)
H28 H 0.8645 0.4888 0.6803
C40 C 0.7563(3) 0.3304(3) 0.70943(14)
H29 H 0.8257 0.2762 0.7188
C41 C 0.6330(3) 0.2811(3) 0.71899(14)
C42 C 0.6103(4) 0.1437(4) 0.74573(19)
H30 H 0.5929 0.1384 0.7913
H31 H 0.6860 0.0938 0.7355
H32 H 0.5373 0.1099 0.7277
C43 C 0.5335(3) 0.3611(4) 0.70402(16)
H33 H 0.4490 0.3284 0.7099
C44 C 0.5544(3) 0.4875(3) 0.68071(15)
H34 H 0.4852 0.5411 0.6702
I3 I 0.845075(16) 0.604601(19) 0.336687(8)
I4 I 0.680664(16) 0.450392(18) 0.473772(9)
N2 N 0.7263(2) 0.7126(2) 0.57067(11)
O4 O 0.91734(18) 0.60605(19) 0.56136(9)
O5 O 0.8273(2) 0.7299(2) 0.66926(10)
O6 O 0.5967(2) 0.7682(2) 0.66481(10)
S2 S 0.70748(7) 0.69671(7) 0.64970(3)
C45 C 0.2347(14) 0.7741(18) 0.6660(7)
H35 H 0.2386 0.8099 0.6220
H36 H 0.1458 0.7562 0.6819
H37 H 0.2834 0.6949 0.6699
C46 C 0.3303(7) 0.9135(7) 0.8043(4)
H38 H 0.2908 0.9983 0.7964
H39 H 0.4238 0.9238 0.7961
C47 C 0.2895(7) 0.8670(7) 0.7029(5)
C48 C 0.2964(7) 0.8576(8) 0.8700(4)
H40 H 0.2036 0.8518 0.8781
H41 H 0.3303 0.9118 0.8985
H42 H 0.3329 0.7722 0.8767
O7 O 0.3391(6) 0.9666(5) 0.6802(3)
O8 O 0.2828(6) 0.8261(7) 0.7636(3)
C49? C 0.2898(8) 0.9062(9) 0.8435(4)
H43? H 0.3331 0.9700 0.8637
H44? H 0.3334 0.8244 0.8502
H45? H 0.2014 0.8965 0.8617
C50? C 0.2921(6) 0.9485(7) 0.7749(4)
C51? C 0.2597(8) 0.8840(8) 0.6770(4)
H46? H 0.3464 0.9046 0.6570
H47? H 0.2050 0.9591 0.6682
C52? C 0.2077(16) 0.7721(17) 0.6522(8)
H48? H 0.2518 0.6951 0.6683
H49? H 0.2203 0.7837 0.6064
H50? H 0.1166 0.7634 0.6654
O9? O 0.3148(5) 1.0555(5) 0.7500(3)
O10? O 0.2629(7) 0.8516(7) 0.7437(3)
loop_
_geom_bond_atom_site_label_1
_geom_bond_atom_site_label_2
_geom_bond_site_symmetry_1
_geom_bond_site_symmetry_2
C1 C2 1_555 1_555
C2 H1 1_555 1_555
C3 C2 1_555 1_555
H2 C3 1_555 1_555
C4 C3 1_555 1_555
H3 C4 1_555 1_555
C5 C4 1_555 1_555
H4 C5 1_555 1_555
C6 C1 1_555 1_555
C7 C6 1_555 1_555
C8 C7 1_555 1_555
C9 C7 1_555 1_555
H5 C9 1_555 1_555
C10 C7 1_555 1_555
C11 C10 1_555 1_555
H6 C11 1_555 1_555
C12 C11 1_555 1_555
H7 C12 1_555 1_555
C13 C12 1_555 1_555
H8 C13 1_555 1_555
C14 C13 1_555 1_555
H9 C14 1_555 1_555
C15 C10 1_555 1_555
H10 C15 1_555 1_555
C16 C17 1_555 1_555
C17 H11 1_555 1_555
C18 C17 1_555 1_555
H12 C18 1_555 1_555
C19 C18 1_555 1_555
C20 C19 1_555 1_555
H13 C20 1_555 1_555
H14 C20 1_555 1_555
H15 C20 1_555 1_555
C21 C19 1_555 1_555
H16 C21 1_555 1_555
C22 C16 1_555 1_555
H17 C22 1_555 1_555
I1 C9 1_555 1_555
I2 C9 1_555 1_555
N1 C1 1_555 1_555
O1 C8 1_555 1_555
O2 S1 1_555 1_555
O3 S1 1_555 1_555
S1 C16 1_555 1_555
C23 C24 1_555 1_555
C24 H18 1_555 1_555
C25 C24 1_555 1_555
H19 C25 1_555 1_555
C26 C25 1_555 1_555
H20 C26 1_555 1_555
C27 C26 1_555 1_555
H21 C27 1_555 1_555
C28 C23 1_555 1_555
C29 C28 1_555 1_555
C30 C29 1_555 1_555
C31 C29 1_555 1_555
H22 C31 1_555 1_555
C32 C29 1_555 1_555
C33 C32 1_555 1_555
H23 C33 1_555 1_555
C34 C33 1_555 1_555
H24 C34 1_555 1_555
C35 C34 1_555 1_555
H25 C35 1_555 1_555
C36 C35 1_555 1_555
H26 C36 1_555 1_555
C37 C32 1_555 1_555
H27 C37 1_555 1_555
C38 C39 1_555 1_555
C39 H28 1_555 1_555
C40 C39 1_555 1_555
H29 C40 1_555 1_555
C41 C40 1_555 1_555
C42 C41 1_555 1_555
H30 C42 1_555 1_555
H31 C42 1_555 1_555
H32 C42 1_555 1_555
C43 C41 1_555 1_555
H33 C43 1_555 1_555
C44 C38 1_555 1_555
H34 C44 1_555 1_555
I3 C31 1_555 1_555
I4 C31 1_555 1_555
N2 C23 1_555 1_555
O4 C30 1_555 1_555
O5 S2 1_555 1_555
O6 S2 1_555 1_555
S2 C38 1_555 1_555
C45 H35 1_555 1_555
H36 C45 1_555 1_555
H37 C45 1_555 1_555
C46 H38 1_555 1_555
H39 C46 1_555 1_555
C47 C45 1_555 1_555
C48 C46 1_555 1_555
H40 C48 1_555 1_555
H41 C48 1_555 1_555
H42 C48 1_555 1_555
O7 C47 1_555 1_555
O8 C46 1_555 1_555
C5 C6 1_555 1_555
C8 N1 1_555 1_555
C14 C15 1_555 1_555
C21 C22 1_555 1_555
N1 S1 1_555 1_555
C27 C28 1_555 1_555
C30 N2 1_555 1_555
C36 C37 1_555 1_555
C43 C44 1_555 1_555
N2 S2 1_555 1_555
C47 O8 1_555 1_555

#END
