
#######################################################################
#
#                 Cambridge Crystallographic Data Centre
#                                CCDC 
#
#######################################################################
#
# If this CIF has been generated from an entry in the Cambridge 
# Structural Database, then it will include bibliographic, chemical, 
# crystal, experimental, refinement or atomic coordinate data resulting 
# from the CCDC's data processing and validation procedures.
#
#######################################################################

data_GETSUT
_chemical_formula_moiety         'C18 H56 B2 N4 O1 Si6'
_chemical_name_systematic        
Oxo-bis((bis(trimethylsilyl)amino)-((trimethylsilyl)amino)borane)
_symmetry_cell_setting           monoclinic
_symmetry_space_group_name_H-M   'P 21/n'
_symmetry_Int_Tables_number      14
_space_group_name_Hall           '-P 2yn'
loop_
_symmetry_equiv_pos_site_id
_symmetry_equiv_pos_as_xyz
1 x,y,z
2 1/2-x,1/2+y,1/2-z
3 -x,-y,-z
4 1/2+x,1/2-y,1/2+z
_cell_length_a                   12.826(3)
_cell_length_b                   14.822(4)
_cell_length_c                   18.557(4)
_cell_angle_alpha                90
_cell_angle_beta                 95.98(2)
_cell_angle_gamma                90
_cell_volume                     3508.62
_chemical_melting_point          158-160deg.C
_cell_formula_units_Z            4
loop_
_atom_site_label
_atom_site_type_symbol
_atom_site_fract_x
_atom_site_fract_y
_atom_site_fract_z
Si1 Si 0.2031(1) 0.0835(1) 0.1051(1)
Si2 Si 0.1602(1) 0.2709(1) 0.1678(1)
Si3 Si 0.4084(1) 0.1427(1) 0.3577(1)
Si4 Si 0.6424(1) 0.3472(1) 0.1956(1)
Si5 Si 0.6791(1) 0.1615(1) 0.1329(1)
Si6 Si 0.4419(1) 0.2926(1) -0.0123(1)
B1 B 0.3347(2) 0.1742(2) 0.2087(1)
B2 B 0.4826(2) 0.2349(2) 0.1395(1)
O1 O 0.4346(1) 0.2018(1) 0.1978(1)
N1 N 0.2429(1) 0.1806(1) 0.1534(1)
N2 N 0.3231(2) 0.1400(2) 0.2785(1)
N3 N 0.5969(1) 0.2497(1) 0.1507(1)
N4 N 0.4228(2) 0.2539(2) 0.0734(1)
C1 C 0.3059(2) -0.0036(2) 0.1211(2)
C2 C 0.1836(3) 0.1047(3) 0.0055(2)
C3 C 0.0785(3) 0.0378(3) 0.1330(2)
C4 C 0.2426(2) 0.3711(2) 0.1928(2)
C5 C 0.0717(2) 0.2967(3) 0.0849(2)
C6 C 0.0782(3) 0.2498(3) 0.2435(2)
C7 C 0.3440(3) 0.0828(2) 0.4290(2)
C8 C 0.5328(2) 0.0865(3) 0.3432(2)
C9 C 0.4291(3) 0.2617(2) 0.3850(2)
C10 C 0.5385(2) 0.4344(2) 0.1858(2)
C11 C 0.6781(3) 0.3306(3) 0.2946(2)
C12 C 0.7615(2) 0.3916(2) 0.1584(2)
C13 C 0.7544(3) 0.1839(2) 0.0536(2)
C14 C 0.7782(2) 0.1372(3) 0.2115(2)
C15 C 0.6006(3) 0.0579(2) 0.1137(2)
C16 C 0.5550(2) 0.3696(2) -0.0117(2)
C17 C 0.4613(3) 0.1970(3) -0.0736(2)
C18 C 0.3210(2) 0.3546(3) -0.0467(2)
H1 H 0.2698(15) 0.1247(14) 0.2836(11)
H2 H 0.3643(14) 0.2409(12) 0.0745(9)
H3 H 0.2776 -0.0593 0.1012
H4 H 0.3274 -0.0114 0.1718
H5 H 0.3652 0.0137 0.0967
H6 H 0.1623 0.0506 -0.0203
H7 H 0.2482 0.1260 -0.0102
H8 H 0.1304 0.1500 -0.0041
H9 H 0.0629 -0.0194 0.1103
H10 H 0.0221 0.0791 0.1197
H11 H 0.0868 0.0304 0.1847
H12 H 0.1989 0.4214 0.2024
H13 H 0.2862 0.3873 0.1558
H14 H 0.2858 0.3550 0.2362
H15 H 0.0291 0.3472 0.0954
H16 H 0.0277 0.2455 0.0722
H17 H 0.1110 0.3114 0.0452
H18 H 0.0313 0.3003 0.2423
H19 H 0.1205 0.2483 0.2893
H20 H 0.0384 0.1950 0.2372
H21 H 0.3876 0.0920 0.4736
H22 H 0.3361 0.0193 0.4198
H23 H 0.2764 0.1093 0.4324
H24 H 0.5775 0.0850 0.3880
H25 H 0.5677 0.1176 0.3072
H26 H 0.5170 0.0260 0.3273
H27 H 0.4823 0.2651 0.4253
H28 H 0.3647 0.2857 0.3989
H29 H 0.4506 0.2962 0.3453
H30 H 0.5656 0.4912 0.2041
H31 H 0.4840 0.4147 0.2140
H32 H 0.5104 0.4411 0.1361
H33 H 0.7387 0.2921 0.2985
H34 H 0.6224 0.3014 0.3165
H35 H 0.6953 0.3865 0.3191
H36 H 0.7788 0.4438 0.1879
H37 H 0.7477 0.4096 0.1086
H38 H 0.8192 0.3500 0.1633
H39 H 0.7966 0.2363 0.0656
H40 H 0.7112 0.1942 0.0089
H41 H 0.7990 0.1329 0.0483
H42 H 0.8190 0.0867 0.1983
H43 H 0.7442 0.1221 0.2536
H44 H 0.8234 0.1882 0.2221
H45 H 0.6509 0.0118 0.1061
H46 H 0.5546 0.0665 0.0700
H47 H 0.5604 0.0400 0.1521
H48 H 0.5584 0.3859 -0.0615
H49 H 0.6188 0.3398 0.0065
H50 H 0.5461 0.4230 0.0163
H51 H 0.4577 0.2194 -0.1223
H52 H 0.4051 0.1551 -0.0696
H53 H 0.5272 0.1670 -0.0617
H54 H 0.3302 0.3784 -0.0937
H55 H 0.3078 0.4032 -0.0147
H56 H 0.2626 0.3137 -0.0505
loop_
_geom_bond_atom_site_label_1
_geom_bond_atom_site_label_2
_geom_bond_site_symmetry_1
_geom_bond_site_symmetry_2
Si1 N1 1_555 1_555
Si2 N1 1_555 1_555
Si3 N2 1_555 1_555
Si4 N3 1_555 1_555
Si5 N3 1_555 1_555
Si6 N4 1_555 1_555
B1 O1 1_555 1_555
B2 O1 1_555 1_555
N1 B1 1_555 1_555
N2 B1 1_555 1_555
N3 B2 1_555 1_555
N4 B2 1_555 1_555
C1 Si1 1_555 1_555
C2 Si1 1_555 1_555
C3 Si1 1_555 1_555
C4 Si2 1_555 1_555
C5 Si2 1_555 1_555
C6 Si2 1_555 1_555
C7 Si3 1_555 1_555
C8 Si3 1_555 1_555
C9 Si3 1_555 1_555
C10 Si4 1_555 1_555
C11 Si4 1_555 1_555
C12 Si4 1_555 1_555
C13 Si5 1_555 1_555
C14 Si5 1_555 1_555
C15 Si5 1_555 1_555
C16 Si6 1_555 1_555
C17 Si6 1_555 1_555
C18 Si6 1_555 1_555
H1 N2 1_555 1_555
H2 N4 1_555 1_555
H3 C1 1_555 1_555
H4 C1 1_555 1_555
H5 C1 1_555 1_555
H6 C2 1_555 1_555
H7 C2 1_555 1_555
H8 C2 1_555 1_555
H9 C3 1_555 1_555
H10 C3 1_555 1_555
H11 C3 1_555 1_555
H12 C4 1_555 1_555
H13 C4 1_555 1_555
H14 C4 1_555 1_555
H15 C5 1_555 1_555
H16 C5 1_555 1_555
H17 C5 1_555 1_555
H18 C6 1_555 1_555
H19 C6 1_555 1_555
H20 C6 1_555 1_555
H21 C7 1_555 1_555
H22 C7 1_555 1_555
H23 C7 1_555 1_555
H24 C8 1_555 1_555
H25 C8 1_555 1_555
H26 C8 1_555 1_555
H27 C9 1_555 1_555
H28 C9 1_555 1_555
H29 C9 1_555 1_555
H30 C10 1_555 1_555
H31 C10 1_555 1_555
H32 C10 1_555 1_555
H33 C11 1_555 1_555
H34 C11 1_555 1_555
H35 C11 1_555 1_555
H36 C12 1_555 1_555
H37 C12 1_555 1_555
H38 C12 1_555 1_555
H39 C13 1_555 1_555
H40 C13 1_555 1_555
H41 C13 1_555 1_555
H42 C14 1_555 1_555
H43 C14 1_555 1_555
H44 C14 1_555 1_555
H45 C15 1_555 1_555
H46 C15 1_555 1_555
H47 C15 1_555 1_555
H48 C16 1_555 1_555
H49 C16 1_555 1_555
H50 C16 1_555 1_555
H51 C17 1_555 1_555
H52 C17 1_555 1_555
H53 C17 1_555 1_555
H54 C18 1_555 1_555
H55 C18 1_555 1_555
H56 C18 1_555 1_555

#END
