
#######################################################################
#
#                 Cambridge Crystallographic Data Centre
#                                CCDC 
#
#######################################################################
#
# If this CIF has been generated from an entry in the Cambridge 
# Structural Database, then it will include bibliographic, chemical, 
# crystal, experimental, refinement or atomic coordinate data resulting 
# from the CCDC's data processing and validation procedures.
#
#######################################################################

data_GETXOT
_chemical_formula_moiety         'C50 H68 N6 O8'
_chemical_name_systematic        
N,N,N',N'-tetrakis(3-(1-(2-Hydroxy-4-methoxyphenyl)ethenylamino)propyl)ethylenediamine
_symmetry_cell_setting           triclinic
_symmetry_space_group_name_H-M   'P -1'
_symmetry_Int_Tables_number      2
_space_group_name_Hall           '-P 1'
loop_
_symmetry_equiv_pos_site_id
_symmetry_equiv_pos_as_xyz
1 x,y,z
2 -x,-y,-z
_cell_length_a                   6.761(4)
_cell_length_b                   11.928(6)
_cell_length_c                   15.575(8)
_cell_angle_alpha                82.263(8)
_cell_angle_beta                 85.777(8)
_cell_angle_gamma                73.743(8)
_cell_volume                     1194
_exptl_crystal_colour            yellow
_exptl_crystal_description       block
_cell_formula_units_Z            1
loop_
_atom_site_label
_atom_site_type_symbol
_atom_site_fract_x
_atom_site_fract_y
_atom_site_fract_z
N1 N 0.6222(5) 0.4910(3) 0.38783(17)
N2 N 0.4540(5) 0.4975(3) 0.18048(19)
N3 N 0.6911(4) 0.1825(3) 0.44256(19)
O1 O 0.7697(4) 0.4936(2) 0.08818(16)
H1 H 0.6785 0.5145 0.1250
O2 O 0.9926(5) 0.2034(2) -0.10450(18)
O3 O 0.9339(4) 0.1120(2) 0.56293(17)
H2 H 0.8917 0.1424 0.5149
O4 O 0.6987(5) -0.0466(3) 0.8335(2)
C1 C 0.5518(6) 0.5390(3) 0.4697(2)
H3 H 0.4557 0.6162 0.4580
H4 H 0.6689 0.5482 0.4977
C2 C 0.6290(7) 0.5831(3) 0.3163(2)
H5 H 0.7227 0.5488 0.2707
H6 H 0.6827 0.6417 0.3367
C3 C 0.4200(7) 0.6422(4) 0.2796(3)
H7 H 0.3300 0.6823 0.3239
H8 H 0.4342 0.7011 0.2319
C4 C 0.3214(6) 0.5582(4) 0.2478(3)
H9 H 0.2997 0.5013 0.2956
H10 H 0.1884 0.6009 0.2246
C5 C 0.8167(6) 0.3998(3) 0.3949(2)
H11 H 0.8295 0.3622 0.4542
H12 H 0.9292 0.4358 0.3815
C6 C 0.8361(5) 0.3066(3) 0.3345(2)
H13 H 0.8261 0.3436 0.2750
H14 H 0.9704 0.2500 0.3403
C7 C 0.6705(6) 0.2435(3) 0.3547(2)
H15 H 0.5357 0.2996 0.3494
H16 H 0.6829 0.1872 0.3137
C8 C 0.2472(6) 0.3599(4) 0.1786(3)
H17 H 0.1666 0.4037 0.2226
H18 H 0.2967 0.2787 0.2017
H19 H 0.1633 0.3664 0.1301
C9 C 0.4267(6) 0.4081(4) 0.1497(2)
C10 C 0.5749(6) 0.3565(3) 0.0840(2)
C11 C 0.7435(6) 0.4028(3) 0.0561(2)
C12 C 0.8841(6) 0.3533(3) -0.0075(2)
H20 H 0.9932 0.3847 -0.0262
C13 C 0.8621(6) 0.2588(4) -0.0424(2)
C14 C 0.6995(7) 0.2110(4) -0.0157(3)
H21 H 0.6850 0.1467 -0.0399
C15 C 0.5623(7) 0.2589(4) 0.0461(3)
H22 H 0.4550 0.2255 0.0641
C16 C 1.1744(7) 0.2393(4) -0.1275(3)
H23 H 1.2526 0.1944 -0.1714
H24 H 1.2558 0.2265 -0.0773
H25 H 1.1380 0.3214 -0.1493
C17 C 0.3245(5) 0.1909(3) 0.4589(2)
H26 H 0.3240 0.2271 0.3999
H27 H 0.2326 0.2447 0.4942
H28 H 0.2799 0.1209 0.4615
C18 C 0.5394(6) 0.1598(3) 0.4917(3)
C19 C 0.5841(5) 0.1055(3) 0.5790(2)
C20 C 0.7845(6) 0.0843(3) 0.6108(3)
C21 C 0.8241(6) 0.0318(3) 0.6956(3)
H29 H 0.9563 0.0163 0.7158
C22 C 0.6744(7) 0.0026(3) 0.7493(3)
C23 C 0.4766(7) 0.0218(3) 0.7195(3)
H30 H 0.3745 0.0000 0.7556
C24 C 0.4349(6) 0.0730(3) 0.6368(3)
H31 H 0.3020 0.0869 0.6178
C25 C 0.8978(8) -0.0726(4) 0.8681(3)
H32 H 0.8927 -0.1055 0.9277
H33 H 0.9402 -0.0017 0.8643
H34 H 0.9945 -0.1282 0.8357
N1A N 0.3778(5) 0.5090(3) 0.61217(17)
N2A N 0.5460(5) 0.5025(3) 0.81952(19)
N3A N 0.3089(4) 0.8175(3) 0.55744(19)
O1A O 0.2303(4) 0.5064(2) 0.91182(16)
H1A H 0.3215 0.4855 0.8750
O2A O 0.0074(5) 0.7966(2) 1.10450(18)
O3A O 0.0661(4) 0.8880(2) 0.43707(17)
H2A H 0.1083 0.8576 0.4851
O4A O 0.3013(5) 1.0466(3) 0.1665(2)
C1A C 0.4482(6) 0.4610(3) 0.5303(2)
H3A H 0.5443 0.3838 0.5420
H4A H 0.3311 0.4518 0.5023
C2A C 0.3710(7) 0.4169(3) 0.6837(2)
H5A H 0.2773 0.4512 0.7293
H6A H 0.3173 0.3583 0.6633
C3A C 0.5800(7) 0.3578(4) 0.7204(3)
H7A H 0.6700 0.3177 0.6761
H8A H 0.5658 0.2989 0.7681
C4A C 0.6786(6) 0.4418(4) 0.7522(3)
H9A H 0.7003 0.4987 0.7044
H10A H 0.8116 0.3991 0.7754
C5A C 0.1833(6) 0.6002(3) 0.6051(2)
H11A H 0.1705 0.6378 0.5458
H12A H 0.0708 0.5642 0.6185
C6A C 0.1639(5) 0.6934(3) 0.6655(2)
H13A H 0.1739 0.6564 0.7250
H14A H 0.0296 0.7500 0.6597
C7A C 0.3295(6) 0.7565(3) 0.6453(2)
H15A H 0.4643 0.7004 0.6506
H16A H 0.3171 0.8128 0.6863
C8A C 0.7528(6) 0.6401(4) 0.8214(3)
H17A H 0.8334 0.5963 0.7774
H18A H 0.7033 0.7213 0.7983
H19A H 0.8367 0.6336 0.8699
C9A C 0.5733(6) 0.5919(4) 0.8503(2)
C10A C 0.4251(6) 0.6435(3) 0.9160(2)
C11A C 0.2565(6) 0.5972(3) 0.9439(2)
C12A C 0.1159(6) 0.6467(3) 1.0075(2)
H20A H 0.0068 0.6153 1.0262
C13A C 0.1379(6) 0.7412(4) 1.0424(2)
C14A C 0.3005(7) 0.7890(4) 1.0157(3)
H21A H 0.3150 0.8533 1.0399
C15A C 0.4377(7) 0.7411(4) 0.9539(3)
H22A H 0.5450 0.7745 0.9359
C16A C -0.1744(7) 0.7607(4) 1.1275(3)
H23A H -0.2526 0.8056 1.1714
H24A H -0.2558 0.7735 1.0773
H25A H -0.1380 0.6786 1.1493
C17A C 0.6755(5) 0.8091(3) 0.5411(2)
H26A H 0.6760 0.7729 0.6001
H27A H 0.7674 0.7553 0.5058
H28A H 0.7201 0.8791 0.5385
C18A C 0.4606(6) 0.8402(3) 0.5083(3)
C19A C 0.4159(5) 0.8945(3) 0.4210(2)
C20A C 0.2155(6) 0.9157(3) 0.3892(3)
C21A C 0.1759(6) 0.9682(3) 0.3044(3)
H29A H 0.0437 0.9837 0.2842
C22A C 0.3256(7) 0.9974(3) 0.2507(3)
C23A C 0.5234(7) 0.9782(3) 0.2805(3)
H30A H 0.6255 1.0000 0.2444
C24A C 0.5651(6) 0.9270(3) 0.3632(3)
H31A H 0.6980 0.9131 0.3822
C25A C 0.1022(8) 1.0726(4) 0.1319(3)
H32A H 0.1073 1.1055 0.0723
H33A H 0.0598 1.0017 0.1357
H34A H 0.0055 1.1282 0.1643
loop_
_geom_bond_atom_site_label_1
_geom_bond_atom_site_label_2
_geom_bond_site_symmetry_1
_geom_bond_site_symmetry_2
N1 C1 1_555 1_555
N2 C4 1_555 1_555
N3 C7 1_555 1_555
O1 H1 1_555 1_555
O2 C13 1_555 1_555
O3 H2 1_555 1_555
O4 C22 1_555 1_555
C1 H3 1_555 1_555
H4 C1 1_555 1_555
C2 N1 1_555 1_555
H5 C2 1_555 1_555
H6 C2 1_555 1_555
C3 C2 1_555 1_555
H7 C3 1_555 1_555
H8 C3 1_555 1_555
C4 C3 1_555 1_555
H9 C4 1_555 1_555
H10 C4 1_555 1_555
C5 N1 1_555 1_555
H11 C5 1_555 1_555
H12 C5 1_555 1_555
C6 C5 1_555 1_555
H13 C6 1_555 1_555
H14 C6 1_555 1_555
C7 C6 1_555 1_555
H15 C7 1_555 1_555
H16 C7 1_555 1_555
C8 H17 1_555 1_555
H18 C8 1_555 1_555
H19 C8 1_555 1_555
C9 N2 1_555 1_555
C10 C9 1_555 1_555
C11 O1 1_555 1_555
C12 C11 1_555 1_555
H20 C12 1_555 1_555
C13 C12 1_555 1_555
C14 C13 1_555 1_555
H21 C14 1_555 1_555
C15 C10 1_555 1_555
H22 C15 1_555 1_555
C16 O2 1_555 1_555
H23 C16 1_555 1_555
H24 C16 1_555 1_555
H25 C16 1_555 1_555
C17 H26 1_555 1_555
H27 C17 1_555 1_555
H28 C17 1_555 1_555
C18 N3 1_555 1_555
C19 C18 1_555 1_555
C20 O3 1_555 1_555
C21 C20 1_555 1_555
H29 C21 1_555 1_555
C22 C21 1_555 1_555
C23 C22 1_555 1_555
H30 C23 1_555 1_555
C24 C19 1_555 1_555
H31 C24 1_555 1_555
C25 O4 1_555 1_555
H32 C25 1_555 1_555
H33 C25 1_555 1_555
H34 C25 1_555 1_555
N1A C1A 1_555 1_555
N2A C4A 1_555 1_555
N3A C7A 1_555 1_555
O1A H1A 1_555 1_555
O2A C13A 1_555 1_555
O3A H2A 1_555 1_555
O4A C22A 1_555 1_555
C1A C1 1_555 1_555
H3A C1A 1_555 1_555
H4A C1A 1_555 1_555
C2A N1A 1_555 1_555
H5A C2A 1_555 1_555
H6A C2A 1_555 1_555
C3A C2A 1_555 1_555
H7A C3A 1_555 1_555
H8A C3A 1_555 1_555
C4A C3A 1_555 1_555
H9A C4A 1_555 1_555
H10A C4A 1_555 1_555
C5A N1A 1_555 1_555
H11A C5A 1_555 1_555
H12A C5A 1_555 1_555
C6A C5A 1_555 1_555
H13A C6A 1_555 1_555
H14A C6A 1_555 1_555
C7A C6A 1_555 1_555
H15A C7A 1_555 1_555
H16A C7A 1_555 1_555
C8A H17A 1_555 1_555
H18A C8A 1_555 1_555
H19A C8A 1_555 1_555
C9A N2A 1_555 1_555
C10A C9A 1_555 1_555
C11A O1A 1_555 1_555
C12A C11A 1_555 1_555
H20A C12A 1_555 1_555
C13A C12A 1_555 1_555
C14A C13A 1_555 1_555
H21A C14A 1_555 1_555
C15A C10A 1_555 1_555
H22A C15A 1_555 1_555
C16A O2A 1_555 1_555
H23A C16A 1_555 1_555
H24A C16A 1_555 1_555
H25A C16A 1_555 1_555
C17A H26A 1_555 1_555
H27A C17A 1_555 1_555
H28A C17A 1_555 1_555
C18A N3A 1_555 1_555
C19A C18A 1_555 1_555
C20A O3A 1_555 1_555
C21A C20A 1_555 1_555
H29A C21A 1_555 1_555
C22A C21A 1_555 1_555
C23A C22A 1_555 1_555
H30A C23A 1_555 1_555
C24A C19A 1_555 1_555
H31A C24A 1_555 1_555
C25A O4A 1_555 1_555
H32A C25A 1_555 1_555
H33A C25A 1_555 1_555
H34A C25A 1_555 1_555
C8 C9 1_555 1_555
C10 C11 1_555 1_555
C14 C15 1_555 1_555
C17 C18 1_555 1_555
C19 C20 1_555 1_555
C23 C24 1_555 1_555
C8A C9A 1_555 1_555
C10A C11A 1_555 1_555
C14A C15A 1_555 1_555
C17A C18A 1_555 1_555
C19A C20A 1_555 1_555
C23A C24A 1_555 1_555

#END
