
#######################################################################
#
#                 Cambridge Crystallographic Data Centre
#                                CCDC 
#
#######################################################################
#
# If this CIF has been generated from an entry in the Cambridge 
# Structural Database, then it will include bibliographic, chemical, 
# crystal, experimental, refinement or atomic coordinate data resulting 
# from the CCDC's data processing and validation procedures.
#
#######################################################################

data_GETZUB
_chemical_formula_moiety         'C20 H25 N3 O1'
_chemical_name_systematic        
2-(2H-1,2,3-Benzotriazol-2-yl)-4-(2,4,4-trimethylpentan-2-yl)phenol
_symmetry_cell_setting           orthorhombic
_symmetry_space_group_name_H-M   'P c a 21'
_symmetry_Int_Tables_number      29
_space_group_name_Hall           'P 2c -2ac'
loop_
_symmetry_equiv_pos_site_id
_symmetry_equiv_pos_as_xyz
1 x,y,z
2 -x,-y,1/2+z
3 1/2+x,-y,z
4 1/2-x,y,1/2+z
_cell_length_a                   13.177(3)
_cell_length_b                   16.289(3)
_cell_length_c                   8.4280(17)
_cell_angle_alpha                90
_cell_angle_beta                 90
_cell_angle_gamma                90
_cell_volume                     1808.99
_exptl_crystal_colour            colorless
_exptl_crystal_description       Block
_cell_formula_units_Z            4
_exptl_crystal_recrystallization_method ethanol
loop_
_atom_site_label
_atom_site_type_symbol
_atom_site_fract_x
_atom_site_fract_y
_atom_site_fract_z
O1 O 0.3758(3) 0.2626(3) 0.0140(5)
H1 H 0.4071 0.2256 0.0658
N1 N 0.2590(3) 0.1417(2) 0.1875(6)
N2 N 0.3601(3) 0.1267(3) 0.1781(6)
N3 N 0.2067(3) 0.0910(3) 0.2782(6)
C1 C -0.1650(5) 0.4682(5) 0.2043(15)
H2 H -0.1598 0.4971 0.3032
H3 H -0.2317 0.4451 0.1942
H4 H -0.1530 0.5057 0.1183
C2 C -0.1025(6) 0.3446(6) 0.3413(10)
H5 H -0.0918 0.3752 0.4372
H6 H -0.0551 0.2998 0.3367
H7 H -0.1705 0.3234 0.3400
C3 C 0.0185(5) 0.4359(4) 0.2117(11)
H8 H 0.0270 0.4612 0.3137
H9 H 0.0278 0.4762 0.1300
H10 H 0.0678 0.3929 0.1992
C4 C -0.0868(6) 0.4002(5) 0.1996(11)
C5 C -0.1035(4) 0.3559(4) 0.0362(8)
H11 H -0.1763 0.3504 0.0233
H12 H -0.0811 0.3942 -0.0448
C6 C -0.0836(5) 0.2573(5) -0.1848(10)
H13 H -0.0535 0.2999 -0.2482
H14 H -0.1559 0.2583 -0.1982
H15 H -0.0577 0.2050 -0.2179
C7 C -0.1067(5) 0.2022(4) 0.0849(12)
H16 H -0.0933 0.2093 0.1961
H17 H -0.0793 0.1506 0.0503
H18 H -0.1786 0.2028 0.0670
C8 C -0.0572(4) 0.2717(4) -0.0080(8)
C9 C 0.0595(4) 0.2689(4) 0.0063(8)
C10 C 0.1191(5) 0.3238(4) -0.0795(8)
H19 H 0.0875 0.3629 -0.1431
C11 C 0.2233(5) 0.3220(4) -0.0726(8)
H20 H 0.2606 0.3612 -0.1278
C12 C 0.2734(5) 0.2628(3) 0.0151(8)
C13 C 0.2152(4) 0.2064(3) 0.0969(7)
C14 C 0.1098(4) 0.2083(3) 0.0939(7)
H21 H 0.0727 0.1694 0.1500
C15 C 0.3734(4) 0.0598(3) 0.2719(7)
C16 C 0.4604(4) 0.0140(4) 0.3105(7)
H22 H 0.5240 0.0282 0.2712
C17 C 0.4477(5) -0.0516(4) 0.4073(8)
H23 H 0.5039 -0.0830 0.4352
C18 C 0.3515(5) -0.0733(4) 0.4667(8)
H24 H 0.3459 -0.1196 0.5307
C19 C 0.2666(5) -0.0290(3) 0.4340(8)
H25 H 0.2038 -0.0434 0.4761
C20 C 0.2777(4) 0.0388(3) 0.3346(7)
loop_
_geom_bond_atom_site_label_1
_geom_bond_atom_site_label_2
_geom_bond_site_symmetry_1
_geom_bond_site_symmetry_2
O1 H1 1_555 1_555
N1 N2 1_555 1_555
N2 C15 1_555 1_555
N3 N1 1_555 1_555
C1 H2 1_555 1_555
H3 C1 1_555 1_555
H4 C1 1_555 1_555
C2 H5 1_555 1_555
H6 C2 1_555 1_555
H7 C2 1_555 1_555
C3 H8 1_555 1_555
H9 C3 1_555 1_555
H10 C3 1_555 1_555
C4 C1 1_555 1_555
C5 C4 1_555 1_555
H11 C5 1_555 1_555
H12 C5 1_555 1_555
C6 H13 1_555 1_555
H14 C6 1_555 1_555
H15 C6 1_555 1_555
C7 H16 1_555 1_555
H17 C7 1_555 1_555
H18 C7 1_555 1_555
C8 C5 1_555 1_555
C9 C8 1_555 1_555
C10 C9 1_555 1_555
H19 C10 1_555 1_555
C11 C10 1_555 1_555
H20 C11 1_555 1_555
C12 O1 1_555 1_555
C13 N1 1_555 1_555
C14 C9 1_555 1_555
H21 C14 1_555 1_555
C15 C16 1_555 1_555
C16 H22 1_555 1_555
C17 C16 1_555 1_555
H23 C17 1_555 1_555
C18 C17 1_555 1_555
H24 C18 1_555 1_555
C19 C18 1_555 1_555
H25 C19 1_555 1_555
C20 N3 1_555 1_555
C2 C4 1_555 1_555
C3 C4 1_555 1_555
C6 C8 1_555 1_555
C7 C8 1_555 1_555
C11 C12 1_555 1_555
C12 C13 1_555 1_555
C13 C14 1_555 1_555
C15 C20 1_555 1_555
C19 C20 1_555 1_555

#END
