
#######################################################################
#
#                 Cambridge Crystallographic Data Centre
#                                CCDC 
#
#######################################################################
#
# If this CIF has been generated from an entry in the Cambridge 
# Structural Database, then it will include bibliographic, chemical, 
# crystal, experimental, refinement or atomic coordinate data resulting 
# from the CCDC's data processing and validation procedures.
#
#######################################################################

data_GEVBOB
_chemical_formula_moiety         'C15 H13 F4 N2 O2 1+,C1 F3 O3 S1 1-'
_chemical_name_systematic        
'N,N,N-trimethyl-5-[(2,3,5,6-tetrafluorophenoxy)carbonyl]pyridin-2-aminium trifluoromethanesulfonate'
_symmetry_cell_setting           monoclinic
_symmetry_space_group_name_H-M   'P 21/n'
_symmetry_Int_Tables_number      14
_space_group_name_Hall           '-P 2yn'
loop_
_symmetry_equiv_pos_site_id
_symmetry_equiv_pos_as_xyz
1 x,y,z
2 1/2-x,1/2+y,1/2-z
3 -x,-y,-z
4 1/2+x,1/2-y,1/2+z
_cell_length_a                   7.6911(2)
_cell_length_b                   18.4315(5)
_cell_length_c                   13.5734(4)
_cell_angle_alpha                90
_cell_angle_beta                 98.1327(9)
_cell_angle_gamma                90
_cell_volume                     1904.79
_exptl_crystal_colour            colorless
_exptl_crystal_description       Irregular
_cell_formula_units_Z            4
loop_
_atom_site_label
_atom_site_type_symbol
_atom_site_fract_x
_atom_site_fract_y
_atom_site_fract_z
C1 C 0.3264(3) 0.38022(10) 0.30149(16)
O1 O 0.4689(2) 0.36434(8) 0.37312(13)
C2 C 0.3461(3) 0.38752(12) 0.20327(18)
F1 F 0.50660(19) 0.38777(9) 0.17623(13)
C3 C 0.1998(3) 0.39305(13) 0.13221(17)
F2 F 0.2232(2) 0.39776(11) 0.03626(11)
C4 C 0.0332(3) 0.39363(14) 0.15756(18)
H1 H -0.0660 0.3972 0.1087
C5 C 0.0165(3) 0.38883(13) 0.25611(18)
F3 F -0.14365(19) 0.39032(10) 0.28456(13)
C6 C 0.1605(3) 0.38171(11) 0.32809(16)
F4 F 0.1398(2) 0.37541(8) 0.42392(10)
C7 C 0.5671(3) 0.42035(11) 0.41525(16)
O2 O 0.5380(2) 0.48161(8) 0.39221(14)
C8 C 0.7118(3) 0.39312(10) 0.49015(15)
C9 C 0.8301(3) 0.44349(11) 0.53723(17)
H2 H 0.8117 0.4928 0.5217
N1 N 0.9679(2) 0.42530(9) 0.60308(14)
C10 C 0.9901(3) 0.35577(11) 0.62420(15)
N2 N 1.1516(2) 0.34048(9) 0.69614(12)
C11 C 0.8823(3) 0.30115(12) 0.58190(18)
H3 H 0.9053 0.2523 0.5987
C12 C 0.7391(3) 0.32086(11) 0.51388(17)
H4 H 0.6611 0.2854 0.4841
C13 C 1.3104(3) 0.35168(13) 0.64484(17)
H5 H 1.3044 0.3194 0.5880
H6 H 1.4157 0.3413 0.6909
H7 H 1.3135 0.4016 0.6224
C14 C 1.1603(3) 0.39094(15) 0.78401(18)
H8 H 1.1669 0.4407 0.7615
H9 H 1.2637 0.3798 0.8312
H10 H 1.0560 0.3848 0.8158
C15 C 1.1562(3) 0.26358(13) 0.7340(2)
H11 H 1.0506 0.2539 0.7633
H12 H 1.2584 0.2570 0.7840
H13 H 1.1625 0.2304 0.6792
S1 S 0.6944(7) 0.3137(4) 0.9015(4)
O3 O 0.5153(7) 0.2939(6) 0.8970(5)
O4 O 0.8058(7) 0.2926(2) 0.9882(3)
O5 O 0.7633(6) 0.3025(3) 0.8106(3)
C16 C 0.6870(8) 0.4119(4) 0.9103(4)
F5 F 0.6258(6) 0.4323(2) 0.9914(3)
F6 F 0.5898(6) 0.4414(2) 0.8335(4)
F7 F 0.8465(6) 0.4404(7) 0.9159(6)
S2? S 0.6938(10) 0.3130(6) 0.9093(5)
O6? O 0.5286(9) 0.2878(9) 0.8612(7)
O7? O 0.7140(9) 0.3089(4) 1.0145(4)
O8? O 0.8410(8) 0.2893(3) 0.8662(6)
C17? C 0.6919(11) 0.4105(6) 0.8878(6)
F8? F 0.5582(7) 0.4418(3) 0.9210(6)
F9? F 0.6801(10) 0.4247(3) 0.7920(4)
F10? F 0.8363(8) 0.4425(9) 0.9316(7)
loop_
_geom_bond_atom_site_label_1
_geom_bond_atom_site_label_2
_geom_bond_site_symmetry_1
_geom_bond_site_symmetry_2
C1 O1 1_555 1_555
O1 C7 1_555 1_555
C2 C1 1_555 1_555
F1 C2 1_555 1_555
C3 C2 1_555 1_555
F2 C3 1_555 1_555
C4 C3 1_555 1_555
H1 C4 1_555 1_555
C5 C4 1_555 1_555
F3 C5 1_555 1_555
C6 C1 1_555 1_555
F4 C6 1_555 1_555
C7 O2 1_555 1_555
C8 C7 1_555 1_555
C9 C8 1_555 1_555
H2 C9 1_555 1_555
N1 C9 1_555 1_555
C10 N1 1_555 1_555
N2 C10 1_555 1_555
C11 C10 1_555 1_555
H3 C11 1_555 1_555
C12 C8 1_555 1_555
H4 C12 1_555 1_555
C13 N2 1_555 1_555
H5 C13 1_555 1_555
H6 C13 1_555 1_555
H7 C13 1_555 1_555
C14 N2 1_555 1_555
H8 C14 1_555 1_555
H9 C14 1_555 1_555
H10 C14 1_555 1_555
C15 N2 1_555 1_555
H11 C15 1_555 1_555
H12 C15 1_555 1_555
H13 C15 1_555 1_555
S1 O3 1_555 1_555
O4 S1 1_555 1_555
O5 S1 1_555 1_555
C16 S1 1_555 1_555
F5 C16 1_555 1_555
F6 C16 1_555 1_555
F7 C16 1_555 1_555
C5 C6 1_555 1_555
C11 C12 1_555 1_555

#END
