
#######################################################################
#
#                 Cambridge Crystallographic Data Centre
#                                CCDC 
#
#######################################################################
#
# If this CIF has been generated from an entry in the Cambridge 
# Structural Database, then it will include bibliographic, chemical, 
# crystal, experimental, refinement or atomic coordinate data resulting 
# from the CCDC's data processing and validation procedures.
#
#######################################################################

data_GEVCAM
_chemical_formula_moiety         'C16 H15 Br1 O2'
_chemical_name_systematic        1-(4-Benzyloxyphenyl)-2-bromopropan-1-one
_symmetry_cell_setting           monoclinic
_symmetry_space_group_name_H-M   'P 21/n'
_symmetry_Int_Tables_number      14
_space_group_name_Hall           '-P 2yn'
loop_
_symmetry_equiv_pos_site_id
_symmetry_equiv_pos_as_xyz
1 x,y,z
2 1/2-x,1/2+y,1/2-z
3 -x,-y,-z
4 1/2+x,1/2-y,1/2+z
_cell_length_a                   4.9306(10)
_cell_length_b                   9.7622(14)
_cell_length_c                   29.912(6)
_cell_angle_alpha                90
_cell_angle_beta                 90.861(8)
_cell_angle_gamma                90
_cell_volume                     1439.61
_exptl_crystal_colour            colorless
_exptl_crystal_description       prism
_chemical_melting_point          '353 K'
_cell_formula_units_Z            4
_exptl_crystal_recrystallization_method chloroform
loop_
_atom_site_label
_atom_site_type_symbol
_atom_site_fract_x
_atom_site_fract_y
_atom_site_fract_z
Br1 Br 0.65291(8) 0.53738(4) 0.136899(13)
O1 O 0.6434(6) 0.9058(3) 0.14627(8)
O2 O 0.2810(5) 0.7752(3) 0.34241(7)
C1 C 1.0177(8) 0.7438(5) 0.10542(13)
H1 H 1.1151 0.6687 0.0926
H2 H 1.1411 0.8176 0.1118
H3 H 0.8802 0.7745 0.0847
C2 C 0.8857(7) 0.6974(4) 0.14852(11)
H4 H 1.0275 0.6724 0.1703
C3 C 0.7027(7) 0.8050(3) 0.16880(11)
C4 C 0.5971(7) 0.7896(3) 0.21435(10)
C5 C 0.3966(7) 0.8782(3) 0.22865(11)
H5 H 0.3295 0.9444 0.2090
C6 C 0.2946(7) 0.8707(4) 0.27102(11)
H6 H 0.1583 0.9305 0.2797
C7 C 0.3953(7) 0.7735(3) 0.30104(11)
C8 C 0.5968(8) 0.6842(3) 0.28768(11)
H7 H 0.6664 0.6195 0.3076
C9 C 0.6936(7) 0.6919(3) 0.24482(11)
H8 H 0.8265 0.6305 0.2359
C10 C 0.3926(9) 0.6852(5) 0.37592(12)
H9 H 0.5865 0.6999 0.3790
H10 H 0.3618 0.5905 0.3674
C11 C 0.2556(8) 0.7156(4) 0.41923(11)
C12 C 0.3300(9) 0.8280(4) 0.44412(13)
H11 H 0.4650 0.8858 0.4337
C13 C 0.2095(10) 0.8565(5) 0.48398(15)
H12 H 0.2627 0.9332 0.5003
C14 C 0.0139(11) 0.7737(6) 0.49962(14)
H13 H -0.0674 0.7933 0.5267
C15 C -0.0657(10) 0.6600(5) 0.47553(17)
H14 H -0.2009 0.6030 0.4863
C16 C 0.0558(9) 0.6309(5) 0.43530(14)
H15 H 0.0027 0.5541 0.4190
loop_
_geom_bond_atom_site_label_1
_geom_bond_atom_site_label_2
_geom_bond_site_symmetry_1
_geom_bond_site_symmetry_2
Br1 C2 1_555 1_555
O1 C3 1_555 1_555
O2 C7 1_555 1_555
C1 H1 1_555 1_555
H2 C1 1_555 1_555
H3 C1 1_555 1_555
C2 C1 1_555 1_555
H4 C2 1_555 1_555
C3 C2 1_555 1_555
C4 C3 1_555 1_555
C5 C4 1_555 1_555
H5 C5 1_555 1_555
C6 C5 1_555 1_555
H6 C6 1_555 1_555
C7 C6 1_555 1_555
C8 C7 1_555 1_555
H7 C8 1_555 1_555
C9 C4 1_555 1_555
H8 C9 1_555 1_555
C10 O2 1_555 1_555
H9 C10 1_555 1_555
H10 C10 1_555 1_555
C11 C10 1_555 1_555
C12 C11 1_555 1_555
H11 C12 1_555 1_555
C13 C12 1_555 1_555
H12 C13 1_555 1_555
C14 C13 1_555 1_555
H13 C14 1_555 1_555
C15 C14 1_555 1_555
H14 C15 1_555 1_555
C16 C11 1_555 1_555
H15 C16 1_555 1_555
C8 C9 1_555 1_555
C15 C16 1_555 1_555

#END
