
#######################################################################
#
#                 Cambridge Crystallographic Data Centre
#                                CCDC 
#
#######################################################################
#
# If this CIF has been generated from an entry in the Cambridge 
# Structural Database, then it will include bibliographic, chemical, 
# crystal, experimental, refinement or atomic coordinate data resulting 
# from the CCDC's data processing and validation procedures.
#
#######################################################################

data_GEVDIV
_chemical_formula_moiety         'C21 H17 N1 O2'
_chemical_name_systematic        
3-(3-Hydroxyanilino)-1,3-diphenylprop-2-en-1-one
_symmetry_cell_setting           orthorhombic
_symmetry_space_group_name_H-M   'P b c a'
_symmetry_Int_Tables_number      61
_space_group_name_Hall           '-P 2ac 2ab'
loop_
_symmetry_equiv_pos_site_id
_symmetry_equiv_pos_as_xyz
1 x,y,z
2 1/2+x,1/2-y,-z
3 -x,1/2+y,1/2-z
4 1/2-x,-y,1/2+z
5 -x,-y,-z
6 1/2-x,1/2+y,z
7 x,1/2-y,1/2+z
8 1/2+x,y,1/2-z
_cell_length_a                   7.1855(5)
_cell_length_b                   24.4898(19)
_cell_length_c                   37.352(3)
_cell_angle_alpha                90
_cell_angle_beta                 90
_cell_angle_gamma                90
_cell_volume                     6572.89
_exptl_crystal_colour            yellow
_exptl_crystal_description       block
_chemical_melting_point          '442.45-442.95 K'
_cell_formula_units_Z            16
_exptl_crystal_recrystallization_method 'dichloromethane/petroleum ether'
loop_
_atom_site_label
_atom_site_type_symbol
_atom_site_fract_x
_atom_site_fract_y
_atom_site_fract_z
C1 C 0.7503(4) 0.51682(15) 0.52162(8)
H1 H 0.7844 0.4799 0.5258
C2 C 0.7075(5) 0.5506(2) 0.55015(10)
H2 H 0.7150 0.5370 0.5739
C3 C 0.6540(5) 0.6037(2) 0.54424(13)
H3 H 0.6250 0.6268 0.5639
C4 C 0.6426(5) 0.62337(16) 0.51015(14)
H4 H 0.6026 0.6599 0.5062
C5 C 0.6885(5) 0.59083(13) 0.48137(10)
H5 H 0.6827 0.6051 0.4578
C6 C 0.7434(4) 0.53694(12) 0.48696(8)
C7 C 0.8005(4) 0.50332(12) 0.45579(8)
C8 C 0.7804(4) 0.44593(12) 0.45708(8)
H6 H 0.7258 0.4306 0.4780
C9 C 0.8340(4) 0.41056(11) 0.43031(8)
C10 C 0.7962(4) 0.35138(12) 0.43519(8)
C11 C 0.7011(4) 0.32217(12) 0.40913(9)
H7 H 0.6717 0.3390 0.3869
C12 C 0.6487(5) 0.26849(13) 0.41546(10)
H8 H 0.5837 0.2486 0.3975
C13 C 0.6906(6) 0.24391(14) 0.44756(11)
H9 H 0.6538 0.2072 0.4518
C14 C 0.7861(6) 0.27250(14) 0.47355(11)
H10 H 0.8162 0.2553 0.4956
C15 C 0.8382(5) 0.32632(13) 0.46760(9)
H11 H 0.9026 0.3460 0.4857
C16 C 1.0048(4) 0.40224(11) 0.37184(8)
C17 C 1.0016(4) 0.42572(11) 0.33798(8)
H12 H 0.9292 0.4575 0.3336
C18 C 1.1045(5) 0.40248(12) 0.31077(8)
C19 C 1.2095(4) 0.35627(12) 0.31663(9)
H13 H 1.2783 0.3402 0.2976
C20 C 1.2134(4) 0.33362(12) 0.35056(9)
H14 H 1.2874 0.3021 0.3548
C21 C 1.1117(4) 0.35590(12) 0.37844(9)
H15 H 1.1147 0.3399 0.4016
N1 N 0.9050(4) 0.42973(9) 0.39945(6)
H31 H 0.8870 0.4648 0.3957
O1 O 0.8664(3) 0.52780(8) 0.42869(5)
O2 O 1.1048(4) 0.42244(9) 0.27639(6)
H33 H 1.0748 0.4556 0.2766
C22 C 0.0536(5) 0.58036(13) 0.18085(8)
H16 H 0.0706 0.6180 0.1861
C23 C 0.0664(5) 0.56271(14) 0.14571(9)
H17 H 0.0930 0.5880 0.1271
C24 C 0.0406(5) 0.50838(14) 0.13777(9)
H18 H 0.0481 0.4961 0.1137
C25 C 0.0038(5) 0.47208(14) 0.16481(9)
H19 H -0.0139 0.4346 0.1593
C26 C -0.0079(5) 0.48954(13) 0.20000(9)
H20 H -0.0328 0.4639 0.2185
C27 C 0.0168(4) 0.54442(12) 0.20840(8)
C28 C 0.0061(4) 0.56347(11) 0.24623(8)
C29 C -0.0370(4) 0.61948(11) 0.25305(8)
H21 H -0.0827 0.6407 0.2337
C30 C -0.0171(4) 0.64470(11) 0.28559(8)
C31 C -0.0707(4) 0.70329(11) 0.28944(7)
C32 C -0.1864(4) 0.71961(12) 0.31745(8)
H22 H -0.2231 0.6940 0.3352
C33 C -0.2479(4) 0.77317(13) 0.31928(8)
H23 H -0.3290 0.7839 0.3381
C34 C -0.1923(4) 0.81101(13) 0.29406(9)
H24 H -0.2334 0.8478 0.2957
C35 C -0.0768(4) 0.79498(12) 0.26650(8)
H25 H -0.0377 0.8209 0.2491
C36 C -0.0174(4) 0.74128(11) 0.26398(8)
H26 H 0.0604 0.7305 0.2447
C37 C 0.1219(4) 0.63920(11) 0.34689(8)
C38 C 0.0723(4) 0.61492(11) 0.37911(8)
H27 H -0.0166 0.5862 0.3794
C39 C 0.1522(4) 0.63252(12) 0.41056(8)
C40 C 0.2825(5) 0.67414(12) 0.41048(8)
H28 H 0.3382 0.6862 0.4322
C41 C 0.3300(5) 0.69794(12) 0.37792(9)
H29 H 0.4204 0.7262 0.3775
C42 C 0.2490(4) 0.68149(12) 0.34622(8)
H30 H 0.2802 0.6989 0.3243
N2 N 0.0412(4) 0.61747(10) 0.31505(6)
H32 H 0.0275 0.5818 0.3145
O3 O 0.0357(3) 0.53051(8) 0.27144(5)
O4 O 0.1035(4) 0.61085(9) 0.44302(5)
H34 H 0.0279 0.5851 0.4399
loop_
_geom_bond_atom_site_label_1
_geom_bond_atom_site_label_2
_geom_bond_site_symmetry_1
_geom_bond_site_symmetry_2
C1 H1 1_555 1_555
C2 C1 1_555 1_555
H2 C2 1_555 1_555
C3 C2 1_555 1_555
H3 C3 1_555 1_555
C4 C3 1_555 1_555
H4 C4 1_555 1_555
C5 C4 1_555 1_555
H5 C5 1_555 1_555
C6 C1 1_555 1_555
C7 C6 1_555 1_555
C8 C7 1_555 1_555
H6 C8 1_555 1_555
C9 C8 1_555 1_555
C10 C9 1_555 1_555
C11 C10 1_555 1_555
H7 C11 1_555 1_555
C12 C11 1_555 1_555
H8 C12 1_555 1_555
C13 C12 1_555 1_555
H9 C13 1_555 1_555
C14 C13 1_555 1_555
H10 C14 1_555 1_555
C15 C10 1_555 1_555
H11 C15 1_555 1_555
C16 C17 1_555 1_555
C17 H12 1_555 1_555
C18 C17 1_555 1_555
C19 C18 1_555 1_555
H13 C19 1_555 1_555
C20 C19 1_555 1_555
H14 C20 1_555 1_555
C21 C16 1_555 1_555
H15 C21 1_555 1_555
C22 H16 1_555 1_555
C23 C22 1_555 1_555
H17 C23 1_555 1_555
C24 C23 1_555 1_555
H18 C24 1_555 1_555
C25 C24 1_555 1_555
H19 C25 1_555 1_555
C26 C25 1_555 1_555
H20 C26 1_555 1_555
C27 C22 1_555 1_555
C28 C27 1_555 1_555
C29 C28 1_555 1_555
H21 C29 1_555 1_555
C30 C29 1_555 1_555
C31 C30 1_555 1_555
C32 C31 1_555 1_555
H22 C32 1_555 1_555
C33 C32 1_555 1_555
H23 C33 1_555 1_555
C34 C33 1_555 1_555
H24 C34 1_555 1_555
C35 C34 1_555 1_555
H25 C35 1_555 1_555
C36 C31 1_555 1_555
H26 C36 1_555 1_555
C37 C38 1_555 1_555
C38 H27 1_555 1_555
C39 C38 1_555 1_555
C40 C39 1_555 1_555
H28 C40 1_555 1_555
C41 C40 1_555 1_555
H29 C41 1_555 1_555
C42 C37 1_555 1_555
H30 C42 1_555 1_555
N1 C9 1_555 1_555
H31 N1 1_555 1_555
N2 C30 1_555 1_555
H32 N2 1_555 1_555
O1 C7 1_555 1_555
O2 C18 1_555 1_555
H33 O2 1_555 1_555
O3 C28 1_555 1_555
O4 C39 1_555 1_555
H34 O4 1_555 1_555
C5 C6 1_555 1_555
C14 C15 1_555 1_555
C16 N1 1_555 1_555
C20 C21 1_555 1_555
C26 C27 1_555 1_555
C35 C36 1_555 1_555
C37 N2 1_555 1_555
C41 C42 1_555 1_555

#END
