
#######################################################################
#
#                 Cambridge Crystallographic Data Centre
#                                CCDC 
#
#######################################################################
#
# If this CIF has been generated from an entry in the Cambridge 
# Structural Database, then it will include bibliographic, chemical, 
# crystal, experimental, refinement or atomic coordinate data resulting 
# from the CCDC's data processing and validation procedures.
#
#######################################################################

data_GEVDOB
_chemical_formula_moiety         'C10 H10 Cl1 N3 O1 S1'
_chemical_name_systematic        
3-((6-Chloropyridin-3-yl)methyl)-2-thioxo-2,3,5,6-tetrahydropyrimidin-4(1H)-one
_symmetry_cell_setting           monoclinic
_symmetry_space_group_name_H-M   'P 21/n'
_symmetry_Int_Tables_number      14
_space_group_name_Hall           '-P 2yn'
loop_
_symmetry_equiv_pos_site_id
_symmetry_equiv_pos_as_xyz
1 x,y,z
2 1/2-x,1/2+y,1/2-z
3 -x,-y,-z
4 1/2+x,1/2-y,1/2+z
_cell_length_a                   10.131(3)
_cell_length_b                   5.7977(14)
_cell_length_c                   20.957(5)
_cell_angle_alpha                90
_cell_angle_beta                 101.562(4)
_cell_angle_gamma                90
_cell_volume                     1205.96
_exptl_crystal_colour            colorless
_exptl_crystal_description       needle
_chemical_melting_point          '441-443 K'
_cell_formula_units_Z            4
_exptl_crystal_recrystallization_method acetone/ethanol
loop_
_atom_site_label
_atom_site_type_symbol
_atom_site_fract_x
_atom_site_fract_y
_atom_site_fract_z
S1 S 0.98460(10) 0.3609(2) 0.09604(4)
Cl1 Cl 0.36045(11) 0.4397(2) 0.24228(5)
O1 O 0.6241(3) -0.2187(5) 0.03536(12)
N1 N 0.8558(3) 0.2570(5) -0.02128(13)
H1 H 0.901(3) 0.360(6) -0.0349(17)
N2 N 0.7897(2) 0.0472(4) 0.06012(11)
C1 C 0.8710(3) 0.2151(5) 0.04145(15)
C2 C 0.7853(12) 0.116(3) -0.0759(7)
H2 H 0.8385 -0.0180 -0.0825
H3 H 0.7658 0.2050 -0.1159
C3 C 0.6566(11) 0.045(3) -0.0549(6)
H4 H 0.6069 -0.0631 -0.0862
H5 H 0.6003 0.1789 -0.0531
C6 C 0.6937(4) -0.0760(6) 0.01649(17)
C7 C 0.7974(3) -0.0065(5) 0.12936(14)
H10 H 0.8839 0.0446 0.1541
H11 H 0.7924 -0.1723 0.1345
C8 C 0.6877(3) 0.1047(5) 0.15670(12)
C9 C 0.6365(3) 0.3181(5) 0.13526(14)
H12 H 0.6695 0.3936 0.1025
C10 C 0.4871(3) 0.3105(6) 0.21018(16)
C11 C 0.5360(4) 0.0967(6) 0.23275(15)
H13 H 0.5022 0.0210 0.2652
N3 N 0.5369(3) 0.4208(5) 0.16196(16)
C13 C 0.6369(4) -0.0019(5) 0.20568(14)
H15 H 0.6715 -0.1445 0.2210
C4? C 0.7328(13) 0.1882(16) -0.0652(5)
H6? H 0.7433 0.2039 -0.1099
H7? H 0.6589 0.2862 -0.0588
C5? C 0.7029(13) -0.0599(16) -0.0513(5)
H8? H 0.6186 -0.1076 -0.0789
H9? H 0.7741 -0.1594 -0.0601
N4? N 0.5360(4) 0.0967(6) 0.23275(15)
C12? C 0.5369(3) 0.4208(5) 0.16196(16)
H14? H 0.5035 0.5648 0.1473
loop_
_geom_bond_atom_site_label_1
_geom_bond_atom_site_label_2
_geom_bond_site_symmetry_1
_geom_bond_site_symmetry_2
S1 C1 1_555 1_555
Cl1 C10 1_555 1_555
O1 C6 1_555 1_555
N1 H1 1_555 1_555
N2 C1 1_555 1_555
C1 N1 1_555 1_555
C2 N1 1_555 1_555
H2 C2 1_555 1_555
H3 C2 1_555 1_555
C3 C2 1_555 1_555
H4 C3 1_555 1_555
H5 C3 1_555 1_555
C6 N2 1_555 1_555
C7 N2 1_555 1_555
H10 C7 1_555 1_555
H11 C7 1_555 1_555
C8 C7 1_555 1_555
C9 C8 1_555 1_555
H12 C9 1_555 1_555
C10 C11 1_555 1_555
C11 H13 1_555 1_555
N3 C9 1_555 1_555
C13 C8 1_555 1_555
H15 C13 1_555 1_555
C3 C6 1_555 1_555
C10 N3 1_555 1_555
C11 C13 1_555 1_555

#END
