
#######################################################################
#
#                 Cambridge Crystallographic Data Centre
#                                CCDC 
#
#######################################################################
#
# If this CIF has been generated from an entry in the Cambridge 
# Structural Database, then it will include bibliographic, chemical, 
# crystal, experimental, refinement or atomic coordinate data resulting 
# from the CCDC's data processing and validation procedures.
#
#######################################################################

data_GEVDUH
_chemical_formula_moiety         'C9 H10 N4 O2 S1'
_chemical_name_systematic        
1-(1-(3-Nitrophenyl)ethylidene)thiosemicarbazide
_symmetry_cell_setting           orthorhombic
_symmetry_space_group_name_H-M   'P b c a'
_symmetry_Int_Tables_number      61
_space_group_name_Hall           '-P 2ac 2ab'
loop_
_symmetry_equiv_pos_site_id
_symmetry_equiv_pos_as_xyz
1 x,y,z
2 1/2-x,-y,1/2+z
3 1/2+x,1/2-y,-z
4 -x,1/2+y,1/2-z
5 -x,-y,-z
6 1/2+x,y,1/2-z
7 1/2-x,1/2+y,z
8 x,1/2-y,1/2+z
_cell_length_a                   13.756(3)
_cell_length_b                   8.0690(16)
_cell_length_c                   19.835(4)
_cell_angle_alpha                90
_cell_angle_beta                 90
_cell_angle_gamma                90
_cell_volume                     2201.63
_exptl_crystal_colour            yellow
_exptl_crystal_description       block
_cell_formula_units_Z            8
_exptl_crystal_recrystallization_method acetone
loop_
_atom_site_label
_atom_site_type_symbol
_atom_site_fract_x
_atom_site_fract_y
_atom_site_fract_z
S1 S -0.27745(9) 0.20648(14) 0.28109(6)
O1 O 0.4597(3) 0.4038(6) 0.4336(2)
O2 O 0.3978(3) 0.4932(6) 0.3416(2)
N1 N 0.3893(3) 0.4375(5) 0.3992(3)
N2 N -0.0339(3) 0.3218(5) 0.3719(2)
N3 N -0.1182(3) 0.3349(5) 0.3340(2)
H1 H -0.1358 0.4281 0.3168
N4 N -0.1378(3) 0.0566(5) 0.3499(2)
H2 H -0.0833 0.0555 0.3711
H3 H -0.1702 -0.0336 0.3449
C1 C 0.2916(4) 0.4071(6) 0.4247(3)
C2 C 0.2818(5) 0.3428(7) 0.4888(3)
H4 H 0.3360 0.3205 0.5153
C3 C 0.1877(5) 0.3123(9) 0.5126(3)
H5 H 0.1787 0.2702 0.5558
C4 C 0.1091(4) 0.3440(7) 0.4728(3)
H6 H 0.0471 0.3227 0.4892
C5 C 0.1198(4) 0.4079(6) 0.4077(2)
C6 C 0.2124(4) 0.4421(6) 0.3839(2)
H7 H 0.2213 0.4878 0.3413
C7 C 0.0326(4) 0.4315(6) 0.3642(2)
C8 C 0.0283(4) 0.5733(7) 0.3148(3)
H8 H -0.0327 0.5706 0.2912
H9 H 0.0806 0.5632 0.2830
H10 H 0.0342 0.6763 0.3386
C9 C -0.1716(3) 0.1970(5) 0.3249(2)
loop_
_geom_bond_atom_site_label_1
_geom_bond_atom_site_label_2
_geom_bond_site_symmetry_1
_geom_bond_site_symmetry_2
S1 C9 1_555 1_555
O1 N1 1_555 1_555
O2 N1 1_555 1_555
N1 C1 1_555 1_555
N2 N3 1_555 1_555
N3 H1 1_555 1_555
N4 H2 1_555 1_555
H3 N4 1_555 1_555
C1 C2 1_555 1_555
C2 H4 1_555 1_555
C3 C2 1_555 1_555
H5 C3 1_555 1_555
C4 C3 1_555 1_555
H6 C4 1_555 1_555
C5 C4 1_555 1_555
C6 C1 1_555 1_555
H7 C6 1_555 1_555
C7 N2 1_555 1_555
C8 C7 1_555 1_555
H8 C8 1_555 1_555
H9 C8 1_555 1_555
H10 C8 1_555 1_555
C9 N3 1_555 1_555
N4 C9 1_555 1_555
C5 C6 1_555 1_555
C5 C7 1_555 1_555

#END
