
#######################################################################
#
#                 Cambridge Crystallographic Data Centre
#                                CCDC 
#
#######################################################################
#
# If this CIF has been generated from an entry in the Cambridge 
# Structural Database, then it will include bibliographic, chemical, 
# crystal, experimental, refinement or atomic coordinate data resulting 
# from the CCDC's data processing and validation procedures.
#
#######################################################################

data_GEVFES
_chemical_compound_source        'actinoplanes arizonaensis sp. nov.'
_chemical_formula_moiety         'C17 H14 O7'
_chemical_name_systematic        'Arizonin A1'
_symmetry_cell_setting           orthorhombic
_symmetry_space_group_name_H-M   'P 21 21 21'
_symmetry_Int_Tables_number      19
_space_group_name_Hall           'P 2ac 2ab'
loop_
_symmetry_equiv_pos_site_id
_symmetry_equiv_pos_as_xyz
1 x,y,z
2 1/2+x,1/2-y,-z
3 -x,1/2+y,1/2-z
4 1/2-x,-y,1/2+z
_cell_length_a                   14.112(5)
_cell_length_b                   23.185(8)
_cell_length_c                   4.510(1)
_cell_angle_alpha                90
_cell_angle_beta                 90
_cell_angle_gamma                90
_cell_volume                     1475.61
_exptl_crystal_colour            orange
_chemical_melting_point          233-235deg.C(dec.)
_cell_formula_units_Z            4
loop_
_atom_site_label
_atom_site_type_symbol
_atom_site_fract_x
_atom_site_fract_y
_atom_site_fract_z
O1 O 0.9374(2) 0.0090(1) 0.786(1)
O2 O 0.7866(2) 0.2729(1) 0.504(1)
C1 C 0.7730(3) 0.2119(2) 0.520(2)
C2 C 1.0336(3) 0.1202(2) 0.279(2)
C3 C 0.9688(3) 0.0927(2) 0.466(2)
O3 O 1.1104(2) -0.0333(1) 0.683(1)
O4 O 0.8175(3) 0.1014(2) 0.696(1)
C4 C 1.0128(3) 0.1762(2) 0.139(1)
C5 C 0.9943(3) 0.0399(2) 0.595(2)
C6 C 0.8622(3) 0.1812(2) 0.416(2)
O5 O 0.9796(2) 0.3047(1) 0.261(1)
C7 C 1.1470(3) 0.0435(2) 0.348(2)
C8 C 1.0843(3) 0.0166(2) 0.543(2)
C9 C 0.9250(3) 0.2067(2) 0.243(1)
O6 O 1.0639(3) 0.1982(2) -0.041(1)
C10 C 0.8143(3) 0.2926(2) 0.217(1)
C11 C 1.1212(3) 0.0948(2) 0.227(2)
C12 C 0.8779(3) 0.1219(2) 0.541(2)
O7 O 0.9858(3) 0.3933(2) 0.450(2)
C13 C 0.9097(3) 0.2671(2) 0.129(1)
C14 C 0.8366(3) 0.3555(2) 0.248(2)
C15 C 0.9401(3) 0.3550(2) 0.337(2)
C16 C 0.6838(3) 0.1904(2) 0.359(2)
C17 C 0.8661(4) -0.0256(2) 0.645(3)
H1 H 0.7653 0.2021 0.7236
H2 H 1.2069 0.0273 0.3051
H3 H 0.7667 0.2862 0.0729
H4 H 1.1645 0.1129 0.0965
H5 H 0.9162 0.2679 -0.0797
H6 H 0.8267 0.3748 0.0650
H7 H 0.7990 0.3725 0.3976
H8 H 0.6296 0.2079 0.4457
H9 H 0.6875 0.2006 0.1558
H10 H 0.6792 0.1497 0.3775
H11 H 0.8245 -0.0022 0.5324
H12 H 0.8956 -0.0532 0.5162
H13 H 0.8308 -0.0461 0.7916
loop_
_geom_bond_atom_site_label_1
_geom_bond_atom_site_label_2
_geom_bond_site_symmetry_1
_geom_bond_site_symmetry_2
O1 C5 1_555 1_555
O2 C1 1_555 1_555
C1 C6 1_555 1_555
C2 C3 1_555 1_555
C3 C5 1_555 1_555
O3 C8 1_555 1_555
O4 C12 1_555 1_555
C4 C2 1_555 1_555
C5 C8 1_555 1_555
C6 C9 1_555 1_555
O5 C13 1_555 1_555
C7 C8 1_555 1_555
C9 C4 1_555 1_555
O6 C4 1_555 1_555
C10 O2 1_555 1_555
C11 C2 1_555 1_555
C12 C3 1_555 1_555
O7 C15 1_555 1_555
C13 C9 1_555 1_555
C14 C10 1_555 1_555
C15 O5 1_555 1_555
C16 C1 1_555 1_555
C17 O1 1_555 1_555
H1 C1 1_555 1_555
H2 C7 1_555 1_555
H3 C10 1_555 1_555
H4 C11 1_555 1_555
H5 C13 1_555 1_555
H6 C14 1_555 1_555
H7 C14 1_555 1_555
H8 C16 1_555 1_555
H9 C16 1_555 1_555
H10 C16 1_555 1_555
H11 C17 1_555 1_555
H12 C17 1_555 1_555
H13 C17 1_555 1_555
C6 C12 1_555 1_555
C7 C11 1_555 1_555
C10 C13 1_555 1_555
C14 C15 1_555 1_555

#END
