
#######################################################################
#
#                 Cambridge Crystallographic Data Centre
#                                CCDC 
#
#######################################################################
#
# If this CIF has been generated from an entry in the Cambridge 
# Structural Database, then it will include bibliographic, chemical, 
# crystal, experimental, refinement or atomic coordinate data resulting 
# from the CCDC's data processing and validation procedures.
#
#######################################################################

data_GEVKAU
_chemical_formula_moiety         'C19 H19 N1 O5'
_chemical_name_systematic        
(Z)-6-Methoxy-4-(2-methoxyimino-2-phenylethoxy)-7-methylisobenzofuran-3(1H)-one
_symmetry_cell_setting           monoclinic
_symmetry_space_group_name_H-M   'P 21/c'
_symmetry_Int_Tables_number      14
_space_group_name_Hall           '-P 2ybc'
loop_
_symmetry_equiv_pos_site_id
_symmetry_equiv_pos_as_xyz
1 x,y,z
2 -x,1/2+y,1/2-z
3 -x,-y,-z
4 x,1/2-y,1/2+z
_cell_length_a                   9.3964(2)
_cell_length_b                   19.445(4)
_cell_length_c                   9.8521(2)
_cell_angle_alpha                90
_cell_angle_beta                 105.307(3)
_cell_angle_gamma                90
_cell_volume                     1736.25
_exptl_crystal_colour            colorless
_exptl_crystal_description       block
_cell_formula_units_Z            4
_exptl_crystal_recrystallization_method chloroform/heptane
loop_
_atom_site_label
_atom_site_type_symbol
_atom_site_fract_x
_atom_site_fract_y
_atom_site_fract_z
O1 O 0.4365(2) 0.62799(9) 0.8464(2)
O2 O 0.2949(2) 0.59862(9) 0.6357(2)
O3 O 0.09117(16) 0.48348(7) 0.67613(15)
O4 O -0.12195(19) 0.32628(9) 0.7659(2)
O5 O 0.17559(18) 0.43250(9) 1.17123(16)
N1 N 0.0025(2) 0.30814(11) 0.7234(2)
C1 C 0.3947(3) 0.53375(15) 1.2516(3)
H1 H 0.4870 0.5559 1.2551
H2 H 0.4129 0.4913 1.3032
H3 H 0.3357 0.5633 1.2928
C2 C 0.3139(2) 0.51916(11) 1.1004(3)
C3 C 0.3427(2) 0.55431(11) 0.9892(3)
C4 C 0.4536(3) 0.61048(12) 0.9908(3)
H4 H 0.4341 0.6500 1.0431
H5 H 0.5530 0.5943 1.0336
C5 C 0.3270(3) 0.58944(12) 0.7594(4)
C6 C 0.2704(2) 0.54224(10) 0.8498(2)
C7 C 0.1605(2) 0.49198(10) 0.8147(2)
C8 C 0.1292(2) 0.45491(10) 0.9229(2)
H6 H 0.0572 0.4209 0.9025
C9 C 0.2047(2) 0.46810(11) 1.0628(2)
C10 C 0.0816(3) 0.37364(13) 1.1389(3)
H7 H -0.0140 0.3874 1.0829
H8 H 0.0722 0.3530 1.2247
H9 H 0.1235 0.3409 1.0876
C11 C -0.0159(2) 0.42917(11) 0.6393(2)
H10 H -0.0676 0.4330 0.5404
H11 H -0.0878 0.4342 0.6934
C12 C 0.0543(2) 0.35916(11) 0.6667(2)
C13 C 0.1922(3) 0.34371(10) 0.6274(2)
C14 C 0.2294(3) 0.37777(12) 0.5185(2)
H12 H 0.1683 0.4124 0.4702
C15 C 0.3567(3) 0.36079(15) 0.4808(3)
H13 H 0.3801 0.3836 0.4066
C16 C 0.4485(3) 0.31041(16) 0.5523(3)
H14 H 0.5340 0.2989 0.5267
C17 C 0.4133(3) 0.27688(13) 0.6625(3)
H15 H 0.4758 0.2429 0.7115
C18 C 0.2875(3) 0.29311(11) 0.7002(3)
H16 H 0.2653 0.2703 0.7749
C19 C -0.1645(4) 0.26556(17) 0.8323(4)
H17 H -0.1927 0.2296 0.7638
H18 H -0.2461 0.2766 0.8698
H19 H -0.0826 0.2505 0.9070
loop_
_geom_bond_atom_site_label_1
_geom_bond_atom_site_label_2
_geom_bond_site_symmetry_1
_geom_bond_site_symmetry_2
O1 C4 1_555 1_555
O2 C5 1_555 1_555
O3 C7 1_555 1_555
O4 N1 1_555 1_555
O5 C9 1_555 1_555
N1 C12 1_555 1_555
C1 H1 1_555 1_555
H2 C1 1_555 1_555
H3 C1 1_555 1_555
C2 C1 1_555 1_555
C3 C2 1_555 1_555
C4 C3 1_555 1_555
H4 C4 1_555 1_555
H5 C4 1_555 1_555
C5 O1 1_555 1_555
C6 C3 1_555 1_555
C7 C6 1_555 1_555
C8 C7 1_555 1_555
H6 C8 1_555 1_555
C9 C2 1_555 1_555
C10 O5 1_555 1_555
H7 C10 1_555 1_555
H8 C10 1_555 1_555
H9 C10 1_555 1_555
C11 O3 1_555 1_555
H10 C11 1_555 1_555
H11 C11 1_555 1_555
C12 C11 1_555 1_555
C13 C12 1_555 1_555
C14 C13 1_555 1_555
H12 C14 1_555 1_555
C15 C14 1_555 1_555
H13 C15 1_555 1_555
C16 C15 1_555 1_555
H14 C16 1_555 1_555
C17 C16 1_555 1_555
H15 C17 1_555 1_555
C18 C13 1_555 1_555
H16 C18 1_555 1_555
C19 O4 1_555 1_555
H17 C19 1_555 1_555
H18 C19 1_555 1_555
H19 C19 1_555 1_555
C5 C6 1_555 1_555
C8 C9 1_555 1_555
C17 C18 1_555 1_555

#END
