
#######################################################################
#
#                 Cambridge Crystallographic Data Centre
#                                CCDC 
#
#######################################################################
#
# If this CIF has been generated from an entry in the Cambridge 
# Structural Database, then it will include bibliographic, chemical, 
# crystal, experimental, refinement or atomic coordinate data resulting 
# from the CCDC's data processing and validation procedures.
#
#######################################################################

data_GEVNON
_chemical_name_common            '(+)-(3R,4S)-tanshindol B'
_chemical_formula_moiety         'C18 H16 O5'
_chemical_name_systematic        
6,7-dihydroxy-1,6-dimethyl-6,7,8,9-tetrahydrophenanthro[1,2-b]furan-10,11-dione
_symmetry_cell_setting           monoclinic
_symmetry_space_group_name_H-M   'C 2'
_symmetry_Int_Tables_number      5
_space_group_name_Hall           'C 2y'
loop_
_symmetry_equiv_pos_site_id
_symmetry_equiv_pos_as_xyz
1 x,y,z
2 -x,y,-z
3 1/2+x,1/2+y,z
4 1/2-x,1/2+y,-z
_cell_length_a                   24.2407(8)
_cell_length_b                   9.1871(3)
_cell_length_c                   6.5418(3)
_cell_angle_alpha                90
_cell_angle_beta                 105.441(2)
_cell_angle_gamma                90
_cell_volume                     1404.28
_exptl_crystal_colour            red
_exptl_crystal_description       block
_cell_formula_units_Z            4
loop_
_atom_site_label
_atom_site_type_symbol
_atom_site_fract_x
_atom_site_fract_y
_atom_site_fract_z
O1 O 0.49435(8) 0.1519(2) 0.7508(3)
O2 O 0.54348(8) 0.7223(2) 0.7848(3)
O3 O 0.62597(8) 0.5231(2) 0.8525(3)
O4 O 0.26721(9) 0.6312(3) 0.3976(4)
H1 H 0.2774 0.6232 0.2850
O5 O 0.33672(9) 0.8219(3) 0.2657(3)
H2 H 0.3665 0.7726 0.2765
C1 C 0.46660(11) 0.5493(3) 0.7180(4)
C2 C 0.36393(12) 0.5969(3) 0.6154(4)
C3 C 0.57686(11) 0.4803(3) 0.8162(4)
C4 C 0.42065(11) 0.6520(3) 0.6722(4)
C5 C 0.39840(11) 0.3478(3) 0.6602(4)
H3 H 0.3906 0.2464 0.6587
C6 C 0.55924(11) 0.3295(3) 0.8074(4)
C7 C 0.50235(12) 0.2974(3) 0.7552(4)
C8 C 0.45446(11) 0.3983(3) 0.7095(4)
C9 C 0.59000(12) 0.1936(3) 0.8393(4)
C10 C 0.31214(11) 0.6977(3) 0.5571(5)
C11 C 0.32781(12) 0.8423(3) 0.4712(5)
H4 H 0.2946 0.9099 0.4557
C12 C 0.35417(12) 0.4480(3) 0.6133(4)
H5 H 0.3158 0.4137 0.5785
C13 C 0.52765(12) 0.5958(3) 0.7720(4)
C14 C 0.43197(12) 0.8135(3) 0.6771(5)
H6 H 0.4542 0.8358 0.5740
H7 H 0.4561 0.8397 0.8198
C15 C 0.54891(12) 0.0907(3) 0.8020(5)
H8 H 0.5562 -0.0110 0.8097
C16 C 0.65348(12) 0.1724(4) 0.9015(5)
H9 H 0.6705 0.2295 0.8072
H10 H 0.6622 0.0690 0.8897
H11 H 0.6693 0.2046 1.0482
C17 C 0.28819(14) 0.7197(5) 0.7475(6)
H12 H 0.2569 0.7906 0.7118
H13 H 0.3185 0.7559 0.8676
H14 H 0.2737 0.6268 0.7858
C18 C 0.37848(12) 0.9094(4) 0.6265(6)
H15 H 0.3681 0.9304 0.7599
H16 H 0.3875 1.0032 0.5683
loop_
_geom_bond_atom_site_label_1
_geom_bond_atom_site_label_2
_geom_bond_site_symmetry_1
_geom_bond_site_symmetry_2
O1 C7 1_555 1_555
O2 C13 1_555 1_555
O3 C3 1_555 1_555
O4 H1 1_555 1_555
O5 H2 1_555 1_555
C1 C4 1_555 1_555
C2 C4 1_555 1_555
C3 C6 1_555 1_555
C4 C14 1_555 1_555
C5 H3 1_555 1_555
C6 C7 1_555 1_555
C7 C8 1_555 1_555
C8 C1 1_555 1_555
C9 C6 1_555 1_555
C10 O4 1_555 1_555
C11 O5 1_555 1_555
H4 C11 1_555 1_555
C12 C2 1_555 1_555
H5 C12 1_555 1_555
C13 C1 1_555 1_555
C14 H6 1_555 1_555
H7 C14 1_555 1_555
C15 O1 1_555 1_555
H8 C15 1_555 1_555
C16 C9 1_555 1_555
H9 C16 1_555 1_555
H10 C16 1_555 1_555
H11 C16 1_555 1_555
C17 C10 1_555 1_555
H12 C17 1_555 1_555
H13 C17 1_555 1_555
H14 C17 1_555 1_555
C18 C11 1_555 1_555
H15 C18 1_555 1_555
H16 C18 1_555 1_555
C2 C10 1_555 1_555
C3 C13 1_555 1_555
C5 C8 1_555 1_555
C5 C12 1_555 1_555
C9 C15 1_555 1_555
C10 C11 1_555 1_555
C14 C18 1_555 1_555

#END
