
#######################################################################
#
#                 Cambridge Crystallographic Data Centre
#                                CCDC 
#
#######################################################################
#
# If this CIF has been generated from an entry in the Cambridge 
# Structural Database, then it will include bibliographic, chemical, 
# crystal, experimental, refinement or atomic coordinate data resulting 
# from the CCDC's data processing and validation procedures.
#
#######################################################################

data_GEVNED
_chemical_name_common            '(+)-(3S,4S)-Tanshindol C monohydrate'
_chemical_formula_moiety         'C18 H16 O5,H2 O1'
_chemical_name_systematic        
'6,7-dihydroxy-1,6-dimethyl-6,7,8,9-tetrahydrophenanthro[1,2-b]furan-10,11-dione monohydrate'
_symmetry_cell_setting           monoclinic
_symmetry_space_group_name_H-M   'C 2'
_symmetry_Int_Tables_number      5
_space_group_name_Hall           'C 2y'
loop_
_symmetry_equiv_pos_site_id
_symmetry_equiv_pos_as_xyz
1 x,y,z
2 -x,y,-z
3 1/2+x,1/2+y,z
4 1/2-x,1/2+y,-z
_cell_length_a                   24.3697(19)
_cell_length_b                   9.1064(7)
_cell_length_c                   6.6779(6)
_cell_angle_alpha                90
_cell_angle_beta                 99.992(4)
_cell_angle_gamma                90
_cell_volume                     1459.48
_exptl_crystal_colour            red
_exptl_crystal_description       block
_cell_formula_units_Z            4
loop_
_atom_site_label
_atom_site_type_symbol
_atom_site_fract_x
_atom_site_fract_y
_atom_site_fract_z
O1 O 0.48884(7) 0.87885(18) 0.7334(3)
O2 O 0.26415(6) 0.3862(2) 0.6300(2)
H1 H 0.2497 0.4378 0.5325
O3 O 0.28149(7) 0.0826(2) 0.6874(2)
H2 H 0.2660 0.0773 0.7885
O4 O 0.53791(6) 0.30532(19) 0.7739(3)
O5 O 0.61697(6) 0.5055(2) 0.8607(3)
C1 C 0.45047(9) 0.6304(3) 0.7059(3)
C2 C 0.49691(9) 0.7319(2) 0.7447(3)
C3 C 0.46245(9) 0.4778(3) 0.7204(3)
C4 C 0.55227(9) 0.7012(3) 0.7935(3)
C5 C 0.41806(9) 0.3749(3) 0.6857(3)
C6 C 0.36323(9) 0.4267(2) 0.6328(3)
C7 C 0.32576(9) 0.1867(3) 0.7247(3)
H3 H 0.3305 0.2195 0.8680
C8 C 0.58179(9) 0.8393(3) 0.8129(3)
C9 C 0.31387(8) 0.3202(3) 0.5850(3)
C10 C 0.35317(9) 0.5776(3) 0.6167(3)
H4 H 0.3163 0.6112 0.5793
C11 C 0.52220(9) 0.4315(2) 0.7688(3)
C12 C 0.56953(9) 0.5500(3) 0.8137(3)
C13 C 0.39602(9) 0.6789(3) 0.6544(3)
H5 H 0.3882 0.7800 0.6451
C14 C 0.42957(9) 0.2122(3) 0.7114(4)
H6 H 0.4519 0.1963 0.8465
H7 H 0.4524 0.1822 0.6112
C15 C 0.54179(10) 0.9409(3) 0.7759(4)
H8 H 0.5486 1.0426 0.7782
C16 C 0.30508(9) 0.2777(3) 0.3604(3)
H9 H 0.2765 0.2025 0.3337
H10 H 0.3397 0.2402 0.3273
H11 H 0.2934 0.3634 0.2776
C17 C 0.37875(9) 0.1113(3) 0.6891(4)
H12 H 0.3723 0.0693 0.5519
H13 H 0.3870 0.0300 0.7858
C18 C 0.64360(9) 0.8636(3) 0.8615(4)
H14 H 0.6582 0.8211 0.9932
H15 H 0.6513 0.9682 0.8646
H16 H 0.6612 0.8173 0.7582
O6 O 0.22961(7) 0.0588(2) 1.0104(3)
H17 H 0.1946 0.0618 0.9685
H18 H 0.2337(15) 0.001(6) 1.122(6)
loop_
_geom_bond_atom_site_label_1
_geom_bond_atom_site_label_2
_geom_bond_site_symmetry_1
_geom_bond_site_symmetry_2
O1 C2 1_555 1_555
O2 H1 1_555 1_555
O3 H2 1_555 1_555
O4 C11 1_555 1_555
O5 C12 1_555 1_555
C1 C2 1_555 1_555
C2 C4 1_555 1_555
C3 C1 1_555 1_555
C4 C8 1_555 1_555
C5 C3 1_555 1_555
C6 C5 1_555 1_555
C7 O3 1_555 1_555
H3 C7 1_555 1_555
C8 C15 1_555 1_555
C9 O2 1_555 1_555
C10 C6 1_555 1_555
H4 C10 1_555 1_555
C11 C3 1_555 1_555
C12 C4 1_555 1_555
C13 C1 1_555 1_555
H5 C13 1_555 1_555
C14 C5 1_555 1_555
H6 C14 1_555 1_555
H7 C14 1_555 1_555
C15 O1 1_555 1_555
H8 C15 1_555 1_555
C16 C9 1_555 1_555
H9 C16 1_555 1_555
H10 C16 1_555 1_555
H11 C16 1_555 1_555
C17 C7 1_555 1_555
H12 C17 1_555 1_555
H13 C17 1_555 1_555
C18 C8 1_555 1_555
H14 C18 1_555 1_555
H15 C18 1_555 1_555
H16 C18 1_555 1_555
O6 H17 1_555 1_555
H18 O6 1_555 1_555
C6 C9 1_555 1_555
C7 C9 1_555 1_555
C10 C13 1_555 1_555
C11 C12 1_555 1_555
C14 C17 1_555 1_555

#END
