
#######################################################################
#
#                 Cambridge Crystallographic Data Centre
#                                CCDC 
#
#######################################################################
#
# If this CIF has been generated from an entry in the Cambridge 
# Structural Database, then it will include bibliographic, chemical, 
# crystal, experimental, refinement or atomic coordinate data resulting 
# from the CCDC's data processing and validation procedures.
#
#######################################################################

data_GEVNIH
_chemical_name_common            '(-)-(3R,4R)-Tanshindol C monohydrate'
_chemical_formula_moiety         'C18 H16 O5,H2 O1'
_chemical_name_systematic        
'6,7-dihydroxy-1,6-dimethyl-6,7,8,9-tetrahydrophenanthro[1,2-b]furan-10,11-dione monohydrate'
_symmetry_cell_setting           monoclinic
_symmetry_space_group_name_H-M   'C 2'
_symmetry_Int_Tables_number      5
_space_group_name_Hall           'C 2y'
loop_
_symmetry_equiv_pos_site_id
_symmetry_equiv_pos_as_xyz
1 x,y,z
2 -x,y,-z
3 1/2+x,1/2+y,z
4 1/2-x,1/2+y,-z
_cell_length_a                   24.373(2)
_cell_length_b                   9.0977(8)
_cell_length_c                   6.6706(6)
_cell_angle_alpha                90
_cell_angle_beta                 99.828(4)
_cell_angle_gamma                90
_cell_volume                     1457.42
_exptl_crystal_colour            red
_exptl_crystal_description       block
_cell_formula_units_Z            4
loop_
_atom_site_label
_atom_site_type_symbol
_atom_site_fract_x
_atom_site_fract_y
_atom_site_fract_z
O1 O 0.51122(7) 0.12150(18) 0.2668(3)
O2 O 0.73595(6) 0.6147(2) 0.3702(2)
H1 H 0.7502 0.5618 0.4666
O3 O 0.71870(7) 0.91808(19) 0.3134(2)
H2 H 0.7344 0.9235 0.2126
O4 O 0.38320(7) 0.4950(2) 0.1386(3)
O5 O 0.46215(7) 0.6958(2) 0.2264(3)
C1 C 0.50311(10) 0.2684(2) 0.2553(3)
C2 C 0.63679(9) 0.5738(3) 0.3677(3)
C3 C 0.58197(9) 0.6258(3) 0.3141(3)
C4 C 0.54956(9) 0.3707(3) 0.2942(3)
C5 C 0.44787(10) 0.2997(3) 0.2065(3)
C6 C 0.68609(9) 0.6803(3) 0.4158(3)
C7 C 0.43055(9) 0.4508(3) 0.1860(3)
C8 C 0.64693(9) 0.4233(3) 0.3836(3)
H3 H 0.6838 0.3897 0.4206
C9 C 0.67435(9) 0.8139(3) 0.2750(3)
H4 H 0.6699 0.7809 0.1317
C10 C 0.53745(9) 0.5225(3) 0.2794(3)
C11 C 0.41826(9) 0.1608(3) 0.1874(3)
C12 C 0.57035(9) 0.7888(3) 0.2880(4)
H5 H 0.5475 0.8191 0.3883
H6 H 0.5482 0.8047 0.1527
C13 C 0.60394(10) 0.3216(3) 0.3463(3)
H7 H 0.6117 0.2204 0.3563
C14 C 0.47805(10) 0.5685(3) 0.2311(3)
C15 C 0.45843(10) 0.0589(3) 0.2244(4)
H8 H 0.4517 -0.0429 0.2221
C16 C 0.62133(10) 0.8888(3) 0.3102(4)
H9 H 0.6133 0.9703 0.2136
H10 H 0.6276 0.9309 0.4475
C17 C 0.69474(10) 0.7231(3) 0.6400(3)
H11 H 0.7067 0.6376 0.7230
H12 H 0.6600 0.7598 0.6734
H13 H 0.7230 0.7990 0.6661
C18 C 0.35657(9) 0.1361(3) 0.1386(4)
H14 H 0.3386 0.1861 0.2385
H15 H 0.3488 0.0316 0.1416
H16 H 0.3423 0.1747 0.0042
O6 O 0.77062(8) 0.9416(2) -0.0108(3)
H17 H 0.8054 0.9370 0.0323
H18 H 0.7644(15) 1.000(4) -0.110(4)
loop_
_geom_bond_atom_site_label_1
_geom_bond_atom_site_label_2
_geom_bond_site_symmetry_1
_geom_bond_site_symmetry_2
O1 C1 1_555 1_555
O2 H1 1_555 1_555
O3 H2 1_555 1_555
O4 C7 1_555 1_555
O5 C14 1_555 1_555
C1 C4 1_555 1_555
C2 C3 1_555 1_555
C3 C10 1_555 1_555
C4 C10 1_555 1_555
C5 C1 1_555 1_555
C6 O2 1_555 1_555
C7 C5 1_555 1_555
C8 C2 1_555 1_555
H3 C8 1_555 1_555
C9 O3 1_555 1_555
H4 C9 1_555 1_555
C10 C14 1_555 1_555
C11 C5 1_555 1_555
C12 C3 1_555 1_555
H5 C12 1_555 1_555
H6 C12 1_555 1_555
C13 C4 1_555 1_555
H7 C13 1_555 1_555
C14 C7 1_555 1_555
C15 O1 1_555 1_555
H8 C15 1_555 1_555
C16 C9 1_555 1_555
H9 C16 1_555 1_555
H10 C16 1_555 1_555
C17 C6 1_555 1_555
H11 C17 1_555 1_555
H12 C17 1_555 1_555
H13 C17 1_555 1_555
C18 C11 1_555 1_555
H14 C18 1_555 1_555
H15 C18 1_555 1_555
H16 C18 1_555 1_555
O6 H17 1_555 1_555
H18 O6 1_555 1_555
C2 C6 1_555 1_555
C6 C9 1_555 1_555
C8 C13 1_555 1_555
C11 C15 1_555 1_555
C12 C16 1_555 1_555

#END
