
#######################################################################
#
#                 Cambridge Crystallographic Data Centre
#                                CCDC 
#
#######################################################################
#
# If this CIF has been generated from an entry in the Cambridge 
# Structural Database, then it will include bibliographic, chemical, 
# crystal, experimental, refinement or atomic coordinate data resulting 
# from the CCDC's data processing and validation procedures.
#
#######################################################################

data_GEVYIS
_chemical_formula_moiety         'C31 H27 N1 O4 S1'
_chemical_name_systematic        
"methyl 1'-((4-methylphenyl)sulfonyl)-3-phenyl-1',2,2',3-tetrahydrospiro[indene-1,3'-indole]-3-carboxylate"
_symmetry_cell_setting           monoclinic
_symmetry_space_group_name_H-M   'P 21/c'
_symmetry_Int_Tables_number      14
_space_group_name_Hall           '-P 2ybc'
loop_
_symmetry_equiv_pos_site_id
_symmetry_equiv_pos_as_xyz
1 x,y,z
2 -x,1/2+y,1/2-z
3 -x,-y,-z
4 x,1/2-y,1/2+z
_cell_length_a                   11.443(6)
_cell_length_b                   17.390(11)
_cell_length_c                   13.329(8)
_cell_angle_alpha                90
_cell_angle_beta                 100.143(12)
_cell_angle_gamma                90
_cell_volume                     2610.93
_exptl_crystal_colour            colorless
_exptl_crystal_description       plate
_cell_formula_units_Z            4
loop_
_atom_site_label
_atom_site_type_symbol
_atom_site_fract_x
_atom_site_fract_y
_atom_site_fract_z
S1 S 0.64475(6) 0.73447(4) 0.72367(6)
O1 O 0.71022(17) 0.79896(10) 0.77317(16)
O2 O 0.67689(17) 0.70154(10) 0.63335(15)
O3 O 0.37703(18) 0.52479(10) 0.61088(16)
O4 O 0.19609(16) 0.48871(10) 0.52926(14)
N1 N 0.50721(19) 0.76366(12) 0.68948(16)
C1 C 0.6607(3) 0.47743(18) 1.0340(3)
H1 H 0.6151 0.4331 1.0031
H2 H 0.6279 0.4952 1.0931
H3 H 0.7439 0.4624 1.0560
C2 C 0.6536(3) 0.54180(17) 0.9564(2)
C3 C 0.6680(3) 0.61849(18) 0.9879(2)
H4 H 0.6801 0.6302 1.0586
C4 C 0.6649(3) 0.67735(17) 0.9183(2)
H5 H 0.6747 0.7292 0.9408
C5 C 0.6473(2) 0.66035(15) 0.8147(2)
C6 C 0.6299(3) 0.58429(15) 0.7821(2)
H6 H 0.6150 0.5726 0.7113
C7 C 0.6344(3) 0.52608(16) 0.8533(2)
H7 H 0.6240 0.4743 0.8309
C8 C 0.4436(2) 0.80604(14) 0.7548(2)
C9 C 0.4850(3) 0.86489(15) 0.8217(2)
H8 H 0.5658 0.8805 0.8317
C10 C 0.4047(3) 0.90040(15) 0.8738(2)
H9 H 0.4312 0.9402 0.9211
C11 C 0.2863(3) 0.87847(15) 0.8575(2)
H10 H 0.2321 0.9041 0.8926
C12 C 0.2465(3) 0.81928(15) 0.7904(2)
H11 H 0.1654 0.8044 0.7792
C13 C 0.3259(2) 0.78222(14) 0.7400(2)
C14 C 0.3056(2) 0.71362(14) 0.6686(2)
C15 C 0.4202(2) 0.71516(15) 0.6201(2)
H12 H 0.4516 0.6625 0.6154
H13 H 0.4033 0.7378 0.5509
C16 C 0.2878(2) 0.63845(14) 0.7283(2)
H14 H 0.3648 0.6120 0.7497
H15 H 0.2541 0.6507 0.7899
C17 C 0.2009(2) 0.58616(14) 0.6549(2)
C18 C 0.1360(2) 0.64451(14) 0.5786(2)
C19 C 0.1939(2) 0.71535(14) 0.5888(2)
C20 C 0.1475(3) 0.77692(15) 0.5270(2)
H16 H 0.1865 0.8253 0.5331
C21 C 0.0445(3) 0.76681(17) 0.4570(2)
H17 H 0.0113 0.8090 0.4165
C22 C -0.0118(3) 0.69515(16) 0.4450(2)
H18 H -0.0817 0.6886 0.3955
C23 C 0.0349(2) 0.63358(16) 0.5056(2)
H19 H -0.0020 0.5845 0.4970
C24 C 0.2701(3) 0.53047(14) 0.5976(2)
C25 C 0.2495(3) 0.43056(15) 0.4739(2)
H20 H 0.1966 0.4195 0.4093
H21 H 0.2622 0.3835 0.5148
H22 H 0.3259 0.4493 0.4600
C26 C 0.1187(2) 0.54080(14) 0.7137(2)
C27 C 0.0251(3) 0.57925(16) 0.7460(2)
H23 H 0.0095 0.6314 0.7271
C28 C -0.0459(3) 0.54181(18) 0.8058(3)
H24 H -0.1094 0.5685 0.8276
C29 C -0.0236(3) 0.46592(19) 0.8333(3)
H25 H -0.0717 0.4405 0.8743
C30 C 0.0684(3) 0.42703(18) 0.8014(3)
H26 H 0.0834 0.3748 0.8200
C31 C 0.1394(3) 0.46463(15) 0.7416(2)
H27 H 0.2026 0.4376 0.7198
loop_
_geom_bond_atom_site_label_1
_geom_bond_atom_site_label_2
_geom_bond_site_symmetry_1
_geom_bond_site_symmetry_2
S1 O1 1_555 1_555
O2 S1 1_555 1_555
O3 C24 1_555 1_555
O4 C24 1_555 1_555
N1 S1 1_555 1_555
C1 H1 1_555 1_555
H2 C1 1_555 1_555
H3 C1 1_555 1_555
C2 C1 1_555 1_555
C3 C2 1_555 1_555
H4 C3 1_555 1_555
C4 C3 1_555 1_555
H5 C4 1_555 1_555
C5 S1 1_555 1_555
C6 C5 1_555 1_555
H6 C6 1_555 1_555
C7 C2 1_555 1_555
H7 C7 1_555 1_555
C8 N1 1_555 1_555
C9 C8 1_555 1_555
H8 C9 1_555 1_555
C10 C9 1_555 1_555
H9 C10 1_555 1_555
C11 C10 1_555 1_555
H10 C11 1_555 1_555
C12 C11 1_555 1_555
H11 C12 1_555 1_555
C13 C8 1_555 1_555
C14 C13 1_555 1_555
C15 N1 1_555 1_555
H12 C15 1_555 1_555
H13 C15 1_555 1_555
C16 C14 1_555 1_555
H14 C16 1_555 1_555
H15 C16 1_555 1_555
C17 C16 1_555 1_555
C18 C17 1_555 1_555
C19 C14 1_555 1_555
C20 C19 1_555 1_555
H16 C20 1_555 1_555
C21 C20 1_555 1_555
H17 C21 1_555 1_555
C22 C21 1_555 1_555
H18 C22 1_555 1_555
C23 C18 1_555 1_555
H19 C23 1_555 1_555
C24 C17 1_555 1_555
C25 O4 1_555 1_555
H20 C25 1_555 1_555
H21 C25 1_555 1_555
H22 C25 1_555 1_555
C26 C17 1_555 1_555
C27 C26 1_555 1_555
H23 C27 1_555 1_555
C28 C27 1_555 1_555
H24 C28 1_555 1_555
C29 C28 1_555 1_555
H25 C29 1_555 1_555
C30 C29 1_555 1_555
H26 C30 1_555 1_555
C31 C26 1_555 1_555
H27 C31 1_555 1_555
C4 C5 1_555 1_555
C6 C7 1_555 1_555
C12 C13 1_555 1_555
C14 C15 1_555 1_555
C18 C19 1_555 1_555
C22 C23 1_555 1_555
C30 C31 1_555 1_555

#END
