
#######################################################################
#
#                 Cambridge Crystallographic Data Centre
#                                CCDC 
#
#######################################################################
#
# If this CIF has been generated from an entry in the Cambridge 
# Structural Database, then it will include bibliographic, chemical, 
# crystal, experimental, refinement or atomic coordinate data resulting 
# from the CCDC's data processing and validation procedures.
#
#######################################################################

data_GEVYEO
_chemical_formula_moiety         'C31 H27 N1 O4 S1'
_chemical_name_systematic        
"methyl 1'-((4-methylphenyl)sulfonyl)-3-phenyl-1',2,2',3-tetrahydrospiro[indene-1,3'-indole]-3-carboxylate"
_symmetry_cell_setting           monoclinic
_symmetry_space_group_name_H-M   'P 21/c'
_symmetry_Int_Tables_number      14
_space_group_name_Hall           '-P 2ybc'
loop_
_symmetry_equiv_pos_site_id
_symmetry_equiv_pos_as_xyz
1 x,y,z
2 -x,1/2+y,1/2-z
3 -x,-y,-z
4 x,1/2-y,1/2+z
_cell_length_a                   10.6181(3)
_cell_length_b                   8.5460(2)
_cell_length_c                   28.0802(7)
_cell_angle_alpha                90
_cell_angle_beta                 94.076(2)
_cell_angle_gamma                90
_cell_volume                     2541.62
_exptl_crystal_colour            colorless
_exptl_crystal_description       block
_cell_formula_units_Z            4
loop_
_atom_site_label
_atom_site_type_symbol
_atom_site_fract_x
_atom_site_fract_y
_atom_site_fract_z
S1 S 0.63937(6) 0.58704(7) 0.41135(2)
O1 O 0.74701(17) 0.6717(2) 0.39810(7)
O2 O 0.55749(17) 0.6539(2) 0.44418(6)
O3 O -0.01817(18) 0.1624(2) 0.33242(7)
O4 O 0.04034(18) 0.2382(2) 0.26090(7)
N1 N 0.55052(19) 0.5571(2) 0.36203(7)
C1 C 0.5081(2) 0.3923(3) 0.29761(9)
C2 C 0.6889(2) 0.4034(3) 0.43344(9)
C3 C 0.3859(2) 0.2135(3) 0.35013(9)
C4 C 0.5979(2) 0.4909(3) 0.31995(9)
C5 C 0.3956(2) 0.3744(3) 0.32701(9)
C6 C 0.2597(2) 0.1719(3) 0.35336(9)
C7 C 0.0593(2) 0.2328(3) 0.30357(10)
C8 C 0.1734(2) 0.3007(3) 0.33205(9)
C9 C 0.4179(2) 0.5054(3) 0.36518(9)
H1 H 0.3595 0.5927 0.3584
H2 H 0.4053 0.4647 0.3971
C10 C 0.1295(2) 0.4147(3) 0.37010(9)
C11 C 0.6155(3) 0.3258(3) 0.46502(9)
H3 H 0.5416 0.3725 0.4749
C12 C 0.7976(3) 0.3357(3) 0.41874(10)
H4 H 0.8472 0.3881 0.3973
C13 C 0.2646(2) 0.3847(3) 0.29964(9)
H5 H 0.2652 0.3322 0.2686
H6 H 0.2395 0.4940 0.2945
C14 C 0.7119(3) 0.5217(3) 0.30079(10)
H7 H 0.7719 0.5890 0.3162
C15 C 0.2312(3) 0.0308(3) 0.37491(9)
H8 H 0.1467 0.0013 0.3776
C16 C 0.4831(3) 0.1174(3) 0.36744(10)
H9 H 0.5678 0.1458 0.3648
C17 C 0.1549(2) 0.3894(3) 0.41850(10)
H10 H 0.1955 0.2969 0.4292
C18 C 0.7615(3) 0.1090(3) 0.46757(10)
C19 C 0.6518(3) 0.1795(3) 0.48172(10)
H11 H 0.6019 0.1266 0.5029
C20 C 0.8324(3) 0.1889(3) 0.43615(10)
H12 H 0.9064 0.1424 0.4263
C21 C 0.0668(2) 0.5514(3) 0.35528(11)
H13 H 0.0474 0.5690 0.3225
C22 C 0.7339(3) 0.4493(3) 0.25799(10)
H14 H 0.8108 0.4669 0.2442
C23 C 0.3282(3) -0.0649(3) 0.39223(10)
H15 H 0.3093 -0.1607 0.4065
C24 C 0.4522(3) -0.0229(3) 0.38899(10)
H16 H 0.5168 -0.0895 0.4014
C25 C 0.5319(3) 0.3227(3) 0.25478(10)
H17 H 0.4718 0.2562 0.2391
C26 C 0.0328(3) 0.6612(4) 0.38799(13)
H18 H -0.0088 0.7535 0.3776
C27 C 0.6455(3) 0.3520(3) 0.23518(11)
H19 H 0.6625 0.3051 0.2060
C28 C 0.1203(3) 0.5011(4) 0.45141(11)
H20 H 0.1387 0.4839 0.4842
C29 C 0.8016(3) -0.0497(3) 0.48678(12)
H21 H 0.8650 -0.0369 0.5131
H22 H 0.8365 -0.1104 0.4617
H23 H 0.7290 -0.1039 0.4979
C30 C 0.0603(3) 0.6347(4) 0.43631(14)
H24 H 0.0374 0.7093 0.4587
C31 C -0.1257(3) 0.0801(4) 0.30982(12)
H25 H -0.0965 0.0008 0.2885
H26 H -0.1798 0.1537 0.2917
H27 H -0.1728 0.0308 0.3341
loop_
_geom_bond_atom_site_label_1
_geom_bond_atom_site_label_2
_geom_bond_site_symmetry_1
_geom_bond_site_symmetry_2
S1 O1 1_555 1_555
O2 S1 1_555 1_555
O3 C7 1_555 1_555
O4 C7 1_555 1_555
N1 S1 1_555 1_555
C1 C4 1_555 1_555
C2 S1 1_555 1_555
C3 C5 1_555 1_555
C4 N1 1_555 1_555
C5 C1 1_555 1_555
C6 C3 1_555 1_555
C7 C8 1_555 1_555
C8 C6 1_555 1_555
C9 N1 1_555 1_555
H1 C9 1_555 1_555
H2 C9 1_555 1_555
C10 C8 1_555 1_555
C11 C2 1_555 1_555
H3 C11 1_555 1_555
C12 C2 1_555 1_555
H4 C12 1_555 1_555
C13 C5 1_555 1_555
H5 C13 1_555 1_555
H6 C13 1_555 1_555
C14 C4 1_555 1_555
H7 C14 1_555 1_555
C15 C6 1_555 1_555
H8 C15 1_555 1_555
C16 C3 1_555 1_555
H9 C16 1_555 1_555
C17 C10 1_555 1_555
H10 C17 1_555 1_555
C18 C19 1_555 1_555
C19 C11 1_555 1_555
H11 C19 1_555 1_555
C20 C12 1_555 1_555
H12 C20 1_555 1_555
C21 C10 1_555 1_555
H13 C21 1_555 1_555
C22 C14 1_555 1_555
H14 C22 1_555 1_555
C23 C15 1_555 1_555
H15 C23 1_555 1_555
C24 C16 1_555 1_555
H16 C24 1_555 1_555
C25 C1 1_555 1_555
H17 C25 1_555 1_555
C26 C21 1_555 1_555
H18 C26 1_555 1_555
C27 C22 1_555 1_555
H19 C27 1_555 1_555
C28 C17 1_555 1_555
H20 C28 1_555 1_555
C29 C18 1_555 1_555
H21 C29 1_555 1_555
H22 C29 1_555 1_555
H23 C29 1_555 1_555
C30 C26 1_555 1_555
H24 C30 1_555 1_555
C31 O3 1_555 1_555
H25 C31 1_555 1_555
H26 C31 1_555 1_555
H27 C31 1_555 1_555
C5 C9 1_555 1_555
C8 C13 1_555 1_555
C18 C20 1_555 1_555
C23 C24 1_555 1_555
C25 C27 1_555 1_555
C28 C30 1_555 1_555

#END
