
#######################################################################
#
#                 Cambridge Crystallographic Data Centre
#                                CCDC 
#
#######################################################################
#
# If this CIF has been generated from an entry in the Cambridge 
# Structural Database, then it will include bibliographic, chemical, 
# crystal, experimental, refinement or atomic coordinate data resulting 
# from the CCDC's data processing and validation procedures.
#
#######################################################################

data_GEWJOJ
_chemical_formula_moiety         'C30 H28 O10'
_chemical_name_systematic        
'Pentamethyl 3,8-diphenyltricyclo[3.2.1.0^2,7^]oct-3-ene-1,4,5,6,7-pentacarboxylate'
_symmetry_cell_setting           monoclinic
_symmetry_space_group_name_H-M   'P 21/c'
_symmetry_Int_Tables_number      14
_space_group_name_Hall           '-P 2ybc'
loop_
_symmetry_equiv_pos_site_id
_symmetry_equiv_pos_as_xyz
1 x,y,z
2 -x,1/2+y,1/2-z
3 -x,-y,-z
4 x,1/2-y,1/2+z
_cell_length_a                   8.99910(10)
_cell_length_b                   16.2594(3)
_cell_length_c                   18.6196(3)
_cell_angle_alpha                90
_cell_angle_beta                 100.6950(10)
_cell_angle_gamma                90
_cell_volume                     2677.09
_cell_formula_units_Z            4
loop_
_atom_site_label
_atom_site_type_symbol
_atom_site_fract_x
_atom_site_fract_y
_atom_site_fract_z
C1 C 0.47739(11) 0.80070(6) 0.46196(5)
H1 H 0.5057 0.8419 0.4285
C2 C 0.57676(11) 0.70121(6) 0.56082(5)
C3 C 0.49011(12) 0.87129(6) 0.57906(6)
O1 O 0.38310(10) 0.94965(5) 0.66374(5)
C4 C 0.39043(12) 0.79822(6) 0.58570(6)
H2 H 0.3048 0.8079 0.6104
C5 C 0.64934(12) 0.85172(6) 0.56853(6)
H3 H 0.6826 0.8965 0.5401
C6 C 0.38308(12) 0.84085(6) 0.51133(6)
O2 O 0.19046(10) 0.87242(6) 0.41288(5)
C7 C 0.62130(11) 0.77325(6) 0.51741(5)
O3 O 0.86087(10) 0.71355(6) 0.52167(6)
C8 C 0.45776(12) 0.71443(6) 0.59349(5)
O4 O 0.48254(11) 0.70739(6) 0.36727(5)
O5 O 0.29229(11) 0.69245(6) 0.42829(6)
C9 C 0.76647(12) 0.84164(6) 0.63732(6)
C10 C 0.38385(12) 0.65259(6) 0.63367(6)
C11 C 0.46773(13) 0.95353(6) 0.61229(6)
C12 C 0.75934(12) 0.76224(7) 0.48209(6)
C13 C 0.65056(13) 0.61988(6) 0.55649(7)
C14 C 0.40308(12) 0.72824(6) 0.41843(6)
O6 O 0.72866(11) 0.59448(6) 0.61969(6)
O7 O 0.77817(11) 0.79746(7) 0.42817(6)
O8 O 0.52443(13) 1.01473(5) 0.59463(6)
C15 C 0.24201(13) 0.88783(7) 0.48276(7)
O9 O 0.64131(13) 0.58288(6) 0.49992(6)
C16 C 0.73133(15) 0.81256(8) 0.70235(7)
H4 H 0.6316 0.7997 0.7045
C17 C 0.34844(17) 0.67248(8) 0.70103(7)
H5 H 0.3721 0.7245 0.7207
C18 C 0.34406(14) 0.57529(7) 0.60438(7)
H6 H 0.3661 0.5610 0.5591
C19 C 0.91673(14) 0.86150(9) 0.63631(7)
H7 H 0.9428 0.8818 0.5936
O10 O 0.18087(14) 0.93199(8) 0.51960(6)
C20 C 0.34538(19) 1.02768(9) 0.69268(9)
H8 H 0.4334 1.0502 0.7234
H9 H 0.2672 1.0198 0.7208
H10 H 0.3104 1.0649 0.6531
C21 C 0.43793(19) 0.63227(9) 0.32854(8)
H11 H 0.4490 0.5872 0.3624
H12 H 0.5007 0.6231 0.2929
H13 H 0.3342 0.6363 0.3044
C22 C 0.23978(18) 0.53933(9) 0.70975(9)
H14 H 0.1924 0.5013 0.7353
C23 C 0.2785(2) 0.61601(10) 0.73935(9)
H15 H 0.2575 0.6297 0.7849
C24 C 0.27156(16) 0.51941(8) 0.64251(9)
H16 H 0.2443 0.4680 0.6224
C25 C 1.02741(17) 0.85142(11) 0.69786(9)
H17 H 1.1273 0.8647 0.6962
C26 C 0.84225(19) 0.80248(10) 0.76381(8)
H18 H 0.8168 0.7826 0.8068
C27 C 0.05103(16) 0.91313(10) 0.38090(9)
H19 H -0.0139 0.9162 0.4163
H20 H 0.0016 0.8826 0.3391
H21 H 0.0729 0.9677 0.3660
C28 C 1.00033(17) 0.70062(11) 0.49548(11)
H22 H 0.9815 0.6663 0.4528
H23 H 1.0725 0.6743 0.5329
H24 H 1.0397 0.7526 0.4833
C29 C 0.99042(19) 0.82178(11) 0.76174(9)
H25 H 1.0650 0.8149 0.8031
C30 C 0.8202(2) 0.52202(12) 0.61573(13)
H26 H 0.7561 0.4768 0.5969
H27 H 0.8744 0.5086 0.6637
H28 H 0.8908 0.5326 0.5840
loop_
_geom_bond_atom_site_label_1
_geom_bond_atom_site_label_2
_geom_bond_site_symmetry_1
_geom_bond_site_symmetry_2
C1 H1 1_555 1_555
C2 C7 1_555 1_555
C3 C4 1_555 1_555
O1 C11 1_555 1_555
C4 H2 1_555 1_555
C5 C3 1_555 1_555
H3 C5 1_555 1_555
C6 C1 1_555 1_555
O2 C15 1_555 1_555
C7 C1 1_555 1_555
O3 C12 1_555 1_555
C8 C2 1_555 1_555
O4 C14 1_555 1_555
O5 C14 1_555 1_555
C9 C5 1_555 1_555
C10 C8 1_555 1_555
C11 C3 1_555 1_555
C12 C7 1_555 1_555
C13 C2 1_555 1_555
C14 C1 1_555 1_555
O6 C13 1_555 1_555
O7 C12 1_555 1_555
O8 C11 1_555 1_555
C15 C6 1_555 1_555
O9 C13 1_555 1_555
C16 C9 1_555 1_555
H4 C16 1_555 1_555
C17 C10 1_555 1_555
H5 C17 1_555 1_555
C18 C10 1_555 1_555
H6 C18 1_555 1_555
C19 C9 1_555 1_555
H7 C19 1_555 1_555
O10 C15 1_555 1_555
C20 O1 1_555 1_555
H8 C20 1_555 1_555
H9 C20 1_555 1_555
H10 C20 1_555 1_555
C21 O4 1_555 1_555
H11 C21 1_555 1_555
H12 C21 1_555 1_555
H13 C21 1_555 1_555
C22 H14 1_555 1_555
C23 C17 1_555 1_555
H15 C23 1_555 1_555
C24 C18 1_555 1_555
H16 C24 1_555 1_555
C25 C19 1_555 1_555
H17 C25 1_555 1_555
C26 C16 1_555 1_555
H18 C26 1_555 1_555
C27 O2 1_555 1_555
H19 C27 1_555 1_555
H20 C27 1_555 1_555
H21 C27 1_555 1_555
C28 O3 1_555 1_555
H22 C28 1_555 1_555
H23 C28 1_555 1_555
H24 C28 1_555 1_555
C29 C25 1_555 1_555
H25 C29 1_555 1_555
C30 O6 1_555 1_555
H26 C30 1_555 1_555
H27 C30 1_555 1_555
H28 C30 1_555 1_555
C3 C6 1_555 1_555
C4 C6 1_555 1_555
C4 C8 1_555 1_555
C5 C7 1_555 1_555
C22 C23 1_555 1_555
C22 C24 1_555 1_555
C26 C29 1_555 1_555

#END
