
#######################################################################
#
#                 Cambridge Crystallographic Data Centre
#                                CCDC 
#
#######################################################################
#
# If this CIF has been generated from an entry in the Cambridge 
# Structural Database, then it will include bibliographic, chemical, 
# crystal, experimental, refinement or atomic coordinate data resulting 
# from the CCDC's data processing and validation procedures.
#
#######################################################################

data_GEWMED
_chemical_formula_moiety         'C25 H38 N1 O1 1+,C2 F6 N1 O4 S2 1-'
_chemical_name_systematic        
'1-[4-(tetradecyloxy)phenyl]pyridin-1-ium bis[(trifluoromethyl)sulfonyl]imide'
_symmetry_cell_setting           triclinic
_symmetry_space_group_name_H-M   'P -1'
_symmetry_Int_Tables_number      2
_space_group_name_Hall           '-P 1'
loop_
_symmetry_equiv_pos_site_id
_symmetry_equiv_pos_as_xyz
1 x,y,z
2 -x,-y,-z
_cell_length_a                   10.5341(2)
_cell_length_b                   20.3100(5)
_cell_length_c                   38.1037(9)
_cell_angle_alpha                80.3923(10)
_cell_angle_beta                 83.5583(10)
_cell_angle_gamma                76.8971(10)
_cell_volume                     7805.08
_exptl_crystal_colour            colorless
_exptl_crystal_description       needle
_cell_formula_units_Z            10
loop_
_atom_site_label
_atom_site_type_symbol
_atom_site_fract_x
_atom_site_fract_y
_atom_site_fract_z
O1 O 0.5773(3) 0.19760(15) 0.80408(7)
N1 N 0.5899(3) 0.35188(15) 0.66899(8)
C1 C 0.6547(3) 0.40329(18) 0.66471(10)
H1 H 0.6938 0.4115 0.6844
C2 C 0.6648(4) 0.44392(19) 0.63231(11)
H2 H 0.7138 0.4787 0.6292
C3 C 0.6029(4) 0.4334(2) 0.60435(12)
H3 H 0.6070 0.4617 0.5819
C4 C 0.5346(5) 0.3814(2) 0.60917(12)
H4 H 0.4905 0.3744 0.5901
C5 C 0.5307(4) 0.3402(2) 0.64136(11)
H5 H 0.4867 0.3034 0.6444
C6 C 0.5840(3) 0.30881(17) 0.70358(9)
C7 C 0.4695(3) 0.28913(19) 0.71732(10)
H6 H 0.3950 0.3020 0.7038
C8 C 0.4626(3) 0.25066(19) 0.75077(10)
H7 H 0.3839 0.2367 0.7602
C9 C 0.5725(3) 0.23254(18) 0.77055(10)
C10 C 0.6882(3) 0.2507(2) 0.75571(10)
H8 H 0.7637 0.2367 0.7688
C11 C 0.6956(3) 0.28860(19) 0.72226(10)
H9 H 0.7754 0.3007 0.7122
C12 C 0.4611(4) 0.1777(2) 0.82160(10)
H10 H 0.4361 0.1442 0.8090
H11 H 0.3879 0.2180 0.8218
C13 C 0.4914(4) 0.1461(2) 0.85929(10)
H12 H 0.5092 0.1813 0.8721
H13 H 0.5712 0.1094 0.8586
C14 C 0.3795(4) 0.11642(19) 0.87968(10)
H14 H 0.2986 0.1525 0.8791
H15 H 0.3651 0.0795 0.8676
C15 C 0.4049(4) 0.0880(2) 0.91824(10)
H16 H 0.4882 0.0536 0.9188
H17 H 0.4156 0.1255 0.9305
C16 C 0.2978(4) 0.05534(19) 0.93873(10)
H18 H 0.2141 0.0894 0.9375
H19 H 0.2890 0.0169 0.9269
C17 C 0.3209(4) 0.02880(19) 0.97755(10)
H20 H 0.3281 0.0674 0.9895
H21 H 0.4054 -0.0046 0.9787
C18 C 0.2148(4) -0.00514(19) 0.99804(10)
H22 H 0.1300 0.0279 0.9965
H23 H 0.2088 -0.0443 0.9864
C19 C 0.2365(4) -0.0305(2) 1.03705(10)
H24 H 0.3215 -0.0635 1.0387
H25 H 0.2418 0.0087 1.0488
C20 C 0.1306(4) -0.0645(2) 1.05704(10)
H26 H 0.1265 -0.1040 1.0454
H27 H 0.0455 -0.0317 1.0548
C21 C 0.1484(4) -0.0893(2) 1.09641(10)
H28 H 0.2324 -0.1229 1.0987
H29 H 0.1537 -0.0501 1.1081
C22 C 0.0397(4) -0.1220(2) 1.11576(11)
H30 H 0.0346 -0.1609 1.1038
H31 H -0.0440 -0.0882 1.1132
C23 C 0.0525(4) -0.1478(2) 1.15524(11)
H32 H 0.1352 -0.1823 1.1581
H33 H 0.0576 -0.1093 1.1675
C24 C -0.0599(5) -0.1795(3) 1.17317(13)
H34 H -0.1417 -0.1442 1.1712
H35 H -0.0677 -0.2162 1.1599
C25 C -0.0487(5) -0.2087(3) 1.21131(13)
H36 H 0.0171 -0.2516 1.2133
H37 H -0.1334 -0.2177 1.2220
H38 H -0.0226 -0.1762 1.2239
O2 O 0.4445(2) 0.49352(14) 0.72869(7)
N2 N 0.3893(2) 0.64586(13) 0.59347(7)
C26 C 0.4947(3) 0.64904(17) 0.56990(9)
H39 H 0.5775 0.6212 0.5754
C27 C 0.4830(3) 0.6918(2) 0.53832(9)
H40 H 0.5574 0.6935 0.5219
C28 C 0.3628(4) 0.7326(2) 0.53015(10)
H41 H 0.3545 0.7636 0.5085
C29 C 0.2551(3) 0.7277(2) 0.55384(10)
H42 H 0.1714 0.7546 0.5485
C30 C 0.2705(3) 0.68332(17) 0.58517(9)
H43 H 0.1963 0.6789 0.6013
C31 C 0.4036(3) 0.60385(15) 0.62809(8)
C32 C 0.3141(3) 0.56403(18) 0.64157(9)
H44 H 0.2459 0.5623 0.6276
C33 C 0.3237(3) 0.52673(18) 0.67531(9)
H45 H 0.2614 0.4999 0.6848
C34 C 0.4252(3) 0.52867(17) 0.69540(9)
C35 C 0.5149(3) 0.56930(18) 0.68150(9)
H46 H 0.5834 0.5710 0.6953
C36 C 0.5050(3) 0.60704(16) 0.64782(9)
H47 H 0.5661 0.6346 0.6383
C37 C 0.3446(3) 0.45885(18) 0.74621(9)
H48 H 0.3359 0.4227 0.7327
H49 H 0.2594 0.4915 0.7476
C38 C 0.3844(4) 0.42777(19) 0.78326(9)
H50 H 0.3998 0.4638 0.7958
H51 H 0.4671 0.3933 0.7815
C39 C 0.2787(4) 0.39400(19) 0.80461(9)
H52 H 0.2671 0.3565 0.7925
H53 H 0.1949 0.4280 0.8048
C40 C 0.3095(4) 0.36510(19) 0.84314(9)
H54 H 0.3927 0.3306 0.8430
H55 H 0.3219 0.4024 0.8553
C41 C 0.2024(4) 0.33208(19) 0.86436(9)
H56 H 0.1187 0.3662 0.8635
H57 H 0.1926 0.2938 0.8526
C42 C 0.2276(4) 0.30524(19) 0.90306(9)
H58 H 0.2362 0.3436 0.9149
H59 H 0.3118 0.2716 0.9039
C43 C 0.1217(4) 0.27169(18) 0.92387(9)
H60 H 0.1139 0.2330 0.9121
H61 H 0.0372 0.3052 0.9227
C44 C 0.1451(4) 0.24545(19) 0.96285(9)
H62 H 0.2301 0.2124 0.9641
H63 H 0.1513 0.2843 0.9747
C45 C 0.0395(3) 0.21103(18) 0.98312(9)
H64 H 0.0343 0.1719 0.9714
H65 H -0.0456 0.2439 0.9815
C46 C 0.0613(4) 0.18539(19) 1.02229(9)
H66 H 0.1469 0.1530 1.0239
H67 H 0.0653 0.2246 1.0341
C47 C -0.0433(3) 0.15025(18) 1.04236(9)
H68 H -0.0467 0.1108 1.0306
H69 H -0.1290 0.1825 1.0405
C48 C -0.0227(4) 0.12512(19) 1.08165(9)
H70 H 0.0637 0.0936 1.0835
H71 H -0.0209 0.1648 1.0934
C49 C -0.1258(4) 0.0888(2) 1.10174(11)
H72 H -0.1281 0.0492 1.0900
H73 H -0.2123 0.1204 1.1001
C50 C -0.1034(6) 0.0637(3) 1.14079(12)
H74 H -0.0180 0.0324 1.1427
H75 H -0.1721 0.0399 1.1519
H76 H -0.1055 0.1028 1.1530
O3 O 0.3001(2) 0.69889(14) 0.73118(6)
N3 N 0.3963(2) 0.84444(14) 0.59789(7)
C51 C 0.3087(4) 0.8978(2) 0.58262(12)
H77 H 0.2273 0.9138 0.5952
C52 C 0.3385(6) 0.9287(3) 0.54881(15)
H78 H 0.2765 0.9658 0.5378
C53 C 0.4536(6) 0.9074(3) 0.53104(12)
H79 H 0.4733 0.9296 0.5077
C54 C 0.5432(5) 0.8533(2) 0.54674(10)
H80 H 0.6251 0.8377 0.5343
C55 C 0.5131(3) 0.82189(19) 0.58042(9)
H81 H 0.5742 0.7844 0.5915
C56 C 0.3651(3) 0.80942(15) 0.63300(8)
C57 C 0.4590(3) 0.79265(16) 0.65753(8)
H82 H 0.5402 0.8064 0.6519
C58 C 0.4328(3) 0.75570(18) 0.69026(8)
H83 H 0.4965 0.7439 0.7073
C59 C 0.3135(3) 0.73550(17) 0.69854(8)
C60 C 0.2183(3) 0.75454(17) 0.67390(9)
H84 H 0.1359 0.7422 0.6796
C61 C 0.2453(3) 0.79160(17) 0.64101(8)
H85 H 0.1814 0.8047 0.6240
C62 C 0.1846(3) 0.67166(19) 0.74159(9)
H86 H 0.1770 0.6392 0.7256
H87 H 0.1053 0.7088 0.7408
C63 C 0.2022(3) 0.63554(19) 0.77935(9)
H88 H 0.2162 0.6685 0.7942
H89 H 0.2820 0.5988 0.7792
C64 C 0.0876(3) 0.60452(18) 0.79671(9)
H90 H 0.0761 0.5692 0.7830
H91 H 0.0065 0.6405 0.7963
C65 C 0.1118(3) 0.57252(19) 0.83514(9)
H92 H 0.1940 0.5373 0.8350
H93 H 0.1248 0.6083 0.8483
C66 C 0.0035(3) 0.53973(18) 0.85537(9)
H94 H -0.0799 0.5741 0.8548
H95 H -0.0067 0.5021 0.8432
C67 C 0.0303(3) 0.51177(18) 0.89397(9)
H96 H 0.0404 0.5496 0.9060
H97 H 0.1142 0.4778 0.8944
C68 C -0.0757(3) 0.47826(18) 0.91493(9)
H98 H -0.1602 0.5117 0.9138
H99 H -0.0835 0.4393 0.9034
C69 C -0.0509(3) 0.45268(18) 0.95376(9)
H100 H -0.0441 0.4917 0.9654
H101 H 0.0341 0.4196 0.9549
C70 C -0.1561(3) 0.41853(18) 0.97455(9)
H102 H -0.2413 0.4513 0.9729
H103 H -0.1617 0.3790 0.9631
C71 C -0.1340(3) 0.39386(18) 1.01365(9)
H104 H -0.1312 0.4335 1.0253
H105 H -0.0478 0.3620 1.0154
C72 C -0.2381(4) 0.35808(18) 1.03384(9)
H106 H -0.3244 0.3897 1.0317
H107 H -0.2399 0.3180 1.0224
C73 C -0.2182(4) 0.33423(19) 1.07302(9)
H108 H -0.2187 0.3744 1.0846
H109 H -0.1310 0.3035 1.0752
C74 C -0.3209(4) 0.2969(2) 1.09291(10)
H110 H -0.4081 0.3276 1.0908
H111 H -0.3204 0.2567 1.0813
C75 C -0.3005(5) 0.2730(3) 1.13215(11)
H112 H -0.2104 0.2475 1.1347
H113 H -0.3611 0.2433 1.1423
H114 H -0.3170 0.3127 1.1448
O4 O 0.9556(2) 0.77298(14) 0.83047(7)
N4 N 0.9725(3) 0.91980(14) 0.69333(7)
C76 C 1.0441(3) 0.96828(18) 0.68626(10)
H115 H 1.0872 0.9781 0.7048
C77 C 1.0551(4) 1.0036(2) 0.65241(10)
H116 H 1.1085 1.0364 0.6472
C78 C 0.9877(4) 0.9910(2) 0.62581(11)
H117 H 0.9921 1.0162 0.6025
C79 C 0.9143(4) 0.9414(2) 0.63358(11)
H118 H 0.8686 0.9318 0.6156
C80 C 0.9077(4) 0.9061(2) 0.66737(10)
H119 H 0.8575 0.8718 0.6727
C81 C 0.9655(3) 0.88072(17) 0.72884(9)
C82 C 0.8510(3) 0.8610(2) 0.74285(10)
H120 H 0.7767 0.8729 0.7293
C83 C 0.8445(3) 0.8241(2) 0.77661(10)
H121 H 0.7659 0.8102 0.7862
C84 C 0.9529(3) 0.80723(18) 0.79660(9)
C85 C 1.0684(3) 0.82610(19) 0.78207(9)
H122 H 1.1430 0.8141 0.7956
C86 C 1.0757(3) 0.86226(18) 0.74810(9)
H123 H 1.1553 0.8744 0.7380
C87 C 0.8396(3) 0.75116(19) 0.84665(10)
H124 H 0.8196 0.7170 0.8336
H125 H 0.7644 0.7906 0.8461
C88 C 0.8645(4) 0.7201(2) 0.88469(10)
H126 H 0.8800 0.7555 0.8977
H127 H 0.9445 0.6834 0.8848
C89 C 0.7514(3) 0.69051(19) 0.90407(10)
H128 H 0.6703 0.7264 0.9027
H129 H 0.7395 0.6531 0.8919
C90 C 0.7726(4) 0.6631(2) 0.94294(10)
H130 H 0.8561 0.6289 0.9442
H131 H 0.7811 0.7011 0.9551
C91 C 0.6648(3) 0.63032(19) 0.96297(9)
H132 H 0.5808 0.6641 0.9613
H133 H 0.6577 0.5914 0.9513
C92 C 0.6864(4) 0.6049(2) 1.00191(10)
H134 H 0.6915 0.6441 1.0136
H135 H 0.7718 0.5722 1.0034
C93 C 0.5818(4) 0.57015(19) 1.02244(10)
H136 H 0.4961 0.6023 1.0204
H137 H 0.5783 0.5302 1.0111
C94 C 0.6019(4) 0.5464(2) 1.06157(9)
H138 H 0.6032 0.5865 1.0731
H139 H 0.6884 0.5149 1.0637
C95 C 0.4982(4) 0.5104(2) 1.08154(10)
H140 H 0.4116 0.5417 1.0790
H141 H 0.4980 0.4700 1.0702
C96 C 0.5159(4) 0.4874(2) 1.12087(10)
H142 H 0.5112 0.5280 1.1325
H143 H 0.6040 0.4579 1.1236
C97 C 0.4150(4) 0.4484(2) 1.13986(10)
H144 H 0.3272 0.4784 1.1373
H145 H 0.4186 0.4086 1.1277
C98 C 0.4299(4) 0.4232(2) 1.17899(10)
H146 H 0.5211 0.3980 1.1820
H147 H 0.4145 0.4632 1.1918
C99 C 0.3392(6) 0.3775(3) 1.19596(13)
H148 H 0.2481 0.4030 1.1931
H149 H 0.3540 0.3380 1.1828
C100 C 0.3530(7) 0.3514(4) 1.23446(14)
H150 H 0.4444 0.3293 1.2380
H151 H 0.2975 0.3181 1.2425
H152 H 0.3261 0.3895 1.2483
O5 O 0.8366(2) 1.06670(15) 0.75203(7)
N5 N 0.8431(3) 1.21455(15) 0.61560(8)
C101 C 0.8149(4) 1.1884(2) 0.58789(11)
H153 H 0.7941 1.1445 0.5915
C102 C 0.8163(5) 1.2259(3) 0.55412(12)
H154 H 0.7984 1.2072 0.5344
C103 C 0.8432(5) 1.2892(3) 0.54892(12)
H155 H 0.8404 1.3157 0.5259
C104 C 0.8747(4) 1.3150(2) 0.57734(12)
H156 H 0.8976 1.3584 0.5738
C105 C 0.8724(4) 1.2771(2) 0.61080(10)
H157 H 0.8916 1.2949 0.6306
C106 C 0.8390(3) 1.17595(18) 0.65096(9)
C107 C 0.9392(3) 1.17106(18) 0.67279(9)
H158 H 1.0098 1.1931 0.6646
C108 C 0.9347(3) 1.13405(19) 0.70636(9)
H159 H 1.0025 1.1307 0.7215
C109 C 0.8314(3) 1.10127(19) 0.71852(9)
C110 C 0.7317(3) 1.1061(2) 0.69629(10)
H160 H 0.6612 1.0839 0.7044
C111 C 0.7364(3) 1.1433(2) 0.66257(10)
H161 H 0.6693 1.1465 0.6473
C112 C 0.7270(3) 1.0381(2) 0.76780(10)
H162 H 0.7146 1.0029 0.7541
H163 H 0.6461 1.0742 0.7679
C113 C 0.7571(4) 1.0066(2) 0.80540(10)
H164 H 0.7698 1.0425 0.8186
H165 H 0.8397 0.9718 0.8048
C114 C 0.6483(4) 0.9734(2) 0.82508(10)
H166 H 0.5652 1.0080 0.8248
H167 H 0.6378 0.9366 0.8123
C115 C 0.6748(4) 0.9435(2) 0.86358(10)
H168 H 0.7583 0.9092 0.8637
H169 H 0.6856 0.9805 0.8762
C116 C 0.5682(4) 0.9099(2) 0.88395(10)
H170 H 0.5599 0.8717 0.8719
H171 H 0.4840 0.9436 0.8831
C117 C 0.5938(4) 0.88287(19) 0.92274(10)
H172 H 0.6027 0.9212 0.9346
H173 H 0.6779 0.8491 0.9235
C118 C 0.4874(4) 0.84923(19) 0.94371(10)
H174 H 0.4028 0.8826 0.9425
H175 H 0.4797 0.8103 0.9322
C119 C 0.5121(4) 0.82361(19) 0.98264(10)
H176 H 0.5971 0.7906 0.9838
H177 H 0.5188 0.8626 0.9943
C120 C 0.4067(4) 0.78949(19) 1.00326(10)
H178 H 0.4017 0.7498 0.9919
H179 H 0.3215 0.8222 1.0014
C121 C 0.4281(4) 0.76513(19) 1.04247(10)
H180 H 0.5136 0.7327 1.0443
H181 H 0.4322 0.8048 1.0539
C122 C 0.3235(4) 0.7307(2) 1.06277(10)
H182 H 0.3194 0.6911 1.0512
H183 H 0.2380 0.7631 1.0608
C123 C 0.3435(4) 0.7061(2) 1.10192(10)
H184 H 0.4293 0.6739 1.1039
H185 H 0.3466 0.7457 1.1135
C124 C 0.2395(5) 0.6712(3) 1.12186(12)
H186 H 0.2364 0.6315 1.1102
H187 H 0.1538 0.7033 1.1199
C125 C 0.2598(7) 0.6466(3) 1.16095(14)
H188 H 0.3473 0.6176 1.1633
H189 H 0.1940 0.6204 1.1714
H190 H 0.2513 0.6861 1.1734
S1 S 0.57707(9) 0.06246(5) 0.58241(2)
S2 S 0.43754(10) 0.19742(5) 0.57330(3)
N6 N 0.5099(4) 0.13216(18) 0.59645(9)
O6 O 0.5229(4) 0.04622(17) 0.55324(8)
O7 O 0.7152(3) 0.05107(17) 0.58278(9)
O8 O 0.4703(4) 0.2008(2) 0.53565(9)
O9 O 0.4375(5) 0.25482(19) 0.59029(13)
C126 C 0.5318(4) 0.0032(2) 0.62044(11)
C127 C 0.2661(5) 0.1910(4) 0.57823(17)
F1 F 0.4027(3) 0.00717(17) 0.62419(8)
F2 F 0.5885(3) -0.05986(13) 0.61497(8)
F3 F 0.5679(3) 0.01476(15) 0.65028(7)
F4 F 0.2191(4) 0.1895(3) 0.61096(11)
F5 F 0.2542(4) 0.1344(3) 0.56732(16)
F6 F 0.1966(4) 0.2441(3) 0.55927(13)
S3 S 0.07745(9) 0.36496(5) 0.67446(3)
S4 S -0.04939(11) 0.47513(5) 0.70990(3)
N7 N 0.0828(4) 0.4201(2) 0.69717(12)
O10 O -0.0360(4) 0.3420(2) 0.67395(10)
O11 O 0.1964(5) 0.3151(3) 0.67824(17)
O12 O 0.0095(5) 0.5243(2) 0.71886(12)
O13 O -0.1525(4) 0.4891(2) 0.68950(10)
C128 C 0.1081(5) 0.4056(2) 0.62885(14)
C129 C -0.1028(5) 0.4323(2) 0.75334(12)
F7 F 0.0061(5) 0.4517(3) 0.61765(11)
F8 F 0.2018(5) 0.4370(3) 0.62378(12)
F9 F 0.1224(5) 0.3622(2) 0.60606(12)
F10 F -0.018(4) 0.4215(16) 0.7771(11)
F11 F -0.2224(9) 0.4632(7) 0.7633(3)
F12 F -0.1169(16) 0.3699(7) 0.7496(7)
S5 S 0.88365(8) 0.63261(5) 0.58699(3)
S6 S 0.86122(7) 0.74512(4) 0.62260(2)
N8 N 0.8012(3) 0.70006(16) 0.60167(9)
O14 O 1.0122(3) 0.60811(15) 0.59827(10)
O15 O 0.8002(3) 0.58534(14) 0.58883(9)
O16 O 0.9940(2) 0.74983(13) 0.61267(8)
O17 O 0.7669(2) 0.80659(13) 0.62545(8)
C130 C 0.9055(4) 0.6637(3) 0.53947(13)
C131 C 0.8621(4) 0.6996(2) 0.66816(12)
F13 F 0.9826(3) 0.70803(17) 0.53334(8)
F14 F 0.7926(3) 0.69390(19) 0.52624(8)
F15 F 0.9597(3) 0.6121(2) 0.52180(10)
F16 F 0.8827(3) 0.73964(18) 0.69027(7)
F17 F 0.7521(3) 0.6800(2) 0.67849(8)
F18 F 0.9586(4) 0.64673(18) 0.67146(10)
S7 S 0.44202(7) 0.92307(4) 0.72530(2)
S8 S 0.32598(9) 1.05068(5) 0.74484(3)
N9 N 0.4502(3) 0.99343(17) 0.73621(10)
O18 O 0.3300(2) 0.92290(13) 0.70739(7)
O19 O 0.5678(2) 0.89202(14) 0.71067(8)
O20 O 0.2025(2) 1.03083(15) 0.74934(8)
O21 O 0.3586(4) 1.0863(2) 0.77022(10)
C132 C 0.4227(3) 0.8692(2) 0.76857(10)
C133 C 0.3158(4) 1.1124(2) 0.70366(13)
F19 F 0.3996(3) 0.80959(13) 0.76408(7)
F20 F 0.5289(2) 0.85666(16) 0.78628(8)
F21 F 0.3218(3) 0.89788(15) 0.78914(7)
F22 F 0.2821(3) 1.08634(15) 0.67761(7)
F23 F 0.4287(2) 1.13127(16) 0.69324(10)
F24 F 0.2264(2) 1.16762(13) 0.70922(9)
F25? F -0.006(4) 0.3984(15) 0.7717(11)
F26? F -0.1644(11) 0.4789(6) 0.7726(3)
F27? F -0.1640(17) 0.3839(7) 0.7502(7)
F28? F 0.1759(8) 0.4765(5) 0.5391(3)
F29? F 0.3478(15) 0.4064(7) 0.5245(5)
F30? F 0.2308(8) 0.4721(6) 0.4843(2)
F31? F 0.7741(8) 0.9548(4) 0.5229(3)
F32? F 0.8948(10) 0.8783(4) 0.55440(15)
F33? F 0.8488(8) 0.8551(3) 0.5058(2)
S9? S 0.37715(12) 0.52981(5) 0.51507(3)
N10? N 0.4751(6) 0.5202(3) 0.48335(12)
O22? O 0.2834(8) 0.5943(3) 0.5087(3)
O23? O 0.4121(8) 0.5219(5) 0.55143(18)
O24? O 0.3586(8) 0.5781(4) 0.4836(2)
O25? O 0.3382(9) 0.5485(5) 0.5486(2)
C134? C 0.2797(5) 0.4667(3) 0.51411(14)
F34? F 0.1574(7) 0.4960(5) 0.5125(3)
F35? F 0.3060(15) 0.4108(7) 0.5367(5)
F36? F 0.3107(8) 0.4412(6) 0.4829(2)
S10? S 1.01281(11) 0.93341(6) 0.49243(4)
N11? N 0.9640(7) 1.0129(3) 0.48269(15)
O26? O 0.9934(7) 0.9107(3) 0.45648(15)
O27? O 1.1310(7) 0.9045(4) 0.5044(3)
O28? O 0.9728(7) 0.9619(3) 0.46122(15)
O29? O 1.1157(8) 0.8760(4) 0.5019(3)
C135? C 0.8767(4) 0.90495(18) 0.52039(10)
F37? F 0.7630(7) 0.9319(5) 0.5074(3)
F38? F 0.8816(10) 0.9249(4) 0.55022(16)
F39? F 0.8990(8) 0.8385(3) 0.5239(2)
loop_
_geom_bond_atom_site_label_1
_geom_bond_atom_site_label_2
_geom_bond_site_symmetry_1
_geom_bond_site_symmetry_2
O1 C9 1_555 1_555
N1 C1 1_555 1_555
C1 H1 1_555 1_555
C2 C1 1_555 1_555
H2 C2 1_555 1_555
C3 C2 1_555 1_555
H3 C3 1_555 1_555
C4 C3 1_555 1_555
H4 C4 1_555 1_555
C5 N1 1_555 1_555
H5 C5 1_555 1_555
C6 N1 1_555 1_555
C7 C6 1_555 1_555
H6 C7 1_555 1_555
C8 C7 1_555 1_555
H7 C8 1_555 1_555
C9 C8 1_555 1_555
C10 C9 1_555 1_555
H8 C10 1_555 1_555
C11 C6 1_555 1_555
H9 C11 1_555 1_555
C12 O1 1_555 1_555
H10 C12 1_555 1_555
H11 C12 1_555 1_555
C13 C12 1_555 1_555
H12 C13 1_555 1_555
H13 C13 1_555 1_555
C14 C13 1_555 1_555
H14 C14 1_555 1_555
H15 C14 1_555 1_555
C15 C14 1_555 1_555
H16 C15 1_555 1_555
H17 C15 1_555 1_555
C16 C15 1_555 1_555
H18 C16 1_555 1_555
H19 C16 1_555 1_555
C17 C16 1_555 1_555
H20 C17 1_555 1_555
H21 C17 1_555 1_555
C18 C17 1_555 1_555
H22 C18 1_555 1_555
H23 C18 1_555 1_555
C19 C18 1_555 1_555
H24 C19 1_555 1_555
H25 C19 1_555 1_555
C20 C19 1_555 1_555
H26 C20 1_555 1_555
H27 C20 1_555 1_555
C21 C20 1_555 1_555
H28 C21 1_555 1_555
H29 C21 1_555 1_555
C22 C21 1_555 1_555
H30 C22 1_555 1_555
H31 C22 1_555 1_555
C23 C22 1_555 1_555
H32 C23 1_555 1_555
H33 C23 1_555 1_555
C24 C23 1_555 1_555
H34 C24 1_555 1_555
H35 C24 1_555 1_555
C25 C24 1_555 1_555
H36 C25 1_555 1_555
H37 C25 1_555 1_555
H38 C25 1_555 1_555
O2 C34 1_555 1_555
N2 C26 1_555 1_555
C26 H39 1_555 1_555
C27 C26 1_555 1_555
H40 C27 1_555 1_555
C28 C27 1_555 1_555
H41 C28 1_555 1_555
C29 C28 1_555 1_555
H42 C29 1_555 1_555
C30 N2 1_555 1_555
H43 C30 1_555 1_555
C31 N2 1_555 1_555
C32 C31 1_555 1_555
H44 C32 1_555 1_555
C33 C32 1_555 1_555
H45 C33 1_555 1_555
C34 C33 1_555 1_555
C35 C34 1_555 1_555
H46 C35 1_555 1_555
C36 C31 1_555 1_555
H47 C36 1_555 1_555
C37 O2 1_555 1_555
H48 C37 1_555 1_555
H49 C37 1_555 1_555
C38 C37 1_555 1_555
H50 C38 1_555 1_555
H51 C38 1_555 1_555
C39 C38 1_555 1_555
H52 C39 1_555 1_555
H53 C39 1_555 1_555
C40 C39 1_555 1_555
H54 C40 1_555 1_555
H55 C40 1_555 1_555
C41 C40 1_555 1_555
H56 C41 1_555 1_555
H57 C41 1_555 1_555
C42 C41 1_555 1_555
H58 C42 1_555 1_555
H59 C42 1_555 1_555
C43 C42 1_555 1_555
H60 C43 1_555 1_555
H61 C43 1_555 1_555
C44 C43 1_555 1_555
H62 C44 1_555 1_555
H63 C44 1_555 1_555
C45 C44 1_555 1_555
H64 C45 1_555 1_555
H65 C45 1_555 1_555
C46 C45 1_555 1_555
H66 C46 1_555 1_555
H67 C46 1_555 1_555
C47 C46 1_555 1_555
H68 C47 1_555 1_555
H69 C47 1_555 1_555
C48 C47 1_555 1_555
H70 C48 1_555 1_555
H71 C48 1_555 1_555
C49 C48 1_555 1_555
H72 C49 1_555 1_555
H73 C49 1_555 1_555
C50 C49 1_555 1_555
H74 C50 1_555 1_555
H75 C50 1_555 1_555
H76 C50 1_555 1_555
O3 C59 1_555 1_555
N3 C51 1_555 1_555
C51 H77 1_555 1_555
C52 C51 1_555 1_555
H78 C52 1_555 1_555
C53 C52 1_555 1_555
H79 C53 1_555 1_555
C54 C53 1_555 1_555
H80 C54 1_555 1_555
C55 N3 1_555 1_555
H81 C55 1_555 1_555
C56 N3 1_555 1_555
C57 C56 1_555 1_555
H82 C57 1_555 1_555
C58 C57 1_555 1_555
H83 C58 1_555 1_555
C59 C58 1_555 1_555
C60 C59 1_555 1_555
H84 C60 1_555 1_555
C61 C56 1_555 1_555
H85 C61 1_555 1_555
C62 O3 1_555 1_555
H86 C62 1_555 1_555
H87 C62 1_555 1_555
C63 C62 1_555 1_555
H88 C63 1_555 1_555
H89 C63 1_555 1_555
C64 C63 1_555 1_555
H90 C64 1_555 1_555
H91 C64 1_555 1_555
C65 C64 1_555 1_555
H92 C65 1_555 1_555
H93 C65 1_555 1_555
C66 C65 1_555 1_555
H94 C66 1_555 1_555
H95 C66 1_555 1_555
C67 C66 1_555 1_555
H96 C67 1_555 1_555
H97 C67 1_555 1_555
C68 C67 1_555 1_555
H98 C68 1_555 1_555
H99 C68 1_555 1_555
C69 C68 1_555 1_555
H100 C69 1_555 1_555
H101 C69 1_555 1_555
C70 C69 1_555 1_555
H102 C70 1_555 1_555
H103 C70 1_555 1_555
C71 C70 1_555 1_555
H104 C71 1_555 1_555
H105 C71 1_555 1_555
C72 C71 1_555 1_555
H106 C72 1_555 1_555
H107 C72 1_555 1_555
C73 C72 1_555 1_555
H108 C73 1_555 1_555
H109 C73 1_555 1_555
C74 C73 1_555 1_555
H110 C74 1_555 1_555
H111 C74 1_555 1_555
C75 C74 1_555 1_555
H112 C75 1_555 1_555
H113 C75 1_555 1_555
H114 C75 1_555 1_555
O4 C84 1_555 1_555
N4 C76 1_555 1_555
C76 H115 1_555 1_555
C77 C76 1_555 1_555
H116 C77 1_555 1_555
C78 C77 1_555 1_555
H117 C78 1_555 1_555
C79 C78 1_555 1_555
H118 C79 1_555 1_555
C80 N4 1_555 1_555
H119 C80 1_555 1_555
C81 N4 1_555 1_555
C82 C81 1_555 1_555
H120 C82 1_555 1_555
C83 C82 1_555 1_555
H121 C83 1_555 1_555
C84 C83 1_555 1_555
C85 C84 1_555 1_555
H122 C85 1_555 1_555
C86 C81 1_555 1_555
H123 C86 1_555 1_555
C87 O4 1_555 1_555
H124 C87 1_555 1_555
H125 C87 1_555 1_555
C88 C87 1_555 1_555
H126 C88 1_555 1_555
H127 C88 1_555 1_555
C89 C88 1_555 1_555
H128 C89 1_555 1_555
H129 C89 1_555 1_555
C90 C89 1_555 1_555
H130 C90 1_555 1_555
H131 C90 1_555 1_555
C91 C90 1_555 1_555
H132 C91 1_555 1_555
H133 C91 1_555 1_555
C92 C91 1_555 1_555
H134 C92 1_555 1_555
H135 C92 1_555 1_555
C93 C92 1_555 1_555
H136 C93 1_555 1_555
H137 C93 1_555 1_555
C94 C93 1_555 1_555
H138 C94 1_555 1_555
H139 C94 1_555 1_555
C95 C94 1_555 1_555
H140 C95 1_555 1_555
H141 C95 1_555 1_555
C96 C95 1_555 1_555
H142 C96 1_555 1_555
H143 C96 1_555 1_555
C97 C96 1_555 1_555
H144 C97 1_555 1_555
H145 C97 1_555 1_555
C98 C97 1_555 1_555
H146 C98 1_555 1_555
H147 C98 1_555 1_555
C99 C98 1_555 1_555
H148 C99 1_555 1_555
H149 C99 1_555 1_555
C100 C99 1_555 1_555
H150 C100 1_555 1_555
H151 C100 1_555 1_555
H152 C100 1_555 1_555
O5 C109 1_555 1_555
N5 C101 1_555 1_555
C101 H153 1_555 1_555
C102 C101 1_555 1_555
H154 C102 1_555 1_555
C103 C102 1_555 1_555
H155 C103 1_555 1_555
C104 C103 1_555 1_555
H156 C104 1_555 1_555
C105 N5 1_555 1_555
H157 C105 1_555 1_555
C106 N5 1_555 1_555
C107 C106 1_555 1_555
H158 C107 1_555 1_555
C108 C107 1_555 1_555
H159 C108 1_555 1_555
C109 C108 1_555 1_555
C110 C109 1_555 1_555
H160 C110 1_555 1_555
C111 C106 1_555 1_555
H161 C111 1_555 1_555
C112 O5 1_555 1_555
H162 C112 1_555 1_555
H163 C112 1_555 1_555
C113 C112 1_555 1_555
H164 C113 1_555 1_555
H165 C113 1_555 1_555
C114 C113 1_555 1_555
H166 C114 1_555 1_555
H167 C114 1_555 1_555
C115 C114 1_555 1_555
H168 C115 1_555 1_555
H169 C115 1_555 1_555
C116 C115 1_555 1_555
H170 C116 1_555 1_555
H171 C116 1_555 1_555
C117 C116 1_555 1_555
H172 C117 1_555 1_555
H173 C117 1_555 1_555
C118 C117 1_555 1_555
H174 C118 1_555 1_555
H175 C118 1_555 1_555
C119 C118 1_555 1_555
H176 C119 1_555 1_555
H177 C119 1_555 1_555
C120 C119 1_555 1_555
H178 C120 1_555 1_555
H179 C120 1_555 1_555
C121 C120 1_555 1_555
H180 C121 1_555 1_555
H181 C121 1_555 1_555
C122 C121 1_555 1_555
H182 C122 1_555 1_555
H183 C122 1_555 1_555
C123 C122 1_555 1_555
H184 C123 1_555 1_555
H185 C123 1_555 1_555
C124 C123 1_555 1_555
H186 C124 1_555 1_555
H187 C124 1_555 1_555
C125 C124 1_555 1_555
H188 C125 1_555 1_555
H189 C125 1_555 1_555
H190 C125 1_555 1_555
S1 N6 1_555 1_555
S2 N6 1_555 1_555
O6 S1 1_555 1_555
O7 S1 1_555 1_555
O8 S2 1_555 1_555
O9 S2 1_555 1_555
C126 S1 1_555 1_555
C127 S2 1_555 1_555
F1 C126 1_555 1_555
F2 C126 1_555 1_555
F3 C126 1_555 1_555
F4 C127 1_555 1_555
F5 C127 1_555 1_555
F6 C127 1_555 1_555
S3 N7 1_555 1_555
S4 N7 1_555 1_555
O10 S3 1_555 1_555
O11 S3 1_555 1_555
O12 S4 1_555 1_555
O13 S4 1_555 1_555
C128 S3 1_555 1_555
C129 S4 1_555 1_555
F7 C128 1_555 1_555
F8 C128 1_555 1_555
F9 C128 1_555 1_555
F10 C129 1_555 1_555
F11 C129 1_555 1_555
F12 C129 1_555 1_555
S5 N8 1_555 1_555
S6 N8 1_555 1_555
O14 S5 1_555 1_555
O15 S5 1_555 1_555
O16 S6 1_555 1_555
O17 S6 1_555 1_555
C130 S5 1_555 1_555
C131 S6 1_555 1_555
F13 C130 1_555 1_555
F14 C130 1_555 1_555
F15 C130 1_555 1_555
F16 C131 1_555 1_555
F17 C131 1_555 1_555
F18 C131 1_555 1_555
S7 N9 1_555 1_555
S8 N9 1_555 1_555
O18 S7 1_555 1_555
O19 S7 1_555 1_555
O20 S8 1_555 1_555
O21 S8 1_555 1_555
C132 S7 1_555 1_555
C133 S8 1_555 1_555
F19 C132 1_555 1_555
F20 C132 1_555 1_555
F21 C132 1_555 1_555
F22 C133 1_555 1_555
F23 C133 1_555 1_555
F24 C133 1_555 1_555
C4 C5 1_555 1_555
C10 C11 1_555 1_555
C29 C30 1_555 1_555
C35 C36 1_555 1_555
C54 C55 1_555 1_555
C60 C61 1_555 1_555
C79 C80 1_555 1_555
C85 C86 1_555 1_555
C104 C105 1_555 1_555
C110 C111 1_555 1_555

#END
