
#######################################################################
#
#                 Cambridge Crystallographic Data Centre
#                                CCDC 
#
#######################################################################
#
# If this CIF has been generated from an entry in the Cambridge 
# Structural Database, then it will include bibliographic, chemical, 
# crystal, experimental, refinement or atomic coordinate data resulting 
# from the CCDC's data processing and validation procedures.
#
#######################################################################

data_GEWMAZ
_chemical_formula_moiety         'C23 H34 N1 O1 1+,F6 P1 1-'
_chemical_name_systematic        
'1-[4-(dodecyloxy)phenyl]pyridin-1-ium hexafluorophosphate'
_symmetry_cell_setting           triclinic
_symmetry_space_group_name_H-M   'P -1'
_symmetry_Int_Tables_number      2
_space_group_name_Hall           '-P 1'
loop_
_symmetry_equiv_pos_site_id
_symmetry_equiv_pos_as_xyz
1 x,y,z
2 -x,-y,-z
_cell_length_a                   8.4477(3)
_cell_length_b                   10.1370(3)
_cell_length_c                   29.0003(8)
_cell_angle_alpha                97.1637(10)
_cell_angle_beta                 91.7536(12)
_cell_angle_gamma                94.3756(11)
_cell_volume                     2454.83
_exptl_crystal_colour            colorless
_exptl_crystal_description       plate
_cell_formula_units_Z            4
loop_
_atom_site_label
_atom_site_type_symbol
_atom_site_fract_x
_atom_site_fract_y
_atom_site_fract_z
O1 O 0.1520(2) 0.01835(17) 0.20507(5)
N1 N 0.3323(2) 0.09249(16) 0.39361(6)
C1 C 0.4031(3) 0.2083(2) 0.41506(7)
H1 H 0.4356 0.2764 0.3974
C2 C 0.4283(3) 0.2281(2) 0.46251(8)
H2 H 0.4764 0.3097 0.4773
C3 C 0.3822(3) 0.1270(2) 0.48824(7)
H3 H 0.3973 0.1394 0.5208
C4 C 0.3140(3) 0.0081(2) 0.46576(7)
H4 H 0.2848 -0.0624 0.4828
C5 C 0.2887(3) -0.0076(2) 0.41834(7)
H5 H 0.2406 -0.0886 0.4030
C6 C 0.2937(3) 0.0768(2) 0.34393(7)
C7 C 0.3024(3) -0.0450(2) 0.31759(8)
H6 H 0.3409 -0.1166 0.3310
C8 C 0.2538(4) -0.0607(2) 0.27109(8)
H7 H 0.2579 -0.1438 0.2529
C9 C 0.1987(3) 0.0459(2) 0.25107(7)
C10 C 0.1946(3) 0.1681(2) 0.27757(7)
H8 H 0.1609 0.2411 0.2639
C11 C 0.2402(3) 0.1832(2) 0.32437(7)
H9 H 0.2347 0.2658 0.3427
C12 C 0.1007(3) 0.1269(2) 0.18301(8)
H10 H 0.1869 0.1979 0.1846
H11 H 0.0101 0.1634 0.1990
C13 C 0.0534(3) 0.0776(2) 0.13293(8)
H12 H -0.0360 0.0095 0.1316
H13 H 0.1426 0.0363 0.1177
C14 C 0.0059(3) 0.1912(2) 0.10712(8)
H14 H -0.0820 0.2327 0.1229
H15 H 0.0959 0.2589 0.1087
C15 C -0.0442(3) 0.1485(2) 0.05647(8)
H16 H -0.1359 0.0825 0.0548
H17 H 0.0427 0.1052 0.0407
C16 C -0.0878(3) 0.2631(2) 0.03072(8)
H18 H -0.1767 0.3048 0.0460
H19 H 0.0029 0.3303 0.0333
C17 C -0.1337(3) 0.2226(2) -0.02031(8)
H20 H -0.0453 0.1800 -0.0355
H21 H -0.2252 0.1562 -0.0228
C18 C -0.1754(3) 0.3373(2) -0.04610(8)
H22 H -0.0855 0.4053 -0.0426
H23 H -0.2665 0.3777 -0.0316
C19 C -0.2154(3) 0.2976(2) -0.09763(8)
H24 H -0.1246 0.2569 -0.1121
H25 H -0.3057 0.2300 -0.1012
C20 C -0.2562(4) 0.4128(2) -0.12331(8)
H26 H -0.1693 0.4833 -0.1178
H27 H -0.3519 0.4493 -0.1103
C21 C -0.2848(4) 0.3752(3) -0.17543(8)
H28 H -0.1891 0.3387 -0.1884
H29 H -0.3717 0.3046 -0.1809
C22 C -0.3256(5) 0.4894(3) -0.20115(10)
H30 H -0.4229 0.5243 -0.1888
H31 H -0.2401 0.5610 -0.1950
C23 C -0.3496(5) 0.4525(4) -0.25303(10)
H32 H -0.2513 0.4242 -0.2660
H33 H -0.3805 0.5293 -0.2670
H34 H -0.4324 0.3802 -0.2595
O2 O 0.1696(3) 0.45973(18) 0.79963(5)
N2 N 0.1432(2) 0.40523(17) 0.60588(6)
C24 C 0.0828(3) 0.2894(2) 0.58138(7)
H35 H 0.0456 0.2182 0.5971
C25 C 0.0753(3) 0.2751(2) 0.53369(7)
H36 H 0.0344 0.1939 0.5168
C26 C 0.1276(3) 0.3797(2) 0.51073(8)
H37 H 0.1226 0.3709 0.4781
C27 C 0.1875(3) 0.4976(2) 0.53612(8)
H38 H 0.2230 0.5703 0.5209
C28 C 0.1951(3) 0.5088(2) 0.58375(8)
H39 H 0.2368 0.5891 0.6011
C29 C 0.1508(3) 0.4176(2) 0.65637(7)
C30 C 0.1112(3) 0.5335(2) 0.68203(8)
H40 H 0.0787 0.6046 0.6671
C31 C 0.1198(4) 0.5436(3) 0.72998(8)
H41 H 0.0955 0.6230 0.7478
C32 C 0.1639(3) 0.4379(2) 0.75213(8)
C33 C 0.2017(4) 0.3220(2) 0.72586(8)
H42 H 0.2309 0.2495 0.7407
C34 C 0.1968(3) 0.3124(2) 0.67776(8)
H43 H 0.2248 0.2344 0.6599
C35 C 0.2152(4) 0.3531(3) 0.82370(8)
H44 H 0.3148 0.3215 0.8118
H45 H 0.1331 0.2785 0.8187
C36 C 0.2367(3) 0.4028(3) 0.87488(8)
H46 H 0.1374 0.4358 0.8864
H47 H 0.3194 0.4770 0.8796
C37 C 0.2835(3) 0.2918(2) 0.90204(8)
H48 H 0.3765 0.2532 0.8881
H49 H 0.1963 0.2214 0.8991
C38 C 0.3223(3) 0.3368(2) 0.95342(8)
H50 H 0.4103 0.4064 0.9565
H51 H 0.2298 0.3760 0.9674
C39 C 0.3672(3) 0.2245(2) 0.98002(8)
H52 H 0.4566 0.1829 0.9650
H53 H 0.2773 0.1567 0.9779
C40 C 0.4130(3) 0.2680(2) 1.03096(8)
H54 H 0.5037 0.3351 1.0331
H55 H 0.3241 0.3104 1.0459
C41 C 0.4562(3) 0.1550(2) 1.05740(8)
H56 H 0.3648 0.0887 1.0557
H57 H 0.5439 0.1116 1.0421
C42 C 0.5046(3) 0.1991(3) 1.10806(8)
H58 H 0.4170 0.2430 1.1233
H59 H 0.5961 0.2653 1.1097
C43 C 0.5474(3) 0.0863(3) 1.13481(8)
H60 H 0.6342 0.0418 1.1194
H61 H 0.4555 0.0207 1.1335
C44 C 0.5978(3) 0.1309(3) 1.18554(8)
H62 H 0.6886 0.1976 1.1868
H63 H 0.5103 0.1741 1.2010
C45 C 0.6431(4) 0.0195(3) 1.21216(9)
H64 H 0.7311 -0.0234 1.1969
H65 H 0.5526 -0.0475 1.2109
C46 C 0.6918(5) 0.0657(4) 1.26249(10)
H66 H 0.7903 0.1222 1.2642
H67 H 0.7070 -0.0112 1.2785
H68 H 0.6094 0.1157 1.2772
P1 P 0.84667(7) 0.09690(5) 0.40588(2)
F1 F 0.9209(2) 0.00474(15) 0.36510(5)
F2 F 0.69830(19) -0.00847(16) 0.40531(6)
F3 F 0.7560(2) 0.17373(16) 0.37021(5)
F4 F 0.77554(18) 0.18888(14) 0.44790(5)
F5 F 0.99608(19) 0.20243(15) 0.40777(6)
F6 F 0.9354(2) 0.02179(16) 0.44318(5)
P2 P 0.35662(7) 0.59621(5) 0.40399(2)
F7 F 0.4335(2) 0.49791(15) 0.36539(5)
F8 F 0.20930(19) 0.48976(16) 0.40536(6)
F9 F 0.2637(2) 0.66384(16) 0.36605(5)
F10 F 0.28219(19) 0.69334(15) 0.44393(5)
F11 F 0.5036(2) 0.70200(17) 0.40378(6)
F12 F 0.4449(2) 0.52903(17) 0.44339(5)
loop_
_geom_bond_atom_site_label_1
_geom_bond_atom_site_label_2
_geom_bond_site_symmetry_1
_geom_bond_site_symmetry_2
O1 C9 1_555 1_555
N1 C1 1_555 1_555
C1 H1 1_555 1_555
C2 C1 1_555 1_555
H2 C2 1_555 1_555
C3 C2 1_555 1_555
H3 C3 1_555 1_555
C4 C3 1_555 1_555
H4 C4 1_555 1_555
C5 N1 1_555 1_555
H5 C5 1_555 1_555
C6 N1 1_555 1_555
C7 C6 1_555 1_555
H6 C7 1_555 1_555
C8 C7 1_555 1_555
H7 C8 1_555 1_555
C9 C8 1_555 1_555
C10 C9 1_555 1_555
H8 C10 1_555 1_555
C11 C6 1_555 1_555
H9 C11 1_555 1_555
C12 O1 1_555 1_555
H10 C12 1_555 1_555
H11 C12 1_555 1_555
C13 C12 1_555 1_555
H12 C13 1_555 1_555
H13 C13 1_555 1_555
C14 C13 1_555 1_555
H14 C14 1_555 1_555
H15 C14 1_555 1_555
C15 C14 1_555 1_555
H16 C15 1_555 1_555
H17 C15 1_555 1_555
C16 C15 1_555 1_555
H18 C16 1_555 1_555
H19 C16 1_555 1_555
C17 C16 1_555 1_555
H20 C17 1_555 1_555
H21 C17 1_555 1_555
C18 C17 1_555 1_555
H22 C18 1_555 1_555
H23 C18 1_555 1_555
C19 C18 1_555 1_555
H24 C19 1_555 1_555
H25 C19 1_555 1_555
C20 C19 1_555 1_555
H26 C20 1_555 1_555
H27 C20 1_555 1_555
C21 C20 1_555 1_555
H28 C21 1_555 1_555
H29 C21 1_555 1_555
C22 C21 1_555 1_555
H30 C22 1_555 1_555
H31 C22 1_555 1_555
C23 C22 1_555 1_555
H32 C23 1_555 1_555
H33 C23 1_555 1_555
H34 C23 1_555 1_555
O2 C32 1_555 1_555
N2 C24 1_555 1_555
C24 H35 1_555 1_555
C25 C24 1_555 1_555
H36 C25 1_555 1_555
C26 C25 1_555 1_555
H37 C26 1_555 1_555
C27 C26 1_555 1_555
H38 C27 1_555 1_555
C28 N2 1_555 1_555
H39 C28 1_555 1_555
C29 N2 1_555 1_555
C30 C29 1_555 1_555
H40 C30 1_555 1_555
C31 C30 1_555 1_555
H41 C31 1_555 1_555
C32 C31 1_555 1_555
C33 C32 1_555 1_555
H42 C33 1_555 1_555
C34 C29 1_555 1_555
H43 C34 1_555 1_555
C35 O2 1_555 1_555
H44 C35 1_555 1_555
H45 C35 1_555 1_555
C36 C35 1_555 1_555
H46 C36 1_555 1_555
H47 C36 1_555 1_555
C37 C36 1_555 1_555
H48 C37 1_555 1_555
H49 C37 1_555 1_555
C38 C37 1_555 1_555
H50 C38 1_555 1_555
H51 C38 1_555 1_555
C39 C38 1_555 1_555
H52 C39 1_555 1_555
H53 C39 1_555 1_555
C40 C39 1_555 1_555
H54 C40 1_555 1_555
H55 C40 1_555 1_555
C41 C40 1_555 1_555
H56 C41 1_555 1_555
H57 C41 1_555 1_555
C42 C41 1_555 1_555
H58 C42 1_555 1_555
H59 C42 1_555 1_555
C43 C42 1_555 1_555
H60 C43 1_555 1_555
H61 C43 1_555 1_555
C44 C43 1_555 1_555
H62 C44 1_555 1_555
H63 C44 1_555 1_555
C45 C44 1_555 1_555
H64 C45 1_555 1_555
H65 C45 1_555 1_555
C46 C45 1_555 1_555
H66 C46 1_555 1_555
H67 C46 1_555 1_555
H68 C46 1_555 1_555
P1 F1 1_555 1_555
F2 P1 1_555 1_555
F3 P1 1_555 1_555
F4 P1 1_555 1_555
F5 P1 1_555 1_555
F6 P1 1_555 1_555
P2 F7 1_555 1_555
F8 P2 1_555 1_555
F9 P2 1_555 1_555
F10 P2 1_555 1_555
F11 P2 1_555 1_555
F12 P2 1_555 1_555
C4 C5 1_555 1_555
C10 C11 1_555 1_555
C27 C28 1_555 1_555
C33 C34 1_555 1_555

#END
