
#######################################################################
#
#                 Cambridge Crystallographic Data Centre
#                                CCDC 
#
#######################################################################
#
# If this CIF has been generated from an entry in the Cambridge 
# Structural Database, then it will include bibliographic, chemical, 
# crystal, experimental, refinement or atomic coordinate data resulting 
# from the CCDC's data processing and validation procedures.
#
#######################################################################

data_GEWQII
_chemical_formula_moiety         'C16 H18 N1 O2 1+,I1 1-,H2 O1'
_chemical_name_systematic        
"3',4'-Dimethoxy-4-N-methylstilbazonium iodide monohydrate"
_symmetry_cell_setting           triclinic
_symmetry_space_group_name_H-M   'P -1'
_symmetry_Int_Tables_number      2
_space_group_name_Hall           '-P 1'
loop_
_symmetry_equiv_pos_site_id
_symmetry_equiv_pos_as_xyz
1 x,y,z
2 -x,-y,-z
_cell_length_a                   7.970(1)
_cell_length_b                   9.098(1)
_cell_length_c                   12.910(2)
_cell_angle_alpha                90.00(1)
_cell_angle_beta                 81.63(1)
_cell_angle_gamma                65.75(1)
_cell_volume                     842.569
_exptl_crystal_colour            'pale brown-yellow'
_exptl_crystal_description       prismatic
_cell_formula_units_Z            2
_exptl_crystal_recrystallization_method ethanol/water
loop_
_atom_site_label
_atom_site_type_symbol
_atom_site_fract_x
_atom_site_fract_y
_atom_site_fract_z
I1 I 1.5668(3) 0.0299(2) 0.2011(2)
O1 O 1.2097(4) 0.0308(4) 0.0676(2)
O2 O 0.901(3) 0.325(2) 0.372(1)
O3 O 0.792(4) 0.614(2) 0.454(2)
N1 N 0.090(4) 0.587(2) 1.142(1)
C1 C -0.024(2) 0.643(1) 1.249(1)
C2 C 0.181(3) 0.430(2) 1.111(1)
C3 C 0.282(2) 0.381(1) 1.0140(8)
C4 C 0.308(1) 0.492(1) 0.9481(5)
C5 C 0.219(3) 0.653(1) 0.983(1)
C6 C 0.117(2) 0.699(1) 1.081(1)
C7 C 0.4226(9) 0.4208(7) 0.8470(4)
C8 C 0.4703(9) 0.5079(8) 0.7748(4)
C9 C 0.587(1) 0.4422(9) 0.6730(5)
C10 C 0.651(1) 0.2873(8) 0.6284(6)
C11 C 0.760(2) 0.243(1) 0.5282(8)
C12 C 0.803(4) 0.352(2) 0.471(1)
C13 C 0.737(3) 0.512(2) 0.514(1)
C14 C 0.628(2) 0.5526(9) 0.6133(7)
C15 C 0.940(6) 0.178(2) 0.315(1)
C16 C 0.720(3) 0.779(2) 0.493(1)
O4? O 0.892(4) 0.316(2) 0.356(1)
O5? O 0.768(4) 0.595(2) 0.459(2)
N2? N 0.107(4) 0.573(2) 1.130(1)
C17? C -0.008(1) 0.592(1) 1.2369(7)
C18? C 0.193(3) 0.430(1) 1.0760(9)
C19? C 0.295(1) 0.4148(8) 0.9789(7)
C20? C 0.305(1) 0.5479(8) 0.9313(7)
C21? C 0.212(3) 0.695(1) 0.988(1)
C22? C 0.107(2) 0.710(1) 1.0861(9)
C23? C 0.4124(7) 0.5307(6) 0.8288(4)
C24? C 0.5015(6) 0.3939(5) 0.7649(3)
C25? C 0.608(1) 0.3717(8) 0.6588(5)
C26? C 0.682(2) 0.2217(8) 0.6038(8)
C27? C 0.777(2) 0.199(1) 0.5033(8)
C28? C 0.803(4) 0.325(2) 0.455(1)
C29? C 0.737(3) 0.474(2) 0.512(1)
C30? C 0.642(2) 0.496(2) 0.614(8)
C31? C 0.975(3) 0.161(2) 0.299(2)
C32? C 0.712(3) 0.748(2) 0.513(1)
loop_
_geom_bond_atom_site_label_1
_geom_bond_atom_site_label_2
_geom_bond_site_symmetry_1
_geom_bond_site_symmetry_2
O2 C12 1_555 1_555
O3 C13 1_555 1_555
N1 C1 1_555 1_555
C2 N1 1_555 1_555
C3 C2 1_555 1_555
C4 C3 1_555 1_555
C5 C4 1_555 1_555
C6 N1 1_555 1_555
C7 C4 1_555 1_555
C8 C7 1_555 1_555
C9 C8 1_555 1_555
C10 C9 1_555 1_555
C11 C10 1_555 1_555
C12 C11 1_555 1_555
C13 C12 1_555 1_555
C14 C9 1_555 1_555
C15 O2 1_555 1_555
C16 O3 1_555 1_555
C5 C6 1_555 1_555
C13 C14 1_555 1_555

#END
