
#######################################################################
#
#                 Cambridge Crystallographic Data Centre
#                                CCDC 
#
#######################################################################
#
# If this CIF has been generated from an entry in the Cambridge 
# Structural Database, then it will include bibliographic, chemical, 
# crystal, experimental, refinement or atomic coordinate data resulting 
# from the CCDC's data processing and validation procedures.
#
#######################################################################

data_GEWTUA
_chemical_name_common            
'(E)-N-(5-((2-fluorobenzyl)thio)-1,3,4-thiadiazol-2-yl)-3-(2-oxo-3-(p-tolylimino)indolin-1-yl)propanamide unknown solvate'
_chemical_formula_moiety         'C27 H22 F1 N5 O2 S2'
_chemical_name_systematic        
'N-(5-{[(2-fluorophenyl)methyl]sulfanyl}-1,3,4-thiadiazol-2-yl)-3-{3-[(4-methylphenyl)imino]-2-oxo-2,3-dihydro-1H-indol-1-yl}propanamide unknown solvate'
_symmetry_cell_setting           monoclinic
_symmetry_space_group_name_H-M   'P 21/c'
_symmetry_Int_Tables_number      14
_space_group_name_Hall           '-P 2ybc'
loop_
_symmetry_equiv_pos_site_id
_symmetry_equiv_pos_as_xyz
1 x,y,z
2 -x,1/2+y,1/2-z
3 -x,-y,-z
4 x,1/2-y,1/2+z
_cell_length_a                   8.368(6)
_cell_length_b                   30.60(2)
_cell_length_c                   12.160(9)
_cell_angle_alpha                90
_cell_angle_beta                 105.83(2)
_cell_angle_gamma                90
_cell_volume                     2995.61
_exptl_crystal_colour            red
_exptl_crystal_description       prism
_cell_formula_units_Z            4
_chemical_properties_physical    Efflorescent
_exptl_crystal_recrystallization_method 'ethyl acetate'
loop_
_atom_site_label
_atom_site_type_symbol
_atom_site_fract_x
_atom_site_fract_y
_atom_site_fract_z
C1 C 1.3032(6) 0.09188(17) 1.2121(4)
C2 C 1.3631(6) 0.05009(19) 1.2279(5)
H1 H 1.3581 0.0340 1.2917
C3 C 1.4296(7) 0.03284(19) 1.1485(5)
H2 H 1.4730 0.0047 1.1583
C4 C 1.4340(7) 0.0566(2) 1.0527(5)
H3 H 1.4808 0.0445 0.9985
C5 C 1.3693(6) 0.09811(18) 1.0376(4)
H4 H 1.3720 0.1139 0.9728
C6 C 1.3002(5) 0.11679(15) 1.1171(4)
C7 C 1.2322(6) 0.16214(15) 1.1050(4)
H5 H 1.2574 0.1759 1.0398
H6 H 1.2875 0.1788 1.1725
C8 C 0.9395(5) 0.14404(13) 0.9482(3)
C9 C 0.7841(5) 0.11677(12) 0.7726(3)
C10 C 0.5098(5) 0.09150(13) 0.6726(4)
C11 C 0.4092(5) 0.07995(14) 0.5563(3)
H7 H 0.4633 0.0561 0.5279
H8 H 0.4061 0.1049 0.5065
C12 C 0.2328(5) 0.06653(13) 0.5497(4)
H9 H 0.1887 0.0862 0.5969
H10 H 0.1653 0.0697 0.4714
C13 C 0.1691(5) 0.00796(13) 0.6826(3)
C14 C 0.1316(6) 0.03368(15) 0.7636(4)
H11 H 0.1414 0.0639 0.7623
C15 C 0.0785(6) 0.01266(18) 0.8474(5)
H12 H 0.0501 0.0293 0.9033
C16 C 0.0660(6) -0.03205(18) 0.8512(4)
H13 H 0.0296 -0.0452 0.9090
C17 C 0.1070(5) -0.05722(15) 0.7702(4)
H14 H 0.0994 -0.0875 0.7729
C18 C 0.1598(5) -0.03734(13) 0.6841(3)
C19 C 0.2077(5) -0.05336(13) 0.5846(3)
C20 C 0.2411(5) -0.01259(13) 0.5228(4)
C21 C 0.2098(5) -0.13051(13) 0.5932(4)
C22 C 0.1206(7) -0.16356(15) 0.5279(4)
H15 H 0.0658 -0.1589 0.4514
C23 C 0.1134(8) -0.20330(17) 0.5767(5)
H16 H 0.0501 -0.2252 0.5325
C24 C 0.1956(7) -0.21236(15) 0.6884(5)
C25 C 0.1858(9) -0.25733(18) 0.7401(6)
H17 H 0.1147 -0.2759 0.6839
H18 H 0.1416 -0.2545 0.8048
H19 H 0.2950 -0.2699 0.7641
C26 C 0.2910(6) -0.17987(15) 0.7512(4)
H20 H 0.3522 -0.1854 0.8260
C27 C 0.2971(5) -0.13912(13) 0.7047(4)
H21 H 0.3606 -0.1172 0.7488
N1 N 1.0236(4) 0.14357(11) 0.8736(3)
N2 N 0.9314(4) 0.12727(11) 0.7696(3)
N3 N 0.2186(4) 0.02204(10) 0.5865(3)
N4 N 0.2245(4) -0.09012(11) 0.5395(3)
N5 N 0.6714(4) 0.10148(10) 0.6772(3)
H22 H 0.7034 0.0979 0.6163
O1 O 0.4590(4) 0.09343(12) 0.7558(3)
O2 O 0.2807(4) -0.01129(9) 0.4336(3)
S1 S 1.01045(15) 0.16441(4) 1.08605(10)
S2 S 0.73994(14) 0.12466(4) 0.90170(9)
F1 F 1.2403(4) 0.11008(10) 1.2937(2)
loop_
_geom_bond_atom_site_label_1
_geom_bond_atom_site_label_2
_geom_bond_site_symmetry_1
_geom_bond_site_symmetry_2
C1 C2 1_555 1_555
C2 H1 1_555 1_555
C3 C2 1_555 1_555
H2 C3 1_555 1_555
C4 C3 1_555 1_555
H3 C4 1_555 1_555
C5 C4 1_555 1_555
H4 C5 1_555 1_555
C6 C1 1_555 1_555
C7 C6 1_555 1_555
H5 C7 1_555 1_555
H6 C7 1_555 1_555
C8 N1 1_555 1_555
C9 N2 1_555 1_555
C10 C11 1_555 1_555
C11 H7 1_555 1_555
H8 C11 1_555 1_555
C12 C11 1_555 1_555
H9 C12 1_555 1_555
H10 C12 1_555 1_555
C13 C14 1_555 1_555
C14 H11 1_555 1_555
C15 C14 1_555 1_555
H12 C15 1_555 1_555
C16 C15 1_555 1_555
H13 C16 1_555 1_555
C17 C16 1_555 1_555
H14 C17 1_555 1_555
C18 C13 1_555 1_555
C19 C18 1_555 1_555
C20 C19 1_555 1_555
C21 C22 1_555 1_555
C22 H15 1_555 1_555
C23 C22 1_555 1_555
H16 C23 1_555 1_555
C24 C23 1_555 1_555
C25 C24 1_555 1_555
H17 C25 1_555 1_555
H18 C25 1_555 1_555
H19 C25 1_555 1_555
C26 C24 1_555 1_555
H20 C26 1_555 1_555
C27 C21 1_555 1_555
H21 C27 1_555 1_555
N1 N2 1_555 1_555
N3 C12 1_555 1_555
N4 C19 1_555 1_555
N5 C9 1_555 1_555
H22 N5 1_555 1_555
O1 C10 1_555 1_555
O2 C20 1_555 1_555
S1 C7 1_555 1_555
S2 C8 1_555 1_555
F1 C1 1_555 1_555
C5 C6 1_555 1_555
C8 S1 1_555 1_555
C9 S2 1_555 1_555
C10 N5 1_555 1_555
C13 N3 1_555 1_555
C17 C18 1_555 1_555
C20 N3 1_555 1_555
C21 N4 1_555 1_555
C26 C27 1_555 1_555

#END
