
#######################################################################
#
#                 Cambridge Crystallographic Data Centre
#                                CCDC 
#
#######################################################################
#
# If this CIF has been generated from an entry in the Cambridge 
# Structural Database, then it will include bibliographic, chemical, 
# crystal, experimental, refinement or atomic coordinate data resulting 
# from the CCDC's data processing and validation procedures.
#
#######################################################################

data_GEWZUG
_chemical_formula_moiety         'C32 H7 Cl4 F10 N3 O2'
_chemical_name_systematic        
19,20,21,22-tetrachloro-7,12-bis(pentafluorophenyl)-2,17-dioxa-23,24,25-triazapentacyclo[16.2.2.1^3,6^.1^8,11^.1^13,16^]pentacosa-1(20),3(25),4,6,8,10,12,14,16(23),18,21-undecaene
_symmetry_cell_setting           monoclinic
_symmetry_space_group_name_H-M   'P 21/m'
_symmetry_Int_Tables_number      11
_space_group_name_Hall           '-P 2yb'
loop_
_symmetry_equiv_pos_site_id
_symmetry_equiv_pos_as_xyz
1 x,y,z
2 -x,1/2+y,-z
3 -x,-y,-z
4 x,1/2-y,z
_cell_length_a                   6.4792(4)
_cell_length_b                   25.1943(14)
_cell_length_c                   10.1094(6)
_cell_angle_alpha                90
_cell_angle_beta                 106.673(6)
_cell_angle_gamma                90
_cell_volume                     1580.87
_exptl_crystal_colour            orange
_exptl_crystal_description       block
_cell_formula_units_Z            2
loop_
_atom_site_label
_atom_site_type_symbol
_atom_site_fract_x
_atom_site_fract_y
_atom_site_fract_z
Cl1 Cl 0.64203(10) 0.68719(3) 0.69653(6)
Cl2 Cl 1.19423(11) 0.68746(3) 0.39281(7)
F1 F -0.2646(2) 0.53424(6) -0.05686(18)
F2 F 0.2093(3) 0.55382(6) -0.32901(15)
F3 F 0.4530(2) 0.62051(6) -0.14013(15)
F4 F -0.0210(2) 0.60079(6) 0.13147(15)
F5 F -0.1534(3) 0.51137(6) -0.28949(16)
N1 N 0.4097(4) 0.7500 0.1365(2)
H1 H 0.5170 0.7500 0.2132
O1 O 0.8963(3) 0.64134(6) 0.52950(16)
N2 N 0.6396(3) 0.66208(7) 0.32127(17)
C1 C 0.2250(3) 0.61242(8) 0.0020(2)
C2 C 0.3600(3) 0.65079(8) 0.1040(2)
C3 C 0.5067(3) 0.63044(8) 0.2166(2)
C4 C 0.7977(3) 0.72261(9) 0.6159(2)
C5 C 0.3134(3) 0.70549(8) 0.0678(2)
C6 C 0.9179(3) 0.69580(9) 0.5443(2)
C7 C 1.0495(3) 0.72267(9) 0.4811(2)
C8 C 0.7468(4) 0.62771(9) 0.4092(2)
C9 C 0.1521(4) 0.72264(9) -0.0469(3)
H2 H 0.0581 0.7005 -0.1137
C10 C 0.2764(4) 0.59928(8) -0.1173(2)
C11 C 0.5481(4) 0.57458(9) 0.2507(2)
H3 H 0.4807 0.5451 0.1969
C12 C 0.1521(5) 0.56563(9) -0.2155(2)
C13 C 0.0397(4) 0.58993(9) 0.0187(2)
C14 C -0.0303(4) 0.54430(9) -0.1953(3)
C15 C 0.7000(4) 0.57282(9) 0.3731(2)
H4 H 0.7624 0.5423 0.4243
C16 C -0.0867(4) 0.55613(9) -0.0779(3)
Cl1C Cl 0.64203(10) 0.81281(3) 0.69653(6)
Cl2C Cl 1.19423(11) 0.81254(3) 0.39281(7)
F1C F -0.2646(2) 0.96576(6) -0.05686(18)
F2C F 0.2093(3) 0.94618(6) -0.32901(15)
F3C F 0.4530(2) 0.87949(6) -0.14013(15)
F4C F -0.0210(2) 0.89921(6) 0.13147(15)
F5C F -0.1534(3) 0.98863(6) -0.28949(16)
O1C O 0.8963(3) 0.85866(6) 0.52950(16)
N2C N 0.6396(3) 0.83792(7) 0.32127(17)
C1C C 0.2250(3) 0.88758(8) 0.0020(2)
C2C C 0.3600(3) 0.84921(8) 0.1040(2)
C3C C 0.5067(3) 0.86956(8) 0.2166(2)
C4C C 0.7977(3) 0.77739(9) 0.6159(2)
C5C C 0.3134(3) 0.79451(8) 0.0678(2)
C6C C 0.9179(3) 0.80420(9) 0.5443(2)
C7C C 1.0495(3) 0.77733(9) 0.4811(2)
C8C C 0.7468(4) 0.87229(9) 0.4092(2)
C9C C 0.1521(4) 0.77736(9) -0.0469(3)
H2C H 0.0581 0.7995 -0.1137
C10C C 0.2764(4) 0.90072(8) -0.1173(2)
C11C C 0.5481(4) 0.92542(9) 0.2507(2)
H3C H 0.4807 0.9549 0.1969
C12C C 0.1521(5) 0.93437(9) -0.2155(2)
C13C C 0.0397(4) 0.91007(9) 0.0187(2)
C14C C -0.0303(4) 0.95570(9) -0.1953(3)
C15C C 0.7000(4) 0.92718(9) 0.3731(2)
H4C H 0.7624 0.9577 0.4243
C16C C -0.0867(4) 0.94387(9) -0.0779(3)
loop_
_geom_bond_atom_site_label_1
_geom_bond_atom_site_label_2
_geom_bond_site_symmetry_1
_geom_bond_site_symmetry_2
Cl1 C4 1_555 1_555
Cl2 C7 1_555 1_555
F1 C16 1_555 1_555
F2 C12 1_555 1_555
F3 C10 1_555 1_555
F4 C13 1_555 1_555
F5 C14 1_555 1_555
N1 H1 1_555 1_555
O1 C6 1_555 1_555
N2 C3 1_555 1_555
C1 C2 1_555 1_555
C2 C3 1_555 1_555
C3 C11 1_555 1_555
C4 C6 1_555 1_555
C5 N1 1_555 1_555
C6 C7 1_555 1_555
C7 C7C 1_555 1_555
C8 O1 1_555 1_555
C9 C5 1_555 1_555
H2 C9 1_555 1_555
C10 C1 1_555 1_555
C11 H3 1_555 1_555
C12 C10 1_555 1_555
C13 C1 1_555 1_555
C14 C12 1_555 1_555
C15 C8 1_555 1_555
H4 C15 1_555 1_555
C16 C13 1_555 1_555
Cl1C C4C 1_555 1_555
Cl2C C7C 1_555 1_555
F1C C16C 1_555 1_555
F2C C12C 1_555 1_555
F3C C10C 1_555 1_555
F4C C13C 1_555 1_555
F5C C14C 1_555 1_555
O1C C6C 1_555 1_555
N2C C3C 1_555 1_555
C1C C2C 1_555 1_555
C2C C3C 1_555 1_555
C3C C11C 1_555 1_555
C4C C4 1_555 1_555
C5C N1 1_555 1_555
C6C C4C 1_555 1_555
C7C C6C 1_555 1_555
C8C O1C 1_555 1_555
C9C C9 1_555 1_555
H2C C9C 1_555 1_555
C10C C1C 1_555 1_555
C11C H3C 1_555 1_555
C12C C10C 1_555 1_555
C13C C1C 1_555 1_555
C14C C12C 1_555 1_555
C15C C8C 1_555 1_555
H4C C15C 1_555 1_555
C16C C13C 1_555 1_555
N2 C8 1_555 1_555
C2 C5 1_555 1_555
C11 C15 1_555 1_555
C14 C16 1_555 1_555
N2C C8C 1_555 1_555
C2C C5C 1_555 1_555
C5C C9C 1_555 1_555
C11C C15C 1_555 1_555
C14C C16C 1_555 1_555

#END
