
#######################################################################
#
#                 Cambridge Crystallographic Data Centre
#                                CCDC 
#
#######################################################################
#
# If this CIF has been generated from an entry in the Cambridge 
# Structural Database, then it will include bibliographic, chemical, 
# crystal, experimental, refinement or atomic coordinate data resulting 
# from the CCDC's data processing and validation procedures.
#
#######################################################################

data_GEXBIX
_chemical_formula_moiety         'C96 H108 N12'
_chemical_name_systematic        
"(R)-1,1':2,1'':2',2''-bis((5,10,15-tri-n-butyl-10,15-dihydro-5H-diindolo[3,2-a:3',2'-c]carbazole-3,8,13-triyl)trimethanimine)tris(cyclohexane) unknown solvate"
_symmetry_cell_setting           hexagonal
_symmetry_space_group_name_H-M   'P 61 2 2'
_symmetry_Int_Tables_number      178
_space_group_name_Hall           "P 61 2' (0,0,5)"
loop_
_symmetry_equiv_pos_site_id
_symmetry_equiv_pos_as_xyz
1 x,y,z
2 x-y,x,1/6+z
3 -y,x-y,1/3+z
4 -x,-y,1/2+z
5 -x+y,-x,2/3+z
6 y,-x+y,5/6+z
7 x-y,-y,-z
8 -x,-x+y,2/3-z
9 y,x,1/3-z
10 -y,-x,5/6-z
11 -x+y,y,1/2-z
12 x,x-y,1/6-z
_cell_length_a                   23.3698(13)
_cell_length_b                   23.3698(13)
_cell_length_c                   89.848(3)
_cell_angle_alpha                90
_cell_angle_beta                 90
_cell_angle_gamma                120
_cell_volume                     42496.1
_exptl_crystal_colour            'light colorless'
_exptl_crystal_description       plate
_cell_formula_units_Z            18
loop_
_atom_site_label
_atom_site_type_symbol
_atom_site_fract_x
_atom_site_fract_y
_atom_site_fract_z
N1 N -0.2272(3) -0.6224(3) -0.06309(5)
N2 N -0.1877(3) -0.6610(3) -0.11385(4)
N3 N -0.1110(3) -0.7400(4) -0.07337(4)
C1 C 0.1020(4) -0.6310(4) -0.13021(6)
H1 H 0.1175 -0.6455 -0.1224
N4 N -0.1262(3) -0.6492(5) 0.00114(5)
N5 N 0.1024(4) -0.6518(4) -0.14324(6)
C2 C -0.1036(4) -0.7282(4) -0.09849(5)
C3 C -0.1226(4) -0.6694(5) -0.01191(6)
H2 H -0.0970 -0.6892 -0.0133
C4 C -0.0085(4) -0.4815(4) -0.09876(8)
C5 C -0.1750(4) -0.6673(4) -0.09865(6)
C6 C -0.1396(4) -0.7029(4) -0.07700(6)
C7 C 0.0781(4) -0.5852(4) -0.12699(7)
C8 C 0.0228(3) -0.5167(4) -0.09437(6)
C9 C -0.0581(4) -0.7927(4) -0.08774(6)
H3 H -0.0534 -0.8145 -0.0796
C10 C -0.1672(4) -0.6733(4) -0.06775(6)
C11 C -0.0381(4) -0.4587(5) -0.08846(7)
C12 C -0.2993(5) -0.4987(6) -0.11093(9)
H4 H -0.3082 -0.4884 -0.1015
N6 N -0.0041(3) -0.4739(3) -0.11406(5)
C13 C 0.0419(4) -0.5366(4) -0.10810(6)
C14 C -0.0349(4) -0.7974(4) -0.10157(6)
H5 H -0.0125 -0.8208 -0.1027
C15 C -0.2011(4) -0.6364(4) -0.08979(5)
C16 C -0.1403(4) -0.6971(4) -0.09280(5)
C17 C 0.0541(4) -0.5512(4) -0.05679(6)
C18 C 0.0642(4) -0.5521(4) -0.13805(7)
H6 H 0.0727 -0.5572 -0.1479
C19 C -0.0449(5) -0.7671(4) -0.11388(6)
C20 C -0.2738(5) -0.5462(5) -0.11203(8)
N7 N 0.0626(3) -0.5511(3) -0.07211(5)
C21 C -0.0157(5) -0.7670(4) -0.12855(6)
H7 H -0.0309 -0.7549 -0.1369
C22 C 0.0819(5) -0.5708(4) -0.04585(7)
H8 H 0.1110 -0.5858 -0.0482
C23 C 0.0287(4) -0.5240(4) -0.07927(7)
C24 C 0.0214(4) -0.5422(5) -0.02803(8)
C25 C -0.2006(4) -0.6441(4) -0.07450(6)
C26 C -0.1429(4) -0.6771(4) -0.03882(6)
H9 H -0.1145 -0.6941 -0.0398
C27 C -0.2105(4) -0.6378(4) -0.04945(6)
C28 C -0.1709(4) -0.6667(4) -0.05149(5)
N8 N 0.0284(5) -0.7822(4) -0.13042(5)
C29 C -0.2708(5) -0.5701(5) -0.12600(7)
H10 H -0.2870 -0.5592 -0.1343
C30 C -0.0798(4) -0.7341(4) -0.11240(6)
H11 H -0.0876 -0.7154 -0.1208
C31 C -0.0481(4) -0.7449(5) -0.05149(5)
H12 H -0.0154 -0.7444 -0.0582
H13 H -0.0338 -0.6996 -0.0488
N9 N -0.0575(4) -0.4368(4) -0.06453(6)
C32 C 0.0663(4) -0.5781(4) -0.11207(7)
H14 H 0.0747 -0.6011 -0.1048
C33 C 0.0144(4) -0.5236(5) -0.05380(7)
C34 C -0.0022(5) -0.5224(5) -0.03912(7)
H15 H -0.0311 -0.5072 -0.0369
C35 C -0.2207(4) -0.6243(4) -0.11467(6)
C36 C -0.0869(6) -0.4173(6) -0.14266(11)
H16 H -0.0722 -0.3761 -0.1374
H17 H -0.0587 -0.4078 -0.1513
C37 C -0.2589(5) -0.5348(5) -0.06176(8)
H18 H -0.2404 -0.5227 -0.0518
H19 H -0.2246 -0.5076 -0.0688
C38 C -0.2542(4) -0.5644(5) -0.09934(8)
H20 H -0.2581 -0.5483 -0.0901
C39 C -0.1074(5) -0.4074(5) -0.10013(9)
H21 H -0.1029 -0.4167 -0.1100
C40 C -0.0883(4) -0.7556(4) -0.08618(5)
C41 C -0.2437(5) -0.6099(5) -0.12721(7)
H22 H -0.2410 -0.6268 -0.1364
C42 C -0.2811(4) -0.6060(5) -0.06453(7)
H23 H -0.3160 -0.6328 -0.0575
H24 H -0.2995 -0.6176 -0.0745
C43 C -0.0146(4) -0.4293(4) -0.12333(8)
H25 H 0.0232 -0.4061 -0.1299
H26 H -0.0164 -0.3967 -0.1170
C44 C -0.1574(4) -0.6622(4) -0.02459(5)
C45 C -0.2275(5) -0.6261(5) -0.03559(6)
H27 H -0.2562 -0.6095 -0.0347
C46 C 0.0388(4) -0.5129(4) -0.13485(7)
H28 H 0.0304 -0.4903 -0.1423
C47 C -0.1134(4) -0.7735(4) -0.05949(5)
H29 H -0.1290 -0.8197 -0.0616
H30 H -0.1453 -0.7716 -0.0529
C48 C -0.0789(5) -0.4239(5) -0.08942(8)
C49 C -0.0775(4) -0.4628(5) -0.13285(8)
H31 H -0.0764 -0.4964 -0.1389
H32 H -0.1154 -0.4847 -0.1263
C50 C -0.1832(4) -0.6966(4) -0.12655(6)
H33 H -0.2246 -0.7163 -0.1320
H34 H -0.1763 -0.7321 -0.1231
C51 C 0.1146(4) -0.5637(4) -0.07778(7)
H35 H 0.1523 -0.5426 -0.0712
H36 H 0.1287 -0.5428 -0.0874
C52 C -0.1245(5) -0.6893(5) -0.15073(7)
H37 H -0.0813 -0.6644 -0.1553
H38 H -0.1312 -0.7322 -0.1479
C53 C -0.1451(5) -0.3757(5) -0.09679(10)
C54 C 0.0259(4) -0.5077(4) -0.12001(6)
C55 C -0.2286(4) -0.6065(4) -0.10016(6)
C56 C -0.0310(5) -0.4687(5) -0.07316(8)
C57 C -0.1278(5) -0.6523(4) -0.13680(6)
H39 H -0.0862 -0.6341 -0.1315
H40 H -0.1337 -0.6158 -0.1399
C58 C 0.0647(5) -0.5675(5) -0.03103(8)
H41 H 0.0812 -0.5814 -0.0233
C59 C -0.1477(5) -0.3603(5) -0.08187(10)
H42 H -0.1691 -0.3371 -0.0794
C60 C 0.0014(4) -0.5023(5) -0.06802(7)
C61 C 0.1509(7) -0.6449(7) -0.08446(11)
H43 H 0.1329 -0.6874 -0.0894
H44 H 0.1761 -0.6110 -0.0918
C62 C -0.1204(5) -0.3778(5) -0.07108(9)
H45 H -0.1231 -0.3667 -0.0613
C63 C 0.0949(5) -0.6365(5) -0.07936(7)
H46 H 0.0792 -0.6584 -0.0698
H47 H 0.0588 -0.6576 -0.0864
N10 N -0.3095(4) -0.4717(5) -0.12219(8)
N11 N -0.2268(5) -0.3521(5) -0.10624(10)
C64 C -0.3870(12) -0.3671(14) -0.1306(2)
H48 H -0.4145 -0.3690 -0.1389
H49 H -0.4115 -0.3726 -0.1215
C65 C -0.1158(5) -0.6633(7) 0.02746(7)
H50 H -0.1291 -0.6306 0.0292
H51 H -0.1551 -0.7066 0.0275
C66 C -0.2634(6) -0.3522(7) -0.11917(11)
H52 H -0.2379 -0.3456 -0.1283
C67 C 0.1792(10) -0.7412(9) -0.16161(10)
H53 H 0.2068 -0.7398 -0.1534
H54 H 0.2045 -0.7325 -0.1707
C68 C -0.0815(5) -0.6509(7) 0.01230(7)
H55 H -0.0696 -0.6846 0.0100
N12 N 0.0153(4) -0.5712(5) -0.00213(6)
C69 C -0.3241(7) -0.4161(7) -0.11928(12)
H56 H -0.3469 -0.4233 -0.1097
C70 C -0.0940(7) -0.4415(7) -0.03831(9)
H57 H -0.1112 -0.4889 -0.0386
H58 H -0.1298 -0.4339 -0.0410
C71 C 0.0260(6) -0.5735(8) 0.02481(7)
H59 H 0.0626 -0.5285 0.0250
H60 H 0.0438 -0.6026 0.0230
C72 C -0.1770(6) -0.6976(6) -0.16166(7)
H61 H -0.2196 -0.7217 -0.1570
H62 H -0.1756 -0.7216 -0.1702
H63 H -0.1693 -0.6550 -0.1647
C73 C 0.1606(7) -0.6886(7) -0.15943(8)
H64 H 0.1339 -0.6890 -0.1677
H65 H 0.2002 -0.6455 -0.1590
C74 C -0.0104(7) -0.5909(10) 0.04027(8)
H66 H 0.0195 -0.5886 0.0480
H67 H -0.0243 -0.5592 0.0426
C75 C -0.1795(6) -0.3643(6) -0.10848(9)
H68 H -0.1672 -0.3658 -0.1182
C76 C -0.0203(6) -0.5809(6) 0.01242(7)
H69 H -0.0342 -0.5478 0.0135
C77 C -0.1541(9) -0.4417(9) -0.14769(16)
H70 H -0.1822 -0.4493 -0.1392
H71 H -0.1692 -0.4823 -0.1530
H72 H -0.1555 -0.4096 -0.1541
C78 C -0.0737(7) -0.4183(8) -0.02302(9)
H73 H -0.0353 -0.4226 -0.0209
H74 H -0.0588 -0.3714 -0.0229
C79 C 0.1216(7) -0.7015(6) -0.14485(7)
H75 H 0.1494 -0.6989 -0.1364
C80 C -0.3714(8) -0.4246(9) -0.13204(14)
H76 H -0.4117 -0.4670 -0.1313
H77 H -0.3509 -0.4224 -0.1416
C81 C -0.0697(6) -0.6594(9) 0.03972(7)
H78 H -0.0927 -0.6698 0.0492
H79 H -0.0556 -0.6914 0.0379
C82 C -0.2792(9) -0.2956(8) -0.11693(14)
H80 H -0.2389 -0.2530 -0.1170
H81 H -0.3018 -0.3008 -0.1075
C83 C 0.0164(8) -0.7489(11) -0.03021(12)
H82 H 0.0487 -0.7490 -0.0368
H83 H 0.0142 -0.7724 -0.0213
H84 H 0.0288 -0.7042 -0.0278
C84 C -0.0421(6) -0.4105(7) -0.04939(8)
H85 H -0.0044 -0.4135 -0.0459
H86 H -0.0286 -0.3640 -0.0498
C85 C -0.0506(5) -0.7824(6) -0.03777(7)
H87 H -0.0629 -0.8273 -0.0404
H88 H -0.0837 -0.7840 -0.0310
C86 C -0.0873(4) -0.4132(5) -0.07432(8)
C87 C 0.0601(7) -0.7682(6) -0.14509(7)
H89 H 0.0296 -0.7685 -0.1526
C88 C -0.3148(6) -0.5222(7) -0.06323(10)
H90 H -0.2970 -0.4762 -0.0660
H91 H -0.3424 -0.5488 -0.0714
C89 C 0.0743(9) -0.8245(7) -0.14828(9)
H92 H 0.0329 -0.8654 -0.1497
H93 H 0.0966 -0.8302 -0.1398
C90 C 0.0013(5) -0.5444(5) -0.01276(7)
H94 H -0.0238 -0.5247 -0.0105
C91 C 0.1182(11) -0.8097(10) -0.16246(11)
H95 H 0.1317 -0.8426 -0.1634
H96 H 0.0927 -0.8125 -0.1712
C92 C -0.3571(8) -0.5358(8) -0.04997(13)
H97 H -0.3760 -0.5814 -0.0472
H98 H -0.3917 -0.5265 -0.0522
H99 H -0.3309 -0.5084 -0.0419
C93 C -0.1180(9) -0.4471(11) -0.01099(12)
H100 H -0.1565 -0.4433 -0.0127
H101 H -0.0969 -0.4246 -0.0019
H102 H -0.1307 -0.4929 -0.0102
C94 C -0.2017(4) -0.6390(5) -0.02296(7)
H103 H -0.2138 -0.6322 -0.0135
C95 C -0.3253(14) -0.3012(13) -0.13044(17)
H104 H -0.3367 -0.2667 -0.1296
H105 H -0.3016 -0.2948 -0.1397
C96 C 0.1956(15) -0.6416(14) -0.0728(3)
H106 H 0.1721 -0.6771 -0.0659
H107 H 0.2132 -0.6001 -0.0677
H108 H 0.2311 -0.6452 -0.0772
N13 N 0.1840(3) -0.3625(4) -0.11006(6)
C102 C 0.1909(4) -0.3632(4) -0.08183(7)
C103 C 0.1680(4) -0.3454(5) -0.06905(7)
N14 N 0.0791(4) -0.2674(4) -0.08185(7)
C104 C 0.1342(4) -0.3107(5) -0.06959(8)
C105 C 0.1740(4) -0.3486(4) -0.09581(7)
C106 C 0.2420(5) -0.4336(5) -0.05263(8)
H134 H 0.2312 -0.4410 -0.0426
C107 C 0.0710(5) -0.2601(5) -0.06683(8)
C108 C 0.1085(5) -0.2161(5) -0.14524(9)
H135 H 0.0920 -0.1927 -0.1402
N15 N 0.3753(4) -0.4806(4) -0.07501(6)
N16 N 0.1836(4) -0.3719(4) -0.05639(6)
C109 C 0.2188(4) -0.4007(4) -0.06120(7)
C110 C 0.1083(5) -0.2818(5) -0.05845(8)
C111 C 0.2674(4) -0.4180(4) -0.08266(7)
H136 H 0.2772 -0.4118 -0.0928
C112 C 0.1228(5) -0.2614(5) -0.13677(8)
C113 C 0.2267(4) -0.3958(5) -0.07681(7)
C114 C 0.1457(4) -0.3005(5) -0.14396(8)
H137 H 0.1473 -0.3016 -0.1543
C115 C 0.1405(4) -0.3101(5) -0.09700(8)
C116 C 0.1636(4) -0.3334(4) -0.12021(8)
C117 C 0.1103(5) -0.2741(5) -0.04310(8)
H138 H 0.1344 -0.2874 -0.0373
C118 C 0.1651(4) -0.3356(5) -0.13575(7)
H139 H 0.1796 -0.3615 -0.1404
N17 N 0.1176(4) -0.2077(4) -0.15907(7)
C119 C 0.0377(5) -0.2590(5) -0.09272(9)
H140 H -0.0070 -0.2787 -0.0889
H141 H 0.0363 -0.2823 -0.1018
C120 C 0.1186(5) -0.2960(5) -0.08355(8)
C121 C 0.1208(5) -0.2609(5) -0.12123(8)
H142 H 0.1075 -0.2341 -0.1165
C122 C 0.3376(5) -0.4654(5) -0.08161(8)
H143 H 0.3383 -0.4655 -0.0920
C123 C 0.2022(4) -0.4107(5) -0.11531(8)
H144 H 0.1733 -0.4362 -0.1234
H145 H 0.1963 -0.4410 -0.1073
C124 C 0.2823(4) -0.4559(4) -0.05914(7)
H146 H 0.3010 -0.4755 -0.0534
C125 C 0.2933(4) -0.4477(4) -0.07455(8)
C126 C 0.0620(6) -0.1883(6) -0.09632(9)
H147 H 0.1058 -0.1690 -0.1006
H148 H 0.0653 -0.1645 -0.0872
C127 C 0.4321(7) -0.5446(6) -0.07646(10)
H149 H 0.4404 -0.5372 -0.0659
H150 H 0.3908 -0.5856 -0.0778
C128 C 0.0381(5) -0.2287(5) -0.04544(9)
H151 H 0.0137 -0.2122 -0.0408
C129 C 0.2917(6) -0.4235(6) -0.12866(10)
H152 H 0.3393 -0.4026 -0.1298
H153 H 0.2768 -0.4634 -0.1228
C130 C 0.0358(5) -0.2350(5) -0.06034(9)
H154 H 0.0107 -0.2225 -0.0661
C131 C 0.2741(5) -0.3764(5) -0.12060(9)
H155 H 0.3030 -0.3573 -0.1121
H156 H 0.2818 -0.3406 -0.1273
C132 C 0.4865(7) -0.5512(7) -0.08342(11)
H157 H 0.4747 -0.5660 -0.0936
H158 H 0.4917 -0.5843 -0.0781
C133 C 0.4256(5) -0.4872(5) -0.08317(8)
H159 H 0.4102 -0.4990 -0.0935
C134 C 0.0769(5) -0.2468(6) -0.03662(9)
C135 C 0.1378(4) -0.2988(4) -0.11281(7)
C136 C 0.0161(7) -0.1805(6) -0.10721(11)
H160 H -0.0283 -0.2021 -0.1032
H161 H 0.0151 -0.2018 -0.1165
C137 C 0.2624(10) -0.4392(10) -0.14231(12)
H162 H 0.2154 -0.4590 -0.1412
H163 H 0.2723 -0.4699 -0.1472
H164 H 0.2788 -0.3999 -0.1482
N18 N 0.0675(4) -0.1936(5) -0.01452(8)
C138 C 0.2060(8) -0.3142(7) -0.00193(10)
H165 H 0.2184 -0.2694 -0.0043
H166 H 0.2450 -0.3179 -0.0011
H167 H 0.1826 -0.3264 0.0074
C139 C 0.1728(7) -0.0907(5) -0.16709(10)
H168 H 0.2056 -0.0982 -0.1721
C140 C 0.0866(5) -0.2299(6) -0.02069(9)
H169 H 0.1077 -0.2467 -0.0149
C141 C 0.1039(6) -0.1577(5) -0.16590(10)
H170 H 0.0740 -0.1510 -0.1595
C142 C 0.1606(6) -0.3611(6) -0.01452(9)
H171 H 0.1465 -0.4066 -0.0120
H172 H 0.1215 -0.3569 -0.0155
C143 C 0.0394(10) -0.1062(10) -0.11015(19)
H173 H 0.0399 -0.0851 -0.1009
H174 H 0.0095 -0.1030 -0.1170
H175 H 0.0830 -0.0849 -0.1143
C144 C 0.0723(7) -0.1824(7) -0.18062(11)
H176 H 0.0301 -0.2225 -0.1793
H177 H 0.1002 -0.1925 -0.1868
C145 C 0.1991(5) -0.3426(5) -0.02926(7)
H178 H 0.2150 -0.2964 -0.0315
H179 H 0.2370 -0.3489 -0.0284
C146 C 0.1547(5) -0.3852(4) -0.04155(7)
H180 H 0.1399 -0.4310 -0.0391
H181 H 0.1160 -0.3801 -0.0418
C147 C 0.0618(8) -0.1284(8) -0.18838(12)
H182 H 0.0324 -0.1196 -0.1824
H183 H 0.0415 -0.1442 -0.1981
C148 C 0.1631(8) -0.0380(7) -0.17554(10)
H184 H 0.1364 -0.0259 -0.1695
H185 H 0.2058 0.0013 -0.1770
C149 C 0.1306(10) -0.0629(9) -0.19028(10)
H186 H 0.1591 -0.0714 -0.1966
H187 H 0.1239 -0.0294 -0.1950
N13I N 0.3625(4) -0.1840(3) -0.05661(6)
C102I C 0.3632(4) -0.1909(4) -0.08484(7)
C103I C 0.3454(5) -0.1680(4) -0.09762(7)
N14I N 0.2674(4) -0.0791(4) -0.08482(7)
C104I C 0.3107(5) -0.1342(4) -0.09708(8)
C105I C 0.3486(4) -0.1740(4) -0.07086(7)
C106I C 0.4336(5) -0.2420(5) -0.11404(8)
H134I H 0.4410 -0.2312 -0.1241
C107I C 0.2601(5) -0.0710(5) -0.09984(8)
C108I C 0.2161(5) -0.1085(5) -0.02143(9)
H135I H 0.1927 -0.0920 -0.0265
N15I N 0.4806(4) -0.3753(4) -0.09166(6)
N16I N 0.3719(4) -0.1836(4) -0.11028(6)
C109I C 0.4007(4) -0.2188(4) -0.10547(7)
C110I C 0.2818(5) -0.1083(5) -0.10822(8)
C111I C 0.4180(4) -0.2674(4) -0.08401(7)
H136I H 0.4118 -0.2772 -0.0739
C112I C 0.2614(5) -0.1228(5) -0.02990(8)
C113I C 0.3958(5) -0.2267(4) -0.08986(7)
C114I C 0.3005(5) -0.1457(4) -0.02271(8)
H137I H 0.3016 -0.1473 -0.0124
C115I C 0.3101(5) -0.1405(4) -0.06967(8)
C116I C 0.3334(4) -0.1636(4) -0.04646(8)
C117I C 0.2741(5) -0.1103(5) -0.12357(8)
H138I H 0.2874 -0.1344 -0.1294
C118I C 0.3356(5) -0.1651(4) -0.03092(7)
H139I H 0.3615 -0.1796 -0.0263
N17I N 0.2077(4) -0.1176(4) -0.00760(7)
C119I C 0.2590(5) -0.0377(5) -0.07395(9)
H140I H 0.2787 0.0070 -0.0778
H141I H 0.2823 -0.0363 -0.0649
C120I C 0.2960(5) -0.1186(5) -0.08312(8)
C121I C 0.2609(5) -0.1208(5) -0.04544(8)
H142I H 0.2341 -0.1075 -0.0502
C122I C 0.4654(5) -0.3376(5) -0.08506(8)
H143I H 0.4655 -0.3383 -0.0747
C123I C 0.4107(5) -0.2022(4) -0.05136(8)
H144I H 0.4362 -0.1733 -0.0433
H145I H 0.4410 -0.1963 -0.0594
C124I C 0.4559(4) -0.2823(4) -0.10753(7)
H146I H 0.4755 -0.3010 -0.1133
C125I C 0.4477(4) -0.2933(4) -0.09212(8)
C126I C 0.1883(6) -0.0620(6) -0.07035(9)
H147I H 0.1690 -0.1058 -0.0661
H148I H 0.1645 -0.0653 -0.0795
C127I C 0.5446(6) -0.4321(7) -0.09021(10)
H149I H 0.5372 -0.4404 -0.1008
H150I H 0.5856 -0.3908 -0.0889
C128I C 0.2287(5) -0.0381(5) -0.12123(9)
H151I H 0.2122 -0.0137 -0.1259
C129I C 0.4235(6) -0.2917(6) -0.03801(10)
H152I H 0.4026 -0.3393 -0.0369
H153I H 0.4634 -0.2768 -0.0439
C130I C 0.2350(5) -0.0358(5) -0.10633(9)
H154I H 0.2225 -0.0107 -0.1006
C131I C 0.3764(5) -0.2741(5) -0.04607(9)
H155I H 0.3573 -0.3030 -0.0546
H156I H 0.3406 -0.2818 -0.0394
C132I C 0.5512(7) -0.4865(7) -0.08325(11)
H157I H 0.5660 -0.4747 -0.0731
H158I H 0.5843 -0.4917 -0.0886
C133I C 0.4872(5) -0.4256(5) -0.08350(8)
H159I H 0.4990 -0.4102 -0.0732
C134I C 0.2468(6) -0.0769(5) -0.13005(9)
C135I C 0.2988(4) -0.1378(4) -0.05386(7)
C136I C 0.1805(6) -0.0161(7) -0.05946(11)
H160I H 0.2021 0.0283 -0.0635
H161I H 0.2018 -0.0151 -0.0502
C137I C 0.4392(10) -0.2624(10) -0.02436(12)
H162I H 0.4590 -0.2154 -0.0255
H163I H 0.4699 -0.2723 -0.0195
H164I H 0.3999 -0.2788 -0.0185
N18I N 0.1936(5) -0.0675(4) -0.15215(8)
C138I C 0.3142(7) -0.2060(8) -0.16474(10)
H165I H 0.2694 -0.2184 -0.1624
H166I H 0.3179 -0.2450 -0.1656
H167I H 0.3264 -0.1826 -0.1741
C139I C 0.0907(5) -0.1728(7) 0.00042(10)
H168I H 0.0982 -0.2056 0.0054
C140I C 0.2299(6) -0.0866(5) -0.14598(9)
H169I H 0.2467 -0.1077 -0.1518
C141I C 0.1577(5) -0.1039(6) -0.00077(10)
H170I H 0.1510 -0.0740 -0.0072
C142I C 0.3611(6) -0.1606(6) -0.15215(9)
H171I H 0.4066 -0.1465 -0.1547
H172I H 0.3569 -0.1215 -0.1512
C143I C 0.1062(10) -0.0394(10) -0.05652(19)
H173I H 0.0851 -0.0399 -0.0658
H174I H 0.1030 -0.0095 -0.0497
H175I H 0.0849 -0.0830 -0.0524
C144I C 0.1824(7) -0.0723(7) 0.01395(11)
H176I H 0.2225 -0.0301 0.0126
H177I H 0.1925 -0.1002 0.0201
C145I C 0.3426(5) -0.1991(5) -0.13741(7)
H178I H 0.2964 -0.2150 -0.1352
H179I H 0.3489 -0.2370 -0.1383
C146I C 0.3852(4) -0.1547(5) -0.12512(7)
H180I H 0.4310 -0.1399 -0.1276
H181I H 0.3801 -0.1160 -0.1249
C147I C 0.1284(8) -0.0618(8) 0.02171(12)
H182I H 0.1196 -0.0324 0.0157
H183I H 0.1442 -0.0415 0.0314
C148I C 0.0380(7) -0.1631(8) 0.00887(10)
H184I H 0.0259 -0.1364 0.0028
H185I H -0.0013 -0.2058 0.0103
C149I C 0.0629(9) -0.1306(10) 0.02361(10)
H186I H 0.0714 -0.1591 0.0299
H187I H 0.0294 -0.1239 0.0283
H109? H -0.0765 -0.3770 -0.1374
H110? H -0.1322 -0.4380 -0.1461
H111? H 0.1844 -0.6242 -0.0768
H112? H 0.1683 -0.6170 -0.0932
H113? H -0.0623 -0.4518 -0.0206
H114? H -0.1185 -0.4370 -0.0193
H115? H -0.0886 -0.7892 -0.0320
H116? H -0.0116 -0.7544 -0.0319
H117? H -0.3536 -0.5587 -0.0587
H118? H -0.3241 -0.5214 -0.0737
C97? C -0.042(3) -0.378(3) -0.0094(4)
H119? H -0.0045 -0.3367 -0.0122
H120? H -0.0286 -0.4016 -0.0029
H121? H -0.0736 -0.3698 -0.0043
C98? C -0.0379(11) -0.4020(12) -0.1561(2)
H122? H -0.0388 -0.3694 -0.1625
H123? H -0.0512 -0.4418 -0.1617
H124? H 0.0061 -0.3856 -0.1524
C99? C -0.303(3) -0.4587(19) -0.0562(6)
H125? H -0.2930 -0.4586 -0.0458
H126? H -0.3419 -0.4550 -0.0572
H127? H -0.2666 -0.4219 -0.0611
C100? C 0.1507(18) -0.7103(16) -0.0886(3)
H128? H 0.1065 -0.7472 -0.0878
H129? H 0.1792 -0.7165 -0.0819
H130? H 0.1661 -0.7074 -0.0986
C101? C -0.0549(18) -0.852(2) -0.0397(3)
H131? H -0.0939 -0.8811 -0.0452
H132? H -0.0570 -0.8707 -0.0300
H133? H -0.0166 -0.8463 -0.0449
H188? H 0.0419 -0.1392 -0.1125
H189? H 0.0007 -0.2159 -0.1145
C150? C -0.043(3) -0.181(3) -0.1007(6)
H190? H -0.0680 -0.2197 -0.0947
H191? H -0.0710 -0.1804 -0.1086
H192? H -0.0292 -0.1422 -0.0946
loop_
_geom_bond_atom_site_label_1
_geom_bond_atom_site_label_2
_geom_bond_site_symmetry_1
_geom_bond_site_symmetry_2
N1 C25 1_555 1_555
N2 C5 1_555 1_555
N3 C6 1_555 1_555
C1 H1 1_555 1_555
N4 C3 1_555 1_555
N5 C1 1_555 1_555
C2 C16 1_555 1_555
C3 H2 1_555 1_555
C4 C8 1_555 1_555
C5 C15 1_555 1_555
C6 C10 1_555 1_555
C7 C1 1_555 1_555
C8 C13 1_555 1_555
C9 H3 1_555 1_555
C10 C25 1_555 1_555
C11 C4 1_555 1_555
C12 H4 1_555 1_555
N6 C4 1_555 1_555
C13 C32 1_555 1_555
C14 C9 1_555 1_555
H5 C14 1_555 1_555
C15 C25 1_555 1_555
C16 C5 1_555 1_555
C17 N7 1_555 1_555
C18 C7 1_555 1_555
H6 C18 1_555 1_555
C19 C14 1_555 1_555
C20 C12 1_555 1_555
N7 C23 1_555 1_555
C21 C19 1_555 1_555
H7 C21 1_555 1_555
C22 C17 1_555 1_555
H8 C22 1_555 1_555
C23 C8 1_555 1_555
C24 C34 1_555 1_555
C26 H9 1_555 1_555
C27 N1 1_555 1_555
C28 C10 1_555 1_555
N8 C21 1_555 1_555
C29 C20 1_555 1_555
H10 C29 1_555 1_555
C30 C2 1_555 1_555
H11 C30 1_555 1_555
C31 H12 1_555 1_555
H13 C31 1_555 1_555
N9 C56 1_555 1_555
C32 C7 1_555 1_555
H14 C32 1_555 1_555
C33 C17 1_555 1_555
C34 C33 1_555 1_555
H15 C34 1_555 1_555
C35 N2 1_555 1_555
C36 H16 1_555 1_555
H17 C36 1_555 1_555
C37 H18 1_555 1_555
H19 C37 1_555 1_555
C38 C20 1_555 1_555
H20 C38 1_555 1_555
C39 H21 1_555 1_555
C40 N3 1_555 1_555
C41 C29 1_555 1_555
H22 C41 1_555 1_555
C42 N1 1_555 1_555
H23 C42 1_555 1_555
H24 C42 1_555 1_555
C43 N6 1_555 1_555
H25 C43 1_555 1_555
H26 C43 1_555 1_555
C44 C3 1_555 1_555
C45 C27 1_555 1_555
H27 C45 1_555 1_555
C46 C18 1_555 1_555
H28 C46 1_555 1_555
C47 N3 1_555 1_555
H29 C47 1_555 1_555
H30 C47 1_555 1_555
C48 C11 1_555 1_555
C49 C36 1_555 1_555
H31 C49 1_555 1_555
H32 C49 1_555 1_555
C50 N2 1_555 1_555
H33 C50 1_555 1_555
H34 C50 1_555 1_555
C51 N7 1_555 1_555
H35 C51 1_555 1_555
H36 C51 1_555 1_555
C52 H37 1_555 1_555
H38 C52 1_555 1_555
C53 C39 1_555 1_555
C54 N6 1_555 1_555
C55 C15 1_555 1_555
C56 C11 1_555 1_555
C57 C50 1_555 1_555
H39 C57 1_555 1_555
H40 C57 1_555 1_555
C58 C22 1_555 1_555
H41 C58 1_555 1_555
C59 C53 1_555 1_555
H42 C59 1_555 1_555
C60 C23 1_555 1_555
C61 H43 1_555 1_555
H44 C61 1_555 1_555
C62 C59 1_555 1_555
H45 C62 1_555 1_555
C63 C51 1_555 1_555
H46 C63 1_555 1_555
H47 C63 1_555 1_555
N10 C12 1_555 1_555
N11 C66 1_555 1_555
C64 H48 1_555 1_555
H49 C64 1_555 1_555
C65 H50 1_555 1_555
H51 C65 1_555 1_555
C66 H52 1_555 1_555
C67 H53 1_555 1_555
H54 C67 1_555 1_555
C68 N4 1_555 1_555
H55 C68 1_555 1_555
N12 C76 1_555 1_555
C69 N10 1_555 1_555
H56 C69 1_555 1_555
C70 H57 1_555 1_555
H58 C70 1_555 1_555
C71 H59 1_555 1_555
H60 C71 1_555 1_555
C72 C52 1_555 1_555
H61 C72 1_555 1_555
H62 C72 1_555 1_555
H63 C72 1_555 1_555
C73 C67 1_555 1_555
H64 C73 1_555 1_555
H65 C73 1_555 1_555
C74 C71 1_555 1_555
H66 C74 1_555 1_555
H67 C74 1_555 1_555
C75 C53 1_555 1_555
H68 C75 1_555 1_555
C76 C68 1_555 1_555
H69 C76 1_555 1_555
C77 C36 1_555 1_555
H70 C77 1_555 1_555
H71 C77 1_555 1_555
H72 C77 1_555 1_555
C78 C70 1_555 1_555
H73 C78 1_555 1_555
H74 C78 1_555 1_555
C79 N5 1_555 1_555
H75 C79 1_555 1_555
C80 C64 1_555 1_555
H76 C80 1_555 1_555
H77 C80 1_555 1_555
C81 C65 1_555 1_555
H78 C81 1_555 1_555
H79 C81 1_555 1_555
C82 C66 1_555 1_555
H80 C82 1_555 1_555
H81 C82 1_555 1_555
C83 H82 1_555 1_555
H83 C83 1_555 1_555
H84 C83 1_555 1_555
C84 N9 1_555 1_555
H85 C84 1_555 1_555
H86 C84 1_555 1_555
C85 C31 1_555 1_555
H87 C85 1_555 1_555
H88 C85 1_555 1_555
C86 N9 1_555 1_555
C87 N8 1_555 1_555
H89 C87 1_555 1_555
C88 C37 1_555 1_555
H90 C88 1_555 1_555
H91 C88 1_555 1_555
C89 C87 1_555 1_555
H92 C89 1_555 1_555
H93 C89 1_555 1_555
C90 C24 1_555 1_555
H94 C90 1_555 1_555
C91 C67 1_555 1_555
H95 C91 1_555 1_555
H96 C91 1_555 1_555
C92 C88 1_555 1_555
H97 C92 1_555 1_555
H98 C92 1_555 1_555
H99 C92 1_555 1_555
C93 C78 1_555 1_555
H100 C93 1_555 1_555
H101 C93 1_555 1_555
H102 C93 1_555 1_555
C94 C44 1_555 1_555
H103 C94 1_555 1_555
C95 C64 1_555 1_555
H104 C95 1_555 1_555
H105 C95 1_555 1_555
C96 C61 1_555 1_555
H106 C96 1_555 1_555
H107 C96 1_555 1_555
H108 C96 1_555 1_555
N13 C105 1_555 1_555
C102 C103 1_555 1_555
C103 C104 1_555 1_555
N14 C107 1_555 1_555
C104 C110 1_555 1_555
C105 C102 1_555 1_555
C106 H134 1_555 1_555
C107 C110 1_555 1_555
C108 H135 1_555 1_555
N15 C122 1_555 1_555
N16 C103 1_555 1_555
C109 C106 1_555 1_555
C110 C117 1_555 1_555
C111 H136 1_555 1_555
C112 C108 1_555 1_555
C113 C102 1_555 1_555
C114 C112 1_555 1_555
H137 C114 1_555 1_555
C115 C105 1_555 1_555
C116 N13 1_555 1_555
C117 H138 1_555 1_555
C118 C114 1_555 1_555
H139 C118 1_555 1_555
N17 C108 1_555 1_555
C119 N14 1_555 1_555
H140 C119 1_555 1_555
H141 C119 1_555 1_555
C120 N14 1_555 1_555
C121 C112 1_555 1_555
H142 C121 1_555 1_555
C122 H143 1_555 1_555
C123 N13 1_555 1_555
H144 C123 1_555 1_555
H145 C123 1_555 1_555
C124 C106 1_555 1_555
H146 C124 1_555 1_555
C125 C111 1_555 1_555
C126 C119 1_555 1_555
H147 C126 1_555 1_555
H148 C126 1_555 1_555
C127 H149 1_555 1_555
H150 C127 1_555 1_555
C128 H151 1_555 1_555
C129 H152 1_555 1_555
H153 C129 1_555 1_555
C130 C107 1_555 1_555
H154 C130 1_555 1_555
C131 C123 1_555 1_555
H155 C131 1_555 1_555
H156 C131 1_555 1_555
C132 C127 1_555 1_555
H157 C132 1_555 1_555
H158 C132 1_555 1_555
C133 N15 1_555 1_555
H159 C133 1_555 1_555
C134 C117 1_555 1_555
C135 C115 1_555 1_555
C136 C126 1_555 1_555
H160 C136 1_555 1_555
H161 C136 1_555 1_555
C137 C129 1_555 1_555
H162 C137 1_555 1_555
H163 C137 1_555 1_555
H164 C137 1_555 1_555
N18 C140 1_555 1_555
C138 H165 1_555 1_555
H166 C138 1_555 1_555
H167 C138 1_555 1_555
C139 H168 1_555 1_555
C140 C134 1_555 1_555
H169 C140 1_555 1_555
C141 N17 1_555 1_555
H170 C141 1_555 1_555
C142 C138 1_555 1_555
H171 C142 1_555 1_555
H172 C142 1_555 1_555
C143 C136 1_555 1_555
H173 C143 1_555 1_555
H174 C143 1_555 1_555
H175 C143 1_555 1_555
C144 C141 1_555 1_555
H176 C144 1_555 1_555
H177 C144 1_555 1_555
C145 C142 1_555 1_555
H178 C145 1_555 1_555
H179 C145 1_555 1_555
C146 N16 1_555 1_555
H180 C146 1_555 1_555
H181 C146 1_555 1_555
C147 C144 1_555 1_555
H182 C147 1_555 1_555
H183 C147 1_555 1_555
C148 C139 1_555 1_555
H184 C148 1_555 1_555
H185 C148 1_555 1_555
C149 C147 1_555 1_555
H186 C149 1_555 1_555
H187 C149 1_555 1_555
N13I C105I 1_555 1_555
C102I C103I 1_555 1_555
C103I C104I 1_555 1_555
N14I C107I 1_555 1_555
C104I C110I 1_555 1_555
C105I C102I 1_555 1_555
C106I H134I 1_555 1_555
C107I C110I 1_555 1_555
C108I H135I 1_555 1_555
N15I C122I 1_555 1_555
N16I C103I 1_555 1_555
C109I C106I 1_555 1_555
C110I C117I 1_555 1_555
C111I H136I 1_555 1_555
C112I C108I 1_555 1_555
C113I C102I 1_555 1_555
C114I C112I 1_555 1_555
H137I C114I 1_555 1_555
C115I C105I 1_555 1_555
C116I N13I 1_555 1_555
C117I H138I 1_555 1_555
C118I C114I 1_555 1_555
H139I C118I 1_555 1_555
N17I C108I 1_555 1_555
C119I N14I 1_555 1_555
H140I C119I 1_555 1_555
H141I C119I 1_555 1_555
C120I N14I 1_555 1_555
C121I C112I 1_555 1_555
H142I C121I 1_555 1_555
C122I H143I 1_555 1_555
C123I N13I 1_555 1_555
H144I C123I 1_555 1_555
H145I C123I 1_555 1_555
C124I C106I 1_555 1_555
H146I C124I 1_555 1_555
C125I C111I 1_555 1_555
C126I C119I 1_555 1_555
H147I C126I 1_555 1_555
H148I C126I 1_555 1_555
C127I H149I 1_555 1_555
H150I C127I 1_555 1_555
C128I H151I 1_555 1_555
C129I H152I 1_555 1_555
H153I C129I 1_555 1_555
C130I C107I 1_555 1_555
H154I C130I 1_555 1_555
C131I C123I 1_555 1_555
H155I C131I 1_555 1_555
H156I C131I 1_555 1_555
C132I C132 1_555 1_555
H157I C132I 1_555 1_555
H158I C132I 1_555 1_555
C133I C133 1_555 1_555
H159I C133I 1_555 1_555
C134I C117I 1_555 1_555
C135I C115I 1_555 1_555
C136I C126I 1_555 1_555
H160I C136I 1_555 1_555
H161I C136I 1_555 1_555
C137I C129I 1_555 1_555
H162I C137I 1_555 1_555
H163I C137I 1_555 1_555
H164I C137I 1_555 1_555
N18I C139 1_555 1_555
C138I H165I 1_555 1_555
H166I C138I 1_555 1_555
H167I C138I 1_555 1_555
C139I N18 1_555 1_555
H168I C139I 1_555 1_555
C140I C134I 1_555 1_555
H169I C140I 1_555 1_555
C141I N17I 1_555 1_555
H170I C141I 1_555 1_555
C142I C138I 1_555 1_555
H171I C142I 1_555 1_555
H172I C142I 1_555 1_555
C143I C136I 1_555 1_555
H173I C143I 1_555 1_555
H174I C143I 1_555 1_555
H175I C143I 1_555 1_555
C144I C141I 1_555 1_555
H176I C144I 1_555 1_555
H177I C144I 1_555 1_555
C145I C142I 1_555 1_555
H178I C145I 1_555 1_555
H179I C145I 1_555 1_555
C146I N16I 1_555 1_555
H180I C146I 1_555 1_555
H181I C146I 1_555 1_555
C147I C144I 1_555 1_555
H182I C147I 1_555 1_555
H183I C147I 1_555 1_555
C148I C139I 1_555 1_555
H184I C148I 1_555 1_555
H185I C148I 1_555 1_555
C149I C147I 1_555 1_555
H186I C149I 1_555 1_555
H187I C149I 1_555 1_555
C2 C40 1_555 1_555
C6 C16 1_555 1_555
C9 C40 1_555 1_555
C13 C54 1_555 1_555
C19 C30 1_555 1_555
C24 C58 1_555 1_555
C26 C28 1_555 1_555
C26 C44 1_555 1_555
C27 C28 1_555 1_555
C31 C47 1_555 1_555
C33 C60 1_555 1_555
C35 C41 1_555 1_555
C35 C55 1_555 1_555
C37 C42 1_555 1_555
C38 C55 1_555 1_555
C39 C48 1_555 1_555
C43 C49 1_555 1_555
C45 C94 1_555 1_555
C46 C54 1_555 1_555
C48 C86 1_555 1_555
C52 C57 1_555 1_555
C56 C60 1_555 1_555
C61 C63 1_555 1_555
C62 C86 1_555 1_555
N11 C75 1_555 1_555
C65 C68 1_555 1_555
C66 C69 1_555 1_555
N12 C90 1_555 1_555
C69 C80 1_555 1_555
C70 C84 1_555 1_555
C71 C76 1_555 1_555
C73 C79 1_555 1_555
C74 C81 1_555 1_555
C79 C87 1_555 1_555
C82 C95 1_555 1_555
C83 C85 1_555 1_555
C89 C91 1_555 1_555
C104 C120 1_555 1_555
N16 C109 1_555 1_555
C109 C113 1_555 1_555
C111 C113 1_555 1_555
C115 C120 1_555 1_555
C116 C118 1_555 1_555
C116 C135 1_555 1_555
C121 C135 1_555 1_555
C122 C125 1_555 1_555
C124 C125 1_555 1_555
C127 C133 1_555 1_555
C128 C130 1_555 1_555
C128 C134 1_555 1_555
C129 C131 1_555 1_555
C139 C141 1_555 1_555
C145 C146 1_555 1_555
C148 C149 1_555 1_555
C104I C120I 1_555 1_555
N15I C133I 1_555 1_555
N16I C109I 1_555 1_555
C109I C113I 1_555 1_555
C111I C113I 1_555 1_555
C115I C120I 1_555 1_555
C116I C118I 1_555 1_555
C116I C135I 1_555 1_555
C121I C135I 1_555 1_555
C122I C125I 1_555 1_555
C124I C125I 1_555 1_555
C127I C132I 1_555 1_555
C127I C133I 1_555 1_555
C128I C130I 1_555 1_555
C128I C134I 1_555 1_555
C129I C131I 1_555 1_555
N18I C140I 1_555 1_555
C139I C141I 1_555 1_555
C145I C146I 1_555 1_555
C148I C149I 1_555 1_555

#END
