
#######################################################################
#
#                 Cambridge Crystallographic Data Centre
#                                CCDC 
#
#######################################################################
#
# If this CIF has been generated from an entry in the Cambridge 
# Structural Database, then it will include bibliographic, chemical, 
# crystal, experimental, refinement or atomic coordinate data resulting 
# from the CCDC's data processing and validation procedures.
#
#######################################################################

data_GEXHUO
_chemical_formula_moiety         'C111 H132 B3 N3,6(C2 H4 Cl2)'
_chemical_name_systematic        
'1,5,9-tris(4-t-Butylphenyl)-3,7,11-tris(2,4,6-tri-isopropylphenyl)-1,5,9-triaza-3,7,11-tribora-2,4,6,8,10,12(1,4)-hexabenzenacyclododecaphane 1,2-dichloroethane solvate'
_symmetry_cell_setting           rhombohedral
_symmetry_space_group_name_H-M   'R -3'
_symmetry_Int_Tables_number      148
_space_group_name_Hall           '-R 3'
loop_
_symmetry_equiv_pos_site_id
_symmetry_equiv_pos_as_xyz
1 x,y,z
2 -y,x-y,z
3 -x+y,-x,z
4 2/3+x,1/3+y,1/3+z
5 2/3-y,1/3+x-y,1/3+z
6 2/3-x+y,1/3-x,1/3+z
7 1/3+x,2/3+y,2/3+z
8 1/3-y,2/3+x-y,2/3+z
9 1/3-x+y,2/3-x,2/3+z
10 -x,-y,-z
11 y,-x+y,-z
12 x-y,x,-z
13 1/3-x,2/3-y,2/3-z
14 1/3+y,2/3-x+y,2/3-z
15 1/3+x-y,2/3+x,2/3-z
16 2/3-x,1/3-y,1/3-z
17 2/3+y,1/3-x+y,1/3-z
18 2/3+x-y,1/3+x,1/3-z
_cell_length_a                   21.3886(11)
_cell_length_b                   21.3886(11)
_cell_length_c                   46.765(3)
_cell_angle_alpha                90
_cell_angle_beta                 90
_cell_angle_gamma                120
_cell_volume                     18527.5
_exptl_crystal_colour            yellow
_exptl_crystal_description       hexagon
_cell_formula_units_Z            6
loop_
_atom_site_label
_atom_site_type_symbol
_atom_site_fract_x
_atom_site_fract_y
_atom_site_fract_z
N1 N 0.5881(2) 0.5557(2) 0.08880(10)
B1 B 0.3620(3) 0.2534(3) 0.09297(12)
C1 C 0.4203(2) 0.3348(2) 0.09410(11)
C2 C 0.4134(2) 0.3870(2) 0.07823(11)
H1 H 0.3691 0.3725 0.0686
C3 C 0.4675(2) 0.4578(2) 0.07587(11)
H2 H 0.4612 0.4900 0.0638
C4 C 0.5311(2) 0.4822(2) 0.09115(11)
C5 C 0.5387(3) 0.4335(3) 0.10935(11)
H3 H 0.5805 0.4498 0.1209
C6 C 0.4843(2) 0.3618(2) 0.11004(11)
H4 H 0.4906 0.3293 0.1219
C7 C 0.6614(2) 0.5740(2) 0.09072(11)
C8 C 0.6843(2) 0.5254(3) 0.08313(12)
H5 H 0.6502 0.4784 0.0766
C9 C 0.7556(3) 0.5453(2) 0.08516(12)
H6 H 0.7692 0.5103 0.0807
C10 C 0.8104(2) 0.6148(2) 0.09352(11)
C11 C 0.7856(2) 0.6634(2) 0.09997(11)
H7 H 0.8199 0.7117 0.1050
C12 C 0.7131(2) 0.6430(2) 0.09918(11)
H8 H 0.6986 0.6767 0.1045
C13 C 0.5705(2) 0.6100(2) 0.08276(11)
C14 C 0.5208(3) 0.6173(3) 0.09961(12)
H9 H 0.4972 0.5844 0.1148
C15 C 0.5054(3) 0.6710(3) 0.09459(13)
H10 H 0.4695 0.6731 0.1059
C16 C 0.5410(3) 0.7235(3) 0.07327(11)
C17 C 0.5896(3) 0.7149(3) 0.05653(11)
H11 H 0.6140 0.7485 0.0416
C18 C 0.6035(3) 0.6599(3) 0.06081(12)
H12 H 0.6364 0.6555 0.0485
C19 C 0.5271(3) 0.7870(3) 0.06989(12)
C20 C 0.4475(3) 0.7576(3) 0.06307(17)
H13 H 0.4354 0.7957 0.0659
H14 H 0.4178 0.7169 0.0758
H15 H 0.4381 0.7413 0.0431
C21 C 0.5458(4) 0.8302(3) 0.09777(14)
H16 H 0.5374 0.8709 0.0955
H17 H 0.5967 0.8484 0.1025
H18 H 0.5154 0.7989 0.1133
C22 C 0.5726(3) 0.8385(3) 0.04631(13)
H19 H 0.5643 0.8117 0.0284
H20 H 0.6237 0.8614 0.0515
H21 H 0.5590 0.8757 0.0438
C23 C 0.2801(2) 0.2284(2) 0.08807(10)
C24 C 0.2321(2) 0.2165(2) 0.11089(11)
C25 C 0.1598(3) 0.1926(3) 0.10506(12)
H22 H 0.1278 0.1842 0.1206
C26 C 0.1327(3) 0.1806(3) 0.07753(13)
C27 C 0.1803(3) 0.1923(3) 0.05489(12)
H23 H 0.1628 0.1843 0.0358
C28 C 0.2536(2) 0.2158(2) 0.06000(11)
C29 C 0.2594(3) 0.2287(3) 0.14184(12)
H24 H 0.3128 0.2487 0.1413
C30 C 0.2261(4) 0.1583(3) 0.15885(14)
H25 H 0.1735 0.1329 0.1567
H26 H 0.2386 0.1691 0.1791
H27 H 0.2449 0.1279 0.1517
C31 C 0.2456(3) 0.2838(3) 0.15736(13)
H28 H 0.1936 0.2630 0.1605
H29 H 0.2636 0.3275 0.1457
H30 H 0.2707 0.2962 0.1758
C32 C 0.0540(3) 0.1542(4) 0.07128(14)
H31 H 0.0414 0.1243 0.0535
C33 C 0.0456(4) 0.2194(4) 0.06440(18)
H32 H -0.0057 0.2036 0.0618
H33 H 0.0720 0.2424 0.0468
H34 H 0.0650 0.2541 0.0802
C34 C 0.0011(4) 0.1103(5) 0.0930(3)
H35 H -0.0088 0.0604 0.0917
H36 H -0.0437 0.1112 0.0898
H37 H 0.0202 0.1297 0.1120
C35 C 0.3030(3) 0.2267(3) 0.03481(11)
H38 H 0.3534 0.2509 0.0425
C36 C 0.3011(3) 0.2765(3) 0.01187(11)
H39 H 0.2548 0.2518 0.0018
H40 H 0.3405 0.2894 -0.0018
H41 H 0.3069 0.3205 0.0209
C37 C 0.2879(3) 0.1537(3) 0.02198(13)
H42 H 0.2986 0.1269 0.0363
H43 H 0.3185 0.1626 0.0051
H44 H 0.2370 0.1254 0.0164
N1A N 0.4443(2) 0.0324(3) 0.08880(10)
B1A B 0.7466(3) 0.1086(4) 0.09297(12)
C1A C 0.6652(2) 0.0855(3) 0.09410(11)
C2A C 0.6130(2) 0.0264(3) 0.07823(11)
H1A H 0.6275 -0.0034 0.0686
C3A C 0.5422(2) 0.0097(3) 0.07587(11)
H2A H 0.5100 -0.0288 0.0638
C4A C 0.5178(2) 0.0489(3) 0.09115(11)
C5A C 0.5665(3) 0.1052(4) 0.10935(11)
H3A H 0.5502 0.1307 0.1209
C6A C 0.6382(2) 0.1225(3) 0.11004(11)
H4A H 0.6707 0.1613 0.1219
C7A C 0.4260(2) 0.0874(3) 0.09072(11)
C8A C 0.4746(3) 0.1589(4) 0.08313(12)
H5A H 0.5216 0.1718 0.0766
C9A C 0.4547(2) 0.2103(4) 0.08516(12)
H6A H 0.4897 0.2589 0.0807
C10A C 0.3852(2) 0.1956(3) 0.09352(11)
C11A C 0.3366(2) 0.1222(3) 0.09997(11)
H7A H 0.2883 0.1082 0.1050
C12A C 0.3570(2) 0.0701(3) 0.09918(11)
H8A H 0.3233 0.0219 0.1045
C13A C 0.3900(2) -0.0395(3) 0.08276(11)
C14A C 0.3827(3) -0.0965(4) 0.09961(12)
H9A H 0.4156 -0.0872 0.1148
C15A C 0.3290(3) -0.1656(4) 0.09459(13)
H10A H 0.3269 -0.2036 0.1059
C16A C 0.2765(3) -0.1825(4) 0.07327(11)
C17A C 0.2851(3) -0.1253(4) 0.05653(11)
H11A H 0.2515 -0.1345 0.0416
C18A C 0.3401(3) -0.0564(4) 0.06081(12)
H12A H 0.3445 -0.0191 0.0485
C19A C 0.2130(3) -0.2599(4) 0.06989(12)
C20A C 0.2424(3) -0.3101(4) 0.06307(17)
H13A H 0.2043 -0.3603 0.0659
H14A H 0.2831 -0.2991 0.0758
H15A H 0.2587 -0.3032 0.0431
C21A C 0.1698(3) -0.2844(5) 0.09777(14)
H16A H 0.1291 -0.3335 0.0955
H17A H 0.1516 -0.2517 0.1025
H18A H 0.2011 -0.2835 0.1133
C22A C 0.1615(3) -0.2659(4) 0.04631(13)
H19A H 0.1883 -0.2474 0.0284
H20A H 0.1386 -0.2377 0.0515
H21A H 0.1243 -0.3167 0.0438
C23A C 0.7716(2) 0.0517(3) 0.08807(10)
C24A C 0.7835(2) 0.0156(3) 0.11089(11)
C25A C 0.8074(3) -0.0328(4) 0.10506(12)
H22A H 0.8158 -0.0564 0.1206
C26A C 0.8194(3) -0.0479(4) 0.07753(13)
C27A C 0.8077(3) -0.0120(4) 0.05489(12)
H23A H 0.8157 -0.0215 0.0358
C28A C 0.7842(2) 0.0378(3) 0.06000(11)
C29A C 0.7713(3) 0.0307(4) 0.14184(12)
H24A H 0.7513 0.0641 0.1413
C30A C 0.8417(3) 0.0678(5) 0.15885(14)
H25A H 0.8671 0.0406 0.1567
H26A H 0.8309 0.0695 0.1791
H27A H 0.8721 0.1170 0.1517
C31A C 0.7162(3) -0.0382(4) 0.15736(13)
H28A H 0.7370 -0.0694 0.1605
H29A H 0.6725 -0.0639 0.1457
H30A H 0.7038 -0.0255 0.1758
C32A C 0.8458(4) -0.1002(5) 0.07128(14)
H31A H 0.8757 -0.0829 0.0535
C33A C 0.7806(4) -0.1738(6) 0.06440(18)
H32A H 0.7964 -0.2093 0.0618
H33A H 0.7576 -0.1704 0.0468
H34A H 0.7459 -0.1891 0.0802
C34A C 0.8897(5) -0.1092(6) 0.0930(3)
H35A H 0.9396 -0.0692 0.0917
H36A H 0.8888 -0.1549 0.0898
H37A H 0.8703 -0.1095 0.1120
C35A C 0.7733(3) 0.0763(4) 0.03481(11)
H38A H 0.7491 0.1025 0.0425
C36A C 0.7235(3) 0.0246(4) 0.01187(11)
H39A H 0.7482 0.0030 0.0018
H40A H 0.7106 0.0511 -0.0018
H41A H 0.6795 -0.0136 0.0209
C37A C 0.8463(3) 0.1342(4) 0.02198(13)
H42A H 0.8731 0.1717 0.0363
H43A H 0.8374 0.1559 0.0051
H44A H 0.8746 0.1116 0.0164
N1B N 0.9676(3) 0.4119(2) 0.08880(10)
B1B B 0.8914(4) 0.6380(3) 0.09297(12)
C1B C 0.9145(3) 0.5797(2) 0.09410(11)
C2B C 0.9736(3) 0.5866(2) 0.07823(11)
H1B H 1.0034 0.6309 0.0686
C3B C 0.9903(3) 0.5325(2) 0.07587(11)
H2B H 1.0288 0.5388 0.0638
C4B C 0.9511(3) 0.4689(2) 0.09115(11)
C5B C 0.8948(4) 0.4613(3) 0.10935(11)
H3B H 0.8693 0.4195 0.1209
C6B C 0.8775(3) 0.5157(2) 0.11004(11)
H4B H 0.8387 0.5094 0.1219
C7B C 0.9126(3) 0.3386(2) 0.09072(11)
C8B C 0.8411(4) 0.3157(2) 0.08313(12)
H5B H 0.8282 0.3498 0.0766
C9B C 0.7897(4) 0.2444(3) 0.08516(12)
H6B H 0.7411 0.2308 0.0807
C10B C 0.8044(3) 0.1896(2) 0.09352(11)
C11B C 0.8778(3) 0.2144(2) 0.09997(11)
H7B H 0.8918 0.1801 0.1050
C12B C 0.9299(3) 0.2869(2) 0.09918(11)
H8B H 0.9781 0.3014 0.1045
C13B C 1.0395(3) 0.4295(2) 0.08276(11)
C14B C 1.0965(4) 0.4792(3) 0.09961(12)
H9B H 1.0872 0.5028 0.1148
C15B C 1.1656(4) 0.4946(3) 0.09459(13)
H10B H 1.2036 0.5305 0.1059
C16B C 1.1825(4) 0.4590(3) 0.07327(11)
C17B C 1.1253(4) 0.4104(3) 0.05653(11)
H11B H 1.1345 0.3860 0.0416
C18B C 1.0564(4) 0.3965(3) 0.06081(12)
H12B H 1.0191 0.3636 0.0485
C19B C 1.2599(4) 0.4729(3) 0.06989(12)
C20B C 1.3101(4) 0.5525(3) 0.06307(17)
H13B H 1.3603 0.5646 0.0659
H14B H 1.2991 0.5822 0.0758
H15B H 1.3032 0.5619 0.0431
C21B C 1.2844(5) 0.4542(4) 0.09777(14)
H16B H 1.3335 0.4626 0.0955
H17B H 1.2517 0.4033 0.1025
H18B H 1.2835 0.4846 0.1133
C22B C 1.2659(4) 0.4274(3) 0.04631(13)
H19B H 1.2474 0.4357 0.0284
H20B H 1.2377 0.3763 0.0515
H21B H 1.3167 0.4410 0.0438
C23B C 0.9483(3) 0.7199(2) 0.08807(10)
C24B C 0.9844(3) 0.7679(2) 0.11089(11)
C25B C 1.0328(4) 0.8402(3) 0.10506(12)
H22B H 1.0564 0.8722 0.1206
C26B C 1.0479(4) 0.8673(3) 0.07753(13)
C27B C 1.0120(4) 0.8197(3) 0.05489(12)
H23B H 1.0215 0.8372 0.0358
C28B C 0.9622(3) 0.7464(2) 0.06000(11)
C29B C 0.9693(4) 0.7406(3) 0.14184(12)
H24B H 0.9359 0.6872 0.1413
C30B C 0.9322(5) 0.7739(4) 0.15885(14)
H25B H 0.9594 0.8265 0.1567
H26B H 0.9305 0.7614 0.1791
H27B H 0.8830 0.7551 0.1517
C31B C 1.0382(4) 0.7544(3) 0.15736(13)
H28B H 1.0694 0.8064 0.1605
H29B H 1.0639 0.7364 0.1457
H30B H 1.0255 0.7293 0.1758
C32B C 1.1002(5) 0.9460(3) 0.07128(14)
H31B H 1.0829 0.9586 0.0535
C33B C 1.1738(6) 0.9544(4) 0.06440(18)
H32B H 1.2093 1.0057 0.0618
H33B H 1.1704 0.9280 0.0468
H34B H 1.1891 0.9350 0.0802
C34B C 1.1092(6) 0.9989(4) 0.0930(3)
H35B H 1.0692 1.0088 0.0917
H36B H 1.1549 1.0437 0.0898
H37B H 1.1095 0.9798 0.1120
C35B C 0.9237(4) 0.6970(3) 0.03481(11)
H38B H 0.8975 0.6466 0.0425
C36B C 0.9754(4) 0.6989(3) 0.01187(11)
H39B H 0.9970 0.7452 0.0018
H40B H 0.9489 0.6595 -0.0018
H41B H 1.0136 0.6931 0.0209
C37B C 0.8658(4) 0.7121(3) 0.02198(13)
H42B H 0.8283 0.7014 0.0363
H43B H 0.8441 0.6815 0.0051
H44B H 0.8884 0.7630 0.0164
Cl1 Cl 0.51248(11) 0.29077(9) 0.01591(4)
Cl2 Cl 0.59252(11) 0.51807(9) 0.01131(4)
C38 C 0.5575(5) 0.3846(4) 0.02538(19)
H45 H 0.5398 0.3909 0.0441
H46 H 0.6102 0.4038 0.0268
C39 C 0.5425(7) 0.4220(5) 0.0037(2)
H47 H 0.4901 0.4049 0.0033
H48 H 0.5569 0.4124 -0.0152
Cl3 Cl 0.47447(12) 0.87318(11) 0.16263(4)
Cl4 Cl 0.63594(10) 1.09048(11) 0.18307(4)
C40 C 0.5435(5) 0.9705(6) 0.15889(19)
H49 H 0.5842 0.9763 0.1469
H50 H 0.5220 0.9973 0.1499
C41 C 0.5677(6) 0.9966(7) 0.18693(18)
H51 H 0.5883 0.9692 0.1961
H52 H 0.5272 0.9918 0.1988
loop_
_geom_bond_atom_site_label_1
_geom_bond_atom_site_label_2
_geom_bond_site_symmetry_1
_geom_bond_site_symmetry_2
N1 C4 1_555 1_555
B1 C1 1_555 1_555
C1 C2 1_555 1_555
C2 H1 1_555 1_555
C3 C2 1_555 1_555
H2 C3 1_555 1_555
C4 C3 1_555 1_555
C5 C4 1_555 1_555
H3 C5 1_555 1_555
C6 C1 1_555 1_555
H4 C6 1_555 1_555
C7 N1 1_555 1_555
C8 C7 1_555 1_555
H5 C8 1_555 1_555
C9 C8 1_555 1_555
H6 C9 1_555 1_555
C10 C9 1_555 1_555
C11 C10 1_555 1_555
H7 C11 1_555 1_555
C12 C7 1_555 1_555
H8 C12 1_555 1_555
C13 N1 1_555 1_555
C14 C13 1_555 1_555
H9 C14 1_555 1_555
C15 C14 1_555 1_555
H10 C15 1_555 1_555
C16 C15 1_555 1_555
C17 C16 1_555 1_555
H11 C17 1_555 1_555
C18 C13 1_555 1_555
H12 C18 1_555 1_555
C19 C16 1_555 1_555
C20 C19 1_555 1_555
H13 C20 1_555 1_555
H14 C20 1_555 1_555
H15 C20 1_555 1_555
C21 C19 1_555 1_555
H16 C21 1_555 1_555
H17 C21 1_555 1_555
H18 C21 1_555 1_555
C22 C19 1_555 1_555
H19 C22 1_555 1_555
H20 C22 1_555 1_555
H21 C22 1_555 1_555
C23 B1 1_555 1_555
C24 C23 1_555 1_555
C25 C24 1_555 1_555
H22 C25 1_555 1_555
C26 C25 1_555 1_555
C27 C26 1_555 1_555
H23 C27 1_555 1_555
C28 C23 1_555 1_555
C29 C24 1_555 1_555
H24 C29 1_555 1_555
C30 C29 1_555 1_555
H25 C30 1_555 1_555
H26 C30 1_555 1_555
H27 C30 1_555 1_555
C31 C29 1_555 1_555
H28 C31 1_555 1_555
H29 C31 1_555 1_555
H30 C31 1_555 1_555
C32 C26 1_555 1_555
H31 C32 1_555 1_555
C33 C32 1_555 1_555
H32 C33 1_555 1_555
H33 C33 1_555 1_555
H34 C33 1_555 1_555
C34 C32 1_555 1_555
H35 C34 1_555 1_555
H36 C34 1_555 1_555
H37 C34 1_555 1_555
C35 C28 1_555 1_555
H38 C35 1_555 1_555
C36 C35 1_555 1_555
H39 C36 1_555 1_555
H40 C36 1_555 1_555
H41 C36 1_555 1_555
C37 C35 1_555 1_555
H42 C37 1_555 1_555
H43 C37 1_555 1_555
H44 C37 1_555 1_555
Cl1 C38 1_555 1_555
Cl2 C39 1_555 1_555
C38 H45 1_555 1_555
H46 C38 1_555 1_555
C39 C38 1_555 1_555
H47 C39 1_555 1_555
H48 C39 1_555 1_555
Cl3 C40 1_555 1_555
Cl4 C41 1_555 1_555
C40 H49 1_555 1_555
H50 C40 1_555 1_555
C41 C40 1_555 1_555
H51 C41 1_555 1_555
H52 C41 1_555 1_555
N1A C4A 1_555 1_555
B1A C1A 1_555 1_555
C1A C2A 1_555 1_555
C2A H1A 1_555 1_555
C3A C2A 1_555 1_555
H2A C3A 1_555 1_555
C4A C3A 1_555 1_555
C5A C4A 1_555 1_555
H3A C5A 1_555 1_555
C6A C1A 1_555 1_555
H4A C6A 1_555 1_555
C7A N1A 1_555 1_555
C8A C7A 1_555 1_555
H5A C8A 1_555 1_555
C9A C8A 1_555 1_555
H6A C9A 1_555 1_555
C10A B1 1_555 1_555
C11A C10A 1_555 1_555
H7A C11A 1_555 1_555
C12A C7A 1_555 1_555
H8A C12A 1_555 1_555
C13A N1A 1_555 1_555
C14A C13A 1_555 1_555
H9A C14A 1_555 1_555
C15A C14A 1_555 1_555
H10A C15A 1_555 1_555
C16A C15A 1_555 1_555
C17A C16A 1_555 1_555
H11A C17A 1_555 1_555
C18A C13A 1_555 1_555
H12A C18A 1_555 1_555
C19A C16A 1_555 1_555
C20A C19A 1_555 1_555
H13A C20A 1_555 1_555
H14A C20A 1_555 1_555
H15A C20A 1_555 1_555
C21A C19A 1_555 1_555
H16A C21A 1_555 1_555
H17A C21A 1_555 1_555
H18A C21A 1_555 1_555
C22A C19A 1_555 1_555
H19A C22A 1_555 1_555
H20A C22A 1_555 1_555
H21A C22A 1_555 1_555
C23A B1A 1_555 1_555
C24A C23A 1_555 1_555
C25A C24A 1_555 1_555
H22A C25A 1_555 1_555
C26A C25A 1_555 1_555
C27A C26A 1_555 1_555
H23A C27A 1_555 1_555
C28A C23A 1_555 1_555
C29A C24A 1_555 1_555
H24A C29A 1_555 1_555
C30A C29A 1_555 1_555
H25A C30A 1_555 1_555
H26A C30A 1_555 1_555
H27A C30A 1_555 1_555
C31A C29A 1_555 1_555
H28A C31A 1_555 1_555
H29A C31A 1_555 1_555
H30A C31A 1_555 1_555
C32A C26A 1_555 1_555
H31A C32A 1_555 1_555
C33A C32A 1_555 1_555
H32A C33A 1_555 1_555
H33A C33A 1_555 1_555
H34A C33A 1_555 1_555
C34A C32A 1_555 1_555
H35A C34A 1_555 1_555
H36A C34A 1_555 1_555
H37A C34A 1_555 1_555
C35A C28A 1_555 1_555
H38A C35A 1_555 1_555
C36A C35A 1_555 1_555
H39A C36A 1_555 1_555
H40A C36A 1_555 1_555
H41A C36A 1_555 1_555
C37A C35A 1_555 1_555
H42A C37A 1_555 1_555
H43A C37A 1_555 1_555
H44A C37A 1_555 1_555
N1B C4B 1_555 1_555
B1B C10 1_555 1_555
C1B B1B 1_555 1_555
C2B C1B 1_555 1_555
H1B C2B 1_555 1_555
C3B C2B 1_555 1_555
H2B C3B 1_555 1_555
C4B C3B 1_555 1_555
C5B C4B 1_555 1_555
H3B C5B 1_555 1_555
C6B C1B 1_555 1_555
H4B C6B 1_555 1_555
C7B N1B 1_555 1_555
C8B C7B 1_555 1_555
H5B C8B 1_555 1_555
C9B C8B 1_555 1_555
H6B C9B 1_555 1_555
C10B B1A 1_555 1_555
C11B C10B 1_555 1_555
H7B C11B 1_555 1_555
C12B C7B 1_555 1_555
H8B C12B 1_555 1_555
C13B N1B 1_555 1_555
C14B C13B 1_555 1_555
H9B C14B 1_555 1_555
C15B C14B 1_555 1_555
H10B C15B 1_555 1_555
C16B C15B 1_555 1_555
C17B C16B 1_555 1_555
H11B C17B 1_555 1_555
C18B C13B 1_555 1_555
H12B C18B 1_555 1_555
C19B C16B 1_555 1_555
C20B C19B 1_555 1_555
H13B C20B 1_555 1_555
H14B C20B 1_555 1_555
H15B C20B 1_555 1_555
C21B C19B 1_555 1_555
H16B C21B 1_555 1_555
H17B C21B 1_555 1_555
H18B C21B 1_555 1_555
C22B C19B 1_555 1_555
H19B C22B 1_555 1_555
H20B C22B 1_555 1_555
H21B C22B 1_555 1_555
C23B B1B 1_555 1_555
C24B C23B 1_555 1_555
C25B C24B 1_555 1_555
H22B C25B 1_555 1_555
C26B C25B 1_555 1_555
C27B C26B 1_555 1_555
H23B C27B 1_555 1_555
C28B C23B 1_555 1_555
C29B C24B 1_555 1_555
H24B C29B 1_555 1_555
C30B C29B 1_555 1_555
H25B C30B 1_555 1_555
H26B C30B 1_555 1_555
H27B C30B 1_555 1_555
C31B C29B 1_555 1_555
H28B C31B 1_555 1_555
H29B C31B 1_555 1_555
H30B C31B 1_555 1_555
C32B C26B 1_555 1_555
H31B C32B 1_555 1_555
C33B C32B 1_555 1_555
H32B C33B 1_555 1_555
H33B C33B 1_555 1_555
H34B C33B 1_555 1_555
C34B C32B 1_555 1_555
H35B C34B 1_555 1_555
H36B C34B 1_555 1_555
H37B C34B 1_555 1_555
C35B C28B 1_555 1_555
H38B C35B 1_555 1_555
C36B C35B 1_555 1_555
H39B C36B 1_555 1_555
H40B C36B 1_555 1_555
H41B C36B 1_555 1_555
C37B C35B 1_555 1_555
H42B C37B 1_555 1_555
H43B C37B 1_555 1_555
H44B C37B 1_555 1_555
C5 C6 1_555 1_555
C11 C12 1_555 1_555
C17 C18 1_555 1_555
C27 C28 1_555 1_555
C5A C6A 1_555 1_555
C9A C10A 1_555 1_555
C11A C12A 1_555 1_555
C17A C18A 1_555 1_555
C27A C28A 1_555 1_555
C5B C6B 1_555 1_555
C9B C10B 1_555 1_555
C11B C12B 1_555 1_555
C17B C18B 1_555 1_555
C27B C28B 1_555 1_555

#END
