
#######################################################################
#
#                 Cambridge Crystallographic Data Centre
#                                CCDC 
#
#######################################################################
#
# If this CIF has been generated from an entry in the Cambridge 
# Structural Database, then it will include bibliographic, chemical, 
# crystal, experimental, refinement or atomic coordinate data resulting 
# from the CCDC's data processing and validation procedures.
#
#######################################################################

data_GEXJIC
_chemical_formula_moiety         'C33 H39 N11,C1 H1 Cl3,2(H2 O1)'
_chemical_name_systematic        
'1,4,12,15,18,26,31,39,42,43,44-Undeca-aza-pentacyclo(13.13.13.1^6,10^.1^20,24^.1^33,37^)tetratetraconta-4,6,8,10(44),11,18,20,22,24(42),25,31,33,35,37(43),38-pentadeca-ene chloroform dihydrate'
_symmetry_cell_setting           monoclinic
_symmetry_space_group_name_H-M   'P 21/c'
_symmetry_Int_Tables_number      14
_space_group_name_Hall           '-P 2ybc'
loop_
_symmetry_equiv_pos_site_id
_symmetry_equiv_pos_as_xyz
1 x,y,z
2 -x,1/2+y,1/2-z
3 -x,-y,-z
4 x,1/2-y,1/2+z
_cell_length_a                   11.389(12)
_cell_length_b                   10.686(11)
_cell_length_c                   31.958(12)
_cell_angle_alpha                90
_cell_angle_beta                 93.2(1)
_cell_angle_gamma                90
_cell_volume                     3883.32
_cell_formula_units_Z            4
loop_
_atom_site_label
_atom_site_type_symbol
_atom_site_fract_x
_atom_site_fract_y
_atom_site_fract_z
N1 N -0.1231(7) 0.5261(6) 0.8934(2)
C1 C -0.1164(12) 0.4530(10) 0.9325(3)
C2 C -0.1604(11) 0.5270(10) 0.9672(3)
N2 N -0.2855(9) 0.5405(8) 0.9645(3)
C3 C -0.3261(12) 0.6465(9) 0.9578(3)
C4 C -0.4519(7) 0.6709(10) 0.9518(3)
C5 C -0.5282(11) 0.5765(9) 0.9492(3)
C6 C -0.6434(11) 0.6001(11) 0.9431(3)
C7 C -0.6807(11) 0.7278(8) 0.9476(3)
C8 C -0.5905(7) 0.8189(7) 0.9504(2)
N3 N -0.4863(7) 0.7948(6) 0.9533(2)
C9 C -0.6183(9) 0.9568(8) 0.9539(3)
N4 N -0.7252(8) 0.9866(7) 0.9541(2)
C10 C -0.7478(10) 1.1226(9) 0.9630(3)
C11 C -0.8468(9) 1.1671(9) 0.9314(3)
C12 C -0.0198(10) 0.6066(9) 0.8884(3)
C13 C -0.0424(9) 0.7210(8) 0.8615(3)
N5 N -0.0962(7) 0.8211(6) 0.8878(2)
C14 C -0.1909(10) 0.8685(9) 0.8768(3)
C15 C -0.2383(10) 0.9834(8) 0.8974(3)
C16 C -0.1866(9) 1.0270(8) 0.9300(2)
C17 C -0.2448(9) 1.1335(9) 0.9479(3)
C18 C -0.3540(10) 1.1760(10) 0.9284(4)
C19 C -0.3897(10) 1.1284(9) 0.8905(3)
N6 N -0.3393(9) 1.0228(7) 0.8748(2)
C20 C -0.4931(8) 1.1708(7) 0.8686(3)
N7 N -0.5444(9) 1.2686(9) 0.8803(3)
C21 C -0.6443(13) 1.3074(10) 0.8567(4)
C22 C -0.7460(11) 1.3139(11) 0.8831(3)
C23 C -0.1418(9) 0.4373(9) 0.8545(3)
C24 C -0.2714(9) 0.4336(8) 0.8439(3)
N8 N -0.3178(7) 0.5435(7) 0.8207(3)
C25 C -0.4071(11) 0.6037(10) 0.8352(3)
C26 C -0.4550(8) 0.7180(7) 0.8122(3)
N9 N -0.5462(7) 0.7581(6) 0.8334(2)
C27 C -0.6031(7) 0.8570(7) 0.8199(2)
C28 C -0.5698(9) 0.9152(9) 0.7807(3)
C29 C -0.4739(12) 0.8752(11) 0.7645(4)
C30 C -0.4111(11) 0.7669(8) 0.7794(3)
C31 C -0.7057(11) 0.8986(10) 0.8391(4)
N10 N -0.7826(7) 0.9804(7) 0.8240(2)
C32 C -0.8805(10) 1.0111(9) 0.8468(4)
C33 C -0.8876(9) 1.1564(7) 0.8563(3)
N11 N -0.8010(7) 1.1831(6) 0.8887(2)
C34 C -0.8825(14) 1.5665(11) 0.7560(3)
Cl1 Cl -0.8847(4) 1.4054(5) 0.7531(1)
Cl2 Cl -0.7921(4) 1.6023(3) 0.8009(1)
Cl3 Cl -0.8210(5) 1.6133(4) 0.7098(2)
O1 O -0.8512(8) 1.1008(6) 0.7457(2)
O2 O -0.0442(8) 1.1554(8) 1.0311(3)
loop_
_geom_bond_atom_site_label_1
_geom_bond_atom_site_label_2
_geom_bond_site_symmetry_1
_geom_bond_site_symmetry_2
N1 C1 1_555 1_555
C1 C2 1_555 1_555
C2 N2 1_555 1_555
N2 C3 1_555 1_555
C3 C4 1_555 1_555
C4 C5 1_555 1_555
C5 C6 1_555 1_555
C6 C7 1_555 1_555
C7 C8 1_555 1_555
C8 N3 1_555 1_555
N3 C4 1_555 1_555
C9 C8 1_555 1_555
N4 C9 1_555 1_555
C10 N4 1_555 1_555
C11 C10 1_555 1_555
C12 N1 1_555 1_555
C13 C12 1_555 1_555
N5 C13 1_555 1_555
C14 N5 1_555 1_555
C15 C14 1_555 1_555
C16 C15 1_555 1_555
C17 C16 1_555 1_555
C18 C17 1_555 1_555
C19 C18 1_555 1_555
N6 C15 1_555 1_555
C20 C19 1_555 1_555
N7 C20 1_555 1_555
C21 N7 1_555 1_555
C22 C21 1_555 1_555
C23 N1 1_555 1_555
C24 C23 1_555 1_555
N8 C24 1_555 1_555
C25 N8 1_555 1_555
C26 C25 1_555 1_555
N9 C26 1_555 1_555
C27 N9 1_555 1_555
C28 C27 1_555 1_555
C29 C28 1_555 1_555
C30 C26 1_555 1_555
C31 C27 1_555 1_555
N10 C31 1_555 1_555
C32 N10 1_555 1_555
C33 C32 1_555 1_555
N11 C11 1_555 1_555
C34 Cl1 1_555 1_555
Cl2 C34 1_555 1_555
Cl3 C34 1_555 1_555
C19 N6 1_555 1_555
C22 N11 1_555 1_555
C29 C30 1_555 1_555
C33 N11 1_555 1_555

#END
