
#######################################################################
#
#                 Cambridge Crystallographic Data Centre
#                                CCDC 
#
#######################################################################
#
# If this CIF has been generated from an entry in the Cambridge 
# Structural Database, then it will include bibliographic, chemical, 
# crystal, experimental, refinement or atomic coordinate data resulting 
# from the CCDC's data processing and validation procedures.
#
#######################################################################

data_GEXLED
_chemical_formula_moiety         'C17 H29 N9 O2,H2 O1'
_chemical_name_systematic        
"N,N'-((methylazanediyl)bis(methylene(1-methyl-1H-imidazole-5,4-diyl)))bis(N,N'-dimethylurea) monohydrate"
_symmetry_cell_setting           orthorhombic
_symmetry_space_group_name_H-M   'P n a 21'
_symmetry_Int_Tables_number      33
_space_group_name_Hall           'P 2c -2n'
loop_
_symmetry_equiv_pos_site_id
_symmetry_equiv_pos_as_xyz
1 x,y,z
2 -x,-y,1/2+z
3 1/2-x,1/2+y,1/2+z
4 1/2+x,1/2-y,z
_cell_length_a                   15.4853(2)
_cell_length_b                   9.62900(10)
_cell_length_c                   14.8409(2)
_cell_angle_alpha                90
_cell_angle_beta                 90
_cell_angle_gamma                90
_cell_volume                     2212.9
_exptl_crystal_description       block
_cell_formula_units_Z            4
loop_
_atom_site_label
_atom_site_type_symbol
_atom_site_fract_x
_atom_site_fract_y
_atom_site_fract_z
O1 O 0.60341(10) 0.31317(18) 0.73945(11)
C1 C 0.59169(11) 0.2805(2) 0.65967(14)
N1 N 0.45806(11) 0.1505(2) 0.41222(11)
C2 C 0.26965(11) -0.06043(17) 0.63946(11)
N2 N 0.40792(9) -0.06789(15) 0.56099(11)
N3 N 0.20765(9) -0.06218(17) 0.57313(11)
N4 N 0.51805(10) 0.32101(18) 0.61560(12)
N5 N 0.64947(10) 0.20592(19) 0.61306(14)
N6 N 0.47882(13) 0.3648(2) 0.46018(16)
N7 N 0.27618(13) -0.16917(19) 0.79026(12)
C3 C 0.35568(11) 0.00473(17) 0.62829(13)
H1 H 0.3484 0.1008 0.6101
H2 H 0.3857 0.0039 0.6856
N8 N 0.15425(12) -0.1837(2) 0.68684(14)
O2 O 0.31603(15) -0.1157(2) 0.93183(13)
C4 C 0.23501(12) -0.13538(19) 0.70838(13)
C5 C 0.48161(11) 0.1400(2) 0.50183(13)
C6 C 0.49470(12) 0.2730(2) 0.52901(13)
C7 C 0.42430(14) -0.2109(2) 0.58788(18)
H3 H 0.4606 -0.2119 0.6403
H4 H 0.4526 -0.2593 0.5396
H5 H 0.3705 -0.2559 0.6015
N9 N 0.23886(15) 0.0411(2) 0.85308(15)
C8 C 0.21213(14) 0.0052(2) 0.48575(14)
H6 H 0.1606 -0.0149 0.4522
H7 H 0.2615 -0.0287 0.4534
H8 H 0.2172 0.1038 0.4939
C9 C 0.72447(15) 0.1478(3) 0.6560(2)
H9 H 0.7581 0.0980 0.6123
H10 H 0.7067 0.0854 0.7029
H11 H 0.7587 0.2211 0.6814
C10 C 0.49072(12) 0.0041(2) 0.54767(15)
H12 H 0.5285 -0.0548 0.5122
H13 H 0.5178 0.0184 0.6059
C11 C 0.27882(14) -0.0823(2) 0.86217(14)
C12 C 0.14087(13) -0.1374(3) 0.60522(16)
H14 H 0.0907 -0.1546 0.5727
C13 C 0.45676(16) 0.2864(3) 0.39198(17)
H15 H 0.4418 0.3210 0.3356
C14 C 0.45936(15) 0.4158(3) 0.6612(2)
H16 H 0.4220 0.3641 0.7004
H17 H 0.4253 0.4645 0.6173
H18 H 0.4921 0.4814 0.6960
C15 C 0.3108(2) -0.3097(3) 0.79848(19)
H19 H 0.3556 -0.3108 0.8432
H20 H 0.3341 -0.3386 0.7415
H21 H 0.2654 -0.3720 0.8161
C16 C 0.44515(19) 0.0368(3) 0.34945(18)
H22 H 0.4269 0.0732 0.2923
H23 H 0.4016 -0.0247 0.3725
H24 H 0.4983 -0.0131 0.3421
C17 C 0.2379(4) 0.1387(4) 0.9252(3)
H25 H 0.2062 0.2198 0.9071
H26 H 0.2960 0.1644 0.9401
H27 H 0.2107 0.0977 0.9768
H28 H 0.6426(14) 0.188(2) 0.5556(18)
H29 H 0.2083(19) 0.060(3) 0.805(2)
O3 O 0.51503(17) 0.6457(2) 0.39520(16)
H30 H 0.4751(19) 0.660(3) 0.356(2)
H31 H 0.510(3) 0.556(3) 0.409(3)
loop_
_geom_bond_atom_site_label_1
_geom_bond_atom_site_label_2
_geom_bond_site_symmetry_1
_geom_bond_site_symmetry_2
O1 C1 1_555 1_555
C1 N4 1_555 1_555
N1 C5 1_555 1_555
C2 N3 1_555 1_555
N2 C3 1_555 1_555
N3 C8 1_555 1_555
N4 C6 1_555 1_555
N5 C1 1_555 1_555
N6 C6 1_555 1_555
N7 C4 1_555 1_555
C3 C2 1_555 1_555
H1 C3 1_555 1_555
H2 C3 1_555 1_555
N8 C4 1_555 1_555
O2 C11 1_555 1_555
C4 C2 1_555 1_555
C5 C6 1_555 1_555
C7 N2 1_555 1_555
H3 C7 1_555 1_555
H4 C7 1_555 1_555
H5 C7 1_555 1_555
N9 C11 1_555 1_555
C8 H6 1_555 1_555
H7 C8 1_555 1_555
H8 C8 1_555 1_555
C9 N5 1_555 1_555
H9 C9 1_555 1_555
H10 C9 1_555 1_555
H11 C9 1_555 1_555
C10 N2 1_555 1_555
H12 C10 1_555 1_555
H13 C10 1_555 1_555
C11 N7 1_555 1_555
C12 N3 1_555 1_555
H14 C12 1_555 1_555
C13 N1 1_555 1_555
H15 C13 1_555 1_555
C14 N4 1_555 1_555
H16 C14 1_555 1_555
H17 C14 1_555 1_555
H18 C14 1_555 1_555
C15 N7 1_555 1_555
H19 C15 1_555 1_555
H20 C15 1_555 1_555
H21 C15 1_555 1_555
C16 N1 1_555 1_555
H22 C16 1_555 1_555
H23 C16 1_555 1_555
H24 C16 1_555 1_555
C17 N9 1_555 1_555
H25 C17 1_555 1_555
H26 C17 1_555 1_555
H27 C17 1_555 1_555
H28 N5 1_555 1_555
H29 N9 1_555 1_555
O3 H30 1_555 1_555
H31 O3 1_555 1_555
N6 C13 1_555 1_555
N8 C12 1_555 1_555
C5 C10 1_555 1_555

#END
