
#######################################################################
#
#                 Cambridge Crystallographic Data Centre
#                                CCDC 
#
#######################################################################
#
# If this CIF has been generated from an entry in the Cambridge 
# Structural Database, then it will include bibliographic, chemical, 
# crystal, experimental, refinement or atomic coordinate data resulting 
# from the CCDC's data processing and validation procedures.
#
#######################################################################

data_GEXLAZ
_chemical_formula_moiety         'C15 H24 N8 O2,4(H2 O1)'
_chemical_name_systematic        
"N,N'-(methylenebis((1-methyl-1H-imidazole-5,4-diyl)))bis(N,N'-dimethylurea) tetrahydrate"
_symmetry_cell_setting           monoclinic
_symmetry_space_group_name_H-M   'P 21/c'
_symmetry_Int_Tables_number      14
_space_group_name_Hall           '-P 2ybc'
loop_
_symmetry_equiv_pos_site_id
_symmetry_equiv_pos_as_xyz
1 x,y,z
2 -x,1/2+y,1/2-z
3 -x,-y,-z
4 x,1/2-y,1/2+z
_cell_length_a                   9.62690(10)
_cell_length_b                   19.1784(2)
_cell_length_c                   12.20080(10)
_cell_angle_alpha                90
_cell_angle_beta                 91.9670(10)
_cell_angle_gamma                90
_cell_volume                     2251.29
_exptl_crystal_description       block
_cell_formula_units_Z            4
loop_
_atom_site_label
_atom_site_type_symbol
_atom_site_fract_x
_atom_site_fract_y
_atom_site_fract_z
O1 O 0.56128(11) 0.40527(5) 0.54578(8)
O2 O 0.57099(11) 0.59491(5) -0.04197(8)
N1 N 0.13802(11) 0.59497(5) 0.25162(9)
N2 N 0.35397(12) 0.58373(6) 0.02168(9)
N3 N 0.13152(11) 0.40993(5) 0.22727(9)
N4 N 0.34469(12) 0.41758(6) 0.47052(9)
N5 N 0.16157(12) 0.64971(6) 0.09351(10)
N6 N 0.14781(13) 0.35519(6) 0.38710(11)
N7 N 0.52759(13) 0.63916(7) 0.12466(11)
H1 H 0.4686 0.6449 0.1753
N8 N 0.51633(13) 0.36013(7) 0.37762(11)
H2 H 0.4571 0.3545 0.3240
C1 C 0.23936(12) 0.44146(6) 0.28573(10)
C2 C 0.24422(12) 0.56140(6) 0.19974(10)
C3 C 0.32468(12) 0.50061(6) 0.24541(9)
H3 H 0.3841 0.4831 0.1890
H4 H 0.3845 0.5170 0.3056
C4 C 0.25695(13) 0.59651(6) 0.10351(10)
C5 C 0.24776(13) 0.40649(6) 0.38292(11)
C6 C 0.47805(14) 0.39425(6) 0.46774(11)
C7 C 0.48837(14) 0.60609(7) 0.03200(11)
C8 C 0.09276(15) 0.64675(7) 0.18427(13)
H5 H 0.0207 0.6770 0.2005
C9 C 0.08084(15) 0.35925(7) 0.29210(13)
H6 H 0.0067 0.3305 0.2714
C10 C 0.08892(15) 0.42338(8) 0.11367(12)
H7 H 0.0489 0.4691 0.1077
H8 H 0.0214 0.3893 0.0899
H9 H 0.1684 0.4206 0.0685
C11 C 0.30507(17) 0.55284(9) -0.08142(12)
H10 H 0.2536 0.5112 -0.0669
H11 H 0.3832 0.5415 -0.1249
H12 H 0.2461 0.5854 -0.1205
C12 C 0.09122(17) 0.58120(8) 0.36207(13)
H13 H 0.0518 0.5353 0.3648
H14 H 0.0223 0.6150 0.3806
H15 H 0.1688 0.5843 0.4134
C13 C 0.29702(18) 0.44968(9) 0.57077(12)
H16 H 0.2452 0.4911 0.5527
H17 H 0.3758 0.4615 0.6175
H18 H 0.2387 0.4175 0.6081
C14 C 0.66766(19) 0.66540(12) 0.14091(17)
H19 H 0.6814 0.7042 0.0928
H20 H 0.7328 0.6292 0.1250
H21 H 0.6817 0.6802 0.2156
C15 C 0.6554(2) 0.33275(11) 0.36917(17)
H22 H 0.6702 0.3193 0.2947
H23 H 0.6667 0.2928 0.4161
H24 H 0.7217 0.3679 0.3911
O3 O 0.61503(10) 0.29349(5) 0.67922(7)
H25 H 0.5454 0.2662 0.6747
H26 H 0.6015 0.3279 0.6364
O4 O 0.61991(8) 0.70694(5) -0.17222(7)
H27 H 0.6927 0.7281 -0.1490
H28 H 0.6039 0.6727 -0.1303
O5 O 1.13609(8) 0.72779(5) -0.10862(7)
H29 H 1.1483 0.7097 -0.0454
H30 H 1.2111 0.7469 -0.1278
O6 O 0.86014(13) 0.77400(7) -0.08906(11)
H31 H 0.8564 0.7928 -0.0261
H32 H 0.9422 0.7595 -0.0988
loop_
_geom_bond_atom_site_label_1
_geom_bond_atom_site_label_2
_geom_bond_site_symmetry_1
_geom_bond_site_symmetry_2
O1 C6 1_555 1_555
O2 C7 1_555 1_555
N1 C2 1_555 1_555
N2 C4 1_555 1_555
N3 C1 1_555 1_555
N4 C5 1_555 1_555
N5 C4 1_555 1_555
N6 C5 1_555 1_555
N7 H1 1_555 1_555
N8 H2 1_555 1_555
C1 C3 1_555 1_555
C2 C3 1_555 1_555
C3 H3 1_555 1_555
H4 C3 1_555 1_555
C4 C2 1_555 1_555
C5 C1 1_555 1_555
C6 N4 1_555 1_555
C7 N2 1_555 1_555
C8 N1 1_555 1_555
H5 C8 1_555 1_555
C9 N3 1_555 1_555
H6 C9 1_555 1_555
C10 N3 1_555 1_555
H7 C10 1_555 1_555
H8 C10 1_555 1_555
H9 C10 1_555 1_555
C11 N2 1_555 1_555
H10 C11 1_555 1_555
H11 C11 1_555 1_555
H12 C11 1_555 1_555
C12 N1 1_555 1_555
H13 C12 1_555 1_555
H14 C12 1_555 1_555
H15 C12 1_555 1_555
C13 N4 1_555 1_555
H16 C13 1_555 1_555
H17 C13 1_555 1_555
H18 C13 1_555 1_555
C14 N7 1_555 1_555
H19 C14 1_555 1_555
H20 C14 1_555 1_555
H21 C14 1_555 1_555
C15 N8 1_555 1_555
H22 C15 1_555 1_555
H23 C15 1_555 1_555
H24 C15 1_555 1_555
O3 H25 1_555 1_555
H26 O3 1_555 1_555
O4 H27 1_555 1_555
H28 O4 1_555 1_555
O5 H29 1_555 1_555
H30 O5 1_555 1_555
O6 H31 1_555 1_555
H32 O6 1_555 1_555
N5 C8 1_555 1_555
N6 C9 1_555 1_555
N7 C7 1_555 1_555
N8 C6 1_555 1_555

#END
