
#######################################################################
#
#                 Cambridge Crystallographic Data Centre
#                                CCDC 
#
#######################################################################
#
# If this CIF has been generated from an entry in the Cambridge 
# Structural Database, then it will include bibliographic, chemical, 
# crystal, experimental, refinement or atomic coordinate data resulting 
# from the CCDC's data processing and validation procedures.
#
#######################################################################

data_GEXMON
_chemical_formula_moiety         'C6 N6 O6,C7 H6 N4 O6'
_chemical_name_systematic        
"(bis[1,2,5]Oxadiazolo[3,4-e:3',4'-g][2,1,3]benzoxadiazole 1,4,7-trioxide) N-methyl-2,4,6-trinitroaniline"
_symmetry_cell_setting           monoclinic
_symmetry_space_group_name_H-M   'P 21/c'
_symmetry_Int_Tables_number      14
_space_group_name_Hall           '-P 2ybc'
loop_
_symmetry_equiv_pos_site_id
_symmetry_equiv_pos_as_xyz
1 x,y,z
2 -x,1/2+y,1/2-z
3 -x,-y,-z
4 x,1/2-y,1/2+z
_cell_length_a                   9.3316(3)
_cell_length_b                   12.6044(3)
_cell_length_c                   15.4760(4)
_cell_angle_alpha                90
_cell_angle_beta                 90.619(3)
_cell_angle_gamma                90
_cell_volume                     1820.17
_exptl_crystal_colour            yellow
_exptl_crystal_description       block
_cell_formula_units_Z            4
loop_
_atom_site_label
_atom_site_type_symbol
_atom_site_fract_x
_atom_site_fract_y
_atom_site_fract_z
O1 O 0.6718(3) 0.9365(3) 0.51405(18)
O2 O 0.5994(3) 1.0305(2) 0.3941(2)
O3 O 0.3217(4) 0.9558(3) 0.15167(19)
O4 O 0.2524(4) 0.7816(3) 0.1646(2)
O5 O 0.3150(4) 0.5247(2) 0.3825(3)
O6 O 0.4549(4) 0.6046(3) 0.4837(2)
N1 N 0.6025(4) 0.9338(3) 0.4471(2)
N2 N 0.5169(4) 1.0107(3) 0.3221(2)
N3 N 0.3285(4) 0.8797(3) 0.1957(2)
N4 N 0.2698(4) 0.7019(3) 0.2274(2)
N5 N 0.3759(5) 0.6032(3) 0.3980(3)
N6 N 0.5160(4) 0.7022(3) 0.4979(2)
C1 C 0.5215(4) 0.8617(3) 0.4062(2)
C2 C 0.4734(4) 0.9125(3) 0.3303(2)
C3 C 0.3854(4) 0.8518(3) 0.2714(2)
C4 C 0.3482(4) 0.7445(3) 0.2874(2)
C5 C 0.4000(4) 0.6970(3) 0.3663(3)
C6 C 0.4840(4) 0.7539(3) 0.4271(2)
O7 O 0.3146(3) 0.3262(2) 0.30468(19)
O8 O 0.3070(3) 0.1963(2) 0.21567(17)
O9 O 0.0180(3) -0.1030(2) 0.24991(19)
O10 O -0.1308(3) -0.1142(2) 0.35594(19)
O11 O -0.1631(3) 0.1620(2) 0.56518(17)
O12 O -0.1393(3) 0.3171(2) 0.50654(18)
N7 N 0.1517(3) 0.3270(2) 0.44168(19)
H1 H 0.2008 0.3668 0.4058
N8 N 0.2648(3) 0.2410(2) 0.28054(19)
N9 N -0.0386(3) -0.0669(2) 0.3149(2)
N10 N -0.1097(3) 0.2227(2) 0.51184(19)
C7 C 0.0976(4) 0.2384(3) 0.4084(2)
C8 C 0.1518(4) 0.1906(3) 0.3305(2)
C9 C 0.1079(4) 0.0932(3) 0.3011(2)
H2 H 0.1471 0.0649 0.2496
C10 C 0.0077(4) 0.0365(3) 0.3459(2)
C11 C -0.0555(4) 0.0784(3) 0.4188(2)
H3 H -0.1262 0.0393 0.4490
C12 C -0.0146(4) 0.1773(3) 0.4471(2)
C13 C 0.1408(4) 0.3672(3) 0.5298(2)
H4 H 0.0607 0.4173 0.5330
H5 H 0.2300 0.4034 0.5460
H6 H 0.1242 0.3080 0.5694
loop_
_geom_bond_atom_site_label_1
_geom_bond_atom_site_label_2
_geom_bond_site_symmetry_1
_geom_bond_site_symmetry_2
O1 N1 1_555 1_555
O2 N1 1_555 1_555
O3 N3 1_555 1_555
O4 N3 1_555 1_555
O5 N5 1_555 1_555
O6 N5 1_555 1_555
N1 C1 1_555 1_555
N2 O2 1_555 1_555
N3 C3 1_555 1_555
N4 O4 1_555 1_555
N5 C5 1_555 1_555
N6 O6 1_555 1_555
C1 C2 1_555 1_555
C2 N2 1_555 1_555
C3 C2 1_555 1_555
C4 N4 1_555 1_555
C5 C4 1_555 1_555
C6 N6 1_555 1_555
O7 N8 1_555 1_555
O8 N8 1_555 1_555
O9 N9 1_555 1_555
O10 N9 1_555 1_555
O11 N10 1_555 1_555
O12 N10 1_555 1_555
N7 H1 1_555 1_555
N8 C8 1_555 1_555
N9 C10 1_555 1_555
N10 C12 1_555 1_555
C7 N7 1_555 1_555
C8 C7 1_555 1_555
C9 C8 1_555 1_555
H2 C9 1_555 1_555
C10 C9 1_555 1_555
C11 C10 1_555 1_555
H3 C11 1_555 1_555
C12 C7 1_555 1_555
C13 N7 1_555 1_555
H4 C13 1_555 1_555
H5 C13 1_555 1_555
H6 C13 1_555 1_555
C1 C6 1_555 1_555
C3 C4 1_555 1_555
C5 C6 1_555 1_555
C11 C12 1_555 1_555

#END
