
#######################################################################
#
#                 Cambridge Crystallographic Data Centre
#                                CCDC 
#
#######################################################################
#
# If this CIF has been generated from an entry in the Cambridge 
# Structural Database, then it will include bibliographic, chemical, 
# crystal, experimental, refinement or atomic coordinate data resulting 
# from the CCDC's data processing and validation procedures.
#
#######################################################################

data_GEXMAZ
_chemical_formula_moiety         'C6 N6 O6,C7 H5 N3 O6'
_chemical_name_systematic        
'Benzotrifuroxan 2-methyl-1,3,5-trinitrobenzene'
_symmetry_cell_setting           triclinic
_symmetry_space_group_name_H-M   'P -1'
_symmetry_Int_Tables_number      2
_space_group_name_Hall           '-P 1'
loop_
_symmetry_equiv_pos_site_id
_symmetry_equiv_pos_as_xyz
1 x,y,z
2 -x,-y,-z
_cell_length_a                   9.3377(4)
_cell_length_b                   12.8957(6)
_cell_length_c                   14.7285(7)
_cell_angle_alpha                88.514(4)
_cell_angle_beta                 84.163(4)
_cell_angle_gamma                88.942(4)
_cell_volume                     1763.54
_exptl_crystal_colour            colorless
_exptl_crystal_description       block
_cell_formula_units_Z            4
loop_
_atom_site_label
_atom_site_type_symbol
_atom_site_fract_x
_atom_site_fract_y
_atom_site_fract_z
O1 O 0.5487(12) 0.8549(7) 0.4681(7)
O2 O 0.7087(10) 0.9127(5) 0.3420(8)
O3 O 0.7563(6) 0.6570(7) 0.1281(5)
O4 O 0.6766(7) 0.4929(5) 0.1311(4)
O5 O 0.3841(5) 0.4379(4) 0.3990(3)
O6 O 0.3108(6) 0.5427(6) 0.5184(4)
N1 N 0.4751(11) 0.7601(8) 0.4828(6)
N2 N 0.6286(11) 0.8464(5) 0.3783(9)
N3 N 0.7386(8) 0.7389(9) 0.1907(9)
N4 N 0.6767(7) 0.5724(6) 0.1695(4)
N5 N 0.4759(6) 0.4503(4) 0.3191(4)
N6 N 0.3828(5) 0.5346(5) 0.4440(4)
C1 C 0.5047(8) 0.7005(6) 0.4115(5)
C2 C 0.5983(8) 0.7546(5) 0.3471(6)
C3 C 0.6563(7) 0.7069(6) 0.2633(6)
C4 C 0.6149(7) 0.6017(5) 0.2506(4)
C5 C 0.5232(6) 0.5474(4) 0.3167(4)
C6 C 0.4680(6) 0.5997(5) 0.3934(4)
O7 O 0.3238(6) 0.9666(5) 0.3700(4)
O8 O 0.6098(5) 0.9475(4) 0.0991(3)
O9 O 0.6748(6) 1.0685(5) -0.0153(4)
O10 O 0.4101(8) 1.3766(6) 0.0628(6)
O11 O 0.2580(8) 1.4161(5) 0.1891(6)
O12 O 0.2319(6) 1.1298(5) 0.3852(4)
N7 N 0.3179(6) 1.0503(6) 0.3366(4)
N8 N 0.5226(6) 0.9516(4) 0.1797(4)
N9 N 0.6049(6) 1.0508(6) 0.0561(4)
N10 N 0.4905(9) 1.2847(8) 0.0349(6)
N11 N 0.3387(10) 1.3518(5) 0.1502(8)
N12 N 0.2450(7) 1.2193(6) 0.3288(5)
C7 C 0.3740(6) 1.0922(5) 0.2569(4)
C8 C 0.4688(6) 1.0471(5) 0.1873(5)
C9 C 0.5133(6) 1.1104(6) 0.1118(4)
C10 C 0.4676(8) 1.2144(6) 0.1029(5)
C11 C 0.3766(8) 1.2558(5) 0.1732(6)
C12 C 0.3268(6) 1.1975(6) 0.2527(5)
O13 O -0.3514(8) 0.1690(7) 0.3173(5)
O14 O -0.2755(9) 0.2560(4) 0.2001(6)
O15 O -0.0286(6) 0.5654(4) 0.2462(4)
O16 O 0.1157(5) 0.5688(4) 0.3559(4)
O17 O 0.1343(5) 0.2845(4) 0.5630(3)
O18 O -0.0504(8) 0.1919(5) 0.5886(4)
N13 N -0.2694(6) 0.2304(5) 0.2794(5)
N14 N 0.0249(6) 0.5276(4) 0.3133(4)
N15 N 0.0233(7) 0.2507(5) 0.5415(4)
C13 C -0.1224(6) 0.2279(4) 0.4107(4)
C14 C -0.1663(5) 0.2779(5) 0.3320(4)
C15 C -0.1179(6) 0.3738(5) 0.2992(4)
H1 H -0.1494 0.4032 0.2447
C16 C -0.0251(6) 0.4253(4) 0.3460(4)
C17 C 0.0197(6) 0.3867(4) 0.4236(4)
H2 H 0.0829 0.4253 0.4559
C18 C -0.0273(6) 0.2892(5) 0.4572(4)
C19 C -0.1627(10) 0.1200(5) 0.4352(5)
H3 H -0.2557 0.1196 0.4727
H4 H -0.0890 0.0872 0.4698
H5 H -0.1702 0.0814 0.3795
O19 O -0.0411(15) 0.6943(7) -0.0779(7)
O20 O -0.1445(7) 0.8324(6) -0.0734(4)
O21 O -0.1282(5) 1.0625(4) 0.1636(4)
O22 O 0.0370(5) 1.0458(4) 0.2567(3)
O23 O 0.3210(8) 0.7399(5) 0.2590(5)
O24 O 0.3355(12) 0.6362(7) 0.1577(6)
N16 N -0.0634(7) 0.7705(5) -0.0448(4)
N17 N -0.0253(6) 1.0153(4) 0.1959(4)
N18 N 0.2819(6) 0.7108(4) 0.1921(4)
C20 C 0.1098(6) 0.7286(4) 0.0721(4)
C21 C 0.0077(6) 0.7963(5) 0.0371(3)
C22 C -0.0347(6) 0.8894(4) 0.0759(4)
H6 H -0.1028 0.9331 0.0492
C23 C 0.0213(6) 0.9177(4) 0.1517(4)
C24 C 0.1222(6) 0.8580(4) 0.1902(4)
H7 H 0.1612 0.8793 0.2437
C25 C 0.1658(6) 0.7667(4) 0.1498(4)
C26 C 0.1490(9) 0.6255(6) 0.0324(6)
H8 H 0.2304 0.5953 0.0615
H9 H 0.1759 0.6341 -0.0334
H10 H 0.0664 0.5794 0.0430
loop_
_geom_bond_atom_site_label_1
_geom_bond_atom_site_label_2
_geom_bond_site_symmetry_1
_geom_bond_site_symmetry_2
O1 N1 1_555 1_555
O2 N2 1_555 1_555
O3 N3 1_555 1_555
O4 N4 1_555 1_555
O5 N5 1_555 1_555
O6 N6 1_555 1_555
N1 C1 1_555 1_555
N2 O1 1_555 1_555
N3 C3 1_555 1_555
N4 O3 1_555 1_555
N5 C5 1_555 1_555
N6 O5 1_555 1_555
C1 C2 1_555 1_555
C2 N2 1_555 1_555
C3 C2 1_555 1_555
C4 N4 1_555 1_555
C5 C4 1_555 1_555
C6 N6 1_555 1_555
O7 N7 1_555 1_555
O8 N8 1_555 1_555
O9 N9 1_555 1_555
O10 N10 1_555 1_555
O11 N11 1_555 1_555
O12 N7 1_555 1_555
N7 C7 1_555 1_555
N8 C8 1_555 1_555
N9 O8 1_555 1_555
N10 C10 1_555 1_555
N11 O10 1_555 1_555
N12 O12 1_555 1_555
C7 C8 1_555 1_555
C8 C9 1_555 1_555
C9 N9 1_555 1_555
C10 C9 1_555 1_555
C11 N11 1_555 1_555
C12 N12 1_555 1_555
O13 N13 1_555 1_555
O14 N13 1_555 1_555
O15 N14 1_555 1_555
O16 N14 1_555 1_555
O17 N15 1_555 1_555
O18 N15 1_555 1_555
N13 C14 1_555 1_555
N14 C16 1_555 1_555
N15 C18 1_555 1_555
C13 C14 1_555 1_555
C14 C15 1_555 1_555
C15 H1 1_555 1_555
C16 C15 1_555 1_555
C17 C16 1_555 1_555
H2 C17 1_555 1_555
C18 C13 1_555 1_555
C19 C13 1_555 1_555
H3 C19 1_555 1_555
H4 C19 1_555 1_555
H5 C19 1_555 1_555
O19 N16 1_555 1_555
O20 N16 1_555 1_555
O21 N17 1_555 1_555
O22 N17 1_555 1_555
O23 N18 1_555 1_555
O24 N18 1_555 1_555
N16 C21 1_555 1_555
N17 C23 1_555 1_555
N18 C25 1_555 1_555
C20 C21 1_555 1_555
C21 C22 1_555 1_555
C22 H6 1_555 1_555
C23 C22 1_555 1_555
C24 C23 1_555 1_555
H7 C24 1_555 1_555
C25 C20 1_555 1_555
C26 C20 1_555 1_555
H8 C26 1_555 1_555
H9 C26 1_555 1_555
H10 C26 1_555 1_555
C1 C6 1_555 1_555
C3 C4 1_555 1_555
C5 C6 1_555 1_555
C7 C12 1_555 1_555
C10 C11 1_555 1_555
C11 C12 1_555 1_555
C17 C18 1_555 1_555
C24 C25 1_555 1_555

#END
