
#######################################################################
#
#                 Cambridge Crystallographic Data Centre
#                                CCDC 
#
#######################################################################
#
# If this CIF has been generated from an entry in the Cambridge 
# Structural Database, then it will include bibliographic, chemical, 
# crystal, experimental, refinement or atomic coordinate data resulting 
# from the CCDC's data processing and validation procedures.
#
#######################################################################

data_GEXMIH
_chemical_formula_moiety         'C6 N6 O6,C6 H4 N4 O6'
_chemical_name_systematic        
"(bis[1,2,5]Oxadiazolo[3,4-e:3',4'-g][2,1,3]benzoxadiazole 1,4,7-trioxide) 2,4,6-trinitroaniline"
_symmetry_cell_setting           monoclinic
_symmetry_space_group_name_H-M   'P 21/c'
_symmetry_Int_Tables_number      14
_space_group_name_Hall           '-P 2ybc'
loop_
_symmetry_equiv_pos_site_id
_symmetry_equiv_pos_as_xyz
1 x,y,z
2 -x,1/2+y,1/2-z
3 -x,-y,-z
4 x,1/2-y,1/2+z
_cell_length_a                   9.4022(2)
_cell_length_b                   12.6746(3)
_cell_length_c                   14.3271(4)
_cell_angle_alpha                90
_cell_angle_beta                 97.406(3)
_cell_angle_gamma                90
_cell_volume                     1693.1
_exptl_crystal_colour            colorless
_exptl_crystal_description       block
_cell_formula_units_Z            4
loop_
_atom_site_label
_atom_site_type_symbol
_atom_site_fract_x
_atom_site_fract_y
_atom_site_fract_z
O1 O 0.2018(4) 0.4208(3) 0.1369(3)
O2 O 0.0385(4) 0.3491(3) 0.0184(2)
O3 O -0.2011(3) 0.0285(3) -0.0226(2)
O4 O -0.1193(3) -0.0711(2) 0.1059(2)
O5 O 0.1923(4) -0.0114(2) 0.3798(2)
O6 O 0.2721(3) 0.1606(3) 0.3700(2)
N1 N 0.1288(4) 0.3459(3) 0.1131(3)
N2 N -0.0343(4) 0.2536(3) 0.0046(3)
N3 N -0.1224(3) 0.0263(3) 0.0545(2)
N4 N -0.0245(4) -0.0568(3) 0.1893(2)
N5 N 0.1901(4) 0.0701(3) 0.3352(2)
N6 N 0.2498(4) 0.2415(3) 0.3032(3)
C1 C 0.1016(4) 0.2527(3) 0.1475(3)
C2 C 0.0042(4) 0.1975(3) 0.0814(3)
C3 C -0.0356(4) 0.0923(3) 0.1038(3)
C4 C 0.0235(4) 0.0409(3) 0.1868(3)
C5 C 0.1234(4) 0.0988(3) 0.2519(3)
C6 C 0.1634(4) 0.2055(3) 0.2343(3)
O7 O 0.4917(4) -0.3384(3) -0.0826(2)
O8 O 0.6299(3) -0.2019(2) -0.0736(2)
O9 O 0.6211(3) 0.0644(2) 0.1491(2)
O10 O 0.4778(3) 0.0573(2) 0.2559(2)
O11 O 0.1953(4) -0.2411(2) 0.2862(2)
O12 O 0.1655(3) -0.3645(2) 0.1832(2)
N7 N 0.3300(3) -0.3744(3) 0.0495(2)
H1 H 0.2699 -0.4109 0.0790
H2 H 0.3608 -0.4005 -0.0012
N8 N 0.5352(3) -0.2549(3) -0.0452(2)
N9 N 0.5287(3) 0.0204(2) 0.1880(2)
N10 N 0.2241(3) -0.2828(3) 0.2145(2)
C7 C 0.3741(4) -0.2807(3) 0.0811(3)
C8 C 0.4739(4) -0.2172(3) 0.0376(2)
C9 C 0.5232(4) -0.1212(3) 0.0716(2)
H3 H 0.5895 -0.0824 0.0403
C10 C 0.4758(4) -0.0811(3) 0.1519(3)
C11 C 0.3793(4) -0.1363(3) 0.1977(2)
H4 H 0.3473 -0.1082 0.2528
C12 C 0.3297(4) -0.2322(3) 0.1631(3)
loop_
_geom_bond_atom_site_label_1
_geom_bond_atom_site_label_2
_geom_bond_site_symmetry_1
_geom_bond_site_symmetry_2
O1 N1 1_555 1_555
O2 N1 1_555 1_555
O3 N3 1_555 1_555
O4 N3 1_555 1_555
O5 N5 1_555 1_555
O6 N5 1_555 1_555
N1 C1 1_555 1_555
N2 O2 1_555 1_555
N3 C3 1_555 1_555
N4 O4 1_555 1_555
N5 C5 1_555 1_555
N6 O6 1_555 1_555
C1 C2 1_555 1_555
C2 N2 1_555 1_555
C3 C2 1_555 1_555
C4 N4 1_555 1_555
C5 C4 1_555 1_555
C6 N6 1_555 1_555
O7 N8 1_555 1_555
O8 N8 1_555 1_555
O9 N9 1_555 1_555
O10 N9 1_555 1_555
O11 N10 1_555 1_555
O12 N10 1_555 1_555
N7 H1 1_555 1_555
H2 N7 1_555 1_555
N8 C8 1_555 1_555
N9 C10 1_555 1_555
N10 C12 1_555 1_555
C7 N7 1_555 1_555
C8 C7 1_555 1_555
C9 C8 1_555 1_555
H3 C9 1_555 1_555
C10 C9 1_555 1_555
C11 C10 1_555 1_555
H4 C11 1_555 1_555
C12 C7 1_555 1_555
C1 C6 1_555 1_555
C3 C4 1_555 1_555
C5 C6 1_555 1_555
C11 C12 1_555 1_555

#END
