
#######################################################################
#
#                 Cambridge Crystallographic Data Centre
#                                CCDC 
#
#######################################################################
#
# If this CIF has been generated from an entry in the Cambridge 
# Structural Database, then it will include bibliographic, chemical, 
# crystal, experimental, refinement or atomic coordinate data resulting 
# from the CCDC's data processing and validation procedures.
#
#######################################################################

data_GEXNEF
_chemical_formula_moiety         'C50 H34 N8 O4 Si1'
_chemical_name_systematic        
(phthalocyaninato)-bis((R)-2-phenylpropanoato)-silicon
_symmetry_cell_setting           orthorhombic
_symmetry_space_group_name_H-M   'P 21 21 21'
_symmetry_Int_Tables_number      19
_space_group_name_Hall           'P 2ac 2ab'
loop_
_symmetry_equiv_pos_site_id
_symmetry_equiv_pos_as_xyz
1 x,y,z
2 1/2-x,-y,1/2+z
3 -x,1/2+y,1/2-z
4 1/2+x,1/2-y,-z
_cell_length_a                   8.45760(10)
_cell_length_b                   20.7860(3)
_cell_length_c                   22.1729(3)
_cell_angle_alpha                90
_cell_angle_beta                 90
_cell_angle_gamma                90
_cell_volume                     3897.99
_exptl_crystal_colour            blue
_exptl_crystal_description       plate
_cell_formula_units_Z            4
_exptl_crystal_recrystallization_method chloroform
loop_
_atom_site_label
_atom_site_type_symbol
_atom_site_fract_x
_atom_site_fract_y
_atom_site_fract_z
C1 C 0.4232(3) 0.59310(12) 0.55349(11)
C2 C 0.3017(3) 0.63324(12) 0.52723(11)
C3 C 0.2944(3) 0.66513(13) 0.47201(12)
H1 H 0.378630 0.662964 0.443763
C4 C 0.1579(4) 0.70025(14) 0.46020(12)
H2 H 0.149157 0.723389 0.423403
C5 C 0.0334(3) 0.70207(13) 0.50158(13)
H3 H -0.058759 0.726016 0.491832
C6 C 0.0399(3) 0.66991(13) 0.55669(12)
H4 H -0.045669 0.670972 0.584407
C7 C 0.1786(3) 0.63614(12) 0.56902(11)
C8 C 0.2262(3) 0.59701(12) 0.61991(11)
C9 C 0.1770(3) 0.54791(12) 0.71101(11)
C10 C 0.0778(3) 0.53534(12) 0.76285(11)
C11 C -0.0748(3) 0.55463(14) 0.77722(12)
H5 H -0.134934 0.580729 0.750575
C12 C -0.1359(3) 0.53423(14) 0.83210(13)
H6 H -0.240135 0.546485 0.843132
C13 C -0.0467(3) 0.49583(14) 0.87167(12)
H7 H -0.090512 0.483820 0.909484
C14 C 0.1037(3) 0.47522(14) 0.85656(11)
H8 H 0.163382 0.448426 0.882757
C15 C 0.1640(3) 0.49558(12) 0.80102(11)
C16 C 0.3129(3) 0.48317(13) 0.77138(11)
C17 C 0.5553(3) 0.43450(12) 0.76779(11)
C18 C 0.6734(3) 0.39090(12) 0.79165(11)
C19 C 0.6733(3) 0.35135(13) 0.84255(11)
H9 H 0.583109 0.348017 0.867896
C20 C 0.8103(4) 0.31723(14) 0.85450(12)
H10 H 0.815176 0.290479 0.889188
C21 C 0.9420(4) 0.32147(13) 0.81623(12)
H11 H 1.034373 0.297578 0.825885
C22 C 0.9418(3) 0.35951(13) 0.76463(12)
H12 H 1.030597 0.361862 0.738485
C23 C 0.8028(3) 0.39415(12) 0.75352(11)
C24 C 0.7608(3) 0.43858(12) 0.70572(11)
C25 C 0.8117(3) 0.48929(12) 0.61623(11)
C26 C 0.9094(3) 0.49957(12) 0.56373(11)
C27 C 1.0617(3) 0.47901(13) 0.55004(11)
H13 H 1.123021 0.455349 0.578252
C28 C 1.1203(3) 0.49454(13) 0.49335(12)
H14 H 1.224092 0.481456 0.482469
C29 C 1.0280(3) 0.52943(14) 0.45178(11)
H15 H 1.070039 0.538742 0.413025
C30 C 0.8782(3) 0.55030(14) 0.46613(11)
H16 H 0.816791 0.574414 0.438277
C31 C 0.8200(3) 0.53464(12) 0.52325(11)
C32 C 0.6696(3) 0.54708(12) 0.55206(11)
C33 C 0.3755(3) 0.39413(13) 0.63154(11)
C34 C 0.3734(3) 0.35393(13) 0.57365(12)
H17 H 0.314292 0.378866 0.542350
C35 C 0.2878(4) 0.29024(15) 0.58271(15)
H18 H 0.272591 0.269214 0.543572
H19 H 0.184653 0.298146 0.601438
H20 H 0.351013 0.262345 0.608940
C36 C 0.5431(3) 0.34747(13) 0.55252(12)
C37 C 0.5951(4) 0.37908(15) 0.50072(13)
H21 H 0.522457 0.403412 0.477336
C38 C 0.7529(4) 0.37525(16) 0.48299(14)
H22 H 0.786714 0.396848 0.447505
C39 C 0.8601(4) 0.34051(16) 0.51639(15)
H23 H 0.967486 0.337938 0.504108
C40 C 0.8097(4) 0.30937(17) 0.56801(16)
H24 H 0.883343 0.285594 0.591479
C41 C 0.6525(4) 0.31251(15) 0.58590(14)
H25 H 0.619471 0.290554 0.621293
C42 C 0.5967(3) 0.64403(13) 0.68569(12)
C43 C 0.5721(4) 0.69711(14) 0.73259(13)
H26 H 0.534540 0.735832 0.709994
C44 C 0.7338(5) 0.7153(2) 0.76030(18)
H27 H 0.811683 0.720933 0.728006
H28 H 0.768781 0.680976 0.787491
H29 H 0.723378 0.755562 0.782969
C45 C 0.4453(4) 0.68173(13) 0.77877(12)
C46 C 0.4779(4) 0.64624(16) 0.82992(14)
H30 H 0.582142 0.630964 0.836857
C47 C 0.3585(6) 0.63266(17) 0.87152(15)
H31 H 0.381267 0.607950 0.906499
C48 C 0.2069(5) 0.65534(19) 0.86159(18)
H32 H 0.125039 0.646006 0.889571
C49 C 0.1756(4) 0.6912(2) 0.81147(18)
H33 H 0.071904 0.707161 0.804711
C50 C 0.2942(4) 0.70417(18) 0.77058(14)
H34 H 0.270801 0.729273 0.735907
N1 N 0.3761(3) 0.57244(10) 0.60996(9)
N2 N 0.1331(2) 0.58625(11) 0.66648(9)
N3 N 0.3189(2) 0.51514(10) 0.71720(9)
N4 N 0.4210(3) 0.44516(11) 0.79557(9)
N5 N 0.6097(2) 0.46208(10) 0.71494(9)
N6 N 0.8579(2) 0.45207(11) 0.66116(9)
N7 N 0.6680(2) 0.51941(10) 0.60858(9)
N8 N 0.5568(3) 0.58034(11) 0.52551(9)
O1 O 0.4213(2) 0.45380(8) 0.61971(7)
O2 O 0.3419(3) 0.37364(10) 0.68068(9)
O3 O 0.5610(2) 0.58509(9) 0.70409(7)
O4 O 0.6489(3) 0.65729(10) 0.63636(9)
Si1 Si 0.49332(8) 0.51787(3) 0.66281(3)
loop_
_geom_bond_atom_site_label_1
_geom_bond_atom_site_label_2
_geom_bond_site_symmetry_1
_geom_bond_site_symmetry_2
C1 C2 1_555 1_555
C2 C3 1_555 1_555
C3 H1 1_555 1_555
C4 C3 1_555 1_555
H2 C4 1_555 1_555
C5 C4 1_555 1_555
H3 C5 1_555 1_555
C6 C5 1_555 1_555
H4 C6 1_555 1_555
C7 C2 1_555 1_555
C8 C7 1_555 1_555
C9 C10 1_555 1_555
C10 C11 1_555 1_555
C11 H5 1_555 1_555
C12 C11 1_555 1_555
H6 C12 1_555 1_555
C13 C12 1_555 1_555
H7 C13 1_555 1_555
C14 C13 1_555 1_555
H8 C14 1_555 1_555
C15 C10 1_555 1_555
C16 C15 1_555 1_555
C17 C18 1_555 1_555
C18 C19 1_555 1_555
C19 H9 1_555 1_555
C20 C19 1_555 1_555
H10 C20 1_555 1_555
C21 C20 1_555 1_555
H11 C21 1_555 1_555
C22 C21 1_555 1_555
H12 C22 1_555 1_555
C23 C18 1_555 1_555
C24 C23 1_555 1_555
C25 C26 1_555 1_555
C26 C27 1_555 1_555
C27 H13 1_555 1_555
C28 C27 1_555 1_555
H14 C28 1_555 1_555
C29 C28 1_555 1_555
H15 C29 1_555 1_555
C30 C29 1_555 1_555
H16 C30 1_555 1_555
C31 C26 1_555 1_555
C32 C31 1_555 1_555
C33 C34 1_555 1_555
C34 H17 1_555 1_555
C35 C34 1_555 1_555
H18 C35 1_555 1_555
H19 C35 1_555 1_555
H20 C35 1_555 1_555
C36 C34 1_555 1_555
C37 C36 1_555 1_555
H21 C37 1_555 1_555
C38 C37 1_555 1_555
H22 C38 1_555 1_555
C39 C38 1_555 1_555
H23 C39 1_555 1_555
C40 C39 1_555 1_555
H24 C40 1_555 1_555
C41 C36 1_555 1_555
H25 C41 1_555 1_555
C42 C43 1_555 1_555
C43 H26 1_555 1_555
C44 C43 1_555 1_555
H27 C44 1_555 1_555
H28 C44 1_555 1_555
H29 C44 1_555 1_555
C45 C43 1_555 1_555
C46 C45 1_555 1_555
H30 C46 1_555 1_555
C47 C46 1_555 1_555
H31 C47 1_555 1_555
C48 C47 1_555 1_555
H32 C48 1_555 1_555
C49 C48 1_555 1_555
H33 C49 1_555 1_555
C50 C45 1_555 1_555
H34 C50 1_555 1_555
N1 C1 1_555 1_555
N2 C8 1_555 1_555
N3 C9 1_555 1_555
N4 C16 1_555 1_555
N5 C17 1_555 1_555
N6 C24 1_555 1_555
N7 C25 1_555 1_555
N8 C1 1_555 1_555
O1 C33 1_555 1_555
O2 C33 1_555 1_555
O3 C42 1_555 1_555
O4 C42 1_555 1_555
Si1 N1 1_555 1_555
C6 C7 1_555 1_555
C8 N1 1_555 1_555
C9 N2 1_555 1_555
C14 C15 1_555 1_555
C16 N3 1_555 1_555
C17 N4 1_555 1_555
C22 C23 1_555 1_555
C24 N5 1_555 1_555
C25 N6 1_555 1_555
C30 C31 1_555 1_555
C32 N7 1_555 1_555
C32 N8 1_555 1_555
C40 C41 1_555 1_555
C49 C50 1_555 1_555
N3 Si1 1_555 1_555
N5 Si1 1_555 1_555
N7 Si1 1_555 1_555
O1 Si1 1_555 1_555
O3 Si1 1_555 1_555

#END
