
#######################################################################
#
#                 Cambridge Crystallographic Data Centre
#                                CCDC 
#
#######################################################################
#
# If this CIF has been generated from an entry in the Cambridge 
# Structural Database, then it will include bibliographic, chemical, 
# crystal, experimental, refinement or atomic coordinate data resulting 
# from the CCDC's data processing and validation procedures.
#
#######################################################################

data_GEXQUY
_chemical_formula_moiety         'C9 H8 N2 O1,1.5(H2 O1)'
_chemical_name_systematic        '4-methyl-1,8-naphthyridin-2(1H)-one hydrate'
_symmetry_cell_setting           triclinic
_symmetry_space_group_name_H-M   'P -1'
_symmetry_Int_Tables_number      2
_space_group_name_Hall           '-P 1'
loop_
_symmetry_equiv_pos_site_id
_symmetry_equiv_pos_as_xyz
1 x,y,z
2 -x,-y,-z
_cell_length_a                   7.0058(2)
_cell_length_b                   9.5456(3)
_cell_length_c                   13.6950(6)
_cell_angle_alpha                79.998(3)
_cell_angle_beta                 83.227(3)
_cell_angle_gamma                85.094(2)
_cell_volume                     893.651
_exptl_crystal_colour            orange
_exptl_crystal_description       plate
_cell_formula_units_Z            4
loop_
_atom_site_label
_atom_site_type_symbol
_atom_site_fract_x
_atom_site_fract_y
_atom_site_fract_z
C1 C 0.67086(13) -0.16911(11) 0.30205(7)
C2 C 0.65922(13) -0.02531(11) 0.29459(7)
H1 H 0.6866 0.0147 0.3498
C3 C 0.60677(13) 0.07017(10) 0.20595(7)
N1 N 0.57216(11) 0.00622(9) 0.12826(6)
H2 H 0.537(2) 0.0638(15) 0.0723(11)
C4 C 0.58128(13) -0.13867(10) 0.13167(7)
N2 N 0.53713(12) -0.18346(9) 0.04980(6)
C5 C 0.63951(14) -0.37718(11) 0.21552(8)
H3 H 0.6756 -0.4438 0.2714
C6 C 0.59411(15) -0.42456(11) 0.13205(8)
H4 H 0.5977 -0.5236 0.1297
C7 C 0.54303(15) -0.32399(11) 0.05150(8)
H5 H 0.5105 -0.3572 -0.0055
C8 C 0.63224(13) -0.23092(10) 0.21769(7)
C9 C 0.71914(16) -0.26543(12) 0.39571(8)
H6 H 0.8342 -0.3272 0.3809
H7 H 0.6109 -0.3242 0.4225
H8 H 0.7440 -0.2079 0.4450
O1 O 0.59086(10) 0.20220(7) 0.19782(5)
C10 C 0.15916(13) 1.00522(11) 0.30567(7)
C11 C 0.16686(13) 0.86576(11) 0.29713(7)
H9 H 0.2020 0.7967 0.3519
C12 C 0.12386(13) 0.81677(10) 0.20796(7)
N3 N 0.07678(11) 0.92146(9) 0.13105(6)
H10 H 0.048(2) 0.8972(15) 0.0729(12)
C13 C 0.06538(13) 1.06478(10) 0.13570(7)
N4 N 0.01092(12) 1.15299(9) 0.05468(6)
C14 C -0.00220(15) 1.29243(11) 0.05778(8)
H11 H -0.0427 1.3560 0.0015
C15 C 0.04000(16) 1.35017(11) 0.13866(9)
H12 H 0.0308 1.4504 0.1370
C16 C 0.09547(15) 1.25847(11) 0.22127(8)
H13 H 0.1256 1.2952 0.2774
C17 C 0.10737(13) 1.11128(10) 0.22236(7)
C18 C 0.19952(15) 1.05146(11) 0.40012(8)
H14 H 0.3073 1.1135 0.3858
H15 H 0.2328 0.9674 0.4487
H16 H 0.0848 1.1037 0.4275
O2 O 0.12659(10) 0.68906(7) 0.19979(5)
O3 O 0.20424(12) 0.49383(8) 0.37121(6)
H17 H 0.316(4) 0.444(3) 0.3671(19)
H18 H 0.194(2) 0.5514(18) 0.3150(14)
O4 O 0.54235(12) 0.31867(8) 0.36946(6)
H19 H 0.666(3) 0.332(2) 0.4020(17)
H20 H 0.572(2) 0.2827(18) 0.3171(14)
O5 O 0.85882(13) 0.36184(9) 0.46336(7)
H21 H 0.969(3) 0.400(2) 0.4298(15)
H22 H 0.824(3) 0.414(3) 0.5184(19)
loop_
_geom_bond_atom_site_label_1
_geom_bond_atom_site_label_2
_geom_bond_site_symmetry_1
_geom_bond_site_symmetry_2
C1 C2 1_555 1_555
C2 H1 1_555 1_555
C3 C2 1_555 1_555
N1 C3 1_555 1_555
H2 N1 1_555 1_555
C4 N1 1_555 1_555
N2 C4 1_555 1_555
C5 H3 1_555 1_555
C6 C5 1_555 1_555
H4 C6 1_555 1_555
C7 N2 1_555 1_555
H5 C7 1_555 1_555
C8 C1 1_555 1_555
C9 C1 1_555 1_555
H6 C9 1_555 1_555
H7 C9 1_555 1_555
H8 C9 1_555 1_555
O1 C3 1_555 1_555
C10 C11 1_555 1_555
C11 H9 1_555 1_555
C12 C11 1_555 1_555
N3 C12 1_555 1_555
H10 N3 1_555 1_555
C13 N3 1_555 1_555
N4 C13 1_555 1_555
C14 N4 1_555 1_555
H11 C14 1_555 1_555
C15 C14 1_555 1_555
H12 C15 1_555 1_555
C16 C15 1_555 1_555
H13 C16 1_555 1_555
C17 C10 1_555 1_555
C18 C10 1_555 1_555
H14 C18 1_555 1_555
H15 C18 1_555 1_555
H16 C18 1_555 1_555
O2 C12 1_555 1_555
O3 H17 1_555 1_555
H18 O3 1_555 1_555
O4 H19 1_555 1_555
H20 O4 1_555 1_555
O5 H21 1_555 1_555
H22 O5 1_555 1_555
C4 C8 1_555 1_555
C5 C8 1_555 1_555
C6 C7 1_555 1_555
C13 C17 1_555 1_555
C16 C17 1_555 1_555

#END
