
#######################################################################
#
#                 Cambridge Crystallographic Data Centre
#                                CCDC 
#
#######################################################################
#
# If this CIF has been generated from an entry in the Cambridge 
# Structural Database, then it will include bibliographic, chemical, 
# crystal, experimental, refinement or atomic coordinate data resulting 
# from the CCDC's data processing and validation procedures.
#
#######################################################################

data_GEXQEF
_chemical_formula_moiety         'C10 H10 N4 O3'
_chemical_name_systematic        
5-Methoxy-3-(5-methoxypyrimidinyl)-4(3H)-pyrimidinone
_symmetry_cell_setting           orthorhombic
_symmetry_space_group_name_H-M   'P n a 21'
_symmetry_Int_Tables_number      33
_space_group_name_Hall           'P 2c -2n'
loop_
_symmetry_equiv_pos_site_id
_symmetry_equiv_pos_as_xyz
1 x,y,z
2 -x,-y,1/2+z
3 1/2-x,1/2+y,1/2+z
4 1/2+x,1/2-y,z
_cell_length_a                   8.321(1)
_cell_length_b                   10.686(1)
_cell_length_c                   12.068(1)
_cell_angle_alpha                90
_cell_angle_beta                 90
_cell_angle_gamma                90
_cell_volume                     1073.06
_exptl_crystal_colour            colorless
_exptl_crystal_description       rods
_chemical_melting_point          '173-174 deg.C'
_cell_formula_units_Z            4
loop_
_atom_site_label
_atom_site_type_symbol
_atom_site_fract_x
_atom_site_fract_y
_atom_site_fract_z
N1 N 0.4822(4) 0.4862(3) 0.1845(3)
C1 C 0.5748(5) 0.4223(4) 0.1083(3)
N2 N 0.5994(5) 0.3036(3) 0.1142(3)
C2 C 0.5283(5) 0.2382(3) 0.1987(3)
C3 C 0.4348(4) 0.2942(3) 0.2759(3)
O1 O 0.3579(3) 0.2373(2) 0.3610(2)
C4 C 0.4046(4) 0.4267(3) 0.2731(3)
O2 O 0.3180(3) 0.4855(2) 0.3360(2)
C5 C 0.4681(5) 0.6194(3) 0.1728(3)
N3 N 0.3894(4) 0.6607(3) 0.0853(3)
C6 C 0.3799(6) 0.7848(4) 0.0742(4)
N4 N 0.4442(5) 0.8695(3) 0.1427(3)
C7 C 0.5262(5) 0.8241(4) 0.2292(4)
C8 C 0.5411(5) 0.6975(3) 0.2487(3)
O3 O 0.6219(3) 0.6427(2) 0.3330(2)
C9 C 0.3701(6) 0.1033(3) 0.3657(4)
C10 C 0.6901(6) 0.7225(4) 0.4171(3)
H1 H 0.632 0.472 0.040
H2 H 0.550 0.141 0.204
H3 H 0.311 0.819 0.005
H4 H 0.585 0.891 0.284
H5 H 0.299 0.066 0.435
H6 H 0.312 0.062 0.290
H7 H 0.489 0.069 0.370
H8 H 0.749 0.662 0.478
H9 H 0.777 0.784 0.382
H10 H 0.596 0.774 0.458
loop_
_geom_bond_atom_site_label_1
_geom_bond_atom_site_label_2
_geom_bond_site_symmetry_1
_geom_bond_site_symmetry_2
N1 C1 1_555 1_555
C1 N2 1_555 1_555
N2 C2 1_555 1_555
C2 C3 1_555 1_555
C3 O1 1_555 1_555
O1 C9 1_555 1_555
C4 N1 1_555 1_555
O2 C4 1_555 1_555
C5 N1 1_555 1_555
N3 C5 1_555 1_555
C6 N3 1_555 1_555
N4 C6 1_555 1_555
C7 N4 1_555 1_555
C8 C5 1_555 1_555
O3 C8 1_555 1_555
C9 H5 1_555 1_555
C10 O3 1_555 1_555
H1 C1 1_555 1_555
H2 C2 1_555 1_555
H3 C6 1_555 1_555
H4 C7 1_555 1_555
H6 C9 1_555 1_555
H7 C9 1_555 1_555
H8 C10 1_555 1_555
H9 C10 1_555 1_555
H10 C10 1_555 1_555
C3 C4 1_555 1_555
C7 C8 1_555 1_555

#END
