
#######################################################################
#
#                 Cambridge Crystallographic Data Centre
#                                CCDC 
#
#######################################################################
#
# If this CIF has been generated from an entry in the Cambridge 
# Structural Database, then it will include bibliographic, chemical, 
# crystal, experimental, refinement or atomic coordinate data resulting 
# from the CCDC's data processing and validation procedures.
#
#######################################################################

data_GEXQOS
_chemical_formula_moiety         'C12 H12 N2 O3'
_chemical_name_systematic        
2-[(2-nitropyridin-3-yl)methylidene]cyclohexan-1-one
_symmetry_cell_setting           monoclinic
_symmetry_space_group_name_H-M   'C 2/c'
_symmetry_Int_Tables_number      15
_space_group_name_Hall           '-C 2yn'
loop_
_symmetry_equiv_pos_site_id
_symmetry_equiv_pos_as_xyz
1 x,y,z
2 -x,y,1/2-z
3 1/2+x,1/2+y,z
4 1/2-x,1/2+y,1/2-z
5 -x,-y,-z
6 x,-y,1/2+z
7 1/2-x,1/2-y,-z
8 1/2+x,1/2-y,1/2+z
_cell_length_a                   7.87923(6)
_cell_length_b                   19.95864(19)
_cell_length_c                   13.93593(11)
_cell_angle_alpha                90
_cell_angle_beta                 92.3804(7)
_cell_angle_gamma                90
_cell_volume                     2189.66
_exptl_crystal_colour            colorless
_exptl_crystal_description       plate
_cell_formula_units_Z            8
loop_
_atom_site_label
_atom_site_type_symbol
_atom_site_fract_x
_atom_site_fract_y
_atom_site_fract_z
C1 C 0.63073(18) 0.53734(6) 0.61918(10)
H1 H 0.5804 0.5742 0.6562
H2 H 0.6164 0.5490 0.5503
C2 C 0.82042(18) 0.53421(6) 0.64554(10)
H3 H 0.8783 0.5727 0.6163
H4 H 0.8381 0.5374 0.7161
C3 C 0.89728(17) 0.46936(7) 0.61051(10)
H5 H 1.0210 0.4692 0.6260
H6 H 0.8798 0.4660 0.5399
C4 C 0.81465(14) 0.40939(6) 0.65824(8)
H7 H 0.8645 0.3675 0.6339
H8 H 0.8389 0.4114 0.7285
C5 C 0.62481(14) 0.40841(6) 0.63842(7)
C6 C 0.53172(15) 0.47419(6) 0.63680(8)
C7 C 0.53099(14) 0.35377(6) 0.61775(7)
H9 H 0.4147 0.3604 0.5996
C8 C 0.59399(13) 0.28426(5) 0.62100(7)
O1 O 0.37862(11) 0.47690(4) 0.64615(6)
C9 C 0.69459(14) 0.26126(6) 0.69964(8)
H10 H 0.7287 0.2916 0.7493
C10 C 0.74470(15) 0.19511(6) 0.70592(9)
H11 H 0.8124 0.1798 0.7595
C11 C 0.69467(15) 0.15121(6) 0.63268(9)
H12 H 0.7309 0.1059 0.6366
N1 N 0.59734(13) 0.17065(5) 0.55698(7)
C12 C 0.55177(13) 0.23422(5) 0.55370(7)
N2 N 0.44632(12) 0.25088(5) 0.46563(7)
O2 O 0.44672(13) 0.30890(5) 0.43750(6)
O3 O 0.36618(12) 0.20584(5) 0.42556(7)
loop_
_geom_bond_atom_site_label_1
_geom_bond_atom_site_label_2
_geom_bond_site_symmetry_1
_geom_bond_site_symmetry_2
C1 H1 1_555 1_555
H2 C1 1_555 1_555
C2 C1 1_555 1_555
H3 C2 1_555 1_555
H4 C2 1_555 1_555
C3 C2 1_555 1_555
H5 C3 1_555 1_555
H6 C3 1_555 1_555
C4 C3 1_555 1_555
H7 C4 1_555 1_555
H8 C4 1_555 1_555
C5 C4 1_555 1_555
C6 C1 1_555 1_555
C7 C5 1_555 1_555
H9 C7 1_555 1_555
C8 C7 1_555 1_555
O1 C6 1_555 1_555
C9 C8 1_555 1_555
H10 C9 1_555 1_555
C10 C9 1_555 1_555
H11 C10 1_555 1_555
C11 C10 1_555 1_555
H12 C11 1_555 1_555
N1 C11 1_555 1_555
C12 C8 1_555 1_555
N2 C12 1_555 1_555
O2 N2 1_555 1_555
O3 N2 1_555 1_555
C5 C6 1_555 1_555
N1 C12 1_555 1_555

#END
