
#######################################################################
#
#                 Cambridge Crystallographic Data Centre
#                                CCDC 
#
#######################################################################
#
# If this CIF has been generated from an entry in the Cambridge 
# Structural Database, then it will include bibliographic, chemical, 
# crystal, experimental, refinement or atomic coordinate data resulting 
# from the CCDC's data processing and validation procedures.
#
#######################################################################

data_GEXREJ
_chemical_formula_moiety         'C12 H15 N1 O1'
_chemical_name_systematic        
2-methoxy-2,3,4,5-tetrahydro-1H-2,5-methano-1-benzazepine
_symmetry_cell_setting           orthorhombic
_symmetry_space_group_name_H-M   'P c c n'
_symmetry_Int_Tables_number      56
_space_group_name_Hall           '-P 2ab 2ac'
loop_
_symmetry_equiv_pos_site_id
_symmetry_equiv_pos_as_xyz
1 x,y,z
2 1/2-x,1/2-y,z
3 -x,1/2+y,1/2-z
4 1/2+x,-y,1/2-z
5 -x,-y,-z
6 1/2+x,1/2+y,-z
7 x,1/2-y,1/2+z
8 1/2-x,y,1/2+z
_cell_length_a                   19.6584(2)
_cell_length_b                   13.03530(10)
_cell_length_c                   7.96330(10)
_cell_angle_alpha                90
_cell_angle_beta                 90
_cell_angle_gamma                90
_cell_volume                     2040.62
_exptl_crystal_colour            colorless
_exptl_crystal_description       needle
_cell_formula_units_Z            8
loop_
_atom_site_label
_atom_site_type_symbol
_atom_site_fract_x
_atom_site_fract_y
_atom_site_fract_z
O1 O 0.55421(4) 0.73334(6) 0.57640(10)
N1 N 0.57649(5) 0.61794(7) 0.35938(11)
H1 H 0.5734(7) 0.6687(10) 0.2885(17)
C1 C 0.59686(5) 0.65149(8) 0.52693(13)
C2 C 0.67127(6) 0.68935(9) 0.53373(14)
H2 H 0.685451 0.715557 0.425227
H3 H 0.676387 0.743251 0.616753
C3 C 0.71361(6) 0.59422(10) 0.58279(15)
H4 H 0.750475 0.583287 0.503843
H5 H 0.732476 0.601802 0.694655
C4 C 0.66233(6) 0.50486(9) 0.57655(14)
H6 H 0.676251 0.447734 0.648795
C5 C 0.59705(6) 0.55673(8) 0.64052(13)
H7 H 0.557235 0.514144 0.622670
H8 H 0.600309 0.575015 0.758318
C6 C 0.65077(6) 0.47071(8) 0.39698(14)
C7 C 0.68014(6) 0.38296(9) 0.32972(17)
H9 H 0.707288 0.341814 0.397626
C8 C 0.66984(7) 0.35535(10) 0.16312(18)
H10 H 0.689527 0.295962 0.120375
C9 C 0.63012(7) 0.41681(10) 0.06164(16)
H11 H 0.623875 0.399405 -0.050566
C10 C 0.59948(6) 0.50420(9) 0.12544(14)
H12 H 0.572362 0.544709 0.056452
C11 C 0.60929(5) 0.53156(8) 0.29349(13)
C12 C 0.48393(6) 0.70687(10) 0.59571(17)
H13 H 0.466334 0.682573 0.490521
H14 H 0.458786 0.766294 0.630615
H15 H 0.479561 0.653998 0.678938
loop_
_geom_bond_atom_site_label_1
_geom_bond_atom_site_label_2
_geom_bond_site_symmetry_1
_geom_bond_site_symmetry_2
O1 C1 1_555 1_555
N1 H1 1_555 1_555
C1 N1 1_555 1_555
C2 C1 1_555 1_555
H2 C2 1_555 1_555
H3 C2 1_555 1_555
C3 C2 1_555 1_555
H4 C3 1_555 1_555
H5 C3 1_555 1_555
C4 C3 1_555 1_555
H6 C4 1_555 1_555
C5 C1 1_555 1_555
H7 C5 1_555 1_555
H8 C5 1_555 1_555
C6 C4 1_555 1_555
C7 C6 1_555 1_555
H9 C7 1_555 1_555
C8 C7 1_555 1_555
H10 C8 1_555 1_555
C9 C8 1_555 1_555
H11 C9 1_555 1_555
C10 C9 1_555 1_555
H12 C10 1_555 1_555
C11 N1 1_555 1_555
C12 O1 1_555 1_555
H13 C12 1_555 1_555
H14 C12 1_555 1_555
H15 C12 1_555 1_555
C4 C5 1_555 1_555
C6 C11 1_555 1_555
C10 C11 1_555 1_555

#END
