
#######################################################################
#
#                 Cambridge Crystallographic Data Centre
#                                CCDC 
#
#######################################################################
#
# If this CIF has been generated from an entry in the Cambridge 
# Structural Database, then it will include bibliographic, chemical, 
# crystal, experimental, refinement or atomic coordinate data resulting 
# from the CCDC's data processing and validation procedures.
#
#######################################################################

data_GEXRAF
_chemical_formula_moiety         'C13 H17 N1 O1'
_chemical_name_systematic        
2-methoxy-1,2,3,4,5,6-hexahydro-2,6-methano-1-benzazocine
_symmetry_cell_setting           monoclinic
_symmetry_space_group_name_H-M   'P 21/c'
_symmetry_Int_Tables_number      14
_space_group_name_Hall           '-P 2ybc'
loop_
_symmetry_equiv_pos_site_id
_symmetry_equiv_pos_as_xyz
1 x,y,z
2 -x,1/2+y,1/2-z
3 -x,-y,-z
4 x,1/2-y,1/2+z
_cell_length_a                   8.5291(3)
_cell_length_b                   18.2560(5)
_cell_length_c                   7.6050(3)
_cell_angle_alpha                90
_cell_angle_beta                 112.547(4)
_cell_angle_gamma                90
_cell_volume                     1093.64
_exptl_crystal_colour            colorless
_exptl_crystal_description       block
_cell_formula_units_Z            4
loop_
_atom_site_label
_atom_site_type_symbol
_atom_site_fract_x
_atom_site_fract_y
_atom_site_fract_z
O1 O 0.62585(11) 0.57896(5) 0.64683(13)
N1 N 0.34191(13) 0.58046(6) 0.43940(15)
H1 H 0.3476(18) 0.5334(9) 0.407(2)
C1 C 0.18082(15) 0.61189(6) 0.36122(17)
C2 C 0.06523(17) 0.58709(7) 0.18526(18)
H2 H 0.0971 0.5488 0.1210
C3 C -0.09473(17) 0.61761(8) 0.1040(2)
H3 H -0.1725 0.6000 -0.0151
C4 C -0.14218(17) 0.67389(7) 0.1959(2)
H4 H -0.2521 0.6950 0.1403
C5 C 0.13323(15) 0.66864(6) 0.45540(17)
C6 C -0.02767(16) 0.69908(7) 0.36970(19)
H5 H -0.0599 0.7380 0.4316
C7 C 0.43720(16) 0.67961(7) 0.66452(18)
H6 H 0.4591 0.7095 0.5677
H7 H 0.5191 0.6943 0.7920
C8 C 0.25522(16) 0.69200(6) 0.65084(18)
H8 H 0.2384 0.7453 0.6691
C9 C 0.45808(15) 0.59849(6) 0.63088(17)
C10 C 0.43077(17) 0.55266(7) 0.78493(18)
H9 H 0.4421 0.5001 0.7600
H10 H 0.5198 0.5649 0.9103
C11 C 0.25655(17) 0.56599(7) 0.79164(19)
H11 H 0.1676 0.5461 0.6748
H12 H 0.2491 0.5399 0.9023
C12 C 0.22526(18) 0.64756(7) 0.80738(19)
H13 H 0.3022 0.6656 0.9338
H14 H 0.1070 0.6550 0.7968
C13 C 0.69481(19) 0.62014(8) 0.5337(2)
H15 H 0.6066 0.6282 0.4070
H16 H 0.7894 0.5930 0.5218
H17 H 0.7358 0.6675 0.5948
loop_
_geom_bond_atom_site_label_1
_geom_bond_atom_site_label_2
_geom_bond_site_symmetry_1
_geom_bond_site_symmetry_2
O1 C9 1_555 1_555
N1 H1 1_555 1_555
C1 N1 1_555 1_555
C2 C1 1_555 1_555
H2 C2 1_555 1_555
C3 C2 1_555 1_555
H3 C3 1_555 1_555
C4 C3 1_555 1_555
H4 C4 1_555 1_555
C5 C1 1_555 1_555
C6 C4 1_555 1_555
H5 C6 1_555 1_555
C7 H6 1_555 1_555
H7 C7 1_555 1_555
C8 C5 1_555 1_555
H8 C8 1_555 1_555
C9 N1 1_555 1_555
C10 C9 1_555 1_555
H9 C10 1_555 1_555
H10 C10 1_555 1_555
C11 C10 1_555 1_555
H11 C11 1_555 1_555
H12 C11 1_555 1_555
C12 C8 1_555 1_555
H13 C12 1_555 1_555
H14 C12 1_555 1_555
C13 O1 1_555 1_555
H15 C13 1_555 1_555
H16 C13 1_555 1_555
H17 C13 1_555 1_555
C5 C6 1_555 1_555
C7 C8 1_555 1_555
C7 C9 1_555 1_555
C11 C12 1_555 1_555

#END
