
#######################################################################
#
#                 Cambridge Crystallographic Data Centre
#                                CCDC 
#
#######################################################################
#
# If this CIF has been generated from an entry in the Cambridge 
# Structural Database, then it will include bibliographic, chemical, 
# crystal, experimental, refinement or atomic coordinate data resulting 
# from the CCDC's data processing and validation procedures.
#
#######################################################################

data_GEXRIN
_chemical_formula_moiety         'C19 H23 N1 O3 S1'
_chemical_name_systematic        
N-[2-(3-hydroxycyclohexyl)phenyl]-4-methylbenzene-1-sulfonamide
_symmetry_cell_setting           triclinic
_symmetry_space_group_name_H-M   'P -1'
_symmetry_Int_Tables_number      2
_space_group_name_Hall           '-P 1'
loop_
_symmetry_equiv_pos_site_id
_symmetry_equiv_pos_as_xyz
1 x,y,z
2 -x,-y,-z
_cell_length_a                   9.4185(4)
_cell_length_b                   12.9752(7)
_cell_length_c                   16.0422(8)
_cell_angle_alpha                70.958(5)
_cell_angle_beta                 77.623(4)
_cell_angle_gamma                78.202(4)
_cell_volume                     1790.8
_exptl_crystal_colour            colorless
_exptl_crystal_description       plate
_cell_formula_units_Z            4
loop_
_atom_site_label
_atom_site_type_symbol
_atom_site_fract_x
_atom_site_fract_y
_atom_site_fract_z
S1 S 1.16430(4) 0.51160(3) 0.70385(3)
O1 O 0.58780(13) 0.79262(10) 0.79752(9)
H1 H 0.514(3) 0.843(2) 0.7840(17)
O2 O 1.22974(14) 0.60582(11) 0.64655(9)
O3 O 1.25326(14) 0.40647(11) 0.72894(10)
N1 N 1.08549(15) 0.54400(11) 0.79492(10)
H2 H 1.043(2) 0.6094(19) 0.7827(14)
C1 C 0.52556(17) 0.70065(13) 0.86332(11)
H3 H 0.4541 0.7280 0.9083
C2 C 0.64863(18) 0.62158(13) 0.90877(11)
H4 H 0.6057 0.5690 0.9619
H5 H 0.7041 0.6629 0.9276
C3 C 0.75452(17) 0.55815(13) 0.84887(10)
H6 H 0.8070 0.6111 0.7994
C4 C 0.66646(18) 0.50305(14) 0.80951(11)
H7 H 0.7332 0.4656 0.7699
H8 H 0.6166 0.4483 0.8574
C5 C 0.55337(19) 0.58753(15) 0.75787(12)
H9 H 0.6031 0.6410 0.7087
H10 H 0.5000 0.5508 0.7333
C6 C 0.44643(18) 0.64600(14) 0.81919(11)
H11 H 0.3905 0.5932 0.8651
H12 H 0.3779 0.7016 0.7850
C7 C 0.86755(18) 0.47276(13) 0.89961(11)
C8 C 0.8177(2) 0.39384(14) 0.97767(11)
H13 H 0.7171 0.3975 0.9980
C9 C 0.9118(2) 0.31017(14) 1.02629(12)
H14 H 0.8746 0.2592 1.0783
C10 C 1.0620(2) 0.30331(15) 0.99654(14)
H15 H 1.1264 0.2466 1.0276
C11 C 1.1152(2) 0.38156(14) 0.92036(13)
H16 H 1.2160 0.3782 0.9012
C12 C 1.01987(18) 0.46554(13) 0.87177(11)
C13 C 1.02306(18) 0.49704(15) 0.65383(11)
C14 C 0.9872(2) 0.39356(16) 0.66757(13)
H17 H 1.0406 0.3307 0.7006
C15 C 0.8700(2) 0.38535(18) 0.63120(15)
H18 H 0.8456 0.3162 0.6401
C16 C 0.7889(2) 0.4780(2) 0.58202(13)
C17 C 0.8295(2) 0.58056(19) 0.56792(13)
H19 H 0.7775 0.6434 0.5337
C18 C 0.9450(2) 0.59119(16) 0.60345(12)
H20 H 0.9702 0.6603 0.5938
C19 C 0.6567(3) 0.4695(3) 0.54696(18)
H21 H 0.5724 0.4666 0.5931
H22 H 0.6748 0.4038 0.5288
H23 H 0.6388 0.5327 0.4967
S2 S 0.06118(4) 1.11363(3) 0.28022(3)
O4 O 0.66816(16) 1.06548(12) 0.22436(14)
H24 H 0.7344 1.0672 0.2495
O5 O 0.04532(13) 1.22686(9) 0.27739(8)
O6 O -0.06524(12) 1.06775(10) 0.27970(9)
N2 N 0.18223(15) 1.10002(11) 0.19337(9)
H25 H 0.253(2) 1.1275(17) 0.1913(14)
C20 C 0.7074(2) 0.97509(17) 0.18705(18)
H26 H 0.7886 0.9908 0.1373
C21 C 0.5745(2) 0.96623(16) 0.15178(15)
H27 H 0.6036 0.9149 0.1166
H28 H 0.5407 1.0376 0.1126
C22 C 0.44666(18) 0.92747(14) 0.22629(13)
H29 H 0.4115 0.9840 0.2572
C23 C 0.4993(2) 0.82013(15) 0.29441(14)
H30 H 0.5287 0.7617 0.2662
H31 H 0.4195 0.7996 0.3431
C24 C 0.6292(2) 0.83365(17) 0.33118(17)
H32 H 0.5978 0.8884 0.3631
H33 H 0.6629 0.7643 0.3730
C25 C 0.7549(2) 0.86913(17) 0.25617(18)
H34 H 0.8345 0.8793 0.2811
H35 H 0.7915 0.8114 0.2276
C26 C 0.32229(19) 0.91853(14) 0.18368(13)
C27 C 0.3297(2) 0.82707(17) 0.15455(17)
H36 H 0.4088 0.7709 0.1644
C28 C 0.2221(2) 0.81758(17) 0.11128(17)
H37 H 0.2286 0.7549 0.0939
C29 C 0.1055(2) 0.90127(16) 0.09415(14)
H38 H 0.0338 0.8956 0.0647
C30 C 0.09643(19) 0.99349(14) 0.12126(12)
H39 H 0.0191 1.0506 0.1089
C31 C 0.20214(18) 1.00177(13) 0.16691(11)
C32 C 0.13835(17) 1.03374(13) 0.37569(11)
C33 C 0.22917(19) 1.07991(14) 0.40725(12)
H40 H 0.2425 1.1533 0.3812
C34 C 0.2992(2) 1.01422(16) 0.47824(13)
H41 H 0.3587 1.0448 0.5004
C35 C 0.28296(19) 0.90377(15) 0.51724(12)
C36 C 0.1889(2) 0.86032(14) 0.48558(12)
H42 H 0.1748 0.7871 0.5121
C37 C 0.11602(19) 0.92467(14) 0.41509(12)
H43 H 0.0531 0.8951 0.3946
C38 C 0.3660(2) 0.83153(18) 0.59121(14)
H44 H 0.4475 0.7858 0.5675
H45 H 0.3018 0.7859 0.6365
H46 H 0.4015 0.8769 0.6167
loop_
_geom_bond_atom_site_label_1
_geom_bond_atom_site_label_2
_geom_bond_site_symmetry_1
_geom_bond_site_symmetry_2
S1 O2 1_555 1_555
O1 H1 1_555 1_555
O3 S1 1_555 1_555
N1 S1 1_555 1_555
H2 N1 1_555 1_555
C1 O1 1_555 1_555
H3 C1 1_555 1_555
C2 C1 1_555 1_555
H4 C2 1_555 1_555
H5 C2 1_555 1_555
C3 C2 1_555 1_555
H6 C3 1_555 1_555
C4 C3 1_555 1_555
H7 C4 1_555 1_555
H8 C4 1_555 1_555
C5 C4 1_555 1_555
H9 C5 1_555 1_555
H10 C5 1_555 1_555
C6 C1 1_555 1_555
H11 C6 1_555 1_555
H12 C6 1_555 1_555
C7 C3 1_555 1_555
C8 C7 1_555 1_555
H13 C8 1_555 1_555
C9 C8 1_555 1_555
H14 C9 1_555 1_555
C10 C9 1_555 1_555
H15 C10 1_555 1_555
C11 C10 1_555 1_555
H16 C11 1_555 1_555
C12 N1 1_555 1_555
C13 S1 1_555 1_555
C14 C13 1_555 1_555
H17 C14 1_555 1_555
C15 C14 1_555 1_555
H18 C15 1_555 1_555
C16 C15 1_555 1_555
C17 C16 1_555 1_555
H19 C17 1_555 1_555
C18 C13 1_555 1_555
H20 C18 1_555 1_555
C19 C16 1_555 1_555
H21 C19 1_555 1_555
H22 C19 1_555 1_555
H23 C19 1_555 1_555
S2 O5 1_555 1_555
O4 H24 1_555 1_555
O6 S2 1_555 1_555
N2 S2 1_555 1_555
H25 N2 1_555 1_555
C20 O4 1_555 1_555
H26 C20 1_555 1_555
C21 C20 1_555 1_555
H27 C21 1_555 1_555
H28 C21 1_555 1_555
C22 C21 1_555 1_555
H29 C22 1_555 1_555
C23 C22 1_555 1_555
H30 C23 1_555 1_555
H31 C23 1_555 1_555
C24 C23 1_555 1_555
H32 C24 1_555 1_555
H33 C24 1_555 1_555
C25 C20 1_555 1_555
H34 C25 1_555 1_555
H35 C25 1_555 1_555
C26 C22 1_555 1_555
C27 C26 1_555 1_555
H36 C27 1_555 1_555
C28 C27 1_555 1_555
H37 C28 1_555 1_555
C29 C28 1_555 1_555
H38 C29 1_555 1_555
C30 C29 1_555 1_555
H39 C30 1_555 1_555
C31 N2 1_555 1_555
C32 S2 1_555 1_555
C33 C32 1_555 1_555
H40 C33 1_555 1_555
C34 C33 1_555 1_555
H41 C34 1_555 1_555
C35 C34 1_555 1_555
C36 C35 1_555 1_555
H42 C36 1_555 1_555
C37 C32 1_555 1_555
H43 C37 1_555 1_555
C38 C35 1_555 1_555
H44 C38 1_555 1_555
H45 C38 1_555 1_555
H46 C38 1_555 1_555
C5 C6 1_555 1_555
C7 C12 1_555 1_555
C11 C12 1_555 1_555
C17 C18 1_555 1_555
C24 C25 1_555 1_555
C26 C31 1_555 1_555
C30 C31 1_555 1_555
C36 C37 1_555 1_555

#END
