
#######################################################################
#
#                 Cambridge Crystallographic Data Centre
#                                CCDC 
#
#######################################################################
#
# If this CIF has been generated from an entry in the Cambridge 
# Structural Database, then it will include bibliographic, chemical, 
# crystal, experimental, refinement or atomic coordinate data resulting 
# from the CCDC's data processing and validation procedures.
#
#######################################################################

data_GEYDOF
_chemical_formula_moiety         'C22 H34 B1 N1 O3'
_chemical_name_systematic        
N-benzyl-4,5,5-trimethyl-3-(4,4,5,5-tetramethyl-1,3,2-dioxaborolan-2-yl)hex-3-enamide
_symmetry_cell_setting           monoclinic
_symmetry_space_group_name_H-M   'P 21/c'
_symmetry_Int_Tables_number      14
_space_group_name_Hall           '-P 2ybc'
loop_
_symmetry_equiv_pos_site_id
_symmetry_equiv_pos_as_xyz
1 x,y,z
2 -x,1/2+y,1/2-z
3 -x,-y,-z
4 x,1/2-y,1/2+z
_cell_length_a                   11.7244(7)
_cell_length_b                   16.4532(10)
_cell_length_c                   23.5845(15)
_cell_angle_alpha                90
_cell_angle_beta                 93.121(2)
_cell_angle_gamma                90
_cell_volume                     4542.79
_exptl_crystal_colour            colorless
_exptl_crystal_description       prismatic
_cell_formula_units_Z            8
loop_
_atom_site_label
_atom_site_type_symbol
_atom_site_fract_x
_atom_site_fract_y
_atom_site_fract_z
N1 N 0.1488(2) 0.26354(16) 0.28554(10)
O1 O 0.25224(15) 0.35243(12) 0.23739(9)
O2 O 0.29015(13) 0.46591(10) 0.15597(8)
O3 O 0.30643(14) 0.33450(11) 0.12657(8)
B1 B 0.2368(3) 0.3904(2) 0.15127(14)
C1 C 0.1659(2) 0.30978(16) 0.24151(11)
C2 C 0.0755(2) 0.31033(18) 0.19390(12)
H1 H 0.0016 0.3214 0.2088
H2 H 0.0720 0.2575 0.1756
C3 C 0.1032(2) 0.37494(16) 0.15102(10)
C4 C 0.0254(2) 0.41149(17) 0.11620(11)
C5 C 0.0657(3) 0.4733(2) 0.07386(14)
H3 H 0.1454 0.4841 0.0816
H4 H 0.0230 0.5227 0.0771
H5 H 0.0540 0.4521 0.0361
C6 C -0.1053(2) 0.3981(2) 0.11388(14)
C7 C -0.1334(9) 0.3060(6) 0.1034(4)
H6 H -0.0972 0.2740 0.1333
H7 H -0.1057 0.2895 0.0676
H8 H -0.2146 0.2981 0.1029
C8 C -0.1524(10) 0.4573(8) 0.1578(5)
H9 H -0.2342 0.4588 0.1533
H10 H -0.1224 0.5108 0.1519
H11 H -0.1298 0.4392 0.1954
C9 C -0.1607(9) 0.4271(7) 0.0541(4)
H12 H -0.1288 0.3962 0.0243
H13 H -0.1450 0.4838 0.0489
H14 H -0.2418 0.4187 0.0532
C10 C 0.4023(2) 0.45953(18) 0.13272(14)
C11 C 0.4209(2) 0.36704(18) 0.12826(14)
C12 C 0.3936(4) 0.5009(3) 0.07514(19)
H15 H 0.3421 0.4709 0.0499
H16 H 0.4677 0.5027 0.0598
H17 H 0.3654 0.5553 0.0793
C13 C 0.4862(3) 0.5054(2) 0.1716(2)
H18 H 0.4627 0.5611 0.1741
H19 H 0.5608 0.5028 0.1568
H20 H 0.4885 0.4813 0.2088
C14 C 0.4787(3) 0.3376(3) 0.07700(19)
H21 H 0.4863 0.2795 0.0787
H22 H 0.5531 0.3619 0.0761
H23 H 0.4339 0.3525 0.0433
C15 C 0.4852(3) 0.3322(2) 0.18197(18)
H24 H 0.4540 0.3550 0.2152
H25 H 0.5648 0.3457 0.1814
H26 H 0.4767 0.2741 0.1825
C16 C 0.2320(2) 0.2515(2) 0.33243(12)
H27 H 0.2919 0.2919 0.3301
H28 H 0.2666 0.1984 0.3289
C17 C 0.1819(2) 0.25767(18) 0.38947(12)
C18 C 0.2157(3) 0.2052(3) 0.43252(16)
H29 H 0.2665 0.1634 0.4255
C19 C 0.1752(5) 0.2137(4) 0.48626(19)
H30 H 0.2003 0.1787 0.5153
C20 C 0.0985(5) 0.2736(4) 0.49658(19)
H31 H 0.0705 0.2790 0.5325
C21 C 0.0635(4) 0.3246(3) 0.45477(18)
H32 H 0.0109 0.3651 0.4618
C22 C 0.1051(3) 0.3173(2) 0.40145(15)
H33 H 0.0805 0.3534 0.3730
H34 H 0.0935(18) 0.2334(15) 0.2815(11)
N2 N 0.8457(2) 0.10857(16) 0.31123(12)
O4 O 0.9798(2) 0.15004(16) 0.25476(11)
O5 O 1.10294(16) 0.09736(13) 0.13054(10)
O6 O 1.10456(16) -0.01555(14) 0.18362(10)
B2 B 1.0392(3) 0.0447(2) 0.15994(14)
C23 C 0.9058(2) 0.10089(18) 0.26585(13)
C24 C 0.8808(2) 0.02894(17) 0.22817(12)
H35 H 0.8007 0.0146 0.2296
H36 H 0.9258 -0.0171 0.2420
C25 C 0.9077(2) 0.04645(16) 0.16713(12)
C26 C 0.8317(2) 0.05795(18) 0.12344(13)
C27 C 0.8722(3) 0.0656(3) 0.06414(14)
H37 H 0.9537 0.0599 0.0651
H38 H 0.8511 0.1180 0.0490
H39 H 0.8375 0.0239 0.0406
C28 C 0.6999(2) 0.0601(2) 0.12664(14)
C29 C 0.6631(3) 0.1147(3) 0.17559(19)
H40 H 0.5827 0.1256 0.1708
H41 H 0.7046 0.1649 0.1753
H42 H 0.6789 0.0875 0.2111
C30 C 0.6554(3) -0.0261(2) 0.13408(19)
H43 H 0.6863 -0.0480 0.1694
H44 H 0.6781 -0.0594 0.1033
H45 H 0.5735 -0.0251 0.1343
C31 C 0.6420(3) 0.0967(3) 0.0728(2)
H46 H 0.6509 0.0606 0.0414
H47 H 0.6765 0.1482 0.0650
H48 H 0.5621 0.1044 0.0782
C32 C 1.2251(17) 0.0787(12) 0.1452(8)
C33 C 1.2146(5) -0.0160(4) 0.1548(3)
C34 C 1.2721(5) 0.1264(4) 0.1929(4)
H49 H 1.2716 0.1829 0.1828
H50 H 1.3492 0.1094 0.2022
H51 H 1.2268 0.1183 0.2251
C35 C 1.2843(17) 0.0912(9) 0.0885(8)
H52 H 1.2417 0.0633 0.0585
H53 H 1.3605 0.0697 0.0920
C36 C 1.2086(6) -0.0676(4) 0.1035(3)
H54 H 1.1849 -0.1214 0.1134
H55 H 1.2825 -0.0701 0.0879
H56 H 1.1545 -0.0450 0.0758
C37 C 1.308(2) -0.0468(15) 0.1993(10)
H57 H 1.3083 -0.0131 0.2326
H58 H 1.3815 -0.0444 0.1833
H59 H 1.2916 -0.1019 0.2095
H60 H 1.2746 0.1401 0.0716
C38 C 0.8606(3) 0.1753(2) 0.35157(17)
H61 H 0.8999 0.2197 0.3338
H62 H 0.9080 0.1572 0.3841
C39 C 0.74863(17) 0.20555(14) 0.37134(10)
C40 C 0.6598(2) 0.22329(15) 0.33182(9)
H63 H 0.6692 0.2150 0.2933
C41 C 0.55708(18) 0.25336(17) 0.34981(16)
H64 H 0.4977 0.2652 0.3234
C42 C 0.5431(2) 0.26569(18) 0.40732(18)
H65 H 0.4743 0.2858 0.4194
C43 C 0.6319(3) 0.24794(19) 0.44684(11)
H66 H 0.6225 0.2562 0.4853
C44 C 0.7346(3) 0.21787(17) 0.42886(9)
H67 H 0.7940 0.2060 0.4553
H68 H 0.802(2) 0.0702(14) 0.3183(12)
C45? C -0.145(2) 0.3134(11) 0.1262(8)
H69? H -0.2127 0.3015 0.1029
H70? H -0.1621 0.3094 0.1655
H71? H -0.0863 0.2752 0.1182
C46? C -0.1534(12) 0.4152(8) 0.1708(6)
H72? H -0.2351 0.4194 0.1662
H73? H -0.1225 0.4653 0.1857
H74? H -0.1333 0.3717 0.1966
C47? C -0.1719(17) 0.4524(11) 0.0747(7)
H75? H -0.1403 0.4512 0.0380
H76? H -0.1689 0.5069 0.0892
H77? H -0.2499 0.4344 0.0714
C48? C 1.2259(8) 0.0163(8) 0.1808(5)
C49? C 1.2221(14) 0.0039(13) 0.0758(6)
H78? H 1.2992 -0.0140 0.0717
H79? H 1.1954 0.0325 0.0422
H80? H 1.1741 -0.0424 0.0813
C50? C 1.289(4) -0.060(2) 0.1874(17)
H81? H 1.2504 -0.1016 0.1653
H82? H 1.2936 -0.0755 0.2267
H83? H 1.3648 -0.0529 0.1746
C51? C 1.2671(11) 0.0741(9) 0.2319(5)
H84? H 1.3441 0.0913 0.2269
H85? H 1.2639 0.0450 0.2670
H86? H 1.2181 0.1208 0.2325
C52? C 1.218(2) 0.0617(14) 0.1283(9)
C53? C 1.2934(17) 0.1265(11) 0.1106(9)
H87? H 1.2873 0.1481 0.0799
H88? H 1.3713 0.1085 0.1146
H89? H 1.2838 0.1736 0.1340
loop_
_geom_bond_atom_site_label_1
_geom_bond_atom_site_label_2
_geom_bond_site_symmetry_1
_geom_bond_site_symmetry_2
N1 C1 1_555 1_555
O1 C1 1_555 1_555
O2 B1 1_555 1_555
O3 B1 1_555 1_555
B1 C3 1_555 1_555
C1 C2 1_555 1_555
C2 H1 1_555 1_555
H2 C2 1_555 1_555
C3 C2 1_555 1_555
C4 C3 1_555 1_555
C5 C4 1_555 1_555
H3 C5 1_555 1_555
H4 C5 1_555 1_555
H5 C5 1_555 1_555
C6 C4 1_555 1_555
C7 C6 1_555 1_555
H6 C7 1_555 1_555
H7 C7 1_555 1_555
H8 C7 1_555 1_555
C8 C6 1_555 1_555
H9 C8 1_555 1_555
H10 C8 1_555 1_555
H11 C8 1_555 1_555
C9 C6 1_555 1_555
H12 C9 1_555 1_555
H13 C9 1_555 1_555
H14 C9 1_555 1_555
C10 O2 1_555 1_555
C11 O3 1_555 1_555
C12 C10 1_555 1_555
H15 C12 1_555 1_555
H16 C12 1_555 1_555
H17 C12 1_555 1_555
C13 C10 1_555 1_555
H18 C13 1_555 1_555
H19 C13 1_555 1_555
H20 C13 1_555 1_555
C14 C11 1_555 1_555
H21 C14 1_555 1_555
H22 C14 1_555 1_555
H23 C14 1_555 1_555
C15 C11 1_555 1_555
H24 C15 1_555 1_555
H25 C15 1_555 1_555
H26 C15 1_555 1_555
C16 N1 1_555 1_555
H27 C16 1_555 1_555
H28 C16 1_555 1_555
C17 C16 1_555 1_555
C18 C17 1_555 1_555
H29 C18 1_555 1_555
C19 C18 1_555 1_555
H30 C19 1_555 1_555
C20 C19 1_555 1_555
H31 C20 1_555 1_555
C21 C20 1_555 1_555
H32 C21 1_555 1_555
C22 C17 1_555 1_555
H33 C22 1_555 1_555
H34 N1 1_555 1_555
N2 C23 1_555 1_555
O4 C23 1_555 1_555
O5 B2 1_555 1_555
O6 B2 1_555 1_555
B2 C25 1_555 1_555
C23 C24 1_555 1_555
C24 H35 1_555 1_555
H36 C24 1_555 1_555
C25 C24 1_555 1_555
C26 C25 1_555 1_555
C27 C26 1_555 1_555
H37 C27 1_555 1_555
H38 C27 1_555 1_555
H39 C27 1_555 1_555
C28 C26 1_555 1_555
C29 C28 1_555 1_555
H40 C29 1_555 1_555
H41 C29 1_555 1_555
H42 C29 1_555 1_555
C30 C28 1_555 1_555
H43 C30 1_555 1_555
H44 C30 1_555 1_555
H45 C30 1_555 1_555
C31 C28 1_555 1_555
H46 C31 1_555 1_555
H47 C31 1_555 1_555
H48 C31 1_555 1_555
C32 O5 1_555 1_555
C33 O6 1_555 1_555
C34 C32 1_555 1_555
H49 C34 1_555 1_555
H50 C34 1_555 1_555
H51 C34 1_555 1_555
C35 C32 1_555 1_555
H52 C35 1_555 1_555
H53 C35 1_555 1_555
C36 C33 1_555 1_555
H54 C36 1_555 1_555
H55 C36 1_555 1_555
H56 C36 1_555 1_555
C37 C33 1_555 1_555
H57 C37 1_555 1_555
H58 C37 1_555 1_555
H59 C37 1_555 1_555
H60 C35 1_555 1_555
C38 N2 1_555 1_555
H61 C38 1_555 1_555
H62 C38 1_555 1_555
C39 C38 1_555 1_555
C40 C39 1_555 1_555
H63 C40 1_555 1_555
C41 C40 1_555 1_555
H64 C41 1_555 1_555
C42 C41 1_555 1_555
H65 C42 1_555 1_555
C43 C42 1_555 1_555
H66 C43 1_555 1_555
C44 C39 1_555 1_555
H67 C44 1_555 1_555
H68 N2 1_555 1_555
C10 C11 1_555 1_555
C21 C22 1_555 1_555
C32 C33 1_555 1_555
C43 C44 1_555 1_555

#END
