
#######################################################################
#
#                 Cambridge Crystallographic Data Centre
#                                CCDC 
#
#######################################################################
#
# If this CIF has been generated from an entry in the Cambridge 
# Structural Database, then it will include bibliographic, chemical, 
# crystal, experimental, refinement or atomic coordinate data resulting 
# from the CCDC's data processing and validation procedures.
#
#######################################################################

data_GEYGOG04
_chemical_formula_moiety         'C30 H28 O4'
_chemical_name_systematic        
1,1',1'',1'''-Ethene-1,1,2,2-tetrayltetrakis(4-methoxybenzene)
_symmetry_cell_setting           monoclinic
_symmetry_space_group_name_H-M   'P 21/c'
_symmetry_Int_Tables_number      14
_space_group_name_Hall           '-P 2ybc'
loop_
_symmetry_equiv_pos_site_id
_symmetry_equiv_pos_as_xyz
1 x,y,z
2 -x,1/2+y,1/2-z
3 -x,-y,-z
4 x,1/2-y,1/2+z
_cell_length_a                   9.689(4)
_cell_length_b                   15.769(9)
_cell_length_c                   18.511(7)
_cell_angle_alpha                90
_cell_angle_beta                 119.760(17)
_cell_angle_gamma                90
_cell_volume                     2455.21
_exptl_crystal_colour            colorless
_exptl_crystal_description       block
_cell_formula_units_Z            4
loop_
_atom_site_label
_atom_site_type_symbol
_atom_site_fract_x
_atom_site_fract_y
_atom_site_fract_z
C1 C 1.1317(3) 0.61891(16) 0.70430(17)
C2 C 1.0803(3) 0.65098(17) 0.62608(17)
H1 H 1.1476 0.6507 0.6037
C3 C 0.9276(3) 0.68394(15) 0.58041(15)
H2 H 0.8935 0.7049 0.5272
C4 C 0.8250(2) 0.68642(14) 0.61209(13)
C5 C 0.8787(3) 0.65166(17) 0.69066(14)
H3 H 0.8111 0.6506 0.7129
C6 C 1.0297(3) 0.61881(18) 0.73624(16)
H4 H 1.0632 0.5964 0.7889
C7 C 0.5548(2) 0.60089(14) 0.46560(13)
H5 H 0.6117 0.5660 0.5116
C8 C 0.4631(3) 0.56418(15) 0.38887(13)
H6 H 0.4574 0.5054 0.3837
C9 C 0.3789(2) 0.61469(15) 0.31921(13)
C10 C 0.3894(3) 0.70109(16) 0.32767(13)
H7 H 0.3348 0.7355 0.2811
C11 C 0.4816(3) 0.73748(15) 0.40597(14)
H8 H 0.4870 0.7963 0.4108
C12 C 0.5656(2) 0.68847(14) 0.47694(12)
C13 C 0.6627(2) 0.72393(14) 0.56241(13)
C14 C 0.6079(2) 0.78432(14) 0.59405(13)
C15 C 0.7094(2) 0.82109(14) 0.67878(13)
C16 C 0.8536(3) 0.85991(16) 0.70279(15)
H9 H 0.8877 0.8656 0.6641
C17 C 0.9490(3) 0.89059(15) 0.78269(15)
H10 H 1.0466 0.9154 0.7976
C18 C 0.8977(2) 0.88403(14) 0.83977(14)
C19 C 0.7518(2) 0.84777(15) 0.81684(14)
H11 H 0.7165 0.8438 0.8552
C20 C 0.6588(2) 0.81752(15) 0.73727(14)
H12 H 0.5599 0.7942 0.7221
C21 C 0.4432(2) 0.81928(14) 0.54851(13)
C22 C 0.4189(3) 0.90628(15) 0.53754(15)
H13 H 0.5063 0.9424 0.5599
C23 C 0.2682(3) 0.94017(17) 0.49426(15)
H14 H 0.2550 0.9985 0.4862
C24 C 0.1368(3) 0.88797(17) 0.46293(14)
C25 C 0.1569(3) 0.80172(17) 0.47459(14)
H15 H 0.0691 0.7660 0.4543
C26 C 0.3095(2) 0.76851(15) 0.51685(14)
H16 H 0.3222 0.7101 0.5241
C27 C 1.3794(4) 0.5694(3) 0.7257(3)
H17 H 1.3243 0.5366 0.6755
H18 H 1.4701 0.5382 0.7661
H19 H 1.4139 0.6220 0.7138
C28 C 0.2077(3) 0.61997(19) 0.17170(14)
H20 H 0.1404 0.6607 0.1777
H21 H 0.1441 0.5828 0.1260
H22 H 0.2831 0.6490 0.1612
C29 C 1.1274(3) 0.95435(17) 0.94618(16)
H23 H 1.2006 0.9161 0.9424
H24 H 1.1707 0.9731 1.0027
H25 H 1.1099 1.0024 0.9108
C30 C -0.1459(3) 0.8797(2) 0.3958(2)
H26 H -0.1488 0.8349 0.3600
H27 H -0.2376 0.9152 0.3662
H28 H -0.1457 0.8557 0.4436
O1 O 1.2809(2) 0.58527(15) 0.75596(14)
O2 O 0.28989(19) 0.57183(12) 0.24588(9)
O3 O 0.98147(19) 0.91228(12) 0.92056(10)
O4 O -0.0073(2) 0.92825(13) 0.42194(11)
loop_
_geom_bond_atom_site_label_1
_geom_bond_atom_site_label_2
_geom_bond_site_symmetry_1
_geom_bond_site_symmetry_2
C1 C2 1_555 1_555
C2 H1 1_555 1_555
C3 C2 1_555 1_555
H2 C3 1_555 1_555
C4 C3 1_555 1_555
C5 C4 1_555 1_555
H3 C5 1_555 1_555
C6 C1 1_555 1_555
H4 C6 1_555 1_555
C7 H5 1_555 1_555
C8 C7 1_555 1_555
H6 C8 1_555 1_555
C9 C8 1_555 1_555
C10 C9 1_555 1_555
H7 C10 1_555 1_555
C11 C10 1_555 1_555
H8 C11 1_555 1_555
C12 C7 1_555 1_555
C13 C4 1_555 1_555
C14 C13 1_555 1_555
C15 C14 1_555 1_555
C16 C15 1_555 1_555
H9 C16 1_555 1_555
C17 C16 1_555 1_555
H10 C17 1_555 1_555
C18 C17 1_555 1_555
C19 C18 1_555 1_555
H11 C19 1_555 1_555
C20 C15 1_555 1_555
H12 C20 1_555 1_555
C21 C14 1_555 1_555
C22 C21 1_555 1_555
H13 C22 1_555 1_555
C23 C22 1_555 1_555
H14 C23 1_555 1_555
C24 C23 1_555 1_555
C25 C24 1_555 1_555
H15 C25 1_555 1_555
C26 C21 1_555 1_555
H16 C26 1_555 1_555
C27 H17 1_555 1_555
H18 C27 1_555 1_555
H19 C27 1_555 1_555
C28 H20 1_555 1_555
H21 C28 1_555 1_555
H22 C28 1_555 1_555
C29 H23 1_555 1_555
H24 C29 1_555 1_555
H25 C29 1_555 1_555
C30 H26 1_555 1_555
H27 C30 1_555 1_555
H28 C30 1_555 1_555
O1 C1 1_555 1_555
O2 C9 1_555 1_555
O3 C18 1_555 1_555
O4 C24 1_555 1_555
C5 C6 1_555 1_555
C11 C12 1_555 1_555
C12 C13 1_555 1_555
C19 C20 1_555 1_555
C25 C26 1_555 1_555
C27 O1 1_555 1_555
C28 O2 1_555 1_555
C29 O3 1_555 1_555
C30 O4 1_555 1_555

#END
