
#######################################################################
#
#                 Cambridge Crystallographic Data Centre
#                                CCDC 
#
#######################################################################
#
# If this CIF has been generated from an entry in the Cambridge 
# Structural Database, then it will include bibliographic, chemical, 
# crystal, experimental, refinement or atomic coordinate data resulting 
# from the CCDC's data processing and validation procedures.
#
#######################################################################

data_GEYGOG03
_chemical_formula_moiety         'C30 H28 O4'
_chemical_name_systematic        
1,1',1'',1'''-Ethene-1,1,2,2-tetrayltetrakis(4-methoxybenzene)
_symmetry_cell_setting           monoclinic
_symmetry_space_group_name_H-M   'C 2'
_symmetry_Int_Tables_number      5
_space_group_name_Hall           'C 2y'
loop_
_symmetry_equiv_pos_site_id
_symmetry_equiv_pos_as_xyz
1 x,y,z
2 -x,y,-z
3 1/2+x,1/2+y,z
4 1/2-x,1/2+y,-z
_cell_length_a                   19.567(12)
_cell_length_b                   5.624(4)
_cell_length_c                   13.776(12)
_cell_angle_alpha                90
_cell_angle_beta                 125.66(3)
_cell_angle_gamma                90
_cell_volume                     1231.72
_cell_formula_units_Z            2
loop_
_atom_site_label
_atom_site_type_symbol
_atom_site_fract_x
_atom_site_fract_y
_atom_site_fract_z
C1 C 0.38075(12) 0.2476(4) 0.09195(15)
C2 C 0.36681(13) 0.0603(4) 0.14273(16)
H1 H 0.3268 -0.0544 0.0943
C3 C 0.41209(12) 0.0424(3) 0.26551(16)
H2 H 0.4015 -0.0837 0.2987
C4 C 0.47311(11) 0.2093(3) 0.34042(15)
C5 C 0.48878(12) 0.3897(4) 0.28684(16)
H3 H 0.5315 0.4984 0.3349
C6 C 0.44249(13) 0.4119(4) 0.16396(17)
H4 H 0.4530 0.5369 0.1301
C7 C 0.51989(11) 0.2068(3) 0.47309(15)
C8 C 0.61360(10) 0.2265(3) 0.54232(14)
C9 C 0.65898(12) 0.0640(4) 0.52476(14)
H5 H 0.6305 -0.0579 0.4695
C10 C 0.74540(12) 0.0793(4) 0.58755(15)
H6 H 0.7747 -0.0323 0.5753
C11 C 0.78799(11) 0.2616(3) 0.66869(15)
C12 C 0.74416(12) 0.4285(4) 0.68566(17)
H7 H 0.7724 0.5533 0.7390
C13 C 0.65789(12) 0.4081(4) 0.62251(18)
H8 H 0.6287 0.5208 0.6345
C14 C 0.3373(2) 0.4578(5) -0.0855(2)
H9 H 0.3920 0.4614 -0.0696
H10 H 0.3294 0.5987 -0.0538
H11 H 0.2951 0.4510 -0.1702
C15 C 0.91833(14) 0.4582(5) 0.8054(2)
H12 H 0.9133 0.4544 0.8707
H13 H 0.8954 0.6046 0.7623
H14 H 0.9766 0.4470 0.8358
O1 O 0.33054(10) 0.2544(3) -0.03074(11)
O2 O 0.87352(8) 0.2640(3) 0.72784(13)
C1A C 0.61925(12) 0.2476(4) 0.90805(15)
C2A C 0.63319(13) 0.0603(4) 0.85727(16)
H1A H 0.6732 -0.0544 0.9057
C3A C 0.58791(12) 0.0424(3) 0.73449(16)
H2A H 0.5985 -0.0837 0.7013
C4A C 0.52689(11) 0.2093(3) 0.65958(15)
C5A C 0.51122(12) 0.3897(4) 0.71316(16)
H3A H 0.4685 0.4984 0.6651
C6A C 0.55751(13) 0.4119(4) 0.83604(17)
H4A H 0.5470 0.5369 0.8699
C7A C 0.48011(11) 0.2068(3) 0.52691(15)
C8A C 0.38640(10) 0.2265(3) 0.45768(14)
C9A C 0.34102(12) 0.0640(4) 0.47524(14)
H5A H 0.3695 -0.0579 0.5305
C10A C 0.25460(12) 0.0793(4) 0.41245(15)
H6A H 0.2253 -0.0323 0.4247
C11A C 0.21201(11) 0.2616(3) 0.33131(15)
C12A C 0.25584(12) 0.4285(4) 0.31434(17)
H7A H 0.2276 0.5533 0.2610
C13A C 0.34211(12) 0.4081(4) 0.37749(18)
H8A H 0.3713 0.5208 0.3655
C14A C 0.6627(2) 0.4578(5) 1.0855(2)
H9A H 0.6080 0.4614 1.0696
H10A H 0.6706 0.5987 1.0538
H11A H 0.7049 0.4510 1.1702
C15A C 0.08167(14) 0.4582(5) 0.1946(2)
H12A H 0.0867 0.4544 0.1293
H13A H 0.1046 0.6046 0.2377
H14A H 0.0234 0.4470 0.1642
O1A O 0.66946(10) 0.2544(3) 1.03074(11)
O2A O 0.12648(8) 0.2640(3) 0.27216(13)
loop_
_geom_bond_atom_site_label_1
_geom_bond_atom_site_label_2
_geom_bond_site_symmetry_1
_geom_bond_site_symmetry_2
C1 C2 1_555 1_555
C2 H1 1_555 1_555
C3 C2 1_555 1_555
H2 C3 1_555 1_555
C4 C3 1_555 1_555
C5 C4 1_555 1_555
H3 C5 1_555 1_555
C6 C1 1_555 1_555
H4 C6 1_555 1_555
C7 C4 1_555 1_555
C8 C7 1_555 1_555
C9 C8 1_555 1_555
H5 C9 1_555 1_555
C10 C9 1_555 1_555
H6 C10 1_555 1_555
C11 C10 1_555 1_555
C12 C11 1_555 1_555
H7 C12 1_555 1_555
C13 C8 1_555 1_555
H8 C13 1_555 1_555
C14 H9 1_555 1_555
H10 C14 1_555 1_555
H11 C14 1_555 1_555
C15 H12 1_555 1_555
H13 C15 1_555 1_555
H14 C15 1_555 1_555
O1 C1 1_555 1_555
O2 C11 1_555 1_555
C1A C2A 1_555 1_555
C2A H1A 1_555 1_555
C3A C2A 1_555 1_555
H2A C3A 1_555 1_555
C4A C3A 1_555 1_555
C5A C4A 1_555 1_555
H3A C5A 1_555 1_555
C6A C1A 1_555 1_555
H4A C6A 1_555 1_555
C7A C7 1_555 1_555
C8A C7A 1_555 1_555
C9A C8A 1_555 1_555
H5A C9A 1_555 1_555
C10A C9A 1_555 1_555
H6A C10A 1_555 1_555
C11A C10A 1_555 1_555
C12A C11A 1_555 1_555
H7A C12A 1_555 1_555
C13A C8A 1_555 1_555
H8A C13A 1_555 1_555
C14A H9A 1_555 1_555
H10A C14A 1_555 1_555
H11A C14A 1_555 1_555
C15A H12A 1_555 1_555
H13A C15A 1_555 1_555
H14A C15A 1_555 1_555
O1A C1A 1_555 1_555
O2A C11A 1_555 1_555
C5 C6 1_555 1_555
C12 C13 1_555 1_555
C14 O1 1_555 1_555
C15 O2 1_555 1_555
C4A C7A 1_555 1_555
C5A C6A 1_555 1_555
C12A C13A 1_555 1_555
C14A O1A 1_555 1_555
C15A O2A 1_555 1_555

#END
