
#######################################################################
#
#                 Cambridge Crystallographic Data Centre
#                                CCDC 
#
#######################################################################
#
# If this CIF has been generated from an entry in the Cambridge 
# Structural Database, then it will include bibliographic, chemical, 
# crystal, experimental, refinement or atomic coordinate data resulting 
# from the CCDC's data processing and validation procedures.
#
#######################################################################

data_GEYNIH
_chemical_formula_moiety         'C10 H8 S8 1+,C10 H8 S8,Cl1 O4 1-,C4 H8 O1'
_chemical_name_systematic        
"bis(4,5-Methylenedithio-4',5'-propylenedithiotetrathiafulvalene) perchlorate tetrahydrofuran solvate"
_symmetry_cell_setting           triclinic
_symmetry_space_group_name_H-M   'P -1'
_symmetry_Int_Tables_number      2
_space_group_name_Hall           '-P 1'
loop_
_symmetry_equiv_pos_site_id
_symmetry_equiv_pos_as_xyz
1 x,y,z
2 -x,-y,-z
_cell_length_a                   9.110(2)
_cell_length_b                   12.501(4)
_cell_length_c                   16.611(6)
_cell_angle_alpha                104.46(2)
_cell_angle_beta                 88.47(2)
_cell_angle_gamma                102.42(2)
_cell_volume                     1788.2
_cell_formula_units_Z            2
loop_
_atom_site_label
_atom_site_type_symbol
_atom_site_fract_x
_atom_site_fract_y
_atom_site_fract_z
S1 S 0.2725(2) 0.18728(10) -0.45595(8)
S2 S 0.2849(2) 0.42342(10) -0.46108(8)
S3 S 0.0539(2) 0.09711(10) -0.62016(8)
S4 S 0.0587(2) 0.33576(10) -0.62199(8)
S5 S 0.50024(15) 0.25073(11) -0.31649(8)
S6 S 0.5135(2) 0.52228(10) -0.32126(8)
S7 S -0.1593(2) 0.01307(11) -0.77380(9)
S8 S -0.1630(2) 0.25116(11) -0.77196(8)
C1 C 0.2153(5) 0.2793(4) -0.5069(3)
C2 C 0.1199(5) 0.2425(4) -0.5735(3)
C3 C 0.3946(5) 0.2938(4) -0.3843(3)
C4 C 0.4011(5) 0.4022(4) -0.3864(3)
C5 C -0.0465(5) 0.1199(4) -0.6996(3)
C6 C -0.0458(5) 0.2281(4) -0.6994(3)
C7 C 0.4320(6) 0.3097(4) -0.2145(3)
C8 C 0.4353(6) 0.5149(4) -0.2200(3)
C9 C 0.4917(6) 0.4364(4) -0.1770(3)
C10 C -0.1802(7) 0.1085(4) -0.8371(3)
H1 H 0.4575 0.2661 -0.1753
H2 H 0.3191 0.2963 -0.2196
H3 H 0.3215 0.4880 -0.2279
H4 H 0.4556 0.5938 -0.1825
H5 H 0.6053 0.4522 -0.1788
H6 H 0.4645 0.4545 -0.1159
H7 H -0.2825 0.0808 -0.8629
H8 H -0.1017 0.1060 -0.8779
S9 S -0.1818(2) 0.36449(10) -0.43285(8)
S10 S -0.19087(15) 0.13095(10) -0.42910(8)
S11 S -0.4094(2) 0.27471(10) -0.59388(8)
S12 S -0.4009(2) 0.04021(10) -0.59488(8)
S13 S 0.0317(2) 0.46637(10) -0.28788(8)
S14 S 0.0189(2) 0.19264(11) -0.28265(8)
S15 S -0.6066(2) 0.18987(11) -0.75319(9)
S16 S -0.5861(2) -0.04690(11) -0.75778(9)
C11 C -0.2457(5) 0.2219(4) -0.4791(3)
C12 C -0.3398(5) 0.1831(4) -0.5491(3)
C13 C -0.0760(5) 0.3450(4) -0.3537(3)
C14 C -0.0796(5) 0.2369(4) -0.3524(3)
C15 C -0.5102(5) 0.1681(4) -0.6724(3)
C16 C -0.5052(5) 0.0599(4) -0.6734(3)
C17 C -0.0392(6) 0.4601(4) -0.1857(3)
C18 C -0.0560(6) 0.2545(5) -0.1834(3)
C19 C 0.0127(7) 0.3772(5) -0.1446(3)
C20 C -0.6739(7) 0.0415(4) -0.8005(4)
H9 H -0.1536 0.4368 -0.1911
H10 H -0.0132 0.5387 -0.1479
H11 H -0.0460 0.2069 -0.1435
H12 H -0.1681 0.2481 -0.1925
H13 H -0.0087 0.3965 -0.0824
H14 H 0.1273 0.3890 -0.1482
H15 H -0.6564 0.0262 -0.8627
H16 H -0.7870 0.0207 -0.7936
C21 C 0.2130(11) 0.1184(6) 0.0196(5)
C22 C 0.2364(9) 0.2023(8) -0.0305(4)
C23 C 0.2574(10) 0.3123(7) 0.0325(5)
C24 C 0.1969(8) 0.2882(5) 0.1082(4)
O1 O 0.1866(5) 0.1714(3) 0.1030(3)
H17 H 0.3029 0.0818 0.0158
H18 H 0.1227 0.0550 -0.0057
H19 H 0.1512 0.1906 -0.0717
H20 H 0.3318 0.1967 -0.0674
H21 H 0.2075 0.3661 0.0134
H22 H 0.3699 0.3495 0.0415
H23 H 0.0936 0.3081 0.1160
H24 H 0.2623 0.3377 0.1579
Cl1 Cl 0.7037(2) 0.2582(2) 1.00612(10)
O2 O 0.6333(8) 0.2351(10) 0.9333(4)
O3 O 0.8230(11) 0.2083(11) 0.9932(5)
O4 O 0.6148(6) 0.2346(6) 1.0707(4)
O5 O 0.806(3) 0.353(3) 1.0402(9)
loop_
_geom_bond_atom_site_label_1
_geom_bond_atom_site_label_2
_geom_bond_site_symmetry_1
_geom_bond_site_symmetry_2
S1 C1 1_555 1_555
S2 C1 1_555 1_555
S3 C2 1_555 1_555
S4 C2 1_555 1_555
S5 C3 1_555 1_555
S6 C4 1_555 1_555
S7 C5 1_555 1_555
S8 C6 1_555 1_555
C1 C2 1_555 1_555
C3 S1 1_555 1_555
C4 S2 1_555 1_555
C5 S3 1_555 1_555
C6 S4 1_555 1_555
C7 S5 1_555 1_555
C8 S6 1_555 1_555
C9 C7 1_555 1_555
C10 S7 1_555 1_555
S9 C11 1_555 1_555
S10 C11 1_555 1_555
S11 C12 1_555 1_555
S12 C12 1_555 1_555
S13 C13 1_555 1_555
S14 C14 1_555 1_555
S15 C15 1_555 1_555
S16 C16 1_555 1_555
C11 C12 1_555 1_555
C13 S9 1_555 1_555
C14 S10 1_555 1_555
C15 S11 1_555 1_555
C16 S12 1_555 1_555
C17 S13 1_555 1_555
C18 S14 1_555 1_555
C19 C17 1_555 1_555
C20 S15 1_555 1_555
C21 C22 1_555 1_555
C22 C23 1_555 1_555
C23 C24 1_555 1_555
C24 O1 1_555 1_555
O1 C21 1_555 1_555
Cl1 O2 1_555 1_555
O3 Cl1 1_555 1_555
O4 Cl1 1_555 1_555
O5 Cl1 1_555 1_555
H1 C7 1_555 1_555
H2 C7 1_555 1_555
H3 C8 1_555 1_555
H4 C8 1_555 1_555
H5 C9 1_555 1_555
H6 C9 1_555 1_555
H7 C10 1_555 1_555
H8 C10 1_555 1_555
H9 C17 1_555 1_555
H10 C17 1_555 1_555
H11 C18 1_555 1_555
H12 C18 1_555 1_555
H13 C19 1_555 1_555
H14 C19 1_555 1_555
H15 C20 1_555 1_555
H16 C20 1_555 1_555
H17 C21 1_555 1_555
H18 C21 1_555 1_555
H19 C22 1_555 1_555
H20 C22 1_555 1_555
H21 C23 1_555 1_555
H22 C23 1_555 1_555
H23 C24 1_555 1_555
H24 C24 1_555 1_555
S8 C10 1_555 1_555
C3 C4 1_555 1_555
C5 C6 1_555 1_555
C8 C9 1_555 1_555
S16 C20 1_555 1_555
C13 C14 1_555 1_555
C15 C16 1_555 1_555
C18 C19 1_555 1_555

#END
