
#######################################################################
#
#                 Cambridge Crystallographic Data Centre
#                                CCDC 
#
#######################################################################
#
# If this CIF has been generated from an entry in the Cambridge 
# Structural Database, then it will include bibliographic, chemical, 
# crystal, experimental, refinement or atomic coordinate data resulting 
# from the CCDC's data processing and validation procedures.
#
#######################################################################

data_GEYYUE
_chemical_formula_moiety         'C28 H18 O2,C4 H7 Cl1 O2'
_chemical_name_systematic        
"(S)-(-)-10,10'-Dihydroxy-9,9'-biphenanthryl (S)-(-)-methyl 2-chloro-propionate"
_symmetry_cell_setting           orthorhombic
_symmetry_space_group_name_H-M   'P 21 21 21'
_symmetry_Int_Tables_number      19
_space_group_name_Hall           'P 2ac 2ab'
loop_
_symmetry_equiv_pos_site_id
_symmetry_equiv_pos_as_xyz
1 x,y,z
2 1/2+x,1/2-y,-z
3 -x,1/2+y,1/2-z
4 1/2-x,-y,1/2+z
_cell_length_a                   11.705(1)
_cell_length_b                   13.628(2)
_cell_length_c                   15.910(1)
_cell_angle_alpha                90
_cell_angle_beta                 90
_cell_angle_gamma                90
_cell_volume                     2537.9
_cell_formula_units_Z            4
loop_
_atom_site_label
_atom_site_type_symbol
_atom_site_fract_x
_atom_site_fract_y
_atom_site_fract_z
C1 C 0.3687(5) 0.0753(4) 0.1234(4)
C2 C 0.4434(5) 0.0826(4) 0.0597(4)
C3 C 0.4454(5) 0.0198(4) -0.0135(3)
C4 C 0.5273(5) 0.0284(5) -0.0766(4)
C5 C 0.5305(6) -0.0363(5) -0.1426(4)
C6 C 0.4476(5) -0.1108(5) -0.1478(4)
C7 C 0.3664(5) -0.1196(4) -0.0867(4)
C8 C 0.3631(5) -0.0544(4) -0.0179(4)
C9 C 0.2771(5) -0.0639(4) 0.0480(4)
C10 C 0.1907(6) -0.1357(5) 0.0461(4)
C11 C 0.1141(5) -0.1460(6) 0.1106(5)
C12 C 0.1206(6) -0.0857(5) 0.1802(4)
C13 C 0.2035(5) -0.0139(5) 0.1837(4)
C14 C 0.2824(5) -0.0008(4) 0.1189(4)
C15 C 0.3738(5) 0.1458(5) 0.1944(3)
C16 C 0.2906(5) 0.2147(4) 0.2057(3)
C17 C 0.2905(5) 0.2804(4) 0.2755(4)
C18 C 0.1977(5) 0.3458(4) 0.2881(4)
C19 C 0.1989(6) 0.4081(5) 0.3557(4)
C20 C 0.2895(6) 0.4071(5) 0.4113(4)
C21 C 0.3796(5) 0.3443(5) 0.4020(4)
C22 C 0.3817(5) 0.2778(4) 0.3324(4)
C23 C 0.4717(5) 0.2075(4) 0.3219(4)
C24 C 0.5666(6) 0.2006(5) 0.3766(4)
C25 C 0.6479(6) 0.1301(6) 0.3679(4)
C26 C 0.6426(6) 0.0633(5) 0.3034(4)
C27 C 0.5500(5) 0.0675(5) 0.2479(4)
C28 C 0.4650(5) 0.1394(5) 0.2532(4)
O1 O 0.5259(3) 0.1552(3) 0.0595(3)
O2 O 0.1980(3) 0.2231(3) 0.15410(24)
H1 H 0.506 0.187 0.033
H2 H 0.213 0.184 0.102
H3 H 0.585 0.080 -0.074
H4 H 0.586 -0.033 -0.188
H5 H 0.445 -0.156 -0.194
H6 H 0.309 -0.172 -0.092
H7 H 0.186 -0.181 -0.001
H8 H 0.055 -0.196 0.104
H9 H 0.065 -0.097 0.227
H10 H 0.203 0.032 0.232
H11 H 0.132 0.351 0.249
H12 H 0.134 0.453 0.364
H13 H 0.287 0.452 0.458
H14 H 0.440 0.342 0.442
H15 H 0.568 0.247 0.422
H16 H 0.711 0.126 0.409
H17 H 0.698 0.012 0.299
H18 H 0.544 0.020 0.202
C29 C 0.9069(6) 0.2042(6) 0.1440(5)
C30 C 0.8023(6) 0.1863(5) 0.0918(4)
C31 C 0.7300(5) 0.2764(5) 0.0796(4)
C32 C 0.6132(7) 0.3880(6) 0.1539(5)
O3 O 0.7121(4) 0.3204(3) 0.0170(3)
O4 O 0.6842(4) 0.2998(4) 0.1530(3)
Cl1 Cl 0.83741(18) 0.13626(16) -0.00885(13)
H19 H 0.958 0.147 0.145
H20 H 0.899 0.230 0.195
H21 H 0.949 0.252 0.106
H22 H 0.756 0.135 0.121
H23 H 0.659 0.446 0.138
H24 H 0.588 0.403 0.210
H25 H 0.553 0.378 0.117
loop_
_geom_bond_atom_site_label_1
_geom_bond_atom_site_label_2
_geom_bond_site_symmetry_1
_geom_bond_site_symmetry_2
C1 C2 1_555 1_555
C2 C3 1_555 1_555
C3 C4 1_555 1_555
C4 C5 1_555 1_555
C5 C6 1_555 1_555
C6 C7 1_555 1_555
C7 C8 1_555 1_555
C8 C3 1_555 1_555
C9 C8 1_555 1_555
C10 C9 1_555 1_555
C11 C10 1_555 1_555
C12 C11 1_555 1_555
C13 C12 1_555 1_555
C14 C1 1_555 1_555
C15 C1 1_555 1_555
C16 C15 1_555 1_555
C17 C16 1_555 1_555
C18 C17 1_555 1_555
C19 C18 1_555 1_555
C20 C19 1_555 1_555
C21 C20 1_555 1_555
C22 C17 1_555 1_555
C23 C22 1_555 1_555
C24 C23 1_555 1_555
C25 C24 1_555 1_555
C26 C25 1_555 1_555
C27 C26 1_555 1_555
C28 C15 1_555 1_555
O1 C2 1_555 1_555
O2 C16 1_555 1_555
H1 O1 1_555 1_555
H2 O2 1_555 1_555
H3 C4 1_555 1_555
H4 C5 1_555 1_555
H5 C6 1_555 1_555
H6 C7 1_555 1_555
H7 C10 1_555 1_555
H8 C11 1_555 1_555
H9 C12 1_555 1_555
H10 C13 1_555 1_555
H11 C18 1_555 1_555
H12 C19 1_555 1_555
H13 C20 1_555 1_555
H14 C21 1_555 1_555
H15 C24 1_555 1_555
H16 C25 1_555 1_555
H17 C26 1_555 1_555
H18 C27 1_555 1_555
C29 C30 1_555 1_555
C30 C31 1_555 1_555
C31 O3 1_555 1_555
C32 O4 1_555 1_555
O4 C31 1_555 1_555
Cl1 C30 1_555 1_555
H19 C29 1_555 1_555
H20 C29 1_555 1_555
H21 C29 1_555 1_555
H22 C30 1_555 1_555
H23 C32 1_555 1_555
H24 C32 1_555 1_555
H25 C32 1_555 1_555
C9 C14 1_555 1_555
C13 C14 1_555 1_555
C21 C22 1_555 1_555
C23 C28 1_555 1_555
C27 C28 1_555 1_555

#END
