
#######################################################################
#
#                 Cambridge Crystallographic Data Centre
#                                CCDC 
#
#######################################################################
#
# If this CIF has been generated from an entry in the Cambridge 
# Structural Database, then it will include bibliographic, chemical, 
# crystal, experimental, refinement or atomic coordinate data resulting 
# from the CCDC's data processing and validation procedures.
#
#######################################################################

data_GEZBOF
_chemical_formula_moiety         'C21 H19 N1 O3'
_chemical_name_systematic        
3-ethenyl-4-hydroxy-6-methyl-3-phenyl-2,3-dihydro-4H-furo[2,3-b][1]benzopyran-3a(9aH)-carbonitrile
_symmetry_cell_setting           orthorhombic
_symmetry_space_group_name_H-M   'P 21 21 21'
_symmetry_Int_Tables_number      19
_space_group_name_Hall           'P 2ac 2ab'
loop_
_symmetry_equiv_pos_site_id
_symmetry_equiv_pos_as_xyz
1 x,y,z
2 1/2-x,-y,1/2+z
3 1/2+x,1/2-y,-z
4 -x,1/2+y,1/2-z
_cell_length_a                   7.0542(2)
_cell_length_b                   14.1154(4)
_cell_length_c                   17.6777(5)
_cell_angle_alpha                90
_cell_angle_beta                 90
_cell_angle_gamma                90
_cell_volume                     1760.22
_exptl_crystal_colour            colorless
_exptl_crystal_description       block
_cell_formula_units_Z            4
loop_
_atom_site_label
_atom_site_type_symbol
_atom_site_fract_x
_atom_site_fract_y
_atom_site_fract_z
C1 C 0.4455(4) 0.54962(19) -0.01146(15)
C2 C 0.6556(4) 0.5272(2) -0.02042(19)
H1 H 0.7381 0.5735 -0.0026
C3 C 0.7332(7) 0.4556(4) -0.0483(4)
H2 H 0.6593 0.4064 -0.0672
H3 H 0.8647 0.4515 -0.0500
C4 C 0.4014(4) 0.64185(19) -0.05615(15)
H4 H 0.4911 0.6497 -0.0973
H5 H 0.2746 0.6391 -0.0773
C5 C 0.4961(4) 0.68524(18) 0.06532(15)
H6 H 0.6336 0.6793 0.0590
C6 C 0.4093(4) 0.58498(18) 0.07180(15)
C7 C 0.5106(4) 0.5319(2) 0.13016(16)
C8 C 0.1950(4) 0.59023(18) 0.09508(15)
H7 H 0.1626 0.5299 0.1192
C9 C 0.1625(4) 0.66761(19) 0.15286(15)
C10 C 0.2895(4) 0.74235(19) 0.16172(15)
C11 C 0.2516(5) 0.8154(2) 0.21220(17)
H8 H 0.3374 0.8649 0.2181
C12 C 0.0863(5) 0.8141(2) 0.25325(17)
H9 H 0.0622 0.8629 0.2872
C13 C -0.0468(5) 0.7413(2) 0.24540(16)
C14 C -0.0035(4) 0.6686(2) 0.19528(16)
H10 H -0.0887 0.6187 0.1899
C15 C -0.2289(6) 0.7412(3) 0.2899(2)
H11 H -0.3018 0.6861 0.2769
H12 H -0.3004 0.7971 0.2780
H13 H -0.2007 0.7402 0.3430
C16 C 0.3292(4) 0.4648(2) -0.03715(16)
C17 C 0.2898(5) 0.3898(2) 0.01060(18)
H14 H 0.3235 0.3936 0.0614
C18 C 0.2006(6) 0.3087(2) -0.0162(2)
H15 H 0.1733 0.2593 0.0169
C19 C 0.1522(5) 0.3009(2) -0.0916(2)
H16 H 0.0940 0.2463 -0.1097
C20 C 0.1909(5) 0.3746(2) -0.13959(18)
H17 H 0.1583 0.3697 -0.1904
C21 C 0.2780(5) 0.4564(2) -0.11336(17)
H18 H 0.3025 0.5060 -0.1466
N1 N 0.5857(5) 0.4928(2) 0.17846(17)
O1 O 0.0729(3) 0.60157(13) 0.03234(10)
H19 H 0.0505 0.6580 0.0261
O2 O 0.4166(3) 0.72020(12) -0.00335(11)
O3 O 0.4600(3) 0.74820(13) 0.12412(11)
loop_
_geom_bond_atom_site_label_1
_geom_bond_atom_site_label_2
_geom_bond_site_symmetry_1
_geom_bond_site_symmetry_2
C1 C2 1_555 1_555
C2 H1 1_555 1_555
C3 C2 1_555 1_555
H2 C3 1_555 1_555
H3 C3 1_555 1_555
C4 C1 1_555 1_555
H4 C4 1_555 1_555
H5 C4 1_555 1_555
C5 H6 1_555 1_555
C6 C1 1_555 1_555
C7 C6 1_555 1_555
C8 C6 1_555 1_555
H7 C8 1_555 1_555
C9 C8 1_555 1_555
C10 C9 1_555 1_555
C11 C10 1_555 1_555
H8 C11 1_555 1_555
C12 C11 1_555 1_555
H9 C12 1_555 1_555
C13 C12 1_555 1_555
C14 C9 1_555 1_555
H10 C14 1_555 1_555
C15 C13 1_555 1_555
H11 C15 1_555 1_555
H12 C15 1_555 1_555
H13 C15 1_555 1_555
C16 C1 1_555 1_555
C17 C16 1_555 1_555
H14 C17 1_555 1_555
C18 C17 1_555 1_555
H15 C18 1_555 1_555
C19 C18 1_555 1_555
H16 C19 1_555 1_555
C20 C19 1_555 1_555
H17 C20 1_555 1_555
C21 C16 1_555 1_555
H18 C21 1_555 1_555
N1 C7 1_555 1_555
O1 C8 1_555 1_555
H19 O1 1_555 1_555
O2 C4 1_555 1_555
O3 C5 1_555 1_555
C5 C6 1_555 1_555
C5 O2 1_555 1_555
C10 O3 1_555 1_555
C13 C14 1_555 1_555
C20 C21 1_555 1_555

#END
