
#######################################################################
#
#                 Cambridge Crystallographic Data Centre
#                                CCDC 
#
#######################################################################
#
# If this CIF has been generated from an entry in the Cambridge 
# Structural Database, then it will include bibliographic, chemical, 
# crystal, experimental, refinement or atomic coordinate data resulting 
# from the CCDC's data processing and validation procedures.
#
#######################################################################

data_GEZBEV
_chemical_formula_moiety         'C20 H14 N2 O5'
_chemical_name_systematic        
(3R,3aR,9aS)-3-ethenyl-6-nitro-4-oxo-3-phenyl-2,3-dihydro-4H-furo[2,3-b][1]benzopyran-3a(9aH)-carbonitrile
_symmetry_cell_setting           orthorhombic
_symmetry_space_group_name_H-M   'P 21 21 21'
_symmetry_Int_Tables_number      19
_space_group_name_Hall           'P 2ac 2ab'
loop_
_symmetry_equiv_pos_site_id
_symmetry_equiv_pos_as_xyz
1 x,y,z
2 1/2-x,-y,1/2+z
3 1/2+x,1/2-y,-z
4 -x,1/2+y,1/2-z
_cell_length_a                   6.6428(3)
_cell_length_b                   14.2542(6)
_cell_length_c                   17.8105(7)
_cell_angle_alpha                90
_cell_angle_beta                 90
_cell_angle_gamma                90
_cell_volume                     1686.44
_exptl_crystal_colour            colorless
_exptl_crystal_description       block
_cell_formula_units_Z            4
loop_
_atom_site_label
_atom_site_type_symbol
_atom_site_fract_x
_atom_site_fract_y
_atom_site_fract_z
C1 C 0.3551(2) 1.01367(11) 0.62586(9)
H1 H 0.4064 1.0647 0.6573
C2 C 0.0794(3) 1.18855(11) 0.40369(9)
C3 C 0.2779(3) 1.16563(12) 0.38650(9)
H2 H 0.3361 1.1857 0.3418
C4 C 0.3862(3) 1.11274(12) 0.43688(9)
H3 H 0.5191 1.0969 0.4265
C5 C 0.2969(2) 1.08294(11) 0.50340(9)
C6 C 0.0969(2) 1.10598(10) 0.52012(8)
C7 C -0.0123(3) 1.16020(10) 0.46927(8)
H4 H -0.1448 1.1770 0.4794
C8 C 0.0006(2) 1.07338(10) 0.58976(9)
C9 C 0.1263(2) 1.00340(11) 0.63609(8)
C10 C 0.0907(2) 0.89513(11) 0.61425(9)
C11 C 0.3009(3) 0.85387(12) 0.63222(11)
H5 H 0.2922 0.8126 0.6754
H6 H 0.3493 0.8176 0.5898
C12 C 0.0792(3) 1.01817(11) 0.71607(9)
C13 C -0.0728(3) 0.85337(12) 0.66358(9)
H7 H -0.1900 0.8883 0.6696
C14 C -0.0634(3) 0.77226(14) 0.69861(10)
H8 H 0.0510 0.7351 0.6942
H9 H -0.1712 0.7521 0.7278
C15 C 0.0275(2) 0.88790(10) 0.53129(9)
C16 C -0.1733(3) 0.90297(12) 0.51130(9)
H10 H -0.2690 0.9107 0.5489
C17 C -0.2335(3) 0.90671(13) 0.43686(10)
H11 H -0.3680 0.9173 0.4252
C18 C -0.0948(3) 0.89477(13) 0.37999(10)
H12 H -0.1341 0.8986 0.3300
C19 C 0.1024(4) 0.87707(14) 0.39858(11)
H13 H 0.1962 0.8678 0.3606
C20 C 0.1644(3) 0.87279(13) 0.47311(10)
H14 H 0.2983 0.8598 0.4843
N1 N 0.0426(3) 1.02978(12) 0.77795(9)
N2 N -0.0369(2) 1.24485(10) 0.35054(7)
O1 O 0.0451(2) 1.27058(10) 0.29244(7)
O2 O -0.2120(2) 1.26474(9) 0.36687(7)
O3 O 0.41157(16) 1.02848(8) 0.54868(7)
O4 O -0.16465(17) 1.09794(8) 0.61028(6)
O5 O 0.43755(17) 0.92962(8) 0.64775(7)
loop_
_geom_bond_atom_site_label_1
_geom_bond_atom_site_label_2
_geom_bond_site_symmetry_1
_geom_bond_site_symmetry_2
C1 H1 1_555 1_555
C2 C3 1_555 1_555
C3 H2 1_555 1_555
C4 C3 1_555 1_555
H3 C4 1_555 1_555
C5 C4 1_555 1_555
C6 C5 1_555 1_555
C7 C2 1_555 1_555
H4 C7 1_555 1_555
C8 C6 1_555 1_555
C9 C1 1_555 1_555
C10 C9 1_555 1_555
C11 C10 1_555 1_555
H5 C11 1_555 1_555
H6 C11 1_555 1_555
C12 C9 1_555 1_555
C13 C10 1_555 1_555
H7 C13 1_555 1_555
C14 C13 1_555 1_555
H8 C14 1_555 1_555
H9 C14 1_555 1_555
C15 C10 1_555 1_555
C16 C15 1_555 1_555
H10 C16 1_555 1_555
C17 C16 1_555 1_555
H11 C17 1_555 1_555
C18 C17 1_555 1_555
H12 C18 1_555 1_555
C19 C18 1_555 1_555
H13 C19 1_555 1_555
C20 C15 1_555 1_555
H14 C20 1_555 1_555
N1 C12 1_555 1_555
N2 C2 1_555 1_555
O1 N2 1_555 1_555
O2 N2 1_555 1_555
O3 C1 1_555 1_555
O4 C8 1_555 1_555
O5 C1 1_555 1_555
C5 O3 1_555 1_555
C6 C7 1_555 1_555
C8 C9 1_555 1_555
C11 O5 1_555 1_555
C19 C20 1_555 1_555

#END
