
#######################################################################
#
#                 Cambridge Crystallographic Data Centre
#                                CCDC 
#
#######################################################################
#
# If this CIF has been generated from an entry in the Cambridge 
# Structural Database, then it will include bibliographic, chemical, 
# crystal, experimental, refinement or atomic coordinate data resulting 
# from the CCDC's data processing and validation procedures.
#
#######################################################################

data_GEZGEZ
_chemical_formula_moiety         'C21 H10 I2'
_chemical_name_systematic        
2,9-Diiodo-4,7-dihydro-1H-tricyclopenta[def,jkl,pqr]triphenylene
_symmetry_cell_setting           triclinic
_symmetry_space_group_name_H-M   'P -1'
_symmetry_Int_Tables_number      2
_space_group_name_Hall           '-P 1'
loop_
_symmetry_equiv_pos_site_id
_symmetry_equiv_pos_as_xyz
1 x,y,z
2 -x,-y,-z
_cell_length_a                   7.596(5)
_cell_length_b                   10.214(6)
_cell_length_c                   10.377(6)
_cell_angle_alpha                96.909(5)
_cell_angle_beta                 99.170(7)
_cell_angle_gamma                100.914(8)
_cell_volume                     770.98
_cell_formula_units_Z            2
loop_
_atom_site_label
_atom_site_type_symbol
_atom_site_fract_x
_atom_site_fract_y
_atom_site_fract_z
I1 I 0.69942(3) -0.18788(3) -0.04307(2)
I2 I 0.05510(3) -0.23130(2) 0.31314(3)
C1 C 0.5466(5) 0.3344(4) 0.3685(4)
C2 C 0.2405(5) -0.0430(4) 0.3549(3)
C3 C 0.2488(6) 0.3444(4) 0.4037(4)
C4 C 0.7512(5) 0.2249(4) 0.2562(4)
C5 C 0.8235(6) 0.3802(4) 0.1111(4)
C6 C 0.6583(5) -0.0201(4) 0.2067(4)
C7 C 0.5081(5) -0.1253(4) 0.2444(4)
C8 C 0.6876(5) 0.3443(4) 0.2975(4)
C9 C 0.2844(5) 0.2018(4) 0.4117(3)
C10 C 0.4159(5) -0.0350(4) 0.3305(3)
C11 C 0.4474(6) 0.5149(4) 0.2748(4)
C12 C 0.4674(5) 0.2083(4) 0.4019(3)
C13 C 0.5932(6) 0.5243(4) 0.2020(4)
C14 C 0.8153(5) 0.1136(4) 0.0597(4)
C15 C 0.4173(5) 0.4147(4) 0.3539(4)
C16 C 0.7363(5) -0.0126(4) 0.0946(3)
C17 C 0.7097(5) 0.4347(4) 0.2086(4)
C18 C 0.8163(5) 0.2347(4) 0.1379(4)
C19 C 0.6748(5) 0.1024(4) 0.2884(3)
C20 C 0.1715(5) 0.0737(4) 0.3942(4)
C21 C 0.5294(5) 0.0932(4) 0.3624(3)
H1 H 0.784(6) 0.380(4) 0.032(5)
H2 H 0.435(6) -0.175(4) 0.168(4)
H3 H 0.604(7) 0.587(5) 0.143(5)
H4 H 0.339(5) 0.574(4) 0.263(4)
H5 H 0.231(6) 0.389(5) 0.484(5)
H6 H 0.040(7) 0.051(5) 0.394(5)
H7 H 0.562(8) -0.181(6) 0.287(6)
H8 H 0.150(8) 0.344(6) 0.355(6)
H9 H 0.943(8) 0.434(6) 0.124(6)
H10 H 0.858(6) 0.108(4) -0.017(5)
loop_
_geom_bond_atom_site_label_1
_geom_bond_atom_site_label_2
_geom_bond_site_symmetry_1
_geom_bond_site_symmetry_2
I1 C16 1_555 1_555
I2 C2 1_555 1_555
C1 C8 1_555 1_555
C2 C10 1_555 1_555
C3 C9 1_555 1_555
C4 C8 1_555 1_555
C5 C17 1_555 1_555
C6 C7 1_555 1_555
C7 C10 1_555 1_555
C8 C17 1_555 1_555
C9 C12 1_555 1_555
C10 C21 1_555 1_555
C11 C13 1_555 1_555
C12 C1 1_555 1_555
C13 C17 1_555 1_555
C14 C16 1_555 1_555
C15 C1 1_555 1_555
C16 C6 1_555 1_555
C18 C4 1_555 1_555
C19 C4 1_555 1_555
C20 C2 1_555 1_555
C21 C12 1_555 1_555
H1 C5 1_555 1_555
H2 C7 1_555 1_555
H3 C13 1_555 1_555
H4 C11 1_555 1_555
H5 C3 1_555 1_555
H6 C20 1_555 1_555
H7 C7 1_555 1_555
H8 C3 1_555 1_555
H9 C5 1_555 1_555
H10 C14 1_555 1_555
C3 C15 1_555 1_555
C5 C18 1_555 1_555
C6 C19 1_555 1_555
C9 C20 1_555 1_555
C11 C15 1_555 1_555
C14 C18 1_555 1_555
C19 C21 1_555 1_555

#END
