
#######################################################################
#
#                 Cambridge Crystallographic Data Centre
#                                CCDC 
#
#######################################################################
#
# If this CIF has been generated from an entry in the Cambridge 
# Structural Database, then it will include bibliographic, chemical, 
# crystal, experimental, refinement or atomic coordinate data resulting 
# from the CCDC's data processing and validation procedures.
#
#######################################################################

data_GEZHAX
_chemical_formula_moiety         'C20 H16 N3 O4 P1'
_chemical_name_systematic        
(diphenoxyphosphoryl)(3-phenyl-1,2,3-oxadiazol-3-ium-5-yl)azanide
_symmetry_cell_setting           triclinic
_symmetry_space_group_name_H-M   'P -1'
_symmetry_Int_Tables_number      2
_space_group_name_Hall           '-P 1'
loop_
_symmetry_equiv_pos_site_id
_symmetry_equiv_pos_as_xyz
1 x,y,z
2 -x,-y,-z
_cell_length_a                   9.0686(7)
_cell_length_b                   9.7552(7)
_cell_length_c                   11.6999(8)
_cell_angle_alpha                111.4990(10)
_cell_angle_beta                 99.8330(10)
_cell_angle_gamma                95.1040(10)
_cell_volume                     935.827
_exptl_crystal_colour            'light brown'
_exptl_crystal_description       block
_cell_formula_units_Z            2
loop_
_atom_site_label
_atom_site_type_symbol
_atom_site_fract_x
_atom_site_fract_y
_atom_site_fract_z
P1 P 0.38818(3) 0.74834(3) 0.29262(3)
O1 O 0.44163(9) 0.80021(9) 0.43016(8)
O2 O 0.30407(9) 0.57824(9) 0.22773(8)
O3 O 0.25098(9) 0.83072(9) 0.26454(8)
O4 O 0.74709(10) 0.83212(10) 0.18769(8)
N1 N 0.83521(11) 1.02858(11) 0.35116(9)
N2 N 0.51040(11) 0.75740(11) 0.20956(9)
N3 N 0.87235(12) 0.94200(12) 0.24783(10)
C1 C 0.69517(12) 0.98543(12) 0.36371(10)
H1 H 0.647728 1.033343 0.430836
C2 C 0.39147(12) 0.46474(12) 0.22216(11)
C3 C 0.41704(14) 0.41977(13) 0.32250(11)
H2 H 0.377946 0.466409 0.395098
C4 C 0.50104(14) 0.30501(14) 0.31495(12)
H3 H 0.519415 0.272721 0.382694
C5 C 0.94577(13) 1.15620(13) 0.43752(11)
C6 C 0.52906(15) 0.28310(14) 0.10759(12)
H4 H 0.567272 0.236182 0.034550
C7 C 0.44446(14) 0.39682(13) 0.11393(11)
H5 H 0.423358 0.427384 0.045345
C8 C 0.18965(13) 0.82233(13) 0.14274(11)
C9 C 1.09888(13) 1.15152(14) 0.43860(12)
H6 H 1.130719 1.066714 0.383078
C10 C 0.55797(14) 0.23775(14) 0.20823(12)
H7 H 0.616675 0.160755 0.203861
C11 C 0.63501(13) 0.85521(13) 0.25684(10)
C12 C 0.17470(16) 0.93458(15) -0.00820(13)
H8 H 0.207174 1.013438 -0.032118
C13 C 0.89513(14) 1.27832(14) 0.51662(12)
H9 H 0.789772 1.279230 0.512940
C14 C 1.20397(14) 1.27466(15) 0.52337(13)
H10 H 1.309144 1.274769 0.525322
C15 C 0.07701(14) 0.70499(14) 0.06289(12)
H11 H 0.042827 0.627679 0.087962
C16 C 0.23874(14) 0.93825(14) 0.10961(12)
H12 H 0.314965 1.018904 0.166572
C17 C 0.01475(16) 0.70281(16) -0.05537(13)
H13 H -0.062009 0.622503 -0.112032
C18 C 1.15648(15) 1.39729(16) 0.60507(13)
H14 H 1.229338 1.480018 0.663645
C19 C 0.06379(16) 0.81680(16) -0.09116(13)
H15 H 0.021443 0.814031 -0.172214
C20 C 1.00249(16) 1.39969(15) 0.60162(13)
H16 H 0.970607 1.484287 0.657374
loop_
_geom_bond_atom_site_label_1
_geom_bond_atom_site_label_2
_geom_bond_site_symmetry_1
_geom_bond_site_symmetry_2
P1 O1 1_555 1_555
O2 P1 1_555 1_555
O3 P1 1_555 1_555
O4 N3 1_555 1_555
N1 N3 1_555 1_555
N2 P1 1_555 1_555
C1 N1 1_555 1_555
H1 C1 1_555 1_555
C2 O2 1_555 1_555
C3 C2 1_555 1_555
H2 C3 1_555 1_555
C4 C3 1_555 1_555
H3 C4 1_555 1_555
C5 N1 1_555 1_555
C6 H4 1_555 1_555
C7 C2 1_555 1_555
H5 C7 1_555 1_555
C8 O3 1_555 1_555
C9 C5 1_555 1_555
H6 C9 1_555 1_555
C10 C4 1_555 1_555
H7 C10 1_555 1_555
C11 O4 1_555 1_555
C12 H8 1_555 1_555
C13 C5 1_555 1_555
H9 C13 1_555 1_555
C14 C9 1_555 1_555
H10 C14 1_555 1_555
C15 C8 1_555 1_555
H11 C15 1_555 1_555
C16 C8 1_555 1_555
H12 C16 1_555 1_555
C17 C15 1_555 1_555
H13 C17 1_555 1_555
C18 C14 1_555 1_555
H14 C18 1_555 1_555
C19 C12 1_555 1_555
H15 C19 1_555 1_555
C20 C13 1_555 1_555
H16 C20 1_555 1_555
N2 C11 1_555 1_555
C1 C11 1_555 1_555
C6 C7 1_555 1_555
C6 C10 1_555 1_555
C12 C16 1_555 1_555
C17 C19 1_555 1_555
C18 C20 1_555 1_555

#END
