
#######################################################################
#
#                 Cambridge Crystallographic Data Centre
#                                CCDC 
#
#######################################################################
#
# If this CIF has been generated from an entry in the Cambridge 
# Structural Database, then it will include bibliographic, chemical, 
# crystal, experimental, refinement or atomic coordinate data resulting 
# from the CCDC's data processing and validation procedures.
#
#######################################################################

data_GEZRAH
_chemical_formula_moiety         'C20 H26 O5'
_chemical_name_systematic        
7,14,20-trihydroxy-7,20-cyclokaur-16-ene-6,15-dione
_symmetry_cell_setting           orthorhombic
_symmetry_space_group_name_H-M   'P 21 21 21'
_symmetry_Int_Tables_number      19
_space_group_name_Hall           'P 2ac 2ab'
loop_
_symmetry_equiv_pos_site_id
_symmetry_equiv_pos_as_xyz
1 x,y,z
2 1/2+x,1/2-y,-z
3 -x,1/2+y,1/2-z
4 1/2-x,-y,1/2+z
_cell_length_a                   10.8591(2)
_cell_length_b                   11.0362(2)
_cell_length_c                   13.8905(2)
_cell_angle_alpha                90
_cell_angle_beta                 90
_cell_angle_gamma                90
_cell_volume                     1664.68
_exptl_crystal_colour            colorless
_exptl_crystal_description       prism
_cell_formula_units_Z            4
loop_
_atom_site_label
_atom_site_type_symbol
_atom_site_fract_x
_atom_site_fract_y
_atom_site_fract_z
O1 O 0.4545(2) 0.3929(3) 0.02946(19)
O2 O 0.3451(2) 0.1366(3) 0.00890(18)
O3 O 0.1418(2) 0.2908(2) -0.03979(18)
H1 H 0.0867 0.2379 -0.0454
O4 O 0.0012(2) 0.3284(2) 0.15372(17)
H2 H -0.0554 0.3108 0.1150
O5 O 0.1529(2) 0.5390(3) -0.0389(2)
H3 H 0.1233 0.4763 -0.0642
C1 C 0.4168(3) -0.0211(4) 0.1963(3)
H4 H 0.4805 0.0260 0.2295
H5 H 0.4348 -0.0233 0.1272
H6 H 0.4157 -0.1039 0.2218
C2 C 0.2915(3) 0.0378(3) 0.2126(3)
C3 C 0.3007(3) 0.1741(3) 0.1799(3)
H7 H 0.3830 0.2054 0.2007
C4 C 0.2015(3) 0.2635(3) 0.2174(2)
C5 C 0.2520(3) 0.3950(3) 0.2005(2)
H8 H 0.3414 0.3957 0.2179
C6 C 0.2410(3) 0.4116(3) 0.0877(2)
C7 C 0.3669(3) 0.4538(3) 0.0542(2)
C8 C 0.3669(3) 0.5898(3) 0.0665(3)
C9 C 0.4625(4) 0.6579(4) 0.0435(3)
H9 H 0.5349 0.6217 0.0181
H10 H 0.4589 0.7432 0.0523
C10 C 0.2613(3) 0.0370(3) 0.3206(3)
H11 H 0.2503 -0.0479 0.3419
H12 H 0.3321 0.0711 0.3564
C11 C 0.1464(3) 0.1086(3) 0.3463(3)
H13 H 0.1294 0.0997 0.4159
H14 H 0.0752 0.0755 0.3104
C12 C 0.1618(3) 0.2432(3) 0.3219(3)
H15 H 0.0828 0.2856 0.3333
H16 H 0.2242 0.2791 0.3653
C13 C 0.1958(3) -0.0367(3) 0.1564(3)
H17 H 0.2152 -0.0338 0.0875
H18 H 0.1136 -0.0028 0.1673
H19 H 0.1978 -0.1209 0.1786
C14 C 0.2908(3) 0.1923(3) 0.0710(3)
C15 C 0.1906(3) 0.2871(3) 0.0546(3)
C16 C 0.1026(3) 0.2510(3) 0.1381(2)
H20 H 0.0752 0.1650 0.1314
C17 C 0.1889(3) 0.4984(3) 0.2545(3)
H21 H 0.2091 0.4929 0.3238
H22 H 0.0985 0.4905 0.2476
C18 C 0.2299(4) 0.6231(3) 0.2156(3)
H23 H 0.3108 0.6443 0.2438
H24 H 0.1698 0.6854 0.2362
C19 C 0.2401(3) 0.6243(3) 0.1035(3)
H25 H 0.2139 0.7045 0.0769
C20 C 0.1609(3) 0.5227(4) 0.0629(3)
H26 H 0.0780 0.5190 0.0941
loop_
_geom_bond_atom_site_label_1
_geom_bond_atom_site_label_2
_geom_bond_site_symmetry_1
_geom_bond_site_symmetry_2
O1 C7 1_555 1_555
O2 C14 1_555 1_555
O3 H1 1_555 1_555
O4 H2 1_555 1_555
O5 H3 1_555 1_555
C1 H4 1_555 1_555
H5 C1 1_555 1_555
H6 C1 1_555 1_555
C2 C1 1_555 1_555
C3 C2 1_555 1_555
H7 C3 1_555 1_555
C4 C3 1_555 1_555
C5 C4 1_555 1_555
H8 C5 1_555 1_555
C6 C5 1_555 1_555
C7 C6 1_555 1_555
C8 C7 1_555 1_555
C9 C8 1_555 1_555
H9 C9 1_555 1_555
H10 C9 1_555 1_555
C10 C2 1_555 1_555
H11 C10 1_555 1_555
H12 C10 1_555 1_555
C11 C10 1_555 1_555
H13 C11 1_555 1_555
H14 C11 1_555 1_555
C12 C4 1_555 1_555
H15 C12 1_555 1_555
H16 C12 1_555 1_555
C13 C2 1_555 1_555
H17 C13 1_555 1_555
H18 C13 1_555 1_555
H19 C13 1_555 1_555
C14 C3 1_555 1_555
C15 O3 1_555 1_555
C16 O4 1_555 1_555
H20 C16 1_555 1_555
C17 C5 1_555 1_555
H21 C17 1_555 1_555
H22 C17 1_555 1_555
C18 C17 1_555 1_555
H23 C18 1_555 1_555
H24 C18 1_555 1_555
C19 C8 1_555 1_555
H25 C19 1_555 1_555
C20 O5 1_555 1_555
H26 C20 1_555 1_555
C4 C16 1_555 1_555
C6 C15 1_555 1_555
C6 C20 1_555 1_555
C11 C12 1_555 1_555
C14 C15 1_555 1_555
C15 C16 1_555 1_555
C18 C19 1_555 1_555
C19 C20 1_555 1_555

#END
