
#######################################################################
#
#                 Cambridge Crystallographic Data Centre
#                                CCDC 
#
#######################################################################
#
# If this CIF has been generated from an entry in the Cambridge 
# Structural Database, then it will include bibliographic, chemical, 
# crystal, experimental, refinement or atomic coordinate data resulting 
# from the CCDC's data processing and validation procedures.
#
#######################################################################

data_GEZSOV
_chemical_formula_moiety         'C25 H24 N2'
_chemical_name_systematic        2-(2-t-Butylphenyl)-4,5-diphenyl-1H-imidazole
_symmetry_cell_setting           monoclinic
_symmetry_space_group_name_H-M   'P 21/c'
_symmetry_Int_Tables_number      14
_space_group_name_Hall           '-P 2ybc'
loop_
_symmetry_equiv_pos_site_id
_symmetry_equiv_pos_as_xyz
1 x,y,z
2 -x,1/2+y,1/2-z
3 -x,-y,-z
4 x,1/2-y,1/2+z
_cell_length_a                   9.692(2)
_cell_length_b                   19.705(5)
_cell_length_c                   21.494(5)
_cell_angle_alpha                90
_cell_angle_beta                 100.178(3)
_cell_angle_gamma                90
_cell_volume                     4040.35
_exptl_crystal_colour            colorless
_exptl_crystal_description       block
_cell_formula_units_Z            8
loop_
_atom_site_label
_atom_site_type_symbol
_atom_site_fract_x
_atom_site_fract_y
_atom_site_fract_z
N1 N 0.3648(2) 0.26213(9) 0.46134(9)
N2 N 0.15340(19) 0.29842(9) 0.47124(9)
C1 C 0.1963(2) 0.33213(11) 0.42090(11)
C2 C 0.2588(2) 0.25798(10) 0.49505(11)
C3 C 0.3287(2) 0.31043(11) 0.41513(11)
C4 C 0.2515(2) 0.14477(11) 0.54128(12)
H1 H 0.2349 0.1281 0.4992
C5 C 0.6013(3) 0.29985(14) 0.31064(12)
H2 H 0.6503 0.2658 0.2921
C6 C 0.1602(3) 0.34779(12) 0.62255(13)
H3 H 0.1669 0.3960 0.6339
H4 H 0.1073 0.3238 0.6506
H5 H 0.1122 0.3429 0.5787
C7 C 0.1081(3) 0.39304(12) 0.31946(12)
H6 H 0.1713 0.3676 0.2995
C8 C 0.4995(2) 0.28130(12) 0.34568(11)
H7 H 0.4785 0.2347 0.3504
C9 C 0.3831(3) 0.32906(13) 0.69801(12)
H8 H 0.3912 0.3779 0.7064
H9 H 0.4769 0.3088 0.7041
H10 H 0.3286 0.3080 0.7271
C10 C 0.4586(3) 0.39896(12) 0.36536(12)
H11 H 0.4101 0.4333 0.3839
C11 C 0.0076(2) 0.41832(11) 0.41089(12)
H12 H 0.0022 0.4108 0.4541
C12 C 0.2997(2) 0.19314(12) 0.66275(12)
H13 H 0.3166 0.2088 0.7052
C13 C 0.2678(2) 0.21452(11) 0.55171(11)
C14 C 0.2823(3) 0.12469(12) 0.65180(13)
H14 H 0.2864 0.0944 0.6865
C15 C 0.4285(2) 0.33057(11) 0.37383(11)
C16 C 0.3941(3) 0.35682(12) 0.58737(12)
H15 H 0.4139 0.4026 0.6045
H16 H 0.3400 0.3599 0.5444
H17 H 0.4825 0.3331 0.5864
C17 C 0.1038(2) 0.38167(11) 0.38294(11)
C18 C 0.2590(3) 0.09948(12) 0.59093(13)
H18 H 0.2483 0.0521 0.5833
C19 C -0.0723(3) 0.47745(12) 0.31360(14)
H19 H -0.1311 0.5106 0.2902
C20 C 0.3088(2) 0.31732(11) 0.62961(11)
C21 C -0.0802(3) 0.46562(12) 0.37619(13)
H20 H -0.1459 0.4899 0.3956
C22 C 0.0218(3) 0.44083(12) 0.28494(12)
H21 H 0.0270 0.4486 0.2418
C23 C 0.5597(3) 0.41670(13) 0.32969(12)
H22 H 0.5797 0.4632 0.3238
C24 C 0.2935(2) 0.24087(11) 0.61390(11)
C25 C 0.6312(3) 0.36711(15) 0.30272(12)
H23 H 0.7008 0.3795 0.2788
H24 H 0.446(3) 0.2425(13) 0.4711(12)
N3 N 0.8651(2) 0.24252(9) 0.46040(9)
N4 N 0.65490(19) 0.20863(9) 0.47472(9)
C26 C 0.8350(2) 0.18483(11) 0.42407(11)
C27 C 0.7032(2) 0.16483(11) 0.43230(11)
C28 C 0.7589(2) 0.31010(11) 0.53688(11)
C29 C 0.9725(3) 0.08829(12) 0.39078(13)
H25 H 0.9238 0.0577 0.4134
C30 C 0.8763(3) 0.23586(15) 0.70435(12)
H26 H 0.8159 0.2630 0.7268
H27 H 0.9679 0.2579 0.7077
H28 H 0.8885 0.1905 0.7231
C31 C 0.7408(3) 0.43178(12) 0.54864(14)
H29 H 0.7255 0.4757 0.5304
C32 C 0.5228(3) 0.07506(12) 0.43534(13)
H30 H 0.5147 0.0892 0.4768
C33 C 1.1190(3) 0.17633(15) 0.32513(13)
H31 H 1.1695 0.2068 0.3032
C34 C 0.6160(2) 0.10860(11) 0.40260(12)
C35 C 0.7356(2) 0.37484(11) 0.51086(12)
H32 H 0.7157 0.3799 0.4662
C36 C 0.6653(3) 0.19548(13) 0.63135(12)
H33 H 0.6782 0.1509 0.6517
H34 H 0.6208 0.1899 0.5870
H35 H 0.6056 0.2237 0.6532
C37 C 0.6229(3) 0.08759(12) 0.34130(12)
H36 H 0.6840 0.1103 0.3182
C38 C 0.7558(2) 0.25369(11) 0.49095(11)
C39 C 0.9396(2) 0.15712(12) 0.38846(11)
C40 C 0.7686(3) 0.42355(13) 0.61338(14)
H37 H 0.7720 0.4621 0.6402
C41 C 0.8085(2) 0.22995(12) 0.63462(11)
C42 C 0.4426(3) 0.02140(13) 0.40732(16)
H38 H 0.3803 -0.0014 0.4298
C43 C 0.7872(2) 0.30041(12) 0.60309(11)
C44 C 1.0783(3) 0.06442(14) 0.35943(13)
H39 H 1.1000 0.0174 0.3603
C45 C 0.7916(2) 0.35949(13) 0.63941(13)
H40 H 0.8114 0.3554 0.6841
C46 C 1.0126(2) 0.20065(13) 0.35491(11)
H41 H 0.9895 0.2475 0.3523
C47 C 0.9047(3) 0.18280(12) 0.60368(12)
H42 H 0.9909 0.2071 0.5996
H43 H 0.8559 0.1689 0.5617
H44 H 0.9283 0.1425 0.6301
C48 C 1.1510(3) 0.10851(15) 0.32739(13)
H45 H 1.2233 0.0919 0.3068
C49 C 0.4527(3) 0.00074(13) 0.34654(16)
H46 H 0.3981 -0.0363 0.3277
C50 C 0.5420(3) 0.03407(13) 0.31360(14)
H47 H 0.5481 0.0203 0.2718
H48 H 0.946(3) 0.2655(12) 0.4680(12)
loop_
_geom_bond_atom_site_label_1
_geom_bond_atom_site_label_2
_geom_bond_site_symmetry_1
_geom_bond_site_symmetry_2
N1 C2 1_555 1_555
N2 C1 1_555 1_555
C1 C3 1_555 1_555
C2 N2 1_555 1_555
C3 N1 1_555 1_555
C4 H1 1_555 1_555
C5 H2 1_555 1_555
C6 H3 1_555 1_555
H4 C6 1_555 1_555
H5 C6 1_555 1_555
C7 H6 1_555 1_555
C8 C5 1_555 1_555
H7 C8 1_555 1_555
C9 H8 1_555 1_555
H9 C9 1_555 1_555
H10 C9 1_555 1_555
C10 H11 1_555 1_555
C11 H12 1_555 1_555
C12 H13 1_555 1_555
C13 C2 1_555 1_555
C14 C12 1_555 1_555
H14 C14 1_555 1_555
C15 C3 1_555 1_555
C16 H15 1_555 1_555
H16 C16 1_555 1_555
H17 C16 1_555 1_555
C17 C1 1_555 1_555
C18 C4 1_555 1_555
H18 C18 1_555 1_555
C19 H19 1_555 1_555
C20 C6 1_555 1_555
C21 C11 1_555 1_555
H20 C21 1_555 1_555
C22 C7 1_555 1_555
H21 C22 1_555 1_555
C23 C10 1_555 1_555
H22 C23 1_555 1_555
C24 C12 1_555 1_555
C25 C5 1_555 1_555
H23 C25 1_555 1_555
H24 N1 1_555 1_555
N3 C26 1_555 1_555
N4 C27 1_555 1_555
C26 C27 1_555 1_555
C27 C34 1_555 1_555
C28 C35 1_555 1_555
C29 H25 1_555 1_555
C30 H26 1_555 1_555
H27 C30 1_555 1_555
H28 C30 1_555 1_555
C31 H29 1_555 1_555
C32 H30 1_555 1_555
C33 H31 1_555 1_555
C34 C32 1_555 1_555
C35 C31 1_555 1_555
H32 C35 1_555 1_555
C36 H33 1_555 1_555
H34 C36 1_555 1_555
H35 C36 1_555 1_555
C37 C34 1_555 1_555
H36 C37 1_555 1_555
C38 N3 1_555 1_555
C39 C26 1_555 1_555
C40 C31 1_555 1_555
H37 C40 1_555 1_555
C41 C30 1_555 1_555
C42 C32 1_555 1_555
H38 C42 1_555 1_555
C43 C28 1_555 1_555
C44 C29 1_555 1_555
H39 C44 1_555 1_555
C45 C40 1_555 1_555
H40 C45 1_555 1_555
C46 C33 1_555 1_555
H41 C46 1_555 1_555
C47 C41 1_555 1_555
H42 C47 1_555 1_555
H43 C47 1_555 1_555
H44 C47 1_555 1_555
C48 C33 1_555 1_555
H45 C48 1_555 1_555
C49 C42 1_555 1_555
H46 C49 1_555 1_555
C50 C37 1_555 1_555
H47 C50 1_555 1_555
H48 N3 1_555 1_555
C4 C13 1_555 1_555
C7 C17 1_555 1_555
C8 C15 1_555 1_555
C9 C20 1_555 1_555
C10 C15 1_555 1_555
C11 C17 1_555 1_555
C13 C24 1_555 1_555
C14 C18 1_555 1_555
C16 C20 1_555 1_555
C19 C21 1_555 1_555
C19 C22 1_555 1_555
C20 C24 1_555 1_555
C23 C25 1_555 1_555
N4 C38 1_555 1_555
C28 C38 1_555 1_555
C29 C39 1_555 1_555
C36 C41 1_555 1_555
C39 C46 1_555 1_555
C41 C43 1_555 1_555
C43 C45 1_555 1_555
C44 C48 1_555 1_555
C49 C50 1_555 1_555

#END
