
#######################################################################
#
#                 Cambridge Crystallographic Data Centre
#                                CCDC 
#
#######################################################################
#
# If this CIF has been generated from an entry in the Cambridge 
# Structural Database, then it will include bibliographic, chemical, 
# crystal, experimental, refinement or atomic coordinate data resulting 
# from the CCDC's data processing and validation procedures.
#
#######################################################################

data_GEZTUC
_chemical_formula_moiety         'C20 H15 F1 N2 O2'
_chemical_name_systematic        
3-((6-Fluoroquinolin-2-yl)methyl)-1-phenylpyrrolidine-2,5-dione
_symmetry_cell_setting           orthorhombic
_symmetry_space_group_name_H-M   'P 21 21 21'
_symmetry_Int_Tables_number      19
_space_group_name_Hall           'P 2ac 2ab'
loop_
_symmetry_equiv_pos_site_id
_symmetry_equiv_pos_as_xyz
1 x,y,z
2 1/2+x,1/2-y,-z
3 -x,1/2+y,1/2-z
4 1/2-x,-y,1/2+z
_cell_length_a                   7.7130(13)
_cell_length_b                   12.367(2)
_cell_length_c                   16.698(3)
_cell_angle_alpha                90
_cell_angle_beta                 90
_cell_angle_gamma                90
_cell_volume                     1592.77
_exptl_crystal_colour            colorless
_exptl_crystal_description       prism
_cell_formula_units_Z            4
loop_
_atom_site_label
_atom_site_type_symbol
_atom_site_fract_x
_atom_site_fract_y
_atom_site_fract_z
F1 F 0.77084(19) 0.65454(10) 0.80932(7)
O1 O 0.5746(2) 0.67195(11) 0.19472(8)
O2 O 0.8777(2) 0.98439(12) 0.23624(9)
N1 N 0.7258(2) 0.83261(13) 0.19696(9)
N2 N 0.7465(2) 0.70624(13) 0.48258(10)
C1 C 0.6521(3) 0.74075(16) 0.23168(12)
C2 C 0.6851(3) 0.74322(16) 0.32161(12)
H1 H 0.5718 0.7492 0.3504
C3 C 0.7900(3) 0.84833(15) 0.33412(11)
H2 H 0.7287 0.8973 0.3715
H3 H 0.9059 0.8318 0.3565
C4 C 0.8069(3) 0.90008(15) 0.25282(11)
C5 C 0.7182(3) 0.85391(16) 0.11252(11)
C6 C 0.8008(3) 0.78413(18) 0.06008(13)
H4 H 0.8646 0.7241 0.0798
C7 C 0.7893(4) 0.8028(2) -0.02137(14)
H5 H 0.8440 0.7548 -0.0578
C8 C 0.6985(3) 0.8910(2) -0.04999(13)
H6 H 0.6920 0.9037 -0.1060
C9 C 0.6170(3) 0.9611(2) 0.00264(13)
H7 H 0.5546 1.0217 -0.0172
C10 C 0.6268(3) 0.94243(18) 0.08488(13)
H8 H 0.5714 0.9900 0.1215
C11 C 0.7746(3) 0.63886(16) 0.34622(12)
H9 H 0.7081 0.5770 0.3246
H10 H 0.8915 0.6370 0.3217
C12 C 0.7927(3) 0.62522(16) 0.43569(12)
C13 C 0.8569(3) 0.52528(17) 0.46470(12)
H11 H 0.8925 0.4704 0.4284
C14 C 0.8670(3) 0.50901(16) 0.54471(12)
H12 H 0.9078 0.4420 0.5651
C15 C 0.8162(2) 0.59281(16) 0.59796(11)
C16 C 0.7596(2) 0.69197(15) 0.56396(11)
C17 C 0.7156(2) 0.77846(16) 0.61564(12)
H13 H 0.6814 0.8459 0.5935
C18 C 0.7215(3) 0.76640(16) 0.69709(12)
H14 H 0.6928 0.8248 0.7316
C19 C 0.7712(3) 0.66557(17) 0.72840(11)
C20 C 0.8204(3) 0.58066(17) 0.68218(12)
H15 H 0.8567 0.5146 0.7059
loop_
_geom_bond_atom_site_label_1
_geom_bond_atom_site_label_2
_geom_bond_site_symmetry_1
_geom_bond_site_symmetry_2
F1 C19 1_555 1_555
O1 C1 1_555 1_555
O2 C4 1_555 1_555
N1 C1 1_555 1_555
N2 C12 1_555 1_555
C1 C2 1_555 1_555
C2 H1 1_555 1_555
C3 C2 1_555 1_555
H2 C3 1_555 1_555
H3 C3 1_555 1_555
C4 N1 1_555 1_555
C5 N1 1_555 1_555
C6 C5 1_555 1_555
H4 C6 1_555 1_555
C7 C6 1_555 1_555
H5 C7 1_555 1_555
C8 C7 1_555 1_555
H6 C8 1_555 1_555
C9 C8 1_555 1_555
H7 C9 1_555 1_555
C10 C5 1_555 1_555
H8 C10 1_555 1_555
C11 C2 1_555 1_555
H9 C11 1_555 1_555
H10 C11 1_555 1_555
C12 C11 1_555 1_555
C13 C12 1_555 1_555
H11 C13 1_555 1_555
C14 C13 1_555 1_555
H12 C14 1_555 1_555
C15 C14 1_555 1_555
C16 N2 1_555 1_555
C17 C16 1_555 1_555
H13 C17 1_555 1_555
C18 C17 1_555 1_555
H14 C18 1_555 1_555
C19 C18 1_555 1_555
C20 C15 1_555 1_555
H15 C20 1_555 1_555
C3 C4 1_555 1_555
C9 C10 1_555 1_555
C15 C16 1_555 1_555
C19 C20 1_555 1_555

#END
