
#######################################################################
#
#                 Cambridge Crystallographic Data Centre
#                                CCDC 
#
#######################################################################
#
# If this CIF has been generated from an entry in the Cambridge 
# Structural Database, then it will include bibliographic, chemical, 
# crystal, experimental, refinement or atomic coordinate data resulting 
# from the CCDC's data processing and validation procedures.
#
#######################################################################

data_GEZVUC
_chemical_formula_moiety         'C16 H19 N1 O3'
_chemical_name_systematic        
1-Cyano-1-isopropyl-6,7-dimethoxy-3-methyl-isochromene
_symmetry_cell_setting           monoclinic
_symmetry_space_group_name_H-M   'P 21/c'
_symmetry_Int_Tables_number      14
_space_group_name_Hall           '-P 2ybc'
loop_
_symmetry_equiv_pos_site_id
_symmetry_equiv_pos_as_xyz
1 x,y,z
2 -x,1/2+y,1/2-z
3 -x,-y,-z
4 x,1/2-y,1/2+z
_cell_length_a                   16.113(2)
_cell_length_b                   8.723(1)
_cell_length_c                   10.785(1)
_cell_angle_alpha                90
_cell_angle_beta                 104.06(2)
_cell_angle_gamma                90
_cell_volume                     1470.46
_cell_formula_units_Z            4
loop_
_atom_site_label
_atom_site_type_symbol
_atom_site_fract_x
_atom_site_fract_y
_atom_site_fract_z
O1 O 0.3195(1) -0.0548(1) 0.0760(1)
O2 O 0.0777(1) -0.0073(1) 0.4265(1)
O3 O 0.0714(1) 0.2787(1) 0.3657(1)
N1 N 0.2715(1) -0.3865(2) 0.1847(2)
C1 C 0.3105(1) -0.0952(2) 0.2022(1)
C2 C 0.2397(1) -0.0023(2) 0.2372(1)
C3 C 0.2334(1) 0.1503(2) 0.1981(1)
C4 C 0.2846(1) 0.2016(2) 0.1122(2)
C5 C 0.3238(1) 0.1014(2) 0.0535(1)
C6 C 0.1873(1) -0.0596(2) 0.3112(2)
C7 C 0.1309(1) 0.0362(2) 0.3524(2)
C8 C 0.1272(1) 0.1922(2) 0.3180(2)
C9 C 0.1764(1) 0.2465(2) 0.2398(2)
C10 C 0.2883(1) -0.2600(2) 0.1912(2)
C11 C 0.3978(1) -0.0749(2) 0.3000(1)
C12 C 0.3938(1) -0.1216(2) 0.4333(2)
C13 C 0.4694(1) -0.1596(3) 0.2577(2)
C14 C 0.3726(1) 0.1315(2) -0.0445(2)
C15 C 0.0706(1) -0.1673(2) 0.4492(2)
C16 C 0.0802(1) 0.4402(2) 0.3621(2)
H1 H 0.288(1) 0.306(2) 0.093(1)
H2 H 0.193(1) -0.169(2) 0.339(1)
H3 H 0.170(1) 0.349(2) 0.216(1)
H4 H 0.410(1) 0.031(2) 0.303(1)
H5 H 0.452(1) -0.103(2) 0.491(2)
H6 H 0.349(1) -0.052(2) 0.465(2)
H7 H 0.377(1) -0.226(2) 0.429(3)
H8 H 0.471(1) -0.134(2) 0.170(2)
H9 H 0.525(1) -0.134(2) 0.317(2)
H10 H 0.458(1) -0.281(3) 0.258(2)
H11 H 0.365(1) 0.239(2) -0.067(2)
H12 H 0.350(1) 0.076(2) -0.126(2)
H13 H 0.433(1) 0.099(2) -0.008(2)
H14 H 0.125(1) -0.212(2) 0.497(2)
H15 H 0.028(1) -0.173(2) 0.490(2)
H16 H 0.050(1) -0.228(2) 0.363(2)
H17 H 0.041(2) 0.483(2) 0.400(2)
H18 H 0.139(1) 0.474(2) 0.402(2)
H19 H 0.067(1) 0.478(2) 0.270(2)
loop_
_geom_bond_atom_site_label_1
_geom_bond_atom_site_label_2
_geom_bond_site_symmetry_1
_geom_bond_site_symmetry_2
O1 C1 1_555 1_555
O2 C7 1_555 1_555
O3 C8 1_555 1_555
N1 C10 1_555 1_555
C1 C2 1_555 1_555
C2 C3 1_555 1_555
C3 C4 1_555 1_555
C4 C5 1_555 1_555
C5 O1 1_555 1_555
C6 C2 1_555 1_555
C7 C6 1_555 1_555
C8 C7 1_555 1_555
C9 C3 1_555 1_555
C10 C1 1_555 1_555
C11 C1 1_555 1_555
C12 C11 1_555 1_555
C13 C11 1_555 1_555
C14 C5 1_555 1_555
C15 O2 1_555 1_555
C16 O3 1_555 1_555
H1 C4 1_555 1_555
H2 C6 1_555 1_555
H3 C9 1_555 1_555
H4 C11 1_555 1_555
H5 C12 1_555 1_555
H6 C12 1_555 1_555
H7 C12 1_555 1_555
H8 C13 1_555 1_555
H9 C13 1_555 1_555
H10 C13 1_555 1_555
H11 C14 1_555 1_555
H12 C14 1_555 1_555
H13 C14 1_555 1_555
H14 C15 1_555 1_555
H15 C15 1_555 1_555
H16 C15 1_555 1_555
H17 C16 1_555 1_555
H18 C16 1_555 1_555
H19 C16 1_555 1_555
C8 C9 1_555 1_555

#END
