
#######################################################################
#
#                 Cambridge Crystallographic Data Centre
#                                CCDC 
#
#######################################################################
#
# If this CIF has been generated from an entry in the Cambridge 
# Structural Database, then it will include bibliographic, chemical, 
# crystal, experimental, refinement or atomic coordinate data resulting 
# from the CCDC's data processing and validation procedures.
#
#######################################################################

data_GEZVAL
_chemical_formula_moiety         'C26 H26 O1'
_chemical_name_systematic        
(Z)-5-Methoxy-9-(4-methylbenzylidene)-1,3a,4,4a,9,9a,10,10a-octahydro-4,10-methanocyclopenta[b]fluorene
_symmetry_cell_setting           triclinic
_symmetry_space_group_name_H-M   'P -1'
_symmetry_Int_Tables_number      2
_space_group_name_Hall           '-P 1'
loop_
_symmetry_equiv_pos_site_id
_symmetry_equiv_pos_as_xyz
1 x,y,z
2 -x,-y,-z
_cell_length_a                   8.8859(6)
_cell_length_b                   9.9045(6)
_cell_length_c                   11.8557(6)
_cell_angle_alpha                99.769(4)
_cell_angle_beta                 96.190(5)
_cell_angle_gamma                109.258(6)
_cell_volume                     955.593
_exptl_crystal_colour            colorless
_exptl_crystal_description       block
_chemical_melting_point          '150-151 deg.C'
_cell_formula_units_Z            2
loop_
_atom_site_label
_atom_site_type_symbol
_atom_site_fract_x
_atom_site_fract_y
_atom_site_fract_z
O1 O 0.82972(16) 0.58932(15) 0.50666(12)
C1 C 0.56505(19) 0.42360(17) 0.31820(14)
H1 H 0.5478 0.3522 0.3679
C2 C 0.59662(19) 0.57588(18) 0.38625(14)
C3 C 0.36130(19) 0.52643(17) 0.25157(14)
C4 C 0.41151(19) 0.39181(17) 0.22695(14)
H2 H 0.3243 0.3030 0.2326
C5 C 0.48311(19) 0.63498(18) 0.34812(14)
C6 C 0.4705(2) 0.37086(18) 0.10939(14)
H3 H 0.4047 0.3875 0.0451
C7 C 0.2312(2) 0.53214(19) 0.18706(15)
H4 H 0.1813 0.4521 0.1251
C8 C 0.15264(18) 0.64310(18) 0.19680(15)
C9 C 0.6922(2) 0.41350(18) 0.24175(15)
H5 H 0.8047 0.4623 0.2819
C10 C 0.6450(2) 0.47998(19) 0.14172(16)
H6 H 0.6514 0.5803 0.1677
H7 H 0.7068 0.4734 0.0797
C11 C 0.7260(2) 0.65823(19) 0.47625(14)
C12 C 0.0319(2) 0.7979(2) 0.30436(18)
H8 H 0.0110 0.8372 0.3754
C13 C 0.5018(2) 0.77989(19) 0.39774(16)
H9 H 0.4282 0.8211 0.3716
C14 C 0.0978(2) 0.6818(2) 0.09650(16)
H10 H 0.1183 0.6426 0.0253
C15 C 0.5010(2) 0.22473(19) 0.08218(15)
H11 H 0.5313 0.2110 0.0051
C16 C 0.6500(2) 0.25192(19) 0.17808(16)
H12 H 0.7407 0.2403 0.1424
C17 C 0.7422(2) 0.8005(2) 0.52676(16)
H13 H 0.8269 0.8559 0.5877
C18 C 0.1171(2) 0.7029(2) 0.30065(16)
H14 H 0.1510 0.6788 0.3690
C19 C 0.5871(3) 0.1334(2) 0.24383(18)
H15 H 0.6470 0.1225 0.3088
C20 C 0.0137(2) 0.7774(2) 0.10090(18)
H16 H -0.0189 0.8029 0.0329
C21 C 0.6308(2) 0.8599(2) 0.48569(17)
H17 H 0.6441 0.9562 0.5186
C22 C 0.4351(3) 0.0458(2) 0.19761(19)
H18 H 0.3763 -0.0318 0.2282
C23 C -0.0228(2) 0.8356(2) 0.20456(19)
C24 C 0.3699(3) 0.0849(2) 0.09309(19)
C25 C 0.9673(3) 0.6698(2) 0.59296(18)
H19 H 1.0284 0.7576 0.5705
H20 H 1.0335 0.6114 0.6017
H21 H 0.9337 0.6949 0.6654
C26 C -0.1221(3) 0.9336(3) 0.2088(3)
H22 H -0.1343 0.9634 0.2877
H23 H -0.2270 0.8810 0.1616
H24 H -0.0683 1.0186 0.1800
H25? H 0.2703 0.0350 0.0444
loop_
_geom_bond_atom_site_label_1
_geom_bond_atom_site_label_2
_geom_bond_site_symmetry_1
_geom_bond_site_symmetry_2
O1 C11 1_555 1_555
C1 H1 1_555 1_555
C2 C1 1_555 1_555
C3 C4 1_555 1_555
C4 C1 1_555 1_555
H2 C4 1_555 1_555
C5 C2 1_555 1_555
C6 C4 1_555 1_555
H3 C6 1_555 1_555
C7 C3 1_555 1_555
H4 C7 1_555 1_555
C8 C7 1_555 1_555
C9 C1 1_555 1_555
H5 C9 1_555 1_555
C10 C6 1_555 1_555
H6 C10 1_555 1_555
H7 C10 1_555 1_555
C11 C2 1_555 1_555
C12 H8 1_555 1_555
C13 C5 1_555 1_555
H9 C13 1_555 1_555
C14 C8 1_555 1_555
H10 C14 1_555 1_555
C15 C6 1_555 1_555
H11 C15 1_555 1_555
C16 C9 1_555 1_555
H12 C16 1_555 1_555
C17 C11 1_555 1_555
H13 C17 1_555 1_555
C18 C8 1_555 1_555
H14 C18 1_555 1_555
C19 C16 1_555 1_555
H15 C19 1_555 1_555
C20 C14 1_555 1_555
H16 C20 1_555 1_555
C21 C13 1_555 1_555
H17 C21 1_555 1_555
C22 C19 1_555 1_555
H18 C22 1_555 1_555
C23 C12 1_555 1_555
C24 C15 1_555 1_555
C25 O1 1_555 1_555
H19 C25 1_555 1_555
H20 C25 1_555 1_555
H21 C25 1_555 1_555
C26 C23 1_555 1_555
H22 C26 1_555 1_555
H23 C26 1_555 1_555
H24 C26 1_555 1_555
C3 C5 1_555 1_555
C9 C10 1_555 1_555
C12 C18 1_555 1_555
C15 C16 1_555 1_555
C17 C21 1_555 1_555
C20 C23 1_555 1_555
C22 C24 1_555 1_555

#END
