
#######################################################################
#
#                 Cambridge Crystallographic Data Centre
#                                CCDC 
#
#######################################################################
#
# If this CIF has been generated from an entry in the Cambridge 
# Structural Database, then it will include bibliographic, chemical, 
# crystal, experimental, refinement or atomic coordinate data resulting 
# from the CCDC's data processing and validation procedures.
#
#######################################################################

data_GEZXER
_chemical_formula_moiety         'C24 H17 Br1 N2 O6 S1'
_chemical_name_systematic        
'1-[(4-bromophenyl)sulfanyl]-1-methyl-1,2-dihydronaphthalen-2-yl 3,5-dinitrobenzoate'
_symmetry_cell_setting           orthorhombic
_symmetry_space_group_name_H-M   'P 21 21 21'
_symmetry_Int_Tables_number      19
_space_group_name_Hall           'P 2ac 2ab'
loop_
_symmetry_equiv_pos_site_id
_symmetry_equiv_pos_as_xyz
1 x,y,z
2 1/2-x,-y,1/2+z
3 -x,1/2+y,1/2-z
4 1/2+x,1/2-y,-z
_cell_length_a                   6.3061(16)
_cell_length_b                   12.000(3)
_cell_length_c                   30.470(8)
_cell_angle_alpha                90
_cell_angle_beta                 90
_cell_angle_gamma                90
_cell_volume                     2305.76
_exptl_crystal_colour            colorless
_exptl_crystal_description       block
_cell_formula_units_Z            4
loop_
_atom_site_label
_atom_site_type_symbol
_atom_site_fract_x
_atom_site_fract_y
_atom_site_fract_z
Br1 Br 0.14190(15) 0.55792(9) 0.98846(3)
S1 S 0.4507(3) 0.73203(13) 0.80071(5)
N1 N 0.9903(9) 0.7017(4) 0.6355(2)
N2 N 0.4562(11) 0.8437(6) 0.5336(2)
O1 O 1.0280(8) 0.6737(4) 0.67340(16)
O2 O 1.1024(7) 0.6832(4) 0.60415(16)
O3 O 0.5392(10) 0.7917(5) 0.50481(16)
O4 O 0.3107(9) 0.9066(5) 0.52884(15)
O5 O 0.4621(6) 0.8936(3) 0.73064(12)
O6 O 0.2164(7) 0.9674(4) 0.68608(13)
C1 C 0.6824(9) 0.8025(4) 0.66286(17)
H1 H 0.7309 0.7904 0.6913
C2 C 0.7925(9) 0.7617(5) 0.62764(18)
C3 C 0.7247(10) 0.7746(5) 0.58513(17)
H2 H 0.8018 0.7464 0.5616
C4 C 0.5385(10) 0.8308(5) 0.57900(18)
C5 C 0.4276(9) 0.8768(5) 0.61300(19)
H3 H 0.3055 0.9179 0.6075
C6 C 0.4969(9) 0.8623(4) 0.65543(18)
C7 C 0.3711(10) 0.9142(5) 0.69167(18)
C8 C 0.3695(9) 0.9426(5) 0.76999(17)
H4 H 0.2652 0.9990 0.7613
C9 C 0.5461(10) 0.9982(5) 0.7939(2)
H5 H 0.6611 1.0265 0.7784
C10 C 0.5399(11) 1.0073(5) 0.8367(2)
H6 H 0.6520 1.0417 0.8512
C11 C 0.3627(10) 0.9652(5) 0.86212(18)
C12 C 0.3350(12) 0.9928(5) 0.9065(2)
H7 H 0.4360 1.0370 0.9203
C13 C 0.1654(13) 0.9567(6) 0.9297(2)
H8 H 0.1517 0.9745 0.9592
C14 C 0.0167(12) 0.8949(6) 0.9094(2)
H9 H -0.1040 0.8731 0.9247
C15 C 0.0418(11) 0.8631(5) 0.86582(19)
H10 H -0.0602 0.8182 0.8527
C16 C 0.2146(9) 0.8970(5) 0.84191(18)
C17 C 0.2580(8) 0.8521(5) 0.79638(17)
C18 C 0.0598(9) 0.8117(6) 0.77230(19)
H11 H -0.0384 0.8724 0.7693
H12 H -0.0054 0.7527 0.7888
H13 H 0.0986 0.7847 0.7438
C19 C 0.3760(10) 0.6723(5) 0.85151(18)
C20 C 0.2000(10) 0.6049(5) 0.8553(2)
H14 H 0.1259 0.5832 0.8303
C21 C 0.1338(11) 0.5696(5) 0.8962(2)
H15 H 0.0142 0.5247 0.8988
C22 C 0.2421(11) 0.6001(5) 0.9326(2)
C23 C 0.4221(11) 0.6629(5) 0.9293(2)
H16 H 0.4995 0.6808 0.9543
C24 C 0.4881(10) 0.6995(5) 0.8890(2)
H17 H 0.6095 0.7431 0.8869
loop_
_geom_bond_atom_site_label_1
_geom_bond_atom_site_label_2
_geom_bond_site_symmetry_1
_geom_bond_site_symmetry_2
Br1 C22 1_555 1_555
S1 C17 1_555 1_555
N1 O1 1_555 1_555
N2 O3 1_555 1_555
O2 N1 1_555 1_555
O4 N2 1_555 1_555
O5 C7 1_555 1_555
O6 C7 1_555 1_555
C1 H1 1_555 1_555
C2 N1 1_555 1_555
C3 C2 1_555 1_555
H2 C3 1_555 1_555
C4 N2 1_555 1_555
C5 C4 1_555 1_555
H3 C5 1_555 1_555
C6 C1 1_555 1_555
C7 C6 1_555 1_555
C8 O5 1_555 1_555
H4 C8 1_555 1_555
C9 C8 1_555 1_555
H5 C9 1_555 1_555
C10 C9 1_555 1_555
H6 C10 1_555 1_555
C11 C10 1_555 1_555
C12 C11 1_555 1_555
H7 C12 1_555 1_555
C13 C12 1_555 1_555
H8 C13 1_555 1_555
C14 C13 1_555 1_555
H9 C14 1_555 1_555
C15 C14 1_555 1_555
H10 C15 1_555 1_555
C16 C11 1_555 1_555
C17 C8 1_555 1_555
C18 C17 1_555 1_555
H11 C18 1_555 1_555
H12 C18 1_555 1_555
H13 C18 1_555 1_555
C19 S1 1_555 1_555
C20 C19 1_555 1_555
H14 C20 1_555 1_555
C21 C20 1_555 1_555
H15 C21 1_555 1_555
C22 C21 1_555 1_555
C23 C22 1_555 1_555
H16 C23 1_555 1_555
C24 C19 1_555 1_555
H17 C24 1_555 1_555
C1 C2 1_555 1_555
C3 C4 1_555 1_555
C5 C6 1_555 1_555
C15 C16 1_555 1_555
C16 C17 1_555 1_555
C23 C24 1_555 1_555

#END
