
#######################################################################
#
#                 Cambridge Crystallographic Data Centre
#                                CCDC 
#
#######################################################################
#
# If this CIF has been generated from an entry in the Cambridge 
# Structural Database, then it will include bibliographic, chemical, 
# crystal, experimental, refinement or atomic coordinate data resulting 
# from the CCDC's data processing and validation procedures.
#
#######################################################################

data_GEZXOB
_chemical_formula_moiety         'C22 H22 O3 S1'
_chemical_name_systematic        
1,1'-{1-methoxy-2-[(4-methylphenyl)sulfonyl]ethane-1,1-diyl}dibenzene
_symmetry_cell_setting           monoclinic
_symmetry_space_group_name_H-M   'P 21'
_symmetry_Int_Tables_number      4
_space_group_name_Hall           'P 2yb'
loop_
_symmetry_equiv_pos_site_id
_symmetry_equiv_pos_as_xyz
1 x,y,z
2 -x,1/2+y,-z
_cell_length_a                   9.352(3)
_cell_length_b                   9.221(3)
_cell_length_c                   11.844(3)
_cell_angle_alpha                90
_cell_angle_beta                 109.862(4)
_cell_angle_gamma                90
_cell_volume                     960.608
_cell_formula_units_Z            2
loop_
_atom_site_label
_atom_site_type_symbol
_atom_site_fract_x
_atom_site_fract_y
_atom_site_fract_z
C1 C 0.4814(5) 0.5886(5) 0.8690(4)
H1 H 0.497350 0.505210 0.915855
C2 C 0.5326(6) 0.7214(6) 0.9230(4)
H2 H 0.580174 0.726845 1.005734
C3 C 0.5133(6) 0.8440(6) 0.8548(4)
H3 H 0.549267 0.932374 0.891216
C4 C 0.4404(6) 0.8373(5) 0.7315(4)
H4 H 0.428045 0.920509 0.684796
C5 C 0.3859(5) 0.7039(5) 0.6787(4)
H5 H 0.334483 0.699396 0.596416
C6 C 0.4066(4) 0.5786(4) 0.7460(3)
C7 C 0.5501(5) 0.2218(5) 0.7533(4)
H6 H 0.494330 0.180385 0.796763
C8 C 0.6853(6) 0.1547(6) 0.7509(5)
H7 H 0.717309 0.068177 0.792001
C9 C 0.7694(5) 0.2160(6) 0.6885(5)
H8 H 0.858304 0.171519 0.687582
C10 C 0.7214(5) 0.3436(5) 0.6273(4)
H9 H 0.778449 0.385665 0.585119
C11 C 0.5895(5) 0.4095(5) 0.6279(4)
H10 H 0.558102 0.495642 0.585926
C12 C 0.5024(4) 0.3484(4) 0.6911(3)
C13 C 0.3580(4) 0.4276(4) 0.6924(3)
C14 C 0.1707(6) 0.4068(7) 0.7903(4)
H11 H 0.206866 0.475991 0.854236
H12 H 0.113921 0.332450 0.812975
H13 H 0.106456 0.454754 0.719203
C15 C 0.2415(5) 0.4384(5) 0.5638(4)
H14 H 0.292804 0.476681 0.511533
H15 H 0.163488 0.507553 0.564280
C16 C 0.0733(5) 0.3161(5) 0.3471(4)
C17 C 0.1459(5) 0.2705(7) 0.2689(4)
H16 H 0.232900 0.213461 0.296246
C18 C 0.0870(6) 0.3112(6) 0.1494(4)
H17 H 0.135752 0.282105 0.096601
C19 C -0.0446(6) 0.3953(7) 0.1071(5)
C20 C -0.1121(6) 0.4412(7) 0.1872(5)
H18 H -0.197491 0.500480 0.160440
C21 C -0.0557(5) 0.4011(7) 0.3071(4)
H19 H -0.104183 0.431007 0.359824
C22 C -0.1052(8) 0.4401(10) -0.0231(6)
H20 H -0.197228 0.494641 -0.037951
H21 H -0.125972 0.355151 -0.072923
H22 H -0.031065 0.498826 -0.041138
O1 O 0.2970(3) 0.3431(3) 0.7670(2)
O2 O 0.0255(4) 0.2436(5) 0.5427(3)
O3 O 0.2617(4) 0.1590(4) 0.5159(3)
S1 S 0.15039(11) 0.27023(12) 0.50111(9)
loop_
_geom_bond_atom_site_label_1
_geom_bond_atom_site_label_2
_geom_bond_site_symmetry_1
_geom_bond_site_symmetry_2
C1 H1 1_555 1_555
C2 C1 1_555 1_555
H2 C2 1_555 1_555
C3 C2 1_555 1_555
H3 C3 1_555 1_555
C4 C3 1_555 1_555
H4 C4 1_555 1_555
C5 C4 1_555 1_555
H5 C5 1_555 1_555
C6 C1 1_555 1_555
C7 H6 1_555 1_555
C8 C7 1_555 1_555
H7 C8 1_555 1_555
C9 C8 1_555 1_555
H8 C9 1_555 1_555
C10 C9 1_555 1_555
H9 C10 1_555 1_555
C11 C10 1_555 1_555
H10 C11 1_555 1_555
C12 C7 1_555 1_555
C13 C6 1_555 1_555
C14 H11 1_555 1_555
H12 C14 1_555 1_555
H13 C14 1_555 1_555
C15 C13 1_555 1_555
H14 C15 1_555 1_555
H15 C15 1_555 1_555
C16 C17 1_555 1_555
C17 H16 1_555 1_555
C18 C17 1_555 1_555
H17 C18 1_555 1_555
C19 C18 1_555 1_555
C20 C19 1_555 1_555
H18 C20 1_555 1_555
C21 C16 1_555 1_555
H19 C21 1_555 1_555
C22 C19 1_555 1_555
H20 C22 1_555 1_555
H21 C22 1_555 1_555
H22 C22 1_555 1_555
O1 C13 1_555 1_555
O2 S1 1_555 1_555
O3 S1 1_555 1_555
S1 C15 1_555 1_555
C5 C6 1_555 1_555
C11 C12 1_555 1_555
C12 C13 1_555 1_555
C14 O1 1_555 1_555
C16 S1 1_555 1_555
C20 C21 1_555 1_555

#END
