
#######################################################################
#
#                 Cambridge Crystallographic Data Centre
#                                CCDC 
#
#######################################################################
#
# If this CIF has been generated from an entry in the Cambridge 
# Structural Database, then it will include bibliographic, chemical, 
# crystal, experimental, refinement or atomic coordinate data resulting 
# from the CCDC's data processing and validation procedures.
#
#######################################################################

data_GEZXIU
_chemical_formula_moiety         'C7 H9 Br1 O2'
_chemical_name_systematic        5-(Bromomethylene)oxepan-2-one
_symmetry_cell_setting           monoclinic
_symmetry_space_group_name_H-M   'P 21/c'
_symmetry_Int_Tables_number      14
_space_group_name_Hall           '-P 2ybc'
loop_
_symmetry_equiv_pos_site_id
_symmetry_equiv_pos_as_xyz
1 x,y,z
2 -x,1/2+y,1/2-z
3 -x,-y,-z
4 x,1/2-y,1/2+z
_cell_length_a                   12.764(3)
_cell_length_b                   8.6044(6)
_cell_length_c                   7.2488(7)
_cell_angle_alpha                90
_cell_angle_beta                 104.256(10)
_cell_angle_gamma                90
_cell_volume                     771.595
_exptl_crystal_colour            colorless
_exptl_crystal_description       plate
_cell_formula_units_Z            4
loop_
_atom_site_label
_atom_site_type_symbol
_atom_site_fract_x
_atom_site_fract_y
_atom_site_fract_z
C1 C 0.71613(17) 0.2934(2) 0.2370(3)
H1 H 0.7654 0.3737 0.2401
C2 C 0.75591(15) 0.1500(2) 0.2754(3)
C3 C 0.87737(16) 0.1311(2) 0.3245(3)
H2 H 0.9010 0.0921 0.4536
H3 H 0.9102 0.2324 0.3209
C4 C 0.91791(16) 0.0218(2) 0.1918(3)
H4 H 0.8762 0.0391 0.0623
H5 H 0.9928 0.0462 0.1971
C5 C 0.81364(16) -0.2126(2) 0.2096(3)
C6 C 0.71039(16) -0.1213(2) 0.1346(3)
H6 H 0.6499 -0.1931 0.1082
H7 H 0.7134 -0.0728 0.0152
C7 C 0.68928(16) 0.0062(2) 0.2722(3)
H8 H 0.6134 0.0345 0.2356
H9 H 0.7041 -0.0366 0.3998
Br1 Br 0.567737(18) 0.34609(2) 0.17669(3)
O1 O 0.90993(12) -0.14100(16) 0.2398(2)
O2 O 0.81391(15) -0.35064(16) 0.2461(3)
loop_
_geom_bond_atom_site_label_1
_geom_bond_atom_site_label_2
_geom_bond_site_symmetry_1
_geom_bond_site_symmetry_2
C1 H1 1_555 1_555
C2 C1 1_555 1_555
C3 C2 1_555 1_555
H2 C3 1_555 1_555
H3 C3 1_555 1_555
C4 C3 1_555 1_555
H4 C4 1_555 1_555
H5 C4 1_555 1_555
C5 C6 1_555 1_555
C6 H6 1_555 1_555
H7 C6 1_555 1_555
C7 C2 1_555 1_555
H8 C7 1_555 1_555
H9 C7 1_555 1_555
Br1 C1 1_555 1_555
O1 C4 1_555 1_555
O2 C5 1_555 1_555
C5 O1 1_555 1_555
C6 C7 1_555 1_555

#END
