
#######################################################################
#
#                 Cambridge Crystallographic Data Centre
#                                CCDC 
#
#######################################################################
#
# If this CIF has been generated from an entry in the Cambridge 
# Structural Database, then it will include bibliographic, chemical, 
# crystal, experimental, refinement or atomic coordinate data resulting 
# from the CCDC's data processing and validation procedures.
#
#######################################################################

data_GEZZUI
_chemical_formula_moiety         'C25 H29 Br1 N2 O5 S1'
_chemical_name_systematic        
2-(1-(6-Bromo-1-((4-methylphenyl)sulfonyl)-1H-indol-3-yl)-2-nitroethyl)octanal
_symmetry_cell_setting           triclinic
_symmetry_space_group_name_H-M   'P -1'
_symmetry_Int_Tables_number      2
_space_group_name_Hall           '-P 1'
loop_
_symmetry_equiv_pos_site_id
_symmetry_equiv_pos_as_xyz
1 x,y,z
2 -x,-y,-z
_cell_length_a                   8.5291(11)
_cell_length_b                   12.2811(15)
_cell_length_c                   13.3324(16)
_cell_angle_alpha                70.573(2)
_cell_angle_beta                 80.100(2)
_cell_angle_gamma                81.923(2)
_cell_volume                     1292.18
_exptl_crystal_colour            colorless
_exptl_crystal_description       block
_cell_formula_units_Z            2
loop_
_atom_site_label
_atom_site_type_symbol
_atom_site_fract_x
_atom_site_fract_y
_atom_site_fract_z
Br1 Br 0.29043(8) 1.30658(5) 0.80483(6)
S1 S 0.80175(15) 0.91449(12) 0.83146(11)
O1 O 0.8251(5) 1.0281(3) 0.8299(3)
O2 O 0.9033(5) 0.8163(4) 0.8814(4)
N1 N 0.6189(5) 0.8872(4) 0.8963(4)
C1 C 0.5679(7) 0.7755(5) 0.9231(5)
H1 H 0.6364 0.7058 0.9330
C2 C 0.4069(7) 0.7826(5) 0.9325(5)
C3 C 0.3485(6) 0.9041(5) 0.9081(5)
C4 C 0.1961(6) 0.9622(5) 0.9070(5)
H2 H 0.1043 0.9201 0.9267
C5 C 0.1799(6) 1.0813(5) 0.8770(4)
H3 H 0.0767 1.1221 0.8748
C6 C 0.3163(7) 1.1420(5) 0.8497(5)
C7 C 0.4712(6) 1.0871(5) 0.8529(4)
H4 H 0.5626 1.1293 0.8361
C8 C 0.4830(6) 0.9680(4) 0.8819(4)
C9 C 0.7899(7) 0.9176(6) 0.7002(5)
C10 C 0.7713(14) 1.0201(8) 0.6228(6)
H5 H 0.7713 1.0909 0.6372
C11 C 0.7517(17) 1.0198(11) 0.5194(8)
H6 H 0.7335 1.0914 0.4648
C12 C 0.7586(17) 0.9193(14) 0.4972(9)
C13 C 0.7787(13) 0.8157(11) 0.5773(8)
H7 H 0.7810 0.7450 0.5625
C14 C 0.7958(11) 0.8135(7) 0.6804(6)
H8 H 0.8113 0.7419 0.7356
C15 C 0.7439(17) 0.9237(13) 0.3842(9)
H9 H 0.7293 1.0047 0.3390
H10 H 0.6517 0.8835 0.3858
H11 H 0.8412 0.8858 0.3548
C16 C 0.3119(19) 0.6754(13) 0.9682(12)
H12 H 0.3888 0.6049 0.9892
C17 C 0.2480(14) 0.6767(10) 0.8676(10)
H13 H 0.1765 0.7482 0.8423
H14 H 0.1853 0.6093 0.8846
C18 C 0.1697(15) 0.6620(10) 1.0569(9)
H15 H 0.0791 0.7157 1.0246
C19 C 0.1153(19) 0.5428(14) 1.0970(12)
H16 H 0.0113 0.5327 1.1361
O3 O 0.1961(14) 0.4567(8) 1.0827(9)
C20 C 0.1941(19) 0.6942(11) 1.1524(8)
H17 H 0.2996 0.7256 1.1363
H18 H 0.1124 0.7582 1.1587
C21 C 0.1877(18) 0.6038(10) 1.2591(9)
H19 H 0.2784 0.5435 1.2613
H20 H 0.0861 0.5668 1.2786
C22 C 0.1993(18) 0.6735(11) 1.3317(8)
H21 H 0.1274 0.7459 1.3128
H22 H 0.3100 0.6949 1.3214
C23 C 0.1527(18) 0.6029(11) 1.4495(8)
H23 H 0.0434 0.5795 1.4587
H24 H 0.2265 0.5315 1.4682
C24 C 0.1581(19) 0.6704(12) 1.5254(9)
H25 H 0.0915 0.7449 1.5031
H26 H 0.2694 0.6880 1.5209
C25 C 0.098(2) 0.6027(15) 1.6422(10)
H27 H 0.1041 0.6488 1.6887
H28 H 0.1642 0.5293 1.6649
H29 H -0.0134 0.5871 1.6474
N2 N 0.388(3) 0.6717(16) 0.7794(13)
O4 O 0.3924(16) 0.7586(13) 0.6973(10)
O5 O 0.4835(14) 0.5947(10) 0.7928(9)
C26? C 0.304(2) 0.6902(14) 0.9368(12)
H30? H 0.2002 0.7300 0.9124
C27? C 0.3744(17) 0.6150(11) 0.8658(11)
H31? H 0.4813 0.5786 0.8840
H32? H 0.3046 0.5526 0.8779
C28? C 0.2675(14) 0.6114(10) 1.0537(9)
H33? H 0.3595 0.5510 1.0696
C29? C 0.119(2) 0.5499(15) 1.0622(12)
H34? H 0.0191 0.5953 1.0609
O6? O 0.1173(15) 0.4522(9) 1.0702(10)
C30? C 0.2477(17) 0.6776(10) 1.1343(8)
H35? H 0.3188 0.7413 1.1068
H36? H 0.1362 0.7127 1.1413
C31? C 0.286(2) 0.6026(11) 1.2422(9)
H37? H 0.3966 0.5684 1.2301
H38? H 0.2170 0.5377 1.2632
C32? C 0.2761(19) 0.6378(12) 1.3426(10)
H39? H 0.1631 0.6455 1.3745
H40? H 0.3192 0.7140 1.3229
C33? C 0.372(2) 0.5475(15) 1.4252(11)
H41? H 0.4826 0.5363 1.3911
H42? H 0.3242 0.4725 1.4472
C34? C 0.375(2) 0.5818(19) 1.5255(13)
H43? H 0.4367 0.5199 1.5762
H44? H 0.4287 0.6539 1.5048
C35? C 0.206(2) 0.6006(19) 1.5807(14)
H45? H 0.2034 0.5672 1.6587
H46? H 0.1320 0.5627 1.5568
H47? H 0.1727 0.6838 1.5621
N3? N 0.387(3) 0.6903(18) 0.7502(14)
O7? O 0.306(2) 0.7739(13) 0.7183(12)
O8? O 0.4912(17) 0.6493(13) 0.6881(10)
loop_
_geom_bond_atom_site_label_1
_geom_bond_atom_site_label_2
_geom_bond_site_symmetry_1
_geom_bond_site_symmetry_2
Br1 C6 1_555 1_555
S1 O1 1_555 1_555
O2 S1 1_555 1_555
N1 S1 1_555 1_555
C1 N1 1_555 1_555
H1 C1 1_555 1_555
C2 C1 1_555 1_555
C3 C2 1_555 1_555
C4 C3 1_555 1_555
H2 C4 1_555 1_555
C5 C4 1_555 1_555
H3 C5 1_555 1_555
C6 C5 1_555 1_555
C7 C6 1_555 1_555
H4 C7 1_555 1_555
C8 N1 1_555 1_555
C9 S1 1_555 1_555
C10 C9 1_555 1_555
H5 C10 1_555 1_555
C11 C10 1_555 1_555
H6 C11 1_555 1_555
C12 C11 1_555 1_555
C13 C12 1_555 1_555
H7 C13 1_555 1_555
C14 C9 1_555 1_555
H8 C14 1_555 1_555
C15 C12 1_555 1_555
H9 C15 1_555 1_555
H10 C15 1_555 1_555
H11 C15 1_555 1_555
C16 C2 1_555 1_555
H12 C16 1_555 1_555
C17 C16 1_555 1_555
H13 C17 1_555 1_555
H14 C17 1_555 1_555
C18 C16 1_555 1_555
H15 C18 1_555 1_555
C19 C18 1_555 1_555
H16 C19 1_555 1_555
O3 C19 1_555 1_555
C20 C18 1_555 1_555
H17 C20 1_555 1_555
H18 C20 1_555 1_555
C21 C20 1_555 1_555
H19 C21 1_555 1_555
H20 C21 1_555 1_555
C22 C21 1_555 1_555
H21 C22 1_555 1_555
H22 C22 1_555 1_555
C23 C22 1_555 1_555
H23 C23 1_555 1_555
H24 C23 1_555 1_555
C24 C23 1_555 1_555
H25 C24 1_555 1_555
H26 C24 1_555 1_555
C25 C24 1_555 1_555
H27 C25 1_555 1_555
H28 C25 1_555 1_555
H29 C25 1_555 1_555
N2 C17 1_555 1_555
O4 N2 1_555 1_555
O5 N2 1_555 1_555
C3 C8 1_555 1_555
C7 C8 1_555 1_555
C13 C14 1_555 1_555

#END
