
#######################################################################
#
#                 Cambridge Crystallographic Data Centre
#                                CCDC 
#
#######################################################################
#
# If this CIF has been generated from an entry in the Cambridge 
# Structural Database, then it will include bibliographic, chemical, 
# crystal, experimental, refinement or atomic coordinate data resulting 
# from the CCDC's data processing and validation procedures.
#
#######################################################################

data_GEZZIX
_chemical_formula_moiety         'C16 H14 O2 S1'
_chemical_name_systematic        2-[(phenylsulfonyl)methyl]-1H-indene
_symmetry_cell_setting           monoclinic
_symmetry_space_group_name_H-M   'P 21/n'
_symmetry_Int_Tables_number      14
_space_group_name_Hall           '-P 2yn'
loop_
_symmetry_equiv_pos_site_id
_symmetry_equiv_pos_as_xyz
1 x,y,z
2 1/2-x,1/2+y,1/2-z
3 -x,-y,-z
4 1/2+x,1/2-y,1/2+z
_cell_length_a                   8.299(3)
_cell_length_b                   10.924(4)
_cell_length_c                   14.783(5)
_cell_angle_alpha                90
_cell_angle_beta                 98.016(8)
_cell_angle_gamma                90
_cell_volume                     1327.11
_exptl_crystal_colour            colorless
_exptl_crystal_description       block
_cell_formula_units_Z            4
loop_
_atom_site_label
_atom_site_type_symbol
_atom_site_fract_x
_atom_site_fract_y
_atom_site_fract_z
S1 S 0.26372(6) 0.68351(5) 0.76206(3)
O1 O 0.10556(19) 0.63590(19) 0.73069(11)
O2 O 0.2918(3) 0.81006(15) 0.74716(12)
C1 C 0.3114(2) 0.65178(19) 0.87973(13)
C2 C 0.3630(2) 0.6713(2) 0.46063(14)
C3 C 0.2722(3) 0.5646(2) 0.45951(14)
C4 C 0.4318(3) 0.6983(2) 0.55660(15)
H1 H 0.4982 0.7639 0.5774
C5 C 0.4236(3) 0.7249(2) 0.93222(16)
H2 H 0.4747 0.7889 0.9059
C6 C 0.2786(3) 0.5197(2) 0.55448(16)
H3 H 0.1701 0.5161 0.5717
H4 H 0.3263 0.4385 0.5605
C7 C 0.3759(3) 0.6040(2) 0.61015(14)
C8 C 0.1945(3) 0.5178(2) 0.37779(17)
H5 H 0.1347 0.4457 0.3768
C9 C 0.4094(3) 0.5953(2) 0.71186(15)
H6 H 0.5182 0.6254 0.7330
H7 H 0.4039 0.5104 0.7304
C10 C 0.2361(3) 0.5556(2) 0.91647(17)
H8 H 0.1624 0.5063 0.8798
C11 C 0.3763(3) 0.7329(2) 0.38012(16)
H9 H 0.4374 0.8043 0.3805
C12 C 0.2967(3) 0.6857(3) 0.29894(17)
H10 H 0.3041 0.7263 0.2444
C13 C 0.2072(3) 0.5801(3) 0.29799(16)
H11 H 0.1544 0.5501 0.2428
C14 C 0.4585(4) 0.7009(3) 1.02498(18)
H12 H 0.5340 0.7486 1.0617
C15 C 0.3816(4) 0.6068(3) 1.06237(16)
H13 H 0.4037 0.5922 1.1248
C16 C 0.2721(4) 0.5335(3) 1.0090(2)
H14 H 0.2222 0.4689 1.0352
loop_
_geom_bond_atom_site_label_1
_geom_bond_atom_site_label_2
_geom_bond_site_symmetry_1
_geom_bond_site_symmetry_2
S1 O1 1_555 1_555
O2 S1 1_555 1_555
C1 S1 1_555 1_555
C2 C3 1_555 1_555
C3 C6 1_555 1_555
C4 C2 1_555 1_555
H1 C4 1_555 1_555
C5 C1 1_555 1_555
H2 C5 1_555 1_555
C6 H3 1_555 1_555
H4 C6 1_555 1_555
C7 C4 1_555 1_555
C8 C3 1_555 1_555
H5 C8 1_555 1_555
C9 S1 1_555 1_555
H6 C9 1_555 1_555
H7 C9 1_555 1_555
C10 C1 1_555 1_555
H8 C10 1_555 1_555
C11 C2 1_555 1_555
H9 C11 1_555 1_555
C12 C11 1_555 1_555
H10 C12 1_555 1_555
C13 C8 1_555 1_555
H11 C13 1_555 1_555
C14 C5 1_555 1_555
H12 C14 1_555 1_555
C15 C14 1_555 1_555
H13 C15 1_555 1_555
C16 C10 1_555 1_555
H14 C16 1_555 1_555
C6 C7 1_555 1_555
C7 C9 1_555 1_555
C12 C13 1_555 1_555
C15 C16 1_555 1_555

#END
