
#######################################################################
#
#                 Cambridge Crystallographic Data Centre
#                                CCDC 
#
#######################################################################
#
# If this CIF has been generated from an entry in the Cambridge 
# Structural Database, then it will include bibliographic, chemical, 
# crystal, experimental, refinement or atomic coordinate data resulting 
# from the CCDC's data processing and validation procedures.
#
#######################################################################

data_GIBCEZ
_chemical_formula_moiety         'C14 H22 N2 O2'
_chemical_name_systematic        
5-n-Hexyl-2,8-diazabicyclo(4.4.0)dec-10-ene-3,9-dione
_symmetry_cell_setting           monoclinic
_symmetry_space_group_name_H-M   'P 21/c'
_symmetry_Int_Tables_number      14
_space_group_name_Hall           '-P 2ybc'
loop_
_symmetry_equiv_pos_site_id
_symmetry_equiv_pos_as_xyz
1 x,y,z
2 -x,1/2+y,1/2-z
3 -x,-y,-z
4 x,1/2-y,1/2+z
_cell_length_a                   14.657(3)
_cell_length_b                   9.048(1)
_cell_length_c                   10.505(3)
_cell_angle_alpha                90
_cell_angle_beta                 100.09(2)
_cell_angle_gamma                90
_cell_volume                     1371.59
_exptl_crystal_colour            beige
_chemical_melting_point          239.8-240.5deg.C
_cell_formula_units_Z            4
_exptl_crystal_recrystallization_method methanol
loop_
_atom_site_label
_atom_site_type_symbol
_atom_site_fract_x
_atom_site_fract_y
_atom_site_fract_z
N1 N 0.8836(1) -0.0841(2) -0.1405(2)
C1 C 0.8317(2) -0.1893(2) -0.0909(2)
C2 C 0.7857(2) -0.1426(2) 0.0192(3)
C3 C 0.8534(1) 0.1084(2) 0.0147(2)
C4 C 0.7653(1) 0.0223(2) 0.0227(2)
C5 C 0.8367(2) 0.2738(2) 0.0062(2)
N2 N 0.9171(1) 0.3531(2) -0.0205(2)
C6 C 0.9665(1) 0.3044(2) -0.1078(2)
C7 C 0.8960(1) 0.0608(2) -0.0993(2)
C8 C 0.9470(1) 0.1547(2) -0.1565(2)
C9 C 0.7225(2) 0.0645(2) 0.1401(2)
C10 C 0.6299(2) -0.0043(4) 0.1455(3)
C11 C 0.5783(2) 0.0619(3) 0.2403(3)
C12 C 0.4872(2) -0.0021(4) 0.2538(3)
C13 C 0.4306(2) 0.0683(4) 0.3336(4)
C14 C 0.3439(2) 0.0027(4) 0.3583(3)
O1 O 0.8256(1) -0.3129(2) -0.1364(2)
O2 O 1.0281(1) 0.3816(2) -0.1419(1)
loop_
_geom_bond_atom_site_label_1
_geom_bond_atom_site_label_2
_geom_bond_site_symmetry_1
_geom_bond_site_symmetry_2
N1 C1 1_555 1_555
C1 C2 1_555 1_555
C2 C4 1_555 1_555
C3 C4 1_555 1_555
C4 C9 1_555 1_555
C5 C3 1_555 1_555
N2 C5 1_555 1_555
C6 N2 1_555 1_555
C7 N1 1_555 1_555
C8 C6 1_555 1_555
C9 C10 1_555 1_555
C10 C11 1_555 1_555
C11 C12 1_555 1_555
C12 C13 1_555 1_555
C13 C14 1_555 1_555
O1 C1 1_555 1_555
O2 C6 1_555 1_555
C3 C7 1_555 1_555
C7 C8 1_555 1_555

#END
