
#######################################################################
#
#                 Cambridge Crystallographic Data Centre
#                                CCDC 
#
#######################################################################
#
# If this CIF has been generated from an entry in the Cambridge 
# Structural Database, then it will include bibliographic, chemical, 
# crystal, experimental, refinement or atomic coordinate data resulting 
# from the CCDC's data processing and validation procedures.
#
#######################################################################

data_GIBJUY
_chemical_formula_moiety         'C36 H40 B1 F10 P1,0.5(C1 H2 Cl2)'
_chemical_name_systematic        
'(3-(4-(Di-t-butylphosphonio)phenyl)-4,7,7-trimethylbicyclo[2.2.1]hept-2-yl)(hydrido)bis(pentafluorophenyl)borate dichloromethane solvate'
_symmetry_cell_setting           monoclinic
_symmetry_space_group_name_H-M   'P 21'
_symmetry_Int_Tables_number      4
_space_group_name_Hall           'P 2yb'
loop_
_symmetry_equiv_pos_site_id
_symmetry_equiv_pos_as_xyz
1 x,y,z
2 -x,1/2+y,-z
_cell_length_a                   15.070(4)
_cell_length_b                   13.208(4)
_cell_length_c                   17.862(5)
_cell_angle_alpha                90
_cell_angle_beta                 97.089(8)
_cell_angle_gamma                90
_cell_volume                     3528.16
_exptl_crystal_description       block
_cell_formula_units_Z            4
loop_
_atom_site_label
_atom_site_type_symbol
_atom_site_fract_x
_atom_site_fract_y
_atom_site_fract_z
P1 P -0.11600(8) 0.21265(10) 0.75708(7)
H1 H -0.1320 0.3065 0.7469
F1 F -0.06640(18) -0.0519(2) 0.47436(16)
F2 F -0.2177(2) -0.0213(2) 0.53371(17)
F3 F -0.32550(18) 0.1383(3) 0.48792(17)
F4 F -0.2758(2) 0.2680(3) 0.3831(2)
F5 F -0.1205(2) 0.2480(2) 0.32971(19)
F6 F 0.0617(2) 0.2950(2) 0.32715(16)
F7 F 0.0775(2) 0.3596(2) 0.18918(17)
F8 F 0.0447(2) 0.2349(3) 0.06871(16)
F9 F -0.0034(2) 0.0380(3) 0.09088(16)
F10 F -0.0153(2) -0.0312(2) 0.22796(16)
B1 B 0.0176(4) 0.0795(4) 0.3711(3)
H2 H 0.0223 -0.0084 0.3680
C1 C -0.0827(3) 0.0971(4) 0.3998(3)
C2 C -0.1138(3) 0.0317(4) 0.4517(3)
C3 C -0.1929(3) 0.0433(4) 0.4815(3)
C4 C -0.2478(3) 0.1244(4) 0.4593(3)
C5 C -0.2220(3) 0.1897(4) 0.4076(3)
C6 C -0.1405(3) 0.1763(4) 0.3802(3)
C7 C 0.0228(3) 0.1271(4) 0.2870(3)
C8 C 0.0456(3) 0.2260(4) 0.2708(3)
C9 C 0.0540(3) 0.2621(4) 0.2000(3)
C10 C 0.0368(3) 0.2005(5) 0.1386(3)
C11 C 0.0129(3) 0.1008(5) 0.1504(3)
C12 C 0.0072(3) 0.0678(4) 0.2222(3)
C13 C 0.0927(3) 0.1285(4) 0.4351(2)
H3 H 0.0721 0.1987 0.4451
C14 C 0.1079(3) 0.0730(4) 0.5136(3)
H4 H 0.0914 0.0004 0.5041
C15 C 0.2110(3) 0.0766(4) 0.5346(3)
C16 C 0.2398(3) 0.1879(5) 0.5436(3)
H5 H 0.3020 0.1932 0.5687
H6 H 0.1999 0.2255 0.5738
C17 C 0.2323(4) 0.2301(4) 0.4611(3)
H7 H 0.1925 0.2899 0.4544
H8 H 0.2916 0.2479 0.4465
C18 C 0.1911(3) 0.1378(4) 0.4161(3)
H9 H 0.1960 0.1410 0.3608
C19 C 0.2427(3) 0.0494(4) 0.4569(3)
C20 C 0.2135(4) -0.0550(4) 0.4268(3)
H10 H 0.1485 -0.0612 0.4245
H11 H 0.2424 -0.1072 0.4604
H12 H 0.2311 -0.0637 0.3762
C21 C 0.3448(3) 0.0554(5) 0.4587(3)
H13 H 0.3722 -0.0058 0.4825
H14 H 0.3674 0.1150 0.4876
H15 H 0.3600 0.0606 0.4070
C22 C 0.2452(4) 0.0111(5) 0.6009(3)
H16 H 0.3105 0.0067 0.6048
H17 H 0.2194 -0.0569 0.5938
H18 H 0.2278 0.0408 0.6472
C23 C 0.0540(3) 0.1106(4) 0.5743(3)
C24 C 0.0273(3) 0.0414(4) 0.6257(3)
H19 H 0.0441 -0.0275 0.6220
C25 C -0.0233(3) 0.0698(4) 0.6826(3)
H20 H -0.0410 0.0208 0.7167
C26 C -0.0473(3) 0.1700(4) 0.6885(3)
C27 C -0.0203(3) 0.2412(4) 0.6387(3)
H21 H -0.0360 0.3104 0.6434
C28 C 0.0292(3) 0.2118(4) 0.5825(3)
H22 H 0.0469 0.2612 0.5486
C29 C -0.0585(3) 0.2111(4) 0.8543(3)
C30 C 0.0403(3) 0.2335(4) 0.8491(3)
H23 H 0.0458 0.2996 0.8251
H24 H 0.0650 0.1809 0.8189
H25 H 0.0734 0.2344 0.8999
C31 C -0.0676(4) 0.1090(4) 0.8937(3)
H26 H -0.0294 0.1087 0.9423
H27 H -0.0492 0.0544 0.8619
H28 H -0.1300 0.0989 0.9022
C32 C -0.0973(4) 0.2964(5) 0.8990(3)
H29 H -0.0653 0.2988 0.9502
H30 H -0.1609 0.2834 0.9016
H31 H -0.0905 0.3613 0.8737
C33 C -0.2291(3) 0.1578(4) 0.7398(3)
C34 C -0.2288(3) 0.0418(4) 0.7465(3)
H32 H -0.2033 0.0222 0.7976
H33 H -0.1927 0.0128 0.7098
H34 H -0.2902 0.0164 0.7365
C35 C -0.2878(3) 0.2042(5) 0.7949(3)
H35 H -0.2878 0.2781 0.7898
H36 H -0.2641 0.1855 0.8466
H37 H -0.3490 0.1787 0.7835
C36 C -0.2653(4) 0.1896(5) 0.6589(3)
H38 H -0.3248 0.1601 0.6452
H39 H -0.2248 0.1652 0.6239
H40 H -0.2694 0.2635 0.6561
P2 P 0.39628(8) 0.44677(10) 0.76212(7)
H41 H 0.3962 0.5408 0.7405
F11 F 0.46164(18) 0.5521(2) 1.29904(16)
F12 F 0.4374(2) 0.4745(2) 1.43237(16)
F13 F 0.4807(2) 0.2779(2) 1.46535(16)
F14 F 0.5451(2) 0.1595(2) 1.35883(16)
F15 F 0.57622(18) 0.2358(2) 1.22875(14)
F16 F 0.43556(19) 0.6304(2) 1.09756(17)
F17 F 0.2774(2) 0.6221(2) 1.01399(17)
F18 F 0.19069(18) 0.4437(3) 0.98685(17)
F19 F 0.2693(2) 0.2698(2) 1.04305(18)
F20 F 0.42785(18) 0.2742(2) 1.12675(16)
B2 B 0.5363(3) 0.4553(4) 1.1753(3)
H42 H 0.5516 0.5380 1.1880
C37 C 0.5216(3) 0.4001(4) 1.2565(3)
C38 C 0.4864(3) 0.4540(4) 1.3120(3)
C39 C 0.4720(3) 0.4156(4) 1.3800(3)
C40 C 0.4930(3) 0.3158(4) 1.3981(3)
C41 C 0.5264(3) 0.2591(4) 1.3440(3)
C42 C 0.5405(3) 0.3005(4) 1.2774(3)
C43 C 0.4393(3) 0.4530(4) 1.1203(3)
C44 C 0.3971(3) 0.5374(4) 1.0882(3)
C45 C 0.3152(3) 0.5361(4) 1.0430(3)
C46 C 0.2710(3) 0.4462(5) 1.0288(3)
C47 C 0.3108(3) 0.3590(4) 1.0582(3)
C48 C 0.3931(3) 0.3641(4) 1.1018(3)
C49 C 0.6119(3) 0.4020(4) 1.1282(3)
H43 H 0.5848 0.3386 1.1048
C50 C 0.6369(3) 0.4705(3) 1.0629(2)
H44 H 0.6299 0.5423 1.0792
C51 C 0.7390(3) 0.4514(4) 1.0638(3)
C52 C 0.7543(3) 0.3364(4) 1.0493(3)
H45 H 0.7117 0.3112 1.0068
H46 H 0.8161 0.3238 1.0381
C53 C 0.7376(3) 0.2855(4) 1.1248(3)
H47 H 0.6910 0.2324 1.1163
H48 H 0.7931 0.2551 1.1506
C54 C 0.7062(3) 0.3736(4) 1.1700(3)
H49 H 0.7077 0.3606 1.2252
C55 C 0.7693(3) 0.4591(4) 1.1495(3)
C56 C 0.8686(3) 0.4355(4) 1.1708(3)
H50 H 0.9046 0.4923 1.1559
H51 H 0.8841 0.3740 1.1447
H52 H 0.8808 0.4253 1.2254
C57 C 0.7524(3) 0.5629(4) 1.1837(3)
H53 H 0.7895 0.5699 1.2325
H54 H 0.6892 0.5687 1.1910
H55 H 0.7677 0.6165 1.1496
C58 C 0.7842(3) 0.5192(4) 1.0122(3)
H56 H 0.7760 0.5901 1.0261
H57 H 0.7577 0.5082 0.9599
H58 H 0.8482 0.5034 1.0171
C59 C 0.5796(3) 0.4584(4) 0.9881(3)
C60 C 0.5485(3) 0.3655(4) 0.9576(3)
H59 H 0.5651 0.3048 0.9843
C61 C 0.4945(3) 0.3604(4) 0.8900(3)
H60 H 0.4740 0.2965 0.8705
C62 C 0.4693(3) 0.4496(4) 0.8490(3)
C63 C 0.5005(3) 0.5426(4) 0.8774(3)
H61 H 0.4850 0.6032 0.8502
C64 C 0.5548(3) 0.5456(4) 0.9461(3)
H62 H 0.5759 0.6094 0.9654
C65 C 0.4409(3) 0.3716(4) 0.6890(3)
C66 C 0.3941(3) 0.4033(4) 0.6107(3)
H63 H 0.3969 0.4771 0.6056
H64 H 0.3315 0.3816 0.6054
H65 H 0.4243 0.3714 0.5712
C67 C 0.4305(4) 0.2571(4) 0.7019(3)
H66 H 0.3669 0.2402 0.6993
H67 H 0.4610 0.2388 0.7517
H68 H 0.4571 0.2195 0.6629
C68 C 0.5398(3) 0.4014(5) 0.6938(3)
H69 H 0.5662 0.3708 0.6517
H70 H 0.5717 0.3772 0.7416
H71 H 0.5449 0.4753 0.6912
C69 C 0.2807(3) 0.4248(4) 0.7814(3)
C70 C 0.2768(4) 0.3351(4) 0.8345(3)
H72 H 0.2155 0.3267 0.8466
H73 H 0.3170 0.3473 0.8811
H74 H 0.2954 0.2735 0.8101
C71 C 0.2542(4) 0.5215(4) 0.8204(3)
H75 H 0.1957 0.5119 0.8380
H76 H 0.2510 0.5780 0.7846
H77 H 0.2989 0.5364 0.8636
C72 C 0.2167(3) 0.4064(5) 0.7084(3)
H78 H 0.2299 0.3405 0.6870
H79 H 0.2248 0.4599 0.6718
H80 H 0.1548 0.4070 0.7198
Cl1 Cl 0.2479(6) 0.0327(6) 0.2188(4)
Cl2 Cl 0.2856(2) 0.2480(4) 0.24660(15)
C73 C 0.2810(7) 0.1296(6) 0.1908(6)
H81 H 0.3400 0.1232 0.1762
H82 H 0.2435 0.1464 0.1450
Cl3? Cl 0.2486(14) -0.0013(11) 0.2111(9)
Cl4? Cl 0.3359(8) 0.1759(12) 0.2595(4)
loop_
_geom_bond_atom_site_label_1
_geom_bond_atom_site_label_2
_geom_bond_site_symmetry_1
_geom_bond_site_symmetry_2
P1 H1 1_555 1_555
F1 C2 1_555 1_555
F2 C3 1_555 1_555
F3 C4 1_555 1_555
F4 C5 1_555 1_555
F5 C6 1_555 1_555
F6 C8 1_555 1_555
F7 C9 1_555 1_555
F8 C10 1_555 1_555
F9 C11 1_555 1_555
F10 C12 1_555 1_555
B1 H2 1_555 1_555
C1 B1 1_555 1_555
C2 C1 1_555 1_555
C3 C2 1_555 1_555
C4 C3 1_555 1_555
C5 C4 1_555 1_555
C6 C1 1_555 1_555
C7 B1 1_555 1_555
C8 C7 1_555 1_555
C9 C8 1_555 1_555
C10 C9 1_555 1_555
C11 C10 1_555 1_555
C12 C7 1_555 1_555
C13 B1 1_555 1_555
H3 C13 1_555 1_555
C14 C13 1_555 1_555
H4 C14 1_555 1_555
C15 C14 1_555 1_555
C16 C15 1_555 1_555
H5 C16 1_555 1_555
H6 C16 1_555 1_555
C17 C16 1_555 1_555
H7 C17 1_555 1_555
H8 C17 1_555 1_555
C18 C13 1_555 1_555
H9 C18 1_555 1_555
C19 C15 1_555 1_555
C20 C19 1_555 1_555
H10 C20 1_555 1_555
H11 C20 1_555 1_555
H12 C20 1_555 1_555
C21 C19 1_555 1_555
H13 C21 1_555 1_555
H14 C21 1_555 1_555
H15 C21 1_555 1_555
C22 C15 1_555 1_555
H16 C22 1_555 1_555
H17 C22 1_555 1_555
H18 C22 1_555 1_555
C23 C14 1_555 1_555
C24 C23 1_555 1_555
H19 C24 1_555 1_555
C25 C24 1_555 1_555
H20 C25 1_555 1_555
C26 P1 1_555 1_555
C27 C26 1_555 1_555
H21 C27 1_555 1_555
C28 C23 1_555 1_555
H22 C28 1_555 1_555
C29 P1 1_555 1_555
C30 C29 1_555 1_555
H23 C30 1_555 1_555
H24 C30 1_555 1_555
H25 C30 1_555 1_555
C31 C29 1_555 1_555
H26 C31 1_555 1_555
H27 C31 1_555 1_555
H28 C31 1_555 1_555
C32 C29 1_555 1_555
H29 C32 1_555 1_555
H30 C32 1_555 1_555
H31 C32 1_555 1_555
C33 P1 1_555 1_555
C34 C33 1_555 1_555
H32 C34 1_555 1_555
H33 C34 1_555 1_555
H34 C34 1_555 1_555
C35 C33 1_555 1_555
H35 C35 1_555 1_555
H36 C35 1_555 1_555
H37 C35 1_555 1_555
C36 C33 1_555 1_555
H38 C36 1_555 1_555
H39 C36 1_555 1_555
H40 C36 1_555 1_555
P2 H41 1_555 1_555
F11 C38 1_555 1_555
F12 C39 1_555 1_555
F13 C40 1_555 1_555
F14 C41 1_555 1_555
F15 C42 1_555 1_555
F16 C44 1_555 1_555
F17 C45 1_555 1_555
F18 C46 1_555 1_555
F19 C47 1_555 1_555
F20 C48 1_555 1_555
B2 H42 1_555 1_555
C37 B2 1_555 1_555
C38 C37 1_555 1_555
C39 C38 1_555 1_555
C40 C39 1_555 1_555
C41 C40 1_555 1_555
C42 C37 1_555 1_555
C43 B2 1_555 1_555
C44 C43 1_555 1_555
C45 C44 1_555 1_555
C46 C45 1_555 1_555
C47 C46 1_555 1_555
C48 C43 1_555 1_555
C49 B2 1_555 1_555
H43 C49 1_555 1_555
C50 C49 1_555 1_555
H44 C50 1_555 1_555
C51 C50 1_555 1_555
C52 C51 1_555 1_555
H45 C52 1_555 1_555
H46 C52 1_555 1_555
C53 C52 1_555 1_555
H47 C53 1_555 1_555
H48 C53 1_555 1_555
C54 C49 1_555 1_555
H49 C54 1_555 1_555
C55 C51 1_555 1_555
C56 C55 1_555 1_555
H50 C56 1_555 1_555
H51 C56 1_555 1_555
H52 C56 1_555 1_555
C57 C55 1_555 1_555
H53 C57 1_555 1_555
H54 C57 1_555 1_555
H55 C57 1_555 1_555
C58 C51 1_555 1_555
H56 C58 1_555 1_555
H57 C58 1_555 1_555
H58 C58 1_555 1_555
C59 C50 1_555 1_555
C60 C59 1_555 1_555
H59 C60 1_555 1_555
C61 C60 1_555 1_555
H60 C61 1_555 1_555
C62 P2 1_555 1_555
C63 C62 1_555 1_555
H61 C63 1_555 1_555
C64 C59 1_555 1_555
H62 C64 1_555 1_555
C65 P2 1_555 1_555
C66 C65 1_555 1_555
H63 C66 1_555 1_555
H64 C66 1_555 1_555
H65 C66 1_555 1_555
C67 C65 1_555 1_555
H66 C67 1_555 1_555
H67 C67 1_555 1_555
H68 C67 1_555 1_555
C68 C65 1_555 1_555
H69 C68 1_555 1_555
H70 C68 1_555 1_555
H71 C68 1_555 1_555
C69 P2 1_555 1_555
C70 C69 1_555 1_555
H72 C70 1_555 1_555
H73 C70 1_555 1_555
H74 C70 1_555 1_555
C71 C69 1_555 1_555
H75 C71 1_555 1_555
H76 C71 1_555 1_555
H77 C71 1_555 1_555
C72 C69 1_555 1_555
H78 C72 1_555 1_555
H79 C72 1_555 1_555
H80 C72 1_555 1_555
Cl1 C73 1_555 1_555
Cl2 C73 1_555 1_555
C73 H81 1_555 1_555
H82 C73 1_555 1_555
C5 C6 1_555 1_555
C11 C12 1_555 1_555
C17 C18 1_555 1_555
C18 C19 1_555 1_555
C25 C26 1_555 1_555
C27 C28 1_555 1_555
C41 C42 1_555 1_555
C47 C48 1_555 1_555
C53 C54 1_555 1_555
C54 C55 1_555 1_555
C61 C62 1_555 1_555
C63 C64 1_555 1_555

#END
