
#######################################################################
#
#                 Cambridge Crystallographic Data Centre
#                                CCDC 
#
#######################################################################
#
# If this CIF has been generated from an entry in the Cambridge 
# Structural Database, then it will include bibliographic, chemical, 
# crystal, experimental, refinement or atomic coordinate data resulting 
# from the CCDC's data processing and validation procedures.
#
#######################################################################

data_GIBKIN
_chemical_formula_moiety         'C26 H29 N3 O2,C1 H4 O1'
_chemical_name_systematic        
'N-Cyclohexyl-1-(1H-indol-2-yl)-3-oxo-2-propylisoindoline-1-carboxamide methanol solvate'
_symmetry_cell_setting           orthorhombic
_symmetry_space_group_name_H-M   'C 2 2 21'
_symmetry_Int_Tables_number      20
_space_group_name_Hall           'C 2n 2'
loop_
_symmetry_equiv_pos_site_id
_symmetry_equiv_pos_as_xyz
1 x,y,z
2 x,-y,-z
3 -x,y,1/2-z
4 -x,-y,1/2+z
5 1/2+x,1/2+y,z
6 1/2+x,1/2-y,-z
7 1/2-x,1/2+y,1/2-z
8 1/2-x,1/2-y,1/2+z
_cell_length_a                   16.19560(10)
_cell_length_b                   17.75810(10)
_cell_length_c                   18.1464(2)
_cell_angle_alpha                90
_cell_angle_beta                 90
_cell_angle_gamma                90
_cell_volume                     5218.96
_exptl_crystal_colour            colorless
_exptl_crystal_description       prismatic
_cell_formula_units_Z            8
loop_
_atom_site_label
_atom_site_type_symbol
_atom_site_fract_x
_atom_site_fract_y
_atom_site_fract_z
N1 N 0.04277(13) 0.11433(11) 0.94281(11)
N2 N -0.00642(14) 0.25384(11) 0.83760(11)
N3 N 0.09927(13) 0.03751(12) 0.81537(10)
H1 H 0.0905 0.0155 0.8569
O1 O 0.06026(14) 0.06312(11) 1.05819(10)
O2 O 0.09838(12) 0.14799(10) 0.75382(10)
C1 C 0.09085(14) 0.15435(12) 0.88637(12)
C2 C 0.08833(17) 0.09328(13) 1.00234(13)
C3 C 0.17470(17) 0.11358(14) 0.98595(14)
C4 C 0.2466(2) 0.10017(19) 1.02622(17)
H2 H 0.2449 0.0765 1.0719
C5 C 0.3202(2) 0.1234(2) 0.9955(2)
H3 H 0.3692 0.1151 1.0210
C6 C 0.32275(19) 0.1588(2) 0.9277(2)
H4 H 0.3734 0.1732 0.9081
C7 C 0.25114(17) 0.17327(16) 0.88830(17)
H5 H 0.2528 0.1979 0.8431
C8 C 0.17751(15) 0.14990(13) 0.91832(13)
C9 C 0.06236(14) 0.23463(13) 0.87856(12)
C10 C 0.09046(16) 0.29663(14) 0.91477(14)
H6 H 0.1357 0.2985 0.9463
C11 C 0.03829(15) 0.35808(14) 0.89577(15)
C12 C 0.0351(2) 0.43502(16) 0.9139(2)
H7 H 0.0732 0.4554 0.9466
C13 C -0.0239(2) 0.47922(17) 0.8835(3)
H8 H -0.0256 0.5302 0.8953
C14 C -0.0813(2) 0.4501(2) 0.8355(3)
H9 H -0.1212 0.4821 0.8159
C15 C -0.0820(2) 0.3750(2) 0.81515(18)
H10 H -0.1207 0.3560 0.7822
C16 C -0.02130(16) 0.32929(14) 0.84671(13)
C17 C -0.04607(16) 0.10420(15) 0.93758(14)
H11 H -0.0601 0.0549 0.9569
H12 H -0.0618 0.1051 0.8860
C18 C -0.0964(2) 0.16345(19) 0.97872(17)
H13 H -0.0887 0.1571 1.0314
H14 H -0.0769 0.2133 0.9654
C19 C -0.1866(2) 0.1569(3) 0.9605(3)
H15 H -0.1939 0.1606 0.9081
H16 H -0.2164 0.1967 0.9843
H17 H -0.2070 0.1092 0.9774
C20 C 0.09346(14) 0.11223(13) 0.81150(12)
C21 C 0.12013(16) -0.00819(14) 0.75079(14)
H18 H 0.0805 0.0036 0.7116
C22 C 0.2052(2) 0.0084(2) 0.7224(3)
H19 H 0.2454 -0.0011 0.7609
H20 H 0.2089 0.0612 0.7088
C23 C 0.2253(3) -0.0407(3) 0.6550(3)
H21 H 0.1894 -0.0264 0.6146
H22 H 0.2818 -0.0312 0.6399
C24 C 0.2150(3) -0.1223(3) 0.6700(3)
H23 H 0.2570 -0.1385 0.7047
H24 H 0.2228 -0.1503 0.6247
C25 C 0.1315(3) -0.1395(2) 0.7008(2)
H25 H 0.1290 -0.1924 0.7141
H26 H 0.0900 -0.1303 0.6633
C26 C 0.1122(3) -0.09135(17) 0.76914(17)
H27 H 0.0566 -0.1019 0.7860
H28 H 0.1502 -0.1041 0.8086
O3 O 0.5006(9) 0.1749(6) 0.7062(5)
C27 C 0.4063(11) 0.1625(9) 0.6992(9)
H29 H 0.3960 0.1202 0.6675
H30 H 0.3826 0.2070 0.6778
H31 H 0.3818 0.1534 0.7465
loop_
_geom_bond_atom_site_label_1
_geom_bond_atom_site_label_2
_geom_bond_site_symmetry_1
_geom_bond_site_symmetry_2
N1 C1 1_555 1_555
N2 C9 1_555 1_555
N3 H1 1_555 1_555
O1 C2 1_555 1_555
O2 C20 1_555 1_555
C1 C8 1_555 1_555
C2 N1 1_555 1_555
C3 C2 1_555 1_555
C4 C3 1_555 1_555
H2 C4 1_555 1_555
C5 C4 1_555 1_555
H3 C5 1_555 1_555
C6 C5 1_555 1_555
H4 C6 1_555 1_555
C7 C6 1_555 1_555
H5 C7 1_555 1_555
C8 C3 1_555 1_555
C9 C1 1_555 1_555
C10 C9 1_555 1_555
H6 C10 1_555 1_555
C11 C10 1_555 1_555
C12 C11 1_555 1_555
H7 C12 1_555 1_555
C13 C12 1_555 1_555
H8 C13 1_555 1_555
C14 C13 1_555 1_555
H9 C14 1_555 1_555
C15 C14 1_555 1_555
H10 C15 1_555 1_555
C16 N2 1_555 1_555
C17 N1 1_555 1_555
H11 C17 1_555 1_555
H12 C17 1_555 1_555
C18 C17 1_555 1_555
H13 C18 1_555 1_555
H14 C18 1_555 1_555
C19 C18 1_555 1_555
H15 C19 1_555 1_555
H16 C19 1_555 1_555
H17 C19 1_555 1_555
C20 N3 1_555 1_555
C21 N3 1_555 1_555
H18 C21 1_555 1_555
C22 C21 1_555 1_555
H19 C22 1_555 1_555
H20 C22 1_555 1_555
C23 C22 1_555 1_555
H21 C23 1_555 1_555
H22 C23 1_555 1_555
C24 C23 1_555 1_555
H23 C24 1_555 1_555
H24 C24 1_555 1_555
C25 C24 1_555 1_555
H25 C25 1_555 1_555
H26 C25 1_555 1_555
C26 C21 1_555 1_555
H27 C26 1_555 1_555
H28 C26 1_555 1_555
O3 C27 1_555 1_555
C27 H29 1_555 1_555
H30 C27 1_555 1_555
H31 C27 1_555 1_555
C1 C20 1_555 1_555
C7 C8 1_555 1_555
C11 C16 1_555 1_555
C15 C16 1_555 1_555
C25 C26 1_555 1_555

#END
