
#######################################################################
#
#                 Cambridge Crystallographic Data Centre
#                                CCDC 
#
#######################################################################
#
# If this CIF has been generated from an entry in the Cambridge 
# Structural Database, then it will include bibliographic, chemical, 
# crystal, experimental, refinement or atomic coordinate data resulting 
# from the CCDC's data processing and validation procedures.
#
#######################################################################

data_GIBROY
_chemical_formula_moiety         'C22 H31 N1 O5'
_chemical_name_systematic        
4-Benzyl-3,4-dihydroxy-2-ethyl-2-(2-methoxymethylpyrrolidinylcarbonyl)cyclohexanone
_symmetry_cell_setting           orthorhombic
_symmetry_space_group_name_H-M   'P 21 21 21'
_symmetry_Int_Tables_number      19
_space_group_name_Hall           'P 2ac 2ab'
loop_
_symmetry_equiv_pos_site_id
_symmetry_equiv_pos_as_xyz
1 x,y,z
2 1/2-x,-y,1/2+z
3 1/2+x,1/2-y,-z
4 -x,1/2+y,1/2-z
_cell_length_a                   9.8611(5)
_cell_length_b                   13.3789(5)
_cell_length_c                   32.876(2)
_cell_angle_alpha                90
_cell_angle_beta                 90
_cell_angle_gamma                90
_cell_volume                     4337.35
_chemical_melting_point          132-133deg.C
_cell_formula_units_Z            8
loop_
_atom_site_label
_atom_site_type_symbol
_atom_site_fract_x
_atom_site_fract_y
_atom_site_fract_z
C1 C 0.5513(3) -0.2605(2) 0.2186(1)
O1 O 0.5450(2) -0.3424(2) 0.2026(1)
C2 C 0.5670(3) -0.1669(2) 0.1932(1)
C3 C 0.6444(3) -0.0797(2) 0.2155(1)
O2 O 0.6149(2) 0.0138(2) 0.1973(1)
C4 C 0.6183(3) -0.0705(2) 0.2613(1)
O3 O 0.4803(2) -0.0406(2) 0.2687(1)
C5 C 0.6332(4) -0.1727(2) 0.2812(1)
C6 C 0.5340(4) -0.2476(2) 0.2637(1)
C7 C 0.4198(3) -0.1316(3) 0.1828(1)
C8 C 0.3296(4) -0.2104(3) 0.1630(1)
C9 C 0.7131(3) 0.0082(3) 0.2799(1)
C10 C 0.8613(3) -0.0146(3) 0.2793(1)
C11 C 0.9433(4) 0.0058(4) 0.2471(1)
C12 C 1.0818(5) -0.0178(5) 0.2478(2)
C13 C 1.1351(5) -0.0608(4) 0.2810(2)
C14 C 1.0568(5) -0.0794(4) 0.3149(2)
C15 C 0.9198(4) -0.0572(3) 0.3137(1)
C16 C 0.6436(3) -0.1896(2) 0.1534(1)
O4 O 0.6026(2) -0.1576(2) 0.1202(1)
N1 N 0.7586(2) -0.2421(2) 0.1548(1)
C17 C 0.8392(4) -0.2602(3) 0.1172(1)
C18 C 0.9752(4) -0.2975(3) 0.1335(1)
C19 C 0.9785(4) -0.2709(3) 0.1782(1)
C20 C 0.8309(3) -0.2817(3) 0.1903(1)
C21 C 0.7701(5) -0.3325(3) 0.0888(1)
O6 O 0.7437(19) -0.4202(7) 0.1119(4)
C23 C 0.6418(26) -0.4835(14) 0.0949(10)
H1 H 0.7417(3) -0.0919(2) 0.2119(1)
H2 H 0.6749(41) 0.0296(29) 0.1787(11)
H3 H 0.4669(44) 0.0348(32) 0.2734(11)
H4 H 0.7249(4) -0.1969(2) 0.2772(1)
H5 H 0.6178(4) -0.1664(2) 0.3103(1)
H6 H 0.5470(4) -0.3116(2) 0.2770(1)
H7 H 0.4422(4) -0.2255(2) 0.2693(1)
H8 H 0.3765(3) -0.1090(3) 0.2076(1)
H9 H 0.4257(3) -0.0746(3) 0.1646(1)
H10 H 0.2418(4) -0.1823(3) 0.1577(1)
H11 H 0.3205(4) -0.2665(3) 0.1810(1)
H12 H 0.3698(4) -0.2320(3) 0.1379(1)
H13 H 0.6989(3) 0.0707(3) 0.2656(1)
H14 H 0.6862(3) 0.0187(3) 0.3080(1)
H15 H 0.9067(4) 0.0361(4) 0.2241(1)
H16 H 1.1362(5) -0.0037(5) 0.2255(2)
H17 H 1.2263(5) -0.0784(4) 0.2811(2)
H18 H 1.0955(5) -0.1064(4) 0.3383(2)
H19 H 0.8659(4) -0.0711(3) 0.3363(1)
H20 H 0.8531(4) -0.1966(3) 0.1030(1)
H21 H 0.9829(4) -0.3692(3) 0.1299(1)
H22 H 1.0495(4) -0.2655(3) 0.1192(1)
H23 H 1.0104(4) -0.2030(3) 0.1823(1)
H24 H 1.0357(4) -0.3166(3) 0.1934(1)
H25 H 0.8077(3) -0.3511(3) 0.1951(1)
H26 H 0.8108(3) -0.2430(3) 0.2145(1)
H29 H 0.8295(5) -0.3496(3) 0.0664(1)
H30 H 0.6877(5) -0.3033(3) 0.0779(1)
H34 H 0.6295(26) -0.5409(14) 0.1120(10)
H35 H 0.6693(26) -0.5048(14) 0.0683(10)
H36 H 0.5579(26) -0.4474(14) 0.0930(10)
C24 C 0.7531(3) 0.2167(2) 0.0600(1)
O7 O 0.8598(3) 0.2560(2) 0.0696(1)
C25 C 0.6977(3) 0.1293(2) 0.0850(1)
C26 C 0.6080(3) 0.0533(2) 0.0600(1)
O8 O 0.5097(2) 0.0067(2) 0.0850(1)
C27 C 0.5293(3) 0.0975(3) 0.0237(1)
O9 O 0.4139(2) 0.1517(2) 0.0384(1)
C28 C 0.6144(4) 0.1714(3) -0.0003(1)
C29 C 0.6675(4) 0.2556(3) 0.0262(1)
C30 C 0.6091(3) 0.1811(3) 0.1181(1)
C31 C 0.6820(4) 0.2565(3) 0.1452(1)
C32 C 0.4765(4) 0.0113(3) -0.0038(1)
C33 C 0.5830(4) -0.0549(3) -0.0221(1)
C34 C 0.6250(6) -0.1406(3) -0.0027(1)
C35 C 0.7269(6) -0.2006(4) -0.0183(2)
C36 C 0.7903(6) -0.1735(5) -0.0540(2)
C37 C 0.7489(6) -0.0913(5) -0.0739(2)
C38 C 0.6454(5) -0.0321(4) -0.0585(1)
C39 C 0.8138(3) 0.0702(2) 0.1047(1)
O10 O 0.8105(2) 0.0481(2) 0.1415(1)
N2 N 0.9199(3) 0.0391(2) 0.0823(1)
C40 C 1.0354(3) -0.0114(3) 0.1016(1)
C41 C 1.1090(4) -0.0622(3) 0.0667(1)
C42 C 1.0257(18) -0.0410(12) 0.0291(3)
C43 C 0.9423(4) 0.0496(3) 0.0382(1)
C45 C 1.1231(4) 0.0605(3) 0.1252(1)
O11 O 1.1831(3) 0.1305(2) 0.0976(1)
C46 C 1.2054(6) 0.2263(4) 0.1144(2)
H37 H 0.6681(3) 0.0010(2) 0.0495(1)
H38 H 0.5581(41) -0.0448(29) 0.1009(11)
H39 H 0.3800(53) 0.1236(36) 0.0635(14)
H40 H 0.5599(4) 0.1994(3) -0.0220(1)
H41 H 0.6903(4) 0.1365(3) -0.0125(1)
H42 H 0.7207(4) 0.3012(3) 0.0097(1)
H43 H 0.5917(4) 0.2926(3) 0.0375(1)
H44 H 0.5347(3) 0.2150(3) 0.1046(1)
H45 H 0.5702(3) 0.1297(3) 0.1353(1)
H46 H 0.6189(4) 0.2841(3) 0.1644(1)
H47 H 0.7186(4) 0.3092(3) 0.1287(1)
H48 H 0.7542(4) 0.2238(3) 0.1595(1)
H49 H 0.4157(4) -0.0300(3) 0.0122(1)
H50 H 0.4239(4) 0.0403(3) -0.0258(1)
H51 H 0.5838(6) -0.1588(3) 0.0217(1)
H52 H 0.7523(6) -0.2588(4) -0.0048(2)
H53 H 0.8612(6) -0.2119(5) -0.0642(2)
H54 H 0.7902(6) -0.0738(5) -0.0983(2)
H55 H 0.6176(5) 0.0240(4) -0.0730(1)
H56 H 1.0011(3) -0.0627(3) 0.1202(1)
H57 H 1.1999(4) -0.0353(3) 0.0637(1)
H59 H 1.0722(4) -0.1283(3) 0.0618(1)
H61 H 1.0845(18) -0.0287(12) 0.0059(3)
H62 H 0.9676(18) -0.0974(12) 0.0228(3)
H63 H 0.9911(4) 0.1106(3) 0.0319(1)
H64 H 0.8573(4) 0.0488(3) 0.0234(1)
H69 H 1.0686(4) 0.0957(3) 0.1451(1)
H70 H 1.1935(4) 0.0240(3) 0.1395(1)
H71 H 1.2457(6) 0.2689(4) 0.0943(2)
H72 H 1.2652(6) 0.2208(4) 0.1374(2)
H73 H 1.1205(6) 0.2542(4) 0.1231(2)
O5? O 0.7718(27) -0.4350(9) 0.0995(10)
C22? C 0.6355(27) -0.4527(21) 0.1124(7)
C44? C 1.0731(18) -0.0037(18) 0.0290(4)
H27? H 0.6762(5) -0.3120(3) 0.0861(1)
H28? H 0.8117(5) -0.3259(3) 0.0622(1)
H31? H 0.6258(27) -0.5213(21) 0.1205(7)
H32? H 0.5745(27) -0.4386(21) 0.0904(7)
H33? H 0.6145(27) -0.4101(21) 0.1351(7)
H58? H 1.1155(4) -0.1336(3) 0.0714(1)
H60? H 1.2054(4) -0.0680(3) 0.0722(1)
H65? H 0.9496(4) 0.1195(3) 0.0307(1)
H66? H 0.8679(4) 0.0200(3) 0.0231(1)
H67? H 1.1440(18) 0.0441(18) 0.0226(4)
H68? H 1.0618(18) -0.0483(18) 0.0060(4)
loop_
_geom_bond_atom_site_label_1
_geom_bond_atom_site_label_2
_geom_bond_site_symmetry_1
_geom_bond_site_symmetry_2
C1 O1 1_555 1_555
C2 C1 1_555 1_555
C3 C2 1_555 1_555
O2 C3 1_555 1_555
C4 C3 1_555 1_555
O3 C4 1_555 1_555
C5 C4 1_555 1_555
C6 C1 1_555 1_555
C7 C2 1_555 1_555
C8 C7 1_555 1_555
C9 C4 1_555 1_555
C10 C9 1_555 1_555
C11 C10 1_555 1_555
C12 C11 1_555 1_555
C13 C12 1_555 1_555
C14 C13 1_555 1_555
C15 C10 1_555 1_555
C16 C2 1_555 1_555
O4 C16 1_555 1_555
N1 C16 1_555 1_555
C17 N1 1_555 1_555
C18 C17 1_555 1_555
C19 C18 1_555 1_555
C20 N1 1_555 1_555
C21 C17 1_555 1_555
O6 C21 1_555 1_555
C23 O6 1_555 1_555
C24 O7 1_555 1_555
C25 C24 1_555 1_555
C26 C25 1_555 1_555
O8 C26 1_555 1_555
C27 C26 1_555 1_555
O9 C27 1_555 1_555
C28 C27 1_555 1_555
C29 C24 1_555 1_555
C30 C25 1_555 1_555
C31 C30 1_555 1_555
C32 C27 1_555 1_555
C33 C32 1_555 1_555
C34 C33 1_555 1_555
C35 C34 1_555 1_555
C36 C35 1_555 1_555
C37 C36 1_555 1_555
C38 C33 1_555 1_555
C39 C25 1_555 1_555
O10 C39 1_555 1_555
N2 C39 1_555 1_555
C40 N2 1_555 1_555
C41 C40 1_555 1_555
C42 C41 1_555 1_555
C43 N2 1_555 1_555
C45 C40 1_555 1_555
O11 C45 1_555 1_555
C46 O11 1_555 1_555
H1 C3 1_555 1_555
H2 O2 1_555 1_555
H3 O3 1_555 1_555
H4 C5 1_555 1_555
H5 C5 1_555 1_555
H6 C6 1_555 1_555
H7 C6 1_555 1_555
H8 C7 1_555 1_555
H9 C7 1_555 1_555
H10 C8 1_555 1_555
H11 C8 1_555 1_555
H12 C8 1_555 1_555
H13 C9 1_555 1_555
H14 C9 1_555 1_555
H15 C11 1_555 1_555
H16 C12 1_555 1_555
H17 C13 1_555 1_555
H18 C14 1_555 1_555
H19 C15 1_555 1_555
H20 C17 1_555 1_555
H21 C18 1_555 1_555
H22 C18 1_555 1_555
H23 C19 1_555 1_555
H24 C19 1_555 1_555
H25 C20 1_555 1_555
H26 C20 1_555 1_555
H29 C21 1_555 1_555
H30 C21 1_555 1_555
H34 C23 1_555 1_555
H35 C23 1_555 1_555
H36 C23 1_555 1_555
H37 C26 1_555 1_555
H38 O8 1_555 1_555
H39 O9 1_555 1_555
H40 C28 1_555 1_555
H41 C28 1_555 1_555
H42 C29 1_555 1_555
H43 C29 1_555 1_555
H44 C30 1_555 1_555
H45 C30 1_555 1_555
H46 C31 1_555 1_555
H47 C31 1_555 1_555
H48 C31 1_555 1_555
H49 C32 1_555 1_555
H50 C32 1_555 1_555
H51 C34 1_555 1_555
H52 C35 1_555 1_555
H53 C36 1_555 1_555
H54 C37 1_555 1_555
H55 C38 1_555 1_555
H56 C40 1_555 1_555
H57 C41 1_555 1_555
H59 C41 1_555 1_555
H61 C42 1_555 1_555
H62 C42 1_555 1_555
H63 C43 1_555 1_555
H64 C43 1_555 1_555
H69 C45 1_555 1_555
H70 C45 1_555 1_555
H71 C46 1_555 1_555
H72 C46 1_555 1_555
H73 C46 1_555 1_555
C5 C6 1_555 1_555
C14 C15 1_555 1_555
C19 C20 1_555 1_555
C28 C29 1_555 1_555
C37 C38 1_555 1_555
C42 C43 1_555 1_555

#END
