
#######################################################################
#
#                 Cambridge Crystallographic Data Centre
#                                CCDC 
#
#######################################################################
#
# If this CIF has been generated from an entry in the Cambridge 
# Structural Database, then it will include bibliographic, chemical, 
# crystal, experimental, refinement or atomic coordinate data resulting 
# from the CCDC's data processing and validation procedures.
#
#######################################################################

data_GIBVEV
_chemical_formula_moiety         'C21 H22 N2 O2 S2'
_chemical_name_systematic        
2-{1-[(4-methylphenyl)sulfonyl]-2-(methylsulfanyl)-1H-indol-3-yl}pentanenitrile
_symmetry_cell_setting           monoclinic
_symmetry_space_group_name_H-M   'P 21/c'
_symmetry_Int_Tables_number      14
_space_group_name_Hall           '-P 2ybc'
loop_
_symmetry_equiv_pos_site_id
_symmetry_equiv_pos_as_xyz
1 x,y,z
2 -x,1/2+y,1/2-z
3 -x,-y,-z
4 x,1/2-y,1/2+z
_cell_length_a                   9.0286(6)
_cell_length_b                   24.0830(16)
_cell_length_c                   10.3285(7)
_cell_angle_alpha                90
_cell_angle_beta                 114.965(3)
_cell_angle_gamma                90
_cell_volume                     2035.95
_exptl_crystal_colour            colorless
_exptl_crystal_description       block
_cell_formula_units_Z            4
loop_
_atom_site_label
_atom_site_type_symbol
_atom_site_fract_x
_atom_site_fract_y
_atom_site_fract_z
C1 C 0.0860(4) 0.03605(13) 0.1701(3)
H1 H 0.1487 0.0032 0.1754
H2 H 0.1274 0.0664 0.1347
H3 H -0.0264 0.0296 0.1067
C2 C 0.5385(3) 0.11806(10) 0.5129(3)
H4 H 0.6124 0.0927 0.5836
H5 H 0.4318 0.1142 0.5134
C3 C 0.5262(4) 0.10197(12) 0.3679(3)
H6 H 0.4861 0.0646 0.3464
H7 H 0.6323 0.1043 0.3676
H8 H 0.4526 0.1267 0.2972
C4 C 0.1668(3) 0.30007(9) 0.5845(2)
H9 H 0.1443 0.3332 0.5336
C5 C 0.5846(3) 0.08164(11) 1.0537(2)
H10 H 0.6510 0.0506 1.1031
H11 H 0.4791 0.0786 1.0547
H12 H 0.6361 0.1155 1.1002
C6 C 0.0193(3) 0.09610(9) 0.3378(2)
H13 H -0.0430 0.1182 0.2600
C7 C 0.0553(3) 0.27905(9) 0.6322(2)
H14 H -0.0400 0.2989 0.6136
C8 C 0.1896(3) 0.01745(9) 0.4340(2)
H15 H 0.2422 -0.0139 0.4214
C9 C 0.2037(3) 0.03028(8) 0.5688(2)
H16 H 0.2658 0.0081 0.6466
C10 C 0.6993(2) 0.24536(9) 0.7506(2)
C11 C 0.0992(3) 0.05015(9) 0.3169(2)
C12 C 0.0813(2) 0.22986(8) 0.7060(2)
H17 H 0.0070 0.2165 0.7392
C13 C 0.5982(3) 0.17670(9) 0.5550(2)
H18 H 0.5179 0.2025 0.4913
H19 H 0.6990 0.1820 0.5445
C14 C 0.0303(2) 0.10969(8) 0.4708(2)
H20 H -0.0242 0.1406 0.4831
C15 C 0.3104(3) 0.27228(8) 0.6120(2)
H21 H 0.3864 0.2868 0.5823
C16 C 0.6281(2) 0.18953(8) 0.7107(2)
H22 H 0.7080 0.1626 0.7727
C17 C 0.4750(2) 0.18374(7) 0.73411(18)
C18 C 0.2234(2) 0.20098(7) 0.72887(18)
C19 C 0.4395(2) 0.14053(7) 0.80066(18)
C20 C 0.1240(2) 0.07660(7) 0.58641(19)
C21 C 0.3395(2) 0.22190(7) 0.68541(18)
N1 N 0.7548(3) 0.28855(9) 0.7776(3)
N2 N 0.28172(17) 0.14933(6) 0.80082(15)
O1 O -0.00089(18) 0.11847(7) 0.75117(18)
O2 O 0.2244(2) 0.05196(6) 0.85649(16)
S1 S 0.14721(6) 0.095622(19) 0.75790(5)
S2 S 0.56132(7) 0.08230(2) 0.87123(6)
loop_
_geom_bond_atom_site_label_1
_geom_bond_atom_site_label_2
_geom_bond_site_symmetry_1
_geom_bond_site_symmetry_2
C1 H1 1_555 1_555
H2 C1 1_555 1_555
H3 C1 1_555 1_555
C2 H4 1_555 1_555
H5 C2 1_555 1_555
C3 C2 1_555 1_555
H6 C3 1_555 1_555
H7 C3 1_555 1_555
H8 C3 1_555 1_555
C4 H9 1_555 1_555
C5 H10 1_555 1_555
H11 C5 1_555 1_555
H12 C5 1_555 1_555
C6 H13 1_555 1_555
C7 C4 1_555 1_555
H14 C7 1_555 1_555
C8 H15 1_555 1_555
C9 C8 1_555 1_555
H16 C9 1_555 1_555
C10 C16 1_555 1_555
C11 C1 1_555 1_555
C12 C7 1_555 1_555
H17 C12 1_555 1_555
C13 C2 1_555 1_555
H18 C13 1_555 1_555
H19 C13 1_555 1_555
C14 C6 1_555 1_555
H20 C14 1_555 1_555
C15 C4 1_555 1_555
H21 C15 1_555 1_555
C16 C13 1_555 1_555
H22 C16 1_555 1_555
C17 C16 1_555 1_555
C18 C12 1_555 1_555
C19 C17 1_555 1_555
C20 C9 1_555 1_555
C21 C15 1_555 1_555
N1 C10 1_555 1_555
N2 C18 1_555 1_555
O1 S1 1_555 1_555
O2 S1 1_555 1_555
S1 C20 1_555 1_555
S2 C5 1_555 1_555
C6 C11 1_555 1_555
C8 C11 1_555 1_555
C14 C20 1_555 1_555
C17 C21 1_555 1_555
C18 C21 1_555 1_555
C19 N2 1_555 1_555
C19 S2 1_555 1_555
N2 S1 1_555 1_555

#END
