
#######################################################################
#
#                 Cambridge Crystallographic Data Centre
#                                CCDC 
#
#######################################################################
#
# If this CIF has been generated from an entry in the Cambridge 
# Structural Database, then it will include bibliographic, chemical, 
# crystal, experimental, refinement or atomic coordinate data resulting 
# from the CCDC's data processing and validation procedures.
#
#######################################################################

data_GIBWAP
_chemical_formula_moiety         'C16 H27 N1 O5'
_chemical_name_systematic        
3,4-Dihydroxy-2-ethyl-4-methyl-2-(2-methoxymethylpyrrolidinyl)cyclohexanone
_symmetry_cell_setting           orthorhombic
_symmetry_space_group_name_H-M   'P 21 21 21'
_symmetry_Int_Tables_number      19
_space_group_name_Hall           'P 2ac 2ab'
loop_
_symmetry_equiv_pos_site_id
_symmetry_equiv_pos_as_xyz
1 x,y,z
2 1/2-x,-y,1/2+z
3 1/2+x,1/2-y,-z
4 -x,1/2+y,1/2-z
_cell_length_a                   9.168(2)
_cell_length_b                   12.6166(7)
_cell_length_c                   14.8699(9)
_cell_angle_alpha                90
_cell_angle_beta                 90
_cell_angle_gamma                90
_cell_volume                     1719.99
_cell_formula_units_Z            4
loop_
_atom_site_label
_atom_site_type_symbol
_atom_site_fract_x
_atom_site_fract_y
_atom_site_fract_z
N1 N 0.3961(3) 0.4744(2) -0.0413(2)
C1 C 0.2387(5) 0.4717(3) -0.0651(3)
C2 C 0.2201(6) 0.3606(4) -0.1057(4)
C3 C 0.3702(5) 0.3248(4) -0.1324(3)
C4 C 0.4640(5) 0.3701(3) -0.0595(3)
C5 C 0.1425(4) 0.4947(3) 0.0134(4)
O1 O 0.1786(3) 0.4263(3) 0.0854(2)
C6 C 0.1092(6) 0.4521(5) 0.1654(4)
C7 C 0.4576(3) 0.5637(3) -0.0124(2)
O2 O 0.3861(2) 0.6473(2) -0.0068(2)
C8 C 0.6755(4) 0.4665(2) 0.0594(2)
C9 C 0.6212(3) 0.5658(2) 0.0110(2)
C10 C 0.6551(3) 0.6583(3) 0.0775(2)
C11 C 0.5956(4) 0.6444(3) 0.1741(2)
C12 C 0.6454(4) 0.5375(3) 0.2117(3)
C13 C 0.6073(4) 0.4466(3) 0.1487(3)
O3 O 0.7738(3) 0.4125(2) 0.0307(2)
C14 C 0.7036(4) 0.5818(3) -0.0782(2)
C15 C 0.6545(4) 0.6756(3) -0.1353(2)
C16 C 0.6444(6) 0.7352(4) 0.2333(3)
O4 O 0.4397(3) 0.6421(3) 0.1745(2)
O5 O 0.8104(2) 0.6644(2) 0.0862(2)
H1 H 0.2201(5) 0.5246(3) -0.1120(3)
H2 H 0.1784(6) 0.3125(4) -0.0618(4)
H3 H 0.1564(6) 0.3631(4) -0.1578(4)
H4 H 0.3767(5) 0.2481(4) -0.1339(3)
H5 H 0.3973(5) 0.3528(4) -0.1908(3)
H6 H 0.4623(5) 0.3255(3) -0.0064(3)
H7 H 0.5640(5) 0.3782(3) -0.0796(3)
H8 H 0.1549(4) 0.5679(3) 0.0319(4)
H9 H 0.0412(4) 0.4845(3) -0.0034(4)
H10 H 0.1380(6) 0.4030(5) 0.2114(4)
H11 H 0.0054(6) 0.4485(5) 0.1572(4)
H12 H 0.1361(6) 0.5227(5) 0.1830(4)
H13 H 0.6184(3) 0.7249(3) 0.0523(2)
H14 H 0.7501(4) 0.5390(3) 0.2210(3)
H15 H 0.5993(4) 0.5257(3) 0.2695(3)
H16 H 0.6430(4) 0.3803(3) 0.1734(3)
H17 H 0.5022(4) 0.4414(3) 0.1423(3)
H18 H 0.8065(4) 0.5905(3) -0.0648(2)
H19 H 0.6935(4) 0.5178(3) -0.1138(2)
H20 H 0.7122(4) 0.6787(3) -0.1891(2)
H21 H 0.6669(4) 0.7400(3) -0.1017(2)
H22 H 0.5536(4) 0.6672(3) -0.1509(2)
H23 H 0.6116(6) 0.8010(4) 0.2080(3)
H24 H 0.7489(6) 0.7355(4) 0.2373(3)
H25 H 0.6036(6) 0.7267(4) 0.2924(3)
H26 H 0.3996(42) 0.6637(31) 0.1259(25)
H27 H 0.8386(50) 0.7258(39) 0.0670(31)
loop_
_geom_bond_atom_site_label_1
_geom_bond_atom_site_label_2
_geom_bond_site_symmetry_1
_geom_bond_site_symmetry_2
N1 C1 1_555 1_555
C1 C2 1_555 1_555
C2 C3 1_555 1_555
C3 C4 1_555 1_555
C4 N1 1_555 1_555
C5 C1 1_555 1_555
O1 C5 1_555 1_555
C6 O1 1_555 1_555
C7 N1 1_555 1_555
O2 C7 1_555 1_555
C8 C9 1_555 1_555
C9 C7 1_555 1_555
C10 C9 1_555 1_555
C11 C10 1_555 1_555
C12 C11 1_555 1_555
C13 C8 1_555 1_555
O3 C8 1_555 1_555
C14 C9 1_555 1_555
C15 C14 1_555 1_555
C16 C11 1_555 1_555
O4 C11 1_555 1_555
O5 C10 1_555 1_555
H1 C1 1_555 1_555
H2 C2 1_555 1_555
H3 C2 1_555 1_555
H4 C3 1_555 1_555
H5 C3 1_555 1_555
H6 C4 1_555 1_555
H7 C4 1_555 1_555
H8 C5 1_555 1_555
H9 C5 1_555 1_555
H10 C6 1_555 1_555
H11 C6 1_555 1_555
H12 C6 1_555 1_555
H13 C10 1_555 1_555
H14 C12 1_555 1_555
H15 C12 1_555 1_555
H16 C13 1_555 1_555
H17 C13 1_555 1_555
H18 C14 1_555 1_555
H19 C14 1_555 1_555
H20 C15 1_555 1_555
H21 C15 1_555 1_555
H22 C15 1_555 1_555
H23 C16 1_555 1_555
H24 C16 1_555 1_555
H25 C16 1_555 1_555
H26 O4 1_555 1_555
H27 O5 1_555 1_555
C12 C13 1_555 1_555

#END
