
#######################################################################
#
#                 Cambridge Crystallographic Data Centre
#                                CCDC 
#
#######################################################################
#
# If this CIF has been generated from an entry in the Cambridge 
# Structural Database, then it will include bibliographic, chemical, 
# crystal, experimental, refinement or atomic coordinate data resulting 
# from the CCDC's data processing and validation procedures.
#
#######################################################################

data_GIBXIB
_chemical_formula_moiety         'C13 H12 N2 O3 S1,H2 O1'
_chemical_name_systematic        
'{2-[(2-hydroxy-5-methoxyphenyl)methylidene]diazan-2-ium-1-ylidene}(thiophen-2-yl)methanolate monohydrate'
_symmetry_cell_setting           orthorhombic
_symmetry_space_group_name_H-M   'P n a 21'
_symmetry_Int_Tables_number      33
_space_group_name_Hall           'P 2c -2n'
loop_
_symmetry_equiv_pos_site_id
_symmetry_equiv_pos_as_xyz
1 x,y,z
2 -x,-y,1/2+z
3 1/2+x,1/2-y,z
4 1/2-x,1/2+y,1/2+z
_cell_length_a                   23.5149(12)
_cell_length_b                   4.6361(3)
_cell_length_c                   12.4729(7)
_cell_angle_alpha                90
_cell_angle_beta                 90
_cell_angle_gamma                90
_cell_volume                     1359.76
_cell_formula_units_Z            4
_exptl_crystal_recrystallization_method 'Re-crystallisation from solvent'
_exptl_crystal_preparation       Luminescent
loop_
_atom_site_label
_atom_site_type_symbol
_atom_site_fract_x
_atom_site_fract_y
_atom_site_fract_z
S1 S 0.62500(3) 1.11850(17) 1.00354(7)
O1 O 0.72177(9) 0.7509(5) 1.04719(16)
N1 N 0.75182(9) 0.6873(5) 0.87530(18)
O2 O 0.86212(11) 0.1706(6) 1.03706(18)
H1 H 0.8323 0.2636 1.0238
N2 N 0.79321(9) 0.4917(5) 0.90530(18)
H2 H 0.7987 0.4402 0.9724
O3 O 0.96767(11) -0.1723(6) 0.6631(2)
C1 C 0.71763(11) 0.8025(6) 0.9494(2)
C2 C 0.82284(11) 0.3915(6) 0.8278(2)
H3 H 0.8146 0.4551 0.7571
C3 C 0.88611(12) 0.0852(6) 0.9446(3)
C4 C 0.86861(11) 0.1849(5) 0.8430(2)
C5 C 0.67391(11) 1.0042(6) 0.9102(2)
C6 C 0.89692(12) 0.0865(6) 0.7516(2)
H4 H 0.8850 0.1521 0.6830
C7 C 0.93066(14) -0.1117(7) 0.9496(3)
H5 H 0.9424 -0.1824 1.0175
C8 C 0.66456(15) 1.1215(7) 0.8074(3)
H6 H 0.6866 1.0823 0.7453
C9 C 0.94201(12) -0.1043(6) 0.7587(3)
C10 C 0.95828(12) -0.2073(6) 0.8587(3)
H7 H 0.9883 -0.3433 0.8645
C11 C 0.59186(14) 1.3243(8) 0.9092(3)
H8 H 0.5593 1.4386 0.9238
C12 C 0.61639(17) 1.3091(8) 0.8119(3)
H9 H 0.6029 1.4138 0.7516
C13 C 1.01200(16) -0.3825(8) 0.6656(4)
H10 H 1.0406 -0.3259 0.7188
H11 H 1.0298 -0.3952 0.5947
H12 H 0.9960 -0.5706 0.6851
O4 O 0.75282(10) 0.2655(6) 0.15404(16)
H13 H 0.7489(14) 0.097(9) 0.116(3)
H14 H 0.743(3) 0.488(18) 0.104(6)
loop_
_geom_bond_atom_site_label_1
_geom_bond_atom_site_label_2
_geom_bond_site_symmetry_1
_geom_bond_site_symmetry_2
S1 C5 1_555 1_555
O1 C1 1_555 1_555
N1 N2 1_555 1_555
O2 H1 1_555 1_555
N2 H2 1_555 1_555
O3 C9 1_555 1_555
C1 N1 1_555 1_555
C2 N2 1_555 1_555
H3 C2 1_555 1_555
C3 O2 1_555 1_555
C4 C2 1_555 1_555
C5 C1 1_555 1_555
C6 C4 1_555 1_555
H4 C6 1_555 1_555
C7 C3 1_555 1_555
H5 C7 1_555 1_555
C8 C5 1_555 1_555
H6 C8 1_555 1_555
C9 C6 1_555 1_555
C10 C7 1_555 1_555
H7 C10 1_555 1_555
C11 S1 1_555 1_555
H8 C11 1_555 1_555
C12 C8 1_555 1_555
H9 C12 1_555 1_555
C13 O3 1_555 1_555
H10 C13 1_555 1_555
H11 C13 1_555 1_555
H12 C13 1_555 1_555
O4 H13 1_555 1_555
H14 O4 1_555 1_555
C3 C4 1_555 1_555
C9 C10 1_555 1_555
C11 C12 1_555 1_555

#END
