
#######################################################################
#
#                 Cambridge Crystallographic Data Centre
#                                CCDC 
#
#######################################################################
#
# If this CIF has been generated from an entry in the Cambridge 
# Structural Database, then it will include bibliographic, chemical, 
# crystal, experimental, refinement or atomic coordinate data resulting 
# from the CCDC's data processing and validation procedures.
#
#######################################################################

data_GIBXOH
_chemical_formula_moiety         'C13 H12 N2 O3 S1,H2 O1'
_chemical_name_systematic        
"(E)-N'-(2-hydroxy-4-methoxybenzylidene)thiophene-2-carbohydrazide monohydrate"
_symmetry_cell_setting           triclinic
_symmetry_space_group_name_H-M   'P 1'
_symmetry_Int_Tables_number      1
_space_group_name_Hall           'P 1'
loop_
_symmetry_equiv_pos_site_id
_symmetry_equiv_pos_as_xyz
1 x,y,z
_cell_length_a                   4.8655(10)
_cell_length_b                   6.4488(13)
_cell_length_c                   21.972(5)
_cell_angle_alpha                89.864(9)
_cell_angle_beta                 89.453(9)
_cell_angle_gamma                75.707(9)
_cell_volume                     668.037
_cell_formula_units_Z            2
_exptl_crystal_recrystallization_method 'Re-crystallisation from solvent'
_exptl_crystal_preparation       Luminescent
loop_
_atom_site_label
_atom_site_type_symbol
_atom_site_fract_x
_atom_site_fract_y
_atom_site_fract_z
S1 S 1.2594(4) 0.0814(2) 0.49356(9)
O1 O -0.3368(15) 0.1870(9) 0.1093(3)
O2 O 0.4144(14) -0.0669(8) 0.2410(3)
H1 H 0.5200 -0.0269 0.2661
N1 N 0.5631(16) 0.2131(9) 0.3180(3)
O3 O 0.9643(13) -0.0485(8) 0.3872(3)
N2 N 0.7200(15) 0.2872(10) 0.3615(3)
C1 C 1.302(2) 0.4659(12) 0.4886(4)
C2 C 0.215(2) 0.1039(11) 0.2217(3)
C3 C -0.1752(17) 0.2386(12) 0.1543(3)
C4 C -0.2092(17) 0.4446(12) 0.1781(3)
C5 C 0.9148(17) 0.1496(11) 0.3936(3)
C6 C 0.3775(17) 0.3593(11) 0.2920(3)
C7 C 0.1915(18) 0.3115(11) 0.2453(3)
C8 C 1.1221(19) 0.4449(11) 0.4407(3)
H2 H 1.0404 0.5579 0.4136
C9 C 1.3982(18) 0.2822(12) 0.5211(4)
C10 C -0.0251(19) 0.4762(12) 0.2228(3)
C11 C 0.0341(19) 0.0714(12) 0.1763(4)
C12 C 1.0770(19) 0.2442(11) 0.4371(3)
C13 C -0.558(2) 0.3518(14) 0.0844(4)
H3 H 1.498(19) 0.271(12) 0.554(4)
H4 H 1.31(3) 0.599(18) 0.496(5)
H5 H 0.36(2) 0.510(13) 0.300(4)
H6 H -0.36(2) 0.551(14) 0.167(4)
H7 H 0.09(3) -0.071(17) 0.160(5)
H8 H -0.07(3) 0.617(18) 0.234(6)
H9 H -0.664(18) 0.289(11) 0.056(3)
H10 H -0.480(17) 0.456(11) 0.066(3)
H11 H -0.73(3) 0.425(16) 0.122(5)
H12 H 0.65(2) 0.434(15) 0.368(4)
S2 S -0.0044(4) 0.9927(2) 0.99363(9)
O4 O 0.8390(14) 1.1398(8) 0.7412(3)
H13 H 0.9071 1.2473 0.7427
O5 O 1.5931(15) 0.8867(9) 0.6092(3)
O6 O 0.2908(13) 1.1223(8) 0.8873(3)
N3 N 0.5334(14) 0.7870(9) 0.8615(3)
N4 N 0.6944(14) 0.8606(9) 0.8180(3)
C14 C 1.4675(18) 0.6285(12) 0.6781(4)
C15 C 0.8833(19) 0.7136(12) 0.7916(3)
C16 C 1.223(2) 1.0024(12) 0.6762(4)
H14 H 1.2043 1.1416 0.6598
C17 C 1.0387(17) 0.9703(11) 0.7218(3)
C18 C 1.4333(19) 0.8349(12) 0.6545(3)
C19 C 0.3392(17) 0.9254(10) 0.8932(3)
C20 C 1.0663(17) 0.7627(11) 0.7456(3)
C21 C 0.1308(19) 0.6294(11) 0.9407(4)
H15 H 0.2130 0.5171 0.9132
C22 C 1.2822(19) 0.5976(11) 0.7226(4)
C23 C 1.8147(19) 0.7226(14) 0.5839(4)
C24 C 0.1748(18) 0.8312(10) 0.9370(3)
C25 C -0.1431(19) 0.7915(12) 1.0216(4)
C26 C -0.045(2) 0.6069(11) 0.9885(4)
H16 H -0.11(2) 0.481(16) 0.994(5)
H17 H -0.29(3) 0.830(15) 1.058(5)
H18 H 0.913(18) 0.558(11) 0.801(3)
H19 H 0.66(4) 0.63(2) 0.869(7)
H20 H 1.29(2) 0.451(14) 0.740(4)
H21 H 1.59(3) 0.512(18) 0.661(5)
H22 H 1.83(2) 0.818(14) 0.548(4)
H23 H 1.93(2) 0.660(14) 0.615(4)
H24 H 1.72(3) 0.624(17) 0.566(5)
O7 O 0.7075(15) 0.3406(8) 0.8718(3)
H25 H 0.57(2) 0.266(15) 0.876(4)
H26 H 0.89(5) 0.26(3) 0.872(9)
O8 O 0.5523(18) 0.7319(10) 0.3715(3)
H27 H 0.660(17) 0.834(11) 0.373(3)
H28 H 0.43(2) 0.802(14) 0.374(4)
loop_
_geom_bond_atom_site_label_1
_geom_bond_atom_site_label_2
_geom_bond_site_symmetry_1
_geom_bond_site_symmetry_2
S1 C9 1_555 1_555
O1 C3 1_555 1_555
O2 H1 1_555 1_555
N1 N2 1_555 1_555
O3 C5 1_555 1_555
N2 C5 1_555 1_555
C1 C8 1_555 1_555
C2 O2 1_555 1_555
C3 C4 1_555 1_555
C4 C10 1_555 1_555
C5 C12 1_555 1_555
C6 N1 1_555 1_555
C7 C2 1_555 1_555
C8 H2 1_555 1_555
C9 C1 1_555 1_555
C10 C7 1_555 1_555
C11 C2 1_555 1_555
C12 S1 1_555 1_555
C13 O1 1_555 1_555
H3 C9 1_555 1_555
H4 C1 1_555 1_555
H5 C6 1_555 1_555
H6 C4 1_555 1_555
H7 C11 1_555 1_555
H8 C10 1_555 1_555
H9 C13 1_555 1_555
H10 C13 1_555 1_555
H11 C13 1_555 1_555
H12 N2 1_555 1_555
S2 C24 1_555 1_555
O4 H13 1_555 1_555
O5 C18 1_555 1_555
O6 C19 1_555 1_555
N3 N4 1_555 1_555
N4 C15 1_555 1_555
C14 C18 1_555 1_555
C15 C20 1_555 1_555
C16 H14 1_555 1_555
C17 O4 1_555 1_555
C18 C16 1_555 1_555
C19 N3 1_555 1_555
C20 C17 1_555 1_555
C21 H15 1_555 1_555
C22 C14 1_555 1_555
C23 O5 1_555 1_555
C24 C19 1_555 1_555
C25 S2 1_555 1_555
C26 C21 1_555 1_555
H16 C26 1_555 1_555
H17 C25 1_555 1_555
H18 C15 1_555 1_555
H19 N3 1_555 1_555
H20 C22 1_555 1_555
H21 C14 1_555 1_555
H22 C23 1_555 1_555
H23 C23 1_555 1_555
H24 C23 1_555 1_555
O7 H25 1_555 1_555
H26 O7 1_555 1_555
O8 H27 1_555 1_555
H28 O8 1_555 1_555
C3 C11 1_555 1_555
C6 C7 1_555 1_555
C8 C12 1_555 1_555
C16 C17 1_555 1_555
C20 C22 1_555 1_555
C21 C24 1_555 1_555
C25 C26 1_555 1_555

#END
