
#######################################################################
#
#                 Cambridge Crystallographic Data Centre
#                                CCDC 
#
#######################################################################
#
# If this CIF has been generated from an entry in the Cambridge 
# Structural Database, then it will include bibliographic, chemical, 
# crystal, experimental, refinement or atomic coordinate data resulting 
# from the CCDC's data processing and validation procedures.
#
#######################################################################

data_GIBZAV
_chemical_formula_moiety         'C15 H13 N3 O3'
_chemical_name_systematic        
N'-[(2-nitrophenyl)methylidene]-2-phenylacetohydrazide
_symmetry_cell_setting           orthorhombic
_symmetry_space_group_name_H-M   'P 21 21 21'
_symmetry_Int_Tables_number      19
_space_group_name_Hall           'P 2ac 2ab'
loop_
_symmetry_equiv_pos_site_id
_symmetry_equiv_pos_as_xyz
1 x,y,z
2 1/2-x,-y,1/2+z
3 -x,1/2+y,1/2-z
4 1/2+x,1/2-y,-z
_cell_length_a                   8.6321(17)
_cell_length_b                   12.120(2)
_cell_length_c                   13.540(3)
_cell_angle_alpha                90
_cell_angle_beta                 90
_cell_angle_gamma                90
_cell_volume                     1416.57
_exptl_crystal_colour            brown
_exptl_crystal_description       block
_cell_formula_units_Z            4
loop_
_atom_site_label
_atom_site_type_symbol
_atom_site_fract_x
_atom_site_fract_y
_atom_site_fract_z
C1 C 1.5870(4) 0.3848(2) 1.1606(2)
C2 C 1.6584(5) 0.3218(3) 1.2329(3)
H1 H 1.6642 0.2455 1.2264
C3 C 1.7202(4) 0.3731(5) 1.3137(4)
H2 H 1.7679 0.3314 1.3628
C4 C 1.7122(4) 0.4851(4) 1.3228(3)
H3 H 1.7574 0.5197 1.3769
C5 C 1.6370(3) 0.5474(3) 1.2516(2)
H4 H 1.6282 0.6233 1.2603
C6 C 1.5747(3) 0.4991(2) 1.1678(2)
C7 C 1.4966(3) 0.5689(2) 1.09399(19)
H5 H 1.4060 0.5459 1.0631
C8 C 1.5430(3) 0.8217(2) 0.97722(17)
C9 C 1.4421(3) 0.8898(2) 0.9095(2)
H6 H 1.3840 0.8407 0.8667
H7 H 1.3683 0.9310 0.9490
C10 C 1.5333(3) 0.9687(2) 0.84706(19)
C11 C 1.5631(4) 1.0745(3) 0.8793(2)
H8 H 1.5242 1.0973 0.9401
C12 C 1.6492(4) 1.1470(3) 0.8235(3)
H9 H 1.6670 1.2182 0.8464
C13 C 1.7083(4) 1.1147(3) 0.7348(3)
H10 H 1.7684 1.1635 0.6981
C14 C 1.6799(4) 1.0116(3) 0.6997(2)
H11 H 1.7187 0.9902 0.6386
C15 C 1.5918(3) 0.9376(2) 0.7562(2)
H12 H 1.5727 0.8670 0.7324
O1 O 1.5219(5) 0.3756(2) 0.9957(2)
O2 O 1.4837(6) 0.2321(2) 1.0827(3)
O3 O 1.67276(18) 0.85139(14) 1.00245(14)
N1 N 1.5276(5) 0.3274(2) 1.0737(3)
N2 N 1.5573(2) 0.66140(16) 1.07404(15)
N3 N 1.4785(2) 0.72674(15) 1.00734(16)
H13 H 1.3892 0.7069 0.9854
loop_
_geom_bond_atom_site_label_1
_geom_bond_atom_site_label_2
_geom_bond_site_symmetry_1
_geom_bond_site_symmetry_2
C1 C2 1_555 1_555
C2 H1 1_555 1_555
C3 C2 1_555 1_555
H2 C3 1_555 1_555
C4 C3 1_555 1_555
H3 C4 1_555 1_555
C5 C4 1_555 1_555
H4 C5 1_555 1_555
C6 C1 1_555 1_555
C7 C6 1_555 1_555
H5 C7 1_555 1_555
C8 C9 1_555 1_555
C9 H6 1_555 1_555
H7 C9 1_555 1_555
C10 C9 1_555 1_555
C11 C10 1_555 1_555
H8 C11 1_555 1_555
C12 C11 1_555 1_555
H9 C12 1_555 1_555
C13 C12 1_555 1_555
H10 C13 1_555 1_555
C14 C13 1_555 1_555
H11 C14 1_555 1_555
C15 C10 1_555 1_555
H12 C15 1_555 1_555
O1 N1 1_555 1_555
O2 N1 1_555 1_555
O3 C8 1_555 1_555
N1 C1 1_555 1_555
N2 C7 1_555 1_555
N3 C8 1_555 1_555
H13 N3 1_555 1_555
C5 C6 1_555 1_555
C14 C15 1_555 1_555
N2 N3 1_555 1_555

#END
