
#######################################################################
#
#                 Cambridge Crystallographic Data Centre
#                                CCDC 
#
#######################################################################
#
# If this CIF has been generated from an entry in the Cambridge 
# Structural Database, then it will include bibliographic, chemical, 
# crystal, experimental, refinement or atomic coordinate data resulting 
# from the CCDC's data processing and validation procedures.
#
#######################################################################

data_GIBZEZ
_chemical_formula_moiety         'C18 H24 O2,C1 H3 N1 O1'
_chemical_name_systematic        
'(17b)-estra-1,3,5(10)-triene-3,17diol formamide solvate'
_symmetry_cell_setting           orthorhombic
_symmetry_space_group_name_H-M   'P 21 21 21'
_symmetry_Int_Tables_number      19
_space_group_name_Hall           'P 2ac 2ab'
loop_
_symmetry_equiv_pos_site_id
_symmetry_equiv_pos_as_xyz
1 x,y,z
2 1/2-x,-y,1/2+z
3 -x,1/2+y,1/2-z
4 1/2+x,1/2-y,-z
_cell_length_a                   8.1564(16)
_cell_length_b                   16.937(3)
_cell_length_c                   24.686(5)
_cell_angle_alpha                90
_cell_angle_beta                 90
_cell_angle_gamma                90
_cell_volume                     3410.25
_exptl_crystal_colour            colorless
_exptl_crystal_description       block
_cell_formula_units_Z            8
loop_
_atom_site_label
_atom_site_type_symbol
_atom_site_fract_x
_atom_site_fract_y
_atom_site_fract_z
O1 O 0.1666(3) 0.42724(18) 0.70762(10)
H1 H 0.2101 0.3938 0.7282
O2 O 0.5540(3) 0.34734(17) 0.28128(10)
H2 H 0.4591 0.3335 0.2721
C1 C 0.2222(4) 0.4127(2) 0.65534(15)
C2 C 0.1099(4) 0.4113(2) 0.61337(15)
H3 H -0.0026 0.4220 0.6200
C3 C 0.1642(4) 0.3939(2) 0.56140(14)
H4 H 0.0864 0.3922 0.5328
C4 C 0.3288(4) 0.3787(2) 0.54957(14)
C5 C 0.4412(4) 0.3836(2) 0.59240(14)
C6 C 0.3864(4) 0.4002(2) 0.64469(14)
H5 H 0.4634 0.4029 0.6735
C7 C 0.6230(4) 0.3732(2) 0.58389(13)
H6 H 0.6668 0.3392 0.6131
H7 H 0.6770 0.4253 0.5869
C8 C 0.6679(4) 0.3367(2) 0.52940(14)
H8 H 0.7856 0.3462 0.5221
H9 H 0.6506 0.2789 0.5311
C9 C 0.5666(4) 0.3707(2) 0.48323(13)
H10 H 0.5821 0.4292 0.4821
C10 C 0.3842(4) 0.3522(2) 0.49354(14)
H11 H 0.3755 0.2933 0.4936
C11 C 0.2741(4) 0.3804(2) 0.44686(14)
H12 H 0.2743 0.4388 0.4459
H13 H 0.1603 0.3628 0.4537
C12 C 0.3303(4) 0.3489(2) 0.39144(14)
H14 H 0.3132 0.2910 0.3901
H15 H 0.2629 0.3731 0.3625
C13 C 0.5113(4) 0.3671(2) 0.38102(14)
C14 C 0.6135(4) 0.3359(2) 0.42859(14)
H16 H 0.5881 0.2782 0.4311
C15 C 0.7918(4) 0.3411(2) 0.40810(14)
H17 H 0.8610 0.2999 0.4251
H18 H 0.8396 0.3936 0.4159
C16 C 0.7767(4) 0.3273(2) 0.34592(15)
H19 H 0.8239 0.3722 0.3256
H20 H 0.8343 0.2783 0.3351
C17 C 0.5914(4) 0.3202(2) 0.33516(14)
H21 H 0.5584 0.2635 0.3384
C18 C 0.5353(4) 0.4560(2) 0.37116(15)
H22 H 0.4942 0.4857 0.4024
H23 H 0.4749 0.4718 0.3386
H24 H 0.6522 0.4672 0.3662
O3 O -0.2784(3) 0.62577(16) 0.70504(10)
H25 H -0.2049 0.6355 0.7279
O4 O 0.1323(3) 0.63468(16) 0.28115(9)
H26 H 0.0469 0.6088 0.2744
C19 C -0.0458(4) 0.6299(2) 0.64439(14)
H27 H 0.0236 0.6469 0.6730
C20 C -0.2094(4) 0.6148(2) 0.65495(14)
C21 C -0.3103(4) 0.5888(2) 0.61324(15)
H28 H -0.4224 0.5770 0.6199
C22 C -0.2447(4) 0.5802(2) 0.56165(15)
H29 H -0.3147 0.5634 0.5331
C23 C -0.0802(4) 0.5951(2) 0.54997(14)
C24 C 0.0188(4) 0.6208(2) 0.59268(14)
C25 C 0.1959(5) 0.6452(3) 0.58398(15)
H30 H 0.2644 0.6199 0.6122
H31 H 0.2046 0.7031 0.5888
C26 C 0.2648(4) 0.6235(3) 0.52854(14)
H32 H 0.3643 0.6554 0.5213
H33 H 0.2967 0.5671 0.5284
C27 C 0.1390(4) 0.6384(2) 0.48406(13)
H34 H 0.1013 0.6944 0.4863
C28 C -0.0096(4) 0.5834(2) 0.49332(14)
H35 H 0.0340 0.5282 0.4923
C29 C -0.1364(4) 0.5890(2) 0.44789(14)
H36 H -0.1882 0.6419 0.4488
H37 H -0.2233 0.5492 0.4540
C30 C -0.0595(5) 0.5755(2) 0.39185(14)
H38 H -0.0187 0.5206 0.3894
H39 H -0.1440 0.5829 0.3635
C31 C 0.0812(4) 0.6324(2) 0.38191(14)
C32 C 0.2079(4) 0.6232(2) 0.42772(13)
H40 H 0.2417 0.5665 0.4273
C33 C 0.3568(4) 0.6699(2) 0.40763(14)
H41 H 0.4595 0.6492 0.4237
H42 H 0.3463 0.7266 0.4167
C34 C 0.3542(4) 0.6570(2) 0.34542(14)
H43 H 0.3564 0.7082 0.3261
H44 H 0.4498 0.6252 0.3338
C35 C 0.1938(4) 0.6129(2) 0.33388(14)
H45 H 0.2166 0.5549 0.3340
C36 C 0.0172(5) 0.7170(2) 0.37607(15)
H46 H -0.0209 0.7361 0.4114
H47 H -0.0739 0.7179 0.3502
H48 H 0.1056 0.7512 0.3629
O5 O 0.2418(3) 0.70941(16) 0.74885(12)
N1 N 0.3742(4) 0.5928(2) 0.73897(14)
H49 H 0.2855 0.5654 0.7407
H50 H 0.4671 0.5695 0.7349
C37 C 0.3681(5) 0.6702(2) 0.74304(15)
H51 H 0.4689 0.6982 0.7414
O6 O 0.6207(3) 0.45873(17) 0.75526(12)
N2 N 0.8359(4) 0.3778(2) 0.73670(13)
H52 H 0.7819 0.3350 0.7425
H53 H 0.9372 0.3755 0.7272
C38 C 0.7644(5) 0.4469(2) 0.74186(15)
H54 H 0.8296 0.4922 0.7346
loop_
_geom_bond_atom_site_label_1
_geom_bond_atom_site_label_2
_geom_bond_site_symmetry_1
_geom_bond_site_symmetry_2
O1 H1 1_555 1_555
O2 H2 1_555 1_555
C1 O1 1_555 1_555
C2 C1 1_555 1_555
H3 C2 1_555 1_555
C3 C2 1_555 1_555
H4 C3 1_555 1_555
C4 C3 1_555 1_555
C5 C4 1_555 1_555
C6 C1 1_555 1_555
H5 C6 1_555 1_555
C7 C5 1_555 1_555
H6 C7 1_555 1_555
H7 C7 1_555 1_555
C8 C7 1_555 1_555
H8 C8 1_555 1_555
H9 C8 1_555 1_555
C9 C8 1_555 1_555
H10 C9 1_555 1_555
C10 C4 1_555 1_555
H11 C10 1_555 1_555
C11 C10 1_555 1_555
H12 C11 1_555 1_555
H13 C11 1_555 1_555
C12 C11 1_555 1_555
H14 C12 1_555 1_555
H15 C12 1_555 1_555
C13 C12 1_555 1_555
C14 C9 1_555 1_555
H16 C14 1_555 1_555
C15 C14 1_555 1_555
H17 C15 1_555 1_555
H18 C15 1_555 1_555
C16 C15 1_555 1_555
H19 C16 1_555 1_555
H20 C16 1_555 1_555
C17 O2 1_555 1_555
H21 C17 1_555 1_555
C18 C13 1_555 1_555
H22 C18 1_555 1_555
H23 C18 1_555 1_555
H24 C18 1_555 1_555
O3 H25 1_555 1_555
O4 H26 1_555 1_555
C19 H27 1_555 1_555
C20 O3 1_555 1_555
C21 C20 1_555 1_555
H28 C21 1_555 1_555
C22 C21 1_555 1_555
H29 C22 1_555 1_555
C23 C22 1_555 1_555
C24 C19 1_555 1_555
C25 C24 1_555 1_555
H30 C25 1_555 1_555
H31 C25 1_555 1_555
C26 C25 1_555 1_555
H32 C26 1_555 1_555
H33 C26 1_555 1_555
C27 C26 1_555 1_555
H34 C27 1_555 1_555
C28 C23 1_555 1_555
H35 C28 1_555 1_555
C29 C28 1_555 1_555
H36 C29 1_555 1_555
H37 C29 1_555 1_555
C30 C29 1_555 1_555
H38 C30 1_555 1_555
H39 C30 1_555 1_555
C31 C30 1_555 1_555
C32 C27 1_555 1_555
H40 C32 1_555 1_555
C33 C32 1_555 1_555
H41 C33 1_555 1_555
H42 C33 1_555 1_555
C34 C33 1_555 1_555
H43 C34 1_555 1_555
H44 C34 1_555 1_555
C35 O4 1_555 1_555
H45 C35 1_555 1_555
C36 C31 1_555 1_555
H46 C36 1_555 1_555
H47 C36 1_555 1_555
H48 C36 1_555 1_555
O5 C37 1_555 1_555
N1 H49 1_555 1_555
H50 N1 1_555 1_555
C37 N1 1_555 1_555
H51 C37 1_555 1_555
O6 C38 1_555 1_555
N2 H52 1_555 1_555
H53 N2 1_555 1_555
C38 N2 1_555 1_555
H54 C38 1_555 1_555
C5 C6 1_555 1_555
C9 C10 1_555 1_555
C13 C14 1_555 1_555
C13 C17 1_555 1_555
C16 C17 1_555 1_555
C19 C20 1_555 1_555
C23 C24 1_555 1_555
C27 C28 1_555 1_555
C31 C32 1_555 1_555
C31 C35 1_555 1_555
C34 C35 1_555 1_555

#END
