
#######################################################################
#
#                 Cambridge Crystallographic Data Centre
#                                CCDC 
#
#######################################################################
#
# If this CIF has been generated from an entry in the Cambridge 
# Structural Database, then it will include bibliographic, chemical, 
# crystal, experimental, refinement or atomic coordinate data resulting 
# from the CCDC's data processing and validation procedures.
#
#######################################################################

data_GICBIF
_chemical_formula_moiety         'C22 H20 N4 2+,2(F6 P1 1-),C1 H4 O1'
_chemical_name_systematic        
'1,7-Dimethyl-3,5-diphenyl-3,5-dihydroimidazo[4,5-f]benzimidazole-1,7-diium bis(hexafluorophosphate) methanol solvate'
_symmetry_cell_setting           monoclinic
_symmetry_space_group_name_H-M   'C 2/c'
_symmetry_Int_Tables_number      15
_space_group_name_Hall           '-C 2yn'
loop_
_symmetry_equiv_pos_site_id
_symmetry_equiv_pos_as_xyz
1 x,y,z
2 -x,y,1/2-z
3 1/2+x,1/2+y,z
4 1/2-x,1/2+y,1/2-z
5 -x,-y,-z
6 x,-y,1/2+z
7 1/2-x,1/2-y,-z
8 1/2+x,1/2-y,1/2+z
_cell_length_a                   22.030(4)
_cell_length_b                   27.145(5)
_cell_length_c                   10.285(2)
_cell_angle_alpha                90
_cell_angle_beta                 116.38(3)
_cell_angle_gamma                90
_cell_volume                     5510.01
_exptl_crystal_colour            colorless
_exptl_crystal_description       block
_cell_formula_units_Z            8
loop_
_atom_site_label
_atom_site_type_symbol
_atom_site_fract_x
_atom_site_fract_y
_atom_site_fract_z
N1 N 0.09138(13) 0.14050(10) 0.5065(3)
N2 N 0.09144(13) 0.05980(10) 0.5040(3)
C1 C 0.0000 0.04633(16) 0.2500
H1 H 0.0000 0.0113 0.2500
C2 C 0.04217(16) 0.07447(12) 0.3686(3)
C3 C 0.11907(16) 0.09949(12) 0.5813(4)
H2 H 0.1542 0.0990 0.6779
C4 C 0.04167(15) 0.12635(11) 0.3688(3)
C5 C 0.0000 0.15433(16) 0.2500
H3 H 0.0000 0.1893 0.2500
C6 C 0.1093(2) 0.00887(13) 0.5522(4)
H4 H 0.1431 0.0085 0.6541
H5 H 0.1280 -0.0072 0.4926
H6 H 0.0687 -0.0088 0.5422
C7 C 0.10797(16) 0.18990(12) 0.5601(3)
C8 C 0.05704(17) 0.22202(13) 0.5452(4)
H7 H 0.0111 0.2117 0.4991
C9 C 0.0736(2) 0.26999(13) 0.5985(4)
H8 H 0.0388 0.2926 0.5877
C10 C 0.1406(2) 0.28459(15) 0.6668(4)
H9 H 0.1520 0.3173 0.7023
C11 C 0.1914(2) 0.25084(17) 0.6833(5)
H10 H 0.2375 0.2605 0.7332
C12 C 0.17557(17) 0.20422(14) 0.6288(4)
H11 H 0.2103 0.1818 0.6376
N1A N -0.09138(13) 0.14050(10) -0.0065(3)
N2A N -0.09144(13) 0.05980(10) -0.0040(3)
C2A C -0.04217(16) 0.07447(12) 0.1314(3)
C3A C -0.11907(16) 0.09949(12) -0.0813(4)
H2A H -0.1542 0.0990 -0.1779
C4A C -0.04167(15) 0.12635(11) 0.1312(3)
C6A C -0.1093(2) 0.00887(13) -0.0522(4)
H4A H -0.1431 0.0085 -0.1541
H5A H -0.1280 -0.0072 0.0074
H6A H -0.0687 -0.0088 -0.0422
C7A C -0.10797(16) 0.18990(12) -0.0601(3)
C8A C -0.05704(17) 0.22202(13) -0.0452(4)
H7A H -0.0111 0.2117 0.0009
C9A C -0.0736(2) 0.26999(13) -0.0985(4)
H8A H -0.0388 0.2926 -0.0877
C10A C -0.1406(2) 0.28459(15) -0.1668(4)
H9A H -0.1520 0.3173 -0.2023
C11A C -0.1914(2) 0.25084(17) -0.1833(5)
H10A H -0.2375 0.2605 -0.2332
C12A C -0.17557(17) 0.20422(14) -0.1288(4)
H11A H -0.2103 0.1818 -0.1376
N3 N 0.09599(14) 0.42552(10) 0.1837(3)
N4 N 0.09710(13) 0.34486(10) 0.1856(3)
C13 C 0.0000 0.43891(17) 0.2500
H12 H 0.0000 0.4739 0.2500
C14 C 0.04460(16) 0.41075(11) 0.2203(3)
C15 C 0.12559(16) 0.38566(12) 0.1648(4)
H13 H 0.1622 0.3860 0.1398
C16 C 0.04530(16) 0.35894(12) 0.2217(3)
C17 C 0.0000 0.33084(16) 0.2500
H14 H 0.0000 0.2958 0.2500
C18 C 0.1150(2) 0.47646(13) 0.1714(5)
H15 H 0.1536 0.4765 0.1484
H16 H 0.1274 0.4936 0.2635
H17 H 0.0765 0.4933 0.0940
C19 C 0.11343(15) 0.29479(12) 0.1640(4)
C20 C 0.12733(18) 0.26043(13) 0.2729(4)
H18 H 0.1289 0.2699 0.3633
C21 C 0.13905(18) 0.21170(13) 0.2476(4)
H19 H 0.1489 0.1877 0.3214
C22 C 0.13646(17) 0.19821(13) 0.1156(4)
H20 H 0.1432 0.1648 0.0978
C23 C 0.12412(19) 0.23330(14) 0.0094(4)
H21 H 0.1240 0.2240 -0.0799
C24 C 0.11199(17) 0.28185(14) 0.0320(4)
H22 H 0.1028 0.3059 -0.0415
N3A N -0.09599(14) 0.42552(10) 0.3163(3)
N4A N -0.09710(13) 0.34486(10) 0.3144(3)
C14A C -0.04460(16) 0.41075(11) 0.2797(3)
C15A C -0.12559(16) 0.38566(12) 0.3352(4)
H13A H -0.1622 0.3860 0.3602
C16A C -0.04530(16) 0.35894(12) 0.2783(3)
C18A C -0.1150(2) 0.47646(13) 0.3286(5)
H15A H -0.1536 0.4765 0.3516
H16A H -0.1274 0.4936 0.2365
H17A H -0.0765 0.4933 0.4060
C19A C -0.11343(15) 0.29479(12) 0.3360(4)
C20A C -0.12733(18) 0.26043(13) 0.2271(4)
H18A H -0.1289 0.2699 0.1367
C21A C -0.13905(18) 0.21170(13) 0.2524(4)
H19A H -0.1489 0.1877 0.1786
C22A C -0.13646(17) 0.19821(13) 0.3844(4)
H20A H -0.1432 0.1648 0.4022
C23A C -0.12412(19) 0.23330(14) 0.4906(4)
H21A H -0.1240 0.2240 0.5799
C24A C -0.11199(17) 0.28185(14) 0.4680(4)
H22A H -0.1028 0.3059 0.5415
P1 P 0.25144(5) 0.07325(4) 0.41909(11)
F1 F 0.17215(15) 0.08332(17) 0.3378(4)
F2 F 0.2366(3) 0.0213(2) 0.4655(9)
F3 F 0.33014(15) 0.06370(16) 0.4998(3)
F4 F 0.2521(3) 0.1035(2) 0.5467(7)
F5 F 0.2500(3) 0.0538(3) 0.2660(7)
F6 F 0.2676(6) 0.1265(4) 0.3957(14)
P2 P 0.0000 0.10672(4) 0.7500
F10 F 0.02452(14) 0.10635(10) 0.9215(3)
F11 F 0.05426(13) 0.06453(9) 0.7662(3)
F12 F 0.05556(16) 0.14715(10) 0.7694(3)
F10A F -0.02452(14) 0.10635(10) 0.5785(3)
F11A F -0.05426(13) 0.06453(9) 0.7338(3)
F12A F -0.05556(16) 0.14715(10) 0.7306(3)
P3 P 0.5000 0.09542(5) 0.2500
F13 F 0.5116(4) 0.0488(3) 0.3584(8)
F14 F 0.4190(4) 0.1091(3) 0.1644(8)
F15 F 0.4939(4) 0.1261(3) 0.3824(8)
F13A F 0.4884(4) 0.0488(3) 0.1416(8)
F14A F 0.5810(4) 0.1091(3) 0.3356(8)
F15A F 0.5061(4) 0.1261(3) 0.1176(8)
O1 O 0.24647(15) 0.91590(12) 0.3857(3)
H23 H 0.2483 0.9461 0.4043
C25 C 0.2417(3) 0.8890(3) 0.4977(7)
H24 H 0.2751 0.9015 0.5918
H25 H 0.2505 0.8541 0.4886
H26 H 0.1961 0.8927 0.4906
F7? F 0.2579(3) 0.1203(2) 0.3292(8)
F8? F 0.2501(4) 0.0771(3) 0.5753(8)
F9? F 0.2481(4) 0.0364(3) 0.2958(9)
F16? F 0.4858(4) 0.0597(3) 0.3587(8)
F17? F 0.4236(4) 0.0843(3) 0.1678(8)
F18? F 0.5067(4) 0.1403(3) 0.3436(9)
loop_
_geom_bond_atom_site_label_1
_geom_bond_atom_site_label_2
_geom_bond_site_symmetry_1
_geom_bond_site_symmetry_2
N1 C3 1_555 1_555
N2 C2 1_555 1_555
C1 H1 1_555 1_555
C2 C1 1_555 1_555
C3 N2 1_555 1_555
H2 C3 1_555 1_555
C4 N1 1_555 1_555
C5 C4 1_555 1_555
H3 C5 1_555 1_555
C6 N2 1_555 1_555
H4 C6 1_555 1_555
H5 C6 1_555 1_555
H6 C6 1_555 1_555
C7 N1 1_555 1_555
C8 C7 1_555 1_555
H7 C8 1_555 1_555
C9 C8 1_555 1_555
H8 C9 1_555 1_555
C10 C9 1_555 1_555
H9 C10 1_555 1_555
C11 C10 1_555 1_555
H10 C11 1_555 1_555
C12 C7 1_555 1_555
H11 C12 1_555 1_555
N3 C14 1_555 1_555
N4 C15 1_555 1_555
C13 H12 1_555 1_555
C14 C13 1_555 1_555
C15 N3 1_555 1_555
H13 C15 1_555 1_555
C16 N4 1_555 1_555
C17 C16 1_555 1_555
H14 C17 1_555 1_555
C18 N3 1_555 1_555
H15 C18 1_555 1_555
H16 C18 1_555 1_555
H17 C18 1_555 1_555
C19 N4 1_555 1_555
C20 C19 1_555 1_555
H18 C20 1_555 1_555
C21 C20 1_555 1_555
H19 C21 1_555 1_555
C22 C21 1_555 1_555
H20 C22 1_555 1_555
C23 C22 1_555 1_555
H21 C23 1_555 1_555
C24 C19 1_555 1_555
H22 C24 1_555 1_555
P1 F1 1_555 1_555
F2 P1 1_555 1_555
F3 P1 1_555 1_555
F4 P1 1_555 1_555
F5 P1 1_555 1_555
F6 P1 1_555 1_555
P2 F10 1_555 1_555
F11 P2 1_555 1_555
F12 P2 1_555 1_555
P3 F13 1_555 1_555
F14 P3 1_555 1_555
F15 P3 1_555 1_555
O1 H23 1_555 1_555
C25 O1 1_555 1_555
H24 C25 1_555 1_555
H25 C25 1_555 1_555
H26 C25 1_555 1_555
N1A C3A 1_555 1_555
N2A C2A 1_555 1_555
C2A C1 1_555 1_555
C3A N2A 1_555 1_555
H2A C3A 1_555 1_555
C4A C5 1_555 1_555
C6A N2A 1_555 1_555
H4A C6A 1_555 1_555
H5A C6A 1_555 1_555
H6A C6A 1_555 1_555
C7A N1A 1_555 1_555
C8A C7A 1_555 1_555
H7A C8A 1_555 1_555
C9A C8A 1_555 1_555
H8A C9A 1_555 1_555
C10A C9A 1_555 1_555
H9A C10A 1_555 1_555
C11A C10A 1_555 1_555
H10A C11A 1_555 1_555
C12A C7A 1_555 1_555
H11A C12A 1_555 1_555
N3A C14A 1_555 1_555
N4A C15A 1_555 1_555
C14A C13 1_555 1_555
C15A N3A 1_555 1_555
H13A C15A 1_555 1_555
C16A C17 1_555 1_555
C18A N3A 1_555 1_555
H15A C18A 1_555 1_555
H16A C18A 1_555 1_555
H17A C18A 1_555 1_555
C19A N4A 1_555 1_555
C20A C19A 1_555 1_555
H18A C20A 1_555 1_555
C21A C20A 1_555 1_555
H19A C21A 1_555 1_555
C22A C21A 1_555 1_555
H20A C22A 1_555 1_555
C23A C22A 1_555 1_555
H21A C23A 1_555 1_555
C24A C19A 1_555 1_555
H22A C24A 1_555 1_555
F10A P2 1_555 1_555
F11A P2 1_555 1_555
F12A P2 1_555 1_555
F13A P3 1_555 1_555
F14A P3 1_555 1_555
F15A P3 1_555 1_555
C2 C4 1_555 1_555
C11 C12 1_555 1_555
C14 C16 1_555 1_555
C23 C24 1_555 1_555
N1A C4A 1_555 1_555
C2A C4A 1_555 1_555
C11A C12A 1_555 1_555
N4A C16A 1_555 1_555
C14A C16A 1_555 1_555
C23A C24A 1_555 1_555

#END
