
#######################################################################
#
#                 Cambridge Crystallographic Data Centre
#                                CCDC 
#
#######################################################################
#
# If this CIF has been generated from an entry in the Cambridge 
# Structural Database, then it will include bibliographic, chemical, 
# crystal, experimental, refinement or atomic coordinate data resulting 
# from the CCDC's data processing and validation procedures.
#
#######################################################################

data_GICGEH
_chemical_formula_moiety         'C26 H22 F3 N1 O2,C1 H2 Cl2'
_chemical_name_systematic        
'((4S,5S)-5-(hydroxy(diphenyl)methyl)-4-methyl-4-(trifluoromethyl)-4,5-dihydro-1H-pyrrol-3-yl)(phenyl)methanone dichloromethane solvate'
_symmetry_cell_setting           orthorhombic
_symmetry_space_group_name_H-M   'P 21 21 21'
_symmetry_Int_Tables_number      19
_space_group_name_Hall           'P 2ac 2ab'
loop_
_symmetry_equiv_pos_site_id
_symmetry_equiv_pos_as_xyz
1 x,y,z
2 1/2-x,-y,1/2+z
3 -x,1/2+y,1/2-z
4 1/2+x,1/2-y,-z
_cell_length_a                   8.72520(10)
_cell_length_b                   12.46360(10)
_cell_length_c                   23.3054(2)
_cell_angle_alpha                90
_cell_angle_beta                 90
_cell_angle_gamma                90
_cell_volume                     2534.4
_exptl_crystal_colour            colorless
_exptl_crystal_description       block
_cell_formula_units_Z            4
loop_
_atom_site_label
_atom_site_type_symbol
_atom_site_fract_x
_atom_site_fract_y
_atom_site_fract_z
Cl1 Cl 0.06680(10) 0.06613(9) 0.26597(4)
Cl2 Cl -0.14406(13) 0.24852(8) 0.26146(7)
C1 C 0.0261(3) 0.1928(3) 0.23553(14)
H1 H 0.1102 0.2414 0.2438
H2 H 0.0189 0.1854 0.1942
F1 F 0.22917(14) 0.54801(10) 0.33452(5)
F2 F 0.24541(14) 0.43919(10) 0.40631(5)
F3 F 0.17481(14) 0.38072(10) 0.32321(6)
O1 O 0.37011(18) 0.28981(11) 0.22782(6)
O2 O 0.77798(16) 0.42761(11) 0.35719(6)
H3 H 0.8041 0.4639 0.3295
N1 N 0.5684(2) 0.59088(13) 0.31550(7)
H4 H 0.6073 0.6539 0.3190
C2 C 0.5347(2) 0.52028(15) 0.36408(8)
H5 H 0.4679 0.5583 0.3911
C3 C 0.5320(2) 0.54662(16) 0.26549(8)
H6 H 0.5511 0.5794 0.2304
C4 C 0.4639(2) 0.44838(16) 0.27056(8)
C5 C 0.7747(2) 0.59368(16) 0.41142(8)
C6 C 0.2730(2) 0.44805(16) 0.34907(8)
C7 C 0.4769(2) 0.31028(16) 0.35317(9)
H7 H 0.5806 0.2933 0.3429
H8 H 0.4083 0.2617 0.3341
H9 H 0.4645 0.3036 0.3939
C8 C 0.4402(2) 0.42616(15) 0.33477(8)
C9 C 0.6866(2) 0.49112(16) 0.39483(8)
C10 C 0.4248(2) 0.38141(16) 0.22339(9)
C11 C 0.6615(2) 0.42585(15) 0.44947(8)
C12 C 0.4536(2) 0.42641(16) 0.16434(8)
C13 C 0.7042(3) 0.69025(17) 0.42642(9)
H10 H 0.5978 0.6946 0.4273
C14 C 0.9348(2) 0.58854(18) 0.41306(9)
H11 H 0.9838 0.5243 0.4043
C15 C 0.5617(3) 0.3782(2) 0.12877(10)
H12 H 0.6166 0.3189 0.1415
C16 C 0.5569(3) 0.46075(17) 0.49103(8)
H13 H 0.4970 0.5211 0.4840
C17 C 0.7483(3) 0.33496(16) 0.46059(9)
H14 H 0.8187 0.3108 0.4336
C18 C 0.7304(3) 0.27961(18) 0.51222(9)
H15 H 0.7877 0.2180 0.5190
C19 C 0.3716(3) 0.51488(17) 0.14477(9)
H16 H 0.2993 0.5473 0.1684
C20 C 1.0215(3) 0.6774(2) 0.42751(10)
H17 H 1.1278 0.6724 0.4288
C21 C 0.5417(3) 0.40608(18) 0.54269(9)
H18 H 0.4730 0.4305 0.5703
C22 C 0.6291(3) 0.31506(19) 0.55314(9)
H19 H 0.6191 0.2783 0.5877
C23 C 0.7916(3) 0.77997(18) 0.44002(10)
H20 H 0.7434 0.8443 0.4491
C24 C 0.9503(3) 0.77410(19) 0.44008(10)
H21 H 1.0086 0.8346 0.4485
C25 C 0.3973(3) 0.5551(2) 0.08988(10)
H22 H 0.3419 0.6139 0.0768
C26 C 0.5053(4) 0.5073(2) 0.05496(10)
H23 H 0.5230 0.5345 0.0184
C27 C 0.5873(3) 0.4193(2) 0.07405(10)
H24 H 0.6597 0.3875 0.0502
loop_
_geom_bond_atom_site_label_1
_geom_bond_atom_site_label_2
_geom_bond_site_symmetry_1
_geom_bond_site_symmetry_2
Cl1 C1 1_555 1_555
Cl2 C1 1_555 1_555
C1 H1 1_555 1_555
H2 C1 1_555 1_555
F1 C6 1_555 1_555
F2 C6 1_555 1_555
F3 C6 1_555 1_555
O1 C10 1_555 1_555
O2 H3 1_555 1_555
N1 H4 1_555 1_555
C2 N1 1_555 1_555
H5 C2 1_555 1_555
C3 N1 1_555 1_555
H6 C3 1_555 1_555
C4 C3 1_555 1_555
C5 C9 1_555 1_555
C6 C8 1_555 1_555
C7 H7 1_555 1_555
H8 C7 1_555 1_555
H9 C7 1_555 1_555
C8 C2 1_555 1_555
C9 O2 1_555 1_555
C10 C4 1_555 1_555
C11 C9 1_555 1_555
C12 C10 1_555 1_555
C13 C5 1_555 1_555
H10 C13 1_555 1_555
C14 C5 1_555 1_555
H11 C14 1_555 1_555
C15 C12 1_555 1_555
H12 C15 1_555 1_555
C16 C11 1_555 1_555
H13 C16 1_555 1_555
C17 C11 1_555 1_555
H14 C17 1_555 1_555
C18 C17 1_555 1_555
H15 C18 1_555 1_555
C19 C12 1_555 1_555
H16 C19 1_555 1_555
C20 C14 1_555 1_555
H17 C20 1_555 1_555
C21 C16 1_555 1_555
H18 C21 1_555 1_555
C22 C18 1_555 1_555
H19 C22 1_555 1_555
C23 C13 1_555 1_555
H20 C23 1_555 1_555
C24 C20 1_555 1_555
H21 C24 1_555 1_555
C25 C19 1_555 1_555
H22 C25 1_555 1_555
C26 C25 1_555 1_555
H23 C26 1_555 1_555
C27 C15 1_555 1_555
H24 C27 1_555 1_555
C2 C9 1_555 1_555
C4 C8 1_555 1_555
C7 C8 1_555 1_555
C21 C22 1_555 1_555
C23 C24 1_555 1_555
C26 C27 1_555 1_555

#END
