
#######################################################################
#
#                 Cambridge Crystallographic Data Centre
#                                CCDC 
#
#######################################################################
#
# If this CIF has been generated from an entry in the Cambridge 
# Structural Database, then it will include bibliographic, chemical, 
# crystal, experimental, refinement or atomic coordinate data resulting 
# from the CCDC's data processing and validation procedures.
#
#######################################################################

data_GICHUY
_chemical_formula_moiety         'C16 H17 F6 N1 O2'
_chemical_name_systematic        
'ethyl cis-2-((3,5-bis(trifluoromethyl)phenyl)amino)cyclopentane-1-carboxylate'
_symmetry_cell_setting           triclinic
_symmetry_space_group_name_H-M   'P -1'
_symmetry_Int_Tables_number      2
_space_group_name_Hall           '-P 1'
loop_
_symmetry_equiv_pos_site_id
_symmetry_equiv_pos_as_xyz
1 x,y,z
2 -x,-y,-z
_cell_length_a                   8.9355(6)
_cell_length_b                   9.8676(7)
_cell_length_c                   9.9682(5)
_cell_angle_alpha                108.013(5)
_cell_angle_beta                 96.721(5)
_cell_angle_gamma                95.647(5)
_cell_volume                     821.621
_exptl_crystal_colour            colorless
_exptl_crystal_description       block
_chemical_melting_point          '96.2-97.9 deg.C'
_cell_formula_units_Z            2
_exptl_crystal_recrystallization_method dichloromethane/hexane
loop_
_atom_site_label
_atom_site_type_symbol
_atom_site_fract_x
_atom_site_fract_y
_atom_site_fract_z
O1 O 0.76837(16) 0.28617(15) 0.07740(14)
O2 O 0.70603(16) 0.41985(16) -0.05951(15)
F1 F 0.07361(16) 0.32610(19) 0.3793(2)
F2 F 0.80027(19) 0.31280(17) 0.58430(19)
F3 F 0.62636(19) 0.1594(2) 0.6004(2)
F4 F 0.7463(2) 0.1105(2) 0.42433(18)
F5 F 0.08201(18) 0.1876(3) 0.17333(18)
N1 N 0.56399(19) 0.52747(19) 0.22542(18)
H1 H 0.4974 0.5413 0.1603
F6 F 0.11432(19) 0.1141(2) 0.3535(3)
C1 C 0.7655(2) 0.4107(2) 0.0519(2)
C2 C 0.5700(2) 0.2720(2) 0.42724(19)
C3 C 0.6216(2) 0.3748(2) 0.3692(2)
H2 H 0.7273 0.4097 0.3848
C4 C 0.5189(2) 0.4280(2) 0.28759(19)
C5 C 0.3639(2) 0.3743(2) 0.2680(2)
H3 H 0.2918 0.4086 0.2132
C6 C 0.8404(2) 0.5357(2) 0.1796(2)
H4 H 0.9079 0.5011 0.2457
C7 C 0.3151(2) 0.2719(2) 0.3277(2)
C8 C 0.4171(2) 0.2179(2) 0.4074(2)
H5 H 0.3831 0.1464 0.4468
C9 C 0.7132(2) 0.6115(2) 0.2592(2)
H6 H 0.7476 0.6390 0.3644
C10 C 0.9320(2) 0.6543(2) 0.1393(2)
H7 H 1.0426 0.6579 0.1681
H8 H 0.9114 0.6363 0.0351
C11 C 0.7114(3) 0.7488(2) 0.2199(3)
H9 H 0.6510 0.7296 0.1245
H10 H 0.6693 0.8230 0.2914
C12 C 0.6848(2) 0.2139(2) 0.5089(2)
C13 C 0.8790(3) 0.7949(2) 0.2203(3)
H11 H 0.9351 0.8354 0.3189
H12 H 0.8922 0.8670 0.1707
C14 C 0.6910(3) 0.1583(2) -0.0346(2)
H13 H 0.7399 0.1424 -0.1213
H14 H 0.5829 0.1681 -0.0595
C15 C 0.7027(3) 0.0354(3) 0.0226(3)
H15 H 0.6502 -0.0539 -0.0494
H16 H 0.6554 0.0535 0.1092
H17 H 0.8101 0.0263 0.0455
C16 C 0.1474(3) 0.2232(3) 0.3074(3)
loop_
_geom_bond_atom_site_label_1
_geom_bond_atom_site_label_2
_geom_bond_site_symmetry_1
_geom_bond_site_symmetry_2
O1 C1 1_555 1_555
O2 C1 1_555 1_555
F1 C16 1_555 1_555
F2 C12 1_555 1_555
F3 C12 1_555 1_555
F4 C12 1_555 1_555
F5 C16 1_555 1_555
N1 H1 1_555 1_555
F6 C16 1_555 1_555
C1 C6 1_555 1_555
C2 C3 1_555 1_555
C3 H2 1_555 1_555
C4 N1 1_555 1_555
C5 C4 1_555 1_555
H3 C5 1_555 1_555
C6 H4 1_555 1_555
C7 C5 1_555 1_555
C8 C2 1_555 1_555
H5 C8 1_555 1_555
C9 N1 1_555 1_555
H6 C9 1_555 1_555
C10 C6 1_555 1_555
H7 C10 1_555 1_555
H8 C10 1_555 1_555
C11 C9 1_555 1_555
H9 C11 1_555 1_555
H10 C11 1_555 1_555
C12 C2 1_555 1_555
C13 C10 1_555 1_555
H11 C13 1_555 1_555
H12 C13 1_555 1_555
C14 O1 1_555 1_555
H13 C14 1_555 1_555
H14 C14 1_555 1_555
C15 C14 1_555 1_555
H15 C15 1_555 1_555
H16 C15 1_555 1_555
H17 C15 1_555 1_555
C16 C7 1_555 1_555
C3 C4 1_555 1_555
C6 C9 1_555 1_555
C7 C8 1_555 1_555
C11 C13 1_555 1_555

#END
