
#######################################################################
#
#                 Cambridge Crystallographic Data Centre
#                                CCDC 
#
#######################################################################
#
# If this CIF has been generated from an entry in the Cambridge 
# Structural Database, then it will include bibliographic, chemical, 
# crystal, experimental, refinement or atomic coordinate data resulting 
# from the CCDC's data processing and validation procedures.
#
#######################################################################

data_GICJEK
_chemical_formula_moiety         'C20 H23 N1 O2'
_chemical_name_systematic        
'ethyl 2-phenyl-3-(phenylamino)cyclopentane-1-carboxylate'
_symmetry_cell_setting           monoclinic
_symmetry_space_group_name_H-M   'C 2/c'
_symmetry_Int_Tables_number      15
_space_group_name_Hall           '-C 2yn'
loop_
_symmetry_equiv_pos_site_id
_symmetry_equiv_pos_as_xyz
1 x,y,z
2 -x,y,1/2-z
3 1/2+x,1/2+y,z
4 1/2-x,1/2+y,1/2-z
5 -x,-y,-z
6 x,-y,1/2+z
7 1/2-x,1/2-y,-z
8 1/2+x,1/2-y,1/2+z
_cell_length_a                   18.0973(11)
_cell_length_b                   8.9556(5)
_cell_length_c                   23.3464(14)
_cell_angle_alpha                90
_cell_angle_beta                 113.942(7)
_cell_angle_gamma                90
_cell_volume                     3458.23
_exptl_crystal_colour            colorless
_exptl_crystal_description       plate
_cell_formula_units_Z            8
_exptl_crystal_recrystallization_method dichloromethane/hexane
loop_
_atom_site_label
_atom_site_type_symbol
_atom_site_fract_x
_atom_site_fract_y
_atom_site_fract_z
O1 O 0.36774(9) 0.88403(18) 0.52623(7)
O2 O 0.39321(11) 0.7003(2) 0.47363(8)
N1 N 0.66306(10) 0.5051(2) 0.64675(9)
H1 H 0.6429 0.4251 0.6259
C1 C 0.52471(11) 0.6049(2) 0.59173(9)
H2 H 0.5259 0.5623 0.5535
C2 C 0.47934(12) 0.4980(3) 0.61514(9)
C3 C 0.41250(12) 0.7751(2) 0.51943(10)
C4 C 0.61260(11) 0.6355(2) 0.63741(10)
H3 H 0.6128 0.6646 0.6779
C5 C 0.74363(12) 0.5066(2) 0.68896(9)
C6 C 0.49140(12) 0.7630(2) 0.57646(10)
H4 H 0.4834 0.8026 0.6127
C7 C 0.79752(13) 0.4033(3) 0.68347(11)
H5 H 0.7795 0.3334 0.6513
C8 C 0.77346(14) 0.6083(3) 0.73816(10)
H6 H 0.7389 0.6786 0.7434
C9 C 0.55962(14) 0.8522(3) 0.56885(12)
H7 H 0.5524 0.8534 0.5254
H8 H 0.5605 0.9543 0.5830
C10 C 0.47010(14) 0.3506(3) 0.59552(13)
H9 H 0.4917 0.3195 0.5675
C11 C 0.29178(14) 0.9167(3) 0.47345(12)
H10 H 0.2586 0.8276 0.4609
H11 H 0.3019 0.9521 0.4380
C12 C 0.90685(14) 0.5047(3) 0.77279(11)
H12 H 0.9613 0.5052 0.8000
C13 C 0.85445(15) 0.6055(3) 0.77953(11)
H13 H 0.8732 0.6736 0.8124
C14 C 0.87772(15) 0.4034(3) 0.72540(13)
H14 H 0.9126 0.3324 0.7211
C15 C 0.63761(14) 0.7712(3) 0.60944(14)
H15 H 0.6727 0.8363 0.6425
H16 H 0.6662 0.7395 0.5843
C16 C 0.42949(15) 0.2491(3) 0.61658(16)
H17 H 0.4245 0.1507 0.6028
C17 C 0.3972(2) 0.2904(5) 0.65652(17)
H18 H 0.3693 0.2213 0.6700
C18 C 0.25055(18) 1.0333(4) 0.4944(2)
H19 H 0.1984 1.0533 0.4617
H20 H 0.2824 1.1229 0.5041
H21 H 0.2440 0.9993 0.5311
C19 C 0.4468(2) 0.5393(4) 0.65651(16)
H22 H 0.4521 0.6372 0.6709
C20 C 0.4054(3) 0.4342(6) 0.6773(2)
H23 H 0.3835 0.4630 0.7054
loop_
_geom_bond_atom_site_label_1
_geom_bond_atom_site_label_2
_geom_bond_site_symmetry_1
_geom_bond_site_symmetry_2
O1 C3 1_555 1_555
O2 C3 1_555 1_555
N1 H1 1_555 1_555
C1 H2 1_555 1_555
C2 C1 1_555 1_555
C3 C6 1_555 1_555
C4 N1 1_555 1_555
H3 C4 1_555 1_555
C5 N1 1_555 1_555
C6 C1 1_555 1_555
H4 C6 1_555 1_555
C7 C5 1_555 1_555
H5 C7 1_555 1_555
C8 C5 1_555 1_555
H6 C8 1_555 1_555
C9 C6 1_555 1_555
H7 C9 1_555 1_555
H8 C9 1_555 1_555
C10 C2 1_555 1_555
H9 C10 1_555 1_555
C11 O1 1_555 1_555
H10 C11 1_555 1_555
H11 C11 1_555 1_555
C12 H12 1_555 1_555
C13 C8 1_555 1_555
H13 C13 1_555 1_555
C14 C7 1_555 1_555
H14 C14 1_555 1_555
C15 C4 1_555 1_555
H15 C15 1_555 1_555
H16 C15 1_555 1_555
C16 C10 1_555 1_555
H17 C16 1_555 1_555
C17 C16 1_555 1_555
H18 C17 1_555 1_555
C18 C11 1_555 1_555
H19 C18 1_555 1_555
H20 C18 1_555 1_555
H21 C18 1_555 1_555
C19 C2 1_555 1_555
H22 C19 1_555 1_555
C20 C17 1_555 1_555
H23 C20 1_555 1_555
C1 C4 1_555 1_555
C9 C15 1_555 1_555
C12 C13 1_555 1_555
C12 C14 1_555 1_555
C19 C20 1_555 1_555

#END
