
#######################################################################
#
#                 Cambridge Crystallographic Data Centre
#                                CCDC 
#
#######################################################################
#
# If this CIF has been generated from an entry in the Cambridge 
# Structural Database, then it will include bibliographic, chemical, 
# crystal, experimental, refinement or atomic coordinate data resulting 
# from the CCDC's data processing and validation procedures.
#
#######################################################################

data_GICLOW
_chemical_name_common            
'ethyl 1-(4-bromobenzyl)-3-phenyl-1H-pyrazole-5-carboxylate'
_chemical_formula_moiety         'C19 H17 Br1 N2 O2'
_chemical_name_systematic        
'ethyl 1-[(4-bromophenyl)methyl]-3-phenyl-1H-pyrazole-5-carboxylate'
_symmetry_cell_setting           triclinic
_symmetry_space_group_name_H-M   'P -1'
_symmetry_Int_Tables_number      2
_space_group_name_Hall           '-P 1'
loop_
_symmetry_equiv_pos_site_id
_symmetry_equiv_pos_as_xyz
1 x,y,z
2 -x,-y,-z
_cell_length_a                   8.3979(11)
_cell_length_b                   10.4083(14)
_cell_length_c                   11.1696(15)
_cell_angle_alpha                69.270(2)
_cell_angle_beta                 89.401(2)
_cell_angle_gamma                73.709(2)
_cell_volume                     872.139
_exptl_crystal_colour            colorless
_exptl_crystal_description       block
_cell_formula_units_Z            2
loop_
_atom_site_label
_atom_site_type_symbol
_atom_site_fract_x
_atom_site_fract_y
_atom_site_fract_z
Br1 Br -0.01342(4) 0.97547(4) 0.72591(4)
O1 O 0.6373(3) 0.2455(2) 0.73657(18)
O2 O 0.6546(3) 0.3786(2) 0.85307(19)
N1 N 0.7412(3) 0.5766(2) 0.6222(2)
N2 N 0.7819(3) 0.6421(2) 0.5042(2)
C1 C 0.2132(4) 0.8757(3) 0.7221(3)
C2 C 0.3043(4) 0.7784(3) 0.8345(3)
H1 H 0.2567 0.7619 0.9120
C3 C 0.4678(4) 0.7055(3) 0.8309(3)
H2 H 0.5300 0.6388 0.9069
C4 C 0.5420(4) 0.7292(3) 0.7162(2)
C5 C 0.7218(4) 0.6511(3) 0.7135(3)
H3 H 0.7855 0.7196 0.6897
H4 H 0.7665 0.5816 0.7989
C6 C 0.7797(3) 0.5553(3) 0.4399(2)
C7 C 0.7358(3) 0.4347(3) 0.5180(2)
H5 H 0.7255 0.3590 0.4961
C8 C 0.7112(3) 0.4515(3) 0.6336(2)
C9 C 0.6656(3) 0.3573(3) 0.7534(3)
C10 C 0.5869(4) 0.1458(3) 0.8476(3)
H6 H 0.4921 0.1970 0.8799
H7 H 0.6778 0.0971 0.9158
C11 C 0.5417(5) 0.0400(4) 0.8039(4)
H8 H 0.4510 0.0894 0.7371
H9 H 0.5088 -0.0286 0.8750
H10 H 0.6362 -0.0091 0.7713
C12 C 0.8188(3) 0.5936(3) 0.3050(3)
C13 C 0.8754(4) 0.7129(3) 0.2461(3)
H11 H 0.8923 0.7671 0.2929
C14 C 0.9061(4) 0.7508(4) 0.1183(3)
H12 H 0.9430 0.8308 0.0793
C15 C 0.8827(4) 0.6709(4) 0.0480(3)
H13 H 0.9032 0.6972 -0.0380
C16 C 0.8292(4) 0.5530(4) 0.1055(3)
H14 H 0.8143 0.4984 0.0586
C17 C 0.7972(4) 0.5143(3) 0.2329(3)
H15 H 0.7606 0.4339 0.2709
C18 C 0.4460(4) 0.8284(3) 0.6043(3)
H16 H 0.4931 0.8457 0.5265
C19 C 0.2820(4) 0.9019(4) 0.6060(3)
H17 H 0.2186 0.9681 0.5303
loop_
_geom_bond_atom_site_label_1
_geom_bond_atom_site_label_2
_geom_bond_site_symmetry_1
_geom_bond_site_symmetry_2
Br1 C1 1_555 1_555
O1 C9 1_555 1_555
O2 C9 1_555 1_555
N1 N2 1_555 1_555
N2 C6 1_555 1_555
C1 C2 1_555 1_555
C2 H1 1_555 1_555
C3 C2 1_555 1_555
H2 C3 1_555 1_555
C4 C3 1_555 1_555
C5 N1 1_555 1_555
H3 C5 1_555 1_555
H4 C5 1_555 1_555
C6 C7 1_555 1_555
C7 H5 1_555 1_555
C8 N1 1_555 1_555
C9 C8 1_555 1_555
C10 O1 1_555 1_555
H6 C10 1_555 1_555
H7 C10 1_555 1_555
C11 C10 1_555 1_555
H8 C11 1_555 1_555
H9 C11 1_555 1_555
H10 C11 1_555 1_555
C12 C6 1_555 1_555
C13 C12 1_555 1_555
H11 C13 1_555 1_555
C14 C13 1_555 1_555
H12 C14 1_555 1_555
C15 C14 1_555 1_555
H13 C15 1_555 1_555
C16 C15 1_555 1_555
H14 C16 1_555 1_555
C17 C12 1_555 1_555
H15 C17 1_555 1_555
C18 C4 1_555 1_555
H16 C18 1_555 1_555
C19 C1 1_555 1_555
H17 C19 1_555 1_555
C4 C5 1_555 1_555
C7 C8 1_555 1_555
C16 C17 1_555 1_555
C18 C19 1_555 1_555

#END
