
#######################################################################
#
#                 Cambridge Crystallographic Data Centre
#                                CCDC 
#
#######################################################################
#
# If this CIF has been generated from an entry in the Cambridge 
# Structural Database, then it will include bibliographic, chemical, 
# crystal, experimental, refinement or atomic coordinate data resulting 
# from the CCDC's data processing and validation procedures.
#
#######################################################################

data_GICNAI01
_chemical_formula_moiety         'C30 H26 N2 P2'
_chemical_name_systematic        
'N-(diphenylphosphanyl)-P,P-diphenyl-N-(pyridin-2-ylmethyl)phosphinous amide'
_symmetry_cell_setting           triclinic
_symmetry_space_group_name_H-M   'P -1'
_symmetry_Int_Tables_number      2
_space_group_name_Hall           '-P 1'
loop_
_symmetry_equiv_pos_site_id
_symmetry_equiv_pos_as_xyz
1 x,y,z
2 -x,-y,-z
_cell_length_a                   10.2786(8)
_cell_length_b                   10.5273(7)
_cell_length_c                   13.1034(9)
_cell_angle_alpha                70.173(6)
_cell_angle_beta                 77.655(6)
_cell_angle_gamma                70.590(7)
_cell_volume                     1249.82
_exptl_crystal_colour            colorless
_exptl_crystal_description       block
_cell_formula_units_Z            2
loop_
_atom_site_label
_atom_site_type_symbol
_atom_site_fract_x
_atom_site_fract_y
_atom_site_fract_z
P1 P 0.09005(7) 0.88175(8) 0.61408(6)
P2 P 0.26798(7) 0.69450(8) 0.79339(6)
N1 N -0.0897(3) 0.6551(3) 0.6998(2)
N2 N 0.1120(2) 0.7589(2) 0.74148(17)
C1 C -0.1290(3) 0.7352(3) 0.7671(2)
C2 C -0.2660(3) 0.7933(4) 0.7996(3)
H1 H -0.2906 0.8488 0.8467
C3 C -0.3671(4) 0.7668(5) 0.7603(4)
H2 H -0.4606 0.8029 0.7824
C4 C -0.3292(4) 0.6891(4) 0.6903(3)
H3 H -0.3957 0.6718 0.6625
C5 C -0.1911(4) 0.6360(4) 0.6609(3)
H4 H -0.1653 0.5838 0.6114
C6 C -0.0180(3) 0.7554(4) 0.8149(2)
H5 H -0.0547 0.8428 0.8343
H6 H 0.0030 0.6794 0.8816
C7 C 0.2150(3) 0.7900(3) 0.5222(2)
C8 C 0.2437(4) 0.6469(4) 0.5414(3)
H7 H 0.2080 0.5933 0.6070
C9 C 0.3253(5) 0.5818(4) 0.4642(3)
H8 H 0.3457 0.4847 0.4792
C10 C 0.3760(4) 0.6593(5) 0.3660(3)
H9 H 0.4302 0.6155 0.3141
C11 C 0.3461(4) 0.8020(4) 0.3451(3)
H10 H 0.3793 0.8553 0.2783
C12 C 0.2673(3) 0.8673(3) 0.4222(2)
H11 H 0.2489 0.9641 0.4072
C13 C 0.1715(3) 1.0130(3) 0.6133(2)
C14 C 0.0833(4) 1.1385(4) 0.6293(2)
H12 H -0.0122 1.1549 0.6348
C15 C 0.1359(5) 1.2398(4) 0.6373(3)
H13 H 0.0759 1.3235 0.6483
C16 C 0.2773(5) 1.2159(4) 0.6290(3)
H14 H 0.3126 1.2826 0.6364
C17 C 0.3658(4) 1.0951(4) 0.6099(3)
H15 H 0.4612 1.0809 0.6026
C18 C 0.3149(3) 0.9940(3) 0.6015(2)
H16 H 0.3762 0.9123 0.5879
C19 C 0.2949(3) 0.5047(3) 0.8468(2)
C20 C 0.2090(4) 0.4326(3) 0.8376(3)
H17 H 0.1263 0.4825 0.8071
C21 C 0.2451(5) 0.2876(4) 0.8732(3)
H18 H 0.1861 0.2407 0.8670
C22 C 0.3674(5) 0.2116(4) 0.9178(3)
H19 H 0.3913 0.1138 0.9409
C23 C 0.4539(4) 0.2802(4) 0.9282(3)
H20 H 0.5366 0.2289 0.9586
C24 C 0.4185(3) 0.4257(4) 0.8937(3)
H21 H 0.4773 0.4716 0.9015
C25 C 0.2232(3) 0.7441(3) 0.9211(2)
C26 C 0.2015(4) 0.6538(4) 1.0250(3)
H22 H 0.2097 0.5603 1.0334
C27 C 0.1677(4) 0.7029(4) 1.1163(3)
H23 H 0.1546 0.6414 1.1854
C28 C 0.1537(4) 0.8396(4) 1.1055(3)
H24 H 0.1312 0.8714 1.1669
C29 C 0.1730(4) 0.9302(4) 1.0039(3)
H25 H 0.1613 1.0243 0.9964
C30 C 0.2095(3) 0.8833(3) 0.9127(3)
H26 H 0.2252 0.9455 0.8445
loop_
_geom_bond_atom_site_label_1
_geom_bond_atom_site_label_2
_geom_bond_site_symmetry_1
_geom_bond_site_symmetry_2
P1 N2 1_555 1_555
P2 N2 1_555 1_555
N1 C1 1_555 1_555
N2 C6 1_555 1_555
C1 C2 1_555 1_555
C2 H1 1_555 1_555
C3 C2 1_555 1_555
H2 C3 1_555 1_555
C4 C3 1_555 1_555
H3 C4 1_555 1_555
C5 N1 1_555 1_555
H4 C5 1_555 1_555
C6 C1 1_555 1_555
H5 C6 1_555 1_555
H6 C6 1_555 1_555
C7 P1 1_555 1_555
C8 C7 1_555 1_555
H7 C8 1_555 1_555
C9 C8 1_555 1_555
H8 C9 1_555 1_555
C10 C9 1_555 1_555
H9 C10 1_555 1_555
C11 C10 1_555 1_555
H10 C11 1_555 1_555
C12 C7 1_555 1_555
H11 C12 1_555 1_555
C13 P1 1_555 1_555
C14 C13 1_555 1_555
H12 C14 1_555 1_555
C15 C14 1_555 1_555
H13 C15 1_555 1_555
C16 C15 1_555 1_555
H14 C16 1_555 1_555
C17 C16 1_555 1_555
H15 C17 1_555 1_555
C18 C13 1_555 1_555
H16 C18 1_555 1_555
C19 P2 1_555 1_555
C20 C19 1_555 1_555
H17 C20 1_555 1_555
C21 C20 1_555 1_555
H18 C21 1_555 1_555
C22 C21 1_555 1_555
H19 C22 1_555 1_555
C23 C22 1_555 1_555
H20 C23 1_555 1_555
C24 C19 1_555 1_555
H21 C24 1_555 1_555
C25 P2 1_555 1_555
C26 C25 1_555 1_555
H22 C26 1_555 1_555
C27 C26 1_555 1_555
H23 C27 1_555 1_555
C28 C27 1_555 1_555
H24 C28 1_555 1_555
C29 C28 1_555 1_555
H25 C29 1_555 1_555
C30 C25 1_555 1_555
H26 C30 1_555 1_555
C4 C5 1_555 1_555
C11 C12 1_555 1_555
C17 C18 1_555 1_555
C23 C24 1_555 1_555
C29 C30 1_555 1_555

#END
