
#######################################################################
#
#                 Cambridge Crystallographic Data Centre
#                                CCDC 
#
#######################################################################
#
# If this CIF has been generated from an entry in the Cambridge 
# Structural Database, then it will include bibliographic, chemical, 
# crystal, experimental, refinement or atomic coordinate data resulting 
# from the CCDC's data processing and validation procedures.
#
#######################################################################

data_GICQEO
_chemical_formula_moiety         'C18 H47 B4 N2 Na1 O1 Si2'
_chemical_name_systematic        
1-(Tetrahydrofuran)-1-(tetramethylethylenediamine)-2,4-bis(trimethylsilyl)-1-sodium-2,4-dicarbaheptaborane
_symmetry_cell_setting           monoclinic
_symmetry_space_group_name_H-M   'P 21/m'
_symmetry_Int_Tables_number      11
_space_group_name_Hall           '-P 2yb'
loop_
_symmetry_equiv_pos_site_id
_symmetry_equiv_pos_as_xyz
1 x,y,z
2 -x,1/2+y,-z
3 -x,-y,-z
4 x,1/2-y,z
_cell_length_a                   9.094(2)
_cell_length_b                   17.276(4)
_cell_length_c                   9.988(2)
_cell_angle_alpha                90
_cell_angle_beta                 112.19(2)
_cell_angle_gamma                90
_cell_volume                     1452.97
_exptl_crystal_colour            colorless
_cell_formula_units_Z            2
loop_
_atom_site_label
_atom_site_type_symbol
_atom_site_fract_x
_atom_site_fract_y
_atom_site_fract_z
Na1 Na 0.4220(4) 0.2500 0.1650(4)
Si1 Si 0.1765(3) 0.0801(1) 0.3131(2)
C1 C 0.1700(7) 0.1768(4) 0.2353(7)
B1 B 0.2454(15) 0.2500 0.3254(15)
B2 B 0.0604(10) 0.1982(6) 0.0772(10)
B3 B 0.0392(15) 0.2500 0.2174(13)
C2 C 0.2246(13) 0.0832(6) 0.5106(9)
C3 C -0.0065(11) 0.0247(5) 0.2270(11)
C4 C 0.3343(11) 0.0211(6) 0.2871(11)
O1 O 0.6476(8) 0.2500 0.3806(8)
C5 C 0.7108(14) 0.1869(6) 0.4679(11)
C6 C 0.8255(17) 0.2125(6) 0.5997(13)
N1 N 0.4684(11) 0.1652(4) -0.0141(8)
C7 C 0.5021(17) 0.2159(4) -0.1146(12)
C8 C 0.6045(12) 0.1168(6) 0.0624(11)
C9 C 0.3349(11) 0.1140(5) -0.0885(9)
H1 H 0.1139(88) 0.2500 0.0200(81)
H2 H 0.3101(87) 0.2500 0.4489(85)
H3 H -0.0291(61) 0.1599(30) -0.0100(57)
H4 H -0.0482(94) 0.2500 0.2444(83)
H5 H 0.1457 0.1138 0.5284
H6 H 0.2242 0.0317 0.5464
H7 H 0.3273 0.1061 0.5591
H8 H -0.0317 0.0223 0.1247
H9 H 0.0057 -0.0268 0.2657
H10 H -0.0907 0.0505 0.2450
H11 H 0.3121 0.0188 0.1853
H12 H 0.4368 0.0441 0.3362
H13 H 0.3337 -0.0302 0.3235
H14 H 0.7708 0.1594 0.4221
H15 H 0.6319 0.1528 0.4772
H16 H 0.9316 0.1938 0.6221
H17 H 0.7896 0.1938 0.6728
H18 H 0.4253 0.2006 -0.2069
H19 H 0.6039 0.2006 -0.1140
H20 H 0.6257 0.0831 -0.0046
H21 H 0.6960 0.1485 0.1109
H22 H 0.5809 0.0864 0.1323
H23 H 0.3561 0.0815 -0.1571
H24 H 0.3131 0.0823 -0.0192
H25 H 0.2447 0.1462 -0.1381
C1C C 0.1700(7) 0.3232(4) 0.2353(7)
Si1C Si 0.1765(3) 0.4199(1) 0.3131(2)
C2C C 0.2246(13) 0.4168(6) 0.5106(9)
H5C H 0.1457 0.3862 0.5284
H6C H 0.2242 0.4683 0.5464
H7C H 0.3273 0.3939 0.5591
C3C C -0.0065(11) 0.4753(5) 0.2270(11)
H8C H -0.0317 0.4777 0.1247
H9C H 0.0057 0.5268 0.2657
H10C H -0.0907 0.4495 0.2450
C4C C 0.3343(11) 0.4789(6) 0.2871(11)
H11C H 0.3121 0.4812 0.1853
H12C H 0.4368 0.4559 0.3362
H13C H 0.3337 0.5302 0.3235
B2C B 0.0604(10) 0.3018(6) 0.0772(10)
H3C H -0.0291(61) 0.3401(30) -0.0100(57)
C6C C 0.8255(17) 0.2875(6) 0.5997(13)
C5C C 0.7108(14) 0.3131(6) 0.4679(11)
H14C H 0.7708 0.3406 0.4221
H15C H 0.6319 0.3472 0.4772
H16C H 0.9316 0.3062 0.6221
H17C H 0.7896 0.3062 0.6728
C7C C 0.5021(17) 0.2841(4) -0.1146(12)
N1C N 0.4684(11) 0.3348(4) -0.0141(8)
C8C C 0.6045(12) 0.3832(6) 0.0624(11)
H20C H 0.6257 0.4169 -0.0046
H21C H 0.6960 0.3515 0.1109
H22C H 0.5809 0.4136 0.1323
C9C C 0.3349(11) 0.3860(5) -0.0885(9)
H23C H 0.3561 0.4185 -0.1571
H24C H 0.3131 0.4177 -0.0192
H25C H 0.2447 0.3538 -0.1381
H18C H 0.4253 0.2994 -0.2069
H19C H 0.6039 0.2994 -0.1140
loop_
_geom_bond_atom_site_label_1
_geom_bond_atom_site_label_2
_geom_bond_site_symmetry_1
_geom_bond_site_symmetry_2
Na1 C1 1_555 1_555
Si1 C1 1_555 1_555
C1 B1 1_555 1_555
B1 Na1 1_555 1_555
B2 Na1 1_555 1_555
B3 C1 1_555 1_555
C2 Si1 1_555 1_555
C3 Si1 1_555 1_555
C4 Si1 1_555 1_555
O1 Na1 1_555 1_555
C5 O1 1_555 1_555
C6 C5 1_555 1_555
N1 Na1 1_555 1_555
C7 N1 1_555 1_555
C8 N1 1_555 1_555
C9 N1 1_555 1_555
H1 B2 1_555 1_555
H2 B1 1_555 1_555
H3 B2 1_555 1_555
H4 B3 1_555 1_555
H5 C2 1_555 1_555
H6 C2 1_555 1_555
H7 C2 1_555 1_555
H8 C3 1_555 1_555
H9 C3 1_555 1_555
H10 C3 1_555 1_555
H11 C4 1_555 1_555
H12 C4 1_555 1_555
H13 C4 1_555 1_555
H14 C5 1_555 1_555
H15 C5 1_555 1_555
H16 C6 1_555 1_555
H17 C6 1_555 1_555
H18 C7 1_555 1_555
H19 C7 1_555 1_555
H20 C8 1_555 1_555
H21 C8 1_555 1_555
H22 C8 1_555 1_555
H23 C9 1_555 1_555
H24 C9 1_555 1_555
H25 C9 1_555 1_555
C1C Na1 1_555 1_555
Si1C C1C 1_555 1_555
C2C Si1C 1_555 1_555
H5C C2C 1_555 1_555
H6C C2C 1_555 1_555
H7C C2C 1_555 1_555
C3C Si1C 1_555 1_555
H8C C3C 1_555 1_555
H9C C3C 1_555 1_555
H10C C3C 1_555 1_555
C4C Si1C 1_555 1_555
H11C C4C 1_555 1_555
H12C C4C 1_555 1_555
H13C C4C 1_555 1_555
B2C Na1 1_555 1_555
H3C B2C 1_555 1_555
C6C C6 1_555 1_555
C5C O1 1_555 1_555
H14C C5C 1_555 1_555
H15C C5C 1_555 1_555
H16C C6C 1_555 1_555
H17C C6C 1_555 1_555
C7C C7 1_555 1_555
N1C Na1 1_555 1_555
C8C N1C 1_555 1_555
H20C C8C 1_555 1_555
H21C C8C 1_555 1_555
H22C C8C 1_555 1_555
C9C N1C 1_555 1_555
H23C C9C 1_555 1_555
H24C C9C 1_555 1_555
H25C C9C 1_555 1_555
H18C C7C 1_555 1_555
H19C C7C 1_555 1_555
C1 B2 1_555 1_555
B1 B3 1_555 1_555
B1 C1C 1_555 1_555
B2 B3 1_555 1_555
B2 B2C 1_555 1_555
B3 C1C 1_555 1_555
B3 B2C 1_555 1_555
H1 B2C 1_555 1_555
C1C B2C 1_555 1_555
C6C C5C 1_555 1_555
C7C N1C 1_555 1_555

#END
