
#######################################################################
#
#                 Cambridge Crystallographic Data Centre
#                                CCDC 
#
#######################################################################
#
# If this CIF has been generated from an entry in the Cambridge 
# Structural Database, then it will include bibliographic, chemical, 
# crystal, experimental, refinement or atomic coordinate data resulting 
# from the CCDC's data processing and validation procedures.
#
#######################################################################

data_GICQUH
_chemical_formula_moiety         'C16 H19 N3'
_chemical_name_systematic        
7,8,8-trimethyl-1-(pyridin-2-yl)-4,5,6,7-tetrahydro-1H-4,7-methanoindazole
_symmetry_cell_setting           orthorhombic
_symmetry_space_group_name_H-M   'P 21 21 21'
_symmetry_Int_Tables_number      19
_space_group_name_Hall           'P 2ac 2ab'
loop_
_symmetry_equiv_pos_site_id
_symmetry_equiv_pos_as_xyz
1 x,y,z
2 1/2-x,-y,1/2+z
3 -x,1/2+y,1/2-z
4 1/2+x,1/2-y,-z
_cell_length_a                   6.9806(4)
_cell_length_b                   12.2510(7)
_cell_length_c                   15.7231(9)
_cell_angle_alpha                90
_cell_angle_beta                 90
_cell_angle_gamma                90
_cell_volume                     1344.63
_exptl_crystal_colour            yellow
_exptl_crystal_description       block
_cell_formula_units_Z            4
loop_
_atom_site_label
_atom_site_type_symbol
_atom_site_fract_x
_atom_site_fract_y
_atom_site_fract_z
C1 C 0.0178(2) 0.61934(14) 0.42271(10)
C2 C 0.0959(3) 0.61139(16) 0.50402(11)
H1 H 0.2303 0.6059 0.5124
C3 C -0.0293(3) 0.61182(17) 0.57179(11)
H2 H 0.0176 0.6063 0.6283
C4 C -0.2247(3) 0.62045(16) 0.55672(11)
H3 H -0.3137 0.6219 0.6024
C5 C -0.2863(3) 0.62695(17) 0.47302(12)
H4 H -0.4200 0.6323 0.4627
C6 C 0.3918(3) 0.57180(15) 0.28106(11)
H5 H 0.5129 0.5418 0.2663
C7 C 0.2712(2) 0.62635(14) 0.22415(11)
C8 C 0.2322(3) 0.65870(14) 0.13327(11)
H6 H 0.3468 0.6644 0.0954
C9 C 0.0706(3) 0.58044(15) 0.10270(11)
H7 H 0.1035 0.5034 0.1148
H8 H 0.0469 0.5889 0.0410
C10 C -0.1069(3) 0.61743(14) 0.15555(11)
H9 H -0.1559 0.5568 0.1910
H10 H -0.2110 0.6433 0.1178
C11 C -0.0298(3) 0.71238(13) 0.21222(10)
C12 C 0.1132(2) 0.65577(13) 0.27011(10)
C13 C 0.1192(3) 0.76679(13) 0.14879(10)
C14 C 0.0252(3) 0.81315(16) 0.06839(11)
H11 H 0.1244 0.8423 0.0306
H12 H -0.0636 0.8717 0.0841
H13 H -0.0452 0.7551 0.0391
C15 C 0.2393(3) 0.85745(15) 0.18851(12)
H14 H 0.1572 0.9203 0.2010
H15 H 0.3403 0.8793 0.1487
H16 H 0.2975 0.8309 0.2413
C16 C -0.1822(3) 0.78697(15) 0.24907(11)
H17 H -0.1214 0.8421 0.2853
H18 H -0.2724 0.7438 0.2830
H19 H -0.2513 0.8232 0.2027
N1 N 0.1402(2) 0.61804(12) 0.35102(9)
N2 N 0.3153(2) 0.56735(13) 0.35847(10)
N3 N -0.1680(2) 0.62610(13) 0.40583(9)
loop_
_geom_bond_atom_site_label_1
_geom_bond_atom_site_label_2
_geom_bond_site_symmetry_1
_geom_bond_site_symmetry_2
C1 C2 1_555 1_555
C2 H1 1_555 1_555
C3 C2 1_555 1_555
H2 C3 1_555 1_555
C4 C3 1_555 1_555
H3 C4 1_555 1_555
C5 C4 1_555 1_555
H4 C5 1_555 1_555
C6 H5 1_555 1_555
C7 C6 1_555 1_555
C8 C7 1_555 1_555
H6 C8 1_555 1_555
C9 C8 1_555 1_555
H7 C9 1_555 1_555
H8 C9 1_555 1_555
C10 C9 1_555 1_555
H9 C10 1_555 1_555
H10 C10 1_555 1_555
C11 C10 1_555 1_555
C12 C7 1_555 1_555
C13 C8 1_555 1_555
C14 C13 1_555 1_555
H11 C14 1_555 1_555
H12 C14 1_555 1_555
H13 C14 1_555 1_555
C15 C13 1_555 1_555
H14 C15 1_555 1_555
H15 C15 1_555 1_555
H16 C15 1_555 1_555
C16 C11 1_555 1_555
H17 C16 1_555 1_555
H18 C16 1_555 1_555
H19 C16 1_555 1_555
N1 C1 1_555 1_555
N2 C6 1_555 1_555
N3 C1 1_555 1_555
C5 N3 1_555 1_555
C11 C12 1_555 1_555
C11 C13 1_555 1_555
C12 N1 1_555 1_555
N1 N2 1_555 1_555

#END
