
#######################################################################
#
#                 Cambridge Crystallographic Data Centre
#                                CCDC 
#
#######################################################################
#
# If this CIF has been generated from an entry in the Cambridge 
# Structural Database, then it will include bibliographic, chemical, 
# crystal, experimental, refinement or atomic coordinate data resulting 
# from the CCDC's data processing and validation procedures.
#
#######################################################################

data_GICROB
_chemical_formula_moiety         'C42 H50 N14 O8 2+,2(H2 O4 P1 1-),5(H2 O1)'
_chemical_name_systematic        
'5,11,16,22,30,36,43,49-Octaoxo-4,12,15,23,29,37,42,50,53,54,55,56-dodeca-aza-1,26-diazoniahexacyclo[24.13.13.1^6,10^.1^17,21^.1^31,35^.1^44,48^]hexapentaconta-6(56),7,9,17(55),18,20,31(54),32,34,44(53),45,47-dodecaene bis(dihydrogen phosphate) pentahydrate'
_symmetry_cell_setting           orthorhombic
_symmetry_space_group_name_H-M   'P c a 21'
_symmetry_Int_Tables_number      29
_space_group_name_Hall           'P 2c -2ac'
loop_
_symmetry_equiv_pos_site_id
_symmetry_equiv_pos_as_xyz
1 x,y,z
2 -x,-y,1/2+z
3 1/2+x,-y,z
4 1/2-x,y,1/2+z
_cell_length_a                   34.2414(14)
_cell_length_b                   7.9964(3)
_cell_length_c                   18.8632(8)
_cell_angle_alpha                90
_cell_angle_beta                 90
_cell_angle_gamma                90
_cell_volume                     5164.89
_exptl_crystal_colour            colorless
_exptl_crystal_description       'Rectangular parallelepiped'
_cell_formula_units_Z            4
loop_
_atom_site_label
_atom_site_type_symbol
_atom_site_fract_x
_atom_site_fract_y
_atom_site_fract_z
P1 P 0.083949(19) 0.20071(8) 0.36851(4)
O1 O 0.10012(6) 0.3305(3) 0.31255(12)
H1 H 0.1038(11) 0.419(5) 0.332(2)
O2 O 0.05279(6) 0.1039(3) 0.32336(13)
H2 H 0.0532(11) -0.013(6) 0.324(2)
O3 O 0.06473(6) 0.2921(2) 0.42848(12)
O4 O 0.11669(6) 0.0851(2) 0.38961(12)
P2 P 0.128842(19) -0.35386(8) 0.43548(4)
O5 O 0.11805(7) -0.1779(3) 0.46522(12)
H3 H 0.1165(10) -0.107(5) 0.436(2)
O6 O 0.10479(7) -0.4719(3) 0.48473(12)
H4 H 0.0908(12) -0.528(5) 0.462(2)
O7 O 0.17155(6) -0.3887(3) 0.44222(12)
O8 O 0.11404(6) -0.3686(2) 0.35875(11)
O9 O 0.28538(6) -0.4849(3) 0.26166(12)
O10 O 0.28002(6) -0.1070(3) 0.59567(12)
O11 O 0.29674(6) 0.3360(3) 0.61359(13)
O12 O 0.28633(6) -0.0501(3) 0.28180(12)
O13 O 0.08772(6) -0.1314(3) 0.04125(12)
O14 O -0.07529(6) 0.2689(3) 0.19353(13)
O15 O -0.06816(6) 0.5768(3) 0.44113(12)
O16 O 0.05638(6) 0.2528(3) 0.70407(12)
N1 N 0.16600(6) -0.2222(3) 0.26215(13)
H5 H 0.1494(12) -0.270(5) 0.289(2)
C1 C 0.19179(8) -0.3459(3) 0.22404(15)
H6 H 0.2140(11) -0.284(5) 0.205(2)
H7 H 0.1767(9) -0.384(4) 0.1884(19)
C2 C 0.20342(8) -0.4951(3) 0.26988(16)
H8 H 0.1802(8) -0.544(3) 0.2868(15)
H9 H 0.2128(10) -0.578(5) 0.242(2)
N2 N 0.23036(7) -0.4560(3) 0.32641(14)
H10 H 0.2222(9) -0.428(4) 0.365(2)
C3 C 0.26896(8) -0.4488(3) 0.31699(17)
C4 C 0.29158(8) -0.3899(3) 0.38060(16)
N3 N 0.27042(6) -0.3285(3) 0.43385(14)
C5 C 0.33244(9) -0.3936(4) 0.38079(18)
H11 H 0.3471(10) -0.440(4) 0.346(2)
C6 C 0.35170(9) -0.3276(4) 0.4389(2)
H12 H 0.3766(10) -0.329(4) 0.4466(17)
C7 C 0.33019(9) -0.2591(4) 0.49337(18)
H13 H 0.3422(12) -0.219(5) 0.529(2)
C8 C 0.28973(8) -0.2643(3) 0.48961(16)
C9 C 0.26501(9) -0.1927(3) 0.54848(16)
N4 N 0.22702(7) -0.2296(3) 0.54543(14)
H14 H 0.2185(10) -0.289(4) 0.508(2)
C10 C 0.19982(9) -0.1575(4) 0.59561(18)
H15 H 0.2113(10) -0.146(4) 0.631(2)
H16 H 0.1774(11) -0.244(5) 0.603(2)
C11 C 0.18432(8) 0.0060(4) 0.56549(16)
H17 H 0.2078(9) 0.063(4) 0.5384(18)
H18 H 0.1643(12) -0.005(5) 0.537(2)
N5 N 0.16980(7) 0.1216(3) 0.62288(14)
H19 H 0.1603(13) 0.054(6) 0.658(3)
C12 C 0.20203(8) 0.2300(4) 0.65258(16)
H20 H 0.2233(8) 0.163(3) 0.6640(15)
H21 H 0.1917(10) 0.280(4) 0.694(2)
C13 C 0.21554(8) 0.3732(4) 0.60467(16)
H22 H 0.2296(10) 0.446(4) 0.635(2)
H23 H 0.1940(9) 0.442(4) 0.5855(17)
N6 N 0.24159(7) 0.3215(3) 0.54763(15)
H24 H 0.2343(11) 0.303(5) 0.507(2)
C14 C 0.27986(8) 0.3038(4) 0.55749(17)
C15 C 0.30197(8) 0.2362(3) 0.49441(16)
N7 N 0.28019(6) 0.1856(3) 0.43941(14)
C16 C 0.34221(9) 0.2261(4) 0.49563(18)
H25 H 0.3559(11) 0.262(4) 0.538(2)
C17 C 0.36116(8) 0.1596(4) 0.4370(2)
H26 H 0.3894(10) 0.152(4) 0.434(2)
C18 C 0.33919(9) 0.1044(4) 0.38077(18)
H27 H 0.3515(10) 0.056(5) 0.346(2)
C19 C 0.29878(8) 0.1183(3) 0.38418(15)
C20 C 0.27338(8) 0.0514(3) 0.32477(15)
N8 N 0.23691(7) 0.1085(3) 0.32296(14)
H28 H 0.2299(8) 0.158(4) 0.3541(19)
C21 C 0.20844(8) 0.0381(3) 0.27356(16)
H29 H 0.2224(12) 0.000(5) 0.235(2)
H30 H 0.1895(11) 0.122(5) 0.263(2)
C22 C 0.18816(8) -0.1067(3) 0.31077(16)
H31 H 0.2094(8) -0.171(4) 0.3383(16)
H32 H 0.1689(10) -0.065(4) 0.349(2)
C23 C 0.13955(8) -0.1259(4) 0.21340(16)
H33 H 0.1253(11) -0.043(5) 0.243(2)
H34 H 0.1538(8) -0.078(4) 0.1801(17)
C24 C 0.10810(8) -0.2356(4) 0.17971(17)
H35 H 0.1175(8) -0.291(3) 0.1386(17)
H36 H 0.0987(10) -0.315(4) 0.218(2)
N9 N 0.07492(7) -0.1345(3) 0.15891(14)
H37 H 0.0593(12) -0.102(5) 0.190(2)
C25 C 0.06734(8) -0.0930(3) 0.09150(16)
C26 C 0.03041(7) 0.0092(3) 0.08127(15)
N10 N 0.01066(6) 0.0536(3) 0.13910(13)
C27 C 0.01864(9) 0.0525(4) 0.01326(16)
H38 H 0.0314(12) 0.021(5) -0.014(3)
C28 C -0.01514(8) 0.1465(4) 0.00475(16)
H39 H -0.0244(9) 0.171(4) -0.041(2)
C29 C -0.03604(8) 0.1942(4) 0.06484(17)
H40 H -0.0590(11) 0.253(5) 0.061(2)
C30 C -0.02213(8) 0.1448(3) 0.13044(16)
C31 C -0.04389(8) 0.1949(3) 0.19679(16)
N11 N -0.02567(7) 0.1525(3) 0.25660(14)
H41 H -0.0019(9) 0.114(4) 0.2514(17)
C32 C -0.03867(9) 0.2005(4) 0.32686(17)
H42 H -0.0306(10) 0.115(5) 0.357(2)
H43 H -0.0668(10) 0.202(4) 0.3249(19)
C33 C -0.02279(9) 0.3721(4) 0.34674(16)
H44 H 0.0028(10) 0.389(4) 0.3269(19)
H45 H -0.0375(10) 0.466(5) 0.329(2)
N12 N -0.01889(8) 0.3908(3) 0.42272(14)
H46 H 0.0005(10) 0.356(4) 0.4381(18)
C34 C -0.04154(8) 0.4882(3) 0.46326(15)
C35 C -0.03125(8) 0.4812(3) 0.54072(16)
N13 N 0.00033(7) 0.3908(3) 0.55757(13)
C36 C -0.05373(8) 0.5656(4) 0.59026(16)
H47 H -0.0764(10) 0.620(4) 0.5812(19)
C37 C -0.04287(8) 0.5545(4) 0.66119(16)
H48 H -0.0567(12) 0.622(5) 0.701(2)
C38 C -0.01047(9) 0.4601(4) 0.67923(16)
H49 H -0.0048(11) 0.442(5) 0.733(2)
C39 C 0.01037(8) 0.3815(3) 0.62587(16)
C40 C 0.04591(8) 0.2784(3) 0.64275(16)
N14 N 0.06461(7) 0.2173(3) 0.58612(14)
H50 H 0.0578(11) 0.250(4) 0.545(2)
C41 C 0.09917(8) 0.1144(4) 0.59424(18)
H51 H 0.1026(9) 0.038(4) 0.555(2)
H52 H 0.0969(8) 0.044(4) 0.6373(17)
C42 C 0.13519(8) 0.2243(4) 0.60075(18)
H53 H 0.1335(10) 0.315(5) 0.635(2)
H54 H 0.1420(11) 0.288(5) 0.563(2)
O17 O 0.04756(7) -0.2107(3) 0.31434(12)
H55 H 0.0688(12) -0.258(5) 0.339(2)
H56 H 0.0244(10) -0.224(4) 0.3228(18)
O18 O 0.35834(7) -0.0928(3) 0.22570(13)
H57 H 0.3377(13) -0.142(5) 0.242(2)
H58 H 0.3810(17) -0.165(7) 0.228(3)
O19 O 0.12866(11) 0.2909(7) 0.1675(2)
H59 H 0.1206 0.3024 0.2093
H60 H 0.1513 0.3048 0.1515
O20 O 0.18495(6) 0.2691(3) 0.42833(12)
H61 H 0.1660(12) 0.235(5) 0.417(2)
H62 H 0.1821(10) 0.372(5) 0.432(2)
O21 O 0.46996(7) 0.2115(3) 0.34228(14)
H63 H 0.4513(18) 0.256(8) 0.371(4)
H64 H 0.4583(18) 0.205(7) 0.303(4)
loop_
_geom_bond_atom_site_label_1
_geom_bond_atom_site_label_2
_geom_bond_site_symmetry_1
_geom_bond_site_symmetry_2
P1 O1 1_555 1_555
O1 H1 1_555 1_555
O2 P1 1_555 1_555
H2 O2 1_555 1_555
O3 P1 1_555 1_555
O4 P1 1_555 1_555
P2 O5 1_555 1_555
O5 H3 1_555 1_555
O6 P2 1_555 1_555
H4 O6 1_555 1_555
O7 P2 1_555 1_555
O8 P2 1_555 1_555
O9 C3 1_555 1_555
O10 C9 1_555 1_555
O11 C14 1_555 1_555
O12 C20 1_555 1_555
O13 C25 1_555 1_555
O14 C31 1_555 1_555
O15 C34 1_555 1_555
O16 C40 1_555 1_555
N1 H5 1_555 1_555
C1 N1 1_555 1_555
H6 C1 1_555 1_555
H7 C1 1_555 1_555
C2 C1 1_555 1_555
H8 C2 1_555 1_555
H9 C2 1_555 1_555
N2 C2 1_555 1_555
H10 N2 1_555 1_555
C3 N2 1_555 1_555
C4 C3 1_555 1_555
N3 C4 1_555 1_555
C5 C4 1_555 1_555
H11 C5 1_555 1_555
C6 C5 1_555 1_555
H12 C6 1_555 1_555
C7 C6 1_555 1_555
H13 C7 1_555 1_555
C8 N3 1_555 1_555
C9 C8 1_555 1_555
N4 C9 1_555 1_555
H14 N4 1_555 1_555
C10 N4 1_555 1_555
H15 C10 1_555 1_555
H16 C10 1_555 1_555
C11 C10 1_555 1_555
H17 C11 1_555 1_555
H18 C11 1_555 1_555
N5 C11 1_555 1_555
H19 N5 1_555 1_555
C12 N5 1_555 1_555
H20 C12 1_555 1_555
H21 C12 1_555 1_555
C13 C12 1_555 1_555
H22 C13 1_555 1_555
H23 C13 1_555 1_555
N6 C13 1_555 1_555
H24 N6 1_555 1_555
C14 N6 1_555 1_555
C15 C14 1_555 1_555
N7 C15 1_555 1_555
C16 C15 1_555 1_555
H25 C16 1_555 1_555
C17 C16 1_555 1_555
H26 C17 1_555 1_555
C18 C17 1_555 1_555
H27 C18 1_555 1_555
C19 N7 1_555 1_555
C20 C19 1_555 1_555
N8 C20 1_555 1_555
H28 N8 1_555 1_555
C21 N8 1_555 1_555
H29 C21 1_555 1_555
H30 C21 1_555 1_555
C22 N1 1_555 1_555
H31 C22 1_555 1_555
H32 C22 1_555 1_555
C23 N1 1_555 1_555
H33 C23 1_555 1_555
H34 C23 1_555 1_555
C24 C23 1_555 1_555
H35 C24 1_555 1_555
H36 C24 1_555 1_555
N9 C24 1_555 1_555
H37 N9 1_555 1_555
C25 N9 1_555 1_555
C26 C25 1_555 1_555
N10 C26 1_555 1_555
C27 C26 1_555 1_555
H38 C27 1_555 1_555
C28 C27 1_555 1_555
H39 C28 1_555 1_555
C29 C28 1_555 1_555
H40 C29 1_555 1_555
C30 N10 1_555 1_555
C31 C30 1_555 1_555
N11 C31 1_555 1_555
H41 N11 1_555 1_555
C32 N11 1_555 1_555
H42 C32 1_555 1_555
H43 C32 1_555 1_555
C33 C32 1_555 1_555
H44 C33 1_555 1_555
H45 C33 1_555 1_555
N12 C33 1_555 1_555
H46 N12 1_555 1_555
C34 N12 1_555 1_555
C35 C34 1_555 1_555
N13 C35 1_555 1_555
C36 C35 1_555 1_555
H47 C36 1_555 1_555
C37 C36 1_555 1_555
H48 C37 1_555 1_555
C38 C37 1_555 1_555
H49 C38 1_555 1_555
C39 N13 1_555 1_555
C40 C39 1_555 1_555
N14 C40 1_555 1_555
H50 N14 1_555 1_555
C41 N14 1_555 1_555
H51 C41 1_555 1_555
H52 C41 1_555 1_555
C42 N5 1_555 1_555
H53 C42 1_555 1_555
H54 C42 1_555 1_555
O17 H55 1_555 1_555
H56 O17 1_555 1_555
O18 H57 1_555 1_555
H58 O18 1_555 1_555
O19 H59 1_555 1_555
H60 O19 1_555 1_555
O20 H61 1_555 1_555
H62 O20 1_555 1_555
O21 H63 1_555 1_555
H64 O21 1_555 1_555
C7 C8 1_555 1_555
C18 C19 1_555 1_555
C21 C22 1_555 1_555
C29 C30 1_555 1_555
C38 C39 1_555 1_555
C41 C42 1_555 1_555

#END
