
#######################################################################
#
#                 Cambridge Crystallographic Data Centre
#                                CCDC 
#
#######################################################################
#
# If this CIF has been generated from an entry in the Cambridge 
# Structural Database, then it will include bibliographic, chemical, 
# crystal, experimental, refinement or atomic coordinate data resulting 
# from the CCDC's data processing and validation procedures.
#
#######################################################################

data_GICRES
_chemical_formula_moiety         'C17 H17 N3'
_chemical_name_systematic        
2-(3-methyl-4,5,6,7-tetrahydro-2H-indazol-2-yl)quinoline
_symmetry_cell_setting           monoclinic
_symmetry_space_group_name_H-M   'P 21/n'
_symmetry_Int_Tables_number      14
_space_group_name_Hall           '-P 2yn'
loop_
_symmetry_equiv_pos_site_id
_symmetry_equiv_pos_as_xyz
1 x,y,z
2 1/2-x,1/2+y,1/2-z
3 -x,-y,-z
4 1/2+x,1/2-y,1/2+z
_cell_length_a                   12.8553(4)
_cell_length_b                   7.4279(2)
_cell_length_c                   14.2872(4)
_cell_angle_alpha                90
_cell_angle_beta                 100.698(3)
_cell_angle_gamma                90
_cell_volume                     1340.54
_exptl_crystal_colour            colorless
_exptl_crystal_description       prism
_cell_formula_units_Z            4
loop_
_atom_site_label
_atom_site_type_symbol
_atom_site_fract_x
_atom_site_fract_y
_atom_site_fract_z
N1 N 0.64891(8) 0.71650(14) 0.54121(7)
N2 N 0.73440(8) 0.70614(14) 0.61499(7)
N3 N 0.58857(8) 0.71961(14) 0.37774(7)
C1 C 0.55553(9) 0.74872(15) 0.57340(8)
C2 C 0.58308(10) 0.76036(16) 0.67064(9)
C3 C 0.51550(10) 0.78956(18) 0.74465(9)
H1 H 0.471052 0.681887 0.748343
H2 H 0.467990 0.893661 0.726342
C4 C 0.58530(10) 0.82469(19) 0.84212(9)
H3 H 0.609959 0.951178 0.844947
H4 H 0.542549 0.807904 0.892400
C5 C 0.68147(10) 0.69943(18) 0.86188(9)
H5 H 0.720320 0.719644 0.927620
H6 H 0.657113 0.572755 0.856987
C6 C 0.75615(10) 0.73154(17) 0.79170(9)
H7 H 0.793056 0.848146 0.805742
H8 H 0.810133 0.635026 0.798275
C7 C 0.69354(10) 0.73298(16) 0.69222(9)
C8 C 0.66556(9) 0.67892(16) 0.44815(8)
C9 C 0.76258(10) 0.59666(17) 0.43727(9)
H9 H 0.815888 0.570563 0.491069
C10 C 0.77674(10) 0.55656(17) 0.34778(9)
H10 H 0.840991 0.502650 0.338302
C11 C 0.69581(10) 0.59499(16) 0.26840(9)
C12 C 0.70327(11) 0.55347(18) 0.17320(9)
H11 H 0.766014 0.499906 0.159841
C13 C 0.62081(11) 0.58986(19) 0.10022(9)
H12 H 0.626272 0.560405 0.036611
C14 C 0.52778(11) 0.67096(19) 0.11926(9)
H13 H 0.470980 0.696351 0.068244
C15 C 0.51856(11) 0.71346(17) 0.21062(9)
H14 H 0.455505 0.768314 0.222446
C16 C 0.60197(9) 0.67644(16) 0.28731(9)
C17 C 0.44758(10) 0.76036(19) 0.51307(9)
H15 H 0.443225 0.867457 0.472465
H16 H 0.394550 0.768660 0.554091
H17 H 0.434151 0.652600 0.473071
loop_
_geom_bond_atom_site_label_1
_geom_bond_atom_site_label_2
_geom_bond_site_symmetry_1
_geom_bond_site_symmetry_2
N1 N2 1_555 1_555
N2 C7 1_555 1_555
N3 C8 1_555 1_555
C1 N1 1_555 1_555
C2 C1 1_555 1_555
C3 C2 1_555 1_555
H1 C3 1_555 1_555
H2 C3 1_555 1_555
C4 C3 1_555 1_555
H3 C4 1_555 1_555
H4 C4 1_555 1_555
C5 C4 1_555 1_555
H5 C5 1_555 1_555
H6 C5 1_555 1_555
C6 C5 1_555 1_555
H7 C6 1_555 1_555
H8 C6 1_555 1_555
C7 C2 1_555 1_555
C8 N1 1_555 1_555
C9 C8 1_555 1_555
H9 C9 1_555 1_555
C10 C9 1_555 1_555
H10 C10 1_555 1_555
C11 C10 1_555 1_555
C12 C11 1_555 1_555
H11 C12 1_555 1_555
C13 C12 1_555 1_555
H12 C13 1_555 1_555
C14 C13 1_555 1_555
H13 C14 1_555 1_555
C15 C14 1_555 1_555
H14 C15 1_555 1_555
C16 N3 1_555 1_555
C17 C1 1_555 1_555
H15 C17 1_555 1_555
H16 C17 1_555 1_555
H17 C17 1_555 1_555
C6 C7 1_555 1_555
C11 C16 1_555 1_555
C15 C16 1_555 1_555

#END
