
#######################################################################
#
#                 Cambridge Crystallographic Data Centre
#                                CCDC 
#
#######################################################################
#
# If this CIF has been generated from an entry in the Cambridge 
# Structural Database, then it will include bibliographic, chemical, 
# crystal, experimental, refinement or atomic coordinate data resulting 
# from the CCDC's data processing and validation procedures.
#
#######################################################################

data_GICROC
_chemical_formula_moiety         'C19 H15 N3 O1,H2 O1'
_chemical_name_systematic        
'2-[3-methyl-1-(quinolin-2-yl)-1H-pyrazol-5-yl]phenol monohydrate'
_symmetry_cell_setting           monoclinic
_symmetry_space_group_name_H-M   'P 21/c'
_symmetry_Int_Tables_number      14
_space_group_name_Hall           '-P 2ybc'
loop_
_symmetry_equiv_pos_site_id
_symmetry_equiv_pos_as_xyz
1 x,y,z
2 -x,1/2+y,1/2-z
3 -x,-y,-z
4 x,1/2-y,1/2+z
_cell_length_a                   16.0994(7)
_cell_length_b                   7.1114(3)
_cell_length_c                   14.1519(6)
_cell_angle_alpha                90
_cell_angle_beta                 107.1234(16)
_cell_angle_gamma                90
_cell_volume                     1548.42
_exptl_crystal_colour            colorless
_exptl_crystal_description       plate
_cell_formula_units_Z            4
loop_
_atom_site_label
_atom_site_type_symbol
_atom_site_fract_x
_atom_site_fract_y
_atom_site_fract_z
C1 C 0.20257(9) -0.03728(19) 0.46024(10)
C2 C 0.15778(9) -0.2005(2) 0.41549(10)
H1 H 0.1879 -0.3147 0.4138
C3 C 0.06993(9) -0.1884(2) 0.37484(10)
H2 H 0.0376 -0.2957 0.3449
C4 C 0.02713(9) -0.0158(2) 0.37741(10)
C5 C -0.06427(9) 0.0067(2) 0.33930(11)
H3 H -0.0996 -0.0978 0.3109
C6 C -0.10182(10) 0.1777(2) 0.34316(11)
H4 H -0.1631 0.1909 0.3184
C7 C -0.04998(10) 0.3350(2) 0.38378(11)
H5 H -0.0767 0.4538 0.3848
C8 C 0.03852(9) 0.3180(2) 0.42171(10)
H6 H 0.0727 0.4249 0.4487
C9 C 0.07903(9) 0.1421(2) 0.42076(10)
C10 C 0.46166(9) -0.2838(2) 0.69514(10)
H7 H 0.4255 -0.3847 0.7090
H8 H 0.4871 -0.2109 0.7555
H9 H 0.5082 -0.3385 0.6723
C11 C 0.40690(9) -0.15733(19) 0.61657(10)
C12 C 0.43260(9) 0.0031(2) 0.57435(10)
H10 H 0.4892 0.0560 0.5906
C13 C 0.35887(9) 0.06863(19) 0.50434(10)
C14 C 0.34840(9) 0.23050(19) 0.43674(10)
C15 C 0.38443(9) 0.4040(2) 0.47418(10)
H11 H 0.4150 0.4147 0.5425
C16 C 0.37656(9) 0.5608(2) 0.41377(11)
H12 H 0.4018 0.6772 0.4404
C17 C 0.33133(9) 0.5458(2) 0.31390(11)
H13 H 0.3238 0.6537 0.2726
C18 C 0.29714(9) 0.3746(2) 0.27412(10)
H14 H 0.2676 0.3650 0.2055
C19 C 0.30596(9) 0.2157(2) 0.33458(10)
N1 N 0.16765(7) 0.12810(16) 0.46356(8)
N2 N 0.29356(7) -0.05164(16) 0.50762(8)
N3 N 0.32243(7) -0.19207(16) 0.57655(8)
O1 O 0.27540(7) 0.04398(14) 0.29780(8)
H15 H 0.2597(12) 0.0473(8) 0.2299(15)
O2 O 0.23371(7) 0.03932(16) 0.09996(8)
H16 H 0.2581(13) -0.059(3) 0.0806(14)
H17 H 0.2278(12) 0.129(3) 0.0562(15)
loop_
_geom_bond_atom_site_label_1
_geom_bond_atom_site_label_2
_geom_bond_site_symmetry_1
_geom_bond_site_symmetry_2
C1 C2 1_555 1_555
C2 H1 1_555 1_555
C3 C2 1_555 1_555
H2 C3 1_555 1_555
C4 C3 1_555 1_555
C5 C4 1_555 1_555
H3 C5 1_555 1_555
C6 C5 1_555 1_555
H4 C6 1_555 1_555
C7 C6 1_555 1_555
H5 C7 1_555 1_555
C8 C7 1_555 1_555
H6 C8 1_555 1_555
C9 C4 1_555 1_555
C10 H7 1_555 1_555
H8 C10 1_555 1_555
H9 C10 1_555 1_555
C11 C10 1_555 1_555
C12 C11 1_555 1_555
H10 C12 1_555 1_555
C13 C12 1_555 1_555
C14 C13 1_555 1_555
C15 C14 1_555 1_555
H11 C15 1_555 1_555
C16 C15 1_555 1_555
H12 C16 1_555 1_555
C17 C16 1_555 1_555
H13 C17 1_555 1_555
C18 C17 1_555 1_555
H14 C18 1_555 1_555
C19 C14 1_555 1_555
N1 C1 1_555 1_555
N2 C1 1_555 1_555
N3 C11 1_555 1_555
O1 C19 1_555 1_555
H15 O1 1_555 1_555
O2 H16 1_555 1_555
H17 O2 1_555 1_555
C8 C9 1_555 1_555
C9 N1 1_555 1_555
C13 N2 1_555 1_555
C18 C19 1_555 1_555
N2 N3 1_555 1_555

#END
