
#######################################################################
#
#                 Cambridge Crystallographic Data Centre
#                                CCDC 
#
#######################################################################
#
# If this CIF has been generated from an entry in the Cambridge 
# Structural Database, then it will include bibliographic, chemical, 
# crystal, experimental, refinement or atomic coordinate data resulting 
# from the CCDC's data processing and validation procedures.
#
#######################################################################

data_GICSIW
_chemical_formula_moiety         'C34 H44 N2 O6 S1'
_chemical_name_systematic        
't-Butyl 5-(hydroxymethyl)-2-((2-naphthylmethyl)amino)-3-((4-(pentoxy)phenyl)sulfonyl)-7-azabicyclo[2.2.1]heptane-7-carboxylate'
_symmetry_cell_setting           monoclinic
_symmetry_space_group_name_H-M   'P 21/n'
_symmetry_Int_Tables_number      14
_space_group_name_Hall           '-P 2yn'
loop_
_symmetry_equiv_pos_site_id
_symmetry_equiv_pos_as_xyz
1 x,y,z
2 1/2-x,1/2+y,1/2-z
3 -x,-y,-z
4 1/2+x,1/2-y,1/2+z
_cell_length_a                   22.4334(11)
_cell_length_b                   6.3896(3)
_cell_length_c                   22.7815(12)
_cell_angle_alpha                90
_cell_angle_beta                 106.816(2)
_cell_angle_gamma                90
_cell_volume                     3125.87
_exptl_crystal_colour            colorless
_exptl_crystal_description       prism
_cell_formula_units_Z            4
loop_
_atom_site_label
_atom_site_type_symbol
_atom_site_fract_x
_atom_site_fract_y
_atom_site_fract_z
S1 S 0.82290(7) 0.9393(2) 0.12317(7)
O1 O 0.58093(19) 0.6467(7) -0.01350(19)
O2 O 0.60590(19) 0.9943(7) -0.0107(2)
O3 O 0.6587(2) 1.1451(7) 0.2067(2)
O4 O 0.8207(2) 1.1615(7) 0.13121(19)
O5 O 0.8469(2) 0.8073(7) 0.1763(2)
O6 O 0.9584(2) 0.7421(7) -0.0554(2)
N1 N 0.6427(2) 0.7798(8) 0.0732(2)
N2 N 0.7333(3) 0.5771(9) 0.0067(2)
C1 C 0.6919(3) 0.9244(10) 0.1074(3)
C2 C 0.7454(3) 0.8594(9) 0.0806(3)
C3 C 0.7372(3) 0.6204(10) 0.0713(3)
C4 C 0.6779(3) 0.5838(10) 0.0918(3)
C5 C 0.6952(3) 0.5997(11) 0.1620(3)
C6 C 0.7030(3) 0.8415(11) 0.1723(3)
C7 C 0.6096(3) 0.8227(10) 0.0125(3)
C8 C 0.5379(3) 0.6479(11) -0.0774(3)
C9 C 0.4856(3) 0.7992(11) -0.0815(3)
C10 C 0.5747(3) 0.6972(12) -0.1226(3)
C11 C 0.5150(3) 0.4255(12) -0.0841(3)
C12 C 0.6544(3) 0.9221(10) 0.2021(3)
C13 C 0.8660(3) 0.8862(10) 0.0713(3)
C14 C 0.8677(3) 1.0353(11) 0.0275(3)
C15 C 0.8992(3) 0.9957(11) -0.0161(3)
C16 C 0.9273(3) 0.8010(10) -0.0151(3)
C17 C 0.9259(3) 0.6511(11) 0.0291(3)
C18 C 0.8951(3) 0.6936(10) 0.0720(3)
C19 C 0.9601(3) 0.8834(11) -0.1044(3)
C20 C 0.9937(3) 0.7707(12) -0.1434(3)
C21 C 0.9981(3) 0.9037(13) -0.1977(3)
C22 C 1.0321(3) 0.7892(13) -0.2379(3)
C23 C 0.9977(4) 0.6047(17) -0.2706(4)
C24 C 0.7162(3) 0.3587(11) -0.0110(3)
C25 C 0.7770(3) 0.3936(10) -0.0881(3)
C26 C 0.7358(3) 0.2886(10) -0.0664(3)
C27 C 0.7129(3) 0.0921(10) -0.0915(3)
C28 C 0.7307(3) 0.0099(10) -0.1391(3)
C29 C 0.7947(3) 0.0281(11) -0.2115(3)
C30 C 0.8362(3) 0.1380(11) -0.2348(3)
C31 C 0.8593(3) 0.3315(13) -0.2088(3)
C32 C 0.8410(3) 0.4190(11) -0.1618(3)
C33 C 0.7974(3) 0.3093(10) -0.1388(3)
C34 C 0.7747(3) 0.1152(10) -0.1630(3)
H1 H 0.658(3) 1.190(11) 0.2437(17)
H2 H 0.703(3) 0.649(11) -0.020(3)
H3 H 0.675(3) 1.086(9) 0.102(3)
H4 H 0.739(3) 0.920(10) 0.040(3)
H5 H 0.778(3) 0.545(11) 0.095(3)
H6 H 0.656(3) 0.482(10) 0.075(3)
H7 H 0.657(3) 0.537(8) 0.170(3)
H8 H 0.728(3) 0.518(9) 0.174(3)
H9 H 0.743(3) 0.882(10) 0.196(3)
H10 H 0.4686 0.7803 -0.0421
H11 H 0.4483 0.7689 -0.1228
H12 H 0.5023 0.9573 -0.0826
H13 H 0.547(3) 0.645(9) -0.169(3)
H14 H 0.611(4) 0.590(12) -0.120(3)
H15 H 0.586(3) 0.857(11) -0.125(3)
H16 H 0.489(3) 0.376(11) -0.058(4)
H17 H 0.554(3) 0.307(9) -0.082(3)
H18 H 0.488(4) 0.412(13) -0.130(4)
H19 H 0.661(3) 0.875(10) 0.244(3)
H20 H 0.607(3) 0.868(10) 0.175(3)
H21 H 0.8466 1.1698 0.0272
H22 H 0.900(3) 1.096(9) -0.051(3)
H23 H 0.9467 0.5160 0.0295
H24 H 0.892(3) 0.602(11) 0.104(4)
H25 H 0.986(3) 1.021(10) -0.083(3)
H26 H 0.920(4) 0.895(11) -0.126(3)
H27 H 1.0418 0.7418 -0.117
H28 H 0.971(4) 0.622(13) -0.157(4)
H29 H 1.021(5) 1.042(17) -0.182(5)
H30 H 0.949(4) 0.918(12) -0.228(4)
H31 H 1.0392 0.8887 -0.2684
H32 H 1.0733 0.7427 -0.2117
H33 H 0.9952 0.4858 -0.2377
H34 H 1.0218 0.5430 -0.3016
H35 H 0.9512 0.6512 -0.2963
H36 H 0.734(2) 0.264(8) 0.027(3)
H37 H 0.678(3) 0.334(11) -0.005(3)
H38 H 0.7935 0.5280 -0.0698
H39 H 0.6841 0.0141 -0.0746
H40 H 0.7130 -0.1236 -0.1572
H41 H 0.7793 -0.1091 -0.2284
H42 H 0.8492 0.0811 -0.2691
H43 H 0.8894 0.4064 -0.2248
H44 H 0.8577 0.5544 -0.1444
loop_
_geom_bond_atom_site_label_1
_geom_bond_atom_site_label_2
_geom_bond_site_symmetry_1
_geom_bond_site_symmetry_2
S1 O4 1_555 1_555
O1 C7 1_555 1_555
O2 C7 1_555 1_555
O3 C12 1_555 1_555
O5 S1 1_555 1_555
O6 C16 1_555 1_555
N1 C1 1_555 1_555
N2 C3 1_555 1_555
C1 C2 1_555 1_555
C2 S1 1_555 1_555
C3 C2 1_555 1_555
C4 N1 1_555 1_555
C5 C4 1_555 1_555
C6 C1 1_555 1_555
C7 N1 1_555 1_555
C8 O1 1_555 1_555
C9 C8 1_555 1_555
C10 C8 1_555 1_555
C11 C8 1_555 1_555
C12 C6 1_555 1_555
C13 S1 1_555 1_555
C14 C13 1_555 1_555
C15 C14 1_555 1_555
C16 C15 1_555 1_555
C17 C16 1_555 1_555
C18 C13 1_555 1_555
C19 O6 1_555 1_555
C20 C19 1_555 1_555
C21 C20 1_555 1_555
C22 C21 1_555 1_555
C23 C22 1_555 1_555
C24 N2 1_555 1_555
C25 C26 1_555 1_555
C26 C24 1_555 1_555
C27 C26 1_555 1_555
C28 C27 1_555 1_555
C29 C30 1_555 1_555
C30 C31 1_555 1_555
C31 C32 1_555 1_555
C32 C33 1_555 1_555
C33 C25 1_555 1_555
C34 C28 1_555 1_555
H1 O3 1_555 1_555
H2 N2 1_555 1_555
H3 C1 1_555 1_555
H4 C2 1_555 1_555
H5 C3 1_555 1_555
H6 C4 1_555 1_555
H7 C5 1_555 1_555
H8 C5 1_555 1_555
H9 C6 1_555 1_555
H10 C9 1_555 1_555
H11 C9 1_555 1_555
H12 C9 1_555 1_555
H13 C10 1_555 1_555
H14 C10 1_555 1_555
H15 C10 1_555 1_555
H16 C11 1_555 1_555
H17 C11 1_555 1_555
H18 C11 1_555 1_555
H19 C12 1_555 1_555
H20 C12 1_555 1_555
H21 C14 1_555 1_555
H22 C15 1_555 1_555
H23 C17 1_555 1_555
H24 C18 1_555 1_555
H25 C19 1_555 1_555
H26 C19 1_555 1_555
H27 C20 1_555 1_555
H28 C20 1_555 1_555
H29 C21 1_555 1_555
H30 C21 1_555 1_555
H31 C22 1_555 1_555
H32 C22 1_555 1_555
H33 C23 1_555 1_555
H34 C23 1_555 1_555
H35 C23 1_555 1_555
H36 C24 1_555 1_555
H37 C24 1_555 1_555
H38 C25 1_555 1_555
H39 C27 1_555 1_555
H40 C28 1_555 1_555
H41 C29 1_555 1_555
H42 C30 1_555 1_555
H43 C31 1_555 1_555
H44 C32 1_555 1_555
C3 C4 1_555 1_555
C5 C6 1_555 1_555
C17 C18 1_555 1_555
C29 C34 1_555 1_555
C33 C34 1_555 1_555

#END
