
#######################################################################
#
#                 Cambridge Crystallographic Data Centre
#                                CCDC 
#
#######################################################################
#
# If this CIF has been generated from an entry in the Cambridge 
# Structural Database, then it will include bibliographic, chemical, 
# crystal, experimental, refinement or atomic coordinate data resulting 
# from the CCDC's data processing and validation procedures.
#
#######################################################################

data_GICTET
_chemical_formula_moiety         'C35 H49 N3 O3 S1 2+,H2 O1,2(Br1 1-)'
_chemical_name_systematic        
'5-((Cyclohexylammonio)methyl)-N-(2-naphthylmethyl)-3-((4-(pentoxy)phenyl)sulfonyl)-7-azabicyclo[2.2.1]heptan-2-aminium dibromide monohydrate'
_symmetry_cell_setting           triclinic
_symmetry_space_group_name_H-M   'P -1'
_symmetry_Int_Tables_number      2
_space_group_name_Hall           '-P 1'
loop_
_symmetry_equiv_pos_site_id
_symmetry_equiv_pos_as_xyz
1 x,y,z
2 -x,-y,-z
_cell_length_a                   5.8031(4)
_cell_length_b                   15.3766(11)
_cell_length_c                   20.4296(16)
_cell_angle_alpha                106.794(3)
_cell_angle_beta                 97.226(3)
_cell_angle_gamma                91.638(3)
_cell_volume                     1727.31
_exptl_crystal_colour            colorless
_cell_formula_units_Z            2
loop_
_atom_site_label
_atom_site_type_symbol
_atom_site_fract_x
_atom_site_fract_y
_atom_site_fract_z
Br1 Br 1.44556(6) 0.69650(3) 0.74301(2)
S1 S 1.20070(16) 0.63066(6) 0.94446(5)
O1 O 1.4109(4) 0.65903(18) 0.92372(14)
O2 O 1.2272(5) 0.57878(18) 0.99413(14)
O3 O 0.5223(5) 0.42989(19) 0.70852(14)
N1 N 0.9234(6) 0.8742(2) 0.98682(18)
H1 H 0.824(9) 0.870(3) 1.014(3)
N2 N 0.9544(6) 0.8003(2) 0.77477(17)
H2 H 0.821(8) 0.769(3) 0.778(2)
H3 H 1.074(9) 0.766(4) 0.760(3)
N3 N 1.1925(6) 0.8098(2) 1.11181(17)
H4 H 1.292(8) 0.853(3) 1.136(3)
H5 H 1.046(9) 0.829(3) 1.121(3)
C1 C 1.0549(7) 0.7298(3) 0.9833(2)
H6 H 0.933(8) 0.712(3) 1.001(2)
C2 C 1.2241(7) 0.8004(3) 1.0381(2)
H7 H 1.385(7) 0.790(3) 1.035(2)
C3 C 1.1685(7) 0.8890(3) 1.0195(2)
H8 H 1.198(7) 0.944(3) 1.061(2)
C4 C 1.2892(7) 0.8887(3) 0.9570(2)
H9 H 1.435(8) 0.872(3) 0.959(2)
H10 H 1.288(8) 0.947(3) 0.948(2)
C5 C 1.1352(7) 0.8178(3) 0.8971(2)
H11 H 1.217(7) 0.771(3) 0.874(2)
C6 C 0.9502(6) 0.7871(3) 0.93569(19)
H12 H 0.801(7) 0.758(3) 0.905(2)
C7 C 1.0353(8) 0.8641(3) 0.8449(2)
H13 H 0.913(8) 0.905(3) 0.862(2)
H14 H 1.141(10) 0.900(4) 0.834(3)
C8 C 0.8795(7) 0.8447(3) 0.7191(2)
H15 H 0.779(7) 0.797(3) 0.679(2)
C9 C 1.0870(7) 0.8753(3) 0.6900(2)
H16 H 1.185(8) 0.827(3) 0.675(2)
H17 H 1.176(8) 0.924(3) 0.727(2)
C10 C 0.9996(7) 0.9135(3) 0.6310(2)
H18 H 1.144(8) 0.934(3) 0.612(2)
H19 H 0.908(8) 0.864(3) 0.594(2)
C11 C 0.8410(7) 0.9908(3) 0.6539(2)
H20 H 0.941(7) 1.044(3) 0.693(2)
H21 H 0.788(8) 1.011(3) 0.616(2)
C12 C 0.6387(7) 0.9587(3) 0.6837(2)
H22 H 0.537(8) 1.005(3) 0.703(2)
H23 H 0.536(8) 0.909(3) 0.646(2)
C13 C 0.7276(7) 0.9231(3) 0.7441(2)
H24 H 0.820(8) 0.969(3) 0.781(2)
H25 H 0.610(7) 0.904(3) 0.765(2)
C14 C 1.2411(7) 0.7269(3) 1.1351(2)
H26 H 1.397(8) 0.711(3) 1.123(2)
H27 H 1.127(7) 0.680(3) 1.104(2)
C15 C 1.2329(7) 0.7472(3) 1.2112(2)
C16 C 1.4167(7) 0.7918(3) 1.2584(2)
H28 H 1.554(8) 0.810(3) 1.243(2)
C17 C 1.4125(7) 0.8096(3) 1.3303(2)
C18 C 1.5977(7) 0.8593(3) 1.3801(2)
H29 H 1.729(8) 0.882(3) 1.362(2)
C19 C 1.5877(8) 0.8766(3) 1.4491(2)
H30 H 1.714(8) 0.912(3) 1.481(2)
C20 C 1.3908(8) 0.8439(3) 1.4717(2)
H31 H 1.398(9) 0.851(4) 1.524(3)
C21 C 1.2082(8) 0.7957(3) 1.4248(2)
H32 H 1.073(8) 0.778(3) 1.440(2)
C22 C 1.2126(7) 0.7776(3) 1.3527(2)
C23 C 1.0256(7) 0.7302(3) 1.3033(2)
H33 H 0.882(8) 0.714(3) 1.319(2)
C24 C 1.0337(7) 0.7161(3) 1.2342(2)
H34 H 0.914(8) 0.689(3) 1.199(2)
C25 C 1.0071(6) 0.5684(3) 0.8733(2)
C26 C 1.0491(7) 0.5660(3) 0.8072(2)
H35 H 1.179(8) 0.595(3) 0.801(2)
C27 C 0.8908(7) 0.5205(3) 0.7508(2)
H36 H 0.924(8) 0.520(3) 0.705(3)
C28 C 0.6888(7) 0.4764(3) 0.7603(2)
C29 C 0.6507(7) 0.4780(3) 0.8268(2)
H37 H 0.498(8) 0.445(3) 0.830(2)
C30 C 0.8075(7) 0.5235(3) 0.8829(2)
H38 H 0.783(7) 0.519(3) 0.927(2)
C31 C 0.5344(7) 0.4396(3) 0.6413(2)
H39 H 0.665(7) 0.410(3) 0.625(2)
H40 H 0.544(8) 0.504(3) 0.645(2)
C32 C 0.3229(7) 0.3911(3) 0.5940(2)
H41 H 0.189(9) 0.415(3) 0.614(3)
H42 H 0.331(7) 0.320(3) 0.589(2)
C33 C 0.3090(8) 0.4073(3) 0.5234(2)
H43 H 0.323(8) 0.466(4) 0.532(3)
H44 H 0.446(9) 0.381(3) 0.501(3)
C34 C 0.0921(8) 0.3646(3) 0.4744(2)
H45 H 0.104(8) 0.294(4) 0.467(3)
H46 H -0.062(9) 0.386(4) 0.500(3)
C35 C 0.0746(9) 0.3880(3) 0.4071(3)
H47 H 0.221(8) 0.367(3) 0.381(2)
H48 H 0.076(9) 0.453(4) 0.420(3)
H49 H -0.079(10) 0.357(4) 0.372(3)
Br2 Br 0.28848(6) 0.09284(3) 0.85187(2)
O4 O 1.2871(6) 0.3855(2) 0.93445(18)
H50 H 1.2283(9) 0.4306(7) 0.9778(6)
H51 H 1.449(2) 0.4054(4) 0.9564(4)
loop_
_geom_bond_atom_site_label_1
_geom_bond_atom_site_label_2
_geom_bond_site_symmetry_1
_geom_bond_site_symmetry_2
S1 O1 1_555 1_555
O2 S1 1_555 1_555
O3 C28 1_555 1_555
N1 H1 1_555 1_555
N2 H2 1_555 1_555
H3 N2 1_555 1_555
N3 H4 1_555 1_555
H5 N3 1_555 1_555
C1 S1 1_555 1_555
H6 C1 1_555 1_555
C2 N3 1_555 1_555
H7 C2 1_555 1_555
C3 N1 1_555 1_555
H8 C3 1_555 1_555
C4 C3 1_555 1_555
H9 C4 1_555 1_555
H10 C4 1_555 1_555
C5 C4 1_555 1_555
H11 C5 1_555 1_555
C6 N1 1_555 1_555
H12 C6 1_555 1_555
C7 N2 1_555 1_555
H13 C7 1_555 1_555
H14 C7 1_555 1_555
C8 N2 1_555 1_555
H15 C8 1_555 1_555
C9 C8 1_555 1_555
H16 C9 1_555 1_555
H17 C9 1_555 1_555
C10 C9 1_555 1_555
H18 C10 1_555 1_555
H19 C10 1_555 1_555
C11 C10 1_555 1_555
H20 C11 1_555 1_555
H21 C11 1_555 1_555
C12 C11 1_555 1_555
H22 C12 1_555 1_555
H23 C12 1_555 1_555
C13 C8 1_555 1_555
H24 C13 1_555 1_555
H25 C13 1_555 1_555
C14 N3 1_555 1_555
H26 C14 1_555 1_555
H27 C14 1_555 1_555
C15 C14 1_555 1_555
C16 C15 1_555 1_555
H28 C16 1_555 1_555
C17 C16 1_555 1_555
C18 C17 1_555 1_555
H29 C18 1_555 1_555
C19 C18 1_555 1_555
H30 C19 1_555 1_555
C20 C19 1_555 1_555
H31 C20 1_555 1_555
C21 C20 1_555 1_555
H32 C21 1_555 1_555
C22 C17 1_555 1_555
C23 C22 1_555 1_555
H33 C23 1_555 1_555
C24 C15 1_555 1_555
H34 C24 1_555 1_555
C25 S1 1_555 1_555
C26 C25 1_555 1_555
H35 C26 1_555 1_555
C27 C26 1_555 1_555
H36 C27 1_555 1_555
C28 C27 1_555 1_555
C29 C28 1_555 1_555
H37 C29 1_555 1_555
C30 C25 1_555 1_555
H38 C30 1_555 1_555
C31 O3 1_555 1_555
H39 C31 1_555 1_555
H40 C31 1_555 1_555
C32 C31 1_555 1_555
H41 C32 1_555 1_555
H42 C32 1_555 1_555
C33 C32 1_555 1_555
H43 C33 1_555 1_555
H44 C33 1_555 1_555
C34 C33 1_555 1_555
H45 C34 1_555 1_555
H46 C34 1_555 1_555
C35 C34 1_555 1_555
H47 C35 1_555 1_555
H48 C35 1_555 1_555
H49 C35 1_555 1_555
O4 H50 1_555 1_555
H51 O4 1_555 1_555
C1 C2 1_555 1_555
C1 C6 1_555 1_555
C2 C3 1_555 1_555
C5 C6 1_555 1_555
C5 C7 1_555 1_555
C12 C13 1_555 1_555
C21 C22 1_555 1_555
C23 C24 1_555 1_555
C29 C30 1_555 1_555

#END
