
#######################################################################
#
#                 Cambridge Crystallographic Data Centre
#                                CCDC 
#
#######################################################################
#
# If this CIF has been generated from an entry in the Cambridge 
# Structural Database, then it will include bibliographic, chemical, 
# crystal, experimental, refinement or atomic coordinate data resulting 
# from the CCDC's data processing and validation procedures.
#
#######################################################################

data_GICVUL
_chemical_formula_moiety         'C17 H15 N3 O2 S1'
_chemical_name_systematic        
3-(1H-Benzimidazol-2-yl)-2-(4-methoxyphenyl)-1,3-thiazolidin-4-one
_symmetry_cell_setting           triclinic
_symmetry_space_group_name_H-M   'P -1'
_symmetry_Int_Tables_number      2
_space_group_name_Hall           '-P 1'
loop_
_symmetry_equiv_pos_site_id
_symmetry_equiv_pos_as_xyz
1 x,y,z
2 -x,-y,-z
_cell_length_a                   5.7110(11)
_cell_length_b                   11.389(2)
_cell_length_c                   12.559(3)
_cell_angle_alpha                70.16(3)
_cell_angle_beta                 88.11(3)
_cell_angle_gamma                85.24(3)
_cell_volume                     765.723
_cell_formula_units_Z            2
loop_
_atom_site_label
_atom_site_type_symbol
_atom_site_fract_x
_atom_site_fract_y
_atom_site_fract_z
S1 S 0.21130(19) 0.59736(9) 0.46269(8)
N1 N 0.1809(5) 0.9357(3) 0.6319(2)
H1 H 0.2997 0.9713 0.5947
O1 O 0.4411(5) 0.9043(2) 0.4569(2)
C1 C -0.1259(6) 0.8872(3) 0.7444(3)
N2 N -0.0897(5) 0.7967(3) 0.6930(3)
O2 O 0.6618(6) 0.3047(3) 0.9670(2)
C2 C -0.2977(7) 0.9006(4) 0.8227(4)
H2 H -0.4140 0.8447 0.8477
N3 N 0.1896(5) 0.7638(2) 0.5620(2)
C3 C -0.2870(9) 0.9995(5) 0.8608(4)
H3 H -0.3984 1.0102 0.9131
C4 C -0.1160(9) 1.0838(5) 0.8241(4)
H4 H -0.1146 1.1493 0.8526
C5 C 0.0513(8) 1.0729(4) 0.7467(4)
H5 H 0.1665 1.1293 0.7216
C6 C 0.0403(6) 0.9741(3) 0.7081(3)
C7 C 0.0931(6) 0.8314(3) 0.6283(3)
C8 C 0.3591(6) 0.8038(3) 0.4805(3)
C9 C 0.4264(7) 0.7092(3) 0.4248(3)
H6 H 0.5804 0.6685 0.4502
H7 H 0.4315 0.7493 0.3433
C10 C 0.1418(6) 0.6325(3) 0.5918(3)
H8 H -0.0255 0.6235 0.6098
C11 C 0.2894(6) 0.5482(3) 0.6928(3)
C12 C 0.2268(7) 0.4278(3) 0.7494(3)
H9 H 0.0951 0.3999 0.7266
C13 C 0.3573(7) 0.3496(3) 0.8387(3)
H10 H 0.3157 0.2682 0.8745
C14 C 0.5481(7) 0.3893(4) 0.8760(3)
C15 C 0.6130(7) 0.5093(4) 0.8205(3)
H11 H 0.7438 0.5371 0.8441
C16 C 0.4830(6) 0.5874(3) 0.7299(3)
H12 H 0.5268 0.6681 0.6930
C17 C 0.8324(9) 0.3471(6) 1.0228(4)
H13 H 0.8994 0.2777 1.0843
H14 H 0.7587 0.4091 1.0518
H15 H 0.9540 0.3831 0.9701
loop_
_geom_bond_atom_site_label_1
_geom_bond_atom_site_label_2
_geom_bond_site_symmetry_1
_geom_bond_site_symmetry_2
S1 C9 1_555 1_555
N1 H1 1_555 1_555
O1 C8 1_555 1_555
C1 N2 1_555 1_555
N2 C7 1_555 1_555
O2 C14 1_555 1_555
C2 C1 1_555 1_555
H2 C2 1_555 1_555
N3 C7 1_555 1_555
C3 C2 1_555 1_555
H3 C3 1_555 1_555
C4 C3 1_555 1_555
H4 C4 1_555 1_555
C5 C4 1_555 1_555
H5 C5 1_555 1_555
C6 N1 1_555 1_555
C7 N1 1_555 1_555
C8 N3 1_555 1_555
C9 C8 1_555 1_555
H6 C9 1_555 1_555
H7 C9 1_555 1_555
C10 S1 1_555 1_555
H8 C10 1_555 1_555
C11 C10 1_555 1_555
C12 C11 1_555 1_555
H9 C12 1_555 1_555
C13 C12 1_555 1_555
H10 C13 1_555 1_555
C14 C13 1_555 1_555
C15 C14 1_555 1_555
H11 C15 1_555 1_555
C16 C11 1_555 1_555
H12 C16 1_555 1_555
C17 O2 1_555 1_555
H13 C17 1_555 1_555
H14 C17 1_555 1_555
H15 C17 1_555 1_555
C1 C6 1_555 1_555
N3 C10 1_555 1_555
C5 C6 1_555 1_555
C15 C16 1_555 1_555

#END
