
#######################################################################
#
#                 Cambridge Crystallographic Data Centre
#                                CCDC 
#
#######################################################################
#
# If this CIF has been generated from an entry in the Cambridge 
# Structural Database, then it will include bibliographic, chemical, 
# crystal, experimental, refinement or atomic coordinate data resulting 
# from the CCDC's data processing and validation procedures.
#
#######################################################################

data_GIDGIM
_chemical_name_common            '2-((2-ethylphenyl)amino)nicotinic acid'
_chemical_formula_moiety         'C14 H14 N2 O2'
_chemical_name_systematic        
'2-[(2-ethylphenyl)amino]pyridine-3-carboxylic acid'
_symmetry_cell_setting           monoclinic
_symmetry_space_group_name_H-M   'P 21/n'
_symmetry_Int_Tables_number      14
_space_group_name_Hall           '-P 2yn'
loop_
_symmetry_equiv_pos_site_id
_symmetry_equiv_pos_as_xyz
1 x,y,z
2 1/2-x,1/2+y,1/2-z
3 -x,-y,-z
4 1/2+x,1/2-y,1/2+z
_cell_length_a                   8.9247(2)
_cell_length_b                   14.0340(2)
_cell_length_c                   10.6795(2)
_cell_angle_alpha                90
_cell_angle_beta                 107.139(1)
_cell_angle_gamma                90
_cell_volume                     1278.2
_exptl_crystal_colour            colorless
_exptl_crystal_description       'irregular shard'
_chemical_melting_point          '408.7 K'
_cell_formula_units_Z            4
_exptl_crystal_recrystallization_method 
'Re-crystallisation from solvent: ethanol'
loop_
_atom_site_label
_atom_site_type_symbol
_atom_site_fract_x
_atom_site_fract_y
_atom_site_fract_z
N1 N 0.19370(12) 0.58569(7) 0.17852(11)
N2 N 0.42474(13) 0.49971(8) 0.22627(13)
H1 H 0.4692(19) 0.4449(12) 0.2501(16)
O1 O 0.40606(11) 0.31326(6) 0.27399(11)
O2 O 0.16826(11) 0.25371(7) 0.24967(12)
H2 H 0.227(2) 0.1957(14) 0.2781(19)
C1 C 0.03792(15) 0.58825(9) 0.15363(14)
H3 H -0.0128 0.6483 0.1349
C2 C -0.05339(15) 0.50929(9) 0.15340(14)
H4 H -0.1641 0.5143 0.1335
C3 C 0.02194(15) 0.42217(9) 0.18319(13)
H5 H -0.0374 0.3665 0.1861
C4 C 0.18272(15) 0.41576(8) 0.20874(12)
C5 C 0.26726(14) 0.50085(8) 0.20297(13)
C6 C 0.26422(15) 0.32327(8) 0.24648(13)
C7 C 0.51718(14) 0.57599(8) 0.20195(14)
C8 C 0.48664(17) 0.6128(1) 0.07703(15)
H6 H 0.4019 0.5883 0.0082
C9 C 0.57869(19) 0.68514(11) 0.05156(19)
H7 H 0.5576 0.7103 -0.0345
C10 C 0.70024(19) 0.72027(11) 0.1511(2)
H8 H 0.7637 0.7701 0.1342
C11 C 0.73071(18) 0.68364(10) 0.27534(19)
H9 H 0.8158 0.7087 0.3433
C12 C 0.64038(16) 0.61090(9) 0.30443(15)
C13 C 0.6797(2) 0.57131(13) 0.44068(16)
H10 H 0.5814 0.5631 0.4646
H11 H 0.7456 0.6180 0.5022
C14 C 0.7649(2) 0.47697(14) 0.45726(18)
H12 H 0.6970 0.4288 0.4023
H13 H 0.7924 0.4573 0.5493
H14 H 0.8607 0.4837 0.4310
loop_
_geom_bond_atom_site_label_1
_geom_bond_atom_site_label_2
_geom_bond_site_symmetry_1
_geom_bond_site_symmetry_2
N1 C1 1_555 1_555
N2 H1 1_555 1_555
O1 C6 1_555 1_555
O2 H2 1_555 1_555
C1 H3 1_555 1_555
C2 C1 1_555 1_555
H4 C2 1_555 1_555
C3 C2 1_555 1_555
H5 C3 1_555 1_555
C4 C3 1_555 1_555
C5 N1 1_555 1_555
C6 O2 1_555 1_555
C7 N2 1_555 1_555
C8 C7 1_555 1_555
H6 C8 1_555 1_555
C9 C8 1_555 1_555
H7 C9 1_555 1_555
C10 C9 1_555 1_555
H8 C10 1_555 1_555
C11 C10 1_555 1_555
H9 C11 1_555 1_555
C12 C7 1_555 1_555
C13 C12 1_555 1_555
H10 C13 1_555 1_555
H11 C13 1_555 1_555
C14 C13 1_555 1_555
H12 C14 1_555 1_555
H13 C14 1_555 1_555
H14 C14 1_555 1_555
N2 C5 1_555 1_555
C4 C5 1_555 1_555
C4 C6 1_555 1_555
C11 C12 1_555 1_555

#END
