
#######################################################################
#
#                 Cambridge Crystallographic Data Centre
#                                CCDC 
#
#######################################################################
#
# If this CIF has been generated from an entry in the Cambridge 
# Structural Database, then it will include bibliographic, chemical, 
# crystal, experimental, refinement or atomic coordinate data resulting 
# from the CCDC's data processing and validation procedures.
#
#######################################################################

data_GIDHOR
_chemical_name_common            
"2'-(2-hydroxyadamant-2-yl)-1,1'-binaphthalen-2-ol dichloromethane solvate"
_chemical_formula_moiety         'C30 H28 O2,1.5(C1 H2 Cl2)'
_chemical_name_systematic        
"2'-(2-hydroxytricyclo[3.3.1.1^3,7^]dec-2-yl)-1,1'-binaphthalen-2-ol dichloromethane solvate"
_symmetry_cell_setting           triclinic
_symmetry_space_group_name_H-M   'P -1'
_symmetry_Int_Tables_number      2
_space_group_name_Hall           '-P 1'
loop_
_symmetry_equiv_pos_site_id
_symmetry_equiv_pos_as_xyz
1 x,y,z
2 -x,-y,-z
_cell_length_a                   10.508(2)
_cell_length_b                   11.120(2)
_cell_length_c                   12.231(3)
_cell_angle_alpha                79.538(4)
_cell_angle_beta                 86.355(4)
_cell_angle_gamma                74.584(4)
_cell_volume                     1354.68
_exptl_crystal_colour            colorless
_chemical_melting_point          230-231deg.C
_cell_formula_units_Z            2
_exptl_crystal_recrystallization_method dichloromethane/hexane
loop_
_atom_site_label
_atom_site_type_symbol
_atom_site_fract_x
_atom_site_fract_y
_atom_site_fract_z
O1 O 0.3391(2) 0.6046(2) 0.54363(18)
H1 H 0.3915 0.6408 0.5089
O2 O 0.4425(2) 0.3422(2) 0.56397(19)
H2 H 0.4060 0.4180 0.5573
C1 C 0.3458(3) 0.6070(3) 0.6552(3)
C2 C 0.4220(3) 0.6791(3) 0.6909(3)
H3 H 0.4679 0.7247 0.6392
C3 C 0.4283(4) 0.6818(4) 0.8008(3)
H4 H 0.4801 0.7283 0.8237
C4 C 0.3575(3) 0.6153(3) 0.8811(3)
C5 C 0.3617(5) 0.6185(4) 0.9957(3)
H5 H 0.4131 0.6647 1.0196
C6 C 0.2921(5) 0.5553(5) 1.0713(3)
H6 H 0.2959 0.5586 1.1464
C7 C 0.2142(4) 0.4846(4) 1.0363(3)
H7 H 0.1660 0.4419 1.0885
C8 C 0.2087(4) 0.4781(4) 0.9261(3)
H8 H 0.1576 0.4304 0.9042
C9 C 0.2804(3) 0.5435(3) 0.8449(3)
C10 C 0.2778(3) 0.5373(3) 0.7289(2)
C11 C 0.1921(3) 0.4661(3) 0.6893(2)
C12 C 0.0546(3) 0.5325(3) 0.6800(3)
C13 C 0.0062(3) 0.6572(4) 0.7010(3)
H9 H 0.0646 0.6984 0.7219
C14 C -0.1247(4) 0.7191(4) 0.6913(4)
H10 H -0.1541 0.8015 0.7052
C15 C -0.2146(4) 0.6589(5) 0.6605(3)
H11 H -0.3038 0.7010 0.6552
C16 C -0.1731(4) 0.5415(5) 0.6385(3)
H12 H -0.2340 0.5032 0.6172
C17 C -0.0379(3) 0.4735(4) 0.6471(3)
C18 C 0.0108(4) 0.3516(4) 0.6209(3)
H13 H -0.0478 0.3110 0.5992
C19 C 0.1414(4) 0.2917(3) 0.6265(3)
H14 H 0.1697 0.2122 0.6057
C20 C 0.2369(3) 0.3450(3) 0.6627(2)
C21 C 0.3846(3) 0.2740(3) 0.6584(3)
C22 C 0.4105(4) 0.1373(3) 0.6348(3)
H15 H 0.3632 0.1389 0.5678
C23 C 0.3629(4) 0.0513(4) 0.7329(3)
H16 H 0.2692 0.0847 0.7460
H17 H 0.3768 -0.0329 0.7153
C24 C 0.4389(4) 0.0446(4) 0.8366(3)
H18 H 0.4073 -0.0091 0.8992
C25 C 0.4130(4) 0.1797(4) 0.8620(3)
H19 H 0.3191 0.2139 0.8739
H20 H 0.4581 0.1777 0.9294
C26 C 0.4624(3) 0.2644(3) 0.7651(3)
H21 H 0.4487 0.3491 0.7834
C27 C 0.6100(3) 0.2076(3) 0.7473(3)
H22 H 0.6571 0.2045 0.8138
H23 H 0.6431 0.2607 0.6864
C28 C 0.6346(4) 0.0737(3) 0.7207(3)
H24 H 0.7292 0.0391 0.7079
C29 C 0.5868(4) -0.0096(4) 0.8187(4)
H25 H 0.6339 -0.0122 0.8851
H26 H 0.6036 -0.0952 0.8038
C30 C 0.5592(4) 0.0811(4) 0.6162(3)
H27 H 0.5739 -0.0030 0.5981
H28 H 0.5913 0.1336 0.5543
C32 C 0.9398(9) 0.1781(13) 0.0303(8)
Cl3 Cl 1.0346(15) 0.0729(13) 0.1260(9)
Cl4 Cl 1.0152(9) 0.2114(7) -0.0955(8)
C31? C -0.0230(13) 0.0492(17) 0.5288(17)
Cl1? Cl -0.1044(11) 0.0268(8) 0.4210(11)
Cl2? Cl 0.1277(5) -0.0608(8) 0.5342(7)
Cl5? Cl 1.1025(7) 0.1708(9) 0.0232(11)
Cl6? Cl 0.9167(15) 0.0879(10) 0.1568(10)
loop_
_geom_bond_atom_site_label_1
_geom_bond_atom_site_label_2
_geom_bond_site_symmetry_1
_geom_bond_site_symmetry_2
O1 H1 1_555 1_555
O2 H2 1_555 1_555
C1 O1 1_555 1_555
C2 C1 1_555 1_555
H3 C2 1_555 1_555
C3 C2 1_555 1_555
H4 C3 1_555 1_555
C4 C3 1_555 1_555
C5 C4 1_555 1_555
H5 C5 1_555 1_555
C6 C5 1_555 1_555
H6 C6 1_555 1_555
C7 C6 1_555 1_555
H7 C7 1_555 1_555
C8 C7 1_555 1_555
H8 C8 1_555 1_555
C9 C4 1_555 1_555
C10 C1 1_555 1_555
C11 C10 1_555 1_555
C12 C11 1_555 1_555
C13 C12 1_555 1_555
H9 C13 1_555 1_555
C14 C13 1_555 1_555
H10 C14 1_555 1_555
C15 C14 1_555 1_555
H11 C15 1_555 1_555
C16 C15 1_555 1_555
H12 C16 1_555 1_555
C17 C12 1_555 1_555
C18 C17 1_555 1_555
H13 C18 1_555 1_555
C19 C18 1_555 1_555
H14 C19 1_555 1_555
C20 C11 1_555 1_555
C21 O2 1_555 1_555
C22 C21 1_555 1_555
H15 C22 1_555 1_555
C23 C22 1_555 1_555
H16 C23 1_555 1_555
H17 C23 1_555 1_555
C24 C23 1_555 1_555
H18 C24 1_555 1_555
C25 C24 1_555 1_555
H19 C25 1_555 1_555
H20 C25 1_555 1_555
C26 C21 1_555 1_555
H21 C26 1_555 1_555
C27 C26 1_555 1_555
H22 C27 1_555 1_555
H23 C27 1_555 1_555
C28 C27 1_555 1_555
H24 C28 1_555 1_555
C29 C24 1_555 1_555
H25 C29 1_555 1_555
H26 C29 1_555 1_555
C30 C22 1_555 1_555
H27 C30 1_555 1_555
H28 C30 1_555 1_555
C32 Cl3 1_555 1_555
Cl4 C32 1_555 1_555
C8 C9 1_555 1_555
C9 C10 1_555 1_555
C16 C17 1_555 1_555
C19 C20 1_555 1_555
C20 C21 1_555 1_555
C25 C26 1_555 1_555
C28 C29 1_555 1_555
C28 C30 1_555 1_555

#END
