
#######################################################################
#
#                 Cambridge Crystallographic Data Centre
#                                CCDC 
#
#######################################################################
#
# If this CIF has been generated from an entry in the Cambridge 
# Structural Database, then it will include bibliographic, chemical, 
# crystal, experimental, refinement or atomic coordinate data resulting 
# from the CCDC's data processing and validation procedures.
#
#######################################################################

data_GIDJOT
_chemical_formula_moiety         'C25 H37 N1 Si1'
_chemical_name_systematic        
4-Methyl-3-((4-(dimethylamino)phenyl)ethynyl)-1-(tri-isopropylsilyl)pent-3-en-1-yne
_symmetry_cell_setting           triclinic
_symmetry_space_group_name_H-M   'P -1'
_symmetry_Int_Tables_number      2
_space_group_name_Hall           '-P 1'
loop_
_symmetry_equiv_pos_site_id
_symmetry_equiv_pos_as_xyz
1 x,y,z
2 -x,-y,-z
_cell_length_a                   8.8003(6)
_cell_length_b                   13.6654(10)
_cell_length_c                   20.8790(14)
_cell_angle_alpha                90.7843(13)
_cell_angle_beta                 94.8883(14)
_cell_angle_gamma                93.1437(12)
_cell_volume                     2497.58
_exptl_crystal_colour            'pale yellow'
_chemical_melting_point          45-46deg.C
_cell_formula_units_Z            4
loop_
_atom_site_label
_atom_site_type_symbol
_atom_site_fract_x
_atom_site_fract_y
_atom_site_fract_z
Si1 Si 0.77650(9) 0.09483(6) -0.36126(3)
N1 N -0.1125(3) 0.1438(2) -0.02665(16)
C1 C 0.7132(3) 0.0252(2) -0.29373(13)
C2 C 0.6675(3) -0.0224(2) -0.25074(14)
C3 C 0.6078(4) -0.0796(2) -0.19966(13)
C4 C 0.6668(4) -0.1634(2) -0.18054(14)
C5 C 0.8014(4) -0.2016(2) -0.20945(16)
H1 H 0.8264 -0.1615 -0.2449
H2 H 0.7776 -0.2678 -0.2244
H3 H 0.8870 -0.2000 -0.1776
C6 C 0.5988(4) -0.2240(2) -0.13020(15)
H4 H 0.5138 -0.1921 -0.1151
H5 H 0.6744 -0.2318 -0.0950
H6 H 0.5643 -0.2873 -0.1482
C7 C 0.4797(4) -0.0390(2) -0.17212(14)
C8 C 0.3761(4) -0.0039(2) -0.14847(15)
C9 C 0.6842(4) 0.2148(2) -0.35934(15)
H7 H 0.7242 0.2553 -0.3932
C10 C 0.5107(4) 0.2037(3) -0.3732(2)
H8 H 0.4691 0.2672 -0.3727
H9 H 0.4681 0.1639 -0.3409
H10 H 0.4859 0.1731 -0.4147
C11 C 0.7245(5) 0.2694(3) -0.29567(19)
H11 H 0.6773 0.3311 -0.2967
H12 H 0.8333 0.2807 -0.2887
H13 H 0.6883 0.2309 -0.2614
C12 C 0.9886(3) 0.1156(2) -0.34692(14)
H14 H 1.0058 0.1474 -0.3043
C13 C 1.0575(4) 0.1894(3) -0.39302(16)
H15 H 1.1659 0.1976 -0.3827
H16 H 1.0126 0.2514 -0.3887
H17 H 1.0370 0.1653 -0.4365
C14 C 1.0773(4) 0.0241(3) -0.34176(16)
H18 H 1.1843 0.0421 -0.3337
H19 H 1.0600 -0.0131 -0.3813
H20 H 1.0440 -0.0147 -0.3071
C15 C 0.7061(4) 0.0235(2) -0.43596(13)
H21 H 0.5946 0.0211 -0.4360
C16 C 0.7380(5) 0.0739(3) -0.49790(13)
H22 H 0.6974 0.0332 -0.5338
H23 H 0.8463 0.0850 -0.4995
H24 H 0.6906 0.1356 -0.4997
C17 C 0.7447(5) -0.0823(3) -0.43729(17)
H25 H 0.7025 -0.1126 -0.4771
H26 H 0.7027 -0.1155 -0.4020
H27 H 0.8537 -0.0862 -0.4336
C18 C 0.2516(4) 0.0361(2) -0.11884(16)
C19 C 0.2708(4) 0.0718(2) -0.05608(15)
H28 H 0.3668 0.0716 -0.0337
C20 C 0.1520(4) 0.1074(2) -0.02607(14)
H29 H 0.1696 0.1313 0.0160
C21 C 0.0053(4) 0.1087(2) -0.05709(16)
C22 C -0.0132(4) 0.0728(3) -0.12009(17)
H30 H -0.1090 0.0724 -0.1427
C23 C 0.1066(5) 0.0382(2) -0.14944(16)
H31 H 0.0897 0.0151 -0.1917
C24 C -0.0888(4) 0.1784(3) 0.03933(19)
H32 H -0.0181 0.2346 0.0422
H33 H -0.0481 0.1274 0.0657
H34 H -0.1844 0.1960 0.0539
C25 C -0.2655(4) 0.1375(3) -0.0563(2)
H35 H -0.2696 0.1732 -0.0957
H36 H -0.3325 0.1650 -0.0278
H37 H -0.2971 0.0700 -0.0655
Si2 Si 0.76975(9) 0.56241(6) 0.14406(3)
N2 N -0.2177(3) 0.4592(2) 0.43683(13)
C26 C 0.6868(3) 0.4759(2) 0.20001(13)
C27 C 0.6423(3) 0.4185(2) 0.23813(12)
C28 C 0.5927(3) 0.3485(2) 0.28402(12)
C29 C 0.6711(4) 0.2691(2) 0.29776(13)
C30 C 0.8110(4) 0.2478(2) 0.26595(15)
H38 H 0.8238 0.2931 0.2318
H39 H 0.8012 0.1821 0.2487
H40 H 0.8983 0.2546 0.2969
C31 C 0.6243(4) 0.1957(2) 0.34599(14)
H41 H 0.5328 0.2150 0.3635
H42 H 0.7044 0.1926 0.3800
H43 H 0.6057 0.1324 0.3254
C32 C 0.4553(4) 0.3689(2) 0.31383(13)
C33 C 0.3420(4) 0.3849(2) 0.33768(13)
C34 C 0.7048(3) 0.6868(2) 0.16224(13)
H44 H 0.7551 0.7326 0.1340
C35 C 0.5341(4) 0.6946(3) 0.14798(16)
H45 H 0.5077 0.7603 0.1571
H46 H 0.4806 0.6498 0.1743
H47 H 0.5058 0.6788 0.1035
C36 C 0.7513(4) 0.7215(2) 0.23063(14)
H48 H 0.7169 0.7862 0.2369
H49 H 0.8605 0.7229 0.2384
H50 H 0.7059 0.6775 0.2600
C37 C 0.9818(3) 0.5618(2) 0.16190(14)
H51 H 1.0006 0.5816 0.2073
C38 C 1.0725(4) 0.6377(3) 0.12593(18)
H52 H 1.1796 0.6333 0.1381
H53 H 1.0424 0.7020 0.1365
H54 H 1.0527 0.6257 0.0805
C39 C 1.0496(4) 0.4620(3) 0.15734(16)
H55 H 1.1580 0.4689 0.1679
H56 H 1.0290 0.4359 0.1144
H57 H 1.0046 0.4181 0.1869
C40 C 0.6930(4) 0.5223(2) 0.06066(12)
H58 H 0.5822 0.5269 0.0603
C41 C 0.7402(4) 0.5912(3) 0.00828(14)
H59 H 0.6952 0.5668 -0.0328
H60 H 0.8494 0.5948 0.0082
H61 H 0.7058 0.6553 0.0163
C42 C 0.7137(4) 0.4174(3) 0.04371(15)
H62 H 0.6699 0.4033 0.0007
H63 H 0.6639 0.3756 0.0731
H64 H 0.8207 0.4059 0.0465
C43 C 0.2011(3) 0.4043(2) 0.36397(13)
C44 C 0.1468(4) 0.3509(2) 0.41405(14)
H65 H 0.2042 0.3012 0.4317
C45 C 0.0104(4) 0.3693(2) 0.43847(14)
H66 H -0.0213 0.3324 0.4725
C46 C -0.0807(4) 0.4415(2) 0.41350(13)
C47 C -0.0257(4) 0.4948(2) 0.36306(14)
H67 H -0.0829 0.5442 0.3449
C48 C 0.1102(4) 0.4761(2) 0.33976(14)
H68 H 0.1426 0.5134 0.3061
C49 C -0.2734(4) 0.4041(3) 0.48908(17)
H69 H -0.2029 0.4139 0.5266
H70 H -0.2831 0.3357 0.4774
H71 H -0.3713 0.4260 0.4981
C50 C -0.3039(4) 0.5416(3) 0.41464(17)
H72 H -0.2443 0.6016 0.4248
H73 H -0.3970 0.5419 0.4355
H74 H -0.3276 0.5358 0.3690
loop_
_geom_bond_atom_site_label_1
_geom_bond_atom_site_label_2
_geom_bond_site_symmetry_1
_geom_bond_site_symmetry_2
Si1 C1 1_555 1_555
N1 C21 1_555 1_555
C1 C2 1_555 1_555
C2 C3 1_555 1_555
C3 C4 1_555 1_555
C4 C5 1_555 1_555
C5 H1 1_555 1_555
H2 C5 1_555 1_555
H3 C5 1_555 1_555
C6 C4 1_555 1_555
H4 C6 1_555 1_555
H5 C6 1_555 1_555
H6 C6 1_555 1_555
C7 C3 1_555 1_555
C8 C7 1_555 1_555
C9 Si1 1_555 1_555
H7 C9 1_555 1_555
C10 C9 1_555 1_555
H8 C10 1_555 1_555
H9 C10 1_555 1_555
H10 C10 1_555 1_555
C11 C9 1_555 1_555
H11 C11 1_555 1_555
H12 C11 1_555 1_555
H13 C11 1_555 1_555
C12 Si1 1_555 1_555
H14 C12 1_555 1_555
C13 C12 1_555 1_555
H15 C13 1_555 1_555
H16 C13 1_555 1_555
H17 C13 1_555 1_555
C14 C12 1_555 1_555
H18 C14 1_555 1_555
H19 C14 1_555 1_555
H20 C14 1_555 1_555
C15 Si1 1_555 1_555
H21 C15 1_555 1_555
C16 C15 1_555 1_555
H22 C16 1_555 1_555
H23 C16 1_555 1_555
H24 C16 1_555 1_555
C17 C15 1_555 1_555
H25 C17 1_555 1_555
H26 C17 1_555 1_555
H27 C17 1_555 1_555
C18 C8 1_555 1_555
C19 C18 1_555 1_555
H28 C19 1_555 1_555
C20 C19 1_555 1_555
H29 C20 1_555 1_555
C21 C20 1_555 1_555
C22 C21 1_555 1_555
H30 C22 1_555 1_555
C23 C18 1_555 1_555
H31 C23 1_555 1_555
C24 N1 1_555 1_555
H32 C24 1_555 1_555
H33 C24 1_555 1_555
H34 C24 1_555 1_555
C25 N1 1_555 1_555
H35 C25 1_555 1_555
H36 C25 1_555 1_555
H37 C25 1_555 1_555
Si2 C26 1_555 1_555
N2 C46 1_555 1_555
C26 C27 1_555 1_555
C27 C28 1_555 1_555
C28 C29 1_555 1_555
C29 C30 1_555 1_555
C30 H38 1_555 1_555
H39 C30 1_555 1_555
H40 C30 1_555 1_555
C31 C29 1_555 1_555
H41 C31 1_555 1_555
H42 C31 1_555 1_555
H43 C31 1_555 1_555
C32 C28 1_555 1_555
C33 C32 1_555 1_555
C34 Si2 1_555 1_555
H44 C34 1_555 1_555
C35 C34 1_555 1_555
H45 C35 1_555 1_555
H46 C35 1_555 1_555
H47 C35 1_555 1_555
C36 C34 1_555 1_555
H48 C36 1_555 1_555
H49 C36 1_555 1_555
H50 C36 1_555 1_555
C37 Si2 1_555 1_555
H51 C37 1_555 1_555
C38 C37 1_555 1_555
H52 C38 1_555 1_555
H53 C38 1_555 1_555
H54 C38 1_555 1_555
C39 C37 1_555 1_555
H55 C39 1_555 1_555
H56 C39 1_555 1_555
H57 C39 1_555 1_555
C40 Si2 1_555 1_555
H58 C40 1_555 1_555
C41 C40 1_555 1_555
H59 C41 1_555 1_555
H60 C41 1_555 1_555
H61 C41 1_555 1_555
C42 C40 1_555 1_555
H62 C42 1_555 1_555
H63 C42 1_555 1_555
H64 C42 1_555 1_555
C43 C33 1_555 1_555
C44 C43 1_555 1_555
H65 C44 1_555 1_555
C45 C44 1_555 1_555
H66 C45 1_555 1_555
C46 C45 1_555 1_555
C47 C46 1_555 1_555
H67 C47 1_555 1_555
C48 C43 1_555 1_555
H68 C48 1_555 1_555
C49 N2 1_555 1_555
H69 C49 1_555 1_555
H70 C49 1_555 1_555
H71 C49 1_555 1_555
C50 N2 1_555 1_555
H72 C50 1_555 1_555
H73 C50 1_555 1_555
H74 C50 1_555 1_555
C22 C23 1_555 1_555
C47 C48 1_555 1_555

#END
