
#######################################################################
#
#                 Cambridge Crystallographic Data Centre
#                                CCDC 
#
#######################################################################
#
# If this CIF has been generated from an entry in the Cambridge 
# Structural Database, then it will include bibliographic, chemical, 
# crystal, experimental, refinement or atomic coordinate data resulting 
# from the CCDC's data processing and validation procedures.
#
#######################################################################

data_GIDJAF
_chemical_formula_moiety         'C23 H31 N1 O2 Si1'
_chemical_name_systematic        
4-Methyl-3-((4-nitrophenyl)ethynyl)-1-(tri-isopropylsilyl)pent-3-en-1-yne
_symmetry_cell_setting           triclinic
_symmetry_space_group_name_H-M   'P -1'
_symmetry_Int_Tables_number      2
_space_group_name_Hall           '-P 1'
loop_
_symmetry_equiv_pos_site_id
_symmetry_equiv_pos_as_xyz
1 x,y,z
2 -x,-y,-z
_cell_length_a                   7.7041(5)
_cell_length_b                   11.2582(8)
_cell_length_c                   13.1958(9)
_cell_angle_alpha                84.7476(12)
_cell_angle_beta                 82.7816(16)
_cell_angle_gamma                77.0706(12)
_cell_volume                     1104.29
_exptl_crystal_colour            'pale yellow'
_exptl_crystal_description       prism
_chemical_melting_point          70-72deg.C
_cell_formula_units_Z            2
loop_
_atom_site_label
_atom_site_type_symbol
_atom_site_fract_x
_atom_site_fract_y
_atom_site_fract_z
Si1 Si 0.25101(6) 0.29125(4) -0.15552(3)
O1 O -1.2045(2) 0.92020(17) -0.21498(15)
O2 O -1.1651(2) 0.9945(2) -0.37127(18)
N1 N -1.1095(2) 0.93536(18) -0.29437(17)
C1 C 0.1153(2) 0.41867(16) -0.22856(13)
C2 C 0.0426(2) 0.49881(16) -0.28649(12)
C3 C -0.0354(2) 0.59271(16) -0.35962(13)
C4 C 0.0631(2) 0.62551(16) -0.44644(13)
C5 C 0.2559(2) 0.56612(19) -0.47042(14)
H1 H 0.2960 0.5095 -0.4129
H2 H 0.3277 0.6288 -0.4820
H3 H 0.2706 0.5211 -0.5321
C6 C -0.0156(3) 0.72321(19) -0.52274(14)
H4 H -0.1382 0.7611 -0.4963
H5 H -0.0172 0.6871 -0.5873
H6 H 0.0571 0.7853 -0.5345
C7 C -0.2213(2) 0.65061(16) -0.33793(13)
C8 C -0.3757(2) 0.70064(17) -0.32363(13)
C9 C 0.2544(2) 0.33666(17) -0.02179(13)
H7 H 0.1428 0.3196 0.0186
C10 C 0.2482(3) 0.47261(19) -0.01351(15)
H8 H 0.1475 0.5220 -0.0475
H9 H 0.3604 0.4924 -0.0465
H10 H 0.2327 0.4904 0.0588
C11 C 0.4116(3) 0.2581(2) 0.03142(16)
H11 H 0.4149 0.1715 0.0254
H12 H 0.3960 0.2751 0.1039
H13 H 0.5242 0.2777 -0.0012
C12 C 0.1447(3) 0.15571(18) -0.15320(15)
H14 H 0.1324 0.1439 -0.2260
C13 C 0.2622(3) 0.0371(2) -0.1116(2)
H15 H 0.3820 0.0251 -0.1493
H16 H 0.2084 -0.0319 -0.1200
H17 H 0.2711 0.0425 -0.0388
C14 C -0.0443(3) 0.1777(2) -0.0966(2)
H18 H -0.1164 0.2538 -0.1247
H19 H -0.0378 0.1840 -0.0236
H20 H -0.0998 0.1095 -0.1051
C15 C 0.4799(2) 0.25941(17) -0.23021(14)
H21 H 0.5569 0.1911 -0.1918
C16 C 0.5699(2) 0.3692(2) -0.24005(15)
H22 H 0.5740 0.3955 -0.1718
H23 H 0.5011 0.4365 -0.2807
H24 H 0.6921 0.3458 -0.2739
C17 C 0.4725(3) 0.2163(2) -0.33658(15)
H25 H 0.4145 0.1464 -0.3291
H26 H 0.5944 0.1921 -0.3706
H27 H 0.4037 0.2830 -0.3778
C18 C -0.5613(2) 0.76249(16) -0.31323(13)
C19 C -0.6844(2) 0.72163(17) -0.23835(14)
H28 H -0.6446 0.6539 -0.1922
C20 C -0.8630(2) 0.77926(18) -0.23132(14)
H29 H -0.9465 0.7524 -0.1801
C21 C -0.9184(2) 0.87596(18) -0.29939(15)
C22 C -0.8006(3) 0.91835(19) -0.37490(16)
H30 H -0.8422 0.9847 -0.4219
C23 C -0.6221(3) 0.86189(18) -0.38001(15)
H31 H -0.5390 0.8912 -0.4300
loop_
_geom_bond_atom_site_label_1
_geom_bond_atom_site_label_2
_geom_bond_site_symmetry_1
_geom_bond_site_symmetry_2
Si1 C1 1_555 1_555
O1 N1 1_555 1_555
O2 N1 1_555 1_555
N1 C21 1_555 1_555
C1 C2 1_555 1_555
C2 C3 1_555 1_555
C3 C4 1_555 1_555
C4 C5 1_555 1_555
C5 H1 1_555 1_555
H2 C5 1_555 1_555
H3 C5 1_555 1_555
C6 C4 1_555 1_555
H4 C6 1_555 1_555
H5 C6 1_555 1_555
H6 C6 1_555 1_555
C7 C3 1_555 1_555
C8 C7 1_555 1_555
C9 Si1 1_555 1_555
H7 C9 1_555 1_555
C10 C9 1_555 1_555
H8 C10 1_555 1_555
H9 C10 1_555 1_555
H10 C10 1_555 1_555
C11 C9 1_555 1_555
H11 C11 1_555 1_555
H12 C11 1_555 1_555
H13 C11 1_555 1_555
C12 Si1 1_555 1_555
H14 C12 1_555 1_555
C13 C12 1_555 1_555
H15 C13 1_555 1_555
H16 C13 1_555 1_555
H17 C13 1_555 1_555
C14 C12 1_555 1_555
H18 C14 1_555 1_555
H19 C14 1_555 1_555
H20 C14 1_555 1_555
C15 Si1 1_555 1_555
H21 C15 1_555 1_555
C16 C15 1_555 1_555
H22 C16 1_555 1_555
H23 C16 1_555 1_555
H24 C16 1_555 1_555
C17 C15 1_555 1_555
H25 C17 1_555 1_555
H26 C17 1_555 1_555
H27 C17 1_555 1_555
C18 C8 1_555 1_555
C19 C18 1_555 1_555
H28 C19 1_555 1_555
C20 C19 1_555 1_555
H29 C20 1_555 1_555
C21 C20 1_555 1_555
C22 C21 1_555 1_555
H30 C22 1_555 1_555
C23 C18 1_555 1_555
H31 C23 1_555 1_555
C22 C23 1_555 1_555

#END
