
#######################################################################
#
#                 Cambridge Crystallographic Data Centre
#                                CCDC 
#
#######################################################################
#
# If this CIF has been generated from an entry in the Cambridge 
# Structural Database, then it will include bibliographic, chemical, 
# crystal, experimental, refinement or atomic coordinate data resulting 
# from the CCDC's data processing and validation procedures.
#
#######################################################################

data_GIDLIR
_chemical_formula_moiety         'C25 H27 F1 N2 O3 S1'
_chemical_name_systematic        
N-[3-(2-fluoro-1-oxo-1,2,3,4-tetrahydronaphthalen-2-yl)-2-oxo-1-(prop-2-en-1-yl)-2,3-dihydro-1H-indol-3-yl]-2-methylpropane-2-sulfinamide
_symmetry_cell_setting           orthorhombic
_symmetry_space_group_name_H-M   'P 21 21 21'
_symmetry_Int_Tables_number      19
_space_group_name_Hall           'P 2ac 2ab'
loop_
_symmetry_equiv_pos_site_id
_symmetry_equiv_pos_as_xyz
1 x,y,z
2 1/2-x,-y,1/2+z
3 -x,1/2+y,1/2-z
4 1/2+x,1/2-y,-z
_cell_length_a                   9.955(2)
_cell_length_b                   11.951(2)
_cell_length_c                   19.408(3)
_cell_angle_alpha                90
_cell_angle_beta                 90
_cell_angle_gamma                90
_cell_volume                     2309.01
_exptl_crystal_colour            colorless
_exptl_crystal_description       prismatic
_cell_formula_units_Z            4
loop_
_atom_site_label
_atom_site_type_symbol
_atom_site_fract_x
_atom_site_fract_y
_atom_site_fract_z
S1 S 0.20770(6) 0.41343(4) 0.66340(2)
F1 F 0.20816(13) 0.66897(13) 0.52703(7)
N1 N 0.58489(17) 0.50899(14) 0.60658(9)
N2 N 0.2573(2) 0.54255(15) 0.64999(10)
O1 O 0.52448(17) 0.64394(13) 0.68512(8)
O2 O 0.21015(19) 0.76347(13) 0.66295(10)
O3 O 0.0734(2) 0.39677(19) 0.63262(9)
C1 C 0.5228(2) 0.45210(16) 0.55174(10)
C2 C 0.5794(3) 0.37628(19) 0.50666(12)
H1 H 0.6692 0.3557 0.5103
C3 C 0.4975(3) 0.3319(2) 0.45567(12)
H2 H 0.5336 0.2815 0.4242
C4 C 0.3633(3) 0.3609(2) 0.45072(12)
H3 H 0.3100 0.3286 0.4168
C5 C 0.3077(3) 0.4380(2) 0.49619(11)
H4 H 0.2177 0.4582 0.4928
C6 C 0.3888(2) 0.48399(16) 0.54643(10)
C7 C 0.36051(19) 0.57283(16) 0.60007(9)
C8 C 0.49903(19) 0.58234(16) 0.63714(9)
C9 C 0.7176(2) 0.48202(18) 0.63336(13)
H5 H 0.7457 0.5411 0.6644
H6 H 0.7808 0.4799 0.5953
C10 C 0.7232(2) 0.37264(19) 0.67085(12)
H7 H 0.8077 0.3471 0.6839
C11 C 0.6209(3) 0.3098(2) 0.68685(13)
H8 H 0.5344 0.3319 0.6748
H9 H 0.6343 0.2429 0.7103
C12 C 0.32754(19) 0.68676(18) 0.56515(11)
C13 C 0.4353(2) 0.7227(2) 0.51465(12)
H10 H 0.4435 0.6671 0.4785
H11 H 0.5210 0.7275 0.5383
C14 C 0.4014(2) 0.8361(2) 0.48278(12)
H12 H 0.4704 0.8566 0.4498
H13 H 0.3165 0.8310 0.4584
C15 C 0.3919(2) 0.92396(19) 0.53738(11)
C16 C 0.4348(2) 1.0339(2) 0.52708(13)
H14 H 0.4715 1.0543 0.4848
C17 C 0.4237(3) 1.1121(2) 0.57828(15)
H15 H 0.4541 1.1846 0.5706
C18 C 0.3678(3) 1.0848(2) 0.64122(15)
H16 H 0.3606 1.1385 0.6757
C19 C 0.3229(3) 0.9772(2) 0.65252(13)
H17 H 0.2835 0.9586 0.6944
C20 C 0.3363(2) 0.89672(18) 0.60159(12)
C21 C 0.2871(2) 0.78218(18) 0.61544(12)
C22 C 0.1767(2) 0.4219(2) 0.75730(10)
C23 C 0.0735(3) 0.5117(3) 0.77225(15)
H18 H -0.0004 0.5043 0.7408
H19 H 0.1138 0.5841 0.7668
H20 H 0.0415 0.5036 0.8187
C24 C 0.1212(4) 0.3063(3) 0.77548(17)
H21 H 0.0997 0.3039 0.8237
H22 H 0.1875 0.2504 0.7653
H23 H 0.0416 0.2922 0.7489
C25 C 0.3102(3) 0.4432(3) 0.79293(13)
H24 H 0.3471 0.5128 0.7770
H25 H 0.3713 0.3835 0.7824
H26 H 0.2965 0.4468 0.8418
H27 H 0.214(3) 0.597(2) 0.6681(15)
loop_
_geom_bond_atom_site_label_1
_geom_bond_atom_site_label_2
_geom_bond_site_symmetry_1
_geom_bond_site_symmetry_2
S1 N2 1_555 1_555
F1 C12 1_555 1_555
N1 C1 1_555 1_555
N2 C7 1_555 1_555
O1 C8 1_555 1_555
O2 C21 1_555 1_555
O3 S1 1_555 1_555
C1 C2 1_555 1_555
C2 H1 1_555 1_555
C3 C2 1_555 1_555
H2 C3 1_555 1_555
C4 C3 1_555 1_555
H3 C4 1_555 1_555
C5 C4 1_555 1_555
H4 C5 1_555 1_555
C6 C1 1_555 1_555
C7 C6 1_555 1_555
C8 N1 1_555 1_555
C9 N1 1_555 1_555
H5 C9 1_555 1_555
H6 C9 1_555 1_555
C10 C9 1_555 1_555
H7 C10 1_555 1_555
C11 C10 1_555 1_555
H8 C11 1_555 1_555
H9 C11 1_555 1_555
C12 C7 1_555 1_555
C13 C12 1_555 1_555
H10 C13 1_555 1_555
H11 C13 1_555 1_555
C14 C13 1_555 1_555
H12 C14 1_555 1_555
H13 C14 1_555 1_555
C15 C14 1_555 1_555
C16 C15 1_555 1_555
H14 C16 1_555 1_555
C17 C16 1_555 1_555
H15 C17 1_555 1_555
C18 C17 1_555 1_555
H16 C18 1_555 1_555
C19 C18 1_555 1_555
H17 C19 1_555 1_555
C20 C15 1_555 1_555
C21 C12 1_555 1_555
C22 S1 1_555 1_555
C23 C22 1_555 1_555
H18 C23 1_555 1_555
H19 C23 1_555 1_555
H20 C23 1_555 1_555
C24 C22 1_555 1_555
H21 C24 1_555 1_555
H22 C24 1_555 1_555
H23 C24 1_555 1_555
C25 C22 1_555 1_555
H24 C25 1_555 1_555
H25 C25 1_555 1_555
H26 C25 1_555 1_555
H27 N2 1_555 1_555
C5 C6 1_555 1_555
C7 C8 1_555 1_555
C19 C20 1_555 1_555
C20 C21 1_555 1_555

#END
