
#######################################################################
#
#                 Cambridge Crystallographic Data Centre
#                                CCDC 
#
#######################################################################
#
# If this CIF has been generated from an entry in the Cambridge 
# Structural Database, then it will include bibliographic, chemical, 
# crystal, experimental, refinement or atomic coordinate data resulting 
# from the CCDC's data processing and validation procedures.
#
#######################################################################

data_GIDMOW
_chemical_formula_moiety         'C28 H30 N4 2+,2(C1 N1 S1 1-),2(H2 O1)'
_chemical_name_systematic        
'1,4-bis(1-Benzylpyridinium-4-yl)piperazine bis(thiocyanate) dihydrate'
_symmetry_cell_setting           orthorhombic
_symmetry_space_group_name_H-M   'P n n m'
_symmetry_Int_Tables_number      58
_space_group_name_Hall           '-P 2 2n'
loop_
_symmetry_equiv_pos_site_id
_symmetry_equiv_pos_as_xyz
1 x,y,z
2 -x,-y,z
3 1/2-x,1/2+y,1/2-z
4 1/2+x,1/2-y,1/2-z
5 -x,-y,-z
6 x,y,-z
7 1/2+x,1/2-y,1/2+z
8 1/2-x,1/2+y,1/2+z
_cell_length_a                   41.0460(8)
_cell_length_b                   4.5649(5)
_cell_length_c                   7.978(4)
_cell_angle_alpha                90
_cell_angle_beta                 90
_cell_angle_gamma                90
_cell_volume                     1494.84
_exptl_crystal_colour            colorless
_cell_formula_units_Z            2
loop_
_atom_site_label
_atom_site_type_symbol
_atom_site_fract_x
_atom_site_fract_y
_atom_site_fract_z
N1 N 0.03380(8) 0.4338(9) 0.5000
N2 N 0.12047(7) -0.0353(7) 0.5000
C1 C 0.01753(7) 0.5395(9) 0.6516(6)
H1 H 0.0197 0.7507 0.6584
H2 H 0.0280 0.4549 0.7493
C2 C 0.06252(8) 0.2909(9) 0.5000
C3 C 0.07845(7) 0.2069(8) 0.6489(5)
H3 H 0.0697 0.2612 0.7520
C4 C 0.10645(7) 0.0471(8) 0.6434(5)
H4 H 0.1162 -0.0070 0.7440
C5 C 0.15175(9) -0.2024(9) 0.5000
H5 H 0.1527 -0.3254 0.4025
C6 C 0.18033(9) 0.0041(8) 0.5000
C7 C 0.19320(7) 0.1022(7) 0.6494(4)
H6 H 0.1845 0.0372 0.7505
C8 C 0.21893(8) 0.2970(8) 0.6490(5)
H7 H 0.2276 0.3644 0.7496
C9 C 0.23161(11) 0.3898(12) 0.5000
H8 H 0.2492 0.5186 0.5000
N1D N -0.03380(8) 0.5662(9) 0.5000
N2D N -0.12047(7) 1.0353(7) 0.5000
C1A C -0.01753(7) 0.4605(9) 0.6516(6)
C1D C -0.01753(7) 0.4605(9) 0.3484(6)
C1E C 0.01753(7) 0.5395(9) 0.3484(6)
H1E H 0.0197 0.7507 0.3416
H1D H -0.0197 0.2493 0.3416
H1A H -0.0197 0.2493 0.6584
H2E H 0.0280 0.4549 0.2507
H2D H -0.0280 0.5451 0.2507
H2A H -0.0280 0.5451 0.7493
C2D C -0.06252(8) 0.7091(9) 0.5000
C3E C 0.07845(7) 0.2069(8) 0.3511(5)
C3A C -0.07845(7) 0.7931(8) 0.6489(5)
C3D C -0.07845(7) 0.7931(8) 0.3511(5)
H3E H 0.0697 0.2612 0.2480
H3A H -0.0697 0.7388 0.7520
H3D H -0.0697 0.7388 0.2480
C4E C 0.10645(7) 0.0471(8) 0.3566(5)
C4A C -0.10645(7) 0.9529(8) 0.6434(5)
C4D C -0.10645(7) 0.9529(8) 0.3566(5)
H4E H 0.1162 -0.0070 0.2560
H4D H -0.1162 1.0070 0.2560
H4A H -0.1162 1.0070 0.7440
C5D C -0.15175(9) 1.2024(9) 0.5000
H5E H 0.1527 -0.3254 0.5975
H5A H -0.1527 1.3254 0.4025
H5D H -0.1527 1.3254 0.5975
C6D C -0.18033(9) 0.9959(8) 0.5000
C7E C 0.19320(7) 0.1022(7) 0.3506(4)
C7A C -0.19320(7) 0.8978(7) 0.6494(4)
C7D C -0.19320(7) 0.8978(7) 0.3506(4)
H6E H 0.1845 0.0372 0.2495
H6A H -0.1845 0.9628 0.7505
H6D H -0.1845 0.9628 0.2495
C8E C 0.21893(8) 0.2970(8) 0.3510(5)
C8A C -0.21893(8) 0.7030(8) 0.6490(5)
C8D C -0.21893(8) 0.7030(8) 0.3510(5)
H7E H 0.2276 0.3644 0.2504
H7A H -0.2276 0.6356 0.7496
H7D H -0.2276 0.6356 0.2504
C9D C -0.23161(11) 0.6102(12) 0.5000
H8D H -0.2492 0.4814 0.5000
S1 S 0.14616(4) -0.4596(4) 1.0000
N3 N 0.07952(14) -0.3434(16) 1.0000
C10 C 0.10781(15) -0.3925(13) 1.0000
O1 O 0.03170(10) 0.0964(13) 1.0000
H9 H 0.0264 0.0275 1.0830
H9E H 0.0264 0.0275 0.9170
loop_
_geom_bond_atom_site_label_1
_geom_bond_atom_site_label_2
_geom_bond_site_symmetry_1
_geom_bond_site_symmetry_2
N1 C1 1_555 1_555
N2 C4 1_555 1_555
C1 H1 1_555 1_555
H2 C1 1_555 1_555
C2 N1 1_555 1_555
C3 C2 1_555 1_555
H3 C3 1_555 1_555
C4 C3 1_555 1_555
H4 C4 1_555 1_555
C5 N2 1_555 1_555
H5 C5 1_555 1_555
C6 C5 1_555 1_555
C7 C6 1_555 1_555
H6 C7 1_555 1_555
C8 C7 1_555 1_555
H7 C8 1_555 1_555
C9 C8 1_555 1_555
H8 C9 1_555 1_555
S1 C10 1_555 1_555
N3 C10 1_555 1_555
O1 H9 1_555 1_555
N1D C1A 1_555 1_555
N2D C4A 1_555 1_555
C1A C1 1_555 1_555
C1D N1D 1_555 1_555
C1E N1 1_555 1_555
H1E C1E 1_555 1_555
H1D C1D 1_555 1_555
H1A C1A 1_555 1_555
H2E C1E 1_555 1_555
H2D C1D 1_555 1_555
H2A C1A 1_555 1_555
C2D N1D 1_555 1_555
C3E C2 1_555 1_555
C3A C2D 1_555 1_555
C3D C2D 1_555 1_555
H3E C3E 1_555 1_555
H3A C3A 1_555 1_555
H3D C3D 1_555 1_555
C4E N2 1_555 1_555
C4A C3A 1_555 1_555
C4D N2D 1_555 1_555
H4E C4E 1_555 1_555
H4D C4D 1_555 1_555
H4A C4A 1_555 1_555
C5D N2D 1_555 1_555
H5E C5 1_555 1_555
H5A C5D 1_555 1_555
H5D C5D 1_555 1_555
C6D C5D 1_555 1_555
C7E C6 1_555 1_555
C7A C6D 1_555 1_555
C7D C6D 1_555 1_555
H6E C7E 1_555 1_555
H6A C7A 1_555 1_555
H6D C7D 1_555 1_555
C8E C9 1_555 1_555
C8A C7A 1_555 1_555
C8D C7D 1_555 1_555
H7E C8E 1_555 1_555
H7A C8A 1_555 1_555
H7D C8D 1_555 1_555
C9D C8A 1_555 1_555
H8D C9D 1_555 1_555
H9E O1 1_555 1_555
C1D C1E 1_555 1_555
C3E C4E 1_555 1_555
C3D C4D 1_555 1_555
C7E C8E 1_555 1_555
C8D C9D 1_555 1_555

#END
