
#######################################################################
#
#                 Cambridge Crystallographic Data Centre
#                                CCDC 
#
#######################################################################
#
# If this CIF has been generated from an entry in the Cambridge 
# Structural Database, then it will include bibliographic, chemical, 
# crystal, experimental, refinement or atomic coordinate data resulting 
# from the CCDC's data processing and validation procedures.
#
#######################################################################

data_GIDMIS
_chemical_formula_moiety         'C23 H26 Cl1 F1 N2 O3 S1'
_chemical_name_systematic        
N-[5-chloro-3-(2-fluoro-1-hydroxy-1,2,3,4-tetrahydronaphthalen-2-yl)-1-methyl-2-oxo-2,3-dihydro-1H-indol-3-yl]-2-methylpropane-2-sulfinamide
_symmetry_cell_setting           monoclinic
_symmetry_space_group_name_H-M   'P 21'
_symmetry_Int_Tables_number      4
_space_group_name_Hall           'P 2yb'
loop_
_symmetry_equiv_pos_site_id
_symmetry_equiv_pos_as_xyz
1 x,y,z
2 -x,1/2+y,-z
_cell_length_a                   9.8549(3)
_cell_length_b                   21.1847(7)
_cell_length_c                   11.0552(4)
_cell_angle_alpha                90
_cell_angle_beta                 94.6790(10)
_cell_angle_gamma                90
_cell_volume                     2300.34
_exptl_crystal_colour            colorless
_exptl_crystal_description       prismatic
_cell_formula_units_Z            4
loop_
_atom_site_label
_atom_site_type_symbol
_atom_site_fract_x
_atom_site_fract_y
_atom_site_fract_z
S1 S 0.92841(7) 0.43459(4) 0.81345(7)
Cl1 Cl 0.48458(10) 0.62538(4) 0.78513(9)
F1 F 0.46978(16) 0.34030(9) 0.69607(15)
N1 N 0.6165(3) 0.36849(13) 0.9505(2)
N2 N 0.8159(2) 0.40024(13) 0.7127(3)
O1 O 0.6590(2) 0.43858(11) 0.50855(19)
H1 H 0.6540 0.4425 0.4327
O2 O 0.7399(2) 0.29137(11) 0.8646(2)
O3 O 0.9408(2) 0.50284(12) 0.7854(2)
C1 C 0.5893(3) 0.35987(14) 0.6437(3)
C2 C 0.5416(3) 0.40618(14) 0.5432(3)
H2 H 0.4796 0.4377 0.5774
C3 C 0.4646(3) 0.37361(14) 0.4364(3)
C4 C 0.3885(3) 0.41033(16) 0.3513(3)
H3 H 0.3871 0.4549 0.3611
C5 C 0.3152(3) 0.38352(16) 0.2530(3)
H4 H 0.2660 0.4096 0.1948
C6 C 0.3133(3) 0.31877(16) 0.2390(3)
H5 H 0.2597 0.2998 0.1735
C7 C 0.3900(3) 0.28208(15) 0.3212(3)
H6 H 0.3904 0.2376 0.3104
C8 C 0.4674(3) 0.30829(14) 0.4202(3)
C9 C 0.5491(3) 0.26653(15) 0.5082(3)
H7 H 0.5964 0.2343 0.4623
H8 H 0.4864 0.2443 0.5593
C10 C 0.6543(3) 0.30265(14) 0.5902(3)
H9 H 0.6922 0.2747 0.6563
H10 H 0.7301 0.3163 0.5426
C11 C 0.6787(3) 0.39071(14) 0.7524(3)
C12 C 0.6852(3) 0.34273(15) 0.8608(3)
C13 C 0.5751(3) 0.43035(16) 0.9234(3)
C14 C 0.6116(3) 0.44717(14) 0.8077(3)
C15 C 0.5865(3) 0.50720(16) 0.7660(3)
H11 H 0.6133 0.5199 0.6891
C16 C 0.5210(3) 0.54922(16) 0.8383(3)
C17 C 0.4846(3) 0.53241(16) 0.9521(3)
H12 H 0.4404 0.5622 0.9998
C18 C 0.5123(3) 0.47248(17) 0.9967(3)
H13 H 0.4891 0.4605 1.0752
C19 C 0.5956(4) 0.33654(18) 1.0644(3)
H14 H 0.4992 0.3253 1.0661
H15 H 0.6223 0.3647 1.1326
H16 H 0.6511 0.2981 1.0712
C20 C 1.0850(3) 0.39721(18) 0.7673(3)
C21 C 1.1998(4) 0.4297(3) 0.8451(4)
H17 H 1.2870 0.4103 0.8298
H18 H 1.1843 0.4250 0.9311
H19 H 1.2017 0.4746 0.8244
C22 C 1.0770(4) 0.3275(2) 0.7982(4)
H20 H 1.0042 0.3077 0.7458
H21 H 1.0576 0.3228 0.8833
H22 H 1.1640 0.3072 0.7856
C23 C 1.0994(4) 0.4078(2) 0.6339(4)
H23 H 1.0934 0.4531 0.6161
H24 H 1.0263 0.3856 0.5859
H25 H 1.1877 0.3917 0.6130
H26 H 0.815(3) 0.4161(17) 0.649(3)
S2 S 0.77746(7) 0.51286(4) 0.22938(6)
Cl2 Cl 0.28830(8) 0.55419(4) 0.52611(8)
F2 F 0.77357(17) 0.71995(8) 0.44881(16)
N3 N 0.6364(3) 0.67747(13) 0.1927(2)
N4 N 0.8291(2) 0.56119(13) 0.3421(2)
O4 O 0.8355(2) 0.56891(10) 0.5859(2)
H27 H 0.8703 0.5580 0.6546
O5 O 0.8669(2) 0.67045(12) 0.1813(2)
O6 O 0.6812(2) 0.46459(11) 0.27132(19)
C24 C 0.8341(3) 0.65969(14) 0.4569(3)
C25 C 0.8116(3) 0.63568(14) 0.5850(3)
H28 H 0.7142 0.6431 0.6001
C26 C 0.9009(3) 0.66876(14) 0.6839(3)
C27 C 0.8711(3) 0.65990(16) 0.8035(3)
H29 H 0.7950 0.6347 0.8201
C28 C 0.9502(4) 0.68710(19) 0.8987(3)
H30 H 0.9296 0.6802 0.9801
C29 C 1.0594(4) 0.7244(2) 0.8739(3)
H31 H 1.1133 0.7441 0.9384
C30 C 1.0902(4) 0.7332(2) 0.7563(3)
H32 H 1.1665 0.7584 0.7406
C31 C 1.0118(3) 0.70576(16) 0.6593(3)
C32 C 1.0471(3) 0.71669(18) 0.5313(3)
H33 H 1.1473 0.7165 0.5293
H34 H 1.0136 0.7588 0.5042
C33 C 0.9855(3) 0.66663(16) 0.4431(3)
H35 H 0.9998 0.6791 0.3588
H36 H 1.0316 0.6257 0.4599
C34 C 0.7579(3) 0.62130(14) 0.3517(3)
C35 C 0.7654(3) 0.65894(15) 0.2315(3)
C36 C 0.5399(3) 0.65209(14) 0.2646(3)
C37 C 0.6045(3) 0.61746(14) 0.3602(3)
C38 C 0.5285(3) 0.58645(14) 0.4404(3)
H37 H 0.5708 0.5622 0.5052
C39 C 0.3869(3) 0.59179(15) 0.4232(3)
C40 C 0.3236(3) 0.62610(16) 0.3293(3)
H38 H 0.2271 0.6290 0.3209
C41 C 0.4000(3) 0.65651(16) 0.2467(3)
H39 H 0.3574 0.6795 0.1803
C42 C 0.6046(4) 0.71620(18) 0.0853(3)
H40 H 0.6889 0.7266 0.0483
H41 H 0.5600 0.7552 0.1085
H42 H 0.5436 0.6929 0.0268
C43 C 0.9417(3) 0.47179(16) 0.2202(3)
C44 C 0.9100(4) 0.41422(18) 0.1419(3)
H43 H 0.9952 0.3943 0.1222
H44 H 0.8574 0.4269 0.0668
H45 H 0.8569 0.3841 0.1860
C45 C 1.0328(4) 0.51843(19) 0.1598(4)
H46 H 1.0422 0.5571 0.2085
H47 H 0.9920 0.5287 0.0783
H48 H 1.1227 0.4995 0.1537
C46 C 0.9979(4) 0.45161(18) 0.3460(3)
H49 H 0.9266 0.4299 0.3869
H50 H 1.0284 0.4889 0.3931
H51 H 1.0750 0.4229 0.3394
H52 H 0.846(4) 0.5431(17) 0.412(4)
loop_
_geom_bond_atom_site_label_1
_geom_bond_atom_site_label_2
_geom_bond_site_symmetry_1
_geom_bond_site_symmetry_2
S1 N2 1_555 1_555
Cl1 C16 1_555 1_555
F1 C1 1_555 1_555
N1 C12 1_555 1_555
N2 C11 1_555 1_555
O1 H1 1_555 1_555
O2 C12 1_555 1_555
O3 S1 1_555 1_555
C1 C2 1_555 1_555
C2 O1 1_555 1_555
H2 C2 1_555 1_555
C3 C2 1_555 1_555
C4 C3 1_555 1_555
H3 C4 1_555 1_555
C5 C4 1_555 1_555
H4 C5 1_555 1_555
C6 C5 1_555 1_555
H5 C6 1_555 1_555
C7 C6 1_555 1_555
H6 C7 1_555 1_555
C8 C3 1_555 1_555
C9 C8 1_555 1_555
H7 C9 1_555 1_555
H8 C9 1_555 1_555
C10 C1 1_555 1_555
H9 C10 1_555 1_555
H10 C10 1_555 1_555
C11 C1 1_555 1_555
C12 C11 1_555 1_555
C13 N1 1_555 1_555
C14 C11 1_555 1_555
C15 C14 1_555 1_555
H11 C15 1_555 1_555
C16 C15 1_555 1_555
C17 C16 1_555 1_555
H12 C17 1_555 1_555
C18 C13 1_555 1_555
H13 C18 1_555 1_555
C19 N1 1_555 1_555
H14 C19 1_555 1_555
H15 C19 1_555 1_555
H16 C19 1_555 1_555
C20 S1 1_555 1_555
C21 C20 1_555 1_555
H17 C21 1_555 1_555
H18 C21 1_555 1_555
H19 C21 1_555 1_555
C22 C20 1_555 1_555
H20 C22 1_555 1_555
H21 C22 1_555 1_555
H22 C22 1_555 1_555
C23 C20 1_555 1_555
H23 C23 1_555 1_555
H24 C23 1_555 1_555
H25 C23 1_555 1_555
H26 N2 1_555 1_555
S2 N4 1_555 1_555
Cl2 C39 1_555 1_555
F2 C24 1_555 1_555
N3 C35 1_555 1_555
N4 C34 1_555 1_555
O4 H27 1_555 1_555
O5 C35 1_555 1_555
O6 S2 1_555 1_555
C24 C25 1_555 1_555
C25 O4 1_555 1_555
H28 C25 1_555 1_555
C26 C25 1_555 1_555
C27 C26 1_555 1_555
H29 C27 1_555 1_555
C28 C27 1_555 1_555
H30 C28 1_555 1_555
C29 C28 1_555 1_555
H31 C29 1_555 1_555
C30 C29 1_555 1_555
H32 C30 1_555 1_555
C31 C26 1_555 1_555
C32 C31 1_555 1_555
H33 C32 1_555 1_555
H34 C32 1_555 1_555
C33 C24 1_555 1_555
H35 C33 1_555 1_555
H36 C33 1_555 1_555
C34 C24 1_555 1_555
C35 C34 1_555 1_555
C36 N3 1_555 1_555
C37 C34 1_555 1_555
C38 C37 1_555 1_555
H37 C38 1_555 1_555
C39 C38 1_555 1_555
C40 C39 1_555 1_555
H38 C40 1_555 1_555
C41 C36 1_555 1_555
H39 C41 1_555 1_555
C42 N3 1_555 1_555
H40 C42 1_555 1_555
H41 C42 1_555 1_555
H42 C42 1_555 1_555
C43 S2 1_555 1_555
C44 C43 1_555 1_555
H43 C44 1_555 1_555
H44 C44 1_555 1_555
H45 C44 1_555 1_555
C45 C43 1_555 1_555
H46 C45 1_555 1_555
H47 C45 1_555 1_555
H48 C45 1_555 1_555
C46 C43 1_555 1_555
H49 C46 1_555 1_555
H50 C46 1_555 1_555
H51 C46 1_555 1_555
H52 N4 1_555 1_555
C7 C8 1_555 1_555
C9 C10 1_555 1_555
C13 C14 1_555 1_555
C17 C18 1_555 1_555
C30 C31 1_555 1_555
C32 C33 1_555 1_555
C36 C37 1_555 1_555
C40 C41 1_555 1_555

#END
