
#######################################################################
#
#                 Cambridge Crystallographic Data Centre
#                                CCDC 
#
#######################################################################
#
# If this CIF has been generated from an entry in the Cambridge 
# Structural Database, then it will include bibliographic, chemical, 
# crystal, experimental, refinement or atomic coordinate data resulting 
# from the CCDC's data processing and validation procedures.
#
#######################################################################

data_GIDNIT
_chemical_formula_moiety         '2(C6 H9 N2 O2 1+),Cl6 Te1 2-'
_chemical_name_systematic        
'bis(1-(carboxymethyl)-3-methylimidazolium) hexachloro-tellurium'
_symmetry_cell_setting           monoclinic
_symmetry_space_group_name_H-M   'P 21/n'
_symmetry_Int_Tables_number      14
_space_group_name_Hall           '-P 2yn'
loop_
_symmetry_equiv_pos_site_id
_symmetry_equiv_pos_as_xyz
1 x,y,z
2 1/2-x,1/2+y,1/2-z
3 -x,-y,-z
4 1/2+x,1/2-y,1/2+z
_cell_length_a                   9.9973(15)
_cell_length_b                   9.3938(10)
_cell_length_c                   12.4418(18)
_cell_angle_alpha                90
_cell_angle_beta                 103.625(15)
_cell_angle_gamma                90
_cell_volume                     1135.56
_exptl_crystal_colour            yellow
_exptl_crystal_description       rod
_cell_formula_units_Z            2
loop_
_atom_site_label
_atom_site_type_symbol
_atom_site_fract_x
_atom_site_fract_y
_atom_site_fract_z
Te1 Te 0.500000 0.500000 0.500000
Cl1 Cl 0.33510(10) 0.70868(9) 0.45356(8)
Cl2 Cl 0.50816(11) 0.54121(11) 0.70331(8)
Cl3 Cl 0.70085(9) 0.66661(9) 0.51085(8)
Cl1B Cl 0.66490(10) 0.29132(9) 0.54644(8)
Cl2B Cl 0.49184(11) 0.45879(11) 0.29669(8)
Cl3B Cl 0.29915(9) 0.33339(9) 0.48915(8)
O1 O 0.3250(3) 0.4847(3) 0.9030(3)
H1 H 0.370(4) 0.535(4) 0.951(4)
O2 O 0.5039(3) 0.3378(3) 0.9604(2)
N1 N 0.5345(3) -0.0020(3) 0.7451(3)
N2 N 0.3991(3) 0.1427(3) 0.8008(2)
C1 C 0.4916(4) -0.0670(4) 0.8289(3)
H2 H 0.516388 -0.157571 0.856778
C2 C 0.4076(4) 0.0226(4) 0.8638(3)
H3 H 0.363141 0.006408 0.920469
C3 C 0.4777(3) 0.1251(4) 0.7300(3)
H4 H 0.490765 0.191573 0.678056
C4 C 0.6237(4) -0.0640(4) 0.6785(3)
H5 H 0.573295 -0.134813 0.629614
H6 H 0.702537 -0.107161 0.726562
H7 H 0.653365 0.009587 0.635819
C5 C 0.3195(3) 0.2690(3) 0.8097(3)
H8 H 0.232148 0.241138 0.824532
H9 H 0.300396 0.319596 0.739744
C6 C 0.3937(4) 0.3667(4) 0.9001(3)
loop_
_geom_bond_atom_site_label_1
_geom_bond_atom_site_label_2
_geom_bond_site_symmetry_1
_geom_bond_site_symmetry_2
Te1 Cl1 1_555 1_555
Cl2 Te1 1_555 1_555
Cl3 Te1 1_555 1_555
O1 H1 1_555 1_555
O2 C6 1_555 1_555
N1 C1 1_555 1_555
N2 C2 1_555 1_555
C1 H2 1_555 1_555
C2 C1 1_555 1_555
H3 C2 1_555 1_555
C3 N1 1_555 1_555
H4 C3 1_555 1_555
C4 N1 1_555 1_555
H5 C4 1_555 1_555
H6 C4 1_555 1_555
H7 C4 1_555 1_555
C5 N2 1_555 1_555
H8 C5 1_555 1_555
H9 C5 1_555 1_555
C6 O1 1_555 1_555
Cl1B Te1 1_555 1_555
Cl2B Te1 1_555 1_555
Cl3B Te1 1_555 1_555
N2 C3 1_555 1_555
C5 C6 1_555 1_555

#END
