
#######################################################################
#
#                 Cambridge Crystallographic Data Centre
#                                CCDC 
#
#######################################################################
#
# If this CIF has been generated from an entry in the Cambridge 
# Structural Database, then it will include bibliographic, chemical, 
# crystal, experimental, refinement or atomic coordinate data resulting 
# from the CCDC's data processing and validation procedures.
#
#######################################################################

data_GIDNUF
_chemical_formula_moiety         '2(C7 H10 N1 1+),Cl6 Te1 2-'
_chemical_name_systematic        'bis(N-ethylpyridinium) hexachloro-tellurium'
_symmetry_cell_setting           monoclinic
_symmetry_space_group_name_H-M   'P 21/n'
_symmetry_Int_Tables_number      14
_space_group_name_Hall           '-P 2yn'
loop_
_symmetry_equiv_pos_site_id
_symmetry_equiv_pos_as_xyz
1 x,y,z
2 1/2-x,1/2+y,1/2-z
3 -x,-y,-z
4 1/2+x,1/2-y,1/2+z
_cell_length_a                   9.2120(5)
_cell_length_b                   11.7683(5)
_cell_length_c                   10.1842(6)
_cell_angle_alpha                90
_cell_angle_beta                 102.240(5)
_cell_angle_gamma                90
_cell_volume                     1078.97
_exptl_crystal_colour            yellow
_exptl_crystal_description       block
_cell_formula_units_Z            2
loop_
_atom_site_label
_atom_site_type_symbol
_atom_site_fract_x
_atom_site_fract_y
_atom_site_fract_z
Te1 Te 0.000000 0.500000 0.000000
Cl1 Cl 0.14557(11) 0.43641(8) -0.17204(10)
Cl2 Cl 0.08793(11) 0.32494(7) 0.13843(10)
Cl3 Cl 0.21925(10) 0.61319(7) 0.12698(9)
Cl1B Cl -0.14557(11) 0.56359(8) 0.17204(10)
Cl2B Cl -0.08793(11) 0.67506(7) -0.13843(10)
Cl3B Cl -0.21925(10) 0.38681(7) -0.12698(9)
N1 N 0.4059(3) 0.5678(2) 0.6509(3)
C1 C 0.4175(4) 0.4552(3) 0.6395(4)
H1 H 0.494352 0.416210 0.695444
C2 C 0.3173(5) 0.3978(3) 0.5464(4)
H2 H 0.325405 0.319487 0.538286
C3 C 0.2045(5) 0.4551(4) 0.4644(4)
H3 H 0.135810 0.416176 0.399932
C4 C 0.1936(5) 0.5696(4) 0.4780(4)
H4 H 0.117186 0.609742 0.423073
C5 C 0.2952(5) 0.6244(3) 0.5724(4)
H5 H 0.287705 0.702624 0.582538
C6 C 0.5157(5) 0.6301(3) 0.7524(4)
H6 H 0.534458 0.703778 0.716619
H7 H 0.608582 0.588288 0.771176
C7 C 0.4631(6) 0.6463(4) 0.8796(4)
H8 H 0.376459 0.693788 0.863022
H9 H 0.540027 0.681640 0.945296
H10 H 0.438956 0.573778 0.912577
loop_
_geom_bond_atom_site_label_1
_geom_bond_atom_site_label_2
_geom_bond_site_symmetry_1
_geom_bond_site_symmetry_2
Te1 Cl1 1_555 1_555
Cl2 Te1 1_555 1_555
Cl3 Te1 1_555 1_555
N1 C1 1_555 1_555
C1 H1 1_555 1_555
C2 C1 1_555 1_555
H2 C2 1_555 1_555
C3 C2 1_555 1_555
H3 C3 1_555 1_555
C4 C3 1_555 1_555
H4 C4 1_555 1_555
C5 N1 1_555 1_555
H5 C5 1_555 1_555
C6 N1 1_555 1_555
H6 C6 1_555 1_555
H7 C6 1_555 1_555
C7 C6 1_555 1_555
H8 C7 1_555 1_555
H9 C7 1_555 1_555
H10 C7 1_555 1_555
Cl1B Te1 1_555 1_555
Cl2B Te1 1_555 1_555
Cl3B Te1 1_555 1_555
C4 C5 1_555 1_555

#END
