
#######################################################################
#
#                 Cambridge Crystallographic Data Centre
#                                CCDC 
#
#######################################################################
#
# If this CIF has been generated from an entry in the Cambridge 
# Structural Database, then it will include bibliographic, chemical, 
# crystal, experimental, refinement or atomic coordinate data resulting 
# from the CCDC's data processing and validation procedures.
#
#######################################################################

data_GIDSIY
_chemical_formula_moiety         'C23 H17 N5 O2,C1 H4 O1'
_chemical_name_systematic        
"N,N'-bis(1H-indol-5-yl)pyridine-2,6-dicarboxamide methanol solvate"
_symmetry_cell_setting           monoclinic
_symmetry_space_group_name_H-M   'P 21/c'
_symmetry_Int_Tables_number      14
_space_group_name_Hall           '-P 2ybc'
loop_
_symmetry_equiv_pos_site_id
_symmetry_equiv_pos_as_xyz
1 x,y,z
2 -x,1/2+y,1/2-z
3 -x,-y,-z
4 x,1/2-y,1/2+z
_cell_length_a                   9.6330(6)
_cell_length_b                   11.5958(6)
_cell_length_c                   19.0993(11)
_cell_angle_alpha                90
_cell_angle_beta                 98.991(6)
_cell_angle_gamma                90
_cell_volume                     2107.22
_exptl_crystal_colour            'light colorless'
_cell_formula_units_Z            4
loop_
_atom_site_label
_atom_site_type_symbol
_atom_site_fract_x
_atom_site_fract_y
_atom_site_fract_z
O1 O 0.4849(2) 0.36431(19) 0.14130(11)
O2 O 0.8884(2) 0.61206(19) -0.09527(12)
N1 N 0.4921(3) -0.1503(2) 0.20815(17)
H1 H 0.507(4) -0.175(3) 0.252(2)
N2 N 0.6464(3) 0.2601(2) 0.09461(13)
H2 H 0.7110 0.2613 0.0682
N3 N 0.7161(2) 0.4483(2) 0.02266(12)
N4 N 0.8826(2) 0.4186(2) -0.07819(12)
H3 H 0.8510 0.3667 -0.0526
N5 N 1.1894(3) 0.2564(3) -0.27994(16)
H4 H 1.199(4) 0.187(3) -0.300(2)
C1 C 0.3975(3) -0.1901(3) 0.15336(19)
H5 H 0.3456 -0.2576 0.1542
C2 C 0.3894(3) -0.1174(3) 0.09708(17)
H6 H 0.3336 -0.1264 0.0531
C3 C 0.4833(3) -0.0246(3) 0.11880(15)
C4 C 0.5188(3) 0.0786(3) 0.08711(16)
H7 H 0.4789 0.0963 0.0408
C5 C 0.6127(3) 0.1526(3) 0.12510(16)
C6 C 0.6740(4) 0.1266(3) 0.19450(17)
H8 H 0.7385 0.1777 0.2190
C7 C 0.6409(3) 0.0270(3) 0.22746(17)
H9 H 0.6810 0.0105 0.2739
C8 C 0.5458(3) -0.0475(3) 0.18923(16)
C9 C 0.5812(3) 0.3582(3) 0.10578(15)
C10 C 0.6328(3) 0.4636(3) 0.07229(15)
C11 C 0.5945(3) 0.5706(3) 0.09426(16)
H10 H 0.5363 0.5774 0.1286
C12 C 0.7278(3) 0.6534(3) 0.01267(17)
H11 H 0.7615 0.7174 -0.0088
C13 C 0.6444(3) 0.6676(3) 0.06422(18)
H12 H 0.6219 0.7410 0.0786
C14 C 0.7612(3) 0.5433(3) -0.00701(15)
C15 C 0.8510(3) 0.5270(3) -0.06416(15)
C16 C 0.9620(3) 0.3770(3) -0.13014(15)
C17 C 1.0384(3) 0.4489(3) -0.16774(15)
H13 H 1.0404 0.5280 -0.1598
C18 C 1.1123(3) 0.4005(3) -0.21765(15)
C19 C 1.1064(3) 0.2806(3) -0.22918(17)
C20 C 1.0319(3) 0.2083(3) -0.19089(18)
H14 H 1.0303 0.1291 -0.1984
C21 C 0.9603(3) 0.2571(3) -0.14140(17)
H15 H 0.9100 0.2100 -0.1150
C22 C 1.2036(3) 0.4458(3) -0.26294(17)
H16 H 1.2287 0.5228 -0.2666
C23 C 1.2471(4) 0.3563(3) -0.29968(18)
H17 H 1.3070 0.3622 -0.3332
O3 O 0.9117(3) 0.2196(2) 0.03930(15)
H18 H 0.9695 0.2668 0.0577
C24 C 0.9528(5) 0.1095(4) 0.0632(3)
H19 H 1.0419 0.0912 0.0495
H20 H 0.8838 0.0544 0.0428
H21 H 0.9610 0.1070 0.1140
loop_
_geom_bond_atom_site_label_1
_geom_bond_atom_site_label_2
_geom_bond_site_symmetry_1
_geom_bond_site_symmetry_2
O1 C9 1_555 1_555
O2 C15 1_555 1_555
N1 H1 1_555 1_555
N2 H2 1_555 1_555
N3 C10 1_555 1_555
N4 H3 1_555 1_555
N5 H4 1_555 1_555
C1 N1 1_555 1_555
H5 C1 1_555 1_555
C2 C1 1_555 1_555
H6 C2 1_555 1_555
C3 C2 1_555 1_555
C4 C3 1_555 1_555
H7 C4 1_555 1_555
C5 N2 1_555 1_555
C6 C5 1_555 1_555
H8 C6 1_555 1_555
C7 C6 1_555 1_555
H9 C7 1_555 1_555
C8 N1 1_555 1_555
C9 N2 1_555 1_555
C10 C9 1_555 1_555
C11 C10 1_555 1_555
H10 C11 1_555 1_555
C12 H11 1_555 1_555
C13 C11 1_555 1_555
H12 C13 1_555 1_555
C14 N3 1_555 1_555
C15 N4 1_555 1_555
C16 N4 1_555 1_555
C17 C16 1_555 1_555
H13 C17 1_555 1_555
C18 C17 1_555 1_555
C19 N5 1_555 1_555
C20 C19 1_555 1_555
H14 C20 1_555 1_555
C21 C16 1_555 1_555
H15 C21 1_555 1_555
C22 C18 1_555 1_555
H16 C22 1_555 1_555
C23 N5 1_555 1_555
H17 C23 1_555 1_555
O3 H18 1_555 1_555
C24 O3 1_555 1_555
H19 C24 1_555 1_555
H20 C24 1_555 1_555
H21 C24 1_555 1_555
C3 C8 1_555 1_555
C4 C5 1_555 1_555
C7 C8 1_555 1_555
C12 C13 1_555 1_555
C12 C14 1_555 1_555
C14 C15 1_555 1_555
C18 C19 1_555 1_555
C20 C21 1_555 1_555
C22 C23 1_555 1_555

#END
