
#######################################################################
#
#                 Cambridge Crystallographic Data Centre
#                                CCDC 
#
#######################################################################
#
# If this CIF has been generated from an entry in the Cambridge 
# Structural Database, then it will include bibliographic, chemical, 
# crystal, experimental, refinement or atomic coordinate data resulting 
# from the CCDC's data processing and validation procedures.
#
#######################################################################

data_GIDVUN
_chemical_formula_moiety         'C24 H28 F1 N1 O4 S1'
_chemical_name_systematic        
'ethyl [(t-butylsulfinyl)amino](2-fluoro-1-oxo-1,2,3,4-tetrahydronaphthalen-2-yl)phenylacetate'
_symmetry_cell_setting           orthorhombic
_symmetry_space_group_name_H-M   'P 21 21 21'
_symmetry_Int_Tables_number      19
_space_group_name_Hall           'P 2ac 2ab'
loop_
_symmetry_equiv_pos_site_id
_symmetry_equiv_pos_as_xyz
1 x,y,z
2 1/2-x,-y,1/2+z
3 -x,1/2+y,1/2-z
4 1/2+x,1/2-y,-z
_cell_length_a                   11.5372(4)
_cell_length_b                   12.6828(4)
_cell_length_c                   15.4254(5)
_cell_angle_alpha                90
_cell_angle_beta                 90
_cell_angle_gamma                90
_cell_volume                     2257.11
_exptl_crystal_colour            colorless
_exptl_crystal_description       prismatic
_cell_formula_units_Z            4
loop_
_atom_site_label
_atom_site_type_symbol
_atom_site_fract_x
_atom_site_fract_y
_atom_site_fract_z
S1 S 0.16948(5) 0.73381(4) 0.19051(4)
F1 F 0.44330(12) 0.94130(11) 0.24630(10)
N1 N 0.29886(16) 0.78495(16) 0.21478(12)
O1 O 0.53186(14) 0.74626(16) 0.18172(11)
O2 O 0.46402(14) 0.64941(13) 0.35717(12)
O3 O 0.27278(14) 0.62511(13) 0.34750(11)
O4 O 0.17624(18) 0.61975(13) 0.17041(12)
C1 C 0.7104(2) 0.86180(19) 0.34598(15)
C2 C 0.8255(2) 0.8610(2) 0.37295(15)
H1 H 0.8522 0.9136 0.4120
C3 C 0.9013(2) 0.7848(2) 0.34361(17)
H2 H 0.9793 0.7848 0.3634
C4 C 0.8649(2) 0.7084(2) 0.28560(16)
H3 H 0.9174 0.6557 0.2663
C5 C 0.7515(2) 0.70902(19) 0.25581(15)
H4 H 0.7262 0.6575 0.2153
C6 C 0.67459(19) 0.78595(17) 0.28578(13)
C7 C 0.5553(2) 0.78784(18) 0.25048(15)
C8 C 0.46144(19) 0.85268(18) 0.29955(15)
C9 C 0.5035(2) 0.8935(2) 0.38600(17)
H5 H 0.5053 0.8348 0.4283
H6 H 0.4486 0.9473 0.4078
C10 C 0.6246(2) 0.9420(2) 0.37868(18)
H7 H 0.6222 1.0027 0.3385
H8 H 0.6496 0.9680 0.4362
C11 C 0.34275(18) 0.79214(16) 0.30427(14)
C12 C 0.25695(19) 0.85010(18) 0.36283(14)
C13 C 0.1950(2) 0.93628(18) 0.33240(15)
H9 H 0.2049 0.9591 0.2742
C14 C 0.1187(2) 0.98915(19) 0.38661(17)
H10 H 0.0755 1.0472 0.3648
C15 C 0.1048(2) 0.9586(2) 0.47156(16)
H11 H 0.0522 0.9951 0.5082
C16 C 0.1679(2) 0.87450(19) 0.50319(15)
H12 H 0.1596 0.8536 0.5620
C17 C 0.2430(2) 0.8208(2) 0.44949(15)
H13 H 0.2860 0.7630 0.4718
C18 C 0.36917(19) 0.68120(18) 0.34011(14)
C19 C 0.2859(2) 0.51471(19) 0.37003(17)
H14 H 0.3140 0.5074 0.4304
H15 H 0.3422 0.4802 0.3308
C20 C 0.1691(3) 0.4659(2) 0.36050(17)
H16 H 0.1149 0.4996 0.4008
H17 H 0.1740 0.3904 0.3735
H18 H 0.1416 0.4756 0.3009
C21 C 0.1559(2) 0.79761(18) 0.08290(14)
C22 C 0.2575(2) 0.7672(3) 0.02522(16)
H19 H 0.2410 0.7881 -0.0347
H20 H 0.2692 0.6907 0.0278
H21 H 0.3277 0.8031 0.0453
C23 C 0.0430(2) 0.7530(2) 0.04629(17)
H22 H -0.0198 0.7645 0.0880
H23 H 0.0520 0.6773 0.0357
H24 H 0.0243 0.7888 -0.0083
C24 C 0.1475(2) 0.9162(2) 0.09579(17)
H25 H 0.1305 0.9501 0.0402
H26 H 0.2213 0.9429 0.1184
H27 H 0.0854 0.9319 0.1372
H28 H 0.3478(19) 0.768(2) 0.1815(15)
loop_
_geom_bond_atom_site_label_1
_geom_bond_atom_site_label_2
_geom_bond_site_symmetry_1
_geom_bond_site_symmetry_2
S1 N1 1_555 1_555
F1 C8 1_555 1_555
N1 C11 1_555 1_555
O1 C7 1_555 1_555
O2 C18 1_555 1_555
O3 C18 1_555 1_555
O4 S1 1_555 1_555
C1 C2 1_555 1_555
C2 H1 1_555 1_555
C3 C2 1_555 1_555
H2 C3 1_555 1_555
C4 C3 1_555 1_555
H3 C4 1_555 1_555
C5 C4 1_555 1_555
H4 C5 1_555 1_555
C6 C1 1_555 1_555
C7 C6 1_555 1_555
C8 C7 1_555 1_555
C9 C8 1_555 1_555
H5 C9 1_555 1_555
H6 C9 1_555 1_555
C10 C1 1_555 1_555
H7 C10 1_555 1_555
H8 C10 1_555 1_555
C11 C8 1_555 1_555
C12 C11 1_555 1_555
C13 C12 1_555 1_555
H9 C13 1_555 1_555
C14 C13 1_555 1_555
H10 C14 1_555 1_555
C15 C14 1_555 1_555
H11 C15 1_555 1_555
C16 C15 1_555 1_555
H12 C16 1_555 1_555
C17 C12 1_555 1_555
H13 C17 1_555 1_555
C18 C11 1_555 1_555
C19 O3 1_555 1_555
H14 C19 1_555 1_555
H15 C19 1_555 1_555
C20 C19 1_555 1_555
H16 C20 1_555 1_555
H17 C20 1_555 1_555
H18 C20 1_555 1_555
C21 S1 1_555 1_555
C22 C21 1_555 1_555
H19 C22 1_555 1_555
H20 C22 1_555 1_555
H21 C22 1_555 1_555
C23 C21 1_555 1_555
H22 C23 1_555 1_555
H23 C23 1_555 1_555
H24 C23 1_555 1_555
C24 C21 1_555 1_555
H25 C24 1_555 1_555
H26 C24 1_555 1_555
H27 C24 1_555 1_555
H28 N1 1_555 1_555
C5 C6 1_555 1_555
C9 C10 1_555 1_555
C16 C17 1_555 1_555

#END
