
#######################################################################
#
#                 Cambridge Crystallographic Data Centre
#                                CCDC 
#
#######################################################################
#
# If this CIF has been generated from an entry in the Cambridge 
# Structural Database, then it will include bibliographic, chemical, 
# crystal, experimental, refinement or atomic coordinate data resulting 
# from the CCDC's data processing and validation procedures.
#
#######################################################################

data_GIDXUN
_chemical_formula_moiety         'C27 H29 N5 O10,C1 H2 Cl2'
_chemical_name_systematic        
"N,N'-bis(3,4-bis(Ethoxycarbonyl)-1H-pyrrol-2-yl)pyridine-2,6-dicarboxamide dichloromethane solvate"
_symmetry_cell_setting           triclinic
_symmetry_space_group_name_H-M   'P -1'
_symmetry_Int_Tables_number      2
_space_group_name_Hall           '-P 1'
loop_
_symmetry_equiv_pos_site_id
_symmetry_equiv_pos_as_xyz
1 x,y,z
2 -x,-y,-z
_cell_length_a                   11.6399(4)
_cell_length_b                   12.1551(4)
_cell_length_c                   12.5581(4)
_cell_angle_alpha                75.915(2)
_cell_angle_beta                 72.576(2)
_cell_angle_gamma                76.920(2)
_cell_volume                     1621.52
_exptl_crystal_colour            colorless
_exptl_crystal_description       laths
_cell_formula_units_Z            2
loop_
_atom_site_label
_atom_site_type_symbol
_atom_site_fract_x
_atom_site_fract_y
_atom_site_fract_z
O1 O -0.2338(2) 0.3910(2) 0.57990(19)
O2 O -0.2437(2) 0.6061(2) 0.01119(18)
O3 O 0.4117(2) 0.2756(3) 0.5158(2)
O4 O 0.3117(2) 0.2111(2) 0.69382(19)
O5 O 0.1530(2) 0.3530(2) 0.27242(18)
O6 O 0.3303(2) 0.2951(2) 0.32018(19)
O7 O 0.1159(2) 0.6192(2) 0.15577(19)
O8 O 0.2877(2) 0.6488(3) 0.0193(2)
O9 O 0.3068(2) 0.8355(3) -0.1607(2)
O10 O 0.2507(2) 0.8422(3) -0.3177(2)
N1 N -0.0069(2) 0.3425(3) 0.6165(2)
H1 H -0.0838 0.3562 0.6596
N2 N -0.0584(2) 0.3950(2) 0.4367(2)
H2 H -0.0286 0.4122 0.3609
N3 N -0.1928(2) 0.4900(2) 0.2851(2)
N4 N -0.0798(2) 0.5987(2) 0.0777(2)
H3 H -0.0484 0.5728 0.1383
N5 N -0.0414(2) 0.6931(2) -0.1185(2)
H4 H -0.1104 0.6830 -0.1306
C1 C 0.0941(3) 0.3024(3) 0.6554(3)
H5 H 0.0951 0.2835 0.7340
C2 C 0.1935(3) 0.2929(3) 0.5666(3)
C3 C 0.1514(3) 0.3280(3) 0.4648(3)
C4 C 0.0265(3) 0.3579(3) 0.5012(3)
C5 C -0.1830(3) 0.4082(3) 0.4782(3)
C6 C -0.2502(3) 0.4412(3) 0.3888(3)
C7 C -0.3684(3) 0.4195(3) 0.4158(3)
H6 H -0.4070 0.3871 0.4926
C8 C -0.4298(3) 0.4451(4) 0.3325(3)
H7 H -0.5106 0.4284 0.3480
C9 C -0.3714(3) 0.4970(3) 0.2237(3)
H8 H -0.4104 0.5185 0.1626
C10 C -0.2541(3) 0.5182(3) 0.2044(3)
C11 C -0.1929(3) 0.5770(3) 0.0890(3)
C12 C -0.0090(3) 0.6576(3) -0.0190(3)
C13 C 0.1041(3) 0.6868(3) -0.0342(3)
C14 C 0.1391(3) 0.7468(3) -0.1504(3)
C15 C 0.0475(3) 0.7473(3) -0.1977(3)
H9 H 0.0461 0.7812 -0.2749
C16 C 0.3170(3) 0.2598(3) 0.5841(3)
C17 C 0.4264(3) 0.1780(4) 0.7251(3)
H10 H 0.4629 0.2443 0.7154
H11 H 0.4820 0.1261 0.6790
C18 C 0.3978(4) 0.1210(4) 0.8490(3)
H12 H 0.4707 0.0965 0.8751
H13 H 0.3417 0.1741 0.8935
H14 H 0.3608 0.0554 0.8569
C19 C 0.2103(3) 0.3271(3) 0.3449(3)
C20 C 0.3922(3) 0.2868(4) 0.2023(3)
H15 H 0.4747 0.3000 0.1839
H16 H 0.3500 0.3443 0.1535
C21 C 0.3909(4) 0.1742(5) 0.1804(4)
H17 H 0.4304 0.1689 0.1025
H18 H 0.4339 0.1170 0.2288
H19 H 0.3082 0.1617 0.1982
C22 C 0.1676(3) 0.6508(3) 0.0566(3)
C23 C 0.3548(4) 0.6166(5) 0.1043(4)
H20 H 0.4373 0.5834 0.0720
H21 H 0.3189 0.5613 0.1671
C24 C 0.3549(5) 0.7176(6) 0.1445(5)
H22 H 0.4003 0.6991 0.2008
H23 H 0.3914 0.7723 0.0813
H24 H 0.2721 0.7500 0.1770
C25 C 0.2425(3) 0.8096(3) -0.2055(3)
C26 C 0.3483(5) 0.9127(7) -0.3773(4)
H25 H 0.4291 0.8685 -0.3875
H26 H 0.3415 0.9700 -0.3339
C27 C 0.3204(5) 0.9767(6) -0.4874(6)
H27 H 0.3780 1.0271 -0.5298
H28 H 0.3271 0.9181 -0.5292
H29 H 0.2392 1.0200 -0.4755
C28? C 0.353(2) 0.8556(18) -0.4217(18)
H30? H 0.3639 0.8220 -0.4865
H31? H 0.4253 0.8351 -0.3946
C29? C 0.325(2) 0.9773(19) -0.403(2)
H32? H 0.3838 1.0173 -0.4620
H33? H 0.2500 0.9912 -0.4248
H34? H 0.3108 1.0043 -0.3338
loop_
_geom_bond_atom_site_label_1
_geom_bond_atom_site_label_2
_geom_bond_site_symmetry_1
_geom_bond_site_symmetry_2
O1 C5 1_555 1_555
O2 C11 1_555 1_555
O3 C16 1_555 1_555
O4 C16 1_555 1_555
O5 C19 1_555 1_555
O6 C19 1_555 1_555
O7 C22 1_555 1_555
O8 C22 1_555 1_555
O9 C25 1_555 1_555
O10 C25 1_555 1_555
N1 H1 1_555 1_555
N2 H2 1_555 1_555
N3 C6 1_555 1_555
N4 H3 1_555 1_555
N5 H4 1_555 1_555
C1 N1 1_555 1_555
H5 C1 1_555 1_555
C2 C1 1_555 1_555
C3 C2 1_555 1_555
C4 N1 1_555 1_555
C5 N2 1_555 1_555
C6 C5 1_555 1_555
C7 C6 1_555 1_555
H6 C7 1_555 1_555
C8 C7 1_555 1_555
H7 C8 1_555 1_555
C9 C8 1_555 1_555
H8 C9 1_555 1_555
C10 N3 1_555 1_555
C11 N4 1_555 1_555
C12 N4 1_555 1_555
C13 C12 1_555 1_555
C14 C13 1_555 1_555
C15 N5 1_555 1_555
H9 C15 1_555 1_555
C16 C2 1_555 1_555
C17 O4 1_555 1_555
H10 C17 1_555 1_555
H11 C17 1_555 1_555
C18 C17 1_555 1_555
H12 C18 1_555 1_555
H13 C18 1_555 1_555
H14 C18 1_555 1_555
C19 C3 1_555 1_555
C20 O6 1_555 1_555
H15 C20 1_555 1_555
H16 C20 1_555 1_555
C21 C20 1_555 1_555
H17 C21 1_555 1_555
H18 C21 1_555 1_555
H19 C21 1_555 1_555
C22 C13 1_555 1_555
C23 O8 1_555 1_555
H20 C23 1_555 1_555
H21 C23 1_555 1_555
C24 C23 1_555 1_555
H22 C24 1_555 1_555
H23 C24 1_555 1_555
H24 C24 1_555 1_555
C25 C14 1_555 1_555
C26 O10 1_555 1_555
H25 C26 1_555 1_555
H26 C26 1_555 1_555
C27 C26 1_555 1_555
H27 C27 1_555 1_555
H28 C27 1_555 1_555
H29 C27 1_555 1_555
N2 C4 1_555 1_555
N5 C12 1_555 1_555
C3 C4 1_555 1_555
C9 C10 1_555 1_555
C10 C11 1_555 1_555
C14 C15 1_555 1_555

#END
