
#######################################################################
#
#                 Cambridge Crystallographic Data Centre
#                                CCDC 
#
#######################################################################
#
# If this CIF has been generated from an entry in the Cambridge 
# Structural Database, then it will include bibliographic, chemical, 
# crystal, experimental, refinement or atomic coordinate data resulting 
# from the CCDC's data processing and validation procedures.
#
#######################################################################

data_GIFDIL
_chemical_formula_moiety         'C20 H20 Br1 N1 O3'
_chemical_name_systematic        
'methyl 3-(3-(4-bromobenzyl)-2-oxo-2,3-dihydro-1H-indol-3-yl)butanoate'
_symmetry_cell_setting           triclinic
_symmetry_space_group_name_H-M   'P 1'
_symmetry_Int_Tables_number      1
_space_group_name_Hall           'P 1'
loop_
_symmetry_equiv_pos_site_id
_symmetry_equiv_pos_as_xyz
1 x,y,z
_cell_length_a                   8.5416(4)
_cell_length_b                   10.3731(5)
_cell_length_c                   12.3695(7)
_cell_angle_alpha                109.138(5)
_cell_angle_beta                 103.068(5)
_cell_angle_gamma                105.684(5)
_cell_volume                     935.268
_exptl_crystal_description       block
_cell_formula_units_Z            2
loop_
_atom_site_label
_atom_site_type_symbol
_atom_site_fract_x
_atom_site_fract_y
_atom_site_fract_z
Br1 Br 0.59135(8) 0.75892(8) 0.34891(7)
N1 N 0.5053(6) 0.1123(5) 0.3664(4)
O1 O 0.2140(5) 0.0168(5) 0.2599(4)
C1 C 0.2285(7) 0.0290(6) 0.5214(5)
H1 H 0.2497 0.0775 0.6088
C2 C 0.2954(8) -0.0961(6) 0.5035(5)
H2 H 0.2585 -0.1578 0.4171
H3 H 0.4210 -0.0558 0.5357
C3 C 0.3384(7) 0.3842(6) 0.4591(5)
C4 C 0.5196(7) 0.2147(6) 0.5639(4)
C5 C 0.6173(6) 0.1927(6) 0.4877(4)
C6 C 0.3384(6) 0.0824(5) 0.3563(4)
C7 C 0.3296(6) 0.1460(6) 0.4853(4)
O2 O 0.1253(10) -0.3228(7) 0.4920(5)
C8 C 0.2495(8) 0.2654(7) 0.4924(5)
H4 H 0.1293 0.2172 0.4388
H5 H 0.2507 0.3106 0.5749
O3 O 0.2584(9) -0.1386(8) 0.6763(5)
C9 C 0.4804(10) 0.5083(8) 0.5426(6)
H6 H 0.5245 0.5185 0.6222
C10 C 0.7955(7) 0.2435(7) 0.5318(5)
H7 H 0.8585 0.2273 0.4799
C11 C 0.6032(9) 0.2884(7) 0.6876(5)
H8 H 0.5404 0.3022 0.7399
C12 C 0.4923(8) 0.6069(7) 0.3948(6)
C13 C 0.5583(10) 0.6186(8) 0.5089(6)
H9 H 0.6558 0.7002 0.5653
C14 C 0.7842(9) 0.3423(9) 0.7340(6)
H10 H 0.8424 0.3939 0.8177
C15 C 0.0323(9) -0.0365(11) 0.4564(10)
H11 H -0.0112 0.0413 0.4674
H12 H -0.0211 -0.1003 0.4900
H13 H 0.0058 -0.0918 0.3709
C16 C 0.8765(8) 0.3196(9) 0.6567(6)
H14 H 0.9968 0.3565 0.6893
C17 C 0.2783(9) 0.3750(8) 0.3417(7)
H15 H 0.1830 0.2925 0.2841
C18 C 0.2277(8) -0.1867(8) 0.5672(6)
C19 C 0.3533(9) 0.4822(7) 0.3068(6)
H16 H 0.3124 0.4717 0.2268
C20 C 0.0474(17) -0.4181(12) 0.5443(12)
H17 H -0.0242 -0.5138 0.4806
H18 H -0.0221 -0.3774 0.5855
H19 H 0.1369 -0.4262 0.6015
H20 H 0.556(11) 0.106(10) 0.320(8)
Br2 Br 0.26322(10) -0.66434(8) -0.09834(7)
N2 N 0.8966(5) 0.0245(5) 0.1169(4)
O4 O 0.7420(6) 0.0865(5) 0.2397(3)
C21 C 0.7702(6) 0.0681(6) 0.1446(4)
C22 C 0.6659(6) 0.0870(6) 0.0343(4)
C23 C 0.8906(6) 0.0069(5) -0.0014(4)
C24 C 0.7270(8) 0.0318(7) -0.1729(5)
H21 H 0.6362 0.0533 -0.2103
C25 C 0.7561(6) 0.0389(5) -0.0554(4)
O5 O 0.8047(8) 0.5196(6) 0.0426(6)
C26 C 0.4719(7) -0.0089(6) -0.0109(5)
H22 H 0.4230 0.0350 0.0483
H23 H 0.4151 -0.0053 -0.0866
C27 C 0.4276(6) -0.1686(6) -0.0326(4)
C28 C 0.8820(8) 0.3508(7) 0.1087(6)
H24 H 0.9442 0.3523 0.1854
H25 H 0.9292 0.3058 0.0487
C29 C 0.6913(7) 0.2525(6) 0.0691(5)
H26 H 0.6300 0.2583 -0.0053
C30 C 0.4408(9) -0.2703(7) -0.1316(5)
H27 H 0.4812 -0.2402 -0.1865
C31 C 0.3612(10) -0.2180(8) 0.0444(6)
H28 H 0.3490 -0.1511 0.1104
C32 C 0.3332(8) -0.4625(7) -0.0712(5)
O6 O 1.0445(10) 0.6079(7) 0.1989(6)
C33 C 0.9997(9) -0.0360(7) -0.0618(6)
H29 H 1.0895 -0.0589 -0.0248
C34 C 0.8363(11) -0.0081(7) -0.2328(5)
H30 H 0.8202 -0.0113 -0.3107
C35 C 0.3123(10) -0.3633(9) 0.0269(6)
H31 H 0.2664 -0.3945 0.0794
C36 C 0.3943(11) -0.4177(8) -0.1502(6)
H32 H 0.4052 -0.4850 -0.2166
C37 C 0.6153(11) 0.3159(8) 0.1646(7)
H33 H 0.4957 0.2542 0.1395
H34 H 0.6238 0.4131 0.1731
H35 H 0.6784 0.3202 0.2413
C38 C 0.9693(10) -0.0434(7) -0.1787(6)
H36 H 1.0392 -0.0724 -0.2215
C39 C 0.9181(8) 0.5068(6) 0.1243(5)
C40 C 0.8310(15) 0.6671(11) 0.0536(13)
H37 H 0.7413 0.6644 -0.0109
H38 H 0.9418 0.7104 0.0482
H39 H 0.8273 0.7247 0.1309
H40 H 0.963(9) 0.009(7) 0.159(6)
loop_
_geom_bond_atom_site_label_1
_geom_bond_atom_site_label_2
_geom_bond_site_symmetry_1
_geom_bond_site_symmetry_2
Br1 C12 1_555 1_555
N1 C5 1_555 1_555
O1 C6 1_555 1_555
C1 H1 1_555 1_555
C2 C1 1_555 1_555
H2 C2 1_555 1_555
H3 C2 1_555 1_555
C3 C8 1_555 1_555
C4 C5 1_555 1_555
C5 C10 1_555 1_555
C6 N1 1_555 1_555
C7 C1 1_555 1_555
O2 C18 1_555 1_555
C8 C7 1_555 1_555
H4 C8 1_555 1_555
H5 C8 1_555 1_555
O3 C18 1_555 1_555
C9 C3 1_555 1_555
H6 C9 1_555 1_555
C10 H7 1_555 1_555
C11 C4 1_555 1_555
H8 C11 1_555 1_555
C12 C13 1_555 1_555
C13 C9 1_555 1_555
H9 C13 1_555 1_555
C14 C11 1_555 1_555
H10 C14 1_555 1_555
C15 C1 1_555 1_555
H11 C15 1_555 1_555
H12 C15 1_555 1_555
H13 C15 1_555 1_555
C16 C10 1_555 1_555
H14 C16 1_555 1_555
C17 C3 1_555 1_555
H15 C17 1_555 1_555
C18 C2 1_555 1_555
C19 C12 1_555 1_555
H16 C19 1_555 1_555
C20 O2 1_555 1_555
H17 C20 1_555 1_555
H18 C20 1_555 1_555
H19 C20 1_555 1_555
H20 N1 1_555 1_555
Br2 C32 1_555 1_555
N2 C21 1_555 1_555
O4 C21 1_555 1_555
C21 C22 1_555 1_555
C22 C25 1_555 1_555
C23 N2 1_555 1_555
C24 H21 1_555 1_555
C25 C23 1_555 1_555
O5 C39 1_555 1_555
C26 C22 1_555 1_555
H22 C26 1_555 1_555
H23 C26 1_555 1_555
C27 C26 1_555 1_555
C28 H24 1_555 1_555
H25 C28 1_555 1_555
C29 C22 1_555 1_555
H26 C29 1_555 1_555
C30 C27 1_555 1_555
H27 C30 1_555 1_555
C31 C27 1_555 1_555
H28 C31 1_555 1_555
C32 C35 1_555 1_555
O6 C39 1_555 1_555
C33 C23 1_555 1_555
H29 C33 1_555 1_555
C34 C24 1_555 1_555
H30 C34 1_555 1_555
C35 C31 1_555 1_555
H31 C35 1_555 1_555
C36 C30 1_555 1_555
H32 C36 1_555 1_555
C37 C29 1_555 1_555
H33 C37 1_555 1_555
H34 C37 1_555 1_555
H35 C37 1_555 1_555
C38 C33 1_555 1_555
H36 C38 1_555 1_555
C39 C28 1_555 1_555
C40 O5 1_555 1_555
H37 C40 1_555 1_555
H38 C40 1_555 1_555
H39 C40 1_555 1_555
H40 N2 1_555 1_555
C4 C7 1_555 1_555
C6 C7 1_555 1_555
C14 C16 1_555 1_555
C17 C19 1_555 1_555
C24 C25 1_555 1_555
C28 C29 1_555 1_555
C32 C36 1_555 1_555
C34 C38 1_555 1_555

#END
