
#######################################################################
#
#                 Cambridge Crystallographic Data Centre
#                                CCDC 
#
#######################################################################
#
# If this CIF has been generated from an entry in the Cambridge 
# Structural Database, then it will include bibliographic, chemical, 
# crystal, experimental, refinement or atomic coordinate data resulting 
# from the CCDC's data processing and validation procedures.
#
#######################################################################

data_GIFFIN
_chemical_formula_moiety         'C22 H33 N1 O4'
_chemical_name_systematic        
8-ethyl-11-methyl-2-(4-methyl-5-oxotetrahydrofuran-2-yl)dodecahydroazepino[3,2,1-hi]furo[3,2-e]indol-10(2H)-one
_symmetry_cell_setting           orthorhombic
_symmetry_space_group_name_H-M   'P 21 21 21'
_symmetry_Int_Tables_number      19
_space_group_name_Hall           'P 2ac 2ab'
loop_
_symmetry_equiv_pos_site_id
_symmetry_equiv_pos_as_xyz
1 x,y,z
2 1/2-x,-y,1/2+z
3 -x,1/2+y,1/2-z
4 1/2+x,1/2-y,-z
_cell_length_a                   9.0115(11)
_cell_length_b                   10.612(4)
_cell_length_c                   22.074(3)
_cell_angle_alpha                90
_cell_angle_beta                 90
_cell_angle_gamma                90
_cell_volume                     2110.94
_exptl_crystal_colour            colorless
_exptl_crystal_description       Block
_cell_formula_units_Z            4
loop_
_atom_site_label
_atom_site_type_symbol
_atom_site_fract_x
_atom_site_fract_y
_atom_site_fract_z
O1 O 0.6360(4) 0.1429(3) 0.01873(12)
O2 O 0.5651(4) 0.3224(3) -0.02592(14)
O3 O 0.2080(4) 0.4100(3) 0.25362(12)
O4 O 0.1331(5) 0.6092(4) 0.24684(16)
C1 C 0.5216(5) 0.2099(4) 0.14220(17)
H1 H 0.4530 0.2273 0.1088
C2 C 0.4744(5) 0.2934(5) 0.19615(18)
H2 H 0.5536 0.3002 0.2257
H3 H 0.4469 0.3772 0.1826
C3 C 0.3397(5) 0.2233(4) 0.22279(17)
H4 H 0.3597 0.2019 0.2652
N1 N 0.3321(4) 0.1084(4) 0.18719(14)
C4 C 0.2417(6) 0.0029(5) 0.2074(2)
H5 H 0.1746 0.0307 0.2391
H6 H 0.3049 -0.0625 0.2240
C5 C 0.1518(7) -0.0500(5) 0.1538(3)
H7 H 0.0838 -0.1131 0.1694
H8 H 0.0924 0.0178 0.1371
C6 C 0.2394(7) -0.1084(5) 0.1030(3)
H9 H 0.1716 -0.1258 0.0700
H10 H 0.2775 -0.1887 0.1171
C7 C 0.3690(5) -0.0325(4) 0.07785(19)
H11 H 0.4025 -0.0708 0.0404
H12 H 0.3357 0.0523 0.0687
C8 C 0.4983(5) -0.0261(4) 0.1222(2)
H13 H 0.4926 -0.1034 0.1464
C9 C 0.4831(5) 0.0826(5) 0.16699(18)
H14 H 0.5454 0.0655 0.2024
C10 C 0.6584(6) -0.0216(5) 0.0966(2)
H15 H 0.7218 -0.0414 0.1314
C11 C 0.7089(5) 0.1057(5) 0.07631(18)
H16 H 0.8161 0.1015 0.0691
C12 C 0.6784(5) 0.2190(5) 0.11710(18)
H17 H 0.7518 0.2253 0.1497
C13 C 0.6966(5) 0.3256(5) 0.0712(2)
H18 H 0.8030 0.3337 0.0629
C14 C 0.6265(5) 0.2682(6) 0.0158(2)
C15 C 0.6395(7) 0.4548(5) 0.0850(2)
H19 H 0.6600 0.5097 0.0514
H20 H 0.6876 0.4866 0.1207
H21 H 0.5344 0.4512 0.0917
C16 C 0.6900(7) -0.1263(6) 0.0511(2)
H22 H 0.6416 -0.2023 0.0656
H23 H 0.6429 -0.1035 0.0132
C17 C 0.8398(8) -0.1563(8) 0.0387(4)
H24 H 0.8439 -0.2220 0.0089
H25 H 0.8874 -0.1842 0.0752
H26 H 0.8898 -0.0828 0.0236
C18 C 0.1942(5) 0.2938(5) 0.21870(17)
H27 H 0.1155 0.2419 0.2364
C19 C 0.1459(6) 0.3376(4) 0.15654(17)
H28 H 0.2312 0.3540 0.1309
H29 H 0.0834 0.2751 0.1371
C20 C 0.0610(5) 0.4565(4) 0.16861(19)
H30 H -0.0415 0.4336 0.1786
C21 C 0.1355(6) 0.5050(5) 0.2261(2)
C22 C 0.0573(8) 0.5544(5) 0.1182(2)
H31 H 0.0086 0.5195 0.0833
H32 H 0.1568 0.5779 0.1077
H33 H 0.0040 0.6274 0.1318
loop_
_geom_bond_atom_site_label_1
_geom_bond_atom_site_label_2
_geom_bond_site_symmetry_1
_geom_bond_site_symmetry_2
O1 C11 1_555 1_555
O2 C14 1_555 1_555
O3 C18 1_555 1_555
O4 C21 1_555 1_555
C1 H1 1_555 1_555
C2 C1 1_555 1_555
H2 C2 1_555 1_555
H3 C2 1_555 1_555
C3 C2 1_555 1_555
H4 C3 1_555 1_555
N1 C3 1_555 1_555
C4 N1 1_555 1_555
H5 C4 1_555 1_555
H6 C4 1_555 1_555
C5 C4 1_555 1_555
H7 C5 1_555 1_555
H8 C5 1_555 1_555
C6 C5 1_555 1_555
H9 C6 1_555 1_555
H10 C6 1_555 1_555
C7 C6 1_555 1_555
H11 C7 1_555 1_555
H12 C7 1_555 1_555
C8 C7 1_555 1_555
H13 C8 1_555 1_555
C9 C1 1_555 1_555
H14 C9 1_555 1_555
C10 C8 1_555 1_555
H15 C10 1_555 1_555
C11 C10 1_555 1_555
H16 C11 1_555 1_555
C12 C1 1_555 1_555
H17 C12 1_555 1_555
C13 C12 1_555 1_555
H18 C13 1_555 1_555
C14 O1 1_555 1_555
C15 C13 1_555 1_555
H19 C15 1_555 1_555
H20 C15 1_555 1_555
H21 C15 1_555 1_555
C16 C10 1_555 1_555
H22 C16 1_555 1_555
H23 C16 1_555 1_555
C17 C16 1_555 1_555
H24 C17 1_555 1_555
H25 C17 1_555 1_555
H26 C17 1_555 1_555
C18 C3 1_555 1_555
H27 C18 1_555 1_555
C19 C18 1_555 1_555
H28 C19 1_555 1_555
H29 C19 1_555 1_555
C20 C19 1_555 1_555
H30 C20 1_555 1_555
C21 O3 1_555 1_555
C22 C20 1_555 1_555
H31 C22 1_555 1_555
H32 C22 1_555 1_555
H33 C22 1_555 1_555
N1 C9 1_555 1_555
C8 C9 1_555 1_555
C11 C12 1_555 1_555
C13 C14 1_555 1_555
C20 C21 1_555 1_555

#END
