
#######################################################################
#
#                 Cambridge Crystallographic Data Centre
#                                CCDC 
#
#######################################################################
#
# If this CIF has been generated from an entry in the Cambridge 
# Structural Database, then it will include bibliographic, chemical, 
# crystal, experimental, refinement or atomic coordinate data resulting 
# from the CCDC's data processing and validation procedures.
#
#######################################################################

data_GIFGOS
_chemical_formula_moiety         'C48 H56 N6'
_chemical_name_systematic        
2,4-bis(6-(1-(2,6-Diisopropylphenylimino)ethyl)pyridin-2-yl)-3,3-dihydro-2-methyl-1H-1,5-benzodiazepine
_symmetry_cell_setting           triclinic
_symmetry_space_group_name_H-M   'P -1'
_symmetry_Int_Tables_number      2
_space_group_name_Hall           '-P 1'
loop_
_symmetry_equiv_pos_site_id
_symmetry_equiv_pos_as_xyz
1 x,y,z
2 -x,-y,-z
_cell_length_a                   11.5337(5)
_cell_length_b                   12.2438(6)
_cell_length_c                   15.7362(7)
_cell_angle_alpha                98.347(3)
_cell_angle_beta                 90.241(3)
_cell_angle_gamma                104.096(2)
_cell_volume                     2130.65
_exptl_crystal_colour            yellow
_exptl_crystal_description       block
_chemical_melting_point          '202-204 deg.C'
_cell_formula_units_Z            2
_exptl_crystal_recrystallization_method 'ethyl acetate'
loop_
_atom_site_label
_atom_site_type_symbol
_atom_site_fract_x
_atom_site_fract_y
_atom_site_fract_z
N1 N 0.7958(3) 0.2134(3) 0.3270(2)
N2 N 0.7114(3) -0.1194(3) -0.0108(2)
N3 N 0.7766(3) 0.3193(3) 0.1300(2)
N4 N 0.7998(3) 0.1916(3) 0.5498(2)
C1 C 0.7805(3) 0.2401(3) 0.4111(3)
C2 C 0.7657(4) 0.2771(3) 0.2723(2)
N5 N 0.6730(3) 0.0940(3) 0.0353(2)
H1 H 0.5979 0.0672 0.0223
C3 C 0.8153(4) 0.1675(3) 0.4691(3)
N6 N 0.6897(3) -0.3759(3) -0.1543(2)
C4 C 0.8298(4) 0.1261(4) 0.6104(3)
C5 C 0.7876(4) 0.2474(4) 0.1800(3)
C6 C 0.6636(4) -0.2824(4) -0.1234(3)
C7 C 0.7442(4) -0.2102(3) -0.0506(2)
C8 C 0.7814(4) -0.0518(3) 0.0546(3)
C9 C 0.8285(4) 0.1400(3) 0.1501(3)
H2 H 0.8543 0.1122 0.1998
H3 H 0.8968 0.1583 0.1143
C10 C 0.7140(4) 0.3671(4) 0.3002(3)
H4 H 0.6913 0.4090 0.2611
C11 C 0.6227(4) -0.4482(4) -0.2273(3)
C12 C 0.6972(4) 0.3929(4) 0.3864(3)
H5 H 0.6632 0.4528 0.4064
C13 C 0.7312(4) 0.3293(4) 0.4431(3)
H6 H 0.7211 0.3461 0.5018
C14 C 0.7309(4) 0.0462(3) 0.0995(3)
C15 C 0.7883(4) 0.2895(4) 0.0405(3)
C16 C 0.7401(4) 0.0368(4) 0.6335(3)
C17 C 0.8480(4) -0.2385(4) -0.0262(3)
H7 H 0.8680 -0.3033 -0.0540
C18 C 0.7394(4) 0.1832(4) -0.0047(3)
C19 C 0.6652(4) -0.4334(4) -0.3088(3)
C20 C 0.5256(4) -0.5360(4) -0.2145(3)
C21 C 0.9210(4) -0.1685(4) 0.0403(3)
H8 H 0.9917 -0.1844 0.0572
C22 C 0.9442(4) 0.1574(4) 0.6491(3)
C23 C 0.8862(4) -0.0746(4) 0.0808(3)
H9 H 0.9335 -0.0266 0.1258
C24 C 0.7463(4) 0.1661(5) -0.0954(3)
H10 H 0.7115 0.0951 -0.1268
C25 C 0.7710(5) -0.0243(4) 0.6937(3)
H11 H 0.7139 -0.0855 0.7088
C26 C 0.8636(5) 0.0695(4) 0.4300(3)
H12 H 0.8832 0.0303 0.4745
H13 H 0.9343 0.0975 0.3998
H14 H 0.8044 0.0180 0.3906
C27 C 0.6345(4) -0.0042(4) 0.1595(3)
H15 H 0.5732 -0.0625 0.1266
H16 H 0.6000 0.0548 0.1874
H17 H 0.6698 -0.0363 0.2020
C28 C 0.4692(5) -0.6086(4) -0.2868(4)
H18 H 0.4047 -0.6689 -0.2800
C29 C 1.0366(5) 0.2603(4) 0.6280(3)
H19 H 1.0201 0.2674 0.5682
C30 C 0.9705(5) 0.0935(4) 0.7102(3)
H20 H 1.0466 0.1121 0.7363
C31 C 0.8446(5) 0.3778(5) -0.0031(3)
H21 H 0.8763 0.4500 0.0276
C32 C 0.8036(5) 0.2533(5) -0.1371(3)
H22 H 0.8087 0.2409 -0.1966
C33 C 0.6025(5) -0.5057(5) -0.3781(3)
H23 H 0.6261 -0.4946 -0.4333
C34 C 0.4852(5) -0.5570(4) -0.1249(3)
H24 H 0.5310 -0.4929 -0.0838
C35 C 0.5063(5) -0.5936(5) -0.3681(4)
H25 H 0.4667 -0.6425 -0.4159
C36 C 0.6149(4) 0.0122(4) 0.5965(3)
H26 H 0.6200 0.0275 0.5370
C37 C 0.5634(4) -0.2386(4) -0.1525(3)
H27 H 0.5186 -0.2919 -0.1990
H28 H 0.5948 -0.1666 -0.1717
H29 H 0.5119 -0.2290 -0.1057
C38 C 0.8847(5) 0.0034(4) 0.7321(3)
H30 H 0.9031 -0.0387 0.7725
C39 C 0.7770(6) -0.3419(5) -0.3198(4)
H31 H 0.7718 -0.2731 -0.2811
C40 C 0.8543(5) 0.3603(5) -0.0912(4)
H32 H 0.8943 0.4193 -0.1195
C41 C 0.7887(7) -0.3106(6) -0.4106(4)
H33 H 0.7185 -0.2881 -0.4266
H34 H 0.7970 -0.3753 -0.4503
H35 H 0.8579 -0.2486 -0.4118
C42 C 0.5115(7) -0.6641(6) -0.1018(5)
H36 H 0.5950 -0.6606 -0.1081
H37 H 0.4648 -0.7290 -0.1392
H38 H 0.4914 -0.6708 -0.0433
C43 C 0.5481(6) 0.0966(9) 0.6472(5)
H39 H 0.5944 0.1735 0.6481
H40 H 0.5378 0.0808 0.7051
H41 H 0.4712 0.0874 0.6196
C44 C 1.1650(5) 0.2537(6) 0.6348(5)
H42 H 1.2166 0.3224 0.6207
H43 H 1.1762 0.1896 0.5955
H44 H 1.1841 0.2448 0.6924
C45 C 0.3553(6) -0.5626(7) -0.1128(4)
H45 H 0.3375 -0.4949 -0.1276
H46 H 0.3373 -0.5685 -0.0539
H47 H 0.3078 -0.6281 -0.1493
C46 C 0.5430(8) -0.1076(7) 0.5949(5)
H48 H 0.5842 -0.1592 0.5638
H49 H 0.4662 -0.1170 0.5671
H50 H 0.5325 -0.1237 0.6527
C47 C 1.0195(9) 0.3631(8) 0.6814(6)
H51 H 0.9376 0.3666 0.6757
H52 H 1.0708 0.4292 0.6632
H53 H 1.0389 0.3611 0.7405
C48 C 0.8881(6) -0.3743(7) -0.2915(5)
H54 H 0.8798 -0.3919 -0.2340
H55 H 0.9567 -0.3118 -0.2930
H56 H 0.8984 -0.4398 -0.3295
loop_
_geom_bond_atom_site_label_1
_geom_bond_atom_site_label_2
_geom_bond_site_symmetry_1
_geom_bond_site_symmetry_2
N1 C1 1_555 1_555
N2 C7 1_555 1_555
N3 C5 1_555 1_555
N4 C3 1_555 1_555
C1 C3 1_555 1_555
C2 N1 1_555 1_555
N5 H1 1_555 1_555
C3 C26 1_555 1_555
N6 C6 1_555 1_555
C4 N4 1_555 1_555
C5 C2 1_555 1_555
C6 C7 1_555 1_555
C7 C17 1_555 1_555
C8 N2 1_555 1_555
C9 C5 1_555 1_555
H2 C9 1_555 1_555
H3 C9 1_555 1_555
C10 C2 1_555 1_555
H4 C10 1_555 1_555
C11 N6 1_555 1_555
C12 C10 1_555 1_555
H5 C12 1_555 1_555
C13 C1 1_555 1_555
H6 C13 1_555 1_555
C14 N5 1_555 1_555
C15 N3 1_555 1_555
C16 C4 1_555 1_555
C17 H7 1_555 1_555
C18 N5 1_555 1_555
C19 C11 1_555 1_555
C20 C11 1_555 1_555
C21 C17 1_555 1_555
H8 C21 1_555 1_555
C22 C4 1_555 1_555
C23 C8 1_555 1_555
H9 C23 1_555 1_555
C24 C18 1_555 1_555
H10 C24 1_555 1_555
C25 C16 1_555 1_555
H11 C25 1_555 1_555
C26 H12 1_555 1_555
H13 C26 1_555 1_555
H14 C26 1_555 1_555
C27 C14 1_555 1_555
H15 C27 1_555 1_555
H16 C27 1_555 1_555
H17 C27 1_555 1_555
C28 C20 1_555 1_555
H18 C28 1_555 1_555
C29 C22 1_555 1_555
H19 C29 1_555 1_555
C30 C22 1_555 1_555
H20 C30 1_555 1_555
C31 C15 1_555 1_555
H21 C31 1_555 1_555
C32 C24 1_555 1_555
H22 C32 1_555 1_555
C33 C19 1_555 1_555
H23 C33 1_555 1_555
C34 C20 1_555 1_555
H24 C34 1_555 1_555
C35 C28 1_555 1_555
H25 C35 1_555 1_555
C36 C16 1_555 1_555
H26 C36 1_555 1_555
C37 C6 1_555 1_555
H27 C37 1_555 1_555
H28 C37 1_555 1_555
H29 C37 1_555 1_555
C38 C25 1_555 1_555
H30 C38 1_555 1_555
C39 C19 1_555 1_555
H31 C39 1_555 1_555
C40 C31 1_555 1_555
H32 C40 1_555 1_555
C41 C39 1_555 1_555
H33 C41 1_555 1_555
H34 C41 1_555 1_555
H35 C41 1_555 1_555
C42 C34 1_555 1_555
H36 C42 1_555 1_555
H37 C42 1_555 1_555
H38 C42 1_555 1_555
C43 C36 1_555 1_555
H39 C43 1_555 1_555
H40 C43 1_555 1_555
H41 C43 1_555 1_555
C44 C29 1_555 1_555
H42 C44 1_555 1_555
H43 C44 1_555 1_555
H44 C44 1_555 1_555
C45 C34 1_555 1_555
H45 C45 1_555 1_555
H46 C45 1_555 1_555
H47 C45 1_555 1_555
C46 C36 1_555 1_555
H48 C46 1_555 1_555
H49 C46 1_555 1_555
H50 C46 1_555 1_555
C47 C29 1_555 1_555
H51 C47 1_555 1_555
H52 C47 1_555 1_555
H53 C47 1_555 1_555
C48 C39 1_555 1_555
H54 C48 1_555 1_555
H55 C48 1_555 1_555
H56 C48 1_555 1_555
C8 C14 1_555 1_555
C9 C14 1_555 1_555
C12 C13 1_555 1_555
C15 C18 1_555 1_555
C21 C23 1_555 1_555
C30 C38 1_555 1_555
C32 C40 1_555 1_555
C33 C35 1_555 1_555

#END
