
#######################################################################
#
#                 Cambridge Crystallographic Data Centre
#                                CCDC 
#
#######################################################################
#
# If this CIF has been generated from an entry in the Cambridge 
# Structural Database, then it will include bibliographic, chemical, 
# crystal, experimental, refinement or atomic coordinate data resulting 
# from the CCDC's data processing and validation procedures.
#
#######################################################################

data_GIFNOZ01
_chemical_formula_moiety         'C7 H3 N2 O7 1-,C7 H7 N2 1+'
_chemical_name_systematic        
'1H-Benzimidazol-3-ium 2-carboxy-4,6-dinitrophenolate'
_symmetry_cell_setting           triclinic
_symmetry_space_group_name_H-M   'P -1'
_symmetry_Int_Tables_number      2
_space_group_name_Hall           '-P 1'
loop_
_symmetry_equiv_pos_site_id
_symmetry_equiv_pos_as_xyz
1 x,y,z
2 -x,-y,-z
_cell_length_a                   7.3380(7)
_cell_length_b                   9.6799(11)
_cell_length_c                   10.5201(12)
_cell_angle_alpha                78.1500(10)
_cell_angle_beta                 83.2490(10)
_cell_angle_gamma                88.941(2)
_cell_volume                     726.246
_exptl_crystal_colour            colorless
_exptl_crystal_description       block
_cell_formula_units_Z            2
loop_
_atom_site_label
_atom_site_type_symbol
_atom_site_fract_x
_atom_site_fract_y
_atom_site_fract_z
N1 N 0.6856(8) -0.0086(6) 0.6478(6)
H1 H 0.6307 -0.0888 0.6601
N2 N 0.7941(8) 0.1821(6) 0.6863(6)
H2 H 0.8214 0.2462 0.7268
C1 C 0.7032(10) 0.0647(8) 0.7406(8)
H3 H 0.6587 0.0373 0.8286
C2 C 0.8390(10) 0.1864(8) 0.5533(8)
C3 C 0.7686(9) 0.0641(7) 0.5296(7)
C4 C 0.7901(9) 0.0314(8) 0.4058(7)
H4 H 0.7417 -0.0507 0.3900
C5 C 0.8857(10) 0.1264(9) 0.3099(8)
H5 H 0.9058 0.1082 0.2260
C6 C 0.9559(11) 0.2522(9) 0.3337(9)
H6 H 1.0176 0.3162 0.2646
C7 C 0.9349(10) 0.2828(8) 0.4576(8)
H7 H 0.9835 0.3645 0.4744
N3 N 0.5808(8) 0.5978(7) 0.6122(6)
N4 N 0.2183(9) 0.2205(7) 0.9019(7)
O1 O 0.1670(7) 0.6280(5) 1.1465(5)
O2 O 0.3411(7) 0.7977(5) 1.0199(5)
H8 H 0.4016 0.8112 0.9477
O3 O 0.5016(6) 0.7653(5) 0.8101(4)
O4 O 0.5819(7) 0.7235(6) 0.5620(5)
O5 O 0.6703(7) 0.5078(5) 0.5658(5)
O6 O 0.2517(9) 0.1494(6) 0.8183(6)
O7 O 0.1347(8) 0.1738(5) 1.0082(6)
C8 C 0.2658(10) 0.6725(8) 1.0450(8)
C9 C 0.3071(9) 0.5868(7) 0.9429(7)
C10 C 0.4272(9) 0.6419(7) 0.8255(7)
C11 C 0.4618(9) 0.5502(7) 0.7358(6)
C12 C 0.3934(9) 0.4164(7) 0.7592(7)
H9 H 0.4220 0.3596 0.6984
C13 C 0.2825(9) 0.3657(7) 0.8728(7)
C14 C 0.2405(9) 0.4516(7) 0.9639(7)
H10 H 0.1654 0.4162 1.0408
loop_
_geom_bond_atom_site_label_1
_geom_bond_atom_site_label_2
_geom_bond_site_symmetry_1
_geom_bond_site_symmetry_2
N1 H1 1_555 1_555
N2 H2 1_555 1_555
C1 N1 1_555 1_555
H3 C1 1_555 1_555
C2 N2 1_555 1_555
C3 N1 1_555 1_555
C4 C3 1_555 1_555
H4 C4 1_555 1_555
C5 C4 1_555 1_555
H5 C5 1_555 1_555
C6 C5 1_555 1_555
H6 C6 1_555 1_555
C7 C2 1_555 1_555
H7 C7 1_555 1_555
N3 O4 1_555 1_555
N4 O6 1_555 1_555
O1 C8 1_555 1_555
O2 H8 1_555 1_555
O3 C10 1_555 1_555
O5 N3 1_555 1_555
O7 N4 1_555 1_555
C8 O2 1_555 1_555
C9 C8 1_555 1_555
C10 C9 1_555 1_555
C11 N3 1_555 1_555
C12 C11 1_555 1_555
H9 C12 1_555 1_555
C13 N4 1_555 1_555
C14 C9 1_555 1_555
H10 C14 1_555 1_555
N2 C1 1_555 1_555
C2 C3 1_555 1_555
C6 C7 1_555 1_555
C10 C11 1_555 1_555
C12 C13 1_555 1_555
C13 C14 1_555 1_555

#END
