
#######################################################################
#
#                 Cambridge Crystallographic Data Centre
#                                CCDC 
#
#######################################################################
#
# If this CIF has been generated from an entry in the Cambridge 
# Structural Database, then it will include bibliographic, chemical, 
# crystal, experimental, refinement or atomic coordinate data resulting 
# from the CCDC's data processing and validation procedures.
#
#######################################################################

data_GIFWUQ
_chemical_formula_moiety         'C28 H35 N1 O3 S1'
_chemical_name_systematic        
N-((3,5-di-t-butyl-4-hydroxyphenyl)(phenyl)methyl)-4-methylbenzenesulfonamide
_symmetry_cell_setting           triclinic
_symmetry_space_group_name_H-M   'P -1'
_symmetry_Int_Tables_number      2
_space_group_name_Hall           '-P 1'
loop_
_symmetry_equiv_pos_site_id
_symmetry_equiv_pos_as_xyz
1 x,y,z
2 -x,-y,-z
_cell_length_a                   10.3965(4)
_cell_length_b                   10.7525(5)
_cell_length_c                   12.2772(6)
_cell_angle_alpha                86.651(4)
_cell_angle_beta                 86.653(4)
_cell_angle_gamma                75.323(4)
_cell_volume                     1324.05
_exptl_crystal_colour            colorless
_exptl_crystal_description       block
_cell_formula_units_Z            2
loop_
_atom_site_label
_atom_site_type_symbol
_atom_site_fract_x
_atom_site_fract_y
_atom_site_fract_z
S1 S 0.37458(4) 0.61008(3) 0.13843(3)
O1 O 0.34559(13) 0.70809(10) 0.21666(11)
O2 O 0.40686(13) 0.64402(11) 0.02712(10)
O3 O 0.49517(15) -0.09069(12) 0.23403(15)
N1 N 0.49929(13) 0.49700(12) 0.17790(11)
H1 H 0.5344(19) 0.4554(19) 0.1250(16)
C1 C -0.0960(3) 0.3738(3) 0.1552(3)
H2 H -0.0951 0.3224 0.2219
H3 H -0.0893 0.3203 0.0942
H4 H -0.1776 0.4400 0.1532
C2 C 0.0201(2) 0.4345(2) 0.14956(18)
C3 C 0.0166(2) 0.5406(2) 0.2089(2)
C4 C 0.12393(18) 0.59517(18) 0.20531(17)
H5 H 0.1204 0.6665 0.2458
C5 C 0.23583(16) 0.54356(14) 0.14166(13)
C6 C 0.2421(2) 0.43656(18) 0.08179(17)
H6 H 0.3182 0.4006 0.0396
C7 C 0.1335(2) 0.38426(19) 0.08593(19)
H7 H 0.1367 0.3134 0.0449
C8 C 0.49081(15) 0.43003(13) 0.28671(12)
H8 H 0.4056 0.4726 0.3225
C9 C 0.60069(16) 0.44794(14) 0.35687(12)
C10 C 0.6348(2) 0.56477(18) 0.35266(17)
H9 H 0.5924 0.6312 0.3053
C11 C 0.7311(3) 0.5832(2) 0.41812(18)
H10 H 0.7529 0.6621 0.4144
C12 C 0.7950(2) 0.4870(2) 0.48847(17)
H11 H 0.8612 0.4995 0.5313
C13 C 0.7603(2) 0.3719(2) 0.49488(18)
H12 H 0.8024 0.3062 0.5430
C14 C 0.6626(2) 0.35281(18) 0.42984(16)
H13 H 0.6388 0.2749 0.4358
C15 C 0.48921(15) 0.29087(13) 0.27380(12)
C16 C 0.59633(15) 0.20696(14) 0.22223(13)
H14 H 0.6691 0.2373 0.1962
C17 C 0.59836(15) 0.07907(14) 0.20823(14)
C18 C 0.48673(16) 0.03679(14) 0.24856(14)
C19 C 0.37650(16) 0.11821(14) 0.30173(13)
C20 C 0.38113(15) 0.24569(14) 0.31201(12)
H15 H 0.3089 0.3021 0.3457
C21 C 0.25509(18) 0.07070(16) 0.34815(16)
C22 C 0.1497(2) 0.1785(2) 0.4031(2)
H16 H 0.1869 0.2067 0.4640
H17 H 0.0743 0.1467 0.4282
H18 H 0.1220 0.2495 0.3514
C23 C 0.1845(2) 0.0261(2) 0.2563(2)
H19 H 0.143(3) 0.101(3) 0.198(2)
H20 H 0.107(3) -0.002(3) 0.286(2)
C24 C 0.2996(3) -0.0381(2) 0.4352(2)
H21 H 0.3624 -0.1090 0.4025
H22 H 0.2236 -0.0660 0.4649
H23 H 0.3406 -0.0072 0.4925
C25 C 0.71867(19) -0.01083(17) 0.14991(19)
C26 C 0.6749(3) -0.0591(3) 0.0464(3)
H24 H 0.6163 -0.1136 0.0664
H25 H 0.7517 -0.1069 0.0062
H26 H 0.6291 0.0131 0.0018
C27 C 0.7828(2) -0.1228(2) 0.2279(3)
H27 H 0.8083 -0.0896 0.2920
H28 H 0.8602 -0.1760 0.1922
H29 H 0.7202 -0.1730 0.2484
C28 C 0.8260(2) 0.0586(2) 0.1138(3)
H30 H 0.7909 0.1273 0.0618
H31 H 0.9008 -0.0010 0.0806
H32 H 0.8539 0.0932 0.1761
H33 H 0.239(3) -0.046(3) 0.215(2)
H34 H -0.064(3) 0.579(3) 0.256(2)
H35 H 0.425(3) -0.103(3) 0.244(2)
loop_
_geom_bond_atom_site_label_1
_geom_bond_atom_site_label_2
_geom_bond_site_symmetry_1
_geom_bond_site_symmetry_2
S1 O1 1_555 1_555
O2 S1 1_555 1_555
O3 C18 1_555 1_555
N1 S1 1_555 1_555
H1 N1 1_555 1_555
C1 H2 1_555 1_555
H3 C1 1_555 1_555
H4 C1 1_555 1_555
C2 C1 1_555 1_555
C3 C2 1_555 1_555
C4 C3 1_555 1_555
H5 C4 1_555 1_555
C5 S1 1_555 1_555
C6 C5 1_555 1_555
H6 C6 1_555 1_555
C7 C2 1_555 1_555
H7 C7 1_555 1_555
C8 N1 1_555 1_555
H8 C8 1_555 1_555
C9 C8 1_555 1_555
C10 C9 1_555 1_555
H9 C10 1_555 1_555
C11 C10 1_555 1_555
H10 C11 1_555 1_555
C12 C11 1_555 1_555
H11 C12 1_555 1_555
C13 C12 1_555 1_555
H12 C13 1_555 1_555
C14 C9 1_555 1_555
H13 C14 1_555 1_555
C15 C8 1_555 1_555
C16 C15 1_555 1_555
H14 C16 1_555 1_555
C17 C16 1_555 1_555
C18 C17 1_555 1_555
C19 C18 1_555 1_555
C20 C15 1_555 1_555
H15 C20 1_555 1_555
C21 C19 1_555 1_555
C22 C21 1_555 1_555
H16 C22 1_555 1_555
H17 C22 1_555 1_555
H18 C22 1_555 1_555
C23 C21 1_555 1_555
H19 C23 1_555 1_555
H20 C23 1_555 1_555
C24 C21 1_555 1_555
H21 C24 1_555 1_555
H22 C24 1_555 1_555
H23 C24 1_555 1_555
C25 C17 1_555 1_555
C26 C25 1_555 1_555
H24 C26 1_555 1_555
H25 C26 1_555 1_555
H26 C26 1_555 1_555
C27 C25 1_555 1_555
H27 C27 1_555 1_555
H28 C27 1_555 1_555
H29 C27 1_555 1_555
C28 C25 1_555 1_555
H30 C28 1_555 1_555
H31 C28 1_555 1_555
H32 C28 1_555 1_555
H33 C23 1_555 1_555
H34 C3 1_555 1_555
H35 O3 1_555 1_555
C4 C5 1_555 1_555
C6 C7 1_555 1_555
C13 C14 1_555 1_555
C19 C20 1_555 1_555

#END
