
#######################################################################
#
#                 Cambridge Crystallographic Data Centre
#                                CCDC 
#
#######################################################################
#
# If this CIF has been generated from an entry in the Cambridge 
# Structural Database, then it will include bibliographic, chemical, 
# crystal, experimental, refinement or atomic coordinate data resulting 
# from the CCDC's data processing and validation procedures.
#
#######################################################################

data_GIFXOK
_chemical_formula_moiety         'C20 H22 Br1 N1 O3 S1'
_chemical_name_systematic        
't-Butyl 1-(4-bromobenzoyl)-3-(2-thienyl)prolinate'
_symmetry_cell_setting           orthorhombic
_symmetry_space_group_name_H-M   'P 21 21 21'
_symmetry_Int_Tables_number      19
_space_group_name_Hall           'P 2ac 2ab'
loop_
_symmetry_equiv_pos_site_id
_symmetry_equiv_pos_as_xyz
1 x,y,z
2 1/2+x,1/2-y,-z
3 -x,1/2+y,1/2-z
4 1/2-x,-y,1/2+z
_cell_length_a                   6.14223(11)
_cell_length_b                   11.4594(2)
_cell_length_c                   28.1409(5)
_cell_angle_alpha                90
_cell_angle_beta                 90
_cell_angle_gamma                90
_cell_volume                     1980.73
_exptl_crystal_colour            colorless
_exptl_crystal_description       block
_cell_formula_units_Z            4
loop_
_atom_site_label
_atom_site_type_symbol
_atom_site_fract_x
_atom_site_fract_y
_atom_site_fract_z
Br1 Br 0.99824(8) 0.09269(3) 0.640330(14)
S1 S 0.74235(19) 1.02715(10) 0.50490(4)
O1 O 0.3218(5) 0.5635(3) 0.62152(10)
O2 O 0.5114(5) 0.7815(3) 0.67404(8)
O3 O 0.2086(5) 0.8469(3) 0.63665(9)
N1 N 0.6247(6) 0.6561(3) 0.59629(10)
C1 C 0.5227(7) 0.5600(3) 0.61196(12)
C2 C 0.3867(7) 0.8018(3) 0.63643(13)
C3 C 0.9568(7) 0.3393(4) 0.64558(13)
C4 C 0.6711(6) 0.8529(4) 0.57269(12)
C5 C 0.8511(8) 0.2375(4) 0.63108(13)
C6 C 0.8339(7) 0.7735(4) 0.54633(14)
C7 C 0.6466(7) 0.4489(4) 0.61832(13)
C8 C 0.8525(7) 0.6677(4) 0.57864(14)
C9 C 0.4997(8) 0.7644(3) 0.59044(12)
C10 C 0.3455(8) 1.0890(4) 0.50968(14)
C11 C 0.5774(7) 0.9506(4) 0.54336(13)
C12 C 0.5444(7) 0.3442(4) 0.60489(14)
C13 C 0.8533(7) 0.4461(4) 0.63810(13)
C14 C 0.3667(7) 0.9937(4) 0.54184(13)
C15 C 0.6488(8) 0.2384(4) 0.61121(14)
C16 C 0.5338(8) 1.1165(4) 0.48754(14)
C17 C 0.6200(9) 0.7613(5) 0.75331(15)
C18 C 0.4279(8) 0.7983(4) 0.72291(14)
C19 C 0.2355(9) 0.7173(5) 0.73039(15)
C20 C 0.3706(11) 0.9260(4) 0.73114(16)
H1 H 1.0961 0.3359 0.6602
H2 H 0.7461 0.8875 0.6009
H3 H 0.7778 0.7512 0.5146
H4 H 0.9766 0.8125 0.5425
H5 H 0.8987 0.5975 0.5608
H6 H 0.9558 0.6819 0.6050
H7 H 0.3875 0.7528 0.5651
H8 H 0.2124 1.1291 0.5043
H9 H 0.4026 0.3461 0.5914
H10 H 0.9243 0.5168 0.6465
H11 H 0.2498 0.9631 0.5601
H12 H 0.5807 0.1676 0.6019
H13 H 0.5486 1.1779 0.4651
H14 H 0.7503 0.8042 0.7433
H15 H 0.6449 0.6773 0.7495
H16 H 0.5889 0.7784 0.7867
H17 H 0.2788 0.6370 0.7230
H18 H 0.1158 0.7407 0.7094
H19 H 0.1875 0.7219 0.7636
H20 H 0.4868 0.9756 0.7185
H21 H 0.3545 0.9403 0.7653
H22 H 0.2334 0.9442 0.7150
loop_
_geom_bond_atom_site_label_1
_geom_bond_atom_site_label_2
_geom_bond_site_symmetry_1
_geom_bond_site_symmetry_2
Br1 C5 1_555 1_555
S1 C11 1_555 1_555
O1 C1 1_555 1_555
O2 C2 1_555 1_555
O3 C2 1_555 1_555
N1 C1 1_555 1_555
C1 C7 1_555 1_555
C2 C9 1_555 1_555
C3 C5 1_555 1_555
C4 C6 1_555 1_555
C5 C15 1_555 1_555
C6 C8 1_555 1_555
C7 C12 1_555 1_555
C8 N1 1_555 1_555
C9 N1 1_555 1_555
C10 C14 1_555 1_555
C11 C4 1_555 1_555
C12 C15 1_555 1_555
C13 C3 1_555 1_555
C14 C11 1_555 1_555
C15 H12 1_555 1_555
C16 S1 1_555 1_555
C17 C18 1_555 1_555
C18 O2 1_555 1_555
C19 C18 1_555 1_555
C20 C18 1_555 1_555
H1 C3 1_555 1_555
H2 C4 1_555 1_555
H3 C6 1_555 1_555
H4 C6 1_555 1_555
H5 C8 1_555 1_555
H6 C8 1_555 1_555
H7 C9 1_555 1_555
H8 C10 1_555 1_555
H9 C12 1_555 1_555
H10 C13 1_555 1_555
H11 C14 1_555 1_555
H13 C16 1_555 1_555
H14 C17 1_555 1_555
H15 C17 1_555 1_555
H16 C17 1_555 1_555
H17 C19 1_555 1_555
H18 C19 1_555 1_555
H19 C19 1_555 1_555
H20 C20 1_555 1_555
H21 C20 1_555 1_555
H22 C20 1_555 1_555
C4 C9 1_555 1_555
C7 C13 1_555 1_555
C10 C16 1_555 1_555

#END
