
#######################################################################
#
#                 Cambridge Crystallographic Data Centre
#                                CCDC 
#
#######################################################################
#
# If this CIF has been generated from an entry in the Cambridge 
# Structural Database, then it will include bibliographic, chemical, 
# crystal, experimental, refinement or atomic coordinate data resulting 
# from the CCDC's data processing and validation procedures.
#
#######################################################################

data_GIFYEC
_chemical_formula_moiety         'C14 H10 N2 O2'
_chemical_name_systematic        5-phenoxy-3-phenyl-1,2,4-oxadiazole
_symmetry_cell_setting           monoclinic
_symmetry_space_group_name_H-M   'P 21/c'
_symmetry_Int_Tables_number      14
_space_group_name_Hall           '-P 2ybc'
loop_
_symmetry_equiv_pos_site_id
_symmetry_equiv_pos_as_xyz
1 x,y,z
2 -x,1/2+y,1/2-z
3 -x,-y,-z
4 x,1/2-y,1/2+z
_cell_length_a                   14.660(3)
_cell_length_b                   5.7506(12)
_cell_length_c                   14.623(3)
_cell_angle_alpha                90
_cell_angle_beta                 109.41(3)
_cell_angle_gamma                90
_cell_volume                     1162.71
_cell_formula_units_Z            4
loop_
_atom_site_label
_atom_site_type_symbol
_atom_site_fract_x
_atom_site_fract_y
_atom_site_fract_z
O1 O 0.81262(7) 0.6921(2) 0.38449(8)
O2 O 0.68333(7) 0.48002(18) 0.37214(7)
N1 N 0.86523(9) 0.8806(3) 0.44227(10)
N2 N 0.73414(7) 0.79127(18) 0.48396(7)
C1 C 0.80863(10) 1.1130(2) 0.64871(10)
H1 H 0.7652 0.9987 0.6527
C2 C 0.83785(11) 1.2824(3) 0.71956(11)
H2 H 0.8143 1.2812 0.7713
C3 C 0.90165(11) 1.4528(3) 0.71372(12)
H3 H 0.9210 1.5668 0.7614
C4 C 0.93671(11) 1.4542(3) 0.63740(13)
H4 H 0.9796 1.5698 0.6335
C5 C 0.90868(10) 1.2851(3) 0.56650(11)
H5 H 0.9330 1.2864 0.5153
C6 C 0.84391(8) 1.1129(2) 0.57166(9)
C7 C 0.56049(10) 0.2754(2) 0.41322(9)
H6 H 0.6047 0.1574 0.4400
C8 C 0.46570(10) 0.2571(2) 0.40964(9)
H7 H 0.4455 0.1253 0.4344
C9 C 0.40056(10) 0.4320(2) 0.36984(9)
H8 H 0.3367 0.4182 0.3678
C10 C 0.43019(9) 0.6282(2) 0.33286(9)
H9 H 0.3861 0.7462 0.3059
C11 C 0.52472(9) 0.6501(2) 0.33561(8)
H10 H 0.5451 0.7815 0.3108
C12 C 0.58796(9) 0.4725(2) 0.37610(8)
C13 C 0.81483(8) 0.9292(2) 0.49799(9)
C14 C 0.73890(9) 0.6561(2) 0.41595(9)
loop_
_geom_bond_atom_site_label_1
_geom_bond_atom_site_label_2
_geom_bond_site_symmetry_1
_geom_bond_site_symmetry_2
O1 N1 1_555 1_555
O2 C12 1_555 1_555
N1 C13 1_555 1_555
N2 C13 1_555 1_555
C1 H1 1_555 1_555
C2 C1 1_555 1_555
H2 C2 1_555 1_555
C3 C2 1_555 1_555
H3 C3 1_555 1_555
C4 C3 1_555 1_555
H4 C4 1_555 1_555
C5 C4 1_555 1_555
H5 C5 1_555 1_555
C6 C1 1_555 1_555
C7 H6 1_555 1_555
C8 C7 1_555 1_555
H7 C8 1_555 1_555
C9 C8 1_555 1_555
H8 C9 1_555 1_555
C10 C9 1_555 1_555
H9 C10 1_555 1_555
C11 C10 1_555 1_555
H10 C11 1_555 1_555
C12 C7 1_555 1_555
C13 C6 1_555 1_555
C14 O1 1_555 1_555
O2 C14 1_555 1_555
N2 C14 1_555 1_555
C5 C6 1_555 1_555
C11 C12 1_555 1_555

#END
