
#######################################################################
#
#                 Cambridge Crystallographic Data Centre
#                                CCDC 
#
#######################################################################
#
# If this CIF has been generated from an entry in the Cambridge 
# Structural Database, then it will include bibliographic, chemical, 
# crystal, experimental, refinement or atomic coordinate data resulting 
# from the CCDC's data processing and validation procedures.
#
#######################################################################

data_GIGDAE
_chemical_formula_moiety         'C24 H20 F2 N2 O4 S1'
_chemical_name_systematic        
'4-(3-cyanophenyl)-3,3-difluoro-4-[(2-hydroxyphenyl)amino]but-1-en-2-yl 4-methylbenzene-1-sulfonate'
_symmetry_cell_setting           monoclinic
_symmetry_space_group_name_H-M   'P 21/c'
_symmetry_Int_Tables_number      14
_space_group_name_Hall           '-P 2ybc'
loop_
_symmetry_equiv_pos_site_id
_symmetry_equiv_pos_as_xyz
1 x,y,z
2 -x,1/2+y,1/2-z
3 -x,-y,-z
4 x,1/2-y,1/2+z
_cell_length_a                   10.457(6)
_cell_length_b                   18.104(11)
_cell_length_c                   11.424(7)
_cell_angle_alpha                90
_cell_angle_beta                 98.239(11)
_cell_angle_gamma                90
_cell_volume                     2140.4
_cell_formula_units_Z            4
loop_
_atom_site_label
_atom_site_type_symbol
_atom_site_fract_x
_atom_site_fract_y
_atom_site_fract_z
C1 C 1.0950(3) 0.30424(16) 0.3979(3)
C2 C 1.1422(3) 0.32305(17) 0.2930(3)
C3 C 1.2688(4) 0.32655(18) 0.2866(3)
H1 H 1.2978 0.3400 0.2144
C4 C 1.3580(4) 0.3104(2) 0.3860(3)
H2 H 1.4481 0.3115 0.3819
C5 C 1.3137(3) 0.29288(19) 0.4900(3)
H3 H 1.3738 0.2832 0.5588
C6 C 1.1841(3) 0.28914(17) 0.4959(3)
H4 H 1.1553 0.2760 0.5683
C7 C 0.9081(3) 0.29137(17) 0.5024(3)
H5 H 0.9567 0.2507 0.5485
C8 C 0.9202(3) 0.35924(17) 0.5812(3)
C9 C 0.9713(3) 0.35308(18) 0.6978(3)
H6 H 0.9963 0.3060 0.7301
C10 C 0.9865(3) 0.41487(18) 0.7683(3)
C11 C 0.9503(4) 0.48331(18) 0.7237(3)
H7 H 0.9625 0.5259 0.7725
C12 C 0.8963(4) 0.48908(19) 0.6072(4)
H8 H 0.8682 0.5359 0.5757
C13 C 0.8826(4) 0.42816(18) 0.5364(3)
H9 H 0.8469 0.4331 0.4555
C14 C 1.0420(4) 0.40700(19) 0.8911(4)
C15 C 0.7690(3) 0.26633(18) 0.4746(3)
C16 C 0.7065(3) 0.24893(17) 0.5811(3)
C17 C 0.6317(3) 0.29278(18) 0.6300(3)
H10 H 0.6055 0.2799 0.7036
H11 H 0.6031 0.3378 0.5922
C18 C 0.6045(3) 0.08725(17) 0.4991(3)
C19 C 0.4877(3) 0.11260(18) 0.4416(3)
H12 H 0.4348 0.1442 0.4806
C20 C 0.4497(4) 0.0912(2) 0.3272(3)
H13 H 0.3702 0.1091 0.2863
C21 C 0.5240(5) 0.0442(2) 0.2695(3)
C22 C 0.6390(5) 0.0196(2) 0.3304(4)
H14 H 0.6910 -0.0129 0.2922
C23 C 0.6804(4) 0.04066(19) 0.4439(4)
H15 H 0.7606 0.0234 0.4842
C24 C 0.4800(6) 0.0195(2) 0.1458(4)
H16 H 0.4099 0.0516 0.1094
H17 H 0.4489 -0.0316 0.1465
H18 H 0.5524 0.0221 0.1001
O1 O 1.0474(2) 0.33781(12) 0.1993(2)
H19 H 1.0819 0.3489 0.1396
F1 F 0.69912(19) 0.31941(11) 0.41101(17)
F2 F 0.7628(2) 0.20629(11) 0.40255(17)
N1 N 1.0852(4) 0.40081(17) 0.9860(3)
N2 N 0.9629(3) 0.29958(14) 0.3957(3)
H20 H 0.9117 0.3017 0.3275
O2 O 0.7523(2) 0.18220(11) 0.63087(19)
O3 O 0.7389(2) 0.06280(12) 0.7048(2)
O4 O 0.5483(2) 0.14204(13) 0.6920(2)
S1 S 0.65527(9) 0.11521(5) 0.64378(8)
loop_
_geom_bond_atom_site_label_1
_geom_bond_atom_site_label_2
_geom_bond_site_symmetry_1
_geom_bond_site_symmetry_2
C1 C2 1_555 1_555
C2 C3 1_555 1_555
C3 H1 1_555 1_555
C4 C3 1_555 1_555
H2 C4 1_555 1_555
C5 C4 1_555 1_555
H3 C5 1_555 1_555
C6 C1 1_555 1_555
H4 C6 1_555 1_555
C7 H5 1_555 1_555
C8 C7 1_555 1_555
C9 C8 1_555 1_555
H6 C9 1_555 1_555
C10 C9 1_555 1_555
C11 C10 1_555 1_555
H7 C11 1_555 1_555
C12 C11 1_555 1_555
H8 C12 1_555 1_555
C13 C8 1_555 1_555
H9 C13 1_555 1_555
C14 C10 1_555 1_555
C15 C7 1_555 1_555
C16 C15 1_555 1_555
C17 C16 1_555 1_555
H10 C17 1_555 1_555
H11 C17 1_555 1_555
C18 C19 1_555 1_555
C19 H12 1_555 1_555
C20 C19 1_555 1_555
H13 C20 1_555 1_555
C21 C20 1_555 1_555
C22 C21 1_555 1_555
H14 C22 1_555 1_555
C23 C18 1_555 1_555
H15 C23 1_555 1_555
C24 C21 1_555 1_555
H16 C24 1_555 1_555
H17 C24 1_555 1_555
H18 C24 1_555 1_555
O1 C2 1_555 1_555
H19 O1 1_555 1_555
F1 C15 1_555 1_555
F2 C15 1_555 1_555
N1 C14 1_555 1_555
N2 C1 1_555 1_555
H20 N2 1_555 1_555
O2 C16 1_555 1_555
O3 S1 1_555 1_555
O4 S1 1_555 1_555
S1 C18 1_555 1_555
C5 C6 1_555 1_555
C7 N2 1_555 1_555
C12 C13 1_555 1_555
C22 C23 1_555 1_555
O2 S1 1_555 1_555

#END
