
#######################################################################
#
#                 Cambridge Crystallographic Data Centre
#                                CCDC 
#
#######################################################################
#
# If this CIF has been generated from an entry in the Cambridge 
# Structural Database, then it will include bibliographic, chemical, 
# crystal, experimental, refinement or atomic coordinate data resulting 
# from the CCDC's data processing and validation procedures.
#
#######################################################################

data_GIGHAG
_chemical_formula_moiety         'C23 H22 N4'
_chemical_name_systematic        
(E)-2,6-Dimethyl-N-(1-(6-(1-methyl-1H-benzo(d)imidazol-2-yl)pyridin-2-yl)ethylidene)aniline
_symmetry_cell_setting           monoclinic
_symmetry_space_group_name_H-M   'P 21/c'
_symmetry_Int_Tables_number      14
_space_group_name_Hall           '-P 2ybc'
loop_
_symmetry_equiv_pos_site_id
_symmetry_equiv_pos_as_xyz
1 x,y,z
2 -x,1/2+y,1/2-z
3 -x,-y,-z
4 x,1/2-y,1/2+z
_cell_length_a                   17.8207(3)
_cell_length_b                   8.3406(1)
_cell_length_c                   13.2319(2)
_cell_angle_alpha                90
_cell_angle_beta                 100.749(1)
_cell_angle_gamma                90
_cell_volume                     1932.22
_exptl_crystal_colour            yellow
_exptl_crystal_description       block
_chemical_melting_point          '170-172 deg.C'
_cell_formula_units_Z            4
_exptl_crystal_recrystallization_method 'ethyl acetate'
loop_
_atom_site_label
_atom_site_type_symbol
_atom_site_fract_x
_atom_site_fract_y
_atom_site_fract_z
N1 N 0.15853(6) 0.68583(12) 0.48001(8)
N2 N 0.33815(7) 0.80909(15) 0.61746(9)
C1 C 0.12735(7) 0.58138(15) 0.40755(9)
C2 C 0.27956(8) 0.55946(17) 0.48340(11)
H1 H 0.3316 0.5551 0.5104
N3 N -0.00852(6) 0.66259(13) 0.41355(8)
C3 C 0.26622(7) 0.79437(16) 0.59738(10)
N4 N 0.01533(7) 0.52719(15) 0.27559(9)
C4 C 0.23355(7) 0.67460(15) 0.51708(9)
C5 C -0.06220(8) 0.55325(16) 0.26506(11)
C6 C -0.07817(8) 0.63622(16) 0.35015(11)
C7 C 0.16948(8) 0.46111(16) 0.37037(10)
H2 H 0.1460 0.3892 0.3206
C8 C 0.04513(7) 0.59307(15) 0.36467(10)
C9 C 0.24662(8) 0.45169(17) 0.40922(11)
H3 H 0.2762 0.3733 0.3856
C10 C 0.37427(7) 0.91869(18) 0.69375(10)
C11 C 0.40090(8) 0.8626(2) 0.79364(12)
C12 C 0.00129(9) 0.74775(19) 0.51137(12)
H4 H 0.0545 0.7512 0.5419
H5 H -0.0263 0.6930 0.5568
H6 H -0.0179 0.8551 0.4999
C13 C -0.12159(9) 0.50563(19) 0.18608(13)
H7 H -0.1117 0.4514 0.1285
C14 C -0.15264(8) 0.67309(19) 0.36073(13)
H8 H -0.1630 0.7283 0.4177
C15 C 0.38789(9) 1.0763(2) 0.66628(12)
C16 C -0.21027(9) 0.6235(2) 0.28230(15)
H9 H -0.2607 0.6451 0.2869
C17 C 0.42721(10) 1.1784(2) 0.74073(15)
H10 H 0.4355 1.2843 0.7238
C18 C 0.44113(10) 0.9684(3) 0.86489(13)
H11 H 0.4598 0.9327 0.9314
C19 C -0.19502(9) 0.5418(2) 0.19653(15)
H12 H -0.2355 0.5110 0.1451
C20 C 0.45411(10) 1.1245(3) 0.83970(15)
H13 H 0.4808 1.1935 0.8889
C21 C 0.21065(10) 0.8841(3) 0.64824(16)
H14 H 0.2379 0.9575 0.6977
H15 H 0.1826 0.8096 0.6823
H16 H 0.1758 0.9425 0.5973
C22 C 0.36075(14) 1.1343(3) 0.55801(16)
H17 H 0.3747 1.2448 0.5530
H18 H 0.3062 1.1239 0.5404
H19 H 0.3840 1.0712 0.5115
C23 C 0.38685(12) 0.6945(3) 0.82284(16)
H20 H 0.4087 0.6779 0.8940
H21 H 0.4099 0.6220 0.7812
H22 H 0.3329 0.6750 0.8121
loop_
_geom_bond_atom_site_label_1
_geom_bond_atom_site_label_2
_geom_bond_site_symmetry_1
_geom_bond_site_symmetry_2
N1 C1 1_555 1_555
N2 C3 1_555 1_555
C1 C7 1_555 1_555
C2 H1 1_555 1_555
N3 C6 1_555 1_555
C3 C4 1_555 1_555
N4 C5 1_555 1_555
C4 N1 1_555 1_555
C5 C6 1_555 1_555
C6 C14 1_555 1_555
C7 H2 1_555 1_555
C8 C1 1_555 1_555
C9 C2 1_555 1_555
H3 C9 1_555 1_555
C10 N2 1_555 1_555
C11 C10 1_555 1_555
C12 N3 1_555 1_555
H4 C12 1_555 1_555
H5 C12 1_555 1_555
H6 C12 1_555 1_555
C13 C5 1_555 1_555
H7 C13 1_555 1_555
C14 H8 1_555 1_555
C15 C10 1_555 1_555
C16 C14 1_555 1_555
H9 C16 1_555 1_555
C17 C15 1_555 1_555
H10 C17 1_555 1_555
C18 C11 1_555 1_555
H11 C18 1_555 1_555
C19 C13 1_555 1_555
H12 C19 1_555 1_555
C20 C17 1_555 1_555
H13 C20 1_555 1_555
C21 C3 1_555 1_555
H14 C21 1_555 1_555
H15 C21 1_555 1_555
H16 C21 1_555 1_555
C22 C15 1_555 1_555
H17 C22 1_555 1_555
H18 C22 1_555 1_555
H19 C22 1_555 1_555
C23 C11 1_555 1_555
H20 C23 1_555 1_555
H21 C23 1_555 1_555
H22 C23 1_555 1_555
C2 C4 1_555 1_555
N3 C8 1_555 1_555
N4 C8 1_555 1_555
C7 C9 1_555 1_555
C16 C19 1_555 1_555
C18 C20 1_555 1_555

#END
