
#######################################################################
#
#                 Cambridge Crystallographic Data Centre
#                                CCDC 
#
#######################################################################
#
# If this CIF has been generated from an entry in the Cambridge 
# Structural Database, then it will include bibliographic, chemical, 
# crystal, experimental, refinement or atomic coordinate data resulting 
# from the CCDC's data processing and validation procedures.
#
#######################################################################

data_GIGLIT
_chemical_formula_moiety         'C20 H15 N3 O1'
_chemical_name_systematic        
3-Benzyl-2-phenylpyrido[4,3-d]pyrimidin-4(3H)-one
_symmetry_cell_setting           orthorhombic
_symmetry_space_group_name_H-M   'P b c a'
_symmetry_Int_Tables_number      61
_space_group_name_Hall           '-P 2ac 2ab'
loop_
_symmetry_equiv_pos_site_id
_symmetry_equiv_pos_as_xyz
1 x,y,z
2 1/2-x,-y,1/2+z
3 -x,1/2+y,1/2-z
4 1/2+x,1/2-y,-z
5 -x,-y,-z
6 1/2+x,y,1/2-z
7 x,1/2-y,1/2+z
8 1/2-x,1/2+y,z
_cell_length_a                   11.6161(3)
_cell_length_b                   8.1844(2)
_cell_length_c                   31.4284(8)
_cell_angle_alpha                90
_cell_angle_beta                 90
_cell_angle_gamma                90
_cell_volume                     2987.92
_exptl_crystal_colour            colorless
_exptl_crystal_description       needle
_cell_formula_units_Z            8
loop_
_atom_site_label
_atom_site_type_symbol
_atom_site_fract_x
_atom_site_fract_y
_atom_site_fract_z
C1 C 0.58370(12) 0.96118(19) 0.59089(4)
C2 C 0.74558(12) 0.89591(18) 0.55313(4)
C3 C 0.79937(12) 0.8081(2) 0.52034(4)
H1 H 0.7550 0.7473 0.5005
C4 C 0.91734(13) 0.8117(2) 0.51739(5)
H2 H 0.9525 0.7513 0.4951
C5 C 0.93562(13) 0.9817(2) 0.57451(5)
H3 H 0.9824 1.0448 0.5931
C6 C 0.81593(12) 0.98471(19) 0.58070(4)
C7 C 0.76483(12) 1.07793(19) 0.61531(4)
C8 C 0.58838(13) 1.15408(19) 0.65266(4)
H4 H 0.5064 1.1666 0.6447
H5 H 0.6233 1.2644 0.6524
C9 C 0.59349(13) 1.08893(19) 0.69774(4)
C10 C 0.68764(13) 1.0059(2) 0.71412(5)
H6 H 0.7487 0.9742 0.6958
C11 C 0.69308(15) 0.9688(2) 0.75721(5)
H7 H 0.7578 0.9118 0.7682
C12 C 0.60509(16) 1.0143(2) 0.78417(5)
H8 H 0.6104 0.9923 0.8138
C13 C 0.50931(16) 1.0918(2) 0.76786(5)
H9 H 0.4474 1.1204 0.7862
C14 C 0.50324(14) 1.1281(2) 0.72477(5)
H10 H 0.4366 1.1803 0.7137
C15 C 0.45850(12) 0.93729(19) 0.59836(4)
C16 C 0.37949(12) 0.9859(2) 0.56741(5)
H11 H 0.4049 1.0426 0.5428
C17 C 0.26335(13) 0.9510(2) 0.57286(5)
H12 H 0.2090 0.9857 0.5522
C18 C 0.22680(13) 0.8659(2) 0.60835(5)
H13 H 0.1475 0.8403 0.6116
C19 C 0.30495(13) 0.8174(2) 0.63925(5)
H14 H 0.2791 0.7591 0.6636
C20 C 0.42084(13) 0.85399(19) 0.63456(4)
H15 H 0.4744 0.8225 0.6559
N1 N 0.64560(10) 1.05500(16) 0.61963(4)
N2 N 0.62727(10) 0.88828(16) 0.55800(4)
N3 N 0.98686(11) 0.89592(18) 0.54431(4)
O1 O 0.81729(9) 1.16873(15) 0.63929(3)
loop_
_geom_bond_atom_site_label_1
_geom_bond_atom_site_label_2
_geom_bond_site_symmetry_1
_geom_bond_site_symmetry_2
C1 C15 1_555 1_555
C2 C3 1_555 1_555
C3 H1 1_555 1_555
C4 C3 1_555 1_555
H2 C4 1_555 1_555
C5 H3 1_555 1_555
C6 C2 1_555 1_555
C7 C6 1_555 1_555
C8 H4 1_555 1_555
H5 C8 1_555 1_555
C9 C8 1_555 1_555
C10 C9 1_555 1_555
H6 C10 1_555 1_555
C11 C10 1_555 1_555
H7 C11 1_555 1_555
C12 C11 1_555 1_555
H8 C12 1_555 1_555
C13 C12 1_555 1_555
H9 C13 1_555 1_555
C14 C9 1_555 1_555
H10 C14 1_555 1_555
C15 C16 1_555 1_555
C16 H11 1_555 1_555
C17 C16 1_555 1_555
H12 C17 1_555 1_555
C18 C17 1_555 1_555
H13 C18 1_555 1_555
C19 C18 1_555 1_555
H14 C19 1_555 1_555
C20 C15 1_555 1_555
H15 C20 1_555 1_555
N1 C1 1_555 1_555
N2 C1 1_555 1_555
N3 C4 1_555 1_555
O1 C7 1_555 1_555
C2 N2 1_555 1_555
C5 C6 1_555 1_555
C5 N3 1_555 1_555
C7 N1 1_555 1_555
C8 N1 1_555 1_555
C13 C14 1_555 1_555
C19 C20 1_555 1_555

#END
