
#######################################################################
#
#                 Cambridge Crystallographic Data Centre
#                                CCDC 
#
#######################################################################
#
# If this CIF has been generated from an entry in the Cambridge 
# Structural Database, then it will include bibliographic, chemical, 
# crystal, experimental, refinement or atomic coordinate data resulting 
# from the CCDC's data processing and validation procedures.
#
#######################################################################

data_GIGLUF
_chemical_formula_moiety         'C20 H15 N3 O1'
_chemical_name_systematic        
3-Benzyl-2-phenylpyrido[3,4-d]pyrimidin-4(3H)-one
_symmetry_cell_setting           monoclinic
_symmetry_space_group_name_H-M   'P 21/c'
_symmetry_Int_Tables_number      14
_space_group_name_Hall           '-P 2ybc'
loop_
_symmetry_equiv_pos_site_id
_symmetry_equiv_pos_as_xyz
1 x,y,z
2 -x,1/2+y,1/2-z
3 -x,-y,-z
4 x,1/2-y,1/2+z
_cell_length_a                   10.4219(5)
_cell_length_b                   8.5137(4)
_cell_length_c                   17.6503(9)
_cell_angle_alpha                90
_cell_angle_beta                 101.891(2)
_cell_angle_gamma                90
_cell_volume                     1532.49
_exptl_crystal_colour            colorless
_exptl_crystal_description       block
_cell_formula_units_Z            4
loop_
_atom_site_label
_atom_site_type_symbol
_atom_site_fract_x
_atom_site_fract_y
_atom_site_fract_z
C1 C 0.43879(11) 0.52610(12) 0.18865(6)
C2 C 0.39226(12) 0.42104(13) 0.06681(6)
C3 C 0.43053(13) 0.32674(14) 0.00942(7)
H1 H 0.5154 0.2808 0.0206
C4 C 0.23405(14) 0.36414(15) -0.07389(7)
H2 H 0.1785 0.3436 -0.1227
C5 C 0.18635(13) 0.45883(15) -0.02258(7)
H3 H 0.1008 0.5027 -0.0358
C6 C 0.26798(12) 0.48820(13) 0.04957(6)
C7 C 0.22557(11) 0.58872(13) 0.10723(6)
C8 C 0.28286(11) 0.70718(12) 0.23570(6)
H4 H 0.2328 0.7971 0.2090
H5 H 0.3647 0.7491 0.2680
C9 C 0.20280(11) 0.63053(12) 0.28799(6)
C10 C 0.12534(12) 0.49789(13) 0.26660(7)
H6 H 0.1204 0.4525 0.2169
C11 C 0.05511(12) 0.43162(14) 0.31772(7)
H7 H 0.0030 0.3408 0.3029
C12 C 0.06085(12) 0.49744(15) 0.39007(7)
H8 H 0.0140 0.4509 0.4251
C13 C 0.13526(13) 0.63164(15) 0.41119(7)
H9 H 0.1378 0.6785 0.4603
C14 C 0.20621(12) 0.69757(14) 0.36032(7)
H10 H 0.2574 0.7891 0.3751
C15 C 0.53192(11) 0.54647(12) 0.26405(6)
C16 C 0.50713(12) 0.48245(13) 0.33255(7)
H11 H 0.4256 0.4328 0.3330
C17 C 0.60325(13) 0.49219(14) 0.40018(7)
H12 H 0.5877 0.4474 0.4468
C18 C 0.72139(13) 0.56684(14) 0.39992(7)
H13 H 0.7861 0.5737 0.4464
C19 C 0.74542(12) 0.63167(13) 0.33192(7)
H14 H 0.8261 0.6836 0.3320
C20 C 0.65126(12) 0.62039(13) 0.26391(7)
H15 H 0.6682 0.6631 0.2172
N1 N 0.31730(9) 0.60060(10) 0.17698(5)
N2 N 0.47825(10) 0.44045(11) 0.13715(6)
N3 N 0.35455(12) 0.29886(12) -0.05910(6)
O1 O 0.12071(9) 0.65785(11) 0.09696(5)
loop_
_geom_bond_atom_site_label_1
_geom_bond_atom_site_label_2
_geom_bond_site_symmetry_1
_geom_bond_site_symmetry_2
C1 C15 1_555 1_555
C2 C3 1_555 1_555
C3 H1 1_555 1_555
C4 H2 1_555 1_555
C5 C4 1_555 1_555
H3 C5 1_555 1_555
C6 C2 1_555 1_555
C7 C6 1_555 1_555
C8 H4 1_555 1_555
H5 C8 1_555 1_555
C9 C8 1_555 1_555
C10 C9 1_555 1_555
H6 C10 1_555 1_555
C11 C10 1_555 1_555
H7 C11 1_555 1_555
C12 C11 1_555 1_555
H8 C12 1_555 1_555
C13 C12 1_555 1_555
H9 C13 1_555 1_555
C14 C9 1_555 1_555
H10 C14 1_555 1_555
C15 C16 1_555 1_555
C16 H11 1_555 1_555
C17 C16 1_555 1_555
H12 C17 1_555 1_555
C18 C17 1_555 1_555
H13 C18 1_555 1_555
C19 C18 1_555 1_555
H14 C19 1_555 1_555
C20 C15 1_555 1_555
H15 C20 1_555 1_555
N1 C1 1_555 1_555
N2 C1 1_555 1_555
N3 C3 1_555 1_555
O1 C7 1_555 1_555
C2 N2 1_555 1_555
C4 N3 1_555 1_555
C5 C6 1_555 1_555
C7 N1 1_555 1_555
C8 N1 1_555 1_555
C13 C14 1_555 1_555
C19 C20 1_555 1_555

#END
