
#######################################################################
#
#                 Cambridge Crystallographic Data Centre
#                                CCDC 
#
#######################################################################
#
# If this CIF has been generated from an entry in the Cambridge 
# Structural Database, then it will include bibliographic, chemical, 
# crystal, experimental, refinement or atomic coordinate data resulting 
# from the CCDC's data processing and validation procedures.
#
#######################################################################

data_GIGLOZ
_chemical_formula_moiety         'C20 H15 N3 O1'
_chemical_name_systematic        
2-Benzyl-3-(pyridin-4-ylimino)isoindolin-1-one
_symmetry_cell_setting           monoclinic
_symmetry_space_group_name_H-M   'P 21/n'
_symmetry_Int_Tables_number      14
_space_group_name_Hall           '-P 2yn'
loop_
_symmetry_equiv_pos_site_id
_symmetry_equiv_pos_as_xyz
1 x,y,z
2 1/2-x,1/2+y,1/2-z
3 -x,-y,-z
4 1/2+x,1/2-y,1/2+z
_cell_length_a                   10.2601(7)
_cell_length_b                   8.3406(6)
_cell_length_c                   18.1111(13)
_cell_angle_alpha                90
_cell_angle_beta                 97.908(2)
_cell_angle_gamma                90
_cell_volume                     1535.13
_exptl_crystal_colour            yellow
_exptl_crystal_description       block
_cell_formula_units_Z            4
loop_
_atom_site_label
_atom_site_type_symbol
_atom_site_fract_x
_atom_site_fract_y
_atom_site_fract_z
C1 C -0.09393(11) 0.64465(14) 0.03798(7)
C2 C -0.05446(11) 0.74052(14) -0.02412(7)
C3 C -0.12988(12) 0.78857(15) -0.08976(7)
H1 H -0.2197 0.7583 -0.1011
C4 C -0.06913(13) 0.88296(16) -0.13848(7)
H2 H -0.1176 0.9164 -0.1844
C5 C 0.06220(12) 0.92905(15) -0.12066(7)
H3 H 0.1015 0.9936 -0.1548
C6 C 0.13744(12) 0.88246(14) -0.05373(7)
H4 H 0.2264 0.9156 -0.0414
C7 C 0.07703(11) 0.78578(13) -0.00595(7)
C8 C 0.12454(11) 0.71831(14) 0.06889(7)
C9 C 0.01656(11) 0.56807(14) 0.16531(7)
H5 H 0.1051 0.5240 0.1826
H6 H -0.0470 0.4782 0.1615
C10 C -0.01927(12) 0.68846(14) 0.22173(7)
C11 C -0.15082(12) 0.71515(15) 0.22961(7)
H7 H -0.2181 0.6580 0.1992
C12 C -0.18408(13) 0.82503(16) 0.28176(8)
H8 H -0.2739 0.8414 0.2872
C13 C -0.08689(14) 0.91079(16) 0.32583(7)
H9 H -0.1099 0.9850 0.3617
C14 C 0.04429(13) 0.88754(16) 0.31726(7)
H10 H 0.1111 0.9476 0.3466
C15 C 0.07784(12) 0.77645(15) 0.26580(7)
H11 H 0.1678 0.7603 0.2606
C16 C 0.35076(11) 0.77861(14) 0.08988(7)
C17 C 0.41759(12) 0.90230(16) 0.13044(7)
H12 H 0.3811 0.9531 0.1698
C18 C 0.53875(13) 0.94977(16) 0.11204(8)
H13 H 0.5825 1.0362 0.1392
C19 C 0.53199(12) 0.76193(15) 0.02052(7)
H14 H 0.5716 0.7119 -0.0179
C20 C 0.40981(11) 0.70642(15) 0.03363(7)
H15 H 0.3675 0.6212 0.0049
N1 N 0.01590(9) 0.64077(12) 0.09198(6)
N2 N 0.23365(10) 0.71923(12) 0.11213(6)
N3 N 0.59800(10) 0.88178(14) 0.05859(7)
O1 O -0.19793(8) 0.57840(11) 0.04327(5)
loop_
_geom_bond_atom_site_label_1
_geom_bond_atom_site_label_2
_geom_bond_site_symmetry_1
_geom_bond_site_symmetry_2
C1 C2 1_555 1_555
C2 C3 1_555 1_555
C3 H1 1_555 1_555
C4 C3 1_555 1_555
H2 C4 1_555 1_555
C5 C4 1_555 1_555
H3 C5 1_555 1_555
C6 C5 1_555 1_555
H4 C6 1_555 1_555
C7 C2 1_555 1_555
C8 C7 1_555 1_555
C9 H5 1_555 1_555
H6 C9 1_555 1_555
C10 C9 1_555 1_555
C11 C10 1_555 1_555
H7 C11 1_555 1_555
C12 C11 1_555 1_555
H8 C12 1_555 1_555
C13 C12 1_555 1_555
H9 C13 1_555 1_555
C14 C13 1_555 1_555
H10 C14 1_555 1_555
C15 C10 1_555 1_555
H11 C15 1_555 1_555
C16 C17 1_555 1_555
C17 H12 1_555 1_555
C18 C17 1_555 1_555
H13 C18 1_555 1_555
C19 H14 1_555 1_555
C20 C16 1_555 1_555
H15 C20 1_555 1_555
N1 C1 1_555 1_555
N2 C8 1_555 1_555
N3 C18 1_555 1_555
O1 C1 1_555 1_555
C6 C7 1_555 1_555
C8 N1 1_555 1_555
C9 N1 1_555 1_555
C14 C15 1_555 1_555
C16 N2 1_555 1_555
C19 C20 1_555 1_555
C19 N3 1_555 1_555

#END
