
#######################################################################
#
#                 Cambridge Crystallographic Data Centre
#                                CCDC 
#
#######################################################################
#
# If this CIF has been generated from an entry in the Cambridge 
# Structural Database, then it will include bibliographic, chemical, 
# crystal, experimental, refinement or atomic coordinate data resulting 
# from the CCDC's data processing and validation procedures.
#
#######################################################################

data_GIGNAN
_chemical_formula_moiety         'C9 H15 N3 O5,2(H2 O1)'
_chemical_name_systematic        
'1-[4-(1,2R,3S,4R-tetrahydroxybutyl)-1H-imidazol-2-yl]ethanone oxime dihydrate'
_symmetry_cell_setting           triclinic
_symmetry_space_group_name_H-M   'P 1'
_symmetry_Int_Tables_number      1
_space_group_name_Hall           'P 1'
loop_
_symmetry_equiv_pos_site_id
_symmetry_equiv_pos_as_xyz
1 x,y,z
_cell_length_a                   4.7968(2)
_cell_length_b                   7.1425(3)
_cell_length_c                   9.6965(4)
_cell_angle_alpha                100.090(2)
_cell_angle_beta                 96.843(3)
_cell_angle_gamma                94.552(2)
_cell_volume                     323.033
_exptl_crystal_colour            colorless
_exptl_crystal_description       Needle
_cell_formula_units_Z            1
loop_
_atom_site_label
_atom_site_type_symbol
_atom_site_fract_x
_atom_site_fract_y
_atom_site_fract_z
O1 O 0.2861(3) 0.1266(2) -0.13065(15)
H1 H 0.135(7) 0.137(5) -0.081(4)
O2 O 0.8564(3) 0.1978(2) 0.02200(14)
H2 H 0.776(7) 0.294(5) -0.005(3)
O3 O 0.2985(3) -0.0359(2) 0.18193(14)
H3 H 0.373(5) -0.130(4) 0.205(3)
O4 O 0.8638(3) 0.00325(19) 0.33317(14)
H4 H 1.015(8) 0.000(5) 0.290(4)
O5 O -0.1078(3) 0.6592(2) 0.78984(16)
H5 H -0.186(7) 0.612(5) 0.852(3)
N1 N 0.4010(3) 0.2536(2) 0.62960(18)
H6 H 0.342(6) 0.222(4) 0.711(3)
N2 N 0.4340(3) 0.3922(2) 0.44394(17)
N3 N 0.0663(3) 0.5187(2) 0.74337(18)
C1 C 0.4475(4) -0.0216(3) -0.0949(2)
H7 H 0.5523 -0.0681 -0.1740
H8 H 0.3182 -0.1300 -0.0814
C2 C 0.6560(4) 0.0468(3) 0.03931(19)
H9 H 0.7628 -0.0632 0.0571
C3 C 0.5118(4) 0.1107(3) 0.1693(2)
H10 H 0.4165 0.2267 0.1551
C4 C 0.7247(4) 0.1652(3) 0.3052(2)
H11 H 0.8681 0.2691 0.2942
C5 C 0.5805(4) 0.2319(3) 0.43115(19)
C6 C 0.5612(4) 0.1462(3) 0.5447(2)
H12 H 0.6427 0.0341 0.5619
C7 C 0.3282(4) 0.4001(3) 0.5658(2)
C8 C 0.1512(4) 0.5427(3) 0.6254(2)
C9 C 0.0763(5) 0.6998(3) 0.5495(2)
H13 H -0.1295 0.6950 0.5294
H14 H 0.1573 0.6845 0.4606
H15 H 0.1518 0.8232 0.6087
O6 O 0.5898(3) -0.4772(2) -0.01921(17)
H16 H 0.576(9) -0.417(6) 0.067(5)
H17 H 0.421(8) -0.521(5) -0.072(4)
O7 O 0.5395(3) -0.3541(2) 0.25957(16)
H18 H 0.496(6) -0.437(5) 0.308(3)
H19 H 0.661(7) -0.260(4) 0.300(3)
loop_
_geom_bond_atom_site_label_1
_geom_bond_atom_site_label_2
_geom_bond_site_symmetry_1
_geom_bond_site_symmetry_2
O1 H1 1_555 1_555
O2 H2 1_555 1_555
O3 H3 1_555 1_555
O4 H4 1_555 1_555
O5 H5 1_555 1_555
N1 H6 1_555 1_555
N2 C5 1_555 1_555
N3 O5 1_555 1_555
C1 O1 1_555 1_555
H7 C1 1_555 1_555
H8 C1 1_555 1_555
C2 O2 1_555 1_555
H9 C2 1_555 1_555
C3 O3 1_555 1_555
H10 C3 1_555 1_555
C4 O4 1_555 1_555
H11 C4 1_555 1_555
C5 C4 1_555 1_555
C6 N1 1_555 1_555
H12 C6 1_555 1_555
C7 N1 1_555 1_555
C8 N3 1_555 1_555
C9 C8 1_555 1_555
H13 C9 1_555 1_555
H14 C9 1_555 1_555
H15 C9 1_555 1_555
O6 H16 1_555 1_555
H17 O6 1_555 1_555
O7 H18 1_555 1_555
H19 O7 1_555 1_555
N2 C7 1_555 1_555
C1 C2 1_555 1_555
C2 C3 1_555 1_555
C3 C4 1_555 1_555
C5 C6 1_555 1_555
C7 C8 1_555 1_555

#END
