
#######################################################################
#
#                 Cambridge Crystallographic Data Centre
#                                CCDC 
#
#######################################################################
#
# If this CIF has been generated from an entry in the Cambridge 
# Structural Database, then it will include bibliographic, chemical, 
# crystal, experimental, refinement or atomic coordinate data resulting 
# from the CCDC's data processing and validation procedures.
#
#######################################################################

data_GIGSAS
_chemical_formula_moiety         'C27 H24 O3 S1'
_chemical_name_systematic        
4-Methoxy-10-((4-methylphenyl)sulfonyl)-12-phenyltetracyclo[7.3.1.0^2,12^.0^3,8^]trideca-3,5,7,10-tetraene
_symmetry_cell_setting           triclinic
_symmetry_space_group_name_H-M   'P -1'
_symmetry_Int_Tables_number      2
_space_group_name_Hall           '-P 1'
loop_
_symmetry_equiv_pos_site_id
_symmetry_equiv_pos_as_xyz
1 x,y,z
2 -x,-y,-z
_cell_length_a                   8.8560(5)
_cell_length_b                   11.3252(6)
_cell_length_c                   12.3448(7)
_cell_angle_alpha                109.7750(10)
_cell_angle_beta                 92.0230(10)
_cell_angle_gamma                112.1730(10)
_cell_volume                     1059.92
_exptl_crystal_colour            colorless
_cell_formula_units_Z            2
loop_
_atom_site_label
_atom_site_type_symbol
_atom_site_fract_x
_atom_site_fract_y
_atom_site_fract_z
S1 S 0.49769(5) 0.71591(4) 0.46019(3)
O1 O 0.39506(13) 0.58321(11) 0.46222(9)
O2 O 0.42157(14) 0.78270(11) 0.40967(9)
O3 O 0.77485(14) 0.53415(11) -0.02926(9)
C1 C 0.8742(2) 1.1091(2) 0.95083(16)
H1 H 0.9925 1.1314 0.9508
H2 H 0.8379 1.0653 1.0071
H3 H 0.8565 1.1938 0.9730
C2 C 0.7753(2) 1.01147(17) 0.82978(14)
C3 C 0.7554(2) 0.87449(18) 0.78755(14)
H4 H 0.8025 0.8429 0.8363
C4 C 0.66853(19) 0.78392(16) 0.67604(14)
H5 H 0.6553 0.6908 0.6484
C5 C 0.60070(19) 0.83099(16) 0.60472(13)
C6 C 0.66215(18) 0.70139(15) 0.38988(13)
C7 C 0.68577(19) 0.58551(15) 0.36207(13)
H6 H 0.6084 0.5097 0.3762
C8 C 0.82866(18) 0.57264(15) 0.31020(13)
C9 C 0.85216(19) 0.44541(15) 0.30096(13)
C10 C 0.9931(2) 0.45115(16) 0.35939(14)
H7 H 1.0816 0.5380 0.4033
C11 C 1.0057(2) 0.33076(18) 0.35408(15)
H8 H 1.1023 0.3360 0.3951
C12 C 0.8787(2) 0.20311(17) 0.28947(15)
H9 H 0.8879 0.1211 0.2860
C13 C 0.7041(2) 1.05542(17) 0.75748(14)
H10 H 0.7149 1.1479 0.7858
C14 C 0.6176(2) 0.96650(16) 0.64454(14)
H11 H 0.5708 0.9979 0.5955
C15 C 0.77900(19) 0.82122(15) 0.36290(13)
H12 H 0.7658 0.9075 0.4077
C16 C 0.95757(19) 0.83828(15) 0.39629(13)
H13 H 1.0367 0.9149 0.3780
H14 H 0.9838 0.8616 0.4816
C17 C 0.97650(19) 0.70757(15) 0.33014(13)
H15 H 1.0893 0.7091 0.3440
C18 C 0.87726(19) 0.62568(15) 0.20786(13)
H16 H 0.9313 0.5759 0.1510
C19 C 0.7247(2) 0.31615(16) 0.23527(14)
H17 H 0.6281 0.3107 0.1940
C20 C 0.7375(2) 0.19615(17) 0.22968(14)
H18 H 0.6500 0.1091 0.1850
C21 C 0.77643(19) 0.67983(15) 0.15828(13)
C22 C 0.72366(19) 0.63110(15) 0.03649(14)
C23 C 0.7233(2) 0.48025(18) -0.15326(14)
H19 H 0.6018 0.4387 -0.1729
H20 H 0.7647 0.4100 -0.1899
H21 H 0.7679 0.5549 -0.1821
C24 C 0.6289(2) 0.68285(17) -0.00968(14)
H22 H 0.5929 0.6493 -0.0920
C25 C 0.5873(2) 0.78422(17) 0.06566(15)
H23 H 0.5231 0.8199 0.0341
C26 C 0.6379(2) 0.83357(16) 0.18558(14)
H24 H 0.6087 0.9027 0.2361
C27 C 0.73226(19) 0.78119(15) 0.23211(13)
loop_
_geom_bond_atom_site_label_1
_geom_bond_atom_site_label_2
_geom_bond_site_symmetry_1
_geom_bond_site_symmetry_2
S1 O1 1_555 1_555
O2 S1 1_555 1_555
O3 C22 1_555 1_555
C1 H1 1_555 1_555
H2 C1 1_555 1_555
H3 C1 1_555 1_555
C2 C1 1_555 1_555
C3 C2 1_555 1_555
H4 C3 1_555 1_555
C4 C3 1_555 1_555
H5 C4 1_555 1_555
C5 S1 1_555 1_555
C6 S1 1_555 1_555
C7 C6 1_555 1_555
H6 C7 1_555 1_555
C8 C7 1_555 1_555
C9 C8 1_555 1_555
C10 C9 1_555 1_555
H7 C10 1_555 1_555
C11 C10 1_555 1_555
H8 C11 1_555 1_555
C12 C11 1_555 1_555
H9 C12 1_555 1_555
C13 C2 1_555 1_555
H10 C13 1_555 1_555
C14 C5 1_555 1_555
H11 C14 1_555 1_555
C15 C6 1_555 1_555
H12 C15 1_555 1_555
C16 C15 1_555 1_555
H13 C16 1_555 1_555
H14 C16 1_555 1_555
C17 C8 1_555 1_555
H15 C17 1_555 1_555
C18 C8 1_555 1_555
H16 C18 1_555 1_555
C19 C9 1_555 1_555
H17 C19 1_555 1_555
C20 C12 1_555 1_555
H18 C20 1_555 1_555
C21 C18 1_555 1_555
C22 C21 1_555 1_555
C23 O3 1_555 1_555
H19 C23 1_555 1_555
H20 C23 1_555 1_555
H21 C23 1_555 1_555
C24 C22 1_555 1_555
H22 C24 1_555 1_555
C25 C24 1_555 1_555
H23 C25 1_555 1_555
C26 C25 1_555 1_555
H24 C26 1_555 1_555
C27 C15 1_555 1_555
C4 C5 1_555 1_555
C13 C14 1_555 1_555
C16 C17 1_555 1_555
C17 C18 1_555 1_555
C19 C20 1_555 1_555
C21 C27 1_555 1_555
C26 C27 1_555 1_555

#END
