
#######################################################################
#
#                 Cambridge Crystallographic Data Centre
#                                CCDC 
#
#######################################################################
#
# If this CIF has been generated from an entry in the Cambridge 
# Structural Database, then it will include bibliographic, chemical, 
# crystal, experimental, refinement or atomic coordinate data resulting 
# from the CCDC's data processing and validation procedures.
#
#######################################################################

data_GIGVID
_chemical_formula_moiety         'C25 H19 N3 O4,C3 H7 N1 O1,H2 O1'
_chemical_name_systematic        
'18-Amino-8-(4-methoxyphenyl)-3,16-dioxo-19-oxa-8-azapentacyclo[7.7.3.0^1,9^.0^2,7^.0^10,15^]nonadeca-2(7),10,12,14,17-pentaene-17-carbonitrile N,N-dimethylformamide solvate monohydrate'
_symmetry_cell_setting           triclinic
_symmetry_space_group_name_H-M   'P -1'
_symmetry_Int_Tables_number      2
_space_group_name_Hall           '-P 1'
loop_
_symmetry_equiv_pos_site_id
_symmetry_equiv_pos_as_xyz
1 x,y,z
2 -x,-y,-z
_cell_length_a                   10.6971(12)
_cell_length_b                   10.8487(12)
_cell_length_c                   11.5018(13)
_cell_angle_alpha                102.042(4)
_cell_angle_beta                 103.347(3)
_cell_angle_gamma                91.420(3)
_cell_volume                     1266.41
_cell_formula_units_Z            2
loop_
_atom_site_label
_atom_site_type_symbol
_atom_site_fract_x
_atom_site_fract_y
_atom_site_fract_z
C1 C 0.3108(2) 0.4291(3) 0.4323(2)
H1 H 0.3946 0.4592 0.4376
C2 C 0.2083(3) 0.4792(3) 0.3652(3)
H2 H 0.2231 0.5416 0.3243
C3 C 0.0842(2) 0.4366(3) 0.3591(2)
C4 C 0.0643(2) 0.3431(3) 0.4188(3)
H3 H -0.0195 0.3142 0.4151
C5 C 0.1657(2) 0.2922(3) 0.4835(2)
H4 H 0.1508 0.2281 0.5224
C6 C 0.2906(2) 0.3356(2) 0.4913(2)
C7 C -0.0089(4) 0.5796(5) 0.2378(5)
H5 H 0.0370 0.6515 0.2975
H6 H -0.0923 0.6021 0.1997
H7 H 0.0386 0.5534 0.1767
C8 C 0.5446(2) 0.2582(2) 0.7472(2)
C9 C 0.4154(2) 0.3141(2) 0.6984(2)
C10 C 0.3690(2) 0.1678(2) 0.7988(2)
C11 C 0.4990(2) 0.1653(2) 0.8123(2)
C12 C 0.5734(2) 0.0892(2) 0.8814(2)
C13 C 0.6290(2) 0.3716(2) 0.8349(2)
C14 C 0.5530(2) 0.4831(2) 0.8352(2)
C15 C 0.4305(2) 0.4520(2) 0.7605(2)
C16 C 0.3417(2) 0.5425(2) 0.7511(2)
H8 H 0.2583 0.5214 0.7029
C17 C 0.3805(3) 0.6643(3) 0.8151(3)
H9 H 0.3223 0.7265 0.8102
C18 C 0.5041(3) 0.6960(3) 0.8865(3)
H10 H 0.5289 0.7797 0.9267
C19 C 0.5914(3) 0.6061(3) 0.8992(2)
H11 H 0.6739 0.6273 0.9494
C20 C 0.6975(3) 0.1390(3) 0.6179(3)
C21 C 0.5873(2) 0.2084(2) 0.6315(2)
C22 C 0.4981(2) 0.2291(2) 0.5340(2)
C23 C 0.5063(3) 0.1889(3) 0.4046(2)
H12 H 0.4833 0.2569 0.3626
H13 H 0.4459 0.1163 0.3636
C24 C 0.6397(4) 0.1556(4) 0.3989(3)
H14 H 0.6350 0.1032 0.3184
H15 H 0.6905 0.2332 0.4054
C25 C 0.7092(4) 0.0911(4) 0.4886(3)
H16 H 0.7997 0.0971 0.4881
H17 H 0.6792 0.0022 0.4633
N1 N 0.39641(18) 0.28818(19) 0.56696(17)
N2 N 0.2869(2) 0.1064(2) 0.8409(2)
H18 H 0.2066 0.1203 0.8245
H19 H 0.3138 0.0527 0.8846
N3 N 0.6270(2) 0.0254(2) 0.9406(2)
O1 O -0.02357(18) 0.4791(2) 0.2962(2)
O2 O 0.73786(17) 0.36937(19) 0.89345(19)
O3 O 0.31393(14) 0.24948(15) 0.73141(15)
O4 O 0.7765(2) 0.1160(2) 0.7050(2)
C26 C -0.0960(3) 0.1881(3) 0.1153(3)
H20 H -0.1622 0.2275 0.0729
C27 C 0.1256(4) 0.1353(4) 0.1422(4)
H21 H 0.1007 0.0795 0.1890
H22 H 0.1874 0.2006 0.1954
H23 H 0.1633 0.0883 0.0802
C28 C 0.0293(4) 0.2574(6) -0.0081(5)
H24 H -0.0494 0.2944 -0.0367
H25 H 0.0492 0.1990 -0.0753
H26 H 0.0981 0.3228 0.0256
N4 N 0.0145(2) 0.1912(3) 0.0854(2)
O5 O -0.1199(2) 0.1378(2) 0.1945(3)
O6 O 0.0277(3) 0.0485(3) 0.6803(4)
H27 H 0.028(3) 0.080(3) 0.6088(18)
H28 H -0.057(2) 0.059(6) 0.692(4)
loop_
_geom_bond_atom_site_label_1
_geom_bond_atom_site_label_2
_geom_bond_site_symmetry_1
_geom_bond_site_symmetry_2
C1 H1 1_555 1_555
C2 C1 1_555 1_555
H2 C2 1_555 1_555
C3 C2 1_555 1_555
C4 C3 1_555 1_555
H3 C4 1_555 1_555
C5 C4 1_555 1_555
H4 C5 1_555 1_555
C6 C1 1_555 1_555
C7 H5 1_555 1_555
H6 C7 1_555 1_555
H7 C7 1_555 1_555
C8 C9 1_555 1_555
C9 C15 1_555 1_555
C10 C11 1_555 1_555
C11 C8 1_555 1_555
C12 C11 1_555 1_555
C13 C8 1_555 1_555
C14 C13 1_555 1_555
C15 C14 1_555 1_555
C16 C15 1_555 1_555
H8 C16 1_555 1_555
C17 C16 1_555 1_555
H9 C17 1_555 1_555
C18 C17 1_555 1_555
H10 C18 1_555 1_555
C19 C14 1_555 1_555
H11 C19 1_555 1_555
C20 C21 1_555 1_555
C21 C8 1_555 1_555
C22 C21 1_555 1_555
C23 C22 1_555 1_555
H12 C23 1_555 1_555
H13 C23 1_555 1_555
C24 C23 1_555 1_555
H14 C24 1_555 1_555
H15 C24 1_555 1_555
C25 C20 1_555 1_555
H16 C25 1_555 1_555
H17 C25 1_555 1_555
N1 C6 1_555 1_555
N2 C10 1_555 1_555
H18 N2 1_555 1_555
H19 N2 1_555 1_555
N3 C12 1_555 1_555
O1 C3 1_555 1_555
O2 C13 1_555 1_555
O3 C9 1_555 1_555
O4 C20 1_555 1_555
C26 H20 1_555 1_555
C27 H21 1_555 1_555
H22 C27 1_555 1_555
H23 C27 1_555 1_555
C28 H24 1_555 1_555
H25 C28 1_555 1_555
H26 C28 1_555 1_555
N4 C26 1_555 1_555
O5 C26 1_555 1_555
O6 H27 1_555 1_555
H28 O6 1_555 1_555
C5 C6 1_555 1_555
C7 O1 1_555 1_555
C9 N1 1_555 1_555
C10 O3 1_555 1_555
C18 C19 1_555 1_555
C22 N1 1_555 1_555
C24 C25 1_555 1_555
C27 N4 1_555 1_555
C28 N4 1_555 1_555

#END
