
#######################################################################
#
#                 Cambridge Crystallographic Data Centre
#                                CCDC 
#
#######################################################################
#
# If this CIF has been generated from an entry in the Cambridge 
# Structural Database, then it will include bibliographic, chemical, 
# crystal, experimental, refinement or atomic coordinate data resulting 
# from the CCDC's data processing and validation procedures.
#
#######################################################################

data_GIGXAX01
_chemical_formula_moiety         'C16 H27 Cl4 K1 O10'
_chemical_name_systematic        
'(Dichloroacetato)-(dichloroacetic acid)-(18-crown-6)-potassium'
_symmetry_cell_setting           monoclinic
_symmetry_space_group_name_H-M   'C 2/c'
_symmetry_Int_Tables_number      15
_space_group_name_Hall           '-C 2yn'
loop_
_symmetry_equiv_pos_site_id
_symmetry_equiv_pos_as_xyz
1 x,y,z
2 -x,y,1/2-z
3 1/2+x,1/2+y,z
4 1/2-x,1/2+y,1/2-z
5 -x,-y,-z
6 x,-y,1/2+z
7 1/2-x,1/2-y,-z
8 1/2+x,1/2-y,1/2+z
_cell_length_a                   28.82(4)
_cell_length_b                   17.61(2)
_cell_length_c                   23.22(3)
_cell_angle_alpha                90
_cell_angle_beta                 117.94(2)
_cell_angle_gamma                90
_cell_volume                     10411
_exptl_crystal_colour            colorless
_exptl_crystal_description       Prism
_cell_formula_units_Z            16
loop_
_atom_site_label
_atom_site_type_symbol
_atom_site_fract_x
_atom_site_fract_y
_atom_site_fract_z
K1 K 0.24471(5) 0.47557(9) 0.98869(6)
Cl1 Cl 0.12768(6) 0.70231(11) 0.80766(9)
Cl2 Cl 0.27652(8) 0.31026(11) 1.19453(10)
Cl3 Cl 0.38003(8) 0.29762(11) 1.20008(11)
O1 O 0.29992(16) 0.5287(2) 1.1245(2)
O2 O 0.18761(15) 0.4629(2) 0.8484(2)
O3 O 0.22679(18) 0.7425(2) 0.93981(18)
O4 O 0.13429(16) 0.4625(2) 0.9290(2)
O5 O 0.30038(18) 0.4524(2) 0.9154(2)
O6 O 0.18755(18) 0.5281(3) 1.0555(2)
O7 O 0.35088(17) 0.5229(3) 1.0417(3)
C1 C 0.1914(2) 0.6597(3) 0.8463(3)
H1 H 0.1871 0.6036 0.8393
C2 C 0.2180(2) 0.6749(3) 0.9202(3)
C3 C 0.1376(2) 0.4281(3) 0.8297(3)
H2 H 0.1427 0.3749 0.8453
H3 H 0.1167 0.4276 0.7816
C4 C 0.1084(2) 0.4723(3) 0.8590(3)
H4 H 0.1076 0.5268 0.8483
H5 H 0.0717 0.4539 0.8403
O8 O 0.2858(2) 0.2270(4) 1.0797(2)
C5 C 0.3138(3) 0.3313(4) 1.1523(4)
H6 H 0.3146 0.3875 1.1472
C6 C 0.2171(3) 0.4223(3) 0.8218(3)
H7 H 0.1979 0.4230 0.7735
H8 H 0.2223 0.3688 0.8365
C7 C 0.2169(3) 0.5290(4) 1.1259(3)
H9 H 0.2252 0.4765 1.1430
H10 H 0.1961 0.5537 1.1446
C8 C 0.2701(3) 0.4620(4) 0.8460(4)
H11 H 0.2894 0.4402 0.8241
H12 H 0.2645 0.5168 0.8353
C9 C 0.3784(3) 0.5269(4) 1.1124(4)
H13 H 0.4130 0.5516 1.1268
H14 H 0.3846 0.4749 1.1307
C10 C 0.1071(2) 0.5033(4) 0.9588(3)
H15 H 0.0715 0.4818 0.9436
H16 H 0.1034 0.5575 0.9460
C11 C 0.1383(3) 0.4966(5) 1.0328(4)
H17 H 0.1192 0.5229 1.0530
H18 H 0.1417 0.4424 1.0454
C12 C 0.3498(3) 0.4932(5) 0.9393(4)
H19 H 0.3431 0.5476 0.9276
H20 H 0.3709 0.4722 0.9194
C13 C 0.3476(3) 0.5704(4) 1.1372(4)
H21 H 0.3690 0.5789 1.1846
H22 H 0.3381 0.6205 1.1154
C14 C 0.2667(3) 0.5729(4) 1.1438(3)
H23 H 0.2583 0.6225 1.1212
H24 H 0.2853 0.5823 1.1914
C15 C 0.3795(3) 0.4840(5) 1.0136(4)
H25 H 0.3828 0.4295 1.0252
H26 H 0.4152 0.5057 1.0308
C16 C 0.2911(4) 0.2949(6) 1.0857(4)
O9 O 0.2574(3) 0.3243(4) 1.0303(4)
O10 O 0.2437(15) 0.6203(6) 0.9590(6)
Cl4 Cl 0.23121(7) 0.69341(10) 0.81108(8)
K2 K 0.00213(7) 0.76959(15) 0.50691(9)
O11 O 0.05965(18) 0.7876(2) 0.6463(3)
O12 O 0.02702(19) 0.5062(3) 0.5623(2)
O13 O -0.05269(19) 0.7210(2) 0.3698(3)
O14 O -0.0536(2) 0.7949(3) 0.5780(3)
C17 C 0.0304(3) 0.5723(4) 0.5781(3)
O15 O 0.1118(2) 0.7856(3) 0.5670(3)
O16 O 0.0585(3) 0.7161(4) 0.4381(4)
O17 O -0.1054(2) 0.7250(3) 0.4495(4)
C18 C 0.0285(3) 0.8291(4) 0.6712(4)
H27 H 0.0221 0.8817 0.6543
H28 H 0.0475 0.8310 0.7194
C19 C -0.1325(3) 0.7282(4) 0.3793(4)
H29 H -0.1353 0.7815 0.3645
H30 H -0.1684 0.7074 0.3625
C20 C 0.1392(3) 0.7464(5) 0.5370(5)
H31 H 0.1458 0.6933 0.5527
H32 H 0.1736 0.7711 0.5505
C21 C 0.1390(3) 0.7812(4) 0.6366(5)
H33 H 0.1748 0.8023 0.6532
H34 H 0.1421 0.7275 0.6505
C22 C -0.0241(3) 0.7865(4) 0.6478(5)
H35 H -0.0176 0.7320 0.6595
H36 H -0.0442 0.8080 0.6689
C23 C 0.0299(4) 0.7173(5) 0.3686(5)
H37 H 0.0504 0.6919 0.3499
H38 H 0.0233 0.7704 0.3529
C24 C -0.1047(3) 0.7555(4) 0.5514(5)
H39 H -0.1258 0.7765 0.5713
H40 H -0.0991 0.7007 0.5621
C25 C -0.1331(3) 0.7656(5) 0.4803(5)
H41 H -0.1693 0.7456 0.4630
H42 H -0.1354 0.8203 0.4695
C26 C 0.1092(3) 0.8255(4) 0.6643(5)
H43 H 0.1300 0.8284 0.7123
H44 H 0.1028 0.8779 0.6467
C27 C -0.1017(4) 0.6820(4) 0.3541(5)
H45 H -0.0943 0.6310 0.3744
H46 H -0.1225 0.6756 0.3063
C28 C -0.0219(4) 0.6764(4) 0.3474(5)
H47 H -0.0408 0.6716 0.2993
H48 H -0.0156 0.6249 0.3666
C29 C 0.1082(4) 0.7467(6) 0.4634(6)
H49 H 0.1052 0.7997 0.4479
H50 H 0.1283 0.7180 0.4457
Cl5 Cl 0.12664(6) 0.55467(8) 0.68856(7)
Cl6 Cl -0.12387(8) 0.96101(11) 0.29520(9)
Cl7 Cl 0.02621(6) 0.55966(10) 0.69385(8)
Cl8 Cl -0.01617(9) 0.94262(11) 0.31298(11)
C30 C -0.0415(4) 0.9460(7) 0.4127(4)
C31 C 0.0612(2) 0.5928(3) 0.6521(3)
H51 H 0.0638 0.6493 0.6561
C32 C -0.0610(3) 0.9197(3) 0.3439(3)
H52 H -0.0652 0.8633 0.3428
O18 O -0.0295(3) 1.0152(5) 0.4255(3)
H53 H -0.0123 1.0431 0.4771
O19 O -0.0522(4) 0.8932(5) 0.4455(4)
O20 O 0.0248(8) 0.6314(7) 0.5382(6)
O21? O 0.3053(4) 0.3482(5) 1.0531(5)
O22? O 0.2088(19) 0.6219(11) 0.9498(15)
O23? O -0.0054(4) 0.9279(6) 0.4711(4)
O24? O -0.0033(8) 0.6254(7) 0.5426(6)
H54? H 0.2642 0.2015 1.0246
H55? H 0.2500 0.7502 0.9998
loop_
_geom_bond_atom_site_label_1
_geom_bond_atom_site_label_2
_geom_bond_site_symmetry_1
_geom_bond_site_symmetry_2
K1 O1 1_555 1_555
Cl1 C1 1_555 1_555
Cl2 C5 1_555 1_555
Cl3 C5 1_555 1_555
O1 C13 1_555 1_555
O2 K1 1_555 1_555
O3 C2 1_555 1_555
O4 K1 1_555 1_555
O5 K1 1_555 1_555
O6 K1 1_555 1_555
O7 K1 1_555 1_555
C1 H1 1_555 1_555
C2 C1 1_555 1_555
C3 O2 1_555 1_555
H2 C3 1_555 1_555
H3 C3 1_555 1_555
C4 O4 1_555 1_555
H4 C4 1_555 1_555
H5 C4 1_555 1_555
O8 C16 1_555 1_555
C5 H6 1_555 1_555
C6 O2 1_555 1_555
H7 C6 1_555 1_555
H8 C6 1_555 1_555
C7 O6 1_555 1_555
H9 C7 1_555 1_555
H10 C7 1_555 1_555
C8 O5 1_555 1_555
H11 C8 1_555 1_555
H12 C8 1_555 1_555
C9 O7 1_555 1_555
H13 C9 1_555 1_555
H14 C9 1_555 1_555
C10 O4 1_555 1_555
H15 C10 1_555 1_555
H16 C10 1_555 1_555
C11 O6 1_555 1_555
H17 C11 1_555 1_555
H18 C11 1_555 1_555
C12 O5 1_555 1_555
H19 C12 1_555 1_555
H20 C12 1_555 1_555
C13 C9 1_555 1_555
H21 C13 1_555 1_555
H22 C13 1_555 1_555
C14 O1 1_555 1_555
H23 C14 1_555 1_555
H24 C14 1_555 1_555
C15 O7 1_555 1_555
H25 C15 1_555 1_555
H26 C15 1_555 1_555
C16 C5 1_555 1_555
O9 K1 1_555 1_555
O10 K1 1_555 1_555
Cl4 C1 1_555 1_555
K2 O11 1_555 1_555
O11 C18 1_555 1_555
O12 C17 1_555 1_555
O13 K2 1_555 1_555
O14 K2 1_555 1_555
C17 C31 1_555 1_555
O15 K2 1_555 1_555
O16 K2 1_555 1_555
O17 K2 1_555 1_555
C18 H27 1_555 1_555
H28 C18 1_555 1_555
C19 O17 1_555 1_555
H29 C19 1_555 1_555
H30 C19 1_555 1_555
C20 O15 1_555 1_555
H31 C20 1_555 1_555
H32 C20 1_555 1_555
C21 O15 1_555 1_555
H33 C21 1_555 1_555
H34 C21 1_555 1_555
C22 O14 1_555 1_555
H35 C22 1_555 1_555
H36 C22 1_555 1_555
C23 O16 1_555 1_555
H37 C23 1_555 1_555
H38 C23 1_555 1_555
C24 O14 1_555 1_555
H39 C24 1_555 1_555
H40 C24 1_555 1_555
C25 O17 1_555 1_555
H41 C25 1_555 1_555
H42 C25 1_555 1_555
C26 O11 1_555 1_555
H43 C26 1_555 1_555
H44 C26 1_555 1_555
C27 O13 1_555 1_555
H45 C27 1_555 1_555
H46 C27 1_555 1_555
C28 O13 1_555 1_555
H47 C28 1_555 1_555
H48 C28 1_555 1_555
C29 O16 1_555 1_555
H49 C29 1_555 1_555
H50 C29 1_555 1_555
Cl5 C31 1_555 1_555
Cl6 C32 1_555 1_555
Cl7 C31 1_555 1_555
Cl8 C32 1_555 1_555
C30 C32 1_555 1_555
C31 H51 1_555 1_555
C32 H52 1_555 1_555
O18 C30 1_555 1_555
H53 O18 1_555 1_555
O19 K2 1_555 1_555
O20 K2 1_555 1_555
C2 O10 1_555 1_555
C3 C4 1_555 1_555
C6 C8 1_555 1_555
C7 C14 1_555 1_555
C10 C11 1_555 1_555
C12 C15 1_555 1_555
C16 O9 1_555 1_555
C17 O20 1_555 1_555
C18 C22 1_555 1_555
C19 C27 1_555 1_555
C20 C29 1_555 1_555
C21 C26 1_555 1_555
C23 C28 1_555 1_555
C24 C25 1_555 1_555
C30 O19 1_555 1_555

#END
