
#######################################################################
#
#                 Cambridge Crystallographic Data Centre
#                                CCDC 
#
#######################################################################
#
# If this CIF has been generated from an entry in the Cambridge 
# Structural Database, then it will include bibliographic, chemical, 
# crystal, experimental, refinement or atomic coordinate data resulting 
# from the CCDC's data processing and validation procedures.
#
#######################################################################

data_GIHBIK
_chemical_formula_moiety         'C34 H38 B1 N1'
_chemical_name_systematic        
4-(2-(2-(Dimesitylboryl)phenyl)vinyl)-N,N-dimethylaniline
_symmetry_cell_setting           monoclinic
_symmetry_space_group_name_H-M   'C 2/c'
_symmetry_Int_Tables_number      15
_space_group_name_Hall           '-C 2yn'
loop_
_symmetry_equiv_pos_site_id
_symmetry_equiv_pos_as_xyz
1 x,y,z
2 -x,y,1/2-z
3 1/2+x,1/2+y,z
4 1/2-x,1/2+y,1/2-z
5 -x,-y,-z
6 x,-y,1/2+z
7 1/2-x,1/2-y,-z
8 1/2+x,1/2-y,1/2+z
_cell_length_a                   23.585(3)
_cell_length_b                   11.6158(13)
_cell_length_c                   20.898(2)
_cell_angle_alpha                90
_cell_angle_beta                 95.306(2)
_cell_angle_gamma                90
_cell_volume                     5700.66
_exptl_crystal_description       block
_cell_formula_units_Z            8
loop_
_atom_site_label
_atom_site_type_symbol
_atom_site_fract_x
_atom_site_fract_y
_atom_site_fract_z
B1 B 0.33883(8) 0.15601(19) 0.75371(10)
C1 C 0.36324(10) 0.25956(18) 0.95727(9)
C2 C 0.31081(9) 0.26701(17) 0.92291(9)
H1 H 0.2800 0.2934 0.9435
C3 C 0.30221(8) 0.23665(16) 0.85859(9)
C4 C 0.34792(7) 0.19642(16) 0.82597(8)
C5 C 0.40159(8) 0.18881(17) 0.86134(9)
C6 C 0.40798(9) 0.22031(17) 0.92560(10)
H2 H 0.4438 0.2147 0.9481
C7 C 0.37177(13) 0.2963(3) 1.02700(10)
H3 H 0.3559 0.3717 1.0315
H4 H 0.4117 0.2981 1.0407
H5 H 0.3531 0.2426 1.0530
C8 C 0.24276(8) 0.2450(2) 0.82579(10)
H6 H 0.2423 0.2986 0.7908
H7 H 0.2173 0.2709 0.8560
H8 H 0.2308 0.1706 0.8096
C9 C 0.45468(9) 0.1528(2) 0.83065(12)
H9 H 0.4570 0.0703 0.8298
H10 H 0.4877 0.1833 0.8552
H11 H 0.4529 0.1820 0.7875
C10 C 0.32888(8) 0.34876(17) 0.68918(9)
C11 C 0.30400(9) 0.41465(18) 0.63862(10)
H12 H 0.3179 0.4885 0.6329
C12 C 0.25955(9) 0.37560(19) 0.59652(9)
C13 C 0.24002(9) 0.26611(19) 0.60690(9)
H13 H 0.2095 0.2383 0.5799
C14 C 0.26382(8) 0.19504(17) 0.65597(9)
C15 C 0.30945(8) 0.23539(16) 0.69887(8)
C16 C 0.37814(10) 0.4000(2) 0.73097(12)
H14 H 0.3687 0.4035 0.7747
H15 H 0.3857 0.4762 0.7162
H16 H 0.4113 0.3529 0.7287
C17 C 0.23348(12) 0.4490(2) 0.54232(12)
H17 H 0.2182 0.4004 0.5077
H18 H 0.2621 0.4985 0.5274
H19 H 0.2035 0.4948 0.5572
C18 C 0.23823(10) 0.0775(2) 0.66227(12)
H20 H 0.2612 0.0214 0.6430
H21 H 0.2004 0.0766 0.6410
H22 H 0.2368 0.0596 0.7069
C19 C 0.35963(7) 0.03067(16) 0.73970(8)
C20 C 0.35263(8) -0.05348(17) 0.78670(9)
H23 H 0.3366 -0.0318 0.8239
C21 C 0.36853(8) -0.16630(17) 0.78001(10)
H24 H 0.3619 -0.2204 0.8113
C22 C 0.39440(9) -0.19812(18) 0.72630(10)
H25 H 0.4060 -0.2739 0.7216
C23 C 0.40306(8) -0.11857(17) 0.67969(9)
H26 H 0.4213 -0.1413 0.6442
C24 C 0.38531(7) -0.00447(16) 0.68408(8)
C25 C 0.39562(8) 0.07828(17) 0.63363(9)
H27 H 0.3930 0.1555 0.6447
C26 C 0.40813(8) 0.05757(18) 0.57434(9)
H28 H 0.4101 -0.0192 0.5621
C27 C 0.41906(8) 0.14399(17) 0.52633(8)
C28 C 0.40623(10) 0.2597(2) 0.53332(10)
H29 H 0.3890 0.2831 0.5694
C29 C 0.41815(11) 0.3404(2) 0.48890(10)
H30 H 0.4086 0.4169 0.4955
C30 C 0.44432(9) 0.31098(19) 0.43384(9)
C31 C 0.45632(9) 0.19539(18) 0.42614(9)
H31 H 0.4734 0.1718 0.3900
C32 C 0.44354(8) 0.11489(18) 0.47074(9)
H32 H 0.4516 0.0379 0.4634
C33 C 0.49260(11) 0.3694(2) 0.34087(11)
H33 H 0.5312 0.3675 0.3601
H34 H 0.4888 0.4284 0.3086
H35 H 0.4830 0.2962 0.3215
C34 C 0.44556(14) 0.5128(2) 0.40176(13)
H36 H 0.4064 0.5234 0.4093
H37 H 0.4541 0.5587 0.3657
H38 H 0.4695 0.5360 0.4392
N1 N 0.45559(10) 0.39305(18) 0.38840(10)
loop_
_geom_bond_atom_site_label_1
_geom_bond_atom_site_label_2
_geom_bond_site_symmetry_1
_geom_bond_site_symmetry_2
B1 C4 1_555 1_555
C1 C2 1_555 1_555
C2 H1 1_555 1_555
C3 C2 1_555 1_555
C4 C3 1_555 1_555
C5 C4 1_555 1_555
C6 C1 1_555 1_555
H2 C6 1_555 1_555
C7 C1 1_555 1_555
H3 C7 1_555 1_555
H4 C7 1_555 1_555
H5 C7 1_555 1_555
C8 C3 1_555 1_555
H6 C8 1_555 1_555
H7 C8 1_555 1_555
H8 C8 1_555 1_555
C9 C5 1_555 1_555
H9 C9 1_555 1_555
H10 C9 1_555 1_555
H11 C9 1_555 1_555
C10 C11 1_555 1_555
C11 H12 1_555 1_555
C12 C11 1_555 1_555
C13 C12 1_555 1_555
H13 C13 1_555 1_555
C14 C13 1_555 1_555
C15 B1 1_555 1_555
C16 C10 1_555 1_555
H14 C16 1_555 1_555
H15 C16 1_555 1_555
H16 C16 1_555 1_555
C17 C12 1_555 1_555
H17 C17 1_555 1_555
H18 C17 1_555 1_555
H19 C17 1_555 1_555
C18 C14 1_555 1_555
H20 C18 1_555 1_555
H21 C18 1_555 1_555
H22 C18 1_555 1_555
C19 B1 1_555 1_555
C20 C19 1_555 1_555
H23 C20 1_555 1_555
C21 C20 1_555 1_555
H24 C21 1_555 1_555
C22 C21 1_555 1_555
H25 C22 1_555 1_555
C23 C22 1_555 1_555
H26 C23 1_555 1_555
C24 C19 1_555 1_555
C25 C24 1_555 1_555
H27 C25 1_555 1_555
C26 C25 1_555 1_555
H28 C26 1_555 1_555
C27 C26 1_555 1_555
C28 C27 1_555 1_555
H29 C28 1_555 1_555
C29 C28 1_555 1_555
H30 C29 1_555 1_555
C30 C29 1_555 1_555
C31 C30 1_555 1_555
H31 C31 1_555 1_555
C32 C27 1_555 1_555
H32 C32 1_555 1_555
C33 H33 1_555 1_555
H34 C33 1_555 1_555
H35 C33 1_555 1_555
C34 H36 1_555 1_555
H37 C34 1_555 1_555
H38 C34 1_555 1_555
N1 C30 1_555 1_555
C5 C6 1_555 1_555
C10 C15 1_555 1_555
C14 C15 1_555 1_555
C23 C24 1_555 1_555
C31 C32 1_555 1_555
C33 N1 1_555 1_555
C34 N1 1_555 1_555

#END
