
#######################################################################
#
#                 Cambridge Crystallographic Data Centre
#                                CCDC 
#
#######################################################################
#
# If this CIF has been generated from an entry in the Cambridge 
# Structural Database, then it will include bibliographic, chemical, 
# crystal, experimental, refinement or atomic coordinate data resulting 
# from the CCDC's data processing and validation procedures.
#
#######################################################################

data_GIHBIL
_chemical_formula_moiety         'C22 H18 N2'
_chemical_name_systematic        
3,6-dimethyl-4-phenyl-3,6-dihydropyrrolo[2,3-c]carbazole
_symmetry_cell_setting           orthorhombic
_symmetry_space_group_name_H-M   'P 21 21 21'
_symmetry_Int_Tables_number      19
_space_group_name_Hall           'P 2ac 2ab'
loop_
_symmetry_equiv_pos_site_id
_symmetry_equiv_pos_as_xyz
1 x,y,z
2 1/2+x,1/2-y,-z
3 -x,1/2+y,1/2-z
4 1/2-x,-y,1/2+z
_cell_length_a                   7.652(9)
_cell_length_b                   14.111(19)
_cell_length_c                   15.379(19)
_cell_angle_alpha                90
_cell_angle_beta                 90
_cell_angle_gamma                90
_cell_volume                     1660.58
_exptl_crystal_colour            colorless
_exptl_crystal_description       block
_cell_formula_units_Z            4
loop_
_atom_site_label
_atom_site_type_symbol
_atom_site_fract_x
_atom_site_fract_y
_atom_site_fract_z
N1 N 0.6071(3) 0.22687(18) 0.24407(16)
N2 N 1.0223(4) 0.08965(19) -0.01658(18)
C1 C 0.9851(4) 0.3771(3) 0.2306(2)
C2 C 0.9476(5) 0.4480(3) 0.2872(3)
C3 C 0.7924(5) 0.4479(3) 0.3368(3)
C4 C 0.6716(4) 0.3764(3) 0.3271(2)
C5 C 0.7068(4) 0.3055(2) 0.26766(19)
C6 C 0.6960(4) 0.1762(2) 0.18028(19)
C7 C 0.6383(4) 0.0967(2) 0.1345(2)
C8 C 0.7394(4) 0.0601(2) 0.0678(2)
C9 C 0.9003(4) 0.1064(2) 0.0493(2)
C10 C 1.1526(5) 0.1552(3) -0.0073(3)
C11 C 1.1240(4) 0.2131(3) 0.0602(3)
C12 C 0.9619(4) 0.1840(2) 0.09791(19)
C13 C 0.8567(4) 0.2205(2) 0.16517(18)
C14 C 0.8642(4) 0.3026(2) 0.21935(18)
C15 C 0.4346(4) 0.2056(3) 0.2781(3)
C16 C 1.0146(5) 0.0209(3) -0.0870(3)
C17 C 0.6769(4) -0.0247(2) 0.0184(2)
C18 C 0.5387(4) -0.0163(3) -0.0382(3)
C19 C 0.4837(5) -0.0942(3) -0.0856(3)
C20 C 0.5650(4) -0.1798(3) -0.0775(3)
C21 C 0.6982(5) -0.1890(3) -0.0200(3)
C22 C 0.7548(4) -0.1122(3) 0.0270(3)
H1 H 1.0923 0.3766 0.1989
H2 H 1.0284 0.4991 0.2932
H3 H 0.7707 0.4983 0.3771
H4 H 0.5669 0.3756 0.3606
H5 H 0.5299 0.0678 0.1490
H6 H 1.2513 0.1588 -0.0449
H7 H 1.1979 0.2630 0.0797
H8 H 0.4377 0.2076 0.3420
H9 H 0.3996 0.1422 0.2589
H10 H 0.3506 0.2522 0.2563
H11 H 1.1112 0.0324 -0.1277
H12 H 0.9026 0.0277 -0.1180
H13 H 1.0238 -0.0429 -0.0629
H14 H 0.4797 0.0425 -0.0443
H15 H 0.3897 -0.0876 -0.1255
H16 H 0.5269 -0.2324 -0.1111
H17 H 0.7539 -0.2488 -0.0121
H18 H 0.8491 -0.1194 0.0669
loop_
_geom_bond_atom_site_label_1
_geom_bond_atom_site_label_2
_geom_bond_site_symmetry_1
_geom_bond_site_symmetry_2
N1 C5 1_555 1_555
N2 C9 1_555 1_555
C1 C2 1_555 1_555
C2 C3 1_555 1_555
C3 C4 1_555 1_555
C4 C5 1_555 1_555
C5 C14 1_555 1_555
C6 N1 1_555 1_555
C7 C6 1_555 1_555
C8 C7 1_555 1_555
C9 C8 1_555 1_555
C10 N2 1_555 1_555
C11 C10 1_555 1_555
C12 C9 1_555 1_555
C13 C6 1_555 1_555
C14 C1 1_555 1_555
C15 N1 1_555 1_555
C16 N2 1_555 1_555
C17 C8 1_555 1_555
C18 C17 1_555 1_555
C19 C18 1_555 1_555
C20 C19 1_555 1_555
C21 C20 1_555 1_555
C22 C17 1_555 1_555
H1 C1 1_555 1_555
H2 C2 1_555 1_555
H3 C3 1_555 1_555
H4 C4 1_555 1_555
H5 C7 1_555 1_555
H6 C10 1_555 1_555
H7 C11 1_555 1_555
H8 C15 1_555 1_555
H9 C15 1_555 1_555
H10 C15 1_555 1_555
H11 C16 1_555 1_555
H12 C16 1_555 1_555
H13 C16 1_555 1_555
H14 C18 1_555 1_555
H15 C19 1_555 1_555
H16 C20 1_555 1_555
H17 C21 1_555 1_555
H18 C22 1_555 1_555
C11 C12 1_555 1_555
C12 C13 1_555 1_555
C13 C14 1_555 1_555
C21 C22 1_555 1_555

#END
