
#######################################################################
#
#                 Cambridge Crystallographic Data Centre
#                                CCDC 
#
#######################################################################
#
# If this CIF has been generated from an entry in the Cambridge 
# Structural Database, then it will include bibliographic, chemical, 
# crystal, experimental, refinement or atomic coordinate data resulting 
# from the CCDC's data processing and validation procedures.
#
#######################################################################

data_GIHBEG
_chemical_formula_moiety         'C32 H36 B1 N1'
_chemical_name_systematic        
2'-(Dimesitylboryl)-N,N-dimethylbiphenyl-4-amine
_symmetry_cell_setting           triclinic
_symmetry_space_group_name_H-M   'P -1'
_symmetry_Int_Tables_number      2
_space_group_name_Hall           '-P 1'
loop_
_symmetry_equiv_pos_site_id
_symmetry_equiv_pos_as_xyz
1 x,y,z
2 -x,-y,-z
_cell_length_a                   9.550(7)
_cell_length_b                   11.625(9)
_cell_length_c                   24.216(19)
_cell_angle_alpha                86.317(15)
_cell_angle_beta                 87.550(16)
_cell_angle_gamma                85.242(16)
_cell_volume                     2671.74
_exptl_crystal_description       block
_cell_formula_units_Z            4
loop_
_atom_site_label
_atom_site_type_symbol
_atom_site_fract_x
_atom_site_fract_y
_atom_site_fract_z
N1 N 0.6250(8) 1.0693(5) 0.2018(3)
C1 C 0.7475(11) 1.0682(8) 0.2321(4)
H1 H 0.7417 1.0143 0.2637
H2 H 0.7565 1.1441 0.2442
H3 H 0.8279 1.0453 0.2090
C2 C 0.4775(6) 0.7503(5) 0.1669(2)
C3 C 0.5791(6) 0.7579(5) 0.2051(3)
H4 H 0.6164 0.6904 0.2236
C4 C 0.4334(6) 0.6380(5) 0.1508(2)
C5 C 0.2963(7) 0.6152(6) 0.1573(3)
H5 H 0.2315 0.6707 0.1718
C6 C 0.2509(7) 0.5124(7) 0.1431(3)
H6 H 0.1556 0.5006 0.1456
C7 C 0.5924(11) 1.1697(7) 0.1652(4)
H7 H 0.6379 1.1585 0.1296
H8 H 0.6253 1.2365 0.1804
H9 H 0.4926 1.1811 0.1613
C8 C 0.6268(7) 0.8608(6) 0.2167(3)
H10 H 0.6956 0.8619 0.2426
C9 C 0.5743(8) 0.9633(6) 0.1904(3)
C10 C 0.4668(8) 0.9579(6) 0.1540(3)
H11 H 0.4264 1.0258 0.1369
C11 C 0.4192(7) 0.8534(6) 0.1430(3)
H12 H 0.3461 0.8523 0.1189
C12 C 0.3475(7) 0.4269(6) 0.1251(3)
H13 H 0.3181 0.3556 0.1172
C13 C 0.9956(6) 0.2687(5) 0.1163(3)
C14 C 0.9416(6) 0.3158(5) 0.1633(3)
H14 H 0.9703 0.2824 0.1973
C15 C 0.9272(7) 0.7110(6) 0.1393(3)
H15 H 0.8753 0.7031 0.1740
H16 H 0.9982 0.7639 0.1423
H17 H 0.9709 0.6369 0.1301
C16 C 0.9536(7) 0.3204(5) 0.0660(3)
H18 H 0.9889 0.2886 0.0334
C17 C 0.8277(6) 0.7572(6) 0.0941(3)
C18 C 0.8453(7) 0.8678(6) 0.0718(3)
H19 H 0.9165 0.9080 0.0846
C19 C 0.8449(6) 0.4125(5) 0.1624(2)
C20 C 0.7595(8) 0.9208(6) 0.0308(3)
C21 C 0.6567(7) 0.8581(6) 0.0133(3)
H20 H 0.6010 0.8895 -0.0153
C22 C 0.8167(7) 0.4676(6) 0.0067(2)
H21 H 0.7243 0.4461 0.0000
H22 H 0.8821 0.4376 -0.0210
H23 H 0.8160 0.5503 0.0052
C23 C 0.7901(8) 0.4565(6) 0.2165(3)
H24 H 0.8269 0.5293 0.2216
H25 H 0.8189 0.4019 0.2461
H26 H 0.6893 0.4666 0.2167
C24 C 0.5131(7) 0.6920(6) 0.0153(3)
H27 H 0.5427 0.6124 0.0100
H28 H 0.4850 0.7299 -0.0194
H29 H 0.4352 0.6963 0.0417
C25 C 0.6331(6) 0.7507(5) 0.0366(2)
C26 C 0.7186(6) 0.6962(5) 0.0790(2)
C27 C 1.0969(8) 0.1608(6) 0.1180(3)
H30 H 1.0468 0.0947 0.1120
H31 H 1.1387 0.1507 0.1535
H32 H 1.1691 0.1689 0.0895
C28 C 0.8033(6) 0.4690(5) 0.1117(2)
C29 C 0.4893(6) 0.4472(5) 0.1188(2)
H33 H 0.5540 0.3891 0.1067
C30 C 0.5353(6) 0.5538(5) 0.1302(2)
C31 C 0.8599(6) 0.4189(5) 0.0627(2)
C32 C 0.7814(9) 1.0411(7) 0.0070(4)
H34 H 0.8427 1.0767 0.0300
H35 H 0.6925 1.0860 0.0056
H36 H 0.8230 1.0372 -0.0297
B1 B 0.6888(7) 0.5758(6) 0.1079(3)
N2 N 0.1479(8) 1.1195(5) 0.2906(3)
C33 C 0.5195(7) 0.2928(5) 0.3888(3)
C34 C 0.4651(7) 0.3353(6) 0.4384(3)
H37 H 0.4921 0.2964 0.4714
C35 C 0.4751(6) 0.3518(5) 0.3409(3)
H38 H 0.5107 0.3259 0.3071
C36 C 0.3777(6) 0.4497(5) 0.3408(2)
C37 C 0.3254(5) 0.4919(5) 0.3915(2)
C38 C 0.2354(5) 0.7148(5) 0.4207(2)
C39 C 0.3342(8) 0.5041(6) 0.2862(2)
H39 H 0.2363 0.4952 0.2819
H40 H 0.3888 0.4672 0.2571
H41 H 0.3494 0.5848 0.2844
C40 C 0.6217(8) 0.1874(6) 0.3876(3)
H42 H 0.5709 0.1196 0.3877
H43 H 0.6782 0.1829 0.4196
H44 H 0.6813 0.1926 0.3547
C41 C 0.3155(7) 0.4688(6) 0.4959(3)
H45 H 0.3111 0.5515 0.4964
H46 H 0.3757 0.4348 0.5243
H47 H 0.2228 0.4432 0.5024
C42 C 0.3729(6) 0.4325(5) 0.4405(2)
C43 C 0.3495(6) 0.7788(5) 0.4053(2)
C44 C -0.0117(8) 0.9920(6) 0.3393(3)
H48 H -0.0591 1.0546 0.3560
C45 C -0.0561(7) 0.8851(6) 0.3507(3)
H49 H -0.1357 0.8776 0.3737
C46 C 0.0108(6) 0.7875(5) 0.3298(2)
C47 C -0.0315(6) 0.6701(5) 0.3460(2)
C48 C -0.1692(7) 0.6465(7) 0.3377(2)
H50 H -0.2319 0.7034 0.3219
C49 C 0.2885(11) 1.1310(9) 0.2697(5)
H51 H 0.3532 1.1053 0.2981
H52 H 0.2997 1.2107 0.2587
H53 H 0.3071 1.0849 0.2383
C50 C 0.0929(12) 1.2132(7) 0.3230(4)
H54 H -0.0078 1.2150 0.3255
H55 H 0.1206 1.2849 0.3057
H56 H 0.1292 1.2025 0.3595
C51 C 0.1223(7) 0.8057(6) 0.2928(2)
H57 H 0.1688 0.7427 0.2761
C52 C 0.1661(8) 0.9138(6) 0.2800(3)
H58 H 0.2409 0.9222 0.2546
C53 C 0.1024(7) 1.0108(6) 0.3036(3)
C54 C -0.2127(7) 0.5379(7) 0.3533(3)
H59 H -0.3055 0.5236 0.3483
C55 C 0.0123(7) 0.6969(6) 0.4825(3)
H60 H -0.0144 0.7187 0.5193
H61 H 0.0365 0.6150 0.4832
H62 H -0.0647 0.7168 0.4586
C56 C 0.1377(6) 0.7600(5) 0.4613(2)
C57 C 0.1565(6) 0.8637(5) 0.4838(3)
H63 H 0.0940 0.8904 0.5115
C58 C 0.2664(7) 0.9282(5) 0.4659(3)
C59 C 0.3621(7) 0.8846(6) 0.4279(3)
H64 H 0.4381 0.9266 0.4166
C60 C -0.1232(7) 0.4514(6) 0.3757(3)
H65 H -0.1545 0.3792 0.3862
C61 C 0.0156(6) 0.4734(5) 0.3825(2)
H66 H 0.0781 0.4140 0.3964
C62 C 0.0645(5) 0.5834(5) 0.3689(2)
C63 C 0.2822(9) 1.0449(6) 0.4899(4)
H67 H 0.3800 1.0539 0.4944
H68 H 0.2327 1.0480 0.5252
H69 H 0.2437 1.1061 0.4651
C64 C 0.4600(7) 0.7406(6) 0.3629(3)
H70 H 0.5130 0.8047 0.3506
H71 H 0.4158 0.7133 0.3319
H72 H 0.5218 0.6795 0.3791
B2 B 0.2122(7) 0.6005(6) 0.3926(3)
loop_
_geom_bond_atom_site_label_1
_geom_bond_atom_site_label_2
_geom_bond_site_symmetry_1
_geom_bond_site_symmetry_2
N1 C1 1_555 1_555
C1 H1 1_555 1_555
H2 C1 1_555 1_555
H3 C1 1_555 1_555
C2 C3 1_555 1_555
C3 H4 1_555 1_555
C4 C2 1_555 1_555
C5 C4 1_555 1_555
H5 C5 1_555 1_555
C6 C5 1_555 1_555
H6 C6 1_555 1_555
C7 N1 1_555 1_555
H7 C7 1_555 1_555
H8 C7 1_555 1_555
H9 C7 1_555 1_555
C8 C3 1_555 1_555
H10 C8 1_555 1_555
C9 N1 1_555 1_555
C10 C9 1_555 1_555
H11 C10 1_555 1_555
C11 C2 1_555 1_555
H12 C11 1_555 1_555
C12 C6 1_555 1_555
H13 C12 1_555 1_555
C13 C14 1_555 1_555
C14 H14 1_555 1_555
C15 H15 1_555 1_555
H16 C15 1_555 1_555
H17 C15 1_555 1_555
C16 C13 1_555 1_555
H18 C16 1_555 1_555
C17 C15 1_555 1_555
C18 C17 1_555 1_555
H19 C18 1_555 1_555
C19 C14 1_555 1_555
C20 C18 1_555 1_555
C21 C20 1_555 1_555
H20 C21 1_555 1_555
C22 H21 1_555 1_555
H22 C22 1_555 1_555
H23 C22 1_555 1_555
C23 C19 1_555 1_555
H24 C23 1_555 1_555
H25 C23 1_555 1_555
H26 C23 1_555 1_555
C24 H27 1_555 1_555
H28 C24 1_555 1_555
H29 C24 1_555 1_555
C25 C21 1_555 1_555
C26 C17 1_555 1_555
C27 C13 1_555 1_555
H30 C27 1_555 1_555
H31 C27 1_555 1_555
H32 C27 1_555 1_555
C28 C19 1_555 1_555
C29 C12 1_555 1_555
H33 C29 1_555 1_555
C30 C4 1_555 1_555
C31 C16 1_555 1_555
C32 C20 1_555 1_555
H34 C32 1_555 1_555
H35 C32 1_555 1_555
H36 C32 1_555 1_555
B1 C26 1_555 1_555
N2 C49 1_555 1_555
C33 C34 1_555 1_555
C34 H37 1_555 1_555
C35 C33 1_555 1_555
H38 C35 1_555 1_555
C36 C35 1_555 1_555
C37 C36 1_555 1_555
C38 C43 1_555 1_555
C39 C36 1_555 1_555
H39 C39 1_555 1_555
H40 C39 1_555 1_555
H41 C39 1_555 1_555
C40 C33 1_555 1_555
H42 C40 1_555 1_555
H43 C40 1_555 1_555
H44 C40 1_555 1_555
C41 H45 1_555 1_555
H46 C41 1_555 1_555
H47 C41 1_555 1_555
C42 C34 1_555 1_555
C43 C59 1_555 1_555
C44 H48 1_555 1_555
C45 C44 1_555 1_555
H49 C45 1_555 1_555
C46 C45 1_555 1_555
C47 C46 1_555 1_555
C48 C47 1_555 1_555
H50 C48 1_555 1_555
C49 H51 1_555 1_555
H52 C49 1_555 1_555
H53 C49 1_555 1_555
C50 N2 1_555 1_555
H54 C50 1_555 1_555
H55 C50 1_555 1_555
H56 C50 1_555 1_555
C51 C46 1_555 1_555
H57 C51 1_555 1_555
C52 C51 1_555 1_555
H58 C52 1_555 1_555
C53 N2 1_555 1_555
C54 C48 1_555 1_555
H59 C54 1_555 1_555
C55 H60 1_555 1_555
H61 C55 1_555 1_555
H62 C55 1_555 1_555
C56 C38 1_555 1_555
C57 C56 1_555 1_555
H63 C57 1_555 1_555
C58 C57 1_555 1_555
C59 C58 1_555 1_555
H64 C59 1_555 1_555
C60 C54 1_555 1_555
H65 C60 1_555 1_555
C61 C60 1_555 1_555
H66 C61 1_555 1_555
C62 C47 1_555 1_555
C63 C58 1_555 1_555
H67 C63 1_555 1_555
H68 C63 1_555 1_555
H69 C63 1_555 1_555
C64 C43 1_555 1_555
H70 C64 1_555 1_555
H71 C64 1_555 1_555
H72 C64 1_555 1_555
B2 C37 1_555 1_555
C8 C9 1_555 1_555
C10 C11 1_555 1_555
C22 C31 1_555 1_555
C24 C25 1_555 1_555
C25 C26 1_555 1_555
C28 C31 1_555 1_555
C28 B1 1_555 1_555
C29 C30 1_555 1_555
C30 B1 1_555 1_555
C37 C42 1_555 1_555
C38 B2 1_555 1_555
C41 C42 1_555 1_555
C44 C53 1_555 1_555
C52 C53 1_555 1_555
C55 C56 1_555 1_555
C61 C62 1_555 1_555
C62 B2 1_555 1_555

#END
