
#######################################################################
#
#                 Cambridge Crystallographic Data Centre
#                                CCDC 
#
#######################################################################
#
# If this CIF has been generated from an entry in the Cambridge 
# Structural Database, then it will include bibliographic, chemical, 
# crystal, experimental, refinement or atomic coordinate data resulting 
# from the CCDC's data processing and validation procedures.
#
#######################################################################

data_GIHDAD
_chemical_formula_moiety         'C14 H18 N2 2+,2(Br1 1-)'
_chemical_name_systematic        
'(S)-2-(Pyrrolidinium-2-ylmethyl)isoquinolinium dibromide'
_symmetry_cell_setting           triclinic
_symmetry_space_group_name_H-M   'P 1'
_symmetry_Int_Tables_number      1
_space_group_name_Hall           'P 1'
loop_
_symmetry_equiv_pos_site_id
_symmetry_equiv_pos_as_xyz
1 x,y,z
_cell_length_a                   6.1326(6)
_cell_length_b                   7.3174(7)
_cell_length_c                   9.8781(10)
_cell_angle_alpha                93.817(2)
_cell_angle_beta                 104.335(2)
_cell_angle_gamma                114.4080(10)
_cell_volume                     383.859
_exptl_crystal_colour            colorless
_exptl_crystal_description       block
_cell_formula_units_Z            1
_exptl_crystal_recrystallization_method 'diethyl ether'
loop_
_atom_site_label
_atom_site_type_symbol
_atom_site_fract_x
_atom_site_fract_y
_atom_site_fract_z
Br1 Br 0.27632(5) 0.78925(4) 0.83981(4)
Br2 Br 0.23689(5) 0.26066(4) 1.18024(4)
N1 N 0.5178(8) 0.3772(7) 0.8240(4)
N2 N 0.5946(5) 0.6520(4) 1.0843(3)
H1 H 0.5052 0.6927 1.0172
H2 H 0.4916 0.5288 1.0967
C1 C 0.2876(7) 0.2516(6) 0.8219(4)
H3 H 0.2616 0.1918 0.9003
C2 C 0.0848(7) 0.2085(5) 0.7033(4)
C3 C -0.1629(8) 0.0811(6) 0.7041(4)
H4 H -0.1896 0.0203 0.7820
C4 C -0.3627(8) 0.0481(7) 0.5888(4)
H5 H -0.5258 -0.0345 0.5886
C5 C -0.3201(9) 0.1394(7) 0.4713(5)
H6 H -0.4568 0.1164 0.3938
C6 C -0.0830(8) 0.2611(6) 0.4678(4)
H7 H -0.0597 0.3189 0.3884
C7 C 0.1259(7) 0.2989(6) 0.5846(4)
C8 C 0.3782(8) 0.4274(6) 0.5923(4)
H8 H 0.4126 0.4867 0.5150
C9 C 0.5690(8) 0.4647(6) 0.7107(4)
H9 H 0.7339 0.5492 0.7149
C10 C 0.7300(9) 0.4310(8) 0.9574(6)
H10 H 0.8726 0.4284 0.9330
H11 H 0.6790 0.3297 1.0163
C11 C 0.8078(9) 0.6415(8) 1.0411(5)
H12 H 0.8652 0.7447 0.9831
C12 C 1.0133(10) 0.6959(9) 1.1816(6)
H13 H 1.0432 0.5784 1.2000
H14 H 1.1687 0.8062 1.1787
C13 C 0.9224(8) 0.7617(7) 1.2967(4)
H15 H 0.8656 0.6542 1.3503
H16 H 1.0557 0.8840 1.3618
C14 C 0.7107(7) 0.8025(6) 1.2197(4)
H17 H 0.5919 0.7812 1.2731
H18 H 0.7715 0.9413 1.2024
loop_
_geom_bond_atom_site_label_1
_geom_bond_atom_site_label_2
_geom_bond_site_symmetry_1
_geom_bond_site_symmetry_2
N1 C1 1_555 1_555
N2 H1 1_555 1_555
H2 N2 1_555 1_555
C1 H3 1_555 1_555
C2 C1 1_555 1_555
C3 C2 1_555 1_555
H4 C3 1_555 1_555
C4 C3 1_555 1_555
H5 C4 1_555 1_555
C5 C4 1_555 1_555
H6 C5 1_555 1_555
C6 C5 1_555 1_555
H7 C6 1_555 1_555
C7 C2 1_555 1_555
C8 C7 1_555 1_555
H8 C8 1_555 1_555
C9 N1 1_555 1_555
H9 C9 1_555 1_555
C10 N1 1_555 1_555
H10 C10 1_555 1_555
H11 C10 1_555 1_555
C11 N2 1_555 1_555
H12 C11 1_555 1_555
C12 C11 1_555 1_555
H13 C12 1_555 1_555
H14 C12 1_555 1_555
C13 C12 1_555 1_555
H15 C13 1_555 1_555
H16 C13 1_555 1_555
C14 N2 1_555 1_555
H17 C14 1_555 1_555
H18 C14 1_555 1_555
C6 C7 1_555 1_555
C8 C9 1_555 1_555
C10 C11 1_555 1_555
C13 C14 1_555 1_555

#END
