
#######################################################################
#
#                 Cambridge Crystallographic Data Centre
#                                CCDC 
#
#######################################################################
#
# If this CIF has been generated from an entry in the Cambridge 
# Structural Database, then it will include bibliographic, chemical, 
# crystal, experimental, refinement or atomic coordinate data resulting 
# from the CCDC's data processing and validation procedures.
#
#######################################################################

data_GIHGEM
_chemical_compound_source        'root barks of Jatropha curcas'
_chemical_name_common            'Dimericursone A methanol solvate'
_chemical_formula_moiety         'C39 H44 O3,0.5(C1 H4 O1)'
_chemical_name_systematic        
"(4S,4aR,9aS,10bS,14S,14aR,17bR,17dS)-6,9,9a,16-tetramethyl-1,11-dimethylidene-4,14-bis(prop-1-en-2-yl)-3,4,4a,9a,10b,11,12,13,14,14a,17b,17d-dodecahydro-1H-benzo[3',4']cyclohepta[1',2':5,6]benzo[1,2-a]benzo[e]azulene-7,10,17(2H)-trione methanol solvate"
_symmetry_cell_setting           orthorhombic
_symmetry_space_group_name_H-M   'P 21 21 2'
_symmetry_Int_Tables_number      18
_space_group_name_Hall           'P 2 2ab'
loop_
_symmetry_equiv_pos_site_id
_symmetry_equiv_pos_as_xyz
1 x,y,z
2 -x,-y,z
3 1/2-x,1/2+y,-z
4 1/2+x,1/2-y,-z
_cell_length_a                   20.7367(6)
_cell_length_b                   19.2582(5)
_cell_length_c                   8.3754(3)
_cell_angle_alpha                90
_cell_angle_beta                 90
_cell_angle_gamma                90
_cell_volume                     3344.73
_exptl_crystal_colour            'light yellow'
_exptl_crystal_description       block
_cell_formula_units_Z            4
_exptl_crystal_recrystallization_method methanol
loop_
_atom_site_label
_atom_site_type_symbol
_atom_site_fract_x
_atom_site_fract_y
_atom_site_fract_z
O1 O 0.40998(10) 0.45963(11) 0.4055(3)
O2 O 0.14651(11) 0.54151(12) 0.2601(4)
O3 O 0.25707(13) 0.38489(14) 0.9721(3)
C1 C 0.31252(15) 0.26748(15) 0.4325(4)
C2 C 0.34117(14) 0.32998(14) 0.5193(4)
H1 H 0.374350 0.350166 0.450092
C3 C 0.36919(14) 0.50403(15) 0.4232(4)
C4 C 0.29080(13) 0.38543(15) 0.5499(4)
C5 C 0.34527(14) 0.63609(15) 0.2640(4)
H2 H 0.370961 0.604772 0.197240
C6 C 0.35504(14) 0.71048(15) 0.1993(4)
H3 H 0.330328 0.741866 0.268110
C7 C 0.29154(16) 0.38852(16) 0.8535(4)
C8 C 0.25415(14) 0.62095(16) 0.0736(4)
C9 C 0.29997(14) 0.49310(15) 0.3756(4)
C10 C 0.36346(16) 0.39313(16) 0.8720(4)
C11 C 0.37536(14) 0.30008(15) 0.6689(4)
H4 H 0.343255 0.273224 0.728563
C12 C 0.42937(15) 0.24921(16) 0.6182(4)
H5 H 0.460472 0.275279 0.553676
C13 C 0.37076(14) 0.63053(16) 0.4323(4)
H6 H 0.377830 0.671551 0.488172
C14 C 0.19401(14) 0.51308(16) 0.3113(4)
C15 C 0.26060(14) 0.54108(15) 0.3131(4)
C16 C 0.38371(15) 0.57155(17) 0.5056(4)
C17 C 0.26646(13) 0.42235(15) 0.4020(4)
H7 H 0.275638 0.392861 0.309438
C18 C 0.25061(16) 0.25266(18) 0.4281(4)
C19 C 0.27341(14) 0.61291(15) 0.2497(4)
H8 H 0.247303 0.645528 0.312011
C20 C 0.46505(15) 0.22044(16) 0.7618(4)
C21 C 0.20171(15) 0.43974(16) 0.6944(4)
H9 H 0.185343 0.453176 0.793015
C22 C 0.42530(15) 0.73252(17) 0.2092(4)
C23 C 0.26393(14) 0.40215(15) 0.6919(4)
C24 C 0.19344(14) 0.44212(15) 0.3974(4)
C25 C 0.40114(15) 0.35447(16) 0.7793(4)
H10 H 0.445476 0.361553 0.783193
C26 C 0.40234(16) 0.19057(16) 0.5139(4)
H11 H 0.437719 0.162410 0.474601
H12 H 0.374796 0.161089 0.578467
C27 C 0.36380(16) 0.21825(17) 0.3727(4)
H13 H 0.392300 0.242320 0.299370
H14 H 0.343815 0.179983 0.315884
C28 C 0.16753(14) 0.45565(16) 0.5644(5)
C29 C 0.42597(18) 0.18946(19) 0.8946(4)
H15 H 0.400929 0.225193 0.945051
H16 H 0.454314 0.168736 0.971723
H17 H 0.397661 0.154621 0.852113
C30 C 0.25902(15) 0.69499(17) 0.0182(4)
H18 H 0.231918 0.724371 0.084146
H19 H 0.244191 0.698594 -0.091317
C31 C 0.32918(15) 0.71910(18) 0.0296(4)
H20 H 0.355456 0.692202 -0.043620
H21 H 0.332027 0.767521 -0.001511
C32 C 0.52879(17) 0.22216(19) 0.7680(6)
C33 C 0.15029(16) 0.39144(18) 0.3063(5)
H22 H 0.109407 0.412952 0.285226
H23 H 0.143840 0.350376 0.369269
H24 H 0.170534 0.379171 0.207149
C34 C 0.2418(2) 0.5690(2) -0.0232(5)
C35 C 0.38742(19) 0.4396(2) 1.0033(5)
H25 H 0.369661 0.485288 0.989830
H26 H 0.433627 0.442091 0.999163
H27 H 0.374273 0.421199 1.104670
C36 C 0.4412(2) 0.7947(2) 0.2630(6)
C37 C 0.47516(17) 0.6822(2) 0.1483(5)
H28 H 0.478814 0.643943 0.221137
H29 H 0.516034 0.705341 0.139825
H30 H 0.462410 0.665362 0.045183
C38 C 0.10019(18) 0.4861(2) 0.5799(6)
H31 H 0.069146 0.453387 0.540293
H32 H 0.097558 0.528252 0.519004
H33 H 0.091352 0.495930 0.690104
C39 C 0.4151(2) 0.5657(2) 0.6660(5)
H34 H 0.387830 0.539528 0.736331
H35 H 0.421725 0.611341 0.709394
H36 H 0.455906 0.542658 0.655250
H37 H 0.235(2) 0.513(2) 0.010(5)
H38 H 0.5558(17) 0.2012(19) 0.864(5)
H39 H 0.553(2) 0.245(2) 0.681(6)
H40 H 0.2274(19) 0.581(2) -0.127(5)
H41 H 0.488(2) 0.810(2) 0.248(6)
H42 H 0.412(2) 0.820(2) 0.300(6)
H43 H 0.2184(16) 0.2826(18) 0.474(4)
H44 H 0.234(2) 0.209(2) 0.378(6)
H45? H -0.028030 0.472712 0.159395
C40? C 0.000000 0.500000 0.0911(10)
H46? H -0.028030 0.472713 0.159395
O4? O 0.04683(12) 0.44422(12) -0.0232(3)
loop_
_geom_bond_atom_site_label_1
_geom_bond_atom_site_label_2
_geom_bond_site_symmetry_1
_geom_bond_site_symmetry_2
O1 C3 1_555 1_555
O2 C14 1_555 1_555
O3 C7 1_555 1_555
C1 C2 1_555 1_555
C2 H1 1_555 1_555
C3 C9 1_555 1_555
C4 C2 1_555 1_555
C5 H2 1_555 1_555
C6 C5 1_555 1_555
H3 C6 1_555 1_555
C7 C10 1_555 1_555
C8 C19 1_555 1_555
C9 C15 1_555 1_555
C10 C25 1_555 1_555
C11 C2 1_555 1_555
H4 C11 1_555 1_555
C12 C11 1_555 1_555
H5 C12 1_555 1_555
C13 C5 1_555 1_555
H6 C13 1_555 1_555
C14 C15 1_555 1_555
C15 C19 1_555 1_555
C16 C3 1_555 1_555
C17 C4 1_555 1_555
H7 C17 1_555 1_555
C18 C1 1_555 1_555
C19 C5 1_555 1_555
H8 C19 1_555 1_555
C20 C12 1_555 1_555
C21 H9 1_555 1_555
C22 C6 1_555 1_555
C23 C4 1_555 1_555
C24 C14 1_555 1_555
C25 C11 1_555 1_555
H10 C25 1_555 1_555
C26 C12 1_555 1_555
H11 C26 1_555 1_555
H12 C26 1_555 1_555
C27 C1 1_555 1_555
H13 C27 1_555 1_555
H14 C27 1_555 1_555
C28 C21 1_555 1_555
C29 C20 1_555 1_555
H15 C29 1_555 1_555
H16 C29 1_555 1_555
H17 C29 1_555 1_555
C30 C8 1_555 1_555
H18 C30 1_555 1_555
H19 C30 1_555 1_555
C31 C6 1_555 1_555
H20 C31 1_555 1_555
H21 C31 1_555 1_555
C32 C20 1_555 1_555
C33 C24 1_555 1_555
H22 C33 1_555 1_555
H23 C33 1_555 1_555
H24 C33 1_555 1_555
C34 C8 1_555 1_555
C35 C10 1_555 1_555
H25 C35 1_555 1_555
H26 C35 1_555 1_555
H27 C35 1_555 1_555
C36 C22 1_555 1_555
C37 C22 1_555 1_555
H28 C37 1_555 1_555
H29 C37 1_555 1_555
H30 C37 1_555 1_555
C38 C28 1_555 1_555
H31 C38 1_555 1_555
H32 C38 1_555 1_555
H33 C38 1_555 1_555
C39 C16 1_555 1_555
H34 C39 1_555 1_555
H35 C39 1_555 1_555
H36 C39 1_555 1_555
H37 C34 1_555 1_555
H38 C32 1_555 1_555
H39 C32 1_555 1_555
H40 C34 1_555 1_555
H41 C36 1_555 1_555
H42 C36 1_555 1_555
H43 C18 1_555 1_555
H44 C18 1_555 1_555
C7 C23 1_555 1_555
C9 C17 1_555 1_555
C13 C16 1_555 1_555
C17 C24 1_555 1_555
C21 C23 1_555 1_555
C24 C28 1_555 1_555
C26 C27 1_555 1_555
C30 C31 1_555 1_555

#END
