
#######################################################################
#
#                 Cambridge Crystallographic Data Centre
#                                CCDC 
#
#######################################################################
#
# If this CIF has been generated from an entry in the Cambridge 
# Structural Database, then it will include bibliographic, chemical, 
# crystal, experimental, refinement or atomic coordinate data resulting 
# from the CCDC's data processing and validation procedures.
#
#######################################################################

data_GIHGOT
_chemical_formula_moiety         'C13 H11 N1 S2'
_chemical_name_systematic        2-Ethylthio-naphtho(1,2-d)thiazole
_symmetry_cell_setting           orthorhombic
_symmetry_space_group_name_H-M   'P 21 21 21'
_symmetry_Int_Tables_number      19
_space_group_name_Hall           'P 2ac 2ab'
loop_
_symmetry_equiv_pos_site_id
_symmetry_equiv_pos_as_xyz
1 x,y,z
2 1/2+x,1/2-y,-z
3 -x,1/2+y,1/2-z
4 1/2-x,-y,1/2+z
_cell_length_a                   8.827(3)
_cell_length_b                   10.403(12)
_cell_length_c                   12.837(2)
_cell_angle_alpha                90
_cell_angle_beta                 90
_cell_angle_gamma                90
_cell_volume                     1178.79
_exptl_crystal_colour            colorless
_cell_formula_units_Z            4
loop_
_atom_site_label
_atom_site_type_symbol
_atom_site_fract_x
_atom_site_fract_y
_atom_site_fract_z
S1 S 0.2153(2) 0.0198(1) 0.4957(1)
S2 S 0.3307(2) -0.1058(1) 0.6964(1)
N1 N 0.4804(5) 0.0583(4) 0.5857(3)
C1 C 0.129(1) -0.2298(7) 0.4769(8)
C2 C 0.0852(7) -0.1127(7) 0.5196(5)
C3 C 0.3538(5) -0.0046(4) 0.5901(4)
C4 C 0.5085(7) -0.0627 0.7380
C5 C 0.5912(7) -0.1055(5) 0.8258(4)
C6 C 0.7310(7) -0.0617(5) 0.8418(4)
C7 C 0.8017(6) 0.0305(5) 0.7740(4)
C8 C 0.9490(7) 0.0746(6) 0.7904(4)
C9 C 1.0108(7) 0.1608(7) 0.7245(5)
C10 C 0.9297(7) 0.2116(6) 0.6384(5)
C11 C 0.7863(6) 0.1671(5) 0.6197(4)
C12 C 0.7210(6) 0.0755(4) 0.6854(4)
C13 C 0.5713(6) 0.0242(5) 0.6696(4)
H1 H 0.0548 -0.234 0.4930
H2 H 0.1358 -0.2204 0.4035
H3 H 0.2234 -0.2540 0.5047
H4 H -0.0122 -0.0908 0.4923
H5 H 0.0753 -0.1243 0.5935
H6 H 0.5449 -0.1637 0.8731
H7 H 0.7882 -0.0949 0.8974
H8 H 1.0077 0.0426 0.8481
H9 H 1.1113 0.1899 0.7386
H10 H 0.9782 0.2770 0.5946
H11 H 0.7274 0.1990 0.5610
loop_
_geom_bond_atom_site_label_1
_geom_bond_atom_site_label_2
_geom_bond_site_symmetry_1
_geom_bond_site_symmetry_2
S1 C2 1_555 1_555
S2 C3 1_555 1_555
N1 C3 1_555 1_555
C1 C2 1_555 1_555
C2 H4 1_555 1_555
C3 S1 1_555 1_555
C4 S2 1_555 1_555
C5 C4 1_555 1_555
C6 C5 1_555 1_555
C7 C6 1_555 1_555
C8 C7 1_555 1_555
C9 C8 1_555 1_555
C10 C9 1_555 1_555
C11 C10 1_555 1_555
C12 C7 1_555 1_555
C13 N1 1_555 1_555
H1 C1 1_555 1_555
H2 C1 1_555 1_555
H3 C1 1_555 1_555
H5 C2 1_555 1_555
H6 C5 1_555 1_555
H7 C6 1_555 1_555
H8 C8 1_555 1_555
H9 C9 1_555 1_555
H10 C10 1_555 1_555
H11 C11 1_555 1_555
C4 C13 1_555 1_555
C11 C12 1_555 1_555
C12 C13 1_555 1_555

#END
