
#######################################################################
#
#                 Cambridge Crystallographic Data Centre
#                                CCDC 
#
#######################################################################
#
# If this CIF has been generated from an entry in the Cambridge 
# Structural Database, then it will include bibliographic, chemical, 
# crystal, experimental, refinement or atomic coordinate data resulting 
# from the CCDC's data processing and validation procedures.
#
#######################################################################

data_GIHJOX
_chemical_formula_moiety         'C16 H20 N4,H2 O1'
_chemical_name_systematic        
'(1R,2R)-N^1^,N^2^-bis((1H-Pyrrol-2-yl)methylene)cyclohexane-1,2-diamine monohydrate'
_symmetry_cell_setting           orthorhombic
_symmetry_space_group_name_H-M   'P 21 21 2'
_symmetry_Int_Tables_number      18
_space_group_name_Hall           'P 2 2ab'
loop_
_symmetry_equiv_pos_site_id
_symmetry_equiv_pos_as_xyz
1 x,y,z
2 -x,-y,z
3 1/2-x,1/2+y,-z
4 1/2+x,1/2-y,-z
_cell_length_a                   16.605(4)
_cell_length_b                   5.5900(13)
_cell_length_c                   8.875(2)
_cell_angle_alpha                90
_cell_angle_beta                 90
_cell_angle_gamma                90
_cell_volume                     823.795
_chemical_melting_point          '203.8 deg.C'
_cell_formula_units_Z            2
_exptl_crystal_recrystallization_method dichloromethane/methanol
loop_
_atom_site_label
_atom_site_type_symbol
_atom_site_fract_x
_atom_site_fract_y
_atom_site_fract_z
N1 N 0.57662(8) 0.1185(3) 0.90428(15)
N2 N 0.64999(10) 0.3316(3) 1.17216(17)
C1 C 0.54596(12) -0.0003(6) 0.4857(2)
H1 H 0.5654 -0.1638 0.4808
H2 H 0.5656 0.0842 0.3976
C2 C 0.57808(11) 0.1197(4) 0.62792(19)
H3 H 0.5621 0.2866 0.6285
H4 H 0.6365 0.1132 0.6278
C3 C 0.54614(9) -0.0026(4) 0.76957(17)
H5 H 0.5643 -0.1694 0.7705
C4 C 0.63230(9) 0.0158(4) 0.97889(19)
H6 H 0.6497 -0.1335 0.9461
C5 C 0.67014(10) 0.1156(3) 1.11066(19)
C6 C 0.73228(10) 0.0236(4) 1.1954(2)
H7 H 0.7587 -0.1206 1.1785
C7 C 0.74856(13) 0.1857(5) 1.3111(2)
H8 H 0.7874 0.1685 1.3858
C8 C 0.69719(12) 0.3736(4) 1.2945(2)
H9 H 0.6948 0.5078 1.3563
H11 H 0.6068(9) 0.415(3) 1.142(2)
N1A N 0.42338(8) -0.1185(3) 0.90428(15)
N2A N 0.35001(10) -0.3316(3) 1.17216(17)
C1A C 0.45404(12) 0.0003(6) 0.4857(2)
H1A H 0.4346 0.1638 0.4808
H2A H 0.4344 -0.0842 0.3976
C2A C 0.42192(11) -0.1197(4) 0.62792(19)
H3A H 0.4379 -0.2866 0.6285
H4A H 0.3635 -0.1132 0.6278
C3A C 0.45386(9) 0.0026(4) 0.76957(17)
H5A H 0.4357 0.1694 0.7705
C4A C 0.36770(9) -0.0158(4) 0.97889(19)
H6A H 0.3503 0.1335 0.9461
C5A C 0.32986(10) -0.1156(3) 1.11066(19)
C6A C 0.26772(10) -0.0236(4) 1.1954(2)
H7A H 0.2413 0.1206 1.1785
C7A C 0.25144(13) -0.1857(5) 1.3111(2)
H8A H 0.2126 -0.1685 1.3858
C8A C 0.30281(12) -0.3736(4) 1.2945(2)
H9A H 0.3052 -0.5078 1.3563
H11A H 0.3932(9) -0.415(3) 1.142(2)
O1 O 0.5000 0.5000 0.0488(3)
H10 H 0.4831(17) 0.607(4) -0.012(2)
H10A H 0.5169(17) 0.393(4) -0.012(2)
loop_
_geom_bond_atom_site_label_1
_geom_bond_atom_site_label_2
_geom_bond_site_symmetry_1
_geom_bond_site_symmetry_2
N1 C3 1_555 1_555
N2 C5 1_555 1_555
C1 H1 1_555 1_555
H2 C1 1_555 1_555
C2 C1 1_555 1_555
H3 C2 1_555 1_555
H4 C2 1_555 1_555
C3 C2 1_555 1_555
H5 C3 1_555 1_555
C4 N1 1_555 1_555
H6 C4 1_555 1_555
C5 C4 1_555 1_555
C6 C5 1_555 1_555
H7 C6 1_555 1_555
C7 C6 1_555 1_555
H8 C7 1_555 1_555
C8 N2 1_555 1_555
H9 C8 1_555 1_555
O1 H10 1_555 1_555
H11 N2 1_555 1_555
N1A C3A 1_555 1_555
N2A C5A 1_555 1_555
C1A C1 1_555 1_555
H1A C1A 1_555 1_555
H2A C1A 1_555 1_555
C2A C1A 1_555 1_555
H3A C2A 1_555 1_555
H4A C2A 1_555 1_555
C3A C3 1_555 1_555
H5A C3A 1_555 1_555
C4A N1A 1_555 1_555
H6A C4A 1_555 1_555
C5A C4A 1_555 1_555
C6A C5A 1_555 1_555
H7A C6A 1_555 1_555
C7A C6A 1_555 1_555
H8A C7A 1_555 1_555
C8A N2A 1_555 1_555
H9A C8A 1_555 1_555
H10A O1 1_555 1_555
H11A N2A 1_555 1_555
C7 C8 1_555 1_555
C2A C3A 1_555 1_555
C7A C8A 1_555 1_555

#END
