
#######################################################################
#
#                 Cambridge Crystallographic Data Centre
#                                CCDC 
#
#######################################################################
#
# If this CIF has been generated from an entry in the Cambridge 
# Structural Database, then it will include bibliographic, chemical, 
# crystal, experimental, refinement or atomic coordinate data resulting 
# from the CCDC's data processing and validation procedures.
#
#######################################################################

data_GIHKUG
_chemical_formula_moiety         'C33 H75 N12 Na3'
_chemical_name_systematic        
tris(\m-4,7,10-trimethyl-1,4,7,10-tetraazacyclododecan-1-yl)-tri-sodium
_symmetry_cell_setting           monoclinic
_symmetry_space_group_name_H-M   'I 2/a'
_symmetry_Int_Tables_number      15
_space_group_name_Hall           '-I 2ya'
loop_
_symmetry_equiv_pos_site_id
_symmetry_equiv_pos_as_xyz
1 x,y,z
2 1/2-x,y,-z
3 1/2+x,1/2+y,1/2+z
4 -x,1/2+y,1/2-z
5 -x,-y,-z
6 1/2+x,-y,z
7 1/2-x,1/2-y,1/2-z
8 x,1/2-y,1/2+z
_cell_length_a                   21.8167(14)
_cell_length_b                   10.2741(7)
_cell_length_c                   38.391(2)
_cell_angle_alpha                90
_cell_angle_beta                 98.572(3)
_cell_angle_gamma                90
_cell_volume                     8509.1
_exptl_crystal_colour            colorless
_exptl_crystal_description       block
_cell_formula_units_Z            8
_chemical_properties_physical    'air- and moisture-sensitive'
_exptl_crystal_recrystallization_method n-pentane
loop_
_atom_site_label
_atom_site_type_symbol
_atom_site_fract_x
_atom_site_fract_y
_atom_site_fract_z
Na1 Na 0.42293(2) 0.19195(5) 0.31940(2)
Na2 Na 0.56086(2) 0.20839(5) 0.38904(2)
Na3 Na 0.39814(2) 0.29997(5) 0.40740(2)
N1 N 0.34027(5) 0.23704(11) 0.35258(3)
N2 N 0.34740(5) -0.01190(11) 0.30831(3)
N3 N 0.38982(5) 0.16883(11) 0.25429(3)
N4 N 0.37849(5) 0.41416(11) 0.29661(3)
N5 N 0.53393(5) 0.16862(11) 0.32752(3)
N6 N 0.63481(5) 0.35575(11) 0.36222(3)
N7 N 0.67357(5) 0.14765(11) 0.41655(3)
N8 N 0.57545(5) -0.04113(11) 0.38186(3)
N9 N 0.50437(13) 0.2905(2) 0.43307(7)
N10 N 0.42709(9) 0.5399(2) 0.42284(5)
N11 N 0.32350(15) 0.3806(3) 0.44795(8)
N12 N 0.39900(9) 0.1392(2) 0.46053(5)
C1 C 0.30592(6) 0.11819(14) 0.35524(3)
H1 H 0.2663 0.1402 0.3635
H2 H 0.3299 0.0622 0.3734
C2 C 0.29126(6) 0.03911(14) 0.32090(3)
H3 H 0.2640 -0.0347 0.3249
H4 H 0.2684 0.0952 0.3024
C3 C 0.33685(6) -0.03476(14) 0.27004(4)
H5 H 0.2976 -0.0834 0.2638
H6 H 0.3708 -0.0900 0.2638
C4 C 0.33357(6) 0.08901(14) 0.24827(3)
H7 H 0.3252 0.0653 0.2230
H8 H 0.2982 0.1419 0.2536
C5 C 0.37847(6) 0.29975(14) 0.23949(3)
H9 H 0.3544 0.2924 0.2156
H10 H 0.4187 0.3408 0.2372
C6 C 0.34351(6) 0.38710(14) 0.26179(3)
H11 H 0.3337 0.4704 0.2492
H12 H 0.3038 0.3449 0.2647
C7 C 0.33693(6) 0.44785(13) 0.32231(3)
H13 H 0.3074 0.5154 0.3119
H14 H 0.3620 0.4858 0.3435
C8 C 0.30049(6) 0.33338(14) 0.33356(3)
H15 H 0.2706 0.3652 0.3487
H16 H 0.2766 0.2926 0.3124
C9 C 0.36660(7) -0.13287(15) 0.32665(4)
H17 H 0.3730 -0.1176 0.3521
H18 H 0.4054 -0.1634 0.3194
H19 H 0.3343 -0.1989 0.3207
C10 C 0.44024(6) 0.10813(16) 0.23895(4)
H20 H 0.4476 0.0201 0.2485
H21 H 0.4780 0.1602 0.2448
H22 H 0.4289 0.1034 0.2133
C11 C 0.42262(7) 0.51951(15) 0.29430(4)
H23 H 0.4499 0.4964 0.2772
H24 H 0.4475 0.5333 0.3174
H25 H 0.4000 0.5995 0.2867
C12 C 0.56288(6) 0.27213(16) 0.30990(3)
H26 H 0.5371 0.3514 0.3100
H27 H 0.5627 0.2466 0.2850
C13 C 0.62993(6) 0.30659(15) 0.32597(3)
H28 H 0.6562 0.2281 0.3258
H29 H 0.6460 0.3734 0.3111
C14 C 0.69806(6) 0.33992(14) 0.38162(4)
H30 H 0.7026 0.3959 0.4028
H31 H 0.7282 0.3706 0.3665
C15 C 0.71393(6) 0.20100(15) 0.39283(4)
H32 H 0.7109 0.1455 0.3716
H33 H 0.7574 0.1979 0.4047
C16 C 0.67755(7) 0.00408(14) 0.41747(4)
H34 H 0.6610 -0.0279 0.4385
H35 H 0.7217 -0.0219 0.4198
C17 C 0.64222(6) -0.06083(14) 0.38493(4)
H36 H 0.6570 -0.0253 0.3637
H37 H 0.6511 -0.1554 0.3859
C18 C 0.54493(7) -0.05972(14) 0.34486(4)
H38 H 0.4996 -0.0642 0.3447
H39 H 0.5583 -0.1445 0.3363
C19 C 0.55812(7) 0.04488(15) 0.31924(3)
H40 H 0.6035 0.0522 0.3197
H41 H 0.5395 0.0194 0.2951
C20 C 0.61765(7) 0.49274(14) 0.36284(4)
H42 H 0.6465 0.5446 0.3513
H43 H 0.6195 0.5215 0.3873
H44 H 0.5754 0.5042 0.3504
C21 C 0.68983(7) 0.19901(17) 0.45228(4)
H45 H 0.7330 0.1769 0.4613
H46 H 0.6625 0.1607 0.4676
H47 H 0.6849 0.2938 0.4519
C22 C 0.54820(8) -0.13249(16) 0.40412(4)
H48 H 0.5568 -0.2217 0.3972
H49 H 0.5033 -0.1188 0.4013
H50 H 0.5662 -0.1185 0.4288
C23 C 0.52142(7) 0.41108(17) 0.45062(4)
H51 H 0.5672 0.4173 0.4552
H52 H 0.5063 0.4112 0.4737
C24 C 0.49574(8) 0.5300(2) 0.42975(4)
H53 H 0.5122 0.6089 0.4427
H54 H 0.5115 0.5297 0.4069
C25 C 0.40075(9) 0.56038(17) 0.45549(4)
H55 H 0.4053 0.6532 0.4623
H56 H 0.4244 0.5080 0.4746
C26 C 0.33277(9) 0.5229(2) 0.45159(5)
H57 H 0.3153 0.5536 0.4725
H58 H 0.3100 0.5667 0.4306
C27 C 0.33648(8) 0.3167(2) 0.48249(4)
H59 H 0.3010 0.3309 0.4954
H60 H 0.3734 0.3577 0.4963
C28 C 0.34789(9) 0.1712(2) 0.47989(5)
H61 H 0.3571 0.1347 0.5040
H62 H 0.3095 0.1292 0.4680
C29 C 0.45956(7) 0.17165(17) 0.48115(4)
H63 H 0.4710 0.1030 0.4991
H64 H 0.4558 0.2547 0.4938
C30 C 0.51182(9) 0.1847(2) 0.45842(4)
H65 H 0.5515 0.1970 0.4743
H66 H 0.5148 0.1020 0.4455
C31 C 0.40790(7) 0.64895(14) 0.39924(4)
H67 H 0.3629 0.6458 0.3920
H68 H 0.4288 0.6431 0.3784
H69 H 0.4191 0.7311 0.4115
C32 C 0.26255(6) 0.35057(15) 0.43042(4)
H70 H 0.2580 0.2560 0.4278
H71 H 0.2562 0.3914 0.4071
H72 H 0.2317 0.3838 0.4443
C33 C 0.39709(8) 0.00063(15) 0.45000(4)
H73 H 0.4278 -0.0151 0.4343
H74 H 0.3556 -0.0207 0.4377
H75 H 0.4066 -0.0541 0.4710
N13? N 0.5052(6) 0.3309(10) 0.4267(3)
N14? N 0.4059(4) 0.5489(9) 0.4284(2)
N15? N 0.3291(6) 0.3417(11) 0.4538(3)
N16? N 0.4218(4) 0.1292(9) 0.4542(2)
C34? C 0.5149(3) 0.4690(8) 0.43017(19)
H76? H 0.5155 0.5053 0.4063
H77? H 0.5566 0.4834 0.4438
C35? C 0.4681(3) 0.5481(7) 0.44770(17)
H78? H 0.4667 0.5120 0.4715
H79? H 0.4830 0.6390 0.4506
C36? C 0.3598(4) 0.5721(7) 0.45069(17)
H80? H 0.3209 0.5988 0.4358
H81? H 0.3736 0.6459 0.4665
C37? C 0.3460(3) 0.4567(7) 0.47312(18)
H82? H 0.3831 0.4384 0.4906
H83? H 0.3119 0.4808 0.4862
C38? C 0.3307(4) 0.2263(8) 0.47575(19)
H84? H 0.3033 0.1591 0.4632
H85? H 0.3143 0.2483 0.4977
C39? C 0.3951(3) 0.1713(7) 0.48500(17)
H86? H 0.4223 0.2383 0.4978
H87? H 0.3937 0.0962 0.5010
C40? C 0.4907(4) 0.1370(9) 0.46142(19)
H88? H 0.5079 0.0835 0.4437
H89? H 0.5049 0.0982 0.4848
C41? C 0.5168(3) 0.2718(8) 0.46079(17)
H90? H 0.4986 0.3268 0.4778
H91? H 0.5622 0.2681 0.4686
H92? H 0.3655 0.6708 0.3886
H93? H 0.4305 0.6127 0.3812
H94? H 0.4290 0.7277 0.4092
H95? H 0.2506 0.2646 0.4206
H96? H 0.2640 0.4125 0.4112
H97? H 0.2321 0.3800 0.4451
H98? H 0.4265 -0.0558 0.4402
H99? H 0.3578 0.0026 0.4339
H100? H 0.3900 -0.0332 0.4729
loop_
_geom_bond_atom_site_label_1
_geom_bond_atom_site_label_2
_geom_bond_site_symmetry_1
_geom_bond_site_symmetry_2
Na1 N1 1_555 1_555
Na2 N5 1_555 1_555
Na3 N1 1_555 1_555
N1 C1 1_555 1_555
N2 Na1 1_555 1_555
N3 Na1 1_555 1_555
N4 Na1 1_555 1_555
N5 Na1 1_555 1_555
N6 Na2 1_555 1_555
N7 Na2 1_555 1_555
N8 Na2 1_555 1_555
N9 Na2 1_555 1_555
N10 Na3 1_555 1_555
N11 Na3 1_555 1_555
N12 Na3 1_555 1_555
C1 H1 1_555 1_555
H2 C1 1_555 1_555
C2 N2 1_555 1_555
H3 C2 1_555 1_555
H4 C2 1_555 1_555
C3 N2 1_555 1_555
H5 C3 1_555 1_555
H6 C3 1_555 1_555
C4 N3 1_555 1_555
H7 C4 1_555 1_555
H8 C4 1_555 1_555
C5 N3 1_555 1_555
H9 C5 1_555 1_555
H10 C5 1_555 1_555
C6 N4 1_555 1_555
H11 C6 1_555 1_555
H12 C6 1_555 1_555
C7 N4 1_555 1_555
H13 C7 1_555 1_555
H14 C7 1_555 1_555
C8 N1 1_555 1_555
H15 C8 1_555 1_555
H16 C8 1_555 1_555
C9 N2 1_555 1_555
H17 C9 1_555 1_555
H18 C9 1_555 1_555
H19 C9 1_555 1_555
C10 N3 1_555 1_555
H20 C10 1_555 1_555
H21 C10 1_555 1_555
H22 C10 1_555 1_555
C11 N4 1_555 1_555
H23 C11 1_555 1_555
H24 C11 1_555 1_555
H25 C11 1_555 1_555
C12 N5 1_555 1_555
H26 C12 1_555 1_555
H27 C12 1_555 1_555
C13 N6 1_555 1_555
H28 C13 1_555 1_555
H29 C13 1_555 1_555
C14 N6 1_555 1_555
H30 C14 1_555 1_555
H31 C14 1_555 1_555
C15 N7 1_555 1_555
H32 C15 1_555 1_555
H33 C15 1_555 1_555
C16 N7 1_555 1_555
H34 C16 1_555 1_555
H35 C16 1_555 1_555
C17 N8 1_555 1_555
H36 C17 1_555 1_555
H37 C17 1_555 1_555
C18 N8 1_555 1_555
H38 C18 1_555 1_555
H39 C18 1_555 1_555
C19 N5 1_555 1_555
H40 C19 1_555 1_555
H41 C19 1_555 1_555
C20 N6 1_555 1_555
H42 C20 1_555 1_555
H43 C20 1_555 1_555
H44 C20 1_555 1_555
C21 N7 1_555 1_555
H45 C21 1_555 1_555
H46 C21 1_555 1_555
H47 C21 1_555 1_555
C22 N8 1_555 1_555
H48 C22 1_555 1_555
H49 C22 1_555 1_555
H50 C22 1_555 1_555
C23 N9 1_555 1_555
H51 C23 1_555 1_555
H52 C23 1_555 1_555
C24 N10 1_555 1_555
H53 C24 1_555 1_555
H54 C24 1_555 1_555
C25 N10 1_555 1_555
H55 C25 1_555 1_555
H56 C25 1_555 1_555
C26 N11 1_555 1_555
H57 C26 1_555 1_555
H58 C26 1_555 1_555
C27 N11 1_555 1_555
H59 C27 1_555 1_555
H60 C27 1_555 1_555
C28 N12 1_555 1_555
H61 C28 1_555 1_555
H62 C28 1_555 1_555
C29 N12 1_555 1_555
H63 C29 1_555 1_555
H64 C29 1_555 1_555
C30 N9 1_555 1_555
H65 C30 1_555 1_555
H66 C30 1_555 1_555
C31 N10 1_555 1_555
H67 C31 1_555 1_555
H68 C31 1_555 1_555
H69 C31 1_555 1_555
C32 N11 1_555 1_555
H70 C32 1_555 1_555
H71 C32 1_555 1_555
H72 C32 1_555 1_555
C33 N12 1_555 1_555
H73 C33 1_555 1_555
H74 C33 1_555 1_555
H75 C33 1_555 1_555
Na3 N9 1_555 1_555
C1 C2 1_555 1_555
C3 C4 1_555 1_555
C5 C6 1_555 1_555
C7 C8 1_555 1_555
C12 C13 1_555 1_555
C14 C15 1_555 1_555
C16 C17 1_555 1_555
C18 C19 1_555 1_555
C23 C24 1_555 1_555
C25 C26 1_555 1_555
C27 C28 1_555 1_555
C29 C30 1_555 1_555

#END
