
#######################################################################
#
#                 Cambridge Crystallographic Data Centre
#                                CCDC 
#
#######################################################################
#
# If this CIF has been generated from an entry in the Cambridge 
# Structural Database, then it will include bibliographic, chemical, 
# crystal, experimental, refinement or atomic coordinate data resulting 
# from the CCDC's data processing and validation procedures.
#
#######################################################################

data_GIHLUH
_chemical_formula_moiety         'C31 H53 K1 N4 O2 Si1,0.5(C4 H8 O1)'
_chemical_name_systematic        
'(\h^2^-1-diphenyl(dihydrido)silyl-4,7,10-trimethyl-1,4,7,10-tetraazacyclododecane)-bis(tetrahydrofuran)-potassium tetrahydrofuran solvate'
_symmetry_cell_setting           triclinic
_symmetry_space_group_name_H-M   'P -1'
_symmetry_Int_Tables_number      2
_space_group_name_Hall           '-P 1'
loop_
_symmetry_equiv_pos_site_id
_symmetry_equiv_pos_as_xyz
1 x,y,z
2 -x,-y,-z
_cell_length_a                   14.789(3)
_cell_length_b                   19.355(3)
_cell_length_c                   21.371(4)
_cell_angle_alpha                108.413(3)
_cell_angle_beta                 109.672(3)
_cell_angle_gamma                99.275(3)
_cell_volume                     5214.6
_exptl_crystal_colour            colorless
_exptl_crystal_description       block
_cell_formula_units_Z            6
_chemical_properties_physical    'air- and moisture-sensitive'
_exptl_crystal_recrystallization_method tetrahydrofuran
loop_
_atom_site_label
_atom_site_type_symbol
_atom_site_fract_x
_atom_site_fract_y
_atom_site_fract_z
K1 K 0.45059(5) 0.77938(4) 0.77695(4)
Si1 Si 0.20457(7) 0.77459(5) 0.75067(5)
H1 H 0.290(2) 0.8309(18) 0.8183(18)
H2 H 0.131(2) 0.7180(18) 0.6815(18)
O1 O 0.5728(2) 0.67606(15) 0.78470(15)
O2 O 0.55898(18) 0.84352(14) 0.92099(12)
N1 N 0.2650(2) 0.81297(16) 0.70296(14)
N2 N 0.3552(2) 0.69824(16) 0.62729(15)
N3 N 0.5662(2) 0.81438(17) 0.69960(16)
N4 N 0.4810(2) 0.92773(16) 0.77709(15)
C1 C 0.2300(3) 0.7732(2) 0.62407(18)
H3 H 0.2643 0.8059 0.6063
H4 H 0.1569 0.7655 0.6006
C2 C 0.2494(3) 0.6961(2) 0.60143(19)
H5 H 0.2148 0.6636 0.6192
H6 H 0.2186 0.6713 0.5479
C3 C 0.4074(3) 0.7300(2) 0.59098(19)
H7 H 0.3873 0.7756 0.5877
H8 H 0.3845 0.6919 0.5409
C4 C 0.5217(3) 0.7527(2) 0.6276(2)
H9 H 0.5420 0.7074 0.6316
H10 H 0.5495 0.7685 0.5964
C5 C 0.5651(3) 0.8889(2) 0.6944(2)
H11 H 0.5034 0.8815 0.6526
H12 H 0.6237 0.9083 0.6855
C6 C 0.5687(3) 0.9477(2) 0.7623(2)
H13 H 0.6298 0.9543 0.8041
H14 H 0.5742 0.9973 0.7575
C7 C 0.3901(3) 0.9331(2) 0.72447(19)
H15 H 0.3872 0.9089 0.6752
H16 H 0.3963 0.9877 0.7348
C8 C 0.2922(2) 0.89598(19) 0.72505(19)
H17 H 0.2962 0.9196 0.7747
H18 H 0.2372 0.9080 0.6926
C9 C 0.3609(3) 0.6214(2) 0.6172(2)
H19 H 0.3273 0.5881 0.5655
H20 H 0.3276 0.6018 0.6435
H21 H 0.4316 0.6225 0.6359
C10 C 0.6698(3) 0.8168(2) 0.7381(2)
H22 H 0.6706 0.7680 0.7424
H23 H 0.6992 0.8580 0.7865
H24 H 0.7092 0.8260 0.7111
C11 C 0.5009(3) 0.9769(2) 0.85057(19)
H25 H 0.5612 0.9726 0.8847
H26 H 0.4433 0.9614 0.8613
H27 H 0.5117 1.0299 0.8552
C12 C 0.2403(3) 0.6947(2) 0.7801(2)
C13 C 0.3141(3) 0.7091(2) 0.8476(2)
H28 H 0.3527 0.7605 0.8791
C14 C 0.3337(3) 0.6516(3) 0.8709(2)
H29 H 0.3856 0.6639 0.9171
C15 C 0.2784(4) 0.5773(3) 0.8275(3)
H30 H 0.2911 0.5380 0.8436
C16 C 0.2042(4) 0.5597(2) 0.7603(3)
H31 H 0.1651 0.5081 0.7300
C17 C 0.1864(3) 0.6175(2) 0.7366(2)
H32 H 0.1362 0.6043 0.6895
C18 C 0.1044(2) 0.80798(19) 0.78158(18)
C19 C 0.0055(3) 0.7603(2) 0.7507(2)
H33 H -0.0126 0.7117 0.7129
C20 C -0.0666(3) 0.7814(2) 0.7730(2)
H34 H -0.1326 0.7470 0.7518
C21 C -0.0430(3) 0.8530(2) 0.8266(2)
H35 H -0.0928 0.8680 0.8418
C22 C 0.0523(3) 0.9019(2) 0.85736(19)
H36 H 0.0686 0.9515 0.8933
C23 C 0.1253(3) 0.8788(2) 0.83583(18)
H37 H 0.1919 0.9126 0.8591
C24 C 0.5300(3) 0.6408(2) 0.8219(3)
H38 H 0.4563 0.6181 0.7938
H39 H 0.5433 0.6788 0.8701
C25 C 0.5786(3) 0.5797(2) 0.8299(2)
H40 H 0.5324 0.5367 0.8301
H41 H 0.6415 0.6002 0.8747
C26 C 0.5997(3) 0.5557(2) 0.7631(2)
H42 H 0.6561 0.5332 0.7701
H43 H 0.5394 0.5184 0.7202
C27 C 0.6272(3) 0.6301(2) 0.7557(2)
H44 H 0.7005 0.6557 0.7828
H45 H 0.6084 0.6212 0.7041
C28 C 0.5344(3) 0.8810(2) 0.9795(2)
H46 H 0.5228 0.8470 1.0041
H47 H 0.4729 0.8962 0.9617
C29 C 0.6238(3) 0.9504(2) 1.0307(2)
H48 H 0.6357 0.9609 1.0817
H49 H 0.6136 0.9959 1.0209
C30 C 0.7116(3) 0.9293(2) 1.01525(19)
H50 H 0.7438 0.9662 1.0002
H51 H 0.7628 0.9280 1.0586
C31 C 0.6636(3) 0.8505(2) 0.95418(19)
H52 H 0.6939 0.8456 0.9187
H53 H 0.6729 0.8106 0.9733
K2 K 0.09976(5) 0.75810(4) 0.10138(4)
Si2 Si -0.14845(7) 0.74903(6) 0.07636(5)
H54 H -0.059(2) 0.8165(18) 0.1415(18)
H55 H -0.235(2) 0.6852(18) 0.0072(18)
O3 O 0.2277(2) 0.66441(17) 0.12584(16)
O4 O 0.22204(18) 0.83873(14) 0.24503(12)
N5 N -0.0929(2) 0.78039(16) 0.02312(14)
N6 N -0.0054(2) 0.66040(18) -0.04544(15)
N7 N 0.2008(2) 0.77571(18) 0.01013(16)
N8 N 0.1181(2) 0.89606(17) 0.08305(16)
C32 C -0.1325(3) 0.7334(2) -0.05518(18)
H56 H -0.1014 0.7616 -0.0778
H57 H -0.2060 0.7249 -0.0774
C33 C -0.1123(3) 0.6562(2) -0.07150(19)
H58 H -0.1443 0.6280 -0.0493
H59 H -0.1449 0.6265 -0.1246
C34 C 0.0395(3) 0.6821(3) -0.0904(2)
H60 H 0.0166 0.7246 -0.0999
H61 H 0.0141 0.6383 -0.1376
C35 C 0.1536(3) 0.7065(2) -0.0577(2)
H62 H 0.1767 0.6642 -0.0482
H63 H 0.1768 0.7158 -0.0936
C36 C 0.1920(3) 0.8428(2) -0.0048(2)
H64 H 0.1263 0.8299 -0.0455
H65 H 0.2455 0.8584 -0.0200
C37 C 0.2005(3) 0.9099(2) 0.0608(2)
H66 H 0.2650 0.9212 0.1020
H67 H 0.2019 0.9555 0.0491
C38 C 0.0243(3) 0.8958(2) 0.03062(19)
H68 H 0.0178 0.8667 -0.0188
H69 H 0.0280 0.9490 0.0358
C39 C -0.0699(3) 0.8616(2) 0.0381(2)
H70 H -0.0622 0.8897 0.0881
H71 H -0.1281 0.8700 0.0048
C40 C 0.0049(3) 0.5868(2) -0.0437(2)
H72 H -0.0304 0.5469 -0.0929
H73 H -0.0245 0.5745 -0.0123
H74 H 0.0763 0.5898 -0.0249
C41 C 0.3065(3) 0.7830(3) 0.0483(2)
H75 H 0.3424 0.7880 0.0181
H76 H 0.3118 0.7375 0.0586
H77 H 0.3365 0.8283 0.0940
C42 C 0.1441(3) 0.9535(2) 0.1550(2)
H78 H 0.1535 1.0042 0.1536
H79 H 0.2066 0.9521 0.1896
H80 H 0.0898 0.9427 0.1702
C43 C -0.1090(3) 0.6744(2) 0.11379(19)
C44 C -0.0296(3) 0.6940(2) 0.18014(19)
H81 H 0.0121 0.7455 0.2060
C45 C -0.0087(3) 0.6415(3) 0.2100(2)
H82 H 0.0466 0.6573 0.2555
C46 C -0.0668(4) 0.5673(3) 0.1748(3)
H83 H -0.0531 0.5315 0.1957
C47 C -0.1462(4) 0.5446(2) 0.1081(3)
H84 H -0.1870 0.4929 0.0828
C48 C -0.1660(3) 0.5974(2) 0.0784(2)
H85 H -0.2202 0.5807 0.0323
C49 C -0.2483(3) 0.7843(2) 0.10561(17)
C50 C -0.2262(3) 0.8562(2) 0.15950(18)
H86 H -0.1594 0.8897 0.1825
C51 C -0.2990(3) 0.8800(2) 0.1803(2)
H87 H -0.2819 0.9296 0.2163
C52 C -0.3957(3) 0.8323(2) 0.1490(2)
H88 H -0.4453 0.8485 0.1637
C53 C -0.4204(3) 0.7601(2) 0.0958(2)
H89 H -0.4869 0.7264 0.0743
C54 C -0.3480(3) 0.7377(2) 0.07446(19)
H90 H -0.3664 0.6887 0.0371
C55 C 0.1961(4) 0.6387(3) 0.1709(3)
H91 H 0.1233 0.6106 0.1457
H92 H 0.2073 0.6825 0.2151
C56 C 0.2554(3) 0.5870(2) 0.1911(2)
H93 H 0.3170 0.6156 0.2365
H94 H 0.2145 0.5453 0.1965
C57 C 0.2804(3) 0.5572(2) 0.1273(3)
H95 H 0.2256 0.5119 0.0878
H96 H 0.3437 0.5433 0.1410
C58 C 0.2919(3) 0.6235(2) 0.1049(2)
H97 H 0.3626 0.6565 0.1297
H98 H 0.2712 0.6051 0.0519
C59 C 0.1894(3) 0.8746(2) 0.29907(19)
H99 H 0.1794 0.8420 0.3252
H100 H 0.1255 0.8852 0.2772
C60 C 0.2742(3) 0.9488(2) 0.3501(2)
H101 H 0.2642 0.9905 0.3336
H102 H 0.2787 0.9645 0.4001
C61 C 0.3676(3) 0.92862(19) 0.34603(18)
H103 H 0.4082 0.9235 0.3909
H104 H 0.4098 0.9684 0.3392
C62 C 0.3287(3) 0.8530(2) 0.28116(19)
H105 H 0.3615 0.8559 0.2482
H106 H 0.3428 0.8116 0.2971
K3 K 0.77817(5) 0.76874(4) 0.44272(4)
Si3 Si 0.53476(7) 0.76513(5) 0.42153(5)
H107 H 0.621(2) 0.8278(18) 0.4825(17)
H108 H 0.449(2) 0.6995(17) 0.3539(17)
O5 O 0.90894(18) 0.85362(14) 0.58853(12)
N9 N 0.5879(2) 0.79776(15) 0.36751(14)
N10 N 0.8016(2) 0.91165(16) 0.43217(15)
N11 N 0.8812(2) 0.79276(18) 0.35475(16)
N12 N 0.6711(2) 0.67884(17) 0.29224(15)
C63 C 0.6138(2) 0.87967(18) 0.38480(19)
H109 H 0.6211 0.9066 0.4349
H110 H 0.5569 0.8898 0.3520
C64 C 0.7089(2) 0.9138(2) 0.37901(18)
H111 H 0.7033 0.8857 0.3296
H112 H 0.7142 0.9675 0.3856
C65 C 0.8873(3) 0.9270(2) 0.4142(2)
H113 H 0.9492 0.9343 0.4558
H114 H 0.8935 0.9754 0.4071
C66 C 0.8809(3) 0.8651(2) 0.3473(2)
H115 H 0.8185 0.8570 0.3056
H116 H 0.9387 0.8822 0.3365
C67 C 0.8317(3) 0.7288(2) 0.2833(2)
H117 H 0.8521 0.6836 0.2877
H118 H 0.8558 0.7423 0.2495
C68 C 0.7176(3) 0.7075(2) 0.25127(19)
H119 H 0.6975 0.7531 0.2480
H120 H 0.6907 0.6681 0.2014
C69 C 0.5648(3) 0.6760(2) 0.26874(19)
H121 H 0.5334 0.6461 0.2901
H122 H 0.5308 0.6484 0.2154
C70 C 0.5459(3) 0.7532(2) 0.28899(18)
H123 H 0.5757 0.7829 0.2668
H124 H 0.4724 0.7453 0.2684
C71 C 0.8250(3) 0.9666(2) 0.50436(19)
H125 H 0.8837 0.9618 0.5397
H126 H 0.7672 0.9566 0.5164
H127 H 0.8398 1.0183 0.5056
C72 C 0.9849(3) 0.7944(3) 0.3921(2)
H128 H 1.0220 0.7990 0.3625
H129 H 0.9852 0.7471 0.3997
H130 H 1.0172 0.8381 0.4390
C73 C 0.6772(3) 0.6022(2) 0.2842(2)
H131 H 0.6396 0.5670 0.2333
H132 H 0.6483 0.5853 0.3139
H133 H 0.7478 0.6028 0.3001
C74 C 0.5765(3) 0.69056(19) 0.45820(18)
C75 C 0.6564(3) 0.7103(2) 0.52446(19)
H134 H 0.6963 0.7622 0.5510
C76 C 0.6802(3) 0.6572(2) 0.5534(2)
H135 H 0.7358 0.6730 0.5987
C77 C 0.6230(3) 0.5818(2) 0.5164(3)
H136 H 0.6384 0.5454 0.5363
C78 C 0.5432(3) 0.5595(2) 0.4504(3)
H137 H 0.5033 0.5075 0.4245
C79 C 0.5212(3) 0.6129(2) 0.4217(2)
H138 H 0.4666 0.5963 0.3757
C80 C 0.4367(2) 0.80318(18) 0.45086(17)
C81 C 0.3347(2) 0.75995(19) 0.41705(18)
H139 H 0.3143 0.7115 0.3785
C82 C 0.2630(3) 0.7852(2) 0.4378(2)
H140 H 0.1952 0.7535 0.4149
C83 C 0.2899(3) 0.8566(2) 0.49185(19)
H141 H 0.2407 0.8745 0.5059
C84 C 0.3889(3) 0.9019(2) 0.52542(18)
H142 H 0.4079 0.9514 0.5621
C85 C 0.4609(3) 0.87474(18) 0.50526(17)
H143 H 0.5289 0.9062 0.5295
C86 C 0.8751(3) 0.8863(2) 0.6428(2)
H144 H 0.8671 0.8523 0.6681
H145 H 0.8097 0.8952 0.6212
C87 C 0.9562(3) 0.9613(2) 0.6948(2)
H146 H 0.9606 0.9746 0.7447
H147 H 0.9429 1.0032 0.6796
C88 C 1.0522(3) 0.9459(2) 0.69028(18)
H148 H 1.0957 0.9425 0.7353
H149 H 1.0904 0.9869 0.6824
C89 C 1.0159(3) 0.8697(2) 0.62563(19)
H150 H 1.0493 0.8732 0.5931
H151 H 1.0313 0.8289 0.6422
O6 O 0.9027(6) 0.6721(4) 0.4581(4)
C90 C 0.9630(7) 0.6299(5) 0.4349(5)
H152 H 1.0353 0.6590 0.4630
H153 H 0.9458 0.6170 0.3828
C91 C 0.9395(11) 0.5592(8) 0.4485(8)
H154 H 0.9976 0.5386 0.4574
H155 H 0.8804 0.5194 0.4065
C92 C 0.9174(12) 0.5835(8) 0.5145(8)
H156 H 0.8590 0.5454 0.5092
H157 H 0.9764 0.5924 0.5588
C93 C 0.8949(10) 0.6547(7) 0.5155(7)
H158 H 0.8258 0.6503 0.5125
H159 H 0.9420 0.6970 0.5620
O7 O 0.7365(4) 0.5178(3) 0.6592(3)
C94 C 0.7474(6) 0.4494(5) 0.6174(5)
H160 H 0.7166 0.4413 0.5658
H161 H 0.7094 0.4065 0.6230
C95 C 0.8495(8) 0.4472(7) 0.6357(6)
H162 H 0.8694 0.4445 0.5953
H163 H 0.8594 0.4035 0.6488
C96 C 0.9080(8) 0.5235(6) 0.7011(6)
H164 H 0.9227 0.5170 0.7473
H165 H 0.9718 0.5476 0.7005
C97 C 0.8343(6) 0.5696(5) 0.6898(6)
H166 H 0.8469 0.6101 0.7365
H167 H 0.8417 0.5939 0.6566
O8? O 0.8557(4) 0.6435(3) 0.4440(3)
C98? C 0.9567(9) 0.6682(6) 0.4996(7)
H168? H 0.9627 0.7064 0.5456
H169? H 1.0063 0.6907 0.4844
C99? C 0.9725(6) 0.5933(4) 0.5080(5)
H170? H 0.9961 0.5646 0.4726
H171? H 1.0198 0.6034 0.5577
C100? C 0.8644(7) 0.5526(5) 0.4915(5)
H172? H 0.8525 0.4967 0.4751
H173? H 0.8499 0.5712 0.5348
C101? C 0.8022(5) 0.5718(4) 0.4334(4)
H174? H 0.7895 0.5336 0.3854
H175? H 0.7367 0.5727 0.4358
O9? O 0.9336(9) 0.4723(7) 0.6630(8)
C102? C 0.9186(8) 0.5460(6) 0.6825(7)
H176? H 0.9191 0.5649 0.6446
H177? H 0.9761 0.5815 0.7284
C103? C 0.8211(10) 0.5482(8) 0.6921(9)
H178? H 0.8299 0.5580 0.7425
H179? H 0.7927 0.5861 0.6769
C104? C 0.7602(12) 0.4689(10) 0.6416(13)
H180? H 0.7272 0.4648 0.5913
H181? H 0.7086 0.4488 0.6564
C105? C 0.8403(9) 0.4286(7) 0.6496(8)
H182? H 0.8473 0.4118 0.6898
H183? H 0.8175 0.3823 0.6046
O10? O 0.5667(7) 0.4468(5) 0.0048(5)
C106? C 0.5325(13) 0.4767(10) 0.0568(8)
H184? H 0.5901 0.5140 0.1016
H185? H 0.5028 0.4352 0.0682
C107? C 0.4594(10) 0.5133(8) 0.0343(6)
H186? H 0.4863 0.5692 0.0623
H187? H 0.3980 0.4937 0.0402
C108? C 0.4369(9) 0.4929(7) -0.0464(6)
H188? H 0.3688 0.4566 -0.0784
H189? H 0.4437 0.5389 -0.0574
C109? C 0.5152(12) 0.4576(10) -0.0526(7)
H190? H 0.4836 0.4077 -0.0945
H191? H 0.5624 0.4903 -0.0627
loop_
_geom_bond_atom_site_label_1
_geom_bond_atom_site_label_2
_geom_bond_site_symmetry_1
_geom_bond_site_symmetry_2
K1 O1 1_555 1_555
Si1 H1 1_555 1_555
H2 Si1 1_555 1_555
O1 C24 1_555 1_555
O2 K1 1_555 1_555
N1 K1 1_555 1_555
N2 K1 1_555 1_555
N3 K1 1_555 1_555
N4 K1 1_555 1_555
C1 N1 1_555 1_555
H3 C1 1_555 1_555
H4 C1 1_555 1_555
C2 N2 1_555 1_555
H5 C2 1_555 1_555
H6 C2 1_555 1_555
C3 N2 1_555 1_555
H7 C3 1_555 1_555
H8 C3 1_555 1_555
C4 N3 1_555 1_555
H9 C4 1_555 1_555
H10 C4 1_555 1_555
C5 N3 1_555 1_555
H11 C5 1_555 1_555
H12 C5 1_555 1_555
C6 N4 1_555 1_555
H13 C6 1_555 1_555
H14 C6 1_555 1_555
C7 N4 1_555 1_555
H15 C7 1_555 1_555
H16 C7 1_555 1_555
C8 N1 1_555 1_555
H17 C8 1_555 1_555
H18 C8 1_555 1_555
C9 N2 1_555 1_555
H19 C9 1_555 1_555
H20 C9 1_555 1_555
H21 C9 1_555 1_555
C10 N3 1_555 1_555
H22 C10 1_555 1_555
H23 C10 1_555 1_555
H24 C10 1_555 1_555
C11 N4 1_555 1_555
H25 C11 1_555 1_555
H26 C11 1_555 1_555
H27 C11 1_555 1_555
C12 K1 1_555 1_555
C13 K1 1_555 1_555
H28 C13 1_555 1_555
C14 C13 1_555 1_555
H29 C14 1_555 1_555
C15 C14 1_555 1_555
H30 C15 1_555 1_555
C16 C15 1_555 1_555
H31 C16 1_555 1_555
C17 C12 1_555 1_555
H32 C17 1_555 1_555
C18 Si1 1_555 1_555
C19 C18 1_555 1_555
H33 C19 1_555 1_555
C20 C19 1_555 1_555
H34 C20 1_555 1_555
C21 C20 1_555 1_555
H35 C21 1_555 1_555
C22 C21 1_555 1_555
H36 C22 1_555 1_555
C23 C18 1_555 1_555
H37 C23 1_555 1_555
C24 H38 1_555 1_555
H39 C24 1_555 1_555
C25 C24 1_555 1_555
H40 C25 1_555 1_555
H41 C25 1_555 1_555
C26 C25 1_555 1_555
H42 C26 1_555 1_555
H43 C26 1_555 1_555
C27 O1 1_555 1_555
H44 C27 1_555 1_555
H45 C27 1_555 1_555
C28 O2 1_555 1_555
H46 C28 1_555 1_555
H47 C28 1_555 1_555
C29 C28 1_555 1_555
H48 C29 1_555 1_555
H49 C29 1_555 1_555
C30 C29 1_555 1_555
H50 C30 1_555 1_555
H51 C30 1_555 1_555
C31 O2 1_555 1_555
H52 C31 1_555 1_555
H53 C31 1_555 1_555
K2 O3 1_555 1_555
Si2 H54 1_555 1_555
H55 Si2 1_555 1_555
O3 C55 1_555 1_555
O4 K2 1_555 1_555
N5 K2 1_555 1_555
N6 K2 1_555 1_555
N7 K2 1_555 1_555
N8 K2 1_555 1_555
C32 N5 1_555 1_555
H56 C32 1_555 1_555
H57 C32 1_555 1_555
C33 N6 1_555 1_555
H58 C33 1_555 1_555
H59 C33 1_555 1_555
C34 N6 1_555 1_555
H60 C34 1_555 1_555
H61 C34 1_555 1_555
C35 N7 1_555 1_555
H62 C35 1_555 1_555
H63 C35 1_555 1_555
C36 N7 1_555 1_555
H64 C36 1_555 1_555
H65 C36 1_555 1_555
C37 N8 1_555 1_555
H66 C37 1_555 1_555
H67 C37 1_555 1_555
C38 N8 1_555 1_555
H68 C38 1_555 1_555
H69 C38 1_555 1_555
C39 N5 1_555 1_555
H70 C39 1_555 1_555
H71 C39 1_555 1_555
C40 N6 1_555 1_555
H72 C40 1_555 1_555
H73 C40 1_555 1_555
H74 C40 1_555 1_555
C41 N7 1_555 1_555
H75 C41 1_555 1_555
H76 C41 1_555 1_555
H77 C41 1_555 1_555
C42 N8 1_555 1_555
H78 C42 1_555 1_555
H79 C42 1_555 1_555
H80 C42 1_555 1_555
C43 K2 1_555 1_555
C44 K2 1_555 1_555
H81 C44 1_555 1_555
C45 C44 1_555 1_555
H82 C45 1_555 1_555
C46 C45 1_555 1_555
H83 C46 1_555 1_555
C47 C46 1_555 1_555
H84 C47 1_555 1_555
C48 C43 1_555 1_555
H85 C48 1_555 1_555
C49 Si2 1_555 1_555
C50 C49 1_555 1_555
H86 C50 1_555 1_555
C51 C50 1_555 1_555
H87 C51 1_555 1_555
C52 C51 1_555 1_555
H88 C52 1_555 1_555
C53 C52 1_555 1_555
H89 C53 1_555 1_555
C54 C49 1_555 1_555
H90 C54 1_555 1_555
C55 H91 1_555 1_555
H92 C55 1_555 1_555
C56 C55 1_555 1_555
H93 C56 1_555 1_555
H94 C56 1_555 1_555
C57 C56 1_555 1_555
H95 C57 1_555 1_555
H96 C57 1_555 1_555
C58 O3 1_555 1_555
H97 C58 1_555 1_555
H98 C58 1_555 1_555
C59 O4 1_555 1_555
H99 C59 1_555 1_555
H100 C59 1_555 1_555
C60 C59 1_555 1_555
H101 C60 1_555 1_555
H102 C60 1_555 1_555
C61 C60 1_555 1_555
H103 C61 1_555 1_555
H104 C61 1_555 1_555
C62 O4 1_555 1_555
H105 C62 1_555 1_555
H106 C62 1_555 1_555
K3 O5 1_555 1_555
Si3 H107 1_555 1_555
H108 Si3 1_555 1_555
O5 C86 1_555 1_555
N9 K3 1_555 1_555
N10 K3 1_555 1_555
N11 K3 1_555 1_555
N12 K3 1_555 1_555
C63 N9 1_555 1_555
H109 C63 1_555 1_555
H110 C63 1_555 1_555
C64 N10 1_555 1_555
H111 C64 1_555 1_555
H112 C64 1_555 1_555
C65 N10 1_555 1_555
H113 C65 1_555 1_555
H114 C65 1_555 1_555
C66 N11 1_555 1_555
H115 C66 1_555 1_555
H116 C66 1_555 1_555
C67 N11 1_555 1_555
H117 C67 1_555 1_555
H118 C67 1_555 1_555
C68 N12 1_555 1_555
H119 C68 1_555 1_555
H120 C68 1_555 1_555
C69 N12 1_555 1_555
H121 C69 1_555 1_555
H122 C69 1_555 1_555
C70 N9 1_555 1_555
H123 C70 1_555 1_555
H124 C70 1_555 1_555
C71 N10 1_555 1_555
H125 C71 1_555 1_555
H126 C71 1_555 1_555
H127 C71 1_555 1_555
C72 N11 1_555 1_555
H128 C72 1_555 1_555
H129 C72 1_555 1_555
H130 C72 1_555 1_555
C73 N12 1_555 1_555
H131 C73 1_555 1_555
H132 C73 1_555 1_555
H133 C73 1_555 1_555
C74 K3 1_555 1_555
C75 K3 1_555 1_555
H134 C75 1_555 1_555
C76 C75 1_555 1_555
H135 C76 1_555 1_555
C77 C76 1_555 1_555
H136 C77 1_555 1_555
C78 C77 1_555 1_555
H137 C78 1_555 1_555
C79 C74 1_555 1_555
H138 C79 1_555 1_555
C80 Si3 1_555 1_555
C81 C80 1_555 1_555
H139 C81 1_555 1_555
C82 C81 1_555 1_555
H140 C82 1_555 1_555
C83 C82 1_555 1_555
H141 C83 1_555 1_555
C84 C83 1_555 1_555
H142 C84 1_555 1_555
C85 C80 1_555 1_555
H143 C85 1_555 1_555
C86 H144 1_555 1_555
H145 C86 1_555 1_555
C87 C86 1_555 1_555
H146 C87 1_555 1_555
H147 C87 1_555 1_555
C88 C87 1_555 1_555
H148 C88 1_555 1_555
H149 C88 1_555 1_555
C89 O5 1_555 1_555
H150 C89 1_555 1_555
H151 C89 1_555 1_555
O6 K3 1_555 1_555
C90 O6 1_555 1_555
H152 C90 1_555 1_555
H153 C90 1_555 1_555
C91 C90 1_555 1_555
H154 C91 1_555 1_555
H155 C91 1_555 1_555
C92 C91 1_555 1_555
H156 C92 1_555 1_555
H157 C92 1_555 1_555
C93 O6 1_555 1_555
H158 C93 1_555 1_555
H159 C93 1_555 1_555
O7 C94 1_555 1_555
C94 H160 1_555 1_555
H161 C94 1_555 1_555
C95 C94 1_555 1_555
H162 C95 1_555 1_555
H163 C95 1_555 1_555
C96 C95 1_555 1_555
H164 C96 1_555 1_555
H165 C96 1_555 1_555
C97 O7 1_555 1_555
H166 C97 1_555 1_555
H167 C97 1_555 1_555
Si1 N1 1_555 1_555
Si1 C12 1_555 1_555
C1 C2 1_555 1_555
C3 C4 1_555 1_555
C5 C6 1_555 1_555
C7 C8 1_555 1_555
C12 C13 1_555 1_555
C16 C17 1_555 1_555
C22 C23 1_555 1_555
C26 C27 1_555 1_555
C30 C31 1_555 1_555
Si2 N5 1_555 1_555
Si2 C43 1_555 1_555
C32 C33 1_555 1_555
C34 C35 1_555 1_555
C36 C37 1_555 1_555
C38 C39 1_555 1_555
C43 C44 1_555 1_555
C47 C48 1_555 1_555
C53 C54 1_555 1_555
C57 C58 1_555 1_555
C61 C62 1_555 1_555
Si3 N9 1_555 1_555
Si3 C74 1_555 1_555
C63 C64 1_555 1_555
C65 C66 1_555 1_555
C67 C68 1_555 1_555
C69 C70 1_555 1_555
C74 C75 1_555 1_555
C78 C79 1_555 1_555
C84 C85 1_555 1_555
C88 C89 1_555 1_555
C92 C93 1_555 1_555
C96 C97 1_555 1_555

#END
