
#######################################################################
#
#                 Cambridge Crystallographic Data Centre
#                                CCDC 
#
#######################################################################
#
# If this CIF has been generated from an entry in the Cambridge 
# Structural Database, then it will include bibliographic, chemical, 
# crystal, experimental, refinement or atomic coordinate data resulting 
# from the CCDC's data processing and validation procedures.
#
#######################################################################

data_GIHLIV
_chemical_formula_moiety         'C27 H45 N4 Na1 O1 Si1'
_chemical_name_systematic        
(1-diphenyl(dihydrido)silyl-4,7,10-trimethyl-1,4,7,10-tetraazacyclododecane)-tetrahydrofuran-sodium
_symmetry_cell_setting           orthorhombic
_symmetry_space_group_name_H-M   'P n a 21'
_symmetry_Int_Tables_number      33
_space_group_name_Hall           'P 2c -2n'
loop_
_symmetry_equiv_pos_site_id
_symmetry_equiv_pos_as_xyz
1 x,y,z
2 -x,-y,1/2+z
3 1/2-x,1/2+y,1/2+z
4 1/2+x,1/2-y,z
_cell_length_a                   18.400(2)
_cell_length_b                   16.5087(19)
_cell_length_c                   9.2616(11)
_cell_angle_alpha                90
_cell_angle_beta                 90
_cell_angle_gamma                90
_cell_volume                     2813.3
_exptl_crystal_colour            colorless
_exptl_crystal_description       block
_cell_formula_units_Z            4
_chemical_properties_physical    'air- and moisture-sensitive'
_exptl_crystal_recrystallization_method tetrahydrofuran
loop_
_atom_site_label
_atom_site_type_symbol
_atom_site_fract_x
_atom_site_fract_y
_atom_site_fract_z
Na1 Na 0.16160(7) 0.80035(8) 0.26142(15)
Si1 Si 0.29717(5) 0.90554(5) 0.14781(11)
H1 H 0.257(2) 0.851(2) 0.046(4)
H2 H 0.3376(19) 0.959(2) 0.249(4)
O1 O 0.05609(13) 0.82438(15) 0.1357(3)
N1 N 0.29217(15) 0.82311(17) 0.2785(3)
N2 N 0.18308(16) 0.86217(17) 0.5049(3)
N3 N 0.10289(15) 0.70695(18) 0.4430(3)
N4 N 0.21035(17) 0.66359(17) 0.2119(3)
C1 C 0.31243(19) 0.8385(2) 0.4281(4)
H3 H 0.3611 0.8640 0.4306
H4 H 0.3155 0.7863 0.4804
C2 C 0.25798(19) 0.8936(2) 0.5045(4)
H5 H 0.2740 0.9015 0.6056
H6 H 0.2583 0.9473 0.4568
C3 C 0.1747(2) 0.7953(2) 0.6083(4)
H7 H 0.1747 0.8176 0.7076
H8 H 0.2169 0.7584 0.5994
C4 C 0.1046(2) 0.7470(2) 0.5847(4)
H9 H 0.1002 0.7055 0.6614
H10 H 0.0625 0.7839 0.5928
C5 C 0.1468(2) 0.6323(2) 0.4433(4)
H11 H 0.1190 0.5891 0.4926
H12 H 0.1916 0.6421 0.4998
C6 C 0.1677(2) 0.6030(2) 0.2942(4)
H13 H 0.1967 0.5527 0.3036
H14 H 0.1231 0.5897 0.2395
C7 C 0.28459(18) 0.6708(2) 0.2705(4)
H15 H 0.3134 0.6233 0.2389
H16 H 0.2821 0.6696 0.3773
C8 C 0.32361(19) 0.7475(2) 0.2239(4)
H17 H 0.3748 0.7442 0.2566
H18 H 0.3240 0.7497 0.1171
C9 C 0.1335(2) 0.9290(3) 0.5392(5)
H19 H 0.1437 0.9490 0.6367
H20 H 0.0832 0.9097 0.5342
H21 H 0.1405 0.9730 0.4695
C10 C 0.0275(2) 0.6881(2) 0.4021(5)
H22 H -0.0013 0.7380 0.4017
H23 H 0.0068 0.6499 0.4717
H24 H 0.0268 0.6639 0.3055
C11 C 0.2143(2) 0.6394(2) 0.0602(4)
H25 H 0.2418 0.5888 0.0520
H26 H 0.2387 0.6820 0.0045
H27 H 0.1650 0.6314 0.0226
C12 C 0.22269(18) 0.9882(2) 0.1264(4)
C13 C 0.1661(2) 0.9803(2) 0.0261(4)
H28 H 0.1633 0.9329 -0.0318
C14 C 0.1138(2) 1.0406(3) 0.0097(5)
H29 H 0.0763 1.0343 -0.0600
C15 C 0.1161(2) 1.1092(3) 0.0937(5)
H30 H 0.0800 1.1499 0.0828
C16 C 0.1708(2) 1.1189(3) 0.1937(5)
H31 H 0.1725 1.1662 0.2520
C17 C 0.2236(2) 1.0592(2) 0.2092(4)
H32 H 0.2614 1.0668 0.2779
C18 C 0.37793(19) 0.9065(2) 0.0169(4)
C19 C 0.44495(19) 0.9381(2) 0.0569(5)
H33 H 0.4511 0.9583 0.1522
C20 C 0.5034(2) 0.9410(2) -0.0386(6)
H34 H 0.5485 0.9633 -0.0084
C21 C 0.4958(3) 0.9114(3) -0.1772(6)
H35 H 0.5353 0.9140 -0.2431
C22 C 0.4309(3) 0.8784(3) -0.2190(5)
H36 H 0.4257 0.8570 -0.3137
C23 C 0.3728(2) 0.8760(3) -0.1242(4)
H37 H 0.3281 0.8530 -0.1555
C24 C 0.0444(3) 0.7773(3) 0.0079(5)
H38 H 0.0167 0.7276 0.0314
H39 H 0.0915 0.7613 -0.0350
C25 C 0.0039(3) 0.8270(4) -0.0922(6)
H40 H -0.0277 0.7932 -0.1541
H41 H 0.0372 0.8587 -0.1544
C26 C -0.0405(2) 0.8817(3) 0.0021(5)
H42 H -0.0905 0.8606 0.0132
H43 H -0.0430 0.9370 -0.0394
C27 C -0.00150(19) 0.8825(2) 0.1449(5)
H44 H 0.0184 0.9371 0.1646
H45 H -0.0354 0.8680 0.2238
loop_
_geom_bond_atom_site_label_1
_geom_bond_atom_site_label_2
_geom_bond_site_symmetry_1
_geom_bond_site_symmetry_2
Na1 O1 1_555 1_555
Si1 H1 1_555 1_555
H2 Si1 1_555 1_555
O1 C24 1_555 1_555
N1 Na1 1_555 1_555
N2 Na1 1_555 1_555
N3 Na1 1_555 1_555
N4 Na1 1_555 1_555
C1 N1 1_555 1_555
H3 C1 1_555 1_555
H4 C1 1_555 1_555
C2 N2 1_555 1_555
H5 C2 1_555 1_555
H6 C2 1_555 1_555
C3 N2 1_555 1_555
H7 C3 1_555 1_555
H8 C3 1_555 1_555
C4 N3 1_555 1_555
H9 C4 1_555 1_555
H10 C4 1_555 1_555
C5 N3 1_555 1_555
H11 C5 1_555 1_555
H12 C5 1_555 1_555
C6 N4 1_555 1_555
H13 C6 1_555 1_555
H14 C6 1_555 1_555
C7 N4 1_555 1_555
H15 C7 1_555 1_555
H16 C7 1_555 1_555
C8 N1 1_555 1_555
H17 C8 1_555 1_555
H18 C8 1_555 1_555
C9 N2 1_555 1_555
H19 C9 1_555 1_555
H20 C9 1_555 1_555
H21 C9 1_555 1_555
C10 N3 1_555 1_555
H22 C10 1_555 1_555
H23 C10 1_555 1_555
H24 C10 1_555 1_555
C11 N4 1_555 1_555
H25 C11 1_555 1_555
H26 C11 1_555 1_555
H27 C11 1_555 1_555
C12 Si1 1_555 1_555
C13 C12 1_555 1_555
H28 C13 1_555 1_555
C14 C13 1_555 1_555
H29 C14 1_555 1_555
C15 C14 1_555 1_555
H30 C15 1_555 1_555
C16 C15 1_555 1_555
H31 C16 1_555 1_555
C17 C12 1_555 1_555
H32 C17 1_555 1_555
C18 Si1 1_555 1_555
C19 C18 1_555 1_555
H33 C19 1_555 1_555
C20 C19 1_555 1_555
H34 C20 1_555 1_555
C21 C20 1_555 1_555
H35 C21 1_555 1_555
C22 C21 1_555 1_555
H36 C22 1_555 1_555
C23 C18 1_555 1_555
H37 C23 1_555 1_555
C24 H38 1_555 1_555
H39 C24 1_555 1_555
C25 C24 1_555 1_555
H40 C25 1_555 1_555
H41 C25 1_555 1_555
C26 C25 1_555 1_555
H42 C26 1_555 1_555
H43 C26 1_555 1_555
C27 O1 1_555 1_555
H44 C27 1_555 1_555
H45 C27 1_555 1_555
Si1 N1 1_555 1_555
C1 C2 1_555 1_555
C3 C4 1_555 1_555
C5 C6 1_555 1_555
C7 C8 1_555 1_555
C16 C17 1_555 1_555
C22 C23 1_555 1_555
C26 C27 1_555 1_555

#END
