
#######################################################################
#
#                 Cambridge Crystallographic Data Centre
#                                CCDC 
#
#######################################################################
#
# If this CIF has been generated from an entry in the Cambridge 
# Structural Database, then it will include bibliographic, chemical, 
# crystal, experimental, refinement or atomic coordinate data resulting 
# from the CCDC's data processing and validation procedures.
#
#######################################################################

data_GIHPEV
_chemical_formula_moiety         'C19 H12 N2 O3 S1'
_chemical_name_systematic        
3-(1,3-benzothiazol-2-yl)-4'-nitrobiphenyl-4-ol
_symmetry_cell_setting           monoclinic
_symmetry_space_group_name_H-M   'P 21/c'
_symmetry_Int_Tables_number      14
_space_group_name_Hall           '-P 2ybc'
loop_
_symmetry_equiv_pos_site_id
_symmetry_equiv_pos_as_xyz
1 x,y,z
2 -x,1/2+y,1/2-z
3 -x,-y,-z
4 x,1/2-y,1/2+z
_cell_length_a                   17.8030(15)
_cell_length_b                   3.9679(3)
_cell_length_c                   22.4736(19)
_cell_angle_alpha                90
_cell_angle_beta                 101.741(2)
_cell_angle_gamma                90
_cell_volume                     1554.33
_cell_formula_units_Z            4
loop_
_atom_site_label
_atom_site_type_symbol
_atom_site_fract_x
_atom_site_fract_y
_atom_site_fract_z
N1 N 0.11592(12) 0.5466(6) 0.08221(10)
N2 N 0.54224(15) -0.3715(8) 0.40961(15)
O1 O 0.04186(10) 0.3494(6) 0.16815(8)
H1 H 0.0473 0.4363 0.1362
O2 O 0.58532(14) -0.5155(8) 0.38305(12)
O3 O 0.55844(14) -0.3090(9) 0.46354(13)
S1 S 0.26358(4) 0.5962(2) 0.10126(3)
C1 C 0.17834(14) 0.4757(7) 0.12202(12)
C2 C 0.13353(15) 0.6997(7) 0.03091(12)
C3 C 0.21151(15) 0.7515(7) 0.03377(12)
C4 C 0.23796(17) 0.9033(8) -0.01373(13)
H2 H 0.2901 0.9380 -0.0116
C5 C 0.18464(18) 1.0007(8) -0.06405(13)
H3 H 0.2010 1.1065 -0.0961
C6 C 0.10724(18) 0.9441(8) -0.06784(13)
H4 H 0.0725 1.0067 -0.1028
C7 C 0.08075(16) 0.7972(8) -0.02081(13)
H5 H 0.0285 0.7633 -0.0234
C8 C 0.11077(14) 0.2575(8) 0.20075(12)
C9 C 0.17905(14) 0.3119(7) 0.17995(11)
C10 C 0.24769(14) 0.2056(7) 0.21652(12)
H6 H 0.2929 0.2391 0.2026
C11 C 0.25229(14) 0.0536(7) 0.27223(12)
C12 C 0.18320(15) 0.0055(7) 0.29143(12)
H7 H 0.1840 -0.0958 0.3289
C13 C 0.11407(15) 0.1036(8) 0.25658(13)
H8 H 0.0691 0.0665 0.2706
C14 C 0.32675(14) -0.0575(7) 0.30802(12)
C15 C 0.38477(15) -0.1698(8) 0.27963(13)
H9 H 0.3760 -0.1746 0.2374
C16 C 0.45456(16) -0.2735(8) 0.31256(14)
H10 H 0.4922 -0.3526 0.2929
C17 C 0.46795(16) -0.2590(8) 0.37448(14)
C18 C 0.41292(16) -0.1480(8) 0.40459(13)
H11 H 0.4230 -0.1387 0.4468
C19 C 0.34271(15) -0.0506(8) 0.37135(12)
H12 H 0.3050 0.0217 0.3916
loop_
_geom_bond_atom_site_label_1
_geom_bond_atom_site_label_2
_geom_bond_site_symmetry_1
_geom_bond_site_symmetry_2
N1 C1 1_555 1_555
N2 O2 1_555 1_555
O1 H1 1_555 1_555
O3 N2 1_555 1_555
S1 C1 1_555 1_555
C1 C9 1_555 1_555
C2 N1 1_555 1_555
C3 S1 1_555 1_555
C4 C3 1_555 1_555
H2 C4 1_555 1_555
C5 C4 1_555 1_555
H3 C5 1_555 1_555
C6 C5 1_555 1_555
H4 C6 1_555 1_555
C7 C2 1_555 1_555
H5 C7 1_555 1_555
C8 O1 1_555 1_555
C9 C8 1_555 1_555
C10 C9 1_555 1_555
H6 C10 1_555 1_555
C11 C10 1_555 1_555
C12 C11 1_555 1_555
H7 C12 1_555 1_555
C13 C8 1_555 1_555
H8 C13 1_555 1_555
C14 C11 1_555 1_555
C15 C14 1_555 1_555
H9 C15 1_555 1_555
C16 C15 1_555 1_555
H10 C16 1_555 1_555
C17 N2 1_555 1_555
C18 C17 1_555 1_555
H11 C18 1_555 1_555
C19 C14 1_555 1_555
H12 C19 1_555 1_555
C2 C3 1_555 1_555
C6 C7 1_555 1_555
C12 C13 1_555 1_555
C16 C17 1_555 1_555
C18 C19 1_555 1_555

#END
