
#######################################################################
#
#                 Cambridge Crystallographic Data Centre
#                                CCDC 
#
#######################################################################
#
# If this CIF has been generated from an entry in the Cambridge 
# Structural Database, then it will include bibliographic, chemical, 
# crystal, experimental, refinement or atomic coordinate data resulting 
# from the CCDC's data processing and validation procedures.
#
#######################################################################

data_GIHPOF
_chemical_formula_moiety         'C21 H14 N2 O3 S1'
_chemical_name_systematic        
2-(1,3-benzothiazol-2-yl)-4-(2-(4-nitrophenyl)ethenyl)phenol
_symmetry_cell_setting           orthorhombic
_symmetry_space_group_name_H-M   'P n a 21'
_symmetry_Int_Tables_number      33
_space_group_name_Hall           'P 2c -2n'
loop_
_symmetry_equiv_pos_site_id
_symmetry_equiv_pos_as_xyz
1 x,y,z
2 -x,-y,1/2+z
3 1/2+x,1/2-y,z
4 1/2-x,1/2+y,1/2+z
_cell_length_a                   11.9198(11)
_cell_length_b                   36.290(3)
_cell_length_c                   3.8392(5)
_cell_angle_alpha                90
_cell_angle_beta                 90
_cell_angle_gamma                90
_cell_volume                     1660.72
_cell_formula_units_Z            4
loop_
_atom_site_label
_atom_site_type_symbol
_atom_site_fract_x
_atom_site_fract_y
_atom_site_fract_z
N1 N 0.4394(9) 0.6446(3) 0.188(3)
N2 N 0.6964(11) 0.9759(4) -0.171(5)
O1 O 0.2741(6) 0.6815(2) 0.441(4)
H1 H 0.3101 0.6635 0.3767
O2 O 0.6551(8) 1.0050(3) -0.111(5)
O3 O 0.7837(10) 0.9722(3) -0.377(4)
S1 S 0.6166(3) 0.67374(10) -0.0929(17)
C1 C 0.4831(10) 0.6757(4) 0.122(4)
C2 C 0.5054(13) 0.6167(4) 0.091(5)
C3 C 0.6078(11) 0.6268(4) -0.064(6)
C4 C 0.6867(12) 0.6004(4) -0.175(5)
H2 H 0.7549 0.6074 -0.2726
C5 C 0.6584(14) 0.5638(5) -0.132(6)
H3 H 0.7099 0.5457 -0.1944
C6 C 0.5574(15) 0.5534(4) -0.001(5)
H4 H 0.5394 0.5285 0.0071
C7 C 0.4821(13) 0.5783(5) 0.119(5)
H5 H 0.4153 0.5704 0.2190
C8 C 0.4365(11) 0.7115(4) 0.217(5)
C9 C 0.3313(10) 0.7120(4) 0.370(5)
C10 C 0.2840(10) 0.7452(4) 0.450(5)
H6 H 0.2138 0.7458 0.5559
C11 C 0.3389(10) 0.7777(4) 0.376(6)
H7 H 0.3055 0.8000 0.4349
C12 C 0.4417(12) 0.7777(4) 0.218(4)
C13 C 0.4880(11) 0.7452(4) 0.137(5)
H8 H 0.5569 0.7449 0.0240
C14 C 0.4996(12) 0.8111(4) 0.125(5)
H9 H 0.5692 0.8079 0.0200
C15 C 0.4665(12) 0.8464(4) 0.171(4)
H10 H 0.3988 0.8500 0.2862
C16 C 0.5253(12) 0.8791(4) 0.059(4)
C17 C 0.6311(11) 0.8773(4) -0.120(6)
H11 H 0.6605 0.8548 -0.1900
C18 C 0.6862(11) 0.9085(4) -0.184(5)
H12 H 0.7589 0.9075 -0.2711
C19 C 0.6376(10) 0.9414(4) -0.123(6)
C20 C 0.5322(11) 0.9443(4) 0.034(5)
H13 H 0.4998 0.9672 0.0753
C21 C 0.4792(12) 0.9132(4) 0.122(5)
H14 H 0.4093 0.9147 0.2284
loop_
_geom_bond_atom_site_label_1
_geom_bond_atom_site_label_2
_geom_bond_site_symmetry_1
_geom_bond_site_symmetry_2
N1 C1 1_555 1_555
N2 O2 1_555 1_555
O1 H1 1_555 1_555
O3 N2 1_555 1_555
S1 C1 1_555 1_555
C1 C8 1_555 1_555
C2 N1 1_555 1_555
C3 S1 1_555 1_555
C4 C3 1_555 1_555
H2 C4 1_555 1_555
C5 C4 1_555 1_555
H3 C5 1_555 1_555
C6 C5 1_555 1_555
H4 C6 1_555 1_555
C7 C2 1_555 1_555
H5 C7 1_555 1_555
C8 C9 1_555 1_555
C9 O1 1_555 1_555
C10 C9 1_555 1_555
H6 C10 1_555 1_555
C11 C10 1_555 1_555
H7 C11 1_555 1_555
C12 C11 1_555 1_555
C13 C8 1_555 1_555
H8 C13 1_555 1_555
C14 C12 1_555 1_555
H9 C14 1_555 1_555
C15 C14 1_555 1_555
H10 C15 1_555 1_555
C16 C15 1_555 1_555
C17 C16 1_555 1_555
H11 C17 1_555 1_555
C18 C17 1_555 1_555
H12 C18 1_555 1_555
C19 N2 1_555 1_555
C20 C19 1_555 1_555
H13 C20 1_555 1_555
C21 C16 1_555 1_555
H14 C21 1_555 1_555
C2 C3 1_555 1_555
C6 C7 1_555 1_555
C12 C13 1_555 1_555
C18 C19 1_555 1_555
C20 C21 1_555 1_555

#END
