
#######################################################################
#
#                 Cambridge Crystallographic Data Centre
#                                CCDC 
#
#######################################################################
#
# If this CIF has been generated from an entry in the Cambridge 
# Structural Database, then it will include bibliographic, chemical, 
# crystal, experimental, refinement or atomic coordinate data resulting 
# from the CCDC's data processing and validation procedures.
#
#######################################################################

data_GIHPIZ
_chemical_formula_moiety         'C21 H12 N2 O3 S1'
_chemical_name_systematic        
2-(1,3-benzothiazol-2-yl)-4-((4-nitrophenyl)ethynyl)phenol
_symmetry_cell_setting           triclinic
_symmetry_space_group_name_H-M   'P -1'
_symmetry_Int_Tables_number      2
_space_group_name_Hall           '-P 1'
loop_
_symmetry_equiv_pos_site_id
_symmetry_equiv_pos_as_xyz
1 x,y,z
2 -x,-y,-z
_cell_length_a                   7.6668(5)
_cell_length_b                   9.3615(7)
_cell_length_c                   12.9936(11)
_cell_angle_alpha                98.948(2)
_cell_angle_beta                 104.109(3)
_cell_angle_gamma                102.824(3)
_cell_volume                     859.949
_cell_formula_units_Z            2
loop_
_atom_site_label
_atom_site_type_symbol
_atom_site_fract_x
_atom_site_fract_y
_atom_site_fract_z
N1 N 0.0063(2) 0.89293(19) 0.36335(14)
N2 N 0.7768(3) 0.2317(2) 1.00774(18)
O1 O -0.2885(2) 0.7896(2) 0.42429(14)
H1 H -0.2249 0.8344 0.3908
O2 O 0.7239(3) 0.1351(2) 1.05478(16)
O3 O 0.9393(3) 0.2784(3) 1.0092(2)
S1 S 0.32193(7) 0.83165(6) 0.43077(4)
C1 C 0.0943(3) 0.8269(2) 0.43241(16)
C2 C 0.1200(3) 0.9552(2) 0.30438(16)
C3 C 0.3001(3) 0.9349(2) 0.33123(16)
C4 C 0.4321(3) 0.9947(3) 0.28166(18)
H2 H 0.5515 0.9813 0.3003
C5 C 0.3809(4) 1.0741(3) 0.2043(2)
H3 H 0.4676 1.1163 0.1708
C6 C 0.2017(4) 1.0923(3) 0.17518(19)
H4 H 0.1698 1.1444 0.1213
C7 C 0.0702(4) 1.0347(3) 0.22448(18)
H5 H -0.0489 1.0485 0.2050
C8 C 0.0092(3) 0.7494(2) 0.50431(16)
C9 C -0.1819(3) 0.7315(2) 0.49512(17)
C10 C -0.2618(3) 0.6501(3) 0.5611(2)
H6 H -0.3879 0.6372 0.5552
C11 C -0.1585(3) 0.5891(3) 0.6339(2)
H7 H -0.2159 0.5338 0.6760
C12 C 0.0320(3) 0.6077(2) 0.64659(17)
C13 C 0.1125(3) 0.6889(2) 0.58078(16)
H8 H 0.2393 0.7029 0.5883
C14 C 0.1442(3) 0.5425(2) 0.71999(18)
C15 C 0.2467(4) 0.4870(2) 0.77594(18)
C16 C 0.3787(3) 0.4216(2) 0.83536(16)
C17 C 0.3238(3) 0.3072(3) 0.88777(18)
H9 H 0.1990 0.2734 0.8853
C18 C 0.4532(3) 0.2443(3) 0.94287(18)
H10 H 0.4165 0.1675 0.9771
C19 C 0.6384(3) 0.2964(2) 0.94672(18)
C20 C 0.6966(4) 0.4082(3) 0.8961(2)
H11 H 0.8217 0.4413 0.8989
C21 C 0.5659(4) 0.4704(3) 0.8411(2)
H12 H 0.6041 0.5470 0.8070
loop_
_geom_bond_atom_site_label_1
_geom_bond_atom_site_label_2
_geom_bond_site_symmetry_1
_geom_bond_site_symmetry_2
N1 C1 1_555 1_555
N2 O2 1_555 1_555
O1 H1 1_555 1_555
O3 N2 1_555 1_555
S1 C1 1_555 1_555
C1 C8 1_555 1_555
C2 N1 1_555 1_555
C3 S1 1_555 1_555
C4 C3 1_555 1_555
H2 C4 1_555 1_555
C5 C4 1_555 1_555
H3 C5 1_555 1_555
C6 C5 1_555 1_555
H4 C6 1_555 1_555
C7 C2 1_555 1_555
H5 C7 1_555 1_555
C8 C9 1_555 1_555
C9 O1 1_555 1_555
C10 C9 1_555 1_555
H6 C10 1_555 1_555
C11 C10 1_555 1_555
H7 C11 1_555 1_555
C12 C11 1_555 1_555
C13 C8 1_555 1_555
H8 C13 1_555 1_555
C14 C12 1_555 1_555
C15 C14 1_555 1_555
C16 C15 1_555 1_555
C17 C16 1_555 1_555
H9 C17 1_555 1_555
C18 C17 1_555 1_555
H10 C18 1_555 1_555
C19 N2 1_555 1_555
C20 C19 1_555 1_555
H11 C20 1_555 1_555
C21 C16 1_555 1_555
H12 C21 1_555 1_555
C2 C3 1_555 1_555
C6 C7 1_555 1_555
C12 C13 1_555 1_555
C18 C19 1_555 1_555
C20 C21 1_555 1_555

#END
