
#######################################################################
#
#                 Cambridge Crystallographic Data Centre
#                                CCDC 
#
#######################################################################
#
# If this CIF has been generated from an entry in the Cambridge 
# Structural Database, then it will include bibliographic, chemical, 
# crystal, experimental, refinement or atomic coordinate data resulting 
# from the CCDC's data processing and validation procedures.
#
#######################################################################

data_GIHWOM
_chemical_formula_moiety         'C30 H24 N4 O2 S1'
_chemical_name_systematic        
"ethyl 6'-cyano-7'-phenyl-1',6',7',7a'-tetrahydro-3'H-spiro[indeno[1,2-b]quinoxaline-11,5'-pyrrolo[1,2-c][1,3]thiazole]-6'-carboxylate"
_symmetry_cell_setting           monoclinic
_symmetry_space_group_name_H-M   'C 2/c'
_symmetry_Int_Tables_number      15
_space_group_name_Hall           '-C 2yn'
loop_
_symmetry_equiv_pos_site_id
_symmetry_equiv_pos_as_xyz
1 x,y,z
2 -x,y,1/2-z
3 1/2+x,1/2+y,z
4 1/2-x,1/2+y,1/2-z
5 -x,-y,-z
6 x,-y,1/2+z
7 1/2-x,1/2-y,-z
8 1/2+x,1/2-y,1/2+z
_cell_length_a                   18.6131(13)
_cell_length_b                   18.2243(13)
_cell_length_c                   15.8867(11)
_cell_angle_alpha                90
_cell_angle_beta                 110.7570(10)
_cell_angle_gamma                90
_cell_volume                     5039.15
_exptl_crystal_colour            colorless
_exptl_crystal_description       needle
_cell_formula_units_Z            8
loop_
_atom_site_label
_atom_site_type_symbol
_atom_site_fract_x
_atom_site_fract_y
_atom_site_fract_z
S1 S 0.30934(4) 0.17536(4) 0.57840(5)
O1 O 0.45967(11) 0.30451(11) 0.37194(12)
O2 O 0.57726(10) 0.25504(11) 0.43424(11)
N1 N 0.61674(11) 0.13563(12) 0.64087(13)
N2 N 0.61166(12) 0.04137(12) 0.49401(14)
N3 N 0.45872(10) 0.18686(11) 0.61438(12)
N4 N 0.63289(13) 0.31402(15) 0.64698(17)
C1 C 0.48811(12) 0.18165(13) 0.54051(14)
C2 C 0.43822(13) 0.14707(13) 0.44885(14)
C3 C 0.48151(13) 0.09497(14) 0.42181(15)
C4 C 0.55572(13) 0.08615(13) 0.49236(15)
C5 C 0.56009(12) 0.13355(13) 0.56520(15)
C6 C 0.67664(13) 0.08905(14) 0.64557(16)
C7 C 0.67404(13) 0.04323(14) 0.57230(17)
C8 C 0.73716(15) -0.00236(16) 0.5810(2)
H1 H 0.736470 -0.032498 0.533507
C9 C 0.79906(15) -0.00253(19) 0.6585(2)
H2 H 0.840694 -0.032686 0.663610
C10 C 0.80104(15) 0.0418(2) 0.7304(2)
H3 H 0.843691 0.040567 0.783354
C11 C 0.74084(14) 0.08723(18) 0.72407(18)
H4 H 0.742915 0.116967 0.772452
C12 C 0.36429(14) 0.16269(15) 0.39147(16)
H5 H 0.334415 0.196494 0.408266
C13 C 0.33503(15) 0.12760(16) 0.30874(17)
H6 H 0.285422 0.138216 0.270113
C14 C 0.37851(17) 0.07725(18) 0.28311(18)
H7 H 0.358092 0.054641 0.227159
C15 C 0.45188(16) 0.05996(16) 0.33932(16)
H8 H 0.480913 0.025485 0.322203
C16 C 0.43303(13) 0.26156(14) 0.62393(15)
H9 H 0.469645 0.283697 0.678522
C17 C 0.35336(15) 0.25831(17) 0.63304(19)
H10 H 0.322730 0.300548 0.604378
H11 H 0.358505 0.257668 0.695971
C18 C 0.40462(15) 0.13219(16) 0.62071(19)
H12 H 0.417100 0.116742 0.682696
H13 H 0.405837 0.089559 0.584682
C19 C 0.50524(12) 0.26528(13) 0.52728(14)
C20 C 0.50988(14) 0.27817(13) 0.43387(16)
C21 C 0.59318(19) 0.2614(2) 0.3500(2)
H14 H 0.569101 0.221297 0.309738
H15 H 0.572803 0.307257 0.319989
C22 C 0.57810(14) 0.29091(15) 0.59573(16)
C23 C 0.43634(13) 0.30320(13) 0.54228(15)
H16 H 0.390463 0.288851 0.491480
C24 C 0.43508(13) 0.38595(14) 0.54682(17)
C25 C 0.48189(15) 0.42620(17) 0.6192(2)
H17 H 0.517107 0.402287 0.668255
C26 C 0.47659(19) 0.5021(2) 0.6190(3)
H18 H 0.508978 0.529091 0.667254
C27 C 0.4239(2) 0.5372(2) 0.5480(3)
H19 H 0.420269 0.588046 0.548416
C28 C 0.3769(2) 0.49888(17) 0.4773(3)
H20 H 0.340960 0.523328 0.429366
C29 C 0.38218(16) 0.42342(15) 0.4762(2)
H21 H 0.349685 0.397341 0.427102
C30 C 0.6754(2) 0.2591(3) 0.3728(3)
H22 H 0.698959 0.296744 0.415987
H23 H 0.687503 0.266864 0.319552
H24 H 0.694450 0.211981 0.398039
loop_
_geom_bond_atom_site_label_1
_geom_bond_atom_site_label_2
_geom_bond_site_symmetry_1
_geom_bond_site_symmetry_2
S1 C17 1_555 1_555
O1 C20 1_555 1_555
O2 C20 1_555 1_555
N1 C5 1_555 1_555
N2 C4 1_555 1_555
N3 C1 1_555 1_555
N4 C22 1_555 1_555
C1 C2 1_555 1_555
C2 C3 1_555 1_555
C3 C4 1_555 1_555
C4 C5 1_555 1_555
C5 C1 1_555 1_555
C6 N1 1_555 1_555
C7 N2 1_555 1_555
C8 C7 1_555 1_555
H1 C8 1_555 1_555
C9 C8 1_555 1_555
H2 C9 1_555 1_555
C10 C9 1_555 1_555
H3 C10 1_555 1_555
C11 C6 1_555 1_555
H4 C11 1_555 1_555
C12 C2 1_555 1_555
H5 C12 1_555 1_555
C13 C12 1_555 1_555
H6 C13 1_555 1_555
C14 C13 1_555 1_555
H7 C14 1_555 1_555
C15 C3 1_555 1_555
H8 C15 1_555 1_555
C16 N3 1_555 1_555
H9 C16 1_555 1_555
C17 C16 1_555 1_555
H10 C17 1_555 1_555
H11 C17 1_555 1_555
C18 S1 1_555 1_555
H12 C18 1_555 1_555
H13 C18 1_555 1_555
C19 C1 1_555 1_555
C20 C19 1_555 1_555
C21 O2 1_555 1_555
H14 C21 1_555 1_555
H15 C21 1_555 1_555
C22 C19 1_555 1_555
C23 C16 1_555 1_555
H16 C23 1_555 1_555
C24 C23 1_555 1_555
C25 C24 1_555 1_555
H17 C25 1_555 1_555
C26 C25 1_555 1_555
H18 C26 1_555 1_555
C27 C26 1_555 1_555
H19 C27 1_555 1_555
C28 C27 1_555 1_555
H20 C28 1_555 1_555
C29 C24 1_555 1_555
H21 C29 1_555 1_555
C30 C21 1_555 1_555
H22 C30 1_555 1_555
H23 C30 1_555 1_555
H24 C30 1_555 1_555
N3 C18 1_555 1_555
C6 C7 1_555 1_555
C10 C11 1_555 1_555
C14 C15 1_555 1_555
C19 C23 1_555 1_555
C28 C29 1_555 1_555

#END
