
#######################################################################
#
#                 Cambridge Crystallographic Data Centre
#                                CCDC 
#
#######################################################################
#
# If this CIF has been generated from an entry in the Cambridge 
# Structural Database, then it will include bibliographic, chemical, 
# crystal, experimental, refinement or atomic coordinate data resulting 
# from the CCDC's data processing and validation procedures.
#
#######################################################################

data_GIHXUS
_chemical_formula_moiety         'C15 H13 Cl1 N2 O6 S1'
_chemical_name_systematic        
'Methyl 5-(3-chlorophenyl)-4-((2-oxo-1,3-oxazolidin-3-yl)carbonyl)-2-thioxo-1,3-oxazolidine-5-carboxylate'
_symmetry_cell_setting           monoclinic
_symmetry_space_group_name_H-M   'P 21'
_symmetry_Int_Tables_number      4
_space_group_name_Hall           'P 2yb'
loop_
_symmetry_equiv_pos_site_id
_symmetry_equiv_pos_as_xyz
1 x,y,z
2 -x,1/2+y,-z
_cell_length_a                   9.5525(9)
_cell_length_b                   8.4264(5)
_cell_length_c                   11.4487(11)
_cell_angle_alpha                90
_cell_angle_beta                 111.438(11)
_cell_angle_gamma                90
_cell_volume                     857.784
_exptl_crystal_colour            colorless
_exptl_crystal_description       block
_cell_formula_units_Z            2
loop_
_atom_site_label
_atom_site_type_symbol
_atom_site_fract_x
_atom_site_fract_y
_atom_site_fract_z
Cl1 Cl 1.30913(16) 1.10227(19) 0.68886(15)
S1 S 0.53602(12) 0.48951(15) 0.65276(13)
O1 O 1.4178(3) 0.6816(4) 1.0069(4)
O2 O 1.2073(3) 0.8065(4) 0.9883(3)
O3 O 1.0205(3) 0.3793(3) 0.8197(3)
O4 O 0.7636(3) 0.6646(3) 0.6560(3)
O5 O 0.8697(4) 0.9580(4) 0.8782(3)
O6 O 0.7489(3) 0.9760(4) 0.6730(3)
N1 N 0.7964(4) 0.5607(4) 0.8403(3)
H1 H 0.7740 0.5151 0.8983
N2 N 1.2058(3) 0.5559(4) 0.9064(3)
C1 C 1.2685(5) 0.6923(5) 0.9675(4)
C2 C 1.3202(5) 0.4424(6) 0.9068(5)
H2 H 1.3083 0.4109 0.8222
H3 H 1.3178 0.3486 0.9552
C3 C 1.4624(6) 0.5354(7) 0.9680(7)
H4 H 1.5309 0.4782 1.0397
H5 H 1.5121 0.5545 0.9090
C4 C 1.0554(4) 0.5112(5) 0.8598(4)
C5 C 0.9403(4) 0.6348(5) 0.8614(4)
H6 H 0.9752 0.6959 0.9396
C6 C 0.8923(4) 0.7456(5) 0.7445(4)
C7 C 0.7008(5) 0.5708(5) 0.7193(4)
C8 C 1.0079(4) 0.7721(5) 0.6838(3)
C9 C 1.0943(5) 0.9096(5) 0.7088(4)
H7 H 1.0779 0.9883 0.7593
C10 C 1.2043(5) 0.9292(6) 0.6587(4)
C11 C 1.2307(6) 0.8152(7) 0.5843(5)
H8 H 1.3052 0.8293 0.5510
C12 C 1.1459(6) 0.6807(6) 0.5598(5)
H9 H 1.1639 0.6023 0.5099
C13 C 1.0332(6) 0.6582(6) 0.6077(4)
H10 H 0.9751 0.5664 0.5885
C14 C 0.8351(5) 0.9055(5) 0.7751(4)
C15 C 0.6910(5) 1.1312(5) 0.6880(4)
H11 H 0.6176 1.1649 0.6094
H12 H 0.7722 1.2063 0.7148
H13 H 0.6451 1.1250 0.7498
loop_
_geom_bond_atom_site_label_1
_geom_bond_atom_site_label_2
_geom_bond_site_symmetry_1
_geom_bond_site_symmetry_2
Cl1 C10 1_555 1_555
S1 C7 1_555 1_555
O1 C1 1_555 1_555
O2 C1 1_555 1_555
O3 C4 1_555 1_555
O4 C6 1_555 1_555
O5 C14 1_555 1_555
O6 C14 1_555 1_555
N1 H1 1_555 1_555
N2 C1 1_555 1_555
C2 N2 1_555 1_555
H2 C2 1_555 1_555
H3 C2 1_555 1_555
C3 O1 1_555 1_555
H4 C3 1_555 1_555
H5 C3 1_555 1_555
C4 N2 1_555 1_555
C5 N1 1_555 1_555
H6 C5 1_555 1_555
C6 C5 1_555 1_555
C7 O4 1_555 1_555
C8 C6 1_555 1_555
C9 C8 1_555 1_555
H7 C9 1_555 1_555
C10 C9 1_555 1_555
C11 C10 1_555 1_555
H8 C11 1_555 1_555
C12 C11 1_555 1_555
H9 C12 1_555 1_555
C13 C8 1_555 1_555
H10 C13 1_555 1_555
C14 C6 1_555 1_555
C15 O6 1_555 1_555
H11 C15 1_555 1_555
H12 C15 1_555 1_555
H13 C15 1_555 1_555
N1 C7 1_555 1_555
C2 C3 1_555 1_555
C4 C5 1_555 1_555
C12 C13 1_555 1_555

#END
