
#######################################################################
#
#                 Cambridge Crystallographic Data Centre
#                                CCDC 
#
#######################################################################
#
# If this CIF has been generated from an entry in the Cambridge 
# Structural Database, then it will include bibliographic, chemical, 
# crystal, experimental, refinement or atomic coordinate data resulting 
# from the CCDC's data processing and validation procedures.
#
#######################################################################

data_GIHXAW
_chemical_formula_moiety         'C22 H24'
_chemical_name_systematic        
8,11'-Bipentacyclo(5.4.0.0^2,6^.0^3,10^.0^5,9^)undecanylidene
_symmetry_cell_setting           triclinic
_symmetry_space_group_name_H-M   'P -1'
_symmetry_Int_Tables_number      2
_space_group_name_Hall           '-P 1'
loop_
_symmetry_equiv_pos_site_id
_symmetry_equiv_pos_as_xyz
1 x,y,z
2 -x,-y,-z
_cell_length_a                   6.613(2)
_cell_length_b                   10.809(3)
_cell_length_c                   10.883(2)
_cell_angle_alpha                97.52(2)
_cell_angle_beta                 99.85(1)
_cell_angle_gamma                99.32(2)
_cell_volume                     746.203
_exptl_crystal_colour            colorless
_chemical_melting_point          '473-474 K'
_cell_formula_units_Z            2
loop_
_atom_site_label
_atom_site_type_symbol
_atom_site_fract_x
_atom_site_fract_y
_atom_site_fract_z
C1 C 0.2240(4) 1.0392(3) 0.8683(3)
C2 C 0.2574(4) 0.9073(3) 0.9004(3)
C3 C 0.3822(5) 0.8523(3) 0.8064(3)
C4 C 0.2542(5) 0.7210(3) 0.7527(3)
C5 C 0.0517(5) 0.7671(3) 0.7149(3)
C6 C 0.0279(5) 0.8477(3) 0.8369(3)
C7 C -0.0085(5) 0.9794(3) 0.8034(3)
C8 C -0.0374(5) 0.9633(3) 0.6606(3)
C9 C 0.1077(4) 0.8710(3) 0.6357(3)
C10 C 0.3401(4) 0.9326(2) 0.7006(3)
C11 C 0.3542(4) 1.0635(2) 0.7714(2)
C12 C 0.6010(4) 1.1980(3) 0.6618(3)
C13 C 0.7894(5) 1.3009(3) 0.7360(3)
C14 C 0.7392(5) 1.3454(3) 0.8642(3)
C15 C 0.7764(6) 1.4897(3) 0.8758(3)
C16 C 0.6314(5) 1.4873(3) 0.7500(3)
C17 C 0.7159(5) 1.4006(3) 0.6558(3)
C18 C 0.5259(5) 1.2984(3) 0.5810(3)
C19 C 0.3368(5) 1.3419(3) 0.6199(3)
C20 C 0.4247(5) 1.4027(3) 0.7559(3)
C21 C 0.4994(5) 1.3020(3) 0.8375(3)
C22 C 0.4657(4) 1.1727(3) 0.7566(2)
H1 H 0.2415(39) 1.1066(25) 0.9349(25)
H2 H 0.3074(39) 0.9002(23) 0.9904(26)
H3 H 0.5274(42) 0.8569(24) 0.8414(24)
H4 H 0.2986(42) 0.6742(25) 0.6768(27)
H5 H 0.2418(41) 0.6621(26) 0.8162(26)
H6 H -0.0713(41) 0.7042(25) 0.6688(24)
H7 H -0.0595(40) 0.7985(24) 0.8847(25)
H8 H -0.1126(40) 1.0176(23) 0.8446(24)
H9 H 0.0037(41) 1.0448(26) 0.6298(25)
H10 H -0.1806(45) 0.9220(25) 0.6135(26)
H11 H 0.0954(39) 0.8362(24) 0.5492(25)
H12 H 0.4292(38) 0.9261(22) 0.6413(24)
H13 H 0.6301(39) 1.1219(24) 0.6145(24)
H14 H 0.9246(45) 1.2849(25) 0.7385(25)
H15 H 0.8138(44) 1.3099(26) 0.9351(27)
H16 H 0.9245(49) 1.5267(29) 0.8742(28)
H17 H 0.7173(45) 1.5303(28) 0.9517(30)
H18 H 0.6138(42) 1.5673(27) 0.7227(25)
H19 H 0.8074(44) 1.4395(26) 0.6091(27)
H20 H 0.5105(40) 1.2731(24) 0.4899(27)
H21 H 0.2185(44) 1.2729(27) 0.6047(26)
H22 H 0.2904(42) 1.4064(27) 0.5630(26)
H23 H 0.3350(41) 1.4485(26) 0.7990(25)
H24 H 0.4408(39) 1.3035(24) 0.9128(25)
loop_
_geom_bond_atom_site_label_1
_geom_bond_atom_site_label_2
_geom_bond_site_symmetry_1
_geom_bond_site_symmetry_2
C1 C2 1_555 1_555
C2 C3 1_555 1_555
C3 C4 1_555 1_555
C4 C5 1_555 1_555
C5 C6 1_555 1_555
C6 C2 1_555 1_555
C7 C1 1_555 1_555
C8 C7 1_555 1_555
C9 C5 1_555 1_555
C10 C3 1_555 1_555
C11 C1 1_555 1_555
C12 C13 1_555 1_555
C13 C14 1_555 1_555
C14 C15 1_555 1_555
C15 C16 1_555 1_555
C16 C17 1_555 1_555
C17 C13 1_555 1_555
C18 C12 1_555 1_555
C19 C18 1_555 1_555
C20 C16 1_555 1_555
C21 C14 1_555 1_555
C22 C11 1_555 1_555
H1 C1 1_555 1_555
H2 C2 1_555 1_555
H3 C3 1_555 1_555
H4 C4 1_555 1_555
H5 C4 1_555 1_555
H6 C5 1_555 1_555
H7 C6 1_555 1_555
H8 C7 1_555 1_555
H9 C8 1_555 1_555
H10 C8 1_555 1_555
H11 C9 1_555 1_555
H12 C10 1_555 1_555
H13 C12 1_555 1_555
H14 C13 1_555 1_555
H15 C14 1_555 1_555
H16 C15 1_555 1_555
H17 C15 1_555 1_555
H18 C16 1_555 1_555
H19 C17 1_555 1_555
H20 C18 1_555 1_555
H21 C19 1_555 1_555
H22 C19 1_555 1_555
H23 C20 1_555 1_555
H24 C21 1_555 1_555
C6 C7 1_555 1_555
C8 C9 1_555 1_555
C9 C10 1_555 1_555
C10 C11 1_555 1_555
C12 C22 1_555 1_555
C17 C18 1_555 1_555
C19 C20 1_555 1_555
C20 C21 1_555 1_555
C21 C22 1_555 1_555

#END
