
#######################################################################
#
#                 Cambridge Crystallographic Data Centre
#                                CCDC 
#
#######################################################################
#
# If this CIF has been generated from an entry in the Cambridge 
# Structural Database, then it will include bibliographic, chemical, 
# crystal, experimental, refinement or atomic coordinate data resulting 
# from the CCDC's data processing and validation procedures.
#
#######################################################################

data_GIJBEJ
_chemical_formula_moiety         'C17 H12 N2 O4'
_chemical_name_systematic        
1-(3-methyl-1H-indol-1-yl)-2-(4-nitrophenyl)ethane-1,2-dione
_symmetry_cell_setting           monoclinic
_symmetry_space_group_name_H-M   'P 21/n'
_symmetry_Int_Tables_number      14
_space_group_name_Hall           '-P 2yn'
loop_
_symmetry_equiv_pos_site_id
_symmetry_equiv_pos_as_xyz
1 x,y,z
2 1/2-x,1/2+y,1/2-z
3 -x,-y,-z
4 1/2+x,1/2-y,1/2+z
_cell_length_a                   14.457(8)
_cell_length_b                   7.977(4)
_cell_length_c                   25.613(14)
_cell_angle_alpha                90
_cell_angle_beta                 96.424(9)
_cell_angle_gamma                90
_cell_volume                     2935.23
_exptl_crystal_colour            colorless
_exptl_crystal_description       Bloc
_cell_formula_units_Z            8
loop_
_atom_site_label
_atom_site_type_symbol
_atom_site_fract_x
_atom_site_fract_y
_atom_site_fract_z
O1 O 0.32587(17) 0.2885(3) 0.24216(9)
O2 O 0.10938(19) 0.2801(4) 0.26608(10)
O3 O -0.0203(3) 0.6582(4) 0.02725(13)
O4 O 0.1251(3) 0.7059(4) 0.01824(11)
N1 N 0.28876(18) 0.4364(3) 0.31319(9)
N2 N 0.0641(3) 0.6492(4) 0.04231(13)
C1 C 0.3795(2) 0.4559(3) 0.34030(11)
C2 C 0.4660(2) 0.4149(4) 0.32553(12)
H1 H 0.472171 0.363768 0.293459
C3 C 0.5429(3) 0.4534(4) 0.36063(15)
H2 H 0.602068 0.429511 0.351675
C4 C 0.5338(3) 0.5267(5) 0.40875(15)
H3 H 0.586715 0.550031 0.431669
C5 C 0.4476(3) 0.5654(4) 0.42312(13)
H4 H 0.441995 0.614461 0.455550
C6 C 0.3688(2) 0.5302(4) 0.38844(11)
C7 C 0.2705(2) 0.5589(4) 0.39101(12)
C8 C 0.2296(3) 0.6331(5) 0.43691(15)
H5 H 0.278704 0.662314 0.463753
H6 H 0.194766 0.731733 0.425860
H7 H 0.189115 0.552740 0.450572
C9 C 0.2251(2) 0.5028(4) 0.34608(13)
H8 H 0.160876 0.506772 0.337594
C10 C 0.2677(2) 0.3581(4) 0.26607(12)
C11 C 0.1662(3) 0.3524(4) 0.24210(13)
C12 C 0.1429(2) 0.4237(4) 0.18899(12)
C13 C 0.0512(3) 0.4105(4) 0.16549(15)
H9 H 0.007112 0.353542 0.182541
C14 C 0.0261(3) 0.4822(4) 0.11690(15)
H10 H -0.034569 0.473458 0.100738
C15 C 0.0922(3) 0.5662(4) 0.09301(13)
C16 C 0.1837(3) 0.5795(4) 0.11460(13)
H11 H 0.227471 0.634723 0.096905
C17 C 0.2082(2) 0.5082(4) 0.16334(13)
H12 H 0.269213 0.516983 0.179058
O5 O 0.83972(18) 0.7052(3) 0.21637(9)
O6 O 0.68294(18) 0.7415(3) 0.29626(9)
O7 O 1.0633(3) 0.2801(5) 0.43346(15)
O8 O 0.9652(2) 0.3313(4) 0.48979(12)
N3 N 0.69868(17) 0.5843(3) 0.19270(9)
N4 N 0.9901(3) 0.3388(4) 0.44573(15)
C18 C 0.7041(2) 0.5659(3) 0.13825(11)
C19 C 0.7748(2) 0.6056(4) 0.10805(12)
H13 H 0.829927 0.655288 0.122677
C20 C 0.7594(3) 0.5677(5) 0.05487(14)
H14 H 0.805370 0.591753 0.033354
C21 C 0.6773(3) 0.4951(5) 0.03327(14)
H15 H 0.669058 0.471575 -0.002513
C22 C 0.6076(2) 0.4569(4) 0.06340(13)
H16 H 0.552430 0.408367 0.048396
C23 C 0.6209(2) 0.4920(3) 0.11641(12)
C24 C 0.5631(2) 0.4651(4) 0.15894(13)
C25 C 0.4690(3) 0.3868(5) 0.15218(16)
H17 H 0.452266 0.360033 0.115804
H18 H 0.469705 0.286111 0.172767
H19 H 0.424306 0.463677 0.163620
C26 C 0.6117(2) 0.5203(4) 0.20284(13)
H20 H 0.590852 0.516988 0.235888
C27 C 0.7671(2) 0.6493(4) 0.22803(12)
C28 C 0.7484(2) 0.6582(4) 0.28523(12)
C29 C 0.8141(2) 0.5757(4) 0.32571(12)
C30 C 0.7980(2) 0.5928(4) 0.37874(12)
H21 H 0.748076 0.656326 0.387562
C31 C 0.8564(3) 0.5148(4) 0.41731(13)
H22 H 0.846355 0.524914 0.452409
C32 C 0.9291(3) 0.4230(4) 0.40361(13)
C33 C 0.9470(2) 0.4042(4) 0.35228(15)
H23 H 0.997323 0.340710 0.344107
C34 C 0.8888(2) 0.4814(4) 0.31326(13)
H24 H 0.899818 0.470022 0.278352
loop_
_geom_bond_atom_site_label_1
_geom_bond_atom_site_label_2
_geom_bond_site_symmetry_1
_geom_bond_site_symmetry_2
O1 C10 1_555 1_555
O2 C11 1_555 1_555
O3 N2 1_555 1_555
O4 N2 1_555 1_555
N1 C1 1_555 1_555
N2 C15 1_555 1_555
C1 C2 1_555 1_555
C2 H1 1_555 1_555
C3 C2 1_555 1_555
H2 C3 1_555 1_555
C4 C3 1_555 1_555
H3 C4 1_555 1_555
C5 C4 1_555 1_555
H4 C5 1_555 1_555
C6 C1 1_555 1_555
C7 C6 1_555 1_555
C8 C7 1_555 1_555
H5 C8 1_555 1_555
H6 C8 1_555 1_555
H7 C8 1_555 1_555
C9 N1 1_555 1_555
H8 C9 1_555 1_555
C10 N1 1_555 1_555
C11 C10 1_555 1_555
C12 C11 1_555 1_555
C13 C12 1_555 1_555
H9 C13 1_555 1_555
C14 C13 1_555 1_555
H10 C14 1_555 1_555
C15 C14 1_555 1_555
C16 C15 1_555 1_555
H11 C16 1_555 1_555
C17 C12 1_555 1_555
H12 C17 1_555 1_555
O5 C27 1_555 1_555
O6 C28 1_555 1_555
O7 N4 1_555 1_555
O8 N4 1_555 1_555
N3 C18 1_555 1_555
N4 C32 1_555 1_555
C18 C19 1_555 1_555
C19 H13 1_555 1_555
C20 C19 1_555 1_555
H14 C20 1_555 1_555
C21 C20 1_555 1_555
H15 C21 1_555 1_555
C22 C21 1_555 1_555
H16 C22 1_555 1_555
C23 C18 1_555 1_555
C24 C23 1_555 1_555
C25 C24 1_555 1_555
H17 C25 1_555 1_555
H18 C25 1_555 1_555
H19 C25 1_555 1_555
C26 N3 1_555 1_555
H20 C26 1_555 1_555
C27 N3 1_555 1_555
C28 C27 1_555 1_555
C29 C28 1_555 1_555
C30 C29 1_555 1_555
H21 C30 1_555 1_555
C31 C30 1_555 1_555
H22 C31 1_555 1_555
C32 C31 1_555 1_555
C33 C32 1_555 1_555
H23 C33 1_555 1_555
C34 C29 1_555 1_555
H24 C34 1_555 1_555
C5 C6 1_555 1_555
C7 C9 1_555 1_555
C16 C17 1_555 1_555
C22 C23 1_555 1_555
C24 C26 1_555 1_555
C33 C34 1_555 1_555

#END
