
#######################################################################
#
#                 Cambridge Crystallographic Data Centre
#                                CCDC 
#
#######################################################################
#
# If this CIF has been generated from an entry in the Cambridge 
# Structural Database, then it will include bibliographic, chemical, 
# crystal, experimental, refinement or atomic coordinate data resulting 
# from the CCDC's data processing and validation procedures.
#
#######################################################################

data_GIJBIN
_chemical_formula_moiety         'C17 H12 Br1 N1 O2'
_chemical_name_systematic        
1-(4-bromophenyl)-2-(3-methyl-1H-indol-2-yl)ethane-1,2-dione
_symmetry_cell_setting           monoclinic
_symmetry_space_group_name_H-M   'P 21/c'
_symmetry_Int_Tables_number      14
_space_group_name_Hall           '-P 2ybc'
loop_
_symmetry_equiv_pos_site_id
_symmetry_equiv_pos_as_xyz
1 x,y,z
2 -x,1/2+y,1/2-z
3 -x,-y,-z
4 x,1/2-y,1/2+z
_cell_length_a                   11.222(9)
_cell_length_b                   10.455(8)
_cell_length_c                   13.216(10)
_cell_angle_alpha                90
_cell_angle_beta                 104.726(13)
_cell_angle_gamma                90
_cell_volume                     1499.65
_exptl_crystal_colour            colorless
_exptl_crystal_description       Bloc
_cell_formula_units_Z            4
loop_
_atom_site_label
_atom_site_type_symbol
_atom_site_fract_x
_atom_site_fract_y
_atom_site_fract_z
Br1 Br 0.30904(5) 0.20977(4) 0.07045(3)
O1 O 0.4949(3) -0.0732(3) -0.3721(2)
O2 O 0.3717(3) -0.2791(2) -0.2621(2)
N1 N 0.3076(3) -0.0378(3) -0.5520(2)
H1 H 0.377021 -0.007834 -0.557730
C1 C 0.2009(3) -0.0357(3) -0.6283(3)
C2 C 0.1764(4) 0.0145(4) -0.7299(3)
H2 H 0.237404 0.054816 -0.754550
C3 C 0.0597(5) 0.0017(5) -0.7907(4)
H3 H 0.040426 0.035031 -0.858150
C4 C -0.0326(5) -0.0600(5) -0.7551(4)
H4 H -0.111161 -0.067323 -0.799564
C5 C -0.0098(4) -0.1100(5) -0.6560(4)
H5 H -0.071503 -0.151990 -0.633571
C6 C 0.1091(4) -0.0964(3) -0.5889(3)
C7 C 0.1645(3) -0.1337(3) -0.4835(3)
C8 C 0.0990(5) -0.2035(4) -0.4148(4)
H6 H 0.014286 -0.215623 -0.451547
H7 H 0.137295 -0.285309 -0.396226
H8 H 0.103544 -0.154538 -0.352512
C9 C 0.2877(3) -0.0954(3) -0.4634(3)
C10 C 0.3901(3) -0.1067(3) -0.3723(3)
C11 C 0.3731(3) -0.1636(3) -0.2709(3)
C12 C 0.3629(3) -0.0730(3) -0.1868(2)
C13 C 0.3336(4) -0.1188(3) -0.0970(3)
H9 H 0.323721 -0.206244 -0.089168
C14 C 0.3192(4) -0.0359(4) -0.0194(3)
H10 H 0.300044 -0.066887 0.040583
C15 C 0.3336(3) 0.0931(3) -0.0326(3)
C16 C 0.3653(4) 0.1415(3) -0.1193(3)
H11 H 0.376501 0.228906 -0.126011
C17 C 0.3802(4) 0.0573(3) -0.1963(3)
H12 H 0.401946 0.088663 -0.254997
loop_
_geom_bond_atom_site_label_1
_geom_bond_atom_site_label_2
_geom_bond_site_symmetry_1
_geom_bond_site_symmetry_2
Br1 C15 1_555 1_555
O1 C10 1_555 1_555
O2 C11 1_555 1_555
N1 H1 1_555 1_555
C1 N1 1_555 1_555
C2 C1 1_555 1_555
H2 C2 1_555 1_555
C3 C2 1_555 1_555
H3 C3 1_555 1_555
C4 C3 1_555 1_555
H4 C4 1_555 1_555
C5 C4 1_555 1_555
H5 C5 1_555 1_555
C6 C1 1_555 1_555
C7 C6 1_555 1_555
C8 C7 1_555 1_555
H6 C8 1_555 1_555
H7 C8 1_555 1_555
H8 C8 1_555 1_555
C9 N1 1_555 1_555
C10 C9 1_555 1_555
C11 C10 1_555 1_555
C12 C11 1_555 1_555
C13 C12 1_555 1_555
H9 C13 1_555 1_555
C14 C13 1_555 1_555
H10 C14 1_555 1_555
C15 C14 1_555 1_555
C16 C15 1_555 1_555
H11 C16 1_555 1_555
C17 C12 1_555 1_555
H12 C17 1_555 1_555
C5 C6 1_555 1_555
C7 C9 1_555 1_555
C16 C17 1_555 1_555

#END
