
#######################################################################
#
#                 Cambridge Crystallographic Data Centre
#                                CCDC 
#
#######################################################################
#
# If this CIF has been generated from an entry in the Cambridge 
# Structural Database, then it will include bibliographic, chemical, 
# crystal, experimental, refinement or atomic coordinate data resulting 
# from the CCDC's data processing and validation procedures.
#
#######################################################################

data_GIJDAH
_chemical_formula_moiety         'C13 H18 O4,H2 O1'
_chemical_name_systematic        
'3-(3,5-dihydroxy-2-methylphenyl)butan-2-yl acetate monohydrate'
_symmetry_cell_setting           orthorhombic
_symmetry_space_group_name_H-M   'P 21 21 21'
_symmetry_Int_Tables_number      19
_space_group_name_Hall           'P 2ac 2ab'
loop_
_symmetry_equiv_pos_site_id
_symmetry_equiv_pos_as_xyz
1 x,y,z
2 1/2-x,-y,1/2+z
3 1/2+x,1/2-y,-z
4 -x,1/2+y,1/2-z
_cell_length_a                   8.01561(11)
_cell_length_b                   9.20019(13)
_cell_length_c                   18.6108(3)
_cell_angle_alpha                90
_cell_angle_beta                 90
_cell_angle_gamma                90
_cell_volume                     1372.46
_exptl_crystal_colour            colorless
_exptl_crystal_description       block
_cell_formula_units_Z            4
loop_
_atom_site_label
_atom_site_type_symbol
_atom_site_fract_x
_atom_site_fract_y
_atom_site_fract_z
C1 C 0.9495(2) 0.59644(18) 0.40157(8)
C2 C 1.1228(2) 0.60021(19) 0.40044(9)
H1 H 1.182075 0.672035 0.426779
C3 C 1.2080(2) 0.49682(18) 0.36000(8)
C4 C 1.1244(2) 0.38987(19) 0.32011(9)
C5 C 0.9487(2) 0.38739(18) 0.32253(8)
C6 C 0.8631(2) 0.49151(18) 0.36332(8)
H2 H 0.744654 0.490091 0.364740
C7 C 0.8481(2) 0.27446(19) 0.28125(9)
H3 H 0.924349 0.233095 0.243945
C8 C 0.7906(2) 0.14703(19) 0.32792(10)
H4 H 0.725850 0.078161 0.297104
C9 C 0.9287(3) 0.0631(2) 0.36483(13)
H5 H 0.997182 0.013767 0.328635
H6 H 0.879861 -0.009216 0.397278
H7 H 0.998554 0.130314 0.392466
C10 C 1.2280(2) 0.2847(2) 0.27615(10)
H8 H 1.316399 0.338116 0.251086
H9 H 1.156569 0.235935 0.240891
H10 H 1.278237 0.212115 0.308044
C11 C 0.6990(2) 0.3409(2) 0.24086(10)
H11 H 0.621173 0.383838 0.275489
H12 H 0.641892 0.264777 0.213437
H13 H 0.738904 0.416399 0.207932
C12 C 0.5563(3) 0.1201(2) 0.40607(10)
C13 C 0.4523(3) 0.1916(3) 0.46251(13)
H14 H 0.500252 0.171858 0.509959
H15 H 0.338434 0.153120 0.460450
H16 H 0.450099 0.296750 0.454140
O1 O 0.86998(16) 0.70060(15) 0.44218(7)
H17 H 0.771(4) 0.691(3) 0.4357(15)
O2 O 1.37847(15) 0.49764(14) 0.35652(7)
H18 H 1.423(3) 0.569(3) 0.3822(16)
O3 O 0.67841(17) 0.20622(15) 0.38287(7)
O4 O 0.5340(2) -0.00167(18) 0.38358(9)
O5 O 0.52975(16) 0.71973(15) 0.43236(7)
H19 H 0.524(3) 0.803(3) 0.4114(14)
H20 H 0.479(5) 0.727(4) 0.474(2)
loop_
_geom_bond_atom_site_label_1
_geom_bond_atom_site_label_2
_geom_bond_site_symmetry_1
_geom_bond_site_symmetry_2
C1 C2 1_555 1_555
C2 H1 1_555 1_555
C3 C2 1_555 1_555
C4 C3 1_555 1_555
C5 C4 1_555 1_555
C6 C1 1_555 1_555
H2 C6 1_555 1_555
C7 C5 1_555 1_555
H3 C7 1_555 1_555
C8 C7 1_555 1_555
H4 C8 1_555 1_555
C9 C8 1_555 1_555
H5 C9 1_555 1_555
H6 C9 1_555 1_555
H7 C9 1_555 1_555
C10 C4 1_555 1_555
H8 C10 1_555 1_555
H9 C10 1_555 1_555
H10 C10 1_555 1_555
C11 C7 1_555 1_555
H11 C11 1_555 1_555
H12 C11 1_555 1_555
H13 C11 1_555 1_555
C12 C13 1_555 1_555
C13 H14 1_555 1_555
H15 C13 1_555 1_555
H16 C13 1_555 1_555
O1 C1 1_555 1_555
H17 O1 1_555 1_555
O2 C3 1_555 1_555
H18 O2 1_555 1_555
O3 C8 1_555 1_555
O4 C12 1_555 1_555
O5 H19 1_555 1_555
H20 O5 1_555 1_555
C5 C6 1_555 1_555
C12 O3 1_555 1_555

#END
