
#######################################################################
#
#                 Cambridge Crystallographic Data Centre
#                                CCDC 
#
#######################################################################
#
# If this CIF has been generated from an entry in the Cambridge 
# Structural Database, then it will include bibliographic, chemical, 
# crystal, experimental, refinement or atomic coordinate data resulting 
# from the CCDC's data processing and validation procedures.
#
#######################################################################

data_GIJFEN
_chemical_formula_moiety         'C18 H22 N2 O2,C1 H4 O1'
_chemical_name_systematic        
'1-methyl-4-(3-methyl-1H-indol-2-yl)octahydro-8H-pyrano[3,4-c]pyridin-8-one methanol solvate'
_symmetry_cell_setting           monoclinic
_symmetry_space_group_name_H-M   'P 21/c'
_symmetry_Int_Tables_number      14
_space_group_name_Hall           '-P 2ybc'
loop_
_symmetry_equiv_pos_site_id
_symmetry_equiv_pos_as_xyz
1 x,y,z
2 -x,1/2+y,1/2-z
3 -x,-y,-z
4 x,1/2-y,1/2+z
_cell_length_a                   10.6154(3)
_cell_length_b                   13.2210(3)
_cell_length_c                   12.9300(4)
_cell_angle_alpha                90
_cell_angle_beta                 107.191(3)
_cell_angle_gamma                90
_cell_volume                     1733.61
_exptl_crystal_colour            colorless
_exptl_crystal_description       parallelepiped
_cell_formula_units_Z            4
_exptl_crystal_recrystallization_method n-hexane/acetone
loop_
_atom_site_label
_atom_site_type_symbol
_atom_site_fract_x
_atom_site_fract_y
_atom_site_fract_z
C1 C 0.49607(11) 0.58540(8) 0.86419(9)
C2 C 0.48463(10) 0.65064(8) 0.76507(8)
H1 H 0.4048 0.6297 0.7087
C3 C 0.46739(11) 0.76318(8) 0.79162(9)
H2 H 0.5445 0.7848 0.8503
C4 C 0.57565(12) 0.81962(9) 0.66641(10)
H3 H 0.6502 0.8392 0.7270
H4 H 0.5692 0.8671 0.6079
C5 C 0.59814(11) 0.71339(9) 0.62949(9)
H5 H 0.5215 0.6965 0.5681
C6 C 0.60299(11) 0.63558(8) 0.71991(9)
H6 H 0.5945 0.5681 0.6871
C7 C 0.73191(11) 0.63748(9) 0.81248(9)
H7 H 0.8063 0.6326 0.7836
H8 H 0.7391 0.7006 0.8521
C8 C 0.73353(11) 0.54916(9) 0.88771(9)
H9 H 0.7433 0.4865 0.8519
H10 H 0.8083 0.5557 0.9522
C9 C 0.34352(12) 0.78597(10) 0.82307(10)
H11 H 0.2677 0.7633 0.7667
H12 H 0.3372 0.8575 0.8331
H13 H 0.3473 0.7515 0.8892
C10 C 0.71791(11) 0.70799(9) 0.58965(9)
C11 C 0.74987(11) 0.63756(9) 0.52355(9)
C12 C 0.87483(12) 0.66745(9) 0.51118(9)
C13 C 0.95536(13) 0.62891(10) 0.45159(10)
H14 H 0.9318 0.5704 0.4104
C14 C 1.07059(14) 0.67988(11) 0.45543(12)
H15 H 1.1241 0.6553 0.4157
C15 C 1.10844(13) 0.76743(11) 0.51767(12)
H16 H 1.1871 0.7993 0.5194
C16 C 1.03054(12) 0.80741(10) 0.57678(11)
H17 H 1.0549 0.8659 0.6177
C17 C 0.91391(11) 0.75623(9) 0.57236(9)
C18 C 0.67085(13) 0.54693(9) 0.47204(10)
H18 H 0.5815 0.5545 0.4736
H19 H 0.7084 0.4871 0.5112
H20 H 0.6721 0.5412 0.3983
N1 N 0.61156(9) 0.54609(7) 0.91838(8)
H21 H 0.6152 0.5155 0.9779
N2 N 0.81806(10) 0.77936(8) 0.62060(8)
O1 O 0.39656(8) 0.57117(6) 0.89585(7)
O2 O 0.45796(8) 0.82371(6) 0.69796(7)
H22 H 0.8202(15) 0.8351(13) 0.6569(13)
C19 C 0.05455(15) 0.55071(13) 0.77068(14)
H23 H -0.0243 0.5142 0.7346
H24 H 0.0685 0.6033 0.7240
H25 H 0.0457 0.5801 0.8360
O3 O 0.16237(9) 0.48436(7) 0.79606(9)
H26 H 0.2305 0.5164 0.8223
loop_
_geom_bond_atom_site_label_1
_geom_bond_atom_site_label_2
_geom_bond_site_symmetry_1
_geom_bond_site_symmetry_2
C1 C2 1_555 1_555
C2 H1 1_555 1_555
C3 C2 1_555 1_555
H2 C3 1_555 1_555
C4 H3 1_555 1_555
H4 C4 1_555 1_555
C5 C4 1_555 1_555
H5 C5 1_555 1_555
C6 C2 1_555 1_555
H6 C6 1_555 1_555
C7 C6 1_555 1_555
H7 C7 1_555 1_555
H8 C7 1_555 1_555
C8 C7 1_555 1_555
H9 C8 1_555 1_555
H10 C8 1_555 1_555
C9 C3 1_555 1_555
H11 C9 1_555 1_555
H12 C9 1_555 1_555
H13 C9 1_555 1_555
C10 C5 1_555 1_555
C11 C10 1_555 1_555
C12 C11 1_555 1_555
C13 C12 1_555 1_555
H14 C13 1_555 1_555
C14 C13 1_555 1_555
H15 C14 1_555 1_555
C15 C14 1_555 1_555
H16 C15 1_555 1_555
C16 C15 1_555 1_555
H17 C16 1_555 1_555
C17 C12 1_555 1_555
C18 C11 1_555 1_555
H18 C18 1_555 1_555
H19 C18 1_555 1_555
H20 C18 1_555 1_555
N1 C1 1_555 1_555
H21 N1 1_555 1_555
N2 C10 1_555 1_555
O1 C1 1_555 1_555
O2 C3 1_555 1_555
H22 N2 1_555 1_555
C19 H23 1_555 1_555
H24 C19 1_555 1_555
H25 C19 1_555 1_555
O3 C19 1_555 1_555
H26 O3 1_555 1_555
C4 O2 1_555 1_555
C5 C6 1_555 1_555
C8 N1 1_555 1_555
C16 C17 1_555 1_555
C17 N2 1_555 1_555

#END
