
#######################################################################
#
#                 Cambridge Crystallographic Data Centre
#                                CCDC 
#
#######################################################################
#
# If this CIF has been generated from an entry in the Cambridge 
# Structural Database, then it will include bibliographic, chemical, 
# crystal, experimental, refinement or atomic coordinate data resulting 
# from the CCDC's data processing and validation procedures.
#
#######################################################################

data_GIJGEO
_chemical_name_common            
(naphthalen-1-yl)-[2-(1H-pyrazol-1-yl)phenyl]-(2,4,6-trimethylphenyl)-boron
_chemical_formula_moiety         'C28 H25 B1 N2'
_chemical_name_systematic        
5-(naphthalen-1-yl)-5-(2,4,6-trimethylphenyl)-5H-4,5-pyrazolo[1,2-a][1,2,3]benzodiazaborole
_symmetry_cell_setting           monoclinic
_symmetry_space_group_name_H-M   'P 21/c'
_symmetry_Int_Tables_number      14
_space_group_name_Hall           '-P 2ybc'
loop_
_symmetry_equiv_pos_site_id
_symmetry_equiv_pos_as_xyz
1 x,y,z
2 -x,1/2+y,1/2-z
3 -x,-y,-z
4 x,1/2-y,1/2+z
_cell_length_a                   8.2022(5)
_cell_length_b                   12.6631(10)
_cell_length_c                   20.9039(15)
_cell_angle_alpha                90
_cell_angle_beta                 100.564(3)
_cell_angle_gamma                90
_cell_volume                     2134.39
_exptl_crystal_colour            colorless
_exptl_crystal_description       Block
_cell_formula_units_Z            4
loop_
_atom_site_label
_atom_site_type_symbol
_atom_site_fract_x
_atom_site_fract_y
_atom_site_fract_z
B1 B 0.7126(3) 0.2699(2) 0.55787(14)
C1 C 0.6229(3) 0.2800(2) 0.48247(13)
N1 N 0.8730(3) 0.20293(17) 0.54210(10)
C2 C 0.4713(3) 0.3203(2) 0.45243(14)
H1 H 0.3994 0.3505 0.4783
N2 N 0.8687(3) 0.19391(17) 0.47740(11)
C3 C 0.4227(4) 0.3175(3) 0.38566(14)
H2 H 0.3181 0.3458 0.3661
C4 C 0.5257(4) 0.2733(2) 0.34680(15)
H3 H 0.4917 0.2734 0.3008
C5 C 0.6765(4) 0.2294(2) 0.37410(14)
H4 H 0.7467 0.1974 0.3482
C6 C 0.7200(3) 0.2345(2) 0.44110(12)
C7 C 1.0152(3) 0.1567(2) 0.46562(15)
H5 H 1.0427 0.1435 0.4242
C8 C 1.1159(3) 0.1419(2) 0.52474(15)
H6 H 1.2267 0.1163 0.5325
C9 C 1.0241(3) 0.1717(2) 0.57094(14)
H7 H 1.0628 0.1702 0.6166
C10 C 0.8104(3) 0.37634(19) 0.58854(12)
C11 C 0.8208(3) 0.4618(2) 0.54879(14)
H8 H 0.7539 0.4625 0.5066
C12 C 0.9266(4) 0.5482(2) 0.56802(16)
H9 H 0.9291 0.6058 0.5391
C13 C 1.0252(3) 0.5493(2) 0.62784(16)
H10 H 1.0979 0.6072 0.6402
C14 C 1.0203(3) 0.4653(2) 0.67171(14)
C15 C 1.1240(3) 0.4648(3) 0.73406(15)
H11 H 1.1960 0.5229 0.7467
C16 C 1.1226(4) 0.3832(3) 0.77599(15)
H12 H 1.1941 0.3837 0.8172
C17 C 1.0148(3) 0.2984(3) 0.75790(13)
H13 H 1.0130 0.2415 0.7873
C18 C 0.9121(3) 0.2963(2) 0.69854(13)
H14 H 0.8394 0.2380 0.6877
C19 C 0.9114(3) 0.3788(2) 0.65282(12)
C20 C 0.5946(3) 0.20725(19) 0.59980(11)
C21 C 0.5836(3) 0.0958(2) 0.60362(12)
C22 C 0.4823(3) 0.0484(2) 0.64141(12)
H15 H 0.4802 -0.0265 0.6437
C23 C 0.3838(3) 0.1057(2) 0.67599(13)
C24 C 0.3858(3) 0.2141(2) 0.66935(12)
H16 H 0.3157 0.2554 0.6909
C25 C 0.4868(3) 0.2656(2) 0.63215(12)
C26 C 0.4719(3) 0.3847(2) 0.62788(14)
H17 H 0.3673 0.4067 0.6402
H18 H 0.4738 0.4074 0.5832
H19 H 0.5650 0.4170 0.6575
C27 C 0.6761(3) 0.0231(2) 0.56554(14)
H20 H 0.7946 0.0243 0.5846
H21 H 0.6603 0.0467 0.5202
H22 H 0.6336 -0.0490 0.5672
C28 C 0.2751(4) 0.0517(3) 0.71682(15)
H23 H 0.2171 0.1051 0.7382
H24 H 0.3437 0.0078 0.7499
H25 H 0.1937 0.0072 0.6889
loop_
_geom_bond_atom_site_label_1
_geom_bond_atom_site_label_2
_geom_bond_site_symmetry_1
_geom_bond_site_symmetry_2
B1 C1 1_555 1_555
C1 C2 1_555 1_555
N1 B1 1_555 1_555
C2 H1 1_555 1_555
N2 N1 1_555 1_555
C3 C2 1_555 1_555
H2 C3 1_555 1_555
C4 C3 1_555 1_555
H3 C4 1_555 1_555
C5 C4 1_555 1_555
H4 C5 1_555 1_555
C6 C1 1_555 1_555
C7 N2 1_555 1_555
H5 C7 1_555 1_555
C8 C7 1_555 1_555
H6 C8 1_555 1_555
C9 N1 1_555 1_555
H7 C9 1_555 1_555
C10 B1 1_555 1_555
C11 C10 1_555 1_555
H8 C11 1_555 1_555
C12 C11 1_555 1_555
H9 C12 1_555 1_555
C13 C12 1_555 1_555
H10 C13 1_555 1_555
C14 C13 1_555 1_555
C15 C14 1_555 1_555
H11 C15 1_555 1_555
C16 C15 1_555 1_555
H12 C16 1_555 1_555
C17 C16 1_555 1_555
H13 C17 1_555 1_555
C18 C17 1_555 1_555
H14 C18 1_555 1_555
C19 C10 1_555 1_555
C20 B1 1_555 1_555
C21 C20 1_555 1_555
C22 C21 1_555 1_555
H15 C22 1_555 1_555
C23 C22 1_555 1_555
C24 C23 1_555 1_555
H16 C24 1_555 1_555
C25 C20 1_555 1_555
C26 C25 1_555 1_555
H17 C26 1_555 1_555
H18 C26 1_555 1_555
H19 C26 1_555 1_555
C27 C21 1_555 1_555
H20 C27 1_555 1_555
H21 C27 1_555 1_555
H22 C27 1_555 1_555
C28 C23 1_555 1_555
H23 C28 1_555 1_555
H24 C28 1_555 1_555
H25 C28 1_555 1_555
N2 C6 1_555 1_555
C5 C6 1_555 1_555
C8 C9 1_555 1_555
C14 C19 1_555 1_555
C18 C19 1_555 1_555
C24 C25 1_555 1_555

#END
