
#######################################################################
#
#                 Cambridge Crystallographic Data Centre
#                                CCDC 
#
#######################################################################
#
# If this CIF has been generated from an entry in the Cambridge 
# Structural Database, then it will include bibliographic, chemical, 
# crystal, experimental, refinement or atomic coordinate data resulting 
# from the CCDC's data processing and validation procedures.
#
#######################################################################

data_GIJTOL
_chemical_formula_moiety         'C26 H21 N1 O2'
_chemical_name_systematic        
'ethyl 2-(dibenzo[a,i]phenanthridin-5-yl)propanoate'
_symmetry_cell_setting           triclinic
_symmetry_space_group_name_H-M   'P -1'
_symmetry_Int_Tables_number      2
_space_group_name_Hall           '-P 1'
loop_
_symmetry_equiv_pos_site_id
_symmetry_equiv_pos_as_xyz
1 x,y,z
2 -x,-y,-z
_cell_length_a                   7.4718(9)
_cell_length_b                   10.1700(13)
_cell_length_c                   13.6849(15)
_cell_angle_alpha                80.313(10)
_cell_angle_beta                 76.092(10)
_cell_angle_gamma                74.405(11)
_cell_volume                     966.251
_exptl_crystal_description       block
_cell_formula_units_Z            2
loop_
_atom_site_label
_atom_site_type_symbol
_atom_site_fract_x
_atom_site_fract_y
_atom_site_fract_z
O1 O -0.0311(2) 0.94610(15) 0.31301(12)
N1 N 0.3785(2) 0.82451(17) 0.24548(13)
O2 O 0.0916(3) 1.10783(17) 0.34515(16)
C1 C 0.2593(2) 0.41213(19) 0.46320(13)
C2 C 0.3417(2) 0.61917(18) 0.35819(13)
C3 C 0.2778(2) 0.54847(19) 0.45766(13)
C4 C 0.4227(2) 0.54102(19) 0.27502(13)
C5 C 0.3938(2) 0.40492(19) 0.28525(14)
H1 H 0.4347 0.3560 0.2291
C6 C 0.3096(2) 0.34608(19) 0.37349(14)
H2 H 0.2839 0.2609 0.3759
C7 C 0.5146(3) 0.6034(2) 0.18074(13)
C8 C 0.6390(3) 0.5302(2) 0.09734(14)
C9 C 0.4785(3) 0.7466(2) 0.16952(15)
C10 C 0.2383(3) 0.6038(2) 0.55055(14)
H3 H 0.2566 0.6908 0.5504
C11 C 0.3177(3) 0.7651(2) 0.33587(15)
C12 C 0.1920(3) 0.3423(2) 0.55725(14)
H4 H 0.1776 0.2538 0.5596
C13 C 0.7231(3) 0.3881(2) 0.10558(15)
H5 H 0.6988 0.3360 0.1678
C14 C 0.1478(3) 0.4017(3) 0.64461(15)
H6 H 0.1010 0.3550 0.7059
C15 C 0.1735(3) 0.5331(3) 0.64128(15)
H7 H 0.1466 0.5734 0.7010
C16 C 0.6940(3) 0.6074(3) 0.00284(15)
C17 C 0.2079(3) 0.8714(2) 0.40819(17)
H8 H 0.1237 0.8294 0.4637
C18 C 0.3422(3) 0.9240(2) 0.45269(19)
H9 H 0.4187 0.8482 0.4878
H10 H 0.2690 0.9891 0.4992
H11 H 0.4229 0.9676 0.3990
C19 C 0.0893(3) 0.9891(2) 0.35146(18)
C20 C 0.6367(3) 0.7529(3) -0.00649(17)
H12 H 0.6671 0.8025 -0.0692
C21 C 0.8398(3) 0.3242(3) 0.02461(17)
H13 H 0.8905 0.2299 0.0323
C22 C 0.5395(3) 0.8199(3) 0.07363(18)
H14 H 0.5112 0.9154 0.0669
C23 C 0.8143(3) 0.5376(4) -0.07868(16)
H15 H 0.8475 0.5877 -0.1408
C24 C -0.1450(4) 1.0504(3) 0.2527(2)
H16 H -0.0681 1.1091 0.2093
H17 H -0.2486 1.1069 0.2964
C25 C 0.8825(3) 0.3995(4) -0.06869(18)
H18 H 0.9575 0.3554 -0.1241
C26 C -0.2196(5) 0.9826(3) 0.1916(3)
H19 H -0.1171 0.9367 0.1425
H20 H -0.3084 1.0496 0.1575
H21 H -0.2826 0.9165 0.2346
loop_
_geom_bond_atom_site_label_1
_geom_bond_atom_site_label_2
_geom_bond_site_symmetry_1
_geom_bond_site_symmetry_2
O1 C19 1_555 1_555
N1 C9 1_555 1_555
O2 C19 1_555 1_555
C1 C3 1_555 1_555
C2 C3 1_555 1_555
C3 C10 1_555 1_555
C4 C2 1_555 1_555
C5 C4 1_555 1_555
H1 C5 1_555 1_555
C6 C1 1_555 1_555
H2 C6 1_555 1_555
C7 C4 1_555 1_555
C8 C7 1_555 1_555
C9 C7 1_555 1_555
C10 H3 1_555 1_555
C11 N1 1_555 1_555
C12 C1 1_555 1_555
H4 C12 1_555 1_555
C13 C8 1_555 1_555
H5 C13 1_555 1_555
C14 C12 1_555 1_555
H6 C14 1_555 1_555
C15 C10 1_555 1_555
H7 C15 1_555 1_555
C16 C8 1_555 1_555
C17 C11 1_555 1_555
H8 C17 1_555 1_555
C18 C17 1_555 1_555
H9 C18 1_555 1_555
H10 C18 1_555 1_555
H11 C18 1_555 1_555
C19 C17 1_555 1_555
C20 C16 1_555 1_555
H12 C20 1_555 1_555
C21 C13 1_555 1_555
H13 C21 1_555 1_555
C22 C9 1_555 1_555
H14 C22 1_555 1_555
C23 C16 1_555 1_555
H15 C23 1_555 1_555
C24 O1 1_555 1_555
H16 C24 1_555 1_555
H17 C24 1_555 1_555
C25 C21 1_555 1_555
H18 C25 1_555 1_555
C26 C24 1_555 1_555
H19 C26 1_555 1_555
H20 C26 1_555 1_555
H21 C26 1_555 1_555
C2 C11 1_555 1_555
C5 C6 1_555 1_555
C14 C15 1_555 1_555
C20 C22 1_555 1_555
C23 C25 1_555 1_555

#END
