
#######################################################################
#
#                 Cambridge Crystallographic Data Centre
#                                CCDC 
#
#######################################################################
#
# If this CIF has been generated from an entry in the Cambridge 
# Structural Database, then it will include bibliographic, chemical, 
# crystal, experimental, refinement or atomic coordinate data resulting 
# from the CCDC's data processing and validation procedures.
#
#######################################################################

data_GIJTIF
_chemical_formula_moiety         'C22 H19 N1 O2'
_chemical_name_systematic        
'ethyl 2-(benzo[i]phenanthridin-5-yl)propanoate'
_symmetry_cell_setting           monoclinic
_symmetry_space_group_name_H-M   'P 21/n'
_symmetry_Int_Tables_number      14
_space_group_name_Hall           '-P 2yn'
loop_
_symmetry_equiv_pos_site_id
_symmetry_equiv_pos_as_xyz
1 x,y,z
2 1/2-x,1/2+y,1/2-z
3 -x,-y,-z
4 1/2+x,1/2-y,1/2+z
_cell_length_a                   12.7660(3)
_cell_length_b                   7.3952(2)
_cell_length_c                   18.2702(4)
_cell_angle_alpha                90
_cell_angle_beta                 103.067(2)
_cell_angle_gamma                90
_cell_volume                     1680.17
_exptl_crystal_colour            colorless
_exptl_crystal_description       block
_cell_formula_units_Z            4
loop_
_atom_site_label
_atom_site_type_symbol
_atom_site_fract_x
_atom_site_fract_y
_atom_site_fract_z
N1 N 0.78968(14) 0.0849(3) 0.54056(10)
O1 O 0.85487(15) 0.4419(3) 0.62886(11)
O2 O 0.94402(14) 0.2276(4) 0.70512(10)
C1 C 0.51560(16) 0.2462(3) 0.55852(11)
C2 C 0.60637(17) 0.1939(3) 0.52689(11)
C3 C 0.42104(17) 0.3141(3) 0.50949(11)
C4 C 0.71324(16) 0.1517(3) 0.56974(11)
C5 C 0.67853(17) 0.1289(3) 0.41523(11)
C6 C 0.59244(16) 0.1916(3) 0.44760(11)
C7 C 0.49443(17) 0.2542(3) 0.40077(11)
H1 H 0.4860 0.2524 0.3489
C8 C 0.33397(18) 0.3767(3) 0.53793(13)
H2 H 0.2733 0.4220 0.5049
C9 C 0.50965(17) 0.2298(3) 0.63530(12)
H3 H 0.5654 0.1721 0.6687
C10 C 0.41366(17) 0.3159(3) 0.43028(12)
H4 H 0.3517 0.3606 0.3984
C11 C 0.75594(17) 0.1948(3) 0.65325(12)
H5 H 0.7060 0.2800 0.6684
C12 C 0.77247(17) 0.0649(3) 0.46373(12)
C13 C 0.42572(19) 0.2952(3) 0.66143(13)
H6 H 0.4275 0.2884 0.7125
C14 C 0.33700(19) 0.3722(3) 0.61298(13)
H7 H 0.2807 0.4199 0.6315
C15 C 0.85527(19) -0.0118(4) 0.43452(14)
H8 H 0.9160 -0.0585 0.4670
C16 C 0.86248(19) 0.2833(4) 0.66543(13)
C17 C 0.6739(2) 0.1260(4) 0.33693(13)
H9 H 0.6142 0.1735 0.3036
C18 C 0.8470(2) -0.0183(4) 0.35840(14)
H10 H 0.9015 -0.0705 0.3392
C19 C 0.7564(2) 0.0540(4) 0.31003(13)
H11 H 0.7519 0.0531 0.2585
C20 C 0.7611(2) 0.0238(4) 0.70237(13)
H12 H 0.6924 -0.0357 0.6911
H13 H 0.7790 0.0574 0.7545
H14 H 0.8149 -0.0568 0.6921
C21 C 0.9542(3) 0.5422(8) 0.6373(2)
H15 H 0.9815 0.6131 0.6793
H16 H 1.0179 0.5018 0.6685
C22 C 1.0061(7) 0.5257(12) 0.5787(6)
H17 H 1.0345 0.4056 0.5784
H18 H 1.0637 0.6118 0.5851
H19 H 0.9558 0.5482 0.5319
C23? C 0.9507(7) 0.6775(12) 0.6026(5)
H20? H 0.9301 0.6509 0.5499
H21? H 1.0203 0.7339 0.6138
H22? H 0.8990 0.7578 0.6160
loop_
_geom_bond_atom_site_label_1
_geom_bond_atom_site_label_2
_geom_bond_site_symmetry_1
_geom_bond_site_symmetry_2
N1 C4 1_555 1_555
O1 C16 1_555 1_555
O2 C16 1_555 1_555
C1 C2 1_555 1_555
C2 C4 1_555 1_555
C3 C1 1_555 1_555
C4 C11 1_555 1_555
C5 C6 1_555 1_555
C6 C2 1_555 1_555
C7 C6 1_555 1_555
H1 C7 1_555 1_555
C8 C3 1_555 1_555
H2 C8 1_555 1_555
C9 C1 1_555 1_555
H3 C9 1_555 1_555
C10 C3 1_555 1_555
H4 C10 1_555 1_555
C11 H5 1_555 1_555
C12 N1 1_555 1_555
C13 C9 1_555 1_555
H6 C13 1_555 1_555
C14 C8 1_555 1_555
H7 C14 1_555 1_555
C15 C12 1_555 1_555
H8 C15 1_555 1_555
C16 C11 1_555 1_555
C17 C5 1_555 1_555
H9 C17 1_555 1_555
C18 C15 1_555 1_555
H10 C18 1_555 1_555
C19 C17 1_555 1_555
H11 C19 1_555 1_555
C20 C11 1_555 1_555
H12 C20 1_555 1_555
H13 C20 1_555 1_555
H14 C20 1_555 1_555
C21 O1 1_555 1_555
H15 C21 1_555 1_555
H16 C21 1_555 1_555
C22 C21 1_555 1_555
H17 C22 1_555 1_555
H18 C22 1_555 1_555
H19 C22 1_555 1_555
C5 C12 1_555 1_555
C7 C10 1_555 1_555
C13 C14 1_555 1_555
C18 C19 1_555 1_555

#END
