
#######################################################################
#
#                 Cambridge Crystallographic Data Centre
#                                CCDC 
#
#######################################################################
#
# If this CIF has been generated from an entry in the Cambridge 
# Structural Database, then it will include bibliographic, chemical, 
# crystal, experimental, refinement or atomic coordinate data resulting 
# from the CCDC's data processing and validation procedures.
#
#######################################################################

data_GIJVON
_chemical_formula_moiety         'C26 H23 N1 O4 S1'
_chemical_name_systematic        
'2-{4-[(4-methylphenyl)sulfonyl]-3-oxo-1,2,3,4,5,9b-hexahydro-2aH-cyclobuta[d][2]benzazepin-2a-yl}benzaldehyde unknown solvate'
_symmetry_cell_setting           monoclinic
_symmetry_space_group_name_H-M   'C 2/c'
_symmetry_Int_Tables_number      15
_space_group_name_Hall           '-C 2yn'
loop_
_symmetry_equiv_pos_site_id
_symmetry_equiv_pos_as_xyz
1 x,y,z
2 -x,y,1/2-z
3 1/2+x,1/2+y,z
4 1/2-x,1/2+y,1/2-z
5 -x,-y,-z
6 x,-y,1/2+z
7 1/2-x,1/2-y,-z
8 1/2+x,1/2-y,1/2+z
_cell_length_a                   20.5631(7)
_cell_length_b                   27.2351(11)
_cell_length_c                   9.3277(3)
_cell_angle_alpha                90
_cell_angle_beta                 92.0880(10)
_cell_angle_gamma                90
_cell_volume                     5220.4
_exptl_crystal_colour            colorless
_exptl_crystal_description       prismatic
_cell_formula_units_Z            8
loop_
_atom_site_label
_atom_site_type_symbol
_atom_site_fract_x
_atom_site_fract_y
_atom_site_fract_z
S1 S 0.82160(3) 0.39007(3) 0.50119(7)
O1 O 0.52705(12) 0.41324(12) 0.5598(3)
O2 O 0.71132(9) 0.35628(8) 0.6419(2)
O3 O 0.77624(11) 0.38328(11) 0.3852(2)
O4 O 0.87812(10) 0.41913(9) 0.4809(2)
N1 N 0.78310(9) 0.41823(8) 0.63616(19)
C1 C 0.57532(14) 0.41530(14) 0.6332(3)
H1 H 0.5969 0.3861 0.6550
C2 C 0.60338(12) 0.46137(12) 0.6923(3)
C3 C 0.56946(14) 0.50582(15) 0.6600(3)
H2 H 0.5322 0.5047 0.6006
C4 C 0.59000(16) 0.54983(14) 0.7137(4)
H3 H 0.5673 0.5784 0.6900
C5 C 0.64379(14) 0.55172(12) 0.8018(4)
H4 H 0.6577 0.5816 0.8400
C6 C 0.67818(13) 0.50907(11) 0.8354(3)
H5 H 0.7148 0.5112 0.8967
C7 C 0.66004(11) 0.46350(11) 0.7810(3)
C8 C 0.69896(11) 0.41773(10) 0.8236(3)
C9 C 0.73068(11) 0.39453(10) 0.6936(3)
C10 C 0.66188(14) 0.37706(12) 0.9078(3)
H6 H 0.6248 0.3893 0.9582
H7 H 0.6501 0.3486 0.8502
C11 C 0.72263(16) 0.36967(13) 1.0038(3)
H8 H 0.7501 0.3429 0.9737
H9 H 0.7138 0.3670 1.1050
C12 C 0.74665(12) 0.42062(10) 0.9593(2)
H10 H 0.7287 0.4446 1.0253
C13 C 0.81884(12) 0.42947(9) 0.9556(3)
C14 C 0.85576(15) 0.41647(12) 1.0790(3)
H11 H 0.8353 0.4028 1.1569
C15 C 0.92178(17) 0.42375(13) 1.0859(4)
H12 H 0.9457 0.4148 1.1684
C16 C 0.95283(15) 0.44395(13) 0.9730(4)
H13 H 0.9976 0.4489 0.9788
C17 C 0.91754(14) 0.45692(11) 0.8511(3)
H14 H 0.9386 0.4706 0.7742
C18 C 0.85038(12) 0.44974(9) 0.8415(3)
C19 C 0.81392(12) 0.46175(9) 0.7042(3)
H15 H 0.7806 0.4858 0.7233
H16 H 0.8437 0.4763 0.6380
C20 C 0.84537(13) 0.33258(12) 0.5681(3)
C21 C 0.88834(19) 0.32961(14) 0.6817(4)
H17 H 0.9047 0.3578 0.7261
C22 C 0.9076(2) 0.28273(18) 0.7308(6)
H18 H 0.9362 0.2801 0.8100
C23 C 0.8850(2) 0.24082(16) 0.6642(7)
C24 C 0.8432(2) 0.24536(18) 0.5574(8)
H19 H 0.8265 0.2170 0.5145
C25 C 0.82244(16) 0.29017(18) 0.5044(5)
H20 H 0.7931 0.2917 0.4263
C26 C 0.9065(3) 0.19052(17) 0.7220(9)
H21 H 0.9382 0.1767 0.6606
H22 H 0.8694 0.1691 0.7245
H23 H 0.9253 0.1942 0.8171
loop_
_geom_bond_atom_site_label_1
_geom_bond_atom_site_label_2
_geom_bond_site_symmetry_1
_geom_bond_site_symmetry_2
S1 O3 1_555 1_555
O1 C1 1_555 1_555
O2 C9 1_555 1_555
O4 S1 1_555 1_555
N1 S1 1_555 1_555
C1 H1 1_555 1_555
C2 C1 1_555 1_555
C3 C2 1_555 1_555
H2 C3 1_555 1_555
C4 C3 1_555 1_555
H3 C4 1_555 1_555
C5 C4 1_555 1_555
H4 C5 1_555 1_555
C6 C5 1_555 1_555
H5 C6 1_555 1_555
C7 C2 1_555 1_555
C8 C7 1_555 1_555
C9 N1 1_555 1_555
C10 C8 1_555 1_555
H6 C10 1_555 1_555
H7 C10 1_555 1_555
C11 C10 1_555 1_555
H8 C11 1_555 1_555
H9 C11 1_555 1_555
C12 C8 1_555 1_555
H10 C12 1_555 1_555
C13 C12 1_555 1_555
C14 C13 1_555 1_555
H11 C14 1_555 1_555
C15 C14 1_555 1_555
H12 C15 1_555 1_555
C16 C15 1_555 1_555
H13 C16 1_555 1_555
C17 C16 1_555 1_555
H14 C17 1_555 1_555
C18 C13 1_555 1_555
C19 N1 1_555 1_555
H15 C19 1_555 1_555
H16 C19 1_555 1_555
C20 S1 1_555 1_555
C21 C20 1_555 1_555
H17 C21 1_555 1_555
C22 C21 1_555 1_555
H18 C22 1_555 1_555
C23 C22 1_555 1_555
C24 C23 1_555 1_555
H19 C24 1_555 1_555
C25 C20 1_555 1_555
H20 C25 1_555 1_555
C26 C23 1_555 1_555
H21 C26 1_555 1_555
H22 C26 1_555 1_555
H23 C26 1_555 1_555
C6 C7 1_555 1_555
C8 C9 1_555 1_555
C11 C12 1_555 1_555
C17 C18 1_555 1_555
C18 C19 1_555 1_555
C24 C25 1_555 1_555

#END
