
#######################################################################
#
#                 Cambridge Crystallographic Data Centre
#                                CCDC 
#
#######################################################################
#
# If this CIF has been generated from an entry in the Cambridge 
# Structural Database, then it will include bibliographic, chemical, 
# crystal, experimental, refinement or atomic coordinate data resulting 
# from the CCDC's data processing and validation procedures.
#
#######################################################################

data_GIJWUR
_chemical_name_common            1-(1,3)Benza-4-(3,5)-2-oxacyclohexaphane
_chemical_formula_moiety         'C14 H13 N1 O1'
_chemical_name_systematic        2-Oxa(2)(1,3)benzena(2)(3,5)-pyridinophane
_symmetry_cell_setting           orthorhombic
_symmetry_space_group_name_H-M   'P 21 21 21'
_symmetry_Int_Tables_number      19
_space_group_name_Hall           'P 2ac 2ab'
loop_
_symmetry_equiv_pos_site_id
_symmetry_equiv_pos_as_xyz
1 x,y,z
2 1/2+x,1/2-y,-z
3 -x,1/2+y,1/2-z
4 1/2-x,-y,1/2+z
_cell_length_a                   5.891(4)
_cell_length_b                   7.840(3)
_cell_length_c                   23.368(13)
_cell_angle_alpha                90
_cell_angle_beta                 90
_cell_angle_gamma                90
_cell_volume                     1079.26
_exptl_crystal_colour            colorless
_cell_formula_units_Z            4
loop_
_atom_site_label
_atom_site_type_symbol
_atom_site_fract_x
_atom_site_fract_y
_atom_site_fract_z
C1 C 0.4452(5) 0.7367(3) 0.5602(1)
O1 O 0.5085(4) 0.5910(2) 0.5228(1)
C2 C 0.4667(5) 0.4363(3) 0.5494(1)
C3 C 0.2593(5) 0.3544(4) 0.5431(1)
C4 C 0.2121(5) 0.2138(4) 0.5775(1)
C5 C 0.3563(5) 0.1665(3) 0.6211(1)
C6 C 0.5658(4) 0.2475(3) 0.6277(1)
C7 C 0.6252(4) 0.3719(3) 0.5878(1)
C8 C 0.7007(5) 0.2358(3) 0.6820(1)
C9 C 0.6333(5) 0.3816(4) 0.7241(1)
C10 C 0.6678(5) 0.5543(3) 0.6963(1)
C11 C 0.8737(5) 0.6395(4) 0.6984(1)
N1 N 0.9307(4) 0.7685(3) 0.6635(1)
C12 C 0.7864(5) 0.8038(4) 0.6214(1)
C13 C 0.5748(4) 0.7296(3) 0.6151(1)
C14 C 0.5100(5) 0.6138(3) 0.6567(1)
H1 H 0.4793 0.8416 0.5408
H2 H 0.2856 0.7316 0.5683
H3 H 0.1506 0.3939 0.5155
H4 H 0.0766 0.1488 0.5707
H5 H 0.3126 0.0774 0.6471
H6 H 0.7782 0.4138 0.5868
H7 H 0.6719 0.1277 0.6999
H8 H 0.8593 0.2452 0.6732
H9 H 0.7261 0.3744 0.7578
H10 H 0.4766 0.3690 0.7345
H11 H 0.9824 0.6040 0.7266
H12 H 0.8322 0.8865 0.5934
H13 H 0.3559 0.5744 0.6583
loop_
_geom_bond_atom_site_label_1
_geom_bond_atom_site_label_2
_geom_bond_site_symmetry_1
_geom_bond_site_symmetry_2
C1 O1 1_555 1_555
O1 C2 1_555 1_555
C2 C3 1_555 1_555
C3 C4 1_555 1_555
C4 C5 1_555 1_555
C5 C6 1_555 1_555
C6 C7 1_555 1_555
C7 C2 1_555 1_555
C8 C6 1_555 1_555
C9 C8 1_555 1_555
C10 C9 1_555 1_555
C11 C10 1_555 1_555
N1 C11 1_555 1_555
C12 N1 1_555 1_555
C13 C1 1_555 1_555
C14 C10 1_555 1_555
H1 C1 1_555 1_555
H2 C1 1_555 1_555
H3 C3 1_555 1_555
H4 C4 1_555 1_555
H5 C5 1_555 1_555
H6 C7 1_555 1_555
H7 C8 1_555 1_555
H8 C8 1_555 1_555
H9 C9 1_555 1_555
H10 C9 1_555 1_555
H11 C11 1_555 1_555
H12 C12 1_555 1_555
H13 C14 1_555 1_555
C12 C13 1_555 1_555
C13 C14 1_555 1_555

#END
