
#######################################################################
#
#                 Cambridge Crystallographic Data Centre
#                                CCDC 
#
#######################################################################
#
# If this CIF has been generated from an entry in the Cambridge 
# Structural Database, then it will include bibliographic, chemical, 
# crystal, experimental, refinement or atomic coordinate data resulting 
# from the CCDC's data processing and validation procedures.
#
#######################################################################

data_GIKBIO
_chemical_formula_moiety         'C44 H26 N4 O2,C6 H14'
_chemical_name_systematic        
'2,5-bis(10H-phenoxazin-10-yl)dibenzo[a,k][3,8]phenanthroline n-hexane solvate'
_symmetry_cell_setting           monoclinic
_symmetry_space_group_name_H-M   'C 2/c'
_symmetry_Int_Tables_number      15
_space_group_name_Hall           '-C 2yn'
loop_
_symmetry_equiv_pos_site_id
_symmetry_equiv_pos_as_xyz
1 x,y,z
2 -x,y,1/2-z
3 1/2+x,1/2+y,z
4 1/2-x,1/2+y,1/2-z
5 -x,-y,-z
6 x,-y,1/2+z
7 1/2-x,1/2-y,-z
8 1/2+x,1/2-y,1/2+z
_cell_length_a                   11.28030(10)
_cell_length_b                   14.5794(2)
_cell_length_c                   22.9364(2)
_cell_angle_alpha                90
_cell_angle_beta                 97.5790(10)
_cell_angle_gamma                90
_cell_volume                     3739.17
_exptl_crystal_colour            orange
_exptl_crystal_description       block
_cell_formula_units_Z            4
loop_
_atom_site_label
_atom_site_type_symbol
_atom_site_fract_x
_atom_site_fract_y
_atom_site_fract_z
O1 O 0.61474(9) 0.67905(7) 0.56284(5)
N1 N 0.67268(10) 0.35341(8) 0.63059(5)
N2 N 0.62443(10) 0.50858(8) 0.61707(5)
C1 C 0.54063(11) 0.34321(9) 0.72803(5)
C2 C 0.67359(11) 0.27426(9) 0.66377(6)
C3 C 0.61026(11) 0.26542(9) 0.71310(5)
C4 C 0.56087(11) 0.42732(9) 0.70100(5)
C5 C 0.62261(11) 0.42547(9) 0.64952(6)
C6 C 0.52542(11) 0.51118(9) 0.72460(6)
H1 H 0.5370 0.5673 0.7051
C7 C 0.51736(12) 0.53679(10) 0.58255(6)
C8 C 0.63010(11) 0.18515(9) 0.74769(6)
H2 H 0.5945 0.1796 0.7828
C9 C 0.73220(12) 0.55047(10) 0.60566(6)
C10 C 0.74205(11) 0.20055(10) 0.64690(6)
H3 H 0.7804 0.2056 0.6126
C11 C 0.41497(12) 0.48289(10) 0.57374(6)
H4 H 0.4151 0.4238 0.5912
C12 C 0.70013(12) 0.11522(10) 0.73123(6)
H5 H 0.7124 0.0619 0.7551
C13 C 0.51517(13) 0.62244(10) 0.55518(6)
C14 C 0.72415(13) 0.63626(10) 0.57841(6)
C15 C 0.84533(12) 0.51286(11) 0.62160(6)
H6 H 0.8531 0.4545 0.6402
C16 C 0.75387(12) 0.12176(10) 0.67940(6)
H7 H 0.7982 0.0716 0.6671
C17 C 0.41449(13) 0.65334(11) 0.52015(6)
H8 H 0.4153 0.7113 0.5012
C18 C 0.31213(13) 0.51492(11) 0.53949(6)
H9 H 0.2418 0.4784 0.5346
C19 C 0.82507(14) 0.68315(11) 0.56704(6)
H10 H 0.8177 0.7413 0.5482
C20 C 0.31210(13) 0.59984(11) 0.51253(6)
H11 H 0.2421 0.6214 0.4889
C21 C 0.94700(13) 0.56029(12) 0.61045(7)
H12 H 1.0238 0.5342 0.6217
C22 C 0.93719(14) 0.64498(12) 0.58318(6)
H13 H 1.0069 0.6769 0.5755
O1A O 0.38526(9) 0.67905(7) 0.93716(5)
N1A N 0.32732(10) 0.35341(8) 0.86941(5)
N2A N 0.37557(10) 0.50858(8) 0.88293(5)
C1A C 0.45937(11) 0.34321(9) 0.77197(5)
C2A C 0.32641(11) 0.27426(9) 0.83623(6)
C3A C 0.38974(11) 0.26542(9) 0.78690(5)
C4A C 0.43913(11) 0.42732(9) 0.79900(5)
C5A C 0.37739(11) 0.42547(9) 0.85048(6)
C6A C 0.47458(11) 0.51118(9) 0.77540(6)
H1A H 0.4630 0.5673 0.7949
C7A C 0.48264(12) 0.53679(10) 0.91745(6)
C8A C 0.36990(11) 0.18515(9) 0.75231(6)
H2A H 0.4055 0.1796 0.7172
C9A C 0.26780(12) 0.55047(10) 0.89434(6)
C10A C 0.25795(11) 0.20055(10) 0.85310(6)
H3A H 0.2196 0.2056 0.8874
C11A C 0.58503(12) 0.48289(10) 0.92626(6)
H4A H 0.5849 0.4238 0.9088
C12A C 0.29987(12) 0.11522(10) 0.76877(6)
H5A H 0.2876 0.0619 0.7449
C13A C 0.48483(13) 0.62244(10) 0.94482(6)
C14A C 0.27585(13) 0.63626(10) 0.92159(6)
C15A C 0.15467(12) 0.51286(11) 0.87840(6)
H6A H 0.1469 0.4545 0.8598
C16A C 0.24613(12) 0.12176(10) 0.82060(6)
H7A H 0.2018 0.0716 0.8329
C17A C 0.58551(13) 0.65334(11) 0.97985(6)
H8A H 0.5847 0.7113 0.9988
C18A C 0.68787(13) 0.51492(11) 0.96051(6)
H9A H 0.7582 0.4784 0.9654
C19A C 0.17493(14) 0.68315(11) 0.93296(6)
H10A H 0.1823 0.7413 0.9518
C20A C 0.68790(13) 0.59984(11) 0.98747(6)
H11A H 0.7579 0.6214 1.0111
C21A C 0.05300(13) 0.56029(12) 0.88955(7)
H12A H -0.0238 0.5342 0.8783
C22A C 0.06281(14) 0.64498(12) 0.91682(6)
H13A H -0.0069 0.6769 0.9245
C23 C 0.61143(15) 0.87166(12) 0.71587(8)
H14 H 0.6703 0.8774 0.7517
H15 H 0.5626 0.9283 0.7121
C24 C 0.67791(18) 0.86320(13) 0.66258(8)
H16 H 0.6201 0.8605 0.6267
H17 H 0.7262 0.8071 0.6659
H18 H 0.7302 0.9165 0.6608
C25 C 0.53100(16) 0.79073(12) 0.72280(9)
H19 H 0.4692 0.7881 0.6879
H20 H 0.5794 0.7341 0.7229
C23A C 0.38857(15) 0.87166(12) 0.78413(8)
H14A H 0.3297 0.8774 0.7483
H15A H 0.4374 0.9283 0.7879
C24A C 0.32209(18) 0.86320(13) 0.83742(8)
H16A H 0.3799 0.8605 0.8733
H17A H 0.2738 0.8071 0.8341
H18A H 0.2698 0.9165 0.8392
C25A C 0.46900(16) 0.79073(12) 0.77720(9)
H19A H 0.5308 0.7881 0.8121
H20A H 0.4206 0.7341 0.7771
loop_
_geom_bond_atom_site_label_1
_geom_bond_atom_site_label_2
_geom_bond_site_symmetry_1
_geom_bond_site_symmetry_2
O1 C13 1_555 1_555
N1 C2 1_555 1_555
N2 C5 1_555 1_555
C1 C3 1_555 1_555
C2 C3 1_555 1_555
C3 C8 1_555 1_555
C4 C1 1_555 1_555
C5 N1 1_555 1_555
C6 C4 1_555 1_555
H1 C6 1_555 1_555
C7 N2 1_555 1_555
C8 H2 1_555 1_555
C9 N2 1_555 1_555
C10 C2 1_555 1_555
H3 C10 1_555 1_555
C11 C7 1_555 1_555
H4 C11 1_555 1_555
C12 C8 1_555 1_555
H5 C12 1_555 1_555
C13 C7 1_555 1_555
C14 O1 1_555 1_555
C15 C9 1_555 1_555
H6 C15 1_555 1_555
C16 C10 1_555 1_555
H7 C16 1_555 1_555
C17 C13 1_555 1_555
H8 C17 1_555 1_555
C18 C11 1_555 1_555
H9 C18 1_555 1_555
C19 C14 1_555 1_555
H10 C19 1_555 1_555
C20 C17 1_555 1_555
H11 C20 1_555 1_555
C21 C15 1_555 1_555
H12 C21 1_555 1_555
C22 C19 1_555 1_555
H13 C22 1_555 1_555
C23 H14 1_555 1_555
H15 C23 1_555 1_555
C24 C23 1_555 1_555
H16 C24 1_555 1_555
H17 C24 1_555 1_555
H18 C24 1_555 1_555
C25 C23 1_555 1_555
H19 C25 1_555 1_555
H20 C25 1_555 1_555
O1A C13A 1_555 1_555
N1A C2A 1_555 1_555
N2A C5A 1_555 1_555
C1A C1 1_555 1_555
C2A C3A 1_555 1_555
C3A C1A 1_555 1_555
C4A C1A 1_555 1_555
C5A N1A 1_555 1_555
C6A C6 1_555 1_555
H1A C6A 1_555 1_555
C7A N2A 1_555 1_555
C8A C3A 1_555 1_555
H2A C8A 1_555 1_555
C9A N2A 1_555 1_555
C10A C2A 1_555 1_555
H3A C10A 1_555 1_555
C11A C7A 1_555 1_555
H4A C11A 1_555 1_555
C12A C8A 1_555 1_555
H5A C12A 1_555 1_555
C13A C7A 1_555 1_555
C14A O1A 1_555 1_555
C15A C9A 1_555 1_555
H6A C15A 1_555 1_555
C16A C10A 1_555 1_555
H7A C16A 1_555 1_555
C17A C13A 1_555 1_555
H8A C17A 1_555 1_555
C18A C11A 1_555 1_555
H9A C18A 1_555 1_555
C19A C14A 1_555 1_555
H10A C19A 1_555 1_555
C20A C17A 1_555 1_555
H11A C20A 1_555 1_555
C21A C15A 1_555 1_555
H12A C21A 1_555 1_555
C22A C19A 1_555 1_555
H13A C22A 1_555 1_555
C23A H14A 1_555 1_555
H15A C23A 1_555 1_555
C24A C23A 1_555 1_555
H16A C24A 1_555 1_555
H17A C24A 1_555 1_555
H18A C24A 1_555 1_555
C25A C25 1_555 1_555
H19A C25A 1_555 1_555
H20A C25A 1_555 1_555
C4 C5 1_555 1_555
C9 C14 1_555 1_555
C12 C16 1_555 1_555
C18 C20 1_555 1_555
C21 C22 1_555 1_555
C4A C5A 1_555 1_555
C4A C6A 1_555 1_555
C9A C14A 1_555 1_555
C12A C16A 1_555 1_555
C18A C20A 1_555 1_555
C21A C22A 1_555 1_555
C23A C25A 1_555 1_555

#END
