
#######################################################################
#
#                 Cambridge Crystallographic Data Centre
#                                CCDC 
#
#######################################################################
#
# If this CIF has been generated from an entry in the Cambridge 
# Structural Database, then it will include bibliographic, chemical, 
# crystal, experimental, refinement or atomic coordinate data resulting 
# from the CCDC's data processing and validation procedures.
#
#######################################################################

data_GIKBUA
_chemical_formula_moiety         'C33 H20 N2 O1'
_chemical_name_systematic        
2-(10H-phenoxazin-10-yl)naphtho[2,1-k]phenanthridine
_symmetry_cell_setting           triclinic
_symmetry_space_group_name_H-M   'P -1'
_symmetry_Int_Tables_number      2
_space_group_name_Hall           '-P 1'
loop_
_symmetry_equiv_pos_site_id
_symmetry_equiv_pos_as_xyz
1 x,y,z
2 -x,-y,-z
_cell_length_a                   14.2418(2)
_cell_length_b                   14.2451(2)
_cell_length_c                   22.5117(2)
_cell_angle_alpha                88.0520(10)
_cell_angle_beta                 92.0040(10)
_cell_angle_gamma                101.8250(10)
_cell_volume                     4465.74
_exptl_crystal_colour            yellow
_exptl_crystal_description       block
_cell_formula_units_Z            8
loop_
_atom_site_label
_atom_site_type_symbol
_atom_site_fract_x
_atom_site_fract_y
_atom_site_fract_z
O1 O 0.31591(16) 0.16220(13) 0.58535(8)
N1 N 0.34993(17) 0.35121(15) 0.62317(9)
N2 N 0.46080(16) 0.48132(16) 0.65966(8)
C1 C 0.34749(18) 0.27625(18) 0.66556(10)
C2 C 0.35833(18) 0.29003(19) 0.72638(10)
H1 H 0.3707 0.3533 0.7410
C3 C 0.3512(2) 0.2123(2) 0.76598(12)
H2 H 0.3582 0.2228 0.8075
C4 C 0.3341(2) 0.1198(2) 0.74550(12)
H3 H 0.3296 0.0669 0.7728
C5 C 0.3233(2) 0.1046(2) 0.68458(12)
H4 H 0.3118 0.0412 0.6702
C6 C 0.32941(19) 0.18199(19) 0.64506(11)
C7 C 0.34329(19) 0.23728(18) 0.54533(11)
C8 C 0.3516(2) 0.21535(19) 0.48683(11)
H5 H 0.3394 0.1502 0.4755
C9 C 0.3778(2) 0.28827(19) 0.44432(11)
H6 H 0.3828 0.2734 0.4039
C10 C 0.39648(19) 0.3823(2) 0.46157(11)
H7 H 0.4150 0.4326 0.4329
C11 C 0.38845(19) 0.40403(18) 0.52047(10)
H8 H 0.4021 0.4692 0.5317
C12 C 0.36109(19) 0.33310(18) 0.56302(11)
C13 C 0.37446(18) 0.44891(18) 0.64039(9)
C14 C 0.30152(18) 0.50490(19) 0.63124(10)
C15 C 0.20250(19) 0.4597(2) 0.62361(11)
H9 H 0.1832 0.3919 0.6229
C16 C 0.13635(19) 0.5174(2) 0.61734(12)
H10 H 0.0700 0.4891 0.6191
C17 C 0.1641(2) 0.6170(2) 0.60847(12)
C18 C 0.0948(2) 0.6767(2) 0.59601(13)
H11 H 0.0284 0.6496 0.5990
C19 C 0.1226(2) 0.7709(2) 0.58017(13)
H12 H 0.0755 0.8094 0.5754
C20 C 0.2193(2) 0.8127(2) 0.57065(12)
C21 C 0.2488(2) 0.9094(2) 0.54613(12)
H13 H 0.2028 0.9489 0.5402
C22 C 0.3404(3) 0.9436(2) 0.53173(14)
H14 H 0.3588 1.0079 0.5171
C23 C 0.4093(2) 0.8864(2) 0.53784(12)
H15 H 0.4727 0.9101 0.5249
C24 C 0.3843(2) 0.79549(19) 0.56277(11)
H16 H 0.4314 0.7570 0.5669
C25 C 0.2911(2) 0.7581(2) 0.58217(11)
C26 C 0.26270(19) 0.66183(19) 0.60887(11)
C27 C 0.32925(18) 0.60450(18) 0.63191(10)
C28 C 0.42213(18) 0.64164(18) 0.66071(10)
C29 C 0.4500(2) 0.73526(19) 0.68257(10)
H17 H 0.4090 0.7797 0.6757
C30 C 0.5356(2) 0.76334(19) 0.71379(10)
H18 H 0.5527 0.8268 0.7280
C31 C 0.59830(19) 0.6997(2) 0.72502(11)
H19 H 0.6578 0.7203 0.7457
C32 C 0.57231(18) 0.6077(2) 0.70571(11)
H20 H 0.6141 0.5642 0.7130
C33 C 0.48338(18) 0.57692(19) 0.67496(10)
O2 O 0.15470(15) 0.33947(13) 0.40520(8)
N3 N 0.13666(16) 0.14800(15) 0.37312(8)
N4 N 0.03411(16) 0.00869(16) 0.34069(8)
C34 C 0.12228(18) 0.16933(18) 0.43219(10)
C35 C 0.10032(18) 0.09974(18) 0.47678(10)
H21 H 0.0933 0.0340 0.4676
C36 C 0.0884(2) 0.1245(2) 0.53488(11)
H22 H 0.0752 0.0762 0.5653
C37 C 0.0959(2) 0.2205(2) 0.54831(11)
H23 H 0.0868 0.2378 0.5878
C38 C 0.1168(2) 0.29062(19) 0.50378(11)
H24 H 0.1214 0.3561 0.5127
C39 C 0.13099(19) 0.26583(18) 0.44658(11)
C40 C 0.14683(19) 0.31498(19) 0.34566(11)
C41 C 0.1514(2) 0.3887(2) 0.30415(12)
H25 H 0.1591 0.4529 0.3167
C42 C 0.1448(2) 0.3693(2) 0.24389(12)
H26 H 0.1485 0.4201 0.2150
C43 C 0.1329(2) 0.2759(2) 0.22641(12)
H27 H 0.1273 0.2620 0.1853
C44 C 0.12901(19) 0.2018(2) 0.26854(11)
H28 H 0.1212 0.1377 0.2558
C45 C 0.13634(18) 0.21970(18) 0.32870(10)
C46 C 0.11972(17) 0.04910(18) 0.35759(10)
C47 C 0.19984(18) 0.00179(19) 0.36378(10)
C48 C 0.29552(19) 0.05673(19) 0.36703(11)
H29 H 0.3071 0.1247 0.3683
C49 C 0.36994(19) 0.0100(2) 0.36823(11)
H30 H 0.4334 0.0456 0.3632
C50 C 0.35429(19) -0.0903(2) 0.37672(11)
C51 C 0.4357(2) -0.1348(2) 0.38211(12)
H31 H 0.4981 -0.0980 0.3754
C52 C 0.4237(2) -0.2287(2) 0.39675(13)
H32 H 0.4772 -0.2591 0.3967
C53 C 0.3326(2) -0.2831(2) 0.41224(12)
C54 C 0.3234(2) -0.3776(2) 0.43569(13)
H33 H 0.3777 -0.4069 0.4380
C55 C 0.2383(2) -0.4263(2) 0.45475(13)
H34 H 0.2331 -0.4902 0.4698
C56 C 0.1564(2) -0.3844(2) 0.45293(12)
H35 H 0.0974 -0.4191 0.4680
C57 C 0.1627(2) -0.29290(19) 0.42916(11)
H36 H 0.1082 -0.2641 0.4286
C58 C 0.2490(2) -0.24203(19) 0.40578(11)
C59 C 0.25919(19) -0.14566(19) 0.38105(11)
C60 C 0.18143(18) -0.09827(18) 0.36288(10)
C61 C 0.08851(18) -0.14452(18) 0.33702(10)
C62 C 0.06845(19) -0.23832(19) 0.31540(10)
H37 H 0.1150 -0.2773 0.3205
C63 C -0.01805(19) -0.2744(2) 0.28684(11)
H38 H -0.0305 -0.3382 0.2731
C64 C -0.08738(19) -0.2187(2) 0.27779(11)
H39 H -0.1470 -0.2449 0.2586
C65 C -0.06946(19) -0.1258(2) 0.29664(11)
H40 H -0.1166 -0.0877 0.2903
C66 C 0.01902(18) -0.08691(18) 0.32539(10)
O3 O 0.84141(13) 0.15056(15) 0.09712(8)
N5 N 0.64900(15) 0.13707(17) 0.12724(8)
N6 N 0.50963(15) 0.03377(15) 0.15874(8)
C67 C 0.67133(17) 0.12198(18) 0.06851(10)
C68 C 0.60032(18) 0.09919(19) 0.02347(10)
H41 H 0.5345 0.0925 0.0324
C69 C 0.6266(2) 0.0865(2) -0.03428(11)
H42 H 0.5787 0.0737 -0.0650
C70 C 0.7222(2) 0.0924(2) -0.04716(11)
H43 H 0.7396 0.0832 -0.0866
C71 C 0.79276(19) 0.11186(19) -0.00216(12)
H44 H 0.8581 0.1142 -0.0106
C72 C 0.76727(18) 0.12767(19) 0.05426(11)
C73 C 0.81545(18) 0.14578(19) 0.15559(11)
C74 C 0.8886(2) 0.1495(2) 0.19799(12)
H45 H 0.9526 0.1535 0.1860
C75 C 0.8691(2) 0.1474(2) 0.25791(12)
H46 H 0.9195 0.1506 0.2870
C76 C 0.7754(2) 0.1404(2) 0.27513(12)
H47 H 0.7614 0.1393 0.3161
C77 C 0.70139(19) 0.13502(19) 0.23218(11)
H48 H 0.6371 0.1289 0.2442
C78 C 0.72118(17) 0.13853(17) 0.17218(10)
C79 C 0.55014(17) 0.12079(19) 0.14260(10)
C80 C 0.50344(18) 0.20030(19) 0.13599(10)
C81 C 0.55674(19) 0.29511(19) 0.13315(11)
H49 H 0.6248 0.3066 0.1328
C82 C 0.51152(19) 0.36980(19) 0.13096(11)
H50 H 0.5473 0.4332 0.1361
C83 C 0.4108(2) 0.35377(19) 0.12100(11)
C84 C 0.3659(2) 0.4348(2) 0.11458(11)
H51 H 0.4025 0.4973 0.1215
C85 C 0.2721(2) 0.42319(19) 0.09874(12)
H52 H 0.2421 0.4769 0.0979
C86 C 0.21790(19) 0.3321(2) 0.08343(11)
C87 C 0.1238(2) 0.3218(2) 0.05917(12)
H53 H 0.0949 0.3762 0.0559
C88 C 0.0736(2) 0.2356(2) 0.04042(12)
H54 H 0.0094 0.2299 0.0258
C89 C 0.1167(2) 0.1551(2) 0.04258(12)
H55 H 0.0830 0.0960 0.0271
C90 C 0.20766(19) 0.1618(2) 0.06708(11)
H56 H 0.2362 0.1071 0.0681
C91 C 0.25903(18) 0.2480(2) 0.09056(10)
C92 C 0.35613(18) 0.25964(19) 0.11643(10)
C93 C 0.40181(17) 0.18077(18) 0.13536(10)
C94 C 0.35632(17) 0.08835(18) 0.16050(9)
C95 C 0.26092(18) 0.06663(19) 0.18087(10)
H57 H 0.2216 0.1128 0.1750
C96 C 0.2242(2) -0.0196(2) 0.20889(11)
H58 H 0.1602 -0.0321 0.2223
C97 C 0.2801(2) -0.0889(2) 0.21779(11)
H59 H 0.2536 -0.1491 0.2360
C98 C 0.3741(2) -0.06976(19) 0.20006(11)
H60 H 0.4122 -0.1170 0.2063
C99 C 0.41389(18) 0.01898(17) 0.17290(10)
O4 O 0.66268(13) 0.30989(15) -0.08561(8)
N7 N 0.85165(15) 0.35121(16) -0.12396(8)
N8 N 0.98234(15) 0.46269(15) -0.16052(8)
C100 C 0.83283(17) 0.35987(18) -0.06331(10)
C101 C 0.90623(18) 0.38929(19) -0.02045(10)
H61 H 0.9713 0.4047 -0.0319
C102 C 0.88385(19) 0.3958(2) 0.03862(11)
H62 H 0.9340 0.4142 0.0675
C103 C 0.78976(19) 0.3759(2) 0.05593(11)
H63 H 0.7749 0.3818 0.0963
C104 C 0.71644(18) 0.3469(2) 0.01342(11)
H64 H 0.6514 0.3320 0.0250
C105 C 0.73836(18) 0.34009(19) -0.04502(11)
C106 C 0.68185(18) 0.33042(18) -0.14544(10)
C107 C 0.60366(19) 0.3257(2) -0.18427(12)
H65 H 0.5404 0.3106 -0.1697
C108 C 0.6182(2) 0.3432(2) -0.24502(12)
H66 H 0.5649 0.3402 -0.2720
C109 C 0.7112(2) 0.3649(2) -0.26570(12)
H67 H 0.7213 0.3762 -0.3070
C110 C 0.7898(2) 0.37038(19) -0.22639(11)
H68 H 0.8532 0.3864 -0.2408
C111 C 0.77525(17) 0.35219(17) -0.16575(10)
C112 C 0.94919(17) 0.37501(19) -0.14137(10)
C113 C 1.00404(18) 0.30193(19) -0.13248(10)
C114 C 0.96098(19) 0.20433(19) -0.12401(11)
H69 H 0.8932 0.1851 -0.1220
C115 C 1.0175(2) 0.1375(2) -0.11872(12)
H70 H 0.9888 0.0712 -0.1200
C116 C 1.1187(2) 0.1659(2) -0.11128(11)
C117 C 1.1780(2) 0.0965(2) -0.10014(12)
H71 H 1.1506 0.0302 -0.1033
C118 C 1.2736(2) 0.1244(3) -0.08509(12)
H72 H 1.3123 0.0774 -0.0814
C119 C 1.3153(2) 0.2204(2) -0.07500(12)
C120 C 1.4118(2) 0.2492(2) -0.05091(12)
H73 H 1.4511 0.2029 -0.0458
C121 C 1.4471(2) 0.3401(3) -0.03558(13)
H74 H 1.5115 0.3581 -0.0210
C122 C 1.38899(19) 0.4085(2) -0.04103(11)
H75 H 1.4127 0.4716 -0.0275
C123 C 1.29796(19) 0.3848(2) -0.06576(11)
H76 H 1.2598 0.4323 -0.0692
C124 C 1.25944(19) 0.2916(2) -0.08619(10)
C125 C 1.1621(2) 0.2637(2) -0.11156(11)
C126 C 1.10532(18) 0.33093(18) -0.13367(10)
C127 C 1.14136(17) 0.42267(18) -0.16270(9)
C128 C 1.23554(18) 0.45049(19) -0.18511(10)
H77 H 1.2801 0.4098 -0.1780
C129 C 1.26322(19) 0.5357(2) -0.21701(11)
H78 H 1.3261 0.5523 -0.2321
C130 C 1.1997(2) 0.59739(19) -0.22719(11)
H79 H 1.2201 0.6570 -0.2478
C131 C 1.1074(2) 0.57216(19) -0.20739(11)
H80 H 1.0642 0.6142 -0.2146
C132 C 1.07701(18) 0.48427(18) -0.17651(10)
loop_
_geom_bond_atom_site_label_1
_geom_bond_atom_site_label_2
_geom_bond_site_symmetry_1
_geom_bond_site_symmetry_2
O1 C6 1_555 1_555
N1 C1 1_555 1_555
N2 C13 1_555 1_555
C1 C2 1_555 1_555
C2 H1 1_555 1_555
C3 C2 1_555 1_555
H2 C3 1_555 1_555
C4 C3 1_555 1_555
H3 C4 1_555 1_555
C5 C4 1_555 1_555
H4 C5 1_555 1_555
C6 C1 1_555 1_555
C7 O1 1_555 1_555
C8 C7 1_555 1_555
H5 C8 1_555 1_555
C9 C8 1_555 1_555
H6 C9 1_555 1_555
C10 C9 1_555 1_555
H7 C10 1_555 1_555
C11 C10 1_555 1_555
H8 C11 1_555 1_555
C12 N1 1_555 1_555
C13 N1 1_555 1_555
C14 C13 1_555 1_555
C15 C14 1_555 1_555
H9 C15 1_555 1_555
C16 C15 1_555 1_555
H10 C16 1_555 1_555
C17 C16 1_555 1_555
C18 C17 1_555 1_555
H11 C18 1_555 1_555
C19 C18 1_555 1_555
H12 C19 1_555 1_555
C20 C19 1_555 1_555
C21 C20 1_555 1_555
H13 C21 1_555 1_555
C22 C21 1_555 1_555
H14 C22 1_555 1_555
C23 C22 1_555 1_555
H15 C23 1_555 1_555
C24 C23 1_555 1_555
H16 C24 1_555 1_555
C25 C20 1_555 1_555
C26 C17 1_555 1_555
C27 C14 1_555 1_555
C28 C27 1_555 1_555
C29 C28 1_555 1_555
H17 C29 1_555 1_555
C30 C29 1_555 1_555
H18 C30 1_555 1_555
C31 C30 1_555 1_555
H19 C31 1_555 1_555
C32 C31 1_555 1_555
H20 C32 1_555 1_555
C33 N2 1_555 1_555
O2 C39 1_555 1_555
N3 C34 1_555 1_555
N4 C46 1_555 1_555
C34 C35 1_555 1_555
C35 H21 1_555 1_555
C36 C35 1_555 1_555
H22 C36 1_555 1_555
C37 C36 1_555 1_555
H23 C37 1_555 1_555
C38 C37 1_555 1_555
H24 C38 1_555 1_555
C39 C34 1_555 1_555
C40 O2 1_555 1_555
C41 C40 1_555 1_555
H25 C41 1_555 1_555
C42 C41 1_555 1_555
H26 C42 1_555 1_555
C43 C42 1_555 1_555
H27 C43 1_555 1_555
C44 C43 1_555 1_555
H28 C44 1_555 1_555
C45 N3 1_555 1_555
C46 N3 1_555 1_555
C47 C46 1_555 1_555
C48 C47 1_555 1_555
H29 C48 1_555 1_555
C49 C48 1_555 1_555
H30 C49 1_555 1_555
C50 C49 1_555 1_555
C51 C50 1_555 1_555
H31 C51 1_555 1_555
C52 C51 1_555 1_555
H32 C52 1_555 1_555
C53 C52 1_555 1_555
C54 C53 1_555 1_555
H33 C54 1_555 1_555
C55 C54 1_555 1_555
H34 C55 1_555 1_555
C56 C55 1_555 1_555
H35 C56 1_555 1_555
C57 C56 1_555 1_555
H36 C57 1_555 1_555
C58 C53 1_555 1_555
C59 C50 1_555 1_555
C60 C47 1_555 1_555
C61 C60 1_555 1_555
C62 C61 1_555 1_555
H37 C62 1_555 1_555
C63 C62 1_555 1_555
H38 C63 1_555 1_555
C64 C63 1_555 1_555
H39 C64 1_555 1_555
C65 C64 1_555 1_555
H40 C65 1_555 1_555
C66 N4 1_555 1_555
O3 C72 1_555 1_555
N5 C67 1_555 1_555
N6 C79 1_555 1_555
C67 C68 1_555 1_555
C68 H41 1_555 1_555
C69 C68 1_555 1_555
H42 C69 1_555 1_555
C70 C69 1_555 1_555
H43 C70 1_555 1_555
C71 C70 1_555 1_555
H44 C71 1_555 1_555
C72 C67 1_555 1_555
C73 O3 1_555 1_555
C74 C73 1_555 1_555
H45 C74 1_555 1_555
C75 C74 1_555 1_555
H46 C75 1_555 1_555
C76 C75 1_555 1_555
H47 C76 1_555 1_555
C77 C76 1_555 1_555
H48 C77 1_555 1_555
C78 N5 1_555 1_555
C79 N5 1_555 1_555
C80 C79 1_555 1_555
C81 C80 1_555 1_555
H49 C81 1_555 1_555
C82 C81 1_555 1_555
H50 C82 1_555 1_555
C83 C82 1_555 1_555
C84 C83 1_555 1_555
H51 C84 1_555 1_555
C85 C84 1_555 1_555
H52 C85 1_555 1_555
C86 C85 1_555 1_555
C87 C86 1_555 1_555
H53 C87 1_555 1_555
C88 C87 1_555 1_555
H54 C88 1_555 1_555
C89 C88 1_555 1_555
H55 C89 1_555 1_555
C90 C89 1_555 1_555
H56 C90 1_555 1_555
C91 C86 1_555 1_555
C92 C83 1_555 1_555
C93 C80 1_555 1_555
C94 C93 1_555 1_555
C95 C94 1_555 1_555
H57 C95 1_555 1_555
C96 C95 1_555 1_555
H58 C96 1_555 1_555
C97 C96 1_555 1_555
H59 C97 1_555 1_555
C98 C97 1_555 1_555
H60 C98 1_555 1_555
C99 N6 1_555 1_555
O4 C105 1_555 1_555
N7 C100 1_555 1_555
N8 C112 1_555 1_555
C100 C101 1_555 1_555
C101 H61 1_555 1_555
C102 C101 1_555 1_555
H62 C102 1_555 1_555
C103 C102 1_555 1_555
H63 C103 1_555 1_555
C104 C103 1_555 1_555
H64 C104 1_555 1_555
C105 C100 1_555 1_555
C106 O4 1_555 1_555
C107 C106 1_555 1_555
H65 C107 1_555 1_555
C108 C107 1_555 1_555
H66 C108 1_555 1_555
C109 C108 1_555 1_555
H67 C109 1_555 1_555
C110 C109 1_555 1_555
H68 C110 1_555 1_555
C111 N7 1_555 1_555
C112 N7 1_555 1_555
C113 C112 1_555 1_555
C114 C113 1_555 1_555
H69 C114 1_555 1_555
C115 C114 1_555 1_555
H70 C115 1_555 1_555
C116 C115 1_555 1_555
C117 C116 1_555 1_555
H71 C117 1_555 1_555
C118 C117 1_555 1_555
H72 C118 1_555 1_555
C119 C118 1_555 1_555
C120 C119 1_555 1_555
H73 C120 1_555 1_555
C121 C120 1_555 1_555
H74 C121 1_555 1_555
C122 C121 1_555 1_555
H75 C122 1_555 1_555
C123 C122 1_555 1_555
H76 C123 1_555 1_555
C124 C119 1_555 1_555
C125 C116 1_555 1_555
C126 C113 1_555 1_555
C127 C126 1_555 1_555
C128 C127 1_555 1_555
H77 C128 1_555 1_555
C129 C128 1_555 1_555
H78 C129 1_555 1_555
C130 C129 1_555 1_555
H79 C130 1_555 1_555
C131 C130 1_555 1_555
H80 C131 1_555 1_555
C132 N8 1_555 1_555
C5 C6 1_555 1_555
C7 C12 1_555 1_555
C11 C12 1_555 1_555
C24 C25 1_555 1_555
C25 C26 1_555 1_555
C26 C27 1_555 1_555
C28 C33 1_555 1_555
C32 C33 1_555 1_555
C38 C39 1_555 1_555
C40 C45 1_555 1_555
C44 C45 1_555 1_555
C57 C58 1_555 1_555
C58 C59 1_555 1_555
C59 C60 1_555 1_555
C61 C66 1_555 1_555
C65 C66 1_555 1_555
C71 C72 1_555 1_555
C73 C78 1_555 1_555
C77 C78 1_555 1_555
C90 C91 1_555 1_555
C91 C92 1_555 1_555
C92 C93 1_555 1_555
C94 C99 1_555 1_555
C98 C99 1_555 1_555
C104 C105 1_555 1_555
C106 C111 1_555 1_555
C110 C111 1_555 1_555
C123 C124 1_555 1_555
C124 C125 1_555 1_555
C125 C126 1_555 1_555
C127 C132 1_555 1_555
C131 C132 1_555 1_555

#END
