
#######################################################################
#
#                 Cambridge Crystallographic Data Centre
#                                CCDC 
#
#######################################################################
#
# If this CIF has been generated from an entry in the Cambridge 
# Structural Database, then it will include bibliographic, chemical, 
# crystal, experimental, refinement or atomic coordinate data resulting 
# from the CCDC's data processing and validation procedures.
#
#######################################################################

data_GIKDEK
_chemical_formula_moiety         'C29 H19 N1 O2,C3 H6 O1'
_chemical_name_systematic        
'1-Oxo-13c-(7-methyl-3-indolyl)-1,13c-dihydrodibenzo(a,kl)xanthene acetone solvate'
_symmetry_cell_setting           triclinic
_symmetry_space_group_name_H-M   'P -1'
_symmetry_Int_Tables_number      2
_space_group_name_Hall           '-P 1'
loop_
_symmetry_equiv_pos_site_id
_symmetry_equiv_pos_as_xyz
1 x,y,z
2 -x,-y,-z
_cell_length_a                   9.7116(16)
_cell_length_b                   10.9061(18)
_cell_length_c                   11.572(2)
_cell_angle_alpha                95.996(5)
_cell_angle_beta                 101.305(5)
_cell_angle_gamma                96.887(5)
_cell_volume                     1182.85
_exptl_crystal_colour            yellow
_exptl_crystal_description       block
_cell_formula_units_Z            2
loop_
_atom_site_label
_atom_site_type_symbol
_atom_site_fract_x
_atom_site_fract_y
_atom_site_fract_z
O1 O 0.28917(10) 0.41629(10) 0.06601(8)
O2 O -0.01671(10) 0.54358(9) 0.32409(9)
N1 N 0.16971(12) 0.17592(11) 0.48072(10)
H1 H 0.1486 0.1434 0.5426
C1 C 0.14453(14) 0.38429(12) 0.05672(12)
C2 C 0.08005(14) 0.37852(12) 0.15223(11)
C3 C 0.16667(14) 0.42162(12) 0.27856(11)
C4 C 0.31353(14) 0.48818(12) 0.27420(12)
C5 C 0.36932(15) 0.47513(13) 0.17347(12)
C6 C 0.07028(16) 0.35500(13) -0.06225(12)
H2 H 0.1193 0.3626 -0.1251
C7 C -0.07111(16) 0.31595(13) -0.08674(12)
H3 H -0.1217 0.2992 -0.1670
C8 C -0.14449(15) 0.29973(13) 0.00647(12)
C9 C -0.29125(16) 0.25498(14) -0.01886(14)
H4 H -0.3421 0.2399 -0.0991
C10 C -0.36137(17) 0.23306(16) 0.07006(15)
H5 H -0.4604 0.2042 0.0519
C11 C -0.28568(16) 0.25351(15) 0.18835(14)
H6 H -0.3333 0.2352 0.2502
C12 C -0.14468(15) 0.29938(13) 0.21575(13)
H7 H -0.0961 0.3126 0.2967
C13 C -0.06829(14) 0.32799(12) 0.12670(12)
C14 C 0.10161(14) 0.51648(12) 0.35383(12)
C15 C 0.19587(16) 0.57411(13) 0.46734(13)
H8 H 0.1564 0.5959 0.5343
C16 C 0.33529(15) 0.59582(13) 0.47672(13)
H9 H 0.3947 0.6329 0.5504
C17 C 0.39833(15) 0.56351(13) 0.37545(13)
C18 C 0.53706(16) 0.61256(14) 0.37560(14)
H10 H 0.5935 0.6632 0.4443
C19 C 0.59374(16) 0.58809(16) 0.27605(15)
H11 H 0.6905 0.6173 0.2784
C20 C 0.50975(16) 0.52146(15) 0.17391(14)
H12 H 0.5469 0.5071 0.1044
C21 C 0.18550(13) 0.30976(12) 0.34747(12)
C22 C 0.13775(14) 0.28761(13) 0.44836(12)
H13 H 0.0893 0.3423 0.4898
C23 C 0.23994(14) 0.12255(13) 0.40123(12)
C24 C 0.29152(16) 0.00757(13) 0.39957(14)
C25 C 0.35657(18) -0.02317(14) 0.30722(16)
H14 H 0.3938 -0.0998 0.3024
C26 C 0.36978(17) 0.05507(15) 0.21979(15)
H15 H 0.4147 0.0296 0.1572
C27 C 0.31914(15) 0.16790(13) 0.22263(13)
H16 H 0.3292 0.2201 0.1632
C28 C 0.25240(14) 0.20392(12) 0.31520(12)
C29 C 0.2730(2) -0.07537(16) 0.49275(17)
H17 H 0.3187 -0.1494 0.4793
H18 H 0.1716 -0.1008 0.4882
H19 H 0.3166 -0.0300 0.5716
O3 O 0.08574(15) 0.09547(14) 0.68898(11)
C30 C 0.13984(18) 0.07612(14) 0.78763(14)
C31 C 0.0523(2) 0.01981(17) 0.86584(16)
H20 H -0.0484 0.0129 0.8283
H21 H 0.0711 0.0727 0.9427
H22 H 0.0765 -0.0632 0.8781
C32 C 0.2949(2) 0.1090(2) 0.8364(2)
H23 H 0.3427 0.1313 0.7728
H24 H 0.3322 0.0375 0.8693
H25 H 0.3120 0.1800 0.8993
loop_
_geom_bond_atom_site_label_1
_geom_bond_atom_site_label_2
_geom_bond_site_symmetry_1
_geom_bond_site_symmetry_2
O1 C1 1_555 1_555
O2 C14 1_555 1_555
N1 H1 1_555 1_555
C1 C2 1_555 1_555
C2 C3 1_555 1_555
C3 C4 1_555 1_555
C4 C5 1_555 1_555
C5 O1 1_555 1_555
C6 C1 1_555 1_555
H2 C6 1_555 1_555
C7 C6 1_555 1_555
H3 C7 1_555 1_555
C8 C7 1_555 1_555
C9 C8 1_555 1_555
H4 C9 1_555 1_555
C10 C9 1_555 1_555
H5 C10 1_555 1_555
C11 C10 1_555 1_555
H6 C11 1_555 1_555
C12 C11 1_555 1_555
H7 C12 1_555 1_555
C13 C2 1_555 1_555
C14 C3 1_555 1_555
C15 C14 1_555 1_555
H8 C15 1_555 1_555
C16 C15 1_555 1_555
H9 C16 1_555 1_555
C17 C4 1_555 1_555
C18 C17 1_555 1_555
H10 C18 1_555 1_555
C19 C18 1_555 1_555
H11 C19 1_555 1_555
C20 C5 1_555 1_555
H12 C20 1_555 1_555
C21 C3 1_555 1_555
C22 N1 1_555 1_555
H13 C22 1_555 1_555
C23 N1 1_555 1_555
C24 C23 1_555 1_555
C25 C24 1_555 1_555
H14 C25 1_555 1_555
C26 C25 1_555 1_555
H15 C26 1_555 1_555
C27 C26 1_555 1_555
H16 C27 1_555 1_555
C28 C21 1_555 1_555
C29 C24 1_555 1_555
H17 C29 1_555 1_555
H18 C29 1_555 1_555
H19 C29 1_555 1_555
O3 C30 1_555 1_555
C30 C31 1_555 1_555
C31 H20 1_555 1_555
H21 C31 1_555 1_555
H22 C31 1_555 1_555
C32 C30 1_555 1_555
H23 C32 1_555 1_555
H24 C32 1_555 1_555
H25 C32 1_555 1_555
C8 C13 1_555 1_555
C12 C13 1_555 1_555
C16 C17 1_555 1_555
C19 C20 1_555 1_555
C21 C22 1_555 1_555
C23 C28 1_555 1_555
C27 C28 1_555 1_555

#END
