
#######################################################################
#
#                 Cambridge Crystallographic Data Centre
#                                CCDC 
#
#######################################################################
#
# If this CIF has been generated from an entry in the Cambridge 
# Structural Database, then it will include bibliographic, chemical, 
# crystal, experimental, refinement or atomic coordinate data resulting 
# from the CCDC's data processing and validation procedures.
#
#######################################################################

data_GIKHIT
_chemical_formula_moiety         'C16 H16 N2 O2'
_chemical_name_systematic        
'Ethyl 2-ethyl-2H-azuleno[8,1-cd]pyridazine-5-carboxylate'
_symmetry_cell_setting           monoclinic
_symmetry_space_group_name_H-M   'P 21/c'
_symmetry_Int_Tables_number      14
_space_group_name_Hall           '-P 2ybc'
loop_
_symmetry_equiv_pos_site_id
_symmetry_equiv_pos_as_xyz
1 x,y,z
2 -x,1/2+y,1/2-z
3 -x,-y,-z
4 x,1/2-y,1/2+z
_cell_length_a                   10.4209(2)
_cell_length_b                   14.9495(2)
_cell_length_c                   9.3605(2)
_cell_angle_alpha                90
_cell_angle_beta                 110.4120(10)
_cell_angle_gamma                90
_cell_volume                     1366.68
_exptl_crystal_colour            black
_cell_formula_units_Z            4
loop_
_atom_site_label
_atom_site_type_symbol
_atom_site_fract_x
_atom_site_fract_y
_atom_site_fract_z
O1 O 1.18405(14) 0.01388(8) 0.15477(15)
O2 O 1.11064(14) -0.12710(9) 0.14622(16)
N1 N 0.75756(16) 0.15146(9) 0.46049(17)
N2 N 0.69816(16) 0.07100(10) 0.47260(17)
C1 C 1.3817(2) 0.06188(17) 0.1094(3)
H1 H 1.3279 0.1049 0.0371
H2 H 1.4578 0.0434 0.0811
H3 H 1.4150 0.0883 0.2091
C2 C 1.2959(2) -0.01692(13) 0.1108(3)
H4 H 1.2613 -0.0441 0.0105
H5 H 1.3494 -0.0612 0.1829
C3 C 1.0993(2) -0.04876(14) 0.1743(2)
C4 C 1.00045(18) -0.01075(11) 0.23503(19)
C5 C 0.99283(19) 0.08029(12) 0.2653(2)
H6 H 1.0443 0.1257 0.2436
C6 C 0.89460(18) 0.09090(11) 0.3335(2)
C7 C 0.84974(19) 0.16311(12) 0.3956(2)
H7 H 0.8848 0.2199 0.3915
C8 C 0.7079(2) 0.22645(12) 0.5278(2)
H8 H 0.7704 0.2765 0.5426
H9 H 0.7061 0.2089 0.6269
C9 C 0.5668(2) 0.25517(15) 0.4281(3)
H10 H 0.5687 0.2737 0.3306
H11 H 0.5373 0.3042 0.4753
H12 H 0.5045 0.2060 0.4147
C10 C 0.90481(18) -0.05942(12) 0.28351(19)
C11 C 0.8813(2) -0.15434(12) 0.2760(2)
H13 H 0.9313 -0.1879 0.2300
C12 C 0.7958(2) -0.20000(14) 0.3273(3)
H14 H 0.7956 -0.2617 0.3141
C13 C 0.7043(2) -0.16733(14) 0.4000(2)
H15 H 0.6541 -0.2118 0.4262
C14 C 0.6781(2) -0.08403(13) 0.4370(2)
H16 H 0.6114 -0.0793 0.4816
C15 C 0.74040(19) -0.00076(12) 0.4163(2)
C16 C 0.83930(18) 0.00455(11) 0.34509(19)
loop_
_geom_bond_atom_site_label_1
_geom_bond_atom_site_label_2
_geom_bond_site_symmetry_1
_geom_bond_site_symmetry_2
O1 C2 1_555 1_555
O2 C3 1_555 1_555
N1 N2 1_555 1_555
N2 C15 1_555 1_555
C1 H1 1_555 1_555
H2 C1 1_555 1_555
H3 C1 1_555 1_555
C2 C1 1_555 1_555
H4 C2 1_555 1_555
H5 C2 1_555 1_555
C3 O1 1_555 1_555
C4 C3 1_555 1_555
C5 C4 1_555 1_555
H6 C5 1_555 1_555
C6 C5 1_555 1_555
C7 N1 1_555 1_555
H7 C7 1_555 1_555
C8 N1 1_555 1_555
H8 C8 1_555 1_555
H9 C8 1_555 1_555
C9 C8 1_555 1_555
H10 C9 1_555 1_555
H11 C9 1_555 1_555
H12 C9 1_555 1_555
C10 C4 1_555 1_555
C11 C10 1_555 1_555
H13 C11 1_555 1_555
C12 C11 1_555 1_555
H14 C12 1_555 1_555
C13 C12 1_555 1_555
H15 C13 1_555 1_555
C14 C13 1_555 1_555
H16 C14 1_555 1_555
C15 C14 1_555 1_555
C16 C6 1_555 1_555
C6 C7 1_555 1_555
C10 C16 1_555 1_555
C15 C16 1_555 1_555

#END
