
#######################################################################
#
#                 Cambridge Crystallographic Data Centre
#                                CCDC 
#
#######################################################################
#
# If this CIF has been generated from an entry in the Cambridge 
# Structural Database, then it will include bibliographic, chemical, 
# crystal, experimental, refinement or atomic coordinate data resulting 
# from the CCDC's data processing and validation procedures.
#
#######################################################################

data_GIKLIY
_chemical_formula_moiety         'C10 H10 F1 N1 O2'
_chemical_name_systematic        
3-fluoro-3-(hydroxymethyl)-1-methyl-1,3-dihydro-2H-indol-2-one
_symmetry_cell_setting           orthorhombic
_symmetry_space_group_name_H-M   'P 21 21 21'
_symmetry_Int_Tables_number      19
_space_group_name_Hall           'P 2ac 2ab'
loop_
_symmetry_equiv_pos_site_id
_symmetry_equiv_pos_as_xyz
1 x,y,z
2 1/2-x,-y,1/2+z
3 -x,1/2+y,1/2-z
4 1/2+x,1/2-y,-z
_cell_length_a                   7.31950(10)
_cell_length_b                   10.2457(2)
_cell_length_c                   12.1122(2)
_cell_angle_alpha                90
_cell_angle_beta                 90
_cell_angle_gamma                90
_cell_volume                     908.335
_exptl_crystal_colour            colorless
_exptl_crystal_description       prismatic
_cell_formula_units_Z            4
loop_
_atom_site_label
_atom_site_type_symbol
_atom_site_fract_x
_atom_site_fract_y
_atom_site_fract_z
F1 F 0.80934(17) 0.73709(10) 0.90163(8)
O1 O 0.6917(2) 0.48214(12) 0.81291(11)
O2 O 0.38907(19) 0.72490(12) 0.74946(13)
H1 H 0.3482 0.7953 0.7289
N1 N 0.8203(2) 0.58792(13) 0.66450(12)
C1 C 0.7367(2) 0.58076(15) 0.76337(13)
C2 C 0.7042(2) 0.72193(16) 0.80521(12)
C3 C 0.7763(2) 0.80284(16) 0.71209(13)
C4 C 0.8431(2) 0.71938(17) 0.63111(14)
C5 C 0.9142(3) 0.7642(2) 0.53313(16)
H2 H 0.9591 0.7073 0.4798
C6 C 0.9156(3) 0.8988(2) 0.51768(19)
H3 H 0.9619 0.9326 0.4522
C7 C 0.8500(3) 0.9832(2) 0.5969(2)
H4 H 0.8539 1.0727 0.5843
C8 C 0.7779(3) 0.93613(18) 0.69555(16)
H5 H 0.7322 0.9928 0.7488
C9 C 0.5075(3) 0.74467(18) 0.83900(15)
C10 C 0.8790(3) 0.4768(2) 0.59869(18)
H6 H 0.8634 0.3980 0.6406
H7 H 1.0055 0.4869 0.5795
H8 H 0.8069 0.4721 0.5326
H9 H 0.476(3) 0.677(2) 0.8963(18)
H10 H 0.494(4) 0.835(3) 0.868(2)
loop_
_geom_bond_atom_site_label_1
_geom_bond_atom_site_label_2
_geom_bond_site_symmetry_1
_geom_bond_site_symmetry_2
F1 C2 1_555 1_555
O1 C1 1_555 1_555
O2 H1 1_555 1_555
N1 C1 1_555 1_555
C1 C2 1_555 1_555
C2 C3 1_555 1_555
C3 C4 1_555 1_555
C4 N1 1_555 1_555
C5 C4 1_555 1_555
H2 C5 1_555 1_555
C6 C5 1_555 1_555
H3 C6 1_555 1_555
C7 C6 1_555 1_555
H4 C7 1_555 1_555
C8 C3 1_555 1_555
H5 C8 1_555 1_555
C9 O2 1_555 1_555
C10 N1 1_555 1_555
H6 C10 1_555 1_555
H7 C10 1_555 1_555
H8 C10 1_555 1_555
H9 C9 1_555 1_555
H10 C9 1_555 1_555
C2 C9 1_555 1_555
C7 C8 1_555 1_555

#END
