
#######################################################################
#
#                 Cambridge Crystallographic Data Centre
#                                CCDC 
#
#######################################################################
#
# If this CIF has been generated from an entry in the Cambridge 
# Structural Database, then it will include bibliographic, chemical, 
# crystal, experimental, refinement or atomic coordinate data resulting 
# from the CCDC's data processing and validation procedures.
#
#######################################################################

data_GIKNEW
_chemical_name_common            
1-(1-bromo-2-phenylpenta-1,4-dien-1-yl)-3,3-bis(propan-2-yl)triaz-1-ene
_chemical_formula_moiety         'C17 H24 Br1 N3'
_chemical_name_systematic        
(E)-1-((E)-1-bromo-2-phenylpenta-1,4-dien-1-yl)-3,3-di-isopropyltriaz-1-ene
_symmetry_cell_setting           triclinic
_symmetry_space_group_name_H-M   'P -1'
_symmetry_Int_Tables_number      2
_space_group_name_Hall           '-P 1'
loop_
_symmetry_equiv_pos_site_id
_symmetry_equiv_pos_as_xyz
1 x,y,z
2 -x,-y,-z
_cell_length_a                   9.5324(6)
_cell_length_b                   9.8871(5)
_cell_length_c                   10.5187(5)
_cell_angle_alpha                98.694(4)
_cell_angle_beta                 112.075(5)
_cell_angle_gamma                103.225(5)
_cell_volume                     862.874
_exptl_crystal_colour            'light colorless'
_exptl_crystal_description       needle
_cell_formula_units_Z            2
_exptl_crystal_recrystallization_method methanol
loop_
_atom_site_label
_atom_site_type_symbol
_atom_site_fract_x
_atom_site_fract_y
_atom_site_fract_z
Br1 Br 0.80885(2) 0.16369(2) 0.32055(2)
N1 N 0.39716(18) 0.27702(17) 0.27301(16)
N2 N 0.52983(17) 0.24262(16) 0.30411(16)
N3 N 0.59802(17) 0.23589(16) 0.43245(16)
C1 C 0.3285(2) 0.2984(2) 0.3764(2)
H1 H 0.418488 0.333726 0.473723
C2 C 0.2201(3) 0.1557(2) 0.3682(3)
H2 H 0.130263 0.118635 0.273838
H3 H 0.180018 0.169434 0.440841
H4 H 0.279934 0.086655 0.384583
C3 C 0.2438(2) 0.4123(2) 0.3555(2)
H5 H 0.311440 0.496676 0.344840
H6 H 0.222777 0.440629 0.438242
H7 H 0.142850 0.372690 0.269843
C4 C 0.3097(2) 0.2675(2) 0.1211(2)
H8 H 0.201024 0.272432 0.105531
C5 C 0.3908(3) 0.3954(3) 0.0826(2)
H9 H 0.399372 0.484870 0.143944
H10 H 0.327769 0.390881 -0.016999
H11 H 0.497510 0.393012 0.095877
C6 C 0.2888(3) 0.1237(3) 0.0275(2)
H12 H 0.393488 0.116813 0.038517
H13 H 0.223788 0.117278 -0.072112
H14 H 0.235782 0.044732 0.056123
C7 C 0.7398(2) 0.20519(19) 0.46861(19)
C8 C 0.8316(2) 0.20420(18) 0.60250(19)
C9 C 0.9928(2) 0.1807(2) 0.6423(2)
H15 H 1.016397 0.140218 0.725767
H16 H 0.985654 0.107760 0.562577
C10 C 1.1306(2) 0.3129(2) 0.6769(2)
H17 H 1.233149 0.300888 0.706611
C11 C 1.1233(2) 0.4430(2) 0.6700(2)
H18 H 1.023520 0.460811 0.640907
H19 H 1.217724 0.519231 0.694256
C12 C 0.7790(2) 0.22530(19) 0.71823(19)
C13 C 0.8914(2) 0.3017(2) 0.8571(2)
H20 H 0.999200 0.343941 0.874671
C14 C 0.8477(3) 0.3166(2) 0.9690(2)
H21 H 0.925296 0.370828 1.061650
C15 C 0.6920(3) 0.2529(2) 0.9471(2)
H22 H 0.662701 0.261856 1.024136
C16 C 0.5792(2) 0.1759(2) 0.8103(2)
H23 H 0.472193 0.131829 0.793957
C17 C 0.6218(2) 0.1628(2) 0.6978(2)
H24 H 0.543046 0.110517 0.605042
loop_
_geom_bond_atom_site_label_1
_geom_bond_atom_site_label_2
_geom_bond_site_symmetry_1
_geom_bond_site_symmetry_2
Br1 C7 1_555 1_555
N1 N2 1_555 1_555
N2 N3 1_555 1_555
N3 C7 1_555 1_555
C1 N1 1_555 1_555
H1 C1 1_555 1_555
C2 C1 1_555 1_555
H2 C2 1_555 1_555
H3 C2 1_555 1_555
H4 C2 1_555 1_555
C3 C1 1_555 1_555
H5 C3 1_555 1_555
H6 C3 1_555 1_555
H7 C3 1_555 1_555
C4 N1 1_555 1_555
H8 C4 1_555 1_555
C5 C4 1_555 1_555
H9 C5 1_555 1_555
H10 C5 1_555 1_555
H11 C5 1_555 1_555
C6 C4 1_555 1_555
H12 C6 1_555 1_555
H13 C6 1_555 1_555
H14 C6 1_555 1_555
C7 C8 1_555 1_555
C8 C9 1_555 1_555
C9 H15 1_555 1_555
H16 C9 1_555 1_555
C10 C9 1_555 1_555
H17 C10 1_555 1_555
C11 C10 1_555 1_555
H18 C11 1_555 1_555
H19 C11 1_555 1_555
C12 C8 1_555 1_555
C13 C12 1_555 1_555
H20 C13 1_555 1_555
C14 C13 1_555 1_555
H21 C14 1_555 1_555
C15 C14 1_555 1_555
H22 C15 1_555 1_555
C16 C15 1_555 1_555
H23 C16 1_555 1_555
C17 C12 1_555 1_555
H24 C17 1_555 1_555
C16 C17 1_555 1_555

#END
