
#######################################################################
#
#                 Cambridge Crystallographic Data Centre
#                                CCDC 
#
#######################################################################
#
# If this CIF has been generated from an entry in the Cambridge 
# Structural Database, then it will include bibliographic, chemical, 
# crystal, experimental, refinement or atomic coordinate data resulting 
# from the CCDC's data processing and validation procedures.
#
#######################################################################

data_GIKQUM
_chemical_formula_moiety         'C12 H17 N1 O7'
_chemical_name_systematic        
(2S,4R,5S,6S)-5-Acetoxy-4-acetoxymethyl-1-aza-3,9-dioxo-2-methyl-8-oxobicyclo(4.3.0)nonane
_symmetry_cell_setting           orthorhombic
_symmetry_space_group_name_H-M   'P 21 21 21'
_symmetry_Int_Tables_number      19
_space_group_name_Hall           'P 2ac 2ab'
loop_
_symmetry_equiv_pos_site_id
_symmetry_equiv_pos_as_xyz
1 x,y,z
2 1/2-x,-y,1/2+z
3 -x,1/2+y,1/2-z
4 1/2+x,1/2-y,-z
_cell_length_a                   5.1139(2)
_cell_length_b                   14.8867(5)
_cell_length_c                   18.5455(8)
_cell_angle_alpha                90
_cell_angle_beta                 90
_cell_angle_gamma                90
_cell_volume                     1411.85
_chemical_melting_point          148-150deg.C
_cell_formula_units_Z            4
loop_
_atom_site_label
_atom_site_type_symbol
_atom_site_fract_x
_atom_site_fract_y
_atom_site_fract_z
N1 N 2.0644(4) -0.37451(13) -0.76910(11)
C1 C 1.9406(6) -0.4620(2) -0.77523(14)
H1 H 2.0794(6) -0.5066(2) -0.78197(14)
C2 C 1.7592(8) -0.4683(2) -0.8395(2)
H2 H 1.8520(8) -0.4513(2) -0.8824(2)
H3 H 1.6132(8) -0.4286(2) -0.8326(2)
H4 H 1.6973(8) -0.5288(2) -0.8443(2)
O1 O 1.7938(4) -0.48776(11) -0.71331(10)
C3 C 1.9552(5) -0.4920(2) -0.65063(14)
H5 H 2.1063(5) -0.5310(2) -0.65951(14)
C4 C 1.7929(6) -0.5289(2) -0.5900(2)
H6 H 1.8886(6) -0.5251(2) -0.5450(2)
H7 H 1.6325(6) -0.4947(2) -0.5852(2)
O2 O 1.7341(4) -0.62135(12) -0.60653(11)
C5 C 1.5537(7) -0.6589(2) -0.5652(2)
O3 O 1.4451(8) -0.6196(2) -0.5177(2)
C6 C 1.5084(10) -0.7558(2) -0.5850(2)
H8 H 1.6187(10) -0.7717(2) -0.6249(2)
H9 H 1.3286(10) -0.7641(2) -0.5983(2)
H10 H 1.5489(10) -0.7934(2) -0.5445(2)
C7 C 2.0455(5) -0.3963(2) -0.63515(13)
H11 H 1.8937(5) -0.3582(2) -0.62482(13)
O4 O 2.2209(3) -0.39528(12) -0.57480(10)
C8 C 2.1292(6) -0.3661(2) -0.5101(2)
O5 O 1.9199(5) -0.3318(2) -0.50351(14)
C9 C 2.3152(8) -0.3859(3) -0.4518(2)
H12 H 2.4687(8) -0.4136(3) -0.4716(2)
H13 H 2.2353(8) -0.4260(3) -0.4177(2)
H14 H 2.3631(8) -0.3311(3) -0.4279(2)
C10 C 2.1958(5) -0.3582(2) -0.69978(14)
H15 H 2.3739(5) -0.3824(2) -0.70086(14)
C11 C 2.2029(5) -0.2559(2) -0.6985(2)
H16 H 2.2140(5) -0.2331(2) -0.6496(2)
H17 H 2.3480(5) -0.2326(2) -0.7265(2)
C12 C 1.9446(6) -0.2332(2) -0.73259(15)
O6 O 1.8191(5) -0.16534(11) -0.73047(12)
O7 O 1.8527(4) -0.30569(11) -0.76860(10)
loop_
_geom_bond_atom_site_label_1
_geom_bond_atom_site_label_2
_geom_bond_site_symmetry_1
_geom_bond_site_symmetry_2
N1 C1 1_555 1_555
C1 H1 1_555 1_555
C2 C1 1_555 1_555
H2 C2 1_555 1_555
H3 C2 1_555 1_555
H4 C2 1_555 1_555
O1 C1 1_555 1_555
C3 O1 1_555 1_555
H5 C3 1_555 1_555
C4 C3 1_555 1_555
H6 C4 1_555 1_555
H7 C4 1_555 1_555
O2 C4 1_555 1_555
C5 O2 1_555 1_555
O3 C5 1_555 1_555
C6 C5 1_555 1_555
H8 C6 1_555 1_555
H9 C6 1_555 1_555
H10 C6 1_555 1_555
C7 C3 1_555 1_555
H11 C7 1_555 1_555
O4 C7 1_555 1_555
C8 O4 1_555 1_555
O5 C8 1_555 1_555
C9 C8 1_555 1_555
H12 C9 1_555 1_555
H13 C9 1_555 1_555
H14 C9 1_555 1_555
C10 N1 1_555 1_555
H15 C10 1_555 1_555
C11 C10 1_555 1_555
H16 C11 1_555 1_555
H17 C11 1_555 1_555
C12 C11 1_555 1_555
O6 C12 1_555 1_555
O7 N1 1_555 1_555
C7 C10 1_555 1_555
C12 O7 1_555 1_555

#END
