
#######################################################################
#
#                 Cambridge Crystallographic Data Centre
#                                CCDC 
#
#######################################################################
#
# If this CIF has been generated from an entry in the Cambridge 
# Structural Database, then it will include bibliographic, chemical, 
# crystal, experimental, refinement or atomic coordinate data resulting 
# from the CCDC's data processing and validation procedures.
#
#######################################################################

data_GIKRUP
_chemical_formula_moiety         'C13 H9 F2 N1'
_chemical_name_systematic        2-Fluoro-N-(4-fluorobenzylidene)aniline
_symmetry_cell_setting           monoclinic
_symmetry_space_group_name_H-M   'P 21'
_symmetry_Int_Tables_number      4
_space_group_name_Hall           'P 2yb'
loop_
_symmetry_equiv_pos_site_id
_symmetry_equiv_pos_as_xyz
1 x,y,z
2 -x,1/2+y,-z
_cell_length_a                   6.0664(3)
_cell_length_b                   14.1400(5)
_cell_length_c                   12.0036(5)
_cell_angle_alpha                90
_cell_angle_beta                 90.228(2)
_cell_angle_gamma                90
_cell_volume                     1029.65
_exptl_crystal_description       needle
_cell_formula_units_Z            4
loop_
_atom_site_label
_atom_site_type_symbol
_atom_site_fract_x
_atom_site_fract_y
_atom_site_fract_z
F1 F 0.6742(2) 0.13771(9) 0.05678(10)
F2 F 1.4542(2) 0.04779(9) 0.63220(10)
N1 N 1.0903(3) 0.13337(12) 0.54339(14)
C1 C 1.1230(4) 0.13154(14) 0.65992(18)
C2 C 0.9858(4) 0.16472(14) 0.31171(19)
H1 H 1.1222 0.1869 0.3358
C3 C 0.5752(4) 0.09980(14) 0.23994(18)
H2 H 0.4385 0.0785 0.2151
C4 C 0.8950(4) 0.11960(13) 0.50698(18)
H3 H 0.7849 0.104 0.5575
C5 C 0.7274(4) 0.13539(15) 0.16647(18)
C6 C 1.3163(3) 0.09259(14) 0.70400(18)
C7 C 0.9310(4) 0.16894(14) 0.19937(18)
H4 H 1.0291 0.1937 0.1477
C8 C 0.8374(4) 0.12749(14) 0.38861(18)
C9 C 1.3722(4) 0.09569(15) 0.81487(18)
H5 H 1.5025 0.0686 0.8404
C10 C 0.9813(4) 0.17422(14) 0.73566(18)
H6 H 0.8498 0.2004 0.7103
C11 C 1.2293(4) 0.14029(15) 0.88772(18)
H7 H 1.265 0.1447 0.963
C12 C 1.0327(4) 0.17839(15) 0.84832(19)
H8 H 0.9352 0.2068 0.8977
C13 C 0.6310(4) 0.09645(15) 0.35220(18)
H9 H 0.53 0.0733 0.4035
F3 F 0.8179(3) -0.11159(10) -0.37049(11)
F4 F 0.0438(2) -0.04813(9) 0.20678(10)
N2 N 0.4057(3) -0.12864(12) 0.11495(15)
C14 C 0.3777(3) -0.13022(13) 0.23213(17)
C15 C 0.1871(4) -0.09236(14) 0.27705(18)
C16 C 0.5249(4) -0.17383(14) 0.30583(18)
H10 H 0.6551 -0.1997 0.2789
C17 C 0.9152(4) -0.07908(15) -0.18465(19)
H11 H 1.0508 -0.0557 -0.2078
C18 C 0.5983(4) -0.11182(14) 0.07892(17)
H12 H 0.7089 -0.0976 0.1301
C19 C 0.5617(4) -0.14793(15) -0.23064(19)
H13 H 0.4645 -0.1711 -0.2842
C20 C 0.1381(4) -0.09641(14) 0.38806(18)
H14 H 0.0082 -0.0703 0.415
C21 C 0.5058(4) -0.14793(14) -0.11928(18)
H15 H 0.3689 -0.1707 -0.0973
C22 C 0.6540(4) -0.11388(14) -0.03929(17)
C23 C 0.2864(4) -0.14040(15) 0.45986(19)
H16 H 0.256 -0.1439 0.5356
C24 C 0.7639(4) -0.11292(16) -0.26058(19)
C25 C 0.4788(4) -0.17892(15) 0.41867(18)
H17 H 0.5778 -0.2084 0.4668
C26 C 0.8602(4) -0.08077(15) -0.07325(19)
H18 H 0.9611 -0.0597 -0.0203
loop_
_geom_bond_atom_site_label_1
_geom_bond_atom_site_label_2
_geom_bond_site_symmetry_1
_geom_bond_site_symmetry_2
F1 C5 1_555 1_555
F2 C6 1_555 1_555
N1 C1 1_555 1_555
C1 C6 1_555 1_555
C2 H1 1_555 1_555
C3 H2 1_555 1_555
C4 N1 1_555 1_555
H3 C4 1_555 1_555
C5 C3 1_555 1_555
C6 C9 1_555 1_555
C7 C2 1_555 1_555
H4 C7 1_555 1_555
C8 C2 1_555 1_555
C9 H5 1_555 1_555
C10 C1 1_555 1_555
H6 C10 1_555 1_555
C11 C9 1_555 1_555
H7 C11 1_555 1_555
C12 C10 1_555 1_555
H8 C12 1_555 1_555
C13 C3 1_555 1_555
H9 C13 1_555 1_555
F3 C24 1_555 1_555
F4 C15 1_555 1_555
N2 C14 1_555 1_555
C14 C15 1_555 1_555
C15 C20 1_555 1_555
C16 C14 1_555 1_555
H10 C16 1_555 1_555
C17 H11 1_555 1_555
C18 N2 1_555 1_555
H12 C18 1_555 1_555
C19 H13 1_555 1_555
C20 H14 1_555 1_555
C21 C19 1_555 1_555
H15 C21 1_555 1_555
C22 C18 1_555 1_555
C23 C20 1_555 1_555
H16 C23 1_555 1_555
C24 C17 1_555 1_555
C25 C16 1_555 1_555
H17 C25 1_555 1_555
C26 C17 1_555 1_555
H18 C26 1_555 1_555
C4 C8 1_555 1_555
C5 C7 1_555 1_555
C8 C13 1_555 1_555
C11 C12 1_555 1_555
C19 C24 1_555 1_555
C21 C22 1_555 1_555
C22 C26 1_555 1_555
C23 C25 1_555 1_555

#END
