
#######################################################################
#
#                 Cambridge Crystallographic Data Centre
#                                CCDC 
#
#######################################################################
#
# If this CIF has been generated from an entry in the Cambridge 
# Structural Database, then it will include bibliographic, chemical, 
# crystal, experimental, refinement or atomic coordinate data resulting 
# from the CCDC's data processing and validation procedures.
#
#######################################################################

data_GIKWII
_chemical_formula_moiety         'C27 H17 Cl1 F6 S1'
_chemical_name_systematic        
5-(3-Chlorophenyl)-3-(3,3,4,4,5,5-hexafluoro-2-(2-methyl-1-naphthyl)cyclopent-1-en-1-yl)-2-methylthiophene
_symmetry_cell_setting           orthorhombic
_symmetry_space_group_name_H-M   'P b c n'
_symmetry_Int_Tables_number      60
_space_group_name_Hall           '-P 2n 2ab'
loop_
_symmetry_equiv_pos_site_id
_symmetry_equiv_pos_as_xyz
1 x,y,z
2 1/2-x,1/2-y,1/2+z
3 1/2+x,1/2-y,-z
4 -x,y,1/2-z
5 -x,-y,-z
6 1/2+x,1/2+y,1/2-z
7 1/2-x,1/2+y,z
8 x,-y,1/2+z
_cell_length_a                   14.309(2)
_cell_length_b                   8.3799(13)
_cell_length_c                   40.006(6)
_cell_angle_alpha                90
_cell_angle_beta                 90
_cell_angle_gamma                90
_cell_volume                     4797.04
_cell_formula_units_Z            8
loop_
_atom_site_label
_atom_site_type_symbol
_atom_site_fract_x
_atom_site_fract_y
_atom_site_fract_z
Cl1 Cl 0.4104(4) 0.6953(6) 0.29412(10)
S1 S 0.22509(18) 0.3332(4) 0.15848(7)
F1 F 0.6276(4) 0.1709(8) 0.05916(14)
F2 F 0.6722(4) 0.3720(8) 0.08665(15)
F3 F 0.7194(4) 0.1504(10) 0.12819(16)
F4 F 0.6238(6) -0.0094(9) 0.1078(2)
F5 F 0.5976(6) 0.2750(12) 0.16555(19)
F6 F 0.5280(5) 0.0517(12) 0.1583(2)
C1 C 0.5058(6) 0.6481(11) 0.1030(2)
H1 H 0.4636 0.6379 0.1215
H2 H 0.5164 0.7591 0.0984
H3 H 0.5641 0.5976 0.1083
C2 C 0.4635(6) 0.5686(11) 0.0723(2)
C3 C 0.4201(6) 0.6648(11) 0.0476(3)
H4 H 0.4172 0.7747 0.0506
C4 C 0.3841(6) 0.6012(12) 0.0204(2)
H5 H 0.3567 0.6683 0.0047
C5 C 0.3851(5) 0.4352(11) 0.0141(2)
C6 C 0.3465(5) 0.3685(13) -0.0149(2)
H6 H 0.3189 0.4347 -0.0307
C7 C 0.3487(6) 0.2111(13) -0.0201(2)
H7 H 0.3227 0.1693 -0.0395
C8 C 0.3904(5) 0.1068(11) 0.0036(2)
H8 H 0.3920 -0.0027 -0.0001
C9 C 0.4275(6) 0.1693(11) 0.0317(2)
H9 H 0.4540 0.1010 0.0473
C10 C 0.4273(5) 0.3368(11) 0.03810(19)
C11 C 0.4665(5) 0.4050(9) 0.06806(19)
C12 C 0.5131(5) 0.3036(9) 0.0933(2)
C13 C 0.6124(7) 0.2470(12) 0.0877(2)
C14 C 0.6335(7) 0.1491(14) 0.1178(3)
C15 C 0.5552(7) 0.1739(15) 0.1430(2)
C16 C 0.4825(6) 0.2651(10) 0.12403(19)
C17 C 0.3947(6) 0.3069(10) 0.1407(2)
C18 C 0.3066(6) 0.2672(12) 0.1305(2)
C19 C 0.2783(6) 0.1771(14) 0.1003(2)
H10 H 0.2701 0.2497 0.0819
H11 H 0.2205 0.1226 0.1045
H12 H 0.3258 0.1007 0.0948
C20 C 0.3943(6) 0.3886(10) 0.1723(2)
H13 H 0.4489 0.4203 0.1830
C21 C 0.3082(7) 0.4162(11) 0.1853(2)
C22 C 0.2804(8) 0.4985(12) 0.2171(2)
C23 C 0.1898(7) 0.5254(15) 0.2252(3)
H14 H 0.1427 0.4944 0.2106
C24 C 0.1677(7) 0.596(2) 0.2543(3)
H15 H 0.1053 0.6079 0.2603
C25 C 0.2353(9) 0.6510(18) 0.2746(3)
H16 H 0.2200 0.7070 0.2939
C26 C 0.3248(8) 0.6239(14) 0.2668(2)
C27 C 0.3474(6) 0.5496(14) 0.2380(3)
H17 H 0.4099 0.5336 0.2326
loop_
_geom_bond_atom_site_label_1
_geom_bond_atom_site_label_2
_geom_bond_site_symmetry_1
_geom_bond_site_symmetry_2
Cl1 C26 1_555 1_555
S1 C18 1_555 1_555
F1 C13 1_555 1_555
F2 C13 1_555 1_555
F3 C14 1_555 1_555
F4 C14 1_555 1_555
F5 C15 1_555 1_555
F6 C15 1_555 1_555
C1 H1 1_555 1_555
H2 C1 1_555 1_555
H3 C1 1_555 1_555
C2 C1 1_555 1_555
C3 C2 1_555 1_555
H4 C3 1_555 1_555
C4 C3 1_555 1_555
H5 C4 1_555 1_555
C5 C4 1_555 1_555
C6 C5 1_555 1_555
H6 C6 1_555 1_555
C7 C6 1_555 1_555
H7 C7 1_555 1_555
C8 C7 1_555 1_555
H8 C8 1_555 1_555
C9 C8 1_555 1_555
H9 C9 1_555 1_555
C10 C5 1_555 1_555
C11 C2 1_555 1_555
C12 C11 1_555 1_555
C13 C12 1_555 1_555
C14 C13 1_555 1_555
C15 C14 1_555 1_555
C16 C12 1_555 1_555
C17 C16 1_555 1_555
C18 C17 1_555 1_555
C19 C18 1_555 1_555
H10 C19 1_555 1_555
H11 C19 1_555 1_555
H12 C19 1_555 1_555
C20 C17 1_555 1_555
H13 C20 1_555 1_555
C21 S1 1_555 1_555
C22 C21 1_555 1_555
C23 C22 1_555 1_555
H14 C23 1_555 1_555
C24 C23 1_555 1_555
H15 C24 1_555 1_555
C25 C24 1_555 1_555
H16 C25 1_555 1_555
C26 C25 1_555 1_555
C27 C22 1_555 1_555
H17 C27 1_555 1_555
C9 C10 1_555 1_555
C10 C11 1_555 1_555
C15 C16 1_555 1_555
C20 C21 1_555 1_555
C26 C27 1_555 1_555

#END
