
#######################################################################
#
#                 Cambridge Crystallographic Data Centre
#                                CCDC 
#
#######################################################################
#
# If this CIF has been generated from an entry in the Cambridge 
# Structural Database, then it will include bibliographic, chemical, 
# crystal, experimental, refinement or atomic coordinate data resulting 
# from the CCDC's data processing and validation procedures.
#
#######################################################################

data_GIKWUU
_chemical_formula_moiety         'C28 H17 F6 N1 S1'
_chemical_name_systematic        
3-(4-(3,3,4,4,5,5-Hexafluoro-2-(2-methyl-1-naphthyl)cyclopent-1-en-1-yl)-5-methyl-2-thienyl)benzonitrile
_symmetry_cell_setting           monoclinic
_symmetry_space_group_name_H-M   'P 21/c'
_symmetry_Int_Tables_number      14
_space_group_name_Hall           '-P 2ybc'
loop_
_symmetry_equiv_pos_site_id
_symmetry_equiv_pos_as_xyz
1 x,y,z
2 -x,1/2+y,1/2-z
3 -x,-y,-z
4 x,1/2-y,1/2+z
_cell_length_a                   20.291(9)
_cell_length_b                   14.114(6)
_cell_length_c                   8.500(4)
_cell_angle_alpha                90
_cell_angle_beta                 100.796(6)
_cell_angle_gamma                90
_cell_volume                     2391.2
_exptl_crystal_colour            colorless
_exptl_crystal_description       block
_cell_formula_units_Z            4
loop_
_atom_site_label
_atom_site_type_symbol
_atom_site_fract_x
_atom_site_fract_y
_atom_site_fract_z
N1 N -0.0988(8) 0.9446(14) 0.494(2)
C1 C 0.0757(6) 0.7706(8) 0.3062(12)
C2 C 0.0587(7) 0.6766(9) 0.3189(15)
H1 H 0.0858 0.6292 0.2893
C3 C 0.0330(6) 0.8394(9) 0.3506(13)
H2 H 0.0435 0.9031 0.3429
C4 C -0.0400(8) 0.7205(14) 0.4209(17)
H3 H -0.0778 0.7033 0.4612
C5 C 0.0012(8) 0.6531(12) 0.3757(19)
H4 H -0.0098 0.5895 0.3834
C6 C -0.0241(7) 0.8146(11) 0.4051(15)
C7 C -0.0668(9) 0.8859(14) 0.456(2)
C8 C 0.2996(5) 0.7771(7) 0.0670(14)
H5 H 0.3078 0.8249 -0.0073
H6 H 0.2915 0.7175 0.0124
H7 H 0.3381 0.7716 0.1516
C9 C 0.2410(5) 0.8034(6) 0.1345(12)
C10 C 0.1345(5) 0.7992(7) 0.2486(11)
C11 C 0.1599(5) 0.8881(6) 0.2348(12)
H8 H 0.1393 0.9424 0.2648
C12 C 0.2195(4) 0.8913(6) 0.1716(11)
S1 S 0.18670(15) 0.71852(17) 0.1802(4)
C13 C 0.2530(5) 0.9825(6) 0.1487(11)
C14 C 0.3135(5) 1.0130(5) 0.2141(11)
C15 C 0.3234(5) 1.1147(6) 0.1583(15)
C16 C 0.2152(6) 1.0523(8) 0.0337(17)
C17 C 0.2622(7) 1.1335(7) 0.0327(15)
C18 C 0.4708(5) 0.8848(6) 0.4255(11)
C19 C 0.4230(4) 0.9280(5) 0.3037(11)
C20 C 0.4365(5) 0.9270(6) 0.1471(12)
H9 H 0.4055 0.9535 0.0642
C21 C 0.3634(4) 0.9678(5) 0.3403(11)
C22 C 0.4579(6) 0.8860(7) 0.5806(13)
H10 H 0.4888 0.8588 0.6630
C23 C 0.3528(6) 0.9686(6) 0.4983(12)
C24 C 0.5402(5) 0.8474(7) 0.2386(17)
H11 H 0.5796 0.8214 0.2164
C25 C 0.4938(5) 0.8882(6) 0.1142(14)
H12 H 0.5021 0.8887 0.0103
C26 C 0.5289(6) 0.8450(6) 0.3889(15)
H13 H 0.5601 0.8167 0.4692
C27 C 0.4025(7) 0.9251(8) 0.6136(13)
H14 H 0.3961 0.9237 0.7191
C28 C 0.2924(6) 1.0131(8) 0.5416(14)
H15 H 0.2959 1.0115 0.6557
H16 H 0.2531 0.9790 0.4914
H17 H 0.2892 1.0777 0.5055
F1 F 0.3282(4) 1.1753(4) 0.2797(10)
F2 F 0.3791(4) 1.1275(5) 0.1059(13)
F3 F 0.2373(5) 1.2125(6) 0.0420(19)
F4 F 0.1972(6) 1.0190(7) -0.1127(15)
F5 F 0.1596(5) 1.0779(9) 0.072(2)
F6 F 0.2829(8) 1.1316(10) -0.1090(13)
loop_
_geom_bond_atom_site_label_1
_geom_bond_atom_site_label_2
_geom_bond_site_symmetry_1
_geom_bond_site_symmetry_2
N1 C7 1_555 1_555
C1 C2 1_555 1_555
C2 H1 1_555 1_555
C3 C1 1_555 1_555
H2 C3 1_555 1_555
C4 H3 1_555 1_555
C5 C2 1_555 1_555
H4 C5 1_555 1_555
C6 C3 1_555 1_555
C7 C6 1_555 1_555
C8 H5 1_555 1_555
H6 C8 1_555 1_555
H7 C8 1_555 1_555
C9 C8 1_555 1_555
C10 C1 1_555 1_555
C11 C10 1_555 1_555
H8 C11 1_555 1_555
C12 C9 1_555 1_555
S1 C9 1_555 1_555
C13 C12 1_555 1_555
C14 C13 1_555 1_555
C15 C14 1_555 1_555
C16 C13 1_555 1_555
C17 C15 1_555 1_555
C18 C19 1_555 1_555
C19 C20 1_555 1_555
C20 H9 1_555 1_555
C21 C14 1_555 1_555
C22 C18 1_555 1_555
H10 C22 1_555 1_555
C23 C21 1_555 1_555
C24 H11 1_555 1_555
C25 C20 1_555 1_555
H12 C25 1_555 1_555
C26 C18 1_555 1_555
H13 C26 1_555 1_555
C27 C22 1_555 1_555
H14 C27 1_555 1_555
C28 C23 1_555 1_555
H15 C28 1_555 1_555
H16 C28 1_555 1_555
H17 C28 1_555 1_555
F1 C15 1_555 1_555
F2 C15 1_555 1_555
F3 C17 1_555 1_555
F4 C16 1_555 1_555
F5 C16 1_555 1_555
F6 C17 1_555 1_555
C4 C5 1_555 1_555
C4 C6 1_555 1_555
C10 S1 1_555 1_555
C11 C12 1_555 1_555
C16 C17 1_555 1_555
C19 C21 1_555 1_555
C23 C27 1_555 1_555
C24 C25 1_555 1_555
C24 C26 1_555 1_555

#END
