
#######################################################################
#
#                 Cambridge Crystallographic Data Centre
#                                CCDC 
#
#######################################################################
#
# If this CIF has been generated from an entry in the Cambridge 
# Structural Database, then it will include bibliographic, chemical, 
# crystal, experimental, refinement or atomic coordinate data resulting 
# from the CCDC's data processing and validation procedures.
#
#######################################################################

data_GIKZOR
_chemical_formula_moiety         'C15 H7 F8 N1'
_chemical_name_systematic        
1-(Pentafluorophenyl)-2-(4-(trifluoromethyl)phenyl)aziridine
_symmetry_cell_setting           monoclinic
_symmetry_space_group_name_H-M   'P 21'
_symmetry_Int_Tables_number      4
_space_group_name_Hall           'P 2yb'
loop_
_symmetry_equiv_pos_site_id
_symmetry_equiv_pos_as_xyz
1 x,y,z
2 -x,1/2+y,-z
_cell_length_a                   9.0592(3)
_cell_length_b                   10.8258(3)
_cell_length_c                   14.8328(5)
_cell_angle_alpha                90
_cell_angle_beta                 107.230(2)
_cell_angle_gamma                90
_cell_volume                     1389.42
_exptl_crystal_colour            colorless
_exptl_crystal_description       plate
_cell_formula_units_Z            4
loop_
_atom_site_label
_atom_site_type_symbol
_atom_site_fract_x
_atom_site_fract_y
_atom_site_fract_z
F1 F 0.4124(3) 1.0231(6) 0.2911(2)
F2 F 0.6421(5) 0.9689(4) 0.2887(2)
F3 F 0.5876(5) 1.1486(4) 0.3102(2)
F4 F 1.3011(3) 1.0772(3) 1.09771(17)
F5 F 1.2227(3) 0.8333(3) 1.08511(16)
F6 F 1.0215(3) 0.7448(2) 0.92674(16)
F7 F 0.9618(2) 1.1444(2) 0.79615(13)
F8 F 1.1707(3) 1.2307(2) 0.95195(17)
N1 N 0.8847(3) 0.8942(2) 0.77296(18)
C1 C 1.1976(4) 1.0333(4) 1.0203(2)
C2 C 1.1585(4) 0.9106(4) 1.0133(2)
C3 C 1.0528(4) 0.8663(3) 0.9325(2)
C4 C 0.9831(3) 0.9428(3) 0.8579(2)
C5 C 0.7310(3) 0.9500(3) 0.7335(2)
H1 H 0.7052 1.0179 0.7710
C6 C 0.6828(3) 0.9691(3) 0.6297(2)
C7 C 0.7241(4) 0.8856(3) 0.5701(2)
H2 H 0.7798 0.8142 0.5960
C8 C 0.6854(4) 0.9049(3) 0.4735(3)
H3 H 0.7148 0.8476 0.4344
C9 C 0.6028(3) 1.0096(3) 0.4354(2)
C10 C 0.5633(3) 1.0328(4) 0.3328(3)
C11 C 0.5602(4) 1.0937(3) 0.4936(3)
H4 H 0.5047 1.1651 0.4677
C12 C 0.5992(3) 1.0729(3) 0.5894(3)
H5 H 0.5686 1.1300 0.6281
C13 C 0.7471(4) 0.8268(4) 0.7773(3)
H6 H 0.7287 0.8192 0.8389
H7 H 0.7148 0.7553 0.7356
C14 C 1.0247(4) 1.0658(3) 0.8670(2)
C15 C 1.1307(4) 1.1115(3) 0.9466(2)
F9 F 0.9770(3) 0.4450(3) 0.80290(16)
F10 F 0.3970(4) 0.4546(3) -0.06029(18)
F11 F 0.7736(3) 0.31843(19) 0.66097(17)
F12 F 0.7098(2) 0.39443(17) 0.48181(15)
F13 F 0.2344(3) 0.5172(3) 0.00736(19)
F14 F 0.3629(3) 0.6476(3) -0.04493(19)
F15 F 1.0554(2) 0.72653(18) 0.58188(16)
F16 F 1.1186(3) 0.6484(2) 0.76109(15)
N2 N 0.8376(3) 0.6113(2) 0.43371(19)
C16 C 0.9473(4) 0.4828(3) 0.7136(2)
C17 C 0.8431(4) 0.4193(3) 0.6417(3)
C18 C 0.8112(3) 0.4585(3) 0.5492(2)
C19 C 0.8812(3) 0.5635(3) 0.5262(2)
C20 C 0.8513(4) 0.5298(3) 0.3557(2)
H8 H 0.8944 0.4467 0.3756
C21 C 0.7232(3) 0.5333(3) 0.2655(2)
C22 C 0.6822(4) 0.4266(3) 0.2144(2)
H9 H 0.7313 0.3520 0.2382
C23 C 0.5682(4) 0.4280(3) 0.1273(3)
H10 H 0.5398 0.3545 0.0928
C24 C 0.4972(3) 0.5382(3) 0.0920(2)
C25 C 0.3739(4) 0.5395(4) -0.0013(3)
C26 C 0.5368(4) 0.6452(3) 0.1442(2)
H11 H 0.4872 0.7198 0.1207
C27 C 0.6482(4) 0.6432(3) 0.2302(2)
H12 H 0.6739 0.7163 0.2655
C28 C 0.9598(4) 0.6330(4) 0.3894(2)
H13 H 1.0661 0.6126 0.4260
H14 H 0.9498 0.7053 0.3483
C29 C 0.9856(3) 0.6245(3) 0.6004(2)
C30 C 1.0172(4) 0.5859(3) 0.6923(2)
loop_
_geom_bond_atom_site_label_1
_geom_bond_atom_site_label_2
_geom_bond_site_symmetry_1
_geom_bond_site_symmetry_2
F1 C10 1_555 1_555
F2 C10 1_555 1_555
F3 C10 1_555 1_555
F4 C1 1_555 1_555
F5 C2 1_555 1_555
F6 C3 1_555 1_555
F7 C14 1_555 1_555
F8 C15 1_555 1_555
N1 C4 1_555 1_555
C1 C2 1_555 1_555
C2 C3 1_555 1_555
C3 C4 1_555 1_555
C4 C14 1_555 1_555
C5 N1 1_555 1_555
H1 C5 1_555 1_555
C6 C5 1_555 1_555
C7 C6 1_555 1_555
H2 C7 1_555 1_555
C8 C7 1_555 1_555
H3 C8 1_555 1_555
C9 C8 1_555 1_555
C10 C9 1_555 1_555
C11 C9 1_555 1_555
H4 C11 1_555 1_555
C12 C6 1_555 1_555
H5 C12 1_555 1_555
C13 N1 1_555 1_555
H6 C13 1_555 1_555
H7 C13 1_555 1_555
C14 C15 1_555 1_555
C15 C1 1_555 1_555
F9 C16 1_555 1_555
F10 C25 1_555 1_555
F11 C17 1_555 1_555
F12 C18 1_555 1_555
F13 C25 1_555 1_555
F14 C25 1_555 1_555
F15 C29 1_555 1_555
F16 C30 1_555 1_555
N2 C19 1_555 1_555
C16 C17 1_555 1_555
C17 C18 1_555 1_555
C18 C19 1_555 1_555
C19 C29 1_555 1_555
C20 N2 1_555 1_555
H8 C20 1_555 1_555
C21 C20 1_555 1_555
C22 C21 1_555 1_555
H9 C22 1_555 1_555
C23 C22 1_555 1_555
H10 C23 1_555 1_555
C24 C23 1_555 1_555
C25 C24 1_555 1_555
C26 C24 1_555 1_555
H11 C26 1_555 1_555
C27 C21 1_555 1_555
H12 C27 1_555 1_555
C28 N2 1_555 1_555
H13 C28 1_555 1_555
H14 C28 1_555 1_555
C29 C30 1_555 1_555
C30 C16 1_555 1_555
C5 C13 1_555 1_555
C11 C12 1_555 1_555
C20 C28 1_555 1_555
C26 C27 1_555 1_555

#END
