
#######################################################################
#
#                 Cambridge Crystallographic Data Centre
#                                CCDC 
#
#######################################################################
#
# If this CIF has been generated from an entry in the Cambridge 
# Structural Database, then it will include bibliographic, chemical, 
# crystal, experimental, refinement or atomic coordinate data resulting 
# from the CCDC's data processing and validation procedures.
#
#######################################################################

data_GILBOU
_chemical_formula_moiety         'C24 H43 N1 O6 Si1'
_chemical_name_systematic        
'Methyl 5-acetoxy-1-(((t-butyl(dimethyl)silyl)oxy)methyl)-3-ethyl-9-methoxy-3-azatricyclo[5.4.0.0^4,8^]undecane-8-carboxylate'
_symmetry_cell_setting           monoclinic
_symmetry_space_group_name_H-M   'P 21/n'
_symmetry_Int_Tables_number      14
_space_group_name_Hall           '-P 2yn'
loop_
_symmetry_equiv_pos_site_id
_symmetry_equiv_pos_as_xyz
1 x,y,z
2 1/2-x,1/2+y,1/2-z
3 -x,-y,-z
4 1/2+x,1/2-y,1/2+z
_cell_length_a                   7.8927(3)
_cell_length_b                   28.7461(14)
_cell_length_c                   12.5666(8)
_cell_angle_alpha                90
_cell_angle_beta                 106.681(6)
_cell_angle_gamma                90
_cell_volume                     2731.18
_exptl_crystal_colour            colorless
_exptl_crystal_description       block
_cell_formula_units_Z            4
loop_
_atom_site_label
_atom_site_type_symbol
_atom_site_fract_x
_atom_site_fract_y
_atom_site_fract_z
Si1 Si -0.54966(13) -0.09023(4) -0.11346(8)
O1 O -0.3149(3) -0.15731(9) 0.46549(17)
O2 O -0.0746(3) -0.23494(8) 0.41551(19)
O3 O 0.0754(3) -0.18639(8) 0.54912(17)
O4 O 0.2635(2) -0.19107(7) 0.36275(19)
O5 O 0.3532(4) -0.21386(12) 0.2198(3)
O6 O -0.4216(3) -0.08998(8) 0.01485(18)
N1 N 0.0192(3) -0.08070(8) 0.3125(2)
C1 C -0.0855(3) -0.15166(10) 0.3797(2)
C2 C -0.1986(3) -0.12342(11) 0.4393(2)
H1 H -0.1213 -0.1106 0.5084
C3 C -0.3057(4) -0.08450(12) 0.3711(3)
H2 H -0.2295 -0.0579 0.3727
H3 H -0.3977 -0.0751 0.4039
C4 C -0.3899(4) -0.09906(12) 0.2511(3)
H4 H -0.4472 -0.0723 0.2089
H5 H -0.4802 -0.1222 0.2489
C5 C -0.2547(3) -0.11917(10) 0.1964(2)
C6 C -0.1780(3) -0.16365(10) 0.2570(2)
H6 H -0.2702 -0.1872 0.2508
C7 C -0.1051(4) -0.08480(11) 0.2009(2)
H7 H -0.0411 -0.0948 0.1496
H8 H -0.1554 -0.0545 0.1770
C8 C -0.0219(4) -0.18337(11) 0.2195(2)
H9 H -0.0121 -0.2167 0.2313
H10 H -0.0388 -0.1771 0.1413
C9 C 0.1430(3) -0.15892(11) 0.2900(2)
H11 H 0.2021 -0.1418 0.2434
C10 C 0.0763(3) -0.12568(10) 0.3651(2)
H12 H 0.1659 -0.1215 0.4367
C11 C -0.0304(3) -0.19665(12) 0.4465(2)
C12 C 0.1376(5) -0.22675(14) 0.6179(3)
H13 H 0.1971 -0.2474 0.5805
H14 H 0.0388 -0.2425 0.6317
H15 H 0.2181 -0.2171 0.6872
C13 C 0.3570(5) -0.21855(14) 0.3139(4)
C14 C 0.4632(5) -0.25354(15) 0.3926(4)
H16 H 0.4572 -0.2470 0.4663
H17 H 0.5841 -0.2522 0.3912
H18 H 0.4168 -0.2841 0.3709
C15 C -0.3626(6) -0.14648(19) 0.5629(3)
H19 H -0.4224 -0.1170 0.5537
H20 H -0.2581 -0.1449 0.6250
H21 H -0.4398 -0.1702 0.5762
C16 C 0.1656(4) -0.04894(12) 0.3141(3)
H22 H 0.1235 -0.0249 0.2587
H23 H 0.2580 -0.0661 0.2944
C17 C 0.2409(6) -0.02683(16) 0.4243(4)
H24 H 0.3318 -0.0053 0.4204
H25 H 0.2903 -0.0504 0.4786
H26 H 0.1492 -0.0106 0.4453
C18 C -0.3539(4) -0.13078(12) 0.0766(3)
H27 H -0.2747 -0.1466 0.0420
H28 H -0.4508 -0.1517 0.0753
C19 C -0.5060(6) -0.14264(17) -0.1874(3)
H29 H -0.3837 -0.1432 -0.1857
H30 H -0.5787 -0.1419 -0.2631
H31 H -0.5331 -0.1700 -0.1516
C20 C -0.4895(8) -0.03697(19) -0.1788(4)
H32 H -0.5051 -0.0101 -0.1373
H33 H -0.5642 -0.0344 -0.2538
H34 H -0.3682 -0.0390 -0.1791
C21 C -0.7865(5) -0.08795(15) -0.1130(3)
C22 C -0.8315(7) -0.13282(18) -0.0585(6)
H35 H -0.8085 -0.1595 -0.0982
H36 H -0.9542 -0.1324 -0.0608
H37 H -0.7598 -0.1344 0.0174
C23 C -0.8195(7) -0.04640(17) -0.0446(4)
H38 H -0.7654 -0.0523 0.0329
H39 H -0.9445 -0.0422 -0.0578
H40 H -0.7694 -0.0188 -0.0663
C24 C -0.9032(7) -0.0824(3) -0.2342(5)
H41 H -0.8524 -0.0593 -0.2711
H42 H -1.0199 -0.0729 -0.2346
H43 H -0.9097 -0.1116 -0.2723
loop_
_geom_bond_atom_site_label_1
_geom_bond_atom_site_label_2
_geom_bond_site_symmetry_1
_geom_bond_site_symmetry_2
Si1 O6 1_555 1_555
O1 C2 1_555 1_555
O2 C11 1_555 1_555
O3 C11 1_555 1_555
O4 C9 1_555 1_555
O5 C13 1_555 1_555
O6 C18 1_555 1_555
N1 C7 1_555 1_555
C1 C2 1_555 1_555
C2 H1 1_555 1_555
C3 C2 1_555 1_555
H2 C3 1_555 1_555
H3 C3 1_555 1_555
C4 C3 1_555 1_555
H4 C4 1_555 1_555
H5 C4 1_555 1_555
C5 C4 1_555 1_555
C6 C1 1_555 1_555
H6 C6 1_555 1_555
C7 C5 1_555 1_555
H7 C7 1_555 1_555
H8 C7 1_555 1_555
C8 C6 1_555 1_555
H9 C8 1_555 1_555
H10 C8 1_555 1_555
C9 C8 1_555 1_555
H11 C9 1_555 1_555
C10 N1 1_555 1_555
H12 C10 1_555 1_555
C11 C1 1_555 1_555
C12 O3 1_555 1_555
H13 C12 1_555 1_555
H14 C12 1_555 1_555
H15 C12 1_555 1_555
C13 O4 1_555 1_555
C14 C13 1_555 1_555
H16 C14 1_555 1_555
H17 C14 1_555 1_555
H18 C14 1_555 1_555
C15 O1 1_555 1_555
H19 C15 1_555 1_555
H20 C15 1_555 1_555
H21 C15 1_555 1_555
C16 N1 1_555 1_555
H22 C16 1_555 1_555
H23 C16 1_555 1_555
C17 C16 1_555 1_555
H24 C17 1_555 1_555
H25 C17 1_555 1_555
H26 C17 1_555 1_555
C18 C5 1_555 1_555
H27 C18 1_555 1_555
H28 C18 1_555 1_555
C19 Si1 1_555 1_555
H29 C19 1_555 1_555
H30 C19 1_555 1_555
H31 C19 1_555 1_555
C20 Si1 1_555 1_555
H32 C20 1_555 1_555
H33 C20 1_555 1_555
H34 C20 1_555 1_555
C21 Si1 1_555 1_555
C22 C21 1_555 1_555
H35 C22 1_555 1_555
H36 C22 1_555 1_555
H37 C22 1_555 1_555
C23 C21 1_555 1_555
H38 C23 1_555 1_555
H39 C23 1_555 1_555
H40 C23 1_555 1_555
C24 C21 1_555 1_555
H41 C24 1_555 1_555
H42 C24 1_555 1_555
H43 C24 1_555 1_555
C1 C10 1_555 1_555
C5 C6 1_555 1_555
C9 C10 1_555 1_555

#END
