
#######################################################################
#
#                 Cambridge Crystallographic Data Centre
#                                CCDC 
#
#######################################################################
#
# If this CIF has been generated from an entry in the Cambridge 
# Structural Database, then it will include bibliographic, chemical, 
# crystal, experimental, refinement or atomic coordinate data resulting 
# from the CCDC's data processing and validation procedures.
#
#######################################################################

data_GILBAG
_chemical_formula_moiety         'C15 H12 F5 N1 O1'
_chemical_name_systematic        
2,3,4,5,6-Pentafluoro-N-(2-methoxy-2-phenylethyl)aniline
_symmetry_cell_setting           orthorhombic
_symmetry_space_group_name_H-M   'P 21 21 2'
_symmetry_Int_Tables_number      18
_space_group_name_Hall           'P 2 2ab'
loop_
_symmetry_equiv_pos_site_id
_symmetry_equiv_pos_as_xyz
1 x,y,z
2 1/2+x,1/2-y,-z
3 1/2-x,1/2+y,-z
4 -x,-y,z
_cell_length_a                   23.2929(4)
_cell_length_b                   7.3103(2)
_cell_length_c                   8.3339(2)
_cell_angle_alpha                90
_cell_angle_beta                 90
_cell_angle_gamma                90
_cell_volume                     1419.08
_exptl_crystal_colour            colorless
_exptl_crystal_description       block
_cell_formula_units_Z            4
loop_
_atom_site_label
_atom_site_type_symbol
_atom_site_fract_x
_atom_site_fract_y
_atom_site_fract_z
F1 F 0.16336(5) 0.4172(2) 0.09310(14)
F2 F 0.22777(5) 0.3427(2) 0.35784(17)
F3 F 0.18042(5) 0.2283(2) 0.62751(15)
F4 F -0.00196(5) 0.2601(2) 0.38408(14)
F5 F 0.04730(6) 0.3765(2) 0.11139(14)
O1 O 0.06340(6) -0.18525(18) 0.77547(17)
C1 C 0.21897(8) -0.0844(4) 1.1422(3)
C2 C 0.13854(9) 0.3610(3) 0.2297(2)
C3 C 0.17069(8) 0.3226(3) 0.3634(2)
C4 C 0.14537(8) 0.2633(3) 0.5024(2)
C5 C 0.08628(7) 0.2370(2) 0.5172(2)
N1 N 0.05738(7) 0.1790(2) 0.65041(19)
C6 C 0.08197(8) 0.1304(2) 0.8039(2)
C7 C 0.10835(8) -0.0601(2) 0.8100(2)
C8 C 0.13556(7) -0.0918(2) 0.9721(2)
C9 C 0.10306(7) -0.1402(3) 1.1047(2)
C10 C 0.12833(9) -0.1622(3) 1.2537(2)
C11 C 0.05540(7) 0.2789(2) 0.3781(2)
C12 C 0.08027(8) 0.3390(3) 0.2386(2)
C13 C 0.08418(13) -0.3656(3) 0.7452(3)
H1 H 0.1035 -0.4116 0.8401
H2 H 0.1110 -0.3627 0.6561
H3 H 0.0522 -0.4451 0.7187
C14 C 0.19381(8) -0.0637(3) 0.9931(2)
C15 C 0.18611(9) -0.1352(3) 1.2722(2)
H4 H 0.0501(10) 0.137(3) 0.876(3)
H5 H 0.1106(9) 0.220(3) 0.839(2)
H6 H 0.1383(10) -0.068(3) 0.725(2)
H7 H 0.0631(10) -0.168(3) 1.091(3)
H8 H 0.2030(12) -0.150(4) 1.381(4)
H9 H 0.2158(10) -0.031(3) 0.904(3)
H10 H 0.2596(12) -0.057(4) 1.161(3)
H11 H 0.1044(11) -0.196(3) 1.346(3)
H12 H 0.0219(9) 0.166(3) 0.650(3)
loop_
_geom_bond_atom_site_label_1
_geom_bond_atom_site_label_2
_geom_bond_site_symmetry_1
_geom_bond_site_symmetry_2
F1 C2 1_555 1_555
F2 C3 1_555 1_555
F3 C4 1_555 1_555
F4 C11 1_555 1_555
F5 C12 1_555 1_555
O1 C7 1_555 1_555
C1 C14 1_555 1_555
C2 C3 1_555 1_555
C3 C4 1_555 1_555
C4 C5 1_555 1_555
C5 N1 1_555 1_555
N1 C6 1_555 1_555
C6 C7 1_555 1_555
C7 C8 1_555 1_555
C8 C9 1_555 1_555
C9 C10 1_555 1_555
C10 C15 1_555 1_555
C11 C5 1_555 1_555
C12 C2 1_555 1_555
C13 O1 1_555 1_555
H1 C13 1_555 1_555
H2 C13 1_555 1_555
H3 C13 1_555 1_555
C14 C8 1_555 1_555
C15 C1 1_555 1_555
H4 C6 1_555 1_555
H5 C6 1_555 1_555
H6 C7 1_555 1_555
H7 C9 1_555 1_555
H8 C15 1_555 1_555
H9 C14 1_555 1_555
H10 C1 1_555 1_555
H11 C10 1_555 1_555
H12 N1 1_555 1_555
C11 C12 1_555 1_555

#END
