
#######################################################################
#
#                 Cambridge Crystallographic Data Centre
#                                CCDC 
#
#######################################################################
#
# If this CIF has been generated from an entry in the Cambridge 
# Structural Database, then it will include bibliographic, chemical, 
# crystal, experimental, refinement or atomic coordinate data resulting 
# from the CCDC's data processing and validation procedures.
#
#######################################################################

data_GILBUA
_chemical_formula_moiety         'C21 H38 N1 O4 Si1 1+,H2 O1,I1 1-'
_chemical_name_systematic        
'1-(((t-Butyl(dimethyl)silyl)oxy)methyl)-9-methoxy-8-(methoxycarbonyl)-3-methyl-3-azoniatetracyclo[5.4.0.0^3,5^.0^4,8^]undecane iodide monohydrate'
_symmetry_cell_setting           monoclinic
_symmetry_space_group_name_H-M   'P 21/c'
_symmetry_Int_Tables_number      14
_space_group_name_Hall           '-P 2ybc'
loop_
_symmetry_equiv_pos_site_id
_symmetry_equiv_pos_as_xyz
1 x,y,z
2 -x,1/2+y,1/2-z
3 -x,-y,-z
4 x,1/2-y,1/2+z
_cell_length_a                   7.2844(2)
_cell_length_b                   33.8783(9)
_cell_length_c                   10.5399(2)
_cell_angle_alpha                90
_cell_angle_beta                 97.380(2)
_cell_angle_gamma                90
_cell_volume                     2579.52
_exptl_crystal_colour            yellow
_exptl_crystal_description       block
_cell_formula_units_Z            4
loop_
_atom_site_label
_atom_site_type_symbol
_atom_site_fract_x
_atom_site_fract_y
_atom_site_fract_z
I1 I 0.90982(3) 0.738483(8) 0.75269(2)
Si1 Si 0.71850(13) 0.56128(3) 0.81480(8)
O1 O 0.6148(3) 0.59070(7) 0.7042(2)
O2 O 0.2253(4) 0.65855(7) 0.1682(2)
O3 O 0.4628(4) 0.61796(8) 0.2317(2)
O4 O 0.1181(3) 0.59769(7) 0.3723(2)
N1 N 0.3913(3) 0.71502(8) 0.5267(3)
C1 C 0.9709(6) 0.57097(15) 0.8300(6)
H1 H 1.0178 0.5630 0.7529
H2 H 1.0323 0.5563 0.9010
H3 H 0.9933 0.5986 0.8440
C2 C 0.6364(10) 0.57123(16) 0.9696(5)
H4 H 0.6719 0.5974 0.9972
H5 H 0.6905 0.5525 1.0318
H6 H 0.5040 0.5689 0.9605
C3 C 0.6661(5) 0.51026(11) 0.7553(4)
C4 C 0.7675(6) 0.48055(11) 0.8505(4)
H7 H 0.8983 0.4853 0.8583
H8 H 0.7418 0.4542 0.8200
H9 H 0.7254 0.4837 0.9326
C5 C 0.4565(6) 0.50246(15) 0.7440(5)
H10 H 0.4148 0.5061 0.8260
H11 H 0.4313 0.4759 0.7155
H12 H 0.3927 0.5205 0.6835
C6 C 0.7302(7) 0.50435(14) 0.6247(4)
H13 H 0.6646 0.5222 0.5642
H14 H 0.7057 0.4777 0.5968
H15 H 0.8606 0.5095 0.6306
C7 C 0.5938(5) 0.63192(10) 0.7214(3)
H16 H 0.7084 0.6454 0.7107
H17 H 0.5653 0.6372 0.8072
C8 C 0.4373(4) 0.64725(9) 0.6231(3)
C9 C 0.2581(4) 0.62560(11) 0.6420(3)
H18 H 0.2729 0.5976 0.6263
H19 H 0.2346 0.6288 0.7300
C10 C 0.0933(4) 0.64111(10) 0.5531(3)
H20 H -0.0165 0.6263 0.5667
H21 H 0.0726 0.6686 0.5729
C11 C 0.1244(4) 0.63758(9) 0.4140(3)
H22 H 0.0281 0.6526 0.3611
C12 C 0.3144(4) 0.65335(9) 0.3908(3)
C13 C 0.4834(4) 0.64127(10) 0.4871(3)
H23 H 0.5219 0.6141 0.4730
C14 C 0.6317(4) 0.67129(10) 0.4581(3)
H24 H 0.7267 0.6743 0.5309
H25 H 0.6893 0.6632 0.3843
C15 C 0.5248(4) 0.70875(10) 0.4318(3)
H26 H 0.5791 0.7313 0.3916
C16 C 0.3274(4) 0.69816(10) 0.3962(3)
H27 H 0.2495 0.7141 0.3329
C17 C 0.4171(4) 0.69155(10) 0.6466(3)
H28 H 0.3118 0.6958 0.6927
H29 H 0.5268 0.7009 0.7001
C18 C 0.3365(5) 0.75631(10) 0.5454(4)
H30 H 0.4260 0.7687 0.6078
H31 H 0.2172 0.7569 0.5749
H32 H 0.3308 0.7703 0.4658
C19 C 0.3468(5) 0.64073(10) 0.2562(3)
C20 C 0.2388(7) 0.64645(13) 0.0370(4)
H33 H 0.2144 0.6187 0.0281
H34 H 0.3610 0.6519 0.0168
H35 H 0.1497 0.6608 -0.0204
C21 C -0.0651(5) 0.58334(13) 0.3418(5)
H36 H -0.1258 0.5832 0.4174
H37 H -0.0616 0.5570 0.3088
H38 H -0.1319 0.6001 0.2784
O5 O 0.7177(6) 0.68809(13) 0.0054(4)
H39 H 0.781(7) 0.7012(15) -0.046(3)
H40 H 0.754(7) 0.6970(16) 0.084(2)
loop_
_geom_bond_atom_site_label_1
_geom_bond_atom_site_label_2
_geom_bond_site_symmetry_1
_geom_bond_site_symmetry_2
Si1 O1 1_555 1_555
O1 C7 1_555 1_555
O2 C19 1_555 1_555
O3 C19 1_555 1_555
O4 C11 1_555 1_555
N1 C15 1_555 1_555
C1 Si1 1_555 1_555
H1 C1 1_555 1_555
H2 C1 1_555 1_555
H3 C1 1_555 1_555
C2 Si1 1_555 1_555
H4 C2 1_555 1_555
H5 C2 1_555 1_555
H6 C2 1_555 1_555
C3 Si1 1_555 1_555
C4 C3 1_555 1_555
H7 C4 1_555 1_555
H8 C4 1_555 1_555
H9 C4 1_555 1_555
C5 C3 1_555 1_555
H10 C5 1_555 1_555
H11 C5 1_555 1_555
H12 C5 1_555 1_555
C6 C3 1_555 1_555
H13 C6 1_555 1_555
H14 C6 1_555 1_555
H15 C6 1_555 1_555
C7 H16 1_555 1_555
H17 C7 1_555 1_555
C8 C7 1_555 1_555
C9 C8 1_555 1_555
H18 C9 1_555 1_555
H19 C9 1_555 1_555
C10 C9 1_555 1_555
H20 C10 1_555 1_555
H21 C10 1_555 1_555
C11 C10 1_555 1_555
H22 C11 1_555 1_555
C12 C11 1_555 1_555
C13 C8 1_555 1_555
H23 C13 1_555 1_555
C14 C13 1_555 1_555
H24 C14 1_555 1_555
H25 C14 1_555 1_555
C15 C14 1_555 1_555
H26 C15 1_555 1_555
C16 N1 1_555 1_555
H27 C16 1_555 1_555
C17 N1 1_555 1_555
H28 C17 1_555 1_555
H29 C17 1_555 1_555
C18 N1 1_555 1_555
H30 C18 1_555 1_555
H31 C18 1_555 1_555
H32 C18 1_555 1_555
C19 C12 1_555 1_555
C20 O2 1_555 1_555
H33 C20 1_555 1_555
H34 C20 1_555 1_555
H35 C20 1_555 1_555
C21 O4 1_555 1_555
H36 C21 1_555 1_555
H37 C21 1_555 1_555
H38 C21 1_555 1_555
O5 H39 1_555 1_555
H40 O5 1_555 1_555
C8 C17 1_555 1_555
C12 C13 1_555 1_555
C12 C16 1_555 1_555
C15 C16 1_555 1_555

#END
