
#######################################################################
#
#                 Cambridge Crystallographic Data Centre
#                                CCDC 
#
#######################################################################
#
# If this CIF has been generated from an entry in the Cambridge 
# Structural Database, then it will include bibliographic, chemical, 
# crystal, experimental, refinement or atomic coordinate data resulting 
# from the CCDC's data processing and validation procedures.
#
#######################################################################

data_GILCUB
_chemical_formula_moiety         'C25 H26 N2 O3'
_chemical_name_systematic        
'Methyl 1-(2-(5-methoxy-1H-indol-3-yl)ethyl)-5-methyl-4-phenyl-1,4-dihydropyridine-3-carboxylate'
_symmetry_cell_setting           triclinic
_symmetry_space_group_name_H-M   'P -1'
_symmetry_Int_Tables_number      2
_space_group_name_Hall           '-P 1'
loop_
_symmetry_equiv_pos_site_id
_symmetry_equiv_pos_as_xyz
1 x,y,z
2 -x,-y,-z
_cell_length_a                   8.4477(7)
_cell_length_b                   11.6376(10)
_cell_length_c                   12.6108(10)
_cell_angle_alpha                111.962(3)
_cell_angle_beta                 103.231(3)
_cell_angle_gamma                97.174(4)
_cell_volume                     1088.45
_cell_formula_units_Z            2
loop_
_atom_site_label
_atom_site_type_symbol
_atom_site_fract_x
_atom_site_fract_y
_atom_site_fract_z
C1 C 0.6045(3) 0.8479(2) 0.66579(19)
C2 C 0.6991(4) 0.9639(3) 0.7546(2)
H1 H 0.7036 0.9859 0.8343
C3 C 0.7862(4) 1.0455(3) 0.7217(2)
H2 H 0.8524 1.1233 0.7805
C4 C 0.7782(3) 1.0150(3) 0.6020(2)
C5 C 0.6868(3) 0.8994(3) 0.5143(2)
H3 H 0.6835 0.8783 0.4349
C6 C 0.5980(3) 0.8130(2) 0.54530(18)
C7 C 0.4966(3) 0.6864(2) 0.47878(19)
C8 C 0.4449(3) 0.6511(3) 0.5591(2)
H4 H 0.3765 0.5728 0.5402
C9 C 0.8393(4) 1.0939(3) 0.4618(3)
H5 H 0.8715 1.0190 0.4159
H6 H 0.9033 1.1674 0.4607
H7 H 0.7225 1.0860 0.4277
C10 C 0.4533(3) 0.6139(2) 0.34507(18)
H8 H 0.4138 0.5238 0.3231
H9 H 0.5524 0.6249 0.3201
C11 C 0.3196(3) 0.6610(3) 0.2821(2)
H10 H 0.2113 0.6194 0.2799
H11 H 0.3359 0.7518 0.3282
C12 C 0.4152(3) 0.7232(2) 0.13848(18)
H12 H 0.4768 0.7987 0.2033
C13 C 0.4279(3) 0.7056(2) 0.02903(17)
C14 C 0.5416(3) 0.7982(2) 0.01468(19)
C15 C 0.7418(4) 0.9973(3) 0.1123(3)
H13 H 0.8346 0.9648 0.0915
H14 H 0.7814 1.0687 0.1892
H15 H 0.6865 1.0238 0.0530
C16 C 0.3205(2) 0.5917(2) -0.08168(17)
H16 H 0.3920 0.5563 -0.1307
C17 C 0.2455(3) 0.4902(2) -0.0474(2)
C18 C 0.1661(3) 0.3603(2) -0.1448(2)
H17 H 0.1280 0.3045 -0.1112
H18 H 0.2464 0.3282 -0.1839
H19 H 0.0728 0.3646 -0.2021
C19 C 0.2452(3) 0.5184(2) 0.0647(2)
H20 H 0.1929 0.4547 0.0813
C20 C 0.1825(3) 0.6276(2) -0.15679(17)
C21 C 0.0806(3) 0.6992(2) -0.1051(2)
H21 H 0.0977 0.7278 -0.0230
C22 C -0.0468(3) 0.7295(3) -0.1728(2)
H22 H -0.1162 0.7762 -0.1365
C23 C -0.0707(4) 0.6913(3) -0.2919(3)
H23 H -0.1560 0.7120 -0.3374
C24 C 0.0297(4) 0.6232(3) -0.3442(2)
H24 H 0.0148 0.5985 -0.4256
C25 C 0.1542(3) 0.5898(3) -0.27788(19)
H25 H 0.2204 0.5408 -0.3158
N1 N 0.5083(3) 0.7476(2) 0.67153(16)
H26 H 0.4907 0.7457 0.7354
N2 N 0.3189(2) 0.6379(2) 0.15919(15)
O1 O 0.8702(3) 1.10771(18) 0.58268(19)
O2 O 0.5624(2) 0.78805(18) -0.08004(14)
O3 O 0.6255(2) 0.89871(17) 0.11739(15)
loop_
_geom_bond_atom_site_label_1
_geom_bond_atom_site_label_2
_geom_bond_site_symmetry_1
_geom_bond_site_symmetry_2
C1 C2 1_555 1_555
C2 H1 1_555 1_555
C3 C2 1_555 1_555
H2 C3 1_555 1_555
C4 C3 1_555 1_555
C5 C4 1_555 1_555
H3 C5 1_555 1_555
C6 C1 1_555 1_555
C7 C6 1_555 1_555
C8 C7 1_555 1_555
H4 C8 1_555 1_555
C9 H5 1_555 1_555
H6 C9 1_555 1_555
H7 C9 1_555 1_555
C10 C7 1_555 1_555
H8 C10 1_555 1_555
H9 C10 1_555 1_555
C11 C10 1_555 1_555
H10 C11 1_555 1_555
H11 C11 1_555 1_555
C12 H12 1_555 1_555
C13 C12 1_555 1_555
C14 C13 1_555 1_555
C15 H13 1_555 1_555
H14 C15 1_555 1_555
H15 C15 1_555 1_555
C16 C13 1_555 1_555
H16 C16 1_555 1_555
C17 C16 1_555 1_555
C18 C17 1_555 1_555
H17 C18 1_555 1_555
H18 C18 1_555 1_555
H19 C18 1_555 1_555
C19 C17 1_555 1_555
H20 C19 1_555 1_555
C20 C16 1_555 1_555
C21 C20 1_555 1_555
H21 C21 1_555 1_555
C22 C21 1_555 1_555
H22 C22 1_555 1_555
C23 C22 1_555 1_555
H23 C23 1_555 1_555
C24 C23 1_555 1_555
H24 C24 1_555 1_555
C25 C20 1_555 1_555
H25 C25 1_555 1_555
N1 C1 1_555 1_555
H26 N1 1_555 1_555
N2 C11 1_555 1_555
O1 C4 1_555 1_555
O2 C14 1_555 1_555
O3 C14 1_555 1_555
C5 C6 1_555 1_555
C8 N1 1_555 1_555
C9 O1 1_555 1_555
C12 N2 1_555 1_555
C15 O3 1_555 1_555
C19 N2 1_555 1_555
C24 C25 1_555 1_555

#END
