
#######################################################################
#
#                 Cambridge Crystallographic Data Centre
#                                CCDC 
#
#######################################################################
#
# If this CIF has been generated from an entry in the Cambridge 
# Structural Database, then it will include bibliographic, chemical, 
# crystal, experimental, refinement or atomic coordinate data resulting 
# from the CCDC's data processing and validation procedures.
#
#######################################################################

data_GILDUC
_chemical_formula_moiety         'C20 H21 N3 O4'
_chemical_name_systematic        
'Ethyl 3-cyano-1-(4-methoxybenzyl)-4-methyl-6-oxo-4,5,6,7-tetrahydro-1H-pyrrolo[2,3-b]pyridine-4-carboxylate'
_symmetry_cell_setting           triclinic
_symmetry_space_group_name_H-M   'P -1'
_symmetry_Int_Tables_number      2
_space_group_name_Hall           '-P 1'
loop_
_symmetry_equiv_pos_site_id
_symmetry_equiv_pos_as_xyz
1 x,y,z
2 -x,-y,-z
_cell_length_a                   6.4228(1)
_cell_length_b                   12.7292(2)
_cell_length_c                   12.9928(2)
_cell_angle_alpha                64.501(1)
_cell_angle_beta                 76.127(1)
_cell_angle_gamma                76.590(1)
_cell_volume                     920.72
_exptl_crystal_colour            colorless
_exptl_crystal_description       prism
_cell_formula_units_Z            2
loop_
_atom_site_label
_atom_site_type_symbol
_atom_site_fract_x
_atom_site_fract_y
_atom_site_fract_z
C1 C 0.25463(18) 0.42922(10) 1.09009(9)
C2 C 0.44154(19) 0.37781(10) 1.15761(10)
H1 H 0.3966 0.3926 1.2292
H2 H 0.5637 0.4220 1.1114
C3 C 0.52742(17) 0.24577(10) 1.19202(9)
C4 C 0.52621(18) 0.21578(10) 1.09180(9)
C5 C 0.38822(18) 0.28203(10) 1.01452(9)
C6 C 0.6435(2) 0.12475(10) 1.05456(10)
C7 C 0.5708(2) 0.14212(11) 0.95601(11)
H3 H 0.6213 0.0950 0.9123
C8 C 0.75451(19) 0.21960(12) 1.22391(12)
H4 H 0.8076 0.1352 1.2479
H5 H 0.7476 0.2430 1.2875
H6 H 0.8534 0.2639 1.1567
C9 C 0.37182(18) 0.17408(10) 1.29424(9)
C10 C 0.3197(2) -0.02196(12) 1.42553(12)
H7 H 0.2155 0.0179 1.4719
H8 H 0.4099 -0.0885 1.4778
C11 C 0.1989(3) -0.06730(14) 1.37213(17)
H9 H 0.1086 -0.0014 1.3210
H10 H 0.1064 -0.1224 1.4330
H11 H 0.3022 -0.1079 1.3273
C12 C 0.7996(2) 0.02891(11) 1.10946(10)
C13 C 0.3046(2) 0.29036(11) 0.83026(10)
H12 H 0.1473 0.3090 0.8551
H13 H 0.3245 0.2316 0.7964
C14 C 0.3873(2) 0.40075(10) 0.73851(10)
C15 C 0.6070(2) 0.40484(11) 0.69712(10)
H14 H 0.7090 0.3374 0.7294
C16 C 0.6806(2) 0.50558(11) 0.60945(10)
H15 H 0.8315 0.5070 0.5823
C17 C 0.5316(2) 0.60431(10) 0.56175(10)
C18 C 0.3118(2) 0.60146(11) 0.60291(11)
H16 H 0.2098 0.6689 0.5709
C19 C 0.2409(2) 0.50083(11) 0.69035(10)
H17 H 0.0901 0.4999 0.7180
C20 C 0.8077(2) 0.71756(13) 0.43395(12)
H18 H 0.8809 0.7033 0.4978
H19 H 0.8228 0.7967 0.3745
H20 H 0.8734 0.6592 0.4007
N1 N 0.24171(16) 0.38072(8) 1.01746(8)
N2 N 0.41417(17) 0.23835(9) 0.93191(8)
N3 N 0.9220(2) -0.04948(11) 1.15510(10)
O1 O 0.12783(14) 0.51636(8) 1.09503(8)
O2 O 0.19571(14) 0.21400(8) 1.33038(8)
O3 O 0.45713(14) 0.06032(7) 1.33655(7)
O4 O 0.58476(15) 0.70817(8) 0.47571(8)
H21 H 0.131(3) 0.4114(14) 0.9784(14)
loop_
_geom_bond_atom_site_label_1
_geom_bond_atom_site_label_2
_geom_bond_site_symmetry_1
_geom_bond_site_symmetry_2
C1 C2 1_555 1_555
C2 H1 1_555 1_555
H2 C2 1_555 1_555
C3 C2 1_555 1_555
C4 C3 1_555 1_555
C5 C4 1_555 1_555
C6 C4 1_555 1_555
C7 C6 1_555 1_555
H3 C7 1_555 1_555
C8 C3 1_555 1_555
H4 C8 1_555 1_555
H5 C8 1_555 1_555
H6 C8 1_555 1_555
C9 C3 1_555 1_555
C10 H7 1_555 1_555
H8 C10 1_555 1_555
C11 C10 1_555 1_555
H9 C11 1_555 1_555
H10 C11 1_555 1_555
H11 C11 1_555 1_555
C12 C6 1_555 1_555
C13 H12 1_555 1_555
H13 C13 1_555 1_555
C14 C13 1_555 1_555
C15 C14 1_555 1_555
H14 C15 1_555 1_555
C16 C15 1_555 1_555
H15 C16 1_555 1_555
C17 C16 1_555 1_555
C18 C17 1_555 1_555
H16 C18 1_555 1_555
C19 C14 1_555 1_555
H17 C19 1_555 1_555
C20 H18 1_555 1_555
H19 C20 1_555 1_555
H20 C20 1_555 1_555
N1 C1 1_555 1_555
N2 C5 1_555 1_555
N3 C12 1_555 1_555
O1 C1 1_555 1_555
O2 C9 1_555 1_555
O3 C9 1_555 1_555
O4 C17 1_555 1_555
H21 N1 1_555 1_555
C5 N1 1_555 1_555
C7 N2 1_555 1_555
C10 O3 1_555 1_555
C13 N2 1_555 1_555
C18 C19 1_555 1_555
C20 O4 1_555 1_555

#END
