
#######################################################################
#
#                 Cambridge Crystallographic Data Centre
#                                CCDC 
#
#######################################################################
#
# If this CIF has been generated from an entry in the Cambridge 
# Structural Database, then it will include bibliographic, chemical, 
# crystal, experimental, refinement or atomic coordinate data resulting 
# from the CCDC's data processing and validation procedures.
#
#######################################################################

data_GILGUG
_chemical_formula_moiety         'C84 H63 N4 S6 1+,I3 1-'
_chemical_name_systematic        
'12,22,37,47-tetrakis(2,4,6-trimethylphenyl)-14,17,20,39,42,45-hexathia-24,35,49-triaza-10-azoniapentadecacyclo[46.2.1.1^8,11^.1^13,16^.1^18,21^.1^23,26^.1^33,36^.1^38,41^.1^43,46^.0^2,7^.0^9,50^.0^15,19^.0^25,34^.0^27,32^.0^40,44^]octapentaconta-1(51),2,4,6,8(58),9(50),10,12,15(19),16(57),18(56),21,23(55),25,27,29,31,33(54),34,36,38(53),40,43,46(52),47-pentacosaene triiodide unknown solvate'
_symmetry_cell_setting           orthorhombic
_symmetry_space_group_name_H-M   'P n m a'
_symmetry_Int_Tables_number      62
_space_group_name_Hall           '-P 2ac 2n'
loop_
_symmetry_equiv_pos_site_id
_symmetry_equiv_pos_as_xyz
1 x,y,z
2 1/2-x,-y,1/2+z
3 -x,1/2+y,-z
4 1/2+x,1/2-y,1/2-z
5 -x,-y,-z
6 1/2+x,y,1/2-z
7 x,1/2-y,z
8 1/2-x,1/2+y,1/2+z
_cell_length_a                   16.094(3)
_cell_length_b                   35.620(7)
_cell_length_c                   15.672(3)
_cell_angle_alpha                90
_cell_angle_beta                 90
_cell_angle_gamma                90
_cell_volume                     8984.26
_exptl_crystal_colour            black
_exptl_crystal_description       prism
_cell_formula_units_Z            4
loop_
_atom_site_label
_atom_site_type_symbol
_atom_site_fract_x
_atom_site_fract_y
_atom_site_fract_z
I1 I 0.17334(2) 0.98156(2) 0.47154(2)
I2 I 0.0000 1.0000 0.5000
I1D I -0.17334(2) 1.01844(2) 0.52846(2)
S1 S 0.94143(5) 0.83493(2) 0.78812(4)
S2 S 0.89915(6) 0.93968(2) 0.67220(5)
S3 S 0.88368(5) 0.83572(2) 0.54671(4)
N1 N 0.99936(16) 0.79459(7) 0.95543(16)
N2 N 0.87220(17) 0.79494(7) 0.37093(15)
H1 H 0.8823 0.7894 0.4247
C1 C 0.9672(2) 0.87016(8) 0.86229(18)
C2 C 0.9526(2) 0.90648(8) 0.82809(18)
H2 H 0.9625 0.9292 0.8581
C3 C 0.9223(2) 0.90456(8) 0.74580(18)
C4 C 0.9140(2) 0.86798(8) 0.71270(18)
C5 C 0.8936(2) 0.86826(8) 0.62656(18)
C6 C 0.8850(2) 0.90529(8) 0.59447(19)
C7 C 0.8713(2) 0.90705(9) 0.50775(18)
H3 H 0.8633 0.9298 0.4771
C8 C 0.8704(2) 0.87125(9) 0.46995(18)
C9 C 0.99907(19) 0.86468(9) 0.94447(18)
C10 C 0.86370(19) 0.86530(8) 0.38130(18)
C11 C 1.0109(2) 0.83044(9) 0.98677(19)
C12 C 0.86372(19) 0.83082(8) 0.33798(18)
C13 C 1.0356(2) 0.82700(8) 1.07399(18)
H4 H 1.0481 0.8472 1.1115
C14 C 0.8493(2) 0.82707(9) 0.24868(17)
H5 H 0.8422 0.8471 0.2094
C15 C 1.03830(19) 0.78932(8) 1.09419(17)
C16 C 0.84748(19) 0.78938(8) 0.22893(17)
C17 C 1.01573(19) 0.76948(8) 1.01891(17)
C18 C 0.86246(19) 0.76957(8) 0.30687(17)
C19 C 1.05884(19) 0.76995(8) 1.17309(17)
C20 C 0.83167(18) 0.76976(8) 0.14939(18)
C21 C 1.0796(2) 0.78895(9) 1.24811(18)
H6 H 1.0796 0.8156 1.2487
C22 C 0.8149(2) 0.78931(9) 0.07347(18)
H7 H 0.8153 0.8160 0.0732
C23 C 1.0999(2) 0.76968(10) 1.3211(2)
H8 H 1.1140 0.7830 1.3715
C24 C 0.7978(2) 0.76988(10) -0.00106(18)
H9 H 0.7861 0.7832 -0.0522
C25 C 1.0278(2) 0.89943(9) 0.98952(18)
C26 C 0.8541(2) 0.90065(8) 0.33029(17)
C27 C 0.9749(2) 0.91935(9) 1.04444(19)
C28 C 0.7750(2) 0.91295(9) 0.30522(19)
C29 C 1.1073(2) 0.91283(10) 0.9711(2)
C30 C 0.9246(2) 0.92313(9) 0.31639(19)
C31 C 1.0050(2) 0.95243(10) 1.0810(2)
H10 H 0.9698 0.9662 1.1182
C32 C 0.7677(2) 0.94862(10) 0.2686(2)
H11 H 0.7146 0.9569 0.2499
C33 C 1.1346(2) 0.94612(10) 1.0092(2)
H12 H 1.1886 0.9554 0.9965
C34 C 0.9135(2) 0.95876(10) 0.2823(2)
H13 H 0.9607 0.9744 0.2746
C35 C 1.0842(2) 0.96585(9) 1.0651(2)
C36 C 0.8355(3) 0.97225(10) 0.2589(2)
C37 C 0.8876(3) 0.90626(11) 1.0630(2)
H14 H 0.8515 0.9124 1.0146
H15 H 0.8670 0.9188 1.1145
H16 H 0.8877 0.8790 1.0720
C38 C 1.1646(2) 0.89212(12) 0.9104(3)
H17 H 1.1815 0.8682 0.9360
H18 H 1.2140 0.9075 0.8992
H19 H 1.1354 0.8873 0.8566
C39 C 1.1140(3) 1.00207(10) 1.1041(3)
H20 H 1.0998 1.0230 1.0664
H21 H 1.1744 1.0011 1.1118
H22 H 1.0871 1.0057 1.1597
C40 C 1.0099(2) 0.91012(11) 0.3402(2)
H23 H 1.0513 0.9263 0.3131
H24 H 1.0178 0.8842 0.3209
H25 H 1.0164 0.9113 0.4023
C41 C 0.6992(2) 0.88919(11) 0.3177(2)
H26 H 0.6508 0.9054 0.3267
H27 H 0.7069 0.8730 0.3676
H28 H 0.6902 0.8736 0.2669
C42 C 0.8258(3) 1.01168(12) 0.2253(3)
H29 H 0.7778 1.0128 0.1869
H30 H 0.8761 1.0189 0.1940
H31 H 0.8173 1.0290 0.2731
S1F S 0.94143(5) 0.66507(2) 0.78812(4)
S2F S 0.89915(6) 0.56032(2) 0.67220(5)
S3F S 0.88368(5) 0.66428(2) 0.54671(4)
N1F N 0.99936(16) 0.70541(7) 0.95543(16)
N2F N 0.87220(17) 0.70506(7) 0.37093(15)
H1F H 0.8823 0.7106 0.4247
C1F C 0.9672(2) 0.62984(8) 0.86229(18)
C2F C 0.9526(2) 0.59352(8) 0.82809(18)
H2F H 0.9625 0.5708 0.8581
C3F C 0.9223(2) 0.59544(8) 0.74580(18)
C4F C 0.9140(2) 0.63202(8) 0.71270(18)
C5F C 0.8936(2) 0.63174(8) 0.62656(18)
C6F C 0.8850(2) 0.59471(8) 0.59447(19)
C7F C 0.8713(2) 0.59295(9) 0.50775(18)
H3F H 0.8633 0.5702 0.4771
C8F C 0.8704(2) 0.62875(9) 0.46995(18)
C9F C 0.99907(19) 0.63532(9) 0.94447(18)
C10F C 0.86370(19) 0.63470(8) 0.38130(18)
C11F C 1.0109(2) 0.66956(9) 0.98677(19)
C12F C 0.86372(19) 0.66918(8) 0.33798(18)
C13F C 1.0356(2) 0.67300(8) 1.07399(18)
H4F H 1.0481 0.6528 1.1115
C14F C 0.8493(2) 0.67293(9) 0.24868(17)
H5F H 0.8422 0.6529 0.2094
C15F C 1.03830(19) 0.71068(8) 1.09419(17)
C16F C 0.84748(19) 0.71062(8) 0.22893(17)
C17F C 1.01573(19) 0.73052(8) 1.01891(17)
C18F C 0.86246(19) 0.73043(8) 0.30687(17)
C19F C 1.05884(19) 0.73005(8) 1.17309(17)
C20F C 0.83167(18) 0.73024(8) 0.14939(18)
C21F C 1.0796(2) 0.71105(9) 1.24811(18)
H6F H 1.0796 0.6844 1.2487
C22F C 0.8149(2) 0.71069(9) 0.07347(18)
H7F H 0.8153 0.6840 0.0732
C23F C 1.0999(2) 0.73032(10) 1.3211(2)
H8F H 1.1140 0.7170 1.3715
C24F C 0.7978(2) 0.73012(10) -0.00106(18)
H9F H 0.7861 0.7168 -0.0522
C25F C 1.0278(2) 0.60057(9) 0.98952(18)
C26F C 0.8541(2) 0.59935(8) 0.33029(17)
C27F C 0.9749(2) 0.58065(9) 1.04444(19)
C28F C 0.7750(2) 0.58705(9) 0.30522(19)
C29F C 1.1073(2) 0.58717(10) 0.9711(2)
C30F C 0.9246(2) 0.57687(9) 0.31639(19)
C31F C 1.0050(2) 0.54757(10) 1.0810(2)
H10F H 0.9698 0.5338 1.1182
C32F C 0.7677(2) 0.55138(10) 0.2686(2)
H11F H 0.7146 0.5431 0.2499
C33F C 1.1346(2) 0.55388(10) 1.0092(2)
H12F H 1.1886 0.5446 0.9965
C34F C 0.9135(2) 0.54124(10) 0.2823(2)
H13F H 0.9607 0.5256 0.2746
C35F C 1.0842(2) 0.53415(9) 1.0651(2)
C36F C 0.8355(3) 0.52775(10) 0.2589(2)
C37F C 0.8876(3) 0.59374(11) 1.0630(2)
H14F H 0.8515 0.5876 1.0146
H15F H 0.8670 0.5812 1.1145
H16F H 0.8877 0.6210 1.0720
C38F C 1.1646(2) 0.60788(12) 0.9104(3)
H17F H 1.1815 0.6318 0.9360
H18F H 1.2140 0.5925 0.8992
H19F H 1.1354 0.6127 0.8566
C39F C 1.1140(3) 0.49793(10) 1.1041(3)
H20F H 1.0998 0.4770 1.0664
H21F H 1.1744 0.4989 1.1118
H22F H 1.0871 0.4943 1.1597
C40F C 1.0099(2) 0.58988(11) 0.3402(2)
H23F H 1.0513 0.5737 0.3131
H24F H 1.0178 0.6158 0.3209
H25F H 1.0164 0.5887 0.4023
C41F C 0.6992(2) 0.61081(11) 0.3177(2)
H26F H 0.6508 0.5946 0.3267
H27F H 0.7069 0.6270 0.3676
H28F H 0.6902 0.6264 0.2669
C42F C 0.8258(3) 0.48832(12) 0.2253(3)
H29F H 0.7778 0.4872 0.1869
H30F H 0.8761 0.4811 0.1940
H31F H 0.8173 0.4710 0.2731
H32? H 0.9840 0.7889 0.9031
loop_
_geom_bond_atom_site_label_1
_geom_bond_atom_site_label_2
_geom_bond_site_symmetry_1
_geom_bond_site_symmetry_2
I1 I2 1_555 1_555
I2 I1D 1_555 1_555
S1 C1 1_555 1_555
S2 C3 1_555 1_555
S3 C5 1_555 1_555
N1 C11 1_555 1_555
N2 H1 1_555 1_555
C1 C2 1_555 1_555
C2 H2 1_555 1_555
C3 C2 1_555 1_555
C4 S1 1_555 1_555
C5 C4 1_555 1_555
C6 S2 1_555 1_555
C7 C6 1_555 1_555
H3 C7 1_555 1_555
C8 S3 1_555 1_555
C9 C1 1_555 1_555
C10 C8 1_555 1_555
C11 C9 1_555 1_555
C12 N2 1_555 1_555
C13 C11 1_555 1_555
H4 C13 1_555 1_555
C14 C12 1_555 1_555
H5 C14 1_555 1_555
C15 C13 1_555 1_555
C16 C14 1_555 1_555
C17 N1 1_555 1_555
C18 N2 1_555 1_555
C19 C15 1_555 1_555
C20 C16 1_555 1_555
C21 C19 1_555 1_555
H6 C21 1_555 1_555
C22 C20 1_555 1_555
H7 C22 1_555 1_555
C23 C21 1_555 1_555
H8 C23 1_555 1_555
C24 C22 1_555 1_555
H9 C24 1_555 1_555
C25 C9 1_555 1_555
C26 C10 1_555 1_555
C27 C25 1_555 1_555
C28 C26 1_555 1_555
C29 C25 1_555 1_555
C30 C26 1_555 1_555
C31 C27 1_555 1_555
H10 C31 1_555 1_555
C32 C28 1_555 1_555
H11 C32 1_555 1_555
C33 C29 1_555 1_555
H12 C33 1_555 1_555
C34 C30 1_555 1_555
H13 C34 1_555 1_555
C35 C31 1_555 1_555
C36 C32 1_555 1_555
C37 C27 1_555 1_555
H14 C37 1_555 1_555
H15 C37 1_555 1_555
H16 C37 1_555 1_555
C38 C29 1_555 1_555
H17 C38 1_555 1_555
H18 C38 1_555 1_555
H19 C38 1_555 1_555
C39 C35 1_555 1_555
H20 C39 1_555 1_555
H21 C39 1_555 1_555
H22 C39 1_555 1_555
C40 C30 1_555 1_555
H23 C40 1_555 1_555
H24 C40 1_555 1_555
H25 C40 1_555 1_555
C41 C28 1_555 1_555
H26 C41 1_555 1_555
H27 C41 1_555 1_555
H28 C41 1_555 1_555
C42 C36 1_555 1_555
H29 C42 1_555 1_555
H30 C42 1_555 1_555
H31 C42 1_555 1_555
S1F C1F 1_555 1_555
S2F C3F 1_555 1_555
S3F C5F 1_555 1_555
N1F C11F 1_555 1_555
N2F H1F 1_555 1_555
C1F C2F 1_555 1_555
C2F H2F 1_555 1_555
C3F C2F 1_555 1_555
C4F S1F 1_555 1_555
C5F C4F 1_555 1_555
C6F S2F 1_555 1_555
C7F C6F 1_555 1_555
H3F C7F 1_555 1_555
C8F S3F 1_555 1_555
C9F C1F 1_555 1_555
C10F C8F 1_555 1_555
C11F C9F 1_555 1_555
C12F N2F 1_555 1_555
C13F C11F 1_555 1_555
H4F C13F 1_555 1_555
C14F C12F 1_555 1_555
H5F C14F 1_555 1_555
C15F C13F 1_555 1_555
C16F C14F 1_555 1_555
C17F C17 1_555 1_555
C18F C18 1_555 1_555
C19F C19 1_555 1_555
C20F C20 1_555 1_555
C21F C19F 1_555 1_555
H6F C21F 1_555 1_555
C22F C20F 1_555 1_555
H7F C22F 1_555 1_555
C23F C23 1_555 1_555
H8F C23F 1_555 1_555
C24F C24 1_555 1_555
H9F C24F 1_555 1_555
C25F C9F 1_555 1_555
C26F C10F 1_555 1_555
C27F C25F 1_555 1_555
C28F C26F 1_555 1_555
C29F C25F 1_555 1_555
C30F C26F 1_555 1_555
C31F C27F 1_555 1_555
H10F C31F 1_555 1_555
C32F C28F 1_555 1_555
H11F C32F 1_555 1_555
C33F C29F 1_555 1_555
H12F C33F 1_555 1_555
C34F C30F 1_555 1_555
H13F C34F 1_555 1_555
C35F C31F 1_555 1_555
C36F C32F 1_555 1_555
C37F C27F 1_555 1_555
H14F C37F 1_555 1_555
H15F C37F 1_555 1_555
H16F C37F 1_555 1_555
C38F C29F 1_555 1_555
H17F C38F 1_555 1_555
H18F C38F 1_555 1_555
H19F C38F 1_555 1_555
C39F C35F 1_555 1_555
H20F C39F 1_555 1_555
H21F C39F 1_555 1_555
H22F C39F 1_555 1_555
C40F C30F 1_555 1_555
H23F C40F 1_555 1_555
H24F C40F 1_555 1_555
H25F C40F 1_555 1_555
C41F C28F 1_555 1_555
H26F C41F 1_555 1_555
H27F C41F 1_555 1_555
H28F C41F 1_555 1_555
C42F C36F 1_555 1_555
H29F C42F 1_555 1_555
H30F C42F 1_555 1_555
H31F C42F 1_555 1_555
C3 C4 1_555 1_555
C5 C6 1_555 1_555
C7 C8 1_555 1_555
C10 C12 1_555 1_555
C15 C17 1_555 1_555
C16 C18 1_555 1_555
C33 C35 1_555 1_555
C34 C36 1_555 1_555
N1F C17F 1_555 1_555
N2F C18F 1_555 1_555
C3F C4F 1_555 1_555
C5F C6F 1_555 1_555
C7F C8F 1_555 1_555
C10F C12F 1_555 1_555
C15F C17F 1_555 1_555
C15F C19F 1_555 1_555
C16F C18F 1_555 1_555
C16F C20F 1_555 1_555
C21F C23F 1_555 1_555
C22F C24F 1_555 1_555
C33F C35F 1_555 1_555
C34F C36F 1_555 1_555

#END
