
#######################################################################
#
#                 Cambridge Crystallographic Data Centre
#                                CCDC 
#
#######################################################################
#
# If this CIF has been generated from an entry in the Cambridge 
# Structural Database, then it will include bibliographic, chemical, 
# crystal, experimental, refinement or atomic coordinate data resulting 
# from the CCDC's data processing and validation procedures.
#
#######################################################################

data_GILGIU
_chemical_formula_moiety         
'C84 H64 N4 S6 2+,2(Cl1 1-),5(C1 H1 Cl3),3(C5 H12),H2 O1'
_chemical_name_systematic        
'12,22,37,47-tetrakis(2,4,6-trimethylphenyl)-14,17,20,39,42,45-hexathia-24,49-diaza-10,35-diazoniapentadecacyclo[46.2.1.1^8,11^.1^13,16^.1^18,21^.1^23,26^.1^33,36^.1^38,41^.1^43,46^.0^2,7^.0^9,50^.0^15,19^.0^25,34^.0^27,32^.0^40,44^]octapentaconta-1(51),2,4,6,8(58),9(50),10,12,15(19),16(57),18(56),21,23(55),25,27,29,31,33(54),34,36,38(53),40,43,46(52),47-pentacosaene bis(chloride) chloroform pentane solvate monohydrate'
_symmetry_cell_setting           orthorhombic
_symmetry_space_group_name_H-M   'P 21 21 21'
_symmetry_Int_Tables_number      19
_space_group_name_Hall           'P 2ac 2ab'
loop_
_symmetry_equiv_pos_site_id
_symmetry_equiv_pos_as_xyz
1 x,y,z
2 1/2-x,-y,1/2+z
3 -x,1/2+y,1/2-z
4 1/2+x,1/2-y,-z
_cell_length_a                   12.5497(17)
_cell_length_b                   16.7205(17)
_cell_length_c                   49.892(7)
_cell_angle_alpha                90
_cell_angle_beta                 90
_cell_angle_gamma                90
_cell_volume                     10469.2
_exptl_crystal_colour            brown
_exptl_crystal_description       plate
_cell_formula_units_Z            4
loop_
_atom_site_label
_atom_site_type_symbol
_atom_site_fract_x
_atom_site_fract_y
_atom_site_fract_z
C1 C 0.8291(15) 0.5420(10) 0.2437(4)
C2 C 0.8687(19) 0.5352(11) 0.2172(4)
H1 H 0.899384 0.488021 0.209894
C3 C 0.8564(16) 0.6083(10) 0.2030(4)
C4 C 0.8001(15) 0.6586(11) 0.2224(4)
C5 C 0.7657(15) 0.7320(9) 0.2141(4)
C6 C 0.7838(16) 0.7577(11) 0.1869(3)
C7 C 0.7352(16) 0.8315(11) 0.1844(4)
H2 H 0.737536 0.863987 0.168835
C8 C 0.6810(15) 0.8520(10) 0.2085(3)
C9 C 0.6195(15) 0.9172(11) 0.2131(4)
C10 C 0.5924(16) 0.9503(8) 0.2381(3)
C11 C 0.5209(15) 1.0156(11) 0.2423(3)
H3 H 0.483072 1.040926 0.228151
C12 C 0.5122(16) 1.0378(10) 0.2680(4)
C13 C 0.5745(16) 0.9860(10) 0.2856(3)
C14 C 0.5620(16) 1.0094(10) 0.3125(4)
C15 C 0.4939(16) 1.0769(10) 0.3155(4)
C16 C 0.4849(17) 1.1086(12) 0.3420(4)
H4 H 0.448978 1.156656 0.346548
C17 C 0.5389(18) 1.0563(11) 0.3609(4)
C18 C 0.5467(16) 1.0728(11) 0.3876(4)
C19 C 0.5953(18) 1.0249(12) 0.4074(4)
C20 C 0.6130(19) 1.0516(12) 0.4347(4)
H5 H 0.593786 1.102112 0.441933
C21 C 0.6628(18) 0.9905(12) 0.4482(4)
C22 C 0.6649(17) 0.9215(11) 0.4305(4)
C23 C 0.705(2) 0.8454(13) 0.4389(4)
C24 C 0.7416(18) 0.8384(12) 0.4660(4)
C25 C 0.7650(16) 0.7582(11) 0.4688(4)
H6 H 0.786077 0.733782 0.485154
C26 C 0.7529(17) 0.7149(12) 0.4429(4)
C27 C 0.7734(17) 0.6396(12) 0.4382(4)
C28 C 0.7849(17) 0.6024(12) 0.4130(3)
C29 C 0.7962(19) 0.5159(14) 0.4105(4)
H7 H 0.799922 0.478869 0.424904
C30 C 0.8007(16) 0.4966(8) 0.3831(4)
C31 C 0.7914(16) 0.5617(9) 0.3650(4)
C32 C 0.7972(13) 0.5367(10) 0.3385(3)
C33 C 0.8121(16) 0.4550(10) 0.3355(3)
C34 C 0.8261(16) 0.4284(10) 0.3096(3)
H8 H 0.837414 0.374011 0.304835
C35 C 0.8215(16) 0.4916(11) 0.2912(4)
C36 C 0.8395(17) 0.4784(12) 0.2643(4)
C37 C 0.8771(17) 0.6292(12) 0.1771(4)
C38 C 0.9377(18) 0.5812(12) 0.1590(4)
H9 H 0.961573 0.529761 0.164415
C39 C 0.963(2) 0.6096(15) 0.1328(4)
H10 H 0.996901 0.575709 0.120133
C40 C 0.937(2) 0.6869(13) 0.1261(5)
H11 H 0.961765 0.708015 0.109617
C41 C 0.873(2) 0.7371(14) 0.1431(4)
H12 H 0.848329 0.787681 0.136895
C42 C 0.847(2) 0.7108(14) 0.1687(4)
C43 C 0.5795(15) 0.9637(10) 0.1880(4)
C44 C 0.5038(17) 0.9228(11) 0.1711(4)
C45 C 0.4786(19) 0.9628(13) 0.1466(4)
H13 H 0.428420 0.938933 0.134758
C46 C 0.5254(19) 1.0368(13) 0.1391(4)
C47 C 0.5927(17) 1.0723(11) 0.1570(4)
H14 H 0.622864 1.122560 0.152422
C48 C 0.6200(16) 1.0379(11) 0.1822(3)
C49 C 0.455(2) 0.8429(11) 0.1771(4)
H15 H 0.496988 0.800823 0.168321
H16 H 0.381898 0.841595 0.170342
H17 H 0.455002 0.833959 0.196499
C50 C 0.502(2) 1.0719(13) 0.1117(4)
H18 H 0.565589 1.068275 0.100414
H19 H 0.481057 1.128128 0.113620
H20 H 0.443495 1.042018 0.103286
C51 C 0.7006(15) 1.0851(11) 0.1991(4)
H21 H 0.662395 1.122278 0.210892
H22 H 0.748149 1.115274 0.187269
H23 H 0.742643 1.047941 0.210022
C52 C 0.5009(17) 1.1520(11) 0.3964(3)
C53 C 0.387(2) 1.1597(13) 0.4019(4)
C54 C 0.356(2) 1.2382(14) 0.4100(5)
H24 H 0.283831 1.247403 0.414883
C55 C 0.429(2) 1.3023(15) 0.4111(5)
C56 C 0.532(2) 1.2910(16) 0.4061(5)
H25 H 0.579209 1.335008 0.407654
C57 C 0.5730(18) 1.2150(12) 0.3986(4)
C58 C 0.3140(19) 1.0890(15) 0.3989(5)
H26 H 0.240212 1.106271 0.401644
H27 H 0.332571 1.048185 0.412142
H28 H 0.321513 1.066689 0.380795
C59 C 0.382(2) 1.3865(15) 0.4197(5)
H29 H 0.430798 1.412181 0.432397
H30 H 0.312367 1.379007 0.428174
H31 H 0.374134 1.420484 0.403797
C60 C 0.692(2) 1.2082(14) 0.3917(5)
H32 H 0.734708 1.217129 0.407869
H33 H 0.710621 1.248460 0.378172
H34 H 0.707055 1.154710 0.384569
C61 C 0.6954(19) 0.9809(13) 0.4752(4)
C62 C 0.704(2) 1.0483(13) 0.4918(5)
H35 H 0.678980 1.098763 0.485767
C63 C 0.750(2) 1.0412(15) 0.5176(5)
H36 H 0.759022 1.087159 0.528528
C64 C 0.784(2) 0.9664(14) 0.5268(5)
H37 H 0.807028 0.962100 0.544868
C65 C 0.7844(19) 0.8959(13) 0.5106(4)
H38 H 0.809144 0.845963 0.517216
C66 C 0.7463(19) 0.9046(14) 0.4842(4)
C67 C 0.7943(18) 0.5883(10) 0.4623(4)
C68 C 0.900(2) 0.5767(16) 0.4727(5)
C69 C 0.917(3) 0.5260(16) 0.4942(5)
H39 H 0.986954 0.517766 0.501056
C70 C 0.836(3) 0.4898(18) 0.5048(6)
C71 C 0.738(3) 0.4946(19) 0.4965(6)
H40 H 0.683932 0.463634 0.504912
C72 C 0.711(3) 0.5479(18) 0.4742(6)
C73 C 0.987(3) 0.6170(19) 0.4585(6)
H41 H 0.975012 0.674890 0.458699
H42 H 0.989800 0.598012 0.439958
H43 H 1.054830 0.604965 0.467451
C74 C 0.849(3) 0.4295(19) 0.5303(6)
H44 H 0.841129 0.374094 0.524164
H45 H 0.793460 0.441379 0.543570
H46 H 0.919134 0.436879 0.538346
C75 C 0.590(3) 0.5554(17) 0.4652(6)
H47 H 0.567953 0.611487 0.466233
H48 H 0.545444 0.522990 0.477058
H49 H 0.582594 0.536361 0.446703
C76 C 0.8709(16) 0.4008(11) 0.2538(4)
C77 C 0.7944(18) 0.3550(11) 0.2428(4)
C78 C 0.8221(15) 0.2786(10) 0.2313(4)
H50 H 0.770127 0.242848 0.224402
C79 C 0.937(2) 0.2602(14) 0.2311(5)
C80 C 1.0043(19) 0.3065(13) 0.2408(4)
H51 H 1.077184 0.291335 0.239847
C81 C 0.9795(16) 0.3797(12) 0.2531(4)
C82 C 0.6718(19) 0.3742(13) 0.2451(4)
H52 H 0.655279 0.392070 0.263304
H53 H 0.630510 0.325998 0.240949
H54 H 0.653261 0.416569 0.232301
C83 C 0.958(2) 0.1821(13) 0.2169(5)
H55 H 1.013698 0.152492 0.226494
H56 H 0.981886 0.192882 0.198537
H57 H 0.892615 0.150321 0.216458
C84 C 1.0692(18) 0.4338(10) 0.2645(4)
H58 H 1.058017 0.488998 0.258543
H59 H 1.138453 0.414743 0.258061
H60 H 1.067860 0.431842 0.284152
N1 N 0.7897(12) 0.6197(8) 0.2464(3)
H61 H 0.762563 0.640304 0.261072
N2 N 0.7032(13) 0.7907(8) 0.2269(3)
H62 H 0.681605 0.789185 0.243629
N3 N 0.6263(14) 0.9463(9) 0.4053(3)
H63 H 0.622740 0.916695 0.390756
N4 N 0.7179(15) 0.7744(9) 0.4259(3)
H64 H 0.705707 0.767436 0.408645
S1 S 0.6363(4) 0.9114(3) 0.26872(10)
S2 S 0.4516(5) 1.1167(3) 0.28513(11)
S3 S 0.6009(5) 0.9759(3) 0.34378(10)
S4 S 0.7740(4) 0.6504(3) 0.38257(10)
S5 S 0.8182(5) 0.4065(3) 0.36653(10)
S6 S 0.7923(4) 0.5836(2) 0.30767(9)
C85 C 0.875(3) 0.861(2) 0.3403(6)
H65 H 0.827312 0.813075 0.338257
Cl1 Cl 0.8543(7) 0.9273(6) 0.31352(17)
Cl2 Cl 1.0123(8) 0.8306(7) 0.3380(2)
Cl3 Cl 0.8567(7) 0.9024(6) 0.37073(16)
C86 C 0.389(3) 0.7868(17) 0.4300(6)
H66 H 0.443189 0.776470 0.415782
Cl4 Cl 0.3373(9) 0.8828(6) 0.4258(2)
Cl5 Cl 0.2852(8) 0.7134(5) 0.42745(15)
Cl6 Cl 0.4505(9) 0.7801(7) 0.4617(2)
C87 C 1.139(3) 0.553(2) 0.3687(7)
H67 H 1.212098 0.571410 0.363199
Cl7 Cl 1.0647(10) 0.6332(7) 0.3729(3)
Cl8 Cl 1.0875(9) 0.4914(8) 0.3428(3)
Cl9 Cl 1.150(2) 0.5019(12) 0.3965(4)
C88 C 1.082(4) 0.820(2) 0.4722(7)
H68 H 1.128189 0.856091 0.482586
H69 H 1.122651 0.772497 0.467027
H70 H 1.020951 0.804331 0.483171
C89 C 1.044(4) 0.8628(18) 0.4474(7)
H71 H 0.979420 0.835530 0.440311
H72 H 1.099488 0.860934 0.433385
C90 C 1.017(3) 0.9480(16) 0.4537(6)
H73 H 0.976627 0.949032 0.470706
H74 H 1.084979 0.977002 0.456864
C91 C 0.958(3) 0.9904(17) 0.4341(6)
H75 H 0.887007 0.965455 0.432487
H76 H 0.994547 0.984253 0.416575
C92 C 0.944(4) 1.0772(17) 0.4396(7)
H77 H 0.932184 1.085267 0.458787
H78 H 0.882729 1.097236 0.429495
H79 H 1.008398 1.106172 0.434043
O1 O 0.7049(15) 0.7339(9) 0.3303(3)
H80 H 0.667639 0.747477 0.342542
H81 H 0.677299 0.725705 0.316142
Cl10 Cl 0.5936(4) 0.7015(2) 0.27396(10)
Cl11 Cl 0.5567(5) 0.7880(3) 0.37849(11)
Cl12 Cl 0.2933(5) 0.9337(3) 0.32968(13)
Cl13 Cl 0.2568(6) 0.7779(4) 0.35387(15)
Cl14 Cl 0.4244(5) 0.7972(3) 0.31511(12)
C93 C 0.352(2) 0.8457(13) 0.3404(4)
H82 H 0.402652 0.859547 0.355080
Cl15 Cl 0.8556(10) 0.2166(6) 0.3260(2)
Cl16 Cl 0.6848(8) 0.1964(6) 0.2861(2)
Cl17 Cl 0.8724(13) 0.0970(9) 0.2838(4)
C94 C 0.822(2) 0.1896(17) 0.2938(6)
H83 H 0.857957 0.229759 0.281989
Cl18? Cl 0.926(2) 0.2316(13) 0.2949(5)
Cl19? Cl 0.781(3) 0.1081(16) 0.2741(5)
Cl20? Cl 0.744(3) 0.175(2) 0.3263(6)
C95? C 0.799(3) 0.193(2) 0.2948(7)
H84? H 0.753677 0.235702 0.286626
loop_
_geom_bond_atom_site_label_1
_geom_bond_atom_site_label_2
_geom_bond_site_symmetry_1
_geom_bond_site_symmetry_2
C1 C2 1_555 1_555
C2 H1 1_555 1_555
C3 C2 1_555 1_555
C4 C3 1_555 1_555
C5 C4 1_555 1_555
C6 C5 1_555 1_555
C7 C6 1_555 1_555
H2 C7 1_555 1_555
C8 C7 1_555 1_555
C9 C8 1_555 1_555
C10 C9 1_555 1_555
C11 C10 1_555 1_555
H3 C11 1_555 1_555
C12 C11 1_555 1_555
C13 C12 1_555 1_555
C14 C13 1_555 1_555
C15 C14 1_555 1_555
C16 C15 1_555 1_555
H4 C16 1_555 1_555
C17 C16 1_555 1_555
C18 C17 1_555 1_555
C19 C18 1_555 1_555
C20 C19 1_555 1_555
H5 C20 1_555 1_555
C21 C20 1_555 1_555
C22 C21 1_555 1_555
C23 C22 1_555 1_555
C24 C23 1_555 1_555
C25 C24 1_555 1_555
H6 C25 1_555 1_555
C26 C25 1_555 1_555
C27 C26 1_555 1_555
C28 C27 1_555 1_555
C29 C28 1_555 1_555
H7 C29 1_555 1_555
C30 C29 1_555 1_555
C31 C30 1_555 1_555
C32 C31 1_555 1_555
C33 C32 1_555 1_555
C34 C33 1_555 1_555
H8 C34 1_555 1_555
C35 C34 1_555 1_555
C36 C1 1_555 1_555
C37 C3 1_555 1_555
C38 C37 1_555 1_555
H9 C38 1_555 1_555
C39 C38 1_555 1_555
H10 C39 1_555 1_555
C40 C39 1_555 1_555
H11 C40 1_555 1_555
C41 C40 1_555 1_555
H12 C41 1_555 1_555
C42 C6 1_555 1_555
C43 C9 1_555 1_555
C44 C43 1_555 1_555
C45 C44 1_555 1_555
H13 C45 1_555 1_555
C46 C45 1_555 1_555
C47 C46 1_555 1_555
H14 C47 1_555 1_555
C48 C43 1_555 1_555
C49 C44 1_555 1_555
H15 C49 1_555 1_555
H16 C49 1_555 1_555
H17 C49 1_555 1_555
C50 C46 1_555 1_555
H18 C50 1_555 1_555
H19 C50 1_555 1_555
H20 C50 1_555 1_555
C51 C48 1_555 1_555
H21 C51 1_555 1_555
H22 C51 1_555 1_555
H23 C51 1_555 1_555
C52 C18 1_555 1_555
C53 C52 1_555 1_555
C54 C53 1_555 1_555
H24 C54 1_555 1_555
C55 C54 1_555 1_555
C56 C55 1_555 1_555
H25 C56 1_555 1_555
C57 C52 1_555 1_555
C58 C53 1_555 1_555
H26 C58 1_555 1_555
H27 C58 1_555 1_555
H28 C58 1_555 1_555
C59 C55 1_555 1_555
H29 C59 1_555 1_555
H30 C59 1_555 1_555
H31 C59 1_555 1_555
C60 C57 1_555 1_555
H32 C60 1_555 1_555
H33 C60 1_555 1_555
H34 C60 1_555 1_555
C61 C21 1_555 1_555
C62 C61 1_555 1_555
H35 C62 1_555 1_555
C63 C62 1_555 1_555
H36 C63 1_555 1_555
C64 C63 1_555 1_555
H37 C64 1_555 1_555
C65 C64 1_555 1_555
H38 C65 1_555 1_555
C66 C24 1_555 1_555
C67 C27 1_555 1_555
C68 C67 1_555 1_555
C69 C68 1_555 1_555
H39 C69 1_555 1_555
C70 C69 1_555 1_555
C71 C70 1_555 1_555
H40 C71 1_555 1_555
C72 C67 1_555 1_555
C73 C68 1_555 1_555
H41 C73 1_555 1_555
H42 C73 1_555 1_555
H43 C73 1_555 1_555
C74 C70 1_555 1_555
H44 C74 1_555 1_555
H45 C74 1_555 1_555
H46 C74 1_555 1_555
C75 C72 1_555 1_555
H47 C75 1_555 1_555
H48 C75 1_555 1_555
H49 C75 1_555 1_555
C76 C36 1_555 1_555
C77 C76 1_555 1_555
C78 C77 1_555 1_555
H50 C78 1_555 1_555
C79 C78 1_555 1_555
C80 C79 1_555 1_555
H51 C80 1_555 1_555
C81 C76 1_555 1_555
C82 C77 1_555 1_555
H52 C82 1_555 1_555
H53 C82 1_555 1_555
H54 C82 1_555 1_555
C83 C79 1_555 1_555
H55 C83 1_555 1_555
H56 C83 1_555 1_555
H57 C83 1_555 1_555
C84 C81 1_555 1_555
H58 C84 1_555 1_555
H59 C84 1_555 1_555
H60 C84 1_555 1_555
N1 C1 1_555 1_555
H61 N1 1_555 1_555
N2 C5 1_555 1_555
H62 N2 1_555 1_555
N3 C19 1_555 1_555
H63 N3 1_555 1_555
N4 C23 1_555 1_555
H64 N4 1_555 1_555
S1 C10 1_555 1_555
S2 C12 1_555 1_555
S3 C14 1_555 1_555
S4 C28 1_555 1_555
S5 C30 1_555 1_555
S6 C32 1_555 1_555
C85 H65 1_555 1_555
Cl1 C85 1_555 1_555
Cl2 C85 1_555 1_555
Cl3 C85 1_555 1_555
C86 H66 1_555 1_555
Cl4 C86 1_555 1_555
Cl5 C86 1_555 1_555
Cl6 C86 1_555 1_555
C87 H67 1_555 1_555
Cl7 C87 1_555 1_555
Cl8 C87 1_555 1_555
Cl9 C87 1_555 1_555
C88 H68 1_555 1_555
H69 C88 1_555 1_555
H70 C88 1_555 1_555
C89 C88 1_555 1_555
H71 C89 1_555 1_555
H72 C89 1_555 1_555
C90 C89 1_555 1_555
H73 C90 1_555 1_555
H74 C90 1_555 1_555
C91 C90 1_555 1_555
H75 C91 1_555 1_555
H76 C91 1_555 1_555
C92 C91 1_555 1_555
H77 C92 1_555 1_555
H78 C92 1_555 1_555
H79 C92 1_555 1_555
O1 H80 1_555 1_555
H81 O1 1_555 1_555
Cl12 C93 1_555 1_555
Cl13 C93 1_555 1_555
Cl14 C93 1_555 1_555
C93 H82 1_555 1_555
Cl15 C94 1_555 1_555
Cl16 C94 1_555 1_555
Cl17 C94 1_555 1_555
C94 H83 1_555 1_555
C4 N1 1_555 1_555
C8 N2 1_555 1_555
C13 S1 1_555 1_555
C15 S2 1_555 1_555
C17 S3 1_555 1_555
C22 N3 1_555 1_555
C26 N4 1_555 1_555
C31 S4 1_555 1_555
C33 S5 1_555 1_555
C35 C36 1_555 1_555
C35 S6 1_555 1_555
C37 C42 1_555 1_555
C41 C42 1_555 1_555
C47 C48 1_555 1_555
C56 C57 1_555 1_555
C61 C66 1_555 1_555
C65 C66 1_555 1_555
C71 C72 1_555 1_555
C80 C81 1_555 1_555

#END
