
#######################################################################
#
#                 Cambridge Crystallographic Data Centre
#                                CCDC 
#
#######################################################################
#
# If this CIF has been generated from an entry in the Cambridge 
# Structural Database, then it will include bibliographic, chemical, 
# crystal, experimental, refinement or atomic coordinate data resulting 
# from the CCDC's data processing and validation procedures.
#
#######################################################################

data_GILHAN
_chemical_formula_moiety         'C23 H14 N4 S1,H2 O1'
_chemical_name_systematic        
'[1-(10H-phenothiazin-2-yl)-3-(pyridin-4-yl)prop-2-en-1-ylidene]propanedinitrile monohydrate'
_symmetry_cell_setting           orthorhombic
_symmetry_space_group_name_H-M   'P 21 21 21'
_symmetry_Int_Tables_number      19
_space_group_name_Hall           'P 2ac 2ab'
loop_
_symmetry_equiv_pos_site_id
_symmetry_equiv_pos_as_xyz
1 x,y,z
2 1/2-x,-y,1/2+z
3 1/2+x,1/2-y,-z
4 -x,1/2+y,1/2-z
_cell_length_a                   7.8612(3)
_cell_length_b                   9.8518(5)
_cell_length_c                   27.1605(14)
_cell_angle_alpha                90
_cell_angle_beta                 90
_cell_angle_gamma                90
_cell_volume                     2103.5
_exptl_crystal_colour            purple
_exptl_crystal_description       needle
_cell_formula_units_Z            4
loop_
_atom_site_label
_atom_site_type_symbol
_atom_site_fract_x
_atom_site_fract_y
_atom_site_fract_z
S1 S 0.52983(14) 0.04536(10) 0.10362(4)
N1 N 0.6549(4) -0.2346(3) 0.13683(10)
H1 H 0.7287 -0.2982 0.1406
N2 N 0.1872(10) -0.5550(8) 0.11115(18)
N3 N 0.2401(7) -0.8134(5) -0.01684(19)
N4 N 0.6297(5) -0.4795(5) -0.23395(13)
C1 C 0.6821(5) -0.1732(5) 0.22148(14)
H2 H 0.7245 -0.2593 0.2282
C2 C 0.6630(6) -0.0785(6) 0.25943(16)
H3 H 0.6950 -0.1019 0.2913
C3 C 0.5981(7) 0.0474(6) 0.25051(18)
H4 H 0.5852 0.1094 0.2761
C4 C 0.5514(6) 0.0824(5) 0.20277(19)
H5 H 0.5045 0.1673 0.1966
C5 C 0.5743(5) -0.0082(4) 0.16448(15)
C6 C 0.6376(5) -0.1381(4) 0.17365(13)
C7 C 0.5575(4) -0.2327(4) 0.09387(12)
C8 C 0.4954(4) -0.1105(4) 0.07426(13)
C9 C 0.4090(5) -0.1130(4) 0.02936(15)
H6 H 0.3670 -0.0322 0.0164
C10 C 0.3844(5) -0.2316(5) 0.00386(15)
H7 H 0.3328 -0.2300 -0.0269
C11 C 0.4367(4) -0.3537(4) 0.02400(12)
C12 C 0.5233(4) -0.3539(4) 0.06888(12)
H8 H 0.5589 -0.4359 0.0824
C13 C 0.3971(4) -0.4840(4) -0.00096(12)
C14 C 0.3120(5) -0.5831(5) 0.02397(14)
C15 C 0.2436(8) -0.5656(7) 0.07250(19)
C16 C 0.2743(6) -0.7100(5) 0.00148(17)
C17 C 0.4396(4) -0.5059(4) -0.05229(12)
H9 H 0.4026 -0.5864 -0.0666
C18 C 0.5272(4) -0.4205(4) -0.08080(12)
H10 H 0.5683 -0.3412 -0.0665
C19 C 0.5629(4) -0.4437(4) -0.13342(12)
C20 C 0.5200(6) -0.5614(5) -0.15743(14)
H11 H 0.4679 -0.6321 -0.1405
C21 C 0.5551(6) -0.5736(6) -0.20685(17)
H12 H 0.5239 -0.6541 -0.2223
C22 C 0.6722(6) -0.3669(6) -0.21040(16)
H13 H 0.7262 -0.2988 -0.2282
C23 C 0.6414(5) -0.3442(5) -0.16099(14)
H14 H 0.6734 -0.2626 -0.1465
O1 O 0.8095(8) -0.4938(5) 0.16320(13)
H15 H 0.7098 -0.5021 0.1714
H16 H 0.8507 -0.5554 0.1834
loop_
_geom_bond_atom_site_label_1
_geom_bond_atom_site_label_2
_geom_bond_site_symmetry_1
_geom_bond_site_symmetry_2
S1 C5 1_555 1_555
N1 H1 1_555 1_555
N2 C15 1_555 1_555
N3 C16 1_555 1_555
N4 C21 1_555 1_555
C1 H2 1_555 1_555
C2 C1 1_555 1_555
H3 C2 1_555 1_555
C3 C2 1_555 1_555
H4 C3 1_555 1_555
C4 C3 1_555 1_555
H5 C4 1_555 1_555
C5 C4 1_555 1_555
C6 N1 1_555 1_555
C7 N1 1_555 1_555
C8 S1 1_555 1_555
C9 C8 1_555 1_555
H6 C9 1_555 1_555
C10 C9 1_555 1_555
H7 C10 1_555 1_555
C11 C10 1_555 1_555
C12 C7 1_555 1_555
H8 C12 1_555 1_555
C13 C11 1_555 1_555
C14 C13 1_555 1_555
C15 C14 1_555 1_555
C16 C14 1_555 1_555
C17 C13 1_555 1_555
H9 C17 1_555 1_555
C18 C17 1_555 1_555
H10 C18 1_555 1_555
C19 C18 1_555 1_555
C20 C19 1_555 1_555
H11 C20 1_555 1_555
C21 C20 1_555 1_555
H12 C21 1_555 1_555
C22 N4 1_555 1_555
H13 C22 1_555 1_555
C23 C19 1_555 1_555
H14 C23 1_555 1_555
O1 H15 1_555 1_555
H16 O1 1_555 1_555
C1 C6 1_555 1_555
C5 C6 1_555 1_555
C7 C8 1_555 1_555
C11 C12 1_555 1_555
C22 C23 1_555 1_555

#END
