
#######################################################################
#
#                 Cambridge Crystallographic Data Centre
#                                CCDC 
#
#######################################################################
#
# If this CIF has been generated from an entry in the Cambridge 
# Structural Database, then it will include bibliographic, chemical, 
# crystal, experimental, refinement or atomic coordinate data resulting 
# from the CCDC's data processing and validation procedures.
#
#######################################################################

data_GILJUI
_chemical_formula_moiety         'C29 H20 S1'
_chemical_name_systematic        
3-Phenyl-2-(9-phenyl-9H-fluoren-9-yl)thiophene
_symmetry_cell_setting           monoclinic
_symmetry_space_group_name_H-M   'C 2/c'
_symmetry_Int_Tables_number      15
_space_group_name_Hall           '-C 2yn'
loop_
_symmetry_equiv_pos_site_id
_symmetry_equiv_pos_as_xyz
1 x,y,z
2 -x,y,1/2-z
3 1/2+x,1/2+y,z
4 1/2-x,1/2+y,1/2-z
5 -x,-y,-z
6 x,-y,1/2+z
7 1/2-x,1/2-y,-z
8 1/2+x,1/2-y,1/2+z
_cell_length_a                   27.159(4)
_cell_length_b                   7.6566(12)
_cell_length_c                   20.530(3)
_cell_angle_alpha                90
_cell_angle_beta                 100.852(3)
_cell_angle_gamma                90
_cell_volume                     4192.78
_cell_formula_units_Z            8
loop_
_atom_site_label
_atom_site_type_symbol
_atom_site_fract_x
_atom_site_fract_y
_atom_site_fract_z
C1 C 0.08663(6) -0.02033(19) 0.35149(7)
C2 C 0.08676(7) -0.1771(2) 0.31819(8)
H1 H 0.1125 -0.2035 0.2957
C3 C 0.04832(8) -0.2934(3) 0.31881(10)
H2 H 0.0484 -0.4002 0.2972
C4 C 0.00978(9) -0.2534(3) 0.35103(11)
H3 H -0.0162 -0.3328 0.3502
C5 C 0.00897(7) -0.0984(3) 0.38441(9)
H4 H -0.0174 -0.0718 0.4058
C6 C 0.04826(6) 0.0176(2) 0.38551(8)
C7 C 0.06108(6) 0.1797(2) 0.42327(7)
C8 C 0.03691(7) 0.2640(2) 0.46812(8)
H5 H 0.0056 0.2267 0.4745
C9 C 0.06023(7) 0.4036(3) 0.50287(8)
H6 H 0.0446 0.4607 0.5334
C10 C 0.10629(8) 0.4603(2) 0.49331(9)
H7 H 0.1217 0.5538 0.5180
C11 C 0.13007(6) 0.3796(2) 0.44725(8)
H8 H 0.1608 0.4202 0.4399
C12 C 0.10729(5) 0.23834(19) 0.41276(7)
C13 C 0.12578(5) 0.12463(18) 0.36056(7)
C14 C 0.12215(6) 0.23916(19) 0.29788(7)
C15 C 0.08178(6) 0.2287(2) 0.24579(7)
H9 H 0.0571 0.1448 0.2465
C16 C 0.07782(8) 0.3421(2) 0.19264(8)
H10 H 0.0502 0.3345 0.1582
C17 C 0.11395(8) 0.4656(2) 0.18994(9)
H11 H 0.1111 0.5406 0.1538
C18 C 0.15412(8) 0.4773(2) 0.24089(10)
H12 H 0.1788 0.5605 0.2394
C19 C 0.15821(6) 0.3657(2) 0.29480(8)
H13 H 0.1856 0.3758 0.3295
C20 C 0.17820(5) 0.04905(18) 0.38273(7)
C21 C 0.25962(6) -0.0933(2) 0.37991(9)
H14 H 0.2883 -0.1446 0.3697
C22 C 0.25043(6) -0.0787(2) 0.44149(8)
H15 H 0.2727 -0.1163 0.4789
C23 C 0.20311(5) 0.00001(17) 0.44437(7)
C24 C 0.18513(6) 0.01279(18) 0.50808(8)
C25 C 0.21194(6) 0.1024(2) 0.56182(8)
H16 H 0.2412 0.1606 0.5575
C26 C 0.19574(8) 0.1066(2) 0.62195(9)
H17 H 0.2139 0.1680 0.6576
C27 C 0.15296(8) 0.0202(3) 0.62853(10)
H18 H 0.1421 0.0225 0.6688
C28 C 0.12637(7) -0.0687(3) 0.57674(9)
H19 H 0.0973 -0.1273 0.5817
C29 C 0.14191(6) -0.0730(2) 0.51688(8)
H20 H 0.1231 -0.1345 0.4817
S1 S 0.212556(16) -0.00685(6) 0.32273(2)
loop_
_geom_bond_atom_site_label_1
_geom_bond_atom_site_label_2
_geom_bond_site_symmetry_1
_geom_bond_site_symmetry_2
C1 C2 1_555 1_555
C2 H1 1_555 1_555
C3 C2 1_555 1_555
H2 C3 1_555 1_555
C4 C3 1_555 1_555
H3 C4 1_555 1_555
C5 C4 1_555 1_555
H4 C5 1_555 1_555
C6 C1 1_555 1_555
C7 C6 1_555 1_555
C8 C7 1_555 1_555
H5 C8 1_555 1_555
C9 C8 1_555 1_555
H6 C9 1_555 1_555
C10 C9 1_555 1_555
H7 C10 1_555 1_555
C11 C10 1_555 1_555
H8 C11 1_555 1_555
C12 C7 1_555 1_555
C13 C1 1_555 1_555
C14 C13 1_555 1_555
C15 C14 1_555 1_555
H9 C15 1_555 1_555
C16 C15 1_555 1_555
H10 C16 1_555 1_555
C17 C16 1_555 1_555
H11 C17 1_555 1_555
C18 C17 1_555 1_555
H12 C18 1_555 1_555
C19 C14 1_555 1_555
H13 C19 1_555 1_555
C20 C13 1_555 1_555
C21 H14 1_555 1_555
C22 C21 1_555 1_555
H15 C22 1_555 1_555
C23 C20 1_555 1_555
C24 C23 1_555 1_555
C25 C24 1_555 1_555
H16 C25 1_555 1_555
C26 C25 1_555 1_555
H17 C26 1_555 1_555
C27 C26 1_555 1_555
H18 C27 1_555 1_555
C28 C27 1_555 1_555
H19 C28 1_555 1_555
C29 C24 1_555 1_555
H20 C29 1_555 1_555
S1 C20 1_555 1_555
C5 C6 1_555 1_555
C11 C12 1_555 1_555
C12 C13 1_555 1_555
C18 C19 1_555 1_555
C21 S1 1_555 1_555
C22 C23 1_555 1_555
C28 C29 1_555 1_555

#END
