
#######################################################################
#
#                 Cambridge Crystallographic Data Centre
#                                CCDC 
#
#######################################################################
#
# If this CIF has been generated from an entry in the Cambridge 
# Structural Database, then it will include bibliographic, chemical, 
# crystal, experimental, refinement or atomic coordinate data resulting 
# from the CCDC's data processing and validation procedures.
#
#######################################################################

data_GILPOI
_chemical_formula_moiety         'C27 H22 N2 O2'
_chemical_name_systematic        
2-Anilino-3-(diphenylmethyl)-3-hydroxyisoindolin-1-one
_chemical_properties_biological  'antibacterial activity'
_symmetry_cell_setting           orthorhombic
_symmetry_space_group_name_H-M   'P n a 21'
_symmetry_Int_Tables_number      33
_space_group_name_Hall           'P 2c -2n'
loop_
_symmetry_equiv_pos_site_id
_symmetry_equiv_pos_as_xyz
1 x,y,z
2 -x,-y,1/2+z
3 1/2-x,1/2+y,1/2+z
4 1/2+x,1/2-y,z
_cell_length_a                   11.1835(14)
_cell_length_b                   22.804(3)
_cell_length_c                   8.1448(10)
_cell_angle_alpha                90
_cell_angle_beta                 90
_cell_angle_gamma                90
_cell_volume                     2077.16
_exptl_crystal_colour            white
_exptl_crystal_description       needle
_chemical_melting_point          '210-212 deg.C'
_cell_formula_units_Z            4
loop_
_atom_site_label
_atom_site_type_symbol
_atom_site_fract_x
_atom_site_fract_y
_atom_site_fract_z
O1 O 0.29693(11) 0.26128(6) 0.48709(17)
O2 O 0.65919(10) 0.28206(5) 0.74020(17)
H1 H 0.6826 0.2745 0.6471
N1 N 0.45464(12) 0.26500(5) 0.66878(19)
C1 C 0.5016(2) 0.05113(8) 0.5331(3)
H2 H 0.5169 0.0148 0.4859
C2 C 0.42397(18) 0.05600(7) 0.6618(3)
H3 H 0.3860 0.0226 0.7018
C3 C 0.40096(16) 0.10984(7) 0.7338(3)
H4 H 0.3489 0.1124 0.8225
C4 C 0.45587(14) 0.16014(6) 0.6731(2)
N2 N 0.43054(13) 0.21356(6) 0.75377(19)
H5 H 0.4014 0.2142 0.8515
C5 C 0.54530(13) 0.30721(6) 0.7322(2)
C6 C 0.51218(14) 0.32330(7) 0.9112(2)
H6 H 0.5140 0.2858 0.9699
C7 C 0.60691(14) 0.36067(7) 0.9975(2)
C8 C 0.68505(17) 0.33405(8) 1.1073(3)
H7 H 0.6778 0.2941 1.1274
C9 C 0.77349(19) 0.36551(10) 1.1877(3)
H8 H 0.8246 0.3465 1.2604
C10 C 0.78573(17) 0.42443(9) 1.1603(3)
H9 H 0.8462 0.4455 1.2121
C11 C 0.5569(2) 0.10080(9) 0.4742(3)
H10 H 0.6100 0.0977 0.3867
C12 C 0.53457(16) 0.15538(8) 0.5433(3)
H11 H 0.5725 0.1886 0.5023
C13 C 0.38398(14) 0.28612(7) 0.5469(2)
C14 C 0.43596(14) 0.34335(7) 0.5018(2)
C15 C 0.53282(15) 0.35481(7) 0.6031(2)
C16 C 0.38442(15) 0.34513(7) 0.9330(2)
C17 C 0.30842(15) 0.31342(8) 1.0336(3)
H12 H 0.3358 0.2791 1.0825
C18 C 0.19206(17) 0.33189(9) 1.0626(3)
H13 H 0.1425 0.3098 1.1304
C19 C 0.14955(17) 0.38241(10) 0.9921(3)
H14 H 0.0721 0.3952 1.0136
C20 C 0.22295(18) 0.41389(10) 0.8893(3)
H15 H 0.1942 0.4477 0.8393
C21 C 0.33896(17) 0.39592(8) 0.8591(2)
H16 H 0.3873 0.4178 0.7891
C22 C 0.70763(16) 0.45227(8) 1.0550(3)
H17 H 0.7150 0.4924 1.0372
C23 C 0.61837(16) 0.42117(7) 0.9755(2)
H18 H 0.5655 0.4408 0.9067
C24 C 0.60258(16) 0.40401(7) 0.5782(3)
H19 H 0.6695 0.4113 0.6429
C25 C 0.56936(18) 0.44213(8) 0.4533(3)
H20 H 0.6151 0.4755 0.4346
C26 C 0.47100(19) 0.43200(8) 0.3565(3)
H21 H 0.4503 0.4589 0.2756
C27 C 0.40206(18) 0.38177(8) 0.3787(2)
H22 H 0.3357 0.3743 0.3132
loop_
_geom_bond_atom_site_label_1
_geom_bond_atom_site_label_2
_geom_bond_site_symmetry_1
_geom_bond_site_symmetry_2
O1 C13 1_555 1_555
O2 H1 1_555 1_555
N1 N2 1_555 1_555
C1 H2 1_555 1_555
C2 C1 1_555 1_555
H3 C2 1_555 1_555
C3 C2 1_555 1_555
H4 C3 1_555 1_555
C4 C3 1_555 1_555
N2 C4 1_555 1_555
H5 N2 1_555 1_555
C5 O2 1_555 1_555
C6 C5 1_555 1_555
H6 C6 1_555 1_555
C7 C6 1_555 1_555
C8 C7 1_555 1_555
H7 C8 1_555 1_555
C9 C8 1_555 1_555
H8 C9 1_555 1_555
C10 C9 1_555 1_555
H9 C10 1_555 1_555
C11 C1 1_555 1_555
H10 C11 1_555 1_555
C12 C4 1_555 1_555
H11 C12 1_555 1_555
C13 N1 1_555 1_555
C14 C13 1_555 1_555
C15 C5 1_555 1_555
C16 C6 1_555 1_555
C17 C16 1_555 1_555
H12 C17 1_555 1_555
C18 C17 1_555 1_555
H13 C18 1_555 1_555
C19 C18 1_555 1_555
H14 C19 1_555 1_555
C20 C19 1_555 1_555
H15 C20 1_555 1_555
C21 C16 1_555 1_555
H16 C21 1_555 1_555
C22 C10 1_555 1_555
H17 C22 1_555 1_555
C23 C7 1_555 1_555
H18 C23 1_555 1_555
C24 C15 1_555 1_555
H19 C24 1_555 1_555
C25 C24 1_555 1_555
H20 C25 1_555 1_555
C26 C25 1_555 1_555
H21 C26 1_555 1_555
C27 C14 1_555 1_555
H22 C27 1_555 1_555
N1 C5 1_555 1_555
C11 C12 1_555 1_555
C14 C15 1_555 1_555
C20 C21 1_555 1_555
C22 C23 1_555 1_555
C26 C27 1_555 1_555

#END
