
#######################################################################
#
#                 Cambridge Crystallographic Data Centre
#                                CCDC 
#
#######################################################################
#
# If this CIF has been generated from an entry in the Cambridge 
# Structural Database, then it will include bibliographic, chemical, 
# crystal, experimental, refinement or atomic coordinate data resulting 
# from the CCDC's data processing and validation procedures.
#
#######################################################################

data_GILRIF
_chemical_formula_moiety         'C15 H17 Cl1 N2 O5 S1'
_chemical_name_systematic        
N-[3-(3-chloropropyl)-7-nitro-1-benzoxepin-2-yl]-N-methylmethanesulfonamide
_symmetry_cell_setting           monoclinic
_symmetry_space_group_name_H-M   'P 21/c'
_symmetry_Int_Tables_number      14
_space_group_name_Hall           '-P 2ybc'
loop_
_symmetry_equiv_pos_site_id
_symmetry_equiv_pos_as_xyz
1 x,y,z
2 -x,1/2+y,1/2-z
3 -x,-y,-z
4 x,1/2-y,1/2+z
_cell_length_a                   8.5374(3)
_cell_length_b                   10.4577(3)
_cell_length_c                   18.7809(6)
_cell_angle_alpha                90
_cell_angle_beta                 97.412(3)
_cell_angle_gamma                90
_cell_volume                     1662.78
_exptl_crystal_colour            colorless
_exptl_crystal_description       block
_cell_formula_units_Z            4
loop_
_atom_site_label
_atom_site_type_symbol
_atom_site_fract_x
_atom_site_fract_y
_atom_site_fract_z
S1 S 0.48985(6) 0.11985(5) 0.22475(3)
Cl1 Cl 1.00487(7) 0.01434(6) 0.24141(3)
O1 O 0.54317(18) 0.27705(14) 0.07903(8)
O2 O 0.9446(2) 0.60797(17) -0.10891(9)
O3 O 0.41863(19) 0.01623(15) 0.18233(9)
C1 C 0.7799(3) 0.4207(2) -0.04975(11)
H1 H 0.823285 0.401091 -0.092564
N1 N 0.6405(2) 0.16862(16) 0.18558(9)
O4 O 0.8819(3) 0.74936(17) -0.03389(11)
N2 N 0.8803(2) 0.63986(19) -0.05710(10)
O5 O 0.5492(2) 0.09743(19) 0.29839(9)
C2 C 0.6533(3) 0.4851(2) 0.07514(12)
H2 H 0.608755 0.506028 0.117480
C3 C 0.6994(2) 0.3267(2) -0.01563(11)
C4 C 0.7958(3) 0.5418(2) -0.02077(12)
C5 C 0.6248(2) 0.16969(19) 0.10956(11)
C6 C 0.6770(2) 0.07750(19) 0.06963(12)
C7 C 0.6791(3) 0.1979(2) -0.04570(12)
H3 H 0.673681 0.190187 -0.096359
C8 C 0.7401(3) 0.2703(2) 0.22260(12)
H4 H 0.679554 0.350090 0.221573
H5 H 0.833689 0.283248 0.198240
H6 H 0.773041 0.245139 0.272550
C9 C 0.6377(3) 0.3627(2) 0.04695(11)
C10 C 0.6676(3) 0.0895(2) -0.00855(12)
H7 H 0.651646 0.012856 -0.035642
C11 C 0.9244(3) -0.0577(2) 0.10113(13)
H8 H 0.957737 -0.144822 0.117231
H9 H 0.947052 -0.047785 0.051044
C12 C 0.7459(3) -0.0453(2) 0.10226(13)
H10 H 0.692450 -0.118367 0.075786
H11 H 0.723605 -0.050625 0.152614
C13 C 0.7341(3) 0.5768(2) 0.04115(12)
H12 H 0.746952 0.661148 0.059716
C14 C 0.3541(3) 0.2473(2) 0.22127(15)
H13 H 0.318806 0.269420 0.171051
H14 H 0.405123 0.321731 0.246102
H15 H 0.262911 0.221693 0.244713
C15 C 1.0212(3) 0.0382(2) 0.14762(13)
H16 H 0.985092 0.125601 0.133430
H17 H 1.133348 0.030590 0.139894
loop_
_geom_bond_atom_site_label_1
_geom_bond_atom_site_label_2
_geom_bond_site_symmetry_1
_geom_bond_site_symmetry_2
S1 O3 1_555 1_555
Cl1 C15 1_555 1_555
O1 C5 1_555 1_555
O2 N2 1_555 1_555
C1 H1 1_555 1_555
N1 S1 1_555 1_555
O4 N2 1_555 1_555
N2 C4 1_555 1_555
O5 S1 1_555 1_555
C2 H2 1_555 1_555
C3 C1 1_555 1_555
C4 C1 1_555 1_555
C5 N1 1_555 1_555
C6 C5 1_555 1_555
C7 C3 1_555 1_555
H3 C7 1_555 1_555
C8 N1 1_555 1_555
H4 C8 1_555 1_555
H5 C8 1_555 1_555
H6 C8 1_555 1_555
C9 O1 1_555 1_555
C10 C6 1_555 1_555
H7 C10 1_555 1_555
C11 H8 1_555 1_555
H9 C11 1_555 1_555
C12 C6 1_555 1_555
H10 C12 1_555 1_555
H11 C12 1_555 1_555
C13 C2 1_555 1_555
H12 C13 1_555 1_555
C14 S1 1_555 1_555
H13 C14 1_555 1_555
H14 C14 1_555 1_555
H15 C14 1_555 1_555
C15 C11 1_555 1_555
H16 C15 1_555 1_555
H17 C15 1_555 1_555
C2 C9 1_555 1_555
C3 C9 1_555 1_555
C4 C13 1_555 1_555
C7 C10 1_555 1_555
C11 C12 1_555 1_555

#END
