
#######################################################################
#
#                 Cambridge Crystallographic Data Centre
#                                CCDC 
#
#######################################################################
#
# If this CIF has been generated from an entry in the Cambridge 
# Structural Database, then it will include bibliographic, chemical, 
# crystal, experimental, refinement or atomic coordinate data resulting 
# from the CCDC's data processing and validation procedures.
#
#######################################################################

data_GILRUQ
_chemical_formula_moiety         'C12 H15 N1 O5'
_chemical_name_systematic        
1,3,5-Trimethoxy-2-(2-nitroprop-1-en-1-yl)benzene
_symmetry_cell_setting           orthorhombic
_symmetry_space_group_name_H-M   'P c a 21'
_symmetry_Int_Tables_number      29
_space_group_name_Hall           'P 2c -2ac'
loop_
_symmetry_equiv_pos_site_id
_symmetry_equiv_pos_as_xyz
1 x,y,z
2 -x,-y,1/2+z
3 1/2-x,y,1/2+z
4 1/2+x,-y,z
_cell_length_a                   16.0963(9)
_cell_length_b                   4.0501(2)
_cell_length_c                   18.9224(10)
_cell_angle_alpha                90
_cell_angle_beta                 90
_cell_angle_gamma                90
_cell_volume                     1233.58
_exptl_crystal_colour            yellow
_exptl_crystal_description       tabular
_cell_formula_units_Z            4
loop_
_atom_site_label
_atom_site_type_symbol
_atom_site_fract_x
_atom_site_fract_y
_atom_site_fract_z
C1 C 0.53983(13) 0.4414(6) -0.06742(10)
H1 H 0.5668 0.6493 -0.0542
H2 H 0.4939 0.4870 -0.0999
H3 H 0.5803 0.2968 -0.0906
C2 C 0.70976(10) -0.0086(4) 0.28805(9)
C3 C 0.72131(10) -0.0449(4) 0.21859(9)
H4 H 0.7721 -0.1443 0.2044
C4 C 0.66452(9) 0.0512(4) 0.16204(8)
C5 C 0.57921(10) -0.0282(4) 0.16166(9)
C6 C 0.52903(10) 0.0536(4) 0.10508(9)
H5 H 0.4715 0.0016 0.1058
C7 C 0.56357(10) 0.2127(5) 0.04703(9)
C8 C 0.46552(11) -0.2765(5) 0.22300(12)
H6 H 0.4323 -0.0738 0.2209
H7 H 0.4542 -0.3920 0.2675
H8 H 0.4508 -0.4196 0.1832
C9 C 0.64732(10) 0.2902(4) 0.04414(8)
H9 H 0.6703 0.3980 0.0041
C10 C 0.69666(9) 0.2056(4) 0.10149(9)
C11 C 0.81751(11) 0.4221(6) 0.04422(10)
H10 H 0.8103 0.2790 0.0029
H11 H 0.8769 0.4546 0.0532
H12 H 0.7912 0.6362 0.0352
C12 C 0.64195(11) 0.1638(5) 0.32603(10)
H13 H 0.6106 0.3008 0.2927
H14 H 0.6657 0.3041 0.3631
H15 H 0.6047 0.0007 0.3475
N1 N 0.77498(9) -0.1445(4) 0.33406(8)
O1 O 0.83418(9) -0.2875(5) 0.30865(8)
O2 O 0.50862(7) 0.2833(4) -0.00572(7)
O3 O 0.55126(7) -0.1951(3) 0.21928(6)
O4 O 0.77990(7) 0.2714(3) 0.10443(7)
O5 O 0.76563(11) -0.1148(5) 0.39776(7)
loop_
_geom_bond_atom_site_label_1
_geom_bond_atom_site_label_2
_geom_bond_site_symmetry_1
_geom_bond_site_symmetry_2
C1 H1 1_555 1_555
H2 C1 1_555 1_555
H3 C1 1_555 1_555
C2 C3 1_555 1_555
C3 H4 1_555 1_555
C4 C3 1_555 1_555
C5 C4 1_555 1_555
C6 C5 1_555 1_555
H5 C6 1_555 1_555
C7 C6 1_555 1_555
C8 H6 1_555 1_555
H7 C8 1_555 1_555
H8 C8 1_555 1_555
C9 C7 1_555 1_555
H9 C9 1_555 1_555
C10 C4 1_555 1_555
C11 H10 1_555 1_555
H11 C11 1_555 1_555
H12 C11 1_555 1_555
C12 C2 1_555 1_555
H13 C12 1_555 1_555
H14 C12 1_555 1_555
H15 C12 1_555 1_555
N1 C2 1_555 1_555
O1 N1 1_555 1_555
O2 C1 1_555 1_555
O3 C5 1_555 1_555
O4 C10 1_555 1_555
O5 N1 1_555 1_555
C7 O2 1_555 1_555
C8 O3 1_555 1_555
C9 C10 1_555 1_555
C11 O4 1_555 1_555

#END
