
#######################################################################
#
#                 Cambridge Crystallographic Data Centre
#                                CCDC 
#
#######################################################################
#
# If this CIF has been generated from an entry in the Cambridge 
# Structural Database, then it will include bibliographic, chemical, 
# crystal, experimental, refinement or atomic coordinate data resulting 
# from the CCDC's data processing and validation procedures.
#
#######################################################################

data_GILSOM
_chemical_formula_moiety         'C25 H24 O5'
_chemical_name_systematic        
'diethyl (4-hydroxy-1-phenyl-1,2-dihydrocyclobuta[a]naphthalen-1-yl)propanedioate'
_symmetry_cell_setting           triclinic
_symmetry_space_group_name_H-M   'P -1'
_symmetry_Int_Tables_number      2
_space_group_name_Hall           '-P 1'
loop_
_symmetry_equiv_pos_site_id
_symmetry_equiv_pos_as_xyz
1 x,y,z
2 -x,-y,-z
_cell_length_a                   9.4624(8)
_cell_length_b                   10.6408(9)
_cell_length_c                   12.1773(11)
_cell_angle_alpha                65.5650(10)
_cell_angle_beta                 86.673(2)
_cell_angle_gamma                68.9520(10)
_cell_volume                     1035.87
_exptl_crystal_colour            white
_exptl_crystal_description       block
_cell_formula_units_Z            2
loop_
_atom_site_label
_atom_site_type_symbol
_atom_site_fract_x
_atom_site_fract_y
_atom_site_fract_z
C1 C 0.1955(2) 0.1040(2) 0.24043(15)
O1 O 0.61814(15) 0.29711(16) 0.37128(13)
C2 C 0.17907(19) 0.2330(2) 0.25465(15)
C3 C 0.0619(2) 0.3628(2) 0.19745(16)
C4 C 0.41688(19) 0.2843(2) 0.28080(16)
H1 H 0.4845 0.1803 0.3242
O2 O 0.49530(16) 0.20677(16) 0.12677(11)
C5 C 0.4238(2) 0.3252(3) 0.14641(18)
C6 C 0.0732(2) 0.1174(2) 0.16826(16)
C7 C 0.3209(2) -0.0318(2) 0.28714(17)
H2 H 0.4022 -0.0420 0.3337
O3 O 0.37015(16) 0.44930(17) 0.06760(13)
C8 C 0.2509(2) 0.2401(2) 0.45202(17)
C9 C 0.2543(2) 0.2959(2) 0.31609(16)
C10 C 0.4797(2) 0.3772(2) 0.31466(18)
C11 C 0.1195(2) 0.4493(2) 0.24352(17)
H3 H 0.0529 0.4892 0.2944
H4 H 0.1510 0.5240 0.1813
O4 O -0.16331(17) 0.25491(17) 0.04795(13)
H5 H -0.2301 0.3380 0.0188
C12 C -0.0518(2) 0.2551(2) 0.11412(17)
C13 C -0.0589(2) 0.3790(2) 0.12595(17)
H6 H -0.1397 0.4692 0.0885
O5 O 0.41581(17) 0.50554(17) 0.29175(16)
C14 C 0.0817(3) -0.0065(3) 0.14894(18)
H7 H 0.0021 0.0002 0.1028
C15 C 0.2505(2) 0.1001(2) 0.52253(18)
H8 H 0.2603 0.0355 0.4869
C16 C 0.2044(3) -0.1359(3) 0.19660(19)
H9 H 0.2077 -0.2168 0.1832
C17 C 0.3247(2) -0.1478(2) 0.26509(18)
H10 H 0.4088 -0.2363 0.2962
C18 C 0.2358(2) 0.0542(3) 0.64468(18)
H11 H 0.2342 -0.0401 0.6903
C19 C 0.2390(2) 0.3316(3) 0.50926(19)
H12 H 0.2398 0.4264 0.4643
C20 C 0.6954(3) 0.3723(3) 0.4059(2)
H13 H 0.6419 0.4056 0.4650
H14 H 0.6987 0.4583 0.3355
C21 C 0.2237(3) 0.1464(3) 0.6993(2)
H15 H 0.2140 0.1152 0.7819
C22 C 0.2259(3) 0.2843(3) 0.6315(2)
H16 H 0.2185 0.3471 0.6684
C23 C 0.5047(3) 0.2254(3) 0.00180(18)
H17 H 0.6003 0.1547 -0.0044
H18 H 0.5018 0.3246 -0.0495
C24 C 0.8519(2) 0.2658(3) 0.4585(2)
H19 H 0.8475 0.1840 0.5307
H20 H 0.9077 0.3147 0.4783
H21 H 0.9021 0.2298 0.4007
C25 C 0.3757(3) 0.2020(3) -0.0399(2)
H22 H 0.3710 0.1091 0.0169
H23 H 0.3905 0.2006 -0.1181
H24 H 0.2822 0.2813 -0.0456
loop_
_geom_bond_atom_site_label_1
_geom_bond_atom_site_label_2
_geom_bond_site_symmetry_1
_geom_bond_site_symmetry_2
C1 C2 1_555 1_555
O1 C10 1_555 1_555
C2 C3 1_555 1_555
C3 C11 1_555 1_555
C4 H1 1_555 1_555
O2 C5 1_555 1_555
C5 C4 1_555 1_555
C6 C1 1_555 1_555
C7 C1 1_555 1_555
H2 C7 1_555 1_555
O3 C5 1_555 1_555
C8 C9 1_555 1_555
C9 C2 1_555 1_555
C10 C4 1_555 1_555
C11 C9 1_555 1_555
H3 C11 1_555 1_555
H4 C11 1_555 1_555
O4 H5 1_555 1_555
C12 C6 1_555 1_555
C13 C3 1_555 1_555
H6 C13 1_555 1_555
O5 C10 1_555 1_555
C14 C6 1_555 1_555
H7 C14 1_555 1_555
C15 C8 1_555 1_555
H8 C15 1_555 1_555
C16 C14 1_555 1_555
H9 C16 1_555 1_555
C17 C7 1_555 1_555
H10 C17 1_555 1_555
C18 C15 1_555 1_555
H11 C18 1_555 1_555
C19 C8 1_555 1_555
H12 C19 1_555 1_555
C20 O1 1_555 1_555
H13 C20 1_555 1_555
H14 C20 1_555 1_555
C21 C18 1_555 1_555
H15 C21 1_555 1_555
C22 C19 1_555 1_555
H16 C22 1_555 1_555
C23 O2 1_555 1_555
H17 C23 1_555 1_555
H18 C23 1_555 1_555
C24 C20 1_555 1_555
H19 C24 1_555 1_555
H20 C24 1_555 1_555
H21 C24 1_555 1_555
C25 C23 1_555 1_555
H22 C25 1_555 1_555
H23 C25 1_555 1_555
H24 C25 1_555 1_555
C4 C9 1_555 1_555
O4 C12 1_555 1_555
C12 C13 1_555 1_555
C16 C17 1_555 1_555
C21 C22 1_555 1_555

#END
