
#######################################################################
#
#                 Cambridge Crystallographic Data Centre
#                                CCDC 
#
#######################################################################
#
# If this CIF has been generated from an entry in the Cambridge 
# Structural Database, then it will include bibliographic, chemical, 
# crystal, experimental, refinement or atomic coordinate data resulting 
# from the CCDC's data processing and validation procedures.
#
#######################################################################

data_GILSUS
_chemical_formula_moiety         'C21 H20 N2 O5'
_chemical_name_systematic        
"methyl 1',3',3'-trimethyl-6-nitro-1',3'-dihydrospiro[1-benzopyran-2,2'-indole]-5'-carboxylate"
_symmetry_cell_setting           monoclinic
_symmetry_space_group_name_H-M   'P 21/c'
_symmetry_Int_Tables_number      14
_space_group_name_Hall           '-P 2ybc'
loop_
_symmetry_equiv_pos_site_id
_symmetry_equiv_pos_as_xyz
1 x,y,z
2 -x,1/2+y,1/2-z
3 -x,-y,-z
4 x,1/2-y,1/2+z
_cell_length_a                   10.0146(4)
_cell_length_b                   11.1886(6)
_cell_length_c                   17.0626(8)
_cell_angle_alpha                90
_cell_angle_beta                 100.955(5)
_cell_angle_gamma                90
_cell_volume                     1877.01
_cell_formula_units_Z            4
loop_
_atom_site_label
_atom_site_type_symbol
_atom_site_fract_x
_atom_site_fract_y
_atom_site_fract_z
O1 O 0.91399(11) 0.38398(9) 0.15349(6)
O2 O 1.32022(10) 0.41868(10) 0.56785(6)
O3 O 1.45593(10) 0.36363(10) 0.48346(6)
C1 C 0.65780(14) 0.33948(14) -0.02843(8)
H1 H 0.6115 0.2791 -0.0599
N1 N 0.53613(13) 0.48635(13) -0.12211(8)
C2 C 0.78226(15) 0.19002(13) 0.06792(9)
H2 H 0.7411 0.1264 0.0375
N2 N 0.88337(12) 0.26738(11) 0.26430(7)
C3 C 1.34269(15) 0.38109(13) 0.49668(9)
C4 C 1.11131(14) 0.30038(13) 0.30473(8)
C5 C 0.81979(14) 0.40488(13) 0.08629(8)
O4 O 0.48530(12) 0.40286(11) -0.16509(7)
C6 C 0.75144(14) 0.31187(13) 0.04046(8)
C7 C 1.21586(14) 0.36099(12) 0.43741(8)
O5 O 0.50817(12) 0.59223(11) -0.13717(7)
C8 C 0.98360(14) 0.30572(13) 0.32674(8)
C9 C 0.79546(16) 0.52404(14) 0.06374(9)
H3 H 0.8422 0.5850 0.0943
C10 C 0.70151(15) 0.55074(14) -0.00428(9)
H4 H 0.6834 0.6298 -0.0196
C11 C 0.63461(14) 0.45804(14) -0.04940(8)
C12 C 1.22738(15) 0.32683(13) 0.35974(8)
H5 H 1.3124 0.3221 0.3455
C13 C 1.08710(15) 0.36886(13) 0.45772(8)
H6 H 1.0801 0.3926 0.5090
C14 C 0.93581(15) 0.26482(13) 0.19049(8)
C15 C 1.13692(15) 0.11960(14) 0.22477(9)
H7 H 1.2299 0.1128 0.2517
H8 H 1.1277 0.0877 0.1718
H9 H 1.0796 0.0757 0.2537
C16 C 0.86833(15) 0.16823(13) 0.13586(9)
H10 H 0.8878 0.0891 0.1503
C17 C 0.96950(15) 0.34193(14) 0.40292(8)
H11 H 0.8842 0.3479 0.4166
C18 C 0.73949(15) 0.28756(16) 0.26334(10)
H12 H 0.7154 0.2530 0.3103
H13 H 0.6865 0.2510 0.2167
H14 H 0.7217 0.3719 0.2624
C19 C 1.09449(14) 0.25237(13) 0.22011(8)
C20 C 1.17677(16) 0.32043(15) 0.16792(9)
H15 H 1.1592 0.4045 0.1709
H16 H 1.1509 0.2941 0.1136
H17 H 1.2719 0.3055 0.1865
C21 C 1.44067(16) 0.42800(17) 0.62986(9)
H18 H 1.5013 0.4864 0.6147
H19 H 1.4856 0.3519 0.6370
H20 H 1.4150 0.4519 0.6790
loop_
_geom_bond_atom_site_label_1
_geom_bond_atom_site_label_2
_geom_bond_site_symmetry_1
_geom_bond_site_symmetry_2
O1 C5 1_555 1_555
O2 C3 1_555 1_555
O3 C3 1_555 1_555
C1 H1 1_555 1_555
N1 O4 1_555 1_555
C2 H2 1_555 1_555
N2 C8 1_555 1_555
C3 C7 1_555 1_555
C4 C8 1_555 1_555
C5 C6 1_555 1_555
C6 C1 1_555 1_555
C7 C12 1_555 1_555
O5 N1 1_555 1_555
C8 C17 1_555 1_555
C9 C5 1_555 1_555
H3 C9 1_555 1_555
C10 C9 1_555 1_555
H4 C10 1_555 1_555
C11 C1 1_555 1_555
C12 C4 1_555 1_555
H5 C12 1_555 1_555
C13 C7 1_555 1_555
H6 C13 1_555 1_555
C14 O1 1_555 1_555
C15 H7 1_555 1_555
H8 C15 1_555 1_555
H9 C15 1_555 1_555
C16 C2 1_555 1_555
H10 C16 1_555 1_555
C17 C13 1_555 1_555
H11 C17 1_555 1_555
C18 N2 1_555 1_555
H12 C18 1_555 1_555
H13 C18 1_555 1_555
H14 C18 1_555 1_555
C19 C4 1_555 1_555
C20 C19 1_555 1_555
H15 C20 1_555 1_555
H16 C20 1_555 1_555
H17 C20 1_555 1_555
C21 O2 1_555 1_555
H18 C21 1_555 1_555
H19 C21 1_555 1_555
H20 C21 1_555 1_555
N1 C11 1_555 1_555
C2 C6 1_555 1_555
N2 C14 1_555 1_555
C10 C11 1_555 1_555
C14 C16 1_555 1_555
C14 C19 1_555 1_555
C15 C19 1_555 1_555

#END
