
#######################################################################
#
#                 Cambridge Crystallographic Data Centre
#                                CCDC 
#
#######################################################################
#
# If this CIF has been generated from an entry in the Cambridge 
# Structural Database, then it will include bibliographic, chemical, 
# crystal, experimental, refinement or atomic coordinate data resulting 
# from the CCDC's data processing and validation procedures.
#
#######################################################################

data_GILYAD
_chemical_formula_moiety         'C26 H29 N3 O9'
_chemical_name_systematic        
'Dimethyl 3-benzyl-5-(((t-butoxycarbonyl)oxy)(4-nitrophenyl)methyl)-4,5-dihydro-3H-pyrazole-3,5-dicarboxylate'
_symmetry_cell_setting           triclinic
_symmetry_space_group_name_H-M   'P -1'
_symmetry_Int_Tables_number      2
_space_group_name_Hall           '-P 1'
loop_
_symmetry_equiv_pos_site_id
_symmetry_equiv_pos_as_xyz
1 x,y,z
2 -x,-y,-z
_cell_length_a                   10.8003(4)
_cell_length_b                   13.2507(7)
_cell_length_c                   20.1596(10)
_cell_angle_alpha                77.136(4)
_cell_angle_beta                 74.787(4)
_cell_angle_gamma                77.315(4)
_cell_volume                     2673.97
_exptl_crystal_colour            colorless
_exptl_crystal_description       block
_cell_formula_units_Z            4
loop_
_atom_site_label
_atom_site_type_symbol
_atom_site_fract_x
_atom_site_fract_y
_atom_site_fract_z
O1 O 0.87267(10) 0.23477(9) 0.35532(6)
O2 O 1.03005(14) 0.17884(14) 0.41500(7)
O3 O 0.82131(12) 0.23808(11) 0.46517(6)
O4 O 0.75189(15) 0.45810(13) 0.24499(9)
O5 O 0.92583(14) 0.43752(11) 0.28888(9)
O6 O 0.91512(18) 0.51176(12) 0.08258(10)
O7 O 0.76458(14) 0.44065(11) 0.06213(8)
O8 O 1.0278(2) -0.25125(14) 0.26023(13)
O9 O 1.22412(18) -0.23174(13) 0.22037(11)
N1 N 0.80905(13) 0.26014(12) 0.21866(8)
N2 N 0.81629(15) 0.26998(12) 0.15547(8)
N3 N 1.1117(2) -0.19842(14) 0.24568(10)
C1 C 1.07612(18) -0.08997(13) 0.25805(9)
C2 C 0.94783(18) -0.05255(14) 0.28495(10)
H1 H 0.8850 -0.0952 0.2953
C3 C 0.91430(17) 0.04949(14) 0.29620(10)
H2 H 0.8280 0.0760 0.3148
C4 C 1.00818(15) 0.11361(13) 0.28001(8)
C5 C 1.13679(16) 0.07283(14) 0.25290(9)
H3 H 1.2000 0.1153 0.2421
C6 C 1.17242(17) -0.02923(14) 0.24176(9)
H4 H 1.2588 -0.0566 0.2238
C7 C 0.97180(15) 0.22605(13) 0.29161(8)
H5 H 1.0494 0.2491 0.2956
C8 C 0.91471(15) 0.30279(13) 0.23376(9)
C9 C 1.01174(16) 0.31835(14) 0.16316(9)
H6 H 1.0461 0.3828 0.1555
H7 H 1.0834 0.2596 0.1598
C10 C 0.92831(17) 0.32403(14) 0.11195(9)
C11 C 0.9931(2) 0.27263(16) 0.04708(10)
H8 H 0.9259 0.2724 0.0233
H9 H 1.0527 0.3165 0.0157
C12 C 1.0669(2) 0.16209(17) 0.05965(10)
C13 C 1.2000(2) 0.1434(2) 0.05307(12)
H10 H 1.2441 0.1998 0.0433
C14 C 1.2688(3) 0.0422(3) 0.06085(14)
H11 H 1.3584 0.0309 0.0564
C15 C 1.2054(4) -0.0411(2) 0.07503(14)
H12 H 1.2520 -0.1092 0.0795
C16 C 1.0743(4) -0.0248(2) 0.08261(15)
H13 H 1.0313 -0.0818 0.0927
C17 C 1.0045(3) 0.0762(2) 0.07536(13)
H14 H 0.9146 0.0866 0.0811
C18 C 0.91987(18) 0.21372(14) 0.41326(9)
C19 C 0.8434(2) 0.22004(17) 0.53697(10)
C20 C 0.7117(3) 0.2617(3) 0.57807(13)
H15 H 0.6862 0.3341 0.5588
H16 H 0.7154 0.2558 0.6259
H17 H 0.6492 0.2217 0.5758
C21 C 0.9420(3) 0.2821(2) 0.53876(14)
H18 H 1.0255 0.2547 0.5121
H19 H 0.9472 0.2771 0.5862
H20 H 0.9167 0.3543 0.5191
C22 C 0.8845(3) 0.1041(2) 0.55968(13)
H21 H 0.8251 0.0666 0.5514
H22 H 0.8839 0.0898 0.6086
H23 H 0.9707 0.0820 0.5336
C23 C 0.85231(18) 0.40808(15) 0.25678(10)
C24 C 0.8828(3) 0.5377(2) 0.31149(18)
H24 H 0.8740 0.5922 0.2719
H25 H 0.9455 0.5501 0.3335
H26 H 0.8002 0.5376 0.3442
C25 C 0.86912(19) 0.43720(16) 0.08529(10)
C26 C 0.7030(2) 0.54272(19) 0.03229(15)
H27 H 0.7631 0.5724 -0.0077
H28 H 0.6775 0.5881 0.0664
H29 H 0.6274 0.5356 0.0183
O10 O 1.47434(11) 0.08743(9) 0.22662(7)
O11 O 1.66681(15) -0.00867(12) 0.24134(9)
O12 O 1.53144(13) -0.06203(10) 0.19310(8)
O13 O 1.38903(15) 0.54846(14) 0.12118(9)
O14 O 1.18174(13) 0.54458(10) 0.17422(7)
O15 O 1.35163(15) 0.30083(14) 0.11178(8)
O16 O 1.56158(13) 0.24081(13) 0.10798(7)
O17 O 1.2760(2) 0.1017(2) 0.57979(9)
O18 O 1.4634(2) 0.12994(16) 0.57781(9)
N4 N 1.28837(13) 0.28400(12) 0.25116(8)
N5 N 1.24026(14) 0.37369(12) 0.26295(8)
N6 N 1.3830(2) 0.11983(16) 0.54890(10)
C27 C 1.41685(19) 0.12927(15) 0.47240(10)
C28 C 1.53151(18) 0.16263(15) 0.43543(10)
H30 H 1.5894 0.1755 0.4583
C29 C 1.55820(17) 0.17644(14) 0.36376(9)
H31 H 1.6344 0.2003 0.3379
C30 C 1.47370(16) 0.15547(13) 0.32943(9)
C31 C 1.35995(18) 0.12032(16) 0.36864(10)
H32 H 1.3032 0.1047 0.3462
C32 C 1.33050(19) 0.10850(16) 0.44005(11)
H33 H 1.2532 0.0867 0.4662
C33 C 1.50619(16) 0.17212(13) 0.25064(9)
H34 H 1.5997 0.1732 0.2336
C34 C 1.43075(16) 0.27361(13) 0.21637(9)
C35 C 1.46886(16) 0.37403(13) 0.22425(10)
H35 H 1.5097 0.3618 0.2635
H36 H 1.5275 0.4022 0.1822
C36 C 1.33850(17) 0.44698(14) 0.23686(10)
C37 C 1.3188(2) 0.52118(15) 0.28910(11)
H37 H 1.3761 0.5725 0.2686
H38 H 1.2301 0.5591 0.2951
C38 C 1.3432(2) 0.47015(15) 0.36016(11)
C39 C 1.2469(2) 0.43073(19) 0.41285(12)
H39 H 1.1671 0.4304 0.4036
C40 C 1.2676(3) 0.3916(2) 0.47950(14)
H40 H 1.2014 0.3659 0.5148
C41 C 1.3845(3) 0.3907(2) 0.49349(15)
H41 H 1.3978 0.3654 0.5384
C42 C 1.4819(3) 0.4267(2) 0.44172(15)
H42 H 1.5623 0.4245 0.4511
C43 C 1.4620(2) 0.46661(17) 0.37538(13)
H43 H 1.5293 0.4914 0.3404
C44 C 1.56935(18) 0.00262(15) 0.22219(10)
C45 C 1.6108(2) -0.16715(18) 0.18627(14)
C46 C 1.5406(3) -0.2071(3) 0.1439(2)
H44 H 1.4508 -0.2053 0.1676
H45 H 1.5804 -0.2779 0.1385
H46 H 1.5462 -0.1632 0.0987
C47 C 1.7473(2) -0.1583(3) 0.14620(17)
H47 H 1.7914 -0.2251 0.1340
H48 H 1.7928 -0.1373 0.1745
H49 H 1.7451 -0.1069 0.1044
C48 C 1.6051(4) -0.2307(2) 0.25783(19)
H50 H 1.5159 -0.2268 0.2832
H51 H 1.6528 -0.2036 0.2819
H52 H 1.6427 -0.3026 0.2544
C49 C 1.44090(18) 0.27266(15) 0.13973(10)
C50 C 1.5877(3) 0.2425(3) 0.03414(12)
H53 H 1.5679 0.3134 0.0106
H54 H 1.5346 0.2001 0.0250
H55 H 1.6779 0.2150 0.0176
C51 C 1.30831(19) 0.51761(15) 0.16978(11)
C52 C 1.1402(2) 0.61975(18) 0.11698(12)
H56 H 1.1757 0.5922 0.0744
H57 H 1.1704 0.6843 0.1128
H58 H 1.0468 0.6326 0.1257
loop_
_geom_bond_atom_site_label_1
_geom_bond_atom_site_label_2
_geom_bond_site_symmetry_1
_geom_bond_site_symmetry_2
O1 C7 1_555 1_555
O2 C18 1_555 1_555
O3 C18 1_555 1_555
O4 C23 1_555 1_555
O5 C23 1_555 1_555
O6 C25 1_555 1_555
O7 C25 1_555 1_555
O8 N3 1_555 1_555
O9 N3 1_555 1_555
N1 N2 1_555 1_555
N2 C10 1_555 1_555
N3 C1 1_555 1_555
C1 C2 1_555 1_555
C2 H1 1_555 1_555
C3 C2 1_555 1_555
H2 C3 1_555 1_555
C4 C3 1_555 1_555
C5 C4 1_555 1_555
H3 C5 1_555 1_555
C6 C1 1_555 1_555
H4 C6 1_555 1_555
C7 C4 1_555 1_555
H5 C7 1_555 1_555
C8 N1 1_555 1_555
C9 C8 1_555 1_555
H6 C9 1_555 1_555
H7 C9 1_555 1_555
C10 C9 1_555 1_555
C11 C10 1_555 1_555
H8 C11 1_555 1_555
H9 C11 1_555 1_555
C12 C11 1_555 1_555
C13 C12 1_555 1_555
H10 C13 1_555 1_555
C14 C13 1_555 1_555
H11 C14 1_555 1_555
C15 C14 1_555 1_555
H12 C15 1_555 1_555
C16 C15 1_555 1_555
H13 C16 1_555 1_555
C17 C12 1_555 1_555
H14 C17 1_555 1_555
C18 O1 1_555 1_555
C19 O3 1_555 1_555
C20 C19 1_555 1_555
H15 C20 1_555 1_555
H16 C20 1_555 1_555
H17 C20 1_555 1_555
C21 C19 1_555 1_555
H18 C21 1_555 1_555
H19 C21 1_555 1_555
H20 C21 1_555 1_555
C22 C19 1_555 1_555
H21 C22 1_555 1_555
H22 C22 1_555 1_555
H23 C22 1_555 1_555
C23 C8 1_555 1_555
C24 O5 1_555 1_555
H24 C24 1_555 1_555
H25 C24 1_555 1_555
H26 C24 1_555 1_555
C25 C10 1_555 1_555
C26 O7 1_555 1_555
H27 C26 1_555 1_555
H28 C26 1_555 1_555
H29 C26 1_555 1_555
O10 C33 1_555 1_555
O11 C44 1_555 1_555
O12 C44 1_555 1_555
O13 C51 1_555 1_555
O14 C51 1_555 1_555
O15 C49 1_555 1_555
O16 C49 1_555 1_555
O17 N6 1_555 1_555
O18 N6 1_555 1_555
N4 N5 1_555 1_555
N5 C36 1_555 1_555
N6 C27 1_555 1_555
C27 C28 1_555 1_555
C28 H30 1_555 1_555
C29 C28 1_555 1_555
H31 C29 1_555 1_555
C30 C29 1_555 1_555
C31 C30 1_555 1_555
H32 C31 1_555 1_555
C32 C27 1_555 1_555
H33 C32 1_555 1_555
C33 C30 1_555 1_555
H34 C33 1_555 1_555
C34 N4 1_555 1_555
C35 C34 1_555 1_555
H35 C35 1_555 1_555
H36 C35 1_555 1_555
C36 C35 1_555 1_555
C37 C36 1_555 1_555
H37 C37 1_555 1_555
H38 C37 1_555 1_555
C38 C37 1_555 1_555
C39 C38 1_555 1_555
H39 C39 1_555 1_555
C40 C39 1_555 1_555
H40 C40 1_555 1_555
C41 C40 1_555 1_555
H41 C41 1_555 1_555
C42 C41 1_555 1_555
H42 C42 1_555 1_555
C43 C38 1_555 1_555
H43 C43 1_555 1_555
C44 O10 1_555 1_555
C45 O12 1_555 1_555
C46 C45 1_555 1_555
H44 C46 1_555 1_555
H45 C46 1_555 1_555
H46 C46 1_555 1_555
C47 C45 1_555 1_555
H47 C47 1_555 1_555
H48 C47 1_555 1_555
H49 C47 1_555 1_555
C48 C45 1_555 1_555
H50 C48 1_555 1_555
H51 C48 1_555 1_555
H52 C48 1_555 1_555
C49 C34 1_555 1_555
C50 O16 1_555 1_555
H53 C50 1_555 1_555
H54 C50 1_555 1_555
H55 C50 1_555 1_555
C51 C36 1_555 1_555
C52 O14 1_555 1_555
H56 C52 1_555 1_555
H57 C52 1_555 1_555
H58 C52 1_555 1_555
C5 C6 1_555 1_555
C7 C8 1_555 1_555
C16 C17 1_555 1_555
C31 C32 1_555 1_555
C33 C34 1_555 1_555
C42 C43 1_555 1_555

#END
