
#######################################################################
#
#                 Cambridge Crystallographic Data Centre
#                                CCDC 
#
#######################################################################
#
# If this CIF has been generated from an entry in the Cambridge 
# Structural Database, then it will include bibliographic, chemical, 
# crystal, experimental, refinement or atomic coordinate data resulting 
# from the CCDC's data processing and validation procedures.
#
#######################################################################

data_GILYEI
_chemical_formula_moiety         'C9 H21 N7 S3'
_chemical_name_systematic        
N,N',N''-[nitrilotris(ethane-2,1-diyl)]tris(thiourea)
_symmetry_cell_setting           monoclinic
_symmetry_space_group_name_H-M   'P 21/c'
_symmetry_Int_Tables_number      14
_space_group_name_Hall           '-P 2ybc'
loop_
_symmetry_equiv_pos_site_id
_symmetry_equiv_pos_as_xyz
1 x,y,z
2 -x,1/2+y,1/2-z
3 -x,-y,-z
4 x,1/2-y,1/2+z
_cell_length_a                   16.8002(10)
_cell_length_b                   9.2255(7)
_cell_length_c                   9.8307(6)
_cell_angle_alpha                90
_cell_angle_beta                 102.387(2)
_cell_angle_gamma                90
_cell_volume                     1488.19
_exptl_crystal_colour            colorless
_exptl_crystal_description       block
_cell_formula_units_Z            4
loop_
_atom_site_label
_atom_site_type_symbol
_atom_site_fract_x
_atom_site_fract_y
_atom_site_fract_z
S1 S 0.46362(4) 0.43364(9) 0.80427(7)
S2 S -0.03362(4) 0.43901(9) 0.25562(8)
S3 S 0.24357(4) 0.89759(9) 0.17145(7)
N1 N 0.25679(13) 0.4387(3) 0.1797(2)
N2 N 0.39303(14) 0.4507(3) 0.5377(2)
H1 H 0.3671 0.5245 0.5649
N3 N 0.49344(14) 0.2801(3) 0.5920(3)
H2 H 0.4854 0.2571 0.5032
H3 H 0.5308 0.2344 0.6534
N4 N 0.08054(14) 0.2948(3) 0.1637(3)
H4 H 0.0590 0.2200 0.1982
N5 N 0.08863(14) 0.5405(3) 0.1496(3)
H5 H 0.1315 0.5304 0.1124
H6 H 0.0705 0.6277 0.1629
N6 N 0.22919(13) 0.6837(3) -0.0152(2)
H7 H 0.2001 0.6410 -0.0895
N7 N 0.11799(14) 0.8256(3) -0.0297(3)
H8 H 0.0938 0.7730 -0.1014
H9 H 0.0918 0.8982 -0.0010
C1 C 0.29398(16) 0.4895(3) 0.3202(3)
H10 H 0.2535 0.4796 0.3795
H11 H 0.3067 0.5939 0.3153
C2 C 0.37165(16) 0.4099(3) 0.3907(3)
H12 H 0.3629 0.3039 0.3820
H13 H 0.4167 0.4358 0.3447
C3 C 0.44905(16) 0.3838(3) 0.6333(3)
C4 C 0.23082(17) 0.2853(4) 0.1765(3)
H14 H 0.2322 0.2521 0.2727
H15 H 0.2696 0.2251 0.1381
C5 C 0.14490(16) 0.2641(4) 0.0881(3)
H16 H 0.1376 0.3284 0.0057
H17 H 0.1392 0.1628 0.0542
C6 C 0.05150(16) 0.4247(3) 0.1854(3)
C7 C 0.30543(16) 0.4663(3) 0.0743(3)
H18 H 0.2810 0.4128 -0.0118
H19 H 0.3612 0.4283 0.1089
C8 C 0.31057(16) 0.6250(4) 0.0399(3)
H20 H 0.3366 0.6790 0.1249
H21 H 0.3446 0.6372 -0.0299
C9 C 0.19483(16) 0.7952(3) 0.0358(3)
loop_
_geom_bond_atom_site_label_1
_geom_bond_atom_site_label_2
_geom_bond_site_symmetry_1
_geom_bond_site_symmetry_2
S1 C3 1_555 1_555
S2 C6 1_555 1_555
S3 C9 1_555 1_555
N1 C1 1_555 1_555
N2 H1 1_555 1_555
N3 H2 1_555 1_555
H3 N3 1_555 1_555
N4 H4 1_555 1_555
N5 H5 1_555 1_555
H6 N5 1_555 1_555
N6 H7 1_555 1_555
N7 H8 1_555 1_555
H9 N7 1_555 1_555
C1 H10 1_555 1_555
H11 C1 1_555 1_555
C2 N2 1_555 1_555
H12 C2 1_555 1_555
H13 C2 1_555 1_555
C3 N2 1_555 1_555
C4 N1 1_555 1_555
H14 C4 1_555 1_555
H15 C4 1_555 1_555
C5 N4 1_555 1_555
H16 C5 1_555 1_555
H17 C5 1_555 1_555
C6 N4 1_555 1_555
C7 N1 1_555 1_555
H18 C7 1_555 1_555
H19 C7 1_555 1_555
C8 N6 1_555 1_555
H20 C8 1_555 1_555
H21 C8 1_555 1_555
C9 N6 1_555 1_555
N3 C3 1_555 1_555
N5 C6 1_555 1_555
N7 C9 1_555 1_555
C1 C2 1_555 1_555
C4 C5 1_555 1_555
C7 C8 1_555 1_555

#END
