
#######################################################################
#
#                 Cambridge Crystallographic Data Centre
#                                CCDC 
#
#######################################################################
#
# If this CIF has been generated from an entry in the Cambridge 
# Structural Database, then it will include bibliographic, chemical, 
# crystal, experimental, refinement or atomic coordinate data resulting 
# from the CCDC's data processing and validation procedures.
#
#######################################################################

data_GIMCEK
_chemical_formula_moiety         'C24 H28 N2'
_chemical_name_systematic        
2-(S-Phenylimino)-3-(2,6-dimethylphenylimino)-1,7,7-trimethylbicyclo(2.2.1)heptane
_symmetry_cell_setting           orthorhombic
_symmetry_space_group_name_H-M   'P 21 21 21'
_symmetry_Int_Tables_number      19
_space_group_name_Hall           'P 2ac 2ab'
loop_
_symmetry_equiv_pos_site_id
_symmetry_equiv_pos_as_xyz
1 x,y,z
2 1/2-x,-y,1/2+z
3 -x,1/2+y,1/2-z
4 1/2+x,1/2-y,-z
_cell_length_a                   9.3146(8)
_cell_length_b                   14.802(2)
_cell_length_c                   15.0381(8)
_cell_angle_alpha                90
_cell_angle_beta                 90
_cell_angle_gamma                90
_cell_volume                     2073.37
_exptl_crystal_description       prism
_cell_formula_units_Z            4
loop_
_atom_site_label
_atom_site_type_symbol
_atom_site_fract_x
_atom_site_fract_y
_atom_site_fract_z
N1 N 1.0472(3) 0.3857(2) 0.1525(2)
N2 N 0.7727(2) 0.49781(15) 0.12834(15)
C1 C 0.8398(3) 0.4844(2) 0.2006(2)
C2 C 0.8120(3) 0.5188(3) 0.2932(2)
H1 H 0.7451(30) 0.5692(19) 0.2938(17)
C3 C 0.7695(5) 0.4370(4) 0.3498(3)
H2 H 0.7374(34) 0.4618(20) 0.4078(23)
H3 H 0.6941(38) 0.3974(21) 0.3173(21)
C4 C 0.9111(4) 0.3828(3) 0.3569(3)
H4 H 0.9079(30) 0.3187(19) 0.3300(18)
H5 H 0.9513(32) 0.3763(18) 0.4188(21)
C5 C 1.0205(3) 0.4413(2) 0.3055(2)
C6 C 0.9766(3) 0.4310(2) 0.2089(2)
C7 C 1.1771(5) 0.4192(4) 0.3248(3)
H6 H 1.1853(39) 0.3560(23) 0.3051(22)
H7 H 1.1850(35) 0.4251(21) 0.3958(22)
H8 H 1.2352(38) 0.4640(23) 0.2944(22)
C8 C 0.9666(4) 0.5386(2) 0.3253(2)
C9 C 1.0430(5) 0.6111(3) 0.2712(2)
H9 H 1.0521(27) 0.5964(15) 0.2074(19)
H10 H 0.9898(37) 0.6695(23) 0.2808(23)
H11 H 1.1502(37) 0.6226(19) 0.2888(20)
C10 C 0.9767(6) 0.5666(4) 0.4233(2)
H12 H 1.0781(41) 0.5664(23) 0.4382(22)
H13 H 0.9142(35) 0.5212(20) 0.4555(21)
H14 H 0.9329(56) 0.6299(30) 0.4332(33)
C11 C 1.0010(4) 0.3701(2) 0.0642(2)
C12 C 1.0770(4) 0.4072(3) -0.0047(3)
H15 H 1.1422(44) 0.4566(24) 0.0099(26)
C13 C 1.0435(6) 0.3835(4) -0.0916(3)
H16 H 1.0943(50) 0.4149(27) -0.1433(31)
C14 C 0.9393(6) 0.3234(4) -0.1095(3)
H17 H 0.9194(36) 0.3023(22) -0.1665(24)
C15 C 0.8616(6) 0.2861(3) -0.0414(4)
H18 H 0.7848(46) 0.2477(28) -0.0539(28)
C16 C 0.8927(4) 0.3097(2) 0.0460(3)
H19 H 0.8384(35) 0.2843(20) 0.0961(21)
C17 C 0.6481(3) 0.5537(2) 0.1291(2)
C18 C 0.5141(3) 0.5152(2) 0.1449(2)
C19 C 0.3933(4) 0.5699(3) 0.1406(2)
H20 H 0.2923(41) 0.5339(22) 0.1485(23)
C20 C 0.4061(6) 0.6591(4) 0.1216(3)
H21 H 0.3256(40) 0.6947(25) 0.1169(22)
C21 C 0.5381(6) 0.6971(3) 0.1041(2)
H22 H 0.5607(37) 0.7605(23) 0.0839(23)
C22 C 0.6620(4) 0.6441(2) 0.1057(2)
C23 C 0.4974(5) 0.4161(3) 0.1617(3)
H23 H 0.5190(37) 0.3999(22) 0.2213(24)
H24 H 0.5643(41) 0.3789(25) 0.1300(26)
H25 H 0.3991(46) 0.3948(24) 0.1513(25)
C24 C 0.8059(6) 0.6824(3) 0.0807(3)
H26 H 0.8593(45) 0.7007(27) 0.1348(29)
H27 H 0.8664(48) 0.6433(26) 0.0452(25)
H28 H 0.7867(37) 0.7424(24) 0.0523(22)
loop_
_geom_bond_atom_site_label_1
_geom_bond_atom_site_label_2
_geom_bond_site_symmetry_1
_geom_bond_site_symmetry_2
N1 C6 1_555 1_555
N2 C1 1_555 1_555
C1 C2 1_555 1_555
C2 H1 1_555 1_555
C3 C2 1_555 1_555
H2 C3 1_555 1_555
H3 C3 1_555 1_555
C4 C3 1_555 1_555
H4 C4 1_555 1_555
H5 C4 1_555 1_555
C5 C4 1_555 1_555
C6 C1 1_555 1_555
C7 C5 1_555 1_555
H6 C7 1_555 1_555
H7 C7 1_555 1_555
H8 C7 1_555 1_555
C8 C2 1_555 1_555
C9 C8 1_555 1_555
H9 C9 1_555 1_555
H10 C9 1_555 1_555
H11 C9 1_555 1_555
C10 C8 1_555 1_555
H12 C10 1_555 1_555
H13 C10 1_555 1_555
H14 C10 1_555 1_555
C11 N1 1_555 1_555
C12 C11 1_555 1_555
H15 C12 1_555 1_555
C13 C12 1_555 1_555
H16 C13 1_555 1_555
C14 C13 1_555 1_555
H17 C14 1_555 1_555
C15 C14 1_555 1_555
H18 C15 1_555 1_555
C16 C11 1_555 1_555
H19 C16 1_555 1_555
C17 N2 1_555 1_555
C18 C17 1_555 1_555
C19 C18 1_555 1_555
H20 C19 1_555 1_555
C20 C19 1_555 1_555
H21 C20 1_555 1_555
C21 C20 1_555 1_555
H22 C21 1_555 1_555
C22 C17 1_555 1_555
C23 C18 1_555 1_555
H23 C23 1_555 1_555
H24 C23 1_555 1_555
H25 C23 1_555 1_555
C24 C22 1_555 1_555
H26 C24 1_555 1_555
H27 C24 1_555 1_555
H28 C24 1_555 1_555
C5 C6 1_555 1_555
C5 C8 1_555 1_555
C15 C16 1_555 1_555
C21 C22 1_555 1_555

#END
