
#######################################################################
#
#                 Cambridge Crystallographic Data Centre
#                                CCDC 
#
#######################################################################
#
# If this CIF has been generated from an entry in the Cambridge 
# Structural Database, then it will include bibliographic, chemical, 
# crystal, experimental, refinement or atomic coordinate data resulting 
# from the CCDC's data processing and validation procedures.
#
#######################################################################

data_GIMDAK
_chemical_formula_moiety         'C19 H18 N2 O2'
_chemical_name_systematic        
4-(4-hydroxyphenyl)-N-(quinolin-8-yl)butanamide
_symmetry_cell_setting           monoclinic
_symmetry_space_group_name_H-M   'P 21/c'
_symmetry_Int_Tables_number      14
_space_group_name_Hall           '-P 2ybc'
loop_
_symmetry_equiv_pos_site_id
_symmetry_equiv_pos_as_xyz
1 x,y,z
2 -x,1/2+y,1/2-z
3 -x,-y,-z
4 x,1/2-y,1/2+z
_cell_length_a                   11.2477(4)
_cell_length_b                   15.3784(5)
_cell_length_c                   9.6298(3)
_cell_angle_alpha                90
_cell_angle_beta                 114.2040(10)
_cell_angle_gamma                90
_cell_volume                     1519.25
_exptl_crystal_colour            'light violet'
_exptl_crystal_description       irregular
_cell_formula_units_Z            4
loop_
_atom_site_label
_atom_site_type_symbol
_atom_site_fract_x
_atom_site_fract_y
_atom_site_fract_z
O1 O 0.29994(8) 0.50499(5) 0.45618(9)
O2 O 0.73220(8) 0.35280(6) 1.38971(9)
H1 H 0.7176(8) 0.4018(11) 1.4313(11)
N1 N 0.06126(9) 0.33295(6) -0.00024(10)
N2 N 0.19912(9) 0.40828(6) 0.26553(10)
H2 H 0.169445 0.354621 0.248373
C1 C -0.00915(11) 0.29431(8) -0.13079(13)
H3 H -0.043703 0.238358 -0.127478
C2 C -0.03617(11) 0.33102(8) -0.27483(13)
H4 H -0.087226 0.300392 -0.365471
C3 C 0.01258(11) 0.41149(8) -0.28127(12)
H5 H -0.004663 0.437436 -0.377146
C4 C 0.08892(10) 0.45640(8) -0.14510(12)
C5 C 0.14486(11) 0.53944(8) -0.14043(13)
H6 H 0.131999 0.568536 -0.232531
C6 C 0.21743(11) 0.57782(8) -0.00341(14)
H7 H 0.255028 0.633333 -0.001761
C7 C 0.23768(11) 0.53661(7) 0.13587(13)
H8 H 0.287868 0.564628 0.229704
C8 C 0.18470(10) 0.45606(7) 0.13530(12)
C9 C 0.10960(10) 0.41349(7) -0.00613(12)
C10 C 0.25208(10) 0.43274(7) 0.41389(12)
C11 C 0.24561(10) 0.36361(7) 0.52285(12)
H9 H 0.260627 0.305991 0.487085
H10 H 0.156923 0.363366 0.520902
C12 C 0.34449(10) 0.37696(7) 0.68622(12)
H11 H 0.325308 0.432242 0.725579
H12 H 0.432874 0.381508 0.687929
C13 C 0.34191(10) 0.30218(7) 0.78997(12)
H13 H 0.253674 0.298171 0.788857
H14 H 0.359694 0.246873 0.749400
C14 C 0.44090(10) 0.31368(7) 0.95271(11)
C15 C 0.53793(10) 0.25186(7) 1.02348(12)
H15 H 0.538921 0.199883 0.970647
C16 C 0.63328(10) 0.26485(7) 1.16998(12)
H16 H 0.698787 0.222156 1.215950
C17 C 0.63242(10) 0.34028(7) 1.24869(11)
C18 C 0.53267(10) 0.40061(7) 1.18314(12)
H17 H 0.528441 0.450657 1.238765
C19 C 0.43943(10) 0.38739(7) 1.03626(12)
H18 H 0.372944 0.429626 0.991531
loop_
_geom_bond_atom_site_label_1
_geom_bond_atom_site_label_2
_geom_bond_site_symmetry_1
_geom_bond_site_symmetry_2
O1 C10 1_555 1_555
O2 H1 1_555 1_555
N1 C1 1_555 1_555
N2 H2 1_555 1_555
C1 H3 1_555 1_555
C2 C1 1_555 1_555
H4 C2 1_555 1_555
C3 C2 1_555 1_555
H5 C3 1_555 1_555
C4 C3 1_555 1_555
C5 C4 1_555 1_555
H6 C5 1_555 1_555
C6 C5 1_555 1_555
H7 C6 1_555 1_555
C7 C6 1_555 1_555
H8 C7 1_555 1_555
C8 N2 1_555 1_555
C9 N1 1_555 1_555
C10 N2 1_555 1_555
C11 C10 1_555 1_555
H9 C11 1_555 1_555
H10 C11 1_555 1_555
C12 C11 1_555 1_555
H11 C12 1_555 1_555
H12 C12 1_555 1_555
C13 C12 1_555 1_555
H13 C13 1_555 1_555
H14 C13 1_555 1_555
C14 C13 1_555 1_555
C15 C14 1_555 1_555
H15 C15 1_555 1_555
C16 C15 1_555 1_555
H16 C16 1_555 1_555
C17 O2 1_555 1_555
C18 C17 1_555 1_555
H17 C18 1_555 1_555
C19 C14 1_555 1_555
H18 C19 1_555 1_555
C4 C9 1_555 1_555
C7 C8 1_555 1_555
C8 C9 1_555 1_555
C16 C17 1_555 1_555
C18 C19 1_555 1_555

#END
