
#######################################################################
#
#                 Cambridge Crystallographic Data Centre
#                                CCDC 
#
#######################################################################
#
# If this CIF has been generated from an entry in the Cambridge 
# Structural Database, then it will include bibliographic, chemical, 
# crystal, experimental, refinement or atomic coordinate data resulting 
# from the CCDC's data processing and validation procedures.
#
#######################################################################

data_GIMFOA
_chemical_formula_moiety         'C52 H28 Mg1 N4,5.2(C1 H4 O1)'
_chemical_name_systematic        
'[5,10,15,20-tetrakis(phenylethynyl)porphyrinato]-magnesium(ii) methanol solvate'
_symmetry_cell_setting           triclinic
_symmetry_space_group_name_H-M   'P -1'
_symmetry_Int_Tables_number      2
_space_group_name_Hall           '-P 1'
loop_
_symmetry_equiv_pos_site_id
_symmetry_equiv_pos_as_xyz
1 x,y,z
2 -x,-y,-z
_cell_length_a                   15.6277(5)
_cell_length_b                   17.4863(5)
_cell_length_c                   18.4590(5)
_cell_angle_alpha                89.284(6)
_cell_angle_beta                 80.486(6)
_cell_angle_gamma                88.304(6)
_cell_volume                     4972.59
_exptl_crystal_description       plate
_cell_formula_units_Z            4
loop_
_atom_site_label
_atom_site_type_symbol
_atom_site_fract_x
_atom_site_fract_y
_atom_site_fract_z
Mg1 Mg 0.55146(9) 0.08714(8) 0.56398(7)
N1 N 0.5649(2) 0.0274(2) 0.65901(16)
N2 N 0.4254(2) 0.11695(19) 0.61160(17)
N3 N 0.5205(2) 0.1160(2) 0.46262(18)
N4 N 0.6596(2) 0.02604(19) 0.50987(17)
C1 C 0.6352(3) -0.0175(2) 0.6715(2)
C2 C 0.6240(3) -0.0422(3) 0.7465(2)
H1 H 0.663183 -0.073167 0.769182
C3 C 0.5095(3) 0.0303(2) 0.7252(2)
C4 C 0.5457(3) -0.0125(3) 0.7789(2)
H2 H 0.519893 -0.019214 0.828798
C5 C 0.3892(3) 0.1087(2) 0.6835(2)
C6 C 0.3054(3) 0.1460(2) 0.6967(2)
H3 H 0.267198 0.149141 0.742400
C7 C 0.3663(3) 0.1567(2) 0.5800(2)
C8 C 0.2912(3) 0.1756(3) 0.6325(3)
H4 H 0.241005 0.203757 0.623556
C9 C 0.4488(3) 0.1557(3) 0.4493(2)
C10 C 0.4559(3) 0.1752(3) 0.3717(2)
H5 H 0.414375 0.202778 0.348685
C11 C 0.5742(3) 0.1087(3) 0.3947(2)
C12 C 0.5330(3) 0.1464(3) 0.3393(3)
H6 H 0.556380 0.150195 0.288571
C13 C 0.6941(3) 0.0311(3) 0.4368(2)
C14 C 0.7747(3) -0.0114(3) 0.4237(3)
H7 H 0.811689 -0.016833 0.377648
C15 C 0.7165(3) -0.0184(2) 0.5417(2)
C16 C 0.7889(3) -0.0420(2) 0.4871(2)
H8 H 0.837397 -0.073260 0.494890
C17 C 0.7070(3) -0.0383(2) 0.6171(2)
C18 C 0.7734(3) -0.0817(3) 0.6398(2)
C19 C 0.8347(4) -0.1132(3) 0.6611(2)
C20 C 0.4289(3) 0.0696(2) 0.7369(2)
C21 C 0.3800(3) 0.0676(2) 0.8106(2)
C22 C 0.3403(3) 0.0677(2) 0.8716(2)
C23 C 0.3766(3) 0.1762(3) 0.5032(2)
C24 C 0.3071(3) 0.2177(3) 0.4801(2)
C25 C 0.2468(3) 0.2506(3) 0.4592(3)
C26 C 0.6555(3) 0.0713(3) 0.3839(2)
C27 C 0.7040(3) 0.0731(3) 0.3099(2)
C28 C 0.7452(3) 0.0744(3) 0.2507(3)
C29 C 0.9117(3) -0.1438(3) 0.6889(3)
C30 C 0.9922(4) -0.1347(4) 0.6452(3)
H9 H 0.997055 -0.112279 0.597584
C31 C 1.0648(4) -0.1592(4) 0.6732(5)
H10 H 1.120334 -0.153717 0.643961
C32 C 1.0594(5) -0.1918(4) 0.7432(5)
H11 H 1.110378 -0.207387 0.761780
C33 C 0.9808(6) -0.2007(4) 0.7836(4)
H12 H 0.976683 -0.223234 0.831080
C34 C 0.9050(4) -0.1778(3) 0.7582(3)
H13 H 0.849822 -0.185275 0.787453
C35 C 0.2902(3) 0.0649(2) 0.9442(2)
C36 C 0.3201(3) 0.0223(3) 0.9984(2)
H14 H 0.373859 -0.005305 0.987424
C37 C 0.2735(3) 0.0191(3) 1.0681(2)
H15 H 0.295506 -0.010083 1.105031
C38 C 0.1949(3) 0.0581(3) 1.0846(2)
H16 H 0.161724 0.055134 1.132546
C39 C 0.1653(3) 0.1012(2) 1.0311(2)
H17 H 0.111656 0.128858 1.042378
C40 C 0.2120(3) 0.1050(2) 0.9614(2)
H18 H 0.190458 0.135263 0.924901
C41 C 0.1703(6) 0.2814(9) 0.4311(6)
C42 C 0.0914(6) 0.2826(8) 0.4764(6)
H19 H 0.086851 0.260271 0.523996
C43 C 0.0189(6) 0.3152(8) 0.4547(6)
H20 H -0.034506 0.317870 0.487855
C44 C 0.0239(6) 0.3440(8) 0.3845(6)
H21 H -0.025938 0.366934 0.368933
C45 C 0.1009(8) 0.3394(8) 0.3375(6)
H22 H 0.104226 0.358683 0.288797
C46 C 0.1743(8) 0.3072(11) 0.3597(7)
H23 H 0.227118 0.302916 0.325994
C47 C 0.7995(3) 0.0760(3) 0.1788(2)
C48 C 0.7768(3) 0.1183(4) 0.1223(3)
H24 H 0.721904 0.144456 0.128631
C49 C 0.8315(3) 0.1239(4) 0.0566(3)
H25 H 0.815625 0.154845 0.017960
C50 C 0.9093(4) 0.0845(4) 0.0472(3)
H26 H 0.947983 0.088150 0.001937
C51 C 0.9316(4) 0.0400(4) 0.1024(3)
H27 H 0.985372 0.012048 0.095032
C52 C 0.8772(3) 0.0350(3) 0.1687(3)
H28 H 0.892984 0.003747 0.207137
O1 O 0.6085(2) 0.18631(18) 0.58418(19)
C53 C 0.6158(7) 0.2205(5) 0.6509(5)
O2 O 0.4707(17) 0.4255(12) 0.5626(10)
C54 C 0.457(2) 0.3517(13) 0.5360(15)
O3 O 0.663(2) 0.294(2) 0.360(2)
C55 C 0.642(4) 0.373(3) 0.368(3)
Mg2 Mg 0.08491(8) 0.51007(7) 0.89124(8)
N5 N 0.1741(2) 0.51804(19) 0.96135(19)
N6 N 0.0134(2) 0.6003(2) 0.9466(2)
N7 N -0.0233(2) 0.4854(2) 0.84607(19)
N8 N 0.1347(2) 0.4015(2) 0.8636(2)
C56 C 0.2437(3) 0.4701(2) 0.9651(3)
C57 C 0.2964(3) 0.5004(3) 1.0129(3)
H29 H 0.349273 0.478213 1.023265
C58 C 0.1801(3) 0.5768(2) 1.0088(2)
C59 C 0.2576(3) 0.5676(2) 1.0417(3)
H30 H 0.277386 0.600533 1.075584
C60 C 0.0420(3) 0.6489(3) 0.9944(3)
C61 C -0.0192(3) 0.7120(3) 1.0116(3)
H31 H -0.014801 0.753511 1.043308
C62 C -0.0629(3) 0.6304(2) 0.9318(3)
C63 C -0.0843(3) 0.7001(3) 0.9733(3)
H32 H -0.134844 0.731661 0.973565
C64 C -0.0955(3) 0.5310(3) 0.8442(3)
C65 C -0.1489(3) 0.4994(3) 0.7981(3)
H33 H -0.202801 0.520489 0.788897
C66 C -0.0313(3) 0.4253(3) 0.7997(3)
C67 C -0.1093(3) 0.4328(3) 0.7689(3)
H34 H -0.129308 0.399244 0.735668
C68 C 0.1043(3) 0.3514(3) 0.8187(3)
C69 C 0.1602(3) 0.2832(2) 0.8059(3)
H35 H 0.153319 0.240492 0.776284
C70 C 0.2098(3) 0.3687(2) 0.8822(2)
C71 C 0.2249(3) 0.2943(2) 0.8461(3)
H36 H 0.271863 0.259492 0.849879
C72 C 0.2616(3) 0.4012(2) 0.9268(2)
C73 C 0.3397(3) 0.3589(2) 0.9350(2)
C74 C 0.4054(3) 0.3236(2) 0.9402(2)
C75 C 0.1192(3) 0.6392(3) 1.0237(3)
C76 C 0.1391(3) 0.6973(3) 1.0717(3)
C77 C 0.1490(3) 0.7465(3) 1.1118(3)
C78 C -0.1140(3) 0.5997(3) 0.8845(3)
C79 C -0.1915(3) 0.6413(3) 0.8750(2)
C80 C -0.2562(3) 0.6774(3) 0.8676(2)
C81 C 0.0295(3) 0.3626(2) 0.7866(3)
C82 C 0.0104(3) 0.3074(3) 0.7366(3)
C83 C -0.0048(3) 0.2602(4) 0.6933(3)
C84 C 0.4820(3) 0.2771(3) 0.9457(2)
C85 C 0.4904(3) 0.2051(3) 0.9151(3)
H37 H 0.447088 0.187083 0.889518
C86 C 0.5631(4) 0.1589(3) 0.9222(3)
H38 H 0.568675 0.108971 0.901972
C87 C 0.6256(4) 0.1848(3) 0.9574(3)
H39 H 0.674537 0.152709 0.962188
C88 C 0.6189(3) 0.2579(3) 0.9868(3)
H40 H 0.663300 0.276297 1.011014
C89 C 0.5461(3) 0.3040(3) 0.9804(2)
H41 H 0.540849 0.354159 1.000068
C90 C 0.1572(5) 0.8115(4) 1.1597(3)
C91 C 0.2274(6) 0.8175(5) 1.1921(4)
H42 H 0.272885 0.779732 1.184058
C92 C 0.2334(6) 0.8810(4) 1.2387(4)
H43 H 0.281522 0.883588 1.263861
C93 C 0.1742(6) 0.9351(5) 1.2472(4)
H44 H 0.182318 0.979222 1.274562
C94 C 0.0973(6) 0.9294(4) 1.2160(4)
H45 H 0.051605 0.966631 1.226685
C95 C 0.0896(5) 0.8685(3) 1.1697(3)
H46 H 0.040658 0.865212 1.145616
C96 C -0.3338(3) 0.7195(3) 0.8598(2)
C97 C -0.3544(3) 0.7866(3) 0.8984(2)
H47 H -0.316612 0.806426 0.928486
C98 C -0.4336(3) 0.8247(3) 0.8915(3)
H48 H -0.449584 0.870069 0.918745
C99 C -0.4870(3) 0.7992(3) 0.8481(3)
H49 H -0.539638 0.826351 0.844277
C100 C -0.4649(3) 0.7348(3) 0.8100(3)
H50 H -0.502214 0.717060 0.778414
C101 C -0.3885(3) 0.6932(3) 0.8154(3)
H51 H -0.374695 0.647163 0.788701
C102 C -0.0277(4) 0.2007(3) 0.6462(3)
C103 C -0.0996(4) 0.2108(4) 0.6120(3)
H52 H -0.134227 0.256537 0.618026
C104 C -0.1200(4) 0.1506(5) 0.5677(4)
H53 H -0.168795 0.156930 0.543380
C105 C -0.0734(5) 0.0854(5) 0.5587(4)
H54 H -0.088571 0.046017 0.528641
C106 C -0.0051(4) 0.0767(3) 0.5927(3)
H55 H 0.026836 0.029508 0.588099
C107 C 0.0213(3) 0.1344(3) 0.6350(3)
H56 H 0.072755 0.127719 0.655812
O4 O 0.14944(19) 0.56816(17) 0.80299(18)
C108 C 0.1090(8) 0.5880(10) 0.7395(8)
O5 O 0.2896(11) 0.7099(11) 0.8260(10)
C109 C 0.2903(10) 0.6415(10) 0.7832(8)
O6 O 0.2283(7) 0.6011(7) 0.4070(6)
C110 C 0.1603(10) 0.5460(8) 0.4286(8)
O7 O 0.3502(7) 0.6180(7) 0.2193(6)
C111 C 0.3530(7) 0.5839(6) 0.2867(6)
O8 O 0.5254(12) 0.7206(11) 0.2639(9)
C112 C 0.4753(10) 0.7022(9) 0.3329(9)
O9 O 0.5887(15) 0.6460(14) 0.2720(12)
C113 C 0.5271(15) 0.5893(13) 0.2974(13)
O10 O 0.6630(14) 0.5173(12) 0.3539(14)
C114 C 0.720(2) 0.5236(17) 0.4042(15)
O11 O 0.8820(14) 0.5166(13) 0.3766(11)
C115 C 0.8159(17) 0.4775(14) 0.3465(14)
O12 O 0.3885(11) 0.4073(10) 0.3814(10)
C116 C 0.4120(13) 0.4478(12) 0.3149(11)
C117? C 0.1708(13) 0.3016(16) 0.4459(13)
C118? C 0.1053(12) 0.3262(13) 0.4998(10)
H57? H 0.107291 0.312205 0.549428
C119? C 0.0368(11) 0.3705(14) 0.4841(10)
H58? H -0.007026 0.388389 0.522574
C120? C 0.0322(13) 0.3889(14) 0.4123(11)
H59? H -0.015996 0.418060 0.400551
C121? C 0.0971(16) 0.3650(15) 0.3581(10)
H60? H 0.094051 0.378220 0.308463
C122? C 0.1671(17) 0.322(2) 0.3740(12)
H61? H 0.212479 0.306595 0.335710
C123? C 0.6878(12) 0.2125(14) 0.5535(15)
O13? O 0.532(4) 0.366(2) 0.508(3)
C124? C 0.543(5) 0.416(3) 0.564(3)
C125? C 0.1161(14) 0.6397(11) 0.7835(13)
C126? C 0.1823(19) 0.6414(11) 0.8174(16)
O14? O 0.3118(14) 0.6577(16) 0.8577(13)
C127? C 0.3197(14) 0.6049(13) 0.8014(12)
O15? O 0.473(3) 0.4975(19) 0.1438(18)
C128? C 0.441(3) 0.495(2) 0.222(2)
O16? O 0.629(3) 0.556(2) 0.283(2)
C129? C 0.696(4) 0.599(3) 0.304(4)
O17? O 0.7743(19) 0.6115(17) 0.3781(16)
C130? C 0.818(4) 0.560(3) 0.421(3)
O18? O 0.597(3) 0.519(3) 0.538(3)
C131? C 0.611(6) 0.507(5) 0.461(3)
O19? O 0.7207(13) 0.2750(9) 0.4221(9)
C132? C 0.7081(9) 0.2823(7) 0.4984(8)
O20? O 0.703(3) 0.417(3) 0.508(2)
C133? C 0.615(4) 0.405(4) 0.504(4)
O21? O 0.793(3) 0.282(2) 0.445(2)
C134? C 0.776(3) 0.362(3) 0.450(3)
O22? O 0.5524(9) 0.4550(7) 0.2176(10)
C135? C 0.5327(16) 0.4708(12) 0.1459(11)
O23? O 0.556(2) 0.388(2) 0.2951(19)
C136? C 0.590(3) 0.462(3) 0.282(4)
loop_
_geom_bond_atom_site_label_1
_geom_bond_atom_site_label_2
_geom_bond_site_symmetry_1
_geom_bond_site_symmetry_2
Mg1 N1 1_555 1_555
N1 C1 1_555 1_555
N2 Mg1 1_555 1_555
N3 Mg1 1_555 1_555
N4 Mg1 1_555 1_555
C1 C2 1_555 1_555
C2 H1 1_555 1_555
C3 N1 1_555 1_555
C4 C2 1_555 1_555
H2 C4 1_555 1_555
C5 N2 1_555 1_555
C6 C5 1_555 1_555
H3 C6 1_555 1_555
C7 N2 1_555 1_555
C8 C6 1_555 1_555
H4 C8 1_555 1_555
C9 N3 1_555 1_555
C10 C9 1_555 1_555
H5 C10 1_555 1_555
C11 N3 1_555 1_555
C12 C10 1_555 1_555
H6 C12 1_555 1_555
C13 N4 1_555 1_555
C14 C13 1_555 1_555
H7 C14 1_555 1_555
C15 N4 1_555 1_555
C16 C14 1_555 1_555
H8 C16 1_555 1_555
C17 C1 1_555 1_555
C18 C17 1_555 1_555
C19 C18 1_555 1_555
C20 C3 1_555 1_555
C21 C20 1_555 1_555
C22 C21 1_555 1_555
C23 C7 1_555 1_555
C24 C23 1_555 1_555
C25 C24 1_555 1_555
C26 C11 1_555 1_555
C27 C26 1_555 1_555
C28 C27 1_555 1_555
C29 C19 1_555 1_555
C30 C29 1_555 1_555
H9 C30 1_555 1_555
C31 C30 1_555 1_555
H10 C31 1_555 1_555
C32 C31 1_555 1_555
H11 C32 1_555 1_555
C33 C32 1_555 1_555
H12 C33 1_555 1_555
C34 C29 1_555 1_555
H13 C34 1_555 1_555
C35 C22 1_555 1_555
C36 C35 1_555 1_555
H14 C36 1_555 1_555
C37 C36 1_555 1_555
H15 C37 1_555 1_555
C38 C37 1_555 1_555
H16 C38 1_555 1_555
C39 C38 1_555 1_555
H17 C39 1_555 1_555
C40 C35 1_555 1_555
H18 C40 1_555 1_555
C41 C25 1_555 1_555
C42 C41 1_555 1_555
H19 C42 1_555 1_555
C43 C42 1_555 1_555
H20 C43 1_555 1_555
C44 C43 1_555 1_555
H21 C44 1_555 1_555
C45 C44 1_555 1_555
H22 C45 1_555 1_555
C46 C41 1_555 1_555
H23 C46 1_555 1_555
C47 C28 1_555 1_555
C48 C47 1_555 1_555
H24 C48 1_555 1_555
C49 C48 1_555 1_555
H25 C49 1_555 1_555
C50 C49 1_555 1_555
H26 C50 1_555 1_555
C51 C50 1_555 1_555
H27 C51 1_555 1_555
C52 C47 1_555 1_555
H28 C52 1_555 1_555
O1 C53 1_555 1_555
O2 C54 1_555 1_555
O3 C55 1_555 1_555
Mg2 N5 1_555 1_555
N5 C56 1_555 1_555
N6 Mg2 1_555 1_555
N7 Mg2 1_555 1_555
N8 Mg2 1_555 1_555
C56 C57 1_555 1_555
C57 H29 1_555 1_555
C58 N5 1_555 1_555
C59 C57 1_555 1_555
H30 C59 1_555 1_555
C60 N6 1_555 1_555
C61 C60 1_555 1_555
H31 C61 1_555 1_555
C62 N6 1_555 1_555
C63 C61 1_555 1_555
H32 C63 1_555 1_555
C64 N7 1_555 1_555
C65 C64 1_555 1_555
H33 C65 1_555 1_555
C66 N7 1_555 1_555
C67 C65 1_555 1_555
H34 C67 1_555 1_555
C68 N8 1_555 1_555
C69 C68 1_555 1_555
H35 C69 1_555 1_555
C70 N8 1_555 1_555
C71 C69 1_555 1_555
H36 C71 1_555 1_555
C72 C56 1_555 1_555
C73 C72 1_555 1_555
C74 C73 1_555 1_555
C75 C58 1_555 1_555
C76 C75 1_555 1_555
C77 C76 1_555 1_555
C78 C62 1_555 1_555
C79 C78 1_555 1_555
C80 C79 1_555 1_555
C81 C66 1_555 1_555
C82 C81 1_555 1_555
C83 C82 1_555 1_555
C84 C74 1_555 1_555
C85 C84 1_555 1_555
H37 C85 1_555 1_555
C86 C85 1_555 1_555
H38 C86 1_555 1_555
C87 C86 1_555 1_555
H39 C87 1_555 1_555
C88 C87 1_555 1_555
H40 C88 1_555 1_555
C89 C84 1_555 1_555
H41 C89 1_555 1_555
C90 C77 1_555 1_555
C91 C90 1_555 1_555
H42 C91 1_555 1_555
C92 C91 1_555 1_555
H43 C92 1_555 1_555
C93 C92 1_555 1_555
H44 C93 1_555 1_555
C94 C93 1_555 1_555
H45 C94 1_555 1_555
C95 C90 1_555 1_555
H46 C95 1_555 1_555
C96 C80 1_555 1_555
C97 C96 1_555 1_555
H47 C97 1_555 1_555
C98 C97 1_555 1_555
H48 C98 1_555 1_555
C99 C98 1_555 1_555
H49 C99 1_555 1_555
C100 C99 1_555 1_555
H50 C100 1_555 1_555
C101 C96 1_555 1_555
H51 C101 1_555 1_555
C102 C83 1_555 1_555
C103 C102 1_555 1_555
H52 C103 1_555 1_555
C104 C103 1_555 1_555
H53 C104 1_555 1_555
C105 C104 1_555 1_555
H54 C105 1_555 1_555
C106 C105 1_555 1_555
H55 C106 1_555 1_555
C107 C102 1_555 1_555
H56 C107 1_555 1_555
O4 C108 1_555 1_555
O5 C109 1_555 1_555
O6 C110 1_555 1_555
O7 C111 1_555 1_555
O8 C112 1_555 1_555
O9 C113 1_555 1_555
O10 C114 1_555 1_555
O11 C115 1_555 1_555
O12 C116 1_555 1_555
C3 C4 1_555 1_555
C5 C20 1_555 1_555
C7 C8 1_555 1_555
C9 C23 1_555 1_555
C11 C12 1_555 1_555
C13 C26 1_555 1_555
C15 C16 1_555 1_555
C15 C17 1_555 1_555
C33 C34 1_555 1_555
C39 C40 1_555 1_555
C45 C46 1_555 1_555
C51 C52 1_555 1_555
C58 C59 1_555 1_555
C60 C75 1_555 1_555
C62 C63 1_555 1_555
C64 C78 1_555 1_555
C66 C67 1_555 1_555
C68 C81 1_555 1_555
C70 C71 1_555 1_555
C70 C72 1_555 1_555
C88 C89 1_555 1_555
C94 C95 1_555 1_555
C100 C101 1_555 1_555
C106 C107 1_555 1_555

#END
