
#######################################################################
#
#                 Cambridge Crystallographic Data Centre
#                                CCDC 
#
#######################################################################
#
# If this CIF has been generated from an entry in the Cambridge 
# Structural Database, then it will include bibliographic, chemical, 
# crystal, experimental, refinement or atomic coordinate data resulting 
# from the CCDC's data processing and validation procedures.
#
#######################################################################

data_GIMGAN
_chemical_formula_moiety         'C52 H28 Mg1 N4,2(C5 H5 N1)'
_chemical_name_systematic        
'[5,10,15,20-tetrakis(phenylethynyl)porphyrinato]-magnesium(ii) pyridine solvate'
_symmetry_cell_setting           triclinic
_symmetry_space_group_name_H-M   'P -1'
_symmetry_Int_Tables_number      2
_space_group_name_Hall           '-P 1'
loop_
_symmetry_equiv_pos_site_id
_symmetry_equiv_pos_as_xyz
1 x,y,z
2 -x,-y,-z
_cell_length_a                   9.8040(2)
_cell_length_b                   13.6780(3)
_cell_length_c                   19.7347(4)
_cell_angle_alpha                71.573(5)
_cell_angle_beta                 86.424(6)
_cell_angle_gamma                69.299(5)
_cell_volume                     2344.98
_exptl_crystal_colour            green
_exptl_crystal_description       plate
_cell_formula_units_Z            2
loop_
_atom_site_label
_atom_site_type_symbol
_atom_site_fract_x
_atom_site_fract_y
_atom_site_fract_z
Mg1 Mg 0.5000 0.5000 0.5000
N1 N 0.6026(3) 0.3334(2) 0.55112(15)
N2 N 0.4374(3) 0.4678(2) 0.41398(15)
C1 C 0.6198(4) 0.2508(3) 0.52230(18)
C2 C 0.6308(4) 0.0878(3) 0.41509(17)
C3 C 0.4783(4) 0.3667(3) 0.40440(18)
C4 C 0.5619(4) 0.2656(3) 0.45472(18)
C5 C 0.5965(4) 0.1685(3) 0.43330(18)
C6 C 0.7097(4) 0.1464(3) 0.57137(18)
H1 H 0.7374 0.0763 0.5647
C7 C 0.6847(4) -0.0101(3) 0.39413(17)
C8 C 0.3621(4) 0.5429(3) 0.35240(18)
C9 C 0.6960(4) 0.3420(3) 0.66128(18)
C10 C 0.7468(4) 0.1680(3) 0.62846(19)
H2 H 0.8057 0.1159 0.6696
C11 C 0.6800(4) 0.2852(3) 0.61497(18)
C12 C 0.7821(4) 0.2773(3) 0.72666(19)
C13 C 0.4254(4) 0.3785(3) 0.33479(19)
H3 H 0.4384 0.3208 0.3153
C14 C 0.9553(4) 0.1598(3) 0.84226(19)
C15 C 0.8593(4) 0.2236(3) 0.78014(19)
C16 C 0.3537(4) 0.4870(3) 0.30252(19)
H4 H 0.3068 0.5202 0.2560
C17 C 0.8040(4) -0.0257(3) 0.3512(2)
H5 H 0.8462 0.0297 0.3342
C18 C 1.0100(4) 0.0451(3) 0.86247(19)
H6 H 0.9806 0.0084 0.8357
C19 C 0.6247(4) -0.0922(3) 0.4185(2)
H7 H 0.5427 -0.0823 0.4473
C20 C 1.1067(4) -0.0152(3) 0.9212(2)
H8 H 1.1446 -0.0933 0.9343
C21 C 0.8609(5) -0.1217(4) 0.3332(2)
H9 H 0.9416 -0.1318 0.3036
C22 C 0.8010(5) -0.2029(3) 0.3582(2)
H10 H 0.8408 -0.2689 0.3459
C23 C 0.6842(5) -0.1888(3) 0.4008(2)
H11 H 0.6438 -0.2452 0.4182
C24 C 1.1488(4) 0.0370(4) 0.9611(2)
H12 H 1.2153 -0.0050 1.0015
C25 C 0.9967(5) 0.2119(3) 0.8834(2)
H13 H 0.9582 0.2899 0.8711
C26 C 1.0941(5) 0.1499(4) 0.9420(2)
H14 H 1.1235 0.1857 0.9694
N1A N 0.3974(3) 0.6666(2) 0.44888(15)
N2A N 0.5626(3) 0.5322(2) 0.58602(15)
C1A C 0.3802(4) 0.7492(3) 0.47770(18)
C2A C 0.3692(4) 0.9122(3) 0.58491(17)
C3A C 0.5217(4) 0.6333(3) 0.59560(18)
C4A C 0.4381(4) 0.7344(3) 0.54528(18)
C5A C 0.4035(4) 0.8315(3) 0.56670(18)
C6A C 0.2903(4) 0.8536(3) 0.42863(18)
H1A H 0.2626 0.9237 0.4353
C7A C 0.3153(4) 1.0101(3) 0.60587(17)
C8A C 0.6379(4) 0.4571(3) 0.64760(18)
C9A C 0.3040(4) 0.6580(3) 0.33872(18)
C10A C 0.2532(4) 0.8320(3) 0.37154(19)
H2A H 0.1943 0.8841 0.3304
C11A C 0.3200(4) 0.7148(3) 0.38503(18)
C12A C 0.2179(4) 0.7227(3) 0.27334(19)
C13A C 0.5746(4) 0.6215(3) 0.66521(19)
H3A H 0.5616 0.6792 0.6847
C14A C 0.0447(4) 0.8402(3) 0.15774(19)
C15A C 0.1407(4) 0.7764(3) 0.21986(19)
C16A C 0.6463(4) 0.5130(3) 0.69748(19)
H4A H 0.6932 0.4798 0.7440
C17A C 0.1960(4) 1.0257(3) 0.6488(2)
H5A H 0.1538 0.9703 0.6658
C18A C -0.0100(4) 0.9549(3) 0.13753(19)
H6A H 0.0194 0.9916 0.1643
C19A C 0.3753(4) 1.0922(3) 0.5815(2)
H7A H 0.4573 1.0823 0.5527
C20A C -0.1067(4) 1.0152(3) 0.0788(2)
H8A H -0.1446 1.0933 0.0657
C21A C 0.1391(5) 1.1217(4) 0.6668(2)
H9A H 0.0584 1.1318 0.6964
C22A C 0.1990(5) 1.2029(3) 0.6418(2)
H10A H 0.1592 1.2689 0.6541
C23A C 0.3158(5) 1.1888(3) 0.5992(2)
H11A H 0.3562 1.2452 0.5818
C24A C -0.1488(4) 0.9630(4) 0.0389(2)
H12A H -0.2153 1.0050 -0.0015
C25A C 0.0033(5) 0.7881(3) 0.1166(2)
H13A H 0.0418 0.7101 0.1289
C26A C -0.0941(5) 0.8501(4) 0.0580(2)
H14A H -0.1235 0.8143 0.0306
C27 C 0.8468(5) 0.4454(5) 0.4757(3)
H15 H 0.8470 0.4198 0.5264
C28 C 0.7262(6) 0.5384(4) 0.3707(3)
H16 H 0.6357 0.5792 0.3437
C29 C 0.9967(7) 0.4723(5) 0.3695(3)
H17 H 1.0848 0.4715 0.3463
C30 C 0.8521(8) 0.5239(5) 0.3362(3)
H18 H 0.8439 0.5502 0.2854
C31 C 0.9842(7) 0.4217(5) 0.4453(4)
H19 H 1.0692 0.3722 0.4747
N3 N 0.7260(5) 0.4962(3) 0.4428(2)
Mg2 Mg 0.5000 0.5000 0.0000
N4 N 0.7094(3) 0.4791(2) -0.03247(15)
N5 N 0.5824(3) 0.3680(2) 0.09157(15)
C32 C 0.8359(4) 0.4033(3) 0.00384(18)
C33 C 0.7487(4) 0.5424(3) -0.09352(17)
C34 C 0.7254(4) 0.3060(3) 0.11076(18)
C35 C 0.9886(4) 0.2482(3) 0.09868(18)
C36 C 0.2838(4) 0.3152(3) 0.20681(17)
C37 C 0.5034(4) 0.3267(3) 0.14536(17)
C38 C 0.1345(4) 0.2357(3) 0.31142(18)
C39 C 0.6004(4) 0.2347(3) 0.20011(18)
H20 H 0.5729 0.1916 0.2429
C40 C 0.9050(4) 0.5054(3) -0.09594(18)
H21 H 0.9596 0.5356 -0.1327
C41 C 1.1121(4) 0.1885(3) 0.11931(18)
C42 C 0.9598(4) 0.4190(3) -0.03571(18)
H22 H 1.0599 0.3770 -0.0222
C43 C 0.8452(4) 0.3211(3) 0.07042(18)
C44 C 0.2204(4) 0.2763(3) 0.25554(18)
C45 C 0.3496(4) 0.3683(3) 0.14645(17)
C46 C 0.7379(4) 0.2215(3) 0.17895(18)
H23 H 0.8255 0.1673 0.2039
C47 C 1.2614(4) 0.1218(3) 0.13959(19)
C48 C -0.0405(4) 0.1662(3) 0.4185(2)
H24 H -0.1000 0.1423 0.4551
C49 C 0.1039(4) 0.1447(3) 0.43442(19)
H25 H 0.1434 0.1062 0.4822
C50 C 0.1929(4) 0.1789(3) 0.38119(19)
H26 H 0.2927 0.1635 0.3925
C51 C -0.0123(4) 0.2574(3) 0.29547(19)
H27 H -0.0524 0.2958 0.2478
C52 C -0.0996(4) 0.2230(3) 0.3488(2)
H28 H -0.1994 0.2382 0.3378
C53 C 1.3690(4) 0.1376(3) 0.0925(2)
H29 H 1.3424 0.1907 0.0463
C54 C 1.3025(5) 0.0435(3) 0.2071(2)
H30 H 1.2300 0.0319 0.2397
C55 C 1.4488(5) -0.0173(4) 0.2268(2)
H31 H 1.4762 -0.0702 0.2729
C56 C 1.5542(5) -0.0015(4) 0.1797(3)
H32 H 1.6543 -0.0437 0.1932
C57 C 1.5140(5) 0.0764(4) 0.1125(3)
H33 H 1.5870 0.0877 0.0801
N4A N 0.2906(3) 0.5209(2) 0.03247(15)
N5A N 0.4176(3) 0.6320(2) -0.09157(15)
C32A C 0.1641(4) 0.5967(3) -0.00384(18)
C33A C 0.2513(4) 0.4576(3) 0.09352(17)
C34A C 0.2746(4) 0.6940(3) -0.11076(18)
C35A C 0.0114(4) 0.7518(3) -0.09868(18)
C36A C 0.7162(4) 0.6848(3) -0.20681(17)
C37A C 0.4966(4) 0.6733(3) -0.14536(17)
C38A C 0.8655(4) 0.7643(3) -0.31142(18)
C39A C 0.3996(4) 0.7653(3) -0.20011(18)
H20A H 0.4271 0.8084 -0.2429
C40A C 0.0950(4) 0.4946(3) 0.09594(18)
H21A H 0.0404 0.4644 0.1327
C41A C -0.1121(4) 0.8115(3) -0.11931(18)
C42A C 0.0402(4) 0.5810(3) 0.03571(18)
H22A H -0.0599 0.6230 0.0222
C43A C 0.1548(4) 0.6789(3) -0.07042(18)
C44A C 0.7796(4) 0.7237(3) -0.25554(18)
C45A C 0.6504(4) 0.6317(3) -0.14645(17)
C46A C 0.2621(4) 0.7785(3) -0.17895(18)
H23A H 0.1745 0.8327 -0.2039
C47A C -0.2614(4) 0.8782(3) -0.13959(19)
C48A C 1.0405(4) 0.8338(3) -0.4185(2)
H24A H 1.1000 0.8577 -0.4551
C49A C 0.8961(4) 0.8553(3) -0.43442(19)
H25A H 0.8566 0.8938 -0.4822
C50A C 0.8071(4) 0.8211(3) -0.38119(19)
H26A H 0.7073 0.8365 -0.3925
C51A C 1.0123(4) 0.7426(3) -0.29547(19)
H27A H 1.0524 0.7042 -0.2478
C52A C 1.0996(4) 0.7770(3) -0.3488(2)
H28A H 1.1994 0.7618 -0.3378
C53A C -0.3690(4) 0.8624(3) -0.0925(2)
H29A H -0.3424 0.8093 -0.0463
C54A C -0.3025(5) 0.9565(3) -0.2071(2)
H30A H -0.2300 0.9681 -0.2397
C55A C -0.4488(5) 1.0173(4) -0.2268(2)
H31A H -0.4762 1.0702 -0.2729
C56A C -0.5542(5) 1.0015(4) -0.1797(3)
H32A H -0.6543 1.0437 -0.1932
C57A C -0.5140(5) 0.9236(4) -0.1125(3)
H33A H -0.5870 0.9123 -0.0801
C58 C 0.4169(4) 0.6994(3) 0.0684(2)
H34 H 0.3242 0.7111 0.0489
C59 C 0.5584(6) 0.7604(4) 0.1410(4)
H35 H 0.5660 0.8027 0.1696
C60 C 0.6620(6) 0.5970(5) 0.0962(5)
H36 H 0.7406 0.5308 0.0983
C61 C 0.4271(8) 0.7729(5) 0.1046(3)
H37 H 0.3417 0.8339 0.1046
C62 C 0.6786(7) 0.6699(6) 0.1255(3)
H38 H 0.7754 0.6619 0.1370
N6 N 0.5224(5) 0.6223(4) 0.0618(2)
loop_
_geom_bond_atom_site_label_1
_geom_bond_atom_site_label_2
_geom_bond_site_symmetry_1
_geom_bond_site_symmetry_2
Mg1 N1 1_555 1_555
N1 C1 1_555 1_555
N2 Mg1 1_555 1_555
C1 C4 1_555 1_555
C2 C5 1_555 1_555
C3 N2 1_555 1_555
C4 C3 1_555 1_555
C5 C4 1_555 1_555
C6 C1 1_555 1_555
H1 C6 1_555 1_555
C7 C2 1_555 1_555
C8 N2 1_555 1_555
C9 C11 1_555 1_555
C10 C6 1_555 1_555
H2 C10 1_555 1_555
C11 N1 1_555 1_555
C12 C9 1_555 1_555
C13 C3 1_555 1_555
H3 C13 1_555 1_555
C14 C15 1_555 1_555
C15 C12 1_555 1_555
C16 C8 1_555 1_555
H4 C16 1_555 1_555
C17 C7 1_555 1_555
H5 C17 1_555 1_555
C18 C14 1_555 1_555
H6 C18 1_555 1_555
C19 C7 1_555 1_555
H7 C19 1_555 1_555
C20 C18 1_555 1_555
H8 C20 1_555 1_555
C21 C17 1_555 1_555
H9 C21 1_555 1_555
C22 C21 1_555 1_555
H10 C22 1_555 1_555
C23 C19 1_555 1_555
H11 C23 1_555 1_555
C24 C20 1_555 1_555
H12 C24 1_555 1_555
C25 C14 1_555 1_555
H13 C25 1_555 1_555
C26 C24 1_555 1_555
H14 C26 1_555 1_555
C27 H15 1_555 1_555
C28 H16 1_555 1_555
C29 H17 1_555 1_555
C30 C28 1_555 1_555
H18 C30 1_555 1_555
C31 C27 1_555 1_555
H19 C31 1_555 1_555
N3 C27 1_555 1_555
Mg2 N4 1_555 1_555
N4 C32 1_555 1_555
N5 Mg2 1_555 1_555
C32 C42 1_555 1_555
C33 N4 1_555 1_555
C34 N5 1_555 1_555
C35 C41 1_555 1_555
C36 C44 1_555 1_555
C37 N5 1_555 1_555
C38 C44 1_555 1_555
C39 C37 1_555 1_555
H20 C39 1_555 1_555
C40 C33 1_555 1_555
H21 C40 1_555 1_555
C41 C47 1_555 1_555
C42 C40 1_555 1_555
H22 C42 1_555 1_555
C43 C32 1_555 1_555
C45 C36 1_555 1_555
C46 C34 1_555 1_555
H23 C46 1_555 1_555
C47 C53 1_555 1_555
C48 H24 1_555 1_555
C49 C48 1_555 1_555
H25 C49 1_555 1_555
C50 C38 1_555 1_555
H26 C50 1_555 1_555
C51 C38 1_555 1_555
H27 C51 1_555 1_555
C52 C48 1_555 1_555
H28 C52 1_555 1_555
C53 H29 1_555 1_555
C54 C47 1_555 1_555
H30 C54 1_555 1_555
C55 C54 1_555 1_555
H31 C55 1_555 1_555
C56 C55 1_555 1_555
H32 C56 1_555 1_555
C57 C53 1_555 1_555
H33 C57 1_555 1_555
C58 H34 1_555 1_555
C59 H35 1_555 1_555
C60 H36 1_555 1_555
C61 C58 1_555 1_555
H37 C61 1_555 1_555
C62 C59 1_555 1_555
H38 C62 1_555 1_555
N6 C58 1_555 1_555
N1A Mg1 1_555 1_555
N2A Mg1 1_555 1_555
C1A N1A 1_555 1_555
C2A C5A 1_555 1_555
C3A N2A 1_555 1_555
C4A C1A 1_555 1_555
C5A C4A 1_555 1_555
C6A C1A 1_555 1_555
H1A C6A 1_555 1_555
C7A C2A 1_555 1_555
C8A C9 1_555 1_555
C9A C8 1_555 1_555
C10A C6A 1_555 1_555
H2A C10A 1_555 1_555
C11A N1A 1_555 1_555
C12A C9A 1_555 1_555
C13A C3A 1_555 1_555
H3A C13A 1_555 1_555
C14A C15A 1_555 1_555
C15A C12A 1_555 1_555
C16A C8A 1_555 1_555
H4A C16A 1_555 1_555
C17A C7A 1_555 1_555
H5A C17A 1_555 1_555
C18A C14A 1_555 1_555
H6A C18A 1_555 1_555
C19A C7A 1_555 1_555
H7A C19A 1_555 1_555
C20A C18A 1_555 1_555
H8A C20A 1_555 1_555
C21A C17A 1_555 1_555
H9A C21A 1_555 1_555
C22A C21A 1_555 1_555
H10A C22A 1_555 1_555
C23A C19A 1_555 1_555
H11A C23A 1_555 1_555
C24A C20A 1_555 1_555
H12A C24A 1_555 1_555
C25A C14A 1_555 1_555
H13A C25A 1_555 1_555
C26A C24A 1_555 1_555
H14A C26A 1_555 1_555
N4A Mg2 1_555 1_555
N5A Mg2 1_555 1_555
C32A N4A 1_555 1_555
C33A C45 1_555 1_555
C34A N5A 1_555 1_555
C35A C41A 1_555 1_555
C36A C44A 1_555 1_555
C37A N5A 1_555 1_555
C38A C44A 1_555 1_555
C39A C37A 1_555 1_555
H20A C39A 1_555 1_555
C40A C33A 1_555 1_555
H21A C40A 1_555 1_555
C41A C47A 1_555 1_555
C42A C32A 1_555 1_555
H22A C42A 1_555 1_555
C43A C32A 1_555 1_555
C45A C33 1_555 1_555
C46A C34A 1_555 1_555
H23A C46A 1_555 1_555
C47A C53A 1_555 1_555
C48A H24A 1_555 1_555
C49A C48A 1_555 1_555
H25A C49A 1_555 1_555
C50A C38A 1_555 1_555
H26A C50A 1_555 1_555
C51A C38A 1_555 1_555
H27A C51A 1_555 1_555
C52A C48A 1_555 1_555
H28A C52A 1_555 1_555
C53A H29A 1_555 1_555
C54A C47A 1_555 1_555
H30A C54A 1_555 1_555
C55A C54A 1_555 1_555
H31A C55A 1_555 1_555
C56A C55A 1_555 1_555
H32A C56A 1_555 1_555
C57A C53A 1_555 1_555
H33A C57A 1_555 1_555
C10 C11 1_555 1_555
C13 C16 1_555 1_555
C22 C23 1_555 1_555
C25 C26 1_555 1_555
C28 N3 1_555 1_555
C29 C30 1_555 1_555
C29 C31 1_555 1_555
C34 C43 1_555 1_555
C35 C43 1_555 1_555
C37 C45 1_555 1_555
C39 C46 1_555 1_555
C49 C50 1_555 1_555
C51 C52 1_555 1_555
C56 C57 1_555 1_555
C59 C61 1_555 1_555
C60 C62 1_555 1_555
C60 N6 1_555 1_555
N2A C8A 1_555 1_555
C3A C4A 1_555 1_555
C9A C11A 1_555 1_555
C10A C11A 1_555 1_555
C13A C16A 1_555 1_555
C22A C23A 1_555 1_555
C25A C26A 1_555 1_555
N4A C33A 1_555 1_555
C34A C43A 1_555 1_555
C35A C43A 1_555 1_555
C36A C45A 1_555 1_555
C37A C45A 1_555 1_555
C39A C46A 1_555 1_555
C40A C42A 1_555 1_555
C49A C50A 1_555 1_555
C51A C52A 1_555 1_555
C56A C57A 1_555 1_555

#END
