
#######################################################################
#
#                 Cambridge Crystallographic Data Centre
#                                CCDC 
#
#######################################################################
#
# If this CIF has been generated from an entry in the Cambridge 
# Structural Database, then it will include bibliographic, chemical, 
# crystal, experimental, refinement or atomic coordinate data resulting 
# from the CCDC's data processing and validation procedures.
#
#######################################################################

data_GIMJUK
_chemical_formula_moiety         'C16 H33 N1 O4'
_chemical_name_systematic        
N-[1,3-dihydroxy-2-(hydroxymethyl)propan-2-yl]dodecanamide
_symmetry_cell_setting           monoclinic
_symmetry_space_group_name_H-M   'P 21/c'
_symmetry_Int_Tables_number      14
_space_group_name_Hall           '-P 2ybc'
loop_
_symmetry_equiv_pos_site_id
_symmetry_equiv_pos_as_xyz
1 x,y,z
2 -x,1/2+y,1/2-z
3 -x,-y,-z
4 x,1/2-y,1/2+z
_cell_length_a                   23.076(5)
_cell_length_b                   8.6760(17)
_cell_length_c                   9.0510(18)
_cell_angle_alpha                90
_cell_angle_beta                 91.41(3)
_cell_angle_gamma                90
_cell_volume                     1811.53
_exptl_crystal_colour            colorless
_exptl_crystal_description       plate
_cell_formula_units_Z            4
loop_
_atom_site_label
_atom_site_type_symbol
_atom_site_fract_x
_atom_site_fract_y
_atom_site_fract_z
O1 O 0.07089(7) 0.4992(2) 1.00883(16)
H1 H 0.094801 0.431710 1.027915
O2 O -0.01729(5) 0.43478(18) 0.73657(15)
H2 H -0.027091 0.447925 0.822123
O3 O 0.09994(9) 0.4934(3) 0.47802(17)
H3 H 0.075497 0.512426 0.413283
O4 O 0.16308(6) 0.33300(17) 0.97584(14)
N1 N 0.14102(6) 0.37530(17) 0.73338(15)
H4 H 0.153722 0.359686 0.646110
C1 C 0.08812(6) 0.47046(19) 0.74141(18)
C2 C 0.08592(8) 0.5752(2) 0.8772(2)
H5 H 0.123587 0.623157 0.892165
H6 H 0.058001 0.656688 0.857431
C3 C 0.03692(7) 0.3585(2) 0.7359(2)
H7 H 0.039038 0.296176 0.647275
H8 H 0.039783 0.289939 0.820415
C4 C 0.08710(9) 0.5760(3) 0.6063(2)
H9 H 0.049070 0.622712 0.594693
H10 H 0.115257 0.657947 0.620909
C5 C 0.17163(7) 0.31050(19) 0.84343(18)
C6 C 0.22156(7) 0.2089(2) 0.7988(2)
H11 H 0.230092 0.135283 0.877050
H12 H 0.210442 0.151527 0.710577
C7 C 0.27535(9) 0.3026(3) 0.7691(3)
H13 H 0.267050 0.372104 0.687326
H14 H 0.284624 0.364959 0.855435
C8 C 0.32768(8) 0.2061(3) 0.7328(3)
H15 H 0.336413 0.138318 0.815650
H16 H 0.317943 0.141751 0.648112
C9 C 0.38126(10) 0.2976(3) 0.6993(4)
H17 H 0.372438 0.364683 0.615944
H18 H 0.390528 0.362881 0.783600
C10 C 0.43405(9) 0.2043(3) 0.6644(3)
H19 H 0.442845 0.137141 0.747595
H20 H 0.424833 0.139290 0.579870
C11 C 0.48730(10) 0.2959(3) 0.6314(4)
H21 H 0.496186 0.361627 0.715617
H22 H 0.478472 0.362499 0.547787
C12 C 0.54066(9) 0.2041(3) 0.5975(3)
H23 H 0.549483 0.137056 0.680770
H24 H 0.531985 0.138922 0.512723
C13 C 0.59364(10) 0.2972(3) 0.5657(4)
H25 H 0.584823 0.362885 0.481374
H26 H 0.601621 0.363962 0.649680
C14 C 0.64767(10) 0.2090(3) 0.5343(4)
H27 H 0.656153 0.141635 0.617632
H28 H 0.640092 0.143986 0.448815
C15 C 0.70029(12) 0.3033(4) 0.5061(5)
H29 H 0.692080 0.368598 0.421163
H30 H 0.707132 0.370431 0.590466
C16 C 0.75450(14) 0.2169(6) 0.4789(7)
H31 H 0.750516 0.161386 0.387480
H32 H 0.761762 0.145641 0.558333
H33 H 0.786291 0.287889 0.473275
loop_
_geom_bond_atom_site_label_1
_geom_bond_atom_site_label_2
_geom_bond_site_symmetry_1
_geom_bond_site_symmetry_2
O1 H1 1_555 1_555
O2 H2 1_555 1_555
O3 H3 1_555 1_555
O4 C5 1_555 1_555
N1 H4 1_555 1_555
C1 N1 1_555 1_555
C2 O1 1_555 1_555
H5 C2 1_555 1_555
H6 C2 1_555 1_555
C3 O2 1_555 1_555
H7 C3 1_555 1_555
H8 C3 1_555 1_555
C4 O3 1_555 1_555
H9 C4 1_555 1_555
H10 C4 1_555 1_555
C5 N1 1_555 1_555
C6 C5 1_555 1_555
H11 C6 1_555 1_555
H12 C6 1_555 1_555
C7 C6 1_555 1_555
H13 C7 1_555 1_555
H14 C7 1_555 1_555
C8 C7 1_555 1_555
H15 C8 1_555 1_555
H16 C8 1_555 1_555
C9 C8 1_555 1_555
H17 C9 1_555 1_555
H18 C9 1_555 1_555
C10 C9 1_555 1_555
H19 C10 1_555 1_555
H20 C10 1_555 1_555
C11 C10 1_555 1_555
H21 C11 1_555 1_555
H22 C11 1_555 1_555
C12 C11 1_555 1_555
H23 C12 1_555 1_555
H24 C12 1_555 1_555
C13 C12 1_555 1_555
H25 C13 1_555 1_555
H26 C13 1_555 1_555
C14 C13 1_555 1_555
H27 C14 1_555 1_555
H28 C14 1_555 1_555
C15 C14 1_555 1_555
H29 C15 1_555 1_555
H30 C15 1_555 1_555
C16 C15 1_555 1_555
H31 C16 1_555 1_555
H32 C16 1_555 1_555
H33 C16 1_555 1_555
C1 C2 1_555 1_555
C1 C3 1_555 1_555
C1 C4 1_555 1_555

#END
