
#######################################################################
#
#                 Cambridge Crystallographic Data Centre
#                                CCDC 
#
#######################################################################
#
# If this CIF has been generated from an entry in the Cambridge 
# Structural Database, then it will include bibliographic, chemical, 
# crystal, experimental, refinement or atomic coordinate data resulting 
# from the CCDC's data processing and validation procedures.
#
#######################################################################

data_GIMJOE
_chemical_formula_moiety         'C14 H29 N1 O4'
_chemical_name_systematic        
N-[1,3-dihydroxy-2-(hydroxymethyl)propan-2-yl]decanamide
_symmetry_cell_setting           monoclinic
_symmetry_space_group_name_H-M   'P 21/c'
_symmetry_Int_Tables_number      14
_space_group_name_Hall           '-P 2ybc'
loop_
_symmetry_equiv_pos_site_id
_symmetry_equiv_pos_as_xyz
1 x,y,z
2 -x,1/2+y,1/2-z
3 -x,-y,-z
4 x,1/2-y,1/2+z
_cell_length_a                   20.667(4)
_cell_length_b                   8.6810(17)
_cell_length_c                   9.0510(18)
_cell_angle_alpha                90
_cell_angle_beta                 91.06(3)
_cell_angle_gamma                90
_cell_volume                     1623.56
_exptl_crystal_colour            colorless
_exptl_crystal_description       plate
_cell_formula_units_Z            4
loop_
_atom_site_label
_atom_site_type_symbol
_atom_site_fract_x
_atom_site_fract_y
_atom_site_fract_z
O1 O 0.07946(6) 0.50027(15) -0.00073(12)
H1 H 0.107101 0.435710 -0.019355
O2 O -0.01921(5) 0.43440(14) 0.26112(11)
H2 H -0.031361 0.442098 0.174678
O3 O 0.11135(8) 0.4926(2) 0.53348(13)
H3 H 0.083041 0.508089 0.594030
O4 O 0.18204(5) 0.33307(12) 0.04214(11)
N1 N 0.15739(5) 0.37508(13) 0.28223(12)
H4 H 0.171451 0.359308 0.370963
C1 C 0.09835(6) 0.47001(14) 0.26813(14)
C2 C 0.09599(7) 0.57526(16) 0.13261(16)
H5 H 0.064760 0.656499 0.149483
H6 H 0.138026 0.623353 0.122217
C3 C 0.04128(7) 0.35867(16) 0.26769(17)
H7 H 0.044519 0.290237 0.183426
H8 H 0.043621 0.296161 0.356458
C4 C 0.09695(8) 0.57535(19) 0.40350(16)
H9 H 0.128262 0.657549 0.392198
H10 H 0.054413 0.621641 0.410802
C5 C 0.19175(6) 0.31065(14) 0.17564(14)
C6 C 0.24750(7) 0.20915(16) 0.22494(16)
H11 H 0.255967 0.133547 0.148781
H12 H 0.235811 0.154279 0.313909
C7 C 0.30807(8) 0.30241(19) 0.2551(2)
H13 H 0.299840 0.374093 0.334802
H14 H 0.317717 0.362330 0.167781
C8 C 0.36669(7) 0.2060(2) 0.2964(2)
H15 H 0.356561 0.144012 0.382024
H16 H 0.375530 0.136219 0.215515
C9 C 0.42679(9) 0.2982(2) 0.3305(3)
H17 H 0.417985 0.366221 0.412684
H18 H 0.435944 0.362350 0.245625
C10 C 0.48653(8) 0.2055(2) 0.3683(2)
H19 H 0.477471 0.141528 0.453268
H20 H 0.495354 0.137351 0.286133
C11 C 0.54616(9) 0.2978(2) 0.4018(3)
H21 H 0.554569 0.362902 0.317160
H22 H 0.537207 0.365126 0.484438
C12 C 0.60646(9) 0.2095(2) 0.4379(3)
H23 H 0.598375 0.145556 0.523478
H24 H 0.615183 0.141055 0.355850
C13 C 0.66549(10) 0.3023(3) 0.4688(3)
H25 H 0.672540 0.368826 0.384502
H26 H 0.657094 0.368211 0.552811
C14 C 0.72624(12) 0.2166(4) 0.5000(5)
H27 H 0.736054 0.152292 0.417084
H28 H 0.721043 0.153721 0.586226
H29 H 0.760966 0.288264 0.516913
loop_
_geom_bond_atom_site_label_1
_geom_bond_atom_site_label_2
_geom_bond_site_symmetry_1
_geom_bond_site_symmetry_2
O1 H1 1_555 1_555
O2 H2 1_555 1_555
O3 H3 1_555 1_555
O4 C5 1_555 1_555
N1 H4 1_555 1_555
C1 N1 1_555 1_555
C2 O1 1_555 1_555
H5 C2 1_555 1_555
H6 C2 1_555 1_555
C3 O2 1_555 1_555
H7 C3 1_555 1_555
H8 C3 1_555 1_555
C4 O3 1_555 1_555
H9 C4 1_555 1_555
H10 C4 1_555 1_555
C5 N1 1_555 1_555
C6 C5 1_555 1_555
H11 C6 1_555 1_555
H12 C6 1_555 1_555
C7 C6 1_555 1_555
H13 C7 1_555 1_555
H14 C7 1_555 1_555
C8 C7 1_555 1_555
H15 C8 1_555 1_555
H16 C8 1_555 1_555
C9 C8 1_555 1_555
H17 C9 1_555 1_555
H18 C9 1_555 1_555
C10 C9 1_555 1_555
H19 C10 1_555 1_555
H20 C10 1_555 1_555
C11 C10 1_555 1_555
H21 C11 1_555 1_555
H22 C11 1_555 1_555
C12 C11 1_555 1_555
H23 C12 1_555 1_555
H24 C12 1_555 1_555
C13 C12 1_555 1_555
H25 C13 1_555 1_555
H26 C13 1_555 1_555
C14 C13 1_555 1_555
H27 C14 1_555 1_555
H28 C14 1_555 1_555
H29 C14 1_555 1_555
C1 C2 1_555 1_555
C1 C3 1_555 1_555
C1 C4 1_555 1_555

#END
