
#######################################################################
#
#                 Cambridge Crystallographic Data Centre
#                                CCDC 
#
#######################################################################
#
# If this CIF has been generated from an entry in the Cambridge 
# Structural Database, then it will include bibliographic, chemical, 
# crystal, experimental, refinement or atomic coordinate data resulting 
# from the CCDC's data processing and validation procedures.
#
#######################################################################

data_GIMKAR
_chemical_formula_moiety         'C18 H37 N1 O4'
_chemical_name_systematic        
N-[1,3-dihydroxy-2-(hydroxymethyl)propan-2-yl]tetradecanamide
_symmetry_cell_setting           monoclinic
_symmetry_space_group_name_H-M   'P 21/c'
_symmetry_Int_Tables_number      14
_space_group_name_Hall           '-P 2ybc'
loop_
_symmetry_equiv_pos_site_id
_symmetry_equiv_pos_as_xyz
1 x,y,z
2 -x,1/2+y,1/2-z
3 -x,-y,-z
4 x,1/2-y,1/2+z
_cell_length_a                   25.529(5)
_cell_length_b                   8.6680(17)
_cell_length_c                   9.0460(18)
_cell_angle_alpha                90
_cell_angle_beta                 93.26(3)
_cell_angle_gamma                90
_cell_volume                     1998.51
_exptl_crystal_colour            colorless
_exptl_crystal_description       plate
_cell_formula_units_Z            4
loop_
_atom_site_label
_atom_site_type_symbol
_atom_site_fract_x
_atom_site_fract_y
_atom_site_fract_z
O1 O 0.06410(3) 0.49864(11) 1.01490(8)
H1 H 0.087134 0.436535 1.040127
O2 O 0.09092(5) 0.49460(15) 0.48613(9)
H2 H 0.066531 0.502446 0.423590
O3 O -0.01560(2) 0.43521(10) 0.73494(8)
H3 H -0.023345 0.454495 0.819714
O4 O 0.14769(3) 0.33300(9) 0.98943(7)
N1 N 0.12763(3) 0.37551(9) 0.74511(8)
H4 H 0.139052 0.359948 0.658743
C1 C 0.07986(3) 0.47056(10) 0.74906(9)
C2 C 0.07776(4) 0.57518(11) 0.88478(10)
H5 H 0.111823 0.623227 0.903171
H6 H 0.052464 0.656669 0.862772
C3 C 0.07902(4) 0.57669(13) 0.61350(11)
H7 H 0.044551 0.623106 0.598472
H8 H 0.104375 0.658957 0.630897
C4 C 0.03348(3) 0.35858(11) 0.73865(11)
H9 H 0.035415 0.296579 0.649859
H10 H 0.035987 0.289515 0.823123
C5 C 0.15552(3) 0.31033(10) 0.85779(9)
C6 C 0.20075(3) 0.20895(11) 0.81728(10)
H11 H 0.208886 0.136491 0.897023
H12 H 0.190493 0.150187 0.729081
C7 C 0.24914(4) 0.30284(13) 0.78937(15)
H13 H 0.257875 0.366096 0.875731
H14 H 0.241181 0.371579 0.706509
C8 C 0.29645(4) 0.20622(13) 0.75639(14)
H15 H 0.304725 0.139020 0.840224
H16 H 0.287322 0.141216 0.671514
C9 C 0.34478(4) 0.29784(15) 0.72500(18)
H17 H 0.336437 0.364426 0.640754
H18 H 0.353543 0.363647 0.809545
C10 C 0.39239(4) 0.20411(15) 0.69330(17)
H19 H 0.400776 0.137645 0.777604
H20 H 0.383620 0.138186 0.608840
C11 C 0.44042(4) 0.29536(15) 0.66186(18)
H21 H 0.449033 0.361559 0.746220
H22 H 0.431974 0.361651 0.577460
C12 C 0.48829(4) 0.20293(15) 0.63044(18)
H23 H 0.496779 0.136612 0.714797
H24 H 0.479737 0.136805 0.545983
C13 C 0.53623(4) 0.29502(15) 0.59917(18)
H25 H 0.527696 0.360805 0.514458
H26 H 0.544485 0.361797 0.683335
C14 C 0.58454(4) 0.20437(15) 0.56866(19)
H27 H 0.592928 0.137784 0.652884
H28 H 0.576473 0.138485 0.483733
C15 C 0.63220(5) 0.29712(16) 0.5393(2)
H29 H 0.623800 0.362567 0.454230
H30 H 0.639724 0.364333 0.623550
C16 C 0.68104(5) 0.20952(16) 0.5109(2)
H31 H 0.689184 0.142738 0.595164
H32 H 0.673790 0.143738 0.425458
C17 C 0.72845(6) 0.3031(2) 0.4844(3)
H33 H 0.720637 0.367026 0.397950
H34 H 0.734795 0.371730 0.568183
C18 C 0.77759(7) 0.2179(3) 0.4616(4)
H35 H 0.773280 0.156787 0.373192
H36 H 0.785599 0.151632 0.544884
H37 H 0.805754 0.289870 0.451877
loop_
_geom_bond_atom_site_label_1
_geom_bond_atom_site_label_2
_geom_bond_site_symmetry_1
_geom_bond_site_symmetry_2
O1 H1 1_555 1_555
O2 H2 1_555 1_555
O3 H3 1_555 1_555
O4 C5 1_555 1_555
N1 H4 1_555 1_555
C1 N1 1_555 1_555
C2 O1 1_555 1_555
H5 C2 1_555 1_555
H6 C2 1_555 1_555
C3 O2 1_555 1_555
H7 C3 1_555 1_555
H8 C3 1_555 1_555
C4 O3 1_555 1_555
H9 C4 1_555 1_555
H10 C4 1_555 1_555
C5 N1 1_555 1_555
C6 C5 1_555 1_555
H11 C6 1_555 1_555
H12 C6 1_555 1_555
C7 C6 1_555 1_555
H13 C7 1_555 1_555
H14 C7 1_555 1_555
C8 C7 1_555 1_555
H15 C8 1_555 1_555
H16 C8 1_555 1_555
C9 C8 1_555 1_555
H17 C9 1_555 1_555
H18 C9 1_555 1_555
C10 C9 1_555 1_555
H19 C10 1_555 1_555
H20 C10 1_555 1_555
C11 C10 1_555 1_555
H21 C11 1_555 1_555
H22 C11 1_555 1_555
C12 C11 1_555 1_555
H23 C12 1_555 1_555
H24 C12 1_555 1_555
C13 C12 1_555 1_555
H25 C13 1_555 1_555
H26 C13 1_555 1_555
C14 C13 1_555 1_555
H27 C14 1_555 1_555
H28 C14 1_555 1_555
C15 C14 1_555 1_555
H29 C15 1_555 1_555
H30 C15 1_555 1_555
C16 C15 1_555 1_555
H31 C16 1_555 1_555
H32 C16 1_555 1_555
C17 C16 1_555 1_555
H33 C17 1_555 1_555
H34 C17 1_555 1_555
C18 C17 1_555 1_555
H35 C18 1_555 1_555
H36 C18 1_555 1_555
H37 C18 1_555 1_555
C1 C2 1_555 1_555
C1 C3 1_555 1_555
C1 C4 1_555 1_555

#END
