
#######################################################################
#
#                 Cambridge Crystallographic Data Centre
#                                CCDC 
#
#######################################################################
#
# If this CIF has been generated from an entry in the Cambridge 
# Structural Database, then it will include bibliographic, chemical, 
# crystal, experimental, refinement or atomic coordinate data resulting 
# from the CCDC's data processing and validation procedures.
#
#######################################################################

data_GIMKOF
_chemical_formula_moiety         'C18 H16 Br1 F1 O2'
_chemical_name_systematic        
'methyl 1-(4-bromophenyl)-2-(fluoromethyl)-2-phenylcyclopropane-1-carboxylate'
_symmetry_cell_setting           triclinic
_symmetry_space_group_name_H-M   'P 1'
_symmetry_Int_Tables_number      1
_space_group_name_Hall           'P 1'
loop_
_symmetry_equiv_pos_site_id
_symmetry_equiv_pos_as_xyz
1 x,y,z
_cell_length_a                   6.6841(6)
_cell_length_b                   8.7074(8)
_cell_length_c                   14.4482(13)
_cell_angle_alpha                87.391(3)
_cell_angle_beta                 81.591(2)
_cell_angle_gamma                78.532(3)
_cell_volume                     815.137
_exptl_crystal_colour            colorless
_exptl_crystal_description       block
_cell_formula_units_Z            2
loop_
_atom_site_label
_atom_site_type_symbol
_atom_site_fract_x
_atom_site_fract_y
_atom_site_fract_z
Br1 Br 0.86797(8) 0.60035(7) 0.46495(5)
O1 O -0.1148(9) 0.7000(8) 0.8701(5)
O2 O 0.2241(9) 0.5992(6) 0.8523(3)
F1 F -0.1350(8) 1.1884(5) 0.8997(3)
C1 C 0.2710(12) 0.7549(9) 0.5971(5)
H1 H 0.1387 0.7751 0.5807
C2 C 0.4418(12) 0.7052(8) 0.5303(5)
H2 H 0.4261 0.6936 0.4683
C3 C 0.6358(13) 0.6734(9) 0.5585(5)
C4 C 0.6670(12) 0.6880(8) 0.6483(5)
H3 H 0.7992 0.6648 0.6648
C5 C 0.4971(11) 0.7382(8) 0.7147(5)
H4 H 0.5154 0.7476 0.7766
C6 C 0.3019(11) 0.7742(8) 0.6900(5)
C7 C 0.1124(10) 0.8266(8) 0.7622(4)
C8 C -0.0695(10) 0.9384(8) 0.7355(5)
H5 H -0.0649 0.9722 0.6705
H6 H -0.2046 0.9255 0.7660
C9 C 0.0635(10) 0.9997(8) 0.7923(5)
C10 C 0.3762(11) 1.1208(9) 0.7804(5)
H7 H 0.4196 1.0535 0.8286
C11 C 0.4969(13) 1.2281(9) 0.7429(6)
H8 H 0.6186 1.2313 0.7661
C12 C 0.4378(16) 1.3280(11) 0.6724(7)
H9 H 0.5169 1.4007 0.6476
C13 C 0.2504(15) 1.3189(11) 0.6369(7)
H10 H 0.2080 1.3851 0.5882
C14 C 0.1337(13) 1.2119(9) 0.6752(5)
H11 H 0.0126 1.2066 0.6520
C15 C -0.0232(15) 1.0365(11) 0.8939(6)
H12 H -0.1115 0.9638 0.9184
H13 H 0.0886 1.0248 0.9312
C16 C 0.0591(12) 0.7051(9) 0.8335(5)
C17 C 0.1781(16) 0.4694(9) 0.9136(5)
H14 H 0.3044 0.3999 0.9231
H15 H 0.0933 0.4135 0.8853
H16 H 0.1064 0.5094 0.9727
C18 C 0.1946(13) 1.1112(9) 0.7485(5)
Br2 Br -0.26891(9) 1.09606(7) 0.49926(5)
F2 F 0.7554(7) 0.6752(7) 0.1124(4)
O3 O 0.4673(10) 0.9784(7) 0.0039(3)
O4 O 0.4625(9) 1.0662(6) 0.1469(3)
C19 C -0.0541(11) 0.9512(9) 0.2278(5)
H17 H -0.1130 0.9416 0.1743
C20 C -0.1778(12) 1.0078(9) 0.3087(5)
H18 H -0.3194 1.0377 0.3089
C21 C -0.0970(12) 1.0207(9) 0.3874(5)
C22 C 0.1185(11) 0.9765(9) 0.3895(5)
H19 H 0.1753 0.9849 0.4436
C23 C 0.2398(12) 0.9208(9) 0.3081(6)
H20 H 0.3814 0.8904 0.3081
C24 C 0.1590(11) 0.9080(8) 0.2258(5)
C25 C 0.2956(10) 0.8549(8) 0.1354(4)
C26 C 0.2203(11) 0.7546(8) 0.0719(5)
H21 H 0.0861 0.7280 0.0914
H22 H 0.2532 0.7713 0.0050
C27 C 0.3914(11) 0.6793(8) 0.1236(5)
C28 C 0.3599(12) 0.5690(9) 0.2062(5)
C29 C 0.1908(12) 0.4894(9) 0.2137(5)
H23 H 0.0954 0.5100 0.1717
C30 C 0.1740(14) 0.3795(10) 0.2864(7)
H24 H 0.0643 0.3270 0.2929
C31 C 0.3116(15) 0.3471(10) 0.3473(5)
H25 H 0.2979 0.2716 0.3942
C32 C 0.4724(13) 0.4257(9) 0.3402(5)
H26 H 0.5661 0.4049 0.3830
C33 C 0.4946(13) 0.5363(9) 0.2690(5)
H27 H 0.6041 0.5888 0.2645
C34 C 0.5995(12) 0.6396(10) 0.0639(6)
H28 H 0.6302 0.5290 0.0492
H29 H 0.5971 0.6992 0.0056
C35 C 0.4136(11) 0.9713(8) 0.0867(5)
C36 C 0.5677(14) 1.1884(9) 0.1046(6)
H30 H 0.5952 1.2503 0.1528
H31 H 0.4819 1.2542 0.0648
H32 H 0.6952 1.1414 0.0681
loop_
_geom_bond_atom_site_label_1
_geom_bond_atom_site_label_2
_geom_bond_site_symmetry_1
_geom_bond_site_symmetry_2
Br1 C3 1_555 1_555
O1 C16 1_555 1_555
O2 C16 1_555 1_555
F1 C15 1_555 1_555
C1 H1 1_555 1_555
C2 C1 1_555 1_555
H2 C2 1_555 1_555
C3 C2 1_555 1_555
C4 C3 1_555 1_555
H3 C4 1_555 1_555
C5 C4 1_555 1_555
H4 C5 1_555 1_555
C6 C1 1_555 1_555
C7 C6 1_555 1_555
C8 C7 1_555 1_555
H5 C8 1_555 1_555
H6 C8 1_555 1_555
C9 C7 1_555 1_555
C10 H7 1_555 1_555
C11 C10 1_555 1_555
H8 C11 1_555 1_555
C12 C11 1_555 1_555
H9 C12 1_555 1_555
C13 C12 1_555 1_555
H10 C13 1_555 1_555
C14 C13 1_555 1_555
H11 C14 1_555 1_555
C15 C9 1_555 1_555
H12 C15 1_555 1_555
H13 C15 1_555 1_555
C16 C7 1_555 1_555
C17 O2 1_555 1_555
H14 C17 1_555 1_555
H15 C17 1_555 1_555
H16 C17 1_555 1_555
C18 C9 1_555 1_555
Br2 C21 1_555 1_555
F2 C34 1_555 1_555
O3 C35 1_555 1_555
O4 C35 1_555 1_555
C19 H17 1_555 1_555
C20 C19 1_555 1_555
H18 C20 1_555 1_555
C21 C20 1_555 1_555
C22 C21 1_555 1_555
H19 C22 1_555 1_555
C23 C22 1_555 1_555
H20 C23 1_555 1_555
C24 C19 1_555 1_555
C25 C24 1_555 1_555
C26 C25 1_555 1_555
H21 C26 1_555 1_555
H22 C26 1_555 1_555
C27 C25 1_555 1_555
C28 C27 1_555 1_555
C29 C28 1_555 1_555
H23 C29 1_555 1_555
C30 C29 1_555 1_555
H24 C30 1_555 1_555
C31 C30 1_555 1_555
H25 C31 1_555 1_555
C32 C31 1_555 1_555
H26 C32 1_555 1_555
C33 C28 1_555 1_555
H27 C33 1_555 1_555
C34 C27 1_555 1_555
H28 C34 1_555 1_555
H29 C34 1_555 1_555
C35 C25 1_555 1_555
C36 O4 1_555 1_555
H30 C36 1_555 1_555
H31 C36 1_555 1_555
H32 C36 1_555 1_555
C5 C6 1_555 1_555
C8 C9 1_555 1_555
C10 C18 1_555 1_555
C14 C18 1_555 1_555
C23 C24 1_555 1_555
C26 C27 1_555 1_555
C32 C33 1_555 1_555

#END
