
#######################################################################
#
#                 Cambridge Crystallographic Data Centre
#                                CCDC 
#
#######################################################################
#
# If this CIF has been generated from an entry in the Cambridge 
# Structural Database, then it will include bibliographic, chemical, 
# crystal, experimental, refinement or atomic coordinate data resulting 
# from the CCDC's data processing and validation procedures.
#
#######################################################################

data_GIMMUM
_chemical_name_common            
"8-Acetyl-4,4',7-trihydroxy-4,5'-dimethyl-3,4-dihydro-2H,3'H-spiro[dibenzo[b,d]furan-1,2'-furan]-3'-one acetonitrile pyridine solvate"
_chemical_formula_moiety         'C19 H18 O7,0.25(C5 H5 N1),0.25(C2 H3 N1)'
_chemical_name_systematic        'Eupachinin B acetonitrile pyridine solvate'
_symmetry_cell_setting           monoclinic
_symmetry_space_group_name_H-M   'P 21/n'
_symmetry_Int_Tables_number      14
_space_group_name_Hall           '-P 2yn'
loop_
_symmetry_equiv_pos_site_id
_symmetry_equiv_pos_as_xyz
1 x,y,z
2 1/2-x,1/2+y,1/2-z
3 -x,-y,-z
4 1/2+x,1/2-y,1/2+z
_cell_length_a                   12.5447(5)
_cell_length_b                   13.5685(5)
_cell_length_c                   25.4321(9)
_cell_angle_alpha                90
_cell_angle_beta                 97.286(3)
_cell_angle_gamma                90
_cell_volume                     4293.91
_exptl_crystal_colour            colorless
_exptl_crystal_description       block
_cell_formula_units_Z            8
loop_
_atom_site_label
_atom_site_type_symbol
_atom_site_fract_x
_atom_site_fract_y
_atom_site_fract_z
O8 O -0.0384(4) 0.1092(3) 0.26113(13)
O9 O -0.2491(3) 0.1867(3) 0.19638(14)
H19 H -0.2371 0.2110 0.2261
O10 O 0.4669(4) 0.1168(4) 0.2692(3)
O11 O 0.3299(5) 0.1271(4) 0.3355(2)
H20 H 0.3898 0.1253 0.3257
O12 O 0.0264(3) 0.2153(3) 0.07851(15)
O13 O 0.1482(3) 0.0699(3) 0.01892(15)
H21 H 0.1722 0.0176 0.0093
O14 O -0.0172(3) -0.0344(3) 0.10896(13)
C20 C -0.0841(5) 0.0954(4) 0.20879(18)
C21 C -0.0103(4) 0.0911(4) 0.17574(18)
C22 C 0.1990(5) 0.1055(4) 0.1978(2)
H22 H 0.2161 0.1006 0.1633
C23 C 0.2816(5) 0.1145(4) 0.2405(3)
C24 C 0.2531(6) 0.1211(4) 0.2923(3)
C25 C 0.1478(6) 0.1217(4) 0.3023(2)
H23 H 0.1295 0.1274 0.3364
C26 C 0.0715(5) 0.1134(4) 0.2587(2)
C27 C 0.0936(4) 0.1038(4) 0.2067(2)
C28 C -0.2051(5) 0.0887(4) 0.1971(2)
C29 C -0.2283(5) 0.0463(5) 0.1413(2)
H24 H -0.2168 -0.0244 0.1430
H25 H -0.3034 0.0575 0.1282
C30 C -0.2541(6) 0.0253(5) 0.2362(3)
H26 H -0.2386 0.0531 0.2711
H27 H -0.2244 -0.0399 0.2361
H28 H -0.3305 0.0221 0.2265
C31 C 0.3954(6) 0.1139(4) 0.2310(4)
C32 C 0.4268(6) 0.1107(6) 0.1776(4)
H29 H 0.5038 0.1112 0.1798
H30 H 0.3981 0.1671 0.1579
H31 H 0.3993 0.0516 0.1601
C33 C -0.1603(4) 0.0895(4) 0.10231(19)
H32 H -0.1726 0.1600 0.0998
H33 H -0.1819 0.0611 0.0676
C34 C -0.0401(4) 0.0702(4) 0.11851(18)
C35 C 0.0265(4) 0.1250(4) 0.08266(19)
C36 C 0.0825(4) 0.0520(4) 0.0570(2)
C37 C 0.0542(4) -0.0379(4) 0.0735(2)
C38 C 0.0898(5) -0.1354(5) 0.0579(2)
H34 H 0.0557 -0.1854 0.0767
H35 H 0.1664 -0.1405 0.0665
H36 H 0.0707 -0.1442 0.0205
O1 O 0.5263(3) 0.3637(3) 0.19578(13)
O2 O 0.6390(3) 0.2674(3) 0.10536(15)
H1 H 0.6605 0.2448 0.1347
O3 O 0.0766(4) 0.3704(3) 0.28155(18)
O4 O 0.2729(4) 0.3661(3) 0.32034(15)
H2 H 0.2075 0.3675 0.3203
O5 O 0.2770(3) 0.2202(3) 0.05176(15)
O6 O 0.0862(3) 0.3422(4) 0.00838(18)
H3 H 0.0488 0.3902 -0.0009
O7 O 0.3264(3) 0.4776(3) 0.05208(15)
C1 C 0.5117(4) 0.3682(4) 0.14075(19)
C2 C 0.4061(4) 0.3721(4) 0.12209(19)
C3 C 0.2404(4) 0.3703(4) 0.1746(2)
H4 H 0.1871 0.3728 0.1457
C4 C 0.2120(5) 0.3678(4) 0.2259(2)
C5 C 0.2957(5) 0.3653(4) 0.2701(2)
C6 C 0.4031(5) 0.3629(4) 0.2626(2)
H5 H 0.4574 0.3599 0.2911
C7 C 0.4258(5) 0.3651(4) 0.2110(2)
C8 C 0.3464(4) 0.3690(3) 0.16649(19)
C9 C 0.6053(5) 0.3653(4) 0.1108(2)
C10 C 0.5655(5) 0.4031(5) 0.0548(2)
H6 H 0.5556 0.4739 0.0560
H7 H 0.6196 0.3897 0.0316
C11 C 0.6993(6) 0.4274(6) 0.1351(3)
H8 H 0.7241 0.4035 0.1700
H9 H 0.6769 0.4948 0.1371
H10 H 0.7565 0.4232 0.1134
C12 C 0.0991(5) 0.3695(4) 0.2355(2)
C13 C 0.0123(6) 0.3703(5) 0.1913(3)
H11 H -0.0557 0.3714 0.2048
H12 H 0.0169 0.3122 0.1701
H13 H 0.0188 0.4277 0.1698
C14 C 0.4594(4) 0.3545(5) 0.0319(2)
H14 H 0.4395 0.3773 -0.0041
H15 H 0.4694 0.2837 0.0308
C15 C 0.3689(4) 0.3775(4) 0.06441(19)
C16 C 0.2727(4) 0.3102(4) 0.04767(18)
C17 C 0.1870(4) 0.3729(5) 0.0284(2)
C18 C 0.2218(5) 0.4690(5) 0.0330(2)
C19 C 0.1645(6) 0.5630(6) 0.0209(4)
H16 H 0.2133 0.6170 0.0291
H17 H 0.1060 0.5682 0.0417
H18 H 0.1370 0.5650 -0.0161
N1? N 0.7333(5) 0.7501(5) 0.1967(2)
C39? C 0.8144(7) 0.7346(7) 0.1690(5)
H37? H 0.8798 0.7112 0.1856
C40? C 0.8000(15) 0.7548(10) 0.1120(7)
H38? H 0.8552 0.7440 0.0914
C41? C 0.708(2) 0.7880(11) 0.0914(5)
H39? H 0.6982 0.8019 0.0553
C42? C 0.6331(11) 0.8022(9) 0.1160(5)
H40? H 0.5682 0.8262 0.0990
C43? C 0.6451(7) 0.7823(7) 0.1697(3)
H41? H 0.5861 0.7927 0.1878
N2? N 0.514(2) 0.0682(13) 0.0333(10)
C44? C 0.5822(17) 0.0812(19) 0.0092(9)
C45? C 0.428(2) 0.005(2) 0.0328(8)
loop_
_geom_bond_atom_site_label_1
_geom_bond_atom_site_label_2
_geom_bond_site_symmetry_1
_geom_bond_site_symmetry_2
O1 C1 1_555 1_555
O2 H1 1_555 1_555
O3 C12 1_555 1_555
O4 H2 1_555 1_555
O5 C16 1_555 1_555
O6 H3 1_555 1_555
O7 C15 1_555 1_555
C1 C2 1_555 1_555
C2 C8 1_555 1_555
C3 H4 1_555 1_555
C4 C3 1_555 1_555
C5 O4 1_555 1_555
C6 C5 1_555 1_555
H5 C6 1_555 1_555
C7 O1 1_555 1_555
C8 C3 1_555 1_555
C9 O2 1_555 1_555
C10 C9 1_555 1_555
H6 C10 1_555 1_555
H7 C10 1_555 1_555
C11 C9 1_555 1_555
H8 C11 1_555 1_555
H9 C11 1_555 1_555
H10 C11 1_555 1_555
C12 C4 1_555 1_555
C13 C12 1_555 1_555
H11 C13 1_555 1_555
H12 C13 1_555 1_555
H13 C13 1_555 1_555
C14 C10 1_555 1_555
H14 C14 1_555 1_555
H15 C14 1_555 1_555
C15 C2 1_555 1_555
C16 C15 1_555 1_555
C17 O6 1_555 1_555
C18 O7 1_555 1_555
C19 C18 1_555 1_555
H16 C19 1_555 1_555
H17 C19 1_555 1_555
H18 C19 1_555 1_555
O8 C20 1_555 1_555
O9 H19 1_555 1_555
O10 C31 1_555 1_555
O11 H20 1_555 1_555
O12 C35 1_555 1_555
O13 H21 1_555 1_555
O14 C34 1_555 1_555
C20 C21 1_555 1_555
C21 C27 1_555 1_555
C22 H22 1_555 1_555
C23 C22 1_555 1_555
C24 O11 1_555 1_555
C25 C24 1_555 1_555
H23 C25 1_555 1_555
C26 O8 1_555 1_555
C27 C22 1_555 1_555
C28 O9 1_555 1_555
C29 C28 1_555 1_555
H24 C29 1_555 1_555
H25 C29 1_555 1_555
C30 C28 1_555 1_555
H26 C30 1_555 1_555
H27 C30 1_555 1_555
H28 C30 1_555 1_555
C31 C23 1_555 1_555
C32 C31 1_555 1_555
H29 C32 1_555 1_555
H30 C32 1_555 1_555
H31 C32 1_555 1_555
C33 C29 1_555 1_555
H32 C33 1_555 1_555
H33 C33 1_555 1_555
C34 C21 1_555 1_555
C35 C34 1_555 1_555
C36 O13 1_555 1_555
C37 O14 1_555 1_555
C38 C37 1_555 1_555
H34 C38 1_555 1_555
H35 C38 1_555 1_555
H36 C38 1_555 1_555
C1 C9 1_555 1_555
C4 C5 1_555 1_555
C6 C7 1_555 1_555
C7 C8 1_555 1_555
C14 C15 1_555 1_555
C16 C17 1_555 1_555
C17 C18 1_555 1_555
C20 C28 1_555 1_555
C23 C24 1_555 1_555
C25 C26 1_555 1_555
C26 C27 1_555 1_555
C33 C34 1_555 1_555
C35 C36 1_555 1_555
C36 C37 1_555 1_555

#END
