
#######################################################################
#
#                 Cambridge Crystallographic Data Centre
#                                CCDC 
#
#######################################################################
#
# If this CIF has been generated from an entry in the Cambridge 
# Structural Database, then it will include bibliographic, chemical, 
# crystal, experimental, refinement or atomic coordinate data resulting 
# from the CCDC's data processing and validation procedures.
#
#######################################################################

data_GIMPIC
_chemical_formula_moiety         'C14 H11 Cl5 N2'
_chemical_name_systematic        
2,2,2-Trichloro-N,N'-bis(4-chlorophenyl)ethane-1,1-diamine
_symmetry_cell_setting           orthorhombic
_symmetry_space_group_name_H-M   'P 21 21 21'
_symmetry_Int_Tables_number      19
_space_group_name_Hall           'P 2ac 2ab'
loop_
_symmetry_equiv_pos_site_id
_symmetry_equiv_pos_as_xyz
1 x,y,z
2 1/2-x,-y,1/2+z
3 -x,1/2+y,1/2-z
4 1/2+x,1/2-y,-z
_cell_length_a                   6.0186(6)
_cell_length_b                   8.0624(8)
_cell_length_c                   33.082(3)
_cell_angle_alpha                90
_cell_angle_beta                 90
_cell_angle_gamma                90
_cell_volume                     1605.28
_exptl_crystal_colour            colorless
_exptl_crystal_description       block
_cell_formula_units_Z            4
_exptl_crystal_recrystallization_method dimethylsulfoxide
loop_
_atom_site_label
_atom_site_type_symbol
_atom_site_fract_x
_atom_site_fract_y
_atom_site_fract_z
Cl1 Cl 1.26273(9) 1.06659(7) 0.16704(2)
Cl2 Cl 0.82360(10) 1.20078(7) 0.161908(19)
Cl3 Cl 1.10707(12) 1.20059(7) 0.091570(19)
Cl4 Cl 1.50835(9) 0.34965(7) 0.241841(16)
Cl5 Cl 0.30846(13) 0.38658(8) 0.009030(19)
N1 N 0.7472(3) 0.9328(2) 0.09838(5)
H1 H 0.6879 1.0296 0.0965
N2 N 0.8963(3) 0.8106(2) 0.15779(5)
H2 H 0.7673 0.8207 0.1687
C1 C 0.9412(3) 0.9122(2) 0.12323(6)
H3 H 1.0560 0.8573 0.1070
C2 C 1.0281(3) 1.0873(3) 0.13526(6)
C3 C 1.0416(3) 0.6968(2) 0.17554(5)
C4 C 1.2440(3) 0.6489(3) 0.15813(6)
H4 H 1.2848 0.6907 0.1330
C5 C 1.3839(3) 0.5396(2) 0.17816(6)
H5 H 1.5177 0.5080 0.1664
C6 C 1.3247(3) 0.4778(2) 0.21539(6)
C7 C 1.1223(4) 0.5186(2) 0.23231(6)
H6 H 1.0807 0.4733 0.2570
C8 C 0.9824(3) 0.6261(2) 0.21260(6)
H7 H 0.8458 0.6524 0.2241
C9 C 0.6522(3) 0.8008(3) 0.07725(6)
C10 C 0.4571(3) 0.8298(3) 0.05510(6)
H8 H 0.3971 0.9361 0.0545
C11 C 0.3530(4) 0.7045(3) 0.03428(6)
H9 H 0.2233 0.7257 0.0199
C12 C 0.4423(4) 0.5469(3) 0.03485(6)
C13 C 0.6356(5) 0.5148(3) 0.05606(7)
H10 H 0.6957 0.4086 0.0561
C14 C 0.7395(4) 0.6408(3) 0.07729(6)
H11 H 0.8687 0.6184 0.0917
loop_
_geom_bond_atom_site_label_1
_geom_bond_atom_site_label_2
_geom_bond_site_symmetry_1
_geom_bond_site_symmetry_2
Cl1 C2 1_555 1_555
Cl2 C2 1_555 1_555
Cl3 C2 1_555 1_555
Cl4 C6 1_555 1_555
Cl5 C12 1_555 1_555
N1 H1 1_555 1_555
N2 H2 1_555 1_555
C1 N1 1_555 1_555
H3 C1 1_555 1_555
C2 C1 1_555 1_555
C3 N2 1_555 1_555
C4 C3 1_555 1_555
H4 C4 1_555 1_555
C5 C4 1_555 1_555
H5 C5 1_555 1_555
C6 C5 1_555 1_555
C7 C6 1_555 1_555
H6 C7 1_555 1_555
C8 C3 1_555 1_555
H7 C8 1_555 1_555
C9 N1 1_555 1_555
C10 C9 1_555 1_555
H8 C10 1_555 1_555
C11 C10 1_555 1_555
H9 C11 1_555 1_555
C12 C11 1_555 1_555
C13 C12 1_555 1_555
H10 C13 1_555 1_555
C14 C9 1_555 1_555
H11 C14 1_555 1_555
N2 C1 1_555 1_555
C7 C8 1_555 1_555
C13 C14 1_555 1_555

#END
