
#######################################################################
#
#                 Cambridge Crystallographic Data Centre
#                                CCDC 
#
#######################################################################
#
# If this CIF has been generated from an entry in the Cambridge 
# Structural Database, then it will include bibliographic, chemical, 
# crystal, experimental, refinement or atomic coordinate data resulting 
# from the CCDC's data processing and validation procedures.
#
#######################################################################

data_GIMPEY
_chemical_formula_moiety         'C16 H17 Cl3 N2 O2'
_chemical_name_systematic        
2,2,2-Trichloro-N,N'-bis(4-methoxyphenyl)ethane-1,1-diamine
_symmetry_cell_setting           orthorhombic
_symmetry_space_group_name_H-M   'P b c a'
_symmetry_Int_Tables_number      61
_space_group_name_Hall           '-P 2ac 2ab'
loop_
_symmetry_equiv_pos_site_id
_symmetry_equiv_pos_as_xyz
1 x,y,z
2 1/2-x,-y,1/2+z
3 -x,1/2+y,1/2-z
4 1/2+x,1/2-y,-z
5 -x,-y,-z
6 1/2+x,y,1/2-z
7 x,1/2-y,1/2+z
8 1/2-x,1/2+y,z
_cell_length_a                   9.717(2)
_cell_length_b                   10.575(3)
_cell_length_c                   33.772(8)
_cell_angle_alpha                90
_cell_angle_beta                 90
_cell_angle_gamma                90
_cell_volume                     3470.32
_exptl_crystal_colour            colorless
_exptl_crystal_description       block
_cell_formula_units_Z            8
_exptl_crystal_recrystallization_method dichloromethane
loop_
_atom_site_label
_atom_site_type_symbol
_atom_site_fract_x
_atom_site_fract_y
_atom_site_fract_z
Cl1 Cl 0.10056(9) 0.11368(7) 0.47142(2)
Cl2 Cl 0.18966(8) 0.34925(7) 0.50681(2)
Cl3 Cl 0.36487(8) 0.21912(9) 0.45195(3)
O1 O -0.3595(2) 0.67992(19) 0.35315(6)
O2 O 0.4760(3) 0.3681(2) 0.26119(7)
N1 N 0.1410(2) 0.2639(2) 0.39127(7)
H1 H 0.0904 0.1979 0.3882
N2 N -0.0136(2) 0.3574(2) 0.43759(7)
H2 H -0.0499 0.3204 0.4577
C1 C 0.1277(3) 0.3321(3) 0.42794(7)
H3 H 0.1761 0.4130 0.4253
C2 C 0.1923(3) 0.2579(3) 0.46285(8)
C3 C -0.0938(3) 0.4405(2) 0.41514(7)
C4 C -0.2359(3) 0.4420(3) 0.42149(7)
H4 H -0.2744 0.3873 0.4400
C5 C -0.3196(3) 0.5231(3) 0.40079(8)
H5 H -0.4138 0.5229 0.4056
C6 C -0.2654(3) 0.6050(2) 0.37292(8)
C7 C -0.1244(3) 0.6051(3) 0.36631(9)
H6 H -0.0864 0.6602 0.3478
C8 C -0.0400(3) 0.5228(3) 0.38728(8)
H7 H 0.0543 0.5231 0.3825
C9 C -0.3070(4) 0.7699(3) 0.32570(10)
H8 H -0.2474 0.8280 0.3393
H9 H -0.3820 0.8155 0.3139
H10 H -0.2561 0.7269 0.3054
C10 C 0.2297(3) 0.2963(3) 0.36023(7)
C11 C 0.2102(3) 0.2366(3) 0.32402(9)
H11 H 0.1395 0.1780 0.3213
C12 C 0.2933(4) 0.2623(3) 0.29208(9)
H12 H 0.2787 0.2201 0.2683
C13 C 0.3983(3) 0.3501(3) 0.29492(9)
C14 C 0.4200(3) 0.4092(3) 0.33029(9)
H13 H 0.4908 0.4679 0.3328
C15 C 0.3360(3) 0.3817(3) 0.36278(9)
H14 H 0.3525 0.4223 0.3867
C16 C 0.5531(5) 0.4790(4) 0.25775(13)
H15 H 0.4940 0.5509 0.2614
H16 H 0.5941 0.4828 0.2319
H17 H 0.6241 0.4797 0.2775
loop_
_geom_bond_atom_site_label_1
_geom_bond_atom_site_label_2
_geom_bond_site_symmetry_1
_geom_bond_site_symmetry_2
Cl1 C2 1_555 1_555
Cl2 C2 1_555 1_555
Cl3 C2 1_555 1_555
O1 C6 1_555 1_555
O2 C13 1_555 1_555
N1 H1 1_555 1_555
N2 H2 1_555 1_555
C1 N1 1_555 1_555
H3 C1 1_555 1_555
C2 C1 1_555 1_555
C3 N2 1_555 1_555
C4 C3 1_555 1_555
H4 C4 1_555 1_555
C5 C4 1_555 1_555
H5 C5 1_555 1_555
C6 C5 1_555 1_555
C7 C6 1_555 1_555
H6 C7 1_555 1_555
C8 C3 1_555 1_555
H7 C8 1_555 1_555
C9 O1 1_555 1_555
H8 C9 1_555 1_555
H9 C9 1_555 1_555
H10 C9 1_555 1_555
C10 N1 1_555 1_555
C11 C10 1_555 1_555
H11 C11 1_555 1_555
C12 C11 1_555 1_555
H12 C12 1_555 1_555
C13 C12 1_555 1_555
C14 C13 1_555 1_555
H13 C14 1_555 1_555
C15 C10 1_555 1_555
H14 C15 1_555 1_555
C16 O2 1_555 1_555
H15 C16 1_555 1_555
H16 C16 1_555 1_555
H17 C16 1_555 1_555
N2 C1 1_555 1_555
C7 C8 1_555 1_555
C14 C15 1_555 1_555

#END
