
#######################################################################
#
#                 Cambridge Crystallographic Data Centre
#                                CCDC 
#
#######################################################################
#
# If this CIF has been generated from an entry in the Cambridge 
# Structural Database, then it will include bibliographic, chemical, 
# crystal, experimental, refinement or atomic coordinate data resulting 
# from the CCDC's data processing and validation procedures.
#
#######################################################################

data_GIMRUP10
_chemical_formula_moiety         'C8 H10 N2 O2,C13 H10 N4 O5'
_chemical_name_systematic        
'1,3-bis(m-Nitrophenyl)urea N,N-dimethyl-p-nitroaniline clathrate'
_symmetry_cell_setting           monoclinic
_symmetry_space_group_name_H-M   'C 2/c'
_symmetry_Int_Tables_number      15
_space_group_name_Hall           '-C 2yn'
loop_
_symmetry_equiv_pos_site_id
_symmetry_equiv_pos_as_xyz
1 x,y,z
2 1/2+x,1/2+y,z
3 -x,y,1/2-z
4 1/2-x,1/2+y,1/2-z
5 -x,-y,-z
6 1/2-x,1/2-y,-z
7 x,-y,1/2+z
8 1/2+x,1/2-y,1/2+z
_cell_length_a                   20.002(5)
_cell_length_b                   15.414(5)
_cell_length_c                   7.165(4)
_cell_angle_alpha                90
_cell_angle_beta                 107.61(4)
_cell_angle_gamma                90
_cell_volume                     2105.53
_exptl_crystal_colour            red-orange
_chemical_melting_point          256-258deg.C
_cell_formula_units_Z            4
loop_
_atom_site_label
_atom_site_type_symbol
_atom_site_fract_x
_atom_site_fract_y
_atom_site_fract_z
O1 O 0.5000 1.0398(2) 0.2500
C1 C 0.5000 0.9615(3) 0.2500
N1 N 0.4423(1) 0.9116(2) 0.2406(5)
C2 C 0.3757(2) 0.9376(2) 0.2405(5)
C3 C 0.3560(2) 1.0237(2) 0.2443(5)
C4 C 0.2880(2) 1.0412(2) 0.2404(5)
C5 C 0.2382(2) 0.9781(2) 0.2336(5)
C6 C 0.2596(2) 0.8931(2) 0.2313(6)
C7 C 0.3264(2) 0.8733(2) 0.2348(6)
N2 N 0.2664(1) 1.1324(2) 0.2413(5)
O2 O 0.3115(1) 1.1878(2) 0.2727(5)
O3 O 0.2049(1) 1.1489(2) 0.2152(5)
H1 H 0.447(1) 0.863(2) 0.238(4)
H2 H 0.3884 1.0692 0.2494
H3 H 0.1917 0.9925 0.2305
H4 H 0.2272 0.8474 0.2272
H5 H 0.3395 0.8141 0.2333
N1B N 0.5577(1) 0.9116(2) 0.2594(5)
C2B C 0.6243(2) 0.9376(2) 0.2595(5)
H1B H 0.553(1) 0.863(2) 0.262(4)
C3B C 0.6440(2) 1.0237(2) 0.2557(5)
C7B C 0.6736(2) 0.8733(2) 0.2652(6)
C4B C 0.7120(2) 1.0412(2) 0.2596(5)
H2B H 0.6116 1.0692 0.2506
C6B C 0.7404(2) 0.8931(2) 0.2687(6)
H5B H 0.6605 0.8141 0.2667
C5B C 0.7618(2) 0.9781(2) 0.2664(5)
N2B N 0.7336(1) 1.1324(2) 0.2587(5)
H4B H 0.7728 0.8474 0.2728
H3B H 0.8083 0.9925 0.2695
O2B O 0.6885(1) 1.1878(2) 0.2273(5)
O3B O 0.7951(1) 1.1489(2) 0.2848(5)
C8 C 0.5000 0.4087(3) 0.2500
C9 C 0.5608(2) 0.4559(2) 0.3469(5)
C10 C 0.5608(2) 0.5447(2) 0.3468(5)
C11 C 0.5000 0.5889(3) 0.2500
N3 N 0.5000 0.3208(3) 0.2500
C12 C 0.4375(2) 0.2710(3) 0.1599(7)
N4 N 0.5000 0.6811(3) 0.2500
O4 O 0.5542(1) 0.7207(2) 0.3396(5)
H6 H 0.6025 0.4256 0.4134
H7 H 0.6022 0.5757 0.4126
H8 H 0.4481 0.2108 0.1752
H9 H 0.4026 0.2846 0.2205
H10 H 0.4204 0.2846 0.0243
C9B C 0.4392(2) 0.4559(2) 0.1531(5)
C10B C 0.4392(2) 0.5447(2) 0.1532(5)
C12B C 0.5625(2) 0.2710(3) 0.3401(7)
O4B O 0.4458(1) 0.7207(2) 0.1604(5)
H6B H 0.3975 0.4256 0.0866
H7B H 0.3978 0.5757 0.0874
H8B H 0.5519 0.2108 0.3248
H9B H 0.5974 0.2846 0.2795
H10B H 0.5796 0.2846 0.4757
loop_
_geom_bond_atom_site_label_1
_geom_bond_atom_site_label_2
_geom_bond_site_symmetry_1
_geom_bond_site_symmetry_2
O1 C1 1_555 1_555
C1 N1 1_555 1_555
N1 C2 1_555 1_555
C2 C3 1_555 1_555
C3 C4 1_555 1_555
C4 C5 1_555 1_555
C5 C6 1_555 1_555
C6 C7 1_555 1_555
C7 C2 1_555 1_555
N2 C4 1_555 1_555
O2 N2 1_555 1_555
O3 N2 1_555 1_555
C8 C9 1_555 1_555
C9 C10 1_555 1_555
C10 C11 1_555 1_555
C11 N4 1_555 1_555
N3 C8 1_555 1_555
C12 N3 1_555 1_555
N4 O4 1_555 1_555
H1 N1 1_555 1_555
H2 C3 1_555 1_555
H3 C5 1_555 1_555
H4 C6 1_555 1_555
H5 C7 1_555 1_555
H6 C9 1_555 1_555
H7 C10 1_555 1_555
H8 C12 1_555 1_555
H9 C12 1_555 1_555
H10 C12 1_555 1_555
N1B C1 1_555 1_555
C2B N1B 1_555 1_555
H1B N1B 1_555 1_555
C3B C2B 1_555 1_555
C7B C2B 1_555 1_555
C4B C3B 1_555 1_555
H2B C3B 1_555 1_555
C6B C7B 1_555 1_555
H5B C7B 1_555 1_555
C5B C4B 1_555 1_555
N2B C4B 1_555 1_555
H4B C6B 1_555 1_555
H3B C5B 1_555 1_555
O2B N2B 1_555 1_555
O3B N2B 1_555 1_555
C9B C8 1_555 1_555
C10B C11 1_555 1_555
C12B N3 1_555 1_555
O4B N4 1_555 1_555
H6B C9B 1_555 1_555
H7B C10B 1_555 1_555
H8B C12B 1_555 1_555
H9B C12B 1_555 1_555
H10B C12B 1_555 1_555
C6B C5B 1_555 1_555
C9B C10B 1_555 1_555

#END
