
#######################################################################
#
#                 Cambridge Crystallographic Data Centre
#                                CCDC 
#
#######################################################################
#
# If this CIF has been generated from an entry in the Cambridge 
# Structural Database, then it will include bibliographic, chemical, 
# crystal, experimental, refinement or atomic coordinate data resulting 
# from the CCDC's data processing and validation procedures.
#
#######################################################################

data_GIMSAW10
_chemical_formula_moiety         'C13 H10 N4 O5,C4 H10 O3'
_chemical_name_systematic        
'1,3-bis(m-Nitrophenyl)urea diethylene glycol clathrate'
_symmetry_cell_setting           triclinic
_symmetry_space_group_name_H-M   'P -1'
_symmetry_Int_Tables_number      2
_space_group_name_Hall           '-P 1'
loop_
_symmetry_equiv_pos_site_id
_symmetry_equiv_pos_as_xyz
1 x,y,z
2 -x,-y,-z
_cell_length_a                   11.247(6)
_cell_length_b                   12.029(6)
_cell_length_c                   7.54(1)
_cell_angle_alpha                103.98(7)
_cell_angle_beta                 102.30(9)
_cell_angle_gamma                98.94(4)
_cell_volume                     943.849
_exptl_crystal_colour            yellow
_chemical_melting_point          256-258deg.C
_cell_formula_units_Z            2
loop_
_atom_site_label
_atom_site_type_symbol
_atom_site_fract_x
_atom_site_fract_y
_atom_site_fract_z
C1 C -0.1552(2) -0.1533(2) 0.1191(2)
C2 C -0.0843(2) -0.2287(2) 0.1745(2)
C3 C -0.1365(2) -0.3472(2) 0.1153(3)
C4 C -0.2560(2) -0.3944(2) 0.0037(3)
C5 C -0.3252(2) -0.3179(2) -0.0498(3)
C6 C -0.2765(2) -0.1993(2) 0.0066(3)
C7 C 0.0033(2) 0.0325(1) 0.2734(2)
C8 C 0.1216(2) 0.2392(1) 0.3893(2)
C9 C 0.2351(2) 0.2214(1) 0.4783(2)
C10 C 0.3353(2) 0.3165(2) 0.5520(3)
C11 C 0.3272(2) 0.4280(2) 0.5429(3)
C12 C 0.2136(2) 0.4441(2) 0.4564(3)
C13 C 0.1121(2) 0.3516(2) 0.3805(3)
N1 N -0.1130(1) -0.0306(1) 0.1732(2)
N2 N 0.0133(1) 0.1505(1) 0.3087(2)
N3 N -0.0596(2) -0.4252(1) 0.1783(2)
N4 N 0.4541(2) 0.2965(1) 0.6479(2)
O1 O 0.0902(1) -0.0118(1) 0.3266(2)
O2 O -0.1047(2) -0.5304(1) 0.1279(3)
O3 O 0.0448(2) -0.3824(1) 0.2810(3)
O4 O 0.4574(1) 0.2039(1) 0.6821(2)
O5 O 0.5472(2) 0.3750(2) 0.6882(3)
H1 H -0.004(2) -0.202(1) 0.255(2)
H2 H -0.283(2) -0.472(2) -0.028(3)
H3 H -0.413(2) -0.347(2) -0.119(3)
H4 H -0.323(2) -0.149(1) -0.023(2)
H5 H 0.244(2) 0.151(1) 0.491(1)
H6 H 0.401(2) 0.492(2) 0.598(3)
H7 H 0.197(2) 0.523(2) 0.451(3)
H8 H 0.034(2) 0.364(1) 0.324(2)
H9 H -0.168(2) 0.007(1) 0.138(2)
H10 H -0.050(2) 0.171(1) 0.280(2)
C14 C 0.2496(2) -0.1939(2) 0.0753(3)
C15 C 0.3080(2) -0.2197(2) -0.0856(3)
C16 C 0.2918(2) -0.1837(2) -0.3908(3)
C17 C 0.3966(2) -0.0828(1) -0.3554(3)
O6 O 0.2688(1) -0.0699(1) 0.1471(2)
O7 O 0.2394(1) -0.1819(1) -0.2332(2)
O8 O 0.5069(1) -0.1023(1) -0.2524(2)
H11 H 0.213(2) -0.057(2) 0.199(3)
H12 H 0.157(2) -0.225(1) 0.030(2)
H13 H 0.288(2) -0.226(1) 0.165(2)
H14 H 0.300(2) -0.308(2) -0.131(3)
H15 H 0.399(2) -0.174(1) -0.043(2)
H16 H 0.217(2) -0.183(2) -0.494(3)
H17 H 0.321(2) -0.261(2) -0.414(3)
H18 H 0.381(2) -0.011(2) -0.277(3)
H19 H 0.408(2) -0.074(2) -0.476(3)
H20 H 0.575(3) -0.037(2) -0.217(4)
loop_
_geom_bond_atom_site_label_1
_geom_bond_atom_site_label_2
_geom_bond_site_symmetry_1
_geom_bond_site_symmetry_2
C1 C2 1_555 1_555
C2 C3 1_555 1_555
C3 C4 1_555 1_555
C4 C5 1_555 1_555
C5 C6 1_555 1_555
C6 C1 1_555 1_555
C7 N1 1_555 1_555
C8 C9 1_555 1_555
C9 C10 1_555 1_555
C10 C11 1_555 1_555
C11 C12 1_555 1_555
C12 C13 1_555 1_555
C13 C8 1_555 1_555
C14 C15 1_555 1_555
C15 O7 1_555 1_555
C16 C17 1_555 1_555
C17 O8 1_555 1_555
N1 C1 1_555 1_555
N2 C7 1_555 1_555
N3 C3 1_555 1_555
N4 C10 1_555 1_555
O1 C7 1_555 1_555
O2 N3 1_555 1_555
O3 N3 1_555 1_555
O4 N4 1_555 1_555
O5 N4 1_555 1_555
O6 C14 1_555 1_555
O7 C16 1_555 1_555
O8 H20 1_555 1_555
H1 C2 1_555 1_555
H2 C4 1_555 1_555
H3 C5 1_555 1_555
H4 C6 1_555 1_555
H5 C9 1_555 1_555
H6 C11 1_555 1_555
H7 C12 1_555 1_555
H8 C13 1_555 1_555
H9 N1 1_555 1_555
H10 N2 1_555 1_555
H11 O6 1_555 1_555
H12 C14 1_555 1_555
H13 C14 1_555 1_555
H14 C15 1_555 1_555
H15 C15 1_555 1_555
H16 C16 1_555 1_555
H17 C16 1_555 1_555
H18 C17 1_555 1_555
H19 C17 1_555 1_555
C8 N2 1_555 1_555

#END
