
#######################################################################
#
#                 Cambridge Crystallographic Data Centre
#                                CCDC 
#
#######################################################################
#
# If this CIF has been generated from an entry in the Cambridge 
# Structural Database, then it will include bibliographic, chemical, 
# crystal, experimental, refinement or atomic coordinate data resulting 
# from the CCDC's data processing and validation procedures.
#
#######################################################################

data_GIMSIF
_chemical_formula_moiety         'C5 H7 N2 1+,C7 H5 O6 S1 1-,H2 O1'
_chemical_name_systematic        
'3-aminopyridinium 3-carboxy-4-hydroxybenzenesulfonate monohydrate'
_symmetry_cell_setting           triclinic
_symmetry_space_group_name_H-M   'P -1'
_symmetry_Int_Tables_number      2
_space_group_name_Hall           '-P 1'
loop_
_symmetry_equiv_pos_site_id
_symmetry_equiv_pos_as_xyz
1 x,y,z
2 -x,-y,-z
_cell_length_a                   7.1447(4)
_cell_length_b                   8.4120(5)
_cell_length_c                   12.3958(7)
_cell_angle_alpha                80.2850(10)
_cell_angle_beta                 74.4340(10)
_cell_angle_gamma                82.7180(10)
_cell_volume                     704.777
_exptl_crystal_colour            brown
_exptl_crystal_description       block
_cell_formula_units_Z            2
loop_
_atom_site_label
_atom_site_type_symbol
_atom_site_fract_x
_atom_site_fract_y
_atom_site_fract_z
C1 C 0.2448(2) 0.98886(19) 0.53399(14)
C2 C 0.2775(3) 0.9500(2) 0.42432(14)
C3 C 0.2592(3) 0.7920(2) 0.40978(16)
H1 H 0.2830 0.7657 0.3371
C4 C 0.2068(3) 0.6758(2) 0.50073(16)
H2 H 0.1938 0.5713 0.4901
C5 C 0.1726(2) 0.71503(19) 0.61007(14)
C6 C 0.1928(2) 0.86956(19) 0.62590(14)
H3 H 0.1714 0.8941 0.6989
C7 C 0.2635(2) 1.1550(2) 0.55092(15)
O1 O 0.3025(2) 1.26501(16) 0.47363(11)
O2 O 0.2351(2) 1.17286(16) 0.65802(11)
H4 H 0.251(4) 1.268(4) 0.661(2)
O3 O 0.3280(2) 1.05943(18) 0.33133(11)
H5 H 0.320(4) 1.145(4) 0.360(2)
O4 O 0.27461(19) 0.44732(14) 0.72302(11)
O5 O -0.0591(2) 0.49434(17) 0.71349(13)
O6 O 0.0638(2) 0.64582(17) 0.82749(12)
S1 S 0.10454(6) 0.56641(5) 0.72792(3)
C8 C 0.2482(3) 1.0899(2) 0.98365(15)
C9 C 0.1702(3) 1.0052(3) 1.09030(16)
H6 H 0.1061 1.0617 1.1500
C10 C 0.1876(3) 0.8393(3) 1.10751(19)
H7 H 0.1323 0.7837 1.1782
C11 C 0.2862(4) 0.7553(3) 1.0209(2)
H8 H 0.3001 0.6427 1.0322
C12 C 0.3448(3) 0.9978(3) 0.89877(16)
H9 H 0.3982 1.0489 0.8263
N1 N 0.3614(3) 0.8368(3) 0.92065(16)
H10 H 0.430(4) 0.780(3) 0.866(2)
N2 N 0.2321(3) 1.2542(3) 0.96639(19)
H11 H 0.267(4) 1.293(3) 0.899(2)
H12 H 0.159(4) 1.301(3) 1.019(2)
O7 O 0.5517(2) 0.6030(2) 0.79363(15)
H13 H 0.489(5) 0.556(4) 0.760(3)
H14 H 0.674(5) 0.590(4) 0.754(3)
loop_
_geom_bond_atom_site_label_1
_geom_bond_atom_site_label_2
_geom_bond_site_symmetry_1
_geom_bond_site_symmetry_2
C1 C2 1_555 1_555
C2 C3 1_555 1_555
C3 H1 1_555 1_555
C4 C3 1_555 1_555
H2 C4 1_555 1_555
C5 C4 1_555 1_555
C6 C1 1_555 1_555
H3 C6 1_555 1_555
C7 C1 1_555 1_555
O1 C7 1_555 1_555
O2 C7 1_555 1_555
H4 O2 1_555 1_555
O3 C2 1_555 1_555
H5 O3 1_555 1_555
O4 S1 1_555 1_555
O5 S1 1_555 1_555
O6 S1 1_555 1_555
S1 C5 1_555 1_555
C8 C9 1_555 1_555
C9 H6 1_555 1_555
C10 C9 1_555 1_555
H7 C10 1_555 1_555
C11 C10 1_555 1_555
H8 C11 1_555 1_555
C12 C8 1_555 1_555
H9 C12 1_555 1_555
N1 C11 1_555 1_555
H10 N1 1_555 1_555
N2 C8 1_555 1_555
H11 N2 1_555 1_555
H12 N2 1_555 1_555
O7 H13 1_555 1_555
H14 O7 1_555 1_555
C5 C6 1_555 1_555
C12 N1 1_555 1_555

#END
