
#######################################################################
#
#                 Cambridge Crystallographic Data Centre
#                                CCDC 
#
#######################################################################
#
# If this CIF has been generated from an entry in the Cambridge 
# Structural Database, then it will include bibliographic, chemical, 
# crystal, experimental, refinement or atomic coordinate data resulting 
# from the CCDC's data processing and validation procedures.
#
#######################################################################

data_GIMSEA10
_chemical_formula_moiety         'C18 H15 O1 P1,C13 H10 N4 O5'
_chemical_name_systematic        
'1,3-bis(m-Nitrophenyl)urea triphenylphosphine oxide clathrate'
_symmetry_cell_setting           triclinic
_symmetry_space_group_name_H-M   'P -1'
_symmetry_Int_Tables_number      2
_space_group_name_Hall           '-P 1'
loop_
_symmetry_equiv_pos_site_id
_symmetry_equiv_pos_as_xyz
1 x,y,z
2 -x,-y,-z
_cell_length_a                   12.34(1)
_cell_length_b                   15.136(6)
_cell_length_c                   8.311(6)
_cell_angle_alpha                101.93(4)
_cell_angle_beta                 91.22(6)
_cell_angle_gamma                110.97(4)
_cell_volume                     1410.46
_exptl_crystal_colour            yellow
_chemical_melting_point          256-258deg.C
_cell_formula_units_Z            2
loop_
_atom_site_label
_atom_site_type_symbol
_atom_site_fract_x
_atom_site_fract_y
_atom_site_fract_z
C1 C 0.2341(2) 0.6367(2) -0.0656(3)
C2 C 0.1452(2) 0.5460(2) -0.1004(3)
C3 C 0.1601(2) 0.4675(2) -0.0588(3)
C4 C 0.2646(2) 0.4771(2) 0.0204(3)
C5 C 0.3499(2) 0.5676(2) 0.0588(3)
C6 C 0.3384(2) 0.6480(2) 0.0196(3)
C7 C 0.2961(2) 0.7950(2) -0.1413(3)
C8 C 0.3073(2) 0.9335(2) -0.2650(3)
C9 C 0.4281(2) 0.9795(2) -0.2460(3)
C10 C 0.4760(2) 1.0609(2) -0.3065(3)
C11 C 0.4114(2) 1.1005(2) -0.3834(3)
C12 C 0.2925(2) 1.0549(2) -0.4004(4)
C13 C 0.2409(2) 0.9729(2) -0.3424(3)
N1 N 0.2132(1) 0.7123(1) -0.1164(2)
N2 N 0.2487(2) 0.8487(1) -0.2130(2)
N3 N 0.4607(2) 0.5808(2) 0.1507(3)
N4 N 0.6041(2) 1.1065(1) -0.2892(3)
O1 O 0.3997(1) 0.8183(1) -0.1031(2)
O2 O 0.4714(2) 0.5105(1) 0.1878(2)
O3 O 0.5367(2) 0.6612(1) 0.1857(3)
O4 O 0.6610(2) 1.0706(1) -0.2202(3)
O5 O 0.6479(2) 1.1788(1) -0.3440(3)
H1 H 0.078(2) 0.540(2) -0.152(3)
H2 H 0.097(2) 0.405(2) -0.083(3)
H3 H 0.279(2) 0.425(2) 0.050(3)
H4 H 0.401(2) 0.708(2) 0.044(3)
H5 H 0.472(2) 0.952(2) -0.200(3)
H6 H 0.447(2) 1.155(2) -0.429(3)
H7 H 0.244(2) 1.077(2) -0.454(3)
H8 H 0.161(2) 0.942(2) -0.350(3)
H24 H 0.147(2) 0.698(1) -0.156(2)
H25 H 0.178(2) 0.822(1) -0.244(2)
P1 P 0.10192(4) 0.29628(4) 0.39693(6)
O6 O -0.0093(1) 0.2760(1) 0.2942(2)
C14 C 0.0739(2) 0.2545(2) 0.5848(2)
C15 C -0.0354(2) 0.2363(2) 0.6393(3)
C16 C -0.0587(2) 0.2057(2) 0.7844(3)
C17 C 0.0264(3) 0.1932(2) 0.8758(3)
C18 C 0.1353(2) 0.2105(2) 0.8231(3)
C19 C 0.1596(2) 0.2411(2) 0.6787(3)
C20 C 0.1895(2) 0.2333(1) 0.2937(2)
C21 C 0.1416(2) 0.1327(2) 0.2494(3)
C22 C 0.2027(2) 0.0805(2) 0.1675(4)
C23 C 0.3124(2) 0.1272(2) 0.1288(3)
C24 C 0.3606(2) 0.2261(2) 0.1705(3)
C25 C 0.2996(2) 0.2792(2) 0.2519(3)
C26 C 0.1890(2) 0.4238(2) 0.4525(2)
C27 C 0.1487(2) 0.4870(2) 0.3961(3)
C28 C 0.2141(3) 0.5854(2) 0.4312(4)
C29 C 0.3194(3) 0.6210(2) 0.5239(3)
C30 C 0.3603(2) 0.5599(2) 0.5831(3)
C31 C 0.2962(2) 0.4623(2) 0.5500(3)
H9 H -0.094(2) 0.247(2) 0.57(3)
H10 H -0.130(2) 0.193(2) 0.821(3)
H11 H 0.011(2) 0.172(2) 0.976(3)
H12 H 0.191(2) 0.198(2) 0.887(3)
H13 H 0.229(2) 0.249(1) 0.637(3)
H14 H 0.070(2) 0.103(2) 0.281(3)
H15 H 0.173(2) 0.016(2) 0.143(3)
H16 H 0.357(2) 0.092(2) 0.075(3)
H17 H 0.435(2) 0.257(2) 0.140(3)
H18 H 0.331(2) 0.348(1) 0.277(3)
H19 H 0.074(2) 0.461(2) 0.340(3)
H20 H 0.184(2) 0.622(2) 0.385(3)
H21 H 0.364(2) 0.690(2) 0.549(3)
H22 H 0.430(2) 0.584(2) 0.651(3)
H23 H 0.320(2) 0.415(2) 0.590(3)
loop_
_geom_bond_atom_site_label_1
_geom_bond_atom_site_label_2
_geom_bond_site_symmetry_1
_geom_bond_site_symmetry_2
C1 C2 1_555 1_555
C2 C3 1_555 1_555
C3 C4 1_555 1_555
C4 C5 1_555 1_555
C5 C6 1_555 1_555
C6 C1 1_555 1_555
C7 N1 1_555 1_555
C8 C9 1_555 1_555
C9 C10 1_555 1_555
C10 C11 1_555 1_555
C11 C12 1_555 1_555
C12 C13 1_555 1_555
C13 C8 1_555 1_555
N1 C1 1_555 1_555
N2 C7 1_555 1_555
N3 C5 1_555 1_555
N4 C10 1_555 1_555
O1 C7 1_555 1_555
O2 N3 1_555 1_555
O3 N3 1_555 1_555
O4 N4 1_555 1_555
O5 N4 1_555 1_555
P1 O6 1_555 1_555
C14 P1 1_555 1_555
C15 C14 1_555 1_555
C16 C15 1_555 1_555
C17 C16 1_555 1_555
C18 C17 1_555 1_555
C19 C14 1_555 1_555
C20 P1 1_555 1_555
C21 C20 1_555 1_555
C22 C21 1_555 1_555
C23 C22 1_555 1_555
C24 C23 1_555 1_555
C25 C20 1_555 1_555
C26 P1 1_555 1_555
C27 C26 1_555 1_555
C28 C27 1_555 1_555
C29 C28 1_555 1_555
C30 C29 1_555 1_555
C31 C26 1_555 1_555
H1 C2 1_555 1_555
H2 C3 1_555 1_555
H3 C4 1_555 1_555
H4 C6 1_555 1_555
H5 C9 1_555 1_555
H6 C11 1_555 1_555
H7 C12 1_555 1_555
H8 C13 1_555 1_555
H9 C15 1_555 1_555
H10 C16 1_555 1_555
H11 C17 1_555 1_555
H12 C18 1_555 1_555
H13 C19 1_555 1_555
H14 C21 1_555 1_555
H15 C22 1_555 1_555
H16 C23 1_555 1_555
H17 C24 1_555 1_555
H18 C25 1_555 1_555
H19 C27 1_555 1_555
H20 C28 1_555 1_555
H21 C29 1_555 1_555
H22 C30 1_555 1_555
H23 C31 1_555 1_555
H24 N1 1_555 1_555
H25 N2 1_555 1_555
C8 N2 1_555 1_555
C18 C19 1_555 1_555
C24 C25 1_555 1_555
C30 C31 1_555 1_555

#END
