
#######################################################################
#
#                 Cambridge Crystallographic Data Centre
#                                CCDC 
#
#######################################################################
#
# If this CIF has been generated from an entry in the Cambridge 
# Structural Database, then it will include bibliographic, chemical, 
# crystal, experimental, refinement or atomic coordinate data resulting 
# from the CCDC's data processing and validation procedures.
#
#######################################################################

data_GIMWUX
_chemical_formula_moiety         'C25 H22 N2 O1'
_chemical_name_systematic        
2,5-dimethyl-N,1,4-triphenyl-1H-pyrrole-3-carboxamide
_symmetry_cell_setting           monoclinic
_symmetry_space_group_name_H-M   'P 21/c'
_symmetry_Int_Tables_number      14
_space_group_name_Hall           '-P 2ybc'
loop_
_symmetry_equiv_pos_site_id
_symmetry_equiv_pos_as_xyz
1 x,y,z
2 -x,1/2+y,1/2-z
3 -x,-y,-z
4 x,1/2-y,1/2+z
_cell_length_a                   12.462(7)
_cell_length_b                   16.123(10)
_cell_length_c                   10.316(6)
_cell_angle_alpha                90
_cell_angle_beta                 98.827(9)
_cell_angle_gamma                90
_cell_volume                     2048.19
_cell_formula_units_Z            4
loop_
_atom_site_label
_atom_site_type_symbol
_atom_site_fract_x
_atom_site_fract_y
_atom_site_fract_z
C1 C 0.8248(2) 0.42866(19) 0.6539(4)
C2 C 0.8185(3) 0.4641(2) 0.5332(4)
H1 H 0.789119 0.434479 0.458824
C3 C 0.8556(3) 0.5442(2) 0.5211(4)
H2 H 0.851420 0.568632 0.438830
C4 C 0.8983(3) 0.5869(2) 0.6306(5)
H3 H 0.923673 0.640664 0.622871
C5 C 0.9041(3) 0.5517(2) 0.7510(4)
H4 H 0.932286 0.581874 0.825338
C6 C 0.8684(2) 0.4715(2) 0.7638(4)
H5 H 0.873924 0.446874 0.846109
C7 C 0.6957(2) 0.32369(17) 0.7219(3)
C8 C 0.6815(2) 0.23955(16) 0.7095(3)
C9 C 0.7682(2) 0.20881(17) 0.6459(3)
C10 C 0.8309(2) 0.27520(19) 0.6198(3)
C11 C 0.7966(2) 0.12301(19) 0.6176(3)
C12 C 0.7494(2) -0.02459(18) 0.6594(3)
C13 C 0.6711(3) -0.0717(2) 0.7044(4)
H6 H 0.612713 -0.045592 0.733618
C14 C 0.6776(3) -0.1573(2) 0.7069(4)
H7 H 0.624161 -0.188316 0.738201
C15 C 0.7620(3) -0.1958(2) 0.6639(5)
H8 H 0.766815 -0.253368 0.665227
C16 C 0.8387(3) -0.1501(2) 0.6191(4)
H9 H 0.896572 -0.176782 0.589574
C17 C 0.8340(3) -0.0641(2) 0.6158(4)
H10 H 0.887886 -0.033712 0.584192
C18 C 0.5872(2) 0.19426(16) 0.7482(3)
C19 C 0.5760(2) 0.18333(18) 0.8779(3)
H11 H 0.629054 0.203779 0.943300
C20 C 0.4871(3) 0.1425(2) 0.9121(4)
H12 H 0.481010 0.135845 1.000207
C21 C 0.4083(3) 0.11179(19) 0.8183(4)
H13 H 0.349146 0.083653 0.842018
C22 C 0.4171(3) 0.1228(2) 0.6890(4)
H14 H 0.362832 0.102808 0.624528
C23 C 0.5061(2) 0.16335(19) 0.6530(3)
H15 H 0.511557 0.169907 0.564652
C24 C 0.6293(2) 0.38701(17) 0.7785(3)
H16 H 0.567792 0.360652 0.806753
H17 H 0.604684 0.427982 0.713197
H18 H 0.672651 0.413211 0.852193
C25 C 0.9317(2) 0.27987(19) 0.5582(4)
H19 H 0.913507 0.271858 0.465175
H20 H 0.981494 0.237458 0.594460
H21 H 0.964866 0.333301 0.575252
N1 N 0.78655(17) 0.34491(14) 0.6665(2)
N2 N 0.73788(18) 0.06208(14) 0.6651(3)
H22 H 0.685974 0.079082 0.704542
O1 O 0.86942(17) 0.10623(12) 0.5543(2)
loop_
_geom_bond_atom_site_label_1
_geom_bond_atom_site_label_2
_geom_bond_site_symmetry_1
_geom_bond_site_symmetry_2
C1 C2 1_555 1_555
C2 H1 1_555 1_555
C3 C2 1_555 1_555
H2 C3 1_555 1_555
C4 C3 1_555 1_555
H3 C4 1_555 1_555
C5 C4 1_555 1_555
H4 C5 1_555 1_555
C6 C1 1_555 1_555
H5 C6 1_555 1_555
C7 C8 1_555 1_555
C8 C9 1_555 1_555
C9 C10 1_555 1_555
C10 C25 1_555 1_555
C11 C9 1_555 1_555
C12 C13 1_555 1_555
C13 H6 1_555 1_555
C14 C13 1_555 1_555
H7 C14 1_555 1_555
C15 C14 1_555 1_555
H8 C15 1_555 1_555
C16 C15 1_555 1_555
H9 C16 1_555 1_555
C17 C12 1_555 1_555
H10 C17 1_555 1_555
C18 C8 1_555 1_555
C19 C18 1_555 1_555
H11 C19 1_555 1_555
C20 C19 1_555 1_555
H12 C20 1_555 1_555
C21 C20 1_555 1_555
H13 C21 1_555 1_555
C22 C21 1_555 1_555
H14 C22 1_555 1_555
C23 C18 1_555 1_555
H15 C23 1_555 1_555
C24 C7 1_555 1_555
H16 C24 1_555 1_555
H17 C24 1_555 1_555
H18 C24 1_555 1_555
C25 H19 1_555 1_555
H20 C25 1_555 1_555
H21 C25 1_555 1_555
N1 C1 1_555 1_555
N2 C11 1_555 1_555
H22 N2 1_555 1_555
O1 C11 1_555 1_555
C5 C6 1_555 1_555
C7 N1 1_555 1_555
C10 N1 1_555 1_555
C12 N2 1_555 1_555
C16 C17 1_555 1_555
C22 C23 1_555 1_555

#END
