
#######################################################################
#
#                 Cambridge Crystallographic Data Centre
#                                CCDC 
#
#######################################################################
#
# If this CIF has been generated from an entry in the Cambridge 
# Structural Database, then it will include bibliographic, chemical, 
# crystal, experimental, refinement or atomic coordinate data resulting 
# from the CCDC's data processing and validation procedures.
#
#######################################################################

data_GINGOC
_chemical_formula_moiety         'C14 H12 F1 O4 Si1 1-,C12 H24 K1 O6 1+'
_chemical_name_systematic        
'(18-crown-6)-potassium fluorobis{2-[(oxy)methyl]phenolato}silicate'
_symmetry_cell_setting           orthorhombic
_symmetry_space_group_name_H-M   'P 21 21 21'
_symmetry_Int_Tables_number      19
_space_group_name_Hall           'P 2ac 2ab'
loop_
_symmetry_equiv_pos_site_id
_symmetry_equiv_pos_as_xyz
1 x,y,z
2 1/2-x,-y,1/2+z
3 1/2+x,1/2-y,-z
4 -x,1/2+y,1/2-z
_cell_length_a                   8.2364(1)
_cell_length_b                   18.6416(3)
_cell_length_c                   18.7332(3)
_cell_angle_alpha                90
_cell_angle_beta                 90
_cell_angle_gamma                90
_cell_volume                     2876.29
_exptl_crystal_colour            colorless
_exptl_crystal_description       block
_cell_formula_units_Z            4
loop_
_atom_site_label
_atom_site_type_symbol
_atom_site_fract_x
_atom_site_fract_y
_atom_site_fract_z
C1 C 0.1146(15) 0.8790(6) 0.6962(5)
H1 H 0.1443 0.8288 0.6918
H2 H 0.1969 0.9078 0.6728
C2 C -0.0459(14) 0.8919(5) 0.6635(5)
C3 C -0.1240(14) 0.8419(6) 0.6196(5)
H3 H -0.0736 0.7984 0.6094
C4 C -0.2759(15) 0.8566(6) 0.5911(6)
H4 H -0.3278 0.8233 0.5620
C5 C -0.3476(14) 0.9205(5) 0.6065(5)
H5 H -0.4479 0.9309 0.5862
C6 C -0.2776(15) 0.9699(5) 0.6507(6)
H6 H -0.3303 1.0127 0.6611
C7 C -0.1267(15) 0.9550(5) 0.6799(6)
C8 C 0.3488(17) 1.0672(8) 0.7895(8)
H7 H 0.3221 1.0976 0.7492
H8 H 0.4656 1.0606 0.7901
C9 C 0.2958(18) 1.1040(7) 0.8584(8)
C10 C 0.401(2) 1.1320(7) 0.9093(8)
H9 H 0.5134 1.1279 0.9042
C11 C 0.333(2) 1.1665(7) 0.9684(7)
H10 H 0.4003 1.1904 1.0006
C12 C 0.170(2) 1.1657(8) 0.9793(8)
H11 H 0.1290 1.1860 1.0209
C13 C 0.069(2) 1.1375(6) 0.9334(7)
H12 H -0.0423 1.1401 0.9410
C14 C 0.1314(17) 1.1030(6) 0.8724(8)
O1 O 0.1015(11) 0.8988(4) 0.7706(4)
O2 O -0.0668(13) 1.0026(4) 0.7289(5)
O3 O 0.2733(12) 1.0009(5) 0.7813(6)
O4 O 0.0276(11) 1.0727(5) 0.8200(4)
F1 F 0.0331(8) 0.9591(3) 0.8750(4)
Si1 Si 0.0750(4) 0.98708(17) 0.79333(18)
C15 C 0.4748(15) 0.9621(6) 1.0198(7)
H13 H 0.5319 1.0074 1.0241
H14 H 0.5227 0.9281 1.0529
C16 C 0.3000(16) 0.9719(6) 1.0359(8)
H15 H 0.2872 0.9921 1.0833
H16 H 0.2521 1.0048 1.0017
C17 C 0.0552(12) 0.9093(5) 1.0521(5)
H17 H -0.0013 0.9423 1.0207
H18 H 0.0464 0.9271 1.1006
C18 C -0.0207(11) 0.8354(5) 1.0469(4)
H19 H 0.0380 0.8019 1.0769
H20 H -0.1326 0.8371 1.0630
C19 C -0.0912(11) 0.7466(5) 0.9652(5)
H21 H -0.2028 0.7494 0.9816
H22 H -0.0361 0.7099 0.9929
C20 C -0.0876(11) 0.7269(5) 0.8874(5)
H23 H -0.1516 0.6840 0.8793
H24 H -0.1329 0.7655 0.8590
C21 C 0.0859(14) 0.6907(6) 0.7942(5)
H25 H 0.0366 0.7259 0.7629
H26 H 0.0282 0.6456 0.7886
C22 C 0.2584(14) 0.6811(5) 0.7756(5)
H27 H 0.3083 0.6468 0.8078
H28 H 0.2680 0.6629 0.7273
C23 C 0.5038(14) 0.7463(7) 0.7577(5)
H29 H 0.5092 0.7320 0.7080
H30 H 0.5650 0.7120 0.7859
C24 C 0.5724(14) 0.8199(7) 0.7670(6)
H31 H 0.6813 0.8217 0.7473
H32 H 0.5059 0.8543 0.7414
C25 C 0.6525(14) 0.9053(7) 0.8487(7)
H33 H 0.5944 0.9413 0.8215
H34 H 0.7629 0.9031 0.8308
C26 C 0.6549(13) 0.9263(6) 0.9258(6)
H35 H 0.7066 0.8892 0.9541
H36 H 0.7144 0.9707 0.9322
O5 O 0.4862(9) 0.9353(4) 0.9476(4)
O6 O 0.2208(8) 0.9045(3) 1.0321(3)
O7 O -0.0142(7) 0.8130(4) 0.9755(3)
O8 O 0.0762(8) 0.7146(3) 0.8677(3)
O9 O 0.3378(8) 0.7483(4) 0.7812(3)
O10 O 0.5768(8) 0.8379(4) 0.8393(3)
K1 K 0.2488(2) 0.84985(10) 0.88570(9)
loop_
_geom_bond_atom_site_label_1
_geom_bond_atom_site_label_2
_geom_bond_site_symmetry_1
_geom_bond_site_symmetry_2
C1 H1 1_555 1_555
H2 C1 1_555 1_555
C2 C1 1_555 1_555
C3 C2 1_555 1_555
H3 C3 1_555 1_555
C4 C3 1_555 1_555
H4 C4 1_555 1_555
C5 C4 1_555 1_555
H5 C5 1_555 1_555
C6 C5 1_555 1_555
H6 C6 1_555 1_555
C7 C2 1_555 1_555
C8 H7 1_555 1_555
H8 C8 1_555 1_555
C9 C8 1_555 1_555
C10 C9 1_555 1_555
H9 C10 1_555 1_555
C11 C10 1_555 1_555
H10 C11 1_555 1_555
C12 C11 1_555 1_555
H11 C12 1_555 1_555
C13 C12 1_555 1_555
H12 C13 1_555 1_555
C14 C9 1_555 1_555
O1 C1 1_555 1_555
O2 C7 1_555 1_555
O3 C8 1_555 1_555
O4 C14 1_555 1_555
F1 Si1 1_555 1_555
Si1 O1 1_555 1_555
C15 H13 1_555 1_555
H14 C15 1_555 1_555
C16 C15 1_555 1_555
H15 C16 1_555 1_555
H16 C16 1_555 1_555
C17 H17 1_555 1_555
H18 C17 1_555 1_555
C18 C17 1_555 1_555
H19 C18 1_555 1_555
H20 C18 1_555 1_555
C19 H21 1_555 1_555
H22 C19 1_555 1_555
C20 C19 1_555 1_555
H23 C20 1_555 1_555
H24 C20 1_555 1_555
C21 H25 1_555 1_555
H26 C21 1_555 1_555
C22 C21 1_555 1_555
H27 C22 1_555 1_555
H28 C22 1_555 1_555
C23 H29 1_555 1_555
H30 C23 1_555 1_555
C24 C23 1_555 1_555
H31 C24 1_555 1_555
H32 C24 1_555 1_555
C25 H33 1_555 1_555
H34 C25 1_555 1_555
C26 C25 1_555 1_555
H35 C26 1_555 1_555
H36 C26 1_555 1_555
O5 C15 1_555 1_555
O6 C16 1_555 1_555
O7 C18 1_555 1_555
O8 C20 1_555 1_555
O9 C22 1_555 1_555
O10 C24 1_555 1_555
K1 O5 1_555 1_555
C6 C7 1_555 1_555
C13 C14 1_555 1_555
O2 Si1 1_555 1_555
O3 Si1 1_555 1_555
O4 Si1 1_555 1_555
C17 O6 1_555 1_555
C19 O7 1_555 1_555
C21 O8 1_555 1_555
C23 O9 1_555 1_555
C25 O10 1_555 1_555
C26 O5 1_555 1_555
O6 K1 1_555 1_555
O7 K1 1_555 1_555
O8 K1 1_555 1_555
O9 K1 1_555 1_555
O10 K1 1_555 1_555

#END
