
#######################################################################
#
#                 Cambridge Crystallographic Data Centre
#                                CCDC 
#
#######################################################################
#
# If this CIF has been generated from an entry in the Cambridge 
# Structural Database, then it will include bibliographic, chemical, 
# crystal, experimental, refinement or atomic coordinate data resulting 
# from the CCDC's data processing and validation procedures.
#
#######################################################################

data_GINGUI
_chemical_formula_moiety         
'C22 H28 F1 O4 Si1 1-,C12 H24 K1 O6 1+,3(C4 H8 O1)'
_chemical_name_systematic        
'(18-crown-6)-potassium bis{2-t-butyl-6-[(oxy)methyl]phenolato}(fluoro)silicate tetrahydrofuran solvate'
_symmetry_cell_setting           triclinic
_symmetry_space_group_name_H-M   'P -1'
_symmetry_Int_Tables_number      2
_space_group_name_Hall           '-P 1'
loop_
_symmetry_equiv_pos_site_id
_symmetry_equiv_pos_as_xyz
1 x,y,z
2 -x,-y,-z
_cell_length_a                   13.7772(6)
_cell_length_b                   13.7838(6)
_cell_length_c                   14.2885(6)
_cell_angle_alpha                95.891(4)
_cell_angle_beta                 96.246(3)
_cell_angle_gamma                92.797(4)
_cell_volume                     2678.13
_exptl_crystal_colour            yellow
_exptl_crystal_description       block
_cell_formula_units_Z            2
loop_
_atom_site_label
_atom_site_type_symbol
_atom_site_fract_x
_atom_site_fract_y
_atom_site_fract_z
C1 C 0.43566(19) 0.8604(2) 0.7940(2)
H1 H 0.4800 0.8152 0.8205
H2 H 0.4745 0.9097 0.7683
C2 C 0.3677(2) 0.80617(19) 0.71531(19)
C3 C 0.3797(2) 0.7115(2) 0.6767(2)
H3 H 0.4297 0.6761 0.7026
C4 C 0.3170(3) 0.6707(2) 0.5999(2)
H4 H 0.3242 0.6073 0.5736
C5 C 0.2425(3) 0.7245(2) 0.5615(2)
H5 H 0.2019 0.6960 0.5086
C6 C 0.2261(2) 0.8185(2) 0.59840(19)
C7 C 0.2894(2) 0.85823(18) 0.67925(18)
C8 C 0.1449(3) 0.8772(2) 0.5541(2)
C9 C 0.0687(3) 0.8981(3) 0.6243(2)
H6 H 0.1006 0.9326 0.6821
H7 H 0.0386 0.8374 0.6374
H8 H 0.0196 0.9371 0.5969
C10 C 0.1877(3) 0.9737(3) 0.5271(2)
H9 H 0.2346 0.9604 0.4831
H10 H 0.2194 1.0121 0.5829
H11 H 0.1361 1.0090 0.4985
C11 C 0.0894(4) 0.8218(3) 0.4632(2)
H12 H 0.1345 0.8074 0.4177
H13 H 0.0401 0.8616 0.4373
H14 H 0.0590 0.7620 0.4780
C12 C 0.34652(17) 1.06936(18) 1.01792(17)
H15 H 0.4131 1.0550 1.0079
H16 H 0.3409 1.0710 1.0851
C13 C 0.32472(15) 1.16701(17) 0.98566(17)
C14 C 0.32581(16) 1.25220(19) 1.04715(18)
H17 H 0.3405 1.2503 1.1120
C15 C 0.30518(18) 1.33955(19) 1.0122(2)
H18 H 0.3060 1.3965 1.0533
C16 C 0.28316(19) 1.34175(19) 0.9153(2)
H19 H 0.2700 1.4012 0.8927
C17 C 0.28000(16) 1.25896(17) 0.85065(18)
C18 C 0.30049(15) 1.17030(17) 0.88858(17)
C19 C 0.2556(2) 1.26235(19) 0.7434(2)
C20 C 0.2423(3) 1.3677(2) 0.7193(2)
H20 H 0.1900 1.3944 0.7510
H21 H 0.2267 1.3674 0.6521
H22 H 0.3017 1.4070 0.7398
C21 C 0.1600(2) 1.2012(2) 0.7076(2)
H23 H 0.1080 1.2258 0.7410
H24 H 0.1679 1.1342 0.7183
H25 H 0.1442 1.2052 0.6410
C22 C 0.3388(2) 1.2232(2) 0.6903(2)
H26 H 0.3225 1.2255 0.6236
H27 H 0.3481 1.1569 0.7025
H28 H 0.3980 1.2626 0.7116
O1 O 0.38683(12) 0.90660(12) 0.86783(12)
O2 O 0.28048(13) 0.94863(12) 0.72251(11)
O3 O 0.28068(11) 0.99534(12) 0.96719(11)
O4 O 0.29912(12) 1.08785(11) 0.82796(11)
F1 F 0.18385(10) 0.90640(10) 0.84307(9)
Si1 Si 0.28850(4) 0.96916(4) 0.84771(4)
C23 C 0.2190(3) 0.6149(2) 0.8393(3)
H29 H 0.1960 0.5601 0.8703
H30 H 0.2556 0.5900 0.7887
C24 C 0.1346(3) 0.6664(2) 0.8000(3)
H31 H 0.1577 0.7236 0.7728
H32 H 0.0954 0.6236 0.7505
C25 C -0.0058(2) 0.7449(2) 0.8410(3)
H33 H -0.0467 0.7034 0.7916
H34 H 0.0152 0.8036 0.8148
C26 C -0.0620(2) 0.7709(3) 0.9212(3)
H35 H -0.1230 0.7977 0.8986
H36 H -0.0773 0.7131 0.9515
C27 C -0.0556(2) 0.8708(3) 1.0665(3)
H37 H -0.0677 0.8154 1.1013
H38 H -0.1182 0.8949 1.0449
C28 C 0.0037(3) 0.9481(3) 1.1288(3)
H39 H 0.0176 1.0025 1.0935
H40 H -0.0324 0.9714 1.1804
C29 C 0.1546(3) 0.9833(3) 1.2260(3)
H41 H 0.1206 1.0087 1.2784
H42 H 0.1711 1.0372 1.1908
C30 C 0.2460(3) 0.9392(3) 1.2631(3)
H43 H 0.2853 0.9862 1.3087
H44 H 0.2297 0.8824 1.2945
C31 C 0.3900(3) 0.8725(3) 1.2151(3)
H45 H 0.3791 0.8185 1.2519
H46 H 0.4324 0.9223 1.2546
C32 C 0.4371(2) 0.8384(3) 1.1311(3)
H47 H 0.4410 0.8904 1.0904
H48 H 0.5030 0.8208 1.1504
C33 C 0.4287(2) 0.7164(3) 1.0027(3)
H49 H 0.4895 0.6895 1.0256
H50 H 0.4439 0.7674 0.9637
C34 C 0.3633(3) 0.6386(3) 0.9458(4)
H51 H 0.3971 0.6067 0.8962
H52 H 0.3440 0.5899 0.9857
O5 O 0.27975(17) 0.68113(15) 0.90545(18)
O6 O 0.07743(16) 0.69461(14) 0.87347(16)
O7 O -0.00536(12) 0.84095(15) 0.98697(16)
O8 O 0.09264(15) 0.91136(15) 1.16578(15)
O9 O 0.29856(16) 0.91189(17) 1.18617(15)
O10 O 0.38209(14) 0.75663(18) 1.08116(19)
K1 K 0.19667(3) 0.82511(4) 1.01729(4)
C35 C 0.1293(6) 0.5777(3) 1.0829(4)
H53 H 0.1850 0.5373 1.0879
H54 H 0.1071 0.5805 1.0165
C36 C 0.0486(18) 0.5394(14) 1.1340(8)
H55 H -0.0146 0.5543 1.1038
H56 H 0.0501 0.4691 1.1343
C37 C 0.0665(12) 0.5895(7) 1.2329(10)
H57 H 0.0062 0.5989 1.2611
H58 H 0.1109 0.5554 1.2736
C38 C 0.1089(4) 0.6762(3) 1.2117(3)
H59 H 0.0590 0.7233 1.2072
H60 H 0.1576 0.7013 1.2639
O11 O 0.1529(2) 0.67037(18) 1.1294(2)
C39 C 0.3703(4) 0.5697(4) 0.2397(4)
H61 H 0.3234 0.5141 0.2354
H62 H 0.3408 0.6205 0.2060
C40 C 0.4587(3) 0.5418(4) 0.2027(4)
H63 H 0.4435 0.4960 0.1461
H64 H 0.4944 0.5988 0.1862
C41 C 0.5135(3) 0.4997(3) 0.2698(3)
H65 H 0.4956 0.4302 0.2642
H66 H 0.5821 0.5080 0.2610
C42 C 0.4990(4) 0.5413(4) 0.3568(4)
H67 H 0.5569 0.5810 0.3851
H68 H 0.4867 0.4909 0.3975
O12 O 0.4058(6) 0.6087(5) 0.3467(5)
O13 O 0.2932(15) 0.2179(7) 0.3141(10)
C43 C 0.3103(10) 0.3256(6) 0.3166(8)
H69 H 0.3790 0.3427 0.3134
H70 H 0.2722 0.3492 0.2633
C44 C 0.2814(17) 0.3670(9) 0.4023(13)
H71 H 0.2483 0.4262 0.3924
H72 H 0.3383 0.3837 0.4483
C45 C 0.2159(16) 0.2968(10) 0.4372(14)
H73 H 0.2250 0.3012 0.5058
H74 H 0.1481 0.3066 0.4162
C46 C 0.2442(11) 0.2071(8) 0.3966(8)
H75 H 0.1868 0.1628 0.3792
H76 H 0.2875 0.1786 0.4431
H77? H 0.1876 0.5514 1.0602
H78? H 0.0819 0.5819 1.0283
C47? C 0.0893(9) 0.5119(7) 1.1440(13)
H79? H 0.1371 0.4950 1.1938
H80? H 0.0550 0.4536 1.1097
C48? C 0.0223(6) 0.5875(6) 1.1776(10)
H81? H -0.0112 0.5686 1.2298
H82? H -0.0248 0.6038 1.1269
H83? H 0.0820 0.7392 1.2254
H84? H 0.1528 0.6619 1.2656
O14? O 0.2461(11) 0.244(2) 0.2936(13)
C49? C 0.3531(10) 0.249(2) 0.3230(11)
H85? H 0.3786 0.1849 0.3180
H86? H 0.3879 0.2906 0.2851
C50? C 0.3606(9) 0.2907(16) 0.4185(9)
H87? H 0.3890 0.2446 0.4589
H88? H 0.4041 0.3491 0.4267
C51? C 0.2696(11) 0.3146(19) 0.4464(13)
H89? H 0.2584 0.3828 0.4409
H90? H 0.2643 0.3011 0.5110
C52? C 0.1987(11) 0.2474(19) 0.3760(15)
H91? H 0.1907 0.1830 0.3968
H92? H 0.1353 0.2746 0.3663
loop_
_geom_bond_atom_site_label_1
_geom_bond_atom_site_label_2
_geom_bond_site_symmetry_1
_geom_bond_site_symmetry_2
C1 H1 1_555 1_555
H2 C1 1_555 1_555
C2 C1 1_555 1_555
C3 C2 1_555 1_555
H3 C3 1_555 1_555
C4 C3 1_555 1_555
H4 C4 1_555 1_555
C5 C4 1_555 1_555
H5 C5 1_555 1_555
C6 C5 1_555 1_555
C7 C2 1_555 1_555
C8 C6 1_555 1_555
C9 C8 1_555 1_555
H6 C9 1_555 1_555
H7 C9 1_555 1_555
H8 C9 1_555 1_555
C10 C8 1_555 1_555
H9 C10 1_555 1_555
H10 C10 1_555 1_555
H11 C10 1_555 1_555
C11 C8 1_555 1_555
H12 C11 1_555 1_555
H13 C11 1_555 1_555
H14 C11 1_555 1_555
C12 H15 1_555 1_555
H16 C12 1_555 1_555
C13 C12 1_555 1_555
C14 C13 1_555 1_555
H17 C14 1_555 1_555
C15 C14 1_555 1_555
H18 C15 1_555 1_555
C16 C15 1_555 1_555
H19 C16 1_555 1_555
C17 C16 1_555 1_555
C18 C13 1_555 1_555
C19 C17 1_555 1_555
C20 C19 1_555 1_555
H20 C20 1_555 1_555
H21 C20 1_555 1_555
H22 C20 1_555 1_555
C21 C19 1_555 1_555
H23 C21 1_555 1_555
H24 C21 1_555 1_555
H25 C21 1_555 1_555
C22 C19 1_555 1_555
H26 C22 1_555 1_555
H27 C22 1_555 1_555
H28 C22 1_555 1_555
O1 C1 1_555 1_555
O2 C7 1_555 1_555
O3 C12 1_555 1_555
O4 C18 1_555 1_555
F1 Si1 1_555 1_555
Si1 O1 1_555 1_555
C23 H29 1_555 1_555
H30 C23 1_555 1_555
C24 C23 1_555 1_555
H31 C24 1_555 1_555
H32 C24 1_555 1_555
C25 H33 1_555 1_555
H34 C25 1_555 1_555
C26 C25 1_555 1_555
H35 C26 1_555 1_555
H36 C26 1_555 1_555
C27 H37 1_555 1_555
H38 C27 1_555 1_555
C28 C27 1_555 1_555
H39 C28 1_555 1_555
H40 C28 1_555 1_555
C29 H41 1_555 1_555
H42 C29 1_555 1_555
C30 C29 1_555 1_555
H43 C30 1_555 1_555
H44 C30 1_555 1_555
C31 H45 1_555 1_555
H46 C31 1_555 1_555
C32 C31 1_555 1_555
H47 C32 1_555 1_555
H48 C32 1_555 1_555
C33 H49 1_555 1_555
H50 C33 1_555 1_555
C34 C33 1_555 1_555
H51 C34 1_555 1_555
H52 C34 1_555 1_555
O5 C23 1_555 1_555
O6 C24 1_555 1_555
O7 C26 1_555 1_555
O8 C28 1_555 1_555
O9 C30 1_555 1_555
O10 C32 1_555 1_555
K1 O5 1_555 1_555
C35 H53 1_555 1_555
H54 C35 1_555 1_555
C36 C35 1_555 1_555
H55 C36 1_555 1_555
H56 C36 1_555 1_555
C37 C36 1_555 1_555
H57 C37 1_555 1_555
H58 C37 1_555 1_555
C38 C37 1_555 1_555
H59 C38 1_555 1_555
H60 C38 1_555 1_555
O11 C35 1_555 1_555
C39 H61 1_555 1_555
H62 C39 1_555 1_555
C40 C39 1_555 1_555
H63 C40 1_555 1_555
H64 C40 1_555 1_555
C41 C40 1_555 1_555
H65 C41 1_555 1_555
H66 C41 1_555 1_555
C42 C41 1_555 1_555
H67 C42 1_555 1_555
H68 C42 1_555 1_555
O12 C39 1_555 1_555
O13 C43 1_555 1_555
C43 H69 1_555 1_555
H70 C43 1_555 1_555
C44 C43 1_555 1_555
H71 C44 1_555 1_555
H72 C44 1_555 1_555
C45 C44 1_555 1_555
H73 C45 1_555 1_555
H74 C45 1_555 1_555
C46 O13 1_555 1_555
H75 C46 1_555 1_555
H76 C46 1_555 1_555
C6 C7 1_555 1_555
C17 C18 1_555 1_555
O2 Si1 1_555 1_555
O3 Si1 1_555 1_555
O4 Si1 1_555 1_555
C25 O6 1_555 1_555
C27 O7 1_555 1_555
C29 O8 1_555 1_555
C31 O9 1_555 1_555
C33 O10 1_555 1_555
C34 O5 1_555 1_555
O6 K1 1_555 1_555
O7 K1 1_555 1_555
O8 K1 1_555 1_555
O9 K1 1_555 1_555
O10 K1 1_555 1_555
C38 O11 1_555 1_555
C42 O12 1_555 1_555
C45 C46 1_555 1_555

#END
