
#######################################################################
#
#                 Cambridge Crystallographic Data Centre
#                                CCDC 
#
#######################################################################
#
# If this CIF has been generated from an entry in the Cambridge 
# Structural Database, then it will include bibliographic, chemical, 
# crystal, experimental, refinement or atomic coordinate data resulting 
# from the CCDC's data processing and validation procedures.
#
#######################################################################

data_GINJOD
_chemical_formula_moiety         'C25 H23 N1 O2,C2 H6 O1'
_chemical_name_systematic        
"3-(t-Butyliminomethyl)-1,1'-bi-2,2'-naphthol ethanol solvate"
_symmetry_cell_setting           triclinic
_symmetry_space_group_name_H-M   'P -1'
_symmetry_Int_Tables_number      2
_space_group_name_Hall           '-P 1'
loop_
_symmetry_equiv_pos_site_id
_symmetry_equiv_pos_as_xyz
1 x,y,z
2 -x,-y,-z
_cell_length_a                   10.538(2)
_cell_length_b                   10.883(2)
_cell_length_c                   11.628(2)
_cell_angle_alpha                74.27(3)
_cell_angle_beta                 63.15(3)
_cell_angle_gamma                81.66(3)
_cell_volume                     1144.84
_exptl_crystal_colour            red
_exptl_crystal_description       block
_cell_formula_units_Z            2
_exptl_crystal_recrystallization_method 'ethanol/methylene chloride'
loop_
_atom_site_label
_atom_site_type_symbol
_atom_site_fract_x
_atom_site_fract_y
_atom_site_fract_z
O1 O 0.23813(14) 0.25295(15) 0.00754(14)
H1 H 0.2308 0.2413 -0.0560
O2 O 0.29138(15) 0.51814(14) 0.13021(16)
H2 H 0.3533 0.5671 0.1126
N1 N 0.11745(18) 0.22122(17) -0.12695(17)
C1 C 0.1127(2) 0.3002(2) 0.0889(2)
C2 C 0.1015(2) 0.32673(19) 0.2017(2)
C3 C -0.0321(2) 0.36873(19) 0.2912(2)
C4 C -0.0533(2) 0.38853(19) 0.4145(2)
H3 H 0.0235 0.3789 0.4355
C5 C -0.1833(2) 0.4212(2) 0.5020(2)
H4 H -0.1951 0.4316 0.5831
C6 C -0.3004(2) 0.4397(2) 0.4716(2)
H5 H -0.3892 0.4622 0.5323
C7 C -0.2834(2) 0.4246(2) 0.3531(2)
H6 H -0.3610 0.4389 0.3328
C8 C -0.1503(2) 0.38757(19) 0.2599(2)
C9 C -0.1306(2) 0.3642(2) 0.1395(2)
H7 H -0.2062 0.3807 0.1164
C10 C -0.0050(2) 0.3184(2) 0.0554(2)
C11 C 0.0085(2) 0.2836(2) -0.0631(2)
H8 H -0.0631 0.3073 -0.0914
C12 C 0.1377(3) 0.1757(2) -0.2426(2)
C13 C 0.2872(3) 0.2117(3) -0.3442(3)
H9 H 0.3527 0.1765 -0.3063
H10 H 0.2935 0.3030 -0.3707
H11 H 0.3106 0.1784 -0.4201
C14 C 0.1281(3) 0.0320(2) -0.1994(3)
H12 H 0.0319 0.0092 -0.1381
H13 H 0.1900 -0.0020 -0.1573
H14 H 0.1563 -0.0025 -0.2755
C15 C 0.0337(3) 0.2332(3) -0.3008(3)
H15 H -0.0605 0.2055 -0.2381
H16 H 0.0600 0.2059 -0.3807
H17 H 0.0357 0.3247 -0.3205
C16 C 0.2282(2) 0.3038(2) 0.2312(2)
C17 C 0.3201(2) 0.3998(2) 0.1930(2)
C18 C 0.4422(2) 0.3778(2) 0.2172(2)
H18 H 0.5024 0.4444 0.1923
C19 C 0.4707(2) 0.2594(2) 0.2766(2)
H19 H 0.5528 0.2450 0.2900
C20 C 0.3808(2) 0.1575(2) 0.3187(2)
C21 C 0.4097(3) 0.0347(2) 0.3816(2)
H20 H 0.4917 0.0199 0.3950
C22 C 0.3207(3) -0.0630(3) 0.4234(3)
H21 H 0.3411 -0.1437 0.4656
C23 C 0.1980(3) -0.0410(2) 0.4022(2)
H22 H 0.1365 -0.1075 0.4311
C24 C 0.1670(2) 0.0769(2) 0.3398(2)
H23 H 0.0853 0.0893 0.3261
C25 C 0.2570(2) 0.1797(2) 0.2961(2)
O3 O 0.47214(17) 0.68639(16) 0.10162(18)
H24 H 0.5567 0.6966 0.0511
C26 C 0.4083(3) 0.8033(3) 0.1328(3)
H25 H 0.4742 0.8488 0.1426
H26 H 0.3242 0.7867 0.2168
C27 C 0.3677(4) 0.8845(3) 0.0288(3)
H27 H 0.3169 0.9596 0.0569
H28 H 0.3081 0.8374 0.0143
H29 H 0.4519 0.9089 -0.0521
loop_
_geom_bond_atom_site_label_1
_geom_bond_atom_site_label_2
_geom_bond_site_symmetry_1
_geom_bond_site_symmetry_2
O1 H1 1_555 1_555
O2 H2 1_555 1_555
N1 C11 1_555 1_555
C1 O1 1_555 1_555
C2 C1 1_555 1_555
C3 C2 1_555 1_555
C4 C3 1_555 1_555
H3 C4 1_555 1_555
C5 C4 1_555 1_555
H4 C5 1_555 1_555
C6 C5 1_555 1_555
H5 C6 1_555 1_555
C7 C6 1_555 1_555
H6 C7 1_555 1_555
C8 C3 1_555 1_555
C9 C8 1_555 1_555
H7 C9 1_555 1_555
C10 C1 1_555 1_555
C11 C10 1_555 1_555
H8 C11 1_555 1_555
C12 N1 1_555 1_555
C13 C12 1_555 1_555
H9 C13 1_555 1_555
H10 C13 1_555 1_555
H11 C13 1_555 1_555
C14 C12 1_555 1_555
H12 C14 1_555 1_555
H13 C14 1_555 1_555
H14 C14 1_555 1_555
C15 C12 1_555 1_555
H15 C15 1_555 1_555
H16 C15 1_555 1_555
H17 C15 1_555 1_555
C16 C2 1_555 1_555
C17 O2 1_555 1_555
C18 C17 1_555 1_555
H18 C18 1_555 1_555
C19 C18 1_555 1_555
H19 C19 1_555 1_555
C20 C19 1_555 1_555
C21 C20 1_555 1_555
H20 C21 1_555 1_555
C22 C21 1_555 1_555
H21 C22 1_555 1_555
C23 C22 1_555 1_555
H22 C23 1_555 1_555
C24 C23 1_555 1_555
H23 C24 1_555 1_555
C25 C16 1_555 1_555
O3 H24 1_555 1_555
C26 O3 1_555 1_555
H25 C26 1_555 1_555
H26 C26 1_555 1_555
C27 C26 1_555 1_555
H27 C27 1_555 1_555
H28 C27 1_555 1_555
H29 C27 1_555 1_555
C7 C8 1_555 1_555
C9 C10 1_555 1_555
C16 C17 1_555 1_555
C20 C25 1_555 1_555
C24 C25 1_555 1_555

#END
