
#######################################################################
#
#                 Cambridge Crystallographic Data Centre
#                                CCDC 
#
#######################################################################
#
# If this CIF has been generated from an entry in the Cambridge 
# Structural Database, then it will include bibliographic, chemical, 
# crystal, experimental, refinement or atomic coordinate data resulting 
# from the CCDC's data processing and validation procedures.
#
#######################################################################

data_GINJIZ
_chemical_name_common            'Dimericursone B ethyl acetate solvate'
_chemical_formula_moiety         'C39 H42 O3,0.5(C4 H8 O2)'
_chemical_name_systematic        
"1,6,9,9a,16-pentamethyl-11-methylidene-4,14-bis(prop-1-en-2-yl)-9a,10b,11,12,13,14,14a,17b-octahydro-3H-benzo[3',4']cyclohepta[1',2':5,6]benzo[1,2-a]benzo[e]azulene-7,10,17(4H)-trione ethyl acetate solvate"
_symmetry_cell_setting           monoclinic
_symmetry_space_group_name_H-M   'P 21'
_symmetry_Int_Tables_number      4
_space_group_name_Hall           'P 2yb'
loop_
_symmetry_equiv_pos_site_id
_symmetry_equiv_pos_as_xyz
1 x,y,z
2 -x,1/2+y,-z
_cell_length_a                   9.8979(3)
_cell_length_b                   22.3751(8)
_cell_length_c                   16.4276(5)
_cell_angle_alpha                90
_cell_angle_beta                 105.896(3)
_cell_angle_gamma                90
_cell_volume                     3499.04
_exptl_crystal_colour            'light yellow'
_exptl_crystal_description       block
_cell_formula_units_Z            4
loop_
_atom_site_label
_atom_site_type_symbol
_atom_site_fract_x
_atom_site_fract_y
_atom_site_fract_z
O1 O 0.5894(3) 0.22543(13) 0.86843(17)
O2 O 0.7986(3) 0.34904(13) 0.61798(19)
C1 C 0.6122(3) 0.36399(14) 0.86512(19)
O3 O 0.8435(4) 0.44894(18) 1.0311(2)
C2 C 0.7302(3) 0.39260(15) 0.9117(2)
C3 C 0.6945(3) 0.28399(14) 0.78155(19)
C4 C 0.4941(3) 0.32818(15) 0.9724(2)
C5 C 0.6155(3) 0.34339(14) 0.77751(19)
H1 H 0.518476 0.337375 0.743258
C6 C 0.8377(4) 0.21403(15) 0.8925(2)
C7 C 0.6953(3) 0.23860(14) 0.84857(19)
C8 C 0.7552(4) 0.33773(16) 0.6785(2)
C9 C 0.4887(3) 0.34829(14) 0.89254(19)
C10 C 0.7624(3) 0.27906(15) 0.72144(19)
C11 C 0.9073(4) 0.18522(15) 0.8468(2)
H2 H 0.998273 0.172697 0.873450
C12 C 0.3480(3) 0.35165(17) 0.8282(2)
C13 C 0.6145(4) 0.32832(18) 1.0435(2)
H3 H 0.611915 0.300551 1.085127
C14 C 0.8158(4) 0.41539(16) 0.7864(2)
C15 C 0.6914(3) 0.38415(15) 0.7269(2)
C16 C 0.8488(4) 0.17139(15) 0.7544(2)
H4 H 0.753898 0.155386 0.746592
C17 C 0.7331(4) 0.36241(19) 1.0607(2)
C18 C 0.7663(5) 0.20628(18) 0.6056(2)
C19 C 0.8362(4) 0.22698(15) 0.6954(2)
H5 H 0.931722 0.239903 0.697418
C20 C 0.7664(4) 0.40644(18) 1.0033(2)
C21 C 0.8310(4) 0.41617(16) 0.8692(2)
H6 H 0.912814 0.433182 0.903131
C22 C 0.3621(4) 0.29928(18) 0.9877(3)
H7 H 0.395161 0.267363 1.029278
C23 C 0.3171(4) 0.4030(2) 0.7671(3)
H8 H 0.317530 0.439634 0.797617
H9 H 0.226567 0.397430 0.727615
H10 H 0.387614 0.404838 0.736993
C24 C 0.2796(4) 0.3429(2) 1.0275(3)
C25 C 0.8880(5) 0.2238(2) 0.9873(2)
H11 H 0.903427 0.265631 0.998833
H12 H 0.974215 0.202372 1.009875
H13 H 0.818211 0.209415 1.013155
C26 C 0.2493(4) 0.3131(2) 0.8352(3)
H14 H 0.162230 0.313226 0.795168
C27 C 0.6409(5) 0.2239(2) 0.5599(3)
C28 C 0.5971(4) 0.42884(18) 0.6668(3)
H15 H 0.514597 0.408730 0.633708
H16 H 0.647346 0.445665 0.629953
H17 H 0.570097 0.460153 0.699142
C29 C 0.9368(6) 0.12236(19) 0.7266(3)
H18 H 1.028350 0.139879 0.728611
C30 C 0.2777(5) 0.2692(2) 0.9074(3)
H19 H 0.329367 0.235274 0.894717
H20 H 0.189497 0.254819 0.914916
C31 C 0.8397(6) 0.3586(3) 1.1462(3)
H21 H 0.835301 0.394298 1.177841
H22 H 0.932161 0.354631 1.138713
H23 H 0.819471 0.324564 1.176378
C32 C 0.9633(10) 0.0690(2) 0.7850(4)
C33 C 0.9169(5) 0.4484(2) 0.7489(4)
H24 H 0.950696 0.421998 0.712836
H25 H 0.994592 0.462662 0.793510
H26 H 0.869749 0.481741 0.716358
C34 C 0.8675(8) 0.1039(2) 0.6342(3)
H27 H 0.925998 0.074504 0.616608
H28 H 0.776931 0.085687 0.630025
C35 C 0.8481(6) 0.1583(2) 0.5756(3)
H29 H 0.939224 0.173792 0.574785
H30 H 0.798342 0.146516 0.518416
C36 C 0.1468(6) 0.3573(4) 0.9936(5)
C37 C 0.3562(8) 0.3715(4) 1.1085(4)
H31 H 0.396846 0.341208 1.149212
H32 H 0.292020 0.395213 1.129417
H33 H 0.429255 0.396667 1.099351
C38 C 0.8386(14) 0.0394(3) 0.8004(5)
H34 H 0.796980 0.065283 0.833410
H35 H 0.866767 0.002703 0.830577
H36 H 0.771435 0.031032 0.747272
C39 C 1.0983(15) 0.0517(4) 0.8208(6)
H37 H 1.160(11) 0.075(6) 0.793(8)
H38 H 1.116(14) 0.016(7) 0.847(8)
H39 H 0.592(5) 0.204(2) 0.501(3)
H40 H 0.089(8) 0.345(4) 0.934(3)
H41 H 0.577(5) 0.255(2) 0.579(3)
H42 H 0.102(6) 0.395(3) 1.025(4)
O4 O 0.5635(3) 0.23667(12) 1.19975(16)
O5 O 0.6426(3) 0.02124(16) 1.4301(2)
O6 O 0.1692(3) 0.24668(16) 1.4002(3)
C40 C 0.3689(3) 0.26427(15) 1.3465(2)
C41 C 0.5576(3) 0.24632(14) 1.2712(2)
C42 C 0.4279(3) 0.23137(14) 1.29661(19)
C43 C 0.4518(3) 0.12203(14) 1.2669(2)
C44 C 0.7418(4) 0.05607(16) 1.3275(2)
C45 C 0.6284(4) 0.05360(16) 1.3678(2)
C46 C 0.6793(3) 0.26739(15) 1.3398(2)
C47 C 0.5373(4) 0.35402(15) 1.3672(2)
H43 H 0.511184 0.363238 1.306573
C48 C 0.3699(4) 0.11479(16) 1.1069(2)
C49 C 0.4850(4) 0.11067(13) 1.1873(2)
C50 C 0.4076(3) 0.32466(15) 1.3869(2)
H44 H 0.430470 0.319057 1.448356
C51 C 0.2504(4) 0.23020(19) 1.3620(3)
C52 C 0.7338(4) 0.07696(16) 1.2493(2)
H45 H 0.819851 0.078947 1.236790
C53 C 0.5061(4) 0.09482(15) 1.3434(2)
C54 C 0.6649(4) 0.31489(16) 1.3853(2)
H46 H 0.739436 0.324532 1.431720
C55 C 0.3117(5) 0.1280(2) 1.4002(3)
C56 C 0.4334(4) 0.10036(19) 1.4089(3)
H47 H 0.475768 0.083110 1.461142
C57 C 0.3481(3) 0.17311(15) 1.2660(2)
H48 H 0.290807 0.178945 1.207618
C58 C 0.2881(4) 0.36963(18) 1.3627(3)
C59 C 0.2480(4) 0.16670(18) 1.3240(3)
C60 C 0.5736(4) 0.41421(16) 1.4157(2)
H49 H 0.601236 0.404849 1.476298
C61 C 0.6174(4) 0.09661(14) 1.1820(2)
C62 C 0.6979(6) 0.4447(2) 1.3959(3)
C63 C 0.6527(5) 0.10307(18) 1.0971(3)
H50 H 0.744946 0.122450 1.110002
C64 C 0.4029(6) 0.1311(2) 1.0368(3)
H51 H 0.332318 0.133458 0.986185
C65 C 0.8782(4) 0.0299(2) 1.3806(3)
H52 H 0.911160 0.052916 1.431601
H53 H 0.946992 0.030993 1.349287
H54 H 0.863181 -0.010676 1.394845
C66 C 0.2277(4) 0.0900(2) 1.1040(3)
H55 H 0.232266 0.069592 1.156064
H56 H 0.198923 0.062553 1.057602
H57 H 0.161116 0.122140 1.096529
C67 C 0.5506(6) 0.1457(2) 1.0374(3)
H58 H 0.571967 0.186585 1.055981
H59 H 0.561026 0.141951 0.980608
C68 C 0.1776(5) 0.3644(3) 1.2975(4)
C69 C 0.6702(7) 0.0431(2) 1.0582(3)
C70 C 0.8123(4) 0.2320(2) 1.3515(3)
H60 H 0.795968 0.191289 1.364778
H61 H 0.884776 0.248889 1.396850
H62 H 0.840932 0.233089 1.300182
C71 C 0.3196(5) 0.4251(2) 1.4153(3)
H63 H 0.338110 0.414909 1.474750
H64 H 0.239360 0.451796 1.400479
C72 C 0.4479(5) 0.45597(19) 1.3995(3)
H65 H 0.424895 0.469923 1.341453
H66 H 0.472153 0.490517 1.436337
C73 C 0.0977(4) 0.1487(2) 1.2777(4)
H67 H 0.039677 0.151415 1.315763
H68 H 0.096946 0.108397 1.257594
H69 H 0.061972 0.175056 1.230543
C74 C 0.5484(8) 0.0017(3) 1.0375(5)
H70 H 0.511959 -0.002277 1.085672
H71 H 0.577912 -0.036721 1.022764
H72 H 0.476586 0.017325 0.990539
C75 C 0.2350(7) 0.1214(3) 1.4676(4)
H73 H 0.285935 0.094504 1.510680
H74 H 0.142592 0.105751 1.442613
H75 H 0.227691 0.159722 1.492307
C76 C 0.8138(8) 0.4574(4) 1.4586(6)
H76 H 0.829(10) 0.445(5) 1.517(6)
H77 H 0.884(10) 0.476(5) 1.451(6)
C77 C 0.6877(9) 0.4603(4) 1.3071(5)
H78 H 0.693507 0.424537 1.275873
H79 H 0.763397 0.486615 1.305224
H80 H 0.599653 0.479800 1.282368
C78 C 0.8015(11) 0.0307(5) 1.0487(6)
H81 H 0.740(11) 0.044(6) 0.990(4)
H82 H 0.799(12) -0.009(3) 1.020(7)
H83 H 0.147(6) 0.330(3) 1.261(3)
H84 H 0.109(6) 0.401(3) 1.283(3)
O7 O 0.3528(4) 0.3098(2) 0.5982(3)
O8 O 0.2226(4) 0.2382(2) 0.6321(3)
C79 C 0.2383(5) 0.2895(3) 0.5958(3)
C80 C 0.1031(6) 0.3192(4) 0.5542(4)
H85 H 0.115954 0.345840 0.511088
H86 H 0.071556 0.341445 0.595462
H87 H 0.034316 0.289520 0.528989
C81 C 0.3228(11) 0.1514(5) 0.7084(7)
H88 H 0.259803 0.128475 0.664751
H89 H 0.280437 0.158463 0.753569
H90 H 0.408968 0.129714 0.729770
C82 C 0.3518(7) 0.2079(4) 0.6740(6)
H91 H 0.406265 0.201084 0.633994
H92 H 0.406966 0.232856 0.719342
loop_
_geom_bond_atom_site_label_1
_geom_bond_atom_site_label_2
_geom_bond_site_symmetry_1
_geom_bond_site_symmetry_2
O1 C7 1_555 1_555
O2 C8 1_555 1_555
C1 C2 1_555 1_555
O3 C20 1_555 1_555
C2 C20 1_555 1_555
C3 C5 1_555 1_555
C4 C9 1_555 1_555
C5 C1 1_555 1_555
H1 C5 1_555 1_555
C6 C7 1_555 1_555
C7 C3 1_555 1_555
C8 C10 1_555 1_555
C9 C1 1_555 1_555
C10 C3 1_555 1_555
C11 C6 1_555 1_555
H2 C11 1_555 1_555
C12 C9 1_555 1_555
C13 C4 1_555 1_555
H3 C13 1_555 1_555
C14 C15 1_555 1_555
C15 C5 1_555 1_555
C16 C11 1_555 1_555
H4 C16 1_555 1_555
C17 C13 1_555 1_555
C18 C19 1_555 1_555
C19 C10 1_555 1_555
H5 C19 1_555 1_555
C20 C17 1_555 1_555
C21 C2 1_555 1_555
H6 C21 1_555 1_555
C22 C4 1_555 1_555
H7 C22 1_555 1_555
C23 C12 1_555 1_555
H8 C23 1_555 1_555
H9 C23 1_555 1_555
H10 C23 1_555 1_555
C24 C22 1_555 1_555
C25 C6 1_555 1_555
H11 C25 1_555 1_555
H12 C25 1_555 1_555
H13 C25 1_555 1_555
C26 C12 1_555 1_555
H14 C26 1_555 1_555
C27 C18 1_555 1_555
C28 C15 1_555 1_555
H15 C28 1_555 1_555
H16 C28 1_555 1_555
H17 C28 1_555 1_555
C29 C16 1_555 1_555
H18 C29 1_555 1_555
C30 C22 1_555 1_555
H19 C30 1_555 1_555
H20 C30 1_555 1_555
C31 C17 1_555 1_555
H21 C31 1_555 1_555
H22 C31 1_555 1_555
H23 C31 1_555 1_555
C32 C29 1_555 1_555
C33 C14 1_555 1_555
H24 C33 1_555 1_555
H25 C33 1_555 1_555
H26 C33 1_555 1_555
C34 C29 1_555 1_555
H27 C34 1_555 1_555
H28 C34 1_555 1_555
C35 C18 1_555 1_555
H29 C35 1_555 1_555
H30 C35 1_555 1_555
C36 C24 1_555 1_555
C37 C24 1_555 1_555
H31 C37 1_555 1_555
H32 C37 1_555 1_555
H33 C37 1_555 1_555
C38 C32 1_555 1_555
H34 C38 1_555 1_555
H35 C38 1_555 1_555
H36 C38 1_555 1_555
C39 C32 1_555 1_555
H37 C39 1_555 1_555
H38 C39 1_555 1_555
H39 C27 1_555 1_555
H40 C36 1_555 1_555
H41 C27 1_555 1_555
H42 C36 1_555 1_555
O4 C41 1_555 1_555
O5 C45 1_555 1_555
O6 C51 1_555 1_555
C40 C42 1_555 1_555
C41 C42 1_555 1_555
C42 C57 1_555 1_555
C43 C49 1_555 1_555
C44 C45 1_555 1_555
C45 C53 1_555 1_555
C46 C41 1_555 1_555
C47 H43 1_555 1_555
C48 C49 1_555 1_555
C49 C61 1_555 1_555
C50 C40 1_555 1_555
H44 C50 1_555 1_555
C51 C40 1_555 1_555
C52 C44 1_555 1_555
H45 C52 1_555 1_555
C53 C43 1_555 1_555
C54 C46 1_555 1_555
H46 C54 1_555 1_555
C55 C56 1_555 1_555
C56 C53 1_555 1_555
H47 C56 1_555 1_555
C57 C43 1_555 1_555
H48 C57 1_555 1_555
C58 C50 1_555 1_555
C59 C51 1_555 1_555
C60 C47 1_555 1_555
H49 C60 1_555 1_555
C61 C52 1_555 1_555
C62 C60 1_555 1_555
C63 C61 1_555 1_555
H50 C63 1_555 1_555
C64 C48 1_555 1_555
H51 C64 1_555 1_555
C65 C44 1_555 1_555
H52 C65 1_555 1_555
H53 C65 1_555 1_555
H54 C65 1_555 1_555
C66 C48 1_555 1_555
H55 C66 1_555 1_555
H56 C66 1_555 1_555
H57 C66 1_555 1_555
C67 C63 1_555 1_555
H58 C67 1_555 1_555
H59 C67 1_555 1_555
C68 C58 1_555 1_555
C69 C63 1_555 1_555
C70 C46 1_555 1_555
H60 C70 1_555 1_555
H61 C70 1_555 1_555
H62 C70 1_555 1_555
C71 C58 1_555 1_555
H63 C71 1_555 1_555
H64 C71 1_555 1_555
C72 C60 1_555 1_555
H65 C72 1_555 1_555
H66 C72 1_555 1_555
C73 C59 1_555 1_555
H67 C73 1_555 1_555
H68 C73 1_555 1_555
H69 C73 1_555 1_555
C74 C69 1_555 1_555
H70 C74 1_555 1_555
H71 C74 1_555 1_555
H72 C74 1_555 1_555
C75 C55 1_555 1_555
H73 C75 1_555 1_555
H74 C75 1_555 1_555
H75 C75 1_555 1_555
C76 C62 1_555 1_555
H76 C76 1_555 1_555
H77 C76 1_555 1_555
C77 C62 1_555 1_555
H78 C77 1_555 1_555
H79 C77 1_555 1_555
H80 C77 1_555 1_555
C78 C69 1_555 1_555
H81 C78 1_555 1_555
H82 C78 1_555 1_555
H83 C68 1_555 1_555
H84 C68 1_555 1_555
O7 C79 1_555 1_555
O8 C79 1_555 1_555
C79 C80 1_555 1_555
C80 H85 1_555 1_555
H86 C80 1_555 1_555
H87 C80 1_555 1_555
C81 H88 1_555 1_555
H89 C81 1_555 1_555
H90 C81 1_555 1_555
C82 O8 1_555 1_555
H91 C82 1_555 1_555
H92 C82 1_555 1_555
C8 C15 1_555 1_555
C14 C21 1_555 1_555
C16 C19 1_555 1_555
C26 C30 1_555 1_555
C34 C35 1_555 1_555
C47 C50 1_555 1_555
C47 C54 1_555 1_555
C55 C59 1_555 1_555
C57 C59 1_555 1_555
C64 C67 1_555 1_555
C71 C72 1_555 1_555
C81 C82 1_555 1_555

#END
