
#######################################################################
#
#                 Cambridge Crystallographic Data Centre
#                                CCDC 
#
#######################################################################
#
# If this CIF has been generated from an entry in the Cambridge 
# Structural Database, then it will include bibliographic, chemical, 
# crystal, experimental, refinement or atomic coordinate data resulting 
# from the CCDC's data processing and validation procedures.
#
#######################################################################

data_GINLOH
_chemical_formula_moiety         'C21 H22 N2 O1'
_chemical_name_systematic        
2-phenyl-7a-(1-phenylprop-2-en-1-yl)hexahydro-1H-pyrrolo[1,2-c]imidazol-1-one
_symmetry_cell_setting           monoclinic
_symmetry_space_group_name_H-M   'P 21'
_symmetry_Int_Tables_number      4
_space_group_name_Hall           'P 2yb'
loop_
_symmetry_equiv_pos_site_id
_symmetry_equiv_pos_as_xyz
1 x,y,z
2 -x,1/2+y,-z
_cell_length_a                   6.43884(10)
_cell_length_b                   19.6775(3)
_cell_length_c                   13.6244(2)
_cell_angle_alpha                90
_cell_angle_beta                 98.2396(15)
_cell_angle_gamma                90
_cell_volume                     1708.4
_exptl_crystal_colour            'light colorless'
_exptl_crystal_description       block
_cell_formula_units_Z            4
loop_
_atom_site_label
_atom_site_type_symbol
_atom_site_fract_x
_atom_site_fract_y
_atom_site_fract_z
O1 O 1.2810(3) 0.50499(10) 0.46858(15)
N1 N 0.9305(3) 0.48068(11) 0.41848(15)
N2 N 0.7795(3) 0.57801(11) 0.47491(15)
C1 C 0.9377(4) 0.41541(13) 0.37530(17)
C2 C 0.7249(4) 0.57039(13) 0.57602(18)
H1 H 0.7472 0.5241 0.5997
H2 H 0.5801 0.5831 0.5783
C3 C 1.1250(4) 0.37926(14) 0.37742(19)
H3 H 1.2510 0.3980 0.4072
C4 C 1.0090(4) 0.58864(13) 0.48498(18)
C5 C 1.0791(4) 0.60656(14) 0.59538(18)
H4 H 1.1564 0.5693 0.6299
H5 H 1.1666 0.6469 0.6017
C6 C 0.7309(4) 0.51822(13) 0.41356(18)
H6 H 0.6790 0.5311 0.3458
H7 H 0.6255 0.4906 0.4389
C7 C 0.9774(4) 0.63118(13) 0.30584(19)
C8 C 0.7827(5) 0.65539(14) 0.2647(2)
H8 H 0.7052 0.6819 0.3028
C9 C 1.0909(5) 0.59151(15) 0.2473(2)
H9 H 1.2220 0.5748 0.2741
C10 C 1.1218(5) 0.31510(15) 0.3347(2)
H10 H 1.2465 0.2909 0.3369
C11 C 0.8159(5) 0.60148(16) 0.1091(2)
H11 H 0.7621 0.5921 0.0435
C12 C 0.7523(4) 0.38654(14) 0.3287(2)
H12 H 0.6271 0.4104 0.3262
C13 C 0.8750(4) 0.61908(15) 0.63596(19)
H13 H 0.8891 0.6088 0.7062
H14 H 0.8290 0.6658 0.6254
C14 C 1.2858(5) 0.66641(16) 0.4284(2)
H15 H 1.3818 0.6343 0.4127
C15 C 1.0602(5) 0.64727(15) 0.4138(2)
H16 H 0.9831 0.6874 0.4313
C16 C 1.3599(6) 0.72637(18) 0.4625(3)
H17 H 1.2682 0.7596 0.4789
H18 H 1.5033 0.7350 0.4698
C17 C 1.0956(4) 0.52038(14) 0.45691(17)
C18 C 1.0102(5) 0.57663(17) 0.1494(2)
H19 H 1.0870 0.5500 0.1111
C19 C 0.7018(5) 0.64042(16) 0.1671(2)
H20 H 0.5701 0.6567 0.1405
C20 C 0.9369(5) 0.28640(15) 0.2889(2)
H21 H 0.9370 0.2434 0.2605
C21 C 0.7517(5) 0.32259(15) 0.2858(2)
H22 H 0.6264 0.3040 0.2548
O2 O 1.6352(3) 0.48240(11) 0.77966(15)
N3 N 1.1431(3) 0.40234(11) 0.78125(15)
N4 N 1.3046(3) 0.50683(11) 0.81763(15)
C22 C 1.1156(4) 0.46716(13) 0.82879(19)
H23 H 1.1035 0.4607 0.8983
H24 H 0.9905 0.4900 0.7968
C23 C 1.4208(4) 0.36808(14) 0.95919(19)
C24 C 1.1751(4) 0.60162(14) 0.90425(18)
H25 H 1.0602 0.5754 0.9148
C25 C 1.0295(4) 0.39600(14) 0.67972(19)
H26 H 1.0294 0.4386 0.6438
H27 H 0.8858 0.3813 0.6802
C26 C 1.4965(4) 0.61479(15) 0.8347(2)
H28 H 1.5968 0.5976 0.7986
C27 C 1.2522(4) 0.34037(15) 0.9979(2)
H29 H 1.1773 0.3048 0.9647
C28 C 1.3682(4) 0.39414(13) 0.77525(18)
C29 C 1.1955(5) 0.66793(15) 0.9402(2)
H30 H 1.0944 0.6858 0.9753
C30 C 1.7709(4) 0.27311(15) 0.8250(2)
H31 H 1.6794 0.2379 0.8035
H32 H 1.9144 0.2677 0.8249
C31 C 1.4680(4) 0.34391(13) 0.85829(19)
H33 H 1.3966 0.3002 0.8452
C32 C 1.6965(4) 0.33137(14) 0.8559(2)
H34 H 1.7911 0.3659 0.8770
C33 C 1.1563(5) 0.34240(14) 0.6358(2)
H35 H 1.1250 0.3416 0.5640
H36 H 1.1316 0.2976 0.6616
C34 C 1.5138(5) 0.68072(15) 0.8716(2)
H37 H 1.6276 0.7073 0.8606
C35 C 1.4577(4) 0.46584(14) 0.79046(18)
C36 C 1.3274(4) 0.57470(13) 0.85238(17)
C37 C 1.3656(5) 0.70732(15) 0.9241(2)
H38 H 1.3795 0.7515 0.9485
C38 C 1.3802(4) 0.36623(16) 0.67013(19)
H39 H 1.4211 0.4015 0.6270
H40 H 1.4787 0.3288 0.6722
C39 C 1.5341(5) 0.42075(15) 1.0115(2)
H41 H 1.6497 0.4394 0.9876
C40 C 1.1933(5) 0.36473(18) 1.0852(2)
H42 H 1.0793 0.3456 1.1099
C41 C 1.3042(6) 0.41754(17) 1.1356(2)
H43 H 1.2640 0.4342 1.1939
C42 C 1.4742(6) 0.44525(17) 1.0991(2)
H44 H 1.5492 0.4805 1.1331
loop_
_geom_bond_atom_site_label_1
_geom_bond_atom_site_label_2
_geom_bond_site_symmetry_1
_geom_bond_site_symmetry_2
O1 C17 1_555 1_555
N1 C1 1_555 1_555
N2 C2 1_555 1_555
C1 C3 1_555 1_555
C2 H1 1_555 1_555
H2 C2 1_555 1_555
C3 H3 1_555 1_555
C4 N2 1_555 1_555
C5 C4 1_555 1_555
H4 C5 1_555 1_555
H5 C5 1_555 1_555
C6 N1 1_555 1_555
H6 C6 1_555 1_555
H7 C6 1_555 1_555
C7 C8 1_555 1_555
C8 H8 1_555 1_555
C9 C7 1_555 1_555
H9 C9 1_555 1_555
C10 C3 1_555 1_555
H10 C10 1_555 1_555
C11 H11 1_555 1_555
C12 C1 1_555 1_555
H12 C12 1_555 1_555
C13 C2 1_555 1_555
H13 C13 1_555 1_555
H14 C13 1_555 1_555
C14 H15 1_555 1_555
C15 C4 1_555 1_555
H16 C15 1_555 1_555
C16 C14 1_555 1_555
H17 C16 1_555 1_555
H18 C16 1_555 1_555
C17 N1 1_555 1_555
C18 C9 1_555 1_555
H19 C18 1_555 1_555
C19 C8 1_555 1_555
H20 C19 1_555 1_555
C20 C10 1_555 1_555
H21 C20 1_555 1_555
C21 C12 1_555 1_555
H22 C21 1_555 1_555
O2 C35 1_555 1_555
N3 C22 1_555 1_555
N4 C22 1_555 1_555
C22 H23 1_555 1_555
H24 C22 1_555 1_555
C23 C27 1_555 1_555
C24 H25 1_555 1_555
C25 N3 1_555 1_555
H26 C25 1_555 1_555
H27 C25 1_555 1_555
C26 H28 1_555 1_555
C27 H29 1_555 1_555
C28 N3 1_555 1_555
C29 C24 1_555 1_555
H30 C29 1_555 1_555
C30 H31 1_555 1_555
H32 C30 1_555 1_555
C31 C23 1_555 1_555
H33 C31 1_555 1_555
C32 C30 1_555 1_555
H34 C32 1_555 1_555
C33 C25 1_555 1_555
H35 C33 1_555 1_555
H36 C33 1_555 1_555
C34 C26 1_555 1_555
H37 C34 1_555 1_555
C35 N4 1_555 1_555
C36 N4 1_555 1_555
C37 C29 1_555 1_555
H38 C37 1_555 1_555
C38 C28 1_555 1_555
H39 C38 1_555 1_555
H40 C38 1_555 1_555
C39 C23 1_555 1_555
H41 C39 1_555 1_555
C40 C27 1_555 1_555
H42 C40 1_555 1_555
C41 C40 1_555 1_555
H43 C41 1_555 1_555
C42 C39 1_555 1_555
H44 C42 1_555 1_555
N2 C6 1_555 1_555
C4 C17 1_555 1_555
C5 C13 1_555 1_555
C7 C15 1_555 1_555
C11 C18 1_555 1_555
C11 C19 1_555 1_555
C14 C15 1_555 1_555
C20 C21 1_555 1_555
C24 C36 1_555 1_555
C26 C36 1_555 1_555
C28 C31 1_555 1_555
C28 C35 1_555 1_555
C31 C32 1_555 1_555
C33 C38 1_555 1_555
C34 C37 1_555 1_555
C41 C42 1_555 1_555

#END
