
#######################################################################
#
#                 Cambridge Crystallographic Data Centre
#                                CCDC 
#
#######################################################################
#
# If this CIF has been generated from an entry in the Cambridge 
# Structural Database, then it will include bibliographic, chemical, 
# crystal, experimental, refinement or atomic coordinate data resulting 
# from the CCDC's data processing and validation procedures.
#
#######################################################################

data_GINLIB
_chemical_formula_moiety         'C21 H22 N2 O1'
_chemical_name_systematic        
2-phenyl-7a-(1-phenylprop-2-en-1-yl)hexahydro-1H-pyrrolo[1,2-c]imidazol-1-one
_symmetry_cell_setting           orthorhombic
_symmetry_space_group_name_H-M   'P 21 21 21'
_symmetry_Int_Tables_number      19
_space_group_name_Hall           'P 2ac 2ab'
loop_
_symmetry_equiv_pos_site_id
_symmetry_equiv_pos_as_xyz
1 x,y,z
2 1/2-x,-y,1/2+z
3 -x,1/2+y,1/2-z
4 1/2+x,1/2-y,-z
_cell_length_a                   6.31690(6)
_cell_length_b                   7.89306(9)
_cell_length_c                   34.2842(3)
_cell_angle_alpha                90
_cell_angle_beta                 90
_cell_angle_gamma                90
_cell_volume                     1709.4
_exptl_crystal_colour            'light colorless'
_exptl_crystal_description       block
_cell_formula_units_Z            4
loop_
_atom_site_label
_atom_site_type_symbol
_atom_site_fract_x
_atom_site_fract_y
_atom_site_fract_z
O1 O 0.29154(17) 0.67266(17) 0.34995(3)
N1 N 0.6428(2) 0.75613(17) 0.34993(4)
N2 N 0.7236(2) 0.72679(18) 0.41598(4)
C1 C 0.8223(2) 0.7437(2) 0.37760(4)
H1 H 0.9094 0.6457 0.3718
H2 H 0.9097 0.8445 0.3764
C2 C 0.5930(3) 0.3145(2) 0.35536(5)
H3 H 0.4578 0.3367 0.3459
C3 C 0.4891(2) 0.4679(2) 0.41707(4)
H4 H 0.3476 0.4324 0.4087
C4 C 0.5413(3) 0.9322(2) 0.25138(5)
H5 H 0.4310 0.9801 0.2372
C5 C 0.5068(2) 0.6614(2) 0.40928(4)
C6 C 0.9945(3) 0.2411(2) 0.38317(5)
H6 H 1.1281 0.2146 0.3928
C7 C 0.8715(3) 0.7875(2) 0.29365(4)
H7 H 0.9817 0.7381 0.3076
C8 C 0.3616(3) 0.3470(2) 0.47992(5)
H8 H 0.2392 0.3091 0.4676
H9 H 0.3814 0.3268 0.5064
C9 C 0.9387(3) 0.1916(2) 0.34573(5)
H10 H 1.0352 0.1343 0.3301
C10 C 0.3574(3) 0.7682(2) 0.43538(5)
H11 H 0.2755 0.8474 0.4199
H12 H 0.2614 0.6962 0.4500
C11 C 0.7020(3) 0.8899(2) 0.43662(5)
H13 H 0.6777 0.9820 0.4184
H14 H 0.8271 0.9146 0.4520
C12 C 0.7375(3) 0.2284(2) 0.33191(5)
H15 H 0.6989 0.1955 0.3069
C13 C 0.7402(3) 0.9191(3) 0.23467(5)
H16 H 0.7634 0.9589 0.2095
C14 C 0.9054(3) 0.8461(3) 0.25572(5)
H17 H 1.0387 0.8363 0.2445
C15 C 0.5095(3) 0.8615(2) 0.46269(5)
H18 H 0.4498 0.9682 0.4715
H19 H 0.5451 0.7928 0.4852
C16 C 0.4619(2) 0.6961(2) 0.36611(4)
C17 C 0.6718(2) 0.80351(19) 0.31048(4)
C18 C 0.5044(3) 0.8744(2) 0.28918(4)
H20 H 0.3702 0.8828 0.3002
C19 C 0.6484(3) 0.3681(2) 0.39289(4)
C20 C 0.5069(3) 0.4293(2) 0.45984(4)
H21 H 0.6276 0.4656 0.4729
C21 C 0.8518(3) 0.3305(2) 0.40648(4)
H22 H 0.8924 0.3654 0.4313
loop_
_geom_bond_atom_site_label_1
_geom_bond_atom_site_label_2
_geom_bond_site_symmetry_1
_geom_bond_site_symmetry_2
O1 C16 1_555 1_555
N1 C1 1_555 1_555
N2 C1 1_555 1_555
C1 H1 1_555 1_555
H2 C1 1_555 1_555
C2 H3 1_555 1_555
C3 H4 1_555 1_555
C4 H5 1_555 1_555
C5 N2 1_555 1_555
C6 H6 1_555 1_555
C7 H7 1_555 1_555
C8 H8 1_555 1_555
H9 C8 1_555 1_555
C9 C6 1_555 1_555
H10 C9 1_555 1_555
C10 C5 1_555 1_555
H11 C10 1_555 1_555
H12 C10 1_555 1_555
C11 N2 1_555 1_555
H13 C11 1_555 1_555
H14 C11 1_555 1_555
C12 C2 1_555 1_555
H15 C12 1_555 1_555
C13 C4 1_555 1_555
H16 C13 1_555 1_555
C14 C7 1_555 1_555
H17 C14 1_555 1_555
C15 C10 1_555 1_555
H18 C15 1_555 1_555
H19 C15 1_555 1_555
C16 N1 1_555 1_555
C17 N1 1_555 1_555
C18 C4 1_555 1_555
H20 C18 1_555 1_555
C19 C2 1_555 1_555
C20 C3 1_555 1_555
H21 C20 1_555 1_555
C21 C6 1_555 1_555
H22 C21 1_555 1_555
C3 C5 1_555 1_555
C3 C19 1_555 1_555
C5 C16 1_555 1_555
C7 C17 1_555 1_555
C8 C20 1_555 1_555
C9 C12 1_555 1_555
C11 C15 1_555 1_555
C13 C14 1_555 1_555
C17 C18 1_555 1_555
C19 C21 1_555 1_555

#END
