
#######################################################################
#
#                 Cambridge Crystallographic Data Centre
#                                CCDC 
#
#######################################################################
#
# If this CIF has been generated from an entry in the Cambridge 
# Structural Database, then it will include bibliographic, chemical, 
# crystal, experimental, refinement or atomic coordinate data resulting 
# from the CCDC's data processing and validation procedures.
#
#######################################################################

data_GINLAT
_chemical_formula_moiety         'C35 H27 I1 N2 O6'
_chemical_name_systematic        
'3-{3-hydroxy-1-[(naphthalen-1-yl)methyl]-2-oxo-2,3-dihydro-1H-indol-3-yl}-2-iodo-3-phenylpropyl 4-nitrobenzoate'
_symmetry_cell_setting           triclinic
_symmetry_space_group_name_H-M   'P -1'
_symmetry_Int_Tables_number      2
_space_group_name_Hall           '-P 1'
loop_
_symmetry_equiv_pos_site_id
_symmetry_equiv_pos_as_xyz
1 x,y,z
2 -x,-y,-z
_cell_length_a                   8.5130(18)
_cell_length_b                   13.017(3)
_cell_length_c                   14.940(3)
_cell_angle_alpha                81.552(9)
_cell_angle_beta                 82.416(10)
_cell_angle_gamma                71.669(8)
_cell_volume                     1547.99
_exptl_crystal_colour            colorless
_exptl_crystal_description       block
_cell_formula_units_Z            2
loop_
_atom_site_label
_atom_site_type_symbol
_atom_site_fract_x
_atom_site_fract_y
_atom_site_fract_z
I1 I 0.6394(2) 0.88038(13) 0.42497(15)
C1 C 1.329(2) 0.2636(16) 0.1288(11)
O1 O 1.0982(12) 0.4501(9) 0.3946(7)
N1 N -0.217(3) 1.056(2) 0.767(2)
O2 O 0.4101(16) 0.7583(13) 0.5551(10)
C2 C 1.522(3) 0.083(2) 0.134(2)
H1 H 1.562868 0.012956 0.163417
O3 O 0.7598(12) 0.4761(8) 0.4809(6)
C3 C 1.393(3) 0.1582(18) 0.1730(16)
H2 H 1.346328 0.139977 0.230488
N2 N 0.9672(15) 0.4027(11) 0.2914(8)
O4 O 0.233(2) 0.7702(16) 0.4597(13)
C4 C 1.593(3) 0.114(4) 0.046(2)
H3 H 1.686886 0.064503 0.020640
O5 O -0.340(3) 1.107(2) 0.7378(19)
C5 C 1.404(2) 0.291(2) 0.0403(14)
O6 O -0.190(4) 1.052(2) 0.847(2)
C6 C 1.536(3) 0.204(3) 0.0012(17)
H4 H 1.579764 0.216289 -0.058552
C7 C 1.348(3) 0.393(3) -0.0037(12)
H5 H 1.400609 0.410610 -0.059877
C8 C 1.220(3) 0.467(2) 0.0323(12)
H6 H 1.180486 0.535143 -0.000353
C9 C 1.141(2) 0.4452(14) 0.1198(10)
H7 H 1.054706 0.499393 0.145616
C10 C 1.111(2) 0.3155(12) 0.2592(11)
H8 H 1.076837 0.251604 0.257349
H9 H 1.194198 0.296328 0.302561
C11 C 1.1921(18) 0.3460(14) 0.1640(10)
C12 C 0.575(2) 0.4147(17) 0.2009(11)
H10 H 0.532527 0.388983 0.157429
C13 C 0.748(2) 0.3806(14) 0.2062(10)
H11 H 0.820181 0.331342 0.168927
C14 C 0.8059(17) 0.4249(12) 0.2708(9)
C15 C 0.468(2) 0.4836(17) 0.2568(12)
H12 H 0.354170 0.504017 0.252327
C16 C 0.5311(19) 0.5235(14) 0.3211(11)
H13 H 0.458042 0.569702 0.360378
C17 C 0.6975(17) 0.4962(11) 0.3276(9)
C18 C 0.7938(17) 0.5241(11) 0.3892(8)
C19 C 0.9725(16) 0.4604(12) 0.3597(9)
C20 C 0.7894(15) 0.6425(12) 0.3896(9)
H14 H 0.864607 0.642229 0.434045
C21 C 0.6140(19) 0.7200(11) 0.4204(10)
H15 H 0.537635 0.725889 0.374849
C22 C 0.5417(19) 0.6818(14) 0.5111(11)
H16 H 0.503173 0.621162 0.503592
H17 H 0.630399 0.653903 0.551051
C23 C 0.8613(19) 0.6868(13) 0.2949(11)
C24 C 0.769(2) 0.7148(15) 0.2208(12)
H18 H 0.663745 0.705754 0.226279
C25 C 0.834(3) 0.7572(17) 0.1370(12)
H19 H 0.769746 0.781995 0.087956
C26 C 0.997(3) 0.761(2) 0.1293(19)
H20 H 1.045037 0.785265 0.073865
C27 C 1.088(2) 0.7292(17) 0.2045(18)
H21 H 1.196734 0.731168 0.200686
C28 C 1.014(2) 0.6957(14) 0.2821(12)
H22 H 1.075655 0.676493 0.332331
C29 C 0.269(4) 0.792(2) 0.5309(16)
C30 C 0.136(2) 0.8669(17) 0.5969(15)
C31 C 0.195(3) 0.8844(18) 0.668(2)
H23 H 0.306514 0.855767 0.678406
C32 C 0.067(3) 0.955(2) 0.732(2)
H24 H 0.096940 0.970554 0.784472
C33 C -0.086(3) 0.9926(17) 0.7105(16)
C34 C -0.125(4) 0.967(2) 0.635(2)
H25 H -0.234646 0.998370 0.622229
C35 C -0.025(2) 0.900(2) 0.5745(18)
H26 H -0.060392 0.879697 0.525410
loop_
_geom_bond_atom_site_label_1
_geom_bond_atom_site_label_2
_geom_bond_site_symmetry_1
_geom_bond_site_symmetry_2
I1 C21 1_555 1_555
C1 C3 1_555 1_555
O1 C19 1_555 1_555
N1 O5 1_555 1_555
O2 C22 1_555 1_555
C2 H1 1_555 1_555
O3 C18 1_555 1_555
C3 C2 1_555 1_555
H2 C3 1_555 1_555
N2 C10 1_555 1_555
O4 C29 1_555 1_555
C4 C2 1_555 1_555
H3 C4 1_555 1_555
C5 C1 1_555 1_555
O6 N1 1_555 1_555
C6 C4 1_555 1_555
H4 C6 1_555 1_555
C7 C5 1_555 1_555
H5 C7 1_555 1_555
C8 C7 1_555 1_555
H6 C8 1_555 1_555
C9 C8 1_555 1_555
H7 C9 1_555 1_555
C10 H8 1_555 1_555
H9 C10 1_555 1_555
C11 C1 1_555 1_555
C12 H10 1_555 1_555
C13 C12 1_555 1_555
H11 C13 1_555 1_555
C14 N2 1_555 1_555
C15 C12 1_555 1_555
H12 C15 1_555 1_555
C16 C15 1_555 1_555
H13 C16 1_555 1_555
C17 C14 1_555 1_555
C18 C17 1_555 1_555
C19 N2 1_555 1_555
C20 C18 1_555 1_555
H14 C20 1_555 1_555
C21 C20 1_555 1_555
H15 C21 1_555 1_555
C22 C21 1_555 1_555
H16 C22 1_555 1_555
H17 C22 1_555 1_555
C23 C20 1_555 1_555
C24 C23 1_555 1_555
H18 C24 1_555 1_555
C25 C24 1_555 1_555
H19 C25 1_555 1_555
C26 C25 1_555 1_555
H20 C26 1_555 1_555
C27 C26 1_555 1_555
H21 C27 1_555 1_555
C28 C23 1_555 1_555
H22 C28 1_555 1_555
C29 O2 1_555 1_555
C30 C29 1_555 1_555
C31 C30 1_555 1_555
H23 C31 1_555 1_555
C32 C31 1_555 1_555
H24 C32 1_555 1_555
C33 N1 1_555 1_555
C34 C33 1_555 1_555
H25 C34 1_555 1_555
C35 C30 1_555 1_555
H26 C35 1_555 1_555
C5 C6 1_555 1_555
C9 C11 1_555 1_555
C10 C11 1_555 1_555
C13 C14 1_555 1_555
C16 C17 1_555 1_555
C18 C19 1_555 1_555
C27 C28 1_555 1_555
C32 C33 1_555 1_555
C34 C35 1_555 1_555

#END
