
#######################################################################
#
#                 Cambridge Crystallographic Data Centre
#                                CCDC 
#
#######################################################################
#
# If this CIF has been generated from an entry in the Cambridge 
# Structural Database, then it will include bibliographic, chemical, 
# crystal, experimental, refinement or atomic coordinate data resulting 
# from the CCDC's data processing and validation procedures.
#
#######################################################################

data_GINNAT
_chemical_formula_moiety         'C16 H10 N2 O8,2(H2 O1)'
_chemical_name_systematic        "4,4'-Diazenediyldiphthalic acid dihydrate"
_symmetry_cell_setting           triclinic
_symmetry_space_group_name_H-M   'P -1'
_symmetry_Int_Tables_number      2
_space_group_name_Hall           '-P 1'
loop_
_symmetry_equiv_pos_site_id
_symmetry_equiv_pos_as_xyz
1 x,y,z
2 -x,-y,-z
_cell_length_a                   5.484(2)
_cell_length_b                   6.491(3)
_cell_length_c                   12.820(5)
_cell_angle_alpha                86.779(6)
_cell_angle_beta                 82.921(5)
_cell_angle_gamma                71.956(6)
_cell_volume                     430.519
_exptl_crystal_colour            colorless
_exptl_crystal_description       block
_cell_formula_units_Z            1
loop_
_atom_site_label
_atom_site_type_symbol
_atom_site_fract_x
_atom_site_fract_y
_atom_site_fract_z
O1 O 0.2911(4) -0.1176(3) 0.13083(13)
O3 O 0.7036(3) 0.1458(4) 0.07814(13)
H1 H 0.7194 0.1419 0.0138
O4 O -0.0028(4) -0.1294(3) 0.26625(14)
H2 H -0.0448 -0.2031 0.2261
O5 O 0.2965(4) 0.3246(4) 0.05734(13)
C1 C 0.4209(5) 0.3623(4) 0.39868(19)
C2 C 0.2568(5) 0.0939(4) 0.27905(18)
N1 N 0.5149(5) 0.5055(4) 0.45109(17)
C3 C 0.4608(5) 0.2336(4) 0.11278(17)
C4 C 0.4044(4) 0.2211(4) 0.23069(17)
C5 C 0.4860(5) 0.3540(4) 0.29044(19)
H3 H 0.5847 0.4378 0.2578
C6 C 0.1826(5) -0.0600(4) 0.21811(18)
C7 C 0.2685(7) 0.2389(5) 0.4474(2)
H4 H 0.2205 0.2464 0.5196
C8 C 0.1906(6) 0.1070(5) 0.3879(2)
H5 H 0.0911 0.0241 0.4208
O1A O 0.7089(4) 1.1176(3) 0.86917(13)
O3A O 0.2964(3) 0.8542(4) 0.92186(13)
H1A H 0.2806 0.8581 0.9862
O4A O 1.0028(4) 1.1294(3) 0.73375(14)
H2A H 1.0448 1.2031 0.7739
O5A O 0.7035(4) 0.6754(4) 0.94266(13)
C1A C 0.5791(5) 0.6377(4) 0.60132(19)
C2A C 0.7432(5) 0.9061(4) 0.72095(18)
N1A N 0.4851(5) 0.4945(4) 0.54891(17)
C3A C 0.5392(5) 0.7664(4) 0.88722(17)
C4A C 0.5956(4) 0.7789(4) 0.76931(17)
C5A C 0.5140(5) 0.6460(4) 0.70956(19)
H3A H 0.4153 0.5622 0.7422
C6A C 0.8174(5) 1.0600(4) 0.78189(18)
C7A C 0.7315(7) 0.7611(5) 0.5526(2)
H4A H 0.7795 0.7536 0.4804
C8A C 0.8094(6) 0.8930(5) 0.6121(2)
H5A H 0.9089 0.9759 0.5792
O2 O 0.8546(4) 0.6214(3) 0.15345(14)
H6 H 0.748(5) 0.683(5) 0.111(2)
H7 H 0.981(5) 0.525(5) 0.124(2)
loop_
_geom_bond_atom_site_label_1
_geom_bond_atom_site_label_2
_geom_bond_site_symmetry_1
_geom_bond_site_symmetry_2
O1 C6 1_555 1_555
O2 H6 1_555 1_555
O3 H1 1_555 1_555
O4 H2 1_555 1_555
O5 C3 1_555 1_555
C1 N1 1_555 1_555
C2 C4 1_555 1_555
N1 N1A 1_555 1_555
C3 O3 1_555 1_555
C4 C3 1_555 1_555
C5 C1 1_555 1_555
H3 C5 1_555 1_555
C6 O4 1_555 1_555
C7 C1 1_555 1_555
H4 C7 1_555 1_555
C8 C2 1_555 1_555
H5 C8 1_555 1_555
H7 O2 1_555 1_555
O1A C6A 1_555 1_555
O3A H1A 1_555 1_555
O4A H2A 1_555 1_555
O5A C3A 1_555 1_555
C1A N1A 1_555 1_555
C2A C4A 1_555 1_555
C3A O3A 1_555 1_555
C4A C3A 1_555 1_555
C5A C1A 1_555 1_555
H3A C5A 1_555 1_555
C6A O4A 1_555 1_555
C7A C1A 1_555 1_555
H4A C7A 1_555 1_555
C8A C2A 1_555 1_555
H5A C8A 1_555 1_555
C2 C6 1_555 1_555
C4 C5 1_555 1_555
C7 C8 1_555 1_555
C2A C6A 1_555 1_555
C4A C5A 1_555 1_555
C7A C8A 1_555 1_555

#END
