
#######################################################################
#
#                 Cambridge Crystallographic Data Centre
#                                CCDC 
#
#######################################################################
#
# If this CIF has been generated from an entry in the Cambridge 
# Structural Database, then it will include bibliographic, chemical, 
# crystal, experimental, refinement or atomic coordinate data resulting 
# from the CCDC's data processing and validation procedures.
#
#######################################################################

data_GINPEZ
_chemical_formula_moiety         'C29 H28 N1 O4 P1 S1'
_chemical_name_systematic        
'Diethyl 3-methyl-5-(triphenylphosphoranyleneamino)thiophene-2,4-dicarboxylate'
_symmetry_cell_setting           monoclinic
_symmetry_space_group_name_H-M   'P 21/n'
_symmetry_Int_Tables_number      14
_space_group_name_Hall           '-P 2yn'
loop_
_symmetry_equiv_pos_site_id
_symmetry_equiv_pos_as_xyz
1 x,y,z
2 1/2-x,1/2+y,1/2-z
3 -x,-y,-z
4 1/2+x,1/2-y,1/2+z
_cell_length_a                   8.9370(10)
_cell_length_b                   22.5930(10)
_cell_length_c                   13.745(2)
_cell_angle_alpha                90
_cell_angle_beta                 105.4110(10)
_cell_angle_gamma                90
_cell_volume                     2675.52
_exptl_crystal_colour            colorless
_exptl_crystal_description       block
_chemical_melting_point          '438-440 K'
_cell_formula_units_Z            4
_exptl_crystal_recrystallization_method ethanol
loop_
_atom_site_label
_atom_site_type_symbol
_atom_site_fract_x
_atom_site_fract_y
_atom_site_fract_z
S1 S 0.67049(11) 0.34647(4) 0.75632(7)
P1 P 0.64234(10) 0.21622(4) 0.87844(6)
O1 O 0.3029(3) 0.42360(13) 0.92798(19)
O2 O 0.4200(3) 0.34519(13) 1.0107(2)
O3 O 0.7395(4) 0.43065(13) 0.6249(3)
O4 O 0.6563(4) 0.51282(14) 0.6774(3)
N1 N 0.5676(3) 0.27813(13) 0.8885(2)
C1 C 0.8370(2) 0.21594(11) 0.86514(18)
C2 C 0.9530(3) 0.23932(11) 0.94401(16)
H1 H 0.9288 0.2536 1.0014
C3 C 1.1053(2) 0.24131(13) 0.9371(2)
H2 H 1.1830 0.2570 0.9899
C4 C 1.1416(2) 0.21992(14) 0.8513(2)
H3 H 1.2435 0.2212 0.8467
C5 C 1.0256(3) 0.19653(13) 0.77244(19)
H4 H 1.0498 0.1822 0.7150
C6 C 0.8733(3) 0.19454(12) 0.77935(16)
H5 H 0.7957 0.1789 0.7266
C7 C 0.6511(3) 0.17827(10) 0.99452(13)
C8 C 0.7473(3) 0.12943(11) 1.02329(17)
H6 H 0.8103 0.1169 0.9833
C9 C 0.7494(3) 0.09939(10) 1.11189(19)
H7 H 0.8137 0.0667 1.1311
C10 C 0.6553(3) 0.11819(12) 1.17173(14)
H8 H 0.6566 0.0981 1.2310
C11 C 0.5591(3) 0.16702(12) 1.14297(17)
H9 H 0.4961 0.1796 1.1830
C12 C 0.5570(3) 0.19706(10) 1.05437(18)
H10 H 0.4926 0.2297 1.0351
C13 C 0.5240(2) 0.17261(9) 0.77717(14)
C14 C 0.5417(3) 0.11152(10) 0.77592(17)
H11 H 0.6200 0.0932 0.8249
C15 C 0.4424(3) 0.07785(8) 0.7014(2)
H12 H 0.4543 0.0370 0.7006
C16 C 0.3254(3) 0.10527(11) 0.62814(16)
H13 H 0.2590 0.0827 0.5783
C17 C 0.3077(2) 0.16637(12) 0.62939(15)
H14 H 0.2294 0.1847 0.5804
C18 C 0.4070(3) 0.20003(8) 0.70390(16)
H15 H 0.3951 0.2409 0.7047
C19 C 0.5760(4) 0.33193(15) 0.8499(2)
C20 C 0.5090(4) 0.38404(15) 0.8752(2)
C21 C 0.5394(4) 0.43465(15) 0.8214(3)
C22 C 0.6268(4) 0.42147(15) 0.7558(3)
C23 C 0.4827(5) 0.49637(16) 0.8329(3)
H16 H 0.5430 0.5244 0.8068
H17 H 0.4935 0.5044 0.9030
H18 H 0.3755 0.4997 0.7961
C24 C 0.4114(4) 0.38135(17) 0.9452(3)
C25 C 0.1986(5) 0.4243(2) 0.9921(3)
H19 H 0.2059 0.4619 1.0272
H20 H 0.2250 0.3929 1.0418
C26 C 0.0342(5) 0.4153(3) 0.9243(4)
H21 H -0.0398 0.4240 0.9617
H22 H 0.0219 0.3750 0.9014
H23 H 0.0174 0.4413 0.8671
C27 C 0.6750(5) 0.4608(2) 0.6860(3)
C28 C 0.7881(8) 0.4648(2) 0.5496(4)
H24 H 0.8989 0.4722 0.5711
H25 H 0.7345 0.5026 0.5387
C29 C 0.7469(9) 0.4281(2) 0.4527(4)
H26 H 0.7971 0.4446 0.4052
H27 H 0.6365 0.4286 0.4241
H28 H 0.7812 0.3881 0.4678
loop_
_geom_bond_atom_site_label_1
_geom_bond_atom_site_label_2
_geom_bond_site_symmetry_1
_geom_bond_site_symmetry_2
S1 C19 1_555 1_555
P1 N1 1_555 1_555
O1 C24 1_555 1_555
O2 C24 1_555 1_555
O3 C27 1_555 1_555
O4 C27 1_555 1_555
N1 C19 1_555 1_555
C1 P1 1_555 1_555
C2 C1 1_555 1_555
H1 C2 1_555 1_555
C3 C2 1_555 1_555
H2 C3 1_555 1_555
C4 C3 1_555 1_555
H3 C4 1_555 1_555
C5 C4 1_555 1_555
H4 C5 1_555 1_555
C6 C1 1_555 1_555
H5 C6 1_555 1_555
C7 P1 1_555 1_555
C8 C7 1_555 1_555
H6 C8 1_555 1_555
C9 C8 1_555 1_555
H7 C9 1_555 1_555
C10 C9 1_555 1_555
H8 C10 1_555 1_555
C11 C10 1_555 1_555
H9 C11 1_555 1_555
C12 C7 1_555 1_555
H10 C12 1_555 1_555
C13 P1 1_555 1_555
C14 C13 1_555 1_555
H11 C14 1_555 1_555
C15 C14 1_555 1_555
H12 C15 1_555 1_555
C16 C15 1_555 1_555
H13 C16 1_555 1_555
C17 C16 1_555 1_555
H14 C17 1_555 1_555
C18 C13 1_555 1_555
H15 C18 1_555 1_555
C19 C20 1_555 1_555
C20 C21 1_555 1_555
C21 C22 1_555 1_555
C22 S1 1_555 1_555
C23 C21 1_555 1_555
H16 C23 1_555 1_555
H17 C23 1_555 1_555
H18 C23 1_555 1_555
C24 C20 1_555 1_555
C25 O1 1_555 1_555
H19 C25 1_555 1_555
H20 C25 1_555 1_555
C26 C25 1_555 1_555
H21 C26 1_555 1_555
H22 C26 1_555 1_555
H23 C26 1_555 1_555
C27 C22 1_555 1_555
C28 O3 1_555 1_555
H24 C28 1_555 1_555
H25 C28 1_555 1_555
C29 C28 1_555 1_555
H26 C29 1_555 1_555
H27 C29 1_555 1_555
H28 C29 1_555 1_555
C5 C6 1_555 1_555
C11 C12 1_555 1_555
C17 C18 1_555 1_555

#END
