
#######################################################################
#
#                 Cambridge Crystallographic Data Centre
#                                CCDC 
#
#######################################################################
#
# If this CIF has been generated from an entry in the Cambridge 
# Structural Database, then it will include bibliographic, chemical, 
# crystal, experimental, refinement or atomic coordinate data resulting 
# from the CCDC's data processing and validation procedures.
#
#######################################################################

data_GINREC
_chemical_formula_moiety         'C21 H16 N2 O1'
_chemical_name_systematic        
2-(4-Methylphenyl)-3-(phenylimino)isoindolin-1-one
_symmetry_cell_setting           triclinic
_symmetry_space_group_name_H-M   'P -1'
_symmetry_Int_Tables_number      2
_space_group_name_Hall           '-P 1'
loop_
_symmetry_equiv_pos_site_id
_symmetry_equiv_pos_as_xyz
1 x,y,z
2 -x,-y,-z
_cell_length_a                   8.68223(16)
_cell_length_b                   9.37693(17)
_cell_length_c                   10.50952(19)
_cell_angle_alpha                77.9474(10)
_cell_angle_beta                 80.9942(10)
_cell_angle_gamma                75.9219(11)
_cell_volume                     806.557
_exptl_crystal_colour            yellow
_exptl_crystal_description       platelet
_cell_formula_units_Z            2
_exptl_crystal_recrystallization_method 'hexane/ethyl acetate'
loop_
_atom_site_label
_atom_site_type_symbol
_atom_site_fract_x
_atom_site_fract_y
_atom_site_fract_z
O1 O 0.48798(17) 0.38039(14) 0.28359(11)
N1 N 0.3564(2) 0.30433(16) 0.14199(13)
N2 N 0.2850(2) 0.23665(16) -0.03821(14)
C1 C 0.5643(3) 0.26795(19) -0.02382(16)
C2 C 0.6712(3) 0.2209(2) -0.12785(17)
C3 C 0.8302(3) 0.2202(2) -0.12712(18)
C4 C 0.8834(3) 0.2690(2) -0.02848(18)
C5 C 0.7776(3) 0.3180(2) 0.07366(18)
C6 C 0.6177(3) 0.31475(19) 0.07590(17)
C7 C 0.4860(3) 0.34060(19) 0.18119(17)
C8 C 0.3925(3) 0.26620(19) 0.01530(17)
C9 C 0.3139(3) 0.2088(2) -0.16837(17)
C10 C 0.3468(3) 0.3180(2) -0.27475(17)
C11 C 0.3641(3) 0.2892(2) -0.40083(17)
C12 C 0.3500(3) 0.1525(3) -0.42190(18)
C13 C 0.3162(3) 0.0447(3) -0.31657(19)
C14 C 0.2946(3) 0.0735(2) -0.19008(18)
C15 C 0.2127(3) 0.2930(2) 0.22576(16)
C16 C 0.1581(3) 0.1599(2) 0.25425(17)
C17 C 0.0233(3) 0.1470(2) 0.34075(17)
C18 C -0.0627(3) 0.2657(2) 0.40141(16)
C19 C -0.2127(3) 0.2544(3) 0.49312(19)
C20 C -0.0071(3) 0.3971(2) 0.37238(17)
C21 C 0.1274(3) 0.4111(2) 0.28659(17)
H1 H 0.6360 0.1904 -0.1970
H2 H 0.9057 0.1854 -0.1958
H3 H 0.9935 0.2684 -0.0318
H4 H 0.8127 0.3528 0.1404
H5 H 0.3573 0.4119 -0.2608
H6 H 0.3858 0.3639 -0.4733
H7 H 0.3636 0.1328 -0.5085
H8 H 0.3076 -0.0497 -0.3309
H9 H 0.2667 0.0006 -0.1183
H10 H 0.2144 0.0778 0.2137
H11 H -0.0117 0.0557 0.3594
H12 H -0.2104 0.1493 0.5314
H13 H -0.3060 0.2954 0.4446
H14 H -0.2193 0.3110 0.5630
H15 H -0.0635 0.4793 0.4128
H16 H 0.1624 0.5024 0.2687
loop_
_geom_bond_atom_site_label_1
_geom_bond_atom_site_label_2
_geom_bond_site_symmetry_1
_geom_bond_site_symmetry_2
O1 C7 1_555 1_555
N1 C7 1_555 1_555
N2 C8 1_555 1_555
C1 C2 1_555 1_555
C2 C3 1_555 1_555
C3 C4 1_555 1_555
C4 C5 1_555 1_555
C5 C6 1_555 1_555
C6 C1 1_555 1_555
C7 C6 1_555 1_555
C8 N1 1_555 1_555
C9 N2 1_555 1_555
C10 C9 1_555 1_555
C11 C10 1_555 1_555
C12 C11 1_555 1_555
C13 C12 1_555 1_555
C14 C9 1_555 1_555
C15 N1 1_555 1_555
C16 C15 1_555 1_555
C17 C16 1_555 1_555
C18 C17 1_555 1_555
C19 C18 1_555 1_555
C20 C18 1_555 1_555
C21 C15 1_555 1_555
H1 C2 1_555 1_555
H2 C3 1_555 1_555
H3 C4 1_555 1_555
H4 C5 1_555 1_555
H5 C10 1_555 1_555
H6 C11 1_555 1_555
H7 C12 1_555 1_555
H8 C13 1_555 1_555
H9 C14 1_555 1_555
H10 C16 1_555 1_555
H11 C17 1_555 1_555
H12 C19 1_555 1_555
H13 C19 1_555 1_555
H14 C19 1_555 1_555
H15 C20 1_555 1_555
H16 C21 1_555 1_555
C1 C8 1_555 1_555
C13 C14 1_555 1_555
C20 C21 1_555 1_555

#END
