
#######################################################################
#
#                 Cambridge Crystallographic Data Centre
#                                CCDC 
#
#######################################################################
#
# If this CIF has been generated from an entry in the Cambridge 
# Structural Database, then it will include bibliographic, chemical, 
# crystal, experimental, refinement or atomic coordinate data resulting 
# from the CCDC's data processing and validation procedures.
#
#######################################################################

data_GINSUU
_chemical_compound_source        'organic  synthsis'
_chemical_formula_moiety         'C19 H22 F1 N2 O4 P1 S1'
_chemical_name_systematic        
'diethyl ((2-fluorophenyl)((6-methoxy-1,3-benzothiazol-2-yl)amino)methyl)phosphonate'
_symmetry_cell_setting           monoclinic
_symmetry_space_group_name_H-M   'P 21'
_symmetry_Int_Tables_number      4
_space_group_name_Hall           'P 2yb'
loop_
_symmetry_equiv_pos_site_id
_symmetry_equiv_pos_as_xyz
1 x,y,z
2 -x,1/2+y,-z
_cell_length_a                   11.0338(8)
_cell_length_b                   16.1159(11)
_cell_length_c                   11.7086(8)
_cell_angle_alpha                90
_cell_angle_beta                 102.0270(10)
_cell_angle_gamma                90
_cell_volume                     2036.32
_exptl_crystal_colour            colorless
_exptl_crystal_description       block
_chemical_melting_point          '423 K'
_cell_formula_units_Z            4
_exptl_crystal_preparation       ', none'
loop_
_atom_site_label
_atom_site_type_symbol
_atom_site_fract_x
_atom_site_fract_y
_atom_site_fract_z
S1 S 0.76221(6) 0.28186(5) 0.40870(6)
P1 P 0.59225(8) 0.50849(6) 0.08047(7)
F1 F 0.5435(4) 0.3313(2) -0.1186(2)
O1 O 0.5020(3) 0.54691(18) 0.1406(2)
O2 O 0.5603(3) 0.5150(2) -0.0559(2)
O3 O 0.7244(3) 0.54811(18) 0.1176(2)
O4 O 1.0905(3) 0.0411(2) 0.4639(2)
N1 N 0.6673(2) 0.38515(18) 0.2310(2)
H1 H 0.652085 0.420388 0.283650
N2 N 0.7981(2) 0.27817(18) 0.1944(2)
C1 C 0.6140(3) 0.3978(2) 0.1072(3)
H2 H 0.675734 0.377859 0.061882
C2 C 0.4954(3) 0.3483(2) 0.0669(3)
C3 C 0.4683(5) 0.3147(3) -0.0455(4)
C4 C 0.3649(7) 0.2650(4) -0.0835(7)
H3 H 0.348479 0.241795 -0.159707
C5 C 0.2868(6) 0.2501(4) -0.0084(9)
H4 H 0.215070 0.216938 -0.033623
C6 C 0.3107(5) 0.2825(4) 0.1024(7)
H5 H 0.255897 0.271179 0.153201
C7 C 0.4153(4) 0.3319(3) 0.1408(4)
H6 H 0.431434 0.354272 0.217537
C8 C 0.7405(3) 0.3182(2) 0.2631(2)
C9 C 0.8696(3) 0.2153(2) 0.2559(2)
C10 C 0.9471(3) 0.1623(2) 0.2103(3)
H7 H 0.950600 0.165198 0.130061
C11 C 1.0187(3) 0.1053(3) 0.2828(3)
H8 H 1.072103 0.069363 0.251791
C12 C 1.0140(3) 0.0996(2) 0.4019(3)
C13 C 0.9352(3) 0.1499(2) 0.4488(3)
H9 H 0.929698 0.145317 0.528485
C14 C 0.8642(2) 0.2074(2) 0.3748(2)
C15 C 1.1061(5) 0.0436(4) 0.5893(4)
H10 H 1.027495 0.029377 0.610973
H11 H 1.131417 0.099491 0.617467
H12 H 1.169848 0.003582 0.624561
C16 C 0.4384(4) 0.5408(3) -0.1230(4)
H13 H 0.407657 0.499604 -0.184898
H14 H 0.378573 0.543551 -0.070701
C17 C 0.4478(5) 0.6221(3) -0.1756(4)
H15 H 0.368827 0.635747 -0.227962
H16 H 0.513742 0.620934 -0.220148
H17 H 0.467049 0.664157 -0.114034
C18 C 0.8325(5) 0.5175(4) 0.0765(6)
H18 H 0.855284 0.461909 0.110298
H19 H 0.811314 0.511687 -0.009546
C19 C 0.9371(4) 0.5726(4) 0.1087(6)
H20 H 0.963836 0.591225 0.038120
H21 H 1.005400 0.543253 0.159657
H22 H 0.913172 0.620769 0.150020
S2 S 0.26343(7) 0.68336(5) 0.11145(6)
P2 P 0.52000(7) 0.51853(6) 0.46907(8)
F2 F 0.2685(2) 0.5102(2) 0.61361(17)
O5 O 0.5546(3) 0.4528(3) 0.3962(2)
O6 O 0.6096(3) 0.5927(3) 0.4617(4)
O7 O 0.5195(3) 0.4924(3) 0.5962(2)
O8 O -0.0698(2) 0.91138(18) 0.0052(2)
N3 N 0.3601(3) 0.5922(2) 0.3017(3)
H23 H 0.414276 0.575991 0.260790
N4 N 0.1988(2) 0.6838(2) 0.3153(2)
C20 C 0.3631(3) 0.5564(2) 0.4159(3)
H24 H 0.346258 0.601389 0.469317
C21 C 0.2690(3) 0.4880(2) 0.4146(3)
C22 C 0.2259(4) 0.4669(3) 0.5136(3)
C23 C 0.1417(6) 0.4044(5) 0.5154(5)
H25 H 0.115876 0.391140 0.585716
C24 C 0.0948(6) 0.3609(5) 0.4139(5)
H26 H 0.036178 0.317778 0.413716
C25 C 0.1344(4) 0.3810(4) 0.3123(4)
H27 H 0.102395 0.351714 0.242079
C26 C 0.2195(3) 0.4431(3) 0.3131(3)
H28 H 0.245789 0.455989 0.242856
C27 C 0.2748(3) 0.6503(2) 0.2575(3)
C28 C 0.1258(3) 0.7426(2) 0.2447(3)
C29 C 0.0352(3) 0.7919(3) 0.2780(3)
H29 H 0.019075 0.786932 0.354266
C30 C -0.0315(3) 0.8483(3) 0.1996(3)
H30 H -0.093631 0.881484 0.222406
C31 C -0.0078(3) 0.8565(2) 0.0872(3)
C32 C 0.0814(3) 0.8077(2) 0.0513(2)
H31 H 0.097230 0.812822 -0.025089
C33 C 0.1466(3) 0.7511(2) 0.1307(2)
C34 C -0.1662(3) 0.9593(3) 0.0365(3)
H32 H -0.205754 0.993493 -0.030132
H33 H -0.131271 0.995321 0.102656
H34 H -0.227854 0.922224 0.058501
C35 C 0.6183(9) 0.6584(7) 0.5341(8)
H35 H 0.703902 0.661372 0.581102
H36 H 0.561920 0.649692 0.588643
C36 C 0.5874(13) 0.7389(7) 0.4731(11)
H37 H 0.502617 0.736781 0.426582
H38 H 0.645272 0.749444 0.421577
H39 H 0.593932 0.783611 0.530788
C37 C 0.5932(5) 0.4233(4) 0.6547(4)
H40 H 0.603863 0.381135 0.596189
H41 H 0.548921 0.397039 0.710640
C38 C 0.7153(4) 0.4521(4) 0.7173(5)
H42 H 0.763199 0.471706 0.660900
H43 H 0.759411 0.406223 0.762847
H44 H 0.704773 0.497632 0.769877
loop_
_geom_bond_atom_site_label_1
_geom_bond_atom_site_label_2
_geom_bond_site_symmetry_1
_geom_bond_site_symmetry_2
S1 C8 1_555 1_555
P1 O1 1_555 1_555
F1 C3 1_555 1_555
O2 P1 1_555 1_555
O3 P1 1_555 1_555
O4 C12 1_555 1_555
N1 H1 1_555 1_555
N2 C8 1_555 1_555
C1 P1 1_555 1_555
H2 C1 1_555 1_555
C2 C1 1_555 1_555
C3 C2 1_555 1_555
C4 C3 1_555 1_555
H3 C4 1_555 1_555
C5 C4 1_555 1_555
H4 C5 1_555 1_555
C6 C5 1_555 1_555
H5 C6 1_555 1_555
C7 C2 1_555 1_555
H6 C7 1_555 1_555
C8 N1 1_555 1_555
C9 N2 1_555 1_555
C10 C9 1_555 1_555
H7 C10 1_555 1_555
C11 C10 1_555 1_555
H8 C11 1_555 1_555
C12 C11 1_555 1_555
C13 C12 1_555 1_555
H9 C13 1_555 1_555
C14 S1 1_555 1_555
C15 O4 1_555 1_555
H10 C15 1_555 1_555
H11 C15 1_555 1_555
H12 C15 1_555 1_555
C16 O2 1_555 1_555
H13 C16 1_555 1_555
H14 C16 1_555 1_555
C17 C16 1_555 1_555
H15 C17 1_555 1_555
H16 C17 1_555 1_555
H17 C17 1_555 1_555
C18 O3 1_555 1_555
H18 C18 1_555 1_555
H19 C18 1_555 1_555
C19 C18 1_555 1_555
H20 C19 1_555 1_555
H21 C19 1_555 1_555
H22 C19 1_555 1_555
S2 C27 1_555 1_555
P2 O5 1_555 1_555
F2 C22 1_555 1_555
O6 P2 1_555 1_555
O7 P2 1_555 1_555
O8 C31 1_555 1_555
N3 H23 1_555 1_555
N4 C27 1_555 1_555
C20 P2 1_555 1_555
H24 C20 1_555 1_555
C21 C20 1_555 1_555
C22 C21 1_555 1_555
C23 C22 1_555 1_555
H25 C23 1_555 1_555
C24 C23 1_555 1_555
H26 C24 1_555 1_555
C25 C24 1_555 1_555
H27 C25 1_555 1_555
C26 C21 1_555 1_555
H28 C26 1_555 1_555
C27 N3 1_555 1_555
C28 N4 1_555 1_555
C29 C28 1_555 1_555
H29 C29 1_555 1_555
C30 C29 1_555 1_555
H30 C30 1_555 1_555
C31 C30 1_555 1_555
C32 C31 1_555 1_555
H31 C32 1_555 1_555
C33 S2 1_555 1_555
C34 O8 1_555 1_555
H32 C34 1_555 1_555
H33 C34 1_555 1_555
H34 C34 1_555 1_555
C35 O6 1_555 1_555
H35 C35 1_555 1_555
H36 C35 1_555 1_555
C36 C35 1_555 1_555
H37 C36 1_555 1_555
H38 C36 1_555 1_555
H39 C36 1_555 1_555
C37 O7 1_555 1_555
H40 C37 1_555 1_555
H41 C37 1_555 1_555
C38 C37 1_555 1_555
H42 C38 1_555 1_555
H43 C38 1_555 1_555
H44 C38 1_555 1_555
N1 C1 1_555 1_555
C6 C7 1_555 1_555
C9 C14 1_555 1_555
C13 C14 1_555 1_555
N3 C20 1_555 1_555
C25 C26 1_555 1_555
C28 C33 1_555 1_555
C32 C33 1_555 1_555

#END
