
#######################################################################
#
#                 Cambridge Crystallographic Data Centre
#                                CCDC 
#
#######################################################################
#
# If this CIF has been generated from an entry in the Cambridge 
# Structural Database, then it will include bibliographic, chemical, 
# crystal, experimental, refinement or atomic coordinate data resulting 
# from the CCDC's data processing and validation procedures.
#
#######################################################################

data_GINYAE
_chemical_formula_moiety         'C18 H19 F3 N4 O2 S1'
_chemical_name_systematic        
7-(4-methoxyphenyl)-2-(1-piperidinyl)-7-(trifluoromethyl)-6,7-dihydro(1,3)thiazolo(4,5-d)pyrimidin-5(4H)-one
_symmetry_cell_setting           monoclinic
_symmetry_space_group_name_H-M   'C 2/c'
_symmetry_Int_Tables_number      15
_space_group_name_Hall           '-C 2yn'
loop_
_symmetry_equiv_pos_site_id
_symmetry_equiv_pos_as_xyz
1 x,y,z
2 1/2+x,1/2+y,z
3 -x,y,1/2-z
4 1/2-x,1/2+y,1/2-z
5 -x,-y,-z
6 1/2-x,1/2-y,-z
7 x,-y,1/2+z
8 1/2+x,1/2-y,1/2+z
_cell_length_a                   27.523(7)
_cell_length_b                   10.080(2)
_cell_length_c                   14.043(2)
_cell_angle_alpha                90
_cell_angle_beta                 95.19(2)
_cell_angle_gamma                90
_cell_volume                     3880
_exptl_crystal_colour            colorless
_exptl_crystal_description       block
_chemical_melting_point          '139-140 deg.C'
_cell_formula_units_Z            8
loop_
_atom_site_label
_atom_site_type_symbol
_atom_site_fract_x
_atom_site_fract_y
_atom_site_fract_z
C1 C 0.35807(13) 0.1671(4) 0.9513(2)
C2 C 0.38753(11) 0.3048(4) 0.8264(2)
C3 C 0.39851(10) 0.3902(3) 0.74319(19)
C4 C 0.46517(10) 0.4791(3) 0.86473(19)
C5 C 0.40950(11) 0.3193(3) 0.91545(19)
C6 C 0.34622(14) 0.0749(5) 1.1070(2)
H1 H 0.3698 0.1434 1.1266
H2 H 0.3607 -0.0105 1.1240
C7 C 0.30130(17) 0.0937(6) 1.1567(3)
H3 H 0.2892 0.1834 1.1464
H4 H 0.3087 0.0807 1.2249
C8 C 0.26291(19) -0.0037(9) 1.1191(4)
H5 H 0.2740 -0.0931 1.1348
H6 H 0.2333 0.0117 1.1501
C9 C 0.25192(16) 0.0079(8) 1.0136(4)
H7 H 0.2287 -0.0601 0.9915
H8 H 0.2372 0.0937 0.9985
C10 C 0.29684(15) -0.0064(5) 0.9628(3)
H9 H 0.3085 -0.0972 0.9682
H10 H 0.2895 0.0137 0.8955
C11 C 0.35686(12) 0.4908(4) 0.7229(2)
C12 C 0.40850(11) 0.3108(3) 0.65368(19)
C13 C 0.38968(14) 0.3400(4) 0.5616(2)
H11 H 0.3679(15) 0.411(4) 0.550(3)
C14 C 0.40355(14) 0.2683(4) 0.4836(2)
H12 H 0.3881(12) 0.286(4) 0.428(3)
C15 C 0.43584(14) 0.1680(4) 0.4965(2)
C16 C 0.45503(17) 0.1369(5) 0.5887(3)
H13 H 0.4769(15) 0.080(4) 0.591(3)
C17 C 0.44160(14) 0.2077(4) 0.6651(2)
H14 H 0.4558(13) 0.184(4) 0.730(3)
C18 C 0.4363(3) 0.1314(7) 0.3290(3)
H15 H 0.4505(18) 0.080(5) 0.296(4)
H16 H 0.397(2) 0.122(6) 0.324(4)
H17 H 0.449(2) 0.231(7) 0.317(4)
F1 F 0.34782(7) 0.5560(2) 0.80345(14)
F2 F 0.31483(7) 0.4333(3) 0.69060(14)
F3 F 0.36668(8) 0.5841(2) 0.66036(15)
N1 N 0.39407(10) 0.2422(3) 0.98671(17)
N2 N 0.44187(9) 0.4678(3) 0.77565(17)
H18 H 0.4550(11) 0.508(3) 0.735(2)
N3 N 0.44704(9) 0.4086(3) 0.93555(18)
H19 H 0.4626(11) 0.413(3) 0.989(2)
N4 N 0.33386(14) 0.0815(4) 1.0032(2)
O1 O 0.50159(7) 0.5516(2) 0.87890(13)
O2 O 0.45174(12) 0.0925(3) 0.42427(18)
S1 S 0.34225(3) 0.18486(11) 0.82779(5)
loop_
_geom_bond_atom_site_label_1
_geom_bond_atom_site_label_2
_geom_bond_site_symmetry_1
_geom_bond_site_symmetry_2
C1 N1 1_555 1_555
C2 C3 1_555 1_555
C3 C11 1_555 1_555
C4 N2 1_555 1_555
C5 C2 1_555 1_555
C6 H1 1_555 1_555
H2 C6 1_555 1_555
C7 C6 1_555 1_555
H3 C7 1_555 1_555
H4 C7 1_555 1_555
C8 C7 1_555 1_555
H5 C8 1_555 1_555
H6 C8 1_555 1_555
C9 C8 1_555 1_555
H7 C9 1_555 1_555
H8 C9 1_555 1_555
C10 C9 1_555 1_555
H9 C10 1_555 1_555
H10 C10 1_555 1_555
C11 F1 1_555 1_555
C12 C3 1_555 1_555
C13 C12 1_555 1_555
H11 C13 1_555 1_555
C14 C13 1_555 1_555
H12 C14 1_555 1_555
C15 C14 1_555 1_555
C16 C15 1_555 1_555
H13 C16 1_555 1_555
C17 C12 1_555 1_555
H14 C17 1_555 1_555
C18 H15 1_555 1_555
H16 C18 1_555 1_555
H17 C18 1_555 1_555
F2 C11 1_555 1_555
F3 C11 1_555 1_555
N1 C5 1_555 1_555
N2 C3 1_555 1_555
H18 N2 1_555 1_555
N3 C4 1_555 1_555
H19 N3 1_555 1_555
N4 C1 1_555 1_555
O1 C4 1_555 1_555
O2 C15 1_555 1_555
S1 C1 1_555 1_555
C2 S1 1_555 1_555
C5 N3 1_555 1_555
C6 N4 1_555 1_555
C10 N4 1_555 1_555
C16 C17 1_555 1_555
C18 O2 1_555 1_555

#END
