
#######################################################################
#
#                 Cambridge Crystallographic Data Centre
#                                CCDC 
#
#######################################################################
#
# If this CIF has been generated from an entry in the Cambridge 
# Structural Database, then it will include bibliographic, chemical, 
# crystal, experimental, refinement or atomic coordinate data resulting 
# from the CCDC's data processing and validation procedures.
#
#######################################################################

data_GINYUY
_chemical_formula_moiety         'C19 H21 O4 P1 Te1'
_chemical_name_systematic        
'(E)-2-methoxy-5-(4-methoxybenzyl)-5-methyl-4-(phenyltellanyl)-2,5-dihydro-1,2-oxaphosphole 2-oxide'
_symmetry_cell_setting           orthorhombic
_symmetry_space_group_name_H-M   'P 21 21 21'
_symmetry_Int_Tables_number      19
_space_group_name_Hall           'P 2ac 2ab'
loop_
_symmetry_equiv_pos_site_id
_symmetry_equiv_pos_as_xyz
1 x,y,z
2 1/2-x,-y,1/2+z
3 -x,1/2+y,1/2-z
4 1/2+x,1/2-y,-z
_cell_length_a                   8.6388(6)
_cell_length_b                   11.0197(7)
_cell_length_c                   20.8214(14)
_cell_angle_alpha                90
_cell_angle_beta                 90
_cell_angle_gamma                90
_cell_volume                     1982.13
_exptl_crystal_colour            colorless
_cell_formula_units_Z            4
loop_
_atom_site_label
_atom_site_type_symbol
_atom_site_fract_x
_atom_site_fract_y
_atom_site_fract_z
Te1 Te 0.42795(3) 0.54527(3) 0.858692(13)
P1 P 0.79644(11) 0.78958(9) 0.76647(5)
O1 O 0.7726(4) 0.9190(3) 0.75525(16)
O2 O 0.7345(3) 0.7001(3) 0.71284(12)
O3 O 0.9743(3) 0.7647(3) 0.77032(16)
O4 O 0.4296(7) 0.5775(4) 0.43178(19)
C1 C 0.6931(4) 0.7235(4) 0.82981(18)
H1 H 0.7051 0.7426 0.8730
C2 C 0.5953(4) 0.6421(4) 0.80660(16)
C3 C 0.6067(4) 0.6215(3) 0.73398(17)
C4 C 0.6491(6) 0.4916(4) 0.7175(2)
H2 H 0.7401 0.4685 0.7409
H3 H 0.6689 0.4853 0.6723
H4 H 0.5651 0.4388 0.7289
C5 C 0.4600(4) 0.6639(4) 0.69943(19)
H5 H 0.3720 0.6220 0.7180
H6 H 0.4463 0.7499 0.7077
C6 C 0.4584(5) 0.6440(4) 0.62788(19)
C7 C 0.3552(7) 0.5608(5) 0.6017(2)
H7 H 0.2902 0.5169 0.6287
C8 C 0.3480(7) 0.5422(6) 0.5362(3)
H8 H 0.2768 0.4874 0.5195
C9 C 0.4449(7) 0.6042(5) 0.4956(2)
C10 C 0.5493(7) 0.6855(4) 0.5204(2)
H9 H 0.6153 0.7282 0.4932
C11 C 0.5556(6) 0.7037(4) 0.5864(2)
H10 H 0.6278 0.7579 0.6029
C12 C 0.5249(12) 0.6424(9) 0.3888(3)
H11 H 0.6316 0.6262 0.3984
H12 H 0.5051 0.7278 0.3932
H13 H 0.5027 0.6176 0.3456
C13 C 0.5065(5) 0.5992(5) 0.9503(2)
C14 C 0.5845(7) 0.5178(6) 0.9879(2)
H14 H 0.6129 0.4434 0.9704
C15 C 0.6220(9) 0.5417(8) 1.0500(3)
H15 H 0.6699 0.4828 1.0751
C16 C 0.5887(9) 0.6533(7) 1.0753(3)
H16 H 0.6148 0.6711 1.1176
C17 C 0.5178(7) 0.7372(7) 1.0386(3)
H17 H 0.4977 0.8135 1.0558
C18 C 0.4737(7) 0.7126(5) 0.9754(3)
H18 H 0.4234 0.7710 0.9508
C19 C 1.0327(6) 0.6438(6) 0.7721(4)
H19 H 1.0279 0.6091 0.7299
H20 H 0.9714 0.5961 0.8011
H21 H 1.1383 0.6448 0.7866
loop_
_geom_bond_atom_site_label_1
_geom_bond_atom_site_label_2
_geom_bond_site_symmetry_1
_geom_bond_site_symmetry_2
Te1 C2 1_555 1_555
P1 O1 1_555 1_555
O2 P1 1_555 1_555
O3 P1 1_555 1_555
O4 C9 1_555 1_555
C1 P1 1_555 1_555
H1 C1 1_555 1_555
C2 C1 1_555 1_555
C3 O2 1_555 1_555
C4 C3 1_555 1_555
H2 C4 1_555 1_555
H3 C4 1_555 1_555
H4 C4 1_555 1_555
C5 C3 1_555 1_555
H5 C5 1_555 1_555
H6 C5 1_555 1_555
C6 C5 1_555 1_555
C7 C6 1_555 1_555
H7 C7 1_555 1_555
C8 C7 1_555 1_555
H8 C8 1_555 1_555
C9 C8 1_555 1_555
C10 C9 1_555 1_555
H9 C10 1_555 1_555
C11 C6 1_555 1_555
H10 C11 1_555 1_555
C12 O4 1_555 1_555
H11 C12 1_555 1_555
H12 C12 1_555 1_555
H13 C12 1_555 1_555
C13 Te1 1_555 1_555
C14 C13 1_555 1_555
H14 C14 1_555 1_555
C15 C14 1_555 1_555
H15 C15 1_555 1_555
C16 C15 1_555 1_555
H16 C16 1_555 1_555
C17 C16 1_555 1_555
H17 C17 1_555 1_555
C18 C13 1_555 1_555
H18 C18 1_555 1_555
C19 O3 1_555 1_555
H19 C19 1_555 1_555
H20 C19 1_555 1_555
H21 C19 1_555 1_555
C2 C3 1_555 1_555
C10 C11 1_555 1_555
C17 C18 1_555 1_555

#END
