
#######################################################################
#
#                 Cambridge Crystallographic Data Centre
#                                CCDC 
#
#######################################################################
#
# If this CIF has been generated from an entry in the Cambridge 
# Structural Database, then it will include bibliographic, chemical, 
# crystal, experimental, refinement or atomic coordinate data resulting 
# from the CCDC's data processing and validation procedures.
#
#######################################################################

data_GINZIN
_chemical_formula_moiety         'C15 H14 N4 O2'
_chemical_name_systematic        
3,5-bis(6-hydroxymethyl-2-pyridyl)-1H-pyrazole
_symmetry_cell_setting           triclinic
_symmetry_space_group_name_H-M   'P -1'
_symmetry_Int_Tables_number      2
_space_group_name_Hall           '-P 1'
loop_
_symmetry_equiv_pos_site_id
_symmetry_equiv_pos_as_xyz
1 x,y,z
2 -x,-y,-z
_cell_length_a                   4.553(2)
_cell_length_b                   10.529(5)
_cell_length_c                   13.986(7)
_cell_angle_alpha                92.748(7)
_cell_angle_beta                 97.259(7)
_cell_angle_gamma                99.127(8)
_cell_volume                     655.09
_exptl_crystal_description       needle
_chemical_melting_point          '195-197 deg.C'
_cell_formula_units_Z            2
loop_
_atom_site_label
_atom_site_type_symbol
_atom_site_fract_x
_atom_site_fract_y
_atom_site_fract_z
O1 O -0.1092(7) 0.3584(3) 0.0912(2)
H1 H -0.2991 0.3590 0.0688
O2 O 1.3360(7) 0.3023(3) 0.9939(2)
H2 H 1.1932 0.3261 1.0218
N1 N 0.1873(8) 0.2657(4) 0.3230(3)
N2 N 0.2377(8) 0.1261(4) 0.4864(3)
N3 N 0.2928(9) 0.0749(4) 0.5707(3)
H3 H 0.1921 0.0072 0.5903
N4 N 0.8857(8) 0.2163(4) 0.7597(3)
C1 C -0.1027(10) 0.2803(5) 0.1724(3)
H4 H -0.0758 0.1941 0.1520
H5 H -0.2922 0.2740 0.1982
C2 C 0.1486(10) 0.3382(4) 0.2492(3)
C3 C 0.3279(11) 0.4556(5) 0.2411(4)
H6 H 0.2926 0.5034 0.1878
C4 C 0.5607(11) 0.4993(5) 0.3144(3)
H7 H 0.6863 0.5775 0.3117
C5 C 0.6026(11) 0.4246(5) 0.3916(3)
H8 H 0.7608 0.4512 0.4409
C6 C 0.4108(10) 0.3111(4) 0.3957(3)
C7 C 0.4370(10) 0.2322(4) 0.4785(3)
C8 C 0.6343(11) 0.2499(5) 0.5636(3)
H9 H 0.7986 0.3152 0.5805
C9 C 0.5352(10) 0.1495(4) 0.6184(3)
C10 C 0.6562(10) 0.1259(4) 0.7165(3)
C11 C 0.5346(11) 0.0219(5) 0.7644(3)
H10 H 0.3782 -0.0397 0.7333
C12 C 0.6502(12) 0.0121(5) 0.8585(4)
H11 H 0.5700 -0.0560 0.8923
C13 C 0.8854(11) 0.1032(5) 0.9033(4)
H12 H 0.9648 0.0976 0.9673
C14 C 0.9992(10) 0.2022(4) 0.8512(3)
C15 C 1.2552(10) 0.3058(5) 0.8929(3)
H13 H 1.4284 0.2970 0.8608
H14 H 1.2005 0.3892 0.8796
loop_
_geom_bond_atom_site_label_1
_geom_bond_atom_site_label_2
_geom_bond_site_symmetry_1
_geom_bond_site_symmetry_2
O1 H1 1_555 1_555
O2 H2 1_555 1_555
N1 C2 1_555 1_555
N2 N3 1_555 1_555
N3 H3 1_555 1_555
N4 C10 1_555 1_555
C1 O1 1_555 1_555
H4 C1 1_555 1_555
H5 C1 1_555 1_555
C2 C1 1_555 1_555
C3 C2 1_555 1_555
H6 C3 1_555 1_555
C4 C3 1_555 1_555
H7 C4 1_555 1_555
C5 C4 1_555 1_555
H8 C5 1_555 1_555
C6 N1 1_555 1_555
C7 N2 1_555 1_555
C8 C7 1_555 1_555
H9 C8 1_555 1_555
C9 N3 1_555 1_555
C10 C9 1_555 1_555
C11 C10 1_555 1_555
H10 C11 1_555 1_555
C12 C11 1_555 1_555
H11 C12 1_555 1_555
C13 C12 1_555 1_555
H12 C13 1_555 1_555
C14 N4 1_555 1_555
C15 O2 1_555 1_555
H13 C15 1_555 1_555
H14 C15 1_555 1_555
C5 C6 1_555 1_555
C6 C7 1_555 1_555
C8 C9 1_555 1_555
C13 C14 1_555 1_555
C14 C15 1_555 1_555

#END
