
#######################################################################
#
#                 Cambridge Crystallographic Data Centre
#                                CCDC 
#
#######################################################################
#
# If this CIF has been generated from an entry in the Cambridge 
# Structural Database, then it will include bibliographic, chemical, 
# crystal, experimental, refinement or atomic coordinate data resulting 
# from the CCDC's data processing and validation procedures.
#
#######################################################################

data_GIPBOY
_chemical_formula_moiety         'C23 H16 F1 O1 1+,Cl1 O4 1-'
_chemical_name_systematic        
'2-(4-fluorophenyl)-4,5-diphenylpyrylium perchlorate'
_symmetry_cell_setting           monoclinic
_symmetry_space_group_name_H-M   'C 2/c'
_symmetry_Int_Tables_number      15
_space_group_name_Hall           '-C 2yn'
loop_
_symmetry_equiv_pos_site_id
_symmetry_equiv_pos_as_xyz
1 x,y,z
2 -x,y,1/2-z
3 1/2+x,1/2+y,z
4 1/2-x,1/2+y,1/2-z
5 -x,-y,-z
6 x,-y,1/2+z
7 1/2-x,1/2-y,-z
8 1/2+x,1/2-y,1/2+z
_cell_length_a                   20.171(3)
_cell_length_b                   10.0040(13)
_cell_length_c                   19.644(3)
_cell_angle_alpha                90
_cell_angle_beta                 94.842(2)
_cell_angle_gamma                90
_cell_volume                     3949.83
_exptl_crystal_colour            green
_exptl_crystal_description       block
_cell_formula_units_Z            8
loop_
_atom_site_label
_atom_site_type_symbol
_atom_site_fract_x
_atom_site_fract_y
_atom_site_fract_z
C1 C 0.4562(2) 0.7241(4) 0.0667(2)
C2 C 0.4149(2) 0.8212(4) 0.0396(2)
H1 H 0.4160 0.9051 0.0600
C3 C 0.37034(19) 0.7989(4) -0.01855(19)
C4 C 0.37008(19) 0.6688(4) -0.04766(18)
C5 C 0.4110(2) 0.5772(4) -0.0155(2)
H2 H 0.4103 0.4910 -0.0332
C6 C 0.5057(2) 0.7338(4) 0.1257(2)
C7 C 0.5314(2) 0.6188(5) 0.1580(2)
H3 H 0.5183 0.5353 0.1409
C8 C 0.5756(2) 0.6274(6) 0.2144(2)
H4 H 0.5926 0.5504 0.2359
C9 C 0.5943(3) 0.7503(6) 0.2388(3)
C10 C 0.5714(3) 0.8655(7) 0.2079(3)
H5 H 0.5860 0.9483 0.2247
C11 C 0.5260(2) 0.8567(5) 0.1510(2)
H6 H 0.5092 0.9342 0.1298
C12 C 0.3263(2) 0.9072(4) -0.04430(18)
C13 C 0.3483(2) 1.0389(4) -0.0397(2)
H7 H 0.3921 1.0567 -0.0235
C14 C 0.3060(3) 1.1437(5) -0.0588(2)
H8 H 0.3216 1.2312 -0.0555
C15 C 0.2417(3) 1.1194(5) -0.0825(2)
H9 H 0.2133 1.1903 -0.0947
C16 C 0.2184(2) 0.9894(4) -0.0885(2)
H10 H 0.1746 0.9730 -0.1050
C17 C 0.2607(2) 0.8834(4) -0.06988(19)
H11 H 0.2452 0.7961 -0.0745
C18 C 0.3295(2) 0.6269(4) -0.11129(18)
C19 C 0.3404(2) 0.6870(4) -0.1735(2)
H12 H 0.3713 0.7557 -0.1750
C20 C 0.3056(2) 0.6449(5) -0.2323(2)
H13 H 0.3136 0.6834 -0.2739
C21 C 0.2585(2) 0.5452(5) -0.2300(2)
H14 H 0.2348 0.5167 -0.2701
C22 C 0.2465(2) 0.4879(5) -0.1687(2)
H15 H 0.2138 0.4226 -0.1673
C23 C 0.2827(2) 0.5266(4) -0.1092(2)
H16 H 0.2757 0.4855 -0.0679
F1 F 0.63545(17) 0.7599(4) 0.29637(17)
O1 O 0.45183(14) 0.6013(3) 0.03906(14)
Cl1 Cl 0.44701(6) 0.23504(12) 0.10910(7)
O2 O 0.5063(3) 0.1844(8) 0.1155(6)
O3 O 0.3998(2) 0.1365(4) 0.1222(2)
O4 O 0.4361(3) 0.2850(5) 0.0412(3)
O5 O 0.4352(5) 0.3446(6) 0.1474(4)
loop_
_geom_bond_atom_site_label_1
_geom_bond_atom_site_label_2
_geom_bond_site_symmetry_1
_geom_bond_site_symmetry_2
C1 C2 1_555 1_555
C2 H1 1_555 1_555
C3 C2 1_555 1_555
C4 C3 1_555 1_555
C5 C4 1_555 1_555
H2 C5 1_555 1_555
C6 C1 1_555 1_555
C7 C6 1_555 1_555
H3 C7 1_555 1_555
C8 C7 1_555 1_555
H4 C8 1_555 1_555
C9 C8 1_555 1_555
C10 C9 1_555 1_555
H5 C10 1_555 1_555
C11 C6 1_555 1_555
H6 C11 1_555 1_555
C12 C3 1_555 1_555
C13 C12 1_555 1_555
H7 C13 1_555 1_555
C14 C13 1_555 1_555
H8 C14 1_555 1_555
C15 C14 1_555 1_555
H9 C15 1_555 1_555
C16 C15 1_555 1_555
H10 C16 1_555 1_555
C17 C12 1_555 1_555
H11 C17 1_555 1_555
C18 C4 1_555 1_555
C19 C18 1_555 1_555
H12 C19 1_555 1_555
C20 C19 1_555 1_555
H13 C20 1_555 1_555
C21 C20 1_555 1_555
H14 C21 1_555 1_555
C22 C21 1_555 1_555
H15 C22 1_555 1_555
C23 C18 1_555 1_555
H16 C23 1_555 1_555
F1 C9 1_555 1_555
O1 C1 1_555 1_555
Cl1 O2 1_555 1_555
O3 Cl1 1_555 1_555
O4 Cl1 1_555 1_555
O5 Cl1 1_555 1_555
C5 O1 1_555 1_555
C10 C11 1_555 1_555
C16 C17 1_555 1_555
C22 C23 1_555 1_555

#END
