
#######################################################################
#
#                 Cambridge Crystallographic Data Centre
#                                CCDC 
#
#######################################################################
#
# If this CIF has been generated from an entry in the Cambridge 
# Structural Database, then it will include bibliographic, chemical, 
# crystal, experimental, refinement or atomic coordinate data resulting 
# from the CCDC's data processing and validation procedures.
#
#######################################################################

data_GIPCIR01
_chemical_formula_moiety         'C20 H15 N3 O1,C3 H7 N1 O1'
_chemical_name_systematic        
'2-(5,6-dihydrobenzimidazo[1,2-c]quinazolin-6-yl)phenol N,N-dimethylformamide solvate'
_symmetry_cell_setting           monoclinic
_symmetry_space_group_name_H-M   'C c'
_symmetry_Int_Tables_number      9
_space_group_name_Hall           'C -2yc'
loop_
_symmetry_equiv_pos_site_id
_symmetry_equiv_pos_as_xyz
1 x,y,z
2 x,-y,1/2+z
3 1/2+x,1/2+y,z
4 1/2+x,1/2-y,1/2+z
_cell_length_a                   14.7508(11)
_cell_length_b                   9.8446(8)
_cell_length_c                   13.9881(8)
_cell_angle_alpha                90
_cell_angle_beta                 91.028(3)
_cell_angle_gamma                90
_cell_volume                     2030.97
_exptl_crystal_colour            white
_exptl_crystal_description       block
_cell_formula_units_Z            4
loop_
_atom_site_label
_atom_site_type_symbol
_atom_site_fract_x
_atom_site_fract_y
_atom_site_fract_z
C1 C 0.0905(13) 0.299(2) 0.1626(14)
C2 C 0.1053(14) 0.370(2) 0.0788(16)
H1 H 0.1527 0.4319 0.0728
C3 C 0.0455(16) 0.344(2) 0.0059(16)
H2 H 0.053 0.388 -0.0522
C4 C -0.0270(15) 0.253(3) 0.0149(18)
H3 H -0.0672 0.2402 -0.0363
C5 C -0.0392(14) 0.184(2) 0.0978(16)
H4 H -0.0869 0.1235 0.1041
C6 C 0.0206(13) 0.207(2) 0.1715(15)
C7 C 0.0940(13) 0.2032(19) 0.3046(14)
C8 C 0.1293(13) 0.183(2) 0.4030(14)
C9 C 0.1012(16) 0.075(2) 0.4607(19)
H5 H 0.0613 0.0104 0.4365
C10 C 0.1332(17) 0.067(3) 0.5542(18)
H6 H 0.1158 -0.005 0.5931
C11 C 0.1905(17) 0.164(3) 0.5882(18)
H7 H 0.212 0.1579 0.6509
C12 C 0.2176(14) 0.272(2) 0.5337(16)
H8 H 0.2557 0.3378 0.5599
C13 C 0.1883(12) 0.281(2) 0.4401(14)
C14 C 0.2195(12) 0.3660(18) 0.2790(13)
H9 H 0.221 0.4539 0.2461
C15 C 0.3047(12) 0.2879(17) 0.2542(12)
C16 C 0.3063(14) 0.155(2) 0.2243(15)
H10 H 0.252 0.1075 0.2173
C17 C 0.3872(16) 0.090(2) 0.2044(17)
H11 H 0.3869 0.0008 0.1833
C18 C 0.4679(15) 0.159(2) 0.2156(17)
H12 H 0.5224 0.115 0.2034
C19 C 0.4673(14) 0.293(2) 0.2454(15)
H13 H 0.5216 0.3402 0.2528
C20 C 0.3866(12) 0.357(2) 0.2641(13)
N1 N 0.0242(10) 0.1458(17) 0.2630(13)
N2 N 0.1368(10) 0.2957(16) 0.2499(11)
N3 N 0.2104(11) 0.3907(16) 0.3804(12)
H14 H 0.248(16) 0.44(2) 0.407(16)
O1 O 0.3811(8) 0.4872(14) 0.2952(10)
H15 H 0.4309 0.5238 0.291
C21 C 0.408(3) 0.889(3) 0.441(3)
H16 H 0.3868 0.9525 0.3938
H17 H 0.4683 0.8594 0.425
H18 H 0.4099 0.9314 0.5026
C22 C 0.270(2) 0.771(3) 0.379(3)
H19 H 0.2697 0.8525 0.3409
H20 H 0.2152 0.7671 0.4151
H21 H 0.2725 0.6934 0.3373
C23 C 0.3632(16) 0.668(3) 0.5012(15)
H22 H 0.4149 0.6739 0.54
N4 N 0.3474(15) 0.771(2) 0.4429(15)
O2 O 0.3169(10) 0.5666(15) 0.5095(11)
loop_
_geom_bond_atom_site_label_1
_geom_bond_atom_site_label_2
_geom_bond_site_symmetry_1
_geom_bond_site_symmetry_2
C1 C2 1_555 1_555
C2 H1 1_555 1_555
C3 C2 1_555 1_555
H2 C3 1_555 1_555
C4 C3 1_555 1_555
H3 C4 1_555 1_555
C5 C4 1_555 1_555
H4 C5 1_555 1_555
C6 C1 1_555 1_555
C7 C8 1_555 1_555
C8 C9 1_555 1_555
C9 H5 1_555 1_555
C10 C9 1_555 1_555
H6 C10 1_555 1_555
C11 C10 1_555 1_555
H7 C11 1_555 1_555
C12 C11 1_555 1_555
H8 C12 1_555 1_555
C13 C8 1_555 1_555
C14 H9 1_555 1_555
C15 C14 1_555 1_555
C16 C15 1_555 1_555
H10 C16 1_555 1_555
C17 C16 1_555 1_555
H11 C17 1_555 1_555
C18 C17 1_555 1_555
H12 C18 1_555 1_555
C19 C18 1_555 1_555
H13 C19 1_555 1_555
C20 C15 1_555 1_555
N1 C6 1_555 1_555
N2 C1 1_555 1_555
N3 C13 1_555 1_555
H14 N3 1_555 1_555
O1 C20 1_555 1_555
H15 O1 1_555 1_555
C21 H16 1_555 1_555
H17 C21 1_555 1_555
H18 C21 1_555 1_555
C22 H19 1_555 1_555
H20 C22 1_555 1_555
H21 C22 1_555 1_555
C23 H22 1_555 1_555
N4 C21 1_555 1_555
O2 C23 1_555 1_555
C5 C6 1_555 1_555
C7 N1 1_555 1_555
C7 N2 1_555 1_555
C12 C13 1_555 1_555
C14 N2 1_555 1_555
C14 N3 1_555 1_555
C19 C20 1_555 1_555
C22 N4 1_555 1_555
C23 N4 1_555 1_555

#END
