
#######################################################################
#
#                 Cambridge Crystallographic Data Centre
#                                CCDC 
#
#######################################################################
#
# If this CIF has been generated from an entry in the Cambridge 
# Structural Database, then it will include bibliographic, chemical, 
# crystal, experimental, refinement or atomic coordinate data resulting 
# from the CCDC's data processing and validation procedures.
#
#######################################################################

data_GIPDIV
_chemical_formula_moiety         'C29 H20 N4 S1'
_chemical_name_systematic        
N,N-diphenyl-4-(7-phenyl[1,2,5]thiadiazolo[3,4-c]pyridin-4-yl)aniline
_symmetry_cell_setting           triclinic
_symmetry_space_group_name_H-M   'P -1'
_symmetry_Int_Tables_number      2
_space_group_name_Hall           '-P 1'
loop_
_symmetry_equiv_pos_site_id
_symmetry_equiv_pos_as_xyz
1 x,y,z
2 -x,-y,-z
_cell_length_a                   10.010(2)
_cell_length_b                   11.970(2)
_cell_length_c                   19.610(4)
_cell_angle_alpha                83.95(3)
_cell_angle_beta                 80.68(3)
_cell_angle_gamma                72.85(3)
_cell_volume                     2211.41
_exptl_crystal_colour            orange
_exptl_crystal_description       BLOCK
_cell_formula_units_Z            4
_chemical_properties_physical    Efflorescent
_exptl_crystal_recrystallization_method chloroform/methanol
_exptl_crystal_preparation       Luminescent
loop_
_atom_site_label
_atom_site_type_symbol
_atom_site_fract_x
_atom_site_fract_y
_atom_site_fract_z
S1 S 0.8789(3) 0.45298(18) 1.08841(8)
N1 N 0.9074(7) 0.4096(5) 1.0114(2)
N2 N 0.8254(6) 0.3486(5) 1.1323(2)
N3 N 0.8504(5) 0.1365(4) 0.9763(2)
N4 N 1.0672(5) 0.3469(4) 0.6794(2)
C1 C 0.7990(6) 0.1314(5) 1.2274(3)
H1 H 0.8720 0.1662 1.2229
C2 C 0.7510(7) 0.0876(6) 1.2920(3)
H2 H 0.7921 0.0931 1.3304
C3 C 0.6440(7) 0.0367(6) 1.2998(3)
H3 H 0.6122 0.0077 1.3433
C4 C 0.5836(7) 0.0280(6) 1.2439(3)
H4 H 0.5107 -0.0069 1.2494
C5 C 0.6304(7) 0.0711(5) 1.1787(3)
H5 H 0.5886 0.0647 1.1408
C6 C 0.7397(6) 0.1240(5) 1.1696(3)
C7 C 0.7913(6) 0.1662(5) 1.0999(3)
C8 C 0.8302(6) 0.2702(6) 1.0866(3)
C9 C 0.8739(7) 0.3075(5) 1.0165(3)
C10 C 0.8831(7) 0.2357(6) 0.9618(3)
C11 C 0.8077(7) 0.1043(5) 1.0431(3)
H6 H 0.7876 0.0326 1.0508
C12 C 0.9289(6) 0.2677(5) 0.8888(3)
C13 C 0.9974(6) 0.1808(5) 0.8443(3)
H7 H 1.0130 0.1029 0.8608
C14 C 1.0438(6) 0.2061(5) 0.7756(3)
H8 H 1.0918 0.1455 0.7470
C15 C 1.0194(6) 0.3200(5) 0.7496(3)
C16 C 0.9455(6) 0.4094(5) 0.7924(3)
H9 H 0.9242 0.4869 0.7748
C17 C 0.9034(6) 0.3832(5) 0.8616(3)
H10 H 0.8572 0.4439 0.8904
C18 C 1.0797(6) 0.2645(5) 0.6297(3)
C19 C 1.2016(7) 0.2266(6) 0.5854(3)
H11 H 1.2789 0.2524 0.5893
C20 C 1.2127(7) 0.1512(6) 0.5352(3)
H12 H 1.2978 0.1240 0.5067
C21 C 1.0954(8) 0.1159(6) 0.5274(3)
H13 H 1.1007 0.0664 0.4929
C22 C 0.9709(7) 0.1555(5) 0.5717(3)
H14 H 0.8927 0.1315 0.5669
C23 C 0.9607(6) 0.2291(5) 0.6223(3)
H15 H 0.8763 0.2555 0.6515
C24 C 1.1014(6) 0.4532(5) 0.6555(3)
C25 C 1.1598(7) 0.5087(5) 0.6949(3)
H16 H 1.1758 0.4784 0.7394
C26 C 1.1953(7) 0.6095(6) 0.6690(4)
H17 H 1.2361 0.6461 0.6961
C27 C 1.1708(8) 0.6559(6) 0.6036(4)
H18 H 1.1942 0.7241 0.5862
C28 C 1.1119(8) 0.6010(6) 0.5648(3)
H19 H 1.0947 0.6322 0.5205
C29 C 1.0769(7) 0.4994(5) 0.5899(3)
H20 H 1.0371 0.4624 0.5626
S2 S 0.4589(2) 0.41127(16) 1.08580(8)
N5 N 0.4665(6) 0.3748(4) 1.0085(2)
N6 N 0.3761(6) 0.3252(4) 1.1298(2)
N7 N 0.3099(6) 0.1526(5) 0.9737(2)
N8 N 0.5579(5) 0.3585(4) 0.6806(2)
C30 C 0.1743(6) 0.2151(5) 1.2205(3)
H21 H 0.1787 0.2918 1.2115
C31 C 0.1242(7) 0.1796(7) 1.2864(3)
H22 H 0.0935 0.2324 1.3211
C32 C 0.1199(7) 0.0661(7) 1.3006(3)
H23 H 0.0864 0.0415 1.3449
C33 C 0.1652(7) -0.0113(6) 1.2490(3)
H24 H 0.1648 -0.0889 1.2589
C34 C 0.2112(7) 0.0253(5) 1.1830(3)
H25 H 0.2382 -0.0269 1.1481
C35 C 0.2177(7) 0.1398(6) 1.1682(3)
C36 C 0.2734(6) 0.1766(5) 1.0981(3)
C37 C 0.3489(7) 0.2623(5) 1.0836(3)
C38 C 0.4016(7) 0.2900(5) 1.0138(3)
C39 C 0.3825(7) 0.2300(6) 0.9592(3)
C40 C 0.2576(7) 0.1292(6) 1.0411(3)
H26 H 0.2057 0.0751 1.0484
C41 C 0.4357(6) 0.2544(5) 0.8864(3)
C42 C 0.5562(7) 0.2896(6) 0.8681(3)
H27 H 0.6084 0.2943 0.9023
C43 C 0.6009(6) 0.3178(5) 0.8003(3)
H28 H 0.6841 0.3394 0.7889
C44 C 0.5232(6) 0.3142(5) 0.7494(3)
C45 C 0.4036(7) 0.2745(5) 0.7668(3)
H29 H 0.3512 0.2699 0.7327
C46 C 0.3639(7) 0.2424(5) 0.8346(3)
H30 H 0.2871 0.2120 0.8457
C47 C 0.5583(6) 0.2942(5) 0.6243(3)
C48 C 0.5992(6) 0.1733(6) 0.6300(3)
H31 H 0.6225 0.1350 0.6721
C49 C 0.6064(6) 0.1078(6) 0.5750(3)
H32 H 0.6327 0.0264 0.5798
C50 C 0.5736(7) 0.1661(7) 0.5128(3)
H33 H 0.5795 0.1239 0.4748
C51 C 0.5335(8) 0.2826(8) 0.5070(3)
H34 H 0.5119 0.3207 0.4647
C52 C 0.5234(7) 0.3477(6) 0.5621(3)
H35 H 0.4924 0.4290 0.5570
C53 C 0.5892(6) 0.4678(5) 0.6711(3)
C54 C 0.5256(8) 0.5524(6) 0.7166(3)
H36 H 0.4624 0.5380 0.7544
C55 C 0.5543(8) 0.6598(6) 0.7071(3)
H37 H 0.5090 0.7173 0.7382
C56 C 0.6485(9) 0.6822(7) 0.6526(4)
H38 H 0.6668 0.7547 0.6463
C57 C 0.7156(8) 0.5970(7) 0.6074(4)
H39 H 0.7803 0.6116 0.5704
C58 C 0.6879(7) 0.4888(6) 0.6164(3)
H40 H 0.7352 0.4307 0.5859
loop_
_geom_bond_atom_site_label_1
_geom_bond_atom_site_label_2
_geom_bond_site_symmetry_1
_geom_bond_site_symmetry_2
S1 N1 1_555 1_555
N1 C9 1_555 1_555
N2 S1 1_555 1_555
N3 C10 1_555 1_555
N4 C15 1_555 1_555
C1 H1 1_555 1_555
C2 C1 1_555 1_555
H2 C2 1_555 1_555
C3 C2 1_555 1_555
H3 C3 1_555 1_555
C4 C3 1_555 1_555
H4 C4 1_555 1_555
C5 C4 1_555 1_555
H5 C5 1_555 1_555
C6 C1 1_555 1_555
C7 C6 1_555 1_555
C8 N2 1_555 1_555
C9 C8 1_555 1_555
C10 C9 1_555 1_555
C11 N3 1_555 1_555
H6 C11 1_555 1_555
C12 C10 1_555 1_555
C13 C12 1_555 1_555
H7 C13 1_555 1_555
C14 C13 1_555 1_555
H8 C14 1_555 1_555
C15 C14 1_555 1_555
C16 C15 1_555 1_555
H9 C16 1_555 1_555
C17 C12 1_555 1_555
H10 C17 1_555 1_555
C18 N4 1_555 1_555
C19 C18 1_555 1_555
H11 C19 1_555 1_555
C20 C19 1_555 1_555
H12 C20 1_555 1_555
C21 C20 1_555 1_555
H13 C21 1_555 1_555
C22 C21 1_555 1_555
H14 C22 1_555 1_555
C23 C18 1_555 1_555
H15 C23 1_555 1_555
C24 N4 1_555 1_555
C25 C24 1_555 1_555
H16 C25 1_555 1_555
C26 C25 1_555 1_555
H17 C26 1_555 1_555
C27 C26 1_555 1_555
H18 C27 1_555 1_555
C28 C27 1_555 1_555
H19 C28 1_555 1_555
C29 C24 1_555 1_555
H20 C29 1_555 1_555
S2 N5 1_555 1_555
N5 C38 1_555 1_555
N6 S2 1_555 1_555
N7 C39 1_555 1_555
N8 C44 1_555 1_555
C30 H21 1_555 1_555
C31 C30 1_555 1_555
H22 C31 1_555 1_555
C32 C31 1_555 1_555
H23 C32 1_555 1_555
C33 C32 1_555 1_555
H24 C33 1_555 1_555
C34 C33 1_555 1_555
H25 C34 1_555 1_555
C35 C30 1_555 1_555
C36 C35 1_555 1_555
C37 N6 1_555 1_555
C38 C37 1_555 1_555
C39 C38 1_555 1_555
C40 N7 1_555 1_555
H26 C40 1_555 1_555
C41 C39 1_555 1_555
C42 C41 1_555 1_555
H27 C42 1_555 1_555
C43 C42 1_555 1_555
H28 C43 1_555 1_555
C44 C43 1_555 1_555
C45 C44 1_555 1_555
H29 C45 1_555 1_555
C46 C41 1_555 1_555
H30 C46 1_555 1_555
C47 N8 1_555 1_555
C48 C47 1_555 1_555
H31 C48 1_555 1_555
C49 C48 1_555 1_555
H32 C49 1_555 1_555
C50 C49 1_555 1_555
H33 C50 1_555 1_555
C51 C50 1_555 1_555
H34 C51 1_555 1_555
C52 C47 1_555 1_555
H35 C52 1_555 1_555
C53 N8 1_555 1_555
C54 C53 1_555 1_555
H36 C54 1_555 1_555
C55 C54 1_555 1_555
H37 C55 1_555 1_555
C56 C55 1_555 1_555
H38 C56 1_555 1_555
C57 C56 1_555 1_555
H39 C57 1_555 1_555
C58 C53 1_555 1_555
H40 C58 1_555 1_555
C5 C6 1_555 1_555
C7 C8 1_555 1_555
C7 C11 1_555 1_555
C16 C17 1_555 1_555
C22 C23 1_555 1_555
C28 C29 1_555 1_555
C34 C35 1_555 1_555
C36 C37 1_555 1_555
C36 C40 1_555 1_555
C45 C46 1_555 1_555
C51 C52 1_555 1_555
C57 C58 1_555 1_555

#END
