
#######################################################################
#
#                 Cambridge Crystallographic Data Centre
#                                CCDC 
#
#######################################################################
#
# If this CIF has been generated from an entry in the Cambridge 
# Structural Database, then it will include bibliographic, chemical, 
# crystal, experimental, refinement or atomic coordinate data resulting 
# from the CCDC's data processing and validation procedures.
#
#######################################################################

data_GIPDER
_chemical_formula_moiety         'C29 H20 N4 S1'
_chemical_name_systematic        
N,N-diphenyl-4-(4-phenyl[1,2,5]thiadiazolo[3,4-c]pyridin-7-yl)aniline
_symmetry_cell_setting           triclinic
_symmetry_space_group_name_H-M   'P -1'
_symmetry_Int_Tables_number      2
_space_group_name_Hall           '-P 1'
loop_
_symmetry_equiv_pos_site_id
_symmetry_equiv_pos_as_xyz
1 x,y,z
2 -x,-y,-z
_cell_length_a                   10.180(2)
_cell_length_b                   11.950(2)
_cell_length_c                   19.490(4)
_cell_angle_alpha                93.38(3)
_cell_angle_beta                 97.59(3)
_cell_angle_gamma                108.76(3)
_cell_volume                     2212.31
_exptl_crystal_colour            orange
_exptl_crystal_description       block
_cell_formula_units_Z            4
_chemical_properties_physical    Efflorescent
_exptl_crystal_preparation       Luminescent
loop_
_atom_site_label
_atom_site_type_symbol
_atom_site_fract_x
_atom_site_fract_y
_atom_site_fract_z
S1 S 0.8193(2) 0.43813(17) -0.09278(10)
N1 N 0.8631(5) 0.3416(4) -0.1370(3)
N2 N 0.8212(5) 0.3891(4) -0.0176(3)
N3 N 0.9549(5) 0.1060(4) -0.0565(3)
N4 N 0.8346(5) 0.3493(4) 0.3075(3)
C1 C 0.8613(6) 0.1378(5) -0.2370(3)
H1 H 0.7939 0.1740 -0.2332
C2 C 0.8756(6) 0.0953(5) -0.3007(3)
H2 H 0.8177 0.1031 -0.3399
C3 C 0.9735(7) 0.0411(5) -0.3086(4)
H3 H 0.9815 0.0115 -0.3525
C4 C 1.0597(6) 0.0314(5) -0.2504(4)
H4 H 1.1288 -0.0026 -0.2550
C5 C 1.0446(6) 0.0719(5) -0.1850(3)
H5 H 1.1007 0.0617 -0.1459
C6 C 0.9459(5) 0.1279(5) -0.1774(3)
C7 C 0.9278(6) 0.1658(5) -0.1074(3)
C8 C 0.8821(6) 0.2642(5) -0.0921(3)
C9 C 0.8608(6) 0.2925(5) -0.0235(3)
C10 C 0.8847(5) 0.2229(5) 0.0299(3)
C11 C 0.9334(6) 0.1337(5) 0.0087(3)
H6 H 0.9537 0.0875 0.0426
C12 C 0.8651(6) 0.2463(5) 0.1018(3)
C13 C 0.9601(6) 0.2378(5) 0.1576(3)
H7 H 1.0350 0.2134 0.1491
C14 C 0.9458(6) 0.2645(5) 0.2246(3)
H8 H 1.0078 0.2536 0.2611
C15 C 0.8399(6) 0.3080(5) 0.2393(3)
C16 C 0.7405(6) 0.3097(5) 0.1839(3)
H9 H 0.6625 0.3294 0.1926
C17 C 0.7550(6) 0.2831(5) 0.1171(3)
H10 H 0.6897 0.2897 0.0808
C18 C 0.8655(6) 0.2890(6) 0.3641(3)
C19 C 0.8152(6) 0.1672(5) 0.3602(3)
H11 H 0.7635 0.1231 0.3188
C20 C 0.8406(7) 0.1098(6) 0.4168(4)
H12 H 0.8080 0.0272 0.4126
C21 C 0.9124(7) 0.1709(8) 0.4792(4)
H13 H 0.9253 0.1313 0.5178
C22 C 0.9649(7) 0.2925(7) 0.4832(3)
H14 H 1.0154 0.3359 0.5250
C23 C 0.9440(6) 0.3513(6) 0.4264(3)
H15 H 0.9829 0.4337 0.4298
C24 C 0.8099(6) 0.4592(5) 0.3198(3)
C25 C 0.7416(6) 0.4785(5) 0.3737(3)
H16 H 0.7102 0.4189 0.4022
C26 C 0.7197(6) 0.5851(6) 0.3856(4)
H17 H 0.6771 0.5987 0.4231
C27 C 0.7605(7) 0.6712(6) 0.3423(4)
H18 H 0.7442 0.7428 0.3498
C28 C 0.8248(7) 0.6524(6) 0.2882(4)
H19 H 0.8513 0.7111 0.2586
C29 C 0.8514(6) 0.5476(5) 0.2766(3)
H20 H 0.8971 0.5362 0.2399
S2 S 0.2667(2) 0.43659(16) -0.07747(9)
N5 N 0.3215(5) 0.3490(4) -0.1214(3)
N6 N 0.2861(5) 0.3936(4) -0.0013(3)
N7 N 0.4245(5) 0.1143(4) -0.0437(3)
N8 N 0.3290(5) 0.3394(4) 0.3284(2)
C30 C 0.4618(6) 0.2304(6) -0.2116(3)
H21 H 0.4544 0.3053 -0.2026
C31 C 0.4947(6) 0.1986(6) -0.2751(4)
H22 H 0.5088 0.2518 -0.3086
C32 C 0.5062(6) 0.0888(7) -0.2882(4)
H23 H 0.5286 0.0672 -0.3307
C33 C 0.4847(7) 0.0108(6) -0.2390(4)
H24 H 0.4932 -0.0636 -0.2481
C34 C 0.4506(6) 0.0405(6) -0.1763(3)
H25 H 0.4346 -0.0142 -0.1437
C35 C 0.4400(6) 0.1521(5) -0.1613(3)
C36 C 0.4074(5) 0.1816(5) -0.0930(3)
C37 C 0.3584(6) 0.2780(5) -0.0771(3)
C38 C 0.3369(5) 0.3038(5) -0.0081(3)
C39 C 0.3640(6) 0.2340(5) 0.0446(3)
C40 C 0.4042(6) 0.1424(5) 0.0221(3)
H26 H 0.4198 0.0932 0.0553
C41 C 0.3528(6) 0.2605(5) 0.1177(3)
C42 C 0.4024(5) 0.3774(5) 0.1490(3)
H27 H 0.4386 0.4388 0.1224
C43 C 0.3992(6) 0.4041(5) 0.2184(3)
H28 H 0.4367 0.4825 0.2386
C44 C 0.3405(6) 0.3145(5) 0.2581(3)
C45 C 0.2906(5) 0.1975(5) 0.2270(3)
H29 H 0.2511 0.1357 0.2528
C46 C 0.2997(6) 0.1732(5) 0.1585(3)
H30 H 0.2685 0.0944 0.1392
C47 C 0.3100(6) 0.4462(5) 0.3522(3)
C48 C 0.2297(5) 0.4991(5) 0.3108(3)
H31 H 0.1875 0.4646 0.2659
C49 C 0.2128(6) 0.6028(6) 0.3366(4)
H32 H 0.1591 0.6379 0.3087
C50 C 0.2741(7) 0.6547(6) 0.4027(4)
H33 H 0.2621 0.7246 0.4197
C51 C 0.3528(7) 0.6027(6) 0.4433(4)
H34 H 0.3942 0.6373 0.4883
C52 C 0.3714(6) 0.5000(5) 0.4184(3)
H35 H 0.4262 0.4662 0.4466
C53 C 0.3461(6) 0.2596(5) 0.3765(3)
C54 C 0.2550(6) 0.2263(5) 0.4238(3)
H36 H 0.1800 0.2549 0.4232
C55 C 0.2741(7) 0.1521(5) 0.4715(3)
H37 H 0.2132 0.1321 0.5038
C56 C 0.3813(7) 0.1061(6) 0.4728(4)
H38 H 0.3925 0.0545 0.5052
C57 C 0.4711(6) 0.1370(5) 0.4260(3)
H39 H 0.5446 0.1066 0.4266
C58 C 0.4540(6) 0.2135(5) 0.3773(3)
H40 H 0.5155 0.2337 0.3453
loop_
_geom_bond_atom_site_label_1
_geom_bond_atom_site_label_2
_geom_bond_site_symmetry_1
_geom_bond_site_symmetry_2
S1 N1 1_555 1_555
N1 C8 1_555 1_555
N2 S1 1_555 1_555
N3 C7 1_555 1_555
N4 C15 1_555 1_555
C1 H1 1_555 1_555
C2 C1 1_555 1_555
H2 C2 1_555 1_555
C3 C2 1_555 1_555
H3 C3 1_555 1_555
C4 C3 1_555 1_555
H4 C4 1_555 1_555
C5 C4 1_555 1_555
H5 C5 1_555 1_555
C6 C1 1_555 1_555
C7 C6 1_555 1_555
C8 C7 1_555 1_555
C9 N2 1_555 1_555
C10 C9 1_555 1_555
C11 N3 1_555 1_555
H6 C11 1_555 1_555
C12 C10 1_555 1_555
C13 C12 1_555 1_555
H7 C13 1_555 1_555
C14 C13 1_555 1_555
H8 C14 1_555 1_555
C15 C14 1_555 1_555
C16 C15 1_555 1_555
H9 C16 1_555 1_555
C17 C12 1_555 1_555
H10 C17 1_555 1_555
C18 N4 1_555 1_555
C19 C18 1_555 1_555
H11 C19 1_555 1_555
C20 C19 1_555 1_555
H12 C20 1_555 1_555
C21 C20 1_555 1_555
H13 C21 1_555 1_555
C22 C21 1_555 1_555
H14 C22 1_555 1_555
C23 C18 1_555 1_555
H15 C23 1_555 1_555
C24 N4 1_555 1_555
C25 C24 1_555 1_555
H16 C25 1_555 1_555
C26 C25 1_555 1_555
H17 C26 1_555 1_555
C27 C26 1_555 1_555
H18 C27 1_555 1_555
C28 C27 1_555 1_555
H19 C28 1_555 1_555
C29 C24 1_555 1_555
H20 C29 1_555 1_555
S2 N5 1_555 1_555
N5 C37 1_555 1_555
N6 S2 1_555 1_555
N7 C36 1_555 1_555
N8 C44 1_555 1_555
C30 H21 1_555 1_555
C31 C30 1_555 1_555
H22 C31 1_555 1_555
C32 C31 1_555 1_555
H23 C32 1_555 1_555
C33 C32 1_555 1_555
H24 C33 1_555 1_555
C34 C33 1_555 1_555
H25 C34 1_555 1_555
C35 C30 1_555 1_555
C36 C35 1_555 1_555
C37 C36 1_555 1_555
C38 N6 1_555 1_555
C39 C38 1_555 1_555
C40 N7 1_555 1_555
H26 C40 1_555 1_555
C41 C39 1_555 1_555
C42 C41 1_555 1_555
H27 C42 1_555 1_555
C43 C42 1_555 1_555
H28 C43 1_555 1_555
C44 C43 1_555 1_555
C45 C44 1_555 1_555
H29 C45 1_555 1_555
C46 C41 1_555 1_555
H30 C46 1_555 1_555
C47 N8 1_555 1_555
C48 C47 1_555 1_555
H31 C48 1_555 1_555
C49 C48 1_555 1_555
H32 C49 1_555 1_555
C50 C49 1_555 1_555
H33 C50 1_555 1_555
C51 C50 1_555 1_555
H34 C51 1_555 1_555
C52 C47 1_555 1_555
H35 C52 1_555 1_555
C53 N8 1_555 1_555
C54 C53 1_555 1_555
H36 C54 1_555 1_555
C55 C54 1_555 1_555
H37 C55 1_555 1_555
C56 C55 1_555 1_555
H38 C56 1_555 1_555
C57 C56 1_555 1_555
H39 C57 1_555 1_555
C58 C53 1_555 1_555
H40 C58 1_555 1_555
C5 C6 1_555 1_555
C8 C9 1_555 1_555
C10 C11 1_555 1_555
C16 C17 1_555 1_555
C22 C23 1_555 1_555
C28 C29 1_555 1_555
C34 C35 1_555 1_555
C37 C38 1_555 1_555
C39 C40 1_555 1_555
C45 C46 1_555 1_555
C51 C52 1_555 1_555
C57 C58 1_555 1_555

#END
