
#######################################################################
#
#                 Cambridge Crystallographic Data Centre
#                                CCDC 
#
#######################################################################
#
# If this CIF has been generated from an entry in the Cambridge 
# Structural Database, then it will include bibliographic, chemical, 
# crystal, experimental, refinement or atomic coordinate data resulting 
# from the CCDC's data processing and validation procedures.
#
#######################################################################

data_GIPFUI
_chemical_formula_moiety         'C22 H14 Br2 O2'
_chemical_name_systematic        
3',5-Dibromo-1,2-dihydro-2'H-spiro[benzo[f]chromene-3,1'-naphthalen]-2'-one
_symmetry_cell_setting           monoclinic
_symmetry_space_group_name_H-M   'P 21/c'
_symmetry_Int_Tables_number      14
_space_group_name_Hall           '-P 2ybc'
loop_
_symmetry_equiv_pos_site_id
_symmetry_equiv_pos_as_xyz
1 x,y,z
2 -x,1/2+y,1/2-z
3 -x,-y,-z
4 x,1/2-y,1/2+z
_cell_length_a                   9.207(5)
_cell_length_b                   10.934(6)
_cell_length_c                   18.771(10)
_cell_angle_alpha                90
_cell_angle_beta                 105.33(2)
_cell_angle_gamma                90
_cell_volume                     1822.43
_exptl_crystal_colour            yellow
_exptl_crystal_description       Plate
_cell_formula_units_Z            4
loop_
_atom_site_label
_atom_site_type_symbol
_atom_site_fract_x
_atom_site_fract_y
_atom_site_fract_z
Br1 Br 0.79247(14) 0.67454(11) 0.91331(8)
Br2 Br 0.62418(16) 1.36688(12) 0.93693(10)
C1 C 0.7001(11) 0.8742(9) 0.8130(6)
C2 C 0.7922(10) 0.7707(9) 0.8285(6)
C3 C 0.8811(11) 0.7337(11) 0.7840(7)
H1 H 0.9366 0.6618 0.7942
C4 C 0.8868(12) 0.8076(12) 0.7216(7)
C5 C 0.9838(12) 0.7780(12) 0.6766(7)
H2 H 1.0454 0.7094 0.6877
C6 C 0.9881(12) 0.8490(13) 0.6172(7)
H3 H 1.0531 0.8295 0.5885
C7 C 0.8932(13) 0.9521(12) 0.5999(7)
H4 H 0.8972 1.0010 0.5599
C8 C 0.7950(12) 0.9817(11) 0.6410(6)
H5 H 0.7299 1.0477 0.6272
C9 C 0.7925(11) 0.9118(10) 0.7047(6)
C10 C 0.6955(11) 0.9452(10) 0.7509(6)
C11 C 0.5885(13) 1.0525(11) 0.7340(7)
H6 H 0.5456 1.0591 0.6811
H7 H 0.6424 1.1276 0.7513
C12 C 0.4626(12) 1.0340(11) 0.7724(6)
H8 H 0.4014 1.1074 0.7665
H9 H 0.3986 0.9672 0.7487
C13 C 0.5230(11) 1.0058(9) 0.8547(6)
C14 C 0.6183(12) 1.1154(11) 0.8904(6)
C15 C 0.5332(13) 1.2123(10) 0.9172(7)
C16 C 0.4012(12) 1.1883(10) 0.9300(7)
H10 H 0.3516 1.2517 0.9469
C17 C 0.3300(12) 1.0698(10) 0.9192(6)
C18 C 0.3946(11) 0.9747(9) 0.8868(6)
C19 C 0.3307(12) 0.8599(10) 0.8800(7)
H11 H 0.3743 0.7962 0.8601
C20 C 0.2003(14) 0.8391(12) 0.9030(8)
H12 H 0.1582 0.7612 0.8984
C21 C 0.1341(14) 0.9307(13) 0.9319(7)
H13 H 0.0454 0.9162 0.9454
C22 C 0.1979(13) 1.0436(11) 0.9409(7)
H14 H 0.1533 1.1052 0.9620
O1 O 0.6207(8) 0.8994(7) 0.8640(4)
O2 O 0.7518(8) 1.1253(8) 0.8924(5)
loop_
_geom_bond_atom_site_label_1
_geom_bond_atom_site_label_2
_geom_bond_site_symmetry_1
_geom_bond_site_symmetry_2
Br1 C2 1_555 1_555
Br2 C15 1_555 1_555
C1 C2 1_555 1_555
C2 C3 1_555 1_555
C3 H1 1_555 1_555
C4 C3 1_555 1_555
C5 C4 1_555 1_555
H2 C5 1_555 1_555
C6 C5 1_555 1_555
H3 C6 1_555 1_555
C7 C6 1_555 1_555
H4 C7 1_555 1_555
C8 C7 1_555 1_555
H5 C8 1_555 1_555
C9 C4 1_555 1_555
C10 C1 1_555 1_555
C11 C10 1_555 1_555
H6 C11 1_555 1_555
H7 C11 1_555 1_555
C12 C11 1_555 1_555
H8 C12 1_555 1_555
H9 C12 1_555 1_555
C13 C12 1_555 1_555
C14 C13 1_555 1_555
C15 C14 1_555 1_555
C16 C15 1_555 1_555
H10 C16 1_555 1_555
C17 C16 1_555 1_555
C18 C13 1_555 1_555
C19 C18 1_555 1_555
H11 C19 1_555 1_555
C20 C19 1_555 1_555
H12 C20 1_555 1_555
C21 C20 1_555 1_555
H13 C21 1_555 1_555
C22 C17 1_555 1_555
H14 C22 1_555 1_555
O1 C1 1_555 1_555
O2 C14 1_555 1_555
C8 C9 1_555 1_555
C9 C10 1_555 1_555
C13 O1 1_555 1_555
C17 C18 1_555 1_555
C21 C22 1_555 1_555

#END
