
#######################################################################
#
#                 Cambridge Crystallographic Data Centre
#                                CCDC 
#
#######################################################################
#
# If this CIF has been generated from an entry in the Cambridge 
# Structural Database, then it will include bibliographic, chemical, 
# crystal, experimental, refinement or atomic coordinate data resulting 
# from the CCDC's data processing and validation procedures.
#
#######################################################################

data_GIPHIY
_chemical_formula_moiety         'C16 H23 Br1 N2 O6'
_chemical_name_systematic        
't-Butyl (2-bromo-1-(3,4-dimethoxyphenyl)-2-nitropropyl)carbamate'
_symmetry_cell_setting           monoclinic
_symmetry_space_group_name_H-M   'C c'
_symmetry_Int_Tables_number      9
_space_group_name_Hall           'C -2yc'
loop_
_symmetry_equiv_pos_site_id
_symmetry_equiv_pos_as_xyz
1 x,y,z
2 x,-y,1/2+z
3 1/2+x,1/2+y,z
4 1/2+x,1/2-y,1/2+z
_cell_length_a                   15.414(3)
_cell_length_b                   14.390(2)
_cell_length_c                   10.3496(17)
_cell_angle_alpha                90
_cell_angle_beta                 124.521(2)
_cell_angle_gamma                90
_cell_volume                     1891.4
_exptl_crystal_description       block
_chemical_melting_point          '149-150 deg.C'
_cell_formula_units_Z            4
loop_
_atom_site_label
_atom_site_type_symbol
_atom_site_fract_x
_atom_site_fract_y
_atom_site_fract_z
Br1 Br 1.13947(4) 0.30133(3) 0.55401(5)
C1 C 1.3095(5) 0.7623(4) 0.8498(7)
H1 H 1.2509 0.8044 0.8021
H2 H 1.3741 0.7969 0.9066
H3 H 1.3061 0.7219 0.9207
C2 C 1.3316(4) 0.5380(4) 0.4504(7)
H4 H 1.3214 0.4745 0.4672
H5 H 1.4005 0.5451 0.4717
H6 H 1.2794 0.5549 0.3435
C3 C 1.2253(3) 0.6475(3) 0.6493(5)
C4 C 1.2340(3) 0.5843(3) 0.5522(5)
C5 C 1.1570(3) 0.5201(3) 0.4644(5)
H7 H 1.1637 0.4796 0.4004
C6 C 1.0672(3) 0.5143(3) 0.4693(4)
C7 C 1.0593(3) 0.5782(3) 0.5653(5)
H8 H 1.0008 0.5761 0.5700
C8 C 1.1355(3) 0.6431(3) 0.6515(5)
H9 H 1.1277 0.6850 0.7126
C9 C 0.9851(3) 0.4424(3) 0.3708(4)
H10 H 0.9915 0.4274 0.2842
C10 C 0.9984(3) 0.3500(3) 0.4574(5)
C11 C 0.9754(3) 0.3513(3) 0.5923(5)
H11 H 1.0147 0.4007 0.6649
H12 H 0.9964 0.2930 0.6470
H13 H 0.9016 0.3609 0.5447
C12 C 0.8111(3) 0.4898(3) 0.1426(4)
C13 C 0.6315(3) 0.5494(3) -0.0494(5)
C14 C 0.5573(4) 0.6010(5) -0.0217(7)
H14 H 0.5368 0.5607 0.0305
H15 H 0.4958 0.6202 -0.1205
H16 H 0.5924 0.6546 0.0424
C15 C 0.5856(5) 0.4547(4) -0.1206(7)
H17 H 0.6267 0.4263 -0.1530
H18 H 0.5142 0.4620 -0.2098
H19 H 0.5868 0.4161 -0.0440
C16 C 0.6584(5) 0.6086(5) -0.1425(8)
H20 H 0.6907 0.6654 -0.0869
H21 H 0.5953 0.6227 -0.2429
H22 H 0.7064 0.5755 -0.1570
N1 N 0.9244(4) 0.2772(4) 0.3285(6)
N2 N 0.8776(2) 0.4752(2) 0.3005(4)
H23 H 0.8557 0.4854 0.3594
O1 O 1.3056(3) 0.7078(2) 0.7304(5)
O2 O 1.3220(3) 0.5960(3) 0.5513(4)
O3 O 0.9421(6) 0.2651(4) 0.2302(6)
O4 O 0.8699(6) 0.2390(6) 0.3461(10)
O5 O 0.7259(2) 0.5359(2) 0.1138(3)
O6 O 0.8264(2) 0.4649(2) 0.0453(3)
loop_
_geom_bond_atom_site_label_1
_geom_bond_atom_site_label_2
_geom_bond_site_symmetry_1
_geom_bond_site_symmetry_2
Br1 C10 1_555 1_555
C1 H1 1_555 1_555
H2 C1 1_555 1_555
H3 C1 1_555 1_555
C2 H4 1_555 1_555
H5 C2 1_555 1_555
H6 C2 1_555 1_555
C3 C4 1_555 1_555
C4 C5 1_555 1_555
C5 H7 1_555 1_555
C6 C5 1_555 1_555
C7 C6 1_555 1_555
H8 C7 1_555 1_555
C8 C3 1_555 1_555
H9 C8 1_555 1_555
C9 C6 1_555 1_555
H10 C9 1_555 1_555
C10 C9 1_555 1_555
C11 C10 1_555 1_555
H11 C11 1_555 1_555
H12 C11 1_555 1_555
H13 C11 1_555 1_555
C12 N2 1_555 1_555
C13 C14 1_555 1_555
C14 H14 1_555 1_555
H15 C14 1_555 1_555
H16 C14 1_555 1_555
C15 C13 1_555 1_555
H17 C15 1_555 1_555
H18 C15 1_555 1_555
H19 C15 1_555 1_555
C16 C13 1_555 1_555
H20 C16 1_555 1_555
H21 C16 1_555 1_555
H22 C16 1_555 1_555
N1 C10 1_555 1_555
N2 C9 1_555 1_555
H23 N2 1_555 1_555
O1 C1 1_555 1_555
O2 C2 1_555 1_555
O3 N1 1_555 1_555
O4 N1 1_555 1_555
O5 C12 1_555 1_555
O6 C12 1_555 1_555
C3 O1 1_555 1_555
C4 O2 1_555 1_555
C7 C8 1_555 1_555
C13 O5 1_555 1_555

#END
