
#######################################################################
#
#                 Cambridge Crystallographic Data Centre
#                                CCDC 
#
#######################################################################
#
# If this CIF has been generated from an entry in the Cambridge 
# Structural Database, then it will include bibliographic, chemical, 
# crystal, experimental, refinement or atomic coordinate data resulting 
# from the CCDC's data processing and validation procedures.
#
#######################################################################

data_GIPLID
_chemical_formula_moiety         'C12 H18 O2 S2'
_chemical_name_systematic        
"5-methylspiro[bicyclo[2.2.2]octane-2,2'-[1,3]dithiolane]-5-carboxylic acid"
_symmetry_cell_setting           triclinic
_symmetry_space_group_name_H-M   'P 1'
_symmetry_Int_Tables_number      1
_space_group_name_Hall           'P 1'
loop_
_symmetry_equiv_pos_site_id
_symmetry_equiv_pos_as_xyz
1 x,y,z
_cell_length_a                   6.4643(7)
_cell_length_b                   8.7696(9)
_cell_length_c                   33.415(4)
_cell_angle_alpha                93.557(5)
_cell_angle_beta                 92.653(4)
_cell_angle_gamma                98.412(4)
_cell_volume                     1867.34
_exptl_crystal_colour            colorless
_cell_formula_units_Z            6
loop_
_atom_site_label
_atom_site_type_symbol
_atom_site_fract_x
_atom_site_fract_y
_atom_site_fract_z
C1 C 0.0268(2) 0.74613(16) 0.24607(4)
C2 C -0.1126(2) 0.87412(16) 0.25352(4)
H1 H -0.2427 0.8299 0.2664
C3 C -0.1717(2) 0.94176(18) 0.21415(4)
H2 H -0.2457 1.0312 0.2199
H3 H -0.2670 0.8629 0.1970
C4 C 0.0287(2) 0.99379(19) 0.19193(4)
H4 H 0.0339 0.9235 0.1678
H5 H 0.0274 1.0995 0.1832
C5 C 0.2222(2) 0.99096(17) 0.22043(4)
H6 H 0.3517 1.0352 0.2074
C6 C 0.2345(2) 0.82289(16) 0.22937(4)
H7 H 0.3521 0.8202 0.2493
H8 H 0.2621 0.7639 0.2045
C7 C 0.0116(2) 1.00308(16) 0.28170(4)
H9 H 0.0597 0.9592 0.3065
H10 H -0.0798 1.0801 0.2894
C8 C 0.2050(2) 1.08396(16) 0.26072(4)
C9 C -0.0854(2) 0.61423(18) 0.21679(4)
H11 H -0.0040 0.5283 0.2159
H12 H -0.0986 0.6517 0.1899
H13 H -0.2251 0.5787 0.2259
C10 C 0.0676(2) 0.67740(16) 0.28591(4)
C11 C 0.5441(3) 1.2954(2) 0.29441(6)
H14 H 0.5021 1.3458 0.3195
H15 H 0.6988 1.3143 0.2942
C12 C 0.4479(3) 1.3605(2) 0.25820(6)
H16 H 0.5145 1.3290 0.2335
H17 H 0.4684 1.4748 0.2615
O1 O -0.10699(16) 0.62069(14) 0.30236(3)
H18 H -0.073(4) 0.582(3) 0.3251(5)
O2 O 0.24198(16) 0.67212(13) 0.30140(3)
S1 S 0.45122(5) 1.08966(4) 0.292013(11)
S2 S 0.17265(6) 1.28479(4) 0.254721(14)
C13 C 0.1807(2) 0.41857(16) 0.42556(4)
C14 C 0.31724(19) 0.29026(15) 0.41610(4)
H19 H 0.4482 0.3360 0.4038
C15 C 0.3740(2) 0.21293(17) 0.45427(4)
H20 H 0.4704 0.2874 0.4724
H21 H 0.4460 0.1236 0.4471
C16 C 0.1722(2) 0.15778(18) 0.47578(4)
H22 H 0.1708 0.0495 0.4827
H23 H 0.1683 0.2229 0.5009
C17 C -0.0202(2) 0.16933(16) 0.44779(4)
H24 H -0.1506 0.1233 0.4602
C18 C -0.0280(2) 0.34083(16) 0.44166(4)
H25 H -0.0528 0.3948 0.4675
H26 H -0.1457 0.3497 0.4223
C19 C 0.1909(2) 0.16699(15) 0.38635(4)
H27 H 0.2804 0.0900 0.3777
H28 H 0.1450 0.2161 0.3623
C20 C -0.0043(2) 0.08456(15) 0.40635(4)
C21 C 0.2969(2) 0.54530(17) 0.45593(4)
H29 H 0.4342 0.5840 0.4462
H30 H 0.3158 0.5021 0.4820
H31 H 0.2147 0.6304 0.4589
C22 C 0.1408(2) 0.49397(15) 0.38660(4)
C23 C -0.3509(2) -0.11630(18) 0.37125(5)
H32 H -0.5055 -0.1316 0.3718
H33 H -0.3128 -0.1650 0.3456
C24 C -0.2566(2) -0.18915(18) 0.40649(5)
H34 H -0.2822 -0.3032 0.4022
H35 H -0.3197 -0.1589 0.4317
O3 O 0.31511(16) 0.55333(14) 0.37046(3)
H36 H 0.292(4) 0.601(3) 0.3490(5)
O4 O -0.03395(17) 0.50060(13) 0.37130(3)
S3 S -0.24882(5) 0.08853(4) 0.375196(10)
S4 S 0.02134(5) -0.11912(4) 0.409355(12)
C25 C -0.0269(2) 0.24914(16) 0.75614(4)
C26 C 0.1140(2) 0.12383(16) 0.74685(4)
H37 H 0.2441 0.1716 0.7346
C27 C 0.1729(2) 0.04791(19) 0.78523(4)
H38 H 0.2644 0.1245 0.8037
H39 H 0.2507 -0.0384 0.7783
C28 C -0.0280(2) -0.01335(19) 0.80604(4)
H40 H -0.0258 -0.1221 0.8122
H41 H -0.0350 0.0487 0.8316
C29 C -0.2211(2) -0.00288(16) 0.77813(4)
H42 H -0.3507 -0.0509 0.7905
C30 C -0.2332(2) 0.16862(16) 0.77241(4)
H43 H -0.2580 0.2214 0.7984
H44 H -0.3522 0.1766 0.7533
C31 C -0.0085(2) -0.00134(16) 0.71712(4)
H45 H 0.0838 -0.0769 0.7088
H46 H -0.0547 0.0466 0.6929
C32 C -0.2030(2) -0.08629(16) 0.73671(4)
C33 C 0.0858(3) 0.37833(19) 0.78642(5)
H47 H 0.2212 0.4204 0.7765
H48 H 0.1084 0.3358 0.8124
H49 H -0.0006 0.4608 0.7896
C34 C -0.0680(2) 0.32288(16) 0.71698(4)
C35 C -0.5484(2) -0.28901(18) 0.70192(5)
H50 H -0.7028 -0.3053 0.7028
H51 H -0.5112 -0.3373 0.6762
C36 C -0.4510(2) -0.36141(18) 0.73698(5)
H52 H -0.4749 -0.4755 0.7326
H53 H -0.5134 -0.3321 0.7623
O5 O 0.10575(17) 0.38380(14) 0.70095(3)
H54 H 0.078(4) 0.429(3) 0.6793(6)
O6 O -0.24305(16) 0.32652(13) 0.70127(3)
S5 S -0.44873(5) -0.08385(4) 0.705783(10)
S6 S -0.17385(5) -0.28910(4) 0.739420(12)
C37 C -0.1799(2) 0.57671(15) 0.57584(4)
C38 C -0.31633(19) 0.70576(15) 0.58460(4)
H55 H -0.4471 0.6614 0.5972
C39 C -0.3733(2) 0.77926(17) 0.54581(4)
H56 H -0.4450 0.8692 0.5523
H57 H -0.4700 0.7033 0.5281
C40 C -0.1724(2) 0.83185(18) 0.52391(4)
H58 H -0.1685 0.7640 0.4992
H59 H -0.1714 0.9390 0.5161
C41 C 0.0202(2) 0.82368(16) 0.55212(4)
H60 H 0.1503 0.8685 0.5394
C42 C 0.0294(2) 0.65322(16) 0.55960(4)
H61 H 0.1465 0.6469 0.5793
H62 H 0.0557 0.5967 0.5342
C43 C -0.1891(2) 0.83114(16) 0.61354(4)
H63 H -0.1420 0.7840 0.6379
H64 H -0.2787 0.9085 0.6219
C44 C 0.00464(19) 0.91240(15) 0.59314(4)
C45 C -0.2957(2) 0.44878(17) 0.54588(4)
H65 H -0.2173 0.3613 0.5443
H66 H -0.3077 0.4891 0.5193
H67 H -0.4360 0.4145 0.5549
C46 C -0.1398(2) 0.50381(15) 0.61529(4)
C47 C 0.3464(2) 1.11892(18) 0.62797(5)
H68 H 0.3040 1.1670 0.6533
H69 H 0.5012 1.1371 0.6280
C48 C 0.2522(2) 1.18891(17) 0.59209(5)
H70 H 0.3178 1.1586 0.5672
H71 H 0.2749 1.3031 0.5960
O7 O -0.31484(16) 0.44487(13) 0.63138(3)
H72 H -0.281(4) 0.408(3) 0.6548(5)
O8 O 0.03414(16) 0.49902(13) 0.63093(3)
S7 S 0.25082(5) 0.91281(4) 0.623990(10)
S8 S -0.02423(5) 1.11527(4) 0.588707(12)
C49 C 0.4228(2) 0.33504(15) 1.09225(4)
C50 C 0.2760(2) 0.45481(16) 1.08189(4)
H73 H 0.1383 0.3997 1.0701
C51 C 0.2421(2) 0.55461(18) 1.11974(4)
H74 H 0.1616 0.4899 1.1387
H75 H 0.1605 0.6369 1.1124
C52 C 0.4556(2) 0.62803(17) 1.14011(4)
H76 H 0.4576 0.7405 1.1457
H77 H 0.4778 0.5819 1.1660
C53 C 0.63144(19) 0.59974(16) 1.11238(4)
H78 H 0.7685 0.6555 1.1244
C54 C 0.63966(19) 0.42507(16) 1.10816(4)
H79 H 0.6790 0.3893 1.1346
H80 H 0.7476 0.4041 1.0893
C55 C 0.38032(19) 0.56092(16) 1.05150(4)
H81 H 0.2834 0.6317 1.0429
H82 H 0.4110 0.4979 1.0275
C56 C 0.58741(19) 0.65685(15) 1.07044(4)
C57 C 0.3290(3) 0.22424(19) 1.12287(4)
H83 H 0.1868 0.1777 1.1133
H84 H 0.3244 0.2817 1.1488
H85 H 0.4162 0.1427 1.1259
C58 C 0.4404(2) 0.23772(16) 1.05352(4)
C59 C 0.9151(2) 0.83617(18) 1.03531(5)
H86 H 1.0701 0.8507 1.0365
H87 H 0.8653 0.8707 1.0094
C60 C 0.8398(2) 0.92987(17) 1.06988(5)
H88 H 0.8640 1.0413 1.0653
H89 H 0.9151 0.9140 1.0954
O9 O 0.25770(17) 0.16728(14) 1.03783(3)
H90 H 0.273(4) 0.114(3) 1.0153(5)
O10 O 0.60625(16) 0.22618(13) 1.03798(3)
S9 S 0.81226(5) 0.63397(4) 1.039316(10)
S10 S 0.56262(5) 0.86176(4) 1.071789(12)
C61 C 0.4636(2) -0.08308(16) 0.91190(4)
C62 C 0.60509(19) -0.20896(16) 0.91881(4)
H91 H 0.7433 -0.1597 0.9318
C63 C 0.6390(2) -0.29447(18) 0.87909(4)
H92 H 0.7140 -0.3826 0.8842
H93 H 0.7260 -0.2241 0.8624
C64 C 0.4250(2) -0.35422(19) 0.85650(4)
H94 H 0.4067 -0.2934 0.8329
H95 H 0.4195 -0.4638 0.8468
C65 C 0.2489(2) -0.33845(17) 0.88524(4)
H96 H 0.1113 -0.3879 0.8721
C66 C 0.2448(2) -0.16543(16) 0.89526(4)
H97 H 0.1402 -0.1528 0.9155
H98 H 0.2024 -0.1172 0.8708
C67 C 0.4960(2) -0.32487(16) 0.94637(4)
H99 H 0.4625 -0.2695 0.9714
H100 H 0.5908 -0.3991 0.9536
C68 C 0.2906(2) -0.41390(16) 0.92483(4)
C69 C 0.5596(3) 0.03445(18) 0.88304(4)
H101 H 0.4747 0.1180 0.8816
H102 H 0.5625 -0.0172 0.8563
H103 H 0.7026 0.0774 0.8929
C70 C 0.4504(2) 0.00531(15) 0.95212(4)
C71 C -0.0219(3) -0.6124(2) 0.95856(7)
H104 H 0.0392 -0.6491 0.9833
H105 H -0.1764 -0.6337 0.9590
C72 C 0.0505(3) -0.6946(2) 0.92188(7)
H106 H -0.0327 -0.6757 0.8976
H107 H 0.0340 -0.8073 0.9248
O11 O 0.63516(17) 0.07028(13) 0.96851(3)
H108 H 0.615(4) 0.122(3) 0.9911(5)
O12 O 0.28563(17) 0.01711(13) 0.96800(3)
S11 S 0.06353(5) -0.40646(4) 0.956275(11)
S12 S 0.32287(18) -0.61777(8) 0.91801(4)
S13? S 0.2645(13) -0.6201(5) 0.9069(2)
C73? C -0.0787(19) -0.6008(14) 0.9470(5)
H109? H -0.1706 -0.6290 0.9691
H110? H -0.1642 -0.6120 0.9213
C74? C 0.0984(19) -0.6984(12) 0.9451(4)
H111? H 0.0419 -0.8082 0.9379
H112? H 0.1780 -0.6908 0.9714
loop_
_geom_bond_atom_site_label_1
_geom_bond_atom_site_label_2
_geom_bond_site_symmetry_1
_geom_bond_site_symmetry_2
C1 C2 1_555 1_555
C2 H1 1_555 1_555
C3 C2 1_555 1_555
H2 C3 1_555 1_555
H3 C3 1_555 1_555
C4 C3 1_555 1_555
H4 C4 1_555 1_555
H5 C4 1_555 1_555
C5 C4 1_555 1_555
H6 C5 1_555 1_555
C6 C1 1_555 1_555
H7 C6 1_555 1_555
H8 C6 1_555 1_555
C7 C2 1_555 1_555
H9 C7 1_555 1_555
H10 C7 1_555 1_555
C8 C5 1_555 1_555
C9 C1 1_555 1_555
H11 C9 1_555 1_555
H12 C9 1_555 1_555
H13 C9 1_555 1_555
C10 C1 1_555 1_555
C11 H14 1_555 1_555
H15 C11 1_555 1_555
C12 C11 1_555 1_555
H16 C12 1_555 1_555
H17 C12 1_555 1_555
O1 C10 1_555 1_555
H18 O1 1_555 1_555
O2 C10 1_555 1_555
S1 C8 1_555 1_555
S2 C8 1_555 1_555
C13 C14 1_555 1_555
C14 H19 1_555 1_555
C15 C14 1_555 1_555
H20 C15 1_555 1_555
H21 C15 1_555 1_555
C16 C15 1_555 1_555
H22 C16 1_555 1_555
H23 C16 1_555 1_555
C17 C16 1_555 1_555
H24 C17 1_555 1_555
C18 C13 1_555 1_555
H25 C18 1_555 1_555
H26 C18 1_555 1_555
C19 C14 1_555 1_555
H27 C19 1_555 1_555
H28 C19 1_555 1_555
C20 C17 1_555 1_555
C21 C13 1_555 1_555
H29 C21 1_555 1_555
H30 C21 1_555 1_555
H31 C21 1_555 1_555
C22 C13 1_555 1_555
C23 H32 1_555 1_555
H33 C23 1_555 1_555
C24 C23 1_555 1_555
H34 C24 1_555 1_555
H35 C24 1_555 1_555
O3 C22 1_555 1_555
H36 O3 1_555 1_555
O4 C22 1_555 1_555
S3 C20 1_555 1_555
S4 C20 1_555 1_555
C25 C26 1_555 1_555
C26 H37 1_555 1_555
C27 C26 1_555 1_555
H38 C27 1_555 1_555
H39 C27 1_555 1_555
C28 C27 1_555 1_555
H40 C28 1_555 1_555
H41 C28 1_555 1_555
C29 C28 1_555 1_555
H42 C29 1_555 1_555
C30 C25 1_555 1_555
H43 C30 1_555 1_555
H44 C30 1_555 1_555
C31 C26 1_555 1_555
H45 C31 1_555 1_555
H46 C31 1_555 1_555
C32 C29 1_555 1_555
C33 C25 1_555 1_555
H47 C33 1_555 1_555
H48 C33 1_555 1_555
H49 C33 1_555 1_555
C34 C25 1_555 1_555
C35 H50 1_555 1_555
H51 C35 1_555 1_555
C36 C35 1_555 1_555
H52 C36 1_555 1_555
H53 C36 1_555 1_555
O5 C34 1_555 1_555
H54 O5 1_555 1_555
O6 C34 1_555 1_555
S5 C32 1_555 1_555
S6 C32 1_555 1_555
C37 C38 1_555 1_555
C38 H55 1_555 1_555
C39 C38 1_555 1_555
H56 C39 1_555 1_555
H57 C39 1_555 1_555
C40 C39 1_555 1_555
H58 C40 1_555 1_555
H59 C40 1_555 1_555
C41 C40 1_555 1_555
H60 C41 1_555 1_555
C42 C37 1_555 1_555
H61 C42 1_555 1_555
H62 C42 1_555 1_555
C43 C38 1_555 1_555
H63 C43 1_555 1_555
H64 C43 1_555 1_555
C44 C41 1_555 1_555
C45 C37 1_555 1_555
H65 C45 1_555 1_555
H66 C45 1_555 1_555
H67 C45 1_555 1_555
C46 C37 1_555 1_555
C47 H68 1_555 1_555
H69 C47 1_555 1_555
C48 C47 1_555 1_555
H70 C48 1_555 1_555
H71 C48 1_555 1_555
O7 C46 1_555 1_555
H72 O7 1_555 1_555
O8 C46 1_555 1_555
S7 C44 1_555 1_555
S8 C44 1_555 1_555
C49 C50 1_555 1_555
C50 H73 1_555 1_555
C51 C50 1_555 1_555
H74 C51 1_555 1_555
H75 C51 1_555 1_555
C52 C51 1_555 1_555
H76 C52 1_555 1_555
H77 C52 1_555 1_555
C53 C52 1_555 1_555
H78 C53 1_555 1_555
C54 C49 1_555 1_555
H79 C54 1_555 1_555
H80 C54 1_555 1_555
C55 C50 1_555 1_555
H81 C55 1_555 1_555
H82 C55 1_555 1_555
C56 C53 1_555 1_555
C57 C49 1_555 1_555
H83 C57 1_555 1_555
H84 C57 1_555 1_555
H85 C57 1_555 1_555
C58 C49 1_555 1_555
C59 H86 1_555 1_555
H87 C59 1_555 1_555
C60 C59 1_555 1_555
H88 C60 1_555 1_555
H89 C60 1_555 1_555
O9 C58 1_555 1_555
H90 O9 1_555 1_555
O10 C58 1_555 1_555
S9 C56 1_555 1_555
S10 C56 1_555 1_555
C61 C62 1_555 1_555
C62 H91 1_555 1_555
C63 C62 1_555 1_555
H92 C63 1_555 1_555
H93 C63 1_555 1_555
C64 C63 1_555 1_555
H94 C64 1_555 1_555
H95 C64 1_555 1_555
C65 C64 1_555 1_555
H96 C65 1_555 1_555
C66 C61 1_555 1_555
H97 C66 1_555 1_555
H98 C66 1_555 1_555
C67 C62 1_555 1_555
H99 C67 1_555 1_555
H100 C67 1_555 1_555
C68 C65 1_555 1_555
C69 C61 1_555 1_555
H101 C69 1_555 1_555
H102 C69 1_555 1_555
H103 C69 1_555 1_555
C70 C61 1_555 1_555
C71 H104 1_555 1_555
H105 C71 1_555 1_555
C72 C71 1_555 1_555
H106 C72 1_555 1_555
H107 C72 1_555 1_555
O11 C70 1_555 1_555
H108 O11 1_555 1_555
O12 C70 1_555 1_555
S11 C68 1_555 1_555
S12 C68 1_555 1_555
C5 C6 1_555 1_555
C7 C8 1_555 1_555
C11 S1 1_555 1_555
C12 S2 1_555 1_555
C17 C18 1_555 1_555
C19 C20 1_555 1_555
C23 S3 1_555 1_555
C24 S4 1_555 1_555
C29 C30 1_555 1_555
C31 C32 1_555 1_555
C35 S5 1_555 1_555
C36 S6 1_555 1_555
C41 C42 1_555 1_555
C43 C44 1_555 1_555
C47 S7 1_555 1_555
C48 S8 1_555 1_555
C53 C54 1_555 1_555
C55 C56 1_555 1_555
C59 S9 1_555 1_555
C60 S10 1_555 1_555
C65 C66 1_555 1_555
C67 C68 1_555 1_555
C71 S11 1_555 1_555
C72 S12 1_555 1_555

#END
