
#######################################################################
#
#                 Cambridge Crystallographic Data Centre
#                                CCDC 
#
#######################################################################
#
# If this CIF has been generated from an entry in the Cambridge 
# Structural Database, then it will include bibliographic, chemical, 
# crystal, experimental, refinement or atomic coordinate data resulting 
# from the CCDC's data processing and validation procedures.
#
#######################################################################

data_GIPLEY
_chemical_formula_moiety         'C42 H36 N10'
_chemical_name_systematic        
7,13,25,31-Tetramethyl-1,7,13,19,25,31,43,45,46,48-decaazanonacyclo[17.17.5.1^2,6^.1^8,12^.1^14,18^.1^20,24^.1^26,30^.1^32,36^.1^37,41^]octatetraconta-2(48),3,5,8(47),9,11,14(46),15,17,20(45),21,23,26(44),27,29,32(43),33,35,37,39,41-henicosaene
_symmetry_cell_setting           triclinic
_symmetry_space_group_name_H-M   'P -1'
_symmetry_Int_Tables_number      2
_space_group_name_Hall           '-P 1'
loop_
_symmetry_equiv_pos_site_id
_symmetry_equiv_pos_as_xyz
1 x,y,z
2 -x,-y,-z
_cell_length_a                   10.9901(17)
_cell_length_b                   12.415(2)
_cell_length_c                   13.379(3)
_cell_angle_alpha                89.992(7)
_cell_angle_beta                 81.014(5)
_cell_angle_gamma                74.842(6)
_cell_volume                     1738.74
_exptl_crystal_colour            'light yellow'
_exptl_crystal_description       block
_cell_formula_units_Z            2
loop_
_atom_site_label
_atom_site_type_symbol
_atom_site_fract_x
_atom_site_fract_y
_atom_site_fract_z
N1 N 0.42069(18) 0.74388(16) 0.39742(14)
N2 N 0.4404(2) 0.69538(19) 0.56186(15)
N3 N 0.8081(2) 0.84922(19) 0.48254(15)
N4 N 0.84907(18) 0.81688(16) 0.30930(14)
N5 N 0.87446(18) 0.77347(17) 0.13898(14)
N6 N 0.90018(18) 0.71527(16) -0.02760(14)
N7 N 0.9120(2) 0.6426(2) -0.18849(16)
N8 N 0.45356(19) 0.81886(18) -0.11616(15)
N9 N 0.42773(18) 0.80615(17) 0.05805(14)
N10 N 0.42349(17) 0.78179(17) 0.22904(14)
C1 C 0.3522(2) 0.76951(19) 0.32261(17)
C2 C 0.2211(2) 0.7795(2) 0.33599(19)
H1 H 0.1740 0.7966 0.2816
C3 C 0.1627(2) 0.7631(2) 0.4325(2)
H2 H 0.0734 0.7703 0.4447
C4 C 0.2310(2) 0.7370(2) 0.51012(18)
H3 H 0.1905 0.7266 0.5762
C5 C 0.3628(2) 0.72601(19) 0.48932(17)
C6 C 0.3914(3) 0.6576(3) 0.65793(19)
H4 H 0.3238 0.7187 0.6947
H5 H 0.4606 0.6340 0.6979
H6 H 0.3565 0.5945 0.6465
C7 C 0.5755(2) 0.6782(2) 0.53495(17)
C8 C 0.6559(3) 0.5720(2) 0.52640(19)
H7 H 0.6221 0.5094 0.5394
C9 C 0.7865(3) 0.5565(2) 0.4987(2)
H8 H 0.8418 0.4831 0.4921
C10 C 0.8372(2) 0.6471(2) 0.48068(19)
H9 H 0.9266 0.6360 0.4605
C11 C 0.7565(2) 0.7539(2) 0.49231(17)
C12 C 0.6262(2) 0.7695(2) 0.51806(17)
H10 H 0.5708 0.8429 0.5243
C13 C 0.7842(3) 0.9230(3) 0.5711(2)
H11 H 0.7161 0.9901 0.5638
H12 H 0.8624 0.9444 0.5782
H13 H 0.7581 0.8846 0.6314
C14 C 0.8463(2) 0.8850(2) 0.38737(18)
C15 C 0.8828(2) 0.9848(2) 0.37481(19)
H14 H 0.8812 1.0317 0.4314
C16 C 0.9208(2) 1.0122(2) 0.2782(2)
H15 H 0.9474 1.0788 0.2676
C17 C 0.9213(2) 0.9450(2) 0.19542(19)
H16 H 0.9458 0.9647 0.1281
C18 C 0.8842(2) 0.8469(2) 0.21596(17)
C19 C 0.9502(2) 0.75743(19) 0.04220(17)
C20 C 1.0689(2) 0.7811(2) 0.02155(19)
H17 H 1.1055 0.8070 0.0734
C21 C 1.1304(2) 0.7652(2) -0.0773(2)
H18 H 1.2096 0.7835 -0.0945
C22 C 1.0798(2) 0.7236(2) -0.15135(19)
H19 H 1.1211 0.7148 -0.2199
C23 C 0.9651(2) 0.69470(19) -0.12225(17)
C24 C 0.9732(3) 0.6139(3) -0.2913(2)
H20 H 0.9282 0.5684 -0.3234
H21 H 1.0621 0.5714 -0.2924
H22 H 0.9709 0.6822 -0.3285
C25 C 0.7835(2) 0.6326(2) -0.15904(18)
C26 C 0.7622(3) 0.5298(2) -0.1388(2)
H23 H 0.8318 0.4648 -0.1444
C27 C 0.6377(3) 0.5222(2) -0.1102(2)
H24 H 0.6226 0.4513 -0.0968
C28 C 0.5365(2) 0.6157(2) -0.10116(19)
H25 H 0.4519 0.6096 -0.0804
C29 C 0.5585(2) 0.7198(2) -0.12259(17)
C30 C 0.6820(2) 0.7274(2) -0.15157(18)
H26 H 0.6974 0.7979 -0.1665
C31 C 0.4512(3) 0.8898(2) -0.2003(2)
H27 H 0.4914 0.9492 -0.1877
H28 H 0.3625 0.9230 -0.2092
H29 H 0.4981 0.8458 -0.2618
C32 C 0.3925(2) 0.8657(2) -0.02077(18)
C33 C 0.2986(2) 0.9681(2) -0.00828(19)
H30 H 0.2777 1.0116 -0.0647
C34 C 0.2379(2) 1.0034(2) 0.0883(2)
H31 H 0.1706 1.0703 0.0986
C35 C 0.2730(2) 0.9430(2) 0.17100(18)
H32 H 0.2321 0.9674 0.2381
C36 C 0.3711(2) 0.84512(19) 0.15137(17)
C37 C 0.5561(2) 0.71912(19) 0.20715(16)
C38 C 0.5875(2) 0.6042(2) 0.20334(18)
H33 H 0.5229 0.5660 0.2190
C39 C 0.7134(2) 0.5449(2) 0.1767(2)
H34 H 0.7349 0.4656 0.1730
C40 C 0.8092(2) 0.5991(2) 0.15498(18)
H35 H 0.8958 0.5575 0.1368
C41 C 0.7767(2) 0.71435(19) 0.16023(16)
C42 C 0.6501(2) 0.77459(19) 0.18568(16)
H36 H 0.6281 0.8539 0.1884
loop_
_geom_bond_atom_site_label_1
_geom_bond_atom_site_label_2
_geom_bond_site_symmetry_1
_geom_bond_site_symmetry_2
N1 C1 1_555 1_555
N2 C5 1_555 1_555
N3 C11 1_555 1_555
N4 C14 1_555 1_555
N5 C18 1_555 1_555
N6 C19 1_555 1_555
N7 C23 1_555 1_555
N8 C29 1_555 1_555
N9 C32 1_555 1_555
N10 C1 1_555 1_555
C1 C2 1_555 1_555
C2 H1 1_555 1_555
C3 C2 1_555 1_555
H2 C3 1_555 1_555
C4 C3 1_555 1_555
H3 C4 1_555 1_555
C5 N1 1_555 1_555
C6 N2 1_555 1_555
H4 C6 1_555 1_555
H5 C6 1_555 1_555
H6 C6 1_555 1_555
C7 N2 1_555 1_555
C8 C7 1_555 1_555
H7 C8 1_555 1_555
C9 C8 1_555 1_555
H8 C9 1_555 1_555
C10 C9 1_555 1_555
H9 C10 1_555 1_555
C11 C10 1_555 1_555
C12 C7 1_555 1_555
H10 C12 1_555 1_555
C13 N3 1_555 1_555
H11 C13 1_555 1_555
H12 C13 1_555 1_555
H13 C13 1_555 1_555
C14 N3 1_555 1_555
C15 C14 1_555 1_555
H14 C15 1_555 1_555
C16 C15 1_555 1_555
H15 C16 1_555 1_555
C17 C16 1_555 1_555
H16 C17 1_555 1_555
C18 N4 1_555 1_555
C19 N5 1_555 1_555
C20 C19 1_555 1_555
H17 C20 1_555 1_555
C21 C20 1_555 1_555
H18 C21 1_555 1_555
C22 C21 1_555 1_555
H19 C22 1_555 1_555
C23 N6 1_555 1_555
C24 N7 1_555 1_555
H20 C24 1_555 1_555
H21 C24 1_555 1_555
H22 C24 1_555 1_555
C25 N7 1_555 1_555
C26 C25 1_555 1_555
H23 C26 1_555 1_555
C27 C26 1_555 1_555
H24 C27 1_555 1_555
C28 C27 1_555 1_555
H25 C28 1_555 1_555
C29 C28 1_555 1_555
C30 C25 1_555 1_555
H26 C30 1_555 1_555
C31 N8 1_555 1_555
H27 C31 1_555 1_555
H28 C31 1_555 1_555
H29 C31 1_555 1_555
C32 N8 1_555 1_555
C33 C32 1_555 1_555
H30 C33 1_555 1_555
C34 C33 1_555 1_555
H31 C34 1_555 1_555
C35 C34 1_555 1_555
H32 C35 1_555 1_555
C36 N9 1_555 1_555
C37 N10 1_555 1_555
C38 C37 1_555 1_555
H33 C38 1_555 1_555
C39 C38 1_555 1_555
H34 C39 1_555 1_555
C40 C39 1_555 1_555
H35 C40 1_555 1_555
C41 N5 1_555 1_555
C42 C37 1_555 1_555
H36 C42 1_555 1_555
N10 C36 1_555 1_555
C4 C5 1_555 1_555
C11 C12 1_555 1_555
C17 C18 1_555 1_555
C22 C23 1_555 1_555
C29 C30 1_555 1_555
C35 C36 1_555 1_555
C40 C41 1_555 1_555
C41 C42 1_555 1_555

#END
