
#######################################################################
#
#                 Cambridge Crystallographic Data Centre
#                                CCDC 
#
#######################################################################
#
# If this CIF has been generated from an entry in the Cambridge 
# Structural Database, then it will include bibliographic, chemical, 
# crystal, experimental, refinement or atomic coordinate data resulting 
# from the CCDC's data processing and validation procedures.
#
#######################################################################

data_GIPLUM
_chemical_name_common            
'4-((Dimethylamino)phenyl)carbamic acid methyl ester'
_chemical_formula_moiety         'C10 H14 N2 O2'
_chemical_name_systematic        'Methyl 4-(N,N-dimethylamino)phenylcarbamate'
_symmetry_cell_setting           orthorhombic
_symmetry_space_group_name_H-M   'P b c a'
_symmetry_Int_Tables_number      61
_space_group_name_Hall           '-P 2ac 2ab'
loop_
_symmetry_equiv_pos_site_id
_symmetry_equiv_pos_as_xyz
1 x,y,z
2 1/2-x,-y,1/2+z
3 1/2+x,1/2-y,-z
4 -x,1/2+y,1/2-z
5 -x,-y,-z
6 1/2+x,y,1/2-z
7 1/2-x,1/2+y,z
8 x,1/2-y,1/2+z
_cell_length_a                   13.926(4)
_cell_length_b                   9.999(4)
_cell_length_c                   14.854(7)
_cell_angle_alpha                90
_cell_angle_beta                 90
_cell_angle_gamma                90
_cell_volume                     2068.36
_exptl_crystal_colour            colorless
_chemical_melting_point          373-375K
_cell_formula_units_Z            8
loop_
_atom_site_label
_atom_site_type_symbol
_atom_site_fract_x
_atom_site_fract_y
_atom_site_fract_z
C1 C 0.4108(5) 0.2186(5) 1.0428(4)
C2 C 0.3782(5) 0.0924(5) 1.0110(4)
C3 C 0.3354(5) 0.0782(5) 0.9306(5)
C4 C 0.3184(4) 0.1840(5) 0.8725(4)
C5 C 0.3510(4) 0.3114(5) 0.9019(4)
C6 C 0.3942(5) 0.3262(5) 0.9836(4)
N1 N 0.2750(4) 0.1605(4) 0.7895(3)
C7 C 0.2306(4) 0.2483(6) 0.7345(4)
O1 O 0.2232(3) 0.3699(3) 0.7489(3)
O2 O 0.1955(3) 0.1892(4) 0.6613(3)
C8 C 0.1491(6) 0.2707(6) 0.5950(5)
N2 N 0.4537(5) 0.2325(5) 1.1251(4)
C9 C 0.4948(7) 0.3595(7) 1.1520(5)
C10 C 0.4721(6) 0.1182(7) 1.1820(4)
H1 H 0.3883(5) 0.0115(5) 1.0494(4)
H2 H 0.3142(5) -0.0131(5) 0.9116(4)
H3 H 0.3412(4) 0.3911(5) 0.8623(4)
H4 H 0.4170(5) 0.4169(5) 1.0022(4)
H5 H 0.2738(4) 0.0729(4) 0.7661(3)
H6 H 0.1272(6) 0.2132(6) 0.5439(5)
H7 H 0.1946(6) 0.3401(6) 0.5720(5)
H8 H 0.0924(6) 0.3154(6) 0.6233(5)
H9 H 0.5230(7) 0.3521(7) 1.2137(5)
H10 H 0.4436(7) 0.4296(7) 1.1519(5)
H11 H 0.5463(7) 0.3849(7) 1.1082(5)
H12 H 0.5037(6) 0.1477(7) 1.2390(4)
H13 H 0.5149(6) 0.0538(7) 1.1497(4)
H14 H 0.4097(6) 0.0735(7) 1.1964(4)
loop_
_geom_bond_atom_site_label_1
_geom_bond_atom_site_label_2
_geom_bond_site_symmetry_1
_geom_bond_site_symmetry_2
C1 C2 1_555 1_555
C2 C3 1_555 1_555
C3 C4 1_555 1_555
C4 C5 1_555 1_555
C5 C6 1_555 1_555
C6 C1 1_555 1_555
N1 C4 1_555 1_555
C7 N1 1_555 1_555
O1 C7 1_555 1_555
O2 C7 1_555 1_555
C8 O2 1_555 1_555
N2 C1 1_555 1_555
C9 N2 1_555 1_555
C10 N2 1_555 1_555
H1 C2 1_555 1_555
H2 C3 1_555 1_555
H3 C5 1_555 1_555
H4 C6 1_555 1_555
H5 N1 1_555 1_555
H6 C8 1_555 1_555
H7 C8 1_555 1_555
H8 C8 1_555 1_555
H9 C9 1_555 1_555
H10 C9 1_555 1_555
H11 C9 1_555 1_555
H12 C10 1_555 1_555
H13 C10 1_555 1_555
H14 C10 1_555 1_555

#END
