
#######################################################################
#
#                 Cambridge Crystallographic Data Centre
#                                CCDC 
#
#######################################################################
#
# If this CIF has been generated from an entry in the Cambridge 
# Structural Database, then it will include bibliographic, chemical, 
# crystal, experimental, refinement or atomic coordinate data resulting 
# from the CCDC's data processing and validation procedures.
#
#######################################################################

data_GIPQUS
_chemical_formula_moiety         'C35 H26 F1 N3 O2'
_chemical_name_systematic        
'(+-)-5-fluoro-2-naphthyl 2-(6H,12H-5,11-methanoindolo[6,5-c][1,5]benzodiazocin-8-yl)-3-methylbenzoate'
_symmetry_cell_setting           monoclinic
_symmetry_space_group_name_H-M   'P 21'
_symmetry_Int_Tables_number      4
_space_group_name_Hall           'P 2yb'
loop_
_symmetry_equiv_pos_site_id
_symmetry_equiv_pos_as_xyz
1 x,y,z
2 -x,1/2+y,-z
_cell_length_a                   10.6614(7)
_cell_length_b                   10.3936(7)
_cell_length_c                   12.2535(11)
_cell_angle_alpha                90
_cell_angle_beta                 102.627(2)
_cell_angle_gamma                90
_cell_volume                     1324.97
_exptl_crystal_colour            colorless
_exptl_crystal_description       plate
_cell_formula_units_Z            2
_exptl_crystal_recrystallization_method 'pentane/ethyl acetate'
loop_
_atom_site_label
_atom_site_type_symbol
_atom_site_fract_x
_atom_site_fract_y
_atom_site_fract_z
F1 F 0.5983(4) 0.5906(3) 1.2697(3)
O1 O 0.5230(4) 0.7682(5) 0.7073(3)
O2 O 0.7108(3) 0.8112(5) 0.8148(3)
N1 N 0.8793(3) 0.2517(4) 0.7570(3)
N2 N 0.7117(5) 0.3091(5) 1.2100(4)
N3 N 1.0398(3) 0.3318(4) 0.9138(3)
C1 C 0.7908(4) 0.2083(4) 0.8270(4)
C2 C 0.8262(4) 0.2650(4) 0.9448(4)
C3 C 0.7402(4) 0.2551(5) 1.0154(4)
C4 C 0.7753(4) 0.3072(5) 1.1228(4)
C5 C 0.7883(7) 0.3720(6) 1.2994(5)
C6 C 0.8978(6) 0.4107(6) 1.2728(5)
C7 C 0.8927(5) 0.3711(5) 1.1598(4)
C8 C 0.9777(4) 0.3787(4) 1.0890(4)
C9 C 0.9463(4) 0.3257(4) 0.9830(4)
C10 C 1.0096(4) 0.2387(5) 0.8240(4)
C11 C 1.0445(4) 0.4602(5) 0.8625(4)
C12 C 0.9331(4) 0.4831(4) 0.7644(4)
C13 C 0.9070(4) 0.6057(4) 0.7188(4)
C14 C 0.8035(4) 0.6301(4) 0.6331(4)
C15 C 0.7232(4) 0.5290(4) 0.5889(4)
C16 C 0.7490(4) 0.4053(4) 0.6304(4)
C17 C 0.8529(4) 0.3810(4) 0.7177(4)
C18 C 0.7789(4) 0.7640(4) 0.5872(4)
C19 C 0.6928(4) 0.8445(4) 0.6264(4)
C20 C 0.6722(6) 0.9700(5) 0.5843(6)
C21 C 0.7368(7) 1.0143(6) 0.5063(6)
C22 C 0.8218(6) 0.9354(6) 0.4689(5)
C23 C 0.8443(5) 0.8103(5) 0.5074(4)
C24 C 0.9391(6) 0.7271(6) 0.4663(6)
C25 C 0.6302(4) 0.8028(4) 0.7167(4)
C26 C 0.6715(5) 0.7822(7) 0.9153(5)
C27 C 0.6311(5) 0.8799(6) 0.9711(5)
C28 C 0.6056(4) 0.8570(5) 1.0792(5)
C29 C 0.5679(5) 0.9570(6) 1.1446(6)
C30 C 0.5422(6) 0.9333(6) 1.2450(6)
C31 C 0.5562(5) 0.8072(6) 1.2895(5)
C32 C 0.5901(5) 0.7131(5) 1.2288(5)
C33 C 0.6203(4) 0.7309(5) 1.1208(4)
C34 C 0.6618(5) 0.6320(5) 1.0599(5)
C35 C 0.6882(5) 0.6581(6) 0.9580(5)
H1 H 0.6372 0.2766 1.2087
H2 H 0.7050 0.2350 0.7928
H3 H 0.7937 0.1162 0.8330
H4 H 0.6587 0.2135 0.9896
H5 H 0.7589 0.3837 1.3673
H6 H 0.9618 0.4548 1.3272
H7 H 1.0582 0.4225 1.1135
H8 H 1.0206 0.1547 0.8573
H9 H 1.0698 0.2502 0.7769
H10 H 1.0416 0.5253 0.9174
H11 H 1.1228 0.4684 0.8365
H12 H 0.9631 0.6756 0.7483
H13 H 0.6486 0.5461 0.5309
H14 H 0.6960 0.3342 0.5986
H15 H 0.6137 1.0253 0.6116
H16 H 0.7224 1.1003 0.4777
H17 H 0.8672 0.9666 0.4147
H18 H 0.9740 0.7724 0.4114
H19 H 0.8978 0.6498 0.4338
H20 H 1.0071 0.7055 0.5289
H21 H 0.6189 0.9638 0.9376
H22 H 0.5613 1.0434 1.1162
H23 H 0.5138 1.0014 1.2867
H24 H 0.5413 0.7904 1.3627
H25 H 0.6730 0.5471 1.0914
H26 H 0.7167 0.5919 0.9144
loop_
_geom_bond_atom_site_label_1
_geom_bond_atom_site_label_2
_geom_bond_site_symmetry_1
_geom_bond_site_symmetry_2
F1 C32 1_555 1_555
O1 C25 1_555 1_555
O2 C25 1_555 1_555
N1 C1 1_555 1_555
N2 C4 1_555 1_555
N3 C9 1_555 1_555
C1 C2 1_555 1_555
C2 C3 1_555 1_555
C3 C4 1_555 1_555
C4 C7 1_555 1_555
C5 N2 1_555 1_555
C6 C5 1_555 1_555
C7 C6 1_555 1_555
C8 C7 1_555 1_555
C9 C2 1_555 1_555
C10 N1 1_555 1_555
C11 N3 1_555 1_555
C12 C11 1_555 1_555
C13 C12 1_555 1_555
C14 C13 1_555 1_555
C15 C14 1_555 1_555
C16 C15 1_555 1_555
C17 N1 1_555 1_555
C18 C14 1_555 1_555
C19 C18 1_555 1_555
C20 C19 1_555 1_555
C21 C20 1_555 1_555
C22 C21 1_555 1_555
C23 C18 1_555 1_555
C24 C23 1_555 1_555
C25 C19 1_555 1_555
C26 O2 1_555 1_555
C27 C26 1_555 1_555
C28 C27 1_555 1_555
C29 C28 1_555 1_555
C30 C29 1_555 1_555
C31 C30 1_555 1_555
C32 C31 1_555 1_555
C33 C28 1_555 1_555
C34 C33 1_555 1_555
C35 C26 1_555 1_555
H1 N2 1_555 1_555
H2 C1 1_555 1_555
H3 C1 1_555 1_555
H4 C3 1_555 1_555
H5 C5 1_555 1_555
H6 C6 1_555 1_555
H7 C8 1_555 1_555
H8 C10 1_555 1_555
H9 C10 1_555 1_555
H10 C11 1_555 1_555
H11 C11 1_555 1_555
H12 C13 1_555 1_555
H13 C15 1_555 1_555
H14 C16 1_555 1_555
H15 C20 1_555 1_555
H16 C21 1_555 1_555
H17 C22 1_555 1_555
H18 C24 1_555 1_555
H19 C24 1_555 1_555
H20 C24 1_555 1_555
H21 C27 1_555 1_555
H22 C29 1_555 1_555
H23 C30 1_555 1_555
H24 C31 1_555 1_555
H25 C34 1_555 1_555
H26 C35 1_555 1_555
N3 C10 1_555 1_555
C8 C9 1_555 1_555
C12 C17 1_555 1_555
C16 C17 1_555 1_555
C22 C23 1_555 1_555
C32 C33 1_555 1_555
C34 C35 1_555 1_555

#END
