
#######################################################################
#
#                 Cambridge Crystallographic Data Centre
#                                CCDC 
#
#######################################################################
#
# If this CIF has been generated from an entry in the Cambridge 
# Structural Database, then it will include bibliographic, chemical, 
# crystal, experimental, refinement or atomic coordinate data resulting 
# from the CCDC's data processing and validation procedures.
#
#######################################################################

data_GIPRAZ
_chemical_formula_moiety         'C35 H27 N3 O2'
_chemical_name_systematic        
'(+-)-2-naphthyl 2-(6H,12H-5,11-methanoindolo[6,5-c][1,5]benzodiazocin-8-yl)-3-methylbenzoate'
_symmetry_cell_setting           monoclinic
_symmetry_space_group_name_H-M   'P 21'
_symmetry_Int_Tables_number      4
_space_group_name_Hall           'P 2yb'
loop_
_symmetry_equiv_pos_site_id
_symmetry_equiv_pos_as_xyz
1 x,y,z
2 -x,1/2+y,-z
_cell_length_a                   10.3816(5)
_cell_length_b                   10.2734(5)
_cell_length_c                   12.6059(6)
_cell_angle_alpha                90
_cell_angle_beta                 101.422(3)
_cell_angle_gamma                90
_cell_volume                     1317.85
_exptl_crystal_colour            colorless
_exptl_crystal_description       plate
_cell_formula_units_Z            2
_exptl_crystal_recrystallization_method 'pentane/chloroform/ethyl acetate'
loop_
_atom_site_label
_atom_site_type_symbol
_atom_site_fract_x
_atom_site_fract_y
_atom_site_fract_z
N1 N 0.5382(3) 0.2777(3) 0.4098(2)
C1 C 0.3234(3) 0.2054(3) 0.4480(3)
C2 C 0.3480(4) 0.3209(3) 0.2215(2)
N2 N 0.3741(3) 0.1916(3) 0.2627(2)
C3 C 0.4298(3) 0.4258(3) 0.2622(2)
C4 C 0.3005(3) 0.5697(3) 0.1297(2)
C5 C 0.4052(3) 0.5479(3) 0.2145(3)
C6 C 0.5417(3) 0.4062(3) 0.3583(3)
C7 C 0.1359(4) 0.6511(4) 0.5986(3)
C8 C 0.2848(4) 0.1508(3) 0.3336(3)
C9 C 0.2425(4) 0.3440(3) 0.1373(3)
C10 C 0.2778(4) 0.2425(4) 0.6234(3)
C11 C 0.3958(4) 0.3091(3) 0.6563(3)
C12 C 0.1899(4) 0.7879(4) 0.1150(3)
C13 C 0.2391(4) 0.1913(3) 0.5197(3)
C14 C 0.5092(4) 0.1817(4) 0.3242(3)
O1 O 0.2001(3) 0.7754(4) 0.2984(2)
C15 C 0.4456(3) 0.2694(3) 0.4807(3)
C16 C 0.1108(4) 0.7813(4) 0.5663(3)
C17 C 0.4809(4) 0.3216(3) 0.5836(3)
C18 C 0.1274(4) 0.8198(4) 0.4617(3)
C19 C 0.2176(4) 0.4654(4) 0.0918(3)
C20 C 0.2773(4) 0.7024(3) 0.0812(2)
C21 C 0.4041(5) 0.3485(4) 0.7669(3)
C22 C 0.1936(4) 0.6036(5) 0.4263(4)
N3 N 0.2148(4) 0.2408(4) 0.7113(3)
C23 C 0.4451(6) 0.6582(5) -0.0350(4)
C24 C 0.3475(4) 0.7441(4) 0.0018(3)
C25 C 0.3239(5) 0.8695(5) -0.0401(3)
C26 C 0.1673(4) 0.7320(4) 0.3962(3)
C27 C 0.1772(5) 0.5642(4) 0.5260(4)
O2 O 0.0197(3) 0.6971(5) 0.1965(3)
C28 C 0.0714(5) 0.8702(5) 0.6388(4)
C29 C 0.0558(5) 0.8315(6) 0.7388(4)
C30 C 0.1692(5) 0.9127(4) 0.0706(4)
C31 C 0.1205(5) 0.6157(6) 0.7041(4)
C32 C 0.2379(6) 0.9524(5) -0.0060(4)
C33 C 0.1251(4) 0.7486(4) 0.2037(3)
C34 C 0.2935(6) 0.3036(5) 0.7957(4)
C35 C 0.0818(5) 0.7021(7) 0.7711(4)
H1 H 0.4623 0.6192 0.2413
H2 H 0.5352 0.4727 0.4105
H3 H 0.6231 0.4157 0.3339
H4 H 0.2879 0.0575 0.3375
H5 H 0.1974 0.1783 0.3016
H6 H 0.1843 0.2739 0.1096
H7 H 0.1564 0.1481 0.4965
H8 H 0.5684 0.1927 0.2752
H9 H 0.5202 0.0964 0.3557
H10 H 0.5633 0.3658 0.6057
H11 H 0.1098 0.9085 0.4394
H12 H 0.1437 0.4788 0.0337
H13 H 0.4798 0.3951 0.8042
H14 H 0.2204 0.5460 0.3748
H15 H 0.1242 0.2003 0.7074
H16 H 0.4829 0.7018 -0.0889
H17 H 0.4030 0.5795 -0.0649
H18 H 0.5131 0.6375 0.0261
H19 H 0.3705 0.8976 -0.0946
H20 H 0.1963 0.4757 0.5481
H21 H 0.0564 0.9596 0.6179
H22 H 0.0273 0.8932 0.7865
H23 H 0.1081 0.9693 0.0959
H24 H 0.1375 0.5279 0.7290
H25 H 0.2257 1.0384 -0.0360
H26 H 0.2796 0.3199 0.8676
H27 H 0.0724 0.6727 0.8415
loop_
_geom_bond_atom_site_label_1
_geom_bond_atom_site_label_2
_geom_bond_site_symmetry_1
_geom_bond_site_symmetry_2
N1 C6 1_555 1_555
C1 C8 1_555 1_555
C2 N2 1_555 1_555
N2 C8 1_555 1_555
C3 C2 1_555 1_555
C4 C5 1_555 1_555
C5 C3 1_555 1_555
C6 C3 1_555 1_555
C7 C16 1_555 1_555
C8 H4 1_555 1_555
C9 C2 1_555 1_555
C10 C11 1_555 1_555
C11 C17 1_555 1_555
C12 C20 1_555 1_555
C13 C1 1_555 1_555
C14 N1 1_555 1_555
O1 C26 1_555 1_555
C15 N1 1_555 1_555
C16 C18 1_555 1_555
C17 C15 1_555 1_555
C18 C26 1_555 1_555
C19 C4 1_555 1_555
C20 C4 1_555 1_555
C21 C11 1_555 1_555
C22 C26 1_555 1_555
N3 C10 1_555 1_555
C23 C24 1_555 1_555
C24 C20 1_555 1_555
C25 C24 1_555 1_555
C27 C7 1_555 1_555
O2 C33 1_555 1_555
C28 C16 1_555 1_555
C29 C28 1_555 1_555
C30 C12 1_555 1_555
C31 C7 1_555 1_555
C32 C25 1_555 1_555
C33 C12 1_555 1_555
C34 C21 1_555 1_555
C35 C29 1_555 1_555
H1 C5 1_555 1_555
H2 C6 1_555 1_555
H3 C6 1_555 1_555
H5 C8 1_555 1_555
H6 C9 1_555 1_555
H7 C13 1_555 1_555
H8 C14 1_555 1_555
H9 C14 1_555 1_555
H10 C17 1_555 1_555
H11 C18 1_555 1_555
H12 C19 1_555 1_555
H13 C21 1_555 1_555
H14 C22 1_555 1_555
H15 N3 1_555 1_555
H16 C23 1_555 1_555
H17 C23 1_555 1_555
H18 C23 1_555 1_555
H19 C25 1_555 1_555
H20 C27 1_555 1_555
H21 C28 1_555 1_555
H22 C29 1_555 1_555
H23 C30 1_555 1_555
H24 C31 1_555 1_555
H25 C32 1_555 1_555
H26 C34 1_555 1_555
H27 C35 1_555 1_555
C1 C15 1_555 1_555
N2 C14 1_555 1_555
C9 C19 1_555 1_555
C10 C13 1_555 1_555
O1 C33 1_555 1_555
C22 C27 1_555 1_555
N3 C34 1_555 1_555
C30 C32 1_555 1_555
C31 C35 1_555 1_555

#END
