
#######################################################################
#
#                 Cambridge Crystallographic Data Centre
#                                CCDC 
#
#######################################################################
#
# If this CIF has been generated from an entry in the Cambridge 
# Structural Database, then it will include bibliographic, chemical, 
# crystal, experimental, refinement or atomic coordinate data resulting 
# from the CCDC's data processing and validation procedures.
#
#######################################################################

data_GIPRAA
_chemical_formula_moiety         'C13 H16 N2 O3 S1'
_chemical_name_systematic        
2-(3,4-Dihydroxypyrrolidin-2-yl)-3-phenyl-1,3-thiazolidin-4-one
_symmetry_cell_setting           orthorhombic
_symmetry_space_group_name_H-M   'P 21 21 21'
_symmetry_Int_Tables_number      19
_space_group_name_Hall           'P 2ac 2ab'
loop_
_symmetry_equiv_pos_site_id
_symmetry_equiv_pos_as_xyz
1 x,y,z
2 1/2+x,1/2-y,-z
3 -x,1/2+y,1/2-z
4 1/2-x,-y,1/2+z
_cell_length_a                   5.7721(6)
_cell_length_b                   10.2768(11)
_cell_length_c                   22.111(2)
_cell_angle_alpha                90
_cell_angle_beta                 90
_cell_angle_gamma                90
_cell_volume                     1311.6
_exptl_crystal_colour            pink
_exptl_crystal_description       Prism
_cell_formula_units_Z            4
loop_
_atom_site_label
_atom_site_type_symbol
_atom_site_fract_x
_atom_site_fract_y
_atom_site_fract_z
S1 S 0.56088(8) 0.49605(5) 0.759847(19)
N1 N 0.7690(2) 0.64871(15) 0.64946(7)
N2 N 0.7507(3) 0.35014(13) 0.67649(6)
O1 O 0.4434(3) 0.74186(16) 0.53427(5)
H1 H 0.3114 0.7218 0.5242
O2 O 0.1830(2) 0.57264(13) 0.60263(6)
H2 H 0.0590 0.5947 0.6175
O3 O 1.0786(2) 0.27587(13) 0.72359(6)
C1 C 0.7049(3) 0.77005(18) 0.61687(8)
H3 H 0.8028 0.7810 0.5816
H4 H 0.7263 0.8447 0.6431
C2 C 0.4518(3) 0.75981(17) 0.59772(7)
H5 H 0.3650 0.8375 0.6098
C3 C 0.3644(3) 0.63876(16) 0.63176(7)
H6 H 0.3148 0.6640 0.6725
C4 C 0.5815(3) 0.55570(15) 0.63611(7)
H7 H 0.6111 0.5183 0.5961
C5 C 0.5610(3) 0.44376(15) 0.68115(7)
H8 H 0.4153 0.3978 0.6732
C6 C 0.8614(3) 0.45117(19) 0.76877(8)
H9 H 0.9605 0.5264 0.7630
H10 H 0.8884 0.4164 0.8089
C7 C 0.9117(3) 0.34909(17) 0.72141(7)
C8 C 0.7580(3) 0.26073(16) 0.62669(7)
C9 C 0.9510(4) 0.25519(18) 0.58984(8)
H11 H 1.0750 0.3112 0.5965
C10 C 0.9590(4) 0.1657(2) 0.54292(10)
H12 H 1.0898 0.1606 0.5185
C11 C 0.7747(5) 0.0851(2) 0.53252(10)
H13 H 0.7815 0.0244 0.5014
C12 C 0.5794(4) 0.09333(17) 0.56800(9)
H14 H 0.4531 0.0398 0.5600
C13 C 0.5698(4) 0.18124(15) 0.61566(8)
H15 H 0.4383 0.1865 0.6398
H16 H 0.765(3) 0.6659(16) 0.6878(8)
loop_
_geom_bond_atom_site_label_1
_geom_bond_atom_site_label_2
_geom_bond_site_symmetry_1
_geom_bond_site_symmetry_2
S1 C5 1_555 1_555
N1 C1 1_555 1_555
N2 C5 1_555 1_555
O1 H1 1_555 1_555
O2 H2 1_555 1_555
O3 C7 1_555 1_555
C1 H3 1_555 1_555
H4 C1 1_555 1_555
C2 O1 1_555 1_555
H5 C2 1_555 1_555
C3 O2 1_555 1_555
H6 C3 1_555 1_555
C4 N1 1_555 1_555
H7 C4 1_555 1_555
C5 C4 1_555 1_555
H8 C5 1_555 1_555
C6 S1 1_555 1_555
H9 C6 1_555 1_555
H10 C6 1_555 1_555
C7 N2 1_555 1_555
C8 N2 1_555 1_555
C9 C8 1_555 1_555
H11 C9 1_555 1_555
C10 C9 1_555 1_555
H12 C10 1_555 1_555
C11 C10 1_555 1_555
H13 C11 1_555 1_555
C12 C11 1_555 1_555
H14 C12 1_555 1_555
C13 C8 1_555 1_555
H15 C13 1_555 1_555
H16 N1 1_555 1_555
C1 C2 1_555 1_555
C2 C3 1_555 1_555
C3 C4 1_555 1_555
C6 C7 1_555 1_555
C12 C13 1_555 1_555

#END
