
#######################################################################
#
#                 Cambridge Crystallographic Data Centre
#                                CCDC 
#
#######################################################################
#
# If this CIF has been generated from an entry in the Cambridge 
# Structural Database, then it will include bibliographic, chemical, 
# crystal, experimental, refinement or atomic coordinate data resulting 
# from the CCDC's data processing and validation procedures.
#
#######################################################################

data_GIPRII
_chemical_formula_moiety         'C45 H41 N5 O4,C1 H4 O1,0.5(C3 H6 O1)'
_chemical_name_systematic        
'25,29-Dibenzyl-27-(2-hydroxyphenyl)-8-oxa-16,23,26,28,31-penta-azapentacyclo[14.10.4.1^10,14^.0^2,7^.0^17,22^]hentriaconta-2,4,6,10(31),11,13,17,19,21-nonaene-24,30-dione acetone methanol solvate'
_symmetry_cell_setting           triclinic
_symmetry_space_group_name_H-M   'P 1'
_symmetry_Int_Tables_number      1
_space_group_name_Hall           'P 1'
loop_
_symmetry_equiv_pos_site_id
_symmetry_equiv_pos_as_xyz
1 x,y,z
_cell_length_a                   9.4373(7)
_cell_length_b                   12.8563(10)
_cell_length_c                   17.2237(13)
_cell_angle_alpha                90.6930(10)
_cell_angle_beta                 100.7590(10)
_cell_angle_gamma                99.5150(10)
_cell_volume                     2022.76
_exptl_crystal_colour            colorless
_exptl_crystal_description       block
_cell_formula_units_Z            2
loop_
_atom_site_label
_atom_site_type_symbol
_atom_site_fract_x
_atom_site_fract_y
_atom_site_fract_z
C1 C 1.0774(3) 0.4298(3) 0.20784(18)
C2 C 1.1909(3) 0.4839(3) 0.26548(19)
H1 H 1.2245 0.5571 0.2612
C3 C 1.2546(4) 0.4312(3) 0.32882(19)
H2 H 1.3312 0.4683 0.3680
C4 C 1.2068(4) 0.3246(3) 0.3351(2)
H3 H 1.2513 0.2888 0.3785
C5 C 1.0939(4) 0.2693(3) 0.27832(19)
H4 H 1.0607 0.1962 0.2832
C6 C 1.0300(3) 0.3218(3) 0.21450(18)
C7 C 0.8744(3) 0.1670(3) 0.13518(19)
C8 C 0.7791(3) 0.1451(3) 0.05189(18)
H5 H 0.8445 0.1234 0.0175
C9 C 0.6534(3) 0.0504(3) 0.0484(2)
H6 H 0.6189 0.0246 -0.0074
H7 H 0.6925 -0.0073 0.0782
C10 C 0.5241(4) 0.0747(3) 0.0812(2)
C11 C 0.5325(5) 0.0892(4) 0.1624(2)
H8 H 0.6219 0.0866 0.1977
C12 C 0.4113(5) 0.1075(5) 0.1920(3)
H9 H 0.4176 0.1160 0.2474
C13 C 0.2816(5) 0.1134(4) 0.1409(3)
H10 H 0.1989 0.1264 0.1612
C14 C 0.2724(4) 0.1003(3) 0.0603(3)
H11 H 0.1834 0.1046 0.0250
C15 C 0.3925(4) 0.0811(3) 0.0310(2)
H12 H 0.3851 0.0720 -0.0245
C16 C 0.7246(3) 0.2548(2) -0.06570(18)
H13 H 0.7553 0.1909 -0.0867
C17 C 0.5669(3) 0.2528(2) -0.10894(19)
C18 C 0.5126(3) 0.1873(3) -0.17713(19)
H14 H 0.5774 0.1514 -0.1990
C19 C 0.3664(4) 0.1737(3) -0.2135(2)
H15 H 0.3315 0.1290 -0.2598
C20 C 0.2718(4) 0.2256(3) -0.1819(2)
H16 H 0.1712 0.2155 -0.2061
C21 C 0.3226(3) 0.2922(3) -0.1154(2)
H17 H 0.2571 0.3281 -0.0941
C22 C 0.4694(3) 0.3065(2) -0.07961(18)
C23 C 0.4557(4) 0.3734(3) 0.0497(2)
H18 H 0.4370 0.3001 0.0670
H19 H 0.3606 0.3979 0.0345
C24 C 0.5523(4) 0.4438(3) 0.11560(19)
C25 C 0.4914(4) 0.4768(3) 0.1768(2)
H20 H 0.3899 0.4561 0.1766
C26 C 0.5805(4) 0.5403(3) 0.2379(2)
H21 H 0.5419 0.5621 0.2814
C27 C 0.7269(4) 0.5718(3) 0.23501(19)
H22 H 0.7900 0.6171 0.2756
C28 C 0.7791(3) 0.5357(2) 0.17181(18)
C29 C 0.9378(3) 0.5714(3) 0.1652(2)
H23 H 0.9419 0.6258 0.1251
H24 H 0.9922 0.6049 0.2166
C30 C 1.0371(3) 0.4658(2) 0.06869(18)
C31 C 0.9582(3) 0.5198(3) -0.00222(19)
H25 H 0.9304 0.5853 0.0181
C32 C 1.0613(4) 0.5516(3) -0.05962(19)
H26 H 1.0845 0.4868 -0.0825
H27 H 1.0101 0.5885 -0.1036
C33 C 1.2030(4) 0.6222(3) -0.02254(19)
C34 C 1.2050(4) 0.7150(3) 0.0198(2)
H28 H 1.1153 0.7340 0.0274
C35 C 1.3359(4) 0.7808(3) 0.0513(2)
H29 H 1.3351 0.8451 0.0788
C36 C 1.4679(4) 0.7524(3) 0.0425(2)
H30 H 1.5579 0.7964 0.0649
C37 C 1.4676(4) 0.6600(3) 0.0011(2)
H31 H 1.5578 0.6400 -0.0046
C38 C 1.3372(4) 0.5962(3) -0.0323(2)
H32 H 1.3386 0.5340 -0.0623
C39 C 0.8400(3) 0.3492(3) -0.07987(18)
H33 H 0.9382 0.3334 -0.0549
C40 C 0.8384(3) 0.3579(3) -0.16820(19)
C41 C 0.9060(4) 0.2888(3) -0.2051(2)
H34 H 0.9557 0.2406 -0.1739
C42 C 0.9036(4) 0.2875(3) -0.2858(2)
H35 H 0.9516 0.2396 -0.3094
C43 C 0.8311(4) 0.3563(3) -0.3311(2)
H36 H 0.8276 0.3558 -0.3865
C44 C 0.7628(4) 0.4263(3) -0.2961(2)
H37 H 0.7128 0.4739 -0.3279
C45 C 0.7666(4) 0.4280(3) -0.2153(2)
N1 N 0.9171(3) 0.2706(2) 0.15396(15)
H38 H 0.8675 0.3127 0.1242
N2 N 0.7348(3) 0.2406(2) 0.01986(15)
H39 H 0.7145 0.2890 0.0506
N3 N 0.6953(3) 0.4722(2) 0.11252(16)
N4 N 1.0123(3) 0.4863(2) 0.14340(15)
N5 N 0.8223(3) 0.4490(2) -0.04136(15)
H40 H 0.7352 0.4654 -0.0417
O1 O 0.9124(3) 0.09576(19) 0.17640(14)
O2 O 0.5285(2) 0.37706(17) -0.01640(13)
O3 O 1.1134(2) 0.40099(18) 0.05781(13)
O4 O 0.6956(3) 0.4977(2) -0.18425(15)
H41 H 0.7065 0.4921 -0.1350
C46 C 0.8594(3) 0.4889(2) 0.42802(18)
C47 C 0.8683(4) 0.4162(3) 0.36940(19)
H42 H 0.9550 0.4216 0.3481
C48 C 0.7526(4) 0.3364(3) 0.3420(2)
H43 H 0.7594 0.2872 0.3018
C49 C 0.6262(4) 0.3278(3) 0.3732(2)
H44 H 0.5462 0.2728 0.3543
C50 C 0.6164(4) 0.3994(3) 0.4321(2)
H45 H 0.5300 0.3927 0.4537
C51 C 0.7316(3) 0.4807(3) 0.45940(18)
C52 C 0.6020(3) 0.5984(3) 0.52221(19)
C53 C 0.6248(3) 0.6857(3) 0.58642(19)
H46 H 0.6000 0.7507 0.5596
C54 C 0.5158(4) 0.6554(3) 0.6416(2)
H47 H 0.4160 0.6369 0.6093
H48 H 0.5392 0.5918 0.6697
C55 C 0.5165(3) 0.7413(3) 0.7017(2)
C56 C 0.4529(4) 0.8292(3) 0.6800(2)
H49 H 0.4107 0.8364 0.6262
C57 C 0.4503(4) 0.9065(3) 0.7362(2)
H50 H 0.4066 0.9664 0.7209
C58 C 0.5113(4) 0.8965(3) 0.8145(2)
H51 H 0.5087 0.9494 0.8529
C59 C 0.5757(5) 0.8109(3) 0.8373(2)
H52 H 0.6184 0.8048 0.8912
C60 C 0.5782(4) 0.7331(3) 0.7813(2)
H53 H 0.6224 0.6736 0.7972
C61 C 0.8398(3) 0.8245(3) 0.63157(19)
H54 H 0.7558 0.8639 0.6251
C62 C 0.9355(3) 0.8613(3) 0.71172(19)
C63 C 0.9174(4) 0.9560(3) 0.7460(2)
H55 H 0.8483 0.9953 0.7185
C64 C 0.9988(4) 0.9939(3) 0.8195(2)
H56 H 0.9856 1.0588 0.8417
C65 C 1.0977(4) 0.9381(3) 0.8601(2)
H57 H 1.1532 0.9645 0.9103
C66 C 1.1177(4) 0.8428(3) 0.8284(2)
H58 H 1.1863 0.8040 0.8569
C67 C 1.0369(4) 0.8047(3) 0.7549(2)
C68 C 1.1639(4) 0.6581(3) 0.7553(2)
H59 H 1.1433 0.6271 0.8052
H60 H 1.2564 0.7095 0.7679
C69 C 1.1790(3) 0.5726(3) 0.6986(2)
C70 C 1.2485(4) 0.4898(3) 0.7265(2)
H61 H 1.2783 0.4830 0.7817
C71 C 1.2737(4) 0.4173(3) 0.6733(2)
H62 H 1.3206 0.3598 0.6914
C72 C 1.2299(4) 0.4296(3) 0.5934(2)
H63 H 1.2471 0.3813 0.5555
C73 C 1.1601(3) 0.5142(3) 0.5696(2)
C74 C 1.1243(3) 0.5366(3) 0.48307(19)
H64 H 1.2029 0.5916 0.4711
H65 H 1.1251 0.4718 0.4517
C75 C 0.9683(3) 0.6753(3) 0.44774(17)
C76 C 1.0885(4) 0.7617(3) 0.49306(18)
H66 H 1.1784 0.7296 0.5098
C77 C 1.1259(4) 0.8516(3) 0.4392(2)
H67 H 1.0343 0.8746 0.4130
H68 H 1.1873 0.9124 0.4719
C78 C 1.2061(4) 0.8206(3) 0.3767(2)
C79 C 1.1495(4) 0.8242(3) 0.2971(2)
H69 H 1.0570 0.8454 0.2811
C80 C 1.2246(4) 0.7978(3) 0.2402(2)
H70 H 1.1834 0.8008 0.1857
C81 C 1.3593(4) 0.7671(3) 0.2623(2)
H71 H 1.4117 0.7499 0.2232
C82 C 1.4173(4) 0.7614(3) 0.3416(2)
H72 H 1.5090 0.7389 0.3572
C83 C 1.3418(4) 0.7886(3) 0.3984(2)
H73 H 1.3830 0.7853 0.4528
C84 C 0.9111(3) 0.8463(3) 0.55765(18)
H74 H 0.8400 0.8104 0.5108
C85 C 0.9386(4) 0.9630(3) 0.54278(19)
C86 C 0.8287(4) 1.0072(3) 0.4946(2)
H75 H 0.7403 0.9628 0.4705
C87 C 0.8469(5) 1.1148(3) 0.4816(3)
H76 H 0.7715 1.1434 0.4488
C88 C 0.9751(4) 1.1797(3) 0.5167(2)
H77 H 0.9876 1.2533 0.5083
C89 C 1.0854(4) 1.1381(3) 0.5641(2)
H78 H 1.1733 1.1831 0.5882
C90 C 1.0678(4) 1.0307(3) 0.57638(19)
N6 N 0.7221(3) 0.5540(2) 0.51904(15)
H79 H 0.7994 0.5724 0.5569
N7 N 0.7760(3) 0.7115(2) 0.62943(16)
H80 H 0.8248 0.6636 0.6521
N8 N 1.1335(3) 0.5852(2) 0.62076(15)
N9 N 0.9830(3) 0.5716(2) 0.45673(16)
N10 N 1.0447(3) 0.7983(2) 0.56577(15)
H81 H 1.0972 0.7916 0.6128
O5 O 0.4834(3) 0.5731(2) 0.47853(15)
O6 O 1.0477(2) 0.71003(19) 0.72033(13)
O7 O 0.8556(2) 0.69937(18) 0.40963(13)
O8 O 1.1830(3) 0.99318(19) 0.62044(14)
H82 H 1.1617 0.9273 0.6225
C91 C 0.4275(8) 0.0850(6) 0.4556(5)
H83 H 0.5165 0.0931 0.4331
H84 H 0.3457 0.0996 0.4155
H85 H 0.4052 0.0126 0.4726
C92 C 0.4504(6) 0.1602(4) 0.5247(4)
C93 C 0.5398(7) 0.1379(5) 0.5976(4)
H86 H 0.5507 0.1966 0.6363
H87 H 0.6364 0.1291 0.5881
H88 H 0.4932 0.0729 0.6181
O9 O 0.3966(5) 0.2402(4) 0.5161(3)
C94 C 0.7469(5) 0.8723(4) 0.2513(3)
H89 H 0.7968 0.9210 0.2959
H90 H 0.7392 0.7996 0.2686
H91 H 0.6486 0.8881 0.2321
O10 O 0.8272(3) 0.8839(2) 0.19015(16)
H92 H 0.8440 0.9479 0.1797
C95 C 0.9011(6) 0.8571(4) 0.0094(3)
H93 H 0.8210 0.8977 -0.0021
H94 H 0.9188 0.8283 -0.0401
H95 H 0.9900 0.9033 0.0369
O11 O 0.8627(4) 0.7734(2) 0.0580(2)
H96 H 0.8446 0.7979 0.0999
loop_
_geom_bond_atom_site_label_1
_geom_bond_atom_site_label_2
_geom_bond_site_symmetry_1
_geom_bond_site_symmetry_2
C1 C2 1_555 1_555
C2 H1 1_555 1_555
C3 C2 1_555 1_555
H2 C3 1_555 1_555
C4 C3 1_555 1_555
H3 C4 1_555 1_555
C5 C4 1_555 1_555
H4 C5 1_555 1_555
C6 C1 1_555 1_555
C7 C8 1_555 1_555
C8 H5 1_555 1_555
C9 C8 1_555 1_555
H6 C9 1_555 1_555
H7 C9 1_555 1_555
C10 C9 1_555 1_555
C11 C10 1_555 1_555
H8 C11 1_555 1_555
C12 C11 1_555 1_555
H9 C12 1_555 1_555
C13 C12 1_555 1_555
H10 C13 1_555 1_555
C14 C13 1_555 1_555
H11 C14 1_555 1_555
C15 C10 1_555 1_555
H12 C15 1_555 1_555
C16 H13 1_555 1_555
C17 C16 1_555 1_555
C18 C17 1_555 1_555
H14 C18 1_555 1_555
C19 C18 1_555 1_555
H15 C19 1_555 1_555
C20 C19 1_555 1_555
H16 C20 1_555 1_555
C21 C20 1_555 1_555
H17 C21 1_555 1_555
C22 C17 1_555 1_555
C23 H18 1_555 1_555
H19 C23 1_555 1_555
C24 C23 1_555 1_555
C25 C24 1_555 1_555
H20 C25 1_555 1_555
C26 C25 1_555 1_555
H21 C26 1_555 1_555
C27 C26 1_555 1_555
H22 C27 1_555 1_555
C28 C27 1_555 1_555
C29 C28 1_555 1_555
H23 C29 1_555 1_555
H24 C29 1_555 1_555
C30 C31 1_555 1_555
C31 H25 1_555 1_555
C32 C31 1_555 1_555
H26 C32 1_555 1_555
H27 C32 1_555 1_555
C33 C32 1_555 1_555
C34 C33 1_555 1_555
H28 C34 1_555 1_555
C35 C34 1_555 1_555
H29 C35 1_555 1_555
C36 C35 1_555 1_555
H30 C36 1_555 1_555
C37 C36 1_555 1_555
H31 C37 1_555 1_555
C38 C33 1_555 1_555
H32 C38 1_555 1_555
C39 C16 1_555 1_555
H33 C39 1_555 1_555
C40 C39 1_555 1_555
C41 C40 1_555 1_555
H34 C41 1_555 1_555
C42 C41 1_555 1_555
H35 C42 1_555 1_555
C43 C42 1_555 1_555
H36 C43 1_555 1_555
C44 C43 1_555 1_555
H37 C44 1_555 1_555
C45 C40 1_555 1_555
N1 C6 1_555 1_555
H38 N1 1_555 1_555
N2 C8 1_555 1_555
H39 N2 1_555 1_555
N3 C24 1_555 1_555
N4 C1 1_555 1_555
N5 C31 1_555 1_555
H40 N5 1_555 1_555
O1 C7 1_555 1_555
O2 C22 1_555 1_555
O3 C30 1_555 1_555
O4 C45 1_555 1_555
H41 O4 1_555 1_555
C46 C47 1_555 1_555
C47 H42 1_555 1_555
C48 C47 1_555 1_555
H43 C48 1_555 1_555
C49 C48 1_555 1_555
H44 C49 1_555 1_555
C50 C49 1_555 1_555
H45 C50 1_555 1_555
C51 C46 1_555 1_555
C52 C53 1_555 1_555
C53 H46 1_555 1_555
C54 C53 1_555 1_555
H47 C54 1_555 1_555
H48 C54 1_555 1_555
C55 C54 1_555 1_555
C56 C55 1_555 1_555
H49 C56 1_555 1_555
C57 C56 1_555 1_555
H50 C57 1_555 1_555
C58 C57 1_555 1_555
H51 C58 1_555 1_555
C59 C58 1_555 1_555
H52 C59 1_555 1_555
C60 C55 1_555 1_555
H53 C60 1_555 1_555
C61 H54 1_555 1_555
C62 C61 1_555 1_555
C63 C62 1_555 1_555
H55 C63 1_555 1_555
C64 C63 1_555 1_555
H56 C64 1_555 1_555
C65 C64 1_555 1_555
H57 C65 1_555 1_555
C66 C65 1_555 1_555
H58 C66 1_555 1_555
C67 C62 1_555 1_555
C68 H59 1_555 1_555
H60 C68 1_555 1_555
C69 C68 1_555 1_555
C70 C69 1_555 1_555
H61 C70 1_555 1_555
C71 C70 1_555 1_555
H62 C71 1_555 1_555
C72 C71 1_555 1_555
H63 C72 1_555 1_555
C73 C72 1_555 1_555
C74 C73 1_555 1_555
H64 C74 1_555 1_555
H65 C74 1_555 1_555
C75 C76 1_555 1_555
C76 H66 1_555 1_555
C77 C76 1_555 1_555
H67 C77 1_555 1_555
H68 C77 1_555 1_555
C78 C77 1_555 1_555
C79 C78 1_555 1_555
H69 C79 1_555 1_555
C80 C79 1_555 1_555
H70 C80 1_555 1_555
C81 C80 1_555 1_555
H71 C81 1_555 1_555
C82 C81 1_555 1_555
H72 C82 1_555 1_555
C83 C78 1_555 1_555
H73 C83 1_555 1_555
C84 C61 1_555 1_555
H74 C84 1_555 1_555
C85 C84 1_555 1_555
C86 C85 1_555 1_555
H75 C86 1_555 1_555
C87 C86 1_555 1_555
H76 C87 1_555 1_555
C88 C87 1_555 1_555
H77 C88 1_555 1_555
C89 C88 1_555 1_555
H78 C89 1_555 1_555
C90 C85 1_555 1_555
N6 C51 1_555 1_555
H79 N6 1_555 1_555
N7 C53 1_555 1_555
H80 N7 1_555 1_555
N8 C69 1_555 1_555
N9 C46 1_555 1_555
N10 C76 1_555 1_555
H81 N10 1_555 1_555
O5 C52 1_555 1_555
O6 C67 1_555 1_555
O7 C75 1_555 1_555
O8 C90 1_555 1_555
H82 O8 1_555 1_555
C91 H83 1_555 1_555
H84 C91 1_555 1_555
H85 C91 1_555 1_555
C92 C91 1_555 1_555
C93 C92 1_555 1_555
H86 C93 1_555 1_555
H87 C93 1_555 1_555
H88 C93 1_555 1_555
O9 C92 1_555 1_555
C94 H89 1_555 1_555
H90 C94 1_555 1_555
H91 C94 1_555 1_555
O10 C94 1_555 1_555
H92 O10 1_555 1_555
C95 H93 1_555 1_555
H94 C95 1_555 1_555
H95 C95 1_555 1_555
O11 C95 1_555 1_555
H96 O11 1_555 1_555
C5 C6 1_555 1_555
C7 N1 1_555 1_555
C14 C15 1_555 1_555
C16 N2 1_555 1_555
C21 C22 1_555 1_555
C23 O2 1_555 1_555
C28 N3 1_555 1_555
C29 N4 1_555 1_555
C30 N4 1_555 1_555
C37 C38 1_555 1_555
C39 N5 1_555 1_555
C44 C45 1_555 1_555
C50 C51 1_555 1_555
C52 N6 1_555 1_555
C59 C60 1_555 1_555
C61 N7 1_555 1_555
C66 C67 1_555 1_555
C68 O6 1_555 1_555
C73 N8 1_555 1_555
C74 N9 1_555 1_555
C75 N9 1_555 1_555
C82 C83 1_555 1_555
C84 N10 1_555 1_555
C89 C90 1_555 1_555

#END
