
#######################################################################
#
#                 Cambridge Crystallographic Data Centre
#                                CCDC 
#
#######################################################################
#
# If this CIF has been generated from an entry in the Cambridge 
# Structural Database, then it will include bibliographic, chemical, 
# crystal, experimental, refinement or atomic coordinate data resulting 
# from the CCDC's data processing and validation procedures.
#
#######################################################################

data_GIPVOR
_chemical_formula_moiety         'C38 H26 N4'
_chemical_name_systematic        bis(3,3'-(N-phenyl-2-(2-pyridyl)indolyl))
_symmetry_cell_setting           monoclinic
_symmetry_space_group_name_H-M   'P 21/n'
_symmetry_Int_Tables_number      14
_space_group_name_Hall           '-P 2yn'
loop_
_symmetry_equiv_pos_site_id
_symmetry_equiv_pos_as_xyz
1 x,y,z
2 1/2-x,1/2+y,1/2-z
3 -x,-y,-z
4 1/2+x,1/2-y,1/2+z
_cell_length_a                   8.8041(10)
_cell_length_b                   16.7489(18)
_cell_length_c                   18.758(2)
_cell_angle_alpha                90
_cell_angle_beta                 97.126(2)
_cell_angle_gamma                90
_cell_volume                     2744.67
_cell_formula_units_Z            4
loop_
_atom_site_label
_atom_site_type_symbol
_atom_site_fract_x
_atom_site_fract_y
_atom_site_fract_z
N1 N 0.1871(1) 0.1086(1) 0.1482(1)
N2 N 0.2383(1) 0.1109(1) 0.4582(1)
N3 N 0.4274(1) 0.2229(1) 0.2159(1)
N4 N 0.1099(1) 0.2584(1) 0.3281(1)
C1 C 0.2218(2) 0.2192(1) 0.5440(1)
C2 C 0.1865(2) 0.1748(1) 0.0331(1)
C3 C 0.2820(2) 0.2605(1) 0.6049(1)
C4 C 0.2557(2) 0.1913(1) -0.0276(1)
C5 C 0.3991(2) 0.1616(1) -0.0345(1)
C6 C 0.4159(2) 0.2351(1) 0.6444(1)
C7 C 0.4739(2) 0.1146(1) 0.0193(1)
C8 C 0.4910(2) 0.1691(1) 0.6223(1)
C9 C 0.4051(2) 0.0965(1) 0.0798(1)
C10 C 0.4331(2) 0.1282(1) 0.5608(1)
C11 C 0.2613(2) 0.1273(1) 0.0867(1)
C12 C 0.2978(2) 0.1532(1) 0.5219(1)
C13 C 0.2109(2) 0.1402(1) 0.3882(1)
C14 C 0.2487(2) 0.1141(1) 0.2203(1)
C15 C 0.1479(2) 0.0818(1) 0.2628(1)
C16 C 0.1689(2) 0.0785(1) 0.3416(1)
C17 C 0.0191(2) 0.0528(1) 0.2155(1)
C18 C 0.1646(2) 0.0077(1) 0.3844(1)
C19 C -0.1159(2) 0.0123(1) 0.2261(1)
C20 C 0.1295(2) -0.0726(1) 0.3682(1)
C21 C 0.1296(2) -0.1264(1) 0.4237(1)
C22 C -0.2145(2) -0.0109(1) 0.1672(1)
C23 C -0.1829(2) 0.0057(1) 0.0973(1)
C24 C 0.1642(2) -0.1018(1) 0.4949(1)
C25 C -0.0532(2) 0.0466(1) 0.0849(1)
C26 C 0.2041(2) -0.0242(1) 0.5127(1)
C27 C 0.0469(2) 0.0702(1) 0.1447(1)
C28 C 0.2066(2) 0.0297(1) 0.4565(1)
C29 C 0.1243(2) 0.3355(1) 0.3100(1)
C30 C 0.5650(2) 0.2552(1) 0.2377(1)
C31 C 0.2502(2) 0.3817(1) 0.3327(1)
C32 C 0.6768(2) 0.2189(1) 0.2844(1)
C33 C 0.3699(2) 0.3470(1) 0.3757(1)
C34 C 0.6463(2) 0.1450(1) 0.3108(1)
C35 C 0.3590(2) 0.2681(1) 0.3952(1)
C36 C 0.5061(2) 0.1102(1) 0.2903(1)
C37 C 0.3996(2) 0.1504(1) 0.2430(1)
C38 C 0.2285(2) 0.2256(1) 0.3706(1)
H1 H 0.1285 0.2361 0.5175
H2 H 0.0882 0.1959 0.0379
H3 H 0.2310 0.3065 0.6195
H4 H 0.2040 0.2233 -0.0647
H5 H 0.4463 0.1734 -0.0761
H6 H 0.4562 0.2630 0.6867
H7 H 0.5732 0.0945 0.0147
H8 H 0.5832 0.1516 0.6495
H9 H 0.4559 0.0633 0.1163
H10 H 0.4860 0.0832 0.5454
H11 H -0.1387 0.0012 0.2732
H12 H 0.1060 -0.0895 0.3198
H13 H 0.1059 -0.1808 0.4134
H14 H -0.3057 -0.0387 0.1739
H15 H -0.2525 -0.0117 0.0575
H16 H 0.1600 -0.1398 0.5323
H17 H -0.0326 0.0583 0.0375
H18 H 0.2288 -0.0081 0.5614
H19 H 0.0424 0.3596 0.2797
H20 H 0.5865 0.3065 0.2196
H21 H 0.2543 0.4362 0.3190
H22 H 0.7725 0.2443 0.2979
H23 H 0.4591 0.3771 0.3918
H24 H 0.7212 0.1182 0.3430
H25 H 0.4402 0.2432 0.4252
H26 H 0.4827 0.0593 0.3084
loop_
_geom_bond_atom_site_label_1
_geom_bond_atom_site_label_2
_geom_bond_site_symmetry_1
_geom_bond_site_symmetry_2
N1 C11 1_555 1_555
N2 C12 1_555 1_555
N3 C30 1_555 1_555
N4 C29 1_555 1_555
C1 C3 1_555 1_555
C2 C4 1_555 1_555
C3 C6 1_555 1_555
C4 C5 1_555 1_555
C5 C7 1_555 1_555
C6 C8 1_555 1_555
C7 C9 1_555 1_555
C8 C10 1_555 1_555
C9 C11 1_555 1_555
C10 C12 1_555 1_555
C11 C2 1_555 1_555
C12 C1 1_555 1_555
C13 N2 1_555 1_555
C14 N1 1_555 1_555
C15 C14 1_555 1_555
C16 C13 1_555 1_555
C17 C15 1_555 1_555
C18 C16 1_555 1_555
C19 C17 1_555 1_555
C20 C18 1_555 1_555
C21 C20 1_555 1_555
C22 C19 1_555 1_555
C23 C22 1_555 1_555
C24 C21 1_555 1_555
C25 C23 1_555 1_555
C26 C24 1_555 1_555
C27 N1 1_555 1_555
C28 N2 1_555 1_555
C29 C31 1_555 1_555
C30 C32 1_555 1_555
C31 C33 1_555 1_555
C32 C34 1_555 1_555
C33 C35 1_555 1_555
C34 C36 1_555 1_555
C35 C38 1_555 1_555
C36 C37 1_555 1_555
C37 N3 1_555 1_555
C38 N4 1_555 1_555
H1 C1 1_555 1_555
H2 C2 1_555 1_555
H3 C3 1_555 1_555
H4 C4 1_555 1_555
H5 C5 1_555 1_555
H6 C6 1_555 1_555
H7 C7 1_555 1_555
H8 C8 1_555 1_555
H9 C9 1_555 1_555
H10 C10 1_555 1_555
H11 C19 1_555 1_555
H12 C20 1_555 1_555
H13 C21 1_555 1_555
H14 C22 1_555 1_555
H15 C23 1_555 1_555
H16 C24 1_555 1_555
H17 C25 1_555 1_555
H18 C26 1_555 1_555
H19 C29 1_555 1_555
H20 C30 1_555 1_555
H21 C31 1_555 1_555
H22 C32 1_555 1_555
H23 C33 1_555 1_555
H24 C34 1_555 1_555
H25 C35 1_555 1_555
H26 C36 1_555 1_555
C13 C38 1_555 1_555
C14 C37 1_555 1_555
C15 C16 1_555 1_555
C17 C27 1_555 1_555
C18 C28 1_555 1_555
C25 C27 1_555 1_555
C26 C28 1_555 1_555

#END
