
#######################################################################
#
#                 Cambridge Crystallographic Data Centre
#                                CCDC 
#
#######################################################################
#
# If this CIF has been generated from an entry in the Cambridge 
# Structural Database, then it will include bibliographic, chemical, 
# crystal, experimental, refinement or atomic coordinate data resulting 
# from the CCDC's data processing and validation procedures.
#
#######################################################################

data_GIPWOU
_chemical_formula_moiety         'C48 H38 N2,2(C1 H2 Cl2)'
_chemical_name_systematic        
'(4S,8S)-1,5-dimethyl-2,3,4,6,7,8-hexaphenyl-1,4,5,8-tetrahydropyrrolo[2,3-f]indole dichloromethane solvate'
_symmetry_cell_setting           triclinic
_symmetry_space_group_name_H-M   'P -1'
_symmetry_Int_Tables_number      2
_space_group_name_Hall           '-P 1'
loop_
_symmetry_equiv_pos_site_id
_symmetry_equiv_pos_as_xyz
1 x,y,z
2 -x,-y,-z
_cell_length_a                   9.4874(19)
_cell_length_b                   13.459(3)
_cell_length_c                   17.619(4)
_cell_angle_alpha                70.00(3)
_cell_angle_beta                 81.67(3)
_cell_angle_gamma                77.48(3)
_cell_volume                     2057.69
_cell_formula_units_Z            2
_exptl_crystal_recrystallization_method 
'Re-crystallisation from solvent: dichloromethane and n-hexane'
loop_
_atom_site_label
_atom_site_type_symbol
_atom_site_fract_x
_atom_site_fract_y
_atom_site_fract_z
Cl1 Cl 0.85282(13) 0.09042(10) 0.18495(7)
Cl2 Cl 0.82354(15) 0.32227(11) 0.12741(7)
C1 C 0.7559(5) 0.2109(4) 0.1964(3)
H1 H 0.7612 0.2101 0.2512
H2 H 0.6549 0.2175 0.1882
Cl3 Cl 0.07847(18) -0.00484(13) 0.40175(8)
Cl4 Cl -0.0235(2) 0.22481(15) 0.37021(10)
C2 C 0.1139(6) 0.1163(4) 0.4062(3)
H3 H 0.1262 0.1080 0.4619
H4 H 0.2039 0.1310 0.3744
N1 N 0.1378(3) 0.4981(2) 0.14754(15)
N2 N 0.4838(3) 0.1561(2) 0.34806(15)
C3 C 0.1147(4) 0.5774(3) 0.18450(19)
C4 C 0.0303(4) 0.6850(3) 0.1510(2)
C5 C 0.0551(4) 0.7496(3) 0.07053(19)
H5 H 0.1259 0.7230 0.0365
C6 C -0.0240(4) 0.8520(3) 0.0409(2)
H6 H -0.0068 0.8932 -0.0128
C7 C -0.1290(4) 0.8940(3) 0.0910(2)
H7 H -0.1820 0.9630 0.0711
C8 C -0.1538(4) 0.8315(3) 0.1712(2)
H8 H -0.2229 0.8594 0.2053
C9 C -0.0771(4) 0.7288(3) 0.2007(2)
H9 H -0.0965 0.6877 0.2542
C10 C 0.1853(4) 0.5339(3) 0.25555(19)
C11 C 0.1868(4) 0.5912(3) 0.3137(2)
C12 C 0.2236(4) 0.6918(3) 0.2888(2)
H10 H 0.2535 0.7232 0.2348
C13 C 0.2164(5) 0.7467(3) 0.3434(2)
H11 H 0.2381 0.8156 0.3254
C14 C 0.1770(5) 0.6994(4) 0.4246(2)
H12 H 0.1761 0.7352 0.4614
C15 C 0.1393(4) 0.5993(3) 0.4507(2)
H13 H 0.1107 0.5680 0.5049
C16 C 0.1441(4) 0.5450(3) 0.3957(2)
H14 H 0.1187 0.4772 0.4136
C17 C 0.2546(4) 0.4265(3) 0.26070(18)
C18 C 0.3544(4) 0.3502(3) 0.32288(19)
H15 H 0.2990 0.3342 0.3757
C19 C 0.4797(4) 0.4003(3) 0.3280(2)
C20 C 0.5756(5) 0.4338(3) 0.2615(2)
H16 H 0.5628 0.4251 0.2130
C21 C 0.6912(5) 0.4801(4) 0.2655(2)
H17 H 0.7551 0.5014 0.2202
C22 C 0.7097(5) 0.4941(3) 0.3372(2)
H18 H 0.7875 0.5237 0.3406
C23 C 0.6133(5) 0.4643(3) 0.4040(2)
H19 H 0.6237 0.4765 0.4516
C24 C 0.5004(5) 0.4160(3) 0.3995(2)
H20 H 0.4376 0.3938 0.4451
C25 C 0.3992(4) 0.2462(3) 0.30204(19)
C26 C 0.5386(4) 0.1446(3) 0.4249(2)
H21 H 0.6187 0.1817 0.4141
H22 H 0.5699 0.0699 0.4534
H23 H 0.4629 0.1749 0.4573
C27 C 0.4925(4) 0.0727(3) 0.31648(19)
C28 C 0.5750(4) -0.0369(3) 0.35078(19)
C29 C 0.7161(4) -0.0562(3) 0.3721(2)
H24 H 0.7596 0.0013 0.3680
C30 C 0.7930(5) -0.1605(3) 0.3996(2)
H25 H 0.8873 -0.1722 0.4138
C31 C 0.7306(5) -0.2468(3) 0.4060(2)
H26 H 0.7826 -0.3164 0.4244
C32 C 0.5898(5) -0.2289(3) 0.3849(2)
H27 H 0.5469 -0.2865 0.3888
C33 C 0.5134(4) -0.1247(3) 0.3581(2)
H28 H 0.4187 -0.1133 0.3446
C34 C 0.4102(4) 0.1137(3) 0.24931(19)
C35 C 0.3866(4) 0.0524(3) 0.1972(2)
C36 C 0.2479(4) 0.0346(3) 0.1948(2)
H29 H 0.1702 0.0625 0.2248
C37 C 0.2252(5) -0.0247(3) 0.1479(2)
H30 H 0.1321 -0.0348 0.1458
C38 C 0.3394(5) -0.0682(3) 0.1047(2)
H31 H 0.3244 -0.1098 0.0749
C39 C 0.4759(5) -0.0498(3) 0.1058(2)
H32 H 0.5532 -0.0779 0.0757
C40 C 0.4994(4) 0.0107(3) 0.1517(2)
H33 H 0.5922 0.0231 0.1516
C41 C 0.3525(4) 0.2236(3) 0.24012(19)
C42 C 0.2590(4) 0.3025(3) 0.17532(18)
H34 H 0.1688 0.2758 0.1801
C43 C 0.3313(4) 0.3134(3) 0.0896(2)
C44 C 0.2721(5) 0.2785(3) 0.0370(2)
H35 H 0.1894 0.2477 0.0543
C45 C 0.3358(5) 0.2892(3) -0.0407(2)
H36 H 0.2945 0.2671 -0.0755
C46 C 0.4607(5) 0.3328(3) -0.0664(2)
H37 H 0.5038 0.3390 -0.1183
C47 C 0.5214(5) 0.3671(3) -0.0154(2)
H38 H 0.6058 0.3957 -0.0326
C48 C 0.4546(4) 0.3584(3) 0.0627(2)
H39 H 0.4939 0.3833 0.0967
C49 C 0.2218(4) 0.4072(3) 0.19352(18)
C50 C 0.0686(4) 0.5065(3) 0.0771(2)
H40 H 0.1360 0.5212 0.0302
H41 H -0.0138 0.5638 0.0693
H42 H 0.0376 0.4401 0.0850
loop_
_geom_bond_atom_site_label_1
_geom_bond_atom_site_label_2
_geom_bond_site_symmetry_1
_geom_bond_site_symmetry_2
Cl1 C1 1_555 1_555
Cl2 C1 1_555 1_555
C1 H1 1_555 1_555
H2 C1 1_555 1_555
Cl3 C2 1_555 1_555
Cl4 C2 1_555 1_555
C2 H3 1_555 1_555
H4 C2 1_555 1_555
N1 C3 1_555 1_555
N2 C25 1_555 1_555
C3 C4 1_555 1_555
C4 C5 1_555 1_555
C5 H5 1_555 1_555
C6 C5 1_555 1_555
H6 C6 1_555 1_555
C7 C6 1_555 1_555
H7 C7 1_555 1_555
C8 C7 1_555 1_555
H8 C8 1_555 1_555
C9 C4 1_555 1_555
H9 C9 1_555 1_555
C10 C3 1_555 1_555
C11 C10 1_555 1_555
C12 C11 1_555 1_555
H10 C12 1_555 1_555
C13 C12 1_555 1_555
H11 C13 1_555 1_555
C14 C13 1_555 1_555
H12 C14 1_555 1_555
C15 C14 1_555 1_555
H13 C15 1_555 1_555
C16 C11 1_555 1_555
H14 C16 1_555 1_555
C17 C10 1_555 1_555
C18 C17 1_555 1_555
H15 C18 1_555 1_555
C19 C18 1_555 1_555
C20 C19 1_555 1_555
H16 C20 1_555 1_555
C21 C20 1_555 1_555
H17 C21 1_555 1_555
C22 C21 1_555 1_555
H18 C22 1_555 1_555
C23 C22 1_555 1_555
H19 C23 1_555 1_555
C24 C19 1_555 1_555
H20 C24 1_555 1_555
C25 C18 1_555 1_555
C26 N2 1_555 1_555
H21 C26 1_555 1_555
H22 C26 1_555 1_555
H23 C26 1_555 1_555
C27 N2 1_555 1_555
C28 C27 1_555 1_555
C29 C28 1_555 1_555
H24 C29 1_555 1_555
C30 C29 1_555 1_555
H25 C30 1_555 1_555
C31 C30 1_555 1_555
H26 C31 1_555 1_555
C32 C31 1_555 1_555
H27 C32 1_555 1_555
C33 C28 1_555 1_555
H28 C33 1_555 1_555
C34 C27 1_555 1_555
C35 C34 1_555 1_555
C36 C35 1_555 1_555
H29 C36 1_555 1_555
C37 C36 1_555 1_555
H30 C37 1_555 1_555
C38 C37 1_555 1_555
H31 C38 1_555 1_555
C39 C38 1_555 1_555
H32 C39 1_555 1_555
C40 C35 1_555 1_555
H33 C40 1_555 1_555
C41 C25 1_555 1_555
C42 C41 1_555 1_555
H34 C42 1_555 1_555
C43 C42 1_555 1_555
C44 C43 1_555 1_555
H35 C44 1_555 1_555
C45 C44 1_555 1_555
H36 C45 1_555 1_555
C46 C45 1_555 1_555
H37 C46 1_555 1_555
C47 C46 1_555 1_555
H38 C47 1_555 1_555
C48 C43 1_555 1_555
H39 C48 1_555 1_555
C49 N1 1_555 1_555
C50 N1 1_555 1_555
H40 C50 1_555 1_555
H41 C50 1_555 1_555
H42 C50 1_555 1_555
C8 C9 1_555 1_555
C15 C16 1_555 1_555
C17 C49 1_555 1_555
C23 C24 1_555 1_555
C32 C33 1_555 1_555
C34 C41 1_555 1_555
C39 C40 1_555 1_555
C42 C49 1_555 1_555
C47 C48 1_555 1_555

#END
