
#######################################################################
#
#                 Cambridge Crystallographic Data Centre
#                                CCDC 
#
#######################################################################
#
# If this CIF has been generated from an entry in the Cambridge 
# Structural Database, then it will include bibliographic, chemical, 
# crystal, experimental, refinement or atomic coordinate data resulting 
# from the CCDC's data processing and validation procedures.
#
#######################################################################

data_GIPXEL
_chemical_formula_moiety         'C39 H24 B3 N9 O12,C4 H8 O2,C3 H6 O1'
_chemical_name_systematic        
'[4,10,16,22,25,31-hexaoxa-6,8,18,20,27,29,32,34,36-nona-azaheptacyclo[11.11.7.1^3,23^.1^5,9^.1^11,15^.1^17,21^.1^26,30^]hexatriaconta-1,3(33),5(36),6,8,11(35),12,14,17(34),18,20,23,26(32),27,29-pentadecaene-7,19,28-triyltris(4,1-phenylene)]triboronic acid acetone ethyl acetate unknown solvate'
_symmetry_cell_setting           triclinic
_symmetry_space_group_name_H-M   'P -1'
_symmetry_Int_Tables_number      2
_space_group_name_Hall           '-P 1'
loop_
_symmetry_equiv_pos_site_id
_symmetry_equiv_pos_as_xyz
1 x,y,z
2 -x,-y,-z
_cell_length_a                   12.109(2)
_cell_length_b                   16.382(3)
_cell_length_c                   18.900(4)
_cell_angle_alpha                92.32(3)
_cell_angle_beta                 107.54(3)
_cell_angle_gamma                92.41(3)
_cell_volume                     3566.15
_exptl_crystal_colour            colorless
_exptl_crystal_description       plate
_cell_formula_units_Z            2
loop_
_atom_site_label
_atom_site_type_symbol
_atom_site_fract_x
_atom_site_fract_y
_atom_site_fract_z
O1 O -0.7878(2) -0.24611(18) -0.05277(16)
H1 H -0.7294 -0.2606 -0.0642
O2 O -0.8455(3) -0.13962(19) 0.01147(18)
H2 H -0.9035 -0.1724 0.0042
O3 O 0.4058(2) -0.20623(18) 0.80384(15)
H3 H 0.3706 -0.1668 0.8147
O4 O 0.4719(3) -0.30196(19) 0.73607(16)
H4 H 0.4905 -0.3082 0.6969
O5 O 0.3575(3) 0.67050(18) -0.11273(15)
H5 H 0.3743 0.6994 -0.1441
O6 O 0.4288(3) 0.5693(2) -0.17928(17)
H6 H 0.4392 0.6100 -0.2026
O7 O -0.1531(2) 0.16126(17) 0.22622(15)
O8 O 0.1693(2) 0.34600(16) 0.22646(15)
O9 O 0.3131(2) 0.14421(16) 0.10504(15)
O10 O -0.0180(2) -0.03491(17) 0.09421(15)
O11 O 0.2033(3) 0.16590(19) 0.42873(15)
O12 O 0.3296(3) -0.03935(18) 0.30101(15)
N1 N -0.2781(3) 0.0611(2) 0.15671(17)
N2 N -0.0761(3) 0.0650(2) 0.16427(18)
N3 N -0.2080(3) -0.0419(2) 0.08971(19)
N4 N 0.3583(3) -0.0465(2) 0.42422(19)
N5 N 0.2633(3) 0.0663(2) 0.36088(18)
N6 N 0.2920(3) 0.0582(2) 0.49062(18)
N7 N 0.2497(3) 0.3808(2) 0.1353(2)
N8 N 0.2410(3) 0.2416(2) 0.16907(18)
N9 N 0.3260(3) 0.2770(2) 0.07449(18)
C1 C -0.6323(4) -0.1367(3) 0.0263(2)
C2 C -0.6143(4) -0.0614(3) 0.0688(2)
H7 H -0.6794 -0.0373 0.0775
C3 C -0.5075(4) -0.0219(3) 0.0978(3)
H8 H -0.4996 0.0268 0.1283
C4 C -0.4094(4) -0.0518(3) 0.0836(2)
C5 C -0.4222(4) -0.1252(3) 0.0401(2)
H9 H -0.3568 -0.1466 0.0296
C6 C -0.5312(4) -0.1672(3) 0.0122(2)
H10 H -0.5383 -0.2170 -0.0167
C7 C -0.2934(4) -0.0080(3) 0.1112(2)
C8 C -0.1676(4) 0.0908(2) 0.1800(2)
C9 C -0.1050(4) 0.0012(3) 0.1173(2)
C10 C 0.4121(4) -0.1677(3) 0.6732(2)
C11 C 0.3566(4) -0.0926(3) 0.6742(2)
H11 H 0.3319 -0.0772 0.7158
C12 C 0.3385(4) -0.0419(3) 0.6152(2)
H12 H 0.3008 0.0075 0.6167
C13 C 0.3748(4) -0.0625(3) 0.5541(2)
C14 C 0.4330(4) -0.1358(3) 0.5530(2)
H13 H 0.4596 -0.1499 0.5119
C15 C 0.4513(4) -0.1867(3) 0.6116(2)
H14 H 0.4911 -0.2352 0.6105
C16 C 0.3413(4) -0.0132(3) 0.4857(2)
C17 C 0.2541(3) 0.0940(3) 0.4254(2)
C18 C 0.3155(4) -0.0038(3) 0.3642(2)
C19 C 0.3582(4) 0.5264(3) -0.0699(2)
C20 C 0.3804(4) 0.4455(3) -0.0757(2)
H15 H 0.4082 0.4270 -0.1151
C21 C 0.3639(4) 0.3894(3) -0.0263(2)
H16 H 0.3812 0.3340 -0.0320
C22 C 0.3218(4) 0.4141(3) 0.0318(2)
C23 C 0.2976(4) 0.4960(3) 0.0396(2)
H17 H 0.2666 0.5130 0.0780
C24 C 0.3183(4) 0.5535(3) -0.0087(2)
H18 H 0.3063 0.6097 -0.0011
C25 C 0.3000(4) 0.3548(3) 0.0837(2)
C26 C 0.2928(3) 0.2247(3) 0.1170(2)
C27 C 0.2218(4) 0.3210(3) 0.1741(2)
C28 C -0.0372(3) 0.1930(2) 0.2596(2)
C29 C 0.0276(4) 0.1641(3) 0.3265(2)
H19 H -0.0037 0.1225 0.3497
C30 C 0.1392(4) 0.1976(2) 0.3584(2)
C31 C 0.1897(3) 0.2571(2) 0.3271(2)
H20 H 0.2667 0.2790 0.3502
C32 C 0.1219(4) 0.2832(3) 0.2600(2)
C33 C 0.0091(4) 0.2534(2) 0.2243(2)
H21 H -0.0347 0.2729 0.1782
C34 C 0.2670(4) -0.0049(3) 0.2330(2)
C35 C 0.3204(3) 0.0579(2) 0.2041(2)
H22 H 0.3968 0.0795 0.2295
C36 C 0.2579(4) 0.0865(3) 0.1382(2)
C37 C 0.1474(3) 0.0588(2) 0.1005(2)
H23 H 0.1062 0.0802 0.0546
C38 C 0.0972(4) -0.0025(3) 0.1321(2)
C39 C 0.1570(3) -0.0361(2) 0.1991(2)
H24 H 0.1224 -0.0783 0.2197
B1 B -0.7597(4) -0.1780(3) -0.0080(3)
B2 B 0.4280(4) -0.2250(3) 0.7391(3)
B3 B 0.3827(5) 0.5941(3) -0.1231(3)
O13 O 0.5515(6) 0.6202(5) -0.3655(3)
C40 C 0.5943(11) 0.4874(6) -0.2955(6)
H25 H 0.5625 0.5151 -0.2597
H26 H 0.6731 0.4718 -0.2700
H27 H 0.5452 0.4383 -0.3178
C41 C 0.5981(11) 0.5494(8) -0.3609(8)
C42 C 0.6511(13) 0.5275(7) -0.4248(9)
H28 H 0.6444 0.5735 -0.4572
H29 H 0.6090 0.4788 -0.4540
H30 H 0.7331 0.5165 -0.4034
O14 O -1.0611(5) -0.3060(4) 0.0894(4)
O15 O -1.0432(3) -0.2474(3) -0.0121(3)
C43 C -1.1526(13) -0.2504(8) 0.1840(8)
H31 H -1.1859 -0.2009 0.1977
H32 H -1.0866 -0.2640 0.2257
H33 H -1.2116 -0.2959 0.1719
C44 C -1.1080(9) -0.2340(6) 0.1102(6)
H34 H -1.1741 -0.2189 0.0683
H35 H -1.0482 -0.1882 0.1223
C45 C -1.0298(6) -0.3031(6) 0.0280(6)
C46 C -0.9815(7) -0.3843(5) 0.0125(6)
H36 H -0.9576 -0.3814 -0.0325
H37 H -1.0415 -0.4285 0.0054
H38 H -0.9144 -0.3951 0.0547
loop_
_geom_bond_atom_site_label_1
_geom_bond_atom_site_label_2
_geom_bond_site_symmetry_1
_geom_bond_site_symmetry_2
O1 H1 1_555 1_555
O2 H2 1_555 1_555
O3 H3 1_555 1_555
O4 H4 1_555 1_555
O5 H5 1_555 1_555
O6 H6 1_555 1_555
O7 C8 1_555 1_555
O8 C27 1_555 1_555
O9 C26 1_555 1_555
O10 C9 1_555 1_555
O11 C17 1_555 1_555
O12 C18 1_555 1_555
N1 C7 1_555 1_555
N2 C8 1_555 1_555
N3 C7 1_555 1_555
N4 C16 1_555 1_555
N5 C17 1_555 1_555
N6 C16 1_555 1_555
N7 C25 1_555 1_555
N8 C26 1_555 1_555
N9 C25 1_555 1_555
C1 C2 1_555 1_555
C2 H7 1_555 1_555
C3 C2 1_555 1_555
H8 C3 1_555 1_555
C4 C3 1_555 1_555
C5 C4 1_555 1_555
H9 C5 1_555 1_555
C6 C1 1_555 1_555
H10 C6 1_555 1_555
C7 C4 1_555 1_555
C8 N1 1_555 1_555
C9 N2 1_555 1_555
C10 C11 1_555 1_555
C11 H11 1_555 1_555
C12 C11 1_555 1_555
H12 C12 1_555 1_555
C13 C12 1_555 1_555
C14 C13 1_555 1_555
H13 C14 1_555 1_555
C15 C10 1_555 1_555
H14 C15 1_555 1_555
C16 C13 1_555 1_555
C17 N6 1_555 1_555
C18 N4 1_555 1_555
C19 C20 1_555 1_555
C20 H15 1_555 1_555
C21 C20 1_555 1_555
H16 C21 1_555 1_555
C22 C21 1_555 1_555
C23 C22 1_555 1_555
H17 C23 1_555 1_555
C24 C19 1_555 1_555
H18 C24 1_555 1_555
C25 C22 1_555 1_555
C26 N9 1_555 1_555
C27 N7 1_555 1_555
C28 O7 1_555 1_555
C29 C28 1_555 1_555
H19 C29 1_555 1_555
C30 O11 1_555 1_555
C31 C30 1_555 1_555
H20 C31 1_555 1_555
C32 O8 1_555 1_555
C33 C28 1_555 1_555
H21 C33 1_555 1_555
C34 O12 1_555 1_555
C35 C34 1_555 1_555
H22 C35 1_555 1_555
C36 O9 1_555 1_555
C37 C36 1_555 1_555
H23 C37 1_555 1_555
C38 O10 1_555 1_555
C39 C34 1_555 1_555
H24 C39 1_555 1_555
B1 O1 1_555 1_555
B2 O3 1_555 1_555
B3 O5 1_555 1_555
O13 C41 1_555 1_555
C40 H25 1_555 1_555
H26 C40 1_555 1_555
H27 C40 1_555 1_555
C41 C40 1_555 1_555
C42 C41 1_555 1_555
H28 C42 1_555 1_555
H29 C42 1_555 1_555
H30 C42 1_555 1_555
O14 C44 1_555 1_555
O15 C45 1_555 1_555
C43 H31 1_555 1_555
H32 C43 1_555 1_555
H33 C43 1_555 1_555
C44 C43 1_555 1_555
H34 C44 1_555 1_555
H35 C44 1_555 1_555
C45 O14 1_555 1_555
C46 C45 1_555 1_555
H36 C46 1_555 1_555
H37 C46 1_555 1_555
H38 C46 1_555 1_555
O2 B1 1_555 1_555
O4 B2 1_555 1_555
O6 B3 1_555 1_555
N3 C9 1_555 1_555
N5 C18 1_555 1_555
N8 C27 1_555 1_555
C1 B1 1_555 1_555
C5 C6 1_555 1_555
C10 B2 1_555 1_555
C14 C15 1_555 1_555
C19 B3 1_555 1_555
C23 C24 1_555 1_555
C29 C30 1_555 1_555
C31 C32 1_555 1_555
C32 C33 1_555 1_555
C35 C36 1_555 1_555
C37 C38 1_555 1_555
C38 C39 1_555 1_555

#END
