
#######################################################################
#
#                 Cambridge Crystallographic Data Centre
#                                CCDC 
#
#######################################################################
#
# If this CIF has been generated from an entry in the Cambridge 
# Structural Database, then it will include bibliographic, chemical, 
# crystal, experimental, refinement or atomic coordinate data resulting 
# from the CCDC's data processing and validation procedures.
#
#######################################################################

data_GIPXAH
_chemical_formula_moiety         'C42 H27 N9 O6'
_chemical_name_systematic        
7,19,28-tris(4-methylphenyl)-4,10,16,22,25,31-hexaoxa-6,8,18,20,27,29,32,34,36-nona-azaheptacyclo[11.11.7.1^3,23^.1^5,9^.1^11,15^.1^17,21^.1^26,30^]hexatriaconta-1,3(33),5(36),6,8,11(35),12,14,17(34),18,20,23,26(32),27,29-pentadecaene
_symmetry_cell_setting           rhombohedral
_symmetry_space_group_name_H-M   'R -3 c'
_symmetry_Int_Tables_number      167
_space_group_name_Hall           '-R 3 2"c'
loop_
_symmetry_equiv_pos_site_id
_symmetry_equiv_pos_as_xyz
1 x,y,z
2 -y,x-y,z
3 -x+y,-x,z
4 y,x,1/2-z
5 x-y,-y,1/2-z
6 -x,-x+y,1/2-z
7 2/3+x,1/3+y,1/3+z
8 2/3-y,1/3+x-y,1/3+z
9 2/3-x+y,1/3-x,1/3+z
10 2/3+y,1/3+x,5/6-z
11 2/3+x-y,1/3-y,5/6-z
12 2/3-x,1/3-x+y,5/6-z
13 1/3+x,2/3+y,2/3+z
14 1/3-y,2/3+x-y,2/3+z
15 1/3-x+y,2/3-x,2/3+z
16 1/3+y,2/3+x,1/6-z
17 1/3+x-y,2/3-y,1/6-z
18 1/3-x,2/3-x+y,1/6-z
19 -x,-y,-z
20 y,-x+y,-z
21 x-y,x,-z
22 -y,-x,1/2+z
23 -x+y,y,1/2+z
24 x,x-y,1/2+z
25 1/3-x,2/3-y,2/3-z
26 1/3+y,2/3-x+y,2/3-z
27 1/3+x-y,2/3+x,2/3-z
28 1/3-y,2/3-x,1/6+z
29 1/3-x+y,2/3+y,1/6+z
30 1/3+x,2/3+x-y,1/6+z
31 2/3-x,1/3-y,1/3-z
32 2/3+y,1/3-x+y,1/3-z
33 2/3+x-y,1/3+x,1/3-z
34 2/3-y,1/3-x,5/6+z
35 2/3-x+y,1/3+y,5/6+z
36 2/3+x,1/3+x-y,5/6+z
_cell_length_a                   27.7862(5)
_cell_length_b                   27.7862(5)
_cell_length_c                   97.147(3)
_cell_angle_alpha                90
_cell_angle_beta                 90
_cell_angle_gamma                120
_cell_volume                     64955.9
_exptl_crystal_colour            colorless
_exptl_crystal_description       block
_cell_formula_units_Z            60
loop_
_atom_site_label
_atom_site_type_symbol
_atom_site_fract_x
_atom_site_fract_y
_atom_site_fract_z
O1 O 0.42488(7) 1.05781(6) 0.009652(19)
O2 O 0.25853(6) 0.96719(6) -0.013235(18)
O3 O 0.31582(7) 1.14121(7) -0.035500(17)
O4 O 0.46282(6) 1.23645(7) -0.006318(18)
O5 O 0.19999(6) 1.09134(6) 0.004491(16)
O6 O 0.34945(6) 1.15642(7) 0.033506(16)
N1 N 0.39474(8) 0.97199(8) 0.00182(2)
N2 N 0.30768(8) 0.92391(8) -0.00995(2)
N3 N 0.34158(7) 1.01635(8) -0.00189(2)
N4 N 0.39096(9) 1.21964(8) -0.04295(2)
N5 N 0.46569(8) 1.27116(8) -0.02724(2)
N6 N 0.38707(8) 1.18653(8) -0.02008(2)
N7 N 0.19578(7) 1.12532(7) 0.025068(19)
N8 N 0.27279(8) 1.15639(8) 0.040448(19)
N9 N 0.27697(7) 1.12334(7) 0.018200(19)
C1 C 0.41781(9) 1.10460(9) 0.01098(3)
C2 C 0.38700(9) 1.10713(9) 0.02175(2)
H1 H 0.3707 1.0782 0.0284
C3 C 0.38082(9) 1.15288(9) 0.02251(2)
C4 C 0.40494(9) 1.19637(9) 0.01336(2)
H2 H 0.4003 1.2279 0.0142
C5 C 0.43599(9) 1.19195(9) 0.00299(2)
C6 C 0.44279(9) 1.14609(9) 0.00136(3)
H3 H 0.4637 1.1435 -0.0060
C7 C 0.38453(9) 1.01353(9) 0.00279(3)
C8 C 0.35492(9) 0.92773(10) -0.00490(3)
C9 C 0.30511(9) 0.96983(10) -0.00803(3)
C10 C 0.25865(9) 1.01813(9) -0.01372(2)
C11 C 0.22857(9) 1.02834(9) -0.00418(2)
H4 H 0.2078 1.0020 0.0028
C12 C 0.22965(9) 1.07838(9) -0.00507(2)
C13 C 0.25852(9) 1.11657(10) -0.01533(2)
H5 H 0.2580 1.1504 -0.0160
C14 C 0.28789(9) 1.10399(9) -0.02454(2)
C15 C 0.28858(9) 1.05490(9) -0.02413(2)
H6 H 0.3087 1.0466 -0.0307
C16 C 0.36699(10) 1.18424(10) -0.03255(2)
C17 C 0.43690(10) 1.23044(9) -0.01845(2)
C18 C 0.44055(10) 1.26364(10) -0.03939(3)
C19 C 0.22593(9) 1.11414(9) 0.01642(2)
C20 C 0.29687(9) 1.14442(9) 0.03046(2)
C21 C 0.22185(9) 1.14758(9) 0.03695(2)
C22 C 0.36517(10) 0.88159(9) -0.00753(3)
C23 C 0.33855(10) 0.84417(10) -0.01820(3)
H7 H 0.3119 0.8471 -0.0237
C24 C 0.35092(11) 0.80285(11) -0.02078(3)
H8 H 0.3326 0.7775 -0.0281
C25 C 0.38978(11) 0.79745(10) -0.01287(3)
C26 C 0.41505(12) 0.83389(12) -0.00231(3)
H9 H 0.4412 0.8304 0.0033
C27 C 0.40349(11) 0.87573(11) 0.00046(3)
H10 H 0.4218 0.9007 0.0079
C28 C 0.40470(13) 0.75288(12) -0.01594(4)
H11 H 0.4329 0.7560 -0.0094
H12 H 0.4194 0.7578 -0.0253
H13 H 0.3714 0.7161 -0.0151
C29 C 0.46864(11) 1.30808(10) -0.04987(3)
C30 C 0.51277(11) 1.35926(11) -0.04608(3)
H14 H 0.5262 1.3653 -0.0369
C31 C 0.53728(11) 1.40146(12) -0.05566(3)
H15 H 0.5667 1.4368 -0.0529
C32 C 0.51963(13) 1.39302(12) -0.06924(3)
C33 C 0.47602(15) 1.34213(12) -0.07286(3)
H16 H 0.4633 1.3358 -0.0821
C34 C 0.45003(14) 1.29968(11) -0.06330(3)
H17 H 0.4195 1.2649 -0.0660
C35 C 0.54802(17) 1.43924(15) -0.07966(4)
H18 H 0.5303 1.4263 -0.0887
H19 H 0.5874 1.4501 -0.0803
H20 H 0.5449 1.4713 -0.0768
C36 C 0.19439(9) 1.16620(9) 0.04686(2)
C37 C 0.21364(11) 1.17965(11) 0.06030(3)
H21 H 0.2428 1.1738 0.0634
C38 C 0.19097(12) 1.20145(11) 0.06925(3)
H22 H 0.2037 1.2090 0.0785
C39 C 0.14993(11) 1.21247(10) 0.06499(3)
C40 C 0.13028(10) 1.19871(9) 0.05144(2)
H23 H 0.1019 1.2056 0.0483
C41 C 0.15190(9) 1.17511(9) 0.04261(2)
H24 H 0.1374 1.1649 0.0336
C42 C 0.12645(14) 1.23832(14) 0.07448(3)
H25 H 0.0979 1.2425 0.0696
H26 H 0.1562 1.2749 0.0775
H27 H 0.1099 1.2144 0.0825
O7 O 0.69028(7) 1.44263(7) -0.068827(16)
O8 O 0.66599(7) 1.43234(7) -0.022115(16)
N10 N 0.68605(9) 1.51125(8) -0.05784(2)
N11 N 0.66910(9) 1.50385(8) -0.03359(2)
N12 N 0.67905(8) 1.43464(8) -0.045524(19)
C43 C 0.72130(10) 1.37655(10) -0.06841(2)
H28 H 0.7588 1.4060 -0.0685
C44 C 0.67829(10) 1.38672(9) -0.06832(2)
C45 C 0.68517(10) 1.46379(10) -0.05680(2)
C46 C 0.67612(10) 1.52934(10) -0.04593(3)
C47 C 0.67203(10) 1.45763(10) -0.03436(2)
C48 C 0.66635(10) 1.38225(10) -0.02220(2)
C49 C 0.71704(10) 1.38361(10) -0.02205(2)
H29 H 0.7512 1.4178 -0.0219
C50 C 0.66820(11) 1.57744(10) -0.04648(3)
C51 C 0.69412(13) 1.61762(12) -0.05654(3)
H30 H 0.7196 1.6159 -0.0627
C52 C 0.68209(14) 1.66101(12) -0.05744(4)
H31 H 0.7006 1.6892 -0.0642
C53 C 0.64413(13) 1.66386(12) -0.04883(4)
C54 C 0.61870(13) 1.62300(12) -0.03887(3)
H32 H 0.5923 1.6241 -0.0328
C55 C 0.63077(12) 1.58080(11) -0.03751(3)
H33 H 0.6136 1.5539 -0.0304
C56 C 0.62916(17) 1.70921(14) -0.05015(5)
H34 H 0.6509 1.7345 -0.0576
H35 H 0.6375 1.7299 -0.0415
H36 H 0.5894 1.6924 -0.0522
O7A O 0.55737(7) 1.24765(10) -0.068827(16)
O8A O 0.56766(7) 1.23365(10) -0.022115(16)
N10A N 0.48875(8) 1.17480(12) -0.05784(2)
N11A N 0.49615(8) 1.16525(12) -0.03359(2)
N12A N 0.56536(8) 1.24441(11) -0.045524(19)
C43A C 0.62345(10) 1.34475(14) -0.06841(2)
H28A H 0.5940 1.3528 -0.0685
C44A C 0.61328(9) 1.29157(13) -0.06832(2)
C45A C 0.53621(10) 1.22138(14) -0.05680(2)
C46A C 0.47066(10) 1.14678(14) -0.04593(3)
C47A C 0.54237(10) 1.21440(14) -0.03436(2)
C48A C 0.61775(10) 1.28410(14) -0.02220(2)
C49A C 0.61639(10) 1.33343(14) -0.02205(2)
H29A H 0.5822 1.3334 -0.0219
C50A C 0.42256(10) 1.09076(15) -0.04648(3)
C51A C 0.38238(12) 1.07650(18) -0.05654(3)
H30A H 0.3841 1.1037 -0.0627
C52A C 0.33899(12) 1.02108(18) -0.05744(4)
H31A H 0.3108 1.0114 -0.0642
C53A C 0.33614(12) 0.98027(18) -0.04883(4)
C54A C 0.37700(12) 0.99570(18) -0.03887(3)
H32A H 0.3759 0.9682 -0.0328
C55A C 0.41920(11) 1.04997(16) -0.03751(3)
H33A H 0.4461 1.0597 -0.0304
C56A C 0.29079(14) 0.91995(22) -0.05015(5)
H34A H 0.2655 0.9164 -0.0576
H35A H 0.2701 0.9076 -0.0415
H36A H 0.3076 0.8970 -0.0522
O7B O 0.75235(10) 1.30972(7) -0.068827(16)
O8B O 0.76635(10) 1.33401(7) -0.022115(16)
N10B N 0.82520(12) 1.31395(9) -0.05784(2)
N11B N 0.83475(12) 1.33090(9) -0.03359(2)
N12B N 0.75559(11) 1.32095(8) -0.045524(19)
C43B C 0.65525(14) 1.27870(10) -0.06841(2)
H28B H 0.6472 1.2412 -0.0685
C44B C 0.70843(13) 1.32171(10) -0.06832(2)
C45B C 0.77862(14) 1.31483(10) -0.05680(2)
C46B C 0.85322(14) 1.32388(10) -0.04593(3)
C47B C 0.78560(14) 1.32797(10) -0.03436(2)
C48B C 0.71590(14) 1.33365(10) -0.02220(2)
C49B C 0.66657(14) 1.28296(10) -0.02205(2)
H29B H 0.6666 1.2488 -0.0219
C50B C 0.90924(15) 1.33180(11) -0.04648(3)
C51B C 0.92350(18) 1.30588(13) -0.05654(3)
H30B H 0.8963 1.2804 -0.0627
C52B C 0.97892(18) 1.31791(14) -0.05744(4)
H31B H 0.9886 1.2994 -0.0642
C53B C 1.01973(18) 1.35587(13) -0.04883(4)
C54B C 1.00430(18) 1.38130(13) -0.03887(3)
H32B H 1.0318 1.4077 -0.0328
C55B C 0.95003(16) 1.36923(12) -0.03751(3)
H33B H 0.9403 1.3864 -0.0304
C56B C 1.08005(22) 1.37084(17) -0.05015(5)
H34B H 1.0836 1.3491 -0.0576
H35B H 1.0924 1.3625 -0.0415
H36B H 1.1030 1.4106 -0.0522
O9 O 0.10687(7) 1.01651(8) 0.064204(16)
O10 O 0.09234(6) 0.98636(6) 0.017890(15)
N13 N 0.17527(8) 1.01213(9) 0.05319(2)
N14 N 0.16594(8) 0.99187(8) 0.02916(2)
N15 N 0.09712(8) 1.00266(7) 0.041020(18)
C57 C 0.00824(11) 0.95462(11) 0.06386(2)
H37 H 0.0139 0.9236 0.0640
C58 C 0.05234(10) 1.00813(11) 0.06377(2)
C59 C 0.12675(10) 1.01003(10) 0.05222(2)
C60 C 0.19233(10) 1.00171(10) 0.04125(3)
C61 C 0.11928(9) 0.99430(9) 0.02984(2)
C62 C 0.04521(9) 0.99354(9) 0.01805(2)
C63 C 0.05303(9) 1.04648(9) 0.01804(2)
H38 H 0.0893 1.0782 0.0180
C64 C 0.24413(10) 0.99792(11) 0.04178(3)
C65 C 0.27862(12) 1.01784(15) 0.05319(3)
H39 H 0.2697 1.0344 0.0606
C66 C 0.32606(14) 1.01353(17) 0.05382(5)
H40 H 0.3502 1.0287 0.0615
C67 C 0.33915(13) 0.98787(14) 0.04360(5)
C68 C 0.30397(11) 0.96653(11) 0.03258(4)
H41 H 0.3116 0.9472 0.0256
C69 C 0.25708(10) 0.97243(11) 0.03123(4)
H42 H 0.2344 0.9592 0.0232
C70 C 0.39241(13) 0.98443(16) 0.04429(6)
H43 H 0.4121 1.0014 0.0529
H44 H 0.4163 1.0043 0.0364
H45 H 0.3829 0.9454 0.0440
O9A O -0.01651(8) 1.09036(11) 0.064204(16)
O10A O 0.01364(6) 1.10598(8) 0.017890(15)
N13A N -0.01213(9) 1.16314(12) 0.05319(2)
N14A N 0.00813(8) 1.17407(11) 0.02916(2)
N15A N -0.00266(7) 1.09446(11) 0.041020(18)
C57A C 0.04538(11) 1.05362(16) 0.06386(2)
H37A H 0.0764 1.0903 0.0640
C58A C -0.00813(11) 1.04421(15) 0.06377(2)
C59A C -0.01003(10) 1.11672(14) 0.05222(2)
C60A C -0.00171(10) 1.19062(14) 0.04125(3)
C61A C 0.00570(9) 1.12498(13) 0.02984(2)
C62A C 0.00646(9) 1.05167(13) 0.01805(2)
C63A C -0.04648(9) 1.00655(13) 0.01804(2)
H38A H -0.0782 1.0111 0.0180
C64A C 0.00208(11) 1.24621(15) 0.04178(3)
C65A C -0.01784(15) 1.26078(19) 0.05319(3)
H39A H -0.0344 1.2353 0.0606
C66A C -0.01353(17) 1.31253(22) 0.05382(5)
H40A H -0.0287 1.3215 0.0615
C67A C 0.01213(14) 1.35128(19) 0.04360(5)
C68A C 0.03347(11) 1.33744(16) 0.03258(4)
H41A H 0.0528 1.3644 0.0256
C69A C 0.02757(11) 1.28465(15) 0.03123(4)
H42A H 0.0408 1.2752 0.0232
C70A C 0.01557(16) 1.40798(21) 0.04429(6)
H43A H -0.0014 1.4107 0.0529
H44A H -0.0043 1.4120 0.0364
H45A H 0.0546 1.4375 0.0440
O9B O -0.09036(11) 0.89313(7) 0.064204(16)
O10B O -0.10598(8) 0.90766(6) 0.017890(15)
N13B N -0.16314(12) 0.82473(8) 0.05319(2)
N14B N -0.17407(11) 0.83406(8) 0.02916(2)
N15B N -0.09446(11) 0.90288(8) 0.041020(18)
C57B C -0.05362(16) 0.99176(11) 0.06386(2)
H37B H -0.0903 0.9861 0.0640
C58B C -0.04421(15) 0.94766(10) 0.06377(2)
C59B C -0.11672(14) 0.87325(10) 0.05222(2)
C60B C -0.19062(14) 0.80767(10) 0.04125(3)
C61B C -0.12498(13) 0.88072(9) 0.02984(2)
C62B C -0.05167(13) 0.95479(9) 0.01805(2)
C63B C -0.00655(13) 0.94697(9) 0.01804(2)
H38B H -0.0111 0.9107 0.0180
C64B C -0.24621(15) 0.75587(10) 0.04178(3)
C65B C -0.26078(19) 0.72138(12) 0.05319(3)
H39B H -0.2353 0.7303 0.0606
C66B C -0.31253(22) 0.67394(14) 0.05382(5)
H40B H -0.3215 0.6498 0.0615
C67B C -0.35128(19) 0.66085(13) 0.04360(5)
C68B C -0.33744(16) 0.69603(11) 0.03258(4)
H41B H -0.3644 0.6884 0.0256
C69B C -0.28465(15) 0.74292(10) 0.03123(4)
H42B H -0.2752 0.7656 0.0232
C70B C -0.40798(21) 0.60759(13) 0.04429(6)
H43B H -0.4107 0.5879 0.0529
H44B H -0.4120 0.5837 0.0364
H45B H -0.4375 0.6171 0.0440
loop_
_geom_bond_atom_site_label_1
_geom_bond_atom_site_label_2
_geom_bond_site_symmetry_1
_geom_bond_site_symmetry_2
O1 C1 1_555 1_555
O2 C9 1_555 1_555
O3 C14 1_555 1_555
O4 C5 1_555 1_555
O5 C12 1_555 1_555
O6 C3 1_555 1_555
N1 C7 1_555 1_555
N2 C8 1_555 1_555
N3 C7 1_555 1_555
N4 C16 1_555 1_555
N5 C17 1_555 1_555
N6 C16 1_555 1_555
N7 C19 1_555 1_555
N8 C20 1_555 1_555
N9 C19 1_555 1_555
C1 C2 1_555 1_555
C2 H1 1_555 1_555
C3 C2 1_555 1_555
C4 C3 1_555 1_555
H2 C4 1_555 1_555
C5 C4 1_555 1_555
C6 C1 1_555 1_555
H3 C6 1_555 1_555
C7 O1 1_555 1_555
C8 N1 1_555 1_555
C9 N2 1_555 1_555
C10 O2 1_555 1_555
C11 C10 1_555 1_555
H4 C11 1_555 1_555
C12 C11 1_555 1_555
C13 C12 1_555 1_555
H5 C13 1_555 1_555
C14 C13 1_555 1_555
C15 C10 1_555 1_555
H6 C15 1_555 1_555
C16 O3 1_555 1_555
C17 O4 1_555 1_555
C18 N4 1_555 1_555
C19 O5 1_555 1_555
C20 O6 1_555 1_555
C21 N7 1_555 1_555
C22 C8 1_555 1_555
C23 C22 1_555 1_555
H7 C23 1_555 1_555
C24 C23 1_555 1_555
H8 C24 1_555 1_555
C25 C24 1_555 1_555
C26 C25 1_555 1_555
H9 C26 1_555 1_555
C27 C22 1_555 1_555
H10 C27 1_555 1_555
C28 C25 1_555 1_555
H11 C28 1_555 1_555
H12 C28 1_555 1_555
H13 C28 1_555 1_555
C29 C18 1_555 1_555
C30 C29 1_555 1_555
H14 C30 1_555 1_555
C31 C30 1_555 1_555
H15 C31 1_555 1_555
C32 C31 1_555 1_555
C33 C32 1_555 1_555
H16 C33 1_555 1_555
C34 C29 1_555 1_555
H17 C34 1_555 1_555
C35 C32 1_555 1_555
H18 C35 1_555 1_555
H19 C35 1_555 1_555
H20 C35 1_555 1_555
C36 C21 1_555 1_555
C37 C36 1_555 1_555
H21 C37 1_555 1_555
C38 C37 1_555 1_555
H22 C38 1_555 1_555
C39 C38 1_555 1_555
C40 C39 1_555 1_555
H23 C40 1_555 1_555
C41 C36 1_555 1_555
H24 C41 1_555 1_555
C42 C39 1_555 1_555
H25 C42 1_555 1_555
H26 C42 1_555 1_555
H27 C42 1_555 1_555
O7 C44 1_555 1_555
O8 C47 1_555 1_555
N10 C45 1_555 1_555
N11 C46 1_555 1_555
N12 C45 1_555 1_555
C43 H28 1_555 1_555
C44 C43 1_555 1_555
C45 O7 1_555 1_555
C46 N10 1_555 1_555
C47 N11 1_555 1_555
C48 O8 1_555 1_555
C49 C48 1_555 1_555
H29 C49 1_555 1_555
C50 C46 1_555 1_555
C51 C50 1_555 1_555
H30 C51 1_555 1_555
C52 C51 1_555 1_555
H31 C52 1_555 1_555
C53 C52 1_555 1_555
C54 C53 1_555 1_555
H32 C54 1_555 1_555
C55 C50 1_555 1_555
H33 C55 1_555 1_555
C56 C53 1_555 1_555
H34 C56 1_555 1_555
H35 C56 1_555 1_555
H36 C56 1_555 1_555
O9 C58 1_555 1_555
O10 C61 1_555 1_555
N13 C59 1_555 1_555
N14 C60 1_555 1_555
N15 C59 1_555 1_555
C57 H37 1_555 1_555
C58 C57 1_555 1_555
C59 O9 1_555 1_555
C60 N13 1_555 1_555
C61 N14 1_555 1_555
C62 O10 1_555 1_555
C63 C62 1_555 1_555
H38 C63 1_555 1_555
C64 C60 1_555 1_555
C65 C64 1_555 1_555
H39 C65 1_555 1_555
C66 C65 1_555 1_555
H40 C66 1_555 1_555
C67 C66 1_555 1_555
C68 C67 1_555 1_555
H41 C68 1_555 1_555
C69 C64 1_555 1_555
H42 C69 1_555 1_555
C70 C67 1_555 1_555
H43 C70 1_555 1_555
H44 C70 1_555 1_555
H45 C70 1_555 1_555
O7A C44A 1_555 1_555
O8A C47A 1_555 1_555
N10A C45A 1_555 1_555
N11A C46A 1_555 1_555
N12A C45A 1_555 1_555
C43A C44 1_555 1_555
H28A C43A 1_555 1_555
C44A C43A 1_555 1_555
C45A O7A 1_555 1_555
C46A N10A 1_555 1_555
C47A N11A 1_555 1_555
C48A O8A 1_555 1_555
C49A C48 1_555 1_555
H29A C49A 1_555 1_555
C50A C46A 1_555 1_555
C51A C50A 1_555 1_555
H30A C51A 1_555 1_555
C52A C51A 1_555 1_555
H31A C52A 1_555 1_555
C53A C52A 1_555 1_555
C54A C53A 1_555 1_555
H32A C54A 1_555 1_555
C55A C50A 1_555 1_555
H33A C55A 1_555 1_555
C56A C53A 1_555 1_555
H34A C56A 1_555 1_555
H35A C56A 1_555 1_555
H36A C56A 1_555 1_555
O7B C44B 1_555 1_555
O8B C47B 1_555 1_555
N10B C45B 1_555 1_555
N11B C46B 1_555 1_555
N12B C45B 1_555 1_555
C43B C44A 1_555 1_555
H28B C43B 1_555 1_555
C44B C43 1_555 1_555
C45B O7B 1_555 1_555
C46B N10B 1_555 1_555
C47B N11B 1_555 1_555
C48B C49 1_555 1_555
C49B C48A 1_555 1_555
H29B C49B 1_555 1_555
C50B C46B 1_555 1_555
C51B C50B 1_555 1_555
H30B C51B 1_555 1_555
C52B C51B 1_555 1_555
H31B C52B 1_555 1_555
C53B C52B 1_555 1_555
C54B C53B 1_555 1_555
H32B C54B 1_555 1_555
C55B C50B 1_555 1_555
H33B C55B 1_555 1_555
C56B C53B 1_555 1_555
H34B C56B 1_555 1_555
H35B C56B 1_555 1_555
H36B C56B 1_555 1_555
O9A C58A 1_555 1_555
O10A C61A 1_555 1_555
N13A C59A 1_555 1_555
N14A C60A 1_555 1_555
N15A C59A 1_555 1_555
C57A C58 1_555 1_555
H37A C57A 1_555 1_555
C58A C57A 1_555 1_555
C59A O9A 1_555 1_555
C60A N13A 1_555 1_555
C61A N14A 1_555 1_555
C62A C63 1_555 1_555
C63A C62A 1_555 1_555
H38A C63A 1_555 1_555
C64A C60A 1_555 1_555
C65A C64A 1_555 1_555
H39A C65A 1_555 1_555
C66A C65A 1_555 1_555
H40A C66A 1_555 1_555
C67A C66A 1_555 1_555
C68A C67A 1_555 1_555
H41A C68A 1_555 1_555
C69A C64A 1_555 1_555
H42A C69A 1_555 1_555
C70A C67A 1_555 1_555
H43A C70A 1_555 1_555
H44A C70A 1_555 1_555
H45A C70A 1_555 1_555
O9B C58B 1_555 1_555
O10B C61B 1_555 1_555
N13B C59B 1_555 1_555
N14B C60B 1_555 1_555
N15B C59B 1_555 1_555
C57B C58A 1_555 1_555
H37B C57B 1_555 1_555
C58B C57 1_555 1_555
C59B O9B 1_555 1_555
C60B N13B 1_555 1_555
C61B N14B 1_555 1_555
C62B C63A 1_555 1_555
C63B C62 1_555 1_555
H38B C63B 1_555 1_555
C64B C60B 1_555 1_555
C65B C64B 1_555 1_555
H39B C65B 1_555 1_555
C66B C65B 1_555 1_555
H40B C66B 1_555 1_555
C67B C66B 1_555 1_555
C68B C67B 1_555 1_555
H41B C68B 1_555 1_555
C69B C64B 1_555 1_555
H42B C69B 1_555 1_555
C70B C67B 1_555 1_555
H43B C70B 1_555 1_555
H44B C70B 1_555 1_555
H45B C70B 1_555 1_555
N3 C9 1_555 1_555
N5 C18 1_555 1_555
N6 C17 1_555 1_555
N8 C21 1_555 1_555
N9 C20 1_555 1_555
C5 C6 1_555 1_555
C14 C15 1_555 1_555
C26 C27 1_555 1_555
C33 C34 1_555 1_555
C40 C41 1_555 1_555
N12 C47 1_555 1_555
C54 C55 1_555 1_555
N15 C61 1_555 1_555
C68 C69 1_555 1_555
N12A C47A 1_555 1_555
C48A C49A 1_555 1_555
C54A C55A 1_555 1_555
O8B C48B 1_555 1_555
N12B C47B 1_555 1_555
C43B C44B 1_555 1_555
C48B C49B 1_555 1_555
C54B C55B 1_555 1_555
O10A C62A 1_555 1_555
N15A C61A 1_555 1_555
C68A C69A 1_555 1_555
O10B C62B 1_555 1_555
N15B C61B 1_555 1_555
C57B C58B 1_555 1_555
C62B C63B 1_555 1_555
C68B C69B 1_555 1_555

#END
