
#######################################################################
#
#                 Cambridge Crystallographic Data Centre
#                                CCDC 
#
#######################################################################
#
# If this CIF has been generated from an entry in the Cambridge 
# Structural Database, then it will include bibliographic, chemical, 
# crystal, experimental, refinement or atomic coordinate data resulting 
# from the CCDC's data processing and validation procedures.
#
#######################################################################

data_GIPYEK
_chemical_formula_moiety         'C8 H12 N4 O4 S1'
_chemical_name_systematic        
2,5-bis(ethoxycarbonylamino)-1,3,4-thiadiazole
_symmetry_cell_setting           monoclinic
_symmetry_space_group_name_H-M   'P 21/c'
_symmetry_Int_Tables_number      14
_space_group_name_Hall           '-P 2ybc'
loop_
_symmetry_equiv_pos_site_id
_symmetry_equiv_pos_as_xyz
1 x,y,z
2 -x,1/2+y,1/2-z
3 -x,-y,-z
4 x,1/2-y,1/2+z
_cell_length_a                   10.093(4)
_cell_length_b                   9.035(4)
_cell_length_c                   12.924(6)
_cell_angle_alpha                90
_cell_angle_beta                 96.785(9)
_cell_angle_gamma                90
_cell_volume                     1170.29
_chemical_melting_point          'above 300 deg.C'
_cell_formula_units_Z            4
loop_
_atom_site_label
_atom_site_type_symbol
_atom_site_fract_x
_atom_site_fract_y
_atom_site_fract_z
S1 S 0.23682(6) 0.18407(5) 0.90903(5)
O1 O 0.14523(16) -0.26873(17) 1.00414(12)
O2 O 0.24680(18) -0.05217(19) 1.04641(14)
O3 O 0.34488(16) 0.63517(18) 0.82199(14)
O4 O 0.40948(17) 0.4156(2) 0.89349(17)
N1 N 0.09503(19) -0.07512(19) 0.90424(15)
N2 N 0.01724(17) 0.11973(19) 0.79749(14)
N3 N 0.05043(18) 0.26030(19) 0.76692(14)
N4 N 0.20475(18) 0.44781(19) 0.80587(15)
C1 C 0.1764(3) -0.4923(3) 1.0977(2)
C2 C 0.2241(3) -0.3383(3) 1.0922(2)
C3 C 0.1701(2) -0.1269(2) 0.99108(18)
C4 C 0.1045(2) 0.0677(2) 0.86921(17)
C5 C 0.1600(2) 0.3067(2) 0.81898(17)
C6 C 0.3286(2) 0.4938(3) 0.84439(18)
C7 C 0.4776(3) 0.6964(3) 0.8518(3)
C8 C 0.4728(3) 0.8517(3) 0.8512(3)
loop_
_geom_bond_atom_site_label_1
_geom_bond_atom_site_label_2
_geom_bond_site_symmetry_1
_geom_bond_site_symmetry_2
S1 C4 1_555 1_555
O1 C2 1_555 1_555
O2 C3 1_555 1_555
O3 C6 1_555 1_555
O4 C6 1_555 1_555
N1 C3 1_555 1_555
N2 N3 1_555 1_555
N3 C5 1_555 1_555
N4 C5 1_555 1_555
C1 C2 1_555 1_555
C3 O1 1_555 1_555
C4 N1 1_555 1_555
C5 S1 1_555 1_555
C6 N4 1_555 1_555
C7 O3 1_555 1_555
C8 C7 1_555 1_555
N2 C4 1_555 1_555

#END
