
#######################################################################
#
#                 Cambridge Crystallographic Data Centre
#                                CCDC 
#
#######################################################################
#
# If this CIF has been generated from an entry in the Cambridge 
# Structural Database, then it will include bibliographic, chemical, 
# crystal, experimental, refinement or atomic coordinate data resulting 
# from the CCDC's data processing and validation procedures.
#
#######################################################################

data_GIPZEM
_chemical_formula_moiety         'C37 H26 F2 O1'
_chemical_name_systematic        
4,4-bis(4-fluorophenyl)-1,3,6-triphenyl-5,6-dihydro-4H-cyclopenta[c]furan
_symmetry_cell_setting           triclinic
_symmetry_space_group_name_H-M   'P -1'
_symmetry_Int_Tables_number      2
_space_group_name_Hall           '-P 1'
loop_
_symmetry_equiv_pos_site_id
_symmetry_equiv_pos_as_xyz
1 x,y,z
2 -x,-y,-z
_cell_length_a                   8.746(14)
_cell_length_b                   9.852(15)
_cell_length_c                   16.48(3)
_cell_angle_alpha                104.013(15)
_cell_angle_beta                 99.760(15)
_cell_angle_gamma                90.639(15)
_cell_volume                     1355.78
_cell_formula_units_Z            2
loop_
_atom_site_label
_atom_site_type_symbol
_atom_site_fract_x
_atom_site_fract_y
_atom_site_fract_z
C1 C 0.8113(10) 0.8992(10) 0.3501(6)
H1 H 0.7637 0.9688 0.3271
C2 C 0.9667(11) 0.9206(12) 0.3904(7)
H2 H 1.0224 1.0034 0.3938
C3 C 1.0355(10) 0.8200(12) 0.4244(6)
H3 H 1.1388 0.8341 0.4515
C4 C 0.9539(10) 0.6965(11) 0.4194(6)
H4 H 1.0012 0.6288 0.4442
C5 C 0.8043(10) 0.6745(10) 0.3780(6)
H5 H 0.7517 0.5892 0.3721
C6 C 0.7279(8) 0.7775(8) 0.3439(5)
C7 C 0.5611(8) 0.7560(8) 0.2987(5)
H6 H 0.5218 0.8482 0.2970
C8 C 0.4484(8) 0.6799(8) 0.3350(4)
C9 C 0.3388(8) 0.5933(8) 0.2669(4)
C10 C 0.3641(9) 0.6107(9) 0.1822(5)
C11 C 0.5391(9) 0.6651(9) 0.2064(5)
H7 H 0.6065 0.5871 0.2028
H8 H 0.5634 0.7204 0.1684
C12 C 0.2698(9) 0.7307(8) 0.1552(5)
C13 C 0.3023(11) 0.7778(10) 0.0871(6)
H9 H 0.3755 0.7343 0.0561
C14 C 0.2259(13) 0.8900(10) 0.0647(6)
H10 H 0.2458 0.9210 0.0183
C15 C 0.1189(12) 0.9550(10) 0.1130(7)
C16 C 0.0851(12) 0.9085(10) 0.1786(6)
H11 H 0.0117 0.9522 0.2094
C17 C 0.1591(10) 0.7966(9) 0.2001(5)
H12 H 0.1347 0.7645 0.2453
C18 C 0.3401(9) 0.4718(9) 0.1114(5)
C19 C 0.2374(10) 0.4557(10) 0.0351(5)
H13 H 0.1783 0.5298 0.0251
C20 C 0.2224(12) 0.3278(10) -0.0269(6)
H14 H 0.1529 0.3162 -0.0778
C21 C 0.3116(11) 0.2209(10) -0.0112(6)
C22 C 0.4099(12) 0.2342(10) 0.0646(6)
H15 H 0.4663 0.1591 0.0753
C23 C 0.4244(11) 0.3576(10) 0.1239(5)
H16 H 0.4930 0.3664 0.1748
C24 C 0.2405(8) 0.5267(8) 0.3034(4)
C25 C 0.4139(8) 0.6630(8) 0.4089(5)
C26 C 0.4735(8) 0.7227(8) 0.4996(4)
C27 C 0.5732(10) 0.8404(9) 0.5271(5)
H17 H 0.6050 0.8815 0.4871
C28 C 0.6266(11) 0.8982(11) 0.6114(6)
H18 H 0.6921 0.9788 0.6285
C29 C 0.5813(11) 0.8345(12) 0.6722(6)
H19 H 0.6195 0.8710 0.7297
C30 C 0.4827(12) 0.7209(12) 0.6465(6)
H20 H 0.4513 0.6810 0.6871
C31 C 0.4265(11) 0.6615(10) 0.5614(5)
H21 H 0.3588 0.5824 0.5450
C32 C 0.1034(9) 0.4302(9) 0.2744(5)
C33 C 0.0107(9) 0.4248(10) 0.1975(5)
H22 H 0.0388 0.4793 0.1629
C34 C -0.1258(11) 0.3381(12) 0.1703(6)
H23 H -0.1879 0.3349 0.1181
C35 C -0.1665(12) 0.2584(11) 0.2214(8)
H24 H -0.2550 0.1982 0.2029
C36 C -0.0778(12) 0.2665(10) 0.2996(8)
H25 H -0.1089 0.2152 0.3351
C37 C 0.0569(10) 0.3505(9) 0.3258(6)
H26 H 0.1176 0.3539 0.3784
F1 F 0.0477(9) 1.0673(6) 0.0917(4)
F2 F 0.3011(8) 0.0982(6) -0.0739(4)
O1 O 0.2886(6) 0.5656(5) 0.3910(3)
loop_
_geom_bond_atom_site_label_1
_geom_bond_atom_site_label_2
_geom_bond_site_symmetry_1
_geom_bond_site_symmetry_2
C1 H1 1_555 1_555
C2 C1 1_555 1_555
H2 C2 1_555 1_555
C3 C2 1_555 1_555
H3 C3 1_555 1_555
C4 C3 1_555 1_555
H4 C4 1_555 1_555
C5 C4 1_555 1_555
H5 C5 1_555 1_555
C6 C1 1_555 1_555
C7 C6 1_555 1_555
H6 C7 1_555 1_555
C8 C7 1_555 1_555
C9 C8 1_555 1_555
C10 C9 1_555 1_555
C11 C7 1_555 1_555
H7 C11 1_555 1_555
H8 C11 1_555 1_555
C12 C10 1_555 1_555
C13 C12 1_555 1_555
H9 C13 1_555 1_555
C14 C13 1_555 1_555
H10 C14 1_555 1_555
C15 C14 1_555 1_555
C16 C15 1_555 1_555
H11 C16 1_555 1_555
C17 C12 1_555 1_555
H12 C17 1_555 1_555
C18 C10 1_555 1_555
C19 C18 1_555 1_555
H13 C19 1_555 1_555
C20 C19 1_555 1_555
H14 C20 1_555 1_555
C21 C20 1_555 1_555
C22 C21 1_555 1_555
H15 C22 1_555 1_555
C23 C18 1_555 1_555
H16 C23 1_555 1_555
C24 C9 1_555 1_555
C25 C8 1_555 1_555
C26 C25 1_555 1_555
C27 C26 1_555 1_555
H17 C27 1_555 1_555
C28 C27 1_555 1_555
H18 C28 1_555 1_555
C29 C28 1_555 1_555
H19 C29 1_555 1_555
C30 C29 1_555 1_555
H20 C30 1_555 1_555
C31 C26 1_555 1_555
H21 C31 1_555 1_555
C32 C24 1_555 1_555
C33 C32 1_555 1_555
H22 C33 1_555 1_555
C34 C33 1_555 1_555
H23 C34 1_555 1_555
C35 C34 1_555 1_555
H24 C35 1_555 1_555
C36 C35 1_555 1_555
H25 C36 1_555 1_555
C37 C32 1_555 1_555
H26 C37 1_555 1_555
F1 C15 1_555 1_555
F2 C21 1_555 1_555
O1 C24 1_555 1_555
C5 C6 1_555 1_555
C10 C11 1_555 1_555
C16 C17 1_555 1_555
C22 C23 1_555 1_555
C25 O1 1_555 1_555
C30 C31 1_555 1_555
C36 C37 1_555 1_555

#END
