
#######################################################################
#
#                 Cambridge Crystallographic Data Centre
#                                CCDC 
#
#######################################################################
#
# If this CIF has been generated from an entry in the Cambridge 
# Structural Database, then it will include bibliographic, chemical, 
# crystal, experimental, refinement or atomic coordinate data resulting 
# from the CCDC's data processing and validation procedures.
#
#######################################################################

data_GIPZUB
_chemical_name_common            
(N-(3',5'-Difluoro-4'-hydroxybenzyl)-1-aza-15-crown-5)-(isothiocyanato)-sodium
_chemical_formula_moiety         'C18 H25 F2 N2 Na1 O5 S1'
_chemical_name_systematic        
(N-(3,5-Difluoro-4-hydroxybenzyl)-1,4,7,10-tetraoxa-13-azacyclopentadecane)-(isothiocyanato)-sodium
_symmetry_cell_setting           monoclinic
_symmetry_space_group_name_H-M   'P 21'
_symmetry_Int_Tables_number      4
_space_group_name_Hall           'P 2yb'
loop_
_symmetry_equiv_pos_site_id
_symmetry_equiv_pos_as_xyz
1 x,y,z
2 -x,1/2+y,-z
_cell_length_a                   7.900(3)
_cell_length_b                   13.041(4)
_cell_length_c                   10.909(4)
_cell_angle_alpha                90
_cell_angle_beta                 107.07(3)
_cell_angle_gamma                90
_cell_volume                     1074.38
_exptl_crystal_colour            colorless
_exptl_crystal_description       prismatic
_cell_formula_units_Z            2
loop_
_atom_site_label
_atom_site_type_symbol
_atom_site_fract_x
_atom_site_fract_y
_atom_site_fract_z
S1 S -1.2014(3) 1.1277(17) -0.2954(2)
Na1 Na -1.0313(4) 1.1248(17) -0.6462(2)
F1 F -1.2961(8) 1.6790(17) -0.9660(4)
F2 F -1.5287(7) 1.4317(17) -1.2810(4)
O1 O -0.8297(8) 1.2610(18) -0.5683(6)
O2 O -0.8047(7) 1.0681(17) -0.4449(5)
O3 O -0.8927(8) 0.9620(18) -0.6714(5)
O4 O -1.1365(9) 1.0580(18) -0.8545(5)
O5 O -1.4525(7) 1.6343(18) -1.2154(4)
N1 N -1.0924(10) 1.2743(17) -0.8118(7)
N2 N -1.2775(9) 1.1195(18) -0.5607(6)
C1 C -0.9566(17) 1.356(2) -0.7523(11)
C2 C -0.7993(15) 1.3246(19) -0.6656(11)
C3 C -0.6730(13) 1.2313(18) -0.4783(9)
C4 C -0.7143(13) 1.1593(19) -0.3863(8)
C5 C -0.6924(12) 0.9903(19) -0.4726(9)
C6 C -0.8117(14) 0.9122(19) -0.5547(9)
C7 C -1.0269(14) 0.9027(18) -0.7571(11)
C8 C -1.0876(14) 0.9604(19) -0.8816(10)
C9 C -1.1673(18) 1.126(2) -0.9613(8)
C10 C -1.0572(17) 1.223(2) -0.9197(10)
C11 C -1.2725(13) 1.3161(18) -0.8411(8)
C12 C -1.3188(12) 1.4013(18) -0.9398(8)
C13 C -1.2837(13) 1.5044(19) -0.9071(8)
C14 C -1.3309(13) 1.5769(19) -1.0008(9)
C15 C -1.4118(11) 1.5578(19) -1.1303(8)
C16 C -1.4480(12) 1.4548(19) -1.1574(8)
C17 C -1.4028(12) 1.3784(17) -1.0695(9)
C18 C -1.2468(9) 1.1233(18) -0.4508(7)
H1 H -0.9375 1.3981 -0.8227
H2 H -1.0171 1.4050 -0.7088
H3 H -0.7230 1.3858 -0.6268
H4 H -0.7249 1.2898 -0.7112
H5 H -0.5910 1.1984 -0.5211
H6 H -0.6015 1.2913 -0.4348
H7 H -0.7871 1.1962 -0.3432
H8 H -0.6067 1.1406 -0.3189
H9 H -0.6153 1.0222 -0.5205
H10 H -0.6103 0.9638 -0.3956
H11 H -0.8930 0.8877 -0.5113
H12 H -0.7422 0.8520 -0.5659
H13 H -0.9913 0.8364 -0.7709
H14 H -1.1310 0.8967 -0.7252
H15 H -1.1843 0.9288 -0.9478
H16 H -0.9917 0.9682 -0.9221
H17 H -1.1351 1.0943 -1.0316
H18 H -1.2891 1.1463 -0.9936
H19 H -1.0799 1.2693 -0.9940
H20 H -0.9340 1.2041 -0.9001
H21 H -1.3598 1.2637 -0.8642
H22 H -1.2866 1.3460 -0.7594
H23 H -1.2203 1.5243 -0.8168
H24 H -1.4294 1.3065 -1.0967
H25 H -1.5774 1.6017 -1.3024
loop_
_geom_bond_atom_site_label_1
_geom_bond_atom_site_label_2
_geom_bond_site_symmetry_1
_geom_bond_site_symmetry_2
S1 C18 1_555 1_555
Na1 O1 1_555 1_555
F1 C14 1_555 1_555
F2 C16 1_555 1_555
O1 C2 1_555 1_555
O2 Na1 1_555 1_555
O3 Na1 1_555 1_555
O4 Na1 1_555 1_555
O5 C15 1_555 1_555
N1 Na1 1_555 1_555
N2 Na1 1_555 1_555
C1 N1 1_555 1_555
C2 C1 1_555 1_555
C3 O1 1_555 1_555
C4 O2 1_555 1_555
C5 O2 1_555 1_555
C6 O3 1_555 1_555
C7 O3 1_555 1_555
C8 O4 1_555 1_555
C9 O4 1_555 1_555
C10 N1 1_555 1_555
C11 N1 1_555 1_555
C12 C11 1_555 1_555
C13 C12 1_555 1_555
C14 C13 1_555 1_555
C15 C14 1_555 1_555
C16 C15 1_555 1_555
C17 C12 1_555 1_555
C18 N2 1_555 1_555
H1 C1 1_555 1_555
H2 C1 1_555 1_555
H3 C2 1_555 1_555
H4 C2 1_555 1_555
H5 C3 1_555 1_555
H6 C3 1_555 1_555
H7 C4 1_555 1_555
H8 C4 1_555 1_555
H9 C5 1_555 1_555
H10 C5 1_555 1_555
H11 C6 1_555 1_555
H12 C6 1_555 1_555
H13 C7 1_555 1_555
H14 C7 1_555 1_555
H15 C8 1_555 1_555
H16 C8 1_555 1_555
H17 C9 1_555 1_555
H18 C9 1_555 1_555
H19 C10 1_555 1_555
H20 C10 1_555 1_555
H21 C11 1_555 1_555
H22 C11 1_555 1_555
H23 C13 1_555 1_555
H24 C17 1_555 1_555
H25 O5 1_555 1_555
C3 C4 1_555 1_555
C5 C6 1_555 1_555
C7 C8 1_555 1_555
C9 C10 1_555 1_555
C16 C17 1_555 1_555

#END
