
#######################################################################
#
#                 Cambridge Crystallographic Data Centre
#                                CCDC 
#
#######################################################################
#
# If this CIF has been generated from an entry in the Cambridge 
# Structural Database, then it will include bibliographic, chemical, 
# crystal, experimental, refinement or atomic coordinate data resulting 
# from the CCDC's data processing and validation procedures.
#
#######################################################################

data_GIQHIA
_chemical_formula_moiety         'C25 H20 Cl2 O4'
_chemical_name_systematic        
'2,6-dichlorophenyl 3-oxo-2-(2-oxo-2-phenylethyl)-2-phenylpentanoate'
_symmetry_cell_setting           monoclinic
_symmetry_space_group_name_H-M   'P 21/c'
_symmetry_Int_Tables_number      14
_space_group_name_Hall           '-P 2ybc'
loop_
_symmetry_equiv_pos_site_id
_symmetry_equiv_pos_as_xyz
1 x,y,z
2 -x,1/2+y,1/2-z
3 -x,-y,-z
4 x,1/2-y,1/2+z
_cell_length_a                   11.357(2)
_cell_length_b                   18.013(4)
_cell_length_c                   12.226(2)
_cell_angle_alpha                90
_cell_angle_beta                 117.61(3)
_cell_angle_gamma                90
_cell_volume                     2216.3
_exptl_crystal_colour            colorless
_exptl_crystal_description       block
_cell_formula_units_Z            4
loop_
_atom_site_label
_atom_site_type_symbol
_atom_site_fract_x
_atom_site_fract_y
_atom_site_fract_z
Cl1 Cl 0.27343(5) 0.55386(3) 1.05718(4)
Cl2 Cl -0.02456(6) 0.30715(3) 0.94077(5)
O1 O 0.09827(11) 0.43780(6) 0.89158(10)
O2 O 0.27712(11) 0.36939(6) 0.92238(10)
O3 O 0.00034(11) 0.30922(6) 0.67816(11)
O4 O 0.16717(11) 0.40604(7) 0.54520(10)
C1 C 0.12780(15) 0.42902(9) 1.01444(14)
C2 C 0.20511(16) 0.48139(9) 1.10143(15)
C3 C 0.22767(16) 0.47549(10) 1.22243(15)
H1 H 0.2802 0.5116 1.2817
C4 C 0.17338(17) 0.41682(10) 1.25675(16)
H2 H 0.1897 0.4125 1.3400
C5 C 0.09576(18) 0.36442(10) 1.17137(16)
H3 H 0.0582 0.3243 1.1952
C6 C 0.07341(17) 0.37124(10) 1.05015(16)
C7 C 0.18500(15) 0.40633(9) 0.85477(14)
C8 C 0.14979(14) 0.43425(9) 0.72548(13)
C9 C -0.00151(14) 0.43925(8) 0.64639(14)
H4 H -0.0382 0.4736 0.6862
H5 H -0.0221 0.4598 0.5644
C10 C -0.06682(15) 0.36421(9) 0.63021(14)
C11 C -0.21392(15) 0.35862(9) 0.55507(14)
C12 C -0.29282(16) 0.42091(10) 0.50191(15)
H6 H -0.2531 0.4685 0.5122
C13 C -0.42979(17) 0.41319(11) 0.43378(16)
H7 H -0.4838 0.4556 0.3982
C14 C -0.48741(17) 0.34380(12) 0.41780(17)
H8 H -0.5810 0.3386 0.3711
C15 C -0.40967(18) 0.28223(12) 0.46929(17)
H9 H -0.4498 0.2347 0.4578
C16 C -0.27297(17) 0.28922(11) 0.53788(16)
H10 H -0.2197 0.2465 0.5731
C17 C 0.20418(15) 0.38743(9) 0.65157(14)
C18 C 0.29792(18) 0.32329(10) 0.70707(17)
H11 H 0.2558 0.2861 0.7374
H12 H 0.3795 0.3412 0.7789
C19 C 0.3358(2) 0.28624(14) 0.6162(2)
H13 H 0.2551 0.2710 0.5426
H14 H 0.3908 0.2425 0.6549
H15 H 0.3858 0.3213 0.5924
C20 C 0.21865(15) 0.51072(9) 0.74784(14)
C21 C 0.35672(16) 0.51420(10) 0.81628(15)
H16 H 0.4064 0.4697 0.8460
C22 C 0.42218(18) 0.58182(11) 0.84141(16)
H17 H 0.5162 0.5835 0.8879
C23 C 0.35084(18) 0.64672(11) 0.79902(17)
H18 H 0.3956 0.6931 0.8162
C24 C 0.21400(18) 0.64405(10) 0.73148(16)
H19 H 0.1649 0.6888 0.7027
C25 C 0.14782(16) 0.57637(9) 0.70541(15)
H20 H 0.0538 0.5750 0.6584
loop_
_geom_bond_atom_site_label_1
_geom_bond_atom_site_label_2
_geom_bond_site_symmetry_1
_geom_bond_site_symmetry_2
Cl1 C2 1_555 1_555
Cl2 C6 1_555 1_555
O1 C1 1_555 1_555
O2 C7 1_555 1_555
O3 C10 1_555 1_555
O4 C17 1_555 1_555
C1 C2 1_555 1_555
C2 C3 1_555 1_555
C3 H1 1_555 1_555
C4 C3 1_555 1_555
H2 C4 1_555 1_555
C5 C4 1_555 1_555
H3 C5 1_555 1_555
C6 C1 1_555 1_555
C7 O1 1_555 1_555
C8 C7 1_555 1_555
C9 C8 1_555 1_555
H4 C9 1_555 1_555
H5 C9 1_555 1_555
C10 C9 1_555 1_555
C11 C10 1_555 1_555
C12 C11 1_555 1_555
H6 C12 1_555 1_555
C13 C12 1_555 1_555
H7 C13 1_555 1_555
C14 C13 1_555 1_555
H8 C14 1_555 1_555
C15 C14 1_555 1_555
H9 C15 1_555 1_555
C16 C11 1_555 1_555
H10 C16 1_555 1_555
C17 C8 1_555 1_555
C18 C17 1_555 1_555
H11 C18 1_555 1_555
H12 C18 1_555 1_555
C19 C18 1_555 1_555
H13 C19 1_555 1_555
H14 C19 1_555 1_555
H15 C19 1_555 1_555
C20 C8 1_555 1_555
C21 C20 1_555 1_555
H16 C21 1_555 1_555
C22 C21 1_555 1_555
H17 C22 1_555 1_555
C23 C22 1_555 1_555
H18 C23 1_555 1_555
C24 C23 1_555 1_555
H19 C24 1_555 1_555
C25 C20 1_555 1_555
H20 C25 1_555 1_555
C5 C6 1_555 1_555
C15 C16 1_555 1_555
C24 C25 1_555 1_555

#END
