
#######################################################################
#
#                 Cambridge Crystallographic Data Centre
#                                CCDC 
#
#######################################################################
#
# If this CIF has been generated from an entry in the Cambridge 
# Structural Database, then it will include bibliographic, chemical, 
# crystal, experimental, refinement or atomic coordinate data resulting 
# from the CCDC's data processing and validation procedures.
#
#######################################################################

data_GIQHAS
_chemical_formula_moiety         'C26 H20 Cl2 O4'
_chemical_name_systematic        
'2,6-dichlorophenyl 2-(cyclopropanecarbonyl)-4-oxo-2,4-diphenylbutanoate'
_symmetry_cell_setting           monoclinic
_symmetry_space_group_name_H-M   'P 21/n'
_symmetry_Int_Tables_number      14
_space_group_name_Hall           '-P 2yn'
loop_
_symmetry_equiv_pos_site_id
_symmetry_equiv_pos_as_xyz
1 x,y,z
2 1/2-x,1/2+y,1/2-z
3 -x,-y,-z
4 1/2+x,1/2-y,1/2+z
_cell_length_a                   10.565(2)
_cell_length_b                   11.257(2)
_cell_length_c                   38.135(8)
_cell_angle_alpha                90
_cell_angle_beta                 91.95(3)
_cell_angle_gamma                90
_cell_volume                     4532.78
_exptl_crystal_colour            colorless
_exptl_crystal_description       block
_cell_formula_units_Z            8
loop_
_atom_site_label
_atom_site_type_symbol
_atom_site_fract_x
_atom_site_fract_y
_atom_site_fract_z
Cl1 Cl 0.89569(7) 0.18522(6) 0.188270(16)
Cl2 Cl 0.96161(9) 0.35062(6) 0.057792(17)
O1 O 0.86621(14) 0.18398(13) 0.11165(4)
O2 O 1.04350(14) 0.09562(13) 0.09303(4)
O3 O 0.78764(15) 0.11457(15) 0.03750(4)
O4 O 0.76445(15) -0.08191(16) 0.15111(4)
C1 C 0.9394(2) 0.27828(18) 0.12442(6)
C2 C 0.9585(2) 0.2899(2) 0.16044(6)
C3 C 1.0291(2) 0.3836(2) 0.17458(7)
H1 H 1.0433 0.3904 0.1992
C4 C 1.0783(2) 0.4666(2) 0.15215(8)
H2 H 1.1273 0.5306 0.1616
C5 C 1.0576(3) 0.4584(2) 0.11619(8)
H3 H 1.0905 0.5170 0.1011
C6 C 0.9879(2) 0.36321(19) 0.10249(6)
C7 C 0.93262(19) 0.09015(17) 0.09793(5)
C8 C 0.84767(18) -0.01886(17) 0.09579(5)
C9 C 0.8579(2) -0.07067(18) 0.13386(5)
C10 C 0.9853(2) -0.10798(18) 0.14679(6)
H4 H 1.0589 -0.0835 0.1327
C11 C 1.0070(3) -0.1169(2) 0.18601(6)
H5 H 1.0921 -0.0962 0.1958
H6 H 0.9361 -0.0949 0.2010
C12 C 0.9946(3) -0.2264(2) 0.16559(7)
H7 H 0.9158 -0.2731 0.1677
H8 H 1.0719 -0.2744 0.1625
C13 C 0.89362(19) -0.11748(18) 0.07169(5)
C14 C 0.8449(2) -0.23123(19) 0.07690(6)
H9 H 0.7850 -0.2433 0.0946
C15 C 0.8822(2) -0.3270(2) 0.05677(6)
H10 H 0.8485 -0.4039 0.0608
C16 C 0.9691(2) -0.3096(2) 0.03079(6)
H11 H 0.9961 -0.3748 0.0171
C17 C 1.0164(2) -0.1970(2) 0.02484(6)
H12 H 1.0747 -0.1851 0.0067
C18 C 0.9795(2) -0.10097(19) 0.04516(5)
H13 H 1.0128 -0.0241 0.0409
C19 C 0.70847(19) 0.01411(18) 0.08681(5)
H14 H 0.6574 -0.0595 0.0850
H15 H 0.6752 0.0626 0.1061
C20 C 0.69396(19) 0.08262(18) 0.05280(5)
C21 C 0.5640(2) 0.11135(19) 0.03875(6)
C22 C 0.5508(2) 0.1602(2) 0.00513(6)
H16 H 0.6236 0.1747 -0.0082
C23 C 0.4315(2) 0.1875(2) -0.00884(7)
H17 H 0.4229 0.2207 -0.0317
C24 C 0.3249(2) 0.1668(2) 0.01031(7)
H18 H 0.2434 0.1856 0.0006
C25 C 0.3370(2) 0.1186(3) 0.04364(7)
H19 H 0.2637 0.1044 0.0568
C26 C 0.4559(2) 0.0910(2) 0.05793(6)
H20 H 0.4638 0.0581 0.0808
Cl3 Cl 0.70437(8) 0.51266(7) 0.12871(3)
Cl4 Cl 0.27926(9) 0.73800(10) 0.08425(2)
O5 O 0.50079(15) 0.68851(13) 0.13239(4)
O6 O 0.35371(16) 0.57602(14) 0.15753(4)
O7 O 0.36926(19) 0.81498(16) 0.24066(5)
O8 O 0.29551(14) 0.86271(14) 0.16124(5)
C27 C 0.4893(3) 0.6151(2) 0.10305(6)
C28 C 0.5813(3) 0.5286(2) 0.09817(8)
C29 C 0.5720(5) 0.4546(3) 0.06911(11)
H21 H 0.6352 0.3961 0.0655
C30 C 0.4717(6) 0.4658(4) 0.04550(11)
H22 H 0.4642 0.4130 0.0261
C31 C 0.3823(5) 0.5525(4) 0.04968(9)
H23 H 0.3145 0.5607 0.0328
C32 C 0.3902(3) 0.6290(3) 0.07863(8)
C33 C 0.4294(2) 0.65427(17) 0.16019(5)
C34 C 0.47261(19) 0.72184(17) 0.19319(5)
C35 C 0.3717(2) 0.7263(2) 0.22229(6)
C36 C 0.2889(2) 0.6239(2) 0.22933(7)
H24 H 0.2935 0.5538 0.2133
C37 C 0.1628(3) 0.6512(3) 0.24505(9)
H25 H 0.1411 0.7357 0.2487
H26 H 0.0901 0.5997 0.2383
C38 C 0.2619(3) 0.6006(3) 0.26732(7)
H27 H 0.2522 0.5169 0.2747
H28 H 0.3032 0.6530 0.2852
C39 C 0.5861(2) 0.65097(19) 0.20899(6)
C40 C 0.5748(3) 0.5281(2) 0.21400(8)
H29 H 0.4970 0.4894 0.2081
C41 C 0.6764(3) 0.4629(2) 0.22746(8)
H30 H 0.6677 0.3797 0.2307
C42 C 0.7896(3) 0.5172(3) 0.23618(7)
H31 H 0.8593 0.4717 0.2450
C43 C 0.8009(3) 0.6384(3) 0.23200(8)
H32 H 0.8785 0.6766 0.2384
C44 C 0.6988(2) 0.7057(2) 0.21837(7)
H33 H 0.7075 0.7891 0.2156
C45 C 0.50645(19) 0.84996(17) 0.18397(6)
H34 H 0.5351 0.8923 0.2056
H35 H 0.5773 0.8498 0.1676
C46 C 0.39478(19) 0.91493(18) 0.16723(5)
C47 C 0.4089(2) 1.04341(17) 0.15886(5)
C48 C 0.5206(2) 1.10552(19) 0.16604(6)
H36 H 0.5920 1.0656 0.1763
C49 C 0.5279(3) 1.2259(2) 0.15827(8)
H37 H 0.6042 1.2683 0.1631
C50 C 0.4232(3) 1.2840(2) 0.14338(8)
H38 H 0.4275 1.3666 0.1385
C51 C 0.3123(3) 1.2220(2) 0.13561(7)
H39 H 0.2415 1.2619 0.1250
C52 C 0.3049(2) 1.1025(2) 0.14325(6)
H40 H 0.2289 1.0602 0.1379
loop_
_geom_bond_atom_site_label_1
_geom_bond_atom_site_label_2
_geom_bond_site_symmetry_1
_geom_bond_site_symmetry_2
Cl1 C2 1_555 1_555
Cl2 C6 1_555 1_555
O1 C1 1_555 1_555
O2 C7 1_555 1_555
O3 C20 1_555 1_555
O4 C9 1_555 1_555
C1 C2 1_555 1_555
C2 C3 1_555 1_555
C3 H1 1_555 1_555
C4 C3 1_555 1_555
H2 C4 1_555 1_555
C5 C4 1_555 1_555
H3 C5 1_555 1_555
C6 C1 1_555 1_555
C7 O1 1_555 1_555
C8 C7 1_555 1_555
C9 C8 1_555 1_555
C10 C9 1_555 1_555
H4 C10 1_555 1_555
C11 C10 1_555 1_555
H5 C11 1_555 1_555
H6 C11 1_555 1_555
C12 C10 1_555 1_555
H7 C12 1_555 1_555
H8 C12 1_555 1_555
C13 C8 1_555 1_555
C14 C13 1_555 1_555
H9 C14 1_555 1_555
C15 C14 1_555 1_555
H10 C15 1_555 1_555
C16 C15 1_555 1_555
H11 C16 1_555 1_555
C17 C16 1_555 1_555
H12 C17 1_555 1_555
C18 C13 1_555 1_555
H13 C18 1_555 1_555
C19 C8 1_555 1_555
H14 C19 1_555 1_555
H15 C19 1_555 1_555
C20 C19 1_555 1_555
C21 C20 1_555 1_555
C22 C21 1_555 1_555
H16 C22 1_555 1_555
C23 C22 1_555 1_555
H17 C23 1_555 1_555
C24 C23 1_555 1_555
H18 C24 1_555 1_555
C25 C24 1_555 1_555
H19 C25 1_555 1_555
C26 C21 1_555 1_555
H20 C26 1_555 1_555
Cl3 C28 1_555 1_555
Cl4 C32 1_555 1_555
O5 C27 1_555 1_555
O6 C33 1_555 1_555
O7 C35 1_555 1_555
O8 C46 1_555 1_555
C27 C28 1_555 1_555
C28 C29 1_555 1_555
C29 H21 1_555 1_555
C30 C29 1_555 1_555
H22 C30 1_555 1_555
C31 C30 1_555 1_555
H23 C31 1_555 1_555
C32 C27 1_555 1_555
C33 O5 1_555 1_555
C34 C33 1_555 1_555
C35 C34 1_555 1_555
C36 C35 1_555 1_555
H24 C36 1_555 1_555
C37 C36 1_555 1_555
H25 C37 1_555 1_555
H26 C37 1_555 1_555
C38 C36 1_555 1_555
H27 C38 1_555 1_555
H28 C38 1_555 1_555
C39 C34 1_555 1_555
C40 C39 1_555 1_555
H29 C40 1_555 1_555
C41 C40 1_555 1_555
H30 C41 1_555 1_555
C42 C41 1_555 1_555
H31 C42 1_555 1_555
C43 C42 1_555 1_555
H32 C43 1_555 1_555
C44 C39 1_555 1_555
H33 C44 1_555 1_555
C45 C34 1_555 1_555
H34 C45 1_555 1_555
H35 C45 1_555 1_555
C46 C45 1_555 1_555
C47 C46 1_555 1_555
C48 C47 1_555 1_555
H36 C48 1_555 1_555
C49 C48 1_555 1_555
H37 C49 1_555 1_555
C50 C49 1_555 1_555
H38 C50 1_555 1_555
C51 C50 1_555 1_555
H39 C51 1_555 1_555
C52 C47 1_555 1_555
H40 C52 1_555 1_555
C5 C6 1_555 1_555
C11 C12 1_555 1_555
C17 C18 1_555 1_555
C25 C26 1_555 1_555
C31 C32 1_555 1_555
C37 C38 1_555 1_555
C43 C44 1_555 1_555
C51 C52 1_555 1_555

#END
