
#######################################################################
#
#                 Cambridge Crystallographic Data Centre
#                                CCDC 
#
#######################################################################
#
# If this CIF has been generated from an entry in the Cambridge 
# Structural Database, then it will include bibliographic, chemical, 
# crystal, experimental, refinement or atomic coordinate data resulting 
# from the CCDC's data processing and validation procedures.
#
#######################################################################

data_GIQHOD
_chemical_formula_moiety         'C31 H28 N2 O6 S1,C6 H6'
_chemical_name_systematic        
'8-Benzhydryloxycarbonyl-2-phenylacetyl-2,9-diaza-5-oxa-12-thiatricyclo(5.3.2.0^3,11^)dodecane-4,10-dione benzene solvate'
_symmetry_cell_setting           orthorhombic
_symmetry_space_group_name_H-M   'P 21 21 21'
_symmetry_Int_Tables_number      19
_space_group_name_Hall           'P 2ac 2ab'
loop_
_symmetry_equiv_pos_site_id
_symmetry_equiv_pos_as_xyz
1 x,y,z
2 1/2-x,-y,1/2+z
3 1/2+x,1/2-y,-z
4 -x,1/2+y,1/2-z
_cell_length_a                   6.215(3)
_cell_length_b                   17.174(5)
_cell_length_c                   31.074(10)
_cell_angle_alpha                90
_cell_angle_beta                 90
_cell_angle_gamma                90
_cell_volume                     3316.73
_cell_formula_units_Z            4
loop_
_atom_site_label
_atom_site_type_symbol
_atom_site_fract_x
_atom_site_fract_y
_atom_site_fract_z
S1 S 0.0947(7) 0.4495(2) 0.8343(1)
C1 C -0.1022(25) 0.5273(8) 0.8425(4)
C2 C -0.3301(22) 0.4958(8) 0.8327(5)
C3 C -0.0629(23) 0.5955(7) 0.8125(4)
C4 C -0.0844(22) 0.5500(8) 0.8910(4)
C5 C 0.0777(30) 0.6147(11) 0.8969(5)
O1 O 0.2710(20) 0.6027(6) 0.8944(4)
O2 O -0.0115(16) 0.6827(6) 0.9061(3)
C6 C 0.1297(28) 0.7518(8) 0.9023(6)
N1 N -0.0138(20) 0.4820(7) 0.9144(4)
C7 C 0.1262(22) 0.4296(8) 0.8910(4)
C8 C 0.0062(26) 0.3588(8) 0.9118(5)
C9 C -0.1426(28) 0.4216(10) 0.9303(5)
O3 O -0.3095(18) 0.4217(6) 0.9519(3)
N2 N -0.0879(20) 0.2990(6) 0.8839(4)
C10 C 0.0611(31) 0.2546(8) 0.8633(5)
O4 O 0.2493(17) 0.2618(6) 0.8729(3)
C11 C -0.0244(23) 0.1955(9) 0.8312(5)
C12 C -0.3156(22) 0.2970(8) 0.8746(5)
C13 C -0.3678(23) 0.3565(9) 0.8397(5)
O5 O -0.3954(19) 0.3466(5) 0.8031(3)
O6 O -0.3676(14) 0.4300(5) 0.8594(3)
C14 C 0.0976(45) 0.7891(12) 0.8608(7)
C15 C -0.0953(42) 0.8221(10) 0.8513(6)
C16 C -0.1474(55) 0.8532(12) 0.8109(8)
C17 C 0.0147(58) 0.8436(12) 0.7781(8)
C18 C 0.2064(58) 0.8091(12) 0.7905(8)
C19 C 0.2500(45) 0.7806(10) 0.8301(9)
C20 C 0.0797(30) 0.8016(9) 0.9409(5)
C21 C -0.1092(31) 0.7979(9) 0.9640(5)
C22 C -0.1427(34) 0.8504(10) 0.9974(5)
C23 C 0.0077(46) 0.9043(11) 1.0089(6)
C24 C 0.1938(31) 0.9070(9) 0.9852(6)
C25 C 0.2357(29) 0.8542(10) 0.9523(5)
C26 C 0.1552(28) 0.1474(10) 0.8120(5)
C27 C 0.1613(27) 0.0703(11) 0.8190(5)
C28 C 0.3170(47) 0.0228(11) 0.8015(8)
C29 C 0.4823(31) 0.0583(12) 0.7791(6)
C30 C 0.4815(31) 0.1365(12) 0.7712(5)
C31 C 0.3230(29) 0.1803(9) 0.7892(5)
H1 H -0.4368(22) 0.5357(8) 0.8384(5)
H2 H -0.3404(22) 0.4810(8) 0.8026(5)
H3 H 0.0778(23) 0.6166(7) 0.8178(4)
H4 H -0.1693(23) 0.6350(7) 0.8176(4)
H5 H -0.0725(23) 0.5782(7) 0.7832(4)
H6 H -0.2252(22) 0.5667(8) 0.9018(4)
H7 H 0.2798(28) 0.7346(8) 0.9042(6)
H8 H 0.2763(22) 0.4333(8) 0.9005(4)
H9 H 0.0963(26) 0.3350(8) 0.9346(5)
H10 H -0.1258(23) 0.1613(9) 0.8456(5)
H11 H -0.1003(23) 0.2224(9) 0.8084(5)
H12 H -0.3966(22) 0.3089(8) 0.9005(5)
H13 H -0.3561(22) 0.2453(8) 0.8650(5)
H14 H -0.1989(42) 0.8242(10) 0.8729(6)
H15 H -0.2773(55) 0.8783(12) 0.8056(8)
H16 H -0.0085(58) 0.8597(12) 0.7499(8)
H17 H 0.3143(58) 0.8054(12) 0.7699(8)
H18 H 0.3800(45) 0.7559(10) 0.8360(9)
H19 H -0.2130(31) 0.7609(9) 0.9573(5)
H20 H -0.2720(34) 0.8485(10) 1.0125(5)
H21 H -0.0151(46) 0.9380(11) 1.0319(6)
H22 H 0.2952(31) 0.9452(9) 0.9914(6)
H23 H 0.3676(29) 0.8546(10) 0.9382(5)
H24 H 0.0560(27) 0.0480(11) 0.8363(5)
H25 H 0.3112(47) -0.0310(11) 0.8047(8)
H26 H 0.5966(31) 0.0282(12) 0.7692(6)
H27 H 0.5865(31) 0.1592(12) 0.7540(5)
H28 H 0.3277(29) 0.2342(9) 0.7860(5)
C32 C -0.3820(28) 0.0450(10) 0.9117(6)
C33 C -0.1809(25) 0.0395(8) 0.9301(6)
C34 C -0.1140(23) 0.0948(10) 0.9593(5)
C35 C -0.2452(32) 0.1571(8) 0.9688(5)
C36 C -0.4522(30) 0.1593(9) 0.9530(6)
C37 C -0.5181(24) 0.1047(11) 0.9233(6)
H29 H -0.4258(28) 0.0084(10) 0.8915(6)
H30 H -0.0903(25) -0.0015(8) 0.9228(6)
H31 H 0.0195(23) 0.0900(10) 0.9725(5)
H32 H -0.1942(32) 0.1976(8) 0.9859(5)
H33 H -0.5472(30) 0.1976(9) 0.9623(6)
H34 H -0.6546(24) 0.1081(11) 0.9112(6)
loop_
_geom_bond_atom_site_label_1
_geom_bond_atom_site_label_2
_geom_bond_site_symmetry_1
_geom_bond_site_symmetry_2
S1 C1 1_555 1_555
C1 C2 1_555 1_555
C2 O6 1_555 1_555
C3 C1 1_555 1_555
C4 C1 1_555 1_555
C5 C4 1_555 1_555
O1 C5 1_555 1_555
O2 C5 1_555 1_555
C6 O2 1_555 1_555
N1 C4 1_555 1_555
C7 S1 1_555 1_555
C8 C7 1_555 1_555
C9 N1 1_555 1_555
O3 C9 1_555 1_555
N2 C8 1_555 1_555
C10 N2 1_555 1_555
O4 C10 1_555 1_555
C11 C10 1_555 1_555
C12 N2 1_555 1_555
C13 C12 1_555 1_555
O5 C13 1_555 1_555
O6 C13 1_555 1_555
C14 C6 1_555 1_555
C15 C14 1_555 1_555
C16 C15 1_555 1_555
C17 C16 1_555 1_555
C18 C17 1_555 1_555
C19 C14 1_555 1_555
C20 C6 1_555 1_555
C21 C20 1_555 1_555
C22 C21 1_555 1_555
C23 C22 1_555 1_555
C24 C23 1_555 1_555
C25 C20 1_555 1_555
C26 C11 1_555 1_555
C27 C26 1_555 1_555
C28 C27 1_555 1_555
C29 C28 1_555 1_555
C30 C29 1_555 1_555
C31 C26 1_555 1_555
C32 C33 1_555 1_555
C33 C34 1_555 1_555
C34 C35 1_555 1_555
C35 C36 1_555 1_555
C36 C37 1_555 1_555
C37 C32 1_555 1_555
H1 C2 1_555 1_555
H2 C2 1_555 1_555
H3 C3 1_555 1_555
H4 C3 1_555 1_555
H5 C3 1_555 1_555
H6 C4 1_555 1_555
H7 C6 1_555 1_555
H8 C7 1_555 1_555
H9 C8 1_555 1_555
H10 C11 1_555 1_555
H11 C11 1_555 1_555
H12 C12 1_555 1_555
H13 C12 1_555 1_555
H14 C15 1_555 1_555
H15 C16 1_555 1_555
H16 C17 1_555 1_555
H17 C18 1_555 1_555
H18 C19 1_555 1_555
H19 C21 1_555 1_555
H20 C22 1_555 1_555
H21 C23 1_555 1_555
H22 C24 1_555 1_555
H23 C25 1_555 1_555
H24 C27 1_555 1_555
H25 C28 1_555 1_555
H26 C29 1_555 1_555
H27 C30 1_555 1_555
H28 C31 1_555 1_555
H29 C32 1_555 1_555
H30 C33 1_555 1_555
H31 C34 1_555 1_555
H32 C35 1_555 1_555
H33 C36 1_555 1_555
H34 C37 1_555 1_555
N1 C7 1_555 1_555
C8 C9 1_555 1_555
C18 C19 1_555 1_555
C24 C25 1_555 1_555
C30 C31 1_555 1_555

#END
