
#######################################################################
#
#                 Cambridge Crystallographic Data Centre
#                                CCDC 
#
#######################################################################
#
# If this CIF has been generated from an entry in the Cambridge 
# Structural Database, then it will include bibliographic, chemical, 
# crystal, experimental, refinement or atomic coordinate data resulting 
# from the CCDC's data processing and validation procedures.
#
#######################################################################

data_GIQRED
_chemical_name_common            CP-336156
_chemical_formula_moiety         'C28 H32 N1 O2 1+,Cl1 1-'
_chemical_name_systematic        
'5-((4-(2-Pyrrolidinio)ethyloxy)phenyl)-6-phenyl-5,6,7,8-tetrahydronaphth-2-ol chloride'
_chemical_properties_biological  
'nonsteroidal estrogen agonistic/antagonistic activity'
_symmetry_cell_setting           orthorhombic
_symmetry_space_group_name_H-M   'P 21 21 21'
_symmetry_Int_Tables_number      19
_space_group_name_Hall           'P 2ac 2ab'
loop_
_symmetry_equiv_pos_site_id
_symmetry_equiv_pos_as_xyz
1 x,y,z
2 1/2-x,-y,1/2+z
3 1/2+x,1/2-y,-z
4 -x,1/2+y,1/2-z
_cell_length_a                   10.373(1)
_cell_length_b                   13.397(1)
_cell_length_c                   17.499(1)
_cell_angle_alpha                90
_cell_angle_beta                 90
_cell_angle_gamma                90
_cell_volume                     2431.78
_cell_formula_units_Z            4
_exptl_crystal_recrystallization_method dichloromethane/acetonitrile
loop_
_atom_site_label
_atom_site_type_symbol
_atom_site_fract_x
_atom_site_fract_y
_atom_site_fract_z
Cl1 Cl 0.7862(2) 0.2481(2) 0.4290(1)
C1 C 0.4401(6) 0.8862(4) 0.4713(3)
C2 C 0.5362(5) 0.9664(4) 0.4999(3)
C3 C 0.6606(5) 0.9611(5) 0.4521(3)
C4 C 0.6314(6) 0.9943(5) 0.3700(4)
C5 C 0.5139(6) 0.9441(4) 0.3381(4)
C6 C 0.4951(6) 0.9450(4) 0.2591(4)
C7 C 0.3925(6) 0.9005(5) 0.2268(4)
O1 O 0.3781(5) 0.9029(4) 0.1475(3)
C8 C 0.3024(6) 0.8507(5) 0.2716(4)
C9 C 0.3206(6) 0.8485(4) 0.3499(4)
C10 C 0.4253(5) 0.8939(4) 0.3837(3)
C11 C 0.5599(6) 0.9585(4) 0.5858(3)
C12 C 0.4696(6) 0.9993(5) 0.6348(3)
C13 C 0.4859(6) 0.9875(5) 0.7139(4)
C14 C 0.5921(6) 0.9419(5) 0.7422(4)
C15 C 0.6838(7) 0.9033(5) 0.6935(4)
C16 C 0.6690(6) 0.9117(5) 0.6156(4)
C17 C 0.4710(5) 0.7805(4) 0.4976(3)
C18 C 0.5329(5) 0.7112(4) 0.4518(3)
C19 C 0.5622(6) 0.6140(5) 0.4759(3)
C20 C 0.5275(6) 0.5883(5) 0.5505(3)
C21 C 0.4622(6) 0.6552(4) 0.5958(4)
C22 C 0.4354(5) 0.7494(5) 0.5695(3)
O2 O 0.5505(5) 0.4961(3) 0.5826(2)
C23 C 0.5851(7) 0.4174(5) 0.5358(4)
C24 C 0.5950(7) 0.3221(5) 0.5864(5)
N1 N 0.7258(5) 0.2858(3) 0.5947(3)
C25 C 0.7271(7) 0.1912(5) 0.6395(4)
C26 C 0.7432(7) 0.2245(6) 0.7189(4)
C27 C 0.8293(8) 0.3127(6) 0.7144(5)
C28 C 0.8126(7) 0.3514(6) 0.6366(4)
H1 H 0.3585 0.9004 0.4947
H2 H 0.4992 1.0314 0.4928
H3 H 0.6924 0.8938 0.4517
H4 H 0.7245 1.0044 0.4739
H5 H 0.7040 0.9782 0.3382
H6 H 0.6179 1.0652 0.3696
H7 H 0.5569 0.9781 0.2271
H8 H 0.3182(11) 0.8299(11) 0.1092(10)
H9 H 0.2292 0.8187 0.2487
H10 H 0.2589 0.8145 0.3814
H11 H 0.3969 1.0353 0.6150
H12 H 0.4210 1.0119 0.7482
H13 H 0.6037 0.9365 0.7965
H14 H 0.7583 0.8704 0.7141
H15 H 0.7336 0.8854 0.5819
H16 H 0.5569 0.7307 0.4009
H17 H 0.6043 0.5672 0.4426
H18 H 0.4351 0.6359 0.6461
H19 H 0.3907 0.7951 0.6023
H20 H 0.5209 0.4079 0.4970
H21 H 0.6669 0.4308 0.5122
H22 H 0.5439 0.2704 0.5635
H23 H 0.5617 0.3374 0.6362
H24 H 0.7582(11) 0.2822(11) 0.5412(10)
H25 H 0.7974 0.1492 0.6241
H26 H 0.6474 0.1557 0.6334
H27 H 0.6615 0.2424 0.7408
H28 H 0.7822 0.1729 0.7490
H29 H 0.9173 0.2937 0.7230
H30 H 0.8042 0.3620 0.7514
H31 H 0.8946 0.3536 0.6113
H32 H 0.7766 0.4174 0.6387
loop_
_geom_bond_atom_site_label_1
_geom_bond_atom_site_label_2
_geom_bond_site_symmetry_1
_geom_bond_site_symmetry_2
C1 C2 1_555 1_555
C2 C3 1_555 1_555
C3 C4 1_555 1_555
C4 C5 1_555 1_555
C5 C6 1_555 1_555
C6 C7 1_555 1_555
C7 O1 1_555 1_555
O1 H8 1_555 1_555
C8 C7 1_555 1_555
C9 C8 1_555 1_555
C10 C1 1_555 1_555
C11 C2 1_555 1_555
C12 C11 1_555 1_555
C13 C12 1_555 1_555
C14 C13 1_555 1_555
C15 C14 1_555 1_555
C16 C11 1_555 1_555
C17 C1 1_555 1_555
C18 C17 1_555 1_555
C19 C18 1_555 1_555
C20 C19 1_555 1_555
C21 C20 1_555 1_555
C22 C17 1_555 1_555
O2 C20 1_555 1_555
C23 O2 1_555 1_555
C24 C23 1_555 1_555
N1 C24 1_555 1_555
C25 N1 1_555 1_555
C26 C25 1_555 1_555
C27 C26 1_555 1_555
C28 N1 1_555 1_555
H1 C1 1_555 1_555
H2 C2 1_555 1_555
H3 C3 1_555 1_555
H4 C3 1_555 1_555
H5 C4 1_555 1_555
H6 C4 1_555 1_555
H7 C6 1_555 1_555
H9 C8 1_555 1_555
H10 C9 1_555 1_555
H11 C12 1_555 1_555
H12 C13 1_555 1_555
H13 C14 1_555 1_555
H14 C15 1_555 1_555
H15 C16 1_555 1_555
H16 C18 1_555 1_555
H17 C19 1_555 1_555
H18 C21 1_555 1_555
H19 C22 1_555 1_555
H20 C23 1_555 1_555
H21 C23 1_555 1_555
H22 C24 1_555 1_555
H23 C24 1_555 1_555
H24 N1 1_555 1_555
H25 C25 1_555 1_555
H26 C25 1_555 1_555
H27 C26 1_555 1_555
H28 C26 1_555 1_555
H29 C27 1_555 1_555
H30 C27 1_555 1_555
H31 C28 1_555 1_555
H32 C28 1_555 1_555
C5 C10 1_555 1_555
C9 C10 1_555 1_555
C15 C16 1_555 1_555
C21 C22 1_555 1_555
C27 C28 1_555 1_555

#END
