
#######################################################################
#
#                 Cambridge Crystallographic Data Centre
#                                CCDC 
#
#######################################################################
#
# If this CIF has been generated from an entry in the Cambridge 
# Structural Database, then it will include bibliographic, chemical, 
# crystal, experimental, refinement or atomic coordinate data resulting 
# from the CCDC's data processing and validation procedures.
#
#######################################################################

data_GIRFEV
_chemical_formula_moiety         'C23 H16 Cl1 N3 O3'
_chemical_name_systematic        
3-(4-chlorophenyl)-4-(4-nitrophenyl)-3,4-dihydropyrido[1,2-a]benzimidazol-1(2H)-one
_symmetry_cell_setting           orthorhombic
_symmetry_space_group_name_H-M   'P 21 21 21'
_symmetry_Int_Tables_number      19
_space_group_name_Hall           'P 2ac 2ab'
loop_
_symmetry_equiv_pos_site_id
_symmetry_equiv_pos_as_xyz
1 x,y,z
2 1/2-x,-y,1/2+z
3 -x,1/2+y,1/2-z
4 1/2+x,1/2-y,-z
_cell_length_a                   11.0105(3)
_cell_length_b                   11.0264(2)
_cell_length_c                   15.8268(3)
_cell_angle_alpha                90
_cell_angle_beta                 90
_cell_angle_gamma                90
_cell_volume                     1921.47
_exptl_crystal_colour            colorless
_exptl_crystal_description       block
_cell_formula_units_Z            4
loop_
_atom_site_label
_atom_site_type_symbol
_atom_site_fract_x
_atom_site_fract_y
_atom_site_fract_z
C1 C 0.2242(2) 0.7981(2) 0.52152(14)
C2 C 0.1755(2) 0.7344(2) 0.59815(14)
H1 H 0.134 0.6592 0.5799
H2 H 0.1141 0.787 0.6254
C3 C 0.2731(2) 0.70140(19) 0.66381(13)
H3 H 0.334 0.6476 0.6357
C4 C 0.33929(19) 0.81953(19) 0.69159(13)
H4 H 0.2786 0.8745 0.7188
C5 C 0.3879(2) 0.88112(19) 0.61389(13)
C6 C 0.4903(2) 0.98640(19) 0.52472(14)
C7 C 0.5759(2) 1.0610(2) 0.48631(14)
H5 H 0.6395 1.0976 0.5178
C8 C 0.5643(2) 1.0796(2) 0.39977(14)
H6 H 0.6207 1.1308 0.3717
C9 C 0.4719(2) 1.0250(2) 0.35321(15)
H7 H 0.468 1.039 0.2941
C10 C 0.3856(2) 0.9508(2) 0.39040(14)
H8 H 0.3224 0.9139 0.3585
C11 C 0.39680(19) 0.93325(19) 0.47737(13)
C12 C 0.2207(2) 0.63326(19) 0.73855(13)
C13 C 0.1187(2) 0.6750(2) 0.78148(14)
H9 H 0.0802 0.7475 0.7632
C14 C 0.0722(2) 0.6129(2) 0.85052(14)
H10 H 0.0029 0.6426 0.8797
C15 C 0.1285(2) 0.5073(2) 0.87608(13)
C16 C 0.2299(2) 0.4627(2) 0.83521(14)
H11 H 0.2678 0.39 0.8537
C17 C 0.2754(2) 0.52674(19) 0.76619(14)
H12 H 0.3451 0.4971 0.7375
C18 C 0.43921(19) 0.79382(19) 0.75469(12)
C19 C 0.4263(2) 0.8295(2) 0.83893(13)
H13 H 0.3567 0.8742 0.8558
C20 C 0.5144(2) 0.7999(2) 0.89809(14)
H14 H 0.5068 0.8253 0.9552
C21 C 0.6136(2) 0.7328(2) 0.87204(14)
C22 C 0.6292(2) 0.6966(2) 0.78888(14)
H15 H 0.6985 0.6509 0.7725
C23 C 0.5417(2) 0.7284(2) 0.73032(13)
H16 H 0.5515 0.7054 0.6729
Cl1 Cl 0.07131(5) 0.42956(5) 0.96384(3)
N1 N 0.33046(16) 0.86433(16) 0.53559(12)
N2 N 0.48188(17) 0.95187(16) 0.61007(11)
N3 N 0.70428(18) 0.6956(2) 0.93517(13)
O1 O 0.17752(15) 0.79526(15) 0.45221(10)
O2 O 0.78239(16) 0.62177(18) 0.91331(12)
O3 O 0.69730(18) 0.73804(19) 1.00641(11)
loop_
_geom_bond_atom_site_label_1
_geom_bond_atom_site_label_2
_geom_bond_site_symmetry_1
_geom_bond_site_symmetry_2
C1 C2 1_555 1_555
C2 H1 1_555 1_555
H2 C2 1_555 1_555
C3 C2 1_555 1_555
H3 C3 1_555 1_555
C4 C3 1_555 1_555
H4 C4 1_555 1_555
C5 C4 1_555 1_555
C6 C7 1_555 1_555
C7 H5 1_555 1_555
C8 C7 1_555 1_555
H6 C8 1_555 1_555
C9 C8 1_555 1_555
H7 C9 1_555 1_555
C10 C9 1_555 1_555
H8 C10 1_555 1_555
C11 C6 1_555 1_555
C12 C3 1_555 1_555
C13 C12 1_555 1_555
H9 C13 1_555 1_555
C14 C13 1_555 1_555
H10 C14 1_555 1_555
C15 C14 1_555 1_555
C16 C15 1_555 1_555
H11 C16 1_555 1_555
C17 C12 1_555 1_555
H12 C17 1_555 1_555
C18 C4 1_555 1_555
C19 C18 1_555 1_555
H13 C19 1_555 1_555
C20 C19 1_555 1_555
H14 C20 1_555 1_555
C21 C20 1_555 1_555
C22 C21 1_555 1_555
H15 C22 1_555 1_555
C23 C18 1_555 1_555
H16 C23 1_555 1_555
Cl1 C15 1_555 1_555
N1 C1 1_555 1_555
N2 C5 1_555 1_555
N3 C21 1_555 1_555
O1 C1 1_555 1_555
O2 N3 1_555 1_555
O3 N3 1_555 1_555
C5 N1 1_555 1_555
C6 N2 1_555 1_555
C10 C11 1_555 1_555
C11 N1 1_555 1_555
C16 C17 1_555 1_555
C22 C23 1_555 1_555

#END
