
#######################################################################
#
#                 Cambridge Crystallographic Data Centre
#                                CCDC 
#
#######################################################################
#
# If this CIF has been generated from an entry in the Cambridge 
# Structural Database, then it will include bibliographic, chemical, 
# crystal, experimental, refinement or atomic coordinate data resulting 
# from the CCDC's data processing and validation procedures.
#
#######################################################################

data_GIRHAS
_chemical_formula_moiety         'C22 H12 N2 S4'
_chemical_name_systematic        
2,2'-(3,3'-Bithiene-2,2'-diyl)bis(1,3-benzothiazole)
_symmetry_cell_setting           triclinic
_symmetry_space_group_name_H-M   'P -1'
_symmetry_Int_Tables_number      2
_space_group_name_Hall           '-P 1'
loop_
_symmetry_equiv_pos_site_id
_symmetry_equiv_pos_as_xyz
1 x,y,z
2 -x,-y,-z
_cell_length_a                   9.2207(17)
_cell_length_b                   10.453(2)
_cell_length_c                   10.969(2)
_cell_angle_alpha                86.093(3)
_cell_angle_beta                 77.049(3)
_cell_angle_gamma                72.233(3)
_cell_volume                     981.2
_exptl_crystal_colour            green
_exptl_crystal_description       block
_cell_formula_units_Z            2
loop_
_atom_site_label
_atom_site_type_symbol
_atom_site_fract_x
_atom_site_fract_y
_atom_site_fract_z
C1 C -0.4081(2) 0.0159(2) 0.7638(2)
C2 C -0.2521(3) -0.0349(2) 0.7113(2)
C3 C -0.2252(3) -0.1363(3) 0.6225(3)
H1 H -0.1263 -0.1838 0.5792
C4 C -0.3567(4) -0.1567(3) 0.6070(3)
H2 H -0.369(3) -0.211(3) 0.554(3)
C5 C -0.4895(3) 0.1204(2) 0.8567(2)
C6 C -0.5678(3) 0.2942(3) 1.0151(2)
C7 C -0.5978(5) 0.3943(3) 1.1033(3)
H3 H -0.5171 0.4159 1.1265
C8 C -0.7508(6) 0.4595(4) 1.1544(3)
H4 H -0.7742 0.5255 1.2146
C9 C -0.8708(5) 0.4295(3) 1.1185(3)
H5 H -0.9733 0.4752 1.1554
C10 C -0.8425(3) 0.3332(3) 1.0290(3)
H6 H -0.9240 0.3154 1.0035
C11 C -0.6874(3) 0.2633(2) 0.9779(2)
C12 C -0.0945(2) 0.1274(2) 0.6870(2)
C13 C -0.1283(3) 0.0138(2) 0.7385(2)
C14 C -0.0301(3) -0.0488(3) 0.8215(3)
H7 H -0.0349 -0.1277 0.8644
C15 C 0.0708(3) 0.0174(3) 0.8323(3)
H8 H 0.141(3) -0.002(3) 0.879(3)
C16 C -0.1625(2) 0.2218(2) 0.5963(2)
C17 C -0.2985(3) 0.3411(3) 0.4376(3)
C18 C -0.3854(4) 0.4021(4) 0.3492(3)
H9 H -0.4493 0.3610 0.3227
C19 C -0.3738(4) 0.5247(3) 0.3024(3)
H10 H -0.4329 0.5681 0.2449
C20 C -0.2771(3) 0.5846(3) 0.3387(2)
H11 H -0.2696 0.6666 0.3039
C21 C -0.1915(3) 0.5254(2) 0.4255(2)
H12 H -0.1265 0.5667 0.4500
C22 C -0.2030(2) 0.4023(2) 0.4768(2)
S1 S -0.51846(7) -0.05650(7) 0.69979(7)
S2 S -0.38952(8) 0.19595(7) 0.93373(7)
S3 S 0.05276(7) 0.15722(7) 0.74246(6)
S4 S -0.28976(11) 0.18988(8) 0.51498(8)
N1 N -0.6401(2) 0.16340(19) 0.88778(18)
N2 N -0.1276(2) 0.33238(18) 0.56744(17)
loop_
_geom_bond_atom_site_label_1
_geom_bond_atom_site_label_2
_geom_bond_site_symmetry_1
_geom_bond_site_symmetry_2
C1 C2 1_555 1_555
C2 C3 1_555 1_555
C3 H1 1_555 1_555
C4 C3 1_555 1_555
H2 C4 1_555 1_555
C5 C1 1_555 1_555
C6 C7 1_555 1_555
C7 H3 1_555 1_555
C8 C7 1_555 1_555
H4 C8 1_555 1_555
C9 C8 1_555 1_555
H5 C9 1_555 1_555
C10 C9 1_555 1_555
H6 C10 1_555 1_555
C11 C6 1_555 1_555
C12 C13 1_555 1_555
C13 C2 1_555 1_555
C14 C13 1_555 1_555
H7 C14 1_555 1_555
C15 C14 1_555 1_555
H8 C15 1_555 1_555
C16 C12 1_555 1_555
C17 C18 1_555 1_555
C18 H9 1_555 1_555
C19 C18 1_555 1_555
H10 C19 1_555 1_555
C20 C19 1_555 1_555
H11 C20 1_555 1_555
C21 C20 1_555 1_555
H12 C21 1_555 1_555
C22 C17 1_555 1_555
S1 C1 1_555 1_555
S2 C5 1_555 1_555
S3 C12 1_555 1_555
S4 C16 1_555 1_555
N1 C5 1_555 1_555
N2 C16 1_555 1_555
C4 S1 1_555 1_555
C6 S2 1_555 1_555
C10 C11 1_555 1_555
C11 N1 1_555 1_555
C15 S3 1_555 1_555
C17 S4 1_555 1_555
C21 C22 1_555 1_555
C22 N2 1_555 1_555

#END
