
#######################################################################
#
#                 Cambridge Crystallographic Data Centre
#                                CCDC 
#
#######################################################################
#
# If this CIF has been generated from an entry in the Cambridge 
# Structural Database, then it will include bibliographic, chemical, 
# crystal, experimental, refinement or atomic coordinate data resulting 
# from the CCDC's data processing and validation procedures.
#
#######################################################################

data_GIRJIC
_chemical_formula_moiety         'C19 H23 N1'
_chemical_name_systematic        N-Benzylidene-2,6-diisopropylaniline
_symmetry_cell_setting           triclinic
_symmetry_space_group_name_H-M   'P -1'
_symmetry_Int_Tables_number      2
_space_group_name_Hall           '-P 1'
loop_
_symmetry_equiv_pos_site_id
_symmetry_equiv_pos_as_xyz
1 x,y,z
2 -x,-y,-z
_cell_length_a                   8.2188(14)
_cell_length_b                   10.0978(17)
_cell_length_c                   10.9479(18)
_cell_angle_alpha                112.034(3)
_cell_angle_beta                 97.124(4)
_cell_angle_gamma                99.489(3)
_cell_volume                     813.354
_exptl_crystal_colour            yellow
_exptl_crystal_description       block
_cell_formula_units_Z            2
loop_
_atom_site_label
_atom_site_type_symbol
_atom_site_fract_x
_atom_site_fract_y
_atom_site_fract_z
C1 C 0.0254(2) 0.07833(18) 0.28744(16)
C2 C 0.1582(2) -0.24681(17) 0.06655(17)
C3 C 0.1182(2) -0.13281(18) 0.18111(17)
H1 H 0.1372 -0.1374 0.2648
C4 C -0.1189(2) 0.04661(18) 0.33717(17)
C5 C 0.1336(2) 0.21827(19) 0.34273(18)
C6 C -0.1452(3) 0.1573(2) 0.44933(19)
H2 H -0.2387 0.1390 0.4855
C7 C 0.2100(3) -0.3634(2) 0.0825(2)
H3 H 0.2182 -0.3696 0.1656
C8 C 0.1461(2) -0.2392(2) -0.05767(18)
H4 H 0.1108 -0.1613 -0.0700
C9 C 0.0999(3) 0.3246(2) 0.45531(19)
H5 H 0.1710 0.4178 0.4948
C10 C 0.2379(3) -0.4623(2) -0.1464(2)
H6 H 0.2648 -0.5344 -0.2183
C11 C -0.0363(3) 0.2939(2) 0.5088(2)
H7 H -0.0554 0.3654 0.5853
C12 C 0.2500(3) -0.4714(2) -0.0240(2)
H8 H 0.2849 -0.5498 -0.0126
C13 C 0.1861(3) -0.3467(2) -0.1629(2)
H9 H 0.1779 -0.3410 -0.2461
C14 C -0.2438(3) -0.1013(2) 0.2651(2)
H10 H -0.1777 -0.1763 0.2398
C15 C 0.2830(3) 0.2505(2) 0.2811(2)
H11 H 0.2591 0.1759 0.1886
C16 C -0.3584(3) -0.1391(3) 0.3515(3)
H12 H -0.4314 -0.0722 0.3727
H13 H -0.2915 -0.1315 0.4332
H14 H -0.4249 -0.2376 0.3032
C17 C -0.3450(3) -0.1095(3) 0.1355(2)
H15 H -0.4101 -0.0361 0.1563
H16 H -0.4192 -0.2049 0.0886
H17 H -0.2696 -0.0926 0.0798
C18 C 0.3078(4) 0.3988(3) 0.2720(3)
H18 H 0.3448 0.4755 0.3607
H19 H 0.2032 0.4084 0.2301
H20 H 0.3912 0.4061 0.2192
C19 C 0.4408(3) 0.2343(4) 0.3519(4)
H21 H 0.5307 0.2484 0.3066
H22 H 0.4238 0.1378 0.3515
H23 H 0.4694 0.3063 0.4431
N1 N 0.05923(18) -0.02874(15) 0.17104(13)
loop_
_geom_bond_atom_site_label_1
_geom_bond_atom_site_label_2
_geom_bond_site_symmetry_1
_geom_bond_site_symmetry_2
C1 C4 1_555 1_555
C2 C3 1_555 1_555
C3 H1 1_555 1_555
C4 C6 1_555 1_555
C5 C1 1_555 1_555
C6 H2 1_555 1_555
C7 C2 1_555 1_555
H3 C7 1_555 1_555
C8 C2 1_555 1_555
H4 C8 1_555 1_555
C9 C5 1_555 1_555
H5 C9 1_555 1_555
C10 H6 1_555 1_555
C11 C6 1_555 1_555
H7 C11 1_555 1_555
C12 C7 1_555 1_555
H8 C12 1_555 1_555
C13 C8 1_555 1_555
H9 C13 1_555 1_555
C14 C4 1_555 1_555
H10 C14 1_555 1_555
C15 C5 1_555 1_555
H11 C15 1_555 1_555
C16 C14 1_555 1_555
H12 C16 1_555 1_555
H13 C16 1_555 1_555
H14 C16 1_555 1_555
C17 C14 1_555 1_555
H15 C17 1_555 1_555
H16 C17 1_555 1_555
H17 C17 1_555 1_555
C18 C15 1_555 1_555
H18 C18 1_555 1_555
H19 C18 1_555 1_555
H20 C18 1_555 1_555
C19 C15 1_555 1_555
H21 C19 1_555 1_555
H22 C19 1_555 1_555
H23 C19 1_555 1_555
N1 C1 1_555 1_555
C3 N1 1_555 1_555
C9 C11 1_555 1_555
C10 C12 1_555 1_555
C10 C13 1_555 1_555

#END
