
#######################################################################
#
#                 Cambridge Crystallographic Data Centre
#                                CCDC 
#
#######################################################################
#
# If this CIF has been generated from an entry in the Cambridge 
# Structural Database, then it will include bibliographic, chemical, 
# crystal, experimental, refinement or atomic coordinate data resulting 
# from the CCDC's data processing and validation procedures.
#
#######################################################################

data_GIRJEY
_chemical_formula_moiety         'C19 H21 Cl2 N1'
_chemical_name_systematic        
N-(2,4-Dichlorobenzylidene)-2,6-diisopropylaniline
_symmetry_cell_setting           triclinic
_symmetry_space_group_name_H-M   'P -1'
_symmetry_Int_Tables_number      2
_space_group_name_Hall           '-P 1'
loop_
_symmetry_equiv_pos_site_id
_symmetry_equiv_pos_as_xyz
1 x,y,z
2 -x,-y,-z
_cell_length_a                   8.4102(9)
_cell_length_b                   10.3582(11)
_cell_length_c                   11.1642(12)
_cell_angle_alpha                103.665(2)
_cell_angle_beta                 100.677(2)
_cell_angle_gamma                101.887(2)
_cell_volume                     896.345
_exptl_crystal_colour            yellow
_exptl_crystal_description       strip
_cell_formula_units_Z            2
loop_
_atom_site_label
_atom_site_type_symbol
_atom_site_fract_x
_atom_site_fract_y
_atom_site_fract_z
C1 C 0.1464(3) 0.2702(2) 0.6101(2)
C2 C 0.2015(3) 0.1586(2) 0.6335(2)
C3 C 0.2357(3) 0.0630(2) 0.5395(2)
H1 H 0.2747 -0.0096 0.5578
C4 C 0.2113(3) 0.0766(2) 0.4187(2)
C5 C 0.1550(4) 0.1841(3) 0.3908(2)
H2 H 0.1382 0.1923 0.3084
C6 C 0.1241(3) 0.2792(3) 0.4858(2)
H3 H 0.0869 0.3522 0.4666
C7 C 0.1169(3) 0.3764(2) 0.7092(2)
H4 H 0.1373 0.3713 0.7924
C8 C 0.0443(3) 0.5812(2) 0.7829(2)
C9 C 0.1750(3) 0.7034(2) 0.8319(2)
C10 C 0.1479(4) 0.8110(3) 0.9200(2)
H5 H 0.2308 0.8936 0.9530
C11 C 0.0027(4) 0.7982(3) 0.9593(3)
H6 H -0.0121 0.8718 1.0186
C12 C -0.1217(4) 0.6774(3) 0.9118(3)
H7 H -0.2194 0.6700 0.9402
C13 C -0.1049(3) 0.5660(3) 0.8222(2)
C14 C 0.3365(3) 0.7154(3) 0.7895(3)
H8 H 0.3629 0.6263 0.7812
C15 C 0.4858(4) 0.8227(4) 0.8831(3)
H9 H 0.5869 0.8101 0.8596
H10 H 0.4900 0.8130 0.9670
H11 H 0.4750 0.9129 0.8822
C16 C 0.3169(5) 0.7387(4) 0.6599(3)
H12 H 0.2290 0.6652 0.5996
H13 H 0.4202 0.7412 0.6343
H14 H 0.2892 0.8247 0.6632
C17 C -0.2468(4) 0.4353(3) 0.7663(3)
H15 H -0.1993 0.3617 0.7277
C18 C -0.3289(6) 0.3902(5) 0.8641(4)
H16 H -0.2463 0.3761 0.9281
H17 H -0.4147 0.3059 0.8236
H18 H -0.3779 0.4601 0.9029
C19 C -0.3797(5) 0.4505(4) 0.6617(4)
H19 H -0.4367 0.5152 0.6982
H20 H -0.4588 0.3628 0.6198
H21 H -0.3273 0.4830 0.6011
Cl1 Cl 0.23238(11) 0.13602(8) 0.78453(6)
Cl2 Cl 0.25362(13) -0.04384(8) 0.30077(8)
N1 N 0.0645(3) 0.4748(2) 0.68425(18)
loop_
_geom_bond_atom_site_label_1
_geom_bond_atom_site_label_2
_geom_bond_site_symmetry_1
_geom_bond_site_symmetry_2
C1 C2 1_555 1_555
C2 C3 1_555 1_555
C3 H1 1_555 1_555
C4 C3 1_555 1_555
C5 C4 1_555 1_555
H2 C5 1_555 1_555
C6 C1 1_555 1_555
H3 C6 1_555 1_555
C7 C1 1_555 1_555
H4 C7 1_555 1_555
C8 C9 1_555 1_555
C9 C10 1_555 1_555
C10 H5 1_555 1_555
C11 C10 1_555 1_555
H6 C11 1_555 1_555
C12 C11 1_555 1_555
H7 C12 1_555 1_555
C13 C8 1_555 1_555
C14 C9 1_555 1_555
H8 C14 1_555 1_555
C15 C14 1_555 1_555
H9 C15 1_555 1_555
H10 C15 1_555 1_555
H11 C15 1_555 1_555
C16 C14 1_555 1_555
H12 C16 1_555 1_555
H13 C16 1_555 1_555
H14 C16 1_555 1_555
C17 C13 1_555 1_555
H15 C17 1_555 1_555
C18 C17 1_555 1_555
H16 C18 1_555 1_555
H17 C18 1_555 1_555
H18 C18 1_555 1_555
C19 C17 1_555 1_555
H19 C19 1_555 1_555
H20 C19 1_555 1_555
H21 C19 1_555 1_555
Cl1 C2 1_555 1_555
Cl2 C4 1_555 1_555
N1 C7 1_555 1_555
C5 C6 1_555 1_555
C8 N1 1_555 1_555
C12 C13 1_555 1_555

#END
