
#######################################################################
#
#                 Cambridge Crystallographic Data Centre
#                                CCDC 
#
#######################################################################
#
# If this CIF has been generated from an entry in the Cambridge 
# Structural Database, then it will include bibliographic, chemical, 
# crystal, experimental, refinement or atomic coordinate data resulting 
# from the CCDC's data processing and validation procedures.
#
#######################################################################

data_GIRMIG
_chemical_formula_moiety         'C31 H26 N2 O4,2(C1 H4 O1)'
_chemical_name_systematic        
'methyl 2-[3-(diethylamino)[1]benzopyrano[2,3-b]phenoxazin-14-yl]benzoate methanol solvate'
_symmetry_cell_setting           monoclinic
_symmetry_space_group_name_H-M   'P 21/c'
_symmetry_Int_Tables_number      14
_space_group_name_Hall           '-P 2ybc'
loop_
_symmetry_equiv_pos_site_id
_symmetry_equiv_pos_as_xyz
1 x,y,z
2 -x,1/2+y,1/2-z
3 -x,-y,-z
4 x,1/2-y,1/2+z
_cell_length_a                   16.190(2)
_cell_length_b                   19.621(3)
_cell_length_c                   8.6624(15)
_cell_angle_alpha                90
_cell_angle_beta                 95.873(13)
_cell_angle_gamma                90
_cell_volume                     2737.29
_exptl_crystal_colour            blue
_exptl_crystal_description       block
_cell_formula_units_Z            4
loop_
_atom_site_label
_atom_site_type_symbol
_atom_site_fract_x
_atom_site_fract_y
_atom_site_fract_z
O1 O 0.29064(11) 0.43000(9) 0.6936(2)
O2 O 0.10575(11) 0.46546(9) 0.1294(2)
N1 N 0.21160(13) 0.34962(11) 0.1888(3)
O3 O 0.31349(13) 0.64252(11) 0.5568(3)
N2 N 0.38252(14) 0.48497(11) 1.2153(3)
C1 C 0.24452(15) 0.44045(12) 0.5537(3)
C2 C 0.19504(14) 0.50223(12) 0.5288(3)
C3 C 0.20478(15) 0.39816(12) 0.2958(3)
C4 C 0.15346(15) 0.45795(13) 0.2696(3)
C5 C 0.24927(15) 0.39194(12) 0.4460(3)
H1 H 0.2820 0.3537 0.4696
C6 C 0.28803(15) 0.47619(13) 0.8134(3)
C7 C 0.19569(15) 0.55051(12) 0.6458(3)
C8 C 0.33404(15) 0.45866(13) 0.9493(3)
H2 H 0.3630 0.4177 0.9559
C9 C 0.16660(15) 0.36022(14) 0.0449(3)
C10 C 0.24134(15) 0.53734(12) 0.7917(3)
C11 C 0.14957(14) 0.50802(13) 0.3776(3)
H3 H 0.1172 0.5464 0.3533
C12 C 0.11402(16) 0.41755(14) 0.0151(3)
C13 C 0.14326(15) 0.61476(12) 0.6246(3)
C14 C 0.33768(15) 0.50220(13) 1.0789(3)
O4 O 0.27405(15) 0.74434(12) 0.4714(4)
C15 C 0.17216(16) 0.67682(13) 0.5687(3)
C16 C 0.17314(17) 0.31540(14) -0.0775(3)
H4 H 0.2075 0.2775 -0.0625
C17 C 0.24608(16) 0.58025(14) 0.9225(3)
H5 H 0.2167 0.6211 0.9160
C18 C 0.29238(16) 0.56419(15) 1.0592(3)
H6 H 0.2942 0.5948 1.1414
C19 C 0.12960(18) 0.32617(16) -0.2210(3)
H7 H 0.1355 0.2958 -0.3017
C20 C 0.25917(18) 0.68440(14) 0.5312(4)
C21 C 0.06187(16) 0.61243(14) 0.6639(4)
H8 H 0.0417 0.5718 0.7008
C22 C 0.06907(18) 0.42736(16) -0.1272(3)
H9 H 0.0335 0.4644 -0.1433
C23 C 0.39681(19) 0.53280(16) 1.3418(3)
H10 H 0.4131 0.5077 1.4365
H11 H 0.3450 0.5559 1.3550
C24 C 0.01019(18) 0.66890(16) 0.6497(4)
H12 H -0.0435 0.6659 0.6784
C25 C 0.07760(19) 0.38136(16) -0.2457(3)
H13 H 0.0480 0.3878 -0.3425
C26 C 0.42350(18) 0.41817(16) 1.2360(3)
H14 H 0.3890 0.3842 1.1794
H15 H 0.4276 0.4061 1.3451
C27 C 0.11777(19) 0.73313(14) 0.5514(4)
H16 H 0.1361 0.7737 0.5110
C28 C 0.03794(19) 0.72924(16) 0.5934(4)
H17 H 0.0033 0.7671 0.5836
C29 C 0.4635(2) 0.58669(18) 1.3201(4)
H18 H 0.4478 0.6121 1.2270
H19 H 0.5157 0.5646 1.3122
H20 H 0.4684 0.6170 1.4075
C30 C 0.5096(2) 0.41593(19) 1.1816(4)
H21 H 0.5069 0.4314 1.0761
H22 H 0.5301 0.3700 1.1879
H23 H 0.5462 0.4449 1.2463
C31 C 0.3586(2) 0.75721(19) 0.4331(6)
H24 H 0.3656 0.8051 0.4152
H25 H 0.3682 0.7322 0.3413
H26 H 0.3976 0.7428 0.5178
loop_
_geom_bond_atom_site_label_1
_geom_bond_atom_site_label_2
_geom_bond_site_symmetry_1
_geom_bond_site_symmetry_2
O1 C1 1_555 1_555
O2 C4 1_555 1_555
N1 C3 1_555 1_555
O3 C20 1_555 1_555
N2 C14 1_555 1_555
C1 C2 1_555 1_555
C2 C7 1_555 1_555
C3 C4 1_555 1_555
C4 C11 1_555 1_555
C5 C1 1_555 1_555
H1 C5 1_555 1_555
C6 O1 1_555 1_555
C7 C10 1_555 1_555
C8 C6 1_555 1_555
H2 C8 1_555 1_555
C9 N1 1_555 1_555
C10 C6 1_555 1_555
C11 C2 1_555 1_555
H3 C11 1_555 1_555
C12 O2 1_555 1_555
C13 C7 1_555 1_555
C14 C8 1_555 1_555
O4 C20 1_555 1_555
C15 C13 1_555 1_555
C16 C9 1_555 1_555
H4 C16 1_555 1_555
C17 C10 1_555 1_555
H5 C17 1_555 1_555
C18 C14 1_555 1_555
H6 C18 1_555 1_555
C19 C16 1_555 1_555
H7 C19 1_555 1_555
C20 C15 1_555 1_555
C21 C13 1_555 1_555
H8 C21 1_555 1_555
C22 C12 1_555 1_555
H9 C22 1_555 1_555
C23 N2 1_555 1_555
H10 C23 1_555 1_555
H11 C23 1_555 1_555
C24 C21 1_555 1_555
H12 C24 1_555 1_555
C25 C19 1_555 1_555
H13 C25 1_555 1_555
C26 N2 1_555 1_555
H14 C26 1_555 1_555
H15 C26 1_555 1_555
C27 C15 1_555 1_555
H16 C27 1_555 1_555
C28 C24 1_555 1_555
H17 C28 1_555 1_555
C29 C23 1_555 1_555
H18 C29 1_555 1_555
H19 C29 1_555 1_555
H20 C29 1_555 1_555
C30 C26 1_555 1_555
H21 C30 1_555 1_555
H22 C30 1_555 1_555
H23 C30 1_555 1_555
C31 O4 1_555 1_555
H24 C31 1_555 1_555
H25 C31 1_555 1_555
H26 C31 1_555 1_555
C3 C5 1_555 1_555
C9 C12 1_555 1_555
C17 C18 1_555 1_555
C22 C25 1_555 1_555
C27 C28 1_555 1_555

#END
