
#######################################################################
#
#                 Cambridge Crystallographic Data Centre
#                                CCDC 
#
#######################################################################
#
# If this CIF has been generated from an entry in the Cambridge 
# Structural Database, then it will include bibliographic, chemical, 
# crystal, experimental, refinement or atomic coordinate data resulting 
# from the CCDC's data processing and validation procedures.
#
#######################################################################

data_GIRQAA
_chemical_formula_moiety         'C23 H18 Br1 N3 O3'
_chemical_name_systematic        
'2-(1H-Benzotriazol-1-yl)-1-(4-bromobenzoyl)ethyl 4-methylbenzoate'
_symmetry_cell_setting           triclinic
_symmetry_space_group_name_H-M   'P -1'
_symmetry_Int_Tables_number      2
_space_group_name_Hall           '-P 1'
loop_
_symmetry_equiv_pos_site_id
_symmetry_equiv_pos_as_xyz
1 x,y,z
2 -x,-y,-z
_cell_length_a                   6.995(2)
_cell_length_b                   9.038(2)
_cell_length_c                   16.909(5)
_cell_angle_alpha                87.617(5)
_cell_angle_beta                 85.741(5)
_cell_angle_gamma                74.688(5)
_cell_volume                     1027.94
_exptl_crystal_colour            colorless
_exptl_crystal_description       block
_cell_formula_units_Z            2
_exptl_crystal_recrystallization_method 'ethyl acetate'
loop_
_atom_site_label
_atom_site_type_symbol
_atom_site_fract_x
_atom_site_fract_y
_atom_site_fract_z
Br1 Br 0.64770(5) 0.65794(4) 0.01583(2)
O1 O 1.0846(3) 1.2940(2) -0.26852(11)
N1 N 0.7376(3) 1.5016(3) -0.18983(14)
O2 O 1.0928(3) 1.1006(2) -0.34871(13)
O3 O 1.2452(3) 1.0717(3) -0.16910(15)
C1 C 0.6600(4) 0.9193(3) -0.08211(18)
H1 H 0.5225 0.9380 -0.0802
C2 C 0.7730(4) 0.7930(3) -0.04374(17)
C3 C 1.0667(4) 1.0962(3) -0.16942(17)
C4 C 0.9582(4) 0.9930(3) -0.12617(16)
C5 C 0.7777(4) 1.6225(3) -0.23346(17)
C6 C 1.1583(4) 1.2049(3) -0.33201(17)
C7 C 0.9777(4) 0.7610(3) -0.04786(17)
H2 H 1.0529 0.6727 -0.0237
N2 N 0.5383(4) 1.5173(3) -0.18266(17)
N3 N 0.4501(4) 1.6420(3) -0.22037(18)
C8 C 0.9513(4) 1.2398(3) -0.21355(17)
H3 H 0.8438 1.2177 -0.2410
C9 C 0.7540(4) 1.0183(3) -0.12364(18)
H4 H 0.6786 1.1034 -0.1503
C10 C 1.0687(4) 0.8622(3) -0.08842(17)
H5 H 1.2064 0.8425 -0.0905
C11 C 1.3249(4) 1.2494(3) -0.37556(16)
C12 C 0.5918(4) 1.7106(3) -0.25259(18)
C13 C 1.6529(5) 1.3212(4) -0.45817(19)
C14 C 0.8691(4) 1.3685(3) -0.15506(17)
H6 H 0.7980 1.3305 -0.1107
H7 H 0.9790 1.3984 -0.1346
C15 C 0.9514(4) 1.6647(3) -0.25652(19)
H8 H 1.0754 1.6052 -0.2432
C16 C 1.5886(5) 1.3755(4) -0.3833(2)
H9 H 1.6554 1.4369 -0.3599
C17 C 0.9294(6) 1.7981(4) -0.2997(2)
H10 H 1.0418 1.8309 -0.3157
C18 C 1.5503(5) 1.2311(4) -0.49113(19)
H11 H 1.5903 1.1943 -0.5419
C19 C 1.4265(5) 1.3409(4) -0.34183(19)
H12 H 1.3859 1.3791 -0.2914
C20 C 1.3898(5) 1.1939(4) -0.45095(19)
H13 H 1.3247 1.1314 -0.4744
C21 C 0.5745(6) 1.8472(4) -0.2986(2)
H14 H 0.4518 1.9070 -0.3131
C22 C 0.7445(6) 1.8872(4) -0.3207(2)
H15 H 0.7376 1.9768 -0.3507
C23 C 1.8288(5) 1.3588(4) -0.5021(2)
H16 H 1.8520 1.3110 -0.5529
H17 H 1.9438 1.3214 -0.4721
H18 H 1.8032 1.4680 -0.5096
loop_
_geom_bond_atom_site_label_1
_geom_bond_atom_site_label_2
_geom_bond_site_symmetry_1
_geom_bond_site_symmetry_2
Br1 C2 1_555 1_555
O1 C6 1_555 1_555
N1 C5 1_555 1_555
O2 C6 1_555 1_555
O3 C3 1_555 1_555
C1 H1 1_555 1_555
C2 C1 1_555 1_555
C3 C4 1_555 1_555
C4 C9 1_555 1_555
C5 C12 1_555 1_555
C6 C11 1_555 1_555
C7 C2 1_555 1_555
H2 C7 1_555 1_555
N2 N1 1_555 1_555
N3 N2 1_555 1_555
C8 O1 1_555 1_555
H3 C8 1_555 1_555
C9 C1 1_555 1_555
H4 C9 1_555 1_555
C10 C4 1_555 1_555
H5 C10 1_555 1_555
C11 C19 1_555 1_555
C12 N3 1_555 1_555
C13 C16 1_555 1_555
C14 N1 1_555 1_555
H6 C14 1_555 1_555
H7 C14 1_555 1_555
C15 C5 1_555 1_555
H8 C15 1_555 1_555
C16 H9 1_555 1_555
C17 C15 1_555 1_555
H10 C17 1_555 1_555
C18 C13 1_555 1_555
H11 C18 1_555 1_555
C19 C16 1_555 1_555
H12 C19 1_555 1_555
C20 C11 1_555 1_555
H13 C20 1_555 1_555
C21 C12 1_555 1_555
H14 C21 1_555 1_555
C22 C17 1_555 1_555
H15 C22 1_555 1_555
C23 C13 1_555 1_555
H16 C23 1_555 1_555
H17 C23 1_555 1_555
H18 C23 1_555 1_555
C3 C8 1_555 1_555
C7 C10 1_555 1_555
C8 C14 1_555 1_555
C18 C20 1_555 1_555
C21 C22 1_555 1_555

#END
