
#######################################################################
#
#                 Cambridge Crystallographic Data Centre
#                                CCDC 
#
#######################################################################
#
# If this CIF has been generated from an entry in the Cambridge 
# Structural Database, then it will include bibliographic, chemical, 
# crystal, experimental, refinement or atomic coordinate data resulting 
# from the CCDC's data processing and validation procedures.
#
#######################################################################

data_GIRRAD
_chemical_formula_moiety         'C15 H24 O3'
_chemical_name_systematic        
'methyl 2,6-dimethyl-5-oxo-8-(propan-2-yl)bicyclo[2.2.2]octane-2-carboxylate'
_symmetry_cell_setting           monoclinic
_symmetry_space_group_name_H-M   'P 21'
_symmetry_Int_Tables_number      4
_space_group_name_Hall           'P 2yb'
loop_
_symmetry_equiv_pos_site_id
_symmetry_equiv_pos_as_xyz
1 x,y,z
2 -x,1/2+y,-z
_cell_length_a                   8.0068(10)
_cell_length_b                   14.0969(17)
_cell_length_c                   12.6347(18)
_cell_angle_alpha                90
_cell_angle_beta                 99.431(8)
_cell_angle_gamma                90
_cell_volume                     1406.82
_exptl_crystal_colour            colorless
_exptl_crystal_description       parallelepiped
_cell_formula_units_Z            4
_exptl_crystal_recrystallization_method 'ethanol/ethyl acetate'
loop_
_atom_site_label
_atom_site_type_symbol
_atom_site_fract_x
_atom_site_fract_y
_atom_site_fract_z
O1 O 0.4975(2) 0.12895(12) 0.41519(13)
O2 O 0.8812(2) 0.25130(13) 0.74701(13)
O3 O 0.9649(2) 0.24240(13) 0.58669(14)
C1 C 0.5116(3) 0.29966(17) 0.43346(18)
H1 H 0.4962 0.3010 0.3533
C2 C 0.5127(3) 0.19897(18) 0.47342(17)
C3 C 0.5293(3) 0.19251(16) 0.59520(17)
H2 H 0.6328 0.1545 0.6226
C4 C 0.5551(3) 0.29348(16) 0.64155(17)
H3 H 0.5699 0.2911 0.7216
C5 C 0.7154(3) 0.33670(17) 0.60607(18)
C6 C 0.6798(3) 0.34685(18) 0.48181(18)
H4 H 0.6758 0.4150 0.4625
H5 H 0.7732 0.3172 0.4511
C7 C 0.3583(3) 0.34663(17) 0.47351(17)
H6 H 0.2600 0.3024 0.4558
C8 C 0.3996(3) 0.35395(17) 0.59750(17)
H7 H 0.4218 0.4210 0.6185
H8 H 0.3010 0.3320 0.6290
C9 C 0.3754(3) 0.14089(18) 0.62602(18)
H9 H 0.2715 0.1737 0.5939
H10 H 0.3838 0.1406 0.7043
H11 H 0.3728 0.0755 0.5996
C10 C 0.8668(3) 0.27127(16) 0.64204(19)
C11 C 0.7660(3) 0.43352(17) 0.65890(19)
H12 H 0.8689 0.4566 0.6348
H13 H 0.7871 0.4263 0.7371
H14 H 0.6740 0.4791 0.6384
C12 C 0.3042(3) 0.44280(17) 0.42119(19)
H15 H 0.3973 0.4894 0.4443
C13 C 0.1444(3) 0.47870(19) 0.4609(2)
H16 H 0.0523 0.4330 0.4412
H17 H 0.1113 0.5402 0.4278
H18 H 0.1675 0.4858 0.5391
C14 C 0.2737(3) 0.43850(19) 0.2987(2)
H19 H 0.2289 0.4995 0.2696
H20 H 0.1919 0.3882 0.2745
H21 H 0.3806 0.4251 0.2735
C15 C 1.0238(3) 0.1929(2) 0.7921(2)
H22 H 1.1293 0.2248 0.7830
H23 H 1.0166 0.1316 0.7551
H24 H 1.0221 0.1828 0.8686
O4 O 0.5752(2) 0.69693(13) 1.09606(13)
O5 O 0.1192(2) 0.60483(13) 0.73504(13)
O6 O 0.0213(3) 0.62805(17) 0.88852(15)
C16 C 0.4668(3) 0.53822(18) 1.06464(18)
H25 H 0.4785 0.5329 1.1444
C17 C 0.5159(3) 0.63661(19) 1.03317(19)
C18 C 0.4798(3) 0.65336(19) 0.9122(2)
H26 H 0.3770 0.6946 0.8968
C19 C 0.4336(3) 0.55605(19) 0.85794(19)
H27 H 0.4232 0.5624 0.7783
C20 C 0.2621(3) 0.52300(18) 0.88774(18)
C21 C 0.2814(3) 0.52294(18) 1.01229(18)
H28 H 0.2105 0.5739 1.0354
H29 H 0.2408 0.4616 1.0366
C22 C 0.5776(3) 0.46253(18) 1.02035(19)
H30 H 0.5209 0.3998 1.0251
C23 C 0.5715(3) 0.4846(2) 0.89915(19)
H31 H 0.6825 0.5100 0.8879
H32 H 0.5506 0.4251 0.8575
C24 C 0.6244(3) 0.7062(2) 0.8740(2)
H33 H 0.7291 0.6695 0.8922
H34 H 0.6389 0.7683 0.9091
H35 H 0.5986 0.7148 0.7961
C25 C 0.1218(3) 0.59120(19) 0.8407(2)
C26 C 0.2099(3) 0.42457(18) 0.8415(2)
H36 H 0.2072 0.4252 0.7637
H37 H 0.0972 0.4086 0.8570
H38 H 0.2919 0.3771 0.8743
C27 C 0.7584(3) 0.45338(19) 1.0822(2)
H39 H 0.8181 0.5153 1.0784
C28 C 0.7608(4) 0.4279(2) 1.2006(2)
H40 H 0.6964 0.3694 1.2053
H41 H 0.7095 0.4796 1.2361
H42 H 0.8780 0.4186 1.2359
C29 C 0.8551(3) 0.3762(2) 1.0310(2)
H43 H 0.7971 0.3152 1.0334
H44 H 0.9706 0.3712 1.0707
H45 H 0.8592 0.3930 0.9562
C30 C -0.0103(4) 0.6682(2) 0.6822(2)
H46 H 0.0004 0.7300 0.7182
H47 H -0.1223 0.6415 0.6857
H48 H 0.0031 0.6762 0.6070
loop_
_geom_bond_atom_site_label_1
_geom_bond_atom_site_label_2
_geom_bond_site_symmetry_1
_geom_bond_site_symmetry_2
O1 C2 1_555 1_555
O2 C10 1_555 1_555
O3 C10 1_555 1_555
C1 H1 1_555 1_555
C2 C1 1_555 1_555
C3 C2 1_555 1_555
H2 C3 1_555 1_555
C4 C3 1_555 1_555
H3 C4 1_555 1_555
C5 C4 1_555 1_555
C6 C1 1_555 1_555
H4 C6 1_555 1_555
H5 C6 1_555 1_555
C7 C1 1_555 1_555
H6 C7 1_555 1_555
C8 C4 1_555 1_555
H7 C8 1_555 1_555
H8 C8 1_555 1_555
C9 C3 1_555 1_555
H9 C9 1_555 1_555
H10 C9 1_555 1_555
H11 C9 1_555 1_555
C10 C5 1_555 1_555
C11 C5 1_555 1_555
H12 C11 1_555 1_555
H13 C11 1_555 1_555
H14 C11 1_555 1_555
C12 C7 1_555 1_555
H15 C12 1_555 1_555
C13 C12 1_555 1_555
H16 C13 1_555 1_555
H17 C13 1_555 1_555
H18 C13 1_555 1_555
C14 C12 1_555 1_555
H19 C14 1_555 1_555
H20 C14 1_555 1_555
H21 C14 1_555 1_555
C15 O2 1_555 1_555
H22 C15 1_555 1_555
H23 C15 1_555 1_555
H24 C15 1_555 1_555
O4 C17 1_555 1_555
O5 C25 1_555 1_555
O6 C25 1_555 1_555
C16 H25 1_555 1_555
C17 C16 1_555 1_555
C18 C17 1_555 1_555
H26 C18 1_555 1_555
C19 C18 1_555 1_555
H27 C19 1_555 1_555
C20 C19 1_555 1_555
C21 C16 1_555 1_555
H28 C21 1_555 1_555
H29 C21 1_555 1_555
C22 C16 1_555 1_555
H30 C22 1_555 1_555
C23 C19 1_555 1_555
H31 C23 1_555 1_555
H32 C23 1_555 1_555
C24 C18 1_555 1_555
H33 C24 1_555 1_555
H34 C24 1_555 1_555
H35 C24 1_555 1_555
C25 C20 1_555 1_555
C26 C20 1_555 1_555
H36 C26 1_555 1_555
H37 C26 1_555 1_555
H38 C26 1_555 1_555
C27 C22 1_555 1_555
H39 C27 1_555 1_555
C28 C27 1_555 1_555
H40 C28 1_555 1_555
H41 C28 1_555 1_555
H42 C28 1_555 1_555
C29 C27 1_555 1_555
H43 C29 1_555 1_555
H44 C29 1_555 1_555
H45 C29 1_555 1_555
C30 O5 1_555 1_555
H46 C30 1_555 1_555
H47 C30 1_555 1_555
H48 C30 1_555 1_555
C5 C6 1_555 1_555
C7 C8 1_555 1_555
C20 C21 1_555 1_555
C22 C23 1_555 1_555

#END
