
#######################################################################
#
#                 Cambridge Crystallographic Data Centre
#                                CCDC 
#
#######################################################################
#
# If this CIF has been generated from an entry in the Cambridge 
# Structural Database, then it will include bibliographic, chemical, 
# crystal, experimental, refinement or atomic coordinate data resulting 
# from the CCDC's data processing and validation procedures.
#
#######################################################################

data_GIRROP
_chemical_formula_moiety         'C16 H20 N2'
_chemical_name_systematic        N,N'-bis(p-Tolyl)ethylenediamine
_symmetry_cell_setting           monoclinic
_symmetry_space_group_name_H-M   'P 21/n'
_symmetry_Int_Tables_number      14
_space_group_name_Hall           '-P 2yn'
loop_
_symmetry_equiv_pos_site_id
_symmetry_equiv_pos_as_xyz
1 x,y,z
2 1/2-x,1/2+y,1/2-z
3 -x,-y,-z
4 1/2+x,1/2-y,1/2+z
_cell_length_a                   8.9070(18)
_cell_length_b                   25.252(5)
_cell_length_c                   12.287(3)
_cell_angle_alpha                90
_cell_angle_beta                 90.30(3)
_cell_angle_gamma                90
_cell_volume                     2763.55
_exptl_crystal_colour            yellow
_exptl_crystal_description       block
_chemical_melting_point          '366 K'
_cell_formula_units_Z            8
_exptl_crystal_recrystallization_method ethanol
loop_
_atom_site_label
_atom_site_type_symbol
_atom_site_fract_x
_atom_site_fract_y
_atom_site_fract_z
N1 N 0.6890(4) 0.29404(14) 0.1934(3)
H1 H 0.7405 0.2759 0.2396
N2 N 0.7171(4) 0.18725(14) 0.1110(3)
H2 H 0.7386 0.1788 0.1770
C1 C 0.2841(5) 0.4526(2) 0.3496(4)
H5 H 0.2637 0.4781 0.2936
H6 H 0.3271 0.4701 0.4117
H7 H 0.1922 0.4355 0.3703
C2 C 0.3925(4) 0.41180(17) 0.3077(3)
C3 C 0.4474(5) 0.41291(17) 0.2034(3)
H8 H 0.4176 0.4403 0.1576
C4 C 0.5447(5) 0.37524(17) 0.1638(3)
H9 H 0.5800 0.3778 0.0929
C5 C 0.5898(4) 0.33369(16) 0.2295(3)
C6 C 0.5381(5) 0.33210(17) 0.3359(3)
H10 H 0.5695 0.3052 0.3824
C7 C 0.4398(5) 0.37049(18) 0.3731(3)
H11 H 0.4047 0.3684 0.4442
C8 C 0.7036(5) 0.28406(17) 0.0793(3)
H12 H 0.7553 0.3134 0.0449
H13 H 0.6049 0.2808 0.0462
C9 C 0.7923(5) 0.23291(18) 0.0624(4)
H14 H 0.8048 0.2268 -0.0149
H15 H 0.8913 0.2367 0.0947
C10 C 0.6120(4) 0.15681(16) 0.0544(3)
C11 C 0.5711(4) 0.10780(17) 0.0971(3)
H16 H 0.6138 0.0964 0.1623
C12 C 0.4682(5) 0.07583(18) 0.0440(3)
H17 H 0.4420 0.0436 0.0751
C13 C 0.4026(4) 0.09042(17) -0.0545(3)
C14 C 0.4421(5) 0.13987(17) -0.0947(3)
H18 H 0.3987 0.1516 -0.1593
C15 C 0.5450(5) 0.17251(17) -0.0407(3)
H19 H 0.5684 0.2054 -0.0700
C16 C 0.3006(5) 0.05418(19) -0.1158(4)
H20 H 0.2869 0.0221 -0.0751
H21 H 0.3440 0.0460 -0.1852
H22 H 0.2052 0.0711 -0.1267
N3 N 0.1908(4) 0.29364(15) 0.0572(3)
H3 H 0.2402 0.2755 0.0102
N4 N 0.2184(4) 0.18680(14) 0.1392(3)
H4 H 0.2398 0.1786 0.0732
C17 C -0.2095(6) 0.4545(2) -0.0923(4)
H23 H -0.2377 0.4474 -0.1664
H24 H -0.1620 0.4886 -0.0881
H25 H -0.2974 0.4543 -0.0475
C18 C -0.1028(5) 0.41301(19) -0.0536(4)
C19 C -0.0466(5) 0.41364(19) 0.0526(4)
H26 H -0.0737 0.4410 0.0991
C20 C 0.0485(5) 0.37439(18) 0.0901(3)
H27 H 0.0829 0.3756 0.1617
C21 C 0.0935(4) 0.33335(18) 0.0231(3)
C22 C 0.0385(5) 0.33360(18) -0.0840(3)
H28 H 0.0676 0.3070 -0.1318
C23 C -0.0559(5) 0.37197(19) -0.1190(3)
H29 H -0.0909 0.3706 -0.1904
C24 C 0.2085(5) 0.28304(18) 0.1726(3)
H30 H 0.1106 0.2807 0.2065
H31 H 0.2636 0.3117 0.2068
C25 C 0.2919(5) 0.23195(18) 0.1878(4)
H32 H 0.3911 0.2355 0.1565
H33 H 0.3044 0.2255 0.2652
C26 C 0.1144(4) 0.15593(17) 0.1944(3)
C27 C 0.0724(5) 0.10681(17) 0.1522(3)
H34 H 0.1130 0.0957 0.0864
C28 C -0.0276(4) 0.07439(19) 0.2054(3)
H35 H -0.0522 0.0417 0.1754
C29 C -0.0921(4) 0.08947(18) 0.3025(4)
C30 C -0.0557(4) 0.13840(18) 0.3422(3)
H36 H -0.1002 0.1500 0.4062
C31 C 0.0463(5) 0.17143(17) 0.2895(3)
H37 H 0.0686 0.2044 0.3190
C32 C -0.1948(5) 0.0527(2) 0.3631(4)
H38 H -0.2045 0.0201 0.3236
H39 H -0.2918 0.0689 0.3704
H40 H -0.1536 0.0456 0.4340
loop_
_geom_bond_atom_site_label_1
_geom_bond_atom_site_label_2
_geom_bond_site_symmetry_1
_geom_bond_site_symmetry_2
N1 H1 1_555 1_555
N2 H2 1_555 1_555
N3 H3 1_555 1_555
N4 H4 1_555 1_555
C1 H5 1_555 1_555
H6 C1 1_555 1_555
H7 C1 1_555 1_555
C2 C1 1_555 1_555
C3 C2 1_555 1_555
H8 C3 1_555 1_555
C4 C3 1_555 1_555
H9 C4 1_555 1_555
C5 N1 1_555 1_555
C6 C5 1_555 1_555
H10 C6 1_555 1_555
C7 C2 1_555 1_555
H11 C7 1_555 1_555
C8 N1 1_555 1_555
H12 C8 1_555 1_555
H13 C8 1_555 1_555
C9 N2 1_555 1_555
H14 C9 1_555 1_555
H15 C9 1_555 1_555
C10 N2 1_555 1_555
C11 C10 1_555 1_555
H16 C11 1_555 1_555
C12 C11 1_555 1_555
H17 C12 1_555 1_555
C13 C12 1_555 1_555
C14 C13 1_555 1_555
H18 C14 1_555 1_555
C15 C10 1_555 1_555
H19 C15 1_555 1_555
C16 C13 1_555 1_555
H20 C16 1_555 1_555
H21 C16 1_555 1_555
H22 C16 1_555 1_555
C17 H23 1_555 1_555
H24 C17 1_555 1_555
H25 C17 1_555 1_555
C18 C17 1_555 1_555
C19 C18 1_555 1_555
H26 C19 1_555 1_555
C20 C19 1_555 1_555
H27 C20 1_555 1_555
C21 N3 1_555 1_555
C22 C21 1_555 1_555
H28 C22 1_555 1_555
C23 C18 1_555 1_555
H29 C23 1_555 1_555
C24 N3 1_555 1_555
H30 C24 1_555 1_555
H31 C24 1_555 1_555
C25 N4 1_555 1_555
H32 C25 1_555 1_555
H33 C25 1_555 1_555
C26 N4 1_555 1_555
C27 C26 1_555 1_555
H34 C27 1_555 1_555
C28 C27 1_555 1_555
H35 C28 1_555 1_555
C29 C28 1_555 1_555
C30 C29 1_555 1_555
H36 C30 1_555 1_555
C31 C26 1_555 1_555
H37 C31 1_555 1_555
C32 C29 1_555 1_555
H38 C32 1_555 1_555
H39 C32 1_555 1_555
H40 C32 1_555 1_555
C4 C5 1_555 1_555
C6 C7 1_555 1_555
C8 C9 1_555 1_555
C14 C15 1_555 1_555
C20 C21 1_555 1_555
C22 C23 1_555 1_555
C24 C25 1_555 1_555
C30 C31 1_555 1_555

#END
