
#######################################################################
#
#                 Cambridge Crystallographic Data Centre
#                                CCDC 
#
#######################################################################
#
# If this CIF has been generated from an entry in the Cambridge 
# Structural Database, then it will include bibliographic, chemical, 
# crystal, experimental, refinement or atomic coordinate data resulting 
# from the CCDC's data processing and validation procedures.
#
#######################################################################

data_GIRRII
_chemical_formula_moiety         'H4 N4 S4'
_chemical_name_systematic        Tetrathiatetra-azacyclo-octane
_symmetry_cell_setting           orthorhombic
_symmetry_space_group_name_H-M   'P b n m'
_symmetry_Int_Tables_number      62
_space_group_name_Hall           '-P 2c 2ab'
loop_
_symmetry_equiv_pos_site_id
_symmetry_equiv_pos_as_xyz
1 x,y,z
2 -x,-y,1/2+z
3 1/2+x,1/2-y,-z
4 1/2-x,1/2+y,1/2-z
5 -x,-y,-z
6 x,y,1/2-z
7 1/2-x,1/2+y,z
8 1/2+x,1/2-y,1/2+z
_cell_length_a                   6.75
_cell_length_b                   7.97
_cell_length_c                   12.19
_cell_angle_alpha                90
_cell_angle_beta                 90
_cell_angle_gamma                90
_cell_volume                     655.792
_cell_formula_units_Z            4
loop_
_atom_site_label
_atom_site_type_symbol
_atom_site_fract_x
_atom_site_fract_y
_atom_site_fract_z
S1 S 0.259 0.137 0.131
S2 S 0.680 0.043 0.131
N1 N 0.221 0.225 0.250
N2 N 0.774 0.108 0.250
N3 N 0.494 0.171 0.094
S1E S 0.259 0.137 0.369
S2E S 0.680 0.043 0.369
N3E N 0.494 0.171 0.406
loop_
_geom_bond_atom_site_label_1
_geom_bond_atom_site_label_2
_geom_bond_site_symmetry_1
_geom_bond_site_symmetry_2
S1 N1 1_555 1_555
S2 N2 1_555 1_555
N1 S1E 1_555 1_555
N2 S2E 1_555 1_555
N3 S1 1_555 1_555
S1E N3E 1_555 1_555
S2E N3E 1_555 1_555
S2 N3 1_555 1_555

#END
