
#######################################################################
#
#                 Cambridge Crystallographic Data Centre
#                                CCDC 
#
#######################################################################
#
# If this CIF has been generated from an entry in the Cambridge 
# Structural Database, then it will include bibliographic, chemical, 
# crystal, experimental, refinement or atomic coordinate data resulting 
# from the CCDC's data processing and validation procedures.
#
#######################################################################

data_GIRSOQ
_chemical_formula_moiety         'C30 H24 N6 O2,0.5(C1 H4 O1)'
_chemical_name_systematic        
'13b,13c-bis(2-Pyridyl)-5,7,12,13b,13c,14-hexahydro-6H,13H-5a,6a,12a,13a-tetraazabenzo(5,6)azuleno(2,1,8-ija)benzo(f)azulene-6,13-dione methanol solvate'
_symmetry_cell_setting           monoclinic
_symmetry_space_group_name_H-M   'P 21/c'
_symmetry_Int_Tables_number      14
_space_group_name_Hall           '-P 2ybc'
loop_
_symmetry_equiv_pos_site_id
_symmetry_equiv_pos_as_xyz
1 x,y,z
2 -x,1/2+y,1/2-z
3 -x,-y,-z
4 x,1/2-y,1/2+z
_cell_length_a                   15.0063(10)
_cell_length_b                   20.5919(13)
_cell_length_c                   18.0864(12)
_cell_angle_alpha                90
_cell_angle_beta                 113.4050(10)
_cell_angle_gamma                90
_cell_volume                     5129
_exptl_crystal_colour            colorless
_exptl_crystal_description       block
_cell_formula_units_Z            8
_exptl_crystal_recrystallization_method chloroform/methanol
loop_
_atom_site_label
_atom_site_type_symbol
_atom_site_fract_x
_atom_site_fract_y
_atom_site_fract_z
O1 O 0.35883(16) 0.31312(11) 0.35693(14)
O2 O 0.07810(17) 0.35765(11) 0.48148(13)
N1 N 0.20302(17) 0.35391(11) 0.29519(14)
N2 N 0.09710(19) 0.37701(11) 0.36331(14)
N3 N 0.22538(17) 0.25952(11) 0.35859(14)
N4 N 0.09295(18) 0.27518(11) 0.40090(14)
N5 N 0.0373(2) 0.35266(15) 0.14809(18)
N6 N 0.0988(2) 0.20264(13) 0.21698(16)
C1 C 0.1993(2) 0.47681(13) 0.39507(18)
C2 C 0.2288(3) 0.51885(16) 0.4606(2)
H1 H 0.1878 0.5273 0.4868
C3 C 0.3195(3) 0.54821(18) 0.4871(2)
H2 H 0.3386 0.5767 0.5305
C4 C 0.3810(3) 0.53545(19) 0.4495(3)
H3 H 0.4414 0.5555 0.4668
C5 C 0.3524(3) 0.49261(17) 0.3858(2)
H4 H 0.3947 0.4833 0.3611
C6 C 0.2621(2) 0.46312(14) 0.35764(18)
C7 C 0.2320(2) 0.41998(14) 0.28440(18)
H5 H 0.1781 0.4405 0.2411
H6 H 0.2856 0.4172 0.2674
C8 C 0.0980(2) 0.44777(14) 0.36560(19)
H7 H 0.0670 0.4622 0.4006
H8 H 0.0601 0.4641 0.3119
C9 C 0.2722(2) 0.30936(14) 0.34003(16)
C10 C 0.0892(2) 0.33885(14) 0.42135(17)
C11 C 0.1102(2) 0.34124(13) 0.29936(16)
C12 C 0.0234(2) 0.35063(13) 0.21877(18)
C13 C -0.0634(2) 0.35483(15) 0.2217(2)
H9 H -0.0701 0.3538 0.2706
C14 C -0.1411(3) 0.3606(2) 0.1518(3)
H10 H -0.2022 0.3632 0.1533
C15 C -0.1345(3) 0.36297(19) 0.0794(3)
H11 H -0.1900 0.3670 0.0321
C16 C -0.0452(3) 0.35929(18) 0.0773(2)
H12 H -0.0392 0.3612 0.0281
C17 C 0.1225(2) 0.26936(13) 0.33361(16)
C18 C 0.0639(2) 0.21802(13) 0.27268(17)
C19 C -0.0185(2) 0.19128(17) 0.2750(2)
H13 H -0.0409 0.2033 0.3141
C20 C -0.0675(3) 0.1451(2) 0.2162(3)
H14 H -0.1234 0.1253 0.2156
C21 C -0.0318(3) 0.12943(19) 0.1588(3)
H15 H -0.0631 0.0987 0.1193
C22 C 0.0484(3) 0.15912(17) 0.1608(2)
H16 H 0.0705 0.1490 0.1209
C23 C 0.1178(2) 0.22462(15) 0.46324(19)
H17 H 0.1013 0.1827 0.4368
H18 H 0.0777 0.2308 0.4935
C24 C 0.2763(2) 0.20382(14) 0.40696(18)
H19 H 0.3369 0.1975 0.4006
H20 H 0.2370 0.1652 0.3870
C25 C 0.2223(2) 0.22286(14) 0.52156(18)
C26 C 0.2459(3) 0.22988(16) 0.6038(2)
H21 H 0.1968 0.2373 0.6219
C27 C 0.3410(3) 0.22604(18) 0.6590(2)
H22 H 0.3555 0.2304 0.7137
C28 C 0.4138(3) 0.21574(18) 0.6329(2)
H23 H 0.4779 0.2133 0.6700
C29 C 0.3925(3) 0.20886(16) 0.5515(2)
H24 H 0.4426 0.2022 0.5344
C30 C 0.2977(2) 0.21183(13) 0.49543(18)
O3 O 0.39873(17) 0.60364(10) -0.02765(13)
O4 O 0.19640(17) 0.56407(12) 0.16797(17)
N7 N 0.41144(16) 0.52050(10) 0.06155(13)
N8 N 0.30693(16) 0.50807(11) 0.13356(14)
N9 N 0.42379(18) 0.62206(11) 0.10440(14)
N10 N 0.35400(18) 0.60006(12) 0.20074(15)
N11 N 0.45044(18) 0.43855(11) 0.24979(14)
N12 N 0.6039(2) 0.60347(15) 0.22005(18)
C31 C 0.2024(2) 0.46144(13) 0.00128(17)
C32 C 0.1017(2) 0.46010(15) -0.0412(2)
H25 H 0.0616 0.4563 -0.0133
C33 C 0.0610(3) 0.46441(16) -0.1245(2)
H26 H -0.0060 0.4626 -0.1522
C34 C 0.1189(3) 0.47125(17) -0.1659(2)
H27 H 0.0914 0.4740 -0.2218
C35 C 0.2192(3) 0.47408(14) -0.12473(18)
H28 H 0.2582 0.4795 -0.1534
C36 C 0.2618(2) 0.46896(13) -0.04157(17)
C37 C 0.3715(2) 0.46951(13) 0.00118(17)
H29 H 0.3923 0.4278 0.0272
H30 H 0.3989 0.4742 -0.0389
C38 C 0.2450(2) 0.45412(14) 0.09123(17)
H31 H 0.1925 0.4500 0.1094
H32 H 0.2826 0.4143 0.1053
C39 C 0.4092(2) 0.58470(13) 0.03871(17)
C40 C 0.2763(2) 0.55784(14) 0.16627(18)
C41 C 0.40525(19) 0.51493(13) 0.13935(16)
C42 C 0.47331(19) 0.46232(12) 0.19148(16)
C43 C 0.5554(2) 0.44407(15) 0.18015(18)
H33 H 0.5680 0.4607 0.1375
C44 C 0.6183(2) 0.40048(17) 0.2335(2)
H34 H 0.6747 0.3877 0.2278
C45 C 0.5969(2) 0.37631(15) 0.29470(19)
H35 H 0.6386 0.3473 0.3318
C46 C 0.5128(2) 0.39569(15) 0.30031(18)
H36 H 0.4978 0.3783 0.3414
C47 C 0.43119(19) 0.58581(12) 0.17507(16)
C48 C 0.5309(2) 0.59353(13) 0.24317(18)
C49 C 0.5433(3) 0.58788(17) 0.3217(2)
H37 H 0.4907 0.5801 0.3354
C50 C 0.6374(4) 0.5941(2) 0.3814(2)
H38 H 0.6485 0.5909 0.4357
C51 C 0.7112(3) 0.6047(2) 0.3587(3)
H39 H 0.7742 0.6093 0.3972
C52 C 0.6927(3) 0.6086(2) 0.2786(3)
H40 H 0.7448 0.6153 0.2640
C53 C 0.3372(3) 0.66679(18) 0.2196(3)
H41 H 0.3009 0.6635 0.2535
H42 H 0.4005 0.6839 0.2536
C54 C 0.4285(3) 0.69218(14) 0.1041(2)
H43 H 0.4363 0.7071 0.0561
H44 H 0.4836 0.7073 0.1509
C61 C 0.2892(6) 0.7118(4) 0.1367(10)
C62 C 0.2005(6) 0.7420(4) 0.1204(15)
H49 H 0.1668 0.7339 0.1528
C63 C 0.1622(5) 0.7843(4) 0.0555(15)
H50 H 0.1029 0.8045 0.0445
C64 C 0.2126(11) 0.7965(4) 0.0070(11)
H51 H 0.1870 0.8248 -0.0365
C65 C 0.3013(11) 0.7663(5) 0.0233(8)
H52 H 0.3350 0.7745 -0.0092
C66 C 0.3396(6) 0.7240(5) 0.0882(7)
O5 O -0.0697(6) 0.4504(5) 0.4616(6)
H53 H -0.0262 0.4241 0.4682
C67 C -0.1370(6) 0.4555(6) 0.3734(6)
H54 H -0.2031 0.4517 0.3679
H55 H -0.1227 0.4213 0.3438
H56 H -0.1279 0.4968 0.3527
C55? C 0.2959(10) 0.7108(7) 0.1688(15)
C56? C 0.2138(12) 0.7415(6) 0.170(2)
H45? H 0.1945 0.7341 0.2117
C57? C 0.1606(8) 0.7833(6) 0.107(3)
H46? H 0.1056 0.8038 0.1078
C58? C 0.1894(11) 0.7943(7) 0.0442(19)
H47? H 0.1538 0.8223 0.0025
C59? C 0.2715(16) 0.7636(8) 0.0434(12)
H48? H 0.2908 0.7710 0.0012
C60? C 0.3248(12) 0.7219(9) 0.1057(11)
loop_
_geom_bond_atom_site_label_1
_geom_bond_atom_site_label_2
_geom_bond_site_symmetry_1
_geom_bond_site_symmetry_2
O1 C9 1_555 1_555
O2 C10 1_555 1_555
O3 C39 1_555 1_555
O4 C40 1_555 1_555
N1 C7 1_555 1_555
N2 C8 1_555 1_555
N3 C9 1_555 1_555
N4 C10 1_555 1_555
N5 C12 1_555 1_555
N6 C18 1_555 1_555
N7 C37 1_555 1_555
N8 C38 1_555 1_555
N9 C39 1_555 1_555
N10 C40 1_555 1_555
N11 C42 1_555 1_555
N12 C48 1_555 1_555
C1 C2 1_555 1_555
C2 H1 1_555 1_555
C3 C2 1_555 1_555
H2 C3 1_555 1_555
C4 C3 1_555 1_555
H3 C4 1_555 1_555
C5 C4 1_555 1_555
H4 C5 1_555 1_555
C6 C1 1_555 1_555
C7 C6 1_555 1_555
H5 C7 1_555 1_555
H6 C7 1_555 1_555
C8 C1 1_555 1_555
H7 C8 1_555 1_555
H8 C8 1_555 1_555
C9 N1 1_555 1_555
C10 N2 1_555 1_555
C11 N1 1_555 1_555
C12 C11 1_555 1_555
C13 C12 1_555 1_555
H9 C13 1_555 1_555
C14 C13 1_555 1_555
H10 C14 1_555 1_555
C15 C14 1_555 1_555
H11 C15 1_555 1_555
C16 N5 1_555 1_555
H12 C16 1_555 1_555
C17 N3 1_555 1_555
C18 C17 1_555 1_555
C19 C18 1_555 1_555
H13 C19 1_555 1_555
C20 C19 1_555 1_555
H14 C20 1_555 1_555
C21 C20 1_555 1_555
H15 C21 1_555 1_555
C22 N6 1_555 1_555
H16 C22 1_555 1_555
C23 N4 1_555 1_555
H17 C23 1_555 1_555
H18 C23 1_555 1_555
C24 N3 1_555 1_555
H19 C24 1_555 1_555
H20 C24 1_555 1_555
C25 C23 1_555 1_555
C26 C25 1_555 1_555
H21 C26 1_555 1_555
C27 C26 1_555 1_555
H22 C27 1_555 1_555
C28 C27 1_555 1_555
H23 C28 1_555 1_555
C29 C28 1_555 1_555
H24 C29 1_555 1_555
C30 C24 1_555 1_555
C31 C32 1_555 1_555
C32 H25 1_555 1_555
C33 C32 1_555 1_555
H26 C33 1_555 1_555
C34 C33 1_555 1_555
H27 C34 1_555 1_555
C35 C34 1_555 1_555
H28 C35 1_555 1_555
C36 C31 1_555 1_555
C37 C36 1_555 1_555
H29 C37 1_555 1_555
H30 C37 1_555 1_555
C38 C31 1_555 1_555
H31 C38 1_555 1_555
H32 C38 1_555 1_555
C39 N7 1_555 1_555
C40 N8 1_555 1_555
C41 N7 1_555 1_555
C42 C41 1_555 1_555
C43 C42 1_555 1_555
H33 C43 1_555 1_555
C44 C43 1_555 1_555
H34 C44 1_555 1_555
C45 C44 1_555 1_555
H35 C45 1_555 1_555
C46 N11 1_555 1_555
H36 C46 1_555 1_555
C47 N9 1_555 1_555
C48 C47 1_555 1_555
C49 C48 1_555 1_555
H37 C49 1_555 1_555
C50 C49 1_555 1_555
H38 C50 1_555 1_555
C51 C50 1_555 1_555
H39 C51 1_555 1_555
C52 N12 1_555 1_555
H40 C52 1_555 1_555
C53 N10 1_555 1_555
H41 C53 1_555 1_555
H42 C53 1_555 1_555
C54 N9 1_555 1_555
H43 C54 1_555 1_555
H44 C54 1_555 1_555
C61 C53 1_555 1_555
C62 C61 1_555 1_555
H49 C62 1_555 1_555
C63 C62 1_555 1_555
H50 C63 1_555 1_555
C64 C63 1_555 1_555
H51 C64 1_555 1_555
C65 C64 1_555 1_555
H52 C65 1_555 1_555
C66 C54 1_555 1_555
O5 H53 1_555 1_555
C67 O5 1_555 1_555
H54 C67 1_555 1_555
H55 C67 1_555 1_555
H56 C67 1_555 1_555
N2 C11 1_555 1_555
N4 C17 1_555 1_555
N8 C41 1_555 1_555
N10 C47 1_555 1_555
C5 C6 1_555 1_555
C11 C17 1_555 1_555
C15 C16 1_555 1_555
C21 C22 1_555 1_555
C25 C30 1_555 1_555
C29 C30 1_555 1_555
C35 C36 1_555 1_555
C41 C47 1_555 1_555
C45 C46 1_555 1_555
C51 C52 1_555 1_555
C61 C66 1_555 1_555
C65 C66 1_555 1_555

#END
