
#######################################################################
#
#                 Cambridge Crystallographic Data Centre
#                                CCDC 
#
#######################################################################
#
# If this CIF has been generated from an entry in the Cambridge 
# Structural Database, then it will include bibliographic, chemical, 
# crystal, experimental, refinement or atomic coordinate data resulting 
# from the CCDC's data processing and validation procedures.
#
#######################################################################

data_GIRSUW01
_chemical_formula_moiety         'C26 H18 N4'
_chemical_name_systematic        1,1'-Biphenyl-4,4'-diylbis(1H-benzimidazole)
_symmetry_cell_setting           monoclinic
_symmetry_space_group_name_H-M   'C 2/c'
_symmetry_Int_Tables_number      15
_space_group_name_Hall           '-C 2yn'
loop_
_symmetry_equiv_pos_site_id
_symmetry_equiv_pos_as_xyz
1 x,y,z
2 -x,y,1/2-z
3 1/2+x,1/2+y,z
4 1/2-x,1/2+y,1/2-z
5 -x,-y,-z
6 x,-y,1/2+z
7 1/2-x,1/2-y,-z
8 1/2+x,1/2-y,1/2+z
_cell_length_a                   19.548(6)
_cell_length_b                   7.058(2)
_cell_length_c                   13.842(4)
_cell_angle_alpha                90
_cell_angle_beta                 90.886(6)
_cell_angle_gamma                90
_cell_volume                     1909.55
_exptl_crystal_colour            colorless
_exptl_crystal_description       'thick plate'
_cell_formula_units_Z            4
_exptl_crystal_recrystallization_method dichloromethane/n-hexane
loop_
_atom_site_label
_atom_site_type_symbol
_atom_site_fract_x
_atom_site_fract_y
_atom_site_fract_z
C1 C -0.31854(15) -0.0400(4) 0.2449(2)
C2 C -0.38825(16) -0.0745(4) 0.2380(2)
H1 H -0.4149 -0.0793 0.2930
C3 C -0.41701(15) -0.1012(5) 0.1479(3)
H2 H -0.4637 -0.1244 0.1419
C4 C -0.37723(16) -0.0943(4) 0.0656(2)
H3 H -0.3983 -0.1123 0.0056
C5 C -0.30732(14) -0.0614(4) 0.0696(2)
H4 H -0.2808 -0.0582 0.0145
C6 C -0.27958(13) -0.0337(4) 0.1614(2)
C7 C -0.21602(14) 0.0042(4) 0.2923(2)
H5 H -0.1776 0.0231 0.3316
C8 C -0.15185(13) -0.0021(4) 0.1382(2)
C9 C -0.14833(13) 0.1025(4) 0.0553(2)
H6 H -0.1859 0.1731 0.0346
C10 C -0.08897(14) 0.1035(4) 0.0020(2)
H7 H -0.0878 0.1753 -0.0543
C11 C -0.03150(12) 0.0021(4) 0.0294(2)
C12 C -0.03607(13) -0.0999(5) 0.1151(2)
H8 H 0.0017 -0.1683 0.1370
C13 C -0.09537(13) -0.1024(5) 0.16871(19)
H9 H -0.0969 -0.1723 0.2256
N1 N -0.27737(13) -0.0143(4) 0.32673(16)
N2 N -0.21272(10) -0.0065(3) 0.19382(16)
C1D C 0.31854(15) 0.0400(4) -0.2449(2)
C2D C 0.38825(16) 0.0745(4) -0.2380(2)
H1D H 0.4149 0.0793 -0.2930
C3D C 0.41701(15) 0.1012(5) -0.1479(3)
H2D H 0.4637 0.1244 -0.1419
C4D C 0.37723(16) 0.0943(4) -0.0656(2)
H3D H 0.3983 0.1123 -0.0056
C5D C 0.30732(14) 0.0614(4) -0.0696(2)
H4D H 0.2808 0.0582 -0.0145
C6D C 0.27958(13) 0.0337(4) -0.1614(2)
C7D C 0.21602(14) -0.0042(4) -0.2923(2)
H5D H 0.1776 -0.0231 -0.3316
C8D C 0.15185(13) 0.0021(4) -0.1382(2)
C9D C 0.14833(13) -0.1025(4) -0.0553(2)
H6D H 0.1859 -0.1731 -0.0346
C10D C 0.08897(14) -0.1035(4) -0.0020(2)
H7D H 0.0878 -0.1753 0.0543
C11D C 0.03150(12) -0.0021(4) -0.0294(2)
C12D C 0.03607(13) 0.0999(5) -0.1151(2)
H8D H -0.0017 0.1683 -0.1370
C13D C 0.09537(13) 0.1024(5) -0.16871(19)
H9D H 0.0969 0.1723 -0.2256
N1D N 0.27737(13) 0.0143(4) -0.32673(16)
N2D N 0.21272(10) 0.0065(3) -0.19382(16)
loop_
_geom_bond_atom_site_label_1
_geom_bond_atom_site_label_2
_geom_bond_site_symmetry_1
_geom_bond_site_symmetry_2
C1 C2 1_555 1_555
C2 H1 1_555 1_555
C3 C2 1_555 1_555
H2 C3 1_555 1_555
C4 C3 1_555 1_555
H3 C4 1_555 1_555
C5 C4 1_555 1_555
H4 C5 1_555 1_555
C6 C1 1_555 1_555
C7 H5 1_555 1_555
C8 C9 1_555 1_555
C9 H6 1_555 1_555
C10 C9 1_555 1_555
H7 C10 1_555 1_555
C11 C10 1_555 1_555
C12 C11 1_555 1_555
H8 C12 1_555 1_555
C13 C8 1_555 1_555
H9 C13 1_555 1_555
N1 C1 1_555 1_555
N2 C6 1_555 1_555
C1D C2D 1_555 1_555
C2D H1D 1_555 1_555
C3D C2D 1_555 1_555
H2D C3D 1_555 1_555
C4D C3D 1_555 1_555
H3D C4D 1_555 1_555
C5D C4D 1_555 1_555
H4D C5D 1_555 1_555
C6D C1D 1_555 1_555
C7D H5D 1_555 1_555
C8D C9D 1_555 1_555
C9D H6D 1_555 1_555
C10D C9D 1_555 1_555
H7D C10D 1_555 1_555
C11D C11 1_555 1_555
C12D C11D 1_555 1_555
H8D C12D 1_555 1_555
C13D C8D 1_555 1_555
H9D C13D 1_555 1_555
N1D C1D 1_555 1_555
N2D C6D 1_555 1_555
C5 C6 1_555 1_555
C7 N1 1_555 1_555
C7 N2 1_555 1_555
C8 N2 1_555 1_555
C12 C13 1_555 1_555
C5D C6D 1_555 1_555
C7D N1D 1_555 1_555
C7D N2D 1_555 1_555
C8D N2D 1_555 1_555
C10D C11D 1_555 1_555
C12D C13D 1_555 1_555

#END
