
#######################################################################
#
#                 Cambridge Crystallographic Data Centre
#                                CCDC 
#
#######################################################################
#
# If this CIF has been generated from an entry in the Cambridge 
# Structural Database, then it will include bibliographic, chemical, 
# crystal, experimental, refinement or atomic coordinate data resulting 
# from the CCDC's data processing and validation procedures.
#
#######################################################################

data_GIRSAC
_chemical_formula_moiety         'C19 H12 N2 O3'
_chemical_name_systematic        
3-Phenyl-2-(prop-2-ynyloxy)-1-benzofuro(3,2-d)pyrimidin-4(3H)-one
_symmetry_cell_setting           monoclinic
_symmetry_space_group_name_H-M   'P 21/n'
_symmetry_Int_Tables_number      14
_space_group_name_Hall           '-P 2yn'
loop_
_symmetry_equiv_pos_site_id
_symmetry_equiv_pos_as_xyz
1 x,y,z
2 1/2-x,1/2+y,1/2-z
3 -x,-y,-z
4 1/2+x,1/2-y,1/2+z
_cell_length_a                   12.6748(13)
_cell_length_b                   7.1531(7)
_cell_length_c                   17.5793(17)
_cell_angle_alpha                90
_cell_angle_beta                 104.645(2)
_cell_angle_gamma                90
_cell_volume                     1542.03
_exptl_crystal_colour            colorless
_exptl_crystal_description       block
_cell_formula_units_Z            4
_exptl_crystal_recrystallization_method ethanol/dichloromethane
loop_
_atom_site_label
_atom_site_type_symbol
_atom_site_fract_x
_atom_site_fract_y
_atom_site_fract_z
C1 C 1.05495(11) 0.81800(18) 0.22716(7)
C2 C 1.11240(12) 0.85724(19) 0.30421(8)
H1 H 1.1116 0.7745 0.3449
C3 C 1.17039(12) 1.0220(2) 0.31838(9)
H2 H 1.2099 1.0502 0.3693
C4 C 1.17078(13) 1.1476(2) 0.25748(10)
H3 H 1.2099 1.2584 0.2691
C5 C 1.11500(12) 1.1122(2) 0.18077(9)
H4 H 1.1156 1.1953 0.1402
C6 C 1.05806(11) 0.9455(2) 0.16777(7)
C7 C 0.95602(11) 0.7144(2) 0.11079(7)
C8 C 0.98690(11) 0.66798(18) 0.18824(7)
C9 C 0.88390(12) 0.6046(2) 0.05294(8)
C10 C 0.88737(11) 0.40745(19) 0.16784(7)
C11 C 0.88258(13) 0.1884(2) 0.26800(8)
H5 H 0.9608 0.2064 0.2860
H6 H 0.8678 0.0561 0.2716
C12 C 0.82912(12) 0.2919(2) 0.31909(8)
C13 C 0.78913(15) 0.3726(2) 0.36209(10)
H7 H 0.7572 0.4371 0.3964
C14 C 0.76773(12) 0.32631(18) 0.03895(7)
C15 C 0.79825(13) 0.1850(2) -0.00388(8)
H8 H 0.8715 0.1633 -0.0009
C16 C 0.71813(15) 0.0755(2) -0.05158(9)
H9 H 0.7378 -0.0211 -0.0806
C17 C 0.60970(15) 0.1081(2) -0.05642(9)
H10 H 0.5563 0.0355 -0.0893
C18 C 0.58085(13) 0.2486(3) -0.01233(10)
H11 H 0.5077 0.2693 -0.0146
C19 C 0.65962(13) 0.3592(2) 0.03527(9)
H12 H 0.6399 0.4551 0.0646
N1 N 0.95387(9) 0.50832(16) 0.21918(6)
N2 N 0.85008(9) 0.44489(16) 0.08854(6)
O1 O 0.99762(8) 0.88383(13) 0.09524(5)
O2 O 0.85057(11) 0.63467(16) -0.01731(6)
O3 O 0.84625(9) 0.24665(14) 0.18664(5)
loop_
_geom_bond_atom_site_label_1
_geom_bond_atom_site_label_2
_geom_bond_site_symmetry_1
_geom_bond_site_symmetry_2
C1 C2 1_555 1_555
C2 H1 1_555 1_555
C3 C2 1_555 1_555
H2 C3 1_555 1_555
C4 C3 1_555 1_555
H3 C4 1_555 1_555
C5 C4 1_555 1_555
H4 C5 1_555 1_555
C6 C1 1_555 1_555
C7 C8 1_555 1_555
C8 C1 1_555 1_555
C9 C7 1_555 1_555
C10 N1 1_555 1_555
C11 H5 1_555 1_555
H6 C11 1_555 1_555
C12 C11 1_555 1_555
C13 C12 1_555 1_555
H7 C13 1_555 1_555
C14 C15 1_555 1_555
C15 H8 1_555 1_555
C16 C15 1_555 1_555
H9 C16 1_555 1_555
C17 C16 1_555 1_555
H10 C17 1_555 1_555
C18 C17 1_555 1_555
H11 C18 1_555 1_555
C19 C14 1_555 1_555
H12 C19 1_555 1_555
N1 C8 1_555 1_555
N2 C9 1_555 1_555
O1 C6 1_555 1_555
O2 C9 1_555 1_555
O3 C10 1_555 1_555
C5 C6 1_555 1_555
C7 O1 1_555 1_555
C10 N2 1_555 1_555
C11 O3 1_555 1_555
C14 N2 1_555 1_555
C18 C19 1_555 1_555

#END
