
#######################################################################
#
#                 Cambridge Crystallographic Data Centre
#                                CCDC 
#
#######################################################################
#
# If this CIF has been generated from an entry in the Cambridge 
# Structural Database, then it will include bibliographic, chemical, 
# crystal, experimental, refinement or atomic coordinate data resulting 
# from the CCDC's data processing and validation procedures.
#
#######################################################################

data_GIRTUY
_chemical_formula_moiety         'C21 H19 N3 O3 S1'
_chemical_name_systematic        
N-(2-(4-methoxyphenyl)imidazo[1,2-a]pyridin-3-yl)-4-methylbenzenesulfonamide
_symmetry_cell_setting           monoclinic
_symmetry_space_group_name_H-M   'P 21/c'
_symmetry_Int_Tables_number      14
_space_group_name_Hall           '-P 2ybc'
loop_
_symmetry_equiv_pos_site_id
_symmetry_equiv_pos_as_xyz
1 x,y,z
2 -x,1/2+y,1/2-z
3 -x,-y,-z
4 x,1/2-y,1/2+z
_cell_length_a                   8.6024(4)
_cell_length_b                   10.3629(6)
_cell_length_c                   21.8723(11)
_cell_angle_alpha                90
_cell_angle_beta                 95.034(4)
_cell_angle_gamma                90
_cell_volume                     1942.3
_exptl_crystal_colour            colorless
_chemical_melting_point          '482.75-484.35 K'
_cell_formula_units_Z            4
loop_
_atom_site_label
_atom_site_type_symbol
_atom_site_fract_x
_atom_site_fract_y
_atom_site_fract_z
S1 S 0.36035(5) 0.92465(5) 0.13760(2)
N1 N 0.42240(17) 0.85280(15) 0.20139(7)
H1 H 0.4842 0.8944 0.2274
N2 N 0.25047(15) 0.70497(15) 0.24831(6)
C1 C 0.58011(19) 0.57675(19) 0.17307(8)
N3 N 0.35476(17) 0.51213(15) 0.23036(7)
C2 C 0.7129(2) 0.6527(2) 0.17990(9)
H2 H 0.7158 0.7227 0.2066
C3 C 0.2409(2) 0.57300(19) 0.25650(8)
O1 O 0.36903(17) 1.06001(14) 0.15035(7)
C4 C 0.4972(2) 0.8901(2) 0.08424(9)
C5 C 0.38021(19) 0.72716(18) 0.21581(8)
O2 O 0.21420(15) 0.86657(16) 0.11707(7)
C6 C 0.4416(2) 0.60747(18) 0.20559(8)
C7 C 0.1468(2) 0.7901(2) 0.27048(8)
H3 H 0.1563 0.8783 0.2640
C8 C 0.8381(2) 0.5231(2) 0.10822(9)
O3 O 0.95731(16) 0.48881(17) 0.07390(7)
C9 C 0.7070(2) 0.4441(2) 0.10160(9)
H4 H 0.7051 0.3732 0.0755
C10 C 0.5795(2) 0.4708(2) 0.13384(9)
H5 H 0.4923 0.4175 0.1293
C11 C 0.1203(2) 0.5259(2) 0.29037(9)
H6 H 0.1116 0.4379 0.2976
C12 C 0.8422(2) 0.6269(2) 0.14782(9)
H7 H 0.9304 0.6790 0.1530
C13 C 0.0178(2) 0.6093(2) 0.31211(10)
H8 H -0.0621 0.5782 0.3340
C14 C 0.4857(2) 0.7769(2) 0.05058(9)
H9 H 0.4023 0.7209 0.0539
C15 C 0.6199(2) 0.9735(2) 0.07916(10)
H10 H 0.6272 1.0500 0.1015
C16 C 0.0308(2) 0.7431(2) 0.30187(9)
H11 H -0.0411 0.7994 0.3168
C17 C 0.7251(3) 0.8290(3) 0.00645(10)
C18 C 0.8504(4) 0.7948(4) -0.03521(13)
H12 H 0.9278 0.8618 -0.0333
H13 H 0.8044 0.7864 -0.0766
H14 H 0.8984 0.7147 -0.0221
C19 C 0.7327(3) 0.9415(3) 0.04005(12)
H15 H 0.8158 0.9977 0.0365
C20 C 0.6000(3) 0.7480(3) 0.01192(10)
H16 H 0.5921 0.6722 -0.0109
C21 C 1.0973(2) 0.5630(3) 0.08087(11)
H17 H 1.1708 0.5291 0.0544
H18 H 1.1410 0.5586 0.1227
H19 H 1.0743 0.6512 0.0701
loop_
_geom_bond_atom_site_label_1
_geom_bond_atom_site_label_2
_geom_bond_site_symmetry_1
_geom_bond_site_symmetry_2
S1 N1 1_555 1_555
N1 H1 1_555 1_555
N2 C3 1_555 1_555
C1 C2 1_555 1_555
N3 C3 1_555 1_555
C2 H2 1_555 1_555
C3 C11 1_555 1_555
O1 S1 1_555 1_555
C4 S1 1_555 1_555
C5 N1 1_555 1_555
O2 S1 1_555 1_555
C6 C1 1_555 1_555
C7 N2 1_555 1_555
H3 C7 1_555 1_555
C8 O3 1_555 1_555
O3 C21 1_555 1_555
C9 C8 1_555 1_555
H4 C9 1_555 1_555
C10 C1 1_555 1_555
H5 C10 1_555 1_555
C11 H6 1_555 1_555
C12 C2 1_555 1_555
H7 C12 1_555 1_555
C13 C11 1_555 1_555
H8 C13 1_555 1_555
C14 C4 1_555 1_555
H9 C14 1_555 1_555
C15 C4 1_555 1_555
H10 C15 1_555 1_555
C16 C7 1_555 1_555
H11 C16 1_555 1_555
C17 C18 1_555 1_555
C18 H12 1_555 1_555
H13 C18 1_555 1_555
H14 C18 1_555 1_555
C19 C15 1_555 1_555
H15 C19 1_555 1_555
C20 C14 1_555 1_555
H16 C20 1_555 1_555
C21 H17 1_555 1_555
H18 C21 1_555 1_555
H19 C21 1_555 1_555
N2 C5 1_555 1_555
N3 C6 1_555 1_555
C5 C6 1_555 1_555
C8 C12 1_555 1_555
C9 C10 1_555 1_555
C13 C16 1_555 1_555
C17 C19 1_555 1_555
C17 C20 1_555 1_555

#END
