
#######################################################################
#
#                 Cambridge Crystallographic Data Centre
#                                CCDC 
#
#######################################################################
#
# If this CIF has been generated from an entry in the Cambridge 
# Structural Database, then it will include bibliographic, chemical, 
# crystal, experimental, refinement or atomic coordinate data resulting 
# from the CCDC's data processing and validation procedures.
#
#######################################################################

data_GIRTEH
_chemical_formula_moiety         'C23 H26 N4 O1,5(H2 O1)'
_chemical_name_systematic        
"1,1'-(4-Oxoheptane-1,7-diyl)-bis(2-methyl-1H-benzimidazole) pentahydrate"
_symmetry_cell_setting           monoclinic
_symmetry_space_group_name_H-M   'P 21/n'
_symmetry_Int_Tables_number      14
_space_group_name_Hall           '-P 2yn'
loop_
_symmetry_equiv_pos_site_id
_symmetry_equiv_pos_as_xyz
1 x,y,z
2 1/2-x,1/2+y,1/2-z
3 -x,-y,-z
4 1/2+x,1/2-y,1/2+z
_cell_length_a                   8.814(5)
_cell_length_b                   25.664(13)
_cell_length_c                   11.635(6)
_cell_angle_alpha                90
_cell_angle_beta                 109.060(10)
_cell_angle_gamma                90
_cell_volume                     2487.58
_exptl_crystal_colour            colorless
_exptl_crystal_description       Block
_cell_formula_units_Z            4
_exptl_crystal_recrystallization_method methanol
loop_
_atom_site_label
_atom_site_type_symbol
_atom_site_fract_x
_atom_site_fract_y
_atom_site_fract_z
C1 C 0.7657(6) 0.03465(19) 0.9184(5)
H1 H 0.8154 0.0179 0.8693
C2 C 0.6000(5) 0.03845(18) 0.8828(4)
C3 C 0.5296(5) 0.06379(18) 0.9592(4)
C4 C 0.6183(6) 0.08559(19) 1.0686(5)
H2 H 0.5697 0.1026 1.1180
C5 C 0.7824(7) 0.0810(2) 1.1012(5)
H3 H 0.8467 0.0950 1.1747
C6 C 0.8542(6) 0.0558(2) 1.0266(6)
H4 H 0.9655 0.0534 1.0513
C7 C 0.3447(6) 0.0363(2) 0.7922(4)
C8 C 0.1824(2) 0.02679(8) 0.70124(17)
H5 H 0.1014 0.0396 0.7326
H6 H 0.1675 -0.0099 0.6858
H7 H 0.1742 0.0446 0.6269
C9 C -0.8388(2) 0.22467(8) 0.63617(17)
C10 C -0.9846(2) 0.24529(8) 0.63617(17)
H8 H -1.0804 0.2309 0.5863
C11 C -0.9873(2) 0.28737(8) 0.71070(17)
H9 H -1.0849 0.3012 0.7107
C12 C -0.8442(2) 0.30882(8) 0.78523(17)
H10 H -0.8460 0.3370 0.8351
C13 C -0.6984(2) 0.28820(8) 0.78522(17)
H11 H -0.6027 0.3026 0.8351
C14 C -0.6957(2) 0.24613(8) 0.71069(17)
C15 C -0.6463(6) 0.18141(19) 0.6109(4)
C16 C -0.5526(6) 0.1420(2) 0.5672(5)
H12 H -0.6243 0.1222 0.5018
H13 H -0.4981 0.1190 0.6327
H14 H -0.4752 0.1595 0.5389
C17 C -0.4031(5) 0.22546(18) 0.7553(4)
H15 H -0.3820 0.2618 0.7778
H16 H -0.3447 0.2165 0.7005
C18 C -0.3436(5) 0.19203(18) 0.8684(4)
H17 H -0.4014 0.2013 0.9234
H18 H -0.3664 0.1558 0.8459
C19 C -0.1661(5) 0.19827(19) 0.9332(4)
H19 H -0.1407 0.2351 0.9376
H20 H -0.1423 0.1857 1.0158
C20 C -0.0576(5) 0.17074(18) 0.8769(5)
C21 C 0.1192(5) 0.17729(19) 0.9435(4)
H21 H 0.1390 0.1687 1.0283
H22 H 0.1459 0.2138 0.9401
C22 C 0.2331(5) 0.14550(19) 0.8985(4)
H23 H 0.1977 0.1470 0.8104
H24 H 0.3391 0.1611 0.9286
C23 C 0.2449(5) 0.08920(19) 0.9373(4)
H25 H 0.2737 0.0873 1.0251
H26 H 0.1413 0.0725 0.9021
N1 N -0.8030(5) 0.18326(15) 0.5730(3)
N2 N -0.5748(4) 0.21841(15) 0.6929(3)
N3 N 0.3650(4) 0.06156(15) 0.8987(4)
N4 N 0.4803(5) 0.02109(15) 0.7805(4)
O1 O -0.1070(3) 0.14430(13) 0.7855(3)
O2 O 0.5198(5) -0.06286(16) 0.6451(4)
H27 H 0.548(7) -0.0316(14) 0.687(4)
H28 H 0.455(7) -0.052(2) 0.570(3)
O3 O 0.2025(6) 0.02126(17) 0.3906(5)
H29 H 0.308(3) 0.028(3) 0.425(5)
H30 H 0.155(7) 0.0522(16) 0.366(8)
O4 O 0.7904(5) 0.08554(17) 0.5440(4)
H31 H 0.780(8) 0.0512(11) 0.559(6)
H32 H 0.825(8) 0.099(3) 0.618(3)
O5 O 0.2093(7) 0.1308(3) 0.2426(5)
H33 H 0.129(7) 0.126(4) 0.276(8)
H34 H 0.289(7) 0.109(3) 0.289(8)
O6 O 0.5163(4) 0.39697(15) 0.9246(3)
H35 H 0.457(6) 0.404(3) 0.973(5)
H36 H 0.576(6) 0.3710(17) 0.968(5)
loop_
_geom_bond_atom_site_label_1
_geom_bond_atom_site_label_2
_geom_bond_site_symmetry_1
_geom_bond_site_symmetry_2
C1 H1 1_555 1_555
C2 C1 1_555 1_555
C3 C2 1_555 1_555
C4 C3 1_555 1_555
H2 C4 1_555 1_555
C5 C4 1_555 1_555
H3 C5 1_555 1_555
C6 C1 1_555 1_555
H4 C6 1_555 1_555
C7 C8 1_555 1_555
C8 H5 1_555 1_555
H6 C8 1_555 1_555
H7 C8 1_555 1_555
C9 C10 1_555 1_555
C10 H8 1_555 1_555
C11 C10 1_555 1_555
H9 C11 1_555 1_555
C12 C11 1_555 1_555
H10 C12 1_555 1_555
C13 C12 1_555 1_555
H11 C13 1_555 1_555
C14 C9 1_555 1_555
C15 C16 1_555 1_555
C16 H12 1_555 1_555
H13 C16 1_555 1_555
H14 C16 1_555 1_555
C17 H15 1_555 1_555
H16 C17 1_555 1_555
C18 C17 1_555 1_555
H17 C18 1_555 1_555
H18 C18 1_555 1_555
C19 C18 1_555 1_555
H19 C19 1_555 1_555
H20 C19 1_555 1_555
C20 C19 1_555 1_555
C21 C20 1_555 1_555
H21 C21 1_555 1_555
H22 C21 1_555 1_555
C22 C21 1_555 1_555
H23 C22 1_555 1_555
H24 C22 1_555 1_555
C23 C22 1_555 1_555
H25 C23 1_555 1_555
H26 C23 1_555 1_555
N1 C9 1_555 1_555
N2 C14 1_555 1_555
N3 C3 1_555 1_555
N4 C2 1_555 1_555
O1 C20 1_555 1_555
O2 H27 1_555 1_555
H28 O2 1_555 1_555
O3 H29 1_555 1_555
H30 O3 1_555 1_555
O4 H31 1_555 1_555
H32 O4 1_555 1_555
O5 H33 1_555 1_555
H34 O5 1_555 1_555
O6 H35 1_555 1_555
H36 O6 1_555 1_555
C5 C6 1_555 1_555
C7 N3 1_555 1_555
C7 N4 1_555 1_555
C13 C14 1_555 1_555
C15 N1 1_555 1_555
C15 N2 1_555 1_555
C17 N2 1_555 1_555
C23 N3 1_555 1_555

#END
