
#######################################################################
#
#                 Cambridge Crystallographic Data Centre
#                                CCDC 
#
#######################################################################
#
# If this CIF has been generated from an entry in the Cambridge 
# Structural Database, then it will include bibliographic, chemical, 
# crystal, experimental, refinement or atomic coordinate data resulting 
# from the CCDC's data processing and validation procedures.
#
#######################################################################

data_GIRVUA
_chemical_formula_moiety         'C21 H21 N1 O7'
_chemical_name_systematic        
'cis-Ethyl 5-(3-ethoxy-3-oxoprop-1-en-2-yl)-5-(2-furyl)-4-phenyl-4,5-dihydro-1,2-oxazole-3-carboxylate 2-oxide'
_symmetry_cell_setting           monoclinic
_symmetry_space_group_name_H-M   'P 21/c'
_symmetry_Int_Tables_number      14
_space_group_name_Hall           '-P 2ybc'
loop_
_symmetry_equiv_pos_site_id
_symmetry_equiv_pos_as_xyz
1 x,y,z
2 -x,1/2+y,1/2-z
3 -x,-y,-z
4 x,1/2-y,1/2+z
_cell_length_a                   9.901(2)
_cell_length_b                   16.704(3)
_cell_length_c                   12.243(2)
_cell_angle_alpha                90
_cell_angle_beta                 92.36(3)
_cell_angle_gamma                90
_cell_volume                     2023.11
_cell_formula_units_Z            4
loop_
_atom_site_label
_atom_site_type_symbol
_atom_site_fract_x
_atom_site_fract_y
_atom_site_fract_z
O1 O 0.5186(2) 0.15755(13) 0.73866(18)
O2 O 0.3300(3) 0.08400(14) 0.7486(2)
O3 O 0.1275(3) 0.12743(18) 0.5857(3)
O4 O 0.2010(3) 0.22495(16) 0.4788(2)
O5 O 0.5806(3) 0.10967(15) 0.5021(2)
O6 O 0.7139(3) 0.33067(17) 0.5438(2)
O7 O 0.8289(4) 0.3677(2) 0.6954(3)
N1 N 0.3836(3) 0.13760(15) 0.6980(2)
C1 C 0.5794(3) 0.20564(18) 0.6530(2)
C2 C 0.6543(3) 0.14903(19) 0.5817(3)
C3 C 0.7821(4) 0.1232(2) 0.5864(3)
H1 H 0.8519 0.1406 0.6336
C4 C 0.7889(5) 0.0631(2) 0.5034(4)
H2 H 0.8648 0.0336 0.4861
C5 C 0.6692(5) 0.0577(2) 0.4570(3)
H3 H 0.6464 0.0227 0.4000
C6 C 0.6765(3) 0.26330(19) 0.7108(2)
C7 C 0.7039(4) 0.2597(2) 0.8178(3)
C8 C 0.7398(4) 0.3226(2) 0.6402(3)
C9 C 0.8742(9) 0.4415(5) 0.6379(6)
H4 H 0.8942 0.4276 0.5634
H5 H 0.8006 0.4798 0.6349
C10 C 0.9734(18) 0.4730(11) 0.6813(13)
H6 H 0.9954 0.5206 0.6417
H7 H 1.0483 0.4365 0.6812
H8 H 0.9548 0.4869 0.7553
C11 C 0.4539(3) 0.24377(17) 0.5916(3)
H9 H 0.4687 0.2449 0.5130
C12 C 0.4131(3) 0.32686(18) 0.6294(3)
C13 C 0.4044(4) 0.3897(2) 0.5567(4)
H10 H 0.4237 0.3814 0.4838
C14 C 0.3670(5) 0.4653(3) 0.5916(6)
H11 H 0.3616 0.5078 0.5424
C15 C 0.3376(5) 0.4773(3) 0.7007(6)
H12 H 0.3130 0.5279 0.7246
C16 C 0.3448(4) 0.4158(3) 0.7714(4)
H13 H 0.3250 0.4243 0.8441
C17 C 0.3811(4) 0.3401(2) 0.7379(3)
H14 H 0.3843 0.2980 0.7876
C18 C 0.3472(3) 0.18309(18) 0.6147(3)
C19 C 0.2127(4) 0.1740(2) 0.5612(3)
C20 C 0.075(2) 0.2207(12) 0.4126(18)
H15 H 0.0643 0.1673 0.3824
H16 H -0.0006 0.2315 0.4579
C21 C 0.0774(11) 0.2759(11) 0.3286(12)
H17 H -0.0059 0.2731 0.2859
H18 H 0.1516 0.2643 0.2830
H19 H 0.0881 0.3287 0.3587
C22? C 0.951(2) 0.4037(11) 0.6250(13)
H20? H 0.9215 0.4226 0.5529
H21? H 1.0280 0.3684 0.6211
C23? C 0.972(2) 0.4819(11) 0.7247(14)
H22? H 1.0419 0.5177 0.7032
H23? H 0.9966 0.4589 0.7945
H24? H 0.8888 0.5110 0.7296
C24? C 0.062(3) 0.2380(14) 0.432(2)
H25? H 0.0368 0.1943 0.3825
H26? H -0.0021 0.2390 0.4897
C25? C 0.0557(15) 0.3112(11) 0.3739(17)
H27? H -0.0352 0.3206 0.3466
H28? H 0.1150 0.3088 0.3138
H29? H 0.0835 0.3540 0.4221
H30? H 0.7669 0.3012 0.8386
H31? H 0.7426 0.2085 0.8361
H32? H 0.6221 0.2668 0.8561
loop_
_geom_bond_atom_site_label_1
_geom_bond_atom_site_label_2
_geom_bond_site_symmetry_1
_geom_bond_site_symmetry_2
O1 N1 1_555 1_555
O2 N1 1_555 1_555
O3 C19 1_555 1_555
O4 C19 1_555 1_555
O5 C2 1_555 1_555
O6 C8 1_555 1_555
O7 C8 1_555 1_555
N1 C18 1_555 1_555
C1 O1 1_555 1_555
C2 C1 1_555 1_555
C3 C2 1_555 1_555
H1 C3 1_555 1_555
C4 C3 1_555 1_555
H2 C4 1_555 1_555
C5 O5 1_555 1_555
H3 C5 1_555 1_555
C6 C1 1_555 1_555
C7 C6 1_555 1_555
C8 C6 1_555 1_555
C9 O7 1_555 1_555
H4 C9 1_555 1_555
H5 C9 1_555 1_555
C10 C9 1_555 1_555
H6 C10 1_555 1_555
H7 C10 1_555 1_555
H8 C10 1_555 1_555
C11 C1 1_555 1_555
H9 C11 1_555 1_555
C12 C11 1_555 1_555
C13 C12 1_555 1_555
H10 C13 1_555 1_555
C14 C13 1_555 1_555
H11 C14 1_555 1_555
C15 C14 1_555 1_555
H12 C15 1_555 1_555
C16 C15 1_555 1_555
H13 C16 1_555 1_555
C17 C12 1_555 1_555
H14 C17 1_555 1_555
C18 C11 1_555 1_555
C19 C18 1_555 1_555
C20 O4 1_555 1_555
H15 C20 1_555 1_555
H16 C20 1_555 1_555
C21 C20 1_555 1_555
H17 C21 1_555 1_555
H18 C21 1_555 1_555
H19 C21 1_555 1_555
C4 C5 1_555 1_555
C16 C17 1_555 1_555

#END
