
#######################################################################
#
#                 Cambridge Crystallographic Data Centre
#                                CCDC 
#
#######################################################################
#
# If this CIF has been generated from an entry in the Cambridge 
# Structural Database, then it will include bibliographic, chemical, 
# crystal, experimental, refinement or atomic coordinate data resulting 
# from the CCDC's data processing and validation procedures.
#
#######################################################################

data_GIRZOZ
_chemical_formula_moiety         'C33 H36 Br1 N3 O5'
_chemical_name_systematic        
'dibenzyl 1-{2-[5-bromo-2-(N-butoxyethanimidoyl)phenyl]cyclopent-3-en-1-yl}hydrazine-1,2-dicarboxylate'
_symmetry_cell_setting           monoclinic
_symmetry_space_group_name_H-M   'P 21'
_symmetry_Int_Tables_number      4
_space_group_name_Hall           'P 2yb'
loop_
_symmetry_equiv_pos_site_id
_symmetry_equiv_pos_as_xyz
1 x,y,z
2 -x,1/2+y,-z
_cell_length_a                   31.7825(6)
_cell_length_b                   5.53999(12)
_cell_length_c                   34.5972(6)
_cell_angle_alpha                90
_cell_angle_beta                 90.3273(16)
_cell_angle_gamma                90
_cell_volume                     6091.59
_exptl_crystal_colour            colorless
_exptl_crystal_description       needle
_cell_formula_units_Z            8
loop_
_atom_site_label
_atom_site_type_symbol
_atom_site_fract_x
_atom_site_fract_y
_atom_site_fract_z
Br1 Br 0.39915(4) 1.3621(3) 0.61165(4)
O1 O 0.1904(2) 0.6660(11) 0.53431(16)
O2 O 0.14139(18) 0.9062(10) 0.71332(15)
O3 O 0.13728(16) 0.5146(9) 0.69412(16)
O4 O 0.1799(2) 1.3342(11) 0.61525(16)
O5 O 0.12672(18) 1.0676(11) 0.62401(16)
N1 N 0.2218(2) 0.8023(13) 0.55378(19)
N2 N 0.1909(2) 0.9837(12) 0.64797(19)
N3 N 0.1747(2) 0.7637(12) 0.65905(18)
C1 C 0.2631(2) 0.8244(15) 0.63639(19)
H1 H 0.244425 0.700241 0.624178
C2 C 0.2356(3) 1.0246(15) 0.6551(2)
H2 H 0.243780 1.184588 0.644010
C3 C 0.2465(3) 1.021(2) 0.6992(2)
H3 H 0.259530 1.175964 0.707331
H4 H 0.220952 0.993586 0.714826
C4 C 0.2768(3) 0.818(2) 0.7038(2)
H5 H 0.288394 0.769073 0.727898
C5 C 0.2855(3) 0.7154(19) 0.6709(3)
H6 H 0.304283 0.582944 0.668848
C6 C 0.2943(2) 0.9158(15) 0.6069(2)
C7 C 0.3267(2) 1.0713(19) 0.6194(2)
H7 H 0.327425 1.127303 0.645302
C8 C 0.3568(3) 1.1407(18) 0.5940(3)
C9 C 0.3575(3) 1.064(2) 0.5564(2)
H8 H 0.379414 1.111683 0.539484
C10 C 0.3256(3) 0.9150(17) 0.5437(2)
H9 H 0.325718 0.859437 0.517675
C11 C 0.2932(3) 0.8441(17) 0.5683(2)
C12 C 0.2580(3) 0.7028(17) 0.5504(2)
C13 C 0.2656(4) 0.4674(19) 0.5304(3)
H10 H 0.253051 0.336199 0.545491
H11 H 0.295950 0.440222 0.528133
H12 H 0.252782 0.471562 0.504627
C14 C 0.1500(3) 0.7668(17) 0.5430(3)
H13 H 0.150364 0.943799 0.539075
H14 H 0.142580 0.733688 0.570242
C15 C 0.1183(3) 0.6511(19) 0.5162(2)
H15 H 0.120989 0.473535 0.518299
H16 H 0.089678 0.695152 0.524883
C16 C 0.1227(3) 0.7212(19) 0.4744(2)
H17 H 0.152259 0.696088 0.466496
H18 H 0.104803 0.613510 0.458468
C17 C 0.1107(4) 0.978(2) 0.4663(3)
H19 H 0.128564 1.086204 0.481676
H20 H 0.081150 1.003264 0.473298
H21 H 0.114443 1.012444 0.438801
C18 C 0.1498(2) 0.7465(13) 0.6909(2)
C19 C 0.1088(2) 0.4654(16) 0.7257(2)
H22 H 0.116696 0.566355 0.748232
H23 H 0.111504 0.294036 0.733455
C20 C 0.0640(3) 0.5160(15) 0.7148(2)
C21 C 0.0421(3) 0.3522(18) 0.6916(3)
H24 H 0.055392 0.209046 0.682836
C22 C 0.0007(3) 0.400(2) 0.6815(3)
H25 H -0.014528 0.286602 0.666405
C23 C -0.0185(3) 0.609(2) 0.6931(3)
H26 H -0.046424 0.643382 0.684909
C24 C 0.0031(3) 0.771(2) 0.7168(3)
H27 H -0.010507 0.913632 0.725518
C25 C 0.0439(3) 0.7245(17) 0.7275(3)
H28 H 0.058587 0.835302 0.743622
C26 C 0.1662(3) 1.1461(14) 0.6278(2)
C27 C 0.0993(3) 1.2302(15) 0.6031(2)
H29 H 0.114380 1.299532 0.580786
H30 H 0.090611 1.364308 0.620240
C28 C 0.0612(3) 1.0942(16) 0.5893(2)
C29 C 0.0389(3) 1.1829(19) 0.5575(3)
H31 H 0.048503 1.324739 0.544845
C30 C 0.0035(3) 1.069(2) 0.5441(3)
H32 H -0.011303 1.132900 0.522449
C31 C -0.0109(3) 0.862(2) 0.5620(3)
H33 H -0.035074 0.780427 0.552355
C32 C 0.0102(3) 0.7740(19) 0.5941(3)
H34 H -0.000119 0.634498 0.606907
C33 C 0.0462(3) 0.8865(17) 0.6078(3)
H35 H 0.060618 0.823253 0.629678
H36 H 0.179(3) 0.627(13) 0.645(3)
Br2 Br 0.09477(3) -0.4409(2) 0.36959(3)
O6 O 0.28706(17) 0.3385(11) 0.28001(14)
O7 O 0.35502(18) 0.0588(11) 0.45213(15)
O8 O 0.35825(16) 0.4548(10) 0.43407(15)
O9 O 0.3244(2) -0.3637(11) 0.35326(18)
O10 O 0.37306(18) -0.0705(11) 0.36152(16)
N4 N 0.2604(2) 0.1859(13) 0.30177(18)
N5 N 0.3081(2) -0.0151(12) 0.3845(2)
N6 N 0.3212(2) 0.2061(12) 0.3980(2)
C34 C 0.2318(2) 0.1123(15) 0.3850(2)
H37 H 0.246188 0.256234 0.373603
C35 C 0.2648(3) -0.0943(16) 0.3928(3)
H38 H 0.257927 -0.233559 0.375480
C36 C 0.2601(3) -0.176(2) 0.4340(3)
H39 H 0.246576 -0.336211 0.435387
H40 H 0.287772 -0.182771 0.447296
C37 C 0.2326(4) 0.016(3) 0.4514(2)
H41 H 0.226968 0.027187 0.478290
C38 C 0.2166(3) 0.169(2) 0.4250(3)
H42 H 0.198053 0.298350 0.430872
C39 C 0.1963(2) 0.0294(14) 0.3585(2)
C40 C 0.1673(3) -0.1369(17) 0.3728(2)
H43 H 0.171040 -0.202370 0.398008
C41 C 0.1329(3) -0.2074(16) 0.3502(2)
C42 C 0.1267(3) -0.1148(17) 0.3138(2)
H44 H 0.102908 -0.161998 0.298849
C43 C 0.1555(3) 0.0480(18) 0.2993(2)
H45 H 0.150789 0.117272 0.274518
C44 C 0.1917(2) 0.1131(15) 0.3206(2)
C45 C 0.2230(3) 0.2677(15) 0.3007(2)
C46 C 0.2094(3) 0.4950(18) 0.2805(3)
H46 H 0.227763 0.628581 0.288331
H47 H 0.180280 0.532533 0.287440
H48 H 0.211255 0.472108 0.252441
C47 C 0.3291(2) 0.2416(16) 0.2816(2)
H49 H 0.329017 0.068225 0.274697
H50 H 0.341141 0.259915 0.307895
C48 C 0.3542(3) 0.3863(16) 0.2525(2)
H51 H 0.341035 0.368656 0.226670
H52 H 0.353085 0.559251 0.259675
C49 C 0.3996(3) 0.3071(17) 0.2505(3)
H53 H 0.415530 0.426223 0.235033
H54 H 0.411704 0.306912 0.276937
C50 C 0.4055(3) 0.0610(19) 0.2330(3)
H55 H 0.394017 0.059802 0.206674
H56 H 0.390781 -0.059348 0.248690
H57 H 0.435577 0.021998 0.232297
C51 C 0.3460(2) 0.2227(14) 0.4305(2)
C52 C 0.3848(2) 0.5085(14) 0.4677(2)
H58 H 0.377677 0.397036 0.489047
H59 H 0.379275 0.675326 0.476546
C53 C 0.4306(2) 0.4825(14) 0.4581(2)
C54 C 0.4504(3) 0.6638(15) 0.4372(2)
H60 H 0.434796 0.800465 0.428761
C55 C 0.4931(3) 0.6463(18) 0.4284(3)
H61 H 0.506586 0.768583 0.413765
C56 C 0.5158(3) 0.4467(19) 0.4416(3)
H62 H 0.544964 0.434097 0.436131
C57 C 0.4962(3) 0.2678(18) 0.4624(3)
H63 H 0.511905 0.132124 0.470988
C58 C 0.4536(3) 0.2833(15) 0.4710(2)
H64 H 0.440272 0.159754 0.485503
C59 C 0.3339(3) -0.1652(15) 0.3656(2)
C60 C 0.4025(3) -0.2304(15) 0.3433(2)
H65 H 0.390514 -0.290374 0.318638
H66 H 0.407932 -0.371008 0.360272
C61 C 0.4430(3) -0.0995(15) 0.3357(2)
C62 C 0.4705(3) -0.1997(19) 0.3089(3)
H67 H 0.462841 -0.342766 0.295420
C63 C 0.5093(3) -0.091(2) 0.3017(3)
H68 H 0.527852 -0.158662 0.283252
C64 C 0.5205(4) 0.114(2) 0.3212(3)
H69 H 0.547200 0.185428 0.316730
C65 C 0.4931(4) 0.218(2) 0.3473(3)
H70 H 0.500519 0.364164 0.360108
C66 C 0.4552(3) 0.1097(17) 0.3547(2)
H71 H 0.436918 0.179293 0.373239
H72 H 0.323(3) 0.337(14) 0.382(2)
Br3 Br 0.40523(4) 1.4419(2) 0.13740(3)
O11 O 0.2153(2) 0.7059(11) 0.03106(16)
O12 O 0.13810(19) 0.9594(11) 0.20403(17)
O13 O 0.13488(18) 0.5663(11) 0.18505(16)
O14 O 0.18804(19) 1.3793(11) 0.11146(16)
O15 O 0.13493(18) 1.1073(11) 0.11384(16)
N7 N 0.2413(2) 0.8511(14) 0.05418(18)
N8 N 0.1954(2) 1.0253(12) 0.1448(2)
N9 N 0.1779(2) 0.8058(12) 0.15466(19)
C67 C 0.2691(2) 0.8706(14) 0.1402(2)
H73 H 0.252507 0.750770 0.124830
C68 C 0.2392(2) 1.0680(16) 0.1567(2)
H74 H 0.248321 1.229405 0.146879
C69 C 0.2452(3) 1.062(2) 0.2009(2)
H75 H 0.258215 1.213214 0.210276
H76 H 0.217823 1.039512 0.214018
C70 C 0.2732(3) 0.853(2) 0.2083(2)
H77 H 0.280971 0.799218 0.233395
C71 C 0.2861(3) 0.7525(17) 0.1763(2)
H78 H 0.304487 0.617230 0.175882
C72 C 0.3050(2) 0.9734(16) 0.1154(2)
C73 C 0.3337(2) 1.1280(17) 0.1334(2)
H79 H 0.330222 1.169412 0.159808
C74 C 0.3673(3) 1.2214(16) 0.1127(3)
C75 C 0.3741(3) 1.159(2) 0.0752(3)
H80 H 0.397585 1.220570 0.061535
C76 C 0.3459(3) 1.0021(18) 0.0572(2)
H81 H 0.350838 0.953081 0.031332
C77 C 0.3100(3) 0.9148(16) 0.0766(2)
C78 C 0.2790(3) 0.7684(16) 0.0549(2)
C79 C 0.2932(4) 0.545(2) 0.0336(3)
H82 H 0.277492 0.405037 0.043039
H83 H 0.323346 0.520069 0.038185
H84 H 0.287997 0.565644 0.005877
C80 C 0.1742(3) 0.8054(18) 0.0310(3)
H85 H 0.175096 0.980631 0.025486
H86 H 0.160500 0.780248 0.056335
C81 C 0.1505(3) 0.6706(19) -0.0009(3)
H87 H 0.165966 0.688046 -0.025527
H88 H 0.149451 0.496668 0.005541
C82 C 0.1058(3) 0.7639(18) -0.0065(3)
H89 H 0.089678 0.645149 -0.021941
H90 H 0.092256 0.776275 0.019159
C83 C 0.1034(4) 1.007(2) -0.0262(3)
H91 H 0.118071 0.998849 -0.051001
H92 H 0.116669 1.129207 -0.009750
H93 H 0.073837 1.049453 -0.030671
C84 C 0.1485(2) 0.7946(15) 0.1839(2)
C85 C 0.1047(3) 0.5149(17) 0.2156(2)
H94 H 0.110043 0.624361 0.237727
H95 H 0.108733 0.347029 0.224730
C86 C 0.0599(3) 0.5468(16) 0.2018(2)
C87 C 0.0363(3) 0.7426(18) 0.2117(3)
H96 H 0.048429 0.866692 0.227160
C88 C -0.0053(3) 0.762(2) 0.1995(3)
H97 H -0.021791 0.896324 0.207263
C89 C -0.0227(3) 0.584(2) 0.1759(3)
H98 H -0.050815 0.599213 0.166718
C90 C 0.0012(3) 0.3852(19) 0.1660(3)
H99 H -0.010670 0.261293 0.150404
C91 C 0.0418(3) 0.3669(16) 0.1787(3)
H100 H 0.058026 0.229824 0.171675
C92 C 0.1736(3) 1.1874(15) 0.1224(2)
C93 C 0.1097(3) 1.2760(17) 0.0924(3)
H101 H 0.124879 1.329204 0.068983
H102 H 0.103657 1.419706 0.108443
C94 C 0.0692(3) 1.1507(15) 0.0812(2)
C95 C 0.0444(3) 1.2578(18) 0.0527(3)
H103 H 0.054055 1.399804 0.040204
C96 C 0.0060(3) 1.162(2) 0.0423(3)
H104 H -0.011085 1.240518 0.023576
C97 C -0.0077(3) 0.948(2) 0.0594(3)
H105 H -0.033767 0.879051 0.051815
C98 C 0.0168(3) 0.837(2) 0.0875(3)
H106 H 0.007483 0.692499 0.099425
C99 C 0.0553(3) 0.9393(16) 0.0982(2)
H107 H 0.072205 0.862950 0.117424
H108 H 0.184(3) 0.700(16) 0.135(2)
Br4 Br 0.89759(4) 0.1027(3) 0.12059(4)
O16 O 0.69910(19) 0.7933(11) 0.21754(16)
O17 O 0.63289(18) 0.5634(11) 0.03780(16)
O18 O 0.63062(17) 0.9592(11) 0.05522(16)
O19 O 0.68099(18) 0.1437(10) 0.13226(15)
O20 O 0.62684(17) 0.4109(11) 0.12750(15)
N10 N 0.7281(2) 0.6589(13) 0.19544(18)
N11 N 0.68832(19) 0.4974(11) 0.09951(18)
N12 N 0.6704(2) 0.7154(12) 0.08913(17)
C100 C 0.7611(2) 0.6566(14) 0.1099(2)
H109 H 0.743002 0.770520 0.124806
C101 C 0.7328(2) 0.4608(15) 0.0906(2)
H110 H 0.741706 0.297752 0.099969
C102 C 0.7406(3) 0.4774(19) 0.0466(2)
H111 H 0.754418 0.329276 0.036851
H112 H 0.713897 0.502091 0.032259
C103 C 0.7692(3) 0.6937(19) 0.0425(2)
H113 H 0.778500 0.754672 0.018336
C104 C 0.7797(3) 0.7879(17) 0.0759(2)
H114 H 0.797338 0.925510 0.078413
C105 C 0.7950(2) 0.5546(14) 0.1367(2)
C106 C 0.8252(3) 0.4068(17) 0.1203(2)
H115 H 0.823590 0.364738 0.093712
C107 C 0.8584(3) 0.3200(18) 0.1435(3)
C108 C 0.8623(3) 0.3824(19) 0.1816(3)
H116 H 0.885118 0.323981 0.196807
C109 C 0.8323(3) 0.5326(19) 0.1973(2)
H117 H 0.835258 0.582469 0.223479
C110 C 0.7973(2) 0.6143(15) 0.1758(2)
C111 C 0.7640(3) 0.7549(16) 0.1966(2)
C112 C 0.7757(4) 0.982(2) 0.2174(3)
H118 H 0.761363 1.119632 0.205154
H119 H 0.806180 1.006148 0.216087
H120 H 0.767069 0.970493 0.244450
C113 C 0.6576(3) 0.7029(18) 0.2095(2)
H121 H 0.656661 0.526431 0.213868
H122 H 0.649994 0.734714 0.182138
C114 C 0.6271(3) 0.8287(17) 0.2359(2)
H123 H 0.598097 0.794891 0.226891
H124 H 0.631696 1.005110 0.234060
C115 C 0.6311(3) 0.7526(16) 0.2783(2)
H125 H 0.661251 0.753265 0.285767
H126 H 0.616540 0.872900 0.294611
C116 C 0.6129(3) 0.5036(19) 0.2864(3)
H127 H 0.613505 0.472882 0.314319
H128 H 0.629611 0.380872 0.273128
H129 H 0.583731 0.497015 0.277060
C117 C 0.6435(2) 0.7297(14) 0.0588(2)
C118 C 0.5990(3) 1.0051(16) 0.0254(2)
H130 H 0.603538 0.894598 0.003303
H131 H 0.601798 1.172833 0.015882
C119 C 0.5556(3) 0.9682(15) 0.0410(2)
C120 C 0.5322(3) 0.7619(16) 0.0315(3)
H132 H 0.543585 0.644331 0.014506
C121 C 0.4926(3) 0.7301(18) 0.0468(3)
H133 H 0.476917 0.589573 0.040465
C122 C 0.4756(3) 0.900(2) 0.0712(3)
H134 H 0.448396 0.876743 0.081739
C123 C 0.4987(3) 1.106(2) 0.0804(3)
H135 H 0.487093 1.224707 0.097039
C124 C 0.5384(3) 1.1390(17) 0.0653(3)
H136 H 0.554010 1.279919 0.071694
C125 C 0.6665(2) 0.3344(14) 0.1212(2)
C126 C 0.6015(3) 0.2470(14) 0.1501(2)
H137 H 0.618559 0.178568 0.171523
H138 H 0.591434 0.112357 0.133695
C127 C 0.5648(2) 0.3839(14) 0.1661(2)
C128 C 0.5493(3) 0.5895(16) 0.1489(2)
H139 H 0.562072 0.650557 0.126205
C129 C 0.5147(3) 0.7094(18) 0.1648(3)
H140 H 0.503787 0.850707 0.152843
C130 C 0.4966(3) 0.6201(19) 0.1981(3)
H141 H 0.473226 0.701450 0.209159
C131 C 0.5122(3) 0.4121(19) 0.2156(3)
H142 H 0.499692 0.351918 0.238499
C132 C 0.5460(3) 0.2938(17) 0.1993(3)
H143 H 0.556485 0.150074 0.210814
H144 H 0.673(3) 0.830(15) 0.108(2)
loop_
_geom_bond_atom_site_label_1
_geom_bond_atom_site_label_2
_geom_bond_site_symmetry_1
_geom_bond_site_symmetry_2
Br1 C8 1_555 1_555
O1 N1 1_555 1_555
O2 C18 1_555 1_555
O3 C18 1_555 1_555
O4 C26 1_555 1_555
O5 C26 1_555 1_555
N1 C12 1_555 1_555
N2 N3 1_555 1_555
N3 C18 1_555 1_555
C1 H1 1_555 1_555
C2 N2 1_555 1_555
H2 C2 1_555 1_555
C3 C2 1_555 1_555
H3 C3 1_555 1_555
H4 C3 1_555 1_555
C4 C3 1_555 1_555
H5 C4 1_555 1_555
C5 C1 1_555 1_555
H6 C5 1_555 1_555
C6 C1 1_555 1_555
C7 C6 1_555 1_555
H7 C7 1_555 1_555
C8 C7 1_555 1_555
C9 C8 1_555 1_555
H8 C9 1_555 1_555
C10 C9 1_555 1_555
H9 C10 1_555 1_555
C11 C6 1_555 1_555
C12 C11 1_555 1_555
C13 C12 1_555 1_555
H10 C13 1_555 1_555
H11 C13 1_555 1_555
H12 C13 1_555 1_555
C14 O1 1_555 1_555
H13 C14 1_555 1_555
H14 C14 1_555 1_555
C15 C14 1_555 1_555
H15 C15 1_555 1_555
H16 C15 1_555 1_555
C16 C15 1_555 1_555
H17 C16 1_555 1_555
H18 C16 1_555 1_555
C17 C16 1_555 1_555
H19 C17 1_555 1_555
H20 C17 1_555 1_555
H21 C17 1_555 1_555
C19 O3 1_555 1_555
H22 C19 1_555 1_555
H23 C19 1_555 1_555
C20 C19 1_555 1_555
C21 C20 1_555 1_555
H24 C21 1_555 1_555
C22 C21 1_555 1_555
H25 C22 1_555 1_555
C23 C22 1_555 1_555
H26 C23 1_555 1_555
C24 C23 1_555 1_555
H27 C24 1_555 1_555
C25 C20 1_555 1_555
H28 C25 1_555 1_555
C26 N2 1_555 1_555
C27 O5 1_555 1_555
H29 C27 1_555 1_555
H30 C27 1_555 1_555
C28 C27 1_555 1_555
C29 C28 1_555 1_555
H31 C29 1_555 1_555
C30 C29 1_555 1_555
H32 C30 1_555 1_555
C31 C30 1_555 1_555
H33 C31 1_555 1_555
C32 C31 1_555 1_555
H34 C32 1_555 1_555
C33 C28 1_555 1_555
H35 C33 1_555 1_555
H36 N3 1_555 1_555
Br2 C41 1_555 1_555
O6 N4 1_555 1_555
O7 C51 1_555 1_555
O8 C51 1_555 1_555
O9 C59 1_555 1_555
O10 C59 1_555 1_555
N4 C45 1_555 1_555
N5 N6 1_555 1_555
N6 C51 1_555 1_555
C34 H37 1_555 1_555
C35 N5 1_555 1_555
H38 C35 1_555 1_555
C36 C35 1_555 1_555
H39 C36 1_555 1_555
H40 C36 1_555 1_555
C37 C36 1_555 1_555
H41 C37 1_555 1_555
C38 C34 1_555 1_555
H42 C38 1_555 1_555
C39 C34 1_555 1_555
C40 C39 1_555 1_555
H43 C40 1_555 1_555
C41 C40 1_555 1_555
C42 C41 1_555 1_555
H44 C42 1_555 1_555
C43 C42 1_555 1_555
H45 C43 1_555 1_555
C44 C39 1_555 1_555
C45 C44 1_555 1_555
C46 C45 1_555 1_555
H46 C46 1_555 1_555
H47 C46 1_555 1_555
H48 C46 1_555 1_555
C47 O6 1_555 1_555
H49 C47 1_555 1_555
H50 C47 1_555 1_555
C48 C47 1_555 1_555
H51 C48 1_555 1_555
H52 C48 1_555 1_555
C49 C48 1_555 1_555
H53 C49 1_555 1_555
H54 C49 1_555 1_555
C50 C49 1_555 1_555
H55 C50 1_555 1_555
H56 C50 1_555 1_555
H57 C50 1_555 1_555
C52 O8 1_555 1_555
H58 C52 1_555 1_555
H59 C52 1_555 1_555
C53 C52 1_555 1_555
C54 C53 1_555 1_555
H60 C54 1_555 1_555
C55 C54 1_555 1_555
H61 C55 1_555 1_555
C56 C55 1_555 1_555
H62 C56 1_555 1_555
C57 C56 1_555 1_555
H63 C57 1_555 1_555
C58 C53 1_555 1_555
H64 C58 1_555 1_555
C59 N5 1_555 1_555
C60 O10 1_555 1_555
H65 C60 1_555 1_555
H66 C60 1_555 1_555
C61 C60 1_555 1_555
C62 C61 1_555 1_555
H67 C62 1_555 1_555
C63 C62 1_555 1_555
H68 C63 1_555 1_555
C64 C63 1_555 1_555
H69 C64 1_555 1_555
C65 C64 1_555 1_555
H70 C65 1_555 1_555
C66 C61 1_555 1_555
H71 C66 1_555 1_555
H72 N6 1_555 1_555
Br3 C74 1_555 1_555
O11 N7 1_555 1_555
O12 C84 1_555 1_555
O13 C84 1_555 1_555
O14 C92 1_555 1_555
O15 C92 1_555 1_555
N7 C78 1_555 1_555
N8 N9 1_555 1_555
N9 C84 1_555 1_555
C67 H73 1_555 1_555
C68 N8 1_555 1_555
H74 C68 1_555 1_555
C69 C68 1_555 1_555
H75 C69 1_555 1_555
H76 C69 1_555 1_555
C70 C69 1_555 1_555
H77 C70 1_555 1_555
C71 C67 1_555 1_555
H78 C71 1_555 1_555
C72 C67 1_555 1_555
C73 C72 1_555 1_555
H79 C73 1_555 1_555
C74 C73 1_555 1_555
C75 C74 1_555 1_555
H80 C75 1_555 1_555
C76 C75 1_555 1_555
H81 C76 1_555 1_555
C77 C72 1_555 1_555
C78 C77 1_555 1_555
C79 C78 1_555 1_555
H82 C79 1_555 1_555
H83 C79 1_555 1_555
H84 C79 1_555 1_555
C80 O11 1_555 1_555
H85 C80 1_555 1_555
H86 C80 1_555 1_555
C81 C80 1_555 1_555
H87 C81 1_555 1_555
H88 C81 1_555 1_555
C82 C81 1_555 1_555
H89 C82 1_555 1_555
H90 C82 1_555 1_555
C83 C82 1_555 1_555
H91 C83 1_555 1_555
H92 C83 1_555 1_555
H93 C83 1_555 1_555
C85 O13 1_555 1_555
H94 C85 1_555 1_555
H95 C85 1_555 1_555
C86 C85 1_555 1_555
C87 C86 1_555 1_555
H96 C87 1_555 1_555
C88 C87 1_555 1_555
H97 C88 1_555 1_555
C89 C88 1_555 1_555
H98 C89 1_555 1_555
C90 C89 1_555 1_555
H99 C90 1_555 1_555
C91 C86 1_555 1_555
H100 C91 1_555 1_555
C92 N8 1_555 1_555
C93 O15 1_555 1_555
H101 C93 1_555 1_555
H102 C93 1_555 1_555
C94 C93 1_555 1_555
C95 C94 1_555 1_555
H103 C95 1_555 1_555
C96 C95 1_555 1_555
H104 C96 1_555 1_555
C97 C96 1_555 1_555
H105 C97 1_555 1_555
C98 C97 1_555 1_555
H106 C98 1_555 1_555
C99 C94 1_555 1_555
H107 C99 1_555 1_555
H108 N9 1_555 1_555
Br4 C107 1_555 1_555
O16 N10 1_555 1_555
O17 C117 1_555 1_555
O18 C117 1_555 1_555
O19 C125 1_555 1_555
O20 C125 1_555 1_555
N10 C111 1_555 1_555
N11 N12 1_555 1_555
N12 C117 1_555 1_555
C100 H109 1_555 1_555
C101 N11 1_555 1_555
H110 C101 1_555 1_555
C102 C101 1_555 1_555
H111 C102 1_555 1_555
H112 C102 1_555 1_555
C103 C102 1_555 1_555
H113 C103 1_555 1_555
C104 C100 1_555 1_555
H114 C104 1_555 1_555
C105 C100 1_555 1_555
C106 C105 1_555 1_555
H115 C106 1_555 1_555
C107 C106 1_555 1_555
C108 C107 1_555 1_555
H116 C108 1_555 1_555
C109 C108 1_555 1_555
H117 C109 1_555 1_555
C110 C105 1_555 1_555
C111 C110 1_555 1_555
C112 C111 1_555 1_555
H118 C112 1_555 1_555
H119 C112 1_555 1_555
H120 C112 1_555 1_555
C113 O16 1_555 1_555
H121 C113 1_555 1_555
H122 C113 1_555 1_555
C114 C113 1_555 1_555
H123 C114 1_555 1_555
H124 C114 1_555 1_555
C115 C114 1_555 1_555
H125 C115 1_555 1_555
H126 C115 1_555 1_555
C116 C115 1_555 1_555
H127 C116 1_555 1_555
H128 C116 1_555 1_555
H129 C116 1_555 1_555
C118 O18 1_555 1_555
H130 C118 1_555 1_555
H131 C118 1_555 1_555
C119 C118 1_555 1_555
C120 C119 1_555 1_555
H132 C120 1_555 1_555
C121 C120 1_555 1_555
H133 C121 1_555 1_555
C122 C121 1_555 1_555
H134 C122 1_555 1_555
C123 C122 1_555 1_555
H135 C123 1_555 1_555
C124 C119 1_555 1_555
H136 C124 1_555 1_555
C125 N11 1_555 1_555
C126 O20 1_555 1_555
H137 C126 1_555 1_555
H138 C126 1_555 1_555
C127 C126 1_555 1_555
C128 C127 1_555 1_555
H139 C128 1_555 1_555
C129 C128 1_555 1_555
H140 C129 1_555 1_555
C130 C129 1_555 1_555
H141 C130 1_555 1_555
C131 C130 1_555 1_555
H142 C131 1_555 1_555
C132 C127 1_555 1_555
H143 C132 1_555 1_555
H144 N12 1_555 1_555
C1 C2 1_555 1_555
C4 C5 1_555 1_555
C10 C11 1_555 1_555
C24 C25 1_555 1_555
C32 C33 1_555 1_555
C34 C35 1_555 1_555
C37 C38 1_555 1_555
C43 C44 1_555 1_555
C57 C58 1_555 1_555
C65 C66 1_555 1_555
C67 C68 1_555 1_555
C70 C71 1_555 1_555
C76 C77 1_555 1_555
C90 C91 1_555 1_555
C98 C99 1_555 1_555
C100 C101 1_555 1_555
C103 C104 1_555 1_555
C109 C110 1_555 1_555
C123 C124 1_555 1_555
C131 C132 1_555 1_555

#END
