
#######################################################################
#
#                 Cambridge Crystallographic Data Centre
#                                CCDC 
#
#######################################################################
#
# If this CIF has been generated from an entry in the Cambridge 
# Structural Database, then it will include bibliographic, chemical, 
# crystal, experimental, refinement or atomic coordinate data resulting 
# from the CCDC's data processing and validation procedures.
#
#######################################################################

data_GISBAN
_chemical_formula_moiety         'C29 H27 N1 O4'
_chemical_name_systematic        
10,13-dimethoxy-4-propyl-6,7-dihydro-1H-dinaphtho[2,1-e:1',2'-g]isoindole-3,5(2H,4H)-dione
_symmetry_cell_setting           monoclinic
_symmetry_space_group_name_H-M   'P 21/n'
_symmetry_Int_Tables_number      14
_space_group_name_Hall           '-P 2yn'
loop_
_symmetry_equiv_pos_site_id
_symmetry_equiv_pos_as_xyz
1 x,y,z
2 1/2-x,1/2+y,1/2-z
3 -x,-y,-z
4 1/2+x,1/2-y,1/2+z
_cell_length_a                   15.388(6)
_cell_length_b                   6.680(3)
_cell_length_c                   22.363(9)
_cell_angle_alpha                90
_cell_angle_beta                 93.69(3)
_cell_angle_gamma                90
_cell_volume                     2293.97
_exptl_crystal_colour            yellow
_exptl_crystal_description       block
_cell_formula_units_Z            4
loop_
_atom_site_label
_atom_site_type_symbol
_atom_site_fract_x
_atom_site_fract_y
_atom_site_fract_z
O1 O 0.53449(9) 0.8774(2) 0.68543(6)
O2 O 0.55929(10) 0.6787(2) 0.46703(7)
O3 O 1.10788(11) 0.8159(3) 0.68631(7)
O4 O 1.07111(11) 1.3059(3) 0.54512(8)
N1 N 1.10938(11) 1.0767(3) 0.61900(8)
C1 C 1.3038(2) 1.3824(7) 0.67458(15)
H1 H 1.3079 1.5041 0.6991
H2 H 1.3216 1.4125 0.6343
H3 H 1.3421 1.2792 0.6929
C2 C 1.2130(2) 1.3095(6) 0.67073(14)
H4 H 1.1737 1.4197 0.6568
H5 H 1.1968 1.2687 0.7111
C3 C 1.20053(15) 1.1324(4) 0.62793(11)
H6 H 1.2231 1.1679 0.5888
H7 H 1.2344 1.0166 0.6444
C4 C 1.07052(14) 0.9215(3) 0.64900(9)
C5 C 0.97760(13) 0.9204(3) 0.62576(8)
C6 C 0.96564(13) 1.0710(3) 0.58275(8)
C7 C 1.05105(15) 1.1714(3) 0.57748(10)
C8 C 0.88600(13) 1.1051(3) 0.55222(8)
C9 C 0.81518(12) 0.9837(3) 0.56714(8)
C10 C 0.73407(12) 0.9989(3) 0.52689(8)
C11 C 0.67898(13) 0.8366(3) 0.51515(8)
H8 H 0.6909 0.7136 0.5353
C12 C 0.60685(13) 0.8501(3) 0.47463(8)
C13 C 0.58823(14) 1.0297(3) 0.44501(9)
H9 H 0.5383 1.0420 0.4180
C14 C 0.64387(14) 1.1898(3) 0.45568(9)
H10 H 0.6315 1.3121 0.4352
C15 C 0.71736(13) 1.1790(3) 0.49515(8)
C16 C 0.78070(15) 1.3478(3) 0.50443(9)
H11 H 0.7711 1.4166 0.5427
H12 H 0.7716 1.4462 0.4715
C17 C 0.87298(14) 1.2682(3) 0.50588(9)
H13 H 0.8848 1.2145 0.4659
H14 H 0.9145 1.3786 0.5154
C18 C 0.48655(14) 0.6807(4) 0.42401(10)
H15 H 0.4449 0.7830 0.4351
H16 H 0.4583 0.5491 0.4231
H17 H 0.5066 0.7112 0.3843
C19 C 0.90932(13) 0.8043(3) 0.64240(8)
C20 C 0.92165(14) 0.6312(3) 0.68590(9)
H18 H 0.9155 0.6792 0.7273
H19 H 0.9808 0.5746 0.6837
C21 C 0.85381(14) 0.4701(3) 0.67028(9)
H20 H 0.8626 0.4146 0.6301
H21 H 0.8597 0.3596 0.6998
C22 C 0.76496(14) 0.5618(3) 0.67108(8)
C23 C 0.69787(15) 0.4743(3) 0.69982(9)
H22 H 0.7061 0.3446 0.7167
C24 C 0.61851(14) 0.5710(3) 0.70473(8)
H23 H 0.5726 0.5073 0.7238
C25 C 0.60781(13) 0.7626(3) 0.68115(8)
C26 C 0.67399(13) 0.8520(3) 0.65149(8)
H24 H 0.6661 0.9831 0.6356
C27 C 0.75175(13) 0.7516(3) 0.64476(7)
C28 C 0.82524(12) 0.8470(3) 0.61569(8)
C29 C 0.46289(16) 0.7913(4) 0.71309(11)
H25 H 0.4805 0.7570 0.7547
H26 H 0.4440 0.6699 0.6913
H27 H 0.4148 0.8875 0.7123
loop_
_geom_bond_atom_site_label_1
_geom_bond_atom_site_label_2
_geom_bond_site_symmetry_1
_geom_bond_site_symmetry_2
O1 C25 1_555 1_555
O2 C12 1_555 1_555
O3 C4 1_555 1_555
O4 C7 1_555 1_555
N1 C3 1_555 1_555
C1 H1 1_555 1_555
H2 C1 1_555 1_555
H3 C1 1_555 1_555
C2 C1 1_555 1_555
H4 C2 1_555 1_555
H5 C2 1_555 1_555
C3 C2 1_555 1_555
H6 C3 1_555 1_555
H7 C3 1_555 1_555
C4 N1 1_555 1_555
C5 C4 1_555 1_555
C6 C5 1_555 1_555
C7 N1 1_555 1_555
C8 C6 1_555 1_555
C9 C8 1_555 1_555
C10 C9 1_555 1_555
C11 C10 1_555 1_555
H8 C11 1_555 1_555
C12 C11 1_555 1_555
C13 C12 1_555 1_555
H9 C13 1_555 1_555
C14 C13 1_555 1_555
H10 C14 1_555 1_555
C15 C10 1_555 1_555
C16 C15 1_555 1_555
H11 C16 1_555 1_555
H12 C16 1_555 1_555
C17 C8 1_555 1_555
H13 C17 1_555 1_555
H14 C17 1_555 1_555
C18 O2 1_555 1_555
H15 C18 1_555 1_555
H16 C18 1_555 1_555
H17 C18 1_555 1_555
C19 C5 1_555 1_555
C20 C19 1_555 1_555
H18 C20 1_555 1_555
H19 C20 1_555 1_555
C21 C20 1_555 1_555
H20 C21 1_555 1_555
H21 C21 1_555 1_555
C22 C21 1_555 1_555
C23 C22 1_555 1_555
H22 C23 1_555 1_555
C24 C23 1_555 1_555
H23 C24 1_555 1_555
C25 C24 1_555 1_555
C26 C25 1_555 1_555
H24 C26 1_555 1_555
C27 C22 1_555 1_555
C28 C9 1_555 1_555
C29 O1 1_555 1_555
H25 C29 1_555 1_555
H26 C29 1_555 1_555
H27 C29 1_555 1_555
C6 C7 1_555 1_555
C14 C15 1_555 1_555
C16 C17 1_555 1_555
C19 C28 1_555 1_555
C26 C27 1_555 1_555
C27 C28 1_555 1_555

#END
