
#######################################################################
#
#                 Cambridge Crystallographic Data Centre
#                                CCDC 
#
#######################################################################
#
# If this CIF has been generated from an entry in the Cambridge 
# Structural Database, then it will include bibliographic, chemical, 
# crystal, experimental, refinement or atomic coordinate data resulting 
# from the CCDC's data processing and validation procedures.
#
#######################################################################

data_GISCOB
_chemical_formula_moiety         'C20 H12 Br2 N2'
_chemical_name_systematic        2,3-bis(4-bromophenyl)quinoxaline
_symmetry_cell_setting           triclinic
_symmetry_space_group_name_H-M   'P -1'
_symmetry_Int_Tables_number      2
_space_group_name_Hall           '-P 1'
loop_
_symmetry_equiv_pos_site_id
_symmetry_equiv_pos_as_xyz
1 x,y,z
2 -x,-y,-z
_cell_length_a                   6.0830(12)
_cell_length_b                   12.018(2)
_cell_length_c                   12.323(3)
_cell_angle_alpha                105.47(3)
_cell_angle_beta                 91.89(3)
_cell_angle_gamma                97.47(3)
_cell_volume                     858.711
_cell_formula_units_Z            2
_exptl_crystal_recrystallization_method tetrahydrofuran
loop_
_atom_site_label
_atom_site_type_symbol
_atom_site_fract_x
_atom_site_fract_y
_atom_site_fract_z
Br1 Br 0.47031(12) 0.83130(5) 0.45247(6)
Br2 Br -0.24223(11) 0.30938(6) -0.14438(6)
N1 N 0.7857(7) 0.2921(4) 0.3229(4)
N2 N 0.4951(8) 0.1176(4) 0.1656(4)
C1 C 0.3718(9) 0.4705(5) 0.3533(5)
H1 H 0.2564 0.4116 0.3532
C2 C 0.3425(9) 0.5854(5) 0.3977(5)
H2 H 0.2112 0.6041 0.4297
C3 C 0.5130(10) 0.6720(5) 0.3936(5)
C4 C 0.7127(10) 0.6469(5) 0.3496(5)
H3 H 0.8255 0.7065 0.3480
C5 C 0.7412(9) 0.5309(5) 0.3078(5)
H4 H 0.8755 0.5129 0.2789
C6 C 0.5720(9) 0.4407(4) 0.3082(4)
C7 C 0.6106(9) 0.3173(4) 0.2700(4)
C8 C 0.8169(9) 0.1783(5) 0.2990(5)
C9 C 0.9999(10) 0.1469(6) 0.3534(5)
H5 H 1.1007 0.2046 0.4025
C10 C 1.0281(12) 0.0335(6) 0.3342(6)
H6 H 1.1480 0.0130 0.3695
C11 C 0.8729(12) -0.0534(6) 0.2597(6)
H7 H 0.8904 -0.1314 0.2479
C12 C 0.7000(11) -0.0263(5) 0.2052(6)
H8 H 0.6031 -0.0852 0.1551
C13 C 0.6657(9) 0.0901(5) 0.2238(5)
C14 C 0.4677(8) 0.2285(4) 0.1856(5)
C15 C 0.2918(9) 0.2540(5) 0.1121(4)
C16 C 0.3189(10) 0.3520(5) 0.0707(5)
H9 H 0.4455 0.4071 0.0940
C17 C 0.1619(10) 0.3685(5) -0.0041(5)
H10 H 0.1836 0.4330 -0.0326
C18 C -0.0301(9) 0.2875(5) -0.0366(5)
C19 C -0.0638(10) 0.1897(5) 0.0024(5)
H11 H -0.1927 0.1362 -0.0200
C20 C 0.0981(9) 0.1728(5) 0.0755(5)
H12 H 0.0783 0.1062 0.1010
loop_
_geom_bond_atom_site_label_1
_geom_bond_atom_site_label_2
_geom_bond_site_symmetry_1
_geom_bond_site_symmetry_2
Br1 C3 1_555 1_555
Br2 C18 1_555 1_555
N1 C7 1_555 1_555
N2 C13 1_555 1_555
C1 H1 1_555 1_555
C2 C1 1_555 1_555
H2 C2 1_555 1_555
C3 C2 1_555 1_555
C4 C3 1_555 1_555
H3 C4 1_555 1_555
C5 C4 1_555 1_555
H4 C5 1_555 1_555
C6 C1 1_555 1_555
C7 C6 1_555 1_555
C8 N1 1_555 1_555
C9 C8 1_555 1_555
H5 C9 1_555 1_555
C10 C9 1_555 1_555
H6 C10 1_555 1_555
C11 C10 1_555 1_555
H7 C11 1_555 1_555
C12 C11 1_555 1_555
H8 C12 1_555 1_555
C13 C8 1_555 1_555
C14 N2 1_555 1_555
C15 C14 1_555 1_555
C16 C15 1_555 1_555
H9 C16 1_555 1_555
C17 C16 1_555 1_555
H10 C17 1_555 1_555
C18 C17 1_555 1_555
C19 C18 1_555 1_555
H11 C19 1_555 1_555
C20 C15 1_555 1_555
H12 C20 1_555 1_555
C5 C6 1_555 1_555
C7 C14 1_555 1_555
C12 C13 1_555 1_555
C19 C20 1_555 1_555

#END
