
#######################################################################
#
#                 Cambridge Crystallographic Data Centre
#                                CCDC 
#
#######################################################################
#
# If this CIF has been generated from an entry in the Cambridge 
# Structural Database, then it will include bibliographic, chemical, 
# crystal, experimental, refinement or atomic coordinate data resulting 
# from the CCDC's data processing and validation procedures.
#
#######################################################################

data_GISDIX
_chemical_formula_moiety         'C12 H10 N4 O3'
_chemical_name_systematic        
1-oxido-3-(4-nitrophenyl)-1-phenyl-triaz-1-ene
_symmetry_cell_setting           monoclinic
_symmetry_space_group_name_H-M   'P 21/c'
_symmetry_Int_Tables_number      14
_space_group_name_Hall           '-P 2ybc'
loop_
_symmetry_equiv_pos_site_id
_symmetry_equiv_pos_as_xyz
1 x,y,z
2 -x,1/2+y,1/2-z
3 -x,-y,-z
4 x,1/2-y,1/2+z
_cell_length_a                   13.073
_cell_length_b                   7.006
_cell_length_c                   13.116
_cell_angle_alpha                90
_cell_angle_beta                 93.74
_cell_angle_gamma                90
_cell_volume                     1198.73
_exptl_crystal_colour            orange
_exptl_crystal_description       block
_cell_formula_units_Z            4
loop_
_atom_site_label
_atom_site_type_symbol
_atom_site_fract_x
_atom_site_fract_y
_atom_site_fract_z
C1 C 0.76612(15) 0.1173(2) 0.12024(16)
C2 C 0.81906(16) 0.1634(3) 0.03682(18)
H1 H 0.7845 0.1776 -0.027
C3 C 0.92385(19) 0.1886(3) 0.0479(2)
H2 H 0.9602 0.2198 -0.0084
C4 C 0.9736(2) 0.1676(4) 0.1414(3)
H3 H 1.044 0.187 0.1489
C5 C 0.92107(19) 0.1178(4) 0.2254(2)
H4 H 0.9563 0.1014 0.2887
C6 C 0.81552(17) 0.0923(3) 0.21538(18)
H5 H 0.7791 0.0592 0.2714
C7 C 0.43709(15) 0.0878(2) 0.23991(14)
C8 C 0.47066(16) 0.1088(3) 0.34201(15)
H6 H 0.5404 0.116 0.361
C9 C 0.39958(17) 0.1188(3) 0.41478(16)
H7 H 0.4211 0.1327 0.4834
C10 C 0.29670(16) 0.1085(2) 0.38593(16)
C11 C 0.26308(16) 0.0856(3) 0.28541(17)
H8 H 0.1933 0.0779 0.2669
C12 C 0.33343(16) 0.0741(3) 0.21259(16)
H9 H 0.3113 0.057 0.1444
N1 N 0.22205(19) 0.1252(3) 0.46324(19)
N2 N 0.65644(12) 0.09802(19) 0.10562(13)
N3 N 0.60493(13) 0.09917(19) 0.18569(12)
N4 N 0.50452(12) 0.0832(2) 0.16262(12)
H10 H 0.4816 0.07 0.1
O1 O 0.61355(10) 0.08676(19) 0.01478(11)
O2 O 0.13117(17) 0.1450(3) 0.43405(16)
O3 O 0.25275(17) 0.1156(3) 0.55336(16)
loop_
_geom_bond_atom_site_label_1
_geom_bond_atom_site_label_2
_geom_bond_site_symmetry_1
_geom_bond_site_symmetry_2
C1 C2 1_555 1_555
C2 H1 1_555 1_555
C3 C2 1_555 1_555
H2 C3 1_555 1_555
C4 C3 1_555 1_555
H3 C4 1_555 1_555
C5 C4 1_555 1_555
H4 C5 1_555 1_555
C6 C1 1_555 1_555
H5 C6 1_555 1_555
C7 C8 1_555 1_555
C8 H6 1_555 1_555
C9 C8 1_555 1_555
H7 C9 1_555 1_555
C10 C9 1_555 1_555
C11 C10 1_555 1_555
H8 C11 1_555 1_555
C12 C7 1_555 1_555
H9 C12 1_555 1_555
N1 C10 1_555 1_555
N2 C1 1_555 1_555
N3 N2 1_555 1_555
N4 C7 1_555 1_555
H10 N4 1_555 1_555
O1 N2 1_555 1_555
O2 N1 1_555 1_555
O3 N1 1_555 1_555
C5 C6 1_555 1_555
C11 C12 1_555 1_555
N3 N4 1_555 1_555

#END
