
#######################################################################
#
#                 Cambridge Crystallographic Data Centre
#                                CCDC 
#
#######################################################################
#
# If this CIF has been generated from an entry in the Cambridge 
# Structural Database, then it will include bibliographic, chemical, 
# crystal, experimental, refinement or atomic coordinate data resulting 
# from the CCDC's data processing and validation procedures.
#
#######################################################################

data_GISDIW
_chemical_name_common            N,N'-Disalicyloylhydrazine
_chemical_formula_moiety         'C14 H12 N2 O4'
_chemical_name_systematic        2-hydroxy-N'-(2-hydroxybenzoyl)benzohydrazide
_symmetry_cell_setting           monoclinic
_symmetry_space_group_name_H-M   'P 21/n'
_symmetry_Int_Tables_number      14
_space_group_name_Hall           '-P 2yn'
loop_
_symmetry_equiv_pos_site_id
_symmetry_equiv_pos_as_xyz
1 x,y,z
2 1/2-x,1/2+y,1/2-z
3 -x,-y,-z
4 1/2+x,1/2-y,1/2+z
_cell_length_a                   8.3816(18)
_cell_length_b                   6.2909(15)
_cell_length_c                   12.376(2)
_cell_angle_alpha                90
_cell_angle_beta                 105.463(2)
_cell_angle_gamma                90
_cell_volume                     628.939
_exptl_crystal_colour            colorless
_exptl_crystal_description       block
_chemical_melting_point          '565-567 K'
_cell_formula_units_Z            2
loop_
_atom_site_label
_atom_site_type_symbol
_atom_site_fract_x
_atom_site_fract_y
_atom_site_fract_z
N1 N 0.9962(3) 0.5894(4) 0.53095(19)
H1 H 1.0781 0.6229 0.5867
O1 O 0.7444(2) 0.6612(3) 0.42420(17)
O2 O 1.1131(3) 0.8180(4) 0.70745(18)
H2 H 1.1607 0.8443 0.7730
C1 C 0.8612(4) 0.7109(5) 0.5042(2)
C2 C 0.8605(3) 0.9011(4) 0.5739(2)
C3 C 0.9807(3) 0.9503(5) 0.6721(2)
C4 C 0.9670(4) 1.1325(5) 0.7318(3)
H3 H 1.0485 1.1646 0.7971
C5 C 0.8344(4) 1.2655(6) 0.6953(3)
H4 H 0.8257 1.3872 0.7360
C6 C 0.7137(4) 1.2198(5) 0.5984(3)
H5 H 0.6238 1.3105 0.5737
C7 C 0.7265(3) 1.0410(5) 0.5388(3)
H6 H 0.6446 1.0114 0.4734
N1B N 1.0038(3) 0.4106(4) 0.46905(19)
H1B H 0.9219 0.3771 0.4133
O1B O 1.2556(2) 0.3388(3) 0.57580(17)
O2B O 0.8869(3) 0.1820(4) 0.29255(18)
H2B H 0.8393 0.1557 0.2270
C1B C 1.1388(4) 0.2891(5) 0.4958(2)
C2B C 1.1395(3) 0.0989(4) 0.4261(2)
C3B C 1.0193(3) 0.0497(5) 0.3279(2)
C4B C 1.0330(4) -0.1325(5) 0.2682(3)
H3B H 0.9515 -0.1646 0.2029
C5B C 1.1656(4) -0.2655(6) 0.3047(3)
H4B H 1.1743 -0.3872 0.2640
C6B C 1.2863(4) -0.2198(5) 0.4016(3)
H5B H 1.3762 -0.3105 0.4263
C7B C 1.2735(3) -0.0410(5) 0.4612(3)
H6B H 1.3554 -0.0114 0.5266
loop_
_geom_bond_atom_site_label_1
_geom_bond_atom_site_label_2
_geom_bond_site_symmetry_1
_geom_bond_site_symmetry_2
N1 H1 1_555 1_555
O1 C1 1_555 1_555
O2 H2 1_555 1_555
C1 N1 1_555 1_555
C2 C1 1_555 1_555
C3 O2 1_555 1_555
C4 C3 1_555 1_555
H3 C4 1_555 1_555
C5 C4 1_555 1_555
H4 C5 1_555 1_555
C6 C5 1_555 1_555
H5 C6 1_555 1_555
C7 C2 1_555 1_555
H6 C7 1_555 1_555
N1B N1 1_555 1_555
H1B N1B 1_555 1_555
O1B C1B 1_555 1_555
O2B H2B 1_555 1_555
C1B N1B 1_555 1_555
C2B C1B 1_555 1_555
C3B O2B 1_555 1_555
C4B C3B 1_555 1_555
H3B C4B 1_555 1_555
C5B C4B 1_555 1_555
H4B C5B 1_555 1_555
C6B C5B 1_555 1_555
H5B C6B 1_555 1_555
C7B C2B 1_555 1_555
H6B C7B 1_555 1_555
C2 C3 1_555 1_555
C6 C7 1_555 1_555
C2B C3B 1_555 1_555
C6B C7B 1_555 1_555

#END
