
#######################################################################
#
#                 Cambridge Crystallographic Data Centre
#                                CCDC 
#
#######################################################################
#
# If this CIF has been generated from an entry in the Cambridge 
# Structural Database, then it will include bibliographic, chemical, 
# crystal, experimental, refinement or atomic coordinate data resulting 
# from the CCDC's data processing and validation procedures.
#
#######################################################################

data_GISFEW
_chemical_formula_moiety         'C15 H18 N2 O2'
_chemical_name_systematic        
1-benzyl-2,3,4,6,7,8-hexahydropyrrolo[1,2-a]pyrimidin-1-ium-8-carboxylate
_symmetry_cell_setting           orthorhombic
_symmetry_space_group_name_H-M   'P n a 21'
_symmetry_Int_Tables_number      33
_space_group_name_Hall           'P 2c -2n'
loop_
_symmetry_equiv_pos_site_id
_symmetry_equiv_pos_as_xyz
1 x,y,z
2 -x,-y,1/2+z
3 1/2+x,1/2-y,z
4 1/2-x,1/2+y,1/2+z
_cell_length_a                   18.040(5)
_cell_length_b                   10.132(3)
_cell_length_c                   7.284(2)
_cell_angle_alpha                90
_cell_angle_beta                 90
_cell_angle_gamma                90
_cell_volume                     1331.38
_exptl_crystal_colour            colorless
_exptl_crystal_description       block
_cell_formula_units_Z            4
loop_
_atom_site_label
_atom_site_type_symbol
_atom_site_fract_x
_atom_site_fract_y
_atom_site_fract_z
N1 N 0.40598(10) 0.18962(16) 0.1679(3)
O1 O 0.55041(10) 0.18845(16) 0.4552(3)
C1 C 0.58523(13) 0.3097(2) -0.0076(4)
H1 H 0.5918 0.3693 0.0954
H2 H 0.5800 0.3627 -0.1178
N2 N 0.51729(10) 0.23202(17) 0.0200(3)
C2 C 0.46948(13) 0.25544(19) 0.1531(3)
O2 O 0.56527(10) 0.39735(16) 0.5426(3)
C3 C 0.47876(13) 0.3531(2) 0.3061(3)
H3 H 0.4905 0.4407 0.2570
C4 C 0.53800(13) 0.3098(2) 0.4468(4)
C5 C 0.37886(13) 0.0944(2) 0.0323(4)
H4 H 0.3258 0.1044 0.0163
H5 H 0.3887 0.0052 0.0739
C6 C 0.65284(13) 0.2234(2) -0.0254(4)
C7 C 0.36664(14) 0.2207(2) 0.3380(4)
H6 H 0.3751 0.1535 0.4306
H7 H 0.3138 0.2292 0.3168
C8 C 0.40082(13) 0.3527(2) 0.3949(4)
H8 H 0.4044 0.3591 0.5274
H9 H 0.3713 0.4258 0.3497
C9 C 0.50106(14) 0.1284(2) -0.1170(4)
H10 H 0.5196 0.0441 -0.0737
H11 H 0.5257 0.1490 -0.2318
C10 C 0.68897(13) 0.2139(3) -0.1937(4)
H12 H 0.6719 0.2610 -0.2947
C11 C 0.41828(13) 0.1197(2) -0.1476(4)
H13 H 0.4075 0.0487 -0.2330
H14 H 0.4005 0.2015 -0.2009
C12 C 0.67862(15) 0.1517(2) 0.1243(4)
H15 H 0.6550 0.1590 0.2373
C13 C 0.73961(17) 0.0695(3) 0.1052(6)
H16 H 0.7558 0.0195 0.2045
C14 C 0.77627(15) 0.0617(3) -0.0602(7)
H17 H 0.8180 0.0084 -0.0718
C15 C 0.75084(15) 0.1332(3) -0.2089(6)
H18 H 0.7755 0.1271 -0.3207
loop_
_geom_bond_atom_site_label_1
_geom_bond_atom_site_label_2
_geom_bond_site_symmetry_1
_geom_bond_site_symmetry_2
N1 C2 1_555 1_555
O1 C4 1_555 1_555
C1 H1 1_555 1_555
H2 C1 1_555 1_555
N2 C1 1_555 1_555
C2 N2 1_555 1_555
O2 C4 1_555 1_555
C3 C2 1_555 1_555
H3 C3 1_555 1_555
C4 C3 1_555 1_555
C5 N1 1_555 1_555
H4 C5 1_555 1_555
H5 C5 1_555 1_555
C6 C1 1_555 1_555
C7 N1 1_555 1_555
H6 C7 1_555 1_555
H7 C7 1_555 1_555
C8 C3 1_555 1_555
H8 C8 1_555 1_555
H9 C8 1_555 1_555
C9 N2 1_555 1_555
H10 C9 1_555 1_555
H11 C9 1_555 1_555
C10 C6 1_555 1_555
H12 C10 1_555 1_555
C11 C5 1_555 1_555
H13 C11 1_555 1_555
H14 C11 1_555 1_555
C12 C6 1_555 1_555
H15 C12 1_555 1_555
C13 C12 1_555 1_555
H16 C13 1_555 1_555
C14 C13 1_555 1_555
H17 C14 1_555 1_555
C15 C10 1_555 1_555
H18 C15 1_555 1_555
C7 C8 1_555 1_555
C9 C11 1_555 1_555
C14 C15 1_555 1_555

#END
