
#######################################################################
#
#                 Cambridge Crystallographic Data Centre
#                                CCDC 
#
#######################################################################
#
# If this CIF has been generated from an entry in the Cambridge 
# Structural Database, then it will include bibliographic, chemical, 
# crystal, experimental, refinement or atomic coordinate data resulting 
# from the CCDC's data processing and validation procedures.
#
#######################################################################

data_GISFAS
_chemical_formula_moiety         'C10 H16 N2 O2'
_chemical_name_systematic        
1,8-dimethyl-2,3,4,6,7,8-hexahydropyrrolo[1,2-a]pyrimidin-1-ium-8-carboxylate
_symmetry_cell_setting           orthorhombic
_symmetry_space_group_name_H-M   'P n a 21'
_symmetry_Int_Tables_number      33
_space_group_name_Hall           'P 2c -2n'
loop_
_symmetry_equiv_pos_site_id
_symmetry_equiv_pos_as_xyz
1 x,y,z
2 -x,-y,1/2+z
3 1/2+x,1/2-y,z
4 1/2-x,1/2+y,1/2+z
_cell_length_a                   15.1188(18)
_cell_length_b                   7.8365(9)
_cell_length_c                   8.4449(10)
_cell_angle_alpha                90
_cell_angle_beta                 90
_cell_angle_gamma                90
_cell_volume                     1000.54
_cell_formula_units_Z            4
loop_
_atom_site_label
_atom_site_type_symbol
_atom_site_fract_x
_atom_site_fract_y
_atom_site_fract_z
N1 N 0.9025(3) 0.1661(5) 0.7528(5)
N2 N 0.9026(3) 0.1616(6) 0.4799(5)
O1 O 0.94819(16) -0.2336(4) 0.6157(5)
C1 C 0.8809(2) 0.0935(5) 0.6142(7)
C2 C 0.8660(2) -0.2293(5) 0.6133(7)
C3 C 1.0050(3) 0.3507(5) 0.6205(8)
H1 H 1.0533 0.2693 0.6244
H2 H 1.0299 0.4648 0.6217
C4 C 0.8760(5) 0.0822(10) 0.8989(6)
H3 H 0.9274 0.0535 0.9625
H4 H 0.8373 0.1552 0.9605
O2 O 0.8135(2) -0.3455(5) 0.6049(14)
C5 C 0.9494(4) 0.3282(7) 0.7538(8)
H5 H 0.9066 0.4203 0.7568
H6 H 0.9849 0.3353 0.8492
C6 C 0.9495(4) 0.3236(6) 0.4630(6)
H7 H 0.9078 0.4163 0.4487
H8 H 0.9886 0.3199 0.3719
C7 C 0.8321(6) -0.0637(9) 0.8510(12)
H9 H 0.7737 -0.0680 0.8986
H10 H 0.8647 -0.1643 0.8835
C8 C 0.8743(4) 0.0700(9) 0.3371(6)
H11 H 0.8446 -0.0335 0.3670
H12 H 0.9250 0.0430 0.2737
H13 H 0.8346 0.1406 0.2773
C9 C 0.7306(3) -0.0255(6) 0.6197(12)
H14 H 0.6943 -0.1181 0.6560
H15 H 0.7262 -0.0165 0.5066
H16 H 0.7108 0.0790 0.6674
C10 C 0.8241(4) -0.0578(8) 0.6649(8)
loop_
_geom_bond_atom_site_label_1
_geom_bond_atom_site_label_2
_geom_bond_site_symmetry_1
_geom_bond_site_symmetry_2
N1 C1 1_555 1_555
N2 C1 1_555 1_555
O1 C2 1_555 1_555
C1 C10 1_555 1_555
C2 O2 1_555 1_555
C3 H1 1_555 1_555
H2 C3 1_555 1_555
C4 N1 1_555 1_555
H3 C4 1_555 1_555
H4 C4 1_555 1_555
C5 N1 1_555 1_555
H5 C5 1_555 1_555
H6 C5 1_555 1_555
C6 N2 1_555 1_555
H7 C6 1_555 1_555
H8 C6 1_555 1_555
C7 C4 1_555 1_555
H9 C7 1_555 1_555
H10 C7 1_555 1_555
C8 N2 1_555 1_555
H11 C8 1_555 1_555
H12 C8 1_555 1_555
H13 C8 1_555 1_555
C9 H14 1_555 1_555
H15 C9 1_555 1_555
H16 C9 1_555 1_555
C10 C2 1_555 1_555
C3 C5 1_555 1_555
C3 C6 1_555 1_555
C7 C10 1_555 1_555
C9 C10 1_555 1_555

#END
