
#######################################################################
#
#                 Cambridge Crystallographic Data Centre
#                                CCDC 
#
#######################################################################
#
# If this CIF has been generated from an entry in the Cambridge 
# Structural Database, then it will include bibliographic, chemical, 
# crystal, experimental, refinement or atomic coordinate data resulting 
# from the CCDC's data processing and validation procedures.
#
#######################################################################

data_GISFIA
_chemical_formula_moiety         'C9 H14 N2 O2'
_chemical_name_systematic        
1-methyl-2,3,4,6,7,8-hexahydropyrrolo[1,2-a]pyrimidin-1-ium-8-carboxylate
_symmetry_cell_setting           monoclinic
_symmetry_space_group_name_H-M   'C c'
_symmetry_Int_Tables_number      9
_space_group_name_Hall           'C -2yc'
loop_
_symmetry_equiv_pos_site_id
_symmetry_equiv_pos_as_xyz
1 x,y,z
2 x,-y,1/2+z
3 1/2+x,1/2+y,z
4 1/2+x,1/2-y,1/2+z
_cell_length_a                   14.2524(16)
_cell_length_b                   6.7445(7)
_cell_length_c                   9.3148(10)
_cell_angle_alpha                90
_cell_angle_beta                 98.526(2)
_cell_angle_gamma                90
_cell_volume                     885.493
_exptl_crystal_colour            colorless
_exptl_crystal_description       block
_cell_formula_units_Z            4
loop_
_atom_site_label
_atom_site_type_symbol
_atom_site_fract_x
_atom_site_fract_y
_atom_site_fract_z
N1 N 0.90704(9) 0.20899(19) 0.90407(15)
O1 O 0.64933(10) -0.1695(2) 0.81596(15)
N2 N 0.78602(10) 0.34841(19) 1.01162(14)
O2 O 0.78442(11) -0.14582(19) 0.97298(16)
C1 C 0.73439(11) 0.1341(2) 0.82122(16)
H1 H 0.7432 0.1344 0.7188
C2 C 0.93908(13) 0.0645(3) 0.80435(19)
H2 H 0.8859 0.0207 0.7363
H3 H 0.9672 -0.0471 0.8585
H4 H 0.9851 0.1252 0.7529
C3 C 0.72199(12) -0.0824(2) 0.87609(18)
C4 C 0.81640(11) 0.2327(2) 0.91368(15)
C5 C 0.68244(12) 0.3616(2) 0.99595(18)
H5 H 0.6617 0.4983 0.9992
H6 H 0.6579 0.2866 1.0711
C6 C 0.97955(11) 0.2938(3) 1.01559(18)
H7 H 1.0366 0.3217 0.9738
H8 H 0.9955 0.1989 1.0936
C7 C 0.84797(13) 0.4521(2) 1.12587(19)
H9 H 0.8558 0.3741 1.2144
H10 H 0.8203 0.5787 1.1456
C8 C 0.65139(12) 0.2704(3) 0.8461(2)
H11 H 0.6411 0.3726 0.7721
H12 H 0.5934 0.1948 0.8446
C9 C 0.94344(14) 0.4840(3) 1.0759(2)
H13 H 0.9889 0.5296 1.1571
H14 H 0.9375 0.5859 1.0016
loop_
_geom_bond_atom_site_label_1
_geom_bond_atom_site_label_2
_geom_bond_site_symmetry_1
_geom_bond_site_symmetry_2
N1 C2 1_555 1_555
O1 C3 1_555 1_555
N2 C4 1_555 1_555
O2 C3 1_555 1_555
C1 H1 1_555 1_555
C2 H2 1_555 1_555
H3 C2 1_555 1_555
H4 C2 1_555 1_555
C3 C1 1_555 1_555
C4 N1 1_555 1_555
C5 N2 1_555 1_555
H5 C5 1_555 1_555
H6 C5 1_555 1_555
C6 N1 1_555 1_555
H7 C6 1_555 1_555
H8 C6 1_555 1_555
C7 N2 1_555 1_555
H9 C7 1_555 1_555
H10 C7 1_555 1_555
C8 C1 1_555 1_555
H11 C8 1_555 1_555
H12 C8 1_555 1_555
C9 C6 1_555 1_555
H13 C9 1_555 1_555
H14 C9 1_555 1_555
C1 C4 1_555 1_555
C5 C8 1_555 1_555
C7 C9 1_555 1_555

#END
