
#######################################################################
#
#                 Cambridge Crystallographic Data Centre
#                                CCDC 
#
#######################################################################
#
# If this CIF has been generated from an entry in the Cambridge 
# Structural Database, then it will include bibliographic, chemical, 
# crystal, experimental, refinement or atomic coordinate data resulting 
# from the CCDC's data processing and validation procedures.
#
#######################################################################

data_GISMOM
_chemical_formula_moiety         'C28 H32 N2 O2'
_chemical_name_systematic        
4,4'-((2,5-Dibutoxy-1,4-phenylene)diethene-2,1-diyl)dipyridine
_symmetry_cell_setting           triclinic
_symmetry_space_group_name_H-M   'P -1'
_symmetry_Int_Tables_number      2
_space_group_name_Hall           '-P 1'
loop_
_symmetry_equiv_pos_site_id
_symmetry_equiv_pos_as_xyz
1 x,y,z
2 -x,-y,-z
_cell_length_a                   8.5234(15)
_cell_length_b                   10.7419(19)
_cell_length_c                   14.505(3)
_cell_angle_alpha                73.507(2)
_cell_angle_beta                 83.091(2)
_cell_angle_gamma                76.901(2)
_cell_volume                     1238.04
_exptl_crystal_colour            yellow
_exptl_crystal_description       needle
_cell_formula_units_Z            2
loop_
_atom_site_label
_atom_site_type_symbol
_atom_site_fract_x
_atom_site_fract_y
_atom_site_fract_z
O1 O 0.9978(4) 0.1378(3) 0.1345(2)
C1 C 0.9988(5) 0.0719(5) 0.0670(3)
C2 C 0.9354(5) -0.0434(5) 0.0956(3)
C3 C 1.0665(5) 0.2517(5) 0.1090(3)
H1 H 1.0081 0.3194 0.0582
H2 H 1.1780 0.2298 0.0856
C4 C 1.0580(6) 0.3026(5) 0.1965(3)
H3 H 1.1225 0.2362 0.2452
H4 H 0.9471 0.3163 0.2227
C5 C 1.0609(5) 0.1136(5) -0.0275(3)
H5 H 1.1014 0.1911 -0.0459
C6 C 1.1028(7) 0.4900(6) 0.2597(4)
H6 H 0.9915 0.5092 0.2819
H7 H 1.1439 0.5703 0.2402
H8 H 1.1639 0.4277 0.3108
C7 C 1.1172(6) 0.4312(5) 0.1745(3)
H9 H 1.2295 0.4158 0.1511
H10 H 1.0564 0.4956 0.1231
C8 C 0.8644(6) -0.0984(6) 0.1929(3)
H11 H 0.8406 -0.1808 0.1988
C9 C 0.6618(7) -0.3139(6) 0.4761(4)
H12 H 0.6388 -0.3983 0.4919
C10 C 0.7577(6) -0.1361(8) 0.3580(4)
N1 N 0.6355(6) -0.2491(5) 0.5425(3)
C11 C 0.8307(7) -0.0665(7) 0.2634(5)
H13 H 0.8521 0.0155 0.2612
C12 C 0.6694(8) -0.1325(7) 0.5143(4)
H14 H 0.6502 -0.0835 0.5595
C13 C 0.7290(8) -0.0748(7) 0.4274(5)
H15 H 0.7506 0.0096 0.4154
C14 C 0.7236(6) -0.2611(7) 0.3812(4)
H16 H 0.7407 -0.3097 0.3358
O1A O 1.0022(4) -0.1378(3) -0.1345(2)
C1A C 1.0012(5) -0.0719(5) -0.0670(3)
C2A C 1.0646(5) 0.0434(5) -0.0956(3)
C3A C 0.9335(5) -0.2517(5) -0.1090(3)
H1A H 0.9919 -0.3194 -0.0582
H2A H 0.8220 -0.2298 -0.0856
C4A C 0.9420(6) -0.3026(5) -0.1965(3)
H3A H 0.8775 -0.2362 -0.2452
H4A H 1.0529 -0.3163 -0.2227
C5A C 0.9391(5) -0.1136(5) 0.0275(3)
H5A H 0.8986 -0.1911 0.0459
C6A C 0.8972(7) -0.4900(6) -0.2597(4)
H6A H 1.0085 -0.5092 -0.2819
H7A H 0.8561 -0.5703 -0.2402
H8A H 0.8361 -0.4277 -0.3108
C7A C 0.8828(6) -0.4312(5) -0.1745(3)
H9A H 0.7705 -0.4158 -0.1511
H10A H 0.9436 -0.4956 -0.1231
C8A C 1.1356(6) 0.0984(6) -0.1929(3)
H11A H 1.1594 0.1808 -0.1988
C9A C 1.3382(7) 0.3139(6) -0.4761(4)
H12A H 1.3612 0.3983 -0.4919
C10A C 1.2423(6) 0.1361(8) -0.3580(4)
N1A N 1.3645(6) 0.2491(5) -0.5425(3)
C11A C 1.1693(7) 0.0665(7) -0.2634(5)
H13A H 1.1479 -0.0155 -0.2612
C12A C 1.3306(8) 0.1325(7) -0.5143(4)
H14A H 1.3498 0.0835 -0.5595
C13A C 1.2710(8) 0.0748(7) -0.4274(5)
H15A H 1.2494 -0.0096 -0.4154
C14A C 1.2764(6) 0.2611(7) -0.3812(4)
H16A H 1.2593 0.3097 -0.3358
C15 C 0.4420(5) -0.0185(5) 0.0967(4)
C16 C 0.6627(5) 0.4858(4) 0.0889(3)
H17 H 0.6929 0.5018 0.0235
C17 C 0.5163(5) 0.0865(4) 0.0520(4)
C18 C 0.5346(5) 0.1784(5) 0.1100(4)
H18 H 0.4952 0.1587 0.1740
O2 O 0.3861(4) -0.0292(3) 0.1906(3)
C19 C 0.6092(5) 0.3730(4) 0.1363(3)
C20 C 0.5972(5) 0.2786(5) 0.0808(3)
H19 H 0.6410 0.2958 0.0177
N2 N 0.6356(5) 0.5617(4) 0.2297(3)
C21 C 0.4264(5) -0.1042(4) 0.0434(4)
H20 H 0.3761 -0.1752 0.0726
C22 C 0.5678(5) 0.3547(4) 0.2342(3)
H21 H 0.5303 0.2797 0.2707
C23 C 0.3224(6) -0.1416(5) 0.2414(4)
H22 H 0.4037 -0.2216 0.2429
H23 H 0.2308 -0.1458 0.2095
C24 C 0.2715(6) -0.1316(5) 0.3409(4)
H24 H 0.1861 -0.0539 0.3384
H25 H 0.3620 -0.1200 0.3700
C25 C 0.5842(6) 0.4518(5) 0.2752(3)
H26 H 0.5566 0.4387 0.3408
C26 C 0.2115(8) -0.2536(6) 0.4036(4)
H27 H 0.1209 -0.2648 0.3744
H28 H 0.2968 -0.3312 0.4054
C27 C 0.6723(6) 0.5752(5) 0.1373(4)
H29 H 0.7075 0.6519 0.1022
C28 C 0.1609(9) -0.2462(8) 0.5035(5)
H30 H 0.2516 -0.2404 0.5343
H31 H 0.1211 -0.3242 0.5386
H32 H 0.0772 -0.1692 0.5025
C15A C 0.5580(5) 0.0185(5) -0.0967(4)
C16A C 0.3373(5) -0.4858(4) -0.0889(3)
H17A H 0.3071 -0.5018 -0.0235
C17A C 0.4837(5) -0.0865(4) -0.0520(4)
C18A C 0.4654(5) -0.1784(5) -0.1100(4)
H18A H 0.5048 -0.1587 -0.1740
O2A O 0.6139(4) 0.0292(3) -0.1906(3)
C19A C 0.3908(5) -0.3730(4) -0.1363(3)
C20A C 0.4028(5) -0.2786(5) -0.0808(3)
H19A H 0.3590 -0.2958 -0.0177
N2A N 0.3644(5) -0.5617(4) -0.2297(3)
C21A C 0.5736(5) 0.1042(4) -0.0434(4)
H20A H 0.6239 0.1752 -0.0726
C22A C 0.4322(5) -0.3547(4) -0.2342(3)
H21A H 0.4697 -0.2797 -0.2707
C23A C 0.6776(6) 0.1416(5) -0.2414(4)
H22A H 0.5963 0.2216 -0.2429
H23A H 0.7692 0.1458 -0.2095
C24A C 0.7285(6) 0.1316(5) -0.3409(4)
H24A H 0.8139 0.0539 -0.3384
H25A H 0.6380 0.1200 -0.3700
C25A C 0.4158(6) -0.4518(5) -0.2752(3)
H26A H 0.4434 -0.4387 -0.3408
C26A C 0.7885(8) 0.2536(6) -0.4036(4)
H27A H 0.8791 0.2648 -0.3744
H28A H 0.7032 0.3312 -0.4054
C27A C 0.3277(6) -0.5752(5) -0.1373(4)
H29A H 0.2925 -0.6519 -0.1022
C28A C 0.8391(9) 0.2462(8) -0.5035(5)
H30A H 0.7484 0.2404 -0.5343
H31A H 0.8789 0.3242 -0.5386
H32A H 0.9228 0.1692 -0.5025
loop_
_geom_bond_atom_site_label_1
_geom_bond_atom_site_label_2
_geom_bond_site_symmetry_1
_geom_bond_site_symmetry_2
O1 C1 1_555 1_555
C1 C2 1_555 1_555
C2 C8 1_555 1_555
C3 O1 1_555 1_555
H1 C3 1_555 1_555
H2 C3 1_555 1_555
C4 C3 1_555 1_555
H3 C4 1_555 1_555
H4 C4 1_555 1_555
C5 C1 1_555 1_555
H5 C5 1_555 1_555
C6 H6 1_555 1_555
H7 C6 1_555 1_555
H8 C6 1_555 1_555
C7 C4 1_555 1_555
H9 C7 1_555 1_555
H10 C7 1_555 1_555
C8 H11 1_555 1_555
C9 H12 1_555 1_555
C10 C11 1_555 1_555
N1 C9 1_555 1_555
C11 C8 1_555 1_555
H13 C11 1_555 1_555
C12 N1 1_555 1_555
H14 C12 1_555 1_555
C13 C10 1_555 1_555
H15 C13 1_555 1_555
C14 C9 1_555 1_555
H16 C14 1_555 1_555
C15 C17 1_555 1_555
C16 H17 1_555 1_555
C17 C18 1_555 1_555
C18 H18 1_555 1_555
O2 C15 1_555 1_555
C19 C16 1_555 1_555
C20 C18 1_555 1_555
H19 C20 1_555 1_555
N2 C25 1_555 1_555
C21 C15 1_555 1_555
H20 C21 1_555 1_555
C22 C19 1_555 1_555
H21 C22 1_555 1_555
C23 O2 1_555 1_555
H22 C23 1_555 1_555
H23 C23 1_555 1_555
C24 C23 1_555 1_555
H24 C24 1_555 1_555
H25 C24 1_555 1_555
C25 C22 1_555 1_555
H26 C25 1_555 1_555
C26 C24 1_555 1_555
H27 C26 1_555 1_555
H28 C26 1_555 1_555
C27 C16 1_555 1_555
H29 C27 1_555 1_555
C28 C26 1_555 1_555
H30 C28 1_555 1_555
H31 C28 1_555 1_555
H32 C28 1_555 1_555
O1A C1A 1_555 1_555
C1A C2A 1_555 1_555
C2A C5 1_555 1_555
C3A O1A 1_555 1_555
H1A C3A 1_555 1_555
H2A C3A 1_555 1_555
C4A C3A 1_555 1_555
H3A C4A 1_555 1_555
H4A C4A 1_555 1_555
C5A C2 1_555 1_555
H5A C5A 1_555 1_555
C6A H6A 1_555 1_555
H7A C6A 1_555 1_555
H8A C6A 1_555 1_555
C7A C4A 1_555 1_555
H9A C7A 1_555 1_555
H10A C7A 1_555 1_555
C8A C2A 1_555 1_555
H11A C8A 1_555 1_555
C9A H12A 1_555 1_555
C10A C11A 1_555 1_555
N1A C9A 1_555 1_555
C11A C8A 1_555 1_555
H13A C11A 1_555 1_555
C12A N1A 1_555 1_555
H14A C12A 1_555 1_555
C13A C10A 1_555 1_555
H15A C13A 1_555 1_555
C14A C9A 1_555 1_555
H16A C14A 1_555 1_555
C15A C17A 1_555 1_555
C16A H17A 1_555 1_555
C17A C21 1_555 1_555
C18A C17A 1_555 1_555
H18A C18A 1_555 1_555
O2A C15A 1_555 1_555
C19A C16A 1_555 1_555
C20A C18A 1_555 1_555
H19A C20A 1_555 1_555
N2A C25A 1_555 1_555
C21A C17 1_555 1_555
H20A C21A 1_555 1_555
C22A C19A 1_555 1_555
H21A C22A 1_555 1_555
C23A O2A 1_555 1_555
H22A C23A 1_555 1_555
H23A C23A 1_555 1_555
C24A C23A 1_555 1_555
H24A C24A 1_555 1_555
H25A C24A 1_555 1_555
C25A C22A 1_555 1_555
H26A C25A 1_555 1_555
C26A C24A 1_555 1_555
H27A C26A 1_555 1_555
H28A C26A 1_555 1_555
C27A C16A 1_555 1_555
H29A C27A 1_555 1_555
C28A C26A 1_555 1_555
H30A C28A 1_555 1_555
H31A C28A 1_555 1_555
H32A C28A 1_555 1_555
C6 C7 1_555 1_555
C10 C14 1_555 1_555
C12 C13 1_555 1_555
C19 C20 1_555 1_555
N2 C27 1_555 1_555
C1A C5A 1_555 1_555
C6A C7A 1_555 1_555
C10A C14A 1_555 1_555
C12A C13A 1_555 1_555
C15A C21A 1_555 1_555
C19A C20A 1_555 1_555
N2A C27A 1_555 1_555

#END
