
#######################################################################
#
#                 Cambridge Crystallographic Data Centre
#                                CCDC 
#
#######################################################################
#
# If this CIF has been generated from an entry in the Cambridge 
# Structural Database, then it will include bibliographic, chemical, 
# crystal, experimental, refinement or atomic coordinate data resulting 
# from the CCDC's data processing and validation procedures.
#
#######################################################################

data_GISNAY
_chemical_formula_moiety         'C14 H16 N2 O3'
_chemical_name_systematic        'bis(3-Methoxy-6-methyl-2-pyridyl) ether'
_symmetry_cell_setting           monoclinic
_symmetry_space_group_name_H-M   'P 21/c'
_symmetry_Int_Tables_number      14
_space_group_name_Hall           '-P 2ybc'
loop_
_symmetry_equiv_pos_site_id
_symmetry_equiv_pos_as_xyz
1 x,y,z
2 -x,1/2+y,1/2-z
3 -x,-y,-z
4 x,1/2-y,1/2+z
_cell_length_a                   12.146(2)
_cell_length_b                   7.5372(15)
_cell_length_c                   14.669(3)
_cell_angle_alpha                90
_cell_angle_beta                 94.577(3)
_cell_angle_gamma                90
_cell_volume                     1338.62
_exptl_crystal_colour            colorless
_exptl_crystal_description       block
_cell_formula_units_Z            4
loop_
_atom_site_label
_atom_site_type_symbol
_atom_site_fract_x
_atom_site_fract_y
_atom_site_fract_z
O1 O 0.77209(13) 0.0344(2) 0.12530(11)
O2 O 0.97934(14) 0.1001(2) 0.10596(15)
O3 O 0.72046(17) -0.3036(3) 0.15773(14)
N1 N 0.79139(16) 0.0722(3) 0.28290(16)
N2 N 0.59034(19) 0.1178(3) 0.11932(13)
C1 C 0.9468(2) 0.1105(3) 0.1925(2)
C2 C 0.8363(2) 0.0727(3) 0.2043(2)
C3 C 0.8564(2) 0.1129(3) 0.3590(2)
C4 C 0.9660(3) 0.1532(4) 0.3532(2)
H1 H 1.0099 0.1810 0.4061
C5 C 1.0115(2) 0.1529(3) 0.2703(2)
H2 H 1.0856 0.1813 0.2671
C6 C 0.8040(2) 0.1079(4) 0.44789(19)
H3 H 0.7319 0.1603 0.4401
H4 H 0.8489 0.1731 0.4932
H5 H 0.7978 -0.0130 0.4674
C7 C 1.0953(2) 0.1180(4) 0.0964(2)
H6 H 1.1190 0.2350 0.1148
H7 H 1.1096 0.0990 0.0337
H8 H 1.1352 0.0318 0.1343
C8 C 0.6354(2) -0.1871(4) 0.14619(17)
C9 C 0.6628(2) -0.0120(4) 0.13349(16)
C10 C 0.4831(2) 0.0807(5) 0.11836(18)
C11 C 0.4500(3) -0.0916(5) 0.1311(2)
H9 H 0.3749 -0.1166 0.1301
C12 C 0.5245(3) -0.2276(5) 0.14539(19)
H10 H 0.5010 -0.3433 0.1542
C13 C 0.4036(2) 0.2307(5) 0.1025(2)
H11 H 0.3917 0.2861 0.1598
H12 H 0.3347 0.1862 0.0749
H13 H 0.4332 0.3160 0.0624
C14 C 0.6933(3) -0.4891(4) 0.1585(2)
H14 H 0.6520 -0.5143 0.2100
H15 H 0.7601 -0.5579 0.1627
H16 H 0.6498 -0.5190 0.1031
loop_
_geom_bond_atom_site_label_1
_geom_bond_atom_site_label_2
_geom_bond_site_symmetry_1
_geom_bond_site_symmetry_2
O1 C2 1_555 1_555
O2 C1 1_555 1_555
O3 C8 1_555 1_555
N1 C2 1_555 1_555
N2 C9 1_555 1_555
C1 C2 1_555 1_555
C3 N1 1_555 1_555
C4 C3 1_555 1_555
H1 C4 1_555 1_555
C5 C1 1_555 1_555
H2 C5 1_555 1_555
C6 C3 1_555 1_555
H3 C6 1_555 1_555
H4 C6 1_555 1_555
H5 C6 1_555 1_555
C7 O2 1_555 1_555
H6 C7 1_555 1_555
H7 C7 1_555 1_555
H8 C7 1_555 1_555
C8 C9 1_555 1_555
C9 O1 1_555 1_555
C10 N2 1_555 1_555
C11 C10 1_555 1_555
H9 C11 1_555 1_555
C12 C8 1_555 1_555
H10 C12 1_555 1_555
C13 C10 1_555 1_555
H11 C13 1_555 1_555
H12 C13 1_555 1_555
H13 C13 1_555 1_555
C14 O3 1_555 1_555
H14 C14 1_555 1_555
H15 C14 1_555 1_555
H16 C14 1_555 1_555
C4 C5 1_555 1_555
C11 C12 1_555 1_555

#END
