
#######################################################################
#
#                 Cambridge Crystallographic Data Centre
#                                CCDC 
#
#######################################################################
#
# If this CIF has been generated from an entry in the Cambridge 
# Structural Database, then it will include bibliographic, chemical, 
# crystal, experimental, refinement or atomic coordinate data resulting 
# from the CCDC's data processing and validation procedures.
#
#######################################################################

data_GISQAC
_chemical_formula_moiety         'C54 H39 N1 O3 P2,C1 H2 Cl2'
_chemical_name_systematic        
"9-(3'-(diphenylphosphoryl)-4'-(2-(diphenylphosphoryl)phenoxy)biphenyl-4-yl)-9H-carbazole dichloromethane solvate"
_symmetry_cell_setting           triclinic
_symmetry_space_group_name_H-M   'P -1'
_symmetry_Int_Tables_number      2
_space_group_name_Hall           '-P 1'
loop_
_symmetry_equiv_pos_site_id
_symmetry_equiv_pos_as_xyz
1 x,y,z
2 -x,-y,-z
_cell_length_a                   9.4462(4)
_cell_length_b                   11.4419(6)
_cell_length_c                   21.7054(8)
_cell_angle_alpha                77.790(4)
_cell_angle_beta                 87.938(3)
_cell_angle_gamma                84.139(4)
_cell_volume                     2280.67
_cell_formula_units_Z            2
loop_
_atom_site_label
_atom_site_type_symbol
_atom_site_fract_x
_atom_site_fract_y
_atom_site_fract_z
P1 P 0.86987(8) -0.05404(6) 0.14535(3)
P2 P 0.46569(9) 0.32206(7) 0.17059(4)
O1 O 0.6166(2) 0.06359(17) 0.19931(9)
O2 O 0.8698(2) 0.05761(19) 0.09618(10)
O3 O 0.3602(3) 0.4222(2) 0.18021(11)
N1 N 0.3085(3) 0.3416(3) 0.58595(13)
C1 C 0.5591(5) 0.3059(4) 0.6238(2)
H1 H 0.5949 0.2646 0.5931
C2 C 1.1795(3) -0.3490(3) 0.08809(17)
H2 H 1.2441 -0.4074 0.0761
C3 C 0.6453(6) 0.3276(5) 0.6701(3)
H3 H 0.7411 0.2990 0.6706
C4 C 0.9876(3) -0.1743(3) 0.12488(13)
C5 C 1.0283(3) -0.2809(3) 0.16673(15)
H4 H 0.9911 -0.2944 0.2076
C6 C 0.4875(3) 0.2141(3) 0.24490(13)
C7 C 0.6956(3) -0.1087(2) 0.15894(13)
C8 C 0.4169(4) 0.3340(3) 0.42101(15)
H5 H 0.4565 0.3843 0.3869
C9 C 0.5838(3) -0.0417(3) 0.18215(13)
C10 C 0.4333(3) 0.1750(3) 0.35776(14)
C11 C 0.6635(3) -0.2104(3) 0.13689(15)
H6 H 0.7360 -0.2577 0.1211
C12 C 0.4333(3) 0.2523(3) 0.29853(13)
H7 H 0.3958 0.3318 0.2949
C13 C 0.4085(3) 0.2453(3) 0.11262(13)
C14 C 0.4176(4) 0.3490(3) 0.62594(15)
C15 C 0.5473(3) 0.0953(3) 0.25113(14)
C16 C 0.9363(3) -0.0391(3) 0.22049(15)
C17 C 0.5022(4) 0.1963(3) 0.07210(14)
H8 H 0.5995 0.2015 0.0741
C18 C 0.6343(4) 0.3713(3) 0.14209(16)
C19 C 0.7597(4) 0.3309(4) 0.1723(2)
H9 H 0.7624 0.2718 0.2091
C20 C 1.1239(4) -0.3672(3) 0.14827(16)
H10 H 1.1506 -0.4382 0.1768
C21 C 1.0459(3) -0.1581(3) 0.06335(14)
H11 H 1.0203 -0.0875 0.0342
C22 C 0.4450(3) -0.0706(3) 0.18408(16)
H12 H 0.3724 -0.0247 0.2007
C23 C 0.5253(4) -0.2399(3) 0.13861(17)
H13 H 0.5050 -0.3079 0.1248
C24 C 0.2128(4) 0.1777(5) 0.06602(19)
H14 H 0.1158 0.1715 0.0641
C25 C 0.1841(4) 0.3994(3) 0.60587(15)
C26 C 0.4855(4) 0.0555(3) 0.36056(16)
H15 H 0.4825 0.0013 0.3990
C27 C 0.3298(4) 0.3018(3) 0.52769(14)
C28 C 0.3904(4) 0.2200(3) 0.41584(14)
C29 C 0.5411(4) 0.0148(3) 0.30875(16)
H16 H 0.5742 -0.0657 0.3122
C30 C 0.3617(4) 0.4091(3) 0.67275(15)
C31 C 0.4162(4) -0.1682(3) 0.16097(17)
H17 H 0.3227 -0.1865 0.1603
C32 C 1.1401(4) -0.2454(4) 0.04600(17)
H18 H 1.1774 -0.2338 0.0051
C33 C 0.2129(4) 0.4393(3) 0.66046(15)
C34 C 1.0731(5) -0.0180(5) 0.3277(2)
H19 H 1.1195 -0.0113 0.3637
C35 C 0.9115(4) -0.1154(3) 0.27714(15)
H20 H 0.8485 -0.1735 0.2792
C36 C 0.8858(6) 0.3805(6) 0.1464(4)
H21 H 0.9725 0.3554 0.1664
C37 C 0.5929(7) 0.3908(5) 0.7160(2)
H22 H 0.6542 0.4060 0.7454
C38 C -0.0342(7) 0.5154(5) 0.6628(3)
H23 H -0.1100 0.5529 0.6822
C39 C 0.4528(6) 0.4297(4) 0.71762(18)
H24 H 0.4174 0.4702 0.7487
C40 C 1.0964(5) 0.0579(5) 0.2726(2)
H25 H 1.1587 0.1165 0.2707
C41 C 0.3857(4) 0.3747(3) 0.47600(16)
H26 H 0.4027 0.4524 0.4780
C42 C 0.2638(4) 0.2365(4) 0.10892(16)
H27 H 0.2005 0.2705 0.1355
C43 C 0.8778(9) 0.4681(7) 0.0904(4)
H28 H 0.9598 0.5008 0.0727
C44 C 0.4491(4) 0.1389(4) 0.02825(16)
H29 H 0.5112 0.1077 0.0002
C45 C 0.3272(5) 0.1489(4) 0.46699(17)
H30 H 0.3037 0.0735 0.4638
C46 C 0.9801(5) -0.1062(4) 0.33129(19)
H31 H 0.9641 -0.1584 0.3694
C47 C 0.7552(11) 0.5041(6) 0.0629(3)
H32 H 0.7525 0.5612 0.0253
C48 C 1.0275(4) 0.0489(4) 0.2181(2)
H33 H 1.0430 0.1021 0.1802
C49 C 0.6320(6) 0.4608(4) 0.0872(2)
H34 H 0.5462 0.4907 0.0674
C50 C 0.2983(5) 0.1880(4) 0.52309(17)
H35 H 0.2580 0.1382 0.5573
C51 C 0.0506(5) 0.4187(4) 0.5796(2)
H36 H 0.0328 0.3925 0.5432
C52 C 0.1021(6) 0.4981(4) 0.6898(2)
H37 H 0.1176 0.5253 0.7262
C53 C -0.0557(5) 0.4786(6) 0.6100(3)
H38 H -0.1461 0.4938 0.5927
C54 C 0.3061(5) 0.1283(4) 0.02621(18)
H39 H 0.2721 0.0876 -0.0022
Cl1 Cl 0.8019(5) 0.1778(4) 0.38386(18)
Cl2 Cl 0.8349(6) 0.2025(6) 0.50750(17)
C55 C 0.8434(16) 0.2468(10) 0.4363(4)
H40 H 0.9413 0.2639 0.4270
H41 H 0.7865 0.3238 0.4276
loop_
_geom_bond_atom_site_label_1
_geom_bond_atom_site_label_2
_geom_bond_site_symmetry_1
_geom_bond_site_symmetry_2
P1 O2 1_555 1_555
P2 O3 1_555 1_555
O1 C9 1_555 1_555
N1 C14 1_555 1_555
C1 H1 1_555 1_555
C2 H2 1_555 1_555
C3 C1 1_555 1_555
H3 C3 1_555 1_555
C4 P1 1_555 1_555
C5 C4 1_555 1_555
H4 C5 1_555 1_555
C6 P2 1_555 1_555
C7 P1 1_555 1_555
C8 H5 1_555 1_555
C9 C7 1_555 1_555
C10 C12 1_555 1_555
C11 C7 1_555 1_555
H6 C11 1_555 1_555
C12 C6 1_555 1_555
H7 C12 1_555 1_555
C13 P2 1_555 1_555
C14 C1 1_555 1_555
C15 O1 1_555 1_555
C16 P1 1_555 1_555
C17 C13 1_555 1_555
H8 C17 1_555 1_555
C18 P2 1_555 1_555
C19 C18 1_555 1_555
H9 C19 1_555 1_555
C20 C2 1_555 1_555
H10 C20 1_555 1_555
C21 C4 1_555 1_555
H11 C21 1_555 1_555
C22 C9 1_555 1_555
H12 C22 1_555 1_555
C23 C11 1_555 1_555
H13 C23 1_555 1_555
C24 H14 1_555 1_555
C25 N1 1_555 1_555
C26 C10 1_555 1_555
H15 C26 1_555 1_555
C27 N1 1_555 1_555
C28 C8 1_555 1_555
C29 C15 1_555 1_555
H16 C29 1_555 1_555
C30 C14 1_555 1_555
C31 C22 1_555 1_555
H17 C31 1_555 1_555
C32 C2 1_555 1_555
H18 C32 1_555 1_555
C33 C25 1_555 1_555
C34 H19 1_555 1_555
C35 C16 1_555 1_555
H20 C35 1_555 1_555
C36 C19 1_555 1_555
H21 C36 1_555 1_555
C37 C3 1_555 1_555
H22 C37 1_555 1_555
C38 H23 1_555 1_555
C39 C30 1_555 1_555
H24 C39 1_555 1_555
C40 C34 1_555 1_555
H25 C40 1_555 1_555
C41 C8 1_555 1_555
H26 C41 1_555 1_555
C42 C13 1_555 1_555
H27 C42 1_555 1_555
C43 C36 1_555 1_555
H28 C43 1_555 1_555
C44 C17 1_555 1_555
H29 C44 1_555 1_555
C45 C28 1_555 1_555
H30 C45 1_555 1_555
C46 C34 1_555 1_555
H31 C46 1_555 1_555
C47 C43 1_555 1_555
H32 C47 1_555 1_555
C48 C16 1_555 1_555
H33 C48 1_555 1_555
C49 C18 1_555 1_555
H34 C49 1_555 1_555
C50 C27 1_555 1_555
H35 C50 1_555 1_555
C51 C25 1_555 1_555
H36 C51 1_555 1_555
C52 C33 1_555 1_555
H37 C52 1_555 1_555
C53 C38 1_555 1_555
H38 C53 1_555 1_555
C54 C24 1_555 1_555
H39 C54 1_555 1_555
Cl1 C55 1_555 1_555
Cl2 C55 1_555 1_555
C55 H40 1_555 1_555
H41 C55 1_555 1_555
C5 C20 1_555 1_555
C6 C15 1_555 1_555
C10 C28 1_555 1_555
C21 C32 1_555 1_555
C23 C31 1_555 1_555
C24 C42 1_555 1_555
C26 C29 1_555 1_555
C27 C41 1_555 1_555
C30 C33 1_555 1_555
C35 C46 1_555 1_555
C37 C39 1_555 1_555
C38 C52 1_555 1_555
C40 C48 1_555 1_555
C44 C54 1_555 1_555
C45 C50 1_555 1_555
C47 C49 1_555 1_555
C51 C53 1_555 1_555

#END
