
#######################################################################
#
#                 Cambridge Crystallographic Data Centre
#                                CCDC 
#
#######################################################################
#
# If this CIF has been generated from an entry in the Cambridge 
# Structural Database, then it will include bibliographic, chemical, 
# crystal, experimental, refinement or atomic coordinate data resulting 
# from the CCDC's data processing and validation procedures.
#
#######################################################################

data_GISSIL
_chemical_formula_moiety         'C15 H10 N2 O1'
_chemical_name_systematic        3-(m-Tolyloxy)phthalonitrile
_symmetry_cell_setting           orthorhombic
_symmetry_space_group_name_H-M   'P b c a'
_symmetry_Int_Tables_number      61
_space_group_name_Hall           '-P 2ac 2ab'
loop_
_symmetry_equiv_pos_site_id
_symmetry_equiv_pos_as_xyz
1 x,y,z
2 1/2-x,-y,1/2+z
3 -x,1/2+y,1/2-z
4 1/2+x,1/2-y,-z
5 -x,-y,-z
6 1/2+x,y,1/2-z
7 x,1/2-y,1/2+z
8 1/2-x,1/2+y,z
_cell_length_a                   25.514(3)
_cell_length_b                   14.6064(18)
_cell_length_c                   6.6109(6)
_cell_angle_alpha                90
_cell_angle_beta                 90
_cell_angle_gamma                90
_cell_volume                     2463.67
_exptl_crystal_colour            colorless
_exptl_crystal_description       prism
_chemical_melting_point          '374-375 K'
_cell_formula_units_Z            8
_exptl_crystal_recrystallization_method 'absolute ethanol'
loop_
_atom_site_label
_atom_site_type_symbol
_atom_site_fract_x
_atom_site_fract_y
_atom_site_fract_z
O1 O 0.65134(6) 0.53717(13) 0.7428(3)
N1 N 0.43352(8) 0.42711(17) 0.7588(4)
N2 N 0.57804(9) 0.33811(18) 0.7422(5)
C1 C 0.46678(9) 0.47844(18) 0.7550(4)
C2 C 0.57161(9) 0.41537(19) 0.7437(4)
C3 C 0.50933(9) 0.54397(17) 0.7508(4)
C4 C 0.56143(9) 0.51093(16) 0.7447(4)
C5 C 0.60184(9) 0.57428(18) 0.7405(4)
C6 C 0.59127(11) 0.66675(19) 0.7441(5)
H1 H 0.6187 0.7086 0.7429
C7 C 0.54050(11) 0.69742(19) 0.7495(5)
H2 H 0.5338 0.7600 0.7514
C8 C 0.49907(11) 0.63599(19) 0.7523(4)
H3 H 0.4647 0.6571 0.7551
C9 C 0.69296(10) 0.58418(18) 0.6486(5)
C10 C 0.74003(9) 0.58177(18) 0.7517(5)
H4 H 0.7423 0.5552 0.8792
C11 C 0.78408(10) 0.62010(19) 0.6599(6)
C12 C 0.77921(11) 0.6595(2) 0.4711(6)
H5 H 0.8085 0.6851 0.4096
C13 C 0.73158(12) 0.6617(2) 0.3718(6)
H6 H 0.7289 0.6891 0.2452
C14 C 0.68779(11) 0.6230(2) 0.4610(5)
H7 H 0.6556 0.6233 0.3951
C15 C 0.83646(11) 0.6162(2) 0.7674(7)
H8 H 0.8590 0.6632 0.7152
H9 H 0.8523 0.5574 0.7455
H10 H 0.8313 0.6255 0.9098
loop_
_geom_bond_atom_site_label_1
_geom_bond_atom_site_label_2
_geom_bond_site_symmetry_1
_geom_bond_site_symmetry_2
O1 C5 1_555 1_555
N1 C1 1_555 1_555
N2 C2 1_555 1_555
C1 C3 1_555 1_555
C2 C4 1_555 1_555
C3 C4 1_555 1_555
C4 C5 1_555 1_555
C5 C6 1_555 1_555
C6 H1 1_555 1_555
C7 C6 1_555 1_555
H2 C7 1_555 1_555
C8 C3 1_555 1_555
H3 C8 1_555 1_555
C9 O1 1_555 1_555
C10 C9 1_555 1_555
H4 C10 1_555 1_555
C11 C10 1_555 1_555
C12 C11 1_555 1_555
H5 C12 1_555 1_555
C13 C12 1_555 1_555
H6 C13 1_555 1_555
C14 C9 1_555 1_555
H7 C14 1_555 1_555
C15 C11 1_555 1_555
H8 C15 1_555 1_555
H9 C15 1_555 1_555
H10 C15 1_555 1_555
C7 C8 1_555 1_555
C13 C14 1_555 1_555

#END
