
#######################################################################
#
#                 Cambridge Crystallographic Data Centre
#                                CCDC 
#
#######################################################################
#
# If this CIF has been generated from an entry in the Cambridge 
# Structural Database, then it will include bibliographic, chemical, 
# crystal, experimental, refinement or atomic coordinate data resulting 
# from the CCDC's data processing and validation procedures.
#
#######################################################################

data_GISXEN
_chemical_formula_moiety         'C15 H9 B1 F2 N4 O1,C2 H6 O1 S1'
_chemical_name_systematic        
'Difluoro(2-((3-oxo-2,3-dihydro-1H-isoindol-1-ylidene)amino)-1H-3,1-benzimidazol-3-iumato)-boron dimethylsulfoxide solvate'
_symmetry_cell_setting           triclinic
_symmetry_space_group_name_H-M   'P -1'
_symmetry_Int_Tables_number      2
_space_group_name_Hall           '-P 1'
loop_
_symmetry_equiv_pos_site_id
_symmetry_equiv_pos_as_xyz
1 x,y,z
2 -x,-y,-z
_cell_length_a                   6.9557(15)
_cell_length_b                   11.770(3)
_cell_length_c                   12.267(3)
_cell_angle_alpha                62.48(3)
_cell_angle_beta                 87.54(2)
_cell_angle_gamma                86.180(19)
_cell_volume                     888.585
_exptl_crystal_colour            yellow
_exptl_crystal_description       block
_cell_formula_units_Z            2
loop_
_atom_site_label
_atom_site_type_symbol
_atom_site_fract_x
_atom_site_fract_y
_atom_site_fract_z
S1 S 0.16167(11) 0.84585(8) 0.48735(7)
O1 O 0.1857(4) 0.7573(2) 0.43094(18)
C1 C 0.3603(5) 0.8080(3) 0.5843(3)
H1 H 0.3496 0.7236 0.6517
H2 H 0.3627 0.8693 0.6153
H3 H 0.4771 0.8105 0.5387
C2 C 0.2267(5) 0.9986(3) 0.3742(3)
H4 H 0.3561 0.9926 0.3461
H5 H 0.2191 1.0572 0.4087
H6 H 0.1403 1.0289 0.3063
B1 B 0.2465(4) 0.8363(3) 0.8880(3)
F1 F 0.4147(2) 0.79054(15) 0.85523(13)
F2 F 0.0917(2) 0.81434(15) 0.83583(14)
N1 N 0.2222(3) 0.76823(19) 1.03088(17)
N2 N 0.1990(3) 0.7471(2) 1.21868(18)
H7 H 0.1937 0.7661 1.2786
N3 N 0.2399(3) 0.9576(2) 1.05965(18)
N4 N 0.2556(3) 0.97882(19) 0.85600(17)
O2 O 0.2787(3) 1.06928(19) 0.64365(16)
C3 C 0.2013(3) 0.6385(3) 1.1105(2)
C4 C 0.1963(4) 0.5336(3) 1.0893(3)
H8 H 0.2061 0.5417 1.0102
C5 C 0.1760(5) 0.4160(3) 1.1908(4)
H9 H 0.1723 0.3430 1.1799
C6 C 0.1611(5) 0.4042(3) 1.3079(3)
H10 H 0.1488 0.3231 1.3739
C7 C 0.1638(4) 0.5078(3) 1.3309(3)
H11 H 0.1515 0.4993 1.4101
C8 C 0.1861(3) 0.6262(3) 1.2288(2)
C9 C 0.2213(3) 0.8296(2) 1.1001(2)
C10 C 0.2557(3) 1.0245(2) 0.9415(2)
C11 C 0.2788(3) 1.1644(2) 0.8745(2)
C12 C 0.2894(4) 1.2548(3) 0.9161(3)
H12 H 0.2801 1.2327 0.9993
C13 C 0.3146(4) 1.3803(3) 0.8271(3)
H13 H 0.3217 1.4438 0.8516
C14 C 0.3292(4) 1.4132(3) 0.7043(3)
H14 H 0.3453 1.4984 0.6476
C15 C 0.3207(4) 1.3224(3) 0.6631(3)
H15 H 0.3324 1.3443 0.5800
C16 C 0.2938(3) 1.1976(2) 0.7511(2)
C17 C 0.2761(3) 1.0808(3) 0.7369(2)
loop_
_geom_bond_atom_site_label_1
_geom_bond_atom_site_label_2
_geom_bond_site_symmetry_1
_geom_bond_site_symmetry_2
S1 O1 1_555 1_555
C1 S1 1_555 1_555
H1 C1 1_555 1_555
H2 C1 1_555 1_555
H3 C1 1_555 1_555
C2 S1 1_555 1_555
H4 C2 1_555 1_555
H5 C2 1_555 1_555
H6 C2 1_555 1_555
B1 F1 1_555 1_555
F2 B1 1_555 1_555
N1 B1 1_555 1_555
N2 H7 1_555 1_555
N3 C9 1_555 1_555
N4 B1 1_555 1_555
O2 C17 1_555 1_555
C3 N1 1_555 1_555
C4 C3 1_555 1_555
H8 C4 1_555 1_555
C5 C4 1_555 1_555
H9 C5 1_555 1_555
C6 C5 1_555 1_555
H10 C6 1_555 1_555
C7 C6 1_555 1_555
H11 C7 1_555 1_555
C8 N2 1_555 1_555
C9 N1 1_555 1_555
C10 N3 1_555 1_555
C11 C10 1_555 1_555
C12 C11 1_555 1_555
H12 C12 1_555 1_555
C13 C12 1_555 1_555
H13 C13 1_555 1_555
C14 C13 1_555 1_555
H14 C14 1_555 1_555
C15 C14 1_555 1_555
H15 C15 1_555 1_555
C16 C11 1_555 1_555
C17 N4 1_555 1_555
N2 C9 1_555 1_555
N4 C10 1_555 1_555
C3 C8 1_555 1_555
C7 C8 1_555 1_555
C15 C16 1_555 1_555
C16 C17 1_555 1_555

#END
