
#######################################################################
#
#                 Cambridge Crystallographic Data Centre
#                                CCDC 
#
#######################################################################
#
# If this CIF has been generated from an entry in the Cambridge 
# Structural Database, then it will include bibliographic, chemical, 
# crystal, experimental, refinement or atomic coordinate data resulting 
# from the CCDC's data processing and validation procedures.
#
#######################################################################

data_GISXOX
_chemical_formula_moiety         'C16 H9 B1 F2 N2 O1 S1'
_chemical_name_systematic        
6,6-Difluoro-5\l^5^,6\l^5^-isoindolo[2',1':3,4][1,3,2]diazaborinino[6,1-b][1,3]benzothiazol-8(6H)-one
_symmetry_cell_setting           monoclinic
_symmetry_space_group_name_H-M   'P 21/c'
_symmetry_Int_Tables_number      14
_space_group_name_Hall           '-P 2ybc'
loop_
_symmetry_equiv_pos_site_id
_symmetry_equiv_pos_as_xyz
1 x,y,z
2 -x,1/2+y,1/2-z
3 -x,-y,-z
4 x,1/2-y,1/2+z
_cell_length_a                   8.6511(7)
_cell_length_b                   11.6621(9)
_cell_length_c                   13.9426(8)
_cell_angle_alpha                90
_cell_angle_beta                 100.040(7)
_cell_angle_gamma                90
_cell_volume                     1385.13
_exptl_crystal_colour            yellow
_exptl_crystal_description       block
_cell_formula_units_Z            4
loop_
_atom_site_label
_atom_site_type_symbol
_atom_site_fract_x
_atom_site_fract_y
_atom_site_fract_z
S1 S 1.02231(10) 0.33599(7) 1.09251(5)
F1 F 0.7108(2) 0.35803(17) 0.77041(12)
F2 F 0.8231(2) 0.18377(17) 0.77420(12)
N1 N 0.6194(3) 0.2127(2) 0.86852(15)
N2 N 0.8825(3) 0.30086(19) 0.91751(14)
O1 O 0.4580(3) 0.1615(2) 0.72377(14)
B1 B 0.7553(5) 0.2630(3) 0.8277(2)
C1 C 1.1199(4) 0.3737(2) 0.99835(19)
C2 C 1.2657(4) 0.4230(3) 1.0048(2)
H1 H 1.3267 0.4393 1.0650
C3 C 1.3190(4) 0.4478(3) 0.9192(2)
H2 H 1.4170 0.4816 0.9215
C4 C 1.2271(4) 0.4225(3) 0.8299(2)
H3 H 1.2653 0.4395 0.7732
C5 C 1.0818(4) 0.3732(3) 0.8227(2)
H4 H 1.0213 0.3568 0.7623
C6 C 1.0275(4) 0.3482(2) 0.90876(18)
C7 C 0.8640(4) 0.2899(2) 1.01021(18)
C8 C 0.7249(4) 0.2446(2) 1.03656(19)
H5 H 0.7141 0.2409 1.1017
C9 C 0.6090(4) 0.2073(2) 0.96664(19)
C10 C 0.4588(4) 0.1536(2) 0.97571(19)
C11 C 0.3937(4) 0.1265(3) 1.0558(2)
H6 H 0.4452 0.1427 1.1186
C12 C 0.2484(4) 0.0741(3) 1.0391(2)
H7 H 0.2015 0.0543 1.0919
C13 C 0.1697(4) 0.0498(3) 0.9450(2)
H8 H 0.0718 0.0145 0.9364
C14 C 0.2359(4) 0.0777(3) 0.8647(2)
H9 H 0.1844 0.0622 0.8017
C15 C 0.3812(4) 0.1296(2) 0.88170(19)
C16 C 0.4817(4) 0.1672(3) 0.8126(2)
loop_
_geom_bond_atom_site_label_1
_geom_bond_atom_site_label_2
_geom_bond_site_symmetry_1
_geom_bond_site_symmetry_2
S1 C1 1_555 1_555
F1 B1 1_555 1_555
F2 B1 1_555 1_555
N1 B1 1_555 1_555
N2 B1 1_555 1_555
O1 C16 1_555 1_555
C1 C2 1_555 1_555
C2 H1 1_555 1_555
C3 C2 1_555 1_555
H2 C3 1_555 1_555
C4 C3 1_555 1_555
H3 C4 1_555 1_555
C5 C4 1_555 1_555
H4 C5 1_555 1_555
C6 N2 1_555 1_555
C7 S1 1_555 1_555
C8 C7 1_555 1_555
H5 C8 1_555 1_555
C9 N1 1_555 1_555
C10 C9 1_555 1_555
C11 C10 1_555 1_555
H6 C11 1_555 1_555
C12 C11 1_555 1_555
H7 C12 1_555 1_555
C13 C12 1_555 1_555
H8 C13 1_555 1_555
C14 C13 1_555 1_555
H9 C14 1_555 1_555
C15 C10 1_555 1_555
C16 N1 1_555 1_555
N2 C7 1_555 1_555
C1 C6 1_555 1_555
C5 C6 1_555 1_555
C8 C9 1_555 1_555
C14 C15 1_555 1_555
C15 C16 1_555 1_555

#END
