
#######################################################################
#
#                 Cambridge Crystallographic Data Centre
#                                CCDC 
#
#######################################################################
#
# If this CIF has been generated from an entry in the Cambridge 
# Structural Database, then it will include bibliographic, chemical, 
# crystal, experimental, refinement or atomic coordinate data resulting 
# from the CCDC's data processing and validation procedures.
#
#######################################################################

data_GISXAJ
_chemical_formula_moiety         'C17 H8 B1 F2 N3 O1 S1'
_chemical_name_systematic        
6,6-Difluoro-8-oxo-6,8-dihydro-5\l^5^,6\l^5^-isoindolo[2',1':3,4][1,3,2]diazaborinino[6,1-b][1,3]benzothiazole-13-carbonitrile
_symmetry_cell_setting           orthorhombic
_symmetry_space_group_name_H-M   'P b c a'
_symmetry_Int_Tables_number      61
_space_group_name_Hall           '-P 2ac 2ab'
loop_
_symmetry_equiv_pos_site_id
_symmetry_equiv_pos_as_xyz
1 x,y,z
2 1/2-x,-y,1/2+z
3 1/2+x,1/2-y,-z
4 -x,1/2+y,1/2-z
5 -x,-y,-z
6 1/2+x,y,1/2-z
7 1/2-x,1/2+y,z
8 x,1/2-y,1/2+z
_cell_length_a                   13.6330(14)
_cell_length_b                   9.7606(11)
_cell_length_c                   21.294(3)
_cell_angle_alpha                90
_cell_angle_beta                 90
_cell_angle_gamma                90
_cell_volume                     2833.51
_exptl_crystal_colour            yellow
_exptl_crystal_description       block
_cell_formula_units_Z            8
loop_
_atom_site_label
_atom_site_type_symbol
_atom_site_fract_x
_atom_site_fract_y
_atom_site_fract_z
S1 S 0.10931(7) 0.28708(10) 0.45407(5)
B1 B 0.3901(3) 0.1809(5) 0.4043(2)
F1 F 0.44579(15) 0.1211(2) 0.45189(11)
F2 F 0.44225(17) 0.2864(2) 0.37765(11)
N1 N 0.2924(2) 0.2400(3) 0.43310(16)
N2 N 0.3578(2) 0.0731(3) 0.35543(16)
N3 N 0.0051(3) 0.0818(4) 0.33051(18)
O1 O 0.5130(2) -0.0034(3) 0.32623(14)
C1 C 0.2906(3) 0.3383(4) 0.48190(19)
C2 C 0.3711(3) 0.3995(4) 0.5101(2)
H1 H 0.4347 0.3770 0.4981
C3 C 0.3534(3) 0.4948(4) 0.5564(2)
H2 H 0.4061 0.5376 0.5760
C4 C 0.2576(3) 0.5287(4) 0.5748(2)
H3 H 0.2479 0.5928 0.6065
C5 C 0.1782(3) 0.4689(4) 0.5467(2)
H4 H 0.1147 0.4909 0.5591
C6 C 0.1953(3) 0.3741(4) 0.49913(19)
C7 C 0.2027(3) 0.2068(4) 0.4148(2)
C8 C 0.1854(3) 0.1081(4) 0.36524(19)
C9 C 0.2640(3) 0.0438(4) 0.33830(19)
C10 C 0.2656(3) -0.0640(4) 0.28910(18)
C11 C 0.3635(3) -0.0950(4) 0.2784(2)
C12 C 0.4257(3) -0.0081(4) 0.32041(19)
C13 C 0.3913(3) -0.1943(4) 0.2351(2)
H5 H 0.4569 -0.2130 0.2268
C14 C 0.1914(3) -0.1318(4) 0.25855(19)
H6 H 0.1258 -0.1106 0.2658
C15 C 0.3165(3) -0.2637(4) 0.2048(2)
H7 H 0.3324 -0.3322 0.1762
C16 C 0.2186(3) -0.2344(4) 0.2159(2)
H8 H 0.1703 -0.2834 0.1948
C17 C 0.0858(3) 0.0885(4) 0.34556(19)
loop_
_geom_bond_atom_site_label_1
_geom_bond_atom_site_label_2
_geom_bond_site_symmetry_1
_geom_bond_site_symmetry_2
S1 C6 1_555 1_555
B1 F1 1_555 1_555
F2 B1 1_555 1_555
N1 B1 1_555 1_555
N2 B1 1_555 1_555
N3 C17 1_555 1_555
O1 C12 1_555 1_555
C1 N1 1_555 1_555
C2 C1 1_555 1_555
H1 C2 1_555 1_555
C3 C2 1_555 1_555
H2 C3 1_555 1_555
C4 C3 1_555 1_555
H3 C4 1_555 1_555
C5 C4 1_555 1_555
H4 C5 1_555 1_555
C6 C1 1_555 1_555
C7 S1 1_555 1_555
C8 C7 1_555 1_555
C9 N2 1_555 1_555
C10 C9 1_555 1_555
C11 C10 1_555 1_555
C12 N2 1_555 1_555
C13 C11 1_555 1_555
H5 C13 1_555 1_555
C14 C10 1_555 1_555
H6 C14 1_555 1_555
C15 C13 1_555 1_555
H7 C15 1_555 1_555
C16 C14 1_555 1_555
H8 C16 1_555 1_555
C17 C8 1_555 1_555
N1 C7 1_555 1_555
C5 C6 1_555 1_555
C8 C9 1_555 1_555
C11 C12 1_555 1_555
C15 C16 1_555 1_555

#END
