
#######################################################################
#
#                 Cambridge Crystallographic Data Centre
#                                CCDC 
#
#######################################################################
#
# If this CIF has been generated from an entry in the Cambridge 
# Structural Database, then it will include bibliographic, chemical, 
# crystal, experimental, refinement or atomic coordinate data resulting 
# from the CCDC's data processing and validation procedures.
#
#######################################################################

data_GITBAN
_chemical_formula_moiety         'C15 H14 N2 O4'
_chemical_name_systematic        
trans-2,4-Dihydroxy-N'-(4-methoxybenzylidene)benzohydrazide
_symmetry_cell_setting           orthorhombic
_symmetry_space_group_name_H-M   'P n a 21'
_symmetry_Int_Tables_number      33
_space_group_name_Hall           'P 2c -2n'
loop_
_symmetry_equiv_pos_site_id
_symmetry_equiv_pos_as_xyz
1 x,y,z
2 -x,-y,1/2+z
3 1/2+x,1/2-y,z
4 1/2-x,1/2+y,1/2+z
_cell_length_a                   12.494(3)
_cell_length_b                   5.1960(10)
_cell_length_c                   20.825(4)
_cell_angle_alpha                90
_cell_angle_beta                 90
_cell_angle_gamma                90
_cell_volume                     1351.93
_exptl_crystal_colour            colorless
_exptl_crystal_description       block
_cell_formula_units_Z            4
_exptl_crystal_recrystallization_method '95% ethanol'
loop_
_atom_site_label
_atom_site_type_symbol
_atom_site_fract_x
_atom_site_fract_y
_atom_site_fract_z
O1 O -0.07270(13) 0.0953(3) 0.95352(10)
O2 O 0.05579(11) 1.2801(3) 0.67387(9)
O3 O 0.37031(11) 1.3774(3) 0.73708(8)
H1 H 0.4359 1.3777 0.7357
O4 O 0.41377(12) 2.0606(3) 0.58664(8)
H2 H 0.4607 2.1038 0.6120
N1 N 0.11530(13) 0.9630(3) 0.76750(9)
N2 N 0.18526(13) 1.1298(3) 0.73763(9)
C1 C 0.09837(17) 0.6230(4) 0.84516(11)
C2 C -0.01216(19) 0.5952(5) 0.83938(12)
H3 H -0.0499 0.6974 0.8105
C3 C -0.06553(18) 0.4174(5) 0.87614(13)
H4 H -0.1392 0.3994 0.8717
C4 C -0.01114(18) 0.2637(4) 0.91993(11)
C5 C 0.09840(18) 0.2886(4) 0.92608(12)
H5 H 0.1360 0.1855 0.9548
C6 C 0.15162(17) 0.4694(4) 0.88882(12)
H6 H 0.2253 0.4876 0.8934
C7 C 0.15821(17) 0.8097(4) 0.80745(11)
H7 H 0.2320 0.8173 0.8129
C8 C 0.15001(14) 1.2894(4) 0.69171(10)
C9 C 0.22691(14) 1.4776(4) 0.66456(10)
C10 C 0.33078(14) 1.5226(4) 0.68779(10)
C11 C 0.39332(15) 1.7176(4) 0.66248(10)
H8 H 0.4610 1.7489 0.6793
C12 C 0.35562(16) 1.8657(4) 0.61231(10)
C13 C 0.25493(16) 1.8182(4) 0.58614(11)
H9 H 0.2303 1.9129 0.5512
C14 C 0.19282(16) 1.6282(4) 0.61303(10)
H10 H 0.1250 1.5987 0.5961
C15 C -0.0203(2) -0.0748(5) 0.99722(14)
H11 H 0.0135 0.0235 1.0306
H12 H 0.0328 -0.1729 0.9746
H13 H -0.0720 -0.1893 1.0159
H14 H 0.2547(11) 1.133(6) 0.7492(17)
loop_
_geom_bond_atom_site_label_1
_geom_bond_atom_site_label_2
_geom_bond_site_symmetry_1
_geom_bond_site_symmetry_2
O1 C4 1_555 1_555
O2 C8 1_555 1_555
O3 H1 1_555 1_555
O4 H2 1_555 1_555
N1 N2 1_555 1_555
N2 C8 1_555 1_555
C1 C2 1_555 1_555
C2 H3 1_555 1_555
C3 C2 1_555 1_555
H4 C3 1_555 1_555
C4 C3 1_555 1_555
C5 C4 1_555 1_555
H5 C5 1_555 1_555
C6 C1 1_555 1_555
H6 C6 1_555 1_555
C7 N1 1_555 1_555
H7 C7 1_555 1_555
C8 C9 1_555 1_555
C9 C10 1_555 1_555
C10 O3 1_555 1_555
C11 C10 1_555 1_555
H8 C11 1_555 1_555
C12 O4 1_555 1_555
C13 C12 1_555 1_555
H9 C13 1_555 1_555
C14 C9 1_555 1_555
H10 C14 1_555 1_555
C15 O1 1_555 1_555
H11 C15 1_555 1_555
H12 C15 1_555 1_555
H13 C15 1_555 1_555
H14 N2 1_555 1_555
C1 C7 1_555 1_555
C5 C6 1_555 1_555
C11 C12 1_555 1_555
C13 C14 1_555 1_555

#END
