
#######################################################################
#
#                 Cambridge Crystallographic Data Centre
#                                CCDC 
#
#######################################################################
#
# If this CIF has been generated from an entry in the Cambridge 
# Structural Database, then it will include bibliographic, chemical, 
# crystal, experimental, refinement or atomic coordinate data resulting 
# from the CCDC's data processing and validation procedures.
#
#######################################################################

data_GITCES
_chemical_compound_source        'Artemisia rupestris L. (Yizhihao)'
_chemical_name_common            '(R)-Rupestonic acid'
_chemical_formula_moiety         'C15 H20 O3'
_chemical_name_systematic        
'(5R,8R,8aR)-2-(3,8-Dimethyl-2-oxo-1,2,4,5,6,7,8,8a-octahydroazulen-5-yl)acrylic acid'
_chemical_properties_biological  
'high activity against the influenza B virus. Also tested against herpes simplex type 1 and 2 and influenza virus A3'
_symmetry_cell_setting           monoclinic
_symmetry_space_group_name_H-M   'P 21'
_symmetry_Int_Tables_number      4
_space_group_name_Hall           'P 2yb'
loop_
_symmetry_equiv_pos_site_id
_symmetry_equiv_pos_as_xyz
1 x,y,z
2 -x,1/2+y,-z
_cell_length_a                   9.5295(19)
_cell_length_b                   9.4821(19)
_cell_length_c                   15.047(3)
_cell_angle_alpha                90
_cell_angle_beta                 98.36(3)
_cell_angle_gamma                90
_cell_volume                     1345.19
_exptl_crystal_colour            colorless
_exptl_crystal_description       needle
_cell_formula_units_Z            4
_exptl_crystal_recrystallization_method 'acetone/petroleum ether'
loop_
_atom_site_label
_atom_site_type_symbol
_atom_site_fract_x
_atom_site_fract_y
_atom_site_fract_z
O1 O 0.1814(3) 0.3739(4) 0.2549(2)
O2 O 0.1916(3) 0.4857(3) 0.12807(18)
O3 O -0.6320(3) 0.5450(4) -0.18584(17)
C1 C 0.1251(4) 0.4058(4) 0.1813(3)
C2 C -0.0184(3) 0.3600(4) 0.1407(2)
C3 C -0.0794(3) 0.4117(3) 0.0475(2)
H1 H -0.0651 0.5140 0.0465
C4 C -0.2392(3) 0.3848(4) 0.0280(2)
H2 H -0.2538 0.2841 0.0200
H3 H -0.2804 0.4122 0.0807
C5 C -0.3195(3) 0.4575(4) -0.0511(2)
C6 C -0.2531(3) 0.5444(4) -0.1181(2)
H4 H -0.2052 0.6255 -0.0866
C7 C -0.1458(3) 0.4665(4) -0.1671(2)
H5 H -0.1267 0.5285 -0.2161
C8 C -0.2072(5) 0.3311(5) -0.2112(3)
H6 H -0.1375 0.2862 -0.2417
H7 H -0.2896 0.3529 -0.2536
H8 H -0.2331 0.2687 -0.1660
C9 C -0.0031(4) 0.4419(5) -0.1081(3)
C10 C -0.0028(4) 0.3477(4) -0.0261(2)
H9 H 0.0946 0.3278 -0.0008
H10 H -0.0478 0.2588 -0.0452
C11 C -0.4614(3) 0.4519(4) -0.0694(2)
C12 C -0.5604(4) 0.3782(6) -0.0172(3)
H11 H -0.5440 0.4097 0.0440
H12 H -0.5446 0.2783 -0.0193
H13 H -0.6564 0.3989 -0.0428
C13 C -0.5085(4) 0.5330(5) -0.1502(2)
C14 C -0.3832(4) 0.5989(5) -0.1823(3)
H14 H -0.3889 0.7009 -0.1797
H15 H -0.3775 0.5710 -0.2437
C15 C -0.0845(4) 0.2777(5) 0.1914(3)
H16 H -0.0407 0.2523 0.2484
H17 H -0.1752 0.2448 0.1702
H18 H 0.281(6) 0.505(6) 0.156(4)
H19 H 0.038(4) 0.530(4) -0.085(2)
H20 H 0.064(3) 0.408(3) -0.146(2)
O4 O 1.1007(3) 0.4719(3) 0.65333(19)
O5 O 1.2819(3) 0.6146(4) 0.6438(2)
O6 O 0.4647(2) 0.5556(3) 0.18400(17)
C16 C 1.1608(3) 0.5541(4) 0.6110(2)
C17 C 1.1042(3) 0.5984(4) 0.5178(2)
C18 C 0.9465(3) 0.5744(4) 0.4913(2)
H21 H 0.9257 0.4770 0.5069
C19 C 0.8648(3) 0.6722(4) 0.5459(2)
H22 H 0.9221 0.6884 0.6038
H23 H 0.8526 0.7623 0.5153
C20 C 0.7194(3) 0.6196(5) 0.5620(2)
H24 H 0.7314 0.5273 0.5899
H25 H 0.6846 0.6824 0.6048
C21 C 0.6060(3) 0.6081(4) 0.4799(2)
H26 H 0.5217 0.5698 0.5016
C22 C 0.5632(4) 0.7506(5) 0.4404(3)
H27 H 0.5390 0.8116 0.4868
H28 H 0.4827 0.7403 0.3945
H29 H 0.6408 0.7907 0.4148
C23 C 0.6444(3) 0.5018(4) 0.4090(2)
H30 H 0.6818 0.4149 0.4387
C24 C 0.7508(3) 0.5621(3) 0.3543(2)
C25 C 0.9026(3) 0.5920(4) 0.3903(2)
H31 H 0.9234 0.6881 0.3746
H32 H 0.9615 0.5304 0.3599
C26 C 0.5173(3) 0.4672(5) 0.3372(2)
H33 H 0.5093 0.3662 0.3274
H34 H 0.4298 0.5016 0.3551
C27 C 0.5476(3) 0.5405(4) 0.2543(2)
C28 C 0.6940(3) 0.5903(4) 0.2692(2)
C29 C 0.7624(4) 0.6651(4) 0.1996(3)
H35 H 0.8567 0.6293 0.1998
H36 H 0.7668 0.7643 0.2126
H37 H 0.7078 0.6500 0.1416
C30 C 1.1901(4) 0.6522(5) 0.4661(3)
H38 H 1.2861 0.6625 0.4877
H39 H 1.1551 0.6801 0.4078
H40 H 1.310(5) 0.600(5) 0.703(3)
loop_
_geom_bond_atom_site_label_1
_geom_bond_atom_site_label_2
_geom_bond_site_symmetry_1
_geom_bond_site_symmetry_2
O1 C1 1_555 1_555
O2 C1 1_555 1_555
O3 C13 1_555 1_555
C1 C2 1_555 1_555
C2 C3 1_555 1_555
C3 H1 1_555 1_555
C4 C3 1_555 1_555
H2 C4 1_555 1_555
H3 C4 1_555 1_555
C5 C4 1_555 1_555
C6 C5 1_555 1_555
H4 C6 1_555 1_555
C7 C6 1_555 1_555
H5 C7 1_555 1_555
C8 C7 1_555 1_555
H6 C8 1_555 1_555
H7 C8 1_555 1_555
H8 C8 1_555 1_555
C9 C7 1_555 1_555
C10 C3 1_555 1_555
H9 C10 1_555 1_555
H10 C10 1_555 1_555
C11 C5 1_555 1_555
C12 C11 1_555 1_555
H11 C12 1_555 1_555
H12 C12 1_555 1_555
H13 C12 1_555 1_555
C13 C11 1_555 1_555
C14 C6 1_555 1_555
H14 C14 1_555 1_555
H15 C14 1_555 1_555
C15 C2 1_555 1_555
H16 C15 1_555 1_555
H17 C15 1_555 1_555
H18 O2 1_555 1_555
H19 C9 1_555 1_555
H20 C9 1_555 1_555
O4 C16 1_555 1_555
O5 C16 1_555 1_555
O6 C27 1_555 1_555
C16 C17 1_555 1_555
C17 C18 1_555 1_555
C18 H21 1_555 1_555
C19 C18 1_555 1_555
H22 C19 1_555 1_555
H23 C19 1_555 1_555
C20 C19 1_555 1_555
H24 C20 1_555 1_555
H25 C20 1_555 1_555
C21 C20 1_555 1_555
H26 C21 1_555 1_555
C22 C21 1_555 1_555
H27 C22 1_555 1_555
H28 C22 1_555 1_555
H29 C22 1_555 1_555
C23 C21 1_555 1_555
H30 C23 1_555 1_555
C24 C23 1_555 1_555
C25 C18 1_555 1_555
H31 C25 1_555 1_555
H32 C25 1_555 1_555
C26 C23 1_555 1_555
H33 C26 1_555 1_555
H34 C26 1_555 1_555
C27 C26 1_555 1_555
C28 C24 1_555 1_555
C29 C28 1_555 1_555
H35 C29 1_555 1_555
H36 C29 1_555 1_555
H37 C29 1_555 1_555
C30 C17 1_555 1_555
H38 C30 1_555 1_555
H39 C30 1_555 1_555
H40 O5 1_555 1_555
C9 C10 1_555 1_555
C13 C14 1_555 1_555
C24 C25 1_555 1_555
C27 C28 1_555 1_555

#END
