
#######################################################################
#
#                 Cambridge Crystallographic Data Centre
#                                CCDC 
#
#######################################################################
#
# If this CIF has been generated from an entry in the Cambridge 
# Structural Database, then it will include bibliographic, chemical, 
# crystal, experimental, refinement or atomic coordinate data resulting 
# from the CCDC's data processing and validation procedures.
#
#######################################################################

data_GITFEV
_chemical_formula_moiety         'C20 H12 Cl3 N3 O2'
_chemical_name_systematic        
2,2'-(1-(2,4,6-Trichlorophenyl)-1H-1,2,4-triazole-3,5-diyl)diphenol
_symmetry_cell_setting           monoclinic
_symmetry_space_group_name_H-M   'P 21/c'
_symmetry_Int_Tables_number      14
_space_group_name_Hall           '-P 2ybc'
loop_
_symmetry_equiv_pos_site_id
_symmetry_equiv_pos_as_xyz
1 x,y,z
2 -x,1/2+y,1/2-z
3 -x,-y,-z
4 x,1/2-y,1/2+z
_cell_length_a                   14.328(3)
_cell_length_b                   12.021(2)
_cell_length_c                   12.014(2)
_cell_angle_alpha                90
_cell_angle_beta                 104.99(3)
_cell_angle_gamma                90
_cell_volume                     1998.84
_exptl_crystal_colour            colorless
_exptl_crystal_description       block
_cell_formula_units_Z            4
_exptl_crystal_recrystallization_method methanol
loop_
_atom_site_label
_atom_site_type_symbol
_atom_site_fract_x
_atom_site_fract_y
_atom_site_fract_z
Cl1 Cl 0.25005(6) -0.25222(6) 0.53114(7)
Cl2 Cl 0.36388(5) 0.15110(5) 0.40863(6)
Cl3 Cl 0.49510(6) -0.22786(7) 0.25494(7)
N1 N 0.25668(12) -0.00229(15) 0.52989(14)
N2 N 0.29844(12) 0.00432(15) 0.64746(14)
N3 N 0.14978(11) 0.08336(15) 0.60312(14)
C1 C 0.33274(16) 0.04839(17) 0.89318(18)
C2 C 0.34437(19) 0.0687(2) 1.0104(2)
H1 H 0.4018 0.0490 1.0632
C3 C 0.2707(2) 0.1181(2) 1.0485(2)
H2 H 0.2788 0.1305 1.1268
C4 C 0.1850(2) 0.1491(2) 0.9706(2)
H3 H 0.1360 0.1823 0.9967
C5 C 0.17289(17) 0.13019(19) 0.8534(2)
H4 H 0.1155 0.1513 0.8014
C6 C 0.24623(14) 0.07958(17) 0.81220(17)
C7 C 0.23151(14) 0.05618(16) 0.68776(17)
C8 C 0.16669(14) 0.04599(17) 0.50442(18)
C9 C 0.09851(15) 0.06060(19) 0.38957(18)
C10 C 0.01411(16) 0.1254(2) 0.3802(2)
C11 C -0.04752(19) 0.1462(2) 0.2709(3)
H5 H -0.1024 0.1895 0.2645
C12 C -0.0282(2) 0.1036(3) 0.1730(3)
H6 H -0.0691 0.1202 0.1012
C13 C 0.0522(2) 0.0357(3) 0.1803(2)
H7 H 0.0637 0.0045 0.1142
C14 C 0.11476(18) 0.0154(3) 0.2880(2)
H8 H 0.1687 -0.0292 0.2930
C15 C 0.31228(14) -0.05594(18) 0.46145(17)
C16 C 0.36702(15) 0.00659(18) 0.40185(17)
C17 C 0.42321(16) -0.0452(2) 0.33763(19)
H9 H 0.4587 -0.0035 0.2978
C18 C 0.42469(17) -0.1615(2) 0.3349(2)
C19 C 0.37295(18) -0.2260(2) 0.3944(2)
H10 H 0.3758 -0.3033 0.3923
C20 C 0.31687(16) -0.1727(2) 0.4570(2)
O1 O -0.01130(13) 0.16967(17) 0.47345(18)
H11 H 0.032(2) 0.156(3) 0.533(3)
O2 O 0.40802(12) -0.00300(15) 0.86177(16)
H12 H 0.3949(19) -0.013(2) 0.793(2)
loop_
_geom_bond_atom_site_label_1
_geom_bond_atom_site_label_2
_geom_bond_site_symmetry_1
_geom_bond_site_symmetry_2
Cl1 C20 1_555 1_555
Cl2 C16 1_555 1_555
Cl3 C18 1_555 1_555
N1 N2 1_555 1_555
N2 C7 1_555 1_555
N3 C7 1_555 1_555
C1 C2 1_555 1_555
C2 H1 1_555 1_555
C3 C2 1_555 1_555
H2 C3 1_555 1_555
C4 C3 1_555 1_555
H3 C4 1_555 1_555
C5 C4 1_555 1_555
H4 C5 1_555 1_555
C6 C1 1_555 1_555
C7 C6 1_555 1_555
C8 N1 1_555 1_555
C9 C8 1_555 1_555
C10 C9 1_555 1_555
C11 C10 1_555 1_555
H5 C11 1_555 1_555
C12 C11 1_555 1_555
H6 C12 1_555 1_555
C13 C12 1_555 1_555
H7 C13 1_555 1_555
C14 C9 1_555 1_555
H8 C14 1_555 1_555
C15 N1 1_555 1_555
C16 C15 1_555 1_555
C17 C16 1_555 1_555
H9 C17 1_555 1_555
C18 C17 1_555 1_555
C19 C18 1_555 1_555
H10 C19 1_555 1_555
C20 C15 1_555 1_555
O1 C10 1_555 1_555
H11 O1 1_555 1_555
O2 C1 1_555 1_555
H12 O2 1_555 1_555
N3 C8 1_555 1_555
C5 C6 1_555 1_555
C13 C14 1_555 1_555
C19 C20 1_555 1_555

#END
