
#######################################################################
#
#                 Cambridge Crystallographic Data Centre
#                                CCDC 
#
#######################################################################
#
# If this CIF has been generated from an entry in the Cambridge 
# Structural Database, then it will include bibliographic, chemical, 
# crystal, experimental, refinement or atomic coordinate data resulting 
# from the CCDC's data processing and validation procedures.
#
#######################################################################

data_GITFOG
_chemical_formula_moiety         'C96 Cl20'
_chemical_name_systematic        Icosachloro-C96fullerene
_symmetry_cell_setting           monoclinic
_symmetry_space_group_name_H-M   'C 2/c'
_symmetry_Int_Tables_number      15
_space_group_name_Hall           '-C 2yn'
loop_
_symmetry_equiv_pos_site_id
_symmetry_equiv_pos_as_xyz
1 x,y,z
2 -x,y,1/2-z
3 1/2+x,1/2+y,z
4 1/2-x,1/2+y,1/2-z
5 -x,-y,-z
6 x,-y,1/2+z
7 1/2-x,1/2-y,-z
8 1/2+x,1/2-y,1/2+z
_cell_length_a                   14.2290(10)
_cell_length_b                   25.921(2)
_cell_length_c                   33.971(3)
_cell_angle_alpha                90
_cell_angle_beta                 93.904(9)
_cell_angle_gamma                90
_cell_volume                     12500.4
_exptl_crystal_colour            orange
_exptl_crystal_description       plate
_cell_formula_units_Z            8
loop_
_atom_site_label
_atom_site_type_symbol
_atom_site_fract_x
_atom_site_fract_y
_atom_site_fract_z
Cl1 Cl 0.47713(14) 0.24326(11) 0.57639(5)
Cl2 Cl 0.45097(16) 0.12599(11) 0.54113(6)
Cl3 Cl 0.59844(15) 0.37713(11) 0.56454(6)
Cl4 Cl 0.39071(15) 0.35439(11) 0.57014(6)
Cl5 Cl 0.34332(17) 0.06330(11) 0.47265(7)
Cl6 Cl 0.55619(17) 0.03812(11) 0.46771(7)
Cl7 Cl 0.5290(2) 0.02948(12) 0.37786(7)
Cl8 Cl 0.59556(18) 0.08723(12) 0.28928(6)
Cl9 Cl 0.79267(17) 0.15399(13) 0.29126(6)
Cl10 Cl 0.9432(2) 0.2192(3) 0.33113(8)
Cl11 Cl 0.27959(18) 0.51439(11) 0.44398(7)
Cl12 Cl 0.17465(14) 0.43333(10) 0.39212(6)
Cl13 Cl 0.86957(16) 0.27367(13) 0.25003(6)
Cl14 Cl 0.9874(3) 0.3558(4) 0.31369(9)
Cl15 Cl 0.8445(2) 0.39864(15) 0.24282(8)
Cl16 Cl 0.8973(2) 0.48602(17) 0.29862(8)
Cl17 Cl 0.33092(18) 0.54278(11) 0.35753(7)
Cl18 Cl 0.70200(18) 0.49578(14) 0.24223(7)
Cl19 Cl 0.7233(2) 0.58139(14) 0.30974(8)
Cl20 Cl 0.5054(2) 0.56701(13) 0.30432(8)
C1 C 0.5879(6) 0.2229(4) 0.4851(2)
C2 C 0.5541(6) 0.2659(4) 0.5059(2)
C3 C 0.4619(5) 0.2693(4) 0.5277(2)
C4 C 0.3822(5) 0.2463(4) 0.5010(2)
C5 C 0.3786(6) 0.1981(4) 0.4866(2)
C6 C 0.4483(6) 0.1544(4) 0.4931(2)
C7 C 0.5451(6) 0.1737(4) 0.4822(2)
C8 C 0.5756(6) 0.1386(4) 0.4559(2)
C9 C 0.6419(6) 0.1494(4) 0.4283(2)
C10 C 0.6883(6) 0.1968(5) 0.4297(2)
C11 C 0.6663(6) 0.2342(4) 0.4599(2)
C12 C 0.7045(5) 0.2851(4) 0.4580(2)
C13 C 0.6673(5) 0.3258(4) 0.4789(2)
C14 C 0.5903(6) 0.3149(4) 0.5022(2)
C15 C 0.5356(6) 0.3567(4) 0.5188(2)
C16 C 0.4422(6) 0.3295(4) 0.5271(2)
C17 C 0.3710(6) 0.3357(4) 0.4921(2)
C18 C 0.3366(6) 0.2881(4) 0.4801(2)
C19 C 0.2910(5) 0.2821(4) 0.4416(2)
C20 C 0.2873(5) 0.2314(4) 0.4263(2)
C21 C 0.3309(6) 0.1908(4) 0.4475(2)
C22 C 0.3655(6) 0.1471(4) 0.4297(2)
C23 C 0.4210(6) 0.1142(4) 0.4588(2)
C24 C 0.5147(7) 0.0949(4) 0.4433(3)
C25 C 0.5245(7) 0.0935(4) 0.3967(3)
C26 C 0.6184(6) 0.1250(4) 0.3930(2)
C27 C 0.6487(7) 0.1441(4) 0.3580(2)
C28 C 0.7183(7) 0.1835(5) 0.3601(2)
C29 C 0.7375(6) 0.2120(5) 0.3956(2)
C30 C 0.7809(6) 0.2625(5) 0.3959(2)
C31 C 0.7687(6) 0.2962(5) 0.4276(2)
C32 C 0.7950(6) 0.3464(5) 0.4232(2)
C33 C 0.7546(6) 0.3890(5) 0.4445(2)
C34 C 0.6850(6) 0.3786(5) 0.4709(2)
C35 C 0.6107(6) 0.4168(5) 0.4739(2)
C36 C 0.5259(6) 0.4011(4) 0.4912(2)
C37 C 0.4384(7) 0.4183(4) 0.4734(2)
C38 C 0.3615(6) 0.3793(4) 0.4695(2)
C39 C 0.3078(6) 0.3758(4) 0.4329(3)
C40 C 0.2812(5) 0.3270(4) 0.4175(2)
C41 C 0.2805(5) 0.3192(4) 0.3744(2)
C42 C 0.2781(5) 0.2703(4) 0.3609(2)
C43 C 0.2741(5) 0.2251(4) 0.3855(2)
C44 C 0.3159(6) 0.1824(4) 0.3661(2)
C45 C 0.3702(6) 0.1450(4) 0.3881(2)
C46 C 0.4518(6) 0.1233(4) 0.3715(2)
C47 C 0.4769(7) 0.1409(4) 0.3355(2)
C48 C 0.5793(6) 0.1412(4) 0.3216(2)
C49 C 0.5819(6) 0.1933(4) 0.3010(2)
C50 C 0.6585(6) 0.2255(5) 0.2998(2)
C51 C 0.7504(7) 0.2062(5) 0.3206(2)
C52 C 0.8276(6) 0.2498(5) 0.3265(2)
C53 C 0.8189(6) 0.2807(5) 0.3623(2)
C54 C 0.8414(6) 0.3334(6) 0.3579(2)
C55 C 0.8296(7) 0.3683(6) 0.3879(2)
C56 C 0.8039(7) 0.4248(6) 0.3866(3)
C57 C 0.7573(7) 0.4355(5) 0.4215(3)
C58 C 0.6832(7) 0.4716(5) 0.4233(3)
C59 C 0.6069(7) 0.4617(5) 0.4473(3)
C60 C 0.5178(7) 0.4803(4) 0.4343(3)
C61 C 0.4379(6) 0.4574(4) 0.4461(3)
C62 C 0.3535(7) 0.4707(4) 0.4190(3)
C63 C 0.2991(5) 0.4210(4) 0.4050(2)
C64 C 0.3416(6) 0.4080(4) 0.3675(2)
C65 C 0.3310(5) 0.3584(4) 0.3531(2)
C66 C 0.3903(6) 0.3434(4) 0.3225(2)
C67 C 0.3915(5) 0.2902(4) 0.3111(2)
C68 C 0.3278(6) 0.2548(4) 0.3264(2)
C69 C 0.3457(6) 0.2007(4) 0.3295(2)
C70 C 0.4257(6) 0.1815(4) 0.3157(2)
C71 C 0.4887(6) 0.2150(5) 0.2968(2)
C72 C 0.4747(6) 0.2678(5) 0.29586(19)
C73 C 0.5527(6) 0.3021(5) 0.29132(19)
C74 C 0.6456(6) 0.2782(5) 0.2911(2)
C75 C 0.7219(6) 0.3108(5) 0.2885(2)
C76 C 0.8231(7) 0.2936(5) 0.2950(2)
C77 C 0.8640(7) 0.3451(6) 0.3149(3)
C78 C 0.8025(7) 0.3925(5) 0.2925(3)
C79 C 0.7954(7) 0.4482(5) 0.3091(3)
C80 C 0.7828(7) 0.4556(5) 0.3531(3)
C81 C 0.7226(7) 0.4986(6) 0.3582(3)
C82 C 0.6647(7) 0.5023(5) 0.3891(3)
C83 C 0.5736(7) 0.5166(5) 0.3743(3)
C84 C 0.5003(7) 0.5065(5) 0.3961(3)
C85 C 0.3999(7) 0.4928(4) 0.3815(3)
C86 C 0.4028(6) 0.4452(4) 0.3554(2)
C87 C 0.4668(6) 0.4313(4) 0.3259(2)
C88 C 0.4629(6) 0.3790(4) 0.3124(2)
C89 C 0.5450(6) 0.3556(5) 0.2951(2)
C90 C 0.6219(6) 0.3864(5) 0.2900(2)
C91 C 0.7125(6) 0.3640(6) 0.2871(2)
C92 C 0.6180(6) 0.4388(5) 0.2966(2)
C93 C 0.7034(8) 0.4749(5) 0.2922(3)
C94 C 0.6805(8) 0.5202(5) 0.3212(3)
C95 C 0.5729(7) 0.5201(5) 0.3287(3)
C96 C 0.5441(6) 0.4626(5) 0.3156(2)
Cl21? Cl 0.9416(16) 0.186(2) 0.3313(6)
Cl22? Cl 0.9493(11) 0.2470(14) 0.3310(4)
Cl23? Cl 1.008(2) 0.319(2) 0.3181(9)
Cl24? Cl 0.960(3) 0.4337(17) 0.3038(11)
O1? O 0.522(3) 0.5607(14) 0.3956(11)
loop_
_geom_bond_atom_site_label_1
_geom_bond_atom_site_label_2
_geom_bond_site_symmetry_1
_geom_bond_site_symmetry_2
Cl1 C3 1_555 1_555
Cl2 C6 1_555 1_555
Cl3 C15 1_555 1_555
Cl4 C16 1_555 1_555
Cl5 C23 1_555 1_555
Cl6 C24 1_555 1_555
Cl7 C25 1_555 1_555
Cl8 C48 1_555 1_555
Cl9 C51 1_555 1_555
Cl10 C52 1_555 1_555
Cl11 C62 1_555 1_555
Cl12 C63 1_555 1_555
Cl13 C76 1_555 1_555
Cl14 C77 1_555 1_555
Cl15 C78 1_555 1_555
Cl16 C79 1_555 1_555
Cl17 C85 1_555 1_555
Cl18 C93 1_555 1_555
Cl19 C94 1_555 1_555
Cl20 C95 1_555 1_555
C1 C2 1_555 1_555
C2 C3 1_555 1_555
C3 C4 1_555 1_555
C4 C5 1_555 1_555
C5 C6 1_555 1_555
C6 C7 1_555 1_555
C7 C1 1_555 1_555
C8 C7 1_555 1_555
C9 C8 1_555 1_555
C10 C9 1_555 1_555
C11 C1 1_555 1_555
C12 C11 1_555 1_555
C13 C12 1_555 1_555
C14 C2 1_555 1_555
C15 C14 1_555 1_555
C16 C3 1_555 1_555
C17 C16 1_555 1_555
C18 C4 1_555 1_555
C19 C18 1_555 1_555
C20 C19 1_555 1_555
C21 C5 1_555 1_555
C22 C21 1_555 1_555
C23 C6 1_555 1_555
C24 C8 1_555 1_555
C25 C24 1_555 1_555
C26 C9 1_555 1_555
C27 C26 1_555 1_555
C28 C27 1_555 1_555
C29 C10 1_555 1_555
C30 C29 1_555 1_555
C31 C12 1_555 1_555
C32 C31 1_555 1_555
C33 C32 1_555 1_555
C34 C13 1_555 1_555
C35 C34 1_555 1_555
C36 C15 1_555 1_555
C37 C36 1_555 1_555
C38 C17 1_555 1_555
C39 C38 1_555 1_555
C40 C19 1_555 1_555
C41 C40 1_555 1_555
C42 C41 1_555 1_555
C43 C20 1_555 1_555
C44 C43 1_555 1_555
C45 C22 1_555 1_555
C46 C25 1_555 1_555
C47 C46 1_555 1_555
C48 C27 1_555 1_555
C49 C48 1_555 1_555
C50 C49 1_555 1_555
C51 C28 1_555 1_555
C52 C51 1_555 1_555
C53 C30 1_555 1_555
C54 C53 1_555 1_555
C55 C32 1_555 1_555
C56 C55 1_555 1_555
C57 C33 1_555 1_555
C58 C57 1_555 1_555
C59 C35 1_555 1_555
C60 C59 1_555 1_555
C61 C37 1_555 1_555
C62 C61 1_555 1_555
C63 C39 1_555 1_555
C64 C63 1_555 1_555
C65 C41 1_555 1_555
C66 C65 1_555 1_555
C67 C66 1_555 1_555
C68 C42 1_555 1_555
C69 C44 1_555 1_555
C70 C47 1_555 1_555
C71 C49 1_555 1_555
C72 C67 1_555 1_555
C73 C72 1_555 1_555
C74 C50 1_555 1_555
C75 C74 1_555 1_555
C76 C52 1_555 1_555
C77 C54 1_555 1_555
C78 C77 1_555 1_555
C79 C78 1_555 1_555
C80 C56 1_555 1_555
C81 C80 1_555 1_555
C82 C58 1_555 1_555
C83 C82 1_555 1_555
C84 C60 1_555 1_555
C85 C62 1_555 1_555
C86 C64 1_555 1_555
C87 C86 1_555 1_555
C88 C66 1_555 1_555
C89 C73 1_555 1_555
C90 C89 1_555 1_555
C91 C75 1_555 1_555
C92 C90 1_555 1_555
C93 C79 1_555 1_555
C94 C81 1_555 1_555
C95 C83 1_555 1_555
C96 C87 1_555 1_555
C10 C11 1_555 1_555
C13 C14 1_555 1_555
C15 C16 1_555 1_555
C17 C18 1_555 1_555
C20 C21 1_555 1_555
C22 C23 1_555 1_555
C23 C24 1_555 1_555
C25 C26 1_555 1_555
C28 C29 1_555 1_555
C30 C31 1_555 1_555
C33 C34 1_555 1_555
C35 C36 1_555 1_555
C37 C38 1_555 1_555
C39 C40 1_555 1_555
C42 C43 1_555 1_555
C44 C45 1_555 1_555
C45 C46 1_555 1_555
C47 C48 1_555 1_555
C50 C51 1_555 1_555
C52 C53 1_555 1_555
C54 C55 1_555 1_555
C56 C57 1_555 1_555
C58 C59 1_555 1_555
C60 C61 1_555 1_555
C62 C63 1_555 1_555
C64 C65 1_555 1_555
C67 C68 1_555 1_555
C68 C69 1_555 1_555
C69 C70 1_555 1_555
C70 C71 1_555 1_555
C71 C72 1_555 1_555
C73 C74 1_555 1_555
C75 C76 1_555 1_555
C76 C77 1_555 1_555
C78 C91 1_555 1_555
C79 C80 1_555 1_555
C81 C82 1_555 1_555
C83 C84 1_555 1_555
C84 C85 1_555 1_555
C85 C86 1_555 1_555
C87 C88 1_555 1_555
C88 C89 1_555 1_555
C90 C91 1_555 1_555
C92 C93 1_555 1_555
C92 C96 1_555 1_555
C93 C94 1_555 1_555
C94 C95 1_555 1_555
C95 C96 1_555 1_555

#END
