
#######################################################################
#
#                 Cambridge Crystallographic Data Centre
#                                CCDC 
#
#######################################################################
#
# If this CIF has been generated from an entry in the Cambridge 
# Structural Database, then it will include bibliographic, chemical, 
# crystal, experimental, refinement or atomic coordinate data resulting 
# from the CCDC's data processing and validation procedures.
#
#######################################################################

data_GITHOH
_chemical_formula_moiety         'C8 H8 N2 O4 S2'
_chemical_name_systematic        
3,3'-(Ethane-1,2-diyl)bis(2-thioxo-1,3-oxazolidin-4-one)
_symmetry_cell_setting           monoclinic
_symmetry_space_group_name_H-M   'P 21/c'
_symmetry_Int_Tables_number      14
_space_group_name_Hall           '-P 2ybc'
loop_
_symmetry_equiv_pos_site_id
_symmetry_equiv_pos_as_xyz
1 x,y,z
2 -x,1/2+y,1/2-z
3 -x,-y,-z
4 x,1/2-y,1/2+z
_cell_length_a                   6.2845(12)
_cell_length_b                   12.3252(19)
_cell_length_c                   7.080(2)
_cell_angle_alpha                90
_cell_angle_beta                 105.22(2)
_cell_angle_gamma                90
_cell_volume                     529.165
_exptl_crystal_colour            colorless
_exptl_crystal_description       block
_cell_formula_units_Z            2
_exptl_crystal_recrystallization_method ethanol/water
loop_
_atom_site_label
_atom_site_type_symbol
_atom_site_fract_x
_atom_site_fract_y
_atom_site_fract_z
S1 S 0.33868(11) 0.36411(6) 0.00385(12)
O1 O 0.7149(3) 0.33522(16) 0.0792(3)
C1 C 0.5626(4) 0.36727(18) 0.1543(4)
N1 N 0.6306(3) 0.40084(16) 0.3674(3)
C2 C 0.5096(4) 0.4388(2) 0.5081(4)
H1 H 0.5884 0.4182 0.6401
H2 H 0.3641 0.4063 0.4781
O2 O 0.9269(3) 0.40856(17) 0.6269(4)
C3 C 0.8323(4) 0.3902(2) 0.4422(5)
C4 C 0.8954(4) 0.3505(3) 0.2477(6)
H3 H 0.9950 0.4034 0.2159
H4 H 0.9752 0.2826 0.2764
S1B S 0.66132(11) 0.63589(6) 0.99615(12)
O1B O 0.2851(3) 0.66478(16) 0.9208(3)
C1B C 0.4374(4) 0.63273(18) 0.8457(4)
N1B N 0.3694(3) 0.59916(16) 0.6326(3)
C2B C 0.4904(4) 0.5612(2) 0.4919(4)
H1B H 0.4116 0.5818 0.3599
H2B H 0.6359 0.5937 0.5219
O2B O 0.0731(3) 0.59144(17) 0.3731(4)
C3B C 0.1677(4) 0.6098(2) 0.5578(5)
C4B C 0.1046(4) 0.6495(3) 0.7523(6)
H3B H 0.0050 0.5966 0.7841
H4B H 0.0248 0.7174 0.7236
loop_
_geom_bond_atom_site_label_1
_geom_bond_atom_site_label_2
_geom_bond_site_symmetry_1
_geom_bond_site_symmetry_2
S1 C1 1_555 1_555
O1 C1 1_555 1_555
C1 N1 1_555 1_555
N1 C2 1_555 1_555
C2 H1 1_555 1_555
H2 C2 1_555 1_555
O2 C3 1_555 1_555
C3 N1 1_555 1_555
C4 O1 1_555 1_555
H3 C4 1_555 1_555
H4 C4 1_555 1_555
S1B C1B 1_555 1_555
O1B C1B 1_555 1_555
C1B N1B 1_555 1_555
N1B C2B 1_555 1_555
C2B C2 1_555 1_555
H1B C2B 1_555 1_555
H2B C2B 1_555 1_555
O2B C3B 1_555 1_555
C3B N1B 1_555 1_555
C4B O1B 1_555 1_555
H3B C4B 1_555 1_555
H4B C4B 1_555 1_555
C3 C4 1_555 1_555
C3B C4B 1_555 1_555

#END
