
#######################################################################
#
#                 Cambridge Crystallographic Data Centre
#                                CCDC 
#
#######################################################################
#
# If this CIF has been generated from an entry in the Cambridge 
# Structural Database, then it will include bibliographic, chemical, 
# crystal, experimental, refinement or atomic coordinate data resulting 
# from the CCDC's data processing and validation procedures.
#
#######################################################################

data_GITLEB
_chemical_formula_moiety         'C15 H14 N2 O1'
_chemical_name_systematic        
2-Methyl-2-phenyl-1,2-dihydroquinazolin-4(3H)-one
_symmetry_cell_setting           monoclinic
_symmetry_space_group_name_H-M   'P 21/n'
_symmetry_Int_Tables_number      14
_space_group_name_Hall           '-P 2yn'
loop_
_symmetry_equiv_pos_site_id
_symmetry_equiv_pos_as_xyz
1 x,y,z
2 1/2-x,1/2+y,1/2-z
3 -x,-y,-z
4 1/2+x,1/2-y,1/2+z
_cell_length_a                   8.4891(7)
_cell_length_b                   8.7741(8)
_cell_length_c                   16.1351(16)
_cell_angle_alpha                90
_cell_angle_beta                 93.543(7)
_cell_angle_gamma                90
_cell_volume                     1199.51
_exptl_crystal_colour            colorless
_exptl_crystal_description       prism
_chemical_melting_point          '505-507 K'
_cell_formula_units_Z            4
loop_
_atom_site_label
_atom_site_type_symbol
_atom_site_fract_x
_atom_site_fract_y
_atom_site_fract_z
O1 O 0.41106(9) 0.13177(9) -0.08264(4)
N1 N 0.44850(10) 0.16028(10) 0.05706(5)
N2 N 0.38757(11) 0.38938(10) 0.12264(6)
C1 C 0.38879(12) 0.20563(11) -0.01835(6)
C2 C 0.30141(12) 0.35144(11) -0.02015(6)
C3 C 0.30957(12) 0.44441(11) 0.05098(6)
C4 C 0.24352(13) 0.59131(12) 0.04600(7)
H1 H 0.2517 0.6571 0.0928
C5 C 0.16659(14) 0.63954(13) -0.02730(8)
H2 H 0.1215 0.7387 -0.0302
C6 C 0.15378(13) 0.54548(13) -0.09718(7)
H3 H 0.0983 0.5792 -0.1467
C7 C 0.22271(12) 0.40276(12) -0.09347(6)
H4 H 0.2165 0.3390 -0.1412
C8 C 0.39390(12) 0.22450(11) 0.13376(6)
C9 C 0.23069(12) 0.15939(11) 0.15239(6)
C10 C 0.15071(13) 0.22173(13) 0.21771(7)
H5 H 0.1973 0.3033 0.2493
C11 C 0.00388(15) 0.16596(14) 0.23708(8)
H6 H -0.0489 0.2090 0.2818
C12 C -0.06521(14) 0.04741(14) 0.19100(8)
H7 H -0.1659 0.0099 0.2036
C13 C 0.01311(14) -0.01636(14) 0.12637(8)
H8 H -0.0340 -0.0977 0.0949
C14 C 0.16110(13) 0.03889(12) 0.10750(7)
H9 H 0.2147 -0.0061 0.0637
C15 C 0.51453(13) 0.18452(13) 0.20463(7)
H10 H 0.6170 0.2290 0.1935
H11 H 0.5247 0.0735 0.2089
H12 H 0.4792 0.2254 0.2569
H13 H 0.4966(17) 0.0719(18) 0.0626(9)
H14 H 0.3890(18) 0.4458(18) 0.1676(9)
loop_
_geom_bond_atom_site_label_1
_geom_bond_atom_site_label_2
_geom_bond_site_symmetry_1
_geom_bond_site_symmetry_2
O1 C1 1_555 1_555
N1 C1 1_555 1_555
N2 C3 1_555 1_555
C1 C2 1_555 1_555
C2 C3 1_555 1_555
C3 C4 1_555 1_555
C4 H1 1_555 1_555
C5 C4 1_555 1_555
H2 C5 1_555 1_555
C6 C5 1_555 1_555
H3 C6 1_555 1_555
C7 C2 1_555 1_555
H4 C7 1_555 1_555
C8 N1 1_555 1_555
C9 C8 1_555 1_555
C10 C9 1_555 1_555
H5 C10 1_555 1_555
C11 C10 1_555 1_555
H6 C11 1_555 1_555
C12 C11 1_555 1_555
H7 C12 1_555 1_555
C13 C12 1_555 1_555
H8 C13 1_555 1_555
C14 C9 1_555 1_555
H9 C14 1_555 1_555
C15 C8 1_555 1_555
H10 C15 1_555 1_555
H11 C15 1_555 1_555
H12 C15 1_555 1_555
H13 N1 1_555 1_555
H14 N2 1_555 1_555
N2 C8 1_555 1_555
C6 C7 1_555 1_555
C13 C14 1_555 1_555

#END
