
#######################################################################
#
#                 Cambridge Crystallographic Data Centre
#                                CCDC 
#
#######################################################################
#
# If this CIF has been generated from an entry in the Cambridge 
# Structural Database, then it will include bibliographic, chemical, 
# crystal, experimental, refinement or atomic coordinate data resulting 
# from the CCDC's data processing and validation procedures.
#
#######################################################################

data_GITTIP
_chemical_formula_moiety         'C46 H36 N2 O1,C1 H2 Cl2'
_chemical_name_systematic        
"1',3',3'-trimethyl-5'-[4-(triphenylethenyl)phenyl]-1',3'-dihydrospiro[1-benzopyran-2,2'-indole]-6-carbonitrile dichloromethane solvate"
_symmetry_cell_setting           monoclinic
_symmetry_space_group_name_H-M   'P 21/c'
_symmetry_Int_Tables_number      14
_space_group_name_Hall           '-P 2ybc'
loop_
_symmetry_equiv_pos_site_id
_symmetry_equiv_pos_as_xyz
1 x,y,z
2 -x,1/2+y,1/2-z
3 -x,-y,-z
4 x,1/2-y,1/2+z
_cell_length_a                   20.728(9)
_cell_length_b                   11.337(5)
_cell_length_c                   17.818(8)
_cell_angle_alpha                90
_cell_angle_beta                 107.633(8)
_cell_angle_gamma                90
_cell_volume                     3990.39
_exptl_crystal_colour            colorless
_exptl_crystal_description       Block
_cell_formula_units_Z            4
loop_
_atom_site_label
_atom_site_type_symbol
_atom_site_fract_x
_atom_site_fract_y
_atom_site_fract_z
C1 C 1.2190(4) 0.2939(7) 0.0131(4)
C2 C 1.1742(3) 0.2580(6) 0.0566(3)
C3 C 1.1474(3) 0.3421(5) 0.0950(3)
H1 H 1.1586 0.4212 0.0930
C4 C 1.1038(3) 0.3080(5) 0.1366(3)
H2 H 1.0863 0.3643 0.1630
C5 C 1.0863(3) 0.1917(5) 0.1389(3)
C6 C 1.1126(3) 0.1054(5) 0.1010(3)
C7 C 1.1558(3) 0.1402(5) 0.0596(3)
H3 H 1.1731 0.0838 0.0331
C8 C 1.0930(3) -0.0157(5) 0.1072(4)
H4 H 1.1080 -0.0741 0.0798
C9 C 1.0544(3) -0.0448(5) 0.1509(4)
H5 H 1.0429 -0.1237 0.1529
C10 C 1.0279(3) 0.0425(5) 0.1976(3)
C11 C 0.9505(3) 0.0369(5) 0.1855(3)
C12 C 0.9094(3) 0.1150(6) 0.1169(3)
H6 H 0.9224 0.1959 0.1281
H7 H 0.8620 0.1064 0.1108
H8 H 0.9183 0.0913 0.0693
C13 C 0.9246(3) -0.0912(5) 0.1727(4)
H9 H 0.8784 -0.0940 0.1728
H10 H 0.9518 -0.1401 0.2143
H11 H 0.9276 -0.1193 0.1230
C14 C 0.9477(3) 0.0791(5) 0.2658(3)
C15 C 1.0117(3) 0.0701(5) 0.3185(3)
C16 C 1.1303(3) 0.0380(7) 0.3178(4)
H12 H 1.1432 0.1191 0.3165
H13 H 1.1538 -0.0092 0.2897
H14 H 1.1420 0.0117 0.3715
C17 C 1.0236(3) 0.0982(5) 0.3966(3)
H15 H 1.0667 0.0929 0.4324
C18 C 0.9681(3) 0.1349(5) 0.4200(3)
H16 H 0.9753 0.1538 0.4727
C19 C 0.9031(3) 0.1446(4) 0.3686(3)
C20 C 0.8939(3) 0.1157(4) 0.2900(3)
H17 H 0.8510 0.1211 0.2536
C21 C 0.8452(3) 0.1810(4) 0.3952(3)
C22 C 0.7886(3) 0.2375(5) 0.3451(3)
H18 H 0.7883 0.2565 0.2942
C23 C 0.7325(3) 0.2664(5) 0.3694(4)
H19 H 0.6953 0.3025 0.3341
C24 C 0.7314(3) 0.2421(5) 0.4454(3)
C25 C 0.7888(3) 0.1911(5) 0.4968(3)
H20 H 0.7904 0.1779 0.5489
C26 C 0.8438(3) 0.1594(5) 0.4719(3)
H21 H 0.8807 0.1228 0.5074
C27 C 0.6711(3) 0.2663(5) 0.4705(3)
C28 C 0.6832(3) 0.3496(5) 0.5390(4)
C29 C 0.7116(3) 0.4605(6) 0.5360(4)
H22 H 0.7220 0.4824 0.4907
C30 C 0.7247(3) 0.5390(7) 0.5986(5)
H23 H 0.7425 0.6133 0.5949
C31 C 0.7113(4) 0.5056(9) 0.6650(5)
H24 H 0.7212 0.5568 0.7078
C32 C 0.6838(4) 0.4005(9) 0.6705(4)
H25 H 0.6743 0.3800 0.7166
C33 C 0.6695(3) 0.3221(6) 0.6082(4)
H26 H 0.6503 0.2494 0.6130
C34 C 0.6112(3) 0.2141(5) 0.4391(4)
C35 C 0.5493(3) 0.2417(6) 0.4608(4)
C36 C 0.5230(4) 0.1585(7) 0.4989(5)
H27 H 0.5442 0.0855 0.5110
C37 C 0.4648(5) 0.1824(8) 0.5197(6)
H28 H 0.4474 0.1258 0.5460
C38 C 0.4332(4) 0.2884(9) 0.5015(6)
H29 H 0.3945 0.3044 0.5157
C39 C 0.4579(3) 0.3699(7) 0.4629(5)
H30 H 0.4352 0.4412 0.4488
C40 C 0.5170(3) 0.3486(6) 0.4439(4)
H31 H 0.5350 0.4072 0.4196
C41 C 0.6018(3) 0.1194(6) 0.3773(4)
C42 C 0.6398(4) 0.0199(6) 0.3901(4)
H32 H 0.6742 0.0116 0.4375
C43 C 0.6291(4) -0.0693(7) 0.3354(5)
H33 H 0.6560 -0.1366 0.3458
C44 C 0.5790(5) -0.0582(9) 0.2659(6)
H34 H 0.5707 -0.1190 0.2292
C45 C 0.5408(5) 0.0424(11) 0.2502(6)
H35 H 0.5076 0.0514 0.2019
C46 C 0.5516(4) 0.1303(8) 0.3059(6)
H36 H 0.5248 0.1978 0.2955
N1 N 1.2536(4) 0.3213(6) -0.0225(4)
N2 N 1.0574(2) 0.0262(4) 0.2809(3)
O1 O 1.0426(2) 0.1650(3) 0.1791(2)
C47 C 0.3356(10) 0.1208(14) 0.3341(11)
H37 H 0.3826 0.1326 0.3367
H38 H 0.3268 0.1603 0.3783
Cl1 Cl 0.3170(4) -0.0191(6) 0.3324(5)
Cl2 Cl 0.2822(3) 0.1694(5) 0.2466(4)
C48? C 0.357(3) 0.127(2) 0.2874(16)
H39? H 0.3140 0.1456 0.2967
H40? H 0.3903 0.1866 0.3113
Cl3? Cl 0.3843(7) -0.0157(12) 0.3154(8)
Cl4? Cl 0.3482(8) 0.1032(14) 0.1868(9)
loop_
_geom_bond_atom_site_label_1
_geom_bond_atom_site_label_2
_geom_bond_site_symmetry_1
_geom_bond_site_symmetry_2
C1 C2 1_555 1_555
C2 C3 1_555 1_555
C3 H1 1_555 1_555
C4 C3 1_555 1_555
H2 C4 1_555 1_555
C5 C4 1_555 1_555
C6 C5 1_555 1_555
C7 C2 1_555 1_555
H3 C7 1_555 1_555
C8 C6 1_555 1_555
H4 C8 1_555 1_555
C9 C8 1_555 1_555
H5 C9 1_555 1_555
C10 C9 1_555 1_555
C11 C10 1_555 1_555
C12 C11 1_555 1_555
H6 C12 1_555 1_555
H7 C12 1_555 1_555
H8 C12 1_555 1_555
C13 C11 1_555 1_555
H9 C13 1_555 1_555
H10 C13 1_555 1_555
H11 C13 1_555 1_555
C14 C11 1_555 1_555
C15 C14 1_555 1_555
C16 H12 1_555 1_555
H13 C16 1_555 1_555
H14 C16 1_555 1_555
C17 C15 1_555 1_555
H15 C17 1_555 1_555
C18 C17 1_555 1_555
H16 C18 1_555 1_555
C19 C18 1_555 1_555
C20 C14 1_555 1_555
H17 C20 1_555 1_555
C21 C19 1_555 1_555
C22 C21 1_555 1_555
H18 C22 1_555 1_555
C23 C22 1_555 1_555
H19 C23 1_555 1_555
C24 C23 1_555 1_555
C25 C24 1_555 1_555
H20 C25 1_555 1_555
C26 C21 1_555 1_555
H21 C26 1_555 1_555
C27 C24 1_555 1_555
C28 C27 1_555 1_555
C29 C28 1_555 1_555
H22 C29 1_555 1_555
C30 C29 1_555 1_555
H23 C30 1_555 1_555
C31 C30 1_555 1_555
H24 C31 1_555 1_555
C32 C31 1_555 1_555
H25 C32 1_555 1_555
C33 C28 1_555 1_555
H26 C33 1_555 1_555
C34 C27 1_555 1_555
C35 C34 1_555 1_555
C36 C35 1_555 1_555
H27 C36 1_555 1_555
C37 C36 1_555 1_555
H28 C37 1_555 1_555
C38 C37 1_555 1_555
H29 C38 1_555 1_555
C39 C38 1_555 1_555
H30 C39 1_555 1_555
C40 C35 1_555 1_555
H31 C40 1_555 1_555
C41 C34 1_555 1_555
C42 C41 1_555 1_555
H32 C42 1_555 1_555
C43 C42 1_555 1_555
H33 C43 1_555 1_555
C44 C43 1_555 1_555
H34 C44 1_555 1_555
C45 C44 1_555 1_555
H35 C45 1_555 1_555
C46 C41 1_555 1_555
H36 C46 1_555 1_555
N1 C1 1_555 1_555
N2 C10 1_555 1_555
O1 C5 1_555 1_555
C47 H37 1_555 1_555
H38 C47 1_555 1_555
Cl1 C47 1_555 1_555
Cl2 C47 1_555 1_555
C6 C7 1_555 1_555
C10 O1 1_555 1_555
C15 N2 1_555 1_555
C16 N2 1_555 1_555
C19 C20 1_555 1_555
C25 C26 1_555 1_555
C32 C33 1_555 1_555
C39 C40 1_555 1_555
C45 C46 1_555 1_555

#END
