
#######################################################################
#
#                 Cambridge Crystallographic Data Centre
#                                CCDC 
#
#######################################################################
#
# If this CIF has been generated from an entry in the Cambridge 
# Structural Database, then it will include bibliographic, chemical, 
# crystal, experimental, refinement or atomic coordinate data resulting 
# from the CCDC's data processing and validation procedures.
#
#######################################################################

data_GITWEO
_chemical_formula_moiety         'C19 H12 N4 O1 S1'
_chemical_name_systematic        
10-[4-(1,2,3,4-thiatriazol-5-yl)phenyl]-10H-phenoxazine
_symmetry_cell_setting           triclinic
_symmetry_space_group_name_H-M   'P -1'
_symmetry_Int_Tables_number      2
_space_group_name_Hall           '-P 1'
loop_
_symmetry_equiv_pos_site_id
_symmetry_equiv_pos_as_xyz
1 x,y,z
2 -x,-y,-z
_cell_length_a                   7.8935(9)
_cell_length_b                   9.7239(11)
_cell_length_c                   11.0347(14)
_cell_angle_alpha                111.205(11)
_cell_angle_beta                 95.584(10)
_cell_angle_gamma                91.415(9)
_cell_volume                     784.242
_exptl_crystal_colour            red
_exptl_crystal_description       block
_cell_formula_units_Z            2
_exptl_crystal_recrystallization_method 'slow evaporation'
_exptl_crystal_preparation       
'using mixture of petroleum ether and dichlormethane (1:1)'
loop_
_atom_site_label
_atom_site_type_symbol
_atom_site_fract_x
_atom_site_fract_y
_atom_site_fract_z
S1 S 0.87474(12) 0.17383(10) -0.03876(11)
O1 O 0.2362(3) 0.9734(2) 0.4489(2)
N1 N 0.4626(3) 0.7607(2) 0.3276(3)
N2 N 1.0909(3) 0.3749(3) 0.0885(3)
N3 N 1.1732(4) 0.2598(3) 0.0132(3)
N4 N 1.0793(4) 0.1461(3) -0.0588(3)
C1 C 0.9267(3) 0.3457(3) 0.0721(3)
C2 C 0.8065(3) 0.4511(3) 0.1413(3)
C3 C 0.6323(3) 0.4178(3) 0.1104(3)
H1 H 0.591320 0.326780 0.047885
C4 C 0.5196(4) 0.5189(3) 0.1720(3)
H2 H 0.402744 0.496275 0.150372
C5 C 0.5796(3) 0.6540(3) 0.2658(3)
C6 C 0.7530(4) 0.6875(3) 0.2978(3)
H3 H 0.793612 0.778085 0.361211
C7 C 0.8662(3) 0.5869(3) 0.2358(3)
H4 H 0.982997 0.610039 0.257346
C8 C 0.4137(4) 1.1478(3) 0.2446(3)
H5 H 0.402130 1.233750 0.226775
C9 C 0.5261(4) 1.0468(3) 0.1839(3)
H6 H 0.591405 1.064938 0.124927
C10 C 0.5434(4) 0.9186(3) 0.2094(3)
H7 H 0.618858 0.850707 0.166204
C11 C 0.4499(3) 0.8895(3) 0.2984(3)
C12 C 0.3356(3) 0.9932(3) 0.3594(3)
C13 C 0.3174(4) 1.1200(3) 0.3332(3)
H8 H 0.240474 1.187370 0.374788
C14 C 0.2395(3) 0.8404(3) 0.4679(3)
C15 C 0.3498(3) 0.7327(3) 0.4087(3)
C16 C 0.3453(4) 0.6047(3) 0.4362(3)
H9 H 0.416481 0.530449 0.397132
C17 C 0.2369(4) 0.5854(3) 0.5207(3)
H10 H 0.236698 0.498886 0.538373
C18 C 0.1295(4) 0.6930(3) 0.5789(3)
H11 H 0.056238 0.679424 0.635285
C19 C 0.1319(4) 0.8214(3) 0.5525(3)
H12 H 0.060544 0.895304 0.592046
loop_
_geom_bond_atom_site_label_1
_geom_bond_atom_site_label_2
_geom_bond_site_symmetry_1
_geom_bond_site_symmetry_2
S1 N4 1_555 1_555
O1 C12 1_555 1_555
N1 C5 1_555 1_555
N2 N3 1_555 1_555
N3 N4 1_555 1_555
C1 S1 1_555 1_555
C2 C1 1_555 1_555
C3 C2 1_555 1_555
H1 C3 1_555 1_555
C4 C3 1_555 1_555
H2 C4 1_555 1_555
C5 C4 1_555 1_555
C6 C5 1_555 1_555
H3 C6 1_555 1_555
C7 C2 1_555 1_555
H4 C7 1_555 1_555
C8 H5 1_555 1_555
C9 C8 1_555 1_555
H6 C9 1_555 1_555
C10 C9 1_555 1_555
H7 C10 1_555 1_555
C11 N1 1_555 1_555
C12 C11 1_555 1_555
C13 C8 1_555 1_555
H8 C13 1_555 1_555
C14 O1 1_555 1_555
C15 N1 1_555 1_555
C16 C15 1_555 1_555
H9 C16 1_555 1_555
C17 C16 1_555 1_555
H10 C17 1_555 1_555
C18 C17 1_555 1_555
H11 C18 1_555 1_555
C19 C14 1_555 1_555
H12 C19 1_555 1_555
N2 C1 1_555 1_555
C6 C7 1_555 1_555
C10 C11 1_555 1_555
C12 C13 1_555 1_555
C14 C15 1_555 1_555
C18 C19 1_555 1_555

#END
