
#######################################################################
#
#                 Cambridge Crystallographic Data Centre
#                                CCDC 
#
#######################################################################
#
# If this CIF has been generated from an entry in the Cambridge 
# Structural Database, then it will include bibliographic, chemical, 
# crystal, experimental, refinement or atomic coordinate data resulting 
# from the CCDC's data processing and validation procedures.
#
#######################################################################

data_GIVHAX
_chemical_formula_moiety         'C13 H15 N3 O2 S1'
_chemical_name_systematic        
6-amino-1,3-dimethyl-5-[(4-methylphenyl)sulfanyl]pyrimidine-2,4(1H,3H)-dione
_symmetry_cell_setting           monoclinic
_symmetry_space_group_name_H-M   'P 21'
_symmetry_Int_Tables_number      4
_space_group_name_Hall           'P 2yb'
loop_
_symmetry_equiv_pos_site_id
_symmetry_equiv_pos_as_xyz
1 x,y,z
2 -x,1/2+y,-z
_cell_length_a                   9.3271(11)
_cell_length_b                   10.9261(12)
_cell_length_c                   13.6185(15)
_cell_angle_alpha                90
_cell_angle_beta                 90.249(3)
_cell_angle_gamma                90
_cell_volume                     1387.83
_cell_formula_units_Z            4
loop_
_atom_site_label
_atom_site_type_symbol
_atom_site_fract_x
_atom_site_fract_y
_atom_site_fract_z
S1 S 0.3469(9) 0.6505(9) 0.8701(7)
N1 N 0.299(4) 0.886(3) 0.651(5)
N2 N 0.551(3) 0.607(3) 0.7062(19)
H1 H 0.5553 0.5571 0.7551
H2 H 0.6049 0.5955 0.6559
N3 N 0.487(4) 0.747(5) 0.612(4)
C1 C 0.462(9) 0.700(5) 0.708(7)
O1 O 0.403(3) 0.903(2) 0.501(2)
C2 C 0.572(8) 0.692(5) 1.117(3)
H3 H 0.5722 0.6602 1.1801
O2 O 0.181(3) 0.876(3) 0.813(3)
C3 C 0.286(7) 0.840(6) 0.742(6)
C4 C 0.361(8) 0.751(7) 0.770(3)
C5 C 0.475(6) 0.649(5) 1.054(4)
H4 H 0.4111 0.5880 1.0737
C6 C 0.670(7) 0.830(4) 0.999(5)
H5 H 0.7314 0.8925 0.9798
C7 C 0.402(8) 0.844(7) 0.585(4)
C8 C 0.565(6) 0.779(5) 0.932(3)
H6 H 0.5619 0.8058 0.8676
C9 C 0.468(4) 0.691(4) 0.963(5)
C10 C 0.674(6) 0.782(6) 1.093(5)
C11 C 0.205(4) 0.984(4) 0.626(2)
H7 H 0.1181 0.9513 0.5990
H8 H 0.2506 1.0351 0.5773
H9 H 0.1845 1.0318 0.6829
C12 C 0.589(4) 0.714(3) 0.532(2)
H10 H 0.5394 0.6663 0.4829
H11 H 0.6665 0.6674 0.5586
H12 H 0.6254 0.7874 0.5020
C13 C 0.768(4) 0.820(4) 1.186(3)
H13 H 0.7667 0.7543 1.2332
H14 H 0.7300 0.8925 1.2151
H15 H 0.8653 0.8342 1.1659
S2 S 0.6991(10) 0.1021(11) 0.6411(9)
O3 O 0.894(2) 0.3310(19) 0.9922(19)
N4 N 0.908(4) 0.160(4) 0.883(5)
C14 C 0.862(6) 0.278(11) 0.914(4)
O4 O 0.923(4) 0.007(3) 0.779(3)
N5 N 0.638(3) 0.357(3) 0.709(2)
H16 H 0.6034 0.4284 0.7203
H17 H 0.6163 0.3189 0.6558
N6 N 0.768(5) 0.350(6) 0.859(4)
C15 C 0.882(9) 0.103(8) 0.794(5)
C16 C 0.731(5) 0.301(5) 0.780(7)
C17 C 0.799(7) 0.066(6) 0.462(8)
H18 H 0.7258 0.0082 0.4623
C18 C 0.707(4) 0.460(4) 0.891(3)
H19 H 0.6393 0.4890 0.8433
H20 H 0.7818 0.5202 0.8993
H21 H 0.6599 0.4476 0.9527
C19 C 0.820(8) 0.137(7) 0.543(4)
C20 C 1.004(4) 0.236(5) 0.454(7)
H22 H 1.0687 0.3001 0.4498
C21 C 0.989(7) 0.166(10) 0.377(5)
C22 C 0.880(10) 0.078(5) 0.381(7)
H23 H 0.8643 0.0269 0.3273
C23 C 1.003(4) 0.108(3) 0.964(2)
H24 H 0.9689 0.0282 0.9826
H25 H 1.0017 0.1612 1.0196
H26 H 1.0998 0.1006 0.9401
C24 C 0.765(5) 0.186(8) 0.736(4)
C25 C 0.928(8) 0.221(6) 0.544(4)
H27 H 0.9502 0.2659 0.6003
C26 C 1.084(5) 0.194(5) 0.286(3)
H28 H 1.0881 0.2812 0.2755
H29 H 1.0447 0.1552 0.2290
H30 H 1.1796 0.1639 0.2978
loop_
_geom_bond_atom_site_label_1
_geom_bond_atom_site_label_2
_geom_bond_site_symmetry_1
_geom_bond_site_symmetry_2
S1 C4 1_555 1_555
N1 C3 1_555 1_555
N2 H1 1_555 1_555
H2 N2 1_555 1_555
N3 C1 1_555 1_555
C1 N2 1_555 1_555
O1 C7 1_555 1_555
C2 H3 1_555 1_555
O2 C3 1_555 1_555
C3 C4 1_555 1_555
C4 C1 1_555 1_555
C5 C2 1_555 1_555
H4 C5 1_555 1_555
C6 H5 1_555 1_555
C7 N1 1_555 1_555
C8 C6 1_555 1_555
H6 C8 1_555 1_555
C9 S1 1_555 1_555
C10 C2 1_555 1_555
C11 N1 1_555 1_555
H7 C11 1_555 1_555
H8 C11 1_555 1_555
H9 C11 1_555 1_555
C12 N3 1_555 1_555
H10 C12 1_555 1_555
H11 C12 1_555 1_555
H12 C12 1_555 1_555
C13 C10 1_555 1_555
H13 C13 1_555 1_555
H14 C13 1_555 1_555
H15 C13 1_555 1_555
S2 C19 1_555 1_555
O3 C14 1_555 1_555
N4 C14 1_555 1_555
C14 N6 1_555 1_555
O4 C15 1_555 1_555
N5 H16 1_555 1_555
H17 N5 1_555 1_555
N6 C16 1_555 1_555
C15 N4 1_555 1_555
C16 N5 1_555 1_555
C17 H18 1_555 1_555
C18 N6 1_555 1_555
H19 C18 1_555 1_555
H20 C18 1_555 1_555
H21 C18 1_555 1_555
C19 C17 1_555 1_555
C20 H22 1_555 1_555
C21 C20 1_555 1_555
C22 C17 1_555 1_555
H23 C22 1_555 1_555
C23 N4 1_555 1_555
H24 C23 1_555 1_555
H25 C23 1_555 1_555
H26 C23 1_555 1_555
C24 S2 1_555 1_555
C25 C19 1_555 1_555
H27 C25 1_555 1_555
C26 C21 1_555 1_555
H28 C26 1_555 1_555
H29 C26 1_555 1_555
H30 C26 1_555 1_555
N3 C7 1_555 1_555
C5 C9 1_555 1_555
C6 C10 1_555 1_555
C8 C9 1_555 1_555
C15 C24 1_555 1_555
C16 C24 1_555 1_555
C20 C25 1_555 1_555
C21 C22 1_555 1_555

#END
