
#######################################################################
#
#                 Cambridge Crystallographic Data Centre
#                                CCDC 
#
#######################################################################
#
# If this CIF has been generated from an entry in the Cambridge 
# Structural Database, then it will include bibliographic, chemical, 
# crystal, experimental, refinement or atomic coordinate data resulting 
# from the CCDC's data processing and validation procedures.
#
#######################################################################

data_GIVKAX
_chemical_formula_moiety         'C17 H28 N1 O1 P1'
_chemical_name_systematic        
'1-(Di-isopropylamino)-2-(p-methylphenyl)-3-methylphosphetane 1-oxide'
_symmetry_cell_setting           orthorhombic
_symmetry_space_group_name_H-M   'P b c a'
_symmetry_Int_Tables_number      61
_space_group_name_Hall           '-P 2ac 2ab'
loop_
_symmetry_equiv_pos_site_id
_symmetry_equiv_pos_as_xyz
1 x,y,z
2 1/2-x,-y,1/2+z
3 1/2+x,1/2-y,-z
4 -x,1/2+y,1/2-z
5 -x,-y,-z
6 1/2+x,y,1/2-z
7 1/2-x,1/2+y,z
8 x,1/2-y,1/2+z
_cell_length_a                   20.053(2)
_cell_length_b                   13.955(2)
_cell_length_c                   12.526(4)
_cell_angle_alpha                90
_cell_angle_beta                 90
_cell_angle_gamma                90
_cell_volume                     3505.27
_exptl_crystal_colour            colorless
_exptl_crystal_description       prismatic
_cell_formula_units_Z            8
_exptl_crystal_recrystallization_method n-hexane/ether
loop_
_atom_site_label
_atom_site_type_symbol
_atom_site_fract_x
_atom_site_fract_y
_atom_site_fract_z
P1 P 0.6228(8) 0.2237(1) 0.2332(1)
O1 O 0.6162(2) 0.2134(3) 0.1161(3)
N1 N 0.6301(2) 0.1213(3) 0.2942(3)
C1 C 0.5673(3) 0.3034(4) 0.3043(4)
C2 C 0.6260(3) 0.3609(4) 0.3505(4)
C3 C 0.6800(3) 0.3162(3) 0.2782(4)
C4 C 0.6196(3) 0.4681(5) 0.3474(6)
C5 C 0.7471(3) 0.2952(4) 0.3194(4)
C6 C 0.7655(3) 0.3082(5) 0.4235(5)
C7 C 0.8282(3) 0.2878(5) 0.4583(5)
C8 C 0.8734(3) 0.2517(4) 0.3894(6)
C9 C 0.8554(3) 0.2401(5) 0.2870(6)
C10 C 0.7940(3) 0.2615(5) 0.2508(4)
C11 C 0.9423(3) 0.2308(5) 0.4297(6)
C12 C 0.6303(4) 0.1180(4) 0.4139(5)
C13 C 0.5725(4) 0.0643(6) 0.4559(6)
C14 C 0.6956(4) 0.0756(5) 0.4558(5)
C15 C 0.6369(3) 0.0281(4) 0.2407(5)
C16 C 0.6961(4) 0.0235(5) 0.1687(6)
C17 C 0.5748(4) 0.0010(5) 0.1777(6)
loop_
_geom_bond_atom_site_label_1
_geom_bond_atom_site_label_2
_geom_bond_site_symmetry_1
_geom_bond_site_symmetry_2
P1 O1 1_555 1_555
N1 P1 1_555 1_555
C1 P1 1_555 1_555
C2 C1 1_555 1_555
C3 P1 1_555 1_555
C4 C2 1_555 1_555
C5 C3 1_555 1_555
C6 C5 1_555 1_555
C7 C6 1_555 1_555
C8 C7 1_555 1_555
C9 C8 1_555 1_555
C10 C5 1_555 1_555
C11 C8 1_555 1_555
C12 N1 1_555 1_555
C13 C12 1_555 1_555
C14 C12 1_555 1_555
C15 N1 1_555 1_555
C16 C15 1_555 1_555
C17 C15 1_555 1_555
C2 C3 1_555 1_555
C9 C10 1_555 1_555

#END
