
#######################################################################
#
#                 Cambridge Crystallographic Data Centre
#                                CCDC 
#
#######################################################################
#
# If this CIF has been generated from an entry in the Cambridge 
# Structural Database, then it will include bibliographic, chemical, 
# crystal, experimental, refinement or atomic coordinate data resulting 
# from the CCDC's data processing and validation procedures.
#
#######################################################################

data_GIVLEE
_chemical_formula_moiety         'C18 H8 Cl2 N6 O6,C8 H20 N1 1+,Br1 1-'
_chemical_name_systematic        
'tetraethylammonium bromide 5,17-dichloro-2,8,14,20-tetraoxa-4,6,16,18,26,28-hexaazapentacyclo[19.3.1.1^3,7^.1^9,13^.1^15,19^]octacosa-1(25),3(28),4,6,9(27),10,12,15(26),16,18,21,23-dodecaene-11,23-diol'
_symmetry_cell_setting           orthorhombic
_symmetry_space_group_name_H-M   'P b c a'
_symmetry_Int_Tables_number      61
_space_group_name_Hall           '-P 2ac 2ab'
loop_
_symmetry_equiv_pos_site_id
_symmetry_equiv_pos_as_xyz
1 x,y,z
2 1/2-x,-y,1/2+z
3 1/2+x,1/2-y,-z
4 -x,1/2+y,1/2-z
5 -x,-y,-z
6 1/2+x,y,1/2-z
7 1/2-x,1/2+y,z
8 x,1/2-y,1/2+z
_cell_length_a                   17.077(3)
_cell_length_b                   17.927(4)
_cell_length_c                   19.393(4)
_cell_angle_alpha                90
_cell_angle_beta                 90
_cell_angle_gamma                90
_cell_volume                     5936.96
_exptl_crystal_colour            yellow
_exptl_crystal_description       block
_cell_formula_units_Z            8
loop_
_atom_site_label
_atom_site_type_symbol
_atom_site_fract_x
_atom_site_fract_y
_atom_site_fract_z
Cl1 Cl 0.2278(2) 0.58909(19) 0.3722(2)
Cl2 Cl 0.0122(2) 0.09898(19) 0.00809(16)
O1 O 0.0030(5) 0.4798(4) 0.2615(4)
O2 O -0.1236(5) 0.2629(4) 0.1647(4)
O3 O 0.0855(4) 0.1278(4) 0.2459(4)
O4 O 0.1647(5) 0.3300(4) 0.3923(4)
O5 O -0.2657(5) 0.4340(4) 0.3006(5)
H1 H -0.2970 0.4047 0.3202
O6 O 0.0843(5) 0.1006(4) 0.4878(4)
H2 H 0.0595 0.1243 0.5182
N1 N 0.1093(6) 0.5266(5) 0.3111(6)
N2 N 0.0778(5) 0.3989(4) 0.3270(4)
N3 N 0.1926(6) 0.4503(5) 0.3784(5)
N4 N -0.0190(6) 0.1987(5) 0.2119(4)
N5 N -0.0573(6) 0.1866(5) 0.0938(4)
N6 N 0.0502(5) 0.1173(5) 0.1365(4)
C1 C 0.1682(8) 0.5142(7) 0.3505(7)
C2 C 0.0647(7) 0.4659(7) 0.3013(6)
C3 C 0.1426(7) 0.3950(6) 0.3633(5)
C4 C 0.1282(6) 0.2620(5) 0.3809(6)
C5 C 0.1182(6) 0.2184(6) 0.4394(5)
H3 H 0.1288 0.2381 0.4839
C6 C 0.0925(7) 0.1453(6) 0.4318(6)
C7 C 0.0779(6) 0.1175(6) 0.3672(5)
H4 H 0.0606 0.0675 0.3612
C8 C 0.0890(6) 0.1642(6) 0.3104(5)
C9 C 0.1138(5) 0.2355(5) 0.3153(6)
H5 H 0.1210 0.2659 0.2757
C10 C 0.0360(6) 0.1495(5) 0.1972(5)
C11 C 0.0007(7) 0.1390(6) 0.0886(6)
C12 C -0.0635(7) 0.2156(5) 0.1572(6)
C13 C -0.1201(6) 0.3230(6) 0.2111(5)
C14 C -0.1908(7) 0.3414(6) 0.2397(6)
H6 H -0.2353 0.3102 0.2341
C15 C -0.1954(7) 0.4072(6) 0.2774(7)
C16 C -0.1292(8) 0.4509(6) 0.2874(6)
H7 H -0.1316 0.4951 0.3144
C17 C -0.0599(6) 0.4287(5) 0.2571(6)
C18 C -0.0531(6) 0.3645(6) 0.2184(5)
H8 H -0.0049 0.3500 0.1979
N7 N 0.3244(6) 0.1282(5) 0.0694(5)
C19 C 0.3341(8) 0.1088(7) 0.1433(6)
H9 H 0.3867 0.1251 0.1585
H10 H 0.3317 0.0539 0.1481
C20 C 0.2740(8) 0.1430(8) 0.1903(7)
H11 H 0.2215 0.1268 0.1762
H12 H 0.2773 0.1975 0.1875
H13 H 0.2838 0.1270 0.2378
C21 C 0.3893(8) 0.0889(8) 0.0335(6)
H14 H 0.3858 0.0351 0.0444
H15 H 0.4396 0.1073 0.0524
C22 C 0.3912(9) 0.0980(9) -0.0458(7)
H16 H 0.4355 0.0699 -0.0646
H17 H 0.3969 0.1509 -0.0574
H18 H 0.3423 0.0788 -0.0654
C23 C 0.3272(8) 0.2105(7) 0.0582(6)
H19 H 0.2798 0.2327 0.0792
H20 H 0.3245 0.2200 0.0079
C24 C 0.3980(9) 0.2508(8) 0.0864(8)
H21 H 0.4454 0.2322 0.0637
H22 H 0.4018 0.2420 0.1362
H23 H 0.3927 0.3045 0.0778
C25 C 0.2454(9) 0.1027(8) 0.0438(7)
H24 H 0.2391 0.1198 -0.0044
H25 H 0.2045 0.1276 0.0717
C26 C 0.2307(9) 0.0191(8) 0.0460(7)
H26 H 0.2703 -0.0066 0.0181
H27 H 0.1785 0.0084 0.0275
H28 H 0.2338 0.0015 0.0938
Br1 Br 0.13206(7) 0.30970(7) 0.12685(6)
loop_
_geom_bond_atom_site_label_1
_geom_bond_atom_site_label_2
_geom_bond_site_symmetry_1
_geom_bond_site_symmetry_2
Cl1 C1 1_555 1_555
Cl2 C11 1_555 1_555
O1 C2 1_555 1_555
O2 C12 1_555 1_555
O3 C8 1_555 1_555
O4 C3 1_555 1_555
O5 H1 1_555 1_555
O6 H2 1_555 1_555
N1 C1 1_555 1_555
N2 C2 1_555 1_555
N3 C1 1_555 1_555
N4 C10 1_555 1_555
N5 C11 1_555 1_555
N6 C10 1_555 1_555
C2 N1 1_555 1_555
C3 N2 1_555 1_555
C4 O4 1_555 1_555
C5 C4 1_555 1_555
H3 C5 1_555 1_555
C6 O6 1_555 1_555
C7 C6 1_555 1_555
H4 C7 1_555 1_555
C8 C7 1_555 1_555
C9 C4 1_555 1_555
H5 C9 1_555 1_555
C10 O3 1_555 1_555
C11 N6 1_555 1_555
C12 N4 1_555 1_555
C13 O2 1_555 1_555
C14 C13 1_555 1_555
H6 C14 1_555 1_555
C15 O5 1_555 1_555
C16 C15 1_555 1_555
H7 C16 1_555 1_555
C17 O1 1_555 1_555
C18 C13 1_555 1_555
H8 C18 1_555 1_555
N7 C19 1_555 1_555
C19 H9 1_555 1_555
H10 C19 1_555 1_555
C20 C19 1_555 1_555
H11 C20 1_555 1_555
H12 C20 1_555 1_555
H13 C20 1_555 1_555
C21 N7 1_555 1_555
H14 C21 1_555 1_555
H15 C21 1_555 1_555
C22 C21 1_555 1_555
H16 C22 1_555 1_555
H17 C22 1_555 1_555
H18 C22 1_555 1_555
C23 N7 1_555 1_555
H19 C23 1_555 1_555
H20 C23 1_555 1_555
C24 C23 1_555 1_555
H21 C24 1_555 1_555
H22 C24 1_555 1_555
H23 C24 1_555 1_555
C25 N7 1_555 1_555
H24 C25 1_555 1_555
H25 C25 1_555 1_555
C26 C25 1_555 1_555
H26 C26 1_555 1_555
H27 C26 1_555 1_555
H28 C26 1_555 1_555
N3 C3 1_555 1_555
N5 C12 1_555 1_555
C5 C6 1_555 1_555
C8 C9 1_555 1_555
C14 C15 1_555 1_555
C16 C17 1_555 1_555
C17 C18 1_555 1_555

#END
