
#######################################################################
#
#                 Cambridge Crystallographic Data Centre
#                                CCDC 
#
#######################################################################
#
# If this CIF has been generated from an entry in the Cambridge 
# Structural Database, then it will include bibliographic, chemical, 
# crystal, experimental, refinement or atomic coordinate data resulting 
# from the CCDC's data processing and validation procedures.
#
#######################################################################

data_GIVLIJ
_chemical_formula_moiety         'C17 H17 Cl4 N1 O1 S1'
_chemical_name_systematic        
2-(5-chlorothiophen-2-yl)-3-phenyl-4-isopropyl-2-(trichloromethyl)-1,3-oxazolidine
_symmetry_cell_setting           orthorhombic
_symmetry_space_group_name_H-M   'P 21 21 21'
_symmetry_Int_Tables_number      19
_space_group_name_Hall           'P 2ac 2ab'
loop_
_symmetry_equiv_pos_site_id
_symmetry_equiv_pos_as_xyz
1 x,y,z
2 1/2-x,-y,1/2+z
3 1/2+x,1/2-y,-z
4 -x,1/2+y,1/2-z
_cell_length_a                   9.1331(4)
_cell_length_b                   10.0289(5)
_cell_length_c                   40.907(2)
_cell_angle_alpha                90
_cell_angle_beta                 90
_cell_angle_gamma                90
_cell_volume                     3746.87
_cell_formula_units_Z            8
loop_
_atom_site_label
_atom_site_type_symbol
_atom_site_fract_x
_atom_site_fract_y
_atom_site_fract_z
Cl1 Cl 0.84626(9) 0.09532(8) 0.346363(15)
Cl2 Cl 0.85538(6) 0.41692(5) 0.195547(15)
Cl3 Cl 0.64350(7) 0.28531(6) 0.155041(13)
Cl4 Cl 0.54859(7) 0.42317(6) 0.212132(16)
S1 S 0.78403(6) 0.07275(5) 0.275208(12)
O1 O 0.56500(14) 0.13323(13) 0.21652(3)
N1 N 0.79861(15) 0.08683(14) 0.20073(3)
C1 C 0.8089(3) -0.2043(2) 0.21605(5)
H1 H 0.8486 -0.2924 0.2139
H2 H 0.7225 -0.2074 0.2294
H3 H 0.8802 -0.1471 0.2261
C2 C 0.70808(19) 0.18782(17) 0.21633(4)
C3 C 1.0541(2) 0.14536(19) 0.21057(4)
H4 H 1.0353 0.1450 0.2329
C4 C 0.94331(19) 0.11557(15) 0.18877(4)
C5 C 0.9751(2) 0.1102(2) 0.15582(5)
H5 H 0.9021 0.0876 0.1410
C6 C 0.5639(2) 0.0051(2) 0.20170(5)
H6 H 0.4811 -0.0031 0.1870
H7 H 0.5564 -0.0638 0.2182
C7 C 0.7545(2) 0.21307(17) 0.25144(4)
C8 C 0.7063(2) -0.00889(18) 0.18296(4)
H8 H 0.6922 0.0223 0.1605
C9 C 0.6918(2) 0.32181(18) 0.19603(5)
C10 C 0.7988(3) 0.3008(2) 0.30327(6)
H9 H 0.8120 0.3673 0.3189
C11 C 0.7699(2) -0.15013(18) 0.18242(4)
H10 H 0.8606 -0.1467 0.1697
C12 C 0.7659(2) 0.3252(2) 0.26994(5)
H11 H 0.7532 0.4105 0.2615
C13 C 1.1152(3) 0.1381(2) 0.14465(5)
H12 H 1.1357 0.1333 0.1224
C14 C 1.1933(2) 0.1757(2) 0.19928(5)
H13 H 1.2666 0.1982 0.2141
C15 C 0.8086(2) 0.1694(2) 0.30949(5)
C16 C 1.2236(2) 0.1729(2) 0.16618(5)
H14 H 1.3167 0.1944 0.1586
C17 C 0.6657(3) -0.2435(2) 0.16458(6)
H15 H 0.6435 -0.2075 0.1434
H16 H 0.5769 -0.2526 0.1770
H17 H 0.7109 -0.3293 0.1621
Cl5 Cl 0.43555(8) 0.64704(6) -0.093487(12)
Cl6 Cl 0.54635(6) 0.24523(4) 0.043704(14)
Cl7 Cl 0.23195(6) 0.24588(5) 0.038000(14)
Cl8 Cl 0.36690(7) 0.35689(5) 0.094642(12)
S2 S 0.43775(6) 0.62536(4) -0.021202(11)
C18 C 0.2640(2) 0.66553(19) 0.05514(5)
H18 H 0.1866 0.6816 0.0709
H19 H 0.2586 0.7331 0.0382
N2 N 0.49309(15) 0.57589(14) 0.05008(3)
C19 C 0.3968(2) 0.37471(18) -0.02410(5)
H20 H 0.3825 0.2860 -0.0183
C20 C 0.5202(3) 0.8695(2) 0.04166(5)
H21 H 0.5654 0.9546 0.0453
H22 H 0.4317 0.8815 0.0293
H23 H 0.5861 0.8131 0.0297
O2 O 0.25061(13) 0.53546(12) 0.04134(3)
C21 C 0.3868(2) 0.33901(18) 0.05174(5)
C22 C 0.41253(19) 0.47360(17) -0.00169(4)
C23 C 0.64163(18) 0.54224(15) 0.05764(4)
C24 C 0.7428(2) 0.52453(17) 0.03284(4)
H24 H 0.7146 0.5363 0.0112
C25 C 0.4038(2) 0.4181(2) -0.05695(5)
H25 H 0.3959 0.3622 -0.0750
C26 C 0.39080(19) 0.48225(17) 0.03507(4)
C27 C 0.6876(2) 0.52890(18) 0.08959(4)
H26 H 0.6218 0.5432 0.1066
C28 C 0.8853(2) 0.48946(19) 0.04005(5)
H27 H 0.9518 0.4764 0.0231
C29 C 0.8314(2) 0.4943(2) 0.09664(5)
H28 H 0.8608 0.4852 0.1183
C30 C 0.4123(2) 0.66835(17) 0.07170(4)
H29 H 0.4041 0.6292 0.0936
C31 C 0.4234(2) 0.55043(19) -0.05862(4)
C32 C 0.9303(2) 0.4735(2) 0.07195(5)
H30 H 1.0263 0.4491 0.0767
C33 C 0.4844(2) 0.80546(18) 0.07415(5)
H31 H 0.5776 0.7926 0.0856
C34 C 0.3911(3) 0.8968(2) 0.09569(6)
H32 H 0.4367 0.9828 0.0972
H33 H 0.3827 0.8588 0.1171
H34 H 0.2954 0.9061 0.0863
loop_
_geom_bond_atom_site_label_1
_geom_bond_atom_site_label_2
_geom_bond_site_symmetry_1
_geom_bond_site_symmetry_2
Cl1 C15 1_555 1_555
Cl2 C9 1_555 1_555
Cl3 C9 1_555 1_555
Cl4 C9 1_555 1_555
S1 C7 1_555 1_555
O1 C2 1_555 1_555
N1 C2 1_555 1_555
C1 H1 1_555 1_555
H2 C1 1_555 1_555
H3 C1 1_555 1_555
C2 C7 1_555 1_555
C3 H4 1_555 1_555
C4 N1 1_555 1_555
C5 C4 1_555 1_555
H5 C5 1_555 1_555
C6 O1 1_555 1_555
H6 C6 1_555 1_555
H7 C6 1_555 1_555
C7 C12 1_555 1_555
C8 N1 1_555 1_555
H8 C8 1_555 1_555
C9 C2 1_555 1_555
C10 H9 1_555 1_555
C11 C1 1_555 1_555
H10 C11 1_555 1_555
C12 C10 1_555 1_555
H11 C12 1_555 1_555
C13 C5 1_555 1_555
H12 C13 1_555 1_555
C14 C3 1_555 1_555
H13 C14 1_555 1_555
C15 S1 1_555 1_555
C16 C13 1_555 1_555
H14 C16 1_555 1_555
C17 C11 1_555 1_555
H15 C17 1_555 1_555
H16 C17 1_555 1_555
H17 C17 1_555 1_555
Cl5 C31 1_555 1_555
Cl6 C21 1_555 1_555
Cl7 C21 1_555 1_555
Cl8 C21 1_555 1_555
S2 C22 1_555 1_555
C18 H18 1_555 1_555
H19 C18 1_555 1_555
N2 C23 1_555 1_555
C19 H20 1_555 1_555
C20 H21 1_555 1_555
H22 C20 1_555 1_555
H23 C20 1_555 1_555
O2 C18 1_555 1_555
C21 C26 1_555 1_555
C22 C19 1_555 1_555
C23 C24 1_555 1_555
C24 H24 1_555 1_555
C25 C19 1_555 1_555
H25 C25 1_555 1_555
C26 N2 1_555 1_555
C27 C23 1_555 1_555
H26 C27 1_555 1_555
C28 C24 1_555 1_555
H27 C28 1_555 1_555
C29 C27 1_555 1_555
H28 C29 1_555 1_555
C30 C18 1_555 1_555
H29 C30 1_555 1_555
C31 S2 1_555 1_555
C32 C28 1_555 1_555
H30 C32 1_555 1_555
C33 C20 1_555 1_555
H31 C33 1_555 1_555
C34 C33 1_555 1_555
H32 C34 1_555 1_555
H33 C34 1_555 1_555
H34 C34 1_555 1_555
C3 C4 1_555 1_555
C6 C8 1_555 1_555
C8 C11 1_555 1_555
C10 C15 1_555 1_555
C14 C16 1_555 1_555
N2 C30 1_555 1_555
O2 C26 1_555 1_555
C22 C26 1_555 1_555
C25 C31 1_555 1_555
C29 C32 1_555 1_555
C30 C33 1_555 1_555

#END
