
#######################################################################
#
#                 Cambridge Crystallographic Data Centre
#                                CCDC 
#
#######################################################################
#
# If this CIF has been generated from an entry in the Cambridge 
# Structural Database, then it will include bibliographic, chemical, 
# crystal, experimental, refinement or atomic coordinate data resulting 
# from the CCDC's data processing and validation procedures.
#
#######################################################################

data_GIVMIK
_chemical_formula_moiety         'C14 H19 N1 O2 S1'
_chemical_name_systematic        2-(cyclohexylsulfonyl)-1-phenylethen-1-amine
_symmetry_cell_setting           monoclinic
_symmetry_space_group_name_H-M   'P 21/n'
_symmetry_Int_Tables_number      14
_space_group_name_Hall           '-P 2yn'
loop_
_symmetry_equiv_pos_site_id
_symmetry_equiv_pos_as_xyz
1 x,y,z
2 1/2-x,1/2+y,1/2-z
3 -x,-y,-z
4 1/2+x,1/2-y,1/2+z
_cell_length_a                   10.3607(4)
_cell_length_b                   17.7044(7)
_cell_length_c                   15.4415(7)
_cell_angle_alpha                90
_cell_angle_beta                 100.790(2)
_cell_angle_gamma                90
_cell_volume                     2782.36
_exptl_crystal_colour            colorless
_exptl_crystal_description       block
_cell_formula_units_Z            8
loop_
_atom_site_label
_atom_site_type_symbol
_atom_site_fract_x
_atom_site_fract_y
_atom_site_fract_z
S1 S 0.45772(6) 0.69571(3) 0.35008(4)
N1 N 0.6780(3) 0.56711(13) 0.38611(19)
H1 H 0.595(3) 0.5549(17) 0.374(2)
H2 H 0.739(4) 0.534(2) 0.375(2)
O1 O 0.41571(17) 0.62111(10) 0.37210(13)
O2 O 0.40484(19) 0.75969(12) 0.38961(14)
C1 C 0.6261(2) 0.70035(13) 0.37492(17)
H3 H 0.6631 0.7484 0.3803
C2 C 0.7107(2) 0.64111(13) 0.38752(15)
C3 C 0.8537(2) 0.65682(13) 0.41024(16)
C4 C 0.9311(3) 0.61841(15) 0.47964(18)
H4 H 0.8934 0.5821 0.5106
C5 C 1.0638(3) 0.63392(17) 0.5029(2)
H5 H 1.1147 0.6080 0.5495
C6 C 1.1211(3) 0.68704(16) 0.4579(2)
H6 H 1.2105 0.6972 0.4739
C7 C 1.0465(3) 0.72492(17) 0.3895(2)
H7 H 1.0857 0.7606 0.3587
C8 C 0.9124(3) 0.71088(15) 0.36524(19)
H8 H 0.8622 0.7376 0.3190
C9 C 0.4133(2) 0.70747(13) 0.23344(16)
H9 H 0.4574 0.7530 0.2177
C10 C 0.2654(3) 0.72016(16) 0.2066(2)
H10 H 0.2186 0.6769 0.2238
H11 H 0.2400 0.7643 0.2366
C11 C 0.2289(4) 0.7315(2) 0.1073(2)
H12 H 0.1345 0.7375 0.0904
H13 H 0.2702 0.7771 0.0909
C12 C 0.2726(4) 0.6648(2) 0.0589(2)
H14 H 0.2264 0.6198 0.0719
H15 H 0.2507 0.6737 -0.0041
C13 C 0.4186(4) 0.6525(2) 0.0857(2)
H16 H 0.4646 0.6956 0.0674
H17 H 0.4435 0.6082 0.0556
C14 C 0.4601(3) 0.64168(16) 0.18471(18)
H18 H 0.4231 0.5951 0.2023
H19 H 0.5551 0.6380 0.2000
S2 S -0.07333(6) 0.44097(3) 0.23995(4)
N2 N 0.1742(3) 0.51919(14) 0.35833(18)
H20 H 0.235(3) 0.5474(18) 0.377(2)
H21 H 0.099(3) 0.5343(18) 0.360(2)
O3 O -0.14290(19) 0.37037(11) 0.22264(15)
O4 O -0.09787(19) 0.48430(11) 0.31434(14)
C15 C 0.0914(2) 0.42340(13) 0.25195(17)
H22 H 0.1164 0.3837 0.2193
C16 C 0.1891(2) 0.46182(13) 0.30442(15)
C17 C 0.3271(2) 0.43684(12) 0.30813(16)
C18 C 0.3764(3) 0.42388(16) 0.23238(19)
H23 H 0.3241 0.4324 0.1774
C19 C 0.5047(3) 0.39808(17) 0.2385(2)
H24 H 0.5378 0.3902 0.1873
C20 C 0.5826(3) 0.38410(17) 0.3181(3)
H25 H 0.6678 0.3662 0.3214
C21 C 0.5338(3) 0.39673(17) 0.3935(2)
H26 H 0.5860 0.3869 0.4481
C22 C 0.4080(3) 0.42381(16) 0.38893(18)
H27 H 0.3771 0.4334 0.4406
C23 C -0.1152(3) 0.49619(18) 0.1399(2)
H28 H -0.0767 0.4712 0.0941
C24 C -0.2621(3) 0.4994(2) 0.1084(3)
H29 H -0.3033 0.5237 0.1525
H30 H -0.2972 0.4487 0.0989
C25 C -0.2914(5) 0.5440(3) 0.0223(3)
H31 H -0.2566 0.5169 -0.0228
H32 H -0.3858 0.5481 0.0031
C26 C -0.2330(4) 0.6212(2) 0.0320(3)
H33 H -0.2518 0.6470 -0.0244
H34 H -0.2730 0.6499 0.0736
C27 C -0.0906(5) 0.6181(3) 0.0631(5)
H35 H -0.0559 0.6691 0.0700
H36 H -0.0501 0.5927 0.0194
C28 C -0.0541(4) 0.5745(2) 0.1550(3)
H37 H 0.0405 0.5706 0.1732
H38 H -0.0892 0.6010 0.2004
loop_
_geom_bond_atom_site_label_1
_geom_bond_atom_site_label_2
_geom_bond_site_symmetry_1
_geom_bond_site_symmetry_2
S1 O1 1_555 1_555
N1 H1 1_555 1_555
H2 N1 1_555 1_555
O2 S1 1_555 1_555
C1 S1 1_555 1_555
H3 C1 1_555 1_555
C2 N1 1_555 1_555
C3 C2 1_555 1_555
C4 C3 1_555 1_555
H4 C4 1_555 1_555
C5 C4 1_555 1_555
H5 C5 1_555 1_555
C6 C5 1_555 1_555
H6 C6 1_555 1_555
C7 C6 1_555 1_555
H7 C7 1_555 1_555
C8 C3 1_555 1_555
H8 C8 1_555 1_555
C9 S1 1_555 1_555
H9 C9 1_555 1_555
C10 C9 1_555 1_555
H10 C10 1_555 1_555
H11 C10 1_555 1_555
C11 C10 1_555 1_555
H12 C11 1_555 1_555
H13 C11 1_555 1_555
C12 C11 1_555 1_555
H14 C12 1_555 1_555
H15 C12 1_555 1_555
C13 C12 1_555 1_555
H16 C13 1_555 1_555
H17 C13 1_555 1_555
C14 C9 1_555 1_555
H18 C14 1_555 1_555
H19 C14 1_555 1_555
S2 O3 1_555 1_555
N2 H20 1_555 1_555
H21 N2 1_555 1_555
O4 S2 1_555 1_555
C15 S2 1_555 1_555
H22 C15 1_555 1_555
C16 N2 1_555 1_555
C17 C16 1_555 1_555
C18 C17 1_555 1_555
H23 C18 1_555 1_555
C19 C18 1_555 1_555
H24 C19 1_555 1_555
C20 C19 1_555 1_555
H25 C20 1_555 1_555
C21 C20 1_555 1_555
H26 C21 1_555 1_555
C22 C17 1_555 1_555
H27 C22 1_555 1_555
C23 S2 1_555 1_555
H28 C23 1_555 1_555
C24 C23 1_555 1_555
H29 C24 1_555 1_555
H30 C24 1_555 1_555
C25 C24 1_555 1_555
H31 C25 1_555 1_555
H32 C25 1_555 1_555
C26 C25 1_555 1_555
H33 C26 1_555 1_555
H34 C26 1_555 1_555
C27 C26 1_555 1_555
H35 C27 1_555 1_555
H36 C27 1_555 1_555
C28 C23 1_555 1_555
H37 C28 1_555 1_555
H38 C28 1_555 1_555
C1 C2 1_555 1_555
C7 C8 1_555 1_555
C13 C14 1_555 1_555
C15 C16 1_555 1_555
C21 C22 1_555 1_555
C27 C28 1_555 1_555

#END
