
#######################################################################
#
#                 Cambridge Crystallographic Data Centre
#                                CCDC 
#
#######################################################################
#
# If this CIF has been generated from an entry in the Cambridge 
# Structural Database, then it will include bibliographic, chemical, 
# crystal, experimental, refinement or atomic coordinate data resulting 
# from the CCDC's data processing and validation procedures.
#
#######################################################################

data_GIVXIS
_chemical_formula_moiety         
'2(C10 H8 O4 S4 1+),2(C10 H8 O4 S4),C4 N6 2-,H2 O1'
_chemical_name_systematic        
"tetrakis(bis(Ethylenedioxy)tetrathiafulvalene) N,N',N''-tricyanoguanidinate monohydrate"
_symmetry_cell_setting           triclinic
_symmetry_space_group_name_H-M   'P -1'
_symmetry_Int_Tables_number      2
_space_group_name_Hall           '-P 1'
loop_
_symmetry_equiv_pos_site_id
_symmetry_equiv_pos_as_xyz
1 x,y,z
2 -x,-y,-z
_cell_length_a                   11.9628(2)
_cell_length_b                   14.1016(2)
_cell_length_c                   17.0830(3)
_cell_angle_alpha                81.268(1)
_cell_angle_beta                 70.206(1)
_cell_angle_gamma                77.038(1)
_cell_volume                     2633.39
_cell_formula_units_Z            2
loop_
_atom_site_label
_atom_site_type_symbol
_atom_site_fract_x
_atom_site_fract_y
_atom_site_fract_z
C1 C 0.2493(3) 0.9991(2) 0.5021(2)
C2 C 0.2059(3) 1.0069(2) 0.5867(2)
S1 S 0.1540(1) 0.9888(1) 0.4472(1)
S2 S 0.0550(1) 1.0059(1) 0.6434(1)
C3 C 0.2674(3) 0.9873(3) 0.3513(2)
C4 C 0.0729(3) 1.0177(3) 0.7380(2)
C5 C 0.3798(3) 0.9903(3) 0.3494(2)
C6 C 0.1844(3) 1.0216(3) 0.7378(2)
S3 S 0.4002(1) 0.9999(1) 0.4446(1)
S4 S 0.3004(1) 1.0162(1) 0.6427(1)
O1 O 0.2364(2) 0.9800(2) 0.2830(1)
O2 O -0.0263(2) 1.0208(2) 0.8065(2)
C7 C 0.3435(3) 0.9504(3) 0.2136(2)
C8 C 0.0101(4) 1.0036(3) 0.8816(2)
C9 C 0.4410(4) 1.0073(3) 0.2048(2)
C10 C 0.1049(4) 1.0615(3) 0.8734(2)
O3 O 0.4777(2) 0.9888(2) 0.2804(1)
O4 O 0.2143(2) 1.0307(2) 0.8057(1)
C11 C 0.4843(3) 0.7541(2) 0.5275(2)
C12 C 0.4428(3) 0.7609(3) 0.6119(2)
S5 S 0.3888(1) 0.7438(1) 0.4725(1)
S6 S 0.2924(1) 0.7611(1) 0.6722(1)
C13 C 0.5037(3) 0.7370(3) 0.3770(2)
C14 C 0.3158(3) 0.7722(3) 0.7655(2)
C15 C 0.6154(3) 0.7409(3) 0.3754(2)
C16 C 0.4295(3) 0.7744(3) 0.7620(2)
S7 S 0.6351(1) 0.7539(1) 0.4699(1)
S8 S 0.5408(1) 0.7698(1) 0.6652(1)
O5 O 0.4732(2) 0.7282(2) 0.3088(1)
O6 O 0.2199(2) 0.7752(2) 0.8355(2)
C17 C 0.5803(3) 0.7032(3) 0.2385(2)
C18 C 0.2539(20) 0.7531(15) 0.9060(12)
C20 C 0.6766(3) 0.7600(3) 0.2317(2)
C21 C 0.3507(11) 0.8100(14) 0.8986(6)
O7 O 0.7140(2) 0.7383(2) 0.3065(1)
O8 O 0.4646(2) 0.7783(2) 0.8289(1)
C23 C 0.7937(3) 0.4913(3) 0.4162(2)
C24 C 0.7513(3) 0.4995(2) 0.5005(2)
S9 S 0.6966(1) 0.4801(1) 0.3628(1)
S10 S 0.5992(1) 0.5031(1) 0.5569(1)
C25 C 0.8103(3) 0.4720(3) 0.2662(2)
C26 C 0.6169(3) 0.5142(3) 0.6521(2)
C27 C 0.9227(3) 0.4756(3) 0.2636(2)
C28 C 0.7297(3) 0.5145(3) 0.6518(2)
S11 S 0.9440(1) 0.4900(1) 0.3570(1)
S12 S 0.8458(1) 0.5064(1) 0.5570(1)
O9 O 0.7763(2) 0.4612(2) 0.2003(1)
O10 O 0.5177(2) 0.5192(2) 0.7199(1)
C29 C 0.8836(3) 0.4342(3) 0.1296(2)
C30 C 0.5518(4) 0.4945(3) 0.7956(2)
C31 C 0.9785(3) 0.4935(3) 0.1203(2)
C32 C 0.6517(3) 0.5482(3) 0.7909(2)
O11 O 1.0193(2) 0.4734(2) 0.1938(1)
O12 O 0.7594(2) 0.5208(2) 0.7210(1)
C33 C 1.0119(3) 0.2439(2) 0.4800(2)
C34 C 0.9686(3) 0.2512(3) 0.5642(2)
S13 S 0.9182(1) 0.2351(1) 0.4228(1)
S14 S 0.8174(1) 0.2524(1) 0.6220(1)
C35 C 1.0343(3) 0.2314(3) 0.3275(2)
C36 C 0.8375(3) 0.2665(3) 0.7161(2)
C37 C 1.1455(3) 0.2340(3) 0.3281(2)
C38 C 0.9495(3) 0.2707(3) 0.7143(2)
S15 S 1.1636(1) 0.2441(1) 0.4234(1)
S16 S 1.0646(1) 0.2628(1) 0.6188(1)
O13 O 1.0056(2) 0.2236(2) 0.2585(1)
O14 O 0.7385(2) 0.2719(2) 0.7845(1)
C39 C 1.1154(3) 0.1937(3) 0.1904(2)
C40 C 0.7728(4) 0.2606(3) 0.8601(2)
C41 C 0.8694(3) 0.3188(3) 0.8489(2)
O15 O 1.2456(2) 0.2314(2) 0.2598(1)
O16 O 0.9793(2) 0.2835(2) 0.7816(1)
C46 C 1.2338 0.2197 0.1802
C42 C 0.7023(3) 0.6994(3) 0.0203(2)
N1 N 0.8174(3) 0.6599(3) 0.0145(2)
C43 C 0.8903(4) 0.7202(3) 0.0135(2)
N2 N 0.9671(3) 0.7574(3) 0.0113(2)
N3 N 0.6233(3) 0.6478(3) 0.0178(2)
C44 C 0.6717(4) 0.5515(3) 0.0037(2)
N4 N 0.6951(4) 0.4709(3) -0.0084(2)
N5 N 0.6653(3) 0.7976(3) 0.0289(2)
C45 C 0.5499(4) 0.8328(3) 0.0293(2)
N6 N 0.4579(3) 0.8766(3) 0.0302(2)
O17 O 0.7497(9) 0.9830(6) -0.0210(10)
C19? C 0.2555(13) 0.7991(11) 0.9068(7)
C22? C 0.3797(8) 0.7453(10) 0.9061(4)
O18? O 0.7315(8) 0.9903(6) 0.0110(11)
loop_
_geom_bond_atom_site_label_1
_geom_bond_atom_site_label_2
_geom_bond_site_symmetry_1
_geom_bond_site_symmetry_2
C1 C2 1_555 1_555
C2 S2 1_555 1_555
S1 C1 1_555 1_555
S2 C4 1_555 1_555
C3 S1 1_555 1_555
C4 C6 1_555 1_555
C5 C3 1_555 1_555
C6 S4 1_555 1_555
S3 C1 1_555 1_555
S4 C2 1_555 1_555
O1 C3 1_555 1_555
O2 C4 1_555 1_555
C7 O1 1_555 1_555
C8 O2 1_555 1_555
C9 C7 1_555 1_555
C10 C8 1_555 1_555
O3 C5 1_555 1_555
O4 C6 1_555 1_555
C11 C12 1_555 1_555
C12 S6 1_555 1_555
S5 C11 1_555 1_555
S6 C14 1_555 1_555
C13 S5 1_555 1_555
C14 C16 1_555 1_555
C15 C13 1_555 1_555
C16 S8 1_555 1_555
S7 C11 1_555 1_555
S8 C12 1_555 1_555
O5 C13 1_555 1_555
O6 C14 1_555 1_555
C17 O5 1_555 1_555
C18 O6 1_555 1_555
C20 C17 1_555 1_555
C21 C18 1_555 1_555
O7 C15 1_555 1_555
O8 C16 1_555 1_555
C23 C24 1_555 1_555
C24 S10 1_555 1_555
S9 C23 1_555 1_555
S10 C26 1_555 1_555
C25 S9 1_555 1_555
C26 C28 1_555 1_555
C27 C25 1_555 1_555
C28 S12 1_555 1_555
S11 C23 1_555 1_555
S12 C24 1_555 1_555
O9 C25 1_555 1_555
O10 C26 1_555 1_555
C29 O9 1_555 1_555
C30 O10 1_555 1_555
C31 C29 1_555 1_555
C32 C30 1_555 1_555
O11 C27 1_555 1_555
O12 C28 1_555 1_555
C33 C34 1_555 1_555
C34 S14 1_555 1_555
S13 C33 1_555 1_555
S14 C36 1_555 1_555
C35 S13 1_555 1_555
C36 C38 1_555 1_555
C37 C35 1_555 1_555
C38 S16 1_555 1_555
S15 C33 1_555 1_555
S16 C34 1_555 1_555
O13 C35 1_555 1_555
O14 C36 1_555 1_555
C39 O13 1_555 1_555
C40 O14 1_555 1_555
C41 C40 1_555 1_555
O15 C37 1_555 1_555
O16 C38 1_555 1_555
C42 N1 1_555 1_555
N1 C43 1_555 1_555
C43 N2 1_555 1_555
N3 C42 1_555 1_555
C44 N3 1_555 1_555
N4 C44 1_555 1_555
N5 C42 1_555 1_555
C45 N5 1_555 1_555
N6 C45 1_555 1_555
C46 C39 1_555 1_555
C5 S3 1_555 1_555
C9 O3 1_555 1_555
C10 O4 1_555 1_555
C15 S7 1_555 1_555
C20 O7 1_555 1_555
C21 O8 1_555 1_555
C27 S11 1_555 1_555
C31 O11 1_555 1_555
C32 O12 1_555 1_555
C37 S15 1_555 1_555
C41 O16 1_555 1_555
O15 C46 1_555 1_555

#END
