
#######################################################################
#
#                 Cambridge Crystallographic Data Centre
#                                CCDC 
#
#######################################################################
#
# If this CIF has been generated from an entry in the Cambridge 
# Structural Database, then it will include bibliographic, chemical, 
# crystal, experimental, refinement or atomic coordinate data resulting 
# from the CCDC's data processing and validation procedures.
#
#######################################################################

data_GIVZUG
_chemical_formula_moiety         'C10 H11 N1 S7,C12 H4 N4'
_chemical_name_systematic        
"4-(N-Methylthiocarbamoyl)-4',5'-bis(methylsulfanyl)-tetrathiafulvalene tetracyanoquinodimethane"
_symmetry_cell_setting           triclinic
_symmetry_space_group_name_H-M   'P -1'
_symmetry_Int_Tables_number      2
_space_group_name_Hall           '-P 1'
loop_
_symmetry_equiv_pos_site_id
_symmetry_equiv_pos_as_xyz
1 x,y,z
2 -x,-y,-z
_cell_length_a                   7.982(1)
_cell_length_b                   12.876(1)
_cell_length_c                   13.465(1)
_cell_angle_alpha                108.99(1)
_cell_angle_beta                 104.44(1)
_cell_angle_gamma                95.81(1)
_cell_volume                     1241.84
_exptl_crystal_colour            black
_cell_formula_units_Z            2
loop_
_atom_site_label
_atom_site_type_symbol
_atom_site_fract_x
_atom_site_fract_y
_atom_site_fract_z
S1 S 0.30034(7) 0.54874(5) 0.13365(5)
S2 S 0.04708(7) 0.63130(5) 0.25107(5)
S3 S 0.02897(7) 0.30403(5) 0.01097(5)
S4 S -0.22628(7) 0.39803(5) 0.12060(5)
S5 S 0.64581(7) 0.69554(5) 0.15467(5)
S6 S -0.19930(8) 0.06937(5) -0.09039(6)
S7 S -0.47430(8) 0.17817(5) 0.04370(5)
N1 N 0.5510(3) 0.8660(2) 0.2876(2)
C1 C 0.0979(3) 0.5213(2) 0.1567(2)
C2 C 0.3486(3) 0.6908(2) 0.2186(2)
C3 C 0.2308(3) 0.7271(2) 0.2723(2)
C4 C -0.0183(3) 0.4187(2) 0.1041(2)
C5 C -0.1633(3) 0.2109(2) -0.0090(2)
C6 C -0.2800(3) 0.2550(2) 0.0429(2)
C7 C 0.5159(3) 0.7580(2) 0.2249(2)
C8 C 0.7082(4) 0.9436(2) 0.3014(3)
C9 C 0.0018(4) 0.0594(2) -0.1277(3)
C10 C -0.3795(4) 0.1434(3) 0.1633(3)
H1 H 0.4794(37) 0.8937(23) 0.3113(22)
H2 H 0.2394(35) 0.8007(23) 0.3195(22)
H3 H 0.7064(38) 1.0136(26) 0.3531(24)
H4 H 0.7076(40) 0.9500(26) 0.2322(27)
H5 H 0.8123(44) 0.9140(27) 0.3253(26)
H6 H -0.0141(40) -0.0187(28) -0.1712(25)
H7 H 0.0168(44) 0.1071(30) -0.1686(28)
H8 H 0.0995(46) 0.0786(27) -0.0650(28)
H9 H -0.4748(41) 0.1048(25) 0.1787(24)
H10 H -0.3321(43) 0.2085(29) 0.2266(27)
H11 H -0.2955(49) 0.0978(31) 0.1504(29)
N2 N 0.2545(3) 0.2128(2) 0.2096(2)
N3 N -0.0695(3) 0.4022(2) 0.3739(2)
N4 N 1.0566(3) 0.8111(2) 0.4694(2)
N5 N 0.6839(3) 0.9923(2) 0.6113(2)
C11 C 0.3665(3) 0.5033(2) 0.3830(2)
C12 C 0.5321(3) 0.5038(2) 0.3579(2)
C13 C 0.6580(3) 0.5998(2) 0.3997(2)
C14 C 0.6289(3) 0.7029(2) 0.4680(2)
C15 C 0.4665(3) 0.7016(2) 0.4959(2)
C16 C 0.3420(3) 0.6052(2) 0.4561(2)
C17 C 0.2330(3) 0.4065(2) 0.3373(2)
C18 C 0.7554(3) 0.8038(2) 0.5074(2)
C19 C 0.2500(3) 0.2999(2) 0.2671(2)
C20 C 0.0674(3) 0.4054(2) 0.3599(2)
C21 C 0.9220(3) 0.8074(2) 0.4865(2)
C22 C 0.7183(3) 0.9082(2) 0.5663(2)
H12 H 0.5541(31) 0.4396(21) 0.3136(19)
H13 H 0.7693(34) 0.5987(21) 0.3838(20)
H14 H 0.4474(33) 0.7712(22) 0.5448(21)
H15 H 0.2392(34) 0.6059(21) 0.4783(20)
loop_
_geom_bond_atom_site_label_1
_geom_bond_atom_site_label_2
_geom_bond_site_symmetry_1
_geom_bond_site_symmetry_2
S1 C1 1_555 1_555
S2 C1 1_555 1_555
S3 C4 1_555 1_555
S4 C4 1_555 1_555
S5 C7 1_555 1_555
S6 C5 1_555 1_555
S7 C6 1_555 1_555
N1 C7 1_555 1_555
C1 C4 1_555 1_555
C2 S1 1_555 1_555
C3 S2 1_555 1_555
C5 S3 1_555 1_555
C6 S4 1_555 1_555
C7 C2 1_555 1_555
C8 N1 1_555 1_555
C9 S6 1_555 1_555
C10 S7 1_555 1_555
N2 C19 1_555 1_555
N3 C20 1_555 1_555
N4 C21 1_555 1_555
N5 C22 1_555 1_555
C11 C12 1_555 1_555
C12 C13 1_555 1_555
C13 C14 1_555 1_555
C14 C15 1_555 1_555
C15 C16 1_555 1_555
C16 C11 1_555 1_555
C17 C11 1_555 1_555
C18 C14 1_555 1_555
C19 C17 1_555 1_555
C20 C17 1_555 1_555
C21 C18 1_555 1_555
C22 C18 1_555 1_555
H1 N1 1_555 1_555
H2 C3 1_555 1_555
H3 C8 1_555 1_555
H4 C8 1_555 1_555
H5 C8 1_555 1_555
H6 C9 1_555 1_555
H7 C9 1_555 1_555
H8 C9 1_555 1_555
H9 C10 1_555 1_555
H10 C10 1_555 1_555
H11 C10 1_555 1_555
H12 C12 1_555 1_555
H13 C13 1_555 1_555
H14 C15 1_555 1_555
H15 C16 1_555 1_555
C2 C3 1_555 1_555
C5 C6 1_555 1_555

#END
