
#######################################################################
#
#                 Cambridge Crystallographic Data Centre
#                                CCDC 
#
#######################################################################
#
# If this CIF has been generated from an entry in the Cambridge 
# Structural Database, then it will include bibliographic, chemical, 
# crystal, experimental, refinement or atomic coordinate data resulting 
# from the CCDC's data processing and validation procedures.
#
#######################################################################

data_GIVZUJ
_chemical_formula_moiety         'C36 H20 Cl2'
_chemical_name_systematic        
11,12-dichloro-9,14-diphenyldibenzo[de,qr]tetracene
_symmetry_cell_setting           monoclinic
_symmetry_space_group_name_H-M   'P 21/c'
_symmetry_Int_Tables_number      14
_space_group_name_Hall           '-P 2ybc'
loop_
_symmetry_equiv_pos_site_id
_symmetry_equiv_pos_as_xyz
1 x,y,z
2 -x,1/2+y,1/2-z
3 -x,-y,-z
4 x,1/2-y,1/2+z
_cell_length_a                   8.7018(3)
_cell_length_b                   22.5094(9)
_cell_length_c                   13.1969(6)
_cell_angle_alpha                90
_cell_angle_beta                 102.5840(10)
_cell_angle_gamma                90
_cell_volume                     2522.81
_exptl_crystal_colour            yellow
_exptl_crystal_description       block
_cell_formula_units_Z            4
loop_
_atom_site_label
_atom_site_type_symbol
_atom_site_fract_x
_atom_site_fract_y
_atom_site_fract_z
Cl1 Cl -0.15424(9) 0.41252(3) 0.27286(7)
Cl2 Cl 0.07153(8) 0.49880(3) 0.18252(7)
C1 C 0.0382(2) 0.30346(8) 0.09548(16)
C2 C -0.0563(2) 0.32838(9) 0.15918(18)
H1 H -0.128521 0.304349 0.182350
C3 C -0.0443(3) 0.38654(10) 0.1874(2)
C4 C 0.0588(3) 0.42421(9) 0.1493(2)
C5 C 0.1497(3) 0.40213(9) 0.08676(19)
H2 H 0.218614 0.427444 0.063002
C6 C 0.1426(2) 0.34123(8) 0.05629(17)
C7 C 0.2354(2) 0.31780(8) -0.01077(16)
C8 C 0.2284(2) 0.25708(8) -0.03484(16)
C9 C 0.3056(2) 0.23183(9) -0.11472(15)
C10 C 0.3524(3) 0.26591(10) -0.19091(17)
H3 H 0.327055 0.306096 -0.196088
C11 C 0.4356(3) 0.24153(11) -0.25915(18)
H4 H 0.467063 0.265655 -0.308137
C12 C 0.4718(3) 0.18260(12) -0.25517(18)
H5 H 0.534327 0.167341 -0.297844
C13 C 0.4157(3) 0.14510(10) -0.18763(17)
C14 C 0.4433(3) 0.08277(11) -0.1877(2)
H6 H 0.501490 0.067094 -0.232761
C15 C 0.3874(3) 0.04640(10) -0.1246(2)
H7 H 0.408506 0.005937 -0.125966
C16 C 0.2958(3) 0.06819(9) -0.05476(18)
C17 C 0.2379(3) 0.02987(10) 0.0107(2)
H8 H 0.254650 -0.010825 0.007418
C18 C 0.1569(3) 0.05191(10) 0.0796(2)
H9 H 0.120572 0.026189 0.124356
C19 C 0.1281(3) 0.11229(10) 0.0839(2)
H10 H 0.076350 0.126293 0.133851
C20 C 0.1736(2) 0.15281(8) 0.01620(17)
C21 C 0.1415(2) 0.21756(8) 0.01882(16)
C22 C 0.0370(2) 0.24139(8) 0.07519(16)
C23 C 0.3283(2) 0.16933(9) -0.11810(15)
C24 C 0.2649(2) 0.13025(8) -0.05186(16)
C25 C 0.3463(3) 0.36029(9) -0.04596(17)
C26 C 0.2900(3) 0.40813(10) -0.1094(2)
H11 H 0.182008 0.412827 -0.133303
C27 C 0.3911(4) 0.44879(11) -0.1378(2)
H12 H 0.351134 0.480483 -0.180700
C28 C 0.5501(4) 0.44266(13) -0.1029(2)
H13 H 0.618405 0.470492 -0.121057
C29 C 0.6085(3) 0.39534(13) -0.0411(2)
H14 H 0.716716 0.390938 -0.017921
C30 C 0.5073(3) 0.35393(11) -0.01283(17)
H15 H 0.548077 0.321752 0.028603
C31 C -0.0827(2) 0.20534(8) 0.11382(16)
C32 C -0.2067(3) 0.17998(9) 0.04307(19)
H16 H -0.216259 0.186209 -0.027699
C33 C -0.3165(3) 0.14526(11) 0.0781(2)
H17 H -0.398943 0.128050 0.030281
C34 C -0.3050(3) 0.13603(11) 0.1823(3)
H18 H -0.378436 0.112303 0.204842
C35 C -0.1848(3) 0.16195(11) 0.2529(2)
H19 H -0.177435 0.156300 0.323611
C36 C -0.0748(3) 0.19636(10) 0.21922(18)
H20 H 0.006083 0.213897 0.267737
loop_
_geom_bond_atom_site_label_1
_geom_bond_atom_site_label_2
_geom_bond_site_symmetry_1
_geom_bond_site_symmetry_2
Cl1 C3 1_555 1_555
Cl2 C4 1_555 1_555
C1 C2 1_555 1_555
C2 H1 1_555 1_555
C3 C2 1_555 1_555
C4 C3 1_555 1_555
C5 C4 1_555 1_555
H2 C5 1_555 1_555
C6 C1 1_555 1_555
C7 C6 1_555 1_555
C8 C7 1_555 1_555
C9 C8 1_555 1_555
C10 C9 1_555 1_555
H3 C10 1_555 1_555
C11 C10 1_555 1_555
H4 C11 1_555 1_555
C12 C11 1_555 1_555
H5 C12 1_555 1_555
C13 C12 1_555 1_555
C14 C13 1_555 1_555
H6 C14 1_555 1_555
C15 C14 1_555 1_555
H7 C15 1_555 1_555
C16 C15 1_555 1_555
C17 C16 1_555 1_555
H8 C17 1_555 1_555
C18 C17 1_555 1_555
H9 C18 1_555 1_555
C19 C18 1_555 1_555
H10 C19 1_555 1_555
C20 C19 1_555 1_555
C21 C8 1_555 1_555
C22 C1 1_555 1_555
C23 C9 1_555 1_555
C24 C16 1_555 1_555
C25 C7 1_555 1_555
C26 C25 1_555 1_555
H11 C26 1_555 1_555
C27 C26 1_555 1_555
H12 C27 1_555 1_555
C28 C27 1_555 1_555
H13 C28 1_555 1_555
C29 C28 1_555 1_555
H14 C29 1_555 1_555
C30 C25 1_555 1_555
H15 C30 1_555 1_555
C31 C22 1_555 1_555
C32 C31 1_555 1_555
H16 C32 1_555 1_555
C33 C32 1_555 1_555
H17 C33 1_555 1_555
C34 C33 1_555 1_555
H18 C34 1_555 1_555
C35 C34 1_555 1_555
H19 C35 1_555 1_555
C36 C31 1_555 1_555
H20 C36 1_555 1_555
C5 C6 1_555 1_555
C13 C23 1_555 1_555
C20 C21 1_555 1_555
C20 C24 1_555 1_555
C21 C22 1_555 1_555
C23 C24 1_555 1_555
C29 C30 1_555 1_555
C35 C36 1_555 1_555

#END
