
#######################################################################
#
#                 Cambridge Crystallographic Data Centre
#                                CCDC 
#
#######################################################################
#
# If this CIF has been generated from an entry in the Cambridge 
# Structural Database, then it will include bibliographic, chemical, 
# crystal, experimental, refinement or atomic coordinate data resulting 
# from the CCDC's data processing and validation procedures.
#
#######################################################################

data_GIWFOJ
_chemical_formula_moiety         'C19 H17 N1 O2'
_chemical_name_systematic        
'methyl 2-methyl-1,5-diphenyl-1H-pyrrole-3-carboxylate'
_symmetry_cell_setting           monoclinic
_symmetry_space_group_name_H-M   'P 21/n'
_symmetry_Int_Tables_number      14
_space_group_name_Hall           '-P 2yn'
loop_
_symmetry_equiv_pos_site_id
_symmetry_equiv_pos_as_xyz
1 x,y,z
2 1/2-x,1/2+y,1/2-z
3 -x,-y,-z
4 1/2+x,1/2-y,1/2+z
_cell_length_a                   8.7792(8)
_cell_length_b                   25.118(2)
_cell_length_c                   14.2371(13)
_cell_angle_alpha                90
_cell_angle_beta                 103.655(2)
_cell_angle_gamma                90
_cell_volume                     3050.77
_cell_formula_units_Z            8
loop_
_atom_site_label
_atom_site_type_symbol
_atom_site_fract_x
_atom_site_fract_y
_atom_site_fract_z
O1 O 0.3710(3) 0.54390(8) 0.77625(16)
O2 O 0.1372(3) 0.58460(7) 0.73246(15)
N1 N 0.1106(3) 0.41737(9) 0.61447(17)
C1 C 0.2150(5) 0.63311(12) 0.7732(3)
H1 H 0.2831 0.6453 0.7339
H2 H 0.2754 0.6263 0.8375
H3 H 0.1379 0.6600 0.7751
C2 C 0.2328(4) 0.54198(11) 0.7356(2)
C3 C 0.1500(4) 0.49629(11) 0.6863(2)
C4 C -0.0129(4) 0.48885(11) 0.6516(2)
H4 H -0.0907 0.5128 0.6579
C5 C -0.0366(4) 0.43992(11) 0.6068(2)
C6 C -0.1844(4) 0.41359(11) 0.5607(2)
C7 C -0.3027(4) 0.44227(13) 0.4993(2)
H5 H -0.2883 0.4783 0.4890
C8 C -0.4410(4) 0.41802(14) 0.4534(2)
H6 H -0.5184 0.4377 0.4119
C9 C -0.4656(4) 0.36472(14) 0.4686(2)
H7 H -0.5587 0.3483 0.4373
C10 C -0.3498(4) 0.33595(13) 0.5311(2)
H8 H -0.3664 0.3002 0.5424
C11 C -0.2109(4) 0.35954(11) 0.5767(2)
H9 H -0.1342 0.3397 0.6183
C12 C 0.1414(4) 0.36810(11) 0.5707(2)
C13 C 0.0905(4) 0.36129(12) 0.4717(2)
H10 H 0.0354 0.3882 0.4333
C14 C 0.1229(4) 0.31392(13) 0.4306(2)
H11 H 0.0886 0.3090 0.3643
C15 C 0.2051(4) 0.27416(12) 0.4869(2)
H12 H 0.2270 0.2426 0.4584
C16 C 0.2556(4) 0.28101(12) 0.5860(2)
H13 H 0.3121 0.2542 0.6240
C17 C 0.2217(4) 0.32788(11) 0.6285(2)
H14 H 0.2527 0.3323 0.6952
C18 C 0.2264(4) 0.45150(11) 0.6620(2)
C19 C 0.3947(4) 0.44053(12) 0.6741(2)
H15 H 0.4342 0.4226 0.7344
H16 H 0.4501 0.4735 0.6737
H17 H 0.4095 0.4184 0.6220
O3 O -0.3779(3) 0.20149(7) 0.67642(15)
O4 O -0.1398(3) 0.16341(7) 0.72050(15)
N2 N -0.1185(3) 0.33033(8) 0.83609(17)
C20 C -0.2100(4) 0.11392(11) 0.6798(3)
H18 H -0.2628 0.1194 0.6133
H19 H -0.2840 0.1020 0.7153
H20 H -0.1297 0.0875 0.6837
C21 C -0.2400(4) 0.20456(11) 0.7153(2)
C22 C -0.1588(4) 0.25141(10) 0.7644(2)
C23 C 0.0039(4) 0.25818(10) 0.8014(2)
H21 H 0.0811 0.2337 0.7968
C24 C 0.0287(4) 0.30700(10) 0.8453(2)
C25 C 0.1763(4) 0.33394(10) 0.8895(2)
C26 C 0.2027(4) 0.38725(11) 0.8683(2)
H22 H 0.1245 0.4064 0.8263
C27 C 0.3432(4) 0.41142(12) 0.9091(2)
H23 H 0.3588 0.4468 0.8943
C28 C 0.4621(4) 0.38399(12) 0.9721(2)
H24 H 0.5567 0.4006 0.9998
C29 C 0.4369(4) 0.33131(12) 0.9927(2)
H25 H 0.5156 0.3124 1.0347
C30 C 0.2963(4) 0.30637(12) 0.9517(2)
H26 H 0.2819 0.2708 0.9660
C31 C -0.1459(4) 0.37948(10) 0.8814(2)
C32 C -0.0921(4) 0.38513(12) 0.9809(2)
H27 H -0.0414 0.3571 1.0182
C33 C -0.1150(4) 0.43301(12) 1.0234(3)
H28 H -0.0772 0.4375 1.0896
C34 C -0.1933(4) 0.47395(13) 0.9685(3)
H29 H -0.2079 0.5060 0.9978
C35 C -0.2503(4) 0.46786(11) 0.8702(3)
H30 H -0.3061 0.4953 0.8336
C36 C -0.2238(4) 0.42040(11) 0.8259(2)
H31 H -0.2586 0.4164 0.7594
C37 C -0.2336(4) 0.29682(10) 0.7869(2)
C38 C -0.4014(4) 0.30953(12) 0.7709(2)
H32 H -0.4345 0.3294 0.7120
H33 H -0.4185 0.3304 0.8240
H34 H -0.4607 0.2771 0.7663
loop_
_geom_bond_atom_site_label_1
_geom_bond_atom_site_label_2
_geom_bond_site_symmetry_1
_geom_bond_site_symmetry_2
O1 C2 1_555 1_555
O2 C1 1_555 1_555
N1 C5 1_555 1_555
C1 H1 1_555 1_555
H2 C1 1_555 1_555
H3 C1 1_555 1_555
C2 O2 1_555 1_555
C3 C2 1_555 1_555
C4 C3 1_555 1_555
H4 C4 1_555 1_555
C5 C4 1_555 1_555
C6 C5 1_555 1_555
C7 C6 1_555 1_555
H5 C7 1_555 1_555
C8 C7 1_555 1_555
H6 C8 1_555 1_555
C9 C8 1_555 1_555
H7 C9 1_555 1_555
C10 C9 1_555 1_555
H8 C10 1_555 1_555
C11 C6 1_555 1_555
H9 C11 1_555 1_555
C12 N1 1_555 1_555
C13 C12 1_555 1_555
H10 C13 1_555 1_555
C14 C13 1_555 1_555
H11 C14 1_555 1_555
C15 C14 1_555 1_555
H12 C15 1_555 1_555
C16 C15 1_555 1_555
H13 C16 1_555 1_555
C17 C12 1_555 1_555
H14 C17 1_555 1_555
C18 N1 1_555 1_555
C19 C18 1_555 1_555
H15 C19 1_555 1_555
H16 C19 1_555 1_555
H17 C19 1_555 1_555
O3 C21 1_555 1_555
O4 C20 1_555 1_555
N2 C24 1_555 1_555
C20 H18 1_555 1_555
H19 C20 1_555 1_555
H20 C20 1_555 1_555
C21 O4 1_555 1_555
C22 C21 1_555 1_555
C23 C22 1_555 1_555
H21 C23 1_555 1_555
C24 C23 1_555 1_555
C25 C24 1_555 1_555
C26 C25 1_555 1_555
H22 C26 1_555 1_555
C27 C26 1_555 1_555
H23 C27 1_555 1_555
C28 C27 1_555 1_555
H24 C28 1_555 1_555
C29 C28 1_555 1_555
H25 C29 1_555 1_555
C30 C25 1_555 1_555
H26 C30 1_555 1_555
C31 N2 1_555 1_555
C32 C31 1_555 1_555
H27 C32 1_555 1_555
C33 C32 1_555 1_555
H28 C33 1_555 1_555
C34 C33 1_555 1_555
H29 C34 1_555 1_555
C35 C34 1_555 1_555
H30 C35 1_555 1_555
C36 C31 1_555 1_555
H31 C36 1_555 1_555
C37 N2 1_555 1_555
C38 C37 1_555 1_555
H32 C38 1_555 1_555
H33 C38 1_555 1_555
H34 C38 1_555 1_555
C3 C18 1_555 1_555
C10 C11 1_555 1_555
C16 C17 1_555 1_555
C22 C37 1_555 1_555
C29 C30 1_555 1_555
C35 C36 1_555 1_555

#END
