
#######################################################################
#
#                 Cambridge Crystallographic Data Centre
#                                CCDC 
#
#######################################################################
#
# If this CIF has been generated from an entry in the Cambridge 
# Structural Database, then it will include bibliographic, chemical, 
# crystal, experimental, refinement or atomic coordinate data resulting 
# from the CCDC's data processing and validation procedures.
#
#######################################################################

data_GIWJOO
_chemical_formula_moiety         'C20 H40 N6 O2 2+,2(C2 F3 O2 1-),C1 H4 O1'
_chemical_name_systematic        
"2,2'-[cyclohexane-1,2-diylbis(carbamoylazanediyl)]bis(cyclohexan-1-aminium) bis(trifluoroacetate) methanol solvate"
_symmetry_cell_setting           monoclinic
_symmetry_space_group_name_H-M   'P 21'
_symmetry_Int_Tables_number      4
_space_group_name_Hall           'P 2yb'
loop_
_symmetry_equiv_pos_site_id
_symmetry_equiv_pos_as_xyz
1 x,y,z
2 -x,1/2+y,-z
_cell_length_a                   11.3124(2)
_cell_length_b                   13.9297(2)
_cell_length_c                   20.1360(3)
_cell_angle_alpha                90
_cell_angle_beta                 91.2812(6)
_cell_angle_gamma                90
_cell_volume                     3172.2
_exptl_crystal_colour            colorless
_exptl_crystal_description       block
_cell_formula_units_Z            4
loop_
_atom_site_label
_atom_site_type_symbol
_atom_site_fract_x
_atom_site_fract_y
_atom_site_fract_z
O1 O 0.4014(4) 1.0459(3) -0.1018(2)
N1 N 0.6929(4) 1.0787(4) -0.0514(2)
H1 H 0.669152 1.137025 -0.067022
H2 H 0.755047 1.086428 -0.022427
H3 H 0.632020 1.050057 -0.030182
C1 C 0.7298(5) 1.0168(5) -0.1083(3)
H4 H 0.769677 0.958107 -0.090083
O2 O 0.3864(4) 0.7437(3) 0.1114(2)
N2 N 0.5411(4) 0.9308(4) -0.1089(2)
H5 H 0.564746 0.874476 -0.093928
C2 C 0.8175(6) 1.0720(5) -0.1493(3)
H6 H 0.888229 1.087322 -0.121451
H7 H 0.781364 1.133266 -0.164229
N3 N 0.3595(4) 0.8949(4) -0.0669(3)
H8 H 0.382288 0.834491 -0.067771
C3 C 0.8545(6) 1.0141(6) -0.2097(4)
H9 H 0.899153 0.956592 -0.194834
H10 H 0.906960 1.053566 -0.237381
N4 N 0.3383(5) 0.8932(4) 0.0730(3)
H11 H 0.350753 0.954665 0.080373
C4 C 0.7455(7) 0.9833(6) -0.2509(3)
H12 H 0.705689 1.040936 -0.269498
H13 H 0.770606 0.942768 -0.288373
N5 N 0.5204(4) 0.8646(4) 0.1206(3)
H14 H 0.532857 0.926395 0.115067
C5 C 0.6591(6) 0.9276(6) -0.2089(3)
H15 H 0.696640 0.867162 -0.193477
H16 H 0.588419 0.910773 -0.236358
N6 N 0.6434(5) 0.7181(4) 0.0438(2)
H17 H 0.687151 0.717925 0.006443
H18 H 0.570647 0.743049 0.034348
H19 H 0.635545 0.656885 0.058928
C6 C 0.6213(5) 0.9861(4) -0.1489(3)
H20 H 0.579214 1.045009 -0.165193
C7 C 0.2472(5) 0.9170(4) -0.0369(3)
H21 H 0.242493 0.987881 -0.029704
C8 C 0.1440(5) 0.8864(5) -0.0822(3)
H22 H 0.148662 0.816479 -0.090590
H23 H 0.149250 0.919902 -0.125410
C9 C 0.0255(6) 0.9100(5) -0.0507(3)
H24 H -0.040147 0.888739 -0.080521
H25 H 0.018643 0.980327 -0.044614
C10 C 0.0168(5) 0.8596(5) 0.0167(3)
H26 H -0.058278 0.877771 0.037697
H27 H 0.016454 0.789182 0.010016
C11 C 0.1208(5) 0.8876(5) 0.0622(3)
H28 H 0.116158 0.957047 0.072237
H29 H 0.115441 0.852062 0.104578
C12 C 0.2385(5) 0.8661(4) 0.0310(3)
H30 H 0.242926 0.795271 0.023195
C13 C 0.6161(5) 0.8065(5) 0.1498(3)
H31 H 0.581722 0.747178 0.169594
C14 C 0.6810(5) 0.8636(5) 0.2045(3)
H32 H 0.706616 0.926035 0.186304
H33 H 0.626018 0.876600 0.240982
C15 C 0.7884(6) 0.8101(5) 0.2322(3)
H34 H 0.761915 0.751382 0.255181
H35 H 0.830178 0.851183 0.265225
C16 C 0.8744(6) 0.7821(5) 0.1773(3)
H36 H 0.907867 0.840771 0.157359
H37 H 0.940351 0.743924 0.196751
C17 C 0.8101(6) 0.7237(5) 0.1240(3)
H38 H 0.865072 0.709098 0.087770
H39 H 0.783728 0.662062 0.143159
C18 C 0.7037(5) 0.7775(4) 0.0957(3)
H40 H 0.732780 0.837469 0.074202
C19 C 0.4312(5) 0.9616(4) -0.0934(3)
C20 C 0.4143(5) 0.8285(4) 0.1019(3)
O3 O 0.6031(4) 1.0878(3) 0.5918(2)
N7 N 0.3267(4) 1.1180(4) 0.5406(2)
H41 H 0.348816 1.175867 0.557879
H42 H 0.268217 1.126819 0.509477
H43 H 0.389961 1.089689 0.521542
C21 C 0.2830(5) 1.0558(4) 0.5943(3)
H44 H 0.246207 0.997365 0.573799
O4 O 0.6054(4) 0.7807(3) 0.3915(2)
N8 N 0.4710(4) 0.9668(4) 0.6037(2)
H45 H 0.452116 0.907345 0.593337
C22 C 0.1886(5) 1.1105(5) 0.6309(3)
H46 H 0.121167 1.123780 0.600036
H47 H 0.221117 1.172731 0.646338
N9 N 0.6523(4) 0.9363(4) 0.5603(3)
H48 H 0.635132 0.875018 0.564299
C23 C 0.1445(6) 1.0531(5) 0.6910(3)
H49 H 0.087968 1.092656 0.715959
H50 H 0.102612 0.994722 0.675188
N10 N 0.6562(4) 0.9342(4) 0.4200(3)
H51 H 0.640526 0.995119 0.412118
C24 C 0.2462(7) 1.0249(6) 0.7360(3)
H52 H 0.216420 0.985796 0.773123
H53 H 0.283294 1.083389 0.755034
N11 N 0.4720(4) 0.9003(4) 0.3770(2)
H54 H 0.456866 0.961610 0.383055
C25 C 0.3387(6) 0.9675(5) 0.6988(3)
H55 H 0.303155 0.906686 0.682591
H56 H 0.405233 0.951370 0.729531
N12 N 0.3439(4) 0.7633(4) 0.4568(2)
H57 H 0.358147 0.701131 0.445513
H58 H 0.295277 0.764913 0.492184
H59 H 0.413397 0.792788 0.467724
C26 C 0.3857(5) 1.0243(4) 0.6396(3)
H60 H 0.426776 1.083028 0.656991
C27 C 0.7600(5) 0.9614(4) 0.5266(3)
H61 H 0.759907 1.032306 0.518978
C28 C 0.8693(5) 0.9362(5) 0.5670(3)
H62 H 0.868617 0.866711 0.577237
H63 H 0.868568 0.971661 0.609643
C29 C 0.9823(6) 0.9607(5) 0.5305(3)
H64 H 0.987210 1.031096 0.524229
H65 H 1.051849 0.940308 0.557726
C30 C 0.9847(6) 0.9115(6) 0.4637(3)
H66 H 0.989473 0.841179 0.470160
H67 H 1.055788 0.932213 0.439692
C31 C 0.8748(6) 0.9357(5) 0.4225(3)
H68 H 0.874814 1.005150 0.412023
H69 H 0.876499 0.899967 0.380016
C32 C 0.7630(5) 0.9109(4) 0.4582(3)
H70 H 0.763139 0.840056 0.466220
C33 C 0.3794(5) 0.8399(4) 0.3474(3)
H71 H 0.416670 0.779015 0.331925
C34 C 0.3199(6) 0.8887(5) 0.2874(3)
H72 H 0.288826 0.951992 0.300987
H73 H 0.379316 0.899699 0.252834
C35 C 0.2196(6) 0.8290(5) 0.2583(3)
H74 H 0.251966 0.768944 0.239735
H75 H 0.180338 0.864925 0.221623
C36 C 0.1277(6) 0.8039(5) 0.3109(3)
H76 H 0.088892 0.863414 0.326203
H77 H 0.066161 0.761693 0.290967
C37 C 0.1864(5) 0.7537(5) 0.3697(3)
H78 H 0.218237 0.691046 0.355150
H79 H 0.127010 0.741285 0.403991
C38 C 0.2860(5) 0.8142(4) 0.3991(3)
H80 H 0.251219 0.875310 0.415890
C39 C 0.5770(5) 1.0002(4) 0.5857(3)
C40 C 0.5791(5) 0.8670(4) 0.3956(3)
O5 O 1.2375(5) 0.7876(4) 0.5768(2)
O6 O 1.0799(5) 0.6977(4) 0.5480(2)
C41 C 1.1465(7) 0.7404(5) 0.5883(4)
C42 C 1.1083(7) 0.7348(5) 0.6611(4)
F1 F 1.1906(6) 0.7675(5) 0.7064(3)
F2 F 1.0883(6) 0.6473(4) 0.6808(3)
F3 F 1.0135(6) 0.7889(6) 0.6704(3)
O7 O 0.4413(5) 0.7053(6) -0.0466(4)
O8 O 0.4775(8) 0.5461(6) -0.0526(4)
C43 C 0.4689(10) 0.6293(7) -0.0758(4)
C44 C 0.4967(9) 0.6344(5) -0.1510(4)
F7 F 0.5091(5) 0.7236(4) -0.1728(4)
F8 F 0.5932(5) 0.5854(4) -0.1651(2)
F9 F 0.4082(6) 0.5932(4) -0.1860(2)
O11 O 0.5063(19) 0.5935(10) 0.5630(5)
O12 O 0.531(4) 0.7527(11) 0.5557(6)
C47 C 0.5099(10) 0.6770(8) 0.5851(4)
C48 C 0.4875(10) 0.6810(7) 0.6594(4)
F13 F 0.4723(6) 0.7664(4) 0.6839(3)
F14 F 0.5633(6) 0.6296(4) 0.6945(2)
F15 F 0.3808(6) 0.6341(5) 0.6722(3)
O15 O 0.7391(5) 0.7416(4) 0.9199(2)
O16 O 0.8877(5) 0.6455(4) 0.9536(2)
C51 C 0.8266(7) 0.6901(5) 0.9113(3)
C52 C 0.8686(7) 0.6791(6) 0.8396(4)
F19 F 0.7913(5) 0.7114(4) 0.7935(2)
F20 F 0.9656(6) 0.7282(5) 0.8306(3)
F21 F 0.8874(5) 0.5896(3) 0.8233(2)
O17 O 1.1209(5) 0.5998(4) 0.9579(2)
H81 H 1.047743 0.610182 0.957059
C53 C 1.1556(9) 0.5741(8) 0.8967(5)
H82 H 1.156466 0.630774 0.867880
H83 H 1.100411 0.526461 0.878035
H84 H 1.235172 0.546334 0.899692
O18 O 0.8500(5) 0.6452(4) 0.5555(2)
H85 H 0.921056 0.662507 0.554450
C54 C 0.8223(10) 0.6221(9) 0.6186(6)
H86 H 0.880643 0.576442 0.636573
H87 H 0.743528 0.592956 0.618879
H88 H 0.822853 0.680279 0.645994
F4? F 1.016(2) 0.6694(19) 0.6704(12)
F5? F 1.073(2) 0.8123(14) 0.6832(13)
F6? F 1.198(2) 0.699(2) 0.6928(12)
O9? O 0.474(4) 0.712(3) -0.0433(18)
O10? O 0.448(5) 0.552(3) -0.0512(19)
C45? C 0.458(4) 0.635(2) -0.0738(10)
C46? C 0.438(2) 0.6411(16) -0.1504(11)
F10? F 0.465(3) 0.7276(15) -0.1735(18)
F11? F 0.501(2) 0.5767(15) -0.1824(11)
F12? F 0.3240(18) 0.6244(16) -0.1653(10)
O13? O 0.524(10) 0.602(5) 0.559(2)
O14? O 0.526(17) 0.762(5) 0.550(2)
C49? C 0.533(5) 0.685(4) 0.5808(10)
C50? C 0.557(2) 0.6879(17) 0.6553(11)
F16? F 0.658(2) 0.6560(15) 0.6767(10)
F17? F 0.538(2) 0.7704(14) 0.6829(11)
F18? F 0.477(3) 0.6260(18) 0.6868(13)
loop_
_geom_bond_atom_site_label_1
_geom_bond_atom_site_label_2
_geom_bond_site_symmetry_1
_geom_bond_site_symmetry_2
O1 C19 1_555 1_555
N1 H1 1_555 1_555
H2 N1 1_555 1_555
H3 N1 1_555 1_555
C1 N1 1_555 1_555
H4 C1 1_555 1_555
O2 C20 1_555 1_555
N2 H5 1_555 1_555
C2 C1 1_555 1_555
H6 C2 1_555 1_555
H7 C2 1_555 1_555
N3 H8 1_555 1_555
C3 C2 1_555 1_555
H9 C3 1_555 1_555
H10 C3 1_555 1_555
N4 H11 1_555 1_555
C4 C3 1_555 1_555
H12 C4 1_555 1_555
H13 C4 1_555 1_555
N5 H14 1_555 1_555
C5 C4 1_555 1_555
H15 C5 1_555 1_555
H16 C5 1_555 1_555
N6 H17 1_555 1_555
H18 N6 1_555 1_555
H19 N6 1_555 1_555
C6 C1 1_555 1_555
H20 C6 1_555 1_555
C7 N3 1_555 1_555
H21 C7 1_555 1_555
C8 C7 1_555 1_555
H22 C8 1_555 1_555
H23 C8 1_555 1_555
C9 C8 1_555 1_555
H24 C9 1_555 1_555
H25 C9 1_555 1_555
C10 C9 1_555 1_555
H26 C10 1_555 1_555
H27 C10 1_555 1_555
C11 C10 1_555 1_555
H28 C11 1_555 1_555
H29 C11 1_555 1_555
C12 N4 1_555 1_555
H30 C12 1_555 1_555
C13 N5 1_555 1_555
H31 C13 1_555 1_555
C14 C13 1_555 1_555
H32 C14 1_555 1_555
H33 C14 1_555 1_555
C15 C14 1_555 1_555
H34 C15 1_555 1_555
H35 C15 1_555 1_555
C16 C15 1_555 1_555
H36 C16 1_555 1_555
H37 C16 1_555 1_555
C17 C16 1_555 1_555
H38 C17 1_555 1_555
H39 C17 1_555 1_555
C18 N6 1_555 1_555
H40 C18 1_555 1_555
C19 N2 1_555 1_555
C20 N4 1_555 1_555
O3 C39 1_555 1_555
N7 H41 1_555 1_555
H42 N7 1_555 1_555
H43 N7 1_555 1_555
C21 N7 1_555 1_555
H44 C21 1_555 1_555
O4 C40 1_555 1_555
N8 H45 1_555 1_555
C22 C21 1_555 1_555
H46 C22 1_555 1_555
H47 C22 1_555 1_555
N9 H48 1_555 1_555
C23 C22 1_555 1_555
H49 C23 1_555 1_555
H50 C23 1_555 1_555
N10 H51 1_555 1_555
C24 C23 1_555 1_555
H52 C24 1_555 1_555
H53 C24 1_555 1_555
N11 H54 1_555 1_555
C25 C24 1_555 1_555
H55 C25 1_555 1_555
H56 C25 1_555 1_555
N12 H57 1_555 1_555
H58 N12 1_555 1_555
H59 N12 1_555 1_555
C26 C21 1_555 1_555
H60 C26 1_555 1_555
C27 N9 1_555 1_555
H61 C27 1_555 1_555
C28 C27 1_555 1_555
H62 C28 1_555 1_555
H63 C28 1_555 1_555
C29 C28 1_555 1_555
H64 C29 1_555 1_555
H65 C29 1_555 1_555
C30 C29 1_555 1_555
H66 C30 1_555 1_555
H67 C30 1_555 1_555
C31 C30 1_555 1_555
H68 C31 1_555 1_555
H69 C31 1_555 1_555
C32 N10 1_555 1_555
H70 C32 1_555 1_555
C33 N11 1_555 1_555
H71 C33 1_555 1_555
C34 C33 1_555 1_555
H72 C34 1_555 1_555
H73 C34 1_555 1_555
C35 C34 1_555 1_555
H74 C35 1_555 1_555
H75 C35 1_555 1_555
C36 C35 1_555 1_555
H76 C36 1_555 1_555
H77 C36 1_555 1_555
C37 C36 1_555 1_555
H78 C37 1_555 1_555
H79 C37 1_555 1_555
C38 N12 1_555 1_555
H80 C38 1_555 1_555
C39 N8 1_555 1_555
C40 N10 1_555 1_555
O5 C41 1_555 1_555
O6 C41 1_555 1_555
C41 C42 1_555 1_555
C42 F1 1_555 1_555
F2 C42 1_555 1_555
F3 C42 1_555 1_555
O7 C43 1_555 1_555
O8 C43 1_555 1_555
C43 C44 1_555 1_555
C44 F7 1_555 1_555
F8 C44 1_555 1_555
F9 C44 1_555 1_555
O11 C47 1_555 1_555
O12 C47 1_555 1_555
C47 C48 1_555 1_555
C48 F13 1_555 1_555
F14 C48 1_555 1_555
F15 C48 1_555 1_555
O15 C51 1_555 1_555
O16 C51 1_555 1_555
C51 C52 1_555 1_555
C52 F19 1_555 1_555
F20 C52 1_555 1_555
F21 C52 1_555 1_555
O17 H81 1_555 1_555
C53 O17 1_555 1_555
H82 C53 1_555 1_555
H83 C53 1_555 1_555
H84 C53 1_555 1_555
O18 H85 1_555 1_555
C54 O18 1_555 1_555
H86 C54 1_555 1_555
H87 C54 1_555 1_555
H88 C54 1_555 1_555
N2 C6 1_555 1_555
N3 C19 1_555 1_555
N5 C20 1_555 1_555
C5 C6 1_555 1_555
C7 C12 1_555 1_555
C11 C12 1_555 1_555
C13 C18 1_555 1_555
C17 C18 1_555 1_555
N8 C26 1_555 1_555
N9 C39 1_555 1_555
N11 C40 1_555 1_555
C25 C26 1_555 1_555
C27 C32 1_555 1_555
C31 C32 1_555 1_555
C33 C38 1_555 1_555
C37 C38 1_555 1_555

#END
