
#######################################################################
#
#                 Cambridge Crystallographic Data Centre
#                                CCDC 
#
#######################################################################
#
# If this CIF has been generated from an entry in the Cambridge 
# Structural Database, then it will include bibliographic, chemical, 
# crystal, experimental, refinement or atomic coordinate data resulting 
# from the CCDC's data processing and validation procedures.
#
#######################################################################

data_GIWKAB
_chemical_formula_moiety         'C28 H42 N6 O2 2+,2(C2 F3 O2 1-),1.5(C1 H4 O1)'
_chemical_name_systematic        
"2,2'-[(1,2-diphenylethane-1,2-diyl)bis(carbamoylazanediyl)]bis(cyclohexan-1-aminium) bis(trifluoroacetate) methanol solvate"
_symmetry_cell_setting           triclinic
_symmetry_space_group_name_H-M   'P 1'
_symmetry_Int_Tables_number      1
_space_group_name_Hall           'P 1'
loop_
_symmetry_equiv_pos_site_id
_symmetry_equiv_pos_as_xyz
1 x,y,z
_cell_length_a                   12.1674(2)
_cell_length_b                   12.5553(2)
_cell_length_c                   14.2809(3)
_cell_angle_alpha                89.3621(7)
_cell_angle_beta                 73.4955(8)
_cell_angle_gamma                69.1252(8)
_cell_volume                     1944.53
_exptl_crystal_colour            colorless
_exptl_crystal_description       slab
_cell_formula_units_Z            2
loop_
_atom_site_label
_atom_site_type_symbol
_atom_site_fract_x
_atom_site_fract_y
_atom_site_fract_z
N1 N 0.8397(4) 0.5264(4) 0.3868(4)
H1 H 0.909359 0.479305 0.399472
H2 H 0.824384 0.490283 0.339872
H3 H 0.774977 0.544492 0.442650
C1 C 0.8570(5) 0.6338(5) 0.3512(4)
H4 H 0.791610 0.674093 0.319850
C2 C 0.8431(5) 0.7119(5) 0.4373(4)
H5 H 0.904260 0.669395 0.471801
N2 N 0.7203(4) 0.7452(4) 0.5059(3)
H6 H 0.658083 0.792918 0.488537
C3 C 0.6965(5) 0.7062(5) 0.5962(4)
N3 N 0.5785(4) 0.7516(4) 0.6536(3)
H7 H 0.527675 0.813528 0.637468
C4 C 0.5327(5) 0.7015(5) 0.7414(4)
H8 H 0.593866 0.622326 0.738531
C5 C 0.4102(5) 0.6916(5) 0.7390(4)
H9 H 0.351252 0.770091 0.736060
N4 N 0.4348(4) 0.6217(4) 0.6488(3)
H10 H 0.499489 0.557298 0.633399
C6 C 0.3643(5) 0.6501(5) 0.5877(4)
N5 N 0.4172(4) 0.5872(4) 0.4989(3)
H11 H 0.489828 0.532015 0.488692
C7 C 0.3610(5) 0.6055(5) 0.4187(4)
H12 H 0.269338 0.640381 0.447433
C8 C 0.4042(5) 0.6865(5) 0.3507(4)
H13 H 0.496402 0.655231 0.328348
N6 N 0.3616(4) 0.8013(4) 0.4034(4)
H14 H 0.278170 0.834772 0.417782
H15 H 0.397494 0.845302 0.364801
H16 H 0.382787 0.794517 0.459935
C9 C 0.9835(5) 0.6017(5) 0.2736(4)
H17 H 1.048467 0.554234 0.301687
H18 H 0.985972 0.555705 0.216689
C10 C 1.0088(6) 0.7064(5) 0.2399(4)
H19 H 0.949522 0.749459 0.205083
H20 H 1.092937 0.683170 0.193260
C11 C 0.9978(6) 0.7838(6) 0.3267(4)
H21 H 1.061004 0.742716 0.358831
H22 H 1.012897 0.853176 0.302796
C12 C 0.8696(6) 0.8188(5) 0.4011(4)
H23 H 0.806747 0.864221 0.370157
H24 H 0.864468 0.867228 0.457538
O1 O 0.7786(3) 0.6344(3) 0.6225(3)
C13 C 0.5165(5) 0.7669(5) 0.8345(4)
C14 C 0.4628(6) 0.8854(6) 0.8478(5)
H25 H 0.434561 0.926780 0.797800
C15 C 0.4505(6) 0.9436(7) 0.9349(5)
H26 H 0.412372 1.024794 0.944138
C16 C 0.4919(6) 0.8867(7) 1.0069(5)
H27 H 0.484672 0.928170 1.065040
C17 C 0.5440(6) 0.7700(7) 0.9958(5)
H28 H 0.570708 0.730346 1.047069
C18 C 0.5582(5) 0.7085(6) 0.9099(4)
H29 H 0.595868 0.627339 0.902113
C19 C 0.3518(5) 0.6442(5) 0.8299(4)
C20 C 0.4134(5) 0.5362(5) 0.8524(4)
H30 H 0.492597 0.490524 0.810538
C21 C 0.3587(6) 0.4942(5) 0.9372(5)
H31 H 0.401915 0.420636 0.953594
C22 C 0.2433(6) 0.5588(6) 0.9964(4)
H32 H 0.205707 0.529302 1.052984
C23 C 0.1816(6) 0.6662(6) 0.9740(4)
H33 H 0.101363 0.710820 1.014953
C24 C 0.2366(5) 0.7092(5) 0.8918(4)
H34 H 0.194600 0.784366 0.877684
O2 O 0.2600(3) 0.7262(3) 0.6101(3)
C25 C 0.3948(7) 0.4900(6) 0.3634(5)
H35 H 0.357477 0.442502 0.407431
H36 H 0.485477 0.449825 0.343043
C26 C 0.3490(7) 0.5042(7) 0.2712(6)
H37 H 0.377286 0.428300 0.234221
H38 H 0.257744 0.536041 0.291977
C27 C 0.3971(7) 0.5829(7) 0.2053(5)
H39 H 0.488147 0.548019 0.180007
H40 H 0.364267 0.592701 0.148452
C28 C 0.3596(6) 0.6979(6) 0.2600(4)
H41 H 0.268674 0.735639 0.280242
H42 H 0.394755 0.746863 0.216037
N7 N -0.1138(4) 1.4202(4) 0.6744(4)
H43 H -0.172694 1.409428 0.725155
H44 H -0.088899 1.364720 0.624197
H45 H -0.145475 1.490175 0.653499
C29 C -0.0059(5) 1.4140(5) 0.7080(4)
H46 H 0.021478 1.340553 0.738130
C30 C 0.1014(5) 1.4159(5) 0.6220(4)
H47 H 0.073311 1.488134 0.590377
N8 N 0.1420(4) 1.3188(4) 0.5493(3)
H48 H 0.189143 1.251566 0.560870
C31 C 0.1112(5) 1.3263(5) 0.4646(4)
N9 N 0.1615(4) 1.2278(4) 0.4040(3)
H49 H 0.226789 1.172570 0.411228
C32 C 0.1103(5) 1.2110(5) 0.3272(4)
H50 H 0.023259 1.266925 0.344846
C33 C 0.1057(5) 1.0895(5) 0.3326(4)
H51 H 0.188348 1.035030 0.333963
N10 N 0.0159(4) 1.0915(4) 0.4260(3)
H52 H -0.050100 1.154275 0.447532
C34 C 0.0284(5) 1.0031(5) 0.4809(4)
N11 N -0.0595(4) 1.0265(4) 0.5706(3)
H53 H -0.114052 1.096766 0.587448
C35 C -0.0675(5) 0.9416(5) 0.6393(4)
H54 H -0.016132 0.863640 0.603913
C36 C -0.0191(5) 0.9587(5) 0.7228(4)
H55 H -0.069397 1.037657 0.756636
N12 N 0.1134(4) 0.9487(4) 0.6835(3)
H56 H 0.162710 0.873837 0.664743
H57 H 0.135274 0.976400 0.731081
H58 H 0.122091 0.989888 0.630867
C37 C -0.0479(5) 1.5139(5) 0.7865(4)
H59 H -0.080240 1.587184 0.758901
H60 H -0.115185 1.508341 0.842441
C38 C 0.0584(6) 1.5119(6) 0.8222(5)
H61 H 0.084711 1.442136 0.855879
H62 H 0.030539 1.579271 0.870345
C39 C 0.1670(6) 1.5134(5) 0.7386(5)
H63 H 0.236491 1.506739 0.764203
H64 H 0.143723 1.587296 0.709822
C40 C 0.2079(5) 1.4145(5) 0.6588(4)
H65 H 0.275039 1.420697 0.603101
H66 H 0.240679 1.340723 0.685622
O3 O 0.0413(4) 1.4175(3) 0.4453(3)
C41 C 0.1764(6) 1.2318(5) 0.2266(4)
C42 C 0.3033(6) 1.1941(5) 0.1934(5)
H67 H 0.350653 1.159181 0.235742
C43 C 0.3625(7) 1.2078(6) 0.0960(5)
H68 H 0.449925 1.180251 0.071892
C44 C 0.2928(9) 1.2610(6) 0.0364(5)
H69 H 0.332900 1.269317 -0.029286
C45 C 0.1683(9) 1.3019(6) 0.0694(5)
H70 H 0.121274 1.340179 0.027738
C46 C 0.1091(7) 1.2874(6) 0.1654(5)
H71 H 0.021552 1.316021 0.188762
C47 C 0.0773(5) 1.0486(5) 0.2458(4)
C48 C 0.1724(6) 0.9787(5) 0.1680(4)
H72 H 0.254986 0.955913 0.169996
C49 C 0.1497(7) 0.9414(6) 0.0877(5)
H73 H 0.215773 0.890398 0.036390
C50 C 0.0321(8) 0.9778(6) 0.0821(5)
H74 H 0.016804 0.953773 0.025753
C51 C -0.0652(7) 1.0496(7) 0.1579(5)
H75 H -0.147135 1.074989 0.153958
C52 C -0.0410(6) 1.0842(6) 0.2406(4)
H76 H -0.107150 1.132585 0.293446
O4 O 0.1114(3) 0.9078(3) 0.4550(3)
C53 C -0.2002(5) 0.9490(5) 0.6820(4)
H77 H -0.252364 1.026958 0.714914
H78 H -0.231433 0.935342 0.628194
C54 C -0.2096(6) 0.8622(6) 0.7549(5)
H79 H -0.296998 0.870672 0.782588
H80 H -0.162742 0.784022 0.720847
C55 C -0.1599(6) 0.8776(6) 0.8368(5)
H81 H -0.162256 0.816492 0.880803
H82 H -0.213032 0.952235 0.875721
C56 C -0.0279(5) 0.8735(5) 0.7980(4)
H83 H -0.001170 0.891645 0.853127
H84 H 0.027644 0.795321 0.767461
O5 O 0.7155(4) 1.3841(4) 0.8326(4)
O6 O 0.8832(4) 1.2360(4) 0.8268(4)
C57 C 0.7749(5) 1.2948(5) 0.8608(4)
C58 C 0.6983(7) 1.2495(7) 0.9455(5)
F1 F 0.6169(4) 1.3319(4) 1.0152(3)
F2 F 0.7666(5) 1.1703(5) 0.9884(4)
F3 F 0.6316(5) 1.2016(4) 0.9129(4)
O7 O 0.2561(4) 1.0653(4) 0.5521(3)
O8 O 0.4060(4) 0.9015(4) 0.5622(3)
C59 C 0.3624(6) 1.0064(6) 0.5539(5)
C60 C 0.4494(6) 1.0702(7) 0.5466(7)
F4 F 0.5665(4) 1.0061(4) 0.5016(5)
F5 F 0.4222(4) 1.1641(4) 0.5059(5)
F6 F 0.4453(6) 1.1013(6) 0.6380(5)
O9 O 0.4438(5) 0.9683(6) 0.3066(5)
O10 O 0.6137(6) 0.8069(7) 0.2726(6)
C61 C 0.5541(9) 0.9094(11) 0.2687(8)
C62 C 0.6344(8) 0.9789(9) 0.2160(7)
F7 F 0.5915(7) 1.0492(9) 0.1617(7)
F8 F 0.7467(8) 0.8985(9) 0.1464(9)
F9 F 0.6708(11) 1.0272(10) 0.2823(7)
O11 O 0.6688(4) 1.4566(3) 0.5314(3)
O12 O 0.8257(4) 1.2966(4) 0.5375(3)
C63 C 0.7188(5) 1.3514(5) 0.5381(4)
C64 C 0.6357(5) 1.2844(5) 0.5498(5)
F13 F 0.6731(7) 1.1807(6) 0.5627(10)
F14 F 0.5260(8) 1.3388(8) 0.6093(9)
F15 F 0.6090(12) 1.2829(10) 0.4590(8)
O13 O 0.7620(7) 0.4543(6) 0.2426(5)
H85 H 0.789688 0.492410 0.199956
C65 C 0.7512(10) 0.3614(10) 0.1958(11)
H86 H 0.772210 0.294424 0.232532
H87 H 0.807609 0.343165 0.128763
H88 H 0.666307 0.382274 0.193813
O14 O 1.0926(4) 1.0748(4) 0.8484(4)
H89 H 1.017852 1.115873 0.858578
C66 C 1.1496(9) 1.1343(8) 0.8859(8)
H90 H 1.153297 1.198829 0.847516
H91 H 1.233432 1.083040 0.882357
H92 H 1.102516 1.163277 0.954521
O15 O 0.7334(7) 0.6313(8) 0.1442(5)
H93 H 0.699137 0.695202 0.177881
C67 C 0.8321(10) 0.6354(15) 0.0596(8)
H94 H 0.888598 0.660949 0.081890
H95 H 0.796789 0.689098 0.016157
H96 H 0.877299 0.558876 0.023897
F10? F 0.7331(15) 0.942(2) 0.2355(16)
F11? F 0.578(2) 1.0982(16) 0.2583(19)
F12? F 0.646(2) 0.973(2) 0.1182(14)
F16? F 0.5233(11) 1.3313(11) 0.5609(17)
F17? F 0.6832(13) 1.1915(14) 0.4902(14)
F18? F 0.6402(19) 1.2377(17) 0.6411(13)
loop_
_geom_bond_atom_site_label_1
_geom_bond_atom_site_label_2
_geom_bond_site_symmetry_1
_geom_bond_site_symmetry_2
N1 H1 1_555 1_555
H2 N1 1_555 1_555
H3 N1 1_555 1_555
C1 N1 1_555 1_555
H4 C1 1_555 1_555
C2 C1 1_555 1_555
H5 C2 1_555 1_555
N2 C2 1_555 1_555
H6 N2 1_555 1_555
C3 N2 1_555 1_555
N3 C3 1_555 1_555
H7 N3 1_555 1_555
C4 N3 1_555 1_555
H8 C4 1_555 1_555
C5 C4 1_555 1_555
H9 C5 1_555 1_555
N4 C5 1_555 1_555
H10 N4 1_555 1_555
C6 N4 1_555 1_555
N5 C6 1_555 1_555
H11 N5 1_555 1_555
C7 N5 1_555 1_555
H12 C7 1_555 1_555
C8 C7 1_555 1_555
H13 C8 1_555 1_555
N6 C8 1_555 1_555
H14 N6 1_555 1_555
H15 N6 1_555 1_555
H16 N6 1_555 1_555
C9 C1 1_555 1_555
H17 C9 1_555 1_555
H18 C9 1_555 1_555
C10 C9 1_555 1_555
H19 C10 1_555 1_555
H20 C10 1_555 1_555
C11 C10 1_555 1_555
H21 C11 1_555 1_555
H22 C11 1_555 1_555
C12 C2 1_555 1_555
H23 C12 1_555 1_555
H24 C12 1_555 1_555
O1 C3 1_555 1_555
C13 C4 1_555 1_555
C14 C13 1_555 1_555
H25 C14 1_555 1_555
C15 C14 1_555 1_555
H26 C15 1_555 1_555
C16 C15 1_555 1_555
H27 C16 1_555 1_555
C17 C16 1_555 1_555
H28 C17 1_555 1_555
C18 C13 1_555 1_555
H29 C18 1_555 1_555
C19 C5 1_555 1_555
C20 C19 1_555 1_555
H30 C20 1_555 1_555
C21 C20 1_555 1_555
H31 C21 1_555 1_555
C22 C21 1_555 1_555
H32 C22 1_555 1_555
C23 C22 1_555 1_555
H33 C23 1_555 1_555
C24 C19 1_555 1_555
H34 C24 1_555 1_555
O2 C6 1_555 1_555
C25 C7 1_555 1_555
H35 C25 1_555 1_555
H36 C25 1_555 1_555
C26 C25 1_555 1_555
H37 C26 1_555 1_555
H38 C26 1_555 1_555
C27 C26 1_555 1_555
H39 C27 1_555 1_555
H40 C27 1_555 1_555
C28 C8 1_555 1_555
H41 C28 1_555 1_555
H42 C28 1_555 1_555
N7 H43 1_555 1_555
H44 N7 1_555 1_555
H45 N7 1_555 1_555
C29 N7 1_555 1_555
H46 C29 1_555 1_555
C30 C29 1_555 1_555
H47 C30 1_555 1_555
N8 C30 1_555 1_555
H48 N8 1_555 1_555
C31 N8 1_555 1_555
N9 C31 1_555 1_555
H49 N9 1_555 1_555
C32 N9 1_555 1_555
H50 C32 1_555 1_555
C33 C32 1_555 1_555
H51 C33 1_555 1_555
N10 C33 1_555 1_555
H52 N10 1_555 1_555
C34 N10 1_555 1_555
N11 C34 1_555 1_555
H53 N11 1_555 1_555
C35 N11 1_555 1_555
H54 C35 1_555 1_555
C36 C35 1_555 1_555
H55 C36 1_555 1_555
N12 C36 1_555 1_555
H56 N12 1_555 1_555
H57 N12 1_555 1_555
H58 N12 1_555 1_555
C37 C29 1_555 1_555
H59 C37 1_555 1_555
H60 C37 1_555 1_555
C38 C37 1_555 1_555
H61 C38 1_555 1_555
H62 C38 1_555 1_555
C39 C38 1_555 1_555
H63 C39 1_555 1_555
H64 C39 1_555 1_555
C40 C30 1_555 1_555
H65 C40 1_555 1_555
H66 C40 1_555 1_555
O3 C31 1_555 1_555
C41 C32 1_555 1_555
C42 C41 1_555 1_555
H67 C42 1_555 1_555
C43 C42 1_555 1_555
H68 C43 1_555 1_555
C44 C43 1_555 1_555
H69 C44 1_555 1_555
C45 C44 1_555 1_555
H70 C45 1_555 1_555
C46 C41 1_555 1_555
H71 C46 1_555 1_555
C47 C33 1_555 1_555
C48 C47 1_555 1_555
H72 C48 1_555 1_555
C49 C48 1_555 1_555
H73 C49 1_555 1_555
C50 C49 1_555 1_555
H74 C50 1_555 1_555
C51 C50 1_555 1_555
H75 C51 1_555 1_555
C52 C47 1_555 1_555
H76 C52 1_555 1_555
O4 C34 1_555 1_555
C53 C35 1_555 1_555
H77 C53 1_555 1_555
H78 C53 1_555 1_555
C54 C53 1_555 1_555
H79 C54 1_555 1_555
H80 C54 1_555 1_555
C55 C54 1_555 1_555
H81 C55 1_555 1_555
H82 C55 1_555 1_555
C56 C36 1_555 1_555
H83 C56 1_555 1_555
H84 C56 1_555 1_555
O5 C57 1_555 1_555
O6 C57 1_555 1_555
C57 C58 1_555 1_555
C58 F1 1_555 1_555
F2 C58 1_555 1_555
F3 C58 1_555 1_555
O7 C59 1_555 1_555
O8 C59 1_555 1_555
C59 C60 1_555 1_555
C60 F4 1_555 1_555
F5 C60 1_555 1_555
F6 C60 1_555 1_555
O9 C61 1_555 1_555
O10 C61 1_555 1_555
C61 C62 1_555 1_555
C62 F7 1_555 1_555
F8 C62 1_555 1_555
F9 C62 1_555 1_555
O11 C63 1_555 1_555
O12 C63 1_555 1_555
C63 C64 1_555 1_555
C64 F13 1_555 1_555
F14 C64 1_555 1_555
F15 C64 1_555 1_555
O13 H85 1_555 1_555
C65 O13 1_555 1_555
H86 C65 1_555 1_555
H87 C65 1_555 1_555
H88 C65 1_555 1_555
O14 H89 1_555 1_555
C66 O14 1_555 1_555
H90 C66 1_555 1_555
H91 C66 1_555 1_555
H92 C66 1_555 1_555
O15 H93 1_555 1_555
C67 O15 1_555 1_555
H94 C67 1_555 1_555
H95 C67 1_555 1_555
H96 C67 1_555 1_555
C11 C12 1_555 1_555
C17 C18 1_555 1_555
C23 C24 1_555 1_555
C27 C28 1_555 1_555
C39 C40 1_555 1_555
C45 C46 1_555 1_555
C51 C52 1_555 1_555
C55 C56 1_555 1_555

#END
