
#######################################################################
#
#                 Cambridge Crystallographic Data Centre
#                                CCDC 
#
#######################################################################
#
# If this CIF has been generated from an entry in the Cambridge 
# Structural Database, then it will include bibliographic, chemical, 
# crystal, experimental, refinement or atomic coordinate data resulting 
# from the CCDC's data processing and validation procedures.
#
#######################################################################

data_GIWVEQ
_chemical_formula_moiety         'C4 N7 O6 1-,C2 H7 N6 1+,H2 O1'
_chemical_name_systematic        
'3,4,5-triamino-4H-1,2,4-triazol-1-ium 7,8-dinitro-2,4-dioxo-4H-pyrazolo[5,1-d][1,2,3,5]tetrazin-6-ide monohydrate'
_symmetry_cell_setting           monoclinic
_symmetry_space_group_name_H-M   'P 21/c'
_symmetry_Int_Tables_number      14
_space_group_name_Hall           '-P 2ybc'
loop_
_symmetry_equiv_pos_site_id
_symmetry_equiv_pos_as_xyz
1 x,y,z
2 -x,1/2+y,1/2-z
3 -x,-y,-z
4 x,1/2-y,1/2+z
_cell_length_a                   11.090(5)
_cell_length_b                   5.414(3)
_cell_length_c                   23.244(11)
_cell_angle_alpha                90
_cell_angle_beta                 91.370(8)
_cell_angle_gamma                90
_cell_volume                     1395.2
_exptl_crystal_colour            yellow
_exptl_crystal_description       Prism
_cell_formula_units_Z            4
loop_
_atom_site_label
_atom_site_type_symbol
_atom_site_fract_x
_atom_site_fract_y
_atom_site_fract_z
O1 O 0.05919(13) 0.6903(3) 0.14859(5)
O2 O 0.10729(12) 0.7433(3) 0.34059(5)
O3 O 0.44457(16) 0.1131(3) 0.39510(7)
O4 O 0.41295(15) -0.2136(3) 0.34148(7)
O5 O 0.44451(16) -0.1551(3) 0.22684(7)
O6 O 0.31253(14) -0.0293(3) 0.16306(6)
N1 N 0.17232(13) 0.4016(3) 0.18919(5)
N2 N 0.10301(12) 0.6034(3) 0.19478(6)
N3 N 0.07614(12) 0.7260(3) 0.24303(6)
N4 N 0.19880(12) 0.4323(3) 0.29094(5)
N5 N 0.26072(12) 0.3329(3) 0.33729(5)
N6 N 0.40127(13) 0.0080(3) 0.35262(7)
N7 N 0.35811(13) -0.0311(3) 0.21193(6)
C1 C 0.12351(14) 0.6425(3) 0.29463(7)
C2 C 0.32398(14) 0.1545(3) 0.31371(7)
C3 C 0.30395(14) 0.1306(3) 0.25331(7)
C4 C 0.22098(13) 0.3213(3) 0.23947(6)
N8 N 0.11078(12) 1.0401(3) 0.43852(5)
N9 N 0.06742(12) 1.2393(3) 0.47089(5)
N10 N 0.20440(12) 1.0171(3) 0.52039(5)
N11 N 0.12095(14) 1.3756(3) 0.56582(6)
N12 N 0.28663(15) 0.9328(3) 0.56295(6)
N13 N 0.25146(14) 0.7054(3) 0.45180(6)
C5 C 0.12696(14) 1.2200(3) 0.52047(6)
C6 C 0.19114(14) 0.9051(3) 0.46798(6)
H1 H 0.084(2) 1.009(5) 0.4047(11)
H2 H 0.0667(18) 1.486(4) 0.5629(11)
H3 H 0.146(2) 1.324(4) 0.5985(6)
H4 H 0.337(2) 1.062(5) 0.5706(11)
H5 H 0.246(2) 0.896(4) 0.5929(10)
H6 H 0.224(2) 0.640(4) 0.4206(7)
H7 H 0.295(2) 0.626(5) 0.4768(10)
O7 O 0.58460(18) 0.5797(3) 0.45769(10)
H8 H 0.591(3) 0.464(4) 0.4345(11)
H9 H 0.5234(19) 0.570(6) 0.4774(11)
loop_
_geom_bond_atom_site_label_1
_geom_bond_atom_site_label_2
_geom_bond_site_symmetry_1
_geom_bond_site_symmetry_2
O1 N2 1_555 1_555
O2 C1 1_555 1_555
O3 N6 1_555 1_555
O4 N6 1_555 1_555
O5 N7 1_555 1_555
O6 N7 1_555 1_555
N1 N2 1_555 1_555
N2 N3 1_555 1_555
N3 C1 1_555 1_555
N4 N5 1_555 1_555
N5 C2 1_555 1_555
N6 C2 1_555 1_555
N7 C3 1_555 1_555
C1 N4 1_555 1_555
C2 C3 1_555 1_555
C3 C4 1_555 1_555
C4 N1 1_555 1_555
N8 N9 1_555 1_555
N9 C5 1_555 1_555
N10 N12 1_555 1_555
N11 C5 1_555 1_555
N12 H4 1_555 1_555
N13 C6 1_555 1_555
C5 N10 1_555 1_555
C6 N8 1_555 1_555
H1 N8 1_555 1_555
H2 N11 1_555 1_555
H3 N11 1_555 1_555
H5 N12 1_555 1_555
H6 N13 1_555 1_555
H7 N13 1_555 1_555
O7 H8 1_555 1_555
H9 O7 1_555 1_555
N4 C4 1_555 1_555
N10 C6 1_555 1_555

#END
