
#######################################################################
#
#                 Cambridge Crystallographic Data Centre
#                                CCDC 
#
#######################################################################
#
# If this CIF has been generated from an entry in the Cambridge 
# Structural Database, then it will include bibliographic, chemical, 
# crystal, experimental, refinement or atomic coordinate data resulting 
# from the CCDC's data processing and validation procedures.
#
#######################################################################

data_GIWWIT
_chemical_formula_moiety         
'C12 H13 N2 1+,C48 H54 N24 O12,Cl1 1-,17(H2 O1)'
_chemical_name_systematic        
"m-Tricyclohexyl cucurbit[6]uril 5,5'-dimethyl-2,2'-bipyridin-2-ium clathrate chloride heptadecahydrate"
_symmetry_cell_setting           monoclinic
_symmetry_space_group_name_H-M   'P 21/c'
_symmetry_Int_Tables_number      14
_space_group_name_Hall           '-P 2ybc'
loop_
_symmetry_equiv_pos_site_id
_symmetry_equiv_pos_as_xyz
1 x,y,z
2 -x,1/2+y,1/2-z
3 -x,-y,-z
4 x,1/2-y,1/2+z
_cell_length_a                   14.819(3)
_cell_length_b                   20.690(4)
_cell_length_c                   24.183(4)
_cell_angle_alpha                90
_cell_angle_beta                 91.048(3)
_cell_angle_gamma                90
_cell_volume                     7413.39
_exptl_crystal_colour            colorless
_cell_formula_units_Z            4
loop_
_atom_site_label
_atom_site_type_symbol
_atom_site_fract_x
_atom_site_fract_y
_atom_site_fract_z
O1 O -0.0261(3) 0.4400(2) 0.0761(2)
O2 O 0.5531(3) 0.4751(2) 0.3312(2)
O3 O 0.0587(4) 0.1076(3) 0.0741(2)
O4 O 0.1877(4) 0.5418(3) -0.0130(2)
O5 O 0.2756(5) 0.6454(3) 0.0367(2)
O6 O 0.5705(6) 0.2950(3) 0.3841(3)
O7 O 0.6290(4) 0.3635(4) 0.2919(3)
O8 O 0.3657(5) 0.5026(4) 0.5252(3)
O9 O 0.4914(4) 0.4026(5) 0.4303(2)
O10 O 0.2216(6) 0.7686(4) 0.0602(4)
O11 O 0.6255(11) 0.4981(6) 0.0573(5)
O12 O -0.2191(5) 0.4761(5) 0.2802(6)
O13 O 0.1320(8) -0.0101(4) 0.0402(4)
O14 O 0.7010(5) 0.4401(5) 0.1900(5)
O15 O 0.2920(11) 0.5101(7) -0.1040(8)
O16 O 0.4522(10) 0.6300(8) 0.0640(6)
O17 O 0.2600(18) 0.8405(11) 0.1231(10)
O18 O 0.2493(13) 0.9284(15) 0.0897(15)
Cl1 Cl -0.1262(3) 0.14100(19) 0.02351(16)
C1 C 0.2279(4) 0.4102(3) 0.0861(2)
C2 C 0.3388(3) 0.4871(3) 0.1060(2)
H1 H 0.3437 0.5248 0.0816
C3 C 0.3833(3) 0.4282(2) 0.0810(2)
H2 H 0.4138 0.4389 0.0466
C4 C 0.4546(3) 0.4534(3) 0.1644(2)
C5 C 0.3185(4) 0.3255(3) 0.0394(2)
H3 H 0.3599 0.3338 0.0097
H4 H 0.2604 0.3143 0.0229
C6 C 0.5180(3) 0.3618(2) 0.1123(2)
H5 H 0.5362 0.3675 0.0743
H6 H 0.5700 0.3714 0.1358
C7 C 0.2958(4) 0.2202(3) 0.0843(2)
C8 C 0.4474(3) 0.2533(2) 0.0799(2)
C9 C 0.4413(3) 0.1869(2) 0.1110(2)
C10 C 0.5095(3) 0.2646(3) 0.1692(2)
C11 C 0.4969(3) 0.2485(3) 0.0266(2)
H7 H 0.5021 0.2913 0.0105
H8 H 0.4623 0.2219 0.0009
C12 C 0.5906(4) 0.2197(3) 0.0344(2)
H9 H 0.6135 0.2073 -0.0014
H10 H 0.6307 0.2524 0.0498
C13 C 0.5922(4) 0.1614(3) 0.0720(3)
H11 H 0.6220 0.1729 0.1067
H12 H 0.6271 0.1274 0.0550
C14 C 0.4979(4) 0.1359(3) 0.0839(2)
H13 H 0.4688 0.1224 0.0496
H14 H 0.5027 0.0985 0.1080
C15 C 0.3020(4) 0.1162(3) 0.1321(2)
H15 H 0.2464 0.1076 0.1116
H16 H 0.3410 0.0790 0.1279
C16 C 0.4915(3) 0.1578(3) 0.2108(2)
H17 H 0.5423 0.1735 0.2329
H18 H 0.5086 0.1165 0.1952
C17 C 0.1955(4) 0.1374(3) 0.2084(2)
C18 C 0.3420(4) 0.1033(3) 0.2341(2)
H19 H 0.3645 0.0594 0.2280
C19 C 0.2832(4) 0.1069(3) 0.2857(2)
H20 H 0.2737 0.0641 0.3019
C20 C 0.4137(4) 0.1703(3) 0.2999(2)
C21 C 0.1167(4) 0.1345(3) 0.2964(2)
H21 H 0.1122 0.0934 0.3154
H22 H 0.0656 0.1377 0.2709
C22 C 0.3176(4) 0.1545(3) 0.3810(2)
H23 H 0.3727 0.1685 0.3996
H24 H 0.3026 0.1121 0.3952
C23 C 0.0483(4) 0.2348(3) 0.3299(2)
C24 C 0.1494(3) 0.1843(3) 0.3931(2)
C25 C 0.1071(3) 0.2452(2) 0.4213(2)
C26 C 0.2644(4) 0.2574(3) 0.4181(2)
C27 C 0.1264(4) 0.1216(3) 0.4235(2)
H25 H 0.1474 0.0848 0.4024
H26 H 0.1567 0.1210 0.4594
C28 C 0.0247(4) 0.1166(3) 0.4310(3)
H27 H -0.0044 0.1122 0.3949
H28 H 0.0117 0.0780 0.4521
C29 C -0.0147(4) 0.1747(3) 0.4602(3)
H29 H -0.0405 0.1606 0.4947
H30 H -0.0631 0.1926 0.4374
C30 C 0.0552(4) 0.2281(3) 0.4725(2)
H31 H 0.0247 0.2662 0.4860
H32 H 0.0970 0.2134 0.5012
C31 C -0.0153(3) 0.3227(2) 0.3839(2)
H33 H -0.0381 0.3209 0.4212
H34 H -0.0661 0.3163 0.3586
C32 C 0.1845(4) 0.3461(2) 0.4621(2)
H35 H 0.2431 0.3526 0.4798
H36 H 0.1402 0.3431 0.4910
C33 C -0.0043(3) 0.4248(3) 0.3318(2)
C34 C 0.0717(4) 0.4245(3) 0.4163(2)
H37 H 0.0370 0.4291 0.4502
C35 C 0.0859(3) 0.4905(2) 0.3874(2)
H38 H 0.0619 0.5261 0.4095
C36 C 0.2257(4) 0.4456(3) 0.4119(2)
C37 C 0.0187(3) 0.5357(2) 0.2984(2)
H39 H 0.0098 0.5749 0.3196
H40 H -0.0374 0.5264 0.2787
C38 C 0.2302(4) 0.5511(2) 0.3643(2)
H41 H 0.1992 0.5893 0.3774
H42 H 0.2908 0.5517 0.3800
C39 C 0.0869(4) 0.5170(3) 0.2073(2)
C40 C 0.1696(3) 0.5852(2) 0.2675(2)
C41 C 0.2167(3) 0.5814(2) 0.2096(2)
C42 C 0.3164(4) 0.5442(2) 0.2796(2)
C43 C 0.1514(4) 0.6544(2) 0.2842(2)
H43 H 0.1361 0.6560 0.3230
H44 H 0.1007 0.6712 0.2628
C44 C 0.2345(4) 0.6957(3) 0.2743(2)
H45 H 0.2856 0.6774 0.2945
H46 H 0.2242 0.7389 0.2886
C45 C 0.2569(4) 0.7002(3) 0.2130(2)
H47 H 0.2353 0.7412 0.1985
H48 H 0.3219 0.6991 0.2091
C46 C 0.2152(4) 0.6458(2) 0.1794(2)
H49 H 0.2476 0.6414 0.1451
H50 H 0.1531 0.6569 0.1700
C47 C 0.1746(3) 0.5155(3) 0.1227(2)
H51 H 0.1881 0.5549 0.1028
H52 H 0.1176 0.4990 0.1084
C48 C 0.3841(3) 0.5565(3) 0.1883(2)
H53 H 0.3816 0.5924 0.1624
H54 H 0.4395 0.5607 0.2099
N1 N 0.2453(3) 0.4682(2) 0.11236(17)
N2 N 0.3085(3) 0.3840(2) 0.07142(17)
N3 N 0.3876(3) 0.4973(2) 0.15732(17)
N4 N 0.4473(3) 0.4080(2) 0.12400(17)
N5 N 0.3513(3) 0.2711(2) 0.07138(17)
N6 N 0.3455(3) 0.1724(2) 0.10798(17)
N7 N 0.4934(3) 0.2949(2) 0.12022(17)
N8 N 0.4741(3) 0.2028(2) 0.16621(17)
N9 N 0.2815(3) 0.1237(2) 0.18989(17)
N10 N 0.1987(3) 0.1349(2) 0.26497(18)
N11 N 0.4153(3) 0.1481(2) 0.24660(18)
N12 N 0.3343(3) 0.1490(2) 0.32328(18)
N13 N 0.1110(3) 0.1861(2) 0.33678(17)
N14 N 0.0476(3) 0.2708(2) 0.37678(17)
N15 N 0.2458(3) 0.1990(2) 0.39493(17)
N16 N 0.1858(3) 0.2863(2) 0.43251(17)
N17 N 0.0223(3) 0.3868(2) 0.37446(17)
N18 N 0.0375(3) 0.4838(2) 0.33601(16)
N19 N 0.1637(3) 0.4016(2) 0.42820(17)
N20 N 0.1835(3) 0.4942(2) 0.38396(17)
N21 N 0.0884(3) 0.5475(2) 0.25820(18)
N22 N 0.1653(3) 0.53076(19) 0.18056(17)
N23 N 0.2356(3) 0.55433(19) 0.30466(17)
N24 N 0.3084(3) 0.5616(2) 0.22502(17)
O19 O 0.1536(2) 0.38560(17) 0.07701(15)
O20 O 0.2143(2) 0.21814(18) 0.07397(14)
O21 O 0.1299(3) 0.1490(2) 0.17965(16)
O22 O 0.0008(3) 0.24283(18) 0.28938(15)
O23 O -0.0589(2) 0.40949(17) 0.29491(14)
O24 O 0.0230(2) 0.48482(18) 0.18878(15)
O25 O 0.5114(2) 0.45371(18) 0.20202(16)
O26 O 0.5499(2) 0.28735(18) 0.20955(15)
O27 O 0.4723(3) 0.20142(19) 0.32301(16)
O28 O 0.3400(2) 0.27951(18) 0.42670(15)
O29 O 0.3078(2) 0.44188(18) 0.42092(15)
O30 O 0.3863(2) 0.52674(17) 0.30271(15)
C49 C -0.2191(4) 0.3023(3) 0.1060(3)
H55 H -0.2591 0.3288 0.1269
H56 H -0.2396 0.2583 0.1067
H57 H -0.2183 0.3173 0.0684
C50 C -0.1252(4) 0.3062(3) 0.1309(2)
C51 C -0.0536(4) 0.2743(3) 0.1094(2)
H58 H -0.0628 0.2487 0.0782
C52 C -0.1081(4) 0.3428(3) 0.1779(3)
H59 H -0.1548 0.3654 0.1944
C53 C 0.0324(4) 0.2787(3) 0.1323(2)
H60 H 0.0803 0.2566 0.1167
C54 C 0.0456(3) 0.3160(2) 0.1783(2)
C55 C 0.1334(3) 0.3255(2) 0.2076(2)
C56 C 0.2096(4) 0.2954(3) 0.1921(2)
H61 H 0.2091 0.2680 0.1616
C57 C 0.2882(4) 0.3057(3) 0.2219(3)
H62 H 0.3403 0.2837 0.2122
C58 C 0.2108(4) 0.3759(3) 0.2773(3)
H63 H 0.2109 0.4047 0.3068
C59 C 0.2912(3) 0.3470(2) 0.2651(2)
C60 C 0.3772(3) 0.3591(3) 0.2988(2)
H64 H 0.4258 0.3347 0.2834
H65 H 0.3684 0.3459 0.3364
H66 H 0.3917 0.4043 0.2978
N25 N -0.0248(3) 0.3456(2) 0.19936(19)
H67 H -0.0163 0.3682 0.2289
N26 N 0.1328(3) 0.3665(3) 0.2505(2)
O31? O 0.4831(6) 0.5843(4) 0.0392(3)
O32? O 0.5487(10) 0.5265(7) 0.0541(4)
loop_
_geom_bond_atom_site_label_1
_geom_bond_atom_site_label_2
_geom_bond_site_symmetry_1
_geom_bond_site_symmetry_2
C1 N1 1_555 1_555
C2 H1 1_555 1_555
C3 C2 1_555 1_555
H2 C3 1_555 1_555
C4 N3 1_555 1_555
C5 H3 1_555 1_555
H4 C5 1_555 1_555
C6 H5 1_555 1_555
H6 C6 1_555 1_555
C7 N5 1_555 1_555
C8 C9 1_555 1_555
C9 C14 1_555 1_555
C10 N7 1_555 1_555
C11 C8 1_555 1_555
H7 C11 1_555 1_555
H8 C11 1_555 1_555
C12 C11 1_555 1_555
H9 C12 1_555 1_555
H10 C12 1_555 1_555
C13 C12 1_555 1_555
H11 C13 1_555 1_555
H12 C13 1_555 1_555
C14 C13 1_555 1_555
H13 C14 1_555 1_555
H14 C14 1_555 1_555
C15 H15 1_555 1_555
H16 C15 1_555 1_555
C16 H17 1_555 1_555
H18 C16 1_555 1_555
C17 N9 1_555 1_555
C18 H19 1_555 1_555
C19 C18 1_555 1_555
H20 C19 1_555 1_555
C20 N11 1_555 1_555
C21 H21 1_555 1_555
H22 C21 1_555 1_555
C22 H23 1_555 1_555
H24 C22 1_555 1_555
C23 N13 1_555 1_555
C24 C25 1_555 1_555
C25 C30 1_555 1_555
C26 N15 1_555 1_555
C27 C24 1_555 1_555
H25 C27 1_555 1_555
H26 C27 1_555 1_555
C28 C27 1_555 1_555
H27 C28 1_555 1_555
H28 C28 1_555 1_555
C29 C28 1_555 1_555
H29 C29 1_555 1_555
H30 C29 1_555 1_555
C30 C29 1_555 1_555
H31 C30 1_555 1_555
H32 C30 1_555 1_555
C31 H33 1_555 1_555
H34 C31 1_555 1_555
C32 H35 1_555 1_555
H36 C32 1_555 1_555
C33 N17 1_555 1_555
C34 H37 1_555 1_555
C35 C34 1_555 1_555
H38 C35 1_555 1_555
C36 N19 1_555 1_555
C37 H39 1_555 1_555
H40 C37 1_555 1_555
C38 H41 1_555 1_555
H42 C38 1_555 1_555
C39 N21 1_555 1_555
C40 C41 1_555 1_555
C41 C46 1_555 1_555
C42 N23 1_555 1_555
C43 C40 1_555 1_555
H43 C43 1_555 1_555
H44 C43 1_555 1_555
C44 C43 1_555 1_555
H45 C44 1_555 1_555
H46 C44 1_555 1_555
C45 C44 1_555 1_555
H47 C45 1_555 1_555
H48 C45 1_555 1_555
C46 C45 1_555 1_555
H49 C46 1_555 1_555
H50 C46 1_555 1_555
C47 H51 1_555 1_555
H52 C47 1_555 1_555
C48 H53 1_555 1_555
H54 C48 1_555 1_555
N1 C2 1_555 1_555
N2 C1 1_555 1_555
N3 C2 1_555 1_555
N4 C3 1_555 1_555
N5 C5 1_555 1_555
N6 C7 1_555 1_555
N7 C6 1_555 1_555
N8 C9 1_555 1_555
N9 C15 1_555 1_555
N10 C17 1_555 1_555
N11 C16 1_555 1_555
N12 C19 1_555 1_555
N13 C21 1_555 1_555
N14 C23 1_555 1_555
N15 C22 1_555 1_555
N16 C25 1_555 1_555
N17 C31 1_555 1_555
N18 C33 1_555 1_555
N19 C32 1_555 1_555
N20 C35 1_555 1_555
N21 C37 1_555 1_555
N22 C39 1_555 1_555
N23 C38 1_555 1_555
N24 C41 1_555 1_555
O19 C1 1_555 1_555
O20 C7 1_555 1_555
O21 C17 1_555 1_555
O22 C23 1_555 1_555
O23 C33 1_555 1_555
O24 C39 1_555 1_555
O25 C4 1_555 1_555
O26 C10 1_555 1_555
O27 C20 1_555 1_555
O28 C26 1_555 1_555
O29 C36 1_555 1_555
O30 C42 1_555 1_555
C49 H55 1_555 1_555
H56 C49 1_555 1_555
H57 C49 1_555 1_555
C50 C49 1_555 1_555
C51 C50 1_555 1_555
H58 C51 1_555 1_555
C52 C50 1_555 1_555
H59 C52 1_555 1_555
C53 C51 1_555 1_555
H60 C53 1_555 1_555
C54 C53 1_555 1_555
C55 C54 1_555 1_555
C56 C55 1_555 1_555
H61 C56 1_555 1_555
C57 C56 1_555 1_555
H62 C57 1_555 1_555
C58 H63 1_555 1_555
C59 C57 1_555 1_555
C60 C59 1_555 1_555
H64 C60 1_555 1_555
H65 C60 1_555 1_555
H66 C60 1_555 1_555
N25 C52 1_555 1_555
H67 N25 1_555 1_555
N26 C55 1_555 1_555
C3 N2 1_555 1_555
C4 N4 1_555 1_555
C5 N2 1_555 1_555
C6 N4 1_555 1_555
C8 N5 1_555 1_555
C8 N7 1_555 1_555
C9 N6 1_555 1_555
C10 N8 1_555 1_555
C15 N6 1_555 1_555
C16 N8 1_555 1_555
C18 N9 1_555 1_555
C18 N11 1_555 1_555
C19 N10 1_555 1_555
C20 N12 1_555 1_555
C21 N10 1_555 1_555
C22 N12 1_555 1_555
C24 N13 1_555 1_555
C24 N15 1_555 1_555
C25 N14 1_555 1_555
C26 N16 1_555 1_555
C31 N14 1_555 1_555
C32 N16 1_555 1_555
C34 N17 1_555 1_555
C34 N19 1_555 1_555
C35 N18 1_555 1_555
C36 N20 1_555 1_555
C37 N18 1_555 1_555
C38 N20 1_555 1_555
C40 N21 1_555 1_555
C40 N23 1_555 1_555
C41 N22 1_555 1_555
C42 N24 1_555 1_555
C47 N1 1_555 1_555
C47 N22 1_555 1_555
C48 N3 1_555 1_555
C48 N24 1_555 1_555
C54 N25 1_555 1_555
C58 C59 1_555 1_555
C58 N26 1_555 1_555

#END
