
#######################################################################
#
#                 Cambridge Crystallographic Data Centre
#                                CCDC 
#
#######################################################################
#
# If this CIF has been generated from an entry in the Cambridge 
# Structural Database, then it will include bibliographic, chemical, 
# crystal, experimental, refinement or atomic coordinate data resulting 
# from the CCDC's data processing and validation procedures.
#
#######################################################################

data_GIWWEP
_chemical_formula_moiety         
'C9 H10 N3 1+,C48 H54 N24 O12,C3 H6 O1,Cl1 1-,12(H2 O1)'
_chemical_name_systematic        
'm-Tricyclohexyl cucurbit[6]uril acetone 5-phenyl-1H-pyrazol-3-aminium clathrate chloride dodecahydrate'
_symmetry_cell_setting           monoclinic
_symmetry_space_group_name_H-M   'P 21'
_symmetry_Int_Tables_number      4
_space_group_name_Hall           'P 2yb'
loop_
_symmetry_equiv_pos_site_id
_symmetry_equiv_pos_as_xyz
1 x,y,z
2 -x,1/2+y,-z
_cell_length_a                   12.8089(6)
_cell_length_b                   18.2443(9)
_cell_length_c                   15.2504(7)
_cell_angle_alpha                90.00
_cell_angle_beta                 92.833(2)
_cell_angle_gamma                90.00
_cell_volume                     3559.5
_exptl_crystal_colour            'light yellow'
_cell_formula_units_Z            2
loop_
_atom_site_label
_atom_site_type_symbol
_atom_site_fract_x
_atom_site_fract_y
_atom_site_fract_z
C1 C 0.0608(4) 0.0055(3) 0.0581(3)
C2 C 0.2076(4) -0.0404(3) 0.1363(3)
C3 C 0.1067(3) -0.0766(3) 0.1711(2)
C4 C 0.1919(3) -0.0129(3) 0.2862(3)
C5 C 0.2861(4) -0.0971(3) 0.1123(3)
H1 H 0.3526 -0.0737 0.1028
H2 H 0.2625 -0.1213 0.0583
C6 C 0.2996(4) -0.1537(3) 0.1865(4)
H3 H 0.3565 -0.1866 0.1741
H4 H 0.3178 -0.1287 0.2413
C7 C 0.1996(5) -0.1984(3) 0.1965(4)
H5 H 0.1889 -0.2062 0.2584
H6 H 0.2069 -0.2459 0.1691
C8 C 0.1038(4) -0.1583(3) 0.1537(3)
H7 H 0.1015 -0.1667 0.0908
H8 H 0.0406 -0.1786 0.1764
C9 C -0.0872(3) -0.0570(3) 0.1212(3)
H9 H -0.1217 -0.0385 0.0676
H10 H -0.0927 -0.1101 0.1201
C10 C 0.0484(3) -0.0898(3) 0.3292(3)
H11 H 0.0362 -0.1411 0.3158
H12 H 0.0861 -0.0873 0.3859
C11 C -0.2256(3) 0.0171(2) 0.1853(3)
C12 C -0.1399(3) -0.0680(2) 0.2784(3)
H13 H -0.1510 -0.1207 0.2699
C13 C -0.2316(3) -0.0326(2) 0.3261(3)
H14 H -0.2835 -0.0690 0.3425
C14 C -0.0741(3) -0.0145(2) 0.4087(3)
C15 C -0.3756(3) 0.0526(2) 0.2712(3)
H15 H -0.4188 0.0190 0.3028
H16 H -0.4087 0.0596 0.2132
C16 C -0.2332(4) 0.0360(3) 0.4719(3)
H17 H -0.1887 0.0353 0.5253
H18 H -0.2956 0.0080 0.4828
C17 C -0.3782(3) 0.1866(2) 0.2710(3)
C18 C -0.3635(3) 0.1331(2) 0.4117(3)
C19 C -0.3600(3) 0.2195(2) 0.4200(2)
C20 C -0.2071(3) 0.1683(3) 0.4858(3)
C21 C -0.4557(3) 0.1008(3) 0.4575(3)
H19 H -0.4519 0.0477 0.4557
H20 H -0.5203 0.1157 0.4267
C22 C -0.4564(4) 0.1263(3) 0.5537(3)
H21 H -0.3979 0.1042 0.5867
H22 H -0.5201 0.1094 0.5790
C23 C -0.4494(4) 0.2097(3) 0.5629(3)
H23 H -0.3864 0.2222 0.5976
H24 H -0.5087 0.2271 0.5941
C24 C -0.4478(3) 0.2490(3) 0.4736(3)
H25 H -0.5143 0.2417 0.4415
H26 H -0.4382 0.3012 0.4830
C25 C -0.3642(3) 0.3182(2) 0.2985(3)
H27 H -0.4018 0.3492 0.3379
H28 H -0.3998 0.3211 0.2410
C26 C -0.2160(4) 0.3007(3) 0.4940(3)
H29 H -0.1722 0.2922 0.5467
H30 H -0.2744 0.3309 0.5102
C27 C -0.2110(3) 0.3526(2) 0.2148(3)
C28 C -0.2040(3) 0.3853(2) 0.3632(3)
H31 H -0.2482 0.4235 0.3870
C29 C -0.1089(3) 0.4192(3) 0.3187(3)
H32 H -0.1102 0.4729 0.3201
C30 C -0.0504(3) 0.3483(3) 0.4380(3)
C31 C -0.0638(3) 0.4202(3) 0.1573(3)
H33 H -0.0996 0.4060 0.1024
H34 H -0.0639 0.4733 0.1604
C32 C 0.0801(3) 0.4236(3) 0.3694(3)
H35 H 0.1184 0.4115 0.4239
H36 H 0.0710 0.4764 0.3679
C33 C 0.0760(3) 0.3539(3) 0.0881(3)
C34 C 0.1297(3) 0.4289(3) 0.2086(3)
C35 C 0.2285(3) 0.3950(3) 0.1647(3)
C36 C 0.2239(3) 0.3557(3) 0.3113(3)
C37 C 0.1259(4) 0.5114(3) 0.2016(3)
H37 H 0.0661 0.5294 0.2318
H38 H 0.1164 0.5251 0.1403
C38 C 0.2258(4) 0.5484(4) 0.2411(4)
H39 H 0.2278 0.5989 0.2214
H40 H 0.2235 0.5487 0.3046
C39 C 0.3242(4) 0.5097(3) 0.2155(4)
H41 H 0.3534 0.4826 0.2656
H42 H 0.3752 0.5459 0.1994
C40 C 0.3036(4) 0.4568(3) 0.1386(4)
H43 H 0.3691 0.4356 0.1218
H44 H 0.2731 0.4834 0.0885
C41 C 0.2404(4) 0.3161(3) 0.0253(3)
H45 H 0.1995 0.3173 -0.0299
H46 H 0.3045 0.3430 0.0170
C42 C 0.3682(3) 0.3066(3) 0.2295(3)
H47 H 0.4175 0.3331 0.1950
H48 H 0.3994 0.3012 0.2884
C43 C 0.2154(3) 0.1833(3) 0.0066(3)
C44 C 0.3572(3) 0.2172(3) 0.0998(3)
H49 H 0.4225 0.2352 0.0767
C45 C 0.3519(4) 0.1336(3) 0.0966(3)
H50 H 0.4145 0.1125 0.0721
C46 C 0.3481(3) 0.1735(3) 0.2425(3)
C47 C 0.2298(4) 0.0481(3) 0.0072(3)
H51 H 0.2930 0.0212 -0.0039
H52 H 0.1911 0.0543 -0.0486
C48 C 0.3460(3) 0.0403(3) 0.2190(3)
H53 H 0.3714 0.0405 0.2800
H54 H 0.3954 0.0125 0.1861
N1 N 0.1671(3) 0.0040(2) 0.0639(2)
N2 N 0.0229(3) -0.0369(2) 0.1221(2)
N3 N 0.2461(3) 0.0034(2) 0.2127(2)
N4 N 0.1129(3) -0.0593(2) 0.2642(2)
N5 N -0.1414(3) -0.0297(2) 0.1952(2)
N6 N -0.2746(3) 0.01962(19) 0.2620(2)
N7 N -0.0503(3) -0.0541(2) 0.3357(2)
N8 N -0.1786(3) 0.0009(2) 0.4024(2)
N9 N -0.3720(3) 0.1225(2) 0.3167(2)
N10 N -0.3690(3) 0.24326(19) 0.3293(2)
N11 N -0.2628(3) 0.1112(2) 0.4523(2)
N12 N -0.2556(3) 0.2320(2) 0.4628(2)
N13 N -0.2582(3) 0.3469(2) 0.2926(2)
N14 N -0.1208(3) 0.3909(2) 0.2300(2)
N15 N -0.1567(3) 0.3406(2) 0.4328(2)
N16 N -0.0209(3) 0.3899(2) 0.3694(2)
N17 N 0.0435(3) 0.3946(2) 0.1577(2)
N18 N 0.1827(3) 0.3539(2) 0.0905(2)
N19 N 0.1417(3) 0.4023(2) 0.2974(2)
N20 N 0.2735(3) 0.3495(2) 0.2335(2)
N21 N 0.2668(3) 0.2412(2) 0.0453(2)
N22 N 0.2592(3) 0.1198(2) 0.0402(2)
N23 N 0.3512(3) 0.2346(2) 0.1916(2)
N24 N 0.3438(3) 0.1136(2) 0.1875(2)
O1 O 0.0062(3) 0.03722(19) 0.00090(19)
O2 O -0.2527(2) 0.05011(17) 0.11725(19)
O3 O -0.3929(2) 0.19257(17) 0.19184(18)
O4 O -0.2451(2) 0.33124(17) 0.14378(19)
O5 O 0.0195(3) 0.32443(19) 0.03285(19)
O6 O 0.1436(3) 0.1863(2) -0.0484(2)
O7 O 0.2157(3) 0.0095(2) 0.3598(2)
O8 O -0.0130(2) 0.00227(18) 0.46957(18)
O9 O -0.1257(2) 0.1633(2) 0.5310(2)
O10 O 0.0072(2) 0.32221(19) 0.4962(2)
O11 O 0.2514(3) 0.3260(2) 0.3802(2)
O12 O 0.3512(2) 0.1705(2) 0.32134(19)
C49 C 0.3129(5) 0.0596(4) -0.2658(4)
H55 H 0.2663 0.0358 -0.3050
C50 C 0.3312(5) 0.1319(5) -0.2753(4)
H56 H 0.2983 0.1570 -0.3219
C51 C 0.3616(4) 0.0217(4) -0.2000(3)
H57 H 0.3494 -0.0283 -0.1944
C52 C 0.3984(5) 0.1696(4) -0.2166(4)
H58 H 0.4089 0.2198 -0.2226
C53 C 0.4307(4) 0.0573(3) -0.1397(3)
H59 H 0.4637 0.0312 -0.0939
C54 C 0.4493(4) 0.1308(3) -0.1488(3)
C55 C 0.5261(3) 0.1667(3) -0.0875(3)
N25 N 0.5269(3) 0.2385(2) -0.0709(2)
H60 H 0.4818 0.2688 -0.0936
C56 C 0.6105(4) 0.1369(3) -0.0383(3)
H61 H 0.6313 0.0881 -0.0344
N26 N 0.6070(3) 0.2588(2) -0.0140(2)
C57 C 0.6557(3) 0.1970(3) 0.0030(3)
N27 N 0.7481(3) 0.1970(2) 0.0612(2)
H62 H 0.7619 0.2425 0.0792
H63 H 0.8020 0.1798 0.0329
H64 H 0.7375 0.1687 0.1075
Cl1 Cl 0.60943(18) 0.86365(14) 0.16480(14)
C58 C 0.0527(7) 0.1742(7) 0.1898(4)
H65 H 0.0178 0.1782 0.1328
H66 H 0.0888 0.1281 0.1943
H67 H 0.1020 0.2135 0.1978
C59 C -0.0253(5) 0.1783(4) 0.2582(5)
C60 C 0.0257(8) 0.1721(5) 0.3499(4)
H68 H -0.0270 0.1749 0.3924
H69 H 0.0747 0.2115 0.3595
H70 H 0.0616 0.1261 0.3558
O13 O -0.1167(5) 0.1856(4) 0.2426(5)
O14 O 0.2833(3) 0.1696(3) 0.4947(3)
O15 O 0.9215(3) 0.1797(2) 0.9661(2)
O16 O 0.1777(3) 0.0498(2) 0.5462(2)
O17 O 0.4697(4) -0.1162(3) -0.0747(3)
O18 O 0.5374(4) 0.9844(4) 0.0628(4)
O19 O 0.0299(3) 0.1117(3) 0.6509(3)
O20 O 0.3727(4) 0.9450(3) 0.4734(4)
O21 O 0.4981(4) 0.8972(3) 0.3443(4)
O22 O 0.0955(5) 0.2329(3) 0.7576(4)
O23 O 0.1818(5) 0.2813(4) 0.5969(4)
O24 O 0.6513(6) 0.8609(5) 0.4602(4)
O25 O 0.5169(10) 0.9432(5) 0.6060(5)
loop_
_geom_bond_atom_site_label_1
_geom_bond_atom_site_label_2
_geom_bond_site_symmetry_1
_geom_bond_site_symmetry_2
C1 N1 1_555 1_555
C2 C3 1_555 1_555
C3 C8 1_555 1_555
C4 N3 1_555 1_555
C5 C2 1_555 1_555
H1 C5 1_555 1_555
H2 C5 1_555 1_555
C6 C5 1_555 1_555
H3 C6 1_555 1_555
H4 C6 1_555 1_555
C7 C6 1_555 1_555
H5 C7 1_555 1_555
H6 C7 1_555 1_555
C8 C7 1_555 1_555
H7 C8 1_555 1_555
H8 C8 1_555 1_555
C9 H9 1_555 1_555
H10 C9 1_555 1_555
C10 H11 1_555 1_555
H12 C10 1_555 1_555
C11 N5 1_555 1_555
C12 H13 1_555 1_555
C13 C12 1_555 1_555
H14 C13 1_555 1_555
C14 N7 1_555 1_555
C15 H15 1_555 1_555
H16 C15 1_555 1_555
C16 H17 1_555 1_555
H18 C16 1_555 1_555
C17 N9 1_555 1_555
C18 C19 1_555 1_555
C19 C24 1_555 1_555
C20 N11 1_555 1_555
C21 C18 1_555 1_555
H19 C21 1_555 1_555
H20 C21 1_555 1_555
C22 C21 1_555 1_555
H21 C22 1_555 1_555
H22 C22 1_555 1_555
C23 C22 1_555 1_555
H23 C23 1_555 1_555
H24 C23 1_555 1_555
C24 C23 1_555 1_555
H25 C24 1_555 1_555
H26 C24 1_555 1_555
C25 H27 1_555 1_555
H28 C25 1_555 1_555
C26 H29 1_555 1_555
H30 C26 1_555 1_555
C27 N13 1_555 1_555
C28 H31 1_555 1_555
C29 C28 1_555 1_555
H32 C29 1_555 1_555
C30 N15 1_555 1_555
C31 H33 1_555 1_555
H34 C31 1_555 1_555
C32 H35 1_555 1_555
H36 C32 1_555 1_555
C33 N17 1_555 1_555
C34 C35 1_555 1_555
C35 C40 1_555 1_555
C36 N19 1_555 1_555
C37 C34 1_555 1_555
H37 C37 1_555 1_555
H38 C37 1_555 1_555
C38 C37 1_555 1_555
H39 C38 1_555 1_555
H40 C38 1_555 1_555
C39 C38 1_555 1_555
H41 C39 1_555 1_555
H42 C39 1_555 1_555
C40 C39 1_555 1_555
H43 C40 1_555 1_555
H44 C40 1_555 1_555
C41 H45 1_555 1_555
H46 C41 1_555 1_555
C42 H47 1_555 1_555
H48 C42 1_555 1_555
C43 N21 1_555 1_555
C44 H49 1_555 1_555
C45 C44 1_555 1_555
H50 C45 1_555 1_555
C46 N23 1_555 1_555
C47 H51 1_555 1_555
H52 C47 1_555 1_555
C48 H53 1_555 1_555
H54 C48 1_555 1_555
N1 C2 1_555 1_555
N2 C1 1_555 1_555
N3 C2 1_555 1_555
N4 C3 1_555 1_555
N5 C9 1_555 1_555
N6 C11 1_555 1_555
N7 C10 1_555 1_555
N8 C13 1_555 1_555
N9 C15 1_555 1_555
N10 C17 1_555 1_555
N11 C16 1_555 1_555
N12 C19 1_555 1_555
N13 C25 1_555 1_555
N14 C27 1_555 1_555
N15 C26 1_555 1_555
N16 C29 1_555 1_555
N17 C31 1_555 1_555
N18 C33 1_555 1_555
N19 C32 1_555 1_555
N20 C35 1_555 1_555
N21 C41 1_555 1_555
N22 C43 1_555 1_555
N23 C42 1_555 1_555
N24 C45 1_555 1_555
O1 C1 1_555 1_555
O2 C11 1_555 1_555
O3 C17 1_555 1_555
O4 C27 1_555 1_555
O5 C33 1_555 1_555
O6 C43 1_555 1_555
O7 C4 1_555 1_555
O8 C14 1_555 1_555
O9 C20 1_555 1_555
O10 C30 1_555 1_555
O11 C36 1_555 1_555
O12 C46 1_555 1_555
C49 H55 1_555 1_555
C50 C49 1_555 1_555
H56 C50 1_555 1_555
C51 C49 1_555 1_555
H57 C51 1_555 1_555
C52 C50 1_555 1_555
H58 C52 1_555 1_555
C53 C51 1_555 1_555
H59 C53 1_555 1_555
C54 C52 1_555 1_555
C55 C54 1_555 1_555
N25 C55 1_555 1_555
H60 N25 1_555 1_555
C56 C55 1_555 1_555
H61 C56 1_555 1_555
N26 N25 1_555 1_555
C57 C56 1_555 1_555
N27 C57 1_555 1_555
H62 N27 1_555 1_555
H63 N27 1_555 1_555
H64 N27 1_555 1_555
C58 H65 1_555 1_555
H66 C58 1_555 1_555
H67 C58 1_555 1_555
C59 C58 1_555 1_555
C60 C59 1_555 1_555
H68 C60 1_555 1_555
H69 C60 1_555 1_555
H70 C60 1_555 1_555
O13 C59 1_555 1_555
C3 N2 1_555 1_555
C4 N4 1_555 1_555
C9 N2 1_555 1_555
C10 N4 1_555 1_555
C12 N5 1_555 1_555
C12 N7 1_555 1_555
C13 N6 1_555 1_555
C14 N8 1_555 1_555
C15 N6 1_555 1_555
C16 N8 1_555 1_555
C18 N9 1_555 1_555
C18 N11 1_555 1_555
C19 N10 1_555 1_555
C20 N12 1_555 1_555
C25 N10 1_555 1_555
C26 N12 1_555 1_555
C28 N13 1_555 1_555
C28 N15 1_555 1_555
C29 N14 1_555 1_555
C30 N16 1_555 1_555
C31 N14 1_555 1_555
C32 N16 1_555 1_555
C34 N17 1_555 1_555
C34 N19 1_555 1_555
C35 N18 1_555 1_555
C36 N20 1_555 1_555
C41 N18 1_555 1_555
C42 N20 1_555 1_555
C44 N21 1_555 1_555
C44 N23 1_555 1_555
C45 N22 1_555 1_555
C46 N24 1_555 1_555
C47 N1 1_555 1_555
C47 N22 1_555 1_555
C48 N3 1_555 1_555
C48 N24 1_555 1_555
C53 C54 1_555 1_555
N26 C57 1_555 1_555

#END
