
#######################################################################
#
#                 Cambridge Crystallographic Data Centre
#                                CCDC 
#
#######################################################################
#
# If this CIF has been generated from an entry in the Cambridge 
# Structural Database, then it will include bibliographic, chemical, 
# crystal, experimental, refinement or atomic coordinate data resulting 
# from the CCDC's data processing and validation procedures.
#
#######################################################################

data_GIXBAT
_chemical_formula_moiety         'C14 H13 Br1 N2 O2 S1'
_chemical_name_systematic        
4-bromo-N-[(4-methylphenyl)sulfonyl]benzene-1-carboximidamide
_symmetry_cell_setting           monoclinic
_symmetry_space_group_name_H-M   'P 21/c'
_symmetry_Int_Tables_number      14
_space_group_name_Hall           '-P 2ybc'
loop_
_symmetry_equiv_pos_site_id
_symmetry_equiv_pos_as_xyz
1 x,y,z
2 -x,1/2+y,1/2-z
3 -x,-y,-z
4 x,1/2-y,1/2+z
_cell_length_a                   11.1833(11)
_cell_length_b                   12.8900(9)
_cell_length_c                   10.9328(13)
_cell_angle_alpha                90
_cell_angle_beta                 117.046(13)
_cell_angle_gamma                90
_cell_volume                     1403.65
_exptl_crystal_description       block
_cell_formula_units_Z            4
loop_
_atom_site_label
_atom_site_type_symbol
_atom_site_fract_x
_atom_site_fract_y
_atom_site_fract_z
Br1 Br 0.03514(5) 0.07689(4) 0.77974(6)
S1 S -0.48677(11) -0.40700(8) 0.73183(10)
O1 O -0.5778(3) -0.4346(2) 0.5923(3)
C1 C -0.0901(4) -0.0324(3) 0.7362(4)
C2 C -0.3715(4) -0.2753(3) 0.6400(4)
O2 O -0.5459(3) -0.3772(2) 0.8182(3)
N1 N -0.3830(3) -0.3169(2) 0.7429(3)
H1 H -0.330468 -0.294122 0.823727
C3 C -0.3762(4) -0.5583(3) 0.9247(4)
H2 H -0.425218 -0.530111 0.966194
C4 C -0.3836(4) -0.5144(3) 0.8071(4)
C5 C -0.2731(4) -0.1909(3) 0.6734(4)
C6 C -0.2051(4) -0.1750(3) 0.5965(4)
H3 H -0.222130 -0.218326 0.522360
C7 C -0.3113(4) -0.5578(3) 0.7455(4)
H4 H -0.316196 -0.529450 0.665055
C8 C -0.2238(4) -0.6866(3) 0.9221(5)
C9 C -0.1579(4) -0.0462(3) 0.8131(4)
H5 H -0.142205 -0.001917 0.886036
N2 N -0.4380(4) -0.3045(3) 0.5102(3)
H6 H -0.438(5) -0.270(4) 0.455(5)
C10 C -0.2970(4) -0.6433(3) 0.9809(5)
H7 H -0.292738 -0.672345 1.060678
C11 C -0.2476(4) -0.1248(3) 0.7821(4)
H8 H -0.292725 -0.134445 0.834724
C12 C -0.1133(4) -0.0969(3) 0.6273(4)
H9 H -0.067196 -0.087496 0.575585
C13 C -0.2325(4) -0.6428(4) 0.8040(5)
H10 H -0.183609 -0.671519 0.762636
C14 C -0.1362(5) -0.7791(4) 0.9856(6)
H11 H -0.066908 -0.760991 1.074988
H12 H -0.096219 -0.801097 0.928643
H13 H -0.189465 -0.834507 0.993867
loop_
_geom_bond_atom_site_label_1
_geom_bond_atom_site_label_2
_geom_bond_site_symmetry_1
_geom_bond_site_symmetry_2
Br1 C1 1_555 1_555
S1 O1 1_555 1_555
C1 C9 1_555 1_555
C2 N1 1_555 1_555
O2 S1 1_555 1_555
N1 S1 1_555 1_555
H1 N1 1_555 1_555
C3 H2 1_555 1_555
C4 S1 1_555 1_555
C5 C2 1_555 1_555
C6 C5 1_555 1_555
H3 C6 1_555 1_555
C7 C4 1_555 1_555
H4 C7 1_555 1_555
C8 C10 1_555 1_555
C9 H5 1_555 1_555
N2 C2 1_555 1_555
H6 N2 1_555 1_555
C10 C3 1_555 1_555
H7 C10 1_555 1_555
C11 C5 1_555 1_555
H8 C11 1_555 1_555
C12 C1 1_555 1_555
H9 C12 1_555 1_555
C13 C7 1_555 1_555
H10 C13 1_555 1_555
C14 C8 1_555 1_555
H11 C14 1_555 1_555
H12 C14 1_555 1_555
H13 C14 1_555 1_555
C3 C4 1_555 1_555
C6 C12 1_555 1_555
C8 C13 1_555 1_555
C9 C11 1_555 1_555

#END
