
#######################################################################
#
#                 Cambridge Crystallographic Data Centre
#                                CCDC 
#
#######################################################################
#
# If this CIF has been generated from an entry in the Cambridge 
# Structural Database, then it will include bibliographic, chemical, 
# crystal, experimental, refinement or atomic coordinate data resulting 
# from the CCDC's data processing and validation procedures.
#
#######################################################################

data_GIXCAU
_chemical_formula_moiety         'C11 H13 I1 N4 O1'
_chemical_name_systematic        
3-azido-2-iodo-N,N-dimethyl-3-phenylpropanamide
_symmetry_cell_setting           hexagonal
_symmetry_space_group_name_H-M   'P 61'
_symmetry_Int_Tables_number      169
_space_group_name_Hall           'P 61'
loop_
_symmetry_equiv_pos_site_id
_symmetry_equiv_pos_as_xyz
1 x,y,z
2 -y,x-y,1/3+z
3 -x+y,-x,2/3+z
4 -x,-y,1/2+z
5 y,-x+y,5/6+z
6 x-y,x,1/6+z
_cell_length_a                   8.7122(3)
_cell_length_b                   8.7122(3)
_cell_length_c                   30.9874(9)
_cell_angle_alpha                90
_cell_angle_beta                 90
_cell_angle_gamma                120
_cell_volume                     2036.91
_exptl_crystal_colour            colorless
_exptl_crystal_description       block
_cell_formula_units_Z            6
loop_
_atom_site_label
_atom_site_type_symbol
_atom_site_fract_x
_atom_site_fract_y
_atom_site_fract_z
I1 I 1.22175(4) 0.07500(5) 0.49201(2)
O1 O 0.8230(4) -0.1260(4) 0.55679(9)
N1 N 0.7714(5) 0.1599(5) 0.51413(12)
C1 C 1.2351(7) 0.5882(6) 0.44157(16)
H1 H 1.246787 0.616027 0.411672
N2 N 0.7206(5) 0.1875(5) 0.47953(11)
C2 C 1.3439(8) 0.7161(7) 0.47090(19)
H2 H 1.430001 0.830953 0.461273
C3 C 1.3262(8) 0.6755(6) 0.51416(17)
H3 H 1.401087 0.762484 0.534485
N3 N 0.6556(6) 0.2075(7) 0.45012(14)
C4 C 1.1990(7) 0.5074(6) 0.52836(14)
H4 H 1.186090 0.481387 0.558363
N4 N 0.7694(5) -0.2845(5) 0.49543(12)
C5 C 1.0916(5) 0.3780(5) 0.49906(12)
C6 C 1.1091(6) 0.4200(6) 0.45516(13)
H5 H 1.034948 0.333383 0.434667
C7 C 0.9593(5) 0.1968(5) 0.51571(13)
H6 H 0.988502 0.192120 0.546717
C8 C 0.8442(5) -0.1310(5) 0.51790(13)
C9 C 0.9587(5) 0.0411(5) 0.49294(14)
H7 H 0.913157 0.029872 0.462808
C10 C 0.8027(9) -0.3027(7) 0.45014(16)
H8 H 0.694881 -0.398441 0.437025
H9 H 0.898479 -0.330403 0.447961
H10 H 0.837273 -0.191295 0.434985
C11 C 0.6692(9) -0.4497(7) 0.51937(18)
H11 H 0.569876 -0.535500 0.501723
H12 H 0.623718 -0.426924 0.546088
H13 H 0.746816 -0.497568 0.526405
loop_
_geom_bond_atom_site_label_1
_geom_bond_atom_site_label_2
_geom_bond_site_symmetry_1
_geom_bond_site_symmetry_2
I1 C9 1_555 1_555
O1 C8 1_555 1_555
N1 N2 1_555 1_555
C1 H1 1_555 1_555
N2 N3 1_555 1_555
C2 C1 1_555 1_555
H2 C2 1_555 1_555
C3 C2 1_555 1_555
H3 C3 1_555 1_555
C4 C3 1_555 1_555
H4 C4 1_555 1_555
N4 C8 1_555 1_555
C5 C4 1_555 1_555
C6 C1 1_555 1_555
H5 C6 1_555 1_555
C7 N1 1_555 1_555
H6 C7 1_555 1_555
C8 C9 1_555 1_555
C9 C7 1_555 1_555
H7 C9 1_555 1_555
C10 N4 1_555 1_555
H8 C10 1_555 1_555
H9 C10 1_555 1_555
H10 C10 1_555 1_555
C11 N4 1_555 1_555
H11 C11 1_555 1_555
H12 C11 1_555 1_555
H13 C11 1_555 1_555
C5 C6 1_555 1_555
C5 C7 1_555 1_555

#END
