
#######################################################################
#
#                 Cambridge Crystallographic Data Centre
#                                CCDC 
#
#######################################################################
#
# If this CIF has been generated from an entry in the Cambridge 
# Structural Database, then it will include bibliographic, chemical, 
# crystal, experimental, refinement or atomic coordinate data resulting 
# from the CCDC's data processing and validation procedures.
#
#######################################################################

data_GIXCUL
_chemical_name_common            
"13-Acetyloxy-14-(acetyloxymethyl)-1,3-dioxo-6-phenylspiro(2,7a-dihydropyrrolidino(1,2-e)pyrimidine-7,2'-oxolane)-12-yl acetate monohydrate"
_chemical_formula_moiety         'C23 H24 N2 O9,H2 O1'
_chemical_name_systematic        
"2',3',5'-Tri-O-acetyl-6,1'-((1S)-1-phenylethano)uridine monohydrate"
_symmetry_cell_setting           monoclinic
_symmetry_space_group_name_H-M   'C 2'
_symmetry_Int_Tables_number      5
_space_group_name_Hall           'C 2y'
loop_
_symmetry_equiv_pos_site_id
_symmetry_equiv_pos_as_xyz
1 x,y,z
2 -x,y,-z
3 1/2+x,1/2+y,z
4 1/2-x,1/2+y,-z
_cell_length_a                   24.038(2)
_cell_length_b                   16.200(3)
_cell_length_c                   15.846(2)
_cell_angle_alpha                90
_cell_angle_beta                 127.570(6)
_cell_angle_gamma                90
_cell_volume                     4890.94
_exptl_crystal_description       plate
_chemical_melting_point          '176.5-177.0 deg.C'
_cell_formula_units_Z            8
_exptl_crystal_recrystallization_method 'hexane/ethyl acetate'
loop_
_atom_site_label
_atom_site_type_symbol
_atom_site_fract_x
_atom_site_fract_y
_atom_site_fract_z
O1 O -0.1936(4) 0.053 0.3455(5)
O2 O 0.0092(4) 0.1222(6) 0.4015(6)
O3 O -0.3081(4) 0.100 0.0773(6)
O4 O -0.4188(4) 0.2257(6) 0.0008(6)
O5 O -0.4022(6) 0.3339(7) 0.0985(8)
O6 O -0.3378(4) -0.0897(6) 0.0701(5)
O7 O -0.3203(6) -0.1811(7) 0.1879(8)
O8 O -0.4079(4) -0.0168(6) 0.1288(6)
O9 O -0.3876(6) 0.013(1) 0.2800(8)
N1 N -0.1927(4) 0.0567(6) 0.2028(6)
N3 N -0.0929(4) 0.0912(6) 0.3714(6)
C1 C -0.4207(7) 0.3070(9) 0.018(1)
C2 C -0.1620(5) 0.0672(7) 0.3094(8)
C3 C -0.4524(8) 0.358(1) -0.080(1)
C4 C -0.0528(5) 0.1054(8) 0.3371(8)
C5 C -0.0897(5) 0.0991(8) 0.2244(8)
C6 C -0.1562(5) 0.0751(7) 0.1626(8)
C7 C -0.2043(5) 0.0586(8) 0.0458(8)
C8 C -0.2565(6) -0.0047(8) 0.0338(8)
C9 C -0.2655(5) 0.0292(7) 0.1183(7)
C10 C -0.2979(5) -0.0285(8) 0.1531(7)
C11 C -0.3482(5) 0.0275(8) 0.1558(8)
C12 C -0.3688(5) 0.0913(8) 0.0720(8)
C13 C -0.3884(6) 0.1734(9) 0.092(1)
C14 C -0.2270(5) -0.0917(8) 0.0562(8)
C15 C -0.2465(7) -0.1399(9) -0.0303(9)
C16 C -0.2234(7) -0.2180(8) -0.0200(10)
C17 C -0.1784(7) -0.2534(8) 0.082(1)
C18 C -0.1572(7) -0.2061(8) 0.1704(10)
C19 C -0.1808(6) -0.1268(8) 0.1551(9)
C20 C -0.3384(7) -0.1670(9) 0.102(1)
C21 C -0.3728(9) -0.227(1) 0.014(1)
C22 C -0.4206(7) -0.026(1) 0.200(1)
C23 C -0.4794(7) -0.083(1) 0.160(1)
H1 H -0.067 0.111 0.193
H2 H -0.276 -0.116 -0.099
H3 H -0.237 -0.249 -0.081
H4 H -0.162 -0.308 0.091
H5 H -0.128 -0.229 0.239
H6 H -0.163 -0.094 0.218
H7 H -0.300 -0.002 -0.035
H8 H -0.264 -0.053 0.221
H9 H -0.326 0.053 0.224
H10 H -0.407 0.071 0.004
H11 H -0.228 0.108 0.006
H12 H -0.179 0.037 0.022
H13 H -0.348 0.198 0.151
H14 H -0.422 0.164 0.105
H15 H -0.418 0.399 -0.067
H16 H -0.460 0.322 -0.137
H17 H -0.493 0.383 -0.103
H18 H -0.419 -0.211 -0.038
H19 H -0.347 -0.229 -0.014
H20 H -0.372 -0.281 0.039
H21 H -0.488 -0.082 0.214
H22 H -0.520 -0.058 0.098
H23 H -0.469 -0.132 0.152
H47 H -0.069 0.098 0.447
O10 O 0.1887(4) 0.0247(6) 0.1442(5)
O11 O -0.0096(4) 0.1070(7) 0.0981(6)
O12 O 0.3064(4) 0.0562(6) 0.4026(6)
O13 O 0.3937(8) 0.1109(8) 0.289(1)
O14 O 0.483(1) 0.174(2) 0.396(1)
O15 O 0.3215(3) -0.1360(5) 0.4139(5)
O16 O 0.2917(5) -0.2366(6) 0.2957(7)
O17 O 0.3953(4) -0.0860(6) 0.3603(5)
O18 O 0.3980(5) -0.0643(8) 0.2215(7)
N2 N 0.1877(4) 0.0225(6) 0.2880(6)
N4 N 0.0897(4) 0.0667(7) 0.1238(6)
C24 C 0.463(1) 0.093(1) 0.353(2)
C25 C 0.1576(6) 0.0364(8) 0.1813(8)
C26 C 0.491(1) 0.110(1) 0.286(2)
C27 C 0.0525(6) 0.0855(8) 0.1611(8)
C28 C 0.0908(5) 0.0776(8) 0.2750(8)
C29 C 0.1553(6) 0.0488(7) 0.3318(8)
C30 C 0.2081(6) 0.0359(8) 0.4506(8)
C31 C 0.2541(6) -0.0334(7) 0.4588(8)
C32 C 0.2580(5) -0.0083(7) 0.3670(7)
C33 C 0.2847(5) -0.0765(8) 0.3288(8)
C34 C 0.3366(5) -0.0335(7) 0.3177(8)
C35 C 0.3583(6) 0.0442(8) 0.3874(9)
C36 C 0.3625(10) 0.1224(9) 0.343(2)
C37 C 0.2244(5) -0.1186(7) 0.4524(8)
C38 C 0.2467(6) -0.1552(8) 0.5475(9)
C39 C 0.2210(8) -0.231(1) 0.548(1)
C40 C 0.1709(7) -0.2691(9) 0.452(1)
C41 C 0.1490(7) -0.2343(8) 0.358(1)
C42 C 0.1740(6) -0.1571(8) 0.3585(9)
C43 C 0.3168(6) -0.2161(7) 0.3852(10)
C44 C 0.3494(7) -0.2707(8) 0.4826(10)
C45 C 0.4216(6) -0.0980(9) 0.305(1)
C46 C 0.4818(8) -0.156(1) 0.363(1)
H24 H 0.069 0.094 0.306
H25 H 0.280 -0.127 0.613
H26 H 0.240 -0.261 0.616
H27 H 0.151 -0.320 0.451
H28 H 0.116 -0.262 0.296
H29 H 0.156 -0.132 0.293
H30 H 0.299 -0.029 0.526
H31 H 0.248 -0.101 0.265
H32 H 0.314 -0.020 0.246
H33 H 0.402 0.034 0.456
H34 H 0.235 0.084 0.485
H35 H 0.185 0.020 0.480
H36 H 0.394 0.160 0.402
H37 H 0.319 0.146 0.296
H38 H 0.541 0.111 0.334
H39 H 0.475 0.064 0.242
H40 H 0.474 0.160 0.249
H41 H 0.326 -0.263 0.511
H42 H 0.348 -0.325 0.462
H43 H 0.398 -0.253 0.532
H44 H 0.466 -0.207 0.372
H45 H 0.500 -0.164 0.327
H46 H 0.517 -0.133 0.433
H48 H 0.067 0.076 0.049
O19 O 0.0509(9) -0.105(1) 0.439(2)
O20 O 0.4698(7) 0.3883(9) 0.453(1)
loop_
_geom_bond_atom_site_label_1
_geom_bond_atom_site_label_2
_geom_bond_site_symmetry_1
_geom_bond_site_symmetry_2
O1 C2 1_555 1_555
O2 C4 1_555 1_555
O3 C9 1_555 1_555
O4 C1 1_555 1_555
O5 C1 1_555 1_555
O6 C10 1_555 1_555
O7 C20 1_555 1_555
O8 C11 1_555 1_555
O9 C22 1_555 1_555
O10 C25 1_555 1_555
O11 C27 1_555 1_555
O12 C32 1_555 1_555
O13 C24 1_555 1_555
O14 C24 1_555 1_555
O15 C33 1_555 1_555
O16 C43 1_555 1_555
O17 C34 1_555 1_555
O18 C45 1_555 1_555
N1 C2 1_555 1_555
N2 C25 1_555 1_555
N3 C2 1_555 1_555
N4 C25 1_555 1_555
C1 C3 1_555 1_555
C3 H15 1_555 1_555
C4 N3 1_555 1_555
C5 C4 1_555 1_555
C6 N1 1_555 1_555
C7 C6 1_555 1_555
C8 C7 1_555 1_555
C9 N1 1_555 1_555
C10 C9 1_555 1_555
C11 C10 1_555 1_555
C12 O3 1_555 1_555
C13 O4 1_555 1_555
C14 C8 1_555 1_555
C15 C14 1_555 1_555
C16 C15 1_555 1_555
C17 C16 1_555 1_555
C18 C17 1_555 1_555
C19 C14 1_555 1_555
C20 O6 1_555 1_555
C21 C20 1_555 1_555
C22 O8 1_555 1_555
C23 C22 1_555 1_555
C24 C26 1_555 1_555
C26 H38 1_555 1_555
C27 N4 1_555 1_555
C28 C27 1_555 1_555
C29 N2 1_555 1_555
C30 C29 1_555 1_555
C31 C30 1_555 1_555
C32 N2 1_555 1_555
C33 C32 1_555 1_555
C34 C33 1_555 1_555
C35 O12 1_555 1_555
C36 O13 1_555 1_555
C37 C31 1_555 1_555
C38 C37 1_555 1_555
C39 C38 1_555 1_555
C40 C39 1_555 1_555
C41 C40 1_555 1_555
C42 C37 1_555 1_555
C43 O15 1_555 1_555
C44 C43 1_555 1_555
C45 O17 1_555 1_555
C46 C45 1_555 1_555
H1 C5 1_555 1_555
H2 C15 1_555 1_555
H3 C16 1_555 1_555
H4 C17 1_555 1_555
H5 C18 1_555 1_555
H6 C19 1_555 1_555
H7 C8 1_555 1_555
H8 C10 1_555 1_555
H9 C11 1_555 1_555
H10 C12 1_555 1_555
H11 C7 1_555 1_555
H12 C7 1_555 1_555
H13 C13 1_555 1_555
H14 C13 1_555 1_555
H16 C3 1_555 1_555
H17 C3 1_555 1_555
H18 C21 1_555 1_555
H19 C21 1_555 1_555
H20 C21 1_555 1_555
H21 C23 1_555 1_555
H22 C23 1_555 1_555
H23 C23 1_555 1_555
H24 C28 1_555 1_555
H25 C38 1_555 1_555
H26 C39 1_555 1_555
H27 C40 1_555 1_555
H28 C41 1_555 1_555
H29 C42 1_555 1_555
H30 C31 1_555 1_555
H31 C33 1_555 1_555
H32 C34 1_555 1_555
H33 C35 1_555 1_555
H34 C30 1_555 1_555
H35 C30 1_555 1_555
H36 C36 1_555 1_555
H37 C36 1_555 1_555
H39 C26 1_555 1_555
H40 C26 1_555 1_555
H41 C44 1_555 1_555
H42 C44 1_555 1_555
H43 C44 1_555 1_555
H44 C46 1_555 1_555
H45 C46 1_555 1_555
H46 C46 1_555 1_555
H47 N3 1_555 1_555
H48 N4 1_555 1_555
C5 C6 1_555 1_555
C8 C9 1_555 1_555
C11 C12 1_555 1_555
C12 C13 1_555 1_555
C18 C19 1_555 1_555
C28 C29 1_555 1_555
C31 C32 1_555 1_555
C34 C35 1_555 1_555
C35 C36 1_555 1_555
C41 C42 1_555 1_555

#END
