
#######################################################################
#
#                 Cambridge Crystallographic Data Centre
#                                CCDC 
#
#######################################################################
#
# If this CIF has been generated from an entry in the Cambridge 
# Structural Database, then it will include bibliographic, chemical, 
# crystal, experimental, refinement or atomic coordinate data resulting 
# from the CCDC's data processing and validation procedures.
#
#######################################################################

data_GIXDOI
_chemical_formula_moiety         'C13 H6 F5 N1 O1'
_chemical_name_systematic        2,3,4,5,6-pentafluoro-N-phenylbenzamide
_symmetry_cell_setting           orthorhombic
_symmetry_space_group_name_H-M   'P 21 21 21'
_symmetry_Int_Tables_number      19
_space_group_name_Hall           'P 2ac 2ab'
loop_
_symmetry_equiv_pos_site_id
_symmetry_equiv_pos_as_xyz
1 x,y,z
2 1/2-x,-y,1/2+z
3 -x,1/2+y,1/2-z
4 1/2+x,1/2-y,-z
_cell_length_a                   5.434(4)
_cell_length_b                   9.157(7)
_cell_length_c                   24.300(19)
_cell_angle_alpha                90
_cell_angle_beta                 90
_cell_angle_gamma                90
_cell_volume                     1209.15
_exptl_crystal_colour            colorless
_exptl_crystal_description       prismatic
_cell_formula_units_Z            4
loop_
_atom_site_label
_atom_site_type_symbol
_atom_site_fract_x
_atom_site_fract_y
_atom_site_fract_z
O1 O -0.0925(4) -0.04044(14) 0.23130(6)
C1 C -0.0497(3) 0.08331(17) 0.24642(8)
C2 C 0.1128(4) 0.17591(19) 0.15897(7)
N1 N 0.0426(3) 0.18806(16) 0.21489(6)
F1 F 0.2421(3) -0.01037(16) 0.33447(6)
F2 F -0.2429(4) 0.2163(2) 0.46793(6)
C3 C -0.0973(4) 0.12695(19) 0.30526(7)
F3 F -0.4397(3) 0.2687(2) 0.28179(6)
F4 F -0.5350(3) 0.3273(2) 0.38833(8)
F5 F 0.1506(4) 0.0495(2) 0.44029(6)
C4 C 0.0487(4) 0.0739(2) 0.34704(8)
C5 C -0.0120(5) 0.0880(2) 0.12215(9)
H1 H -0.1455 0.0321 0.1336
C6 C 0.3076(4) 0.2591(3) 0.14155(9)
H2 H 0.3906 0.3185 0.1664
C7 C -0.2914(4) 0.2142(2) 0.32053(9)
C8 C 0.0029(5) 0.1036(3) 0.40147(8)
C9 C 0.0660(7) 0.0849(3) 0.06770(10)
H3 H -0.0149 0.0251 0.0426
C10 C -0.1955(5) 0.1886(3) 0.41533(9)
C11 C -0.3424(4) 0.2448(3) 0.37455(10)
C12 C 0.2598(6) 0.1683(3) 0.05046(10)
H4 H 0.3090 0.1661 0.0138
C13 C 0.3806(5) 0.2548(3) 0.08732(9)
H5 H 0.5131 0.3113 0.0757
H6 H 0.078(4) 0.267(2) 0.2282(8)
loop_
_geom_bond_atom_site_label_1
_geom_bond_atom_site_label_2
_geom_bond_site_symmetry_1
_geom_bond_site_symmetry_2
O1 C1 1_555 1_555
C1 N1 1_555 1_555
C2 N1 1_555 1_555
N1 H6 1_555 1_555
F1 C4 1_555 1_555
F2 C10 1_555 1_555
C3 C1 1_555 1_555
F3 C7 1_555 1_555
F4 C11 1_555 1_555
F5 C8 1_555 1_555
C4 C3 1_555 1_555
C5 C2 1_555 1_555
H1 C5 1_555 1_555
C6 C2 1_555 1_555
H2 C6 1_555 1_555
C7 C3 1_555 1_555
C8 C4 1_555 1_555
C9 C5 1_555 1_555
H3 C9 1_555 1_555
C10 C8 1_555 1_555
C11 C7 1_555 1_555
C12 C9 1_555 1_555
H4 C12 1_555 1_555
C13 C6 1_555 1_555
H5 C13 1_555 1_555
C10 C11 1_555 1_555
C12 C13 1_555 1_555

#END
