
#######################################################################
#
#                 Cambridge Crystallographic Data Centre
#                                CCDC 
#
#######################################################################
#
# If this CIF has been generated from an entry in the Cambridge 
# Structural Database, then it will include bibliographic, chemical, 
# crystal, experimental, refinement or atomic coordinate data resulting 
# from the CCDC's data processing and validation procedures.
#
#######################################################################

data_GIXDEX
_chemical_formula_moiety         'C32 H30 Br2 O4'
_chemical_name_systematic        
5,17-Dibromo-25,26,27,28-tetramethoxycalix(4)arene
_symmetry_cell_setting           monoclinic
_symmetry_space_group_name_H-M   'P 21/n'
_symmetry_Int_Tables_number      14
_space_group_name_Hall           '-P 2yn'
loop_
_symmetry_equiv_pos_site_id
_symmetry_equiv_pos_as_xyz
1 x,y,z
2 1/2-x,1/2+y,1/2-z
3 -x,-y,-z
4 1/2+x,1/2-y,1/2+z
_cell_length_a                   11.9369(18)
_cell_length_b                   12.3316(13)
_cell_length_c                   20.268(2)
_cell_angle_alpha                90
_cell_angle_beta                 106.197(12)
_cell_angle_gamma                90
_cell_volume                     2865.05
_exptl_crystal_colour            colorless
_exptl_crystal_description       prism
_cell_formula_units_Z            4
loop_
_atom_site_label
_atom_site_type_symbol
_atom_site_fract_x
_atom_site_fract_y
_atom_site_fract_z
Br1 Br 0.79623(6) 1.11916(4) 1.00928(3)
Br2 Br 0.41977(5) 0.20822(5) 0.87453(3)
O1 O 0.6047(3) 0.6732(2) 0.92624(15)
O2 O 0.7658(3) 0.4816(2) 0.93697(16)
O3 O 0.5982(3) 0.5560(3) 0.72189(18)
O4 O 0.3544(3) 0.6373(3) 0.84277(16)
C1 C 0.8455(4) 0.6906(4) 0.9931(2)
H1 H 0.9206 0.7113 1.0235
H2 H 0.8139 0.6332 1.0153
C2 C 0.7645(4) 0.7869(4) 0.9819(2)
C3 C 0.6463(4) 0.7746(3) 0.9488(2)
C4 C 0.5705(4) 0.8627(3) 0.9344(2)
C5 C 0.6167(4) 0.9660(4) 0.9540(2)
H3 H 0.5684 1.0266 0.9456
C6 C 0.7322(4) 0.9769(4) 0.9853(2)
C7 C 0.8071(4) 0.8910(4) 0.9993(2)
H4 H 0.8860 0.9021 1.0204
C8 C 0.4430(4) 0.8471(4) 0.8961(2)
H5 H 0.4100 0.7923 0.9195
H6 H 0.4016 0.9144 0.8972
C9 C 0.4243(4) 0.8133(4) 0.8223(2)
C10 C 0.3871(4) 0.7088(4) 0.7989(2)
C11 C 0.3843(4) 0.6739(4) 0.7336(3)
C12 C 0.4101(4) 0.7487(4) 0.6893(3)
H7 H 0.4066 0.7276 0.6447
C13 C 0.4407(4) 0.8539(4) 0.7094(3)
H8 H 0.4546 0.9038 0.6782
C14 C 0.4507(4) 0.8844(4) 0.7763(3)
H9 H 0.4756 0.9542 0.7907
C15 C 0.3551(4) 0.5574(4) 0.7114(2)
H10 H 0.2774 0.5412 0.7147
H11 H 0.3537 0.5504 0.6635
C16 C 0.4388(4) 0.4742(4) 0.7527(2)
C17 C 0.5577(4) 0.4766(4) 0.7569(2)
C18 C 0.6367(4) 0.4041(4) 0.7976(2)
C19 C 0.5942(4) 0.3253(4) 0.8327(2)
H12 H 0.6453 0.2756 0.8600
C20 C 0.4763(4) 0.3198(4) 0.8276(2)
C21 C 0.3992(4) 0.3935(4) 0.7883(2)
H13 H 0.3203 0.3892 0.7857
C22 C 0.7656(4) 0.4109(4) 0.8041(3)
H14 H 0.7770 0.4023 0.7588
H15 H 0.8046 0.3511 0.8323
C23 C 0.8225(4) 0.5157(4) 0.8350(3)
C24 C 0.8185(4) 0.5491(4) 0.8997(2)
C25 C 0.8625(4) 0.6486(3) 0.9274(2)
C26 C 0.9162(4) 0.7128(4) 0.8896(3)
H16 H 0.9472 0.7793 0.9073
C27 C 0.9252(4) 0.6809(4) 0.8261(3)
H17 H 0.9644 0.7240 0.8022
C28 C 0.8756(4) 0.5846(4) 0.7985(3)
H18 H 0.8776 0.5651 0.7545
C29 C 0.5638(5) 0.6087(4) 0.9730(3)
H19 H 0.5405 0.5388 0.9531
H20 H 0.4984 0.6438 0.9827
H21 H 0.6252 0.6001 1.0149
C30 C 0.8459(5) 0.4132(4) 0.9839(3)
H22 H 0.8044 0.3690 1.0082
H23 H 0.9021 0.4568 1.0160
H24 H 0.8851 0.3675 0.9590
C31 C 0.6056(5) 0.5251(5) 0.6550(3)
H25 H 0.6219 0.5879 0.6313
H26 H 0.5328 0.4938 0.6294
H27 H 0.6670 0.4729 0.6596
C32 C 0.2327(5) 0.6418(5) 0.8375(3)
H28 H 0.2132 0.5849 0.8647
H29 H 0.1886 0.6329 0.7904
H30 H 0.2145 0.7107 0.8540
loop_
_geom_bond_atom_site_label_1
_geom_bond_atom_site_label_2
_geom_bond_site_symmetry_1
_geom_bond_site_symmetry_2
Br1 C6 1_555 1_555
Br2 C20 1_555 1_555
O1 C3 1_555 1_555
O2 C24 1_555 1_555
O3 C17 1_555 1_555
O4 C10 1_555 1_555
C1 H1 1_555 1_555
H2 C1 1_555 1_555
C2 C1 1_555 1_555
C3 C2 1_555 1_555
C4 C3 1_555 1_555
C5 C4 1_555 1_555
H3 C5 1_555 1_555
C6 C5 1_555 1_555
C7 C2 1_555 1_555
H4 C7 1_555 1_555
C8 C4 1_555 1_555
H5 C8 1_555 1_555
H6 C8 1_555 1_555
C9 C8 1_555 1_555
C10 C9 1_555 1_555
C11 C10 1_555 1_555
C12 C11 1_555 1_555
H7 C12 1_555 1_555
C13 C12 1_555 1_555
H8 C13 1_555 1_555
C14 C9 1_555 1_555
H9 C14 1_555 1_555
C15 C11 1_555 1_555
H10 C15 1_555 1_555
H11 C15 1_555 1_555
C16 C15 1_555 1_555
C17 C16 1_555 1_555
C18 C17 1_555 1_555
C19 C18 1_555 1_555
H12 C19 1_555 1_555
C20 C19 1_555 1_555
C21 C16 1_555 1_555
H13 C21 1_555 1_555
C22 C18 1_555 1_555
H14 C22 1_555 1_555
H15 C22 1_555 1_555
C23 C22 1_555 1_555
C24 C23 1_555 1_555
C25 C1 1_555 1_555
C26 C25 1_555 1_555
H16 C26 1_555 1_555
C27 C26 1_555 1_555
H17 C27 1_555 1_555
C28 C23 1_555 1_555
H18 C28 1_555 1_555
C29 O1 1_555 1_555
H19 C29 1_555 1_555
H20 C29 1_555 1_555
H21 C29 1_555 1_555
C30 O2 1_555 1_555
H22 C30 1_555 1_555
H23 C30 1_555 1_555
H24 C30 1_555 1_555
C31 O3 1_555 1_555
H25 C31 1_555 1_555
H26 C31 1_555 1_555
H27 C31 1_555 1_555
C32 O4 1_555 1_555
H28 C32 1_555 1_555
H29 C32 1_555 1_555
H30 C32 1_555 1_555
C6 C7 1_555 1_555
C13 C14 1_555 1_555
C20 C21 1_555 1_555
C24 C25 1_555 1_555
C27 C28 1_555 1_555

#END
