
#######################################################################
#
#                 Cambridge Crystallographic Data Centre
#                                CCDC 
#
#######################################################################
#
# If this CIF has been generated from an entry in the Cambridge 
# Structural Database, then it will include bibliographic, chemical, 
# crystal, experimental, refinement or atomic coordinate data resulting 
# from the CCDC's data processing and validation procedures.
#
#######################################################################

data_GIXDAV
_chemical_formula_moiety         'C44 H50 N2'
_chemical_name_systematic        
26,28-dioctyl-26,28-diazaheptacyclo[19.3.1.1^2,6^.1^3,24^.1^9,13^.1^12,15^.1^14,18^]triaconta-1(25),2(30),3,5,7,9(29),10,12,14(27),15,17,19,21,23-tetradecaene
_symmetry_cell_setting           triclinic
_symmetry_space_group_name_H-M   'P -1'
_symmetry_Int_Tables_number      2
_space_group_name_Hall           '-P 1'
loop_
_symmetry_equiv_pos_site_id
_symmetry_equiv_pos_as_xyz
1 x,y,z
2 -x,-y,-z
_cell_length_a                   10.0077(11)
_cell_length_b                   11.5896(11)
_cell_length_c                   15.7634(18)
_cell_angle_alpha                83.813(3)
_cell_angle_beta                 76.373(3)
_cell_angle_gamma                73.965(3)
_cell_volume                     1705.94
_exptl_crystal_colour            yellow
_exptl_crystal_description       prism
_cell_formula_units_Z            2
loop_
_atom_site_label
_atom_site_type_symbol
_atom_site_fract_x
_atom_site_fract_y
_atom_site_fract_z
C1 C 0.7546(4) 0.1275(3) 0.3313(2)
C2 C 0.7854(4) 0.0688(4) 0.2546(3)
H1 H 0.7442 0.1054 0.2067
C3 C 0.8775(4) -0.0443(4) 0.2497(3)
H2 H 0.9008 -0.0844 0.1966
C4 C 0.9393(4) -0.1038(3) 0.3198(2)
C5 C 0.8964(4) -0.0468(3) 0.3989(2)
H3 H 0.9264 -0.0878 0.4494
C6 C 0.8096(4) 0.0703(3) 0.4040(2)
C7 C 0.7745(3) 0.1609(3) 0.4678(2)
C8 C 0.6991(4) 0.2680(3) 0.4306(2)
C9 C 0.6647(4) 0.3756(3) 0.4722(3)
H4 H 0.6097 0.4475 0.4493
C10 C 0.7121(4) 0.3753(3) 0.5473(3)
H5 H 0.6903 0.4490 0.5751
C11 C 0.7921(4) 0.2704(3) 0.5851(2)
C12 C 0.8148(4) 0.1617(3) 0.5459(2)
H6 H 0.8582 0.0882 0.5730
C13 C 0.8469(4) 0.2839(4) 0.6606(3)
H7 H 0.7945 0.3548 0.6906
C14 C 0.9535(5) 0.2195(4) 0.6971(3)
H8 H 0.9622 0.2573 0.7454
C15 C 0.5838(5) 0.3235(5) 0.2999(3)
H9 H 0.5062 0.3762 0.3409
H10 H 0.5404 0.2730 0.2736
C16 C 0.6486(4) 0.4019(3) 0.2278(2)
H11 H 0.7227 0.3505 0.1842
H12 H 0.6945 0.4518 0.2526
C17 C 0.5348(4) 0.4826(3) 0.1834(3)
H13 H 0.4890 0.4312 0.1599
H14 H 0.4608 0.5321 0.2282
C18 C 0.5868(4) 0.5657(3) 0.1099(2)
H15 H 0.6560 0.5168 0.0630
H16 H 0.6370 0.6146 0.1321
C19 C 0.4670(4) 0.6492(3) 0.0716(2)
H17 H 0.4247 0.6001 0.0432
H18 H 0.3920 0.6900 0.1200
C20 C 0.5111(4) 0.7435(3) 0.0058(3)
H19 H 0.5807 0.7030 -0.0447
H20 H 0.5596 0.7890 0.0327
C21 C 0.3888(5) 0.8315(4) -0.0270(3)
H21 H 0.3405 0.7863 -0.0543
H22 H 0.3188 0.8721 0.0235
C22 C 0.4350(6) 0.9249(4) -0.0920(3)
H23 H 0.4925 0.8866 -0.1459
H24 H 0.4919 0.9641 -0.0677
H25 H 0.3509 0.9850 -0.1048
N1 N 0.6820(3) 0.2454(3) 0.3496(2)
C1A C 1.2454(4) -0.1275(3) 0.6687(2)
C2A C 1.2146(4) -0.0688(4) 0.7454(3)
H1A H 1.2558 -0.1054 0.7933
C3A C 1.1225(4) 0.0443(4) 0.7503(3)
H2A H 1.0992 0.0844 0.8034
C4A C 1.0607(4) 0.1038(3) 0.6802(2)
C5A C 1.1036(4) 0.0468(3) 0.6011(2)
H3A H 1.0736 0.0878 0.5506
C6A C 1.1904(4) -0.0703(3) 0.5960(2)
C7A C 1.2255(3) -0.1609(3) 0.5322(2)
C8A C 1.3009(4) -0.2680(3) 0.5694(2)
C9A C 1.3353(4) -0.3756(3) 0.5278(3)
H4A H 1.3903 -0.4475 0.5507
C10A C 1.2879(4) -0.3753(3) 0.4527(3)
H5A H 1.3097 -0.4490 0.4249
C11A C 1.2079(4) -0.2704(3) 0.4149(2)
C12A C 1.1852(4) -0.1617(3) 0.4541(2)
H6A H 1.1418 -0.0882 0.4270
C13A C 1.1531(4) -0.2839(4) 0.3394(3)
H7A H 1.2055 -0.3548 0.3094
C14A C 1.0465(5) -0.2195(4) 0.3029(3)
H8A H 1.0378 -0.2573 0.2546
C15A C 1.4162(5) -0.3235(5) 0.7001(3)
H9A H 1.4938 -0.3762 0.6591
H10A H 1.4596 -0.2730 0.7264
C16A C 1.3514(4) -0.4019(3) 0.7722(2)
H11A H 1.2773 -0.3505 0.8158
H12A H 1.3055 -0.4518 0.7474
C17A C 1.4652(4) -0.4826(3) 0.8166(3)
H13A H 1.5110 -0.4312 0.8401
H14A H 1.5392 -0.5321 0.7718
C18A C 1.4132(4) -0.5657(3) 0.8901(2)
H15A H 1.3440 -0.5168 0.9370
H16A H 1.3630 -0.6146 0.8679
C19A C 1.5330(4) -0.6492(3) 0.9284(2)
H17A H 1.5753 -0.6001 0.9568
H18A H 1.6080 -0.6900 0.8800
C20A C 1.4889(4) -0.7435(3) 0.9942(3)
H19A H 1.4193 -0.7030 1.0447
H20A H 1.4404 -0.7890 0.9673
C21A C 1.6112(5) -0.8315(4) 1.0270(3)
H21A H 1.6595 -0.7863 1.0543
H22A H 1.6812 -0.8721 0.9765
C22A C 1.5650(6) -0.9249(4) 1.0920(3)
H23A H 1.5075 -0.8866 1.1459
H24A H 1.5081 -0.9641 1.0677
H25A H 1.6491 -0.9850 1.1048
N1A N 1.3180(3) -0.2454(3) 0.6504(2)
C23 C 0.2762(5) 0.0929(4) 0.3171(3)
C24 C 0.2853(7) 0.0044(6) 0.2603(3)
H26 H 0.2184 0.0152 0.2244
C25 C 0.3928(7) -0.0968(6) 0.2585(3)
H27 H 0.3985 -0.1577 0.2210
C26 C 0.4951(5) -0.1171(4) 0.3081(3)
C27 C 0.4929(4) -0.0234(3) 0.3584(2)
H28 H 0.5686 -0.0307 0.3870
C28 C 0.3815(4) 0.0794(4) 0.3667(2)
C29 C 0.3344(4) 0.1754(3) 0.4269(3)
C30 C 0.2004(4) 0.2432(4) 0.4095(3)
C31 C 0.1204(6) 0.3348(5) 0.4628(4)
H29 H 0.0342 0.3853 0.4503
C32 C 0.1662(5) 0.3524(4) 0.5336(4)
H30 H 0.1081 0.4146 0.5710
C33 C 0.2979(5) 0.2822(4) 0.5557(3)
C34 C 0.3845(4) 0.1973(3) 0.4967(3)
H31 H 0.4771 0.1547 0.5042
C35 C 0.3260(6) 0.3028(4) 0.6368(4)
H32 H 0.2785 0.3818 0.6554
C36 C 0.4027(6) 0.2387(5) 0.6931(3)
H33 H 0.3891 0.2791 0.7450
C37 C 0.0465(5) 0.2441(4) 0.3038(3)
H34 H -0.0298 0.2954 0.3464
H35 H 0.0109 0.1774 0.2916
C38 C 0.0814(6) 0.3204(5) 0.2170(4)
H36 H 0.1599 0.2698 0.1752
H37 H -0.0033 0.3453 0.1905
C39 C 0.1207(6) 0.4232(5) 0.2306(4)
H38 H 0.2102 0.3969 0.2521
H39 H 0.0463 0.4682 0.2774
C40 C 0.1426(4) 0.5094(4) 0.1508(3)
H40 H 0.1887 0.5683 0.1647
H41 H 0.2091 0.4628 0.1018
C41 C 0.0087(4) 0.5774(4) 0.1206(3)
H42 H -0.0650 0.6114 0.1719
H43 H -0.0270 0.5206 0.0950
C42 C 0.0307(4) 0.6792(4) 0.0530(3)
H44 H 0.0719 0.7331 0.0776
H45 H 0.1011 0.6442 0.0008
C43 C -0.1008(5) 0.7527(4) 0.0249(3)
H46 H -0.1735 0.7842 0.0773
H47 H -0.1388 0.7002 -0.0033
C44 C -0.0767(6) 0.8575(4) -0.0381(4)
H48 H -0.0018 0.8275 -0.0890
H49 H -0.0477 0.9140 -0.0088
H50 H -0.1651 0.8984 -0.0571
N2 N 0.1711(4) 0.1949(4) 0.3422(3)
C23A C 0.7238(5) -0.0929(4) 0.6829(3)
C24A C 0.7147(7) -0.0044(6) 0.7397(3)
H26A H 0.7816 -0.0152 0.7756
C25A C 0.6072(7) 0.0968(6) 0.7415(3)
H27A H 0.6015 0.1577 0.7790
C26A C 0.5049(5) 0.1171(4) 0.6919(3)
C27A C 0.5071(4) 0.0234(3) 0.6416(2)
H28A H 0.4314 0.0307 0.6130
C28A C 0.6185(4) -0.0794(4) 0.6333(2)
C29A C 0.6656(4) -0.1754(3) 0.5731(3)
C30A C 0.7996(4) -0.2432(4) 0.5905(3)
C31A C 0.8796(6) -0.3348(5) 0.5372(4)
H29A H 0.9658 -0.3853 0.5497
C32A C 0.8338(5) -0.3524(4) 0.4664(4)
H30A H 0.8919 -0.4146 0.4290
C33A C 0.7021(5) -0.2822(4) 0.4443(3)
C34A C 0.6155(4) -0.1973(3) 0.5033(3)
H31A H 0.5229 -0.1547 0.4958
C35A C 0.6740(6) -0.3028(4) 0.3632(4)
H32A H 0.7215 -0.3818 0.3446
C36A C 0.5973(6) -0.2387(5) 0.3069(3)
H33A H 0.6109 -0.2791 0.2550
C37A C 0.9535(5) -0.2441(4) 0.6962(3)
H34A H 1.0298 -0.2954 0.6536
H35A H 0.9891 -0.1774 0.7084
C38A C 0.9186(6) -0.3204(5) 0.7830(4)
H36A H 0.8401 -0.2698 0.8248
H37A H 1.0033 -0.3453 0.8095
C39A C 0.8793(6) -0.4232(5) 0.7694(4)
H38A H 0.7898 -0.3969 0.7479
H39A H 0.9537 -0.4682 0.7226
C40A C 0.8574(4) -0.5094(4) 0.8492(3)
H40A H 0.8113 -0.5683 0.8353
H41A H 0.7909 -0.4628 0.8982
C41A C 0.9913(4) -0.5774(4) 0.8794(3)
H42A H 1.0650 -0.6114 0.8281
H43A H 1.0270 -0.5206 0.9050
C42A C 0.9693(4) -0.6792(4) 0.9470(3)
H44A H 0.9281 -0.7331 0.9224
H45A H 0.8989 -0.6442 0.9992
C43A C 1.1008(5) -0.7527(4) 0.9751(3)
H46A H 1.1735 -0.7842 0.9227
H47A H 1.1388 -0.7002 1.0033
C44A C 1.0767(6) -0.8575(4) 1.0381(4)
H48A H 1.0018 -0.8275 1.0890
H49A H 1.0477 -0.9140 1.0088
H50A H 1.1651 -0.8984 1.0571
N2A N 0.8289(4) -0.1949(4) 0.6578(3)
loop_
_geom_bond_atom_site_label_1
_geom_bond_atom_site_label_2
_geom_bond_site_symmetry_1
_geom_bond_site_symmetry_2
C1 C2 1_555 1_555
C2 H1 1_555 1_555
C3 C2 1_555 1_555
H2 C3 1_555 1_555
C4 C3 1_555 1_555
C5 C4 1_555 1_555
H3 C5 1_555 1_555
C6 C1 1_555 1_555
C7 C6 1_555 1_555
C8 C7 1_555 1_555
C9 C8 1_555 1_555
H4 C9 1_555 1_555
C10 C9 1_555 1_555
H5 C10 1_555 1_555
C11 C10 1_555 1_555
C12 C7 1_555 1_555
H6 C12 1_555 1_555
C13 C11 1_555 1_555
H7 C13 1_555 1_555
C14 C13 1_555 1_555
H8 C14 1_555 1_555
C15 H9 1_555 1_555
H10 C15 1_555 1_555
C16 C15 1_555 1_555
H11 C16 1_555 1_555
H12 C16 1_555 1_555
C17 C16 1_555 1_555
H13 C17 1_555 1_555
H14 C17 1_555 1_555
C18 C17 1_555 1_555
H15 C18 1_555 1_555
H16 C18 1_555 1_555
C19 C18 1_555 1_555
H17 C19 1_555 1_555
H18 C19 1_555 1_555
C20 C19 1_555 1_555
H19 C20 1_555 1_555
H20 C20 1_555 1_555
C21 C20 1_555 1_555
H21 C21 1_555 1_555
H22 C21 1_555 1_555
C22 C21 1_555 1_555
H23 C22 1_555 1_555
H24 C22 1_555 1_555
H25 C22 1_555 1_555
N1 C1 1_555 1_555
C23 C24 1_555 1_555
C24 H26 1_555 1_555
C25 C24 1_555 1_555
H27 C25 1_555 1_555
C26 C25 1_555 1_555
C27 C26 1_555 1_555
H28 C27 1_555 1_555
C28 C23 1_555 1_555
C29 C28 1_555 1_555
C30 C29 1_555 1_555
C31 C30 1_555 1_555
H29 C31 1_555 1_555
C32 C31 1_555 1_555
H30 C32 1_555 1_555
C33 C32 1_555 1_555
C34 C29 1_555 1_555
H31 C34 1_555 1_555
C35 C33 1_555 1_555
H32 C35 1_555 1_555
C36 C35 1_555 1_555
H33 C36 1_555 1_555
C37 H34 1_555 1_555
H35 C37 1_555 1_555
C38 C37 1_555 1_555
H36 C38 1_555 1_555
H37 C38 1_555 1_555
C39 C38 1_555 1_555
H38 C39 1_555 1_555
H39 C39 1_555 1_555
C40 C39 1_555 1_555
H40 C40 1_555 1_555
H41 C40 1_555 1_555
C41 C40 1_555 1_555
H42 C41 1_555 1_555
H43 C41 1_555 1_555
C42 C41 1_555 1_555
H44 C42 1_555 1_555
H45 C42 1_555 1_555
C43 C42 1_555 1_555
H46 C43 1_555 1_555
H47 C43 1_555 1_555
C44 C43 1_555 1_555
H48 C44 1_555 1_555
H49 C44 1_555 1_555
H50 C44 1_555 1_555
N2 C23 1_555 1_555
C1A C2A 1_555 1_555
C2A H1A 1_555 1_555
C3A C2A 1_555 1_555
H2A C3A 1_555 1_555
C4A C14 1_555 1_555
C5A C4A 1_555 1_555
H3A C5A 1_555 1_555
C6A C1A 1_555 1_555
C7A C6A 1_555 1_555
C8A C7A 1_555 1_555
C9A C8A 1_555 1_555
H4A C9A 1_555 1_555
C10A C9A 1_555 1_555
H5A C10A 1_555 1_555
C11A C10A 1_555 1_555
C12A C7A 1_555 1_555
H6A C12A 1_555 1_555
C13A C11A 1_555 1_555
H7A C13A 1_555 1_555
C14A C4 1_555 1_555
H8A C14A 1_555 1_555
C15A H9A 1_555 1_555
H10A C15A 1_555 1_555
C16A C15A 1_555 1_555
H11A C16A 1_555 1_555
H12A C16A 1_555 1_555
C17A C16A 1_555 1_555
H13A C17A 1_555 1_555
H14A C17A 1_555 1_555
C18A C17A 1_555 1_555
H15A C18A 1_555 1_555
H16A C18A 1_555 1_555
C19A C18A 1_555 1_555
H17A C19A 1_555 1_555
H18A C19A 1_555 1_555
C20A C19A 1_555 1_555
H19A C20A 1_555 1_555
H20A C20A 1_555 1_555
C21A C20A 1_555 1_555
H21A C21A 1_555 1_555
H22A C21A 1_555 1_555
C22A C21A 1_555 1_555
H23A C22A 1_555 1_555
H24A C22A 1_555 1_555
H25A C22A 1_555 1_555
N1A C1A 1_555 1_555
C23A C24A 1_555 1_555
C24A H26A 1_555 1_555
C25A C24A 1_555 1_555
H27A C25A 1_555 1_555
C26A C36 1_555 1_555
C27A C26A 1_555 1_555
H28A C27A 1_555 1_555
C28A C23A 1_555 1_555
C29A C28A 1_555 1_555
C30A C29A 1_555 1_555
C31A C30A 1_555 1_555
H29A C31A 1_555 1_555
C32A C31A 1_555 1_555
H30A C32A 1_555 1_555
C33A C32A 1_555 1_555
C34A C29A 1_555 1_555
H31A C34A 1_555 1_555
C35A C33A 1_555 1_555
H32A C35A 1_555 1_555
C36A C26 1_555 1_555
H33A C36A 1_555 1_555
C37A H34A 1_555 1_555
H35A C37A 1_555 1_555
C38A C37A 1_555 1_555
H36A C38A 1_555 1_555
H37A C38A 1_555 1_555
C39A C38A 1_555 1_555
H38A C39A 1_555 1_555
H39A C39A 1_555 1_555
C40A C39A 1_555 1_555
H40A C40A 1_555 1_555
H41A C40A 1_555 1_555
C41A C40A 1_555 1_555
H42A C41A 1_555 1_555
H43A C41A 1_555 1_555
C42A C41A 1_555 1_555
H44A C42A 1_555 1_555
H45A C42A 1_555 1_555
C43A C42A 1_555 1_555
H46A C43A 1_555 1_555
H47A C43A 1_555 1_555
C44A C43A 1_555 1_555
H48A C44A 1_555 1_555
H49A C44A 1_555 1_555
H50A C44A 1_555 1_555
N2A C23A 1_555 1_555
C5 C6 1_555 1_555
C8 N1 1_555 1_555
C11 C12 1_555 1_555
C15 N1 1_555 1_555
C27 C28 1_555 1_555
C30 N2 1_555 1_555
C33 C34 1_555 1_555
C37 N2 1_555 1_555
C3A C4A 1_555 1_555
C5A C6A 1_555 1_555
C8A N1A 1_555 1_555
C11A C12A 1_555 1_555
C13A C14A 1_555 1_555
C15A N1A 1_555 1_555
C25A C26A 1_555 1_555
C27A C28A 1_555 1_555
C30A N2A 1_555 1_555
C33A C34A 1_555 1_555
C35A C36A 1_555 1_555
C37A N2A 1_555 1_555

#END
