
#######################################################################
#
#                 Cambridge Crystallographic Data Centre
#                                CCDC 
#
#######################################################################
#
# If this CIF has been generated from an entry in the Cambridge 
# Structural Database, then it will include bibliographic, chemical, 
# crystal, experimental, refinement or atomic coordinate data resulting 
# from the CCDC's data processing and validation procedures.
#
#######################################################################

data_GIXFUQ
_chemical_formula_moiety         'C23 H24 F5 N3 O3'
_chemical_name_systematic        
N-(5-((5-anilino-5-oxopentyl)amino)-5-oxopentyl)-2,3,4,5,6-pentafluorobenzamide
_symmetry_cell_setting           monoclinic
_symmetry_space_group_name_H-M   'P 21/c'
_symmetry_Int_Tables_number      14
_space_group_name_Hall           '-P 2ybc'
loop_
_symmetry_equiv_pos_site_id
_symmetry_equiv_pos_as_xyz
1 x,y,z
2 -x,1/2+y,1/2-z
3 -x,-y,-z
4 x,1/2-y,1/2+z
_cell_length_a                   16.8272(18)
_cell_length_b                   9.5857(10)
_cell_length_c                   13.9962(14)
_cell_angle_alpha                90
_cell_angle_beta                 91.955(2)
_cell_angle_gamma                90
_cell_volume                     2256.28
_exptl_crystal_colour            colorless
_exptl_crystal_description       prismatic
_cell_formula_units_Z            4
loop_
_atom_site_label
_atom_site_type_symbol
_atom_site_fract_x
_atom_site_fract_y
_atom_site_fract_z
F1 F 0.16943(9) 0.63324(12) 1.36020(8)
F2 F 0.04838(9) 0.78551(14) 1.42182(10)
F3 F -0.01990(9) 0.98243(18) 1.30737(12)
F4 F 0.03258(10) 1.02159(17) 1.12976(12)
F5 F 0.15060(9) 0.86590(13) 1.06444(9)
N1 N 0.28766(11) 0.71346(18) 1.13322(11)
N2 N 0.52762(10) 0.63992(17) 0.71173(12)
N3 N 0.75553(11) 0.72169(17) 0.27611(12)
O1 O 0.22301(10) 0.52274(14) 1.18198(11)
O2 O 0.47845(9) 0.44222(12) 0.77014(10)
O3 O 0.71428(9) 0.50759(12) 0.32042(10)
C1 C 0.13484(13) 0.72527(19) 1.29968(14)
C2 C 0.07327(14) 0.8034(2) 1.33323(15)
C3 C 0.03924(14) 0.9030(2) 1.27558(19)
C4 C 0.06579(14) 0.9234(2) 1.18572(18)
C5 C 0.12745(13) 0.8433(2) 1.15330(15)
C6 C 0.16352(12) 0.74233(17) 1.20979(13)
C7 C 0.22834(13) 0.64903(19) 1.17376(12)
C8 C 0.35035(14) 0.6396(2) 1.08480(15)
H1 H 0.3380 0.5408 1.0832
H2 H 0.4002 0.6514 1.1209
C9 C 0.36007(12) 0.69051(18) 0.98515(13)
H3 H 0.3783 0.7865 0.9876
H4 H 0.3086 0.6894 0.9518
C10 C 0.41800(12) 0.60529(18) 0.92837(13)
H5 H 0.4697 0.6071 0.9611
H6 H 0.4001 0.5091 0.9261
C11 C 0.42635(13) 0.65743(18) 0.82812(15)
H7 H 0.4469 0.7520 0.8308
H8 H 0.3740 0.6608 0.7969
C12 C 0.48020(12) 0.56998(18) 0.76813(13)
C13 C 0.57804(14) 0.57201(19) 0.64371(16)
H9 H 0.5496 0.4939 0.6147
H10 H 0.6251 0.5357 0.6771
C14 C 0.60263(12) 0.67030(18) 0.56715(14)
H11 H 0.6340 0.7448 0.5964
H12 H 0.5553 0.7119 0.5376
C15 C 0.65027(13) 0.60273(18) 0.49057(15)
H13 H 0.6973 0.5603 0.5202
H14 H 0.6187 0.5289 0.4609
C16 C 0.67551(14) 0.70168(18) 0.41456(15)
H15 H 0.7107 0.7711 0.4435
H16 H 0.6289 0.7499 0.3888
C17 C 0.71706(12) 0.63321(18) 0.33404(14)
C18 C 0.79488(12) 0.69142(19) 0.19151(14)
C19 C 0.78497(13) 0.5691(2) 0.14057(14)
H17 H 0.7519 0.4995 0.1629
C20 C 0.82392(14) 0.5502(2) 0.05662(16)
H18 H 0.8175 0.4667 0.0234
C21 C 0.87179(16) 0.6513(3) 0.02121(18)
H19 H 0.8976 0.6377 -0.0358
C22 C 0.88111(17) 0.7727(3) 0.07104(19)
H20 H 0.9131 0.8428 0.0472
C23 C 0.84424(15) 0.7933(2) 0.15571(17)
H21 H 0.8524 0.8760 0.1893
H22 H 0.5281(13) 0.730(2) 0.7123(15)
H23 H 0.2898(11) 0.798(2) 1.1308(13)
H24 H 0.7595(14) 0.802(2) 0.2955(16)
loop_
_geom_bond_atom_site_label_1
_geom_bond_atom_site_label_2
_geom_bond_site_symmetry_1
_geom_bond_site_symmetry_2
F1 C1 1_555 1_555
F2 C2 1_555 1_555
F3 C3 1_555 1_555
F4 C4 1_555 1_555
F5 C5 1_555 1_555
N1 C7 1_555 1_555
N2 C12 1_555 1_555
N3 C17 1_555 1_555
O1 C7 1_555 1_555
O2 C12 1_555 1_555
O3 C17 1_555 1_555
C1 C2 1_555 1_555
C2 C3 1_555 1_555
C3 C4 1_555 1_555
C4 C5 1_555 1_555
C5 C6 1_555 1_555
C6 C1 1_555 1_555
C7 C6 1_555 1_555
C8 N1 1_555 1_555
H1 C8 1_555 1_555
H2 C8 1_555 1_555
C9 C8 1_555 1_555
H3 C9 1_555 1_555
H4 C9 1_555 1_555
C10 C9 1_555 1_555
H5 C10 1_555 1_555
H6 C10 1_555 1_555
C11 C10 1_555 1_555
H7 C11 1_555 1_555
H8 C11 1_555 1_555
C12 C11 1_555 1_555
C13 N2 1_555 1_555
H9 C13 1_555 1_555
H10 C13 1_555 1_555
C14 C13 1_555 1_555
H11 C14 1_555 1_555
H12 C14 1_555 1_555
C15 C14 1_555 1_555
H13 C15 1_555 1_555
H14 C15 1_555 1_555
C16 C15 1_555 1_555
H15 C16 1_555 1_555
H16 C16 1_555 1_555
C17 C16 1_555 1_555
C18 N3 1_555 1_555
C19 C18 1_555 1_555
H17 C19 1_555 1_555
C20 C19 1_555 1_555
H18 C20 1_555 1_555
C21 C20 1_555 1_555
H19 C21 1_555 1_555
C22 C21 1_555 1_555
H20 C22 1_555 1_555
C23 C18 1_555 1_555
H21 C23 1_555 1_555
H22 N2 1_555 1_555
H23 N1 1_555 1_555
H24 N3 1_555 1_555
C22 C23 1_555 1_555

#END
