
#######################################################################
#
#                 Cambridge Crystallographic Data Centre
#                                CCDC 
#
#######################################################################
#
# If this CIF has been generated from an entry in the Cambridge 
# Structural Database, then it will include bibliographic, chemical, 
# crystal, experimental, refinement or atomic coordinate data resulting 
# from the CCDC's data processing and validation procedures.
#
#######################################################################

data_GIXHON
_chemical_formula_moiety         'C26 H21 N1 O1'
_chemical_name_systematic        
'4-[2a-methyl-5-(4-methylphenyl)-2a,3-dihydro-2H-naphtho[1,8-bc]furan-4-yl]benzonitrile unknown solvate'
_symmetry_cell_setting           triclinic
_symmetry_space_group_name_H-M   'P -1'
_symmetry_Int_Tables_number      2
_space_group_name_Hall           '-P 1'
loop_
_symmetry_equiv_pos_site_id
_symmetry_equiv_pos_as_xyz
1 x,y,z
2 -x,-y,-z
_cell_length_a                   8.089(4)
_cell_length_b                   9.288(5)
_cell_length_c                   16.784(8)
_cell_angle_alpha                100.577(16)
_cell_angle_beta                 96.431(16)
_cell_angle_gamma                111.636(15)
_cell_volume                     1129.74
_exptl_crystal_colour            colorless
_exptl_crystal_description       block
_cell_formula_units_Z            2
loop_
_atom_site_label
_atom_site_type_symbol
_atom_site_fract_x
_atom_site_fract_y
_atom_site_fract_z
O1 O 0.6479(3) 0.8391(3) 0.53196(14)
C1 C 0.8802(4) 0.0444(4) 0.26634(19)
N1 N 0.9928(5) -0.1784(4) 0.2196(2)
C2 C 0.7587(4) 0.2826(4) 0.3218(2)
C3 C 0.6932(4) 0.4096(4) 0.3510(2)
C4 C 0.5866(4) 0.4482(4) 0.2981(2)
C5 C 0.6941(5) 0.1388(4) 0.3443(2)
H1 H 0.607855 0.121913 0.379290
C6 C 0.6102(4) 0.6674(4) 0.4091(2)
C7 C 0.5515(4) 0.7737(4) 0.4515(2)
C8 C 0.7523(5) 0.0188(5) 0.3169(2)
H2 H 0.705471 -0.079599 0.332481
C9 C 0.5246(4) 0.5735(4) 0.3303(2)
C10 C 0.7713(4) 0.6635(4) 0.4603(2)
C11 C 0.9473(4) 0.7698(5) 0.4384(2)
H3 H 0.950287 0.727358 0.380846
H4 H 1.051587 0.771472 0.474997
H5 H 0.952611 0.878616 0.445246
C12 C 0.7521(5) 0.4908(4) 0.44350(19)
H6 H 0.661335 0.431310 0.473343
H7 H 0.869642 0.487745 0.464805
C13 C 0.9491(5) 0.1887(5) 0.2435(2)
H8 H 1.037799 0.206561 0.209664
C14 C 0.7500(5) 0.7395(5) 0.5461(2)
H9 H 0.682688 0.655696 0.573083
H10 H 0.870384 0.806010 0.581877
C15 C 0.3282(4) 0.7174(4) 0.3341(2)
H11 H 0.234178 0.738636 0.306187
C16 C 0.4099(5) 0.8037(4) 0.4158(2)
H12 H 0.369894 0.878498 0.444882
C17 C 0.8865(5) 0.3064(5) 0.2706(2)
H13 H 0.931113 0.404061 0.254204
C18 C 0.3798(5) 0.6011(5) 0.2920(2)
H14 H 0.316797 0.541024 0.237674
C19 C 0.9441(5) -0.0774(5) 0.2397(2)
C20 C 0.5160(5) 0.3567(5) 0.2098(2)
C21 C 0.3973(6) 0.1948(5) 0.1904(3)
H15 H 0.364433 0.143668 0.233726
C22 C 0.5632(7) 0.4300(6) 0.1464(2)
H16 H 0.641164 0.540069 0.158733
C23 C 0.3281(7) 0.1095(6) 0.1095(3)
H17 H 0.245697 0.000814 0.097356
C24 C 0.4968(8) 0.3430(7) 0.0640(3)
H18 H 0.531999 0.393181 0.020602
C25 C 0.3782(8) 0.1815(7) 0.0457(3)
C26 C 0.3061(10) 0.0893(8) -0.0450(3)
H19 H 0.325898 -0.009883 -0.053364
H20 H 0.370258 0.154838 -0.080359
H21 H 0.176001 0.063924 -0.059357
loop_
_geom_bond_atom_site_label_1
_geom_bond_atom_site_label_2
_geom_bond_site_symmetry_1
_geom_bond_site_symmetry_2
O1 C7 1_555 1_555
C1 C8 1_555 1_555
N1 C19 1_555 1_555
C2 C3 1_555 1_555
C3 C4 1_555 1_555
C4 C9 1_555 1_555
C5 C2 1_555 1_555
H1 C5 1_555 1_555
C6 C7 1_555 1_555
C7 C16 1_555 1_555
C8 C5 1_555 1_555
H2 C8 1_555 1_555
C9 C6 1_555 1_555
C10 C6 1_555 1_555
C11 C10 1_555 1_555
H3 C11 1_555 1_555
H4 C11 1_555 1_555
H5 C11 1_555 1_555
C12 C3 1_555 1_555
H6 C12 1_555 1_555
H7 C12 1_555 1_555
C13 C1 1_555 1_555
H8 C13 1_555 1_555
C14 O1 1_555 1_555
H9 C14 1_555 1_555
H10 C14 1_555 1_555
C15 H11 1_555 1_555
C16 C15 1_555 1_555
H12 C16 1_555 1_555
C17 C2 1_555 1_555
H13 C17 1_555 1_555
C18 C9 1_555 1_555
H14 C18 1_555 1_555
C19 C1 1_555 1_555
C20 C4 1_555 1_555
C21 C20 1_555 1_555
H15 C21 1_555 1_555
C22 C20 1_555 1_555
H16 C22 1_555 1_555
C23 C21 1_555 1_555
H17 C23 1_555 1_555
C24 C22 1_555 1_555
H18 C24 1_555 1_555
C25 C23 1_555 1_555
C26 C25 1_555 1_555
H19 C26 1_555 1_555
H20 C26 1_555 1_555
H21 C26 1_555 1_555
C10 C12 1_555 1_555
C10 C14 1_555 1_555
C13 C17 1_555 1_555
C15 C18 1_555 1_555
C24 C25 1_555 1_555

#END
