
#######################################################################
#
#                 Cambridge Crystallographic Data Centre
#                                CCDC 
#
#######################################################################
#
# If this CIF has been generated from an entry in the Cambridge 
# Structural Database, then it will include bibliographic, chemical, 
# crystal, experimental, refinement or atomic coordinate data resulting 
# from the CCDC's data processing and validation procedures.
#
#######################################################################

data_GIXHUR
_chemical_formula_moiety         'C12 H8 P8'
_chemical_name_systematic        
1,2,3,10,11,12,19,20-Octaphosphaheptacyclo(8.8.2.0^2,11^.0^3,20^.0^4,9^.0^12,19^.0^13,18^)icosa-4(9),5,7,13(18),14,16-hexaene
_symmetry_cell_setting           triclinic
_symmetry_space_group_name_H-M   'P -1'
_symmetry_Int_Tables_number      2
_space_group_name_Hall           '-P 1'
loop_
_symmetry_equiv_pos_site_id
_symmetry_equiv_pos_as_xyz
1 x,y,z
2 -x,-y,-z
_cell_length_a                   6.6704(1)
_cell_length_b                   10.8568(2)
_cell_length_c                   10.9239(2)
_cell_angle_alpha                92.7378(11)
_cell_angle_beta                 92.6832(12)
_cell_angle_gamma                107.1699(11)
_cell_volume                     753.441
_exptl_crystal_colour            yellow
_exptl_crystal_description       block
_cell_formula_units_Z            2
_exptl_crystal_recrystallization_method tetrahydrofuran/n-hexane
loop_
_atom_site_label
_atom_site_type_symbol
_atom_site_fract_x
_atom_site_fract_y
_atom_site_fract_z
P1 P -0.00624(10) 0.54750(6) 0.69279(5)
P2 P 0.32002(10) 0.57412(6) 0.63275(5)
P3 P 0.05340(9) 0.62437(6) 0.88758(5)
P4 P 0.52098(10) 0.66718(6) 0.80105(6)
C1 C 0.2205(4) 0.7891(2) 0.8696(2)
C2 C 0.1474(4) 0.8943(2) 0.8948(2)
H1 H 0.0101 0.8813 0.9223
C3 C 0.2762(5) 1.0189(3) 0.8797(2)
H2 H 0.2259 1.0909 0.8960
C4 C 0.4768(5) 1.0380(3) 0.8412(2)
H3 H 0.5640 1.1232 0.8315
C5 C 0.5522(4) 0.9334(3) 0.8164(2)
H4 H 0.6903 0.9474 0.7898
C6 C 0.4250(4) 0.8078(2) 0.8306(2)
P5 P -0.08583(10) 0.35220(6) 0.76564(6)
P6 P 0.38096(10) 0.38936(6) 0.67675(6)
C7 C -0.0502(4) 0.2597(2) 0.6280(2)
C8 C -0.2236(4) 0.1772(2) 0.5603(2)
H5 H -0.3612 0.1668 0.5864
C9 C -0.1948(4) 0.1101(3) 0.4544(2)
H6 H -0.3133 0.0549 0.4072
C10 C 0.0055(5) 0.1230(3) 0.4174(2)
H7 H 0.0239 0.0751 0.3460
C11 C 0.1792(4) 0.2055(2) 0.4839(2)
H8 H 0.3163 0.2144 0.4576
C12 C 0.1535(4) 0.2753(2) 0.5890(2)
P7 P 0.32609(10) 0.55707(6) 0.94180(5)
P8 P 0.22463(10) 0.35873(6) 0.85226(5)
loop_
_geom_bond_atom_site_label_1
_geom_bond_atom_site_label_2
_geom_bond_site_symmetry_1
_geom_bond_site_symmetry_2
P1 P2 1_555 1_555
P2 P4 1_555 1_555
P3 P1 1_555 1_555
P4 C6 1_555 1_555
C1 P3 1_555 1_555
C2 C1 1_555 1_555
H1 C2 1_555 1_555
C3 C2 1_555 1_555
H2 C3 1_555 1_555
C4 C3 1_555 1_555
H3 C4 1_555 1_555
C5 C4 1_555 1_555
H4 C5 1_555 1_555
C6 C1 1_555 1_555
P5 P1 1_555 1_555
P6 P2 1_555 1_555
C7 P5 1_555 1_555
C8 C7 1_555 1_555
H5 C8 1_555 1_555
C9 C8 1_555 1_555
H6 C9 1_555 1_555
C10 C9 1_555 1_555
H7 C10 1_555 1_555
C11 C10 1_555 1_555
H8 C11 1_555 1_555
C12 P6 1_555 1_555
P7 P3 1_555 1_555
P8 P5 1_555 1_555
P4 P7 1_555 1_555
C5 C6 1_555 1_555
P6 P8 1_555 1_555
C7 C12 1_555 1_555
C11 C12 1_555 1_555
P7 P8 1_555 1_555

#END
