
#######################################################################
#
#                 Cambridge Crystallographic Data Centre
#                                CCDC 
#
#######################################################################
#
# If this CIF has been generated from an entry in the Cambridge 
# Structural Database, then it will include bibliographic, chemical, 
# crystal, experimental, refinement or atomic coordinate data resulting 
# from the CCDC's data processing and validation procedures.
#
#######################################################################

data_GIXJUS
_chemical_formula_moiety         'C36 H24 F12 N4 O4'
_chemical_name_systematic        
7,15-bis(Trifluoroacetyl)-4,12-bis(trifluoromethyl)-3,11-dioxa-5,7,13,15-tetra-aza-1,6,9,14(1,3)-tetrabenzenacyclohexadecaphane-4,12-diene
_symmetry_cell_setting           triclinic
_symmetry_space_group_name_H-M   'P -1'
_symmetry_Int_Tables_number      2
_space_group_name_Hall           '-P 1'
loop_
_symmetry_equiv_pos_site_id
_symmetry_equiv_pos_as_xyz
1 x,y,z
2 -x,-y,-z
_cell_length_a                   8.622(5)
_cell_length_b                   9.715(5)
_cell_length_c                   11.296(6)
_cell_angle_alpha                90.50(4)
_cell_angle_beta                 104.34(4)
_cell_angle_gamma                108.76(4)
_cell_volume                     863.965
_exptl_crystal_colour            colorless
_exptl_crystal_description       plates
_cell_formula_units_Z            1
_exptl_crystal_recrystallization_method dichloromethane/methylcyclohexane
loop_
_atom_site_label
_atom_site_type_symbol
_atom_site_fract_x
_atom_site_fract_y
_atom_site_fract_z
C1 C 0.4899(4) 0.2635(4) 0.9650(3)
H1 H 0.5108(4) 0.2097(4) 1.0357(3)
H2 H 0.3938(4) 0.2941(4) 0.9668(3)
N1 N 0.4443(3) 0.1648(3) 0.8527(2)
C2 C 0.2880(4) 0.1531(3) 0.7620(3)
C3 C 0.1356(4) 0.0840(3) 0.7890(3)
H3 H 0.1335(4) 0.0423(3) 0.8626(3)
C4 C -0.0143(4) 0.0777(3) 0.7045(3)
H4 H -0.1177(4) 0.0319(3) 0.7218(3)
C5 C -0.0115(4) 0.1389(3) 0.5946(3)
H5 H -0.1129(4) 0.1321(3) 0.5379(3)
C6 C 0.1415(4) 0.2101(3) 0.5690(3)
C7 C 0.2929(4) 0.2161(3) 0.6526(3)
H6 H 0.3964(4) 0.2618(3) 0.6353(3)
N2 N 0.1415(3) 0.2634(3) 0.4520(2)
C8 C 0.1904(4) 0.3952(4) 0.4339(3)
O1 O 0.1946(3) 0.4419(2) 0.3231(2)
C9 C 0.1458(4) 0.3302(3) 0.2218(3)
H7 H 0.0258(4) 0.2743(3) 0.2052(3)
H8 H 0.2099(4) 0.2640(3) 0.2421(3)
C10 C 0.1824(4) 0.4053(3) 0.1118(3)
C11 C 0.0760(4) 0.3500(3) -0.0038(3)
H9 H -0.0186(4) 0.2664(3) -0.0132(3)
C12 C 0.1108(4) 0.4198(4) -0.1054(3)
H10 H 0.0406(4) 0.3817(4) -0.1834(3)
C13 C 0.2489(4) 0.5451(4) -0.0916(3)
H11 H 0.2702(4) 0.5919(4) -0.1603(3)
C14 C 0.6438(4) 0.3979(3) 0.9767(3)
C15 C 0.3209(4) 0.5297(3) 0.1231(3)
H12 H 0.3931(4) 0.5663(3) 0.2008(3)
C16 C 0.5370(5) 0.0790(4) 0.8500(3)
O2 O 0.6633(3) 0.0843(3) 0.9310(2)
C17 C 0.4845(5) -0.0325(4) 0.7377(4)
F1 F 0.3245(3) -0.1179(2) 0.7117(2)
F2 F 0.5768(3) -0.1209(2) 0.7568(2)
F3 F 0.5101(4) 0.0316(3) 0.6375(2)
C18 C 0.2575(5) 0.5272(4) 0.5270(3)
F4 F 0.2615(4) 0.6499(2) 0.4800(2)
F5 F 0.4104(3) 0.5444(3) 0.5959(3)
F6 F 0.1631(4) 0.5133(3) 0.6058(2)
C14A C 0.3562(4) 0.6021(3) 0.0233(3)
C1A C 0.5101(4) 0.7365(4) 0.0350(3)
H1A H 0.4892(4) 0.7903(4) -0.0357(3)
H2A H 0.6062(4) 0.7059(4) 0.0332(3)
N1A N 0.5557(3) 0.8352(3) 0.1473(2)
C2A C 0.7120(4) 0.8469(3) 0.2380(3)
C3A C 0.8644(4) 0.9160(3) 0.2110(3)
H3A H 0.8665(4) 0.9577(3) 0.1374(3)
C4A C 1.0143(4) 0.9223(3) 0.2955(3)
H4A H 1.1177(4) 0.9681(3) 0.2782(3)
C5A C 1.0115(4) 0.8611(3) 0.4054(3)
H5A H 1.1129(4) 0.8679(3) 0.4621(3)
C6A C 0.8585(4) 0.7899(3) 0.4310(3)
C7A C 0.7071(4) 0.7839(3) 0.3474(3)
H6A H 0.6036(4) 0.7382(3) 0.3647(3)
N2A N 0.8585(3) 0.7366(3) 0.5480(2)
C8A C 0.8096(4) 0.6048(4) 0.5661(3)
O1A O 0.8054(3) 0.5581(2) 0.6769(2)
C9A C 0.8542(4) 0.6698(3) 0.7782(3)
H7A H 0.9742(4) 0.7257(3) 0.7948(3)
H8A H 0.7901(4) 0.7360(3) 0.7579(3)
C10A C 0.8176(4) 0.5947(3) 0.8882(3)
C11A C 0.9240(4) 0.6500(3) 1.0038(3)
H9A H 1.0186(4) 0.7336(3) 1.0132(3)
C12A C 0.8892(4) 0.5802(4) 1.1054(3)
H10A H 0.9594(4) 0.6183(4) 1.1834(3)
C13A C 0.7511(4) 0.4549(4) 1.0916(3)
H11A H 0.7298(4) 0.4081(4) 1.1603(3)
C15A C 0.6791(4) 0.4703(3) 0.8769(3)
H12A H 0.6069(4) 0.4337(3) 0.7992(3)
C18A C 0.7425(5) 0.4728(4) 0.4730(3)
F4A F 0.7385(4) 0.3501(2) 0.5200(2)
F5A F 0.5896(3) 0.4556(3) 0.4041(3)
F6A F 0.8369(4) 0.4867(3) 0.3942(2)
C16A C 0.4630(5) 0.9210(4) 0.1500(3)
O2A O 0.3367(3) 0.9157(3) 0.0690(2)
C17A C 0.5155(5) 1.0325(4) 0.2623(4)
F1A F 0.6755(3) 1.1179(2) 0.2883(2)
F2A F 0.4232(3) 1.1209(2) 0.2432(2)
F3A F 0.4899(4) 0.9684(3) 0.3625(2)
loop_
_geom_bond_atom_site_label_1
_geom_bond_atom_site_label_2
_geom_bond_site_symmetry_1
_geom_bond_site_symmetry_2
C1 H1 1_555 1_555
H2 C1 1_555 1_555
N1 C1 1_555 1_555
C2 N1 1_555 1_555
C3 C2 1_555 1_555
H3 C3 1_555 1_555
C4 C3 1_555 1_555
H4 C4 1_555 1_555
C5 C4 1_555 1_555
H5 C5 1_555 1_555
C6 C5 1_555 1_555
C7 C2 1_555 1_555
H6 C7 1_555 1_555
N2 C6 1_555 1_555
C8 N2 1_555 1_555
O1 C8 1_555 1_555
C9 O1 1_555 1_555
H7 C9 1_555 1_555
H8 C9 1_555 1_555
C10 C9 1_555 1_555
C11 C10 1_555 1_555
H9 C11 1_555 1_555
C12 C11 1_555 1_555
H10 C12 1_555 1_555
C13 C12 1_555 1_555
H11 C13 1_555 1_555
C14 C1 1_555 1_555
C15 C10 1_555 1_555
H12 C15 1_555 1_555
C16 N1 1_555 1_555
O2 C16 1_555 1_555
C17 C16 1_555 1_555
F1 C17 1_555 1_555
F2 C17 1_555 1_555
F3 C17 1_555 1_555
C18 C8 1_555 1_555
F4 C18 1_555 1_555
F5 C18 1_555 1_555
F6 C18 1_555 1_555
C14A C13 1_555 1_555
C1A C14A 1_555 1_555
H1A C1A 1_555 1_555
H2A C1A 1_555 1_555
N1A C1A 1_555 1_555
C2A N1A 1_555 1_555
C3A C2A 1_555 1_555
H3A C3A 1_555 1_555
C4A C3A 1_555 1_555
H4A C4A 1_555 1_555
C5A C4A 1_555 1_555
H5A C5A 1_555 1_555
C6A C5A 1_555 1_555
C7A C2A 1_555 1_555
H6A C7A 1_555 1_555
N2A C6A 1_555 1_555
C8A N2A 1_555 1_555
O1A C8A 1_555 1_555
C9A O1A 1_555 1_555
H7A C9A 1_555 1_555
H8A C9A 1_555 1_555
C10A C9A 1_555 1_555
C11A C10A 1_555 1_555
H9A C11A 1_555 1_555
C12A C11A 1_555 1_555
H10A C12A 1_555 1_555
C13A C14 1_555 1_555
H11A C13A 1_555 1_555
C15A C14 1_555 1_555
H12A C15A 1_555 1_555
C18A C8A 1_555 1_555
F4A C18A 1_555 1_555
F5A C18A 1_555 1_555
F6A C18A 1_555 1_555
C16A N1A 1_555 1_555
O2A C16A 1_555 1_555
C17A C16A 1_555 1_555
F1A C17A 1_555 1_555
F2A C17A 1_555 1_555
F3A C17A 1_555 1_555
C6 C7 1_555 1_555
C15 C14A 1_555 1_555
C6A C7A 1_555 1_555
C10A C15A 1_555 1_555
C12A C13A 1_555 1_555

#END
