
#######################################################################
#
#                 Cambridge Crystallographic Data Centre
#                                CCDC 
#
#######################################################################
#
# If this CIF has been generated from an entry in the Cambridge 
# Structural Database, then it will include bibliographic, chemical, 
# crystal, experimental, refinement or atomic coordinate data resulting 
# from the CCDC's data processing and validation procedures.
#
#######################################################################

data_GIXMEH
_chemical_formula_moiety         'C27 H24 Cl2 N2 O4'
_chemical_name_systematic        
'Ethyl 5-(2,6-dichlorophenyl)-4,5-bis((2-hydroxybenzylidene)amino)pent-2-enoate'
_symmetry_cell_setting           orthorhombic
_symmetry_space_group_name_H-M   'P 21 21 21'
_symmetry_Int_Tables_number      19
_space_group_name_Hall           'P 2ac 2ab'
loop_
_symmetry_equiv_pos_site_id
_symmetry_equiv_pos_as_xyz
1 x,y,z
2 1/2+x,1/2-y,-z
3 -x,1/2+y,1/2-z
4 1/2-x,-y,1/2+z
_cell_length_a                   10.5373(8)
_cell_length_b                   11.2169(8)
_cell_length_c                   43.787(3)
_cell_angle_alpha                90
_cell_angle_beta                 90
_cell_angle_gamma                90
_cell_volume                     5175.44
_exptl_crystal_colour            yellow
_exptl_crystal_description       plate
_cell_formula_units_Z            8
loop_
_atom_site_label
_atom_site_type_symbol
_atom_site_fract_x
_atom_site_fract_y
_atom_site_fract_z
Cl1 Cl 1.33121(4) 1.38567(4) 0.510322(10)
Cl2 Cl 1.09625(6) 1.39207(6) 0.621536(13)
O1 O 1.54538(14) 1.16429(14) 0.54086(3)
O2 O 0.97604(14) 0.91430(14) 0.57437(3)
O3 O 0.76667(15) 1.44642(14) 0.53924(4)
N1 N 1.31389(14) 1.19657(13) 0.56178(3)
N2 N 1.06874(13) 1.09480(13) 0.54401(3)
C1 C 1.19268(16) 1.25921(16) 0.56470(4)
H1 H 1.1539 1.2347 0.5846
C2 C 1.10049(16) 1.21998(16) 0.53888(4)
H2 H 1.1429 1.2291 0.5186
C3 C 1.32819(17) 1.10094(17) 0.57737(4)
H3 H 1.2599 1.0739 0.5897
C4 C 1.44455(17) 1.03252(17) 0.57685(4)
C5 C 1.55051(18) 1.06832(18) 0.55961(4)
C6 C 1.6628(2) 1.00454(19) 0.56184(5)
H4 H 1.7356 1.0299 0.5508
C7 C 1.6691(2) 0.9042(2) 0.58009(5)
H5 H 1.7466 0.8612 0.5815
C8 C 1.5651(2) 0.86538(19) 0.59631(4)
H6 H 1.5700 0.7952 0.6084
C9 C 1.45356(19) 0.92996(18) 0.59476(4)
H7 H 1.3818 0.9041 0.6061
C10 C 1.09801(17) 1.02155(16) 0.52287(4)
H8 H 1.1440 1.0500 0.5057
C11 C 1.06360(17) 0.89584(17) 0.52406(4)
C12 C 0.99923(18) 0.84771(18) 0.54917(5)
C13 C 0.9577(2) 0.73038(19) 0.54798(6)
H9 H 0.9139 0.6972 0.5649
C14 C 0.9793(3) 0.6622(2) 0.52264(7)
H10 H 0.9479 0.5828 0.5220
C15 C 1.0461(3) 0.7068(2) 0.49798(7)
H11 H 1.0630 0.6579 0.4807
C16 C 1.0878(2) 0.82334(19) 0.49875(5)
H12 H 1.1336 0.8547 0.4819
C17 C 1.21537(16) 1.39247(17) 0.56609(4)
C18 C 1.27792(17) 1.45707(17) 0.54322(5)
C19 C 1.3007(2) 1.57788(19) 0.54528(6)
H13 H 1.3423 1.6188 0.5291
C20 C 1.2620(2) 1.6388(2) 0.57122(7)
H14 H 1.2793 1.7216 0.5731
C21 C 1.1997(2) 1.5807(2) 0.59400(6)
H15 H 1.1721 1.6229 0.6116
C22 C 1.17678(19) 1.4601(2) 0.59133(5)
C23 C 0.98382(17) 1.29665(16) 0.54005(4)
H16 H 0.9795 1.3607 0.5259
C24 C 0.88738(18) 1.28395(18) 0.55867(4)
H17 H 0.8862 1.2193 0.5727
C25 C 0.78039(19) 1.3693(2) 0.55804(4)
O4 O 0.70097(15) 1.35201(19) 0.58105(3)
C26 C 0.6005(4) 1.4483(5) 0.58066(8)
H18 H 0.6397 1.5285 0.5800
H19 H 0.5439 1.4392 0.5628
C27 C 0.5297(4) 1.4308(6) 0.60931(9)
H20 H 0.4634 1.4916 0.6110
H21 H 0.5880 1.4376 0.6267
H22 H 0.4908 1.3515 0.6093
H23 H 1.466(3) 1.196(3) 0.5445(6)
H24 H 1.005(3) 0.990(3) 0.5702(6)
Cl3 Cl 0.29010(5) 0.70935(5) 0.242135(10)
Cl4 Cl 0.32507(7) 0.83249(6) 0.362487(12)
O5 O 0.25136(15) 0.40775(14) 0.26870(3)
O6 O -0.19658(14) 0.73276(12) 0.35446(3)
O7 O 0.03181(14) 1.14529(13) 0.27698(3)
O8 O -0.08330(16) 1.15156(12) 0.31980(3)
N3 N 0.19824(14) 0.58797(13) 0.30381(3)
N4 N -0.04818(14) 0.71947(14) 0.30806(3)
C30 C 0.18081(17) 0.71620(16) 0.30908(4)
H30 H 0.1632 0.7277 0.3313
C31 C 0.06317(17) 0.76052(17) 0.29122(4)
H31 H 0.0630 0.7243 0.2703
C32 C 0.20962(17) 0.51973(16) 0.32700(4)
H32 H 0.1969 0.5515 0.3469
C33 C 0.24166(17) 0.39433(18) 0.32360(4)
C34 C 0.26373(18) 0.34400(18) 0.29487(5)
C35 C 0.3010(2) 0.22570(19) 0.29248(6)
H33 H 0.3161 0.1912 0.2730
C36 C 0.3158(2) 0.1586(2) 0.31876(7)
H34 H 0.3425 0.0779 0.3171
C37 C 0.2931(2) 0.2056(2) 0.34708(6)
H35 H 0.3026 0.1578 0.3648
C38 C 0.2562(2) 0.3232(2) 0.34952(5)
H36 H 0.2404 0.3562 0.3691
C39 C -0.12744(17) 0.64999(18) 0.29516(4)
H37 H -0.1121 0.6238 0.2749
C40 C -0.24064(17) 0.61025(19) 0.31095(4)
C41 C -0.27031(16) 0.65200(16) 0.34036(4)
C42 C -0.37736(18) 0.6102(2) 0.35554(5)
H38 H -0.3967 0.6382 0.3755
C43 C -0.4546(2) 0.5285(3) 0.34171(6)
H39 H -0.5268 0.4989 0.3523
C44 C -0.4287(3) 0.4886(4) 0.31250(7)
H40 H -0.4839 0.4330 0.3030
C45 C -0.3234(2) 0.5290(3) 0.29727(6)
H41 H -0.3065 0.5014 0.2772
C46 C 0.30716(18) 0.77648(16) 0.30200(4)
C47 C 0.36380(18) 0.77686(18) 0.27327(4)
C48 C 0.48103(19) 0.82787(19) 0.26753(5)
H42 H 0.5148 0.8279 0.2474
C49 C 0.5478(2) 0.8781(2) 0.29089(5)
H43 H 0.6283 0.9131 0.2870
C50 C 0.4989(2) 0.87826(19) 0.31995(5)
H44 H 0.5456 0.9123 0.3363
C51 C 0.3798(2) 0.82795(17) 0.32515(4)
C52 C 0.05933(17) 0.89405(18) 0.28850(4)
H45 H 0.1198 0.9301 0.2753
C53 C -0.0197(2) 0.96520(18) 0.30261(4)
H46 H -0.0797 0.9319 0.3164
C54 C -0.01864(18) 1.09563(18) 0.29783(4)
C55 C -0.0831(2) 1.27990(18) 0.31915(5)
H47 H -0.1495 1.3083 0.3049
H48 H 0.0000 1.3085 0.3115
C56 C -0.1065(6) 1.3295(4) 0.34976(8)
H49 H -0.1058 1.4167 0.3487
H50 H -0.0400 1.3024 0.3638
H51 H -0.1894 1.3022 0.3572
H52 H 0.226(3) 0.480(2) 0.2737(6)
H53 H -0.130(2) 0.742(2) 0.3432(5)
C28? C 0.5666(4) 1.3922(6) 0.58349(15)
H25? H 0.5300 1.4103 0.5632
H26? H 0.5131 1.3321 0.5939
C29? C 0.5808(7) 1.5015(6) 0.60221(17)
H27? H 0.4977 1.5390 0.6050
H28? H 0.6381 1.5572 0.5918
H29? H 0.6162 1.4804 0.6222
H54? H -0.1051 1.3096 0.2985
H55? H 0.0013 1.3115 0.3249
C57? C -0.1820(7) 1.3164(6) 0.34210(16)
H56? H -0.1871 1.4036 0.3429
H57? H -0.1588 1.2856 0.3623
H58? H -0.2646 1.2838 0.3361
loop_
_geom_bond_atom_site_label_1
_geom_bond_atom_site_label_2
_geom_bond_site_symmetry_1
_geom_bond_site_symmetry_2
Cl1 C18 1_555 1_555
Cl2 C22 1_555 1_555
O1 C5 1_555 1_555
O2 C12 1_555 1_555
O3 C25 1_555 1_555
N1 C1 1_555 1_555
N2 C2 1_555 1_555
C1 H1 1_555 1_555
C2 C1 1_555 1_555
H2 C2 1_555 1_555
C3 N1 1_555 1_555
H3 C3 1_555 1_555
C4 C3 1_555 1_555
C5 C4 1_555 1_555
C6 C5 1_555 1_555
H4 C6 1_555 1_555
C7 C6 1_555 1_555
H5 C7 1_555 1_555
C8 C7 1_555 1_555
H6 C8 1_555 1_555
C9 C4 1_555 1_555
H7 C9 1_555 1_555
C10 N2 1_555 1_555
H8 C10 1_555 1_555
C11 C10 1_555 1_555
C12 C11 1_555 1_555
C13 C12 1_555 1_555
H9 C13 1_555 1_555
C14 C13 1_555 1_555
H10 C14 1_555 1_555
C15 C14 1_555 1_555
H11 C15 1_555 1_555
C16 C11 1_555 1_555
H12 C16 1_555 1_555
C17 C1 1_555 1_555
C18 C17 1_555 1_555
C19 C18 1_555 1_555
H13 C19 1_555 1_555
C20 C19 1_555 1_555
H14 C20 1_555 1_555
C21 C20 1_555 1_555
H15 C21 1_555 1_555
C22 C17 1_555 1_555
C23 C2 1_555 1_555
H16 C23 1_555 1_555
C24 C23 1_555 1_555
H17 C24 1_555 1_555
C25 C24 1_555 1_555
O4 C25 1_555 1_555
C26 O4 1_555 1_555
H18 C26 1_555 1_555
H19 C26 1_555 1_555
C27 C26 1_555 1_555
H20 C27 1_555 1_555
H21 C27 1_555 1_555
H22 C27 1_555 1_555
H23 O1 1_555 1_555
H24 O2 1_555 1_555
Cl3 C47 1_555 1_555
Cl4 C51 1_555 1_555
O5 C34 1_555 1_555
O6 C41 1_555 1_555
O7 C54 1_555 1_555
O8 C54 1_555 1_555
N3 C30 1_555 1_555
N4 C31 1_555 1_555
C30 H30 1_555 1_555
C31 C30 1_555 1_555
H31 C31 1_555 1_555
C32 N3 1_555 1_555
H32 C32 1_555 1_555
C33 C32 1_555 1_555
C34 C33 1_555 1_555
C35 C34 1_555 1_555
H33 C35 1_555 1_555
C36 C35 1_555 1_555
H34 C36 1_555 1_555
C37 C36 1_555 1_555
H35 C37 1_555 1_555
C38 C33 1_555 1_555
H36 C38 1_555 1_555
C39 N4 1_555 1_555
H37 C39 1_555 1_555
C40 C39 1_555 1_555
C41 C40 1_555 1_555
C42 C41 1_555 1_555
H38 C42 1_555 1_555
C43 C42 1_555 1_555
H39 C43 1_555 1_555
C44 C43 1_555 1_555
H40 C44 1_555 1_555
C45 C40 1_555 1_555
H41 C45 1_555 1_555
C46 C30 1_555 1_555
C47 C46 1_555 1_555
C48 C47 1_555 1_555
H42 C48 1_555 1_555
C49 C48 1_555 1_555
H43 C49 1_555 1_555
C50 C49 1_555 1_555
H44 C50 1_555 1_555
C51 C46 1_555 1_555
C52 C31 1_555 1_555
H45 C52 1_555 1_555
C53 C52 1_555 1_555
H46 C53 1_555 1_555
C54 C53 1_555 1_555
C55 O8 1_555 1_555
H47 C55 1_555 1_555
H48 C55 1_555 1_555
C56 C55 1_555 1_555
H49 C56 1_555 1_555
H50 C56 1_555 1_555
H51 C56 1_555 1_555
H52 O5 1_555 1_555
H53 O6 1_555 1_555
C8 C9 1_555 1_555
C15 C16 1_555 1_555
C21 C22 1_555 1_555
C37 C38 1_555 1_555
C44 C45 1_555 1_555
C50 C51 1_555 1_555

#END
