
#######################################################################
#
#                 Cambridge Crystallographic Data Centre
#                                CCDC 
#
#######################################################################
#
# If this CIF has been generated from an entry in the Cambridge 
# Structural Database, then it will include bibliographic, chemical, 
# crystal, experimental, refinement or atomic coordinate data resulting 
# from the CCDC's data processing and validation procedures.
#
#######################################################################

data_GIXNUZ
_chemical_formula_moiety         'C19 H20 N4 O10,2(H2 O1)'
_chemical_name_systematic        
'[8a-(hydroxymethyl)-1-methyl-2,5,8-trioxooctahydroimidazo[1,2-a]pyrazin-6-yl]methyl 2-hydroxy-2-(hydroxymethyl)-3-oxo-3,4-dihydro-2H-1,4-benzoxazine-5-carboxylate dihydrate'
_symmetry_cell_setting           orthorhombic
_symmetry_space_group_name_H-M   'P 21 21 21'
_symmetry_Int_Tables_number      19
_space_group_name_Hall           'P 2ac 2ab'
loop_
_symmetry_equiv_pos_site_id
_symmetry_equiv_pos_as_xyz
1 x,y,z
2 1/2-x,-y,1/2+z
3 -x,1/2+y,1/2-z
4 1/2+x,1/2-y,-z
_cell_length_a                   6.9557(8)
_cell_length_b                   7.4897(8)
_cell_length_c                   41.571(5)
_cell_angle_alpha                90
_cell_angle_beta                 90
_cell_angle_gamma                90
_cell_volume                     2165.69
_exptl_crystal_colour            colorless
_exptl_crystal_description       plate
_cell_formula_units_Z            4
loop_
_atom_site_label
_atom_site_type_symbol
_atom_site_fract_x
_atom_site_fract_y
_atom_site_fract_z
O1 O 0.5556(3) 0.2695(3) 0.37170(5)
H1 H 0.554(5) 0.255(5) 0.3918(3)
O2 O 0.4011(3) 0.6788(3) 0.41196(5)
H2 H 0.451(5) 0.742(4) 0.3976(7)
O3 O 0.6697(3) 0.4962(3) 0.41957(4)
O4 O 0.2028(3) 0.3120(3) 0.41988(5)
O5 O 0.2854(3) 0.3819(3) 0.52454(5)
O6 O 0.4785(3) 0.5192(3) 0.55945(4)
O7 O 0.0912(3) 0.6216(3) 0.63311(5)
O8 O 0.7690(3) 0.3736(3) 0.66517(5)
O9 O 0.3028(3) 0.5130(4) 0.75090(5)
O10 O 0.5360(3) 0.9125(3) 0.69188(5)
H3 H 0.588(5) 0.935(6) 0.7096(6)
N1 N 0.3871(3) 0.3948(3) 0.46189(6)
H4 H 0.309(4) 0.347(4) 0.4764(6)
N2 N 0.5723(3) 0.4679(3) 0.62508(5)
H5 H 0.620(4) 0.392(4) 0.6111(6)
N3 N 0.3301(3) 0.6133(3) 0.66913(5)
N4 N 0.5254(3) 0.5432(4) 0.71083(5)
C1 C 0.4744(4) 0.4434(4) 0.37434(7)
H6 H 0.3410 0.4420 0.3660
H7 H 0.5499 0.5284 0.3612
C2 C 0.4741(4) 0.5039(4) 0.40892(7)
C3 C 0.3430(4) 0.3895(4) 0.43047(7)
C4 C 0.5573(4) 0.4690(4) 0.47395(6)
C5 C 0.7000(4) 0.5170(4) 0.45198(6)
C6 C 0.8769(4) 0.5746(4) 0.46227(7)
H8 H 0.9739 0.6037 0.4470
C7 C 0.9140(4) 0.5904(4) 0.49499(7)
H9 H 1.0370 0.6283 0.5022
C8 C 0.7724(4) 0.5509(4) 0.51688(7)
H10 H 0.7974 0.5650 0.5392
C9 C 0.5922(4) 0.4905(4) 0.50684(6)
C10 C 0.4369(4) 0.4542(4) 0.53025(6)
C11 C 0.3297(4) 0.4995(4) 0.58336(6)
H11 H 0.2984 0.3720 0.5868
H12 H 0.2115 0.5635 0.5768
C12 C 0.4148(4) 0.5810(4) 0.61319(7)
H13 H 0.4690 0.7005 0.6075
C13 C 0.2631(4) 0.6069(4) 0.63919(6)
C14 C 0.2073(4) 0.6020(4) 0.69733(6)
H14 H 0.1044 0.5121 0.6944
H15 H 0.1485 0.7190 0.7024
C15 C 0.3455(4) 0.5462(4) 0.72264(7)
C16 C 0.5357(4) 0.6007(4) 0.67749(6)
C17 C 0.6362(4) 0.4663(4) 0.65531(7)
C18 C 0.6359(4) 0.7821(4) 0.67419(7)
H16 H 0.7696 0.7730 0.6822
H17 H 0.6406 0.8171 0.6512
C19 C 0.6939(4) 0.5155(5) 0.73111(7)
H18 H 0.6586 0.5335 0.7537
H19 H 0.7944 0.6009 0.7251
H20 H 0.7418 0.3936 0.7281
O11 O 0.8031(4) 0.2901(4) 0.31948(6)
H21 H 0.748(6) 0.296(7) 0.3379(6)
H22 H 0.879(5) 0.378(4) 0.3177(11)
O12 O 0.5121(3) 0.5143(4) 0.29173(7)
H23 H 0.431(5) 0.480(7) 0.2776(9)
H24 H 0.571(6) 0.425(4) 0.3003(11)
loop_
_geom_bond_atom_site_label_1
_geom_bond_atom_site_label_2
_geom_bond_site_symmetry_1
_geom_bond_site_symmetry_2
O1 H1 1_555 1_555
O2 H2 1_555 1_555
O3 C2 1_555 1_555
O4 C3 1_555 1_555
O5 C10 1_555 1_555
O6 C10 1_555 1_555
O7 C13 1_555 1_555
O8 C17 1_555 1_555
O9 C15 1_555 1_555
O10 H3 1_555 1_555
N1 H4 1_555 1_555
N2 H5 1_555 1_555
N3 C13 1_555 1_555
N4 C15 1_555 1_555
C1 O1 1_555 1_555
H6 C1 1_555 1_555
H7 C1 1_555 1_555
C2 O2 1_555 1_555
C3 N1 1_555 1_555
C4 N1 1_555 1_555
C5 O3 1_555 1_555
C6 C5 1_555 1_555
H8 C6 1_555 1_555
C7 C6 1_555 1_555
H9 C7 1_555 1_555
C8 C7 1_555 1_555
H10 C8 1_555 1_555
C9 C4 1_555 1_555
C10 C9 1_555 1_555
C11 O6 1_555 1_555
H11 C11 1_555 1_555
H12 C11 1_555 1_555
C12 N2 1_555 1_555
H13 C12 1_555 1_555
C13 C12 1_555 1_555
C14 N3 1_555 1_555
H14 C14 1_555 1_555
H15 C14 1_555 1_555
C15 C14 1_555 1_555
C16 N3 1_555 1_555
C17 N2 1_555 1_555
C18 O10 1_555 1_555
H16 C18 1_555 1_555
H17 C18 1_555 1_555
C19 N4 1_555 1_555
H18 C19 1_555 1_555
H19 C19 1_555 1_555
H20 C19 1_555 1_555
O11 H21 1_555 1_555
H22 O11 1_555 1_555
O12 H23 1_555 1_555
H24 O12 1_555 1_555
N4 C16 1_555 1_555
C1 C2 1_555 1_555
C2 C3 1_555 1_555
C4 C5 1_555 1_555
C8 C9 1_555 1_555
C11 C12 1_555 1_555
C16 C17 1_555 1_555
C16 C18 1_555 1_555

#END
