
#######################################################################
#
#                 Cambridge Crystallographic Data Centre
#                                CCDC 
#
#######################################################################
#
# If this CIF has been generated from an entry in the Cambridge 
# Structural Database, then it will include bibliographic, chemical, 
# crystal, experimental, refinement or atomic coordinate data resulting 
# from the CCDC's data processing and validation procedures.
#
#######################################################################

data_GIXTUD
_chemical_formula_moiety         
'C118 H116 F8 N16 O19,x(C5 H12),x(C2 H4 Cl2),x(C1 H4 O1),x(H2 O1)'
_chemical_name_systematic        
'Methyl 7-(((7-(((7-(((7-(((7-(((7-(((7-(((7-((t-butoxycarbonyl)amino)-8-fluoro-4-(2-methylpropoxy)quinolin-2-yl)carbonyl)amino)-8-fluoro-4-(2-methylpropoxy)quinolin-2-yl)carbonyl)amino)-8-fluoro-4-(2-methylpropoxy)quinolin-2-yl)carbonyl)amino)-8-fluoro-4-(2-methylpropoxy)quinolin-2-yl)carbonyl)amino)-8-fluoro-4-(2-methylpropoxy)quinolin-2-yl)carbonyl)amino)-8-fluoro-4-(2-methylpropoxy)quinolin-2-yl)carbonyl)amino)-8-fluoro-4-(2-methylpropoxy)quinolin-2-yl)carbonyl)amino)-8-fluoro-4-(2-methylpropoxy)quinoline-2-carboxylate n-pentane 1,2-dichloroethane methanol solvate hydrate'
_symmetry_cell_setting           triclinic
_symmetry_space_group_name_H-M   'P -1'
_symmetry_Int_Tables_number      2
_space_group_name_Hall           '-P 1'
loop_
_symmetry_equiv_pos_site_id
_symmetry_equiv_pos_as_xyz
1 x,y,z
2 -x,-y,-z
_cell_length_a                   25.391(5)
_cell_length_b                   26.509(5)
_cell_length_c                   27.909(6)
_cell_angle_alpha                85.87(3)
_cell_angle_beta                 63.32(3)
_cell_angle_gamma                62.56(3)
_cell_volume                     14679.6
_cell_formula_units_Z            4
_exptl_crystal_recrystallization_method 1,2-dichloroethane/n-hexane
loop_
_atom_site_label
_atom_site_type_symbol
_atom_site_fract_x
_atom_site_fract_y
_atom_site_fract_z
Cl1 Cl 0.3327(2) 0.83695(16) 0.02613(19)
Cl2 Cl 0.4796(4) 0.7709(2) 0.0303(4)
C130 C 0.3383(11) 0.8317(6) 0.0893(9)
C138 C 0.4095(12) 0.8338(8) 0.0732(9)
F1 F 0.3416(3) 0.6958(2) 0.1356(3)
F2 F 0.3569(4) 0.9469(3) 0.0319(3)
F3 F 0.2008(4) 0.8825(3) 0.2630(3)
F5 F 0.3355(3) 0.8990(3) 0.3178(3)
F6 F 0.5400(3) 0.8542(3) 0.0577(3)
F7 F 0.5615(4) 0.6621(3) 0.0706(3)
N1 N 0.1663(5) 0.9891(4) 0.2994(3)
O1 O -0.0140(5) 1.1235(4) 0.3089(3)
O2 O 0.1760(4) 1.1040(3) 0.3437(3)
F10 F 0.4539(4) 0.7070(3) 0.3363(3)
N3 N 0.4414(5) 0.8722(5) 0.3348(3)
C1 C 0.0611(7) 1.0265(7) 0.2895(4)
O3 O 0.4600(5) 1.0061(4) 0.3816(3)
N4 N 0.2425(5) 1.0053(4) 0.3264(4)
C2 C 0.3015(6) 1.0432(5) 0.3530(4)
O4 O 0.2132(5) 0.9457(4) -0.0195(4)
N7 N 0.5195(5) 0.7637(5) 0.3281(4)
N8 N 0.6520(6) 0.7698(5) 0.0560(3)
O5 O 0.2845(4) 1.1922(4) 0.0723(3)
O6 O 0.5925(5) 0.7851(4) 0.3378(4)
N9 N 0.5036(6) 0.9642(5) 0.0745(3)
N10 N 0.1315(5) 0.8530(4) 0.2320(4)
C3 C 0.0218(6) 1.0157(6) 0.2742(4)
C4 C 0.3431(8) 0.9409(7) 0.3308(5)
C5 C 0.5025(6) 0.9029(6) 0.3583(4)
N12 N 0.6755(6) 0.6605(4) 0.0441(4)
C7 C 0.3934(7) 0.9305(6) 0.3414(4)
C8 C 0.4972(8) 0.8561(7) 0.3404(5)
O10 O 0.0401(5) 0.8545(4) 0.2359(4)
F14 F 0.3069(4) 0.6367(3) 0.3797(3)
O11 O 0.1208(5) 0.6415(4) 0.1821(3)
N13 N 0.5084(6) 0.5904(6) 0.3170(4)
N14 N 0.3972(6) 1.0150(5) 0.0575(4)
C9 C 0.1037(7) 0.9116(7) 0.2527(4)
O13 O 0.7783(5) 0.8113(4) 0.0792(3)
C10 C 0.1434(8) 1.0453(7) 0.3159(4)
O15 O 0.4989(5) 1.0547(4) 0.0843(4)
C13 C 0.3155(8) 0.6614(6) 0.1351(5)
C15 C 0.4022(8) 0.9723(7) 0.3567(5)
C16 C 0.7121(9) 0.7285(7) 0.0523(4)
C17 C 0.0859(7) 1.0925(6) 0.3210(4)
N19 N 0.2523(6) 0.9850(5) 0.0142(4)
C18 C 0.2987(8) 1.1053(7) 0.0558(4)
C19 C 0.2176(9) 0.6516(7) 0.1598(5)
O17 O 0.7820(5) 0.6282(4) 0.0317(4)
C21 C 0.3602(8) 0.6018(6) 0.1119(5)
C22 C 0.2947(8) 0.9969(7) 0.3375(5)
C23 C 0.6179(9) 0.6113(7) 0.0481(5)
C24 C 0.5780(9) 0.8704(8) 0.0683(5)
C26 C 0.1413(7) 0.9251(7) 0.2672(5)
C27 C 0.1221(7) 0.9838(6) 0.2862(4)
C28 C 0.2457(8) 0.6877(7) 0.1594(4)
C29 C 0.5573(9) 0.7047(8) 0.3173(5)
C30 C 0.6748(8) 0.6112(7) 0.0351(5)
C31 C 0.3406(7) 1.0400(6) 0.0504(4)
C32 C 0.0421(6) 0.9596(6) 0.2573(4)
C35 C 0.2591(8) 0.5912(6) 0.1370(5)
C37 C 0.5661(8) 0.9240(8) 0.0748(5)
C39 C 0.6345(8) 0.8262(7) 0.0668(5)
C40 C 0.3553(6) 1.0312(6) 0.3635(4)
C41 C 0.5430(9) 0.7949(8) 0.3359(6)
C42 C 0.0449(8) 1.0839(7) 0.3077(5)
C43 C 0.7564(7) 0.7401(6) 0.0590(5)
C44 C 0.1069(7) 0.7369(6) 0.2023(5)
C47 C 0.4544(8) 0.9633(7) 0.3663(5)
C52 C 0.6585(7) 0.8996(6) 0.0849(5)
C55 C 0.3240(9) 1.1370(7) 0.0695(5)
C56 C 0.2431(7) 1.1241(7) 0.0466(5)
C60 C 0.6757(8) 0.8425(7) 0.0758(5)
C67 C 0.3837(8) 1.1113(6) 0.0753(5)
C70 C 0.3191(11) 0.5798(9) 0.3701(7)
O22 O 0.7120(7) 0.4935(5) 0.2780(5)
C72 C 0.7368(9) 0.7972(8) 0.0700(5)
C74 C -0.1048(7) 1.2220(6) 0.3326(7)
C76 C 0.1882(8) 1.0556(7) 0.3311(5)
C84 C 0.3078(7) 1.2320(5) 0.0797(5)
C87 C 0.3277(7) 0.5687(6) 0.1160(5)
C88 C 0.5162(7) 0.9949(6) 0.3914(5)
C92 C 0.6269(8) 0.6700(7) 0.3023(4)
C93 C 0.7175(7) 0.3559(5) -0.0039(5)
C94 C 0.5474(10) 0.6149(8) 0.3119(4)
C99 C 0.7259(9) 0.6697(8) 0.0400(6)
C100 C 0.7342(7) 0.5057(6) 0.0039(5)
O25 O 0.1782(6) 1.0400(5) -0.0166(5)
C105 C 0.4434(8) 1.0800(6) 0.4651(6)
C106 C 0.2639(9) 1.0255(8) 0.0277(5)
C108 C 0.2531(9) 1.2928(6) 0.0911(6)
C110 C 0.1801(11) 0.9400(8) -0.0482(8)
C114 C 0.4131(8) 1.0520(7) 0.0713(5)
C116 C 0.7346(7) 0.5560(6) 0.0109(5)
C118 C 0.1979(8) 0.8779(6) -0.0530(6)
C119 C 0.2266(7) 1.0865(7) 0.0329(5)
C121 C 0.5248(9) 0.6740(7) 0.3210(5)
C124 C 0.2811(8) 1.3323(6) 0.0926(5)
C125 C -0.0324(7) 1.1829(6) 0.3224(6)
C126 C 0.7464(10) 0.4288(7) 0.2742(7)
O26 O 0.5211(6) 0.4528(5) 0.3060(4)
C127 C 0.3194(8) 1.0050(7) 0.0371(5)
C131 C 0.6178(11) 0.5829(9) 0.2969(6)
C133 C 0.5693(7) 1.0393(6) 0.4150(6)
C134 C 0.7756(9) 0.2519(6) -0.0243(11)
C136 C 0.6567(8) 0.6102(7) 0.2908(5)
C137 C 0.6447(11) 0.5234(9) 0.2889(7)
C139 C 0.3863(10) 0.4797(8) 0.3386(6)
C140 C 0.6094(10) 0.4956(7) 0.2912(8)
C141 C 0.4772(8) 1.0258(8) 0.0769(5)
C142 C 0.0487(8) 0.6663(7) 0.2015(6)
C143 C 0.2123(11) 0.9934(9) -0.0085(7)
C144 C 0.7823(10) 0.3041(8) -0.0076(11)
C146 C 0.1855(8) 1.3066(6) 0.1492(6)
C147 C -0.1109(8) 1.2104(7) 0.2823(7)
C149 C 0.8863(10) 0.8330(9) 0.0555(9)
C155 C 0.9386(9) 0.7517(7) 0.0919(8)
C156 C 0.8427(8) 0.7681(7) 0.0750(7)
C159 C 0.0667(9) 0.6045(8) 0.1307(7)
C160 C -0.0395(8) 0.6448(7) 0.2172(7)
C161 C 0.8371(11) 0.3045(9) -0.0475(10)
C162 C 0.2125(8) 0.9534(7) -0.1053(6)
C164 C -0.1269(7) 1.2859(6) 0.3518(8)
C165 C 0.6018(7) 0.9426(6) 0.0845(5)
N26 N 0.2024(6) 0.7480(5) 0.1816(4)
C166 C 0.1483(9) 0.6760(7) 0.1806(5)
C167 C 0.1367(8) 0.7684(7) 0.2016(5)
C168 C 0.5415(11) 0.5328(8) 0.3067(6)
C171 C 0.6115(8) 0.5629(6) 0.0420(4)
N27 N 0.5478(6) 0.5702(4) 0.0581(4)
C177 C 0.1002(9) 0.8290(8) 0.2254(6)
O28 O 0.7220(5) 0.4080(4) -0.0029(3)
C179 C 0.6713(8) 0.5088(6) 0.0190(5)
C180 C 0.6009(7) 0.4639(5) 0.0316(5)
C181 C 0.6630(9) 0.4580(6) 0.0186(6)
C185 C 0.3830(12) 0.5326(8) 0.3466(7)
N30 N 0.4315(9) 0.5467(5) 0.3359(6)
C187 C 0.5446(8) 0.5204(6) 0.0537(5)
C188 C 0.2608(10) 0.5745(8) 0.3877(7)
C189 C 0.4977(13) 0.5046(10) 0.3149(7)
C194 C 0.5064(8) 1.0504(7) 0.4092(6)
C196 C 0.8113(12) 0.4087(11) 0.2784(10)
C197 C 0.4727(8) 0.5289(7) 0.0701(6)
C198 C 0.3319(12) 0.4742(8) 0.3520(8)
O39 O 0.4678(4) 0.4878(3) 0.0636(4)
N31 N 0.4278(6) 0.5831(5) 0.0916(4)
C203 C 0.8512(10) 0.4288(9) 0.2379(8)
C204 C 0.1056(8) 0.9753(7) -0.0134(7)
N32 N 0.1954(9) 0.6253(5) 0.4109(6)
C207 C 0.2640(13) 0.5219(9) 0.3797(8)
C208 C 0.1469(10) 0.5624(9) 0.4214(8)
O40 O 0.2183(9) 0.4595(6) 0.3914(6)
C217 C 0.7960(8) 0.4420(7) 0.3359(7)
O43 O 0.0759(6) 0.7215(6) 0.4514(5)
C219 C 0.2103(12) 0.5118(9) 0.3945(10)
C221 C 0.1422(8) 0.6164(7) 0.4249(8)
C222 C 0.8723(10) 0.7977(9) 0.0947(9)
C226 C 0.0376(9) 0.6172(8) 0.1933(8)
C238 C 0.1546(14) 0.4575(11) 0.4201(11)
C241 C 0.0093(9) 0.7734(8) 0.4812(6)
O56 O 0.0219(7) 0.6676(6) 0.4732(7)
C244 C 0.0764(11) 0.6675(8) 0.4529(8)
C246 C 0.1910(16) 0.3918(12) 0.3994(17)
C251 C 0.242(2) 0.3534(11) 0.4252(13)
C258 C 0.148(2) 0.3793(13) 0.4228(17)
H2 H 0.2453 0.9744 0.3150
H3 H 0.2703 1.0812 0.3563
H4 H 0.4805 0.7799 0.3297
H5 H 0.4800 0.9500 0.0727
H6 H 0.1733 0.8311 0.2229
H7 H -0.0173 1.0457 0.2754
H8 H 0.5384 0.8938 0.3649
H10 H 0.6375 0.6913 0.0542
H15 H 0.0751 1.1294 0.3331
H16 H 0.0150 0.9520 0.2484
H18 H 0.2405 0.5683 0.1364
H21 H 0.3598 1.0607 0.3744
H22 H 0.7970 0.7110 0.0561
H23 H 0.0605 0.7543 0.2166
H26 H 0.6860 0.9092 0.0914
H27 H 0.2163 1.1635 0.0499
H33 H 0.4014 1.1328 0.0812
H38 H -0.1335 1.2104 0.3630
H45 H 0.3482 1.2262 0.0471
H46 H 0.3181 1.2243 0.1099
H47 H 0.3546 0.5292 0.1037
H48 H 0.5173 0.9708 0.4192
H49 H 0.5585 0.9750 0.3583
H52 H 0.6522 0.6873 0.3003
H53 H 0.7120 0.3503 -0.0350
H54 H 0.6787 0.3589 0.0288
H60 H 0.7738 0.4706 -0.0103
H65 H 0.4367 1.1173 0.4748
H66 H 0.4496 1.0568 0.4921
H67 H 0.4048 1.0843 0.4631
H69 H 0.2412 1.2993 0.0615
H73 H 0.7758 0.5546 -0.0007
H74 H 0.2457 0.8546 -0.0748
H75 H 0.1753 0.8715 -0.0698
H76 H 0.1843 0.8674 -0.0174
H77 H 0.1895 1.1017 0.0268
H79 H 0.2478 1.3718 0.0985
H80 H 0.3205 1.3239 0.0585
H81 H 0.2928 1.3262 0.1216
H82 H -0.0021 1.1932 0.2927
H83 H -0.0288 1.1879 0.3547
H84 H 0.7570 0.4105 0.2399
H85 H 0.7166 0.4177 0.3034
H89 H 0.6092 1.0192 0.3810
H90 H 0.5721 1.0164 0.4429
H91 H 0.5651 1.0755 0.4246
H92 H 0.7372 0.2509 0.0048
H93 H 0.8154 0.2163 -0.0313
H94 H 0.7702 0.2572 -0.0565
H95 H 0.7026 0.5878 0.2789
H96 H 0.4281 0.4468 0.3233
H97 H 0.6290 0.4557 0.2833
H98 H 0.0340 0.6959 0.1810
H99 H 0.0239 0.6833 0.2397
H100 H 0.7828 0.3025 0.0274
H101 H 0.1508 1.3452 0.1542
H102 H 0.1962 1.3029 0.1786
H103 H 0.1700 1.2798 0.1487
H104 H -0.1569 1.2324 0.2897
H105 H -0.0960 1.1700 0.2744
H106 H -0.0835 1.2215 0.2516
H109 H 0.9029 0.8543 0.0656
H110 H 0.8459 0.8595 0.0538
H111 H 0.9197 0.8093 0.0205
H119 H 0.9297 0.7303 0.1210
H120 H 0.9622 0.7698 0.0952
H121 H 0.9656 0.7260 0.0576
H122 H 0.8736 0.7489 0.0375
H123 H 0.8368 0.7393 0.0971
H128 H 0.1148 0.5830 0.1140
H129 H 0.0533 0.6402 0.1171
H130 H 0.0499 0.5824 0.1223
H131 H -0.0606 0.6576 0.2556
H132 H -0.0507 0.6168 0.2109
H133 H -0.0551 0.6771 0.1999
H134 H 0.8763 0.2759 -0.0454
H135 H 0.8333 0.3419 -0.0436
H136 H 0.8408 0.2961 -0.0821
H137 H 0.2590 0.9249 -0.1244
H138 H 0.2089 0.9908 -0.1024
H139 H 0.1898 0.9528 -0.1249
H140 H -0.1250 1.2886 0.3850
H141 H -0.1720 1.3105 0.3577
H142 H -0.0972 1.2978 0.3243
H143 H 0.5892 0.9815 0.0905
H145 H 0.5960 0.4324 0.0263
H150 H 0.4210 0.5822 0.3422
H152 H 0.5019 1.0755 0.3822
H153 H 0.8354 0.3667 0.2750
H154 H 0.3378 0.4382 0.3432
H162 H 0.4409 0.6074 0.0931
H163 H 0.8883 0.4223 0.2436
H164 H 0.8247 0.4693 0.2396
H165 H 0.8680 0.4084 0.2028
H166 H 0.0920 0.9611 0.0202
H167 H 0.0830 0.9726 -0.0322
H168 H 0.0940 1.0149 -0.0061
H169 H 0.1078 0.5592 0.4370
H179 H 0.7664 0.4331 0.3669
H180 H 0.7755 0.4830 0.3368
H181 H 0.8376 0.4290 0.3369
H185 H 0.8404 0.8204 0.1314
H192 H 0.0572 0.5837 0.2089
H203 H 0.1228 0.4801 0.4067
H204 H 0.1336 0.4674 0.4593
H210 H 0.0153 0.8067 0.4807
H211 H -0.0127 0.7686 0.5182
H212 H -0.0177 0.7786 0.4640
H217 H 0.2122 0.3818 0.3598
H224 H 0.2826 0.3556 0.4066
H225 H 0.2514 0.3140 0.4209
H226 H 0.2201 0.3684 0.4632
H233 H 0.1145 0.3978 0.4109
H234 H 0.1279 0.3918 0.4612
H235 H 0.1667 0.3383 0.4154
F4 F 0.3024(4) 0.8647(3) 0.4502(3)
F8 F 0.3094(3) 0.9427(3) 0.1743(3)
F9 F 0.4083(4) 0.6554(3) 0.4594(3)
N2 N 0.3510(6) 1.0048(5) 0.1996(4)
F11 F 0.2380(4) 0.6177(3) 0.5217(3)
F12 F 0.4817(4) 0.8166(3) 0.1887(3)
N5 N 0.2084(6) 0.9750(5) 0.4641(4)
N6 N 0.4586(6) 0.9235(5) 0.2041(4)
O7 O 0.4881(5) 0.8367(4) 0.4789(4)
O8 O 0.5902(5) 0.9541(4) 0.2334(4)
N11 N 0.1047(6) 0.9973(5) 0.4441(4)
F13 F 0.1269(4) 0.8955(4) 0.4101(3)
O9 O 0.3723(4) 1.0752(4) 0.2175(3)
O12 O 0.2262(5) 1.1078(4) 0.5152(4)
N15 N 0.2045(6) 0.9861(5) 0.1536(4)
N16 N 0.3648(7) 0.5222(5) 0.4731(4)
O14 O 0.1725(6) 0.9178(5) 0.1240(4)
C11 C 0.2399(10) 0.5671(7) 0.5181(6)
C12 C 0.5161(10) 0.8841(8) 0.2032(6)
N17 N 0.4707(6) 0.7168(6) 0.4577(4)
C14 C 0.2663(9) 1.0055(8) 0.4920(5)
N18 N 0.4025(7) 0.8344(6) 0.4679(5)
C20 C 0.2190(9) 1.0234(8) 0.1710(5)
C25 C 0.5591(9) 0.8882(8) 0.2147(6)
C33 C 0.4912(8) 0.9894(6) 0.2254(5)
C34 C 0.2603(9) 0.9646(8) 0.4751(4)
C36 C 0.1917(9) 0.5064(7) 0.5247(5)
C38 C 0.3696(7) 0.9344(6) 0.4947(4)
O18 O 0.0849(6) 0.9904(5) 0.1195(5)
C45 C 0.3159(11) 0.4584(8) 0.4802(6)
C46 C 0.3633(10) 0.8921(8) 0.4773(5)
O19 O 0.3794(6) 0.3636(4) 0.4470(4)
N20 N 0.4629(7) 0.5451(6) 0.4455(5)
C48 C 0.4523(8) 0.9751(7) 0.2142(5)
C49 C 0.2943(9) 1.0347(8) 0.1929(5)
O20 O 0.6722(6) 0.6257(5) 0.4148(4)
C50 C 0.1915(10) 0.5579(7) 0.5300(6)
C51 C 0.1818(8) 1.0836(8) 0.1776(5)
N21 N 0.4292(8) 0.5564(6) 0.2121(7)
C53 C 0.3054(9) 0.5170(7) 0.4907(5)
C54 C 0.3074(9) 0.9072(8) 0.4686(5)
C57 C 0.2192(9) 1.0644(8) 0.4997(5)
C58 C 0.5694(9) 0.5380(7) 0.4278(4)
C59 C 0.5821(7) 1.0130(6) 0.2394(5)
C61 C 0.1003(10) 1.0492(9) 0.4632(7)
C62 C 0.3198(8) 0.9934(6) 0.5031(5)
C63 C 0.5458(9) 0.9444(9) 0.2245(6)
N22 N 0.0476(7) 0.8771(6) 0.3831(5)
N23 N 0.1329(7) 0.6112(5) 0.5519(5)
C64 C 0.5074(9) 0.6556(8) 0.4470(4)
C65 C 0.5836(10) 0.7780(9) 0.1935(5)
C66 C 0.4318(8) 0.4220(6) 0.4418(6)
O21 O 0.1971(9) 0.5084(6) 0.2698(6)
C68 C -0.0015(8) 1.0422(7) 0.4388(5)
N24 N 0.5921(7) 0.7198(6) 0.1863(4)
C69 C 0.6079(8) 0.5648(7) 0.4242(4)
C71 C 0.5441(13) 0.4864(9) 0.1738(10)
O23 O 0.0928(5) 1.1663(5) 0.1726(4)
C73 C 0.4285(8) 0.4740(7) 0.4494(6)
C75 C 0.3865(9) 1.0220(7) 0.2095(5)
C77 C 0.0662(10) 0.9442(9) 0.4144(6)
N25 N 0.0857(8) 0.7750(7) 0.3425(6)
C78 C 0.1241(10) 0.6247(8) 0.3051(6)
C80 C 0.6171(8) 0.8422(7) 0.2138(6)
C81 C 0.2018(8) 1.1175(7) 0.1936(5)
C83 C 0.1611(9) 1.0308(8) 0.4729(5)
C85 C 0.2311(10) 0.5354(9) 0.2628(8)
C86 C 0.5238(9) 0.8297(8) 0.1972(5)
C89 C 0.2586(7) 1.0942(6) 0.2018(5)
O24 O 0.5380(6) 0.4473(4) 0.4208(4)
C90 C 0.1606(7) 1.0800(6) 0.4900(5)
C91 C 0.5728(10) 0.6249(8) 0.4349(5)
C95 C 0.1341(11) 0.9721(10) 0.1281(7)
C96 C 0.1616(8) 0.8765(6) 0.1039(5)
C97 C 0.2738(8) 1.0004(8) 0.1818(5)
C98 C 0.4446(9) 0.3138(6) 0.4209(6)
C101 C 0.1776(8) 1.1668(6) 0.5218(7)
C102 C 0.0853(9) 0.6850(8) 0.3256(6)
C103 C -0.0328(10) 0.9854(9) 0.4080(5)
C104 C 0.1098(7) 1.0715(7) 0.1516(5)
C107 C 0.6301(8) 0.7877(7) 0.2035(6)
C109 C 0.6045(11) 0.6551(9) 0.4313(7)
C111 C 0.4784(11) 0.4943(10) 0.4398(6)
C112 C 0.4929(11) 0.5414(10) 0.1947(10)
C115 C 0.1508(10) 1.0087(9) 0.1464(6)
C117 C 0.0557(10) 0.9971(10) 0.4326(5)
C120 C 0.0233(10) 0.9348(9) 0.4005(6)
C122 C 0.1248(10) 1.1092(9) 0.1680(6)
C123 C 0.2564(9) 0.4560(7) 0.4982(5)
C128 C 0.6296(8) 1.0667(8) 0.2556(6)
C129 C -0.0017(10) 0.8812(9) 0.3731(7)
C132 C 0.4731(10) 0.6257(9) 0.4505(6)
C145 C 0.4348(12) 0.2649(8) 0.4041(9)
C150 C 0.6435(9) 1.0048(9) 0.2449(7)
C152 C 0.0454(8) 1.1967(8) 0.1524(7)
C153 C 0.7103(9) 0.6572(8) 0.4080(8)
C157 C -0.0448(8) 1.0371(7) 0.4261(5)
C158 C 0.7046(8) 0.9632(8) 0.1947(7)
C169 C 0.3822(11) 0.4097(8) 0.4525(7)
C170 C 0.5003(10) 0.5683(9) 0.4400(6)
O27 O 0.0571(6) 1.0968(5) 0.4711(5)
C172 C 0.6386(12) 0.6208(12) 0.1707(9)
N28 N 0.2969(9) 0.6025(6) 0.2581(5)
C173 C 0.5728(9) 0.7156(7) 0.4448(6)
C174 C -0.0704(9) 0.9717(9) 0.3944(8)
C175 C 0.1227(10) 0.7138(8) 0.3210(7)
C176 C 0.2279(10) 0.6255(8) 0.2788(6)
C178 C 0.0234(12) 0.8154(10) 0.3534(7)
F15 F 0.4506(5) 0.6417(4) 0.2197(3)
F16 F 0.2182(5) 0.7182(3) 0.2981(3)
O30 O 0.0545(5) 0.5783(4) 0.5992(5)
N29 N 0.5764(8) 0.6305(7) 0.1850(6)
C182 C 0.6984(10) 0.5658(8) 0.1475(6)
C183 C 0.1918(10) 0.6844(8) 0.2989(6)
O31 O -0.1230(6) 1.0219(5) 0.3943(4)
C184 C -0.1658(9) 1.0193(8) 0.3746(7)
C186 C -0.0619(9) 0.9224(8) 0.3750(7)
O32 O 0.0171(6) 0.6761(5) 0.6097(4)
O36 O -0.0193(6) 0.8017(5) 0.3518(4)
O37 O 0.7442(10) 0.4634(5) 0.1202(5)
C190 C 0.8526(15) 0.3956(9) 0.0620(14)
C191 C 0.6529(14) 0.6667(12) 0.1713(10)
C192 C 0.1941(11) 0.5955(9) 0.2819(7)
C193 C -0.0524(11) 0.6942(9) 0.6455(11)
C195 C 0.5043(10) 0.7451(8) 0.4568(6)
O38 O 0.7042(7) 0.6680(6) 0.1637(7)
C199 C -0.1884(7) 1.1155(7) 0.3448(6)
C200 C 0.4600(11) 0.8131(9) 0.4684(6)
C201 C -0.2224(10) 1.0790(9) 0.3799(8)
C202 C -0.2726(8) 1.0807(7) 0.3610(6)
C205 C 0.6226(13) 0.5277(11) 0.1583(9)
C206 C 0.5054(13) 0.5863(9) 0.1958(8)
C211 C 0.6124(13) 0.4797(8) 0.1553(9)
C212 C 0.3298(8) 0.5451(7) 0.2406(7)
C213 C 0.7844(11) 0.6160(10) 0.3828(9)
C214 C 0.3010(10) 0.5114(7) 0.2410(7)
C215 C -0.0561(9) 0.6722(7) 0.7042(7)
C216 C 0.5085(9) 0.2074(6) 0.3810(8)
C218 C 0.5693(12) 0.5847(9) 0.1827(8)
C220 C -0.0766(7) 0.7594(6) 0.6501(6)
C223 C 0.8071(9) 0.5924(7) 0.3201(7)
C224 C 0.2264(13) 0.4475(9) 0.2537(10)
C225 C 0.1950(11) 1.2090(7) 0.5391(9)
O45 O 0.4409(7) 0.4657(4) 0.1959(5)
C227 C 0.6861(13) 0.5178(11) 0.1428(10)
C230 C 0.0692(10) 0.6179(8) 0.5858(7)
C231 C 0.1706(15) 0.4322(11) 0.2588(15)
C232 C -0.0782(9) 0.6746(8) 0.6176(8)
C233 C 0.2659(12) 1.1951(10) 0.4881(13)
C234 C 0.4054(10) 0.5172(7) 0.2129(8)
C236 C 0.8211(9) 0.6429(9) 0.3882(9)
C239 C 0.8107(13) 0.4564(11) 0.1003(12)
C240 C 0.1317(11) 1.2716(7) 0.5536(12)
C242 C 0.0209(10) 1.2666(9) 0.1650(9)
C243 C 0.3920(12) 0.2512(9) 0.4531(10)
C247 C 0.0846(10) 1.2581(8) 0.1156(10)
C248 C -0.0266(11) 1.2798(8) 0.1399(11)
C256 C 0.8453(14) 0.3568(10) 0.1010(11)
C257 C 0.2164(17) 0.3657(11) 0.2528(16)
C260 C 0.164(2) 0.4582(15) 0.2016(17)
C262 C 0.9210(14) 0.3785(11) 0.0496(15)
H1 H 0.3658 0.9681 0.1969
H9 H 0.1390 0.9648 0.4395
H14 H 0.3898 0.8118 0.4616
H17 H 0.4806 1.0274 0.2331
H19 H 0.1520 0.5046 0.5375
H20 H 0.4057 0.9254 0.5011
H24 H 0.4216 0.5690 0.4543
H25 H 0.4002 0.5923 0.2237
H28 H 0.5906 0.4979 0.4219
H29 H 0.5405 1.0375 0.2715
H30 H 0.5814 1.0304 0.2077
H31 H 0.3226 1.0231 0.5156
H32 H 0.4748 0.3905 0.4272
H34 H -0.0123 1.0786 0.4523
H35 H 0.5573 0.7176 0.1915
H36 H 0.6531 0.5438 0.4154
H37 H 0.5372 0.4554 0.1713
H39 H 0.1077 0.7876 0.3495
H40 H 0.1020 0.6041 0.3073
H43 H 0.6462 0.8492 0.2203
H44 H 0.1762 1.1574 0.1991
H50 H 0.2713 1.1173 0.2125
H51 H 0.1277 1.1177 0.4947
H55 H 0.1945 0.8380 0.1019
H56 H 0.1656 0.8822 0.0683
H57 H 0.1174 0.8818 0.1281
H58 H 0.4637 0.3020 0.4456
H59 H 0.4746 0.3222 0.3890
H61 H 0.1335 1.1733 0.5492
H62 H 0.1762 1.1742 0.4878
H63 H 0.0387 0.7044 0.3409
H64 H 0.0740 1.0858 0.1439
H68 H 0.6682 0.7566 0.2027
H78 H 0.2587 0.4207 0.4930
H86 H 0.5921 1.0855 0.2911
H87 H 0.6194 1.0875 0.2286
H88 H 0.6685 1.0660 0.2539
H112 H 0.6429 0.9870 0.2770
H113 H 0.0071 1.1899 0.1706
H114 H 0.0663 1.1838 0.1136
H115 H 0.6954 0.6769 0.4433
H116 H 0.7015 0.6859 0.3851
H124 H -0.0834 1.0700 0.4300
H125 H 0.7092 0.9252 0.1974
H126 H 0.7439 0.9627 0.1919
H127 H 0.6996 0.9751 0.1631
H144 H 0.5952 0.7348 0.4457
H146 H 0.7411 0.5611 0.1364
H147 H -0.1852 0.9957 0.3950
H148 H -0.1388 1.0011 0.3367
H149 H -0.0896 0.9170 0.3651
H151 H 0.8440 0.3926 0.0317
H155 H -0.1604 1.1179 0.3579
H156 H -0.2227 1.1536 0.3478
H157 H -0.1615 1.0971 0.3074
H158 H -0.2482 1.0977 0.4181
H159 H -0.2957 1.0607 0.3832
H160 H -0.2481 1.0623 0.3236
H161 H -0.3046 1.1200 0.3644
H170 H 0.6495 0.4431 0.1413
H171 H 0.7911 0.5831 0.4022
H172 H 0.3284 0.4723 0.2266
H173 H -0.0343 0.6861 0.7160
H174 H -0.0338 0.6308 0.6988
H175 H -0.1022 0.6871 0.7312
H176 H 0.5228 0.2001 0.4085
H177 H 0.5404 0.2134 0.3492
H178 H 0.5056 0.1749 0.3717
H182 H -0.0600 0.7699 0.6705
H183 H -0.1248 0.7802 0.6683
H184 H -0.0599 0.7690 0.6143
H186 H 0.8542 0.5652 0.3021
H187 H 0.7982 0.6243 0.3009
H188 H 0.7820 0.5739 0.3208
H189 H 0.2459 0.4268 0.2767
H190 H 0.2621 0.4356 0.2164
H191 H 0.2008 1.1992 0.5715
H193 H 0.1287 0.4496 0.2932
H194 H -0.0739 0.6916 0.5854
H195 H -0.1247 0.6860 0.6413
H196 H -0.0529 0.6334 0.6077
H197 H 0.3001 1.1583 0.4879
H198 H 0.2771 1.2244 0.4907
H199 H 0.2631 1.1943 0.4550
H200 H 0.8685 0.6169 0.3689
H201 H 0.8077 0.6515 0.4260
H202 H 0.8109 0.6779 0.3733
H205 H 0.8221 0.4550 0.1293
H206 H 0.8162 0.4864 0.0800
H207 H 0.0980 1.2776 0.5904
H208 H 0.1135 1.2746 0.5293
H209 H 0.1457 1.3004 0.5498
H213 H 0.0055 1.2862 0.2009
H214 H 0.4067 0.2106 0.4482
H215 H 0.3462 0.2724 0.4596
H216 H 0.3950 0.2616 0.4836
H218 H 0.0840 1.2945 0.1106
H219 H 0.0878 1.2420 0.0840
H220 H 0.1227 1.2322 0.1206
H221 H -0.0672 1.2800 0.1664
H222 H -0.0047 1.2507 0.1088
H223 H -0.0373 1.3169 0.1287
H227 H 0.8740 0.3176 0.0823
H228 H 0.7994 0.3645 0.1194
H229 H 0.8578 0.3626 0.1271
H230 H 0.2124 0.3563 0.2877
H231 H 0.2624 0.3554 0.2282
H232 H 0.2025 0.3447 0.2389
H236 H 0.1293 0.4538 0.1992
H237 H 0.2057 0.4369 0.1696
H238 H 0.1516 0.4983 0.2047
H239 H 0.9383 0.3984 0.0218
H240 H 0.9483 0.3377 0.0370
H241 H 0.9216 0.3882 0.0818
C6 C 0.2931(4) 0.7999(3) 0.3648(4)
C79 C 0.3398(12) 0.7687(10) 0.2169(7)
C113 C 0.3891(10) 0.7579(7) 0.1806(6)
C148 C 0.3516(9) 0.7833(6) 0.2598(6)
C154 C 0.2999(9) 0.7819(7) 0.3194(7)
H11 H 0.2565 0.7973 0.3947
H12 H 0.2841 0.8393 0.3661
H13 H 0.3338 0.7765 0.3671
H41 H 0.3316 0.7359 0.2225
H42 H 0.3027 0.8012 0.2143
H70 H 0.3886 0.7478 0.1484
H71 H 0.4246 0.7260 0.1848
H72 H 0.3964 0.7908 0.1772
H107 H 0.3476 0.8215 0.2585
H108 H 0.3971 0.7562 0.2528
H117 H 0.2557 0.8030 0.3216
H118 H 0.3096 0.7420 0.3200
O16 O 0.3869(5) 0.9164(5) 0.8898(4)
C82 C 0.9158(7) 0.6109(5) 0.0954(7)
C249 C 0.8711(14) 0.5289(15) 0.1593(11)
C259 C 0.8841(10) 0.5223(13) 0.1049(10)
C264 C 0.8272(15) 0.5998(14) 0.1791(10)
C265 C 0.8483(13) 0.6145(14) 0.1173(10)
C135 C 0.1841(11) 0.7572(8) 0.4746(9)
C151 C 0.2475(8) 0.7362(7) 0.4826(7)
Cl3 Cl 0.1109(3) 0.7612(2) 0.5362(2)
Cl4 Cl 0.2278(3) 0.7958(2) 0.5248(2)
O34 O 0.3765(3) 0.7445(3) 0.6144(3)
O35 O 0.2661(4) 0.2281(3) 0.2424(4)
O41 O 0.427(3) 0.3330(13) 0.261(2)
C261 C 0.405(5) 0.316(2) 0.252(3)
C210 C 0.8948(9) 0.8115(8) 0.2321(8)
C228 C 0.7925(12) 0.9139(12) 0.3430(11)
C229 C 0.8907(9) 0.7916(8) 0.2908(8)
C237 C 0.8671(12) 0.8557(10) 0.3125(9)
C263 C 0.7822(14) 0.9286(10) 0.2937(13)
O44 O 0.548(3) 0.279(3) 0.200(2)
O46 O 0.4678(15) 0.8502(12) 0.8886(14)
O47 O 0.3444(11) 0.7060(12) 0.5938(8)
C255 C 0.3211(16) 0.6724(9) 0.6068(14)
O48 O 0.0254(4) 0.8701(4) 0.0746(4)
O49 O 0.791(2) 0.701(3) 0.227(3)
O50 O 0.8869(5) 0.0027(4) 0.2134(3)
O51 O 0.6671(10) 0.3165(5) 0.1557(6)
O52 O 0.0612(18) 0.8139(14) 0.9424(12)
O53 O 0.0719(8) 0.4950(19) 0.0485(13)
O57 O 0.9831(11) 0.5321(15) 0.4238(18)
O58 O 0.168(4) 0.8347(19) 0.8213(17)
O59 O 0.0537(19) 0.4536(12) 0.1311(18)
O60 O 0.0077(15) 0.557(3) 0.3512(16)
O61 O 0.7345(13) 0.3146(6) 0.2306(7)
O62 O 0.268(3) 0.8339(11) 0.7703(9)
O63 O 0.9571(19) 0.941(3) 0.144(2)
O64 O 0.5695(18) 0.7939(10) 0.8649(15)
O66 O 0.057(3) 0.869(2) 0.882(5)
O67 O 0.0544(8) 0.3780(8) 0.0014(13)
O68 O 0.077(2) 0.371(3) 0.0730(18)
O69 O 0.0016(16) 0.5253(17) 0.747(3)
O70 O 0.5286(15) 0.3299(10) 0.2678(10)
C163? C 0.7107(7) 0.8257(10) 0.3095(6)
O29? O 0.3088(4) 0.6397(4) 0.5822(3)
O33? O 0.5653(8) 0.7660(5) 0.8783(8)
C209? C 0.4984(7) 0.6462(6) 0.9539(7)
O42? O 0.4078(8) 0.1518(7) 0.3186(6)
C235? C 0.396(3) 0.1685(13) 0.2912(15)
O54? O 0.6688(4) 0.8545(6) 0.3840(4)
O55? O 0.3062(12) 0.1966(6) 0.2853(9)
C245? C 0.264(3) 0.2056(18) 0.3587(13)
C250? C 0.6995(18) 0.7908(12) 0.4138(15)
O65? O 0.7725(5) 0.7549(5) 0.2319(5)
C252? C 0.6419(4) 0.5838(3) 0.9025(3)
C253? C 0.4227(4) 0.6778(3) 0.9620(4)
C254? C 0.5806(7) 0.6159(5) 0.9148(7)
loop_
_geom_bond_atom_site_label_1
_geom_bond_atom_site_label_2
_geom_bond_site_symmetry_1
_geom_bond_site_symmetry_2
Cl1 C130 1_555 1_555
F1 C13 1_555 1_555
F2 C127 1_555 1_555
F3 C26 1_555 1_555
F4 C54 1_555 1_555
F5 C4 1_555 1_555
F6 C24 1_555 1_555
F7 C23 1_555 1_555
F8 C97 1_555 1_555
N1 C10 1_555 1_555
F9 C132 1_555 1_555
O1 C42 1_555 1_555
O2 C76 1_555 1_555
F10 C121 1_555 1_555
N2 C49 1_555 1_555
F11 C11 1_555 1_555
F12 C86 1_555 1_555
N3 C7 1_555 1_555
C1 C3 1_555 1_555
O3 C47 1_555 1_555
N4 C22 1_555 1_555
N5 C34 1_555 1_555
N6 C12 1_555 1_555
C2 C22 1_555 1_555
O4 C110 1_555 1_555
N7 C29 1_555 1_555
N8 C16 1_555 1_555
O5 C55 1_555 1_555
O6 C41 1_555 1_555
N9 C37 1_555 1_555
Cl2 C138 1_555 1_555
N10 C9 1_555 1_555
C3 C32 1_555 1_555
O7 C200 1_555 1_555
O8 C59 1_555 1_555
C4 C7 1_555 1_555
C5 C8 1_555 1_555
N11 C61 1_555 1_555
N12 C30 1_555 1_555
C6 C154 1_555 1_555
F13 C77 1_555 1_555
O9 C75 1_555 1_555
C7 C15 1_555 1_555
C8 N3 1_555 1_555
O10 C177 1_555 1_555
F14 C70 1_555 1_555
O11 C142 1_555 1_555
N13 C94 1_555 1_555
N14 C31 1_555 1_555
C9 C26 1_555 1_555
O12 C57 1_555 1_555
N15 C20 1_555 1_555
N16 C53 1_555 1_555
O13 C72 1_555 1_555
C10 C17 1_555 1_555
O14 C95 1_555 1_555
C11 C50 1_555 1_555
O15 C141 1_555 1_555
C12 C25 1_555 1_555
C13 C21 1_555 1_555
N17 C64 1_555 1_555
C14 C34 1_555 1_555
N18 C46 1_555 1_555
C15 C40 1_555 1_555
C16 C43 1_555 1_555
C17 C42 1_555 1_555
N19 C106 1_555 1_555
C18 C31 1_555 1_555
C19 C28 1_555 1_555
C20 C51 1_555 1_555
O17 C99 1_555 1_555
C21 C87 1_555 1_555
C22 C4 1_555 1_555
C23 C30 1_555 1_555
C24 C37 1_555 1_555
C25 C63 1_555 1_555
C26 C27 1_555 1_555
C27 N1 1_555 1_555
C28 C13 1_555 1_555
C29 C92 1_555 1_555
C30 C116 1_555 1_555
C31 C127 1_555 1_555
C32 C9 1_555 1_555
C33 C48 1_555 1_555
C34 C54 1_555 1_555
C35 C19 1_555 1_555
C36 C50 1_555 1_555
C37 C165 1_555 1_555
C38 C46 1_555 1_555
C39 N8 1_555 1_555
C40 C2 1_555 1_555
C41 N7 1_555 1_555
O18 C95 1_555 1_555
C42 C1 1_555 1_555
C43 C72 1_555 1_555
C44 C166 1_555 1_555
C45 C53 1_555 1_555
C46 C54 1_555 1_555
C47 C5 1_555 1_555
O19 C98 1_555 1_555
N20 C111 1_555 1_555
C48 N6 1_555 1_555
C49 C89 1_555 1_555
O20 C109 1_555 1_555
C50 N23 1_555 1_555
C51 C81 1_555 1_555
N21 C112 1_555 1_555
C52 C60 1_555 1_555
C53 C11 1_555 1_555
C55 C18 1_555 1_555
C56 C18 1_555 1_555
C57 C14 1_555 1_555
C58 C69 1_555 1_555
C59 C150 1_555 1_555
C60 C39 1_555 1_555
C61 C83 1_555 1_555
C62 C14 1_555 1_555
C63 O8 1_555 1_555
N22 C120 1_555 1_555
N23 C230 1_555 1_555
C64 C91 1_555 1_555
C65 N24 1_555 1_555
C66 C73 1_555 1_555
C67 C55 1_555 1_555
O21 C85 1_555 1_555
C68 C117 1_555 1_555
N24 C191 1_555 1_555
C69 C91 1_555 1_555
C70 C185 1_555 1_555
C71 C112 1_555 1_555
O22 C126 1_555 1_555
O23 C122 1_555 1_555
C72 C60 1_555 1_555
C73 N16 1_555 1_555
C74 C125 1_555 1_555
C75 N2 1_555 1_555
C76 N4 1_555 1_555
C77 C117 1_555 1_555
N25 C175 1_555 1_555
C78 C102 1_555 1_555
C79 C113 1_555 1_555
C80 C25 1_555 1_555
C81 C89 1_555 1_555
C82 C265 1_555 1_555
C83 N5 1_555 1_555
C84 O5 1_555 1_555
C85 C192 1_555 1_555
C86 C12 1_555 1_555
C87 C35 1_555 1_555
C88 O3 1_555 1_555
C89 H50 1_555 1_555
O24 C111 1_555 1_555
C90 C57 1_555 1_555
C91 C109 1_555 1_555
C92 C136 1_555 1_555
C93 C144 1_555 1_555
C94 C121 1_555 1_555
C95 C115 1_555 1_555
C96 O14 1_555 1_555
C97 C20 1_555 1_555
C98 C145 1_555 1_555
C99 N12 1_555 1_555
C100 C116 1_555 1_555
O25 C143 1_555 1_555
C101 O12 1_555 1_555
C102 C175 1_555 1_555
C103 C120 1_555 1_555
C104 C115 1_555 1_555
C105 C194 1_555 1_555
C106 C119 1_555 1_555
C107 C65 1_555 1_555
C108 C84 1_555 1_555
C109 C173 1_555 1_555
C110 C118 1_555 1_555
C111 C73 1_555 1_555
C112 C206 1_555 1_555
C113 H70 1_555 1_555
C114 N14 1_555 1_555
C115 N15 1_555 1_555
C116 H73 1_555 1_555
C117 N11 1_555 1_555
C118 H74 1_555 1_555
C119 C56 1_555 1_555
C120 C77 1_555 1_555
C121 C29 1_555 1_555
C122 C51 1_555 1_555
C123 C36 1_555 1_555
C124 C108 1_555 1_555
C125 O1 1_555 1_555
C126 C196 1_555 1_555
O26 C189 1_555 1_555
C127 C106 1_555 1_555
C128 C150 1_555 1_555
C129 N22 1_555 1_555
C130 C138 1_555 1_555
C131 C94 1_555 1_555
C132 C64 1_555 1_555
C133 C194 1_555 1_555
C134 C144 1_555 1_555
C135 C151 1_555 1_555
C136 C131 1_555 1_555
C137 O22 1_555 1_555
C139 C185 1_555 1_555
C140 C137 1_555 1_555
C141 N9 1_555 1_555
C142 C226 1_555 1_555
C143 O4 1_555 1_555
C144 C161 1_555 1_555
C145 C216 1_555 1_555
C146 C108 1_555 1_555
C147 C74 1_555 1_555
C148 C79 1_555 1_555
C149 C222 1_555 1_555
C150 C158 1_555 1_555
C151 Cl4 1_555 1_555
C152 O23 1_555 1_555
C153 O20 1_555 1_555
C154 C148 1_555 1_555
C155 C222 1_555 1_555
C156 O13 1_555 1_555
C157 C68 1_555 1_555
C158 H125 1_555 1_555
C159 C226 1_555 1_555
C160 C226 1_555 1_555
C161 H134 1_555 1_555
C162 C110 1_555 1_555
C164 C74 1_555 1_555
C165 C52 1_555 1_555
N26 C28 1_555 1_555
C166 O11 1_555 1_555
C167 C44 1_555 1_555
C168 N13 1_555 1_555
C169 C45 1_555 1_555
C170 N20 1_555 1_555
O27 C61 1_555 1_555
C171 C23 1_555 1_555
Cl3 C135 1_555 1_555
N27 C171 1_555 1_555
C172 N29 1_555 1_555
N28 C176 1_555 1_555
C173 C195 1_555 1_555
C174 C103 1_555 1_555
C175 C183 1_555 1_555
C176 C183 1_555 1_555
C177 N10 1_555 1_555
C178 N25 1_555 1_555
O28 C93 1_555 1_555
C179 C100 1_555 1_555
F15 C206 1_555 1_555
F16 C183 1_555 1_555
O30 C230 1_555 1_555
N29 C218 1_555 1_555
C180 C181 1_555 1_555
C181 O28 1_555 1_555
C182 C172 1_555 1_555
O31 C174 1_555 1_555
C184 O31 1_555 1_555
C185 N30 1_555 1_555
C186 C129 1_555 1_555
O32 C193 1_555 1_555
N30 C189 1_555 1_555
C187 N27 1_555 1_555
C188 C70 1_555 1_555
O36 C178 1_555 1_555
O37 C227 1_555 1_555
C189 C168 1_555 1_555
C190 C239 1_555 1_555
C191 C172 1_555 1_555
C192 C78 1_555 1_555
C193 C215 1_555 1_555
C194 C88 1_555 1_555
C195 N17 1_555 1_555
C196 C203 1_555 1_555
O38 C191 1_555 1_555
C197 C187 1_555 1_555
C198 C139 1_555 1_555
C199 C201 1_555 1_555
C200 N18 1_555 1_555
C201 C184 1_555 1_555
C202 C201 1_555 1_555
O39 C197 1_555 1_555
N31 C21 1_555 1_555
C203 H163 1_555 1_555
C204 C110 1_555 1_555
N32 C188 1_555 1_555
C205 C211 1_555 1_555
C206 C218 1_555 1_555
C207 C188 1_555 1_555
C208 C219 1_555 1_555
O40 C219 1_555 1_555
O41 C261 1_555 1_555
C210 C229 1_555 1_555
C211 C71 1_555 1_555
C212 N28 1_555 1_555
C213 C153 1_555 1_555
C214 C85 1_555 1_555
C215 H173 1_555 1_555
C216 H176 1_555 1_555
C217 C196 1_555 1_555
O43 C241 1_555 1_555
C218 C205 1_555 1_555
C219 C207 1_555 1_555
C220 C193 1_555 1_555
C221 N32 1_555 1_555
C222 C156 1_555 1_555
C223 C213 1_555 1_555
C224 O21 1_555 1_555
C225 C101 1_555 1_555
C226 H192 1_555 1_555
O45 C234 1_555 1_555
C227 C182 1_555 1_555
C228 C237 1_555 1_555
O47 C255 1_555 1_555
C229 C237 1_555 1_555
C230 O32 1_555 1_555
C231 C224 1_555 1_555
C232 C193 1_555 1_555
C233 C225 1_555 1_555
C234 N21 1_555 1_555
C236 C213 1_555 1_555
C238 O40 1_555 1_555
C239 O37 1_555 1_555
C240 C225 1_555 1_555
C241 H210 1_555 1_555
O56 C244 1_555 1_555
C242 C152 1_555 1_555
C243 C145 1_555 1_555
C244 O43 1_555 1_555
C246 C238 1_555 1_555
C247 C242 1_555 1_555
C248 C242 1_555 1_555
C249 C259 1_555 1_555
C251 C246 1_555 1_555
C256 C190 1_555 1_555
C257 C231 1_555 1_555
C258 C246 1_555 1_555
C260 C231 1_555 1_555
C262 C190 1_555 1_555
C263 C228 1_555 1_555
C264 C249 1_555 1_555
C265 C264 1_555 1_555
H1 N2 1_555 1_555
H2 N4 1_555 1_555
H3 C2 1_555 1_555
H4 N7 1_555 1_555
H5 N9 1_555 1_555
H6 N10 1_555 1_555
H7 C3 1_555 1_555
H8 C5 1_555 1_555
H9 N11 1_555 1_555
H10 N12 1_555 1_555
H11 C6 1_555 1_555
H12 C6 1_555 1_555
H13 C6 1_555 1_555
H14 N18 1_555 1_555
H15 C17 1_555 1_555
H16 C32 1_555 1_555
H17 C33 1_555 1_555
H18 C35 1_555 1_555
H19 C36 1_555 1_555
H20 C38 1_555 1_555
H21 C40 1_555 1_555
H22 C43 1_555 1_555
H23 C44 1_555 1_555
H24 N20 1_555 1_555
H25 N21 1_555 1_555
H26 C52 1_555 1_555
H27 C56 1_555 1_555
H28 C58 1_555 1_555
H29 C59 1_555 1_555
H30 C59 1_555 1_555
H31 C62 1_555 1_555
H32 C66 1_555 1_555
H33 C67 1_555 1_555
H34 C68 1_555 1_555
H35 N24 1_555 1_555
H36 C69 1_555 1_555
H37 C71 1_555 1_555
H38 C74 1_555 1_555
H39 N25 1_555 1_555
H40 C78 1_555 1_555
H41 C79 1_555 1_555
H42 C79 1_555 1_555
H43 C80 1_555 1_555
H44 C81 1_555 1_555
H45 C84 1_555 1_555
H46 C84 1_555 1_555
H47 C87 1_555 1_555
H48 C88 1_555 1_555
H49 C88 1_555 1_555
H51 C90 1_555 1_555
H52 C92 1_555 1_555
H53 C93 1_555 1_555
H54 C93 1_555 1_555
H55 C96 1_555 1_555
H56 C96 1_555 1_555
H57 C96 1_555 1_555
H58 C98 1_555 1_555
H59 C98 1_555 1_555
H60 C100 1_555 1_555
H61 C101 1_555 1_555
H62 C101 1_555 1_555
H63 C102 1_555 1_555
H64 C104 1_555 1_555
H65 C105 1_555 1_555
H66 C105 1_555 1_555
H67 C105 1_555 1_555
H68 C107 1_555 1_555
H69 C108 1_555 1_555
H71 C113 1_555 1_555
H72 C113 1_555 1_555
H75 C118 1_555 1_555
H76 C118 1_555 1_555
H77 C119 1_555 1_555
H78 C123 1_555 1_555
H79 C124 1_555 1_555
H80 C124 1_555 1_555
H81 C124 1_555 1_555
H82 C125 1_555 1_555
H83 C125 1_555 1_555
H84 C126 1_555 1_555
H85 C126 1_555 1_555
H86 C128 1_555 1_555
H87 C128 1_555 1_555
H88 C128 1_555 1_555
H89 C133 1_555 1_555
H90 C133 1_555 1_555
H91 C133 1_555 1_555
H92 C134 1_555 1_555
H93 C134 1_555 1_555
H94 C134 1_555 1_555
H95 C136 1_555 1_555
H96 C139 1_555 1_555
H97 C140 1_555 1_555
H98 C142 1_555 1_555
H99 C142 1_555 1_555
H100 C144 1_555 1_555
H101 C146 1_555 1_555
H102 C146 1_555 1_555
H103 C146 1_555 1_555
H104 C147 1_555 1_555
H105 C147 1_555 1_555
H106 C147 1_555 1_555
H107 C148 1_555 1_555
H108 C148 1_555 1_555
H109 C149 1_555 1_555
H110 C149 1_555 1_555
H111 C149 1_555 1_555
H112 C150 1_555 1_555
H113 C152 1_555 1_555
H114 C152 1_555 1_555
H115 C153 1_555 1_555
H116 C153 1_555 1_555
H117 C154 1_555 1_555
H118 C154 1_555 1_555
H119 C155 1_555 1_555
H120 C155 1_555 1_555
H121 C155 1_555 1_555
H122 C156 1_555 1_555
H123 C156 1_555 1_555
H124 C157 1_555 1_555
H126 C158 1_555 1_555
H127 C158 1_555 1_555
H128 C159 1_555 1_555
H129 C159 1_555 1_555
H130 C159 1_555 1_555
H131 C160 1_555 1_555
H132 C160 1_555 1_555
H133 C160 1_555 1_555
H135 C161 1_555 1_555
H136 C161 1_555 1_555
H137 C162 1_555 1_555
H138 C162 1_555 1_555
H139 C162 1_555 1_555
H140 C164 1_555 1_555
H141 C164 1_555 1_555
H142 C164 1_555 1_555
H143 C165 1_555 1_555
H144 C173 1_555 1_555
H145 C180 1_555 1_555
H146 C182 1_555 1_555
H147 C184 1_555 1_555
H148 C184 1_555 1_555
H149 C186 1_555 1_555
H150 N30 1_555 1_555
H151 C190 1_555 1_555
H152 C194 1_555 1_555
H153 C196 1_555 1_555
H154 C198 1_555 1_555
H155 C199 1_555 1_555
H156 C199 1_555 1_555
H157 C199 1_555 1_555
H158 C201 1_555 1_555
H159 C202 1_555 1_555
H160 C202 1_555 1_555
H161 C202 1_555 1_555
H162 N31 1_555 1_555
H164 C203 1_555 1_555
H165 C203 1_555 1_555
H166 C204 1_555 1_555
H167 C204 1_555 1_555
H168 C204 1_555 1_555
H169 C208 1_555 1_555
H170 C211 1_555 1_555
H171 C213 1_555 1_555
H172 C214 1_555 1_555
H174 C215 1_555 1_555
H175 C215 1_555 1_555
H177 C216 1_555 1_555
H178 C216 1_555 1_555
H179 C217 1_555 1_555
H180 C217 1_555 1_555
H181 C217 1_555 1_555
H182 C220 1_555 1_555
H183 C220 1_555 1_555
H184 C220 1_555 1_555
H185 C222 1_555 1_555
H186 C223 1_555 1_555
H187 C223 1_555 1_555
H188 C223 1_555 1_555
H189 C224 1_555 1_555
H190 C224 1_555 1_555
H191 C225 1_555 1_555
H193 C231 1_555 1_555
H194 C232 1_555 1_555
H195 C232 1_555 1_555
H196 C232 1_555 1_555
H197 C233 1_555 1_555
H198 C233 1_555 1_555
H199 C233 1_555 1_555
H200 C236 1_555 1_555
H201 C236 1_555 1_555
H202 C236 1_555 1_555
H203 C238 1_555 1_555
H204 C238 1_555 1_555
H205 C239 1_555 1_555
H206 C239 1_555 1_555
H207 C240 1_555 1_555
H208 C240 1_555 1_555
H209 C240 1_555 1_555
H211 C241 1_555 1_555
H212 C241 1_555 1_555
H213 C242 1_555 1_555
H214 C243 1_555 1_555
H215 C243 1_555 1_555
H216 C243 1_555 1_555
H217 C246 1_555 1_555
H218 C247 1_555 1_555
H219 C247 1_555 1_555
H220 C247 1_555 1_555
H221 C248 1_555 1_555
H222 C248 1_555 1_555
H223 C248 1_555 1_555
H224 C251 1_555 1_555
H225 C251 1_555 1_555
H226 C251 1_555 1_555
H227 C256 1_555 1_555
H228 C256 1_555 1_555
H229 C256 1_555 1_555
H230 C257 1_555 1_555
H231 C257 1_555 1_555
H232 C257 1_555 1_555
H233 C258 1_555 1_555
H234 C258 1_555 1_555
H235 C258 1_555 1_555
H236 C260 1_555 1_555
H237 C260 1_555 1_555
H238 C260 1_555 1_555
H239 C262 1_555 1_555
H240 C262 1_555 1_555
H241 C262 1_555 1_555
C1 C27 1_555 1_555
C8 C41 1_555 1_555
C10 C76 1_555 1_555
C15 C47 1_555 1_555
C16 C99 1_555 1_555
N19 C143 1_555 1_555
C19 C166 1_555 1_555
C24 C39 1_555 1_555
C33 C63 1_555 1_555
C38 C62 1_555 1_555
C45 C123 1_555 1_555
O19 C169 1_555 1_555
C48 C75 1_555 1_555
C49 C97 1_555 1_555
C58 C170 1_555 1_555
C65 C86 1_555 1_555
C66 C169 1_555 1_555
C67 C114 1_555 1_555
C80 C107 1_555 1_555
C83 C90 1_555 1_555
C103 C157 1_555 1_555
C104 C122 1_555 1_555
C114 C141 1_555 1_555
C129 C178 1_555 1_555
C131 C137 1_555 1_555
C132 C170 1_555 1_555
C140 C168 1_555 1_555
N26 C167 1_555 1_555
C167 C177 1_555 1_555
C171 C179 1_555 1_555
C174 C186 1_555 1_555
C176 C192 1_555 1_555
C179 C181 1_555 1_555
C180 C187 1_555 1_555
C195 C200 1_555 1_555
C197 N31 1_555 1_555
C198 C207 1_555 1_555
C205 C227 1_555 1_555
C208 C221 1_555 1_555
C212 C214 1_555 1_555
C212 C234 1_555 1_555
C221 C244 1_555 1_555

#END
