
#######################################################################
#
#                 Cambridge Crystallographic Data Centre
#                                CCDC 
#
#######################################################################
#
# If this CIF has been generated from an entry in the Cambridge 
# Structural Database, then it will include bibliographic, chemical, 
# crystal, experimental, refinement or atomic coordinate data resulting 
# from the CCDC's data processing and validation procedures.
#
#######################################################################

data_GIXVAL
_chemical_formula_moiety         
'C62 H64 F4 N8 O11,x(C2 H4 Cl2),x(C1 H4 O1),x(C7 H8),x(H2 O1)'
_chemical_name_systematic        
'Methyl 7-(((7-(((7-(((7-((t-butoxycarbonyl)amino)-8-fluoro-4-(2-methylpropoxy)quinolin-2-yl)carbonyl)amino)-8-fluoro-4-(2-methylpropoxy)quinolin-2-yl)carbonyl)amino)-8-fluoro-4-(2-methylpropoxy)quinolin-2-yl)carbonyl)amino)-8-fluoro-4-(2-methylpropoxy)quinoline-2-carboxylate 1,2-dichloroethane methanol toluene solvate hydrate'
_symmetry_cell_setting           orthorhombic
_symmetry_space_group_name_H-M   'F d d 2'
_symmetry_Int_Tables_number      43
_space_group_name_Hall           'F 2 -2d'
loop_
_symmetry_equiv_pos_site_id
_symmetry_equiv_pos_as_xyz
1 x,y,z
2 1/4-x,1/4+y,1/4+z
3 1/4+x,1/4-y,1/4+z
4 1/2-x,-y,1/2+z
5 x,1/2+y,1/2+z
6 1/4-x,3/4+y,3/4+z
7 1/4+x,3/4-y,3/4+z
8 1/2-x,1/2-y,z
9 1/2+x,y,1/2+z
10 3/4-x,1/4+y,3/4+z
11 3/4+x,1/4-y,3/4+z
12 -x,-y,z
13 1/2+x,1/2+y,z
14 3/4-x,3/4+y,1/4+z
15 3/4+x,3/4-y,1/4+z
16 -x,1/2-y,1/2+z
_cell_length_a                   45.7987(6)
_cell_length_b                   40.4084(5)
_cell_length_c                   40.8397(8)
_cell_angle_alpha                90
_cell_angle_beta                 90
_cell_angle_gamma                90
_cell_volume                     75580.1
_cell_formula_units_Z            32
_exptl_crystal_recrystallization_method toluene/1,2-dichloroethane/n-hexane
loop_
_atom_site_label
_atom_site_type_symbol
_atom_site_fract_x
_atom_site_fract_y
_atom_site_fract_z
F1 F -0.64907(10) -0.33836(10) 0.95399(13)
F4 F -0.62090(10) -0.22875(10) 0.89170(13)
F5 F -0.73920(10) -0.32278(10) 0.99900(14)
N1 N -0.57675(14) -0.26742(18) 0.91229(18)
H1 H -0.5945 -0.2734 0.9159
F6 F -0.70374(10) -0.17511(12) 0.85243(14)
N3 N -0.72504(15) -0.38580(14) 0.98963(17)
N4 N -0.59450(16) -0.32861(15) 0.93050(19)
N5 N -0.67195(16) -0.39798(14) 0.96741(16)
H3 H -0.6805 -0.3793 0.9708
C2 C -0.75235(16) -0.37941(19) 1.00000(19)
C5 C -0.63337(17) -0.3639(2) 0.9495(2)
C6 C -0.64227(17) -0.3959(2) 0.9561(2)
C7 C -0.7736(2) -0.4034(2) 1.0064(2)
N8 N -0.66263(15) -0.12989(15) 0.85687(18)
H4 H -0.6608 -0.1506 0.8611
C8 C -0.69033(19) -0.1204(2) 0.8463(2)
N9 N -0.61595(13) -0.16280(15) 0.87828(17)
C11 C -0.5857(2) -0.3880(2) 0.9325(2)
C12 C -0.75930(17) -0.34558(17) 1.0049(2)
N10 N -0.7610(2) -0.1635(2) 0.8354(2)
N11 N -0.79127(15) -0.30231(17) 1.0191(2)
C13 C -0.5676(2) -0.3262(2) 0.9207(2)
C14 C -0.7116(2) -0.14490(19) 0.8448(2)
C16 C -0.71887(18) -0.4174(2) 0.9849(2)
C17 C -0.56396(18) -0.16575(18) 0.8928(2)
C19 C -0.7384(2) -0.44389(19) 0.9895(3)
H8 H -0.7326 -0.4656 0.9855
C20 C -0.59464(17) -0.2142(2) 0.8955(2)
C21 C -0.8066(2) -0.3605(2) 1.0221(2)
H9 H -0.8250 -0.3541 1.0294
C23 C -0.5555(2) -0.2912(2) 0.9141(2)
O4 O -0.54183(14) -0.41045(16) 0.91522(18)
C24 C -0.59293(19) -0.18027(18) 0.8882(2)
C25 C -0.60396(19) -0.35940(17) 0.93692(19)
C26 C -0.7860(2) -0.33626(19) 1.0163(2)
C27 C -0.54748(17) -0.3522(2) 0.9155(2)
H10 H -0.5284 -0.3482 0.9089
C28 C -0.6978(2) -0.0874(2) 0.8381(2)
H11 H -0.6840 -0.0707 0.8395
O5 O -0.53437(13) -0.11947(16) 0.88775(19)
C30 C -0.57157(17) -0.2334(2) 0.9048(2)
C31 C -0.7471(2) -0.1054(3) 0.8257(3)
C33 C -0.7651(2) -0.43729(17) 0.9995(2)
C34 C -0.6244(2) -0.42367(17) 0.9503(2)
H13 H -0.6316 -0.4448 0.9540
O6 O -0.78663(15) -0.45926(13) 1.00396(19)
O9 O -0.53027(16) -0.28612(16) 0.9101(2)
C41 C -0.7404(2) -0.1394(3) 0.8354(2)
O10 O -0.63691(15) -0.08166(17) 0.85802(19)
C43 C -0.56136(19) -0.1315(2) 0.8849(2)
C46 C -0.5574(2) -0.3832(2) 0.9209(2)
O11 O -0.80955(14) -0.25533(14) 1.03707(19)
C48 C -0.7241(2) -0.0809(2) 0.8286(2)
H16 H -0.7286 -0.0591 0.8234
C49 C -0.61234(19) -0.1321(2) 0.8724(2)
O12 O -0.67940(13) -0.45246(14) 0.97035(19)
C54 C -0.6391(2) -0.11236(19) 0.8613(2)
C57 C -0.5971(2) -0.4200(2) 0.9394(3)
H21 H -0.5854 -0.4385 0.9362
O13 O -0.7808(2) -0.0677(3) 0.8054(2)
C59 C -0.5449(2) -0.2182(2) 0.9091(2)
H22 H -0.5292 -0.2305 0.9166
C60 C -0.7719(4) -0.0989(4) 0.8153(4)
C64 C -0.80123(17) -0.3934(2) 1.0175(2)
H23 H -0.8157 -0.4090 1.0216
C65 C -0.8155(3) -0.2001(2) 1.0471(3)
H24 H -0.8165 -0.1964 1.0239
H25 H -0.7955 -0.1992 1.0540
H26 H -0.8265 -0.1833 1.0582
C66 C -0.8276(2) -0.2324(3) 1.0548(3)
C67 C -0.6882(2) -0.42490(15) 0.9733(2)
C70 C -0.58477(18) -0.1137(2) 0.8755(2)
H28 H -0.5836 -0.0911 0.8712
C71 C -0.54127(18) -0.1863(3) 0.9027(2)
H29 H -0.5227 -0.1773 0.9048
C76 C -0.7944(3) -0.1223(4) 0.8138(2)
H32 H -0.8132 -0.1171 0.8067
C77 C -0.78659(14) -0.1543(4) 0.8238(3)
C80 C -0.8137(2) -0.2863(3) 1.0387(3)
O19 O -0.83299(16) -0.30314(18) 1.0516(2)
C83 C -0.7797(3) -0.4942(3) 0.9940(5)
H35 H -0.7637 -0.5030 1.0068
H36 H -0.7746 -0.4952 0.9709
C89 C -0.4816(4) -0.1060(6) 0.8522(6)
H42 H -0.4608 -0.1034 0.8530
H43 H -0.4884 -0.1011 0.8306
H44 H -0.4866 -0.1283 0.8578
C92 C -0.8099(3) -0.0619(5) 0.7905(3)
H50 H -0.8252 -0.0646 0.8066
H51 H -0.8133 -0.0772 0.7726
C93 C -0.5130(2) -0.4073(3) 0.9015(3)
H52 H -0.5001 -0.3963 0.9168
H53 H -0.5136 -0.3944 0.8814
C96 C -0.8267(3) -0.2399(3) 1.0913(3)
H57 H -0.8362 -0.2606 1.0955
H58 H -0.8366 -0.2226 1.1031
H59 H -0.8067 -0.2410 1.0984
C97 C -0.5025(3) -0.4403(4) 0.8947(5)
H60 H -0.5003 -0.4524 0.9154
C98 C -0.8594(2) -0.2357(3) 1.0419(3)
H61 H -0.8598 -0.2315 1.0188
H62 H -0.8717 -0.2200 1.0529
H63 H -0.8664 -0.2577 1.0461
C99 C -0.5293(2) -0.0863(2) 0.8776(4)
H64 H -0.5380 -0.0708 0.8929
H65 H -0.5376 -0.0824 0.8561
C100 C -0.4959(3) -0.0822(3) 0.8767(5)
H66 H -0.4874 -0.0847 0.8986
C101 C -0.4899(3) -0.0474(5) 0.8626(8)
H67 H -0.4989 -0.0310 0.8764
H68 H -0.4979 -0.0459 0.8409
H69 H -0.4692 -0.0436 0.8618
C103 C -0.4734(4) -0.4378(5) 0.8781(5)
H73 H -0.4660 -0.4596 0.8738
H74 H -0.4600 -0.4261 0.8920
H75 H -0.4755 -0.4260 0.8578
O22 O -0.7998(2) -0.2098(3) 0.8453(3)
O23 O -0.8296(2) -0.1828(3) 0.8107(3)
C104 C -0.8207(3) -0.2359(4) 0.8440(5)
H76 H -0.8142 -0.2540 0.8574
H77 H -0.8227 -0.2433 0.8217
H78 H -0.8392 -0.2281 0.8518
C105 C -0.8078(2) -0.1867(6) 0.8269(4)
C112 C -0.5224(6) -0.4598(6) 0.8721(7)
H94 H -0.5152 -0.4819 0.8698
H95 H -0.5229 -0.4493 0.8510
H96 H -0.5418 -0.4603 0.8811
C114 C -0.8416(5) -0.0172(7) 0.7696(8)
H100 H -0.8439 0.0059 0.7646
H101 H -0.8535 -0.0228 0.7881
H102 H -0.8476 -0.0302 0.7510
C115 C -0.7956(6) -0.0002(8) 0.8025(8)
H103 H -0.7966 0.0219 0.7938
H104 H -0.7756 -0.0059 0.8066
H105 H -0.8065 -0.0012 0.8225
C116 C -0.8087(6) -0.0246(7) 0.7776(8)
H106 H -0.7973 -0.0238 0.7573
C124 C -0.8081(5) -0.5134(3) 1.0008(7)
H119 H -0.8152 -0.5116 1.0234
C125 C -0.8292(6) -0.5004(7) 0.9751(11)
H120 H -0.8366 -0.4792 0.9819
H121 H -0.8452 -0.5156 0.9726
H122 H -0.8192 -0.4981 0.9546
C126 C -0.8022(5) -0.5496(4) 0.9893(11)
H123 H -0.7897 -0.5605 1.0047
H124 H -0.7930 -0.5493 0.9682
H125 H -0.8204 -0.5614 0.9878
F2 F -0.74163(10) -0.33886(10) 0.91432(13)
F3 F -0.64642(12) -0.33832(11) 0.87138(14)
N2 N -0.72562(14) -0.40149(13) 0.90388(17)
H2 H -0.7149 -0.3843 0.9008
O1 O -0.69823(13) -0.04755(15) 0.74490(16)
N6 N -0.67196(16) -0.39894(16) 0.88162(17)
N7 N -0.79612(17) -0.31878(16) 0.9324(2)
C1 C -0.8119(2) -0.3767(2) 0.9337(2)
C3 C -0.6914(2) -0.0787(3) 0.7516(2)
C4 C -0.7534(2) -0.39519(19) 0.9142(2)
O2 O -0.72491(15) -0.45770(16) 0.90109(19)
C9 C -0.67767(19) -0.0209(2) 0.7499(3)
H5 H -0.6613 -0.0231 0.7350
H6 H -0.6702 -0.0214 0.7722
C10 C -0.7618(2) -0.3620(2) 0.9194(2)
O3 O -0.85882(15) -0.39189(18) 0.9514(2)
F7 F -0.62969(14) -0.22559(13) 0.80761(16)
C15 C -0.79006(18) -0.3521(2) 0.9293(2)
N12 N -0.6249(2) -0.16244(18) 0.7901(2)
H7 H -0.6404 -0.1742 0.7876
C18 C -0.8387(2) -0.3661(3) 0.9457(3)
C22 C -0.6574(2) -0.1186(2) 0.7702(2)
N13 N -0.6757(2) -0.1441(2) 0.7699(2)
C29 C -0.7028(3) -0.1352(3) 0.7583(3)
C32 C -0.6636(3) -0.08734(18) 0.7623(2)
H12 H -0.6492 -0.0712 0.7639
O7 O -0.60819(19) -0.11036(18) 0.7826(2)
O8 O -0.62193(14) -0.48187(14) 0.86084(19)
N14 N -0.5941(2) -0.32933(18) 0.8421(2)
H14 H -0.6070 -0.3139 0.8424
C35 C -0.6819(2) -0.42851(18) 0.8865(2)
C36 C -0.7131(2) -0.4298(3) 0.8980(2)
C37 C -0.6261(2) -0.4254(2) 0.8619(3)
N15 N -0.58554(18) -0.2654(2) 0.82348(19)
C38 C -0.8436(2) -0.3325(3) 0.9496(2)
H15 H -0.8611 -0.3249 0.9582
C39 C -0.6040(2) -0.3612(3) 0.8478(3)
C40 C -0.6452(2) -0.3968(2) 0.8688(2)
C42 C -0.6387(2) -0.4560(2) 0.8678(2)
C44 C -0.8226(2) -0.3112(2) 0.9408(2)
C45 C -0.6302(2) -0.36507(19) 0.8628(2)
C47 C -0.71167(18) -0.10316(19) 0.7498(2)
C50 C -0.77563(19) -0.4197(2) 0.9192(2)
H17 H -0.7715 -0.4420 0.9159
C51 C -0.6671(2) -0.45825(19) 0.8808(2)
H18 H -0.6756 -0.4786 0.8854
C52 C -0.8027(2) -0.4101(2) 0.9287(2)
H19 H -0.8165 -0.4267 0.9322
C53 C -0.5660(3) -0.3199(3) 0.8361(3)
C55 C -0.6278(3) -0.1308(2) 0.7828(3)
C56 C -0.5885(3) -0.3903(2) 0.8401(3)
H20 H -0.5703 -0.3887 0.8301
C58 C -0.7231(3) -0.1597(4) 0.7582(3)
C61 C -0.6931(2) 0.0104(2) 0.7439(3)
C62 C -0.6029(2) -0.2125(2) 0.8081(2)
C63 C -0.5784(3) -0.2335(2) 0.8182(2)
O14 O -0.5460(2) -0.33915(18) 0.8375(2)
C68 C -0.7393(3) -0.0982(3) 0.7385(3)
H27 H -0.7448 -0.0770 0.7319
C69 C -0.6004(3) -0.1798(2) 0.8013(2)
O15 O -0.81129(17) -0.2553(2) 0.9313(3)
C72 C -0.5624(3) -0.2835(3) 0.8298(3)
C73 C -0.5739(3) -0.1661(3) 0.8020(2)
H30 H -0.5715 -0.1441 0.7958
C74 C -0.5994(2) -0.4199(3) 0.8468(2)
H31 H -0.5883 -0.4383 0.8409
C75 C -0.7498(4) -0.1549(3) 0.7463(3)
O18 O -0.5018(2) -0.2239(2) 0.8291(3)
C78 C -0.5338(3) -0.2732(3) 0.8315(2)
H33 H -0.5191 -0.2885 0.8358
C79 C -0.5505(3) -0.2190(3) 0.8187(3)
C81 C -0.6103(3) -0.5400(3) 0.8567(5)
H34 H -0.5930 -0.5342 0.8697
C82 C -0.5264(3) -0.2394(3) 0.8267(3)
C84 C -0.5490(3) -0.1848(3) 0.8120(3)
H37 H -0.5312 -0.1740 0.8142
C85 C -0.8856(2) -0.3827(3) 0.9640(3)
H38 H -0.8952 -0.3668 0.9498
H39 H -0.8834 -0.3730 0.9856
C86 C -0.7592(2) -0.1231(3) 0.7365(2)
H40 H -0.7782 -0.1194 0.7290
O20 O -0.85070(18) -0.26611(18) 0.9597(2)
F8 F -0.7174(2) -0.19207(18) 0.7669(2)
C87 C -0.9038(3) -0.4156(6) 0.9660(6)
H41 H -0.9043 -0.4276 0.9451
C88 C -0.8299(3) -0.2745(3) 0.9447(3)
C90 C -0.6718(2) 0.0392(2) 0.7443(4)
H45 H -0.6573 0.0360 0.7276
H46 H -0.6624 0.0404 0.7653
H47 H -0.6822 0.0595 0.7402
C91 C -0.6333(3) -0.5154(2) 0.8663(4)
H48 H -0.6508 -0.5188 0.8533
H49 H -0.6384 -0.5182 0.8892
C94 C -0.4781(4) -0.2443(4) 0.8397(5)
H54 H -0.4746 -0.2626 0.8247
H55 H -0.4811 -0.2528 0.8616
C95 C -0.4515(4) -0.2168(8) 0.8384(6)
H56 H -0.4482 -0.2078 0.8164
C102 C -0.7166(3) 0.0163(4) 0.7688(5)
H70 H -0.7299 -0.0020 0.7688
H71 H -0.7269 0.0363 0.7634
H72 H -0.7079 0.0185 0.7901
C107 C -0.4600(6) -0.1902(9) 0.8636(10)
H79 H -0.4758 -0.1772 0.8552
H80 H -0.4435 -0.1762 0.8677
H81 H -0.4659 -0.2007 0.8836
C108 C -0.9348(4) -0.4027(9) 0.9767(11)
H82 H -0.9442 -0.3923 0.9584
H83 H -0.9326 -0.3870 0.9942
H84 H -0.9464 -0.4210 0.9840
C109 C -0.6212(5) -0.5740(4) 0.8706(11)
H85 H -0.6064 -0.5906 0.8672
H86 H -0.6388 -0.5805 0.8596
H87 H -0.6249 -0.5719 0.8937
C110 C -0.8176(3) -0.2205(3) 0.9348(4)
H88 H -0.8032 -0.2078 0.9231
H89 H -0.8171 -0.2146 0.9576
H90 H -0.8366 -0.2159 0.9261
C111 C -0.6011(7) -0.5362(6) 0.8212(5)
H91 H -0.5848 -0.5504 0.8168
H92 H -0.5956 -0.5136 0.8172
H93 H -0.6171 -0.5421 0.8072
C113 C -0.4274(5) -0.2420(6) 0.8496(9)
H97 H -0.4085 -0.2318 0.8478
H98 H -0.4280 -0.2613 0.8359
H99 H -0.4308 -0.2482 0.8719
C117 C -0.8875(5) -0.4343(6) 0.9924(8)
H107 H -0.8970 -0.4552 0.9962
H108 H -0.8875 -0.4216 1.0122
H109 H -0.8678 -0.4381 0.9854
O31 O -0.8102(3) -0.2121(4) 0.7376(3)
C119 C -0.8591(3) -0.1970(5) 0.7243(12)
H110 H -0.8654 -0.1928 0.7463
H111 H -0.8756 -0.2031 0.7111
H112 H -0.8503 -0.1774 0.7154
C120 C -0.8440(7) -0.2557(9) 0.7443(8)
H113 H -0.8305 -0.2728 0.7380
H114 H -0.8636 -0.2630 0.7400
H115 H -0.8418 -0.2510 0.7672
C121 C -0.8376(6) -0.2241(9) 0.7243(5)
C122 C -0.8257(5) -0.2380(6) 0.6912(6)
H116 H -0.8140 -0.2573 0.6954
H117 H -0.8139 -0.2214 0.6807
H118 H -0.8417 -0.2438 0.6772
N16 N -0.7707(4) -0.1824(4) 0.7481(3)
O32 O -0.8073(4) -0.1614(5) 0.7165(5)
C123 C -0.7965(5) -0.1816(4) 0.7322(5)
O16 O 0.2500 -0.2500 0.9978(3)
O17 O 0.2500 -0.2500 0.7750(5)
O21 O 0.2424(3) -0.2757(3) 0.8838(4)
O25 O -0.6895(8) 0.0957(4) 0.8213(5)
O26 O -0.6292(11) -0.3934(12) 0.7550(10)
C106 C -0.6646(5) 0.0131(9) 0.8548(4)
Cl1 Cl -0.7220(9) 0.0204(12) 0.8813(16)
Cl2 Cl -0.6380(11) 0.012(2) 0.8871(16)
C118 C -0.6892(7) -0.0020(5) 0.8728(5)
O28 O -0.4854(16) -0.1431(12) 0.9648(12)
O29 O -0.6174(12) 0.144(3) 0.848(3)
C133 C -0.6309(13) 0.1163(16) 0.8234(14)
O30 O -0.6085(17) -0.643(2) 0.9621(14)
O33 O 0.2042(12) -0.050(3) 0.6791(17)
O35 O -0.5000 -0.5000 0.7835(12)
C127 C -0.7013(5) -0.5348(5) 0.9887(6)
H126 H -0.6961 -0.5176 1.0027
C128 C -0.6991(4) -0.5307(5) 0.9552(6)
H127 H -0.6936 -0.5096 0.9486
C129 C -0.7039(7) -0.5532(5) 0.9296(5)
C130 C -0.7172(10) -0.5881(7) 0.9770(8)
H128 H -0.7273 -0.6071 0.9827
C131 C -0.7082(9) -0.5838(6) 0.9446(8)
H129 H -0.7049 -0.6027 0.9321
C132 C -0.7056(3) -0.5499(2) 0.8910(2)
H130 H -0.6977 -0.5289 0.8845
H131 H -0.7256 -0.5515 0.8841
H132 H -0.6944 -0.5674 0.8811
C135 C -0.7113(8) -0.5643(6) 1.0012(7)
H133 H -0.7138 -0.5682 1.0234
O36 O 0.2051(16) -0.1078(12) 0.5603(10)
C134 C 0.2079(15) -0.0953(9) 0.5915(12)
O37 O -0.6434(9) -0.6678(8) 0.944(2)
O24? O 0.2426(3) -0.2698(4) 0.8325(4)
O27? O 0.2492(3) -0.2684(3) 0.9360(5)
O34? O 0.2148(6) -0.0814(7) 0.6218(12)
loop_
_geom_bond_atom_site_label_1
_geom_bond_atom_site_label_2
_geom_bond_site_symmetry_1
_geom_bond_site_symmetry_2
F1 C5 1_555 1_555
F2 C10 1_555 1_555
F3 C45 1_555 1_555
F4 C20 1_555 1_555
F5 C12 1_555 1_555
N1 H1 1_555 1_555
F6 C14 1_555 1_555
N2 H2 1_555 1_555
N3 C2 1_555 1_555
N4 C13 1_555 1_555
O1 C3 1_555 1_555
N5 H3 1_555 1_555
N6 C35 1_555 1_555
N7 C15 1_555 1_555
C1 C15 1_555 1_555
C2 C7 1_555 1_555
C3 C32 1_555 1_555
C4 N2 1_555 1_555
C5 C6 1_555 1_555
C6 N5 1_555 1_555
C7 C33 1_555 1_555
N8 H4 1_555 1_555
O2 C36 1_555 1_555
C8 N8 1_555 1_555
N9 C24 1_555 1_555
C9 O1 1_555 1_555
H5 C9 1_555 1_555
H6 C9 1_555 1_555
C10 C4 1_555 1_555
O3 C18 1_555 1_555
C11 C25 1_555 1_555
C12 C2 1_555 1_555
N10 C41 1_555 1_555
N11 C26 1_555 1_555
C13 C23 1_555 1_555
F7 C62 1_555 1_555
C14 C8 1_555 1_555
C15 C10 1_555 1_555
N12 H7 1_555 1_555
C16 N3 1_555 1_555
C17 C24 1_555 1_555
C18 C1 1_555 1_555
C19 C16 1_555 1_555
H8 C19 1_555 1_555
C20 C24 1_555 1_555
C21 H9 1_555 1_555
C22 N13 1_555 1_555
C23 N1 1_555 1_555
N13 C29 1_555 1_555
O4 C46 1_555 1_555
C25 N4 1_555 1_555
C26 C12 1_555 1_555
C27 C13 1_555 1_555
H10 C27 1_555 1_555
C28 C8 1_555 1_555
H11 C28 1_555 1_555
O5 C43 1_555 1_555
C29 C47 1_555 1_555
C30 N1 1_555 1_555
C31 C41 1_555 1_555
C32 C22 1_555 1_555
H12 C32 1_555 1_555
C33 C19 1_555 1_555
C34 C6 1_555 1_555
H13 C34 1_555 1_555
O6 C33 1_555 1_555
O7 C55 1_555 1_555
O8 C42 1_555 1_555
N14 H14 1_555 1_555
C35 C36 1_555 1_555
C36 N2 1_555 1_555
C37 C40 1_555 1_555
N15 C63 1_555 1_555
O9 C23 1_555 1_555
C38 C18 1_555 1_555
H15 C38 1_555 1_555
C39 N14 1_555 1_555
C40 N6 1_555 1_555
C41 C14 1_555 1_555
C42 C37 1_555 1_555
O10 C54 1_555 1_555
C43 C17 1_555 1_555
C44 N7 1_555 1_555
C45 C39 1_555 1_555
C46 C11 1_555 1_555
C47 C3 1_555 1_555
O11 C66 1_555 1_555
C48 C28 1_555 1_555
H16 C48 1_555 1_555
C49 N9 1_555 1_555
C50 C4 1_555 1_555
H17 C50 1_555 1_555
C51 C35 1_555 1_555
H18 C51 1_555 1_555
C52 C1 1_555 1_555
H19 C52 1_555 1_555
C53 N14 1_555 1_555
O12 C67 1_555 1_555
C54 N8 1_555 1_555
C55 N12 1_555 1_555
C56 C39 1_555 1_555
H20 C56 1_555 1_555
C57 C11 1_555 1_555
H21 C57 1_555 1_555
C58 C29 1_555 1_555
O13 C60 1_555 1_555
C59 C30 1_555 1_555
H22 C59 1_555 1_555
C60 C31 1_555 1_555
C61 C9 1_555 1_555
C62 C63 1_555 1_555
C63 C79 1_555 1_555
C64 C7 1_555 1_555
H23 C64 1_555 1_555
C65 H24 1_555 1_555
H25 C65 1_555 1_555
H26 C65 1_555 1_555
O14 C53 1_555 1_555
C66 C65 1_555 1_555
C67 N5 1_555 1_555
C68 C47 1_555 1_555
H27 C68 1_555 1_555
C69 N12 1_555 1_555
C70 C43 1_555 1_555
H28 C70 1_555 1_555
O15 C88 1_555 1_555
C71 C17 1_555 1_555
H29 C71 1_555 1_555
C72 N15 1_555 1_555
C73 C69 1_555 1_555
H30 C73 1_555 1_555
C74 C37 1_555 1_555
H31 C74 1_555 1_555
C75 C58 1_555 1_555
C76 C60 1_555 1_555
H32 C76 1_555 1_555
C77 N10 1_555 1_555
O18 C82 1_555 1_555
C78 C72 1_555 1_555
H33 C78 1_555 1_555
C79 C82 1_555 1_555
C80 N11 1_555 1_555
C81 H34 1_555 1_555
O19 C80 1_555 1_555
C82 C78 1_555 1_555
C83 O6 1_555 1_555
H35 C83 1_555 1_555
H36 C83 1_555 1_555
C84 C73 1_555 1_555
H37 C84 1_555 1_555
C85 O3 1_555 1_555
H38 C85 1_555 1_555
H39 C85 1_555 1_555
C86 C68 1_555 1_555
H40 C86 1_555 1_555
O20 C88 1_555 1_555
F8 C58 1_555 1_555
C87 C85 1_555 1_555
H41 C87 1_555 1_555
C88 C44 1_555 1_555
C89 H42 1_555 1_555
H43 C89 1_555 1_555
H44 C89 1_555 1_555
C90 C61 1_555 1_555
H45 C90 1_555 1_555
H46 C90 1_555 1_555
H47 C90 1_555 1_555
C91 O8 1_555 1_555
H48 C91 1_555 1_555
H49 C91 1_555 1_555
C92 O13 1_555 1_555
H50 C92 1_555 1_555
H51 C92 1_555 1_555
C93 O4 1_555 1_555
H52 C93 1_555 1_555
H53 C93 1_555 1_555
C94 O18 1_555 1_555
H54 C94 1_555 1_555
H55 C94 1_555 1_555
C95 C94 1_555 1_555
H56 C95 1_555 1_555
C96 C66 1_555 1_555
H57 C96 1_555 1_555
H58 C96 1_555 1_555
H59 C96 1_555 1_555
C97 C93 1_555 1_555
H60 C97 1_555 1_555
C98 C66 1_555 1_555
H61 C98 1_555 1_555
H62 C98 1_555 1_555
H63 C98 1_555 1_555
C99 O5 1_555 1_555
H64 C99 1_555 1_555
H65 C99 1_555 1_555
C100 C89 1_555 1_555
H66 C100 1_555 1_555
C101 C100 1_555 1_555
H67 C101 1_555 1_555
H68 C101 1_555 1_555
H69 C101 1_555 1_555
C102 C61 1_555 1_555
H70 C102 1_555 1_555
H71 C102 1_555 1_555
H72 C102 1_555 1_555
C103 C97 1_555 1_555
H73 C103 1_555 1_555
H74 C103 1_555 1_555
H75 C103 1_555 1_555
O22 C104 1_555 1_555
O23 C105 1_555 1_555
C104 H76 1_555 1_555
H77 C104 1_555 1_555
H78 C104 1_555 1_555
C105 C77 1_555 1_555
C106 Cl2 1_555 1_555
C107 C95 1_555 1_555
H79 C107 1_555 1_555
H80 C107 1_555 1_555
H81 C107 1_555 1_555
C108 C87 1_555 1_555
H82 C108 1_555 1_555
H83 C108 1_555 1_555
H84 C108 1_555 1_555
C109 C81 1_555 1_555
H85 C109 1_555 1_555
H86 C109 1_555 1_555
H87 C109 1_555 1_555
Cl1 C118 1_555 1_555
C110 O15 1_555 1_555
H88 C110 1_555 1_555
H89 C110 1_555 1_555
H90 C110 1_555 1_555
C111 C81 1_555 1_555
H91 C111 1_555 1_555
H92 C111 1_555 1_555
H93 C111 1_555 1_555
O29 C133 1_555 1_555
C112 C97 1_555 1_555
H94 C112 1_555 1_555
H95 C112 1_555 1_555
H96 C112 1_555 1_555
C113 C95 1_555 1_555
H97 C113 1_555 1_555
H98 C113 1_555 1_555
H99 C113 1_555 1_555
C114 H100 1_555 1_555
H101 C114 1_555 1_555
H102 C114 1_555 1_555
C115 H103 1_555 1_555
H104 C115 1_555 1_555
H105 C115 1_555 1_555
C116 C92 1_555 1_555
H106 C116 1_555 1_555
C117 C87 1_555 1_555
H107 C117 1_555 1_555
H108 C117 1_555 1_555
H109 C117 1_555 1_555
C118 C106 1_555 1_555
O31 C121 1_555 1_555
C119 H110 1_555 1_555
H111 C119 1_555 1_555
H112 C119 1_555 1_555
C120 H113 1_555 1_555
H114 C120 1_555 1_555
H115 C120 1_555 1_555
C121 C119 1_555 1_555
C122 C121 1_555 1_555
H116 C122 1_555 1_555
H117 C122 1_555 1_555
H118 C122 1_555 1_555
N16 C75 1_555 1_555
O32 C123 1_555 1_555
C123 O31 1_555 1_555
C124 C83 1_555 1_555
H119 C124 1_555 1_555
C125 C124 1_555 1_555
H120 C125 1_555 1_555
H121 C125 1_555 1_555
H122 C125 1_555 1_555
C126 C124 1_555 1_555
H123 C126 1_555 1_555
H124 C126 1_555 1_555
H125 C126 1_555 1_555
C127 H126 1_555 1_555
C128 C127 1_555 1_555
H127 C128 1_555 1_555
O36 C134 1_555 1_555
C129 C128 1_555 1_555
C130 H128 1_555 1_555
C131 C129 1_555 1_555
H129 C131 1_555 1_555
C132 C129 1_555 1_555
H130 C132 1_555 1_555
H131 C132 1_555 1_555
H132 C132 1_555 1_555
C135 C127 1_555 1_555
H133 C135 1_555 1_555
C5 C25 1_555 1_555
C16 C67 1_555 1_555
C20 C30 1_555 1_555
C21 C26 1_555 1_555
C21 C64 1_555 1_555
C22 C55 1_555 1_555
C27 C46 1_555 1_555
C31 C48 1_555 1_555
C34 C57 1_555 1_555
C38 C44 1_555 1_555
C40 C45 1_555 1_555
C42 C51 1_555 1_555
O11 C80 1_555 1_555
C49 C54 1_555 1_555
C49 C70 1_555 1_555
C50 C52 1_555 1_555
C53 C72 1_555 1_555
C56 C74 1_555 1_555
C59 C71 1_555 1_555
C62 C69 1_555 1_555
C75 C86 1_555 1_555
C76 C77 1_555 1_555
C79 C84 1_555 1_555
C81 C91 1_555 1_555
C99 C100 1_555 1_555
O22 C105 1_555 1_555
C114 C116 1_555 1_555
C115 C116 1_555 1_555
C120 C121 1_555 1_555
N16 C123 1_555 1_555
C130 C131 1_555 1_555
C130 C135 1_555 1_555

#END
