
#######################################################################
#
#                 Cambridge Crystallographic Data Centre
#                                CCDC 
#
#######################################################################
#
# If this CIF has been generated from an entry in the Cambridge 
# Structural Database, then it will include bibliographic, chemical, 
# crystal, experimental, refinement or atomic coordinate data resulting 
# from the CCDC's data processing and validation procedures.
#
#######################################################################

data_GIXVEP
_chemical_formula_moiety         'C62 H64 F4 N8 O11,C6 H5 Cl1,3(H2 O1)'
_chemical_name_systematic        
'Methyl 7-(((7-(((7-(((7-((t-butoxycarbonyl)amino)-8-fluoro-4-(2-methylpropoxy)quinolin-2-yl)carbonyl)amino)-8-fluoro-4-(2-methylpropoxy)quinolin-2-yl)carbonyl)amino)-8-fluoro-4-(2-methylpropoxy)quinolin-2-yl)carbonyl)amino)-8-fluoro-4-(2-methylpropoxy)quinoline-2-carboxylate chlorobenzene solvate trihydrate'
_symmetry_cell_setting           triclinic
_symmetry_space_group_name_H-M   'P -1'
_symmetry_Int_Tables_number      2
_space_group_name_Hall           '-P 1'
loop_
_symmetry_equiv_pos_site_id
_symmetry_equiv_pos_as_xyz
1 x,y,z
2 -x,-y,-z
_cell_length_a                   13.2847(17)
_cell_length_b                   15.545(2)
_cell_length_c                   16.933(2)
_cell_angle_alpha                101.885(4)
_cell_angle_beta                 99.133(5)
_cell_angle_gamma                97.076(4)
_cell_volume                     3334.24
_cell_formula_units_Z            2
_exptl_crystal_recrystallization_method chlorobenzene/n-hexane
loop_
_atom_site_label
_atom_site_type_symbol
_atom_site_fract_x
_atom_site_fract_y
_atom_site_fract_z
F1 F 0.7288(2) 0.4853(2) 0.0367(2)
F2 F 0.9878(3) 0.3891(2) -0.0585(2)
F3 F 0.7686(3) 0.3674(2) 0.2686(2)
F4 F 1.0061(3) 0.1699(2) 0.0905(2)
O1 O 0.9260(3) 0.2075(3) 0.4378(2)
O2 O 1.2540(4) 0.0931(3) -0.0916(3)
O3 O 0.4504(3) 0.5953(3) 0.1666(3)
O4 O 0.8046(3) 0.0627(3) 0.2617(3)
N1 N 0.9530(4) 0.5206(3) -0.1315(3)
H1 H 0.9285 0.5102 -0.0897
O5 O 0.9459(3) 0.6151(3) -0.2185(3)
N2 N 1.1208(4) 0.2745(3) -0.0962(3)
O6 O 1.1417(3) -0.1501(3) 0.1913(3)
N3 N 0.5832(4) 0.5315(3) 0.1191(3)
H2 H 0.6213 0.4921 0.1271
N4 N 1.1363(4) 0.1466(3) -0.0168(3)
H3 H 1.1001 0.1889 -0.0109
O7 O 0.3804(4) 0.4296(3) 0.3885(3)
O9 O 0.7997(4) 0.2424(3) 0.5119(3)
O10 O 1.2856(3) 0.3059(3) -0.2814(3)
C1 C 0.6968(5) 0.3585(4) 0.3161(4)
C2 C 0.5354(5) 0.3939(4) 0.3519(4)
O11 O 0.6298(4) 0.7594(3) -0.1514(3)
N5 N 0.9682(4) 0.0573(3) 0.1893(3)
C3 C 0.4420(5) 0.4863(4) 0.2808(4)
H4 H 0.3861 0.5158 0.2714
O12 O 0.8482(4) -0.0433(3) 0.3271(3)
N6 N 0.7914(4) 0.5663(3) -0.0779(3)
C4 C 0.6781(5) 0.5496(4) 0.0141(4)
N7 N 0.6017(4) 0.4485(3) 0.2408(3)
N8 N 0.8039(4) 0.2744(3) 0.3845(3)
H5 H 0.8390 0.2703 0.3458
C5 C 0.5461(5) 0.6390(4) 0.0318(4)
H6 H 0.4920 0.6557 0.0571
C6 C 0.8395(5) 0.2429(4) 0.4523(4)
C7 C 0.6090(5) 0.4023(4) 0.3022(4)
C8 C 1.1120(5) 0.3418(4) -0.1383(4)
C9 C 1.2348(5) 0.2920(4) -0.2217(4)
C10 C 0.9524(5) -0.0017(4) 0.2355(4)
C11 C 1.0870(5) 0.4831(4) -0.2151(4)
H7 H 1.0802 0.5309 -0.2396
C12 C 0.7103(4) 0.5915(4) -0.0442(4)
C13 C 1.1672(5) 0.3546(4) -0.1993(4)
C14 C 0.5134(5) 0.5454(4) 0.1691(4)
C15 C 1.0986(5) -0.0284(4) 0.1385(4)
C16 C 1.1849(5) 0.2205(4) -0.1201(4)
C17 C 0.5189(4) 0.4896(4) 0.2330(4)
C18 C 0.2938(5) 0.4777(5) 0.3812(4)
H8 H 0.2547 0.4608 0.3254
H9 H 0.3184 0.5413 0.3946
C19 C 1.0288(5) 0.4711(4) -0.1552(4)
C20 C 1.0804(5) -0.0855(4) 0.1922(4)
C21 C 0.5999(5) 0.5736(4) 0.0569(4)
C22 C 1.0420(5) 0.0440(4) 0.1403(4)
C23 C 0.6860(5) 0.6977(4) -0.1283(4)
C24 C 1.0602(5) 0.1010(4) 0.0895(4)
C25 C 0.6528(5) 0.6570(4) -0.0679(4)
C26 C 1.0442(5) 0.4009(4) -0.1154(4)
C27 C 1.1267(5) 0.0888(4) 0.0339(4)
C28 C 0.7126(5) 0.3131(4) 0.3747(4)
C29 C 0.4489(5) 0.4408(4) 0.3395(4)
C30 C 0.8652(5) 0.0035(5) 0.2794(4)
C31 C 1.1348(6) -0.2060(5) 0.2480(4)
H10 H 1.0662 -0.2407 0.2373
H11 H 1.1492 -0.1705 0.3040
C32 C 0.5514(5) 0.3450(5) 0.4131(4)
H12 H 0.5020 0.3390 0.4457
C33 C 1.1647(5) -0.0417(4) 0.0824(4)
H13 H 1.2003 -0.0898 0.0801
C34 C 1.1533(5) 0.4273(4) -0.2387(4)
H14 H 1.1894 0.4360 -0.2799
C35 C 1.1951(5) 0.1451(4) -0.0744(4)
C36 C 0.9133(5) 0.5837(4) -0.1672(4)
C37 C 1.2441(5) 0.2276(4) -0.1797(4)
H15 H 1.2901 0.1881 -0.1906
C38 C 0.9857(5) 0.1731(5) 0.5039(4)
C39 C 0.7711(5) 0.6745(4) -0.1596(4)
H16 H 0.7951 0.7020 -0.1984
C40 C 0.6377(5) 0.3063(5) 0.4256(4)
H17 H 0.6475 0.2756 0.4672
C41 C 0.5713(5) 0.6778(4) -0.0281(4)
H18 H 0.5332 0.7199 -0.0435
C42 C 1.0078(5) -0.0717(4) 0.2408(4)
H19 H 0.9958 -0.1083 0.2765
C43 C 0.8207(5) 0.6091(4) -0.1321(4)
C44 C 1.1790(5) 0.0133(4) 0.0310(4)
H20 H 1.2229 0.0019 -0.0062
C45 C 1.3450(6) 0.2369(5) -0.3129(5)
H21 H 1.4031 0.2362 -0.2705
H22 H 1.3015 0.1790 -0.3265
C46 C 1.0265(6) 0.2507(5) 0.5788(4)
H23 H 0.9700 0.2682 0.6038
H24 H 1.0601 0.3001 0.5616
H25 H 1.0751 0.2324 0.6178
C47 C 0.6574(6) 0.8005(5) -0.2147(5)
H26 H 0.6598 0.7558 -0.2634
H27 H 0.7245 0.8380 -0.1962
C48 C 1.0717(6) 0.1399(5) 0.4621(5)
H28 H 1.1126 0.1892 0.4499
H29 H 1.0420 0.0966 0.4120
H30 H 1.1147 0.1132 0.4980
C49 C 0.2255(6) 0.4547(5) 0.4406(5)
H31 H 0.2658 0.4708 0.4967
C50 C 0.9198(6) 0.0954(5) 0.5231(4)
H32 H 0.8655 0.1167 0.5490
H33 H 0.9621 0.0686 0.5595
H34 H 0.8903 0.0520 0.4731
C51 C 1.2070(6) -0.3362(5) 0.2865(5)
H35 H 1.2578 -0.3742 0.2772
H36 H 1.1392 -0.3714 0.2710
H37 H 1.2189 -0.3070 0.3437
C53 C 1.2148(6) -0.2666(5) 0.2352(5)
H39 H 1.2039 -0.2966 0.1770
C55 C 0.7135(6) 0.0603(5) 0.2969(5)
H41 H 0.6739 0.1035 0.2807
H42 H 0.7328 0.0738 0.3558
H43 H 0.6728 0.0020 0.2780
C56 C 0.5732(9) 0.8562(8) -0.2332(7)
H44 H 0.5094 0.8147 -0.2593
C58 C 0.1844(9) 0.3657(8) 0.4206(7)
H46 H 0.1419 0.3535 0.4591
H47 H 0.2392 0.3309 0.4225
H48 H 0.1432 0.3505 0.3662
C60 C 0.1350(6) 0.5086(6) 0.4351(5)
H49 H 0.1619 0.5712 0.4516
H50 H 0.0897 0.4935 0.4708
H51 H 0.0973 0.4946 0.3796
C63 C 1.3234(7) -0.2115(6) 0.2615(6)
H54 H 1.3301 -0.1678 0.2293
H55 H 1.3738 -0.2501 0.2531
H56 H 1.3343 -0.1822 0.3186
C64 C 1.3827(15) 0.2530(12) -0.3858(11)
H57 H 1.4531 0.2733 -0.3541
C65 C 0.6056(9) 0.9066(9) -0.2987(8)
H58 H 0.6092 0.8641 -0.3477
H59 H 0.6720 0.9430 -0.2771
H60 H 0.5554 0.9436 -0.3115
C66 C 1.4155(14) 0.1741(11) -0.4360(9)
H61 H 1.4421 0.1378 -0.4006
H62 H 1.4682 0.1940 -0.4639
H63 H 1.3572 0.1397 -0.4757
C67 C 0.5523(13) 0.9121(11) -0.1726(10)
H64 H 0.4965 0.9407 -0.1925
H65 H 0.6122 0.9562 -0.1477
H66 H 0.5325 0.8811 -0.1326
C68 C 1.3834(19) 0.3298(10) -0.4118(12)
H67 H 1.3860 0.3785 -0.3659
H68 H 1.3218 0.3254 -0.4517
H69 H 1.4429 0.3398 -0.4364
O8 O 1.0704(4) 0.7562(3) -0.2628(3)
Cl1 Cl 0.5015(3) 0.1282(3) 0.8867(4)
C52 C 0.6693(8) 0.2449(6) 0.9592(6)
H38 H 0.6496 0.2742 0.9180
C54 C 0.7198(14) 0.1679(10) 1.0837(11)
H40 H 0.7392 0.1451 1.1295
C57 C 0.7599(8) 0.2808(7) 1.0154(7)
H45 H 0.8031 0.3300 1.0095
C59 C 0.6070(8) 0.1684(8) 0.9611(7)
C61 C 0.7827(11) 0.2437(11) 1.0762(6)
H52 H 0.8419 0.2680 1.1157
C62 C 0.6324(12) 0.1247(8) 1.0292(10)
H53 H 0.5932 0.0732 1.0346
O13 O 0.406(3) 0.956(2) 0.490(3)
O14 O 0.710(2) 0.972(3) 0.6237(19)
loop_
_geom_bond_atom_site_label_1
_geom_bond_atom_site_label_2
_geom_bond_site_symmetry_1
_geom_bond_site_symmetry_2
F1 C4 1_555 1_555
F2 C26 1_555 1_555
F3 C1 1_555 1_555
F4 C24 1_555 1_555
O1 C6 1_555 1_555
O2 C35 1_555 1_555
O3 C14 1_555 1_555
O4 C30 1_555 1_555
N1 H1 1_555 1_555
O5 C36 1_555 1_555
N2 C8 1_555 1_555
O6 C20 1_555 1_555
N3 H2 1_555 1_555
N4 H3 1_555 1_555
O7 C18 1_555 1_555
O9 C6 1_555 1_555
O10 C9 1_555 1_555
C1 C7 1_555 1_555
C2 C7 1_555 1_555
O11 C23 1_555 1_555
N5 C10 1_555 1_555
C3 H4 1_555 1_555
O12 C30 1_555 1_555
N6 C12 1_555 1_555
C4 C12 1_555 1_555
N7 C7 1_555 1_555
N8 H5 1_555 1_555
C5 H6 1_555 1_555
C6 N8 1_555 1_555
C8 C13 1_555 1_555
C9 C13 1_555 1_555
C10 C30 1_555 1_555
C11 H7 1_555 1_555
C12 C25 1_555 1_555
C13 C34 1_555 1_555
C14 N3 1_555 1_555
C15 C20 1_555 1_555
C16 N2 1_555 1_555
C17 C3 1_555 1_555
C18 H8 1_555 1_555
H9 C18 1_555 1_555
C19 N1 1_555 1_555
C20 C42 1_555 1_555
C21 N3 1_555 1_555
C22 N5 1_555 1_555
C23 C25 1_555 1_555
C24 C22 1_555 1_555
C25 C41 1_555 1_555
C26 C8 1_555 1_555
C27 N4 1_555 1_555
C28 C1 1_555 1_555
C29 O7 1_555 1_555
C31 O6 1_555 1_555
H10 C31 1_555 1_555
H11 C31 1_555 1_555
C32 C2 1_555 1_555
H12 C32 1_555 1_555
C33 C15 1_555 1_555
H13 C33 1_555 1_555
Cl1 C59 1_555 1_555
C34 C11 1_555 1_555
H14 C34 1_555 1_555
C35 N4 1_555 1_555
C36 N1 1_555 1_555
C37 C9 1_555 1_555
H15 C37 1_555 1_555
C38 O1 1_555 1_555
C39 C23 1_555 1_555
H16 C39 1_555 1_555
C40 C28 1_555 1_555
H17 C40 1_555 1_555
C41 C5 1_555 1_555
H18 C41 1_555 1_555
C42 C10 1_555 1_555
H19 C42 1_555 1_555
C43 N6 1_555 1_555
C44 C27 1_555 1_555
H20 C44 1_555 1_555
C45 O10 1_555 1_555
H21 C45 1_555 1_555
H22 C45 1_555 1_555
C46 C38 1_555 1_555
H23 C46 1_555 1_555
H24 C46 1_555 1_555
H25 C46 1_555 1_555
C47 O11 1_555 1_555
H26 C47 1_555 1_555
H27 C47 1_555 1_555
C48 C38 1_555 1_555
H28 C48 1_555 1_555
H29 C48 1_555 1_555
H30 C48 1_555 1_555
C49 C18 1_555 1_555
H31 C49 1_555 1_555
C50 C38 1_555 1_555
H32 C50 1_555 1_555
H33 C50 1_555 1_555
H34 C50 1_555 1_555
C51 H35 1_555 1_555
H36 C51 1_555 1_555
H37 C51 1_555 1_555
C52 H38 1_555 1_555
C53 C31 1_555 1_555
H39 C53 1_555 1_555
C54 H40 1_555 1_555
C55 O4 1_555 1_555
H41 C55 1_555 1_555
H42 C55 1_555 1_555
H43 C55 1_555 1_555
C56 C47 1_555 1_555
H44 C56 1_555 1_555
C57 C52 1_555 1_555
H45 C57 1_555 1_555
C58 C49 1_555 1_555
H46 C58 1_555 1_555
H47 C58 1_555 1_555
H48 C58 1_555 1_555
C59 C52 1_555 1_555
C60 C49 1_555 1_555
H49 C60 1_555 1_555
H50 C60 1_555 1_555
H51 C60 1_555 1_555
C61 C54 1_555 1_555
H52 C61 1_555 1_555
C62 C54 1_555 1_555
H53 C62 1_555 1_555
C63 C53 1_555 1_555
H54 C63 1_555 1_555
H55 C63 1_555 1_555
H56 C63 1_555 1_555
C64 C45 1_555 1_555
H57 C64 1_555 1_555
C65 C56 1_555 1_555
H58 C65 1_555 1_555
H59 C65 1_555 1_555
H60 C65 1_555 1_555
C66 C64 1_555 1_555
H61 C66 1_555 1_555
H62 C66 1_555 1_555
H63 C66 1_555 1_555
C67 C56 1_555 1_555
H64 C67 1_555 1_555
H65 C67 1_555 1_555
H66 C67 1_555 1_555
C68 C64 1_555 1_555
H67 C68 1_555 1_555
H68 C68 1_555 1_555
H69 C68 1_555 1_555
C2 C29 1_555 1_555
C3 C29 1_555 1_555
C4 C21 1_555 1_555
N7 C17 1_555 1_555
N8 C28 1_555 1_555
C5 C21 1_555 1_555
C11 C19 1_555 1_555
C14 C17 1_555 1_555
C15 C22 1_555 1_555
C16 C35 1_555 1_555
C16 C37 1_555 1_555
C19 C26 1_555 1_555
C24 C27 1_555 1_555
C32 C40 1_555 1_555
C33 C44 1_555 1_555
C36 C43 1_555 1_555
C39 C43 1_555 1_555
C51 C53 1_555 1_555
C57 C61 1_555 1_555
C59 C62 1_555 1_555

#END
