
#######################################################################
#
#                 Cambridge Crystallographic Data Centre
#                                CCDC 
#
#######################################################################
#
# If this CIF has been generated from an entry in the Cambridge 
# Structural Database, then it will include bibliographic, chemical, 
# crystal, experimental, refinement or atomic coordinate data resulting 
# from the CCDC's data processing and validation procedures.
#
#######################################################################

data_GIXWUI
_chemical_formula_moiety         'C22 H17 Br1 F3 N1 O1'
_chemical_name_systematic        
2-(4-bromophenyl)-4,4,4-trifluoro-N,2-diphenylbutanamide
_symmetry_cell_setting           triclinic
_symmetry_space_group_name_H-M   'P 1'
_symmetry_Int_Tables_number      1
_space_group_name_Hall           'P 1'
loop_
_symmetry_equiv_pos_site_id
_symmetry_equiv_pos_as_xyz
1 x,y,z
_cell_length_a                   10.0143(3)
_cell_length_b                   10.1957(3)
_cell_length_c                   11.7671(3)
_cell_angle_alpha                107.9390(10)
_cell_angle_beta                 92.9350(10)
_cell_angle_gamma                116.2110(10)
_cell_volume                     1000.53
_exptl_crystal_colour            colorless
_exptl_crystal_description       prism
_cell_formula_units_Z            2
loop_
_atom_site_label
_atom_site_type_symbol
_atom_site_fract_x
_atom_site_fract_y
_atom_site_fract_z
Br1 Br -0.10602(11) 0.27023(12) 0.05660(9)
F1 F 0.8109(7) 0.9391(9) 0.2505(6)
F2 F 0.6940(9) 1.0556(8) 0.2071(6)
F3 F 0.5888(7) 0.8038(7) 0.1350(4)
O1 O 0.4797(7) 0.9522(6) 0.5382(4)
N1 N 0.4824(7) 0.7472(6) 0.5691(4)
H1 H 0.498618 0.668534 0.539862
C1 C 0.5370(8) 0.7849(7) 0.3756(5)
C2 C 0.4988(8) 0.8376(7) 0.5038(5)
C3 C 0.6079(9) 0.9361(8) 0.3470(6)
H2 H 0.529647 0.966141 0.338303
H3 H 0.687211 1.018975 0.417485
C4 C 0.6756(10) 0.9315(10) 0.2356(8)
C5 C 0.3808(7) 0.6576(7) 0.2925(5)
C6 C 0.2932(8) 0.6892(8) 0.2199(6)
H4 H 0.332433 0.790041 0.218539
C7 C 0.1502(9) 0.5751(9) 0.1500(7)
H5 H 0.095213 0.598563 0.100818
C8 C 0.0892(9) 0.4269(9) 0.1533(6)
C9 C 0.1706(10) 0.3917(8) 0.2258(7)
H6 H 0.128817 0.291422 0.228564
C10 C 0.3144(8) 0.5061(8) 0.2944(6)
H7 H 0.368574 0.481515 0.343280
C11 C 0.6530(8) 0.7261(8) 0.3794(6)
C12 C 0.6488(10) 0.6062(9) 0.2783(8)
H8 H 0.569670 0.554716 0.209441
C13 C 0.7649(14) 0.5641(12) 0.2815(11)
H9 H 0.760643 0.483597 0.214416
C14 C 0.8825(13) 0.6376(15) 0.3797(14)
H10 H 0.957788 0.607708 0.380402
C15 C 0.8892(11) 0.7586(14) 0.4796(11)
H11 H 0.969801 0.810514 0.547377
C16 C 0.7769(9) 0.8023(10) 0.4786(8)
H12 H 0.783968 0.884462 0.545720
C17 C 0.4398(7) 0.7731(7) 0.6838(5)
C18 C 0.5376(9) 0.9003(8) 0.7861(6)
H13 H 0.629781 0.975898 0.779773
C19 C 0.4982(12) 0.9154(10) 0.8987(7)
H14 H 0.566408 0.999593 0.968265
C20 C 0.3641(10) 0.8115(10) 0.9095(7)
H15 H 0.337262 0.825341 0.985110
C21 C 0.2669(10) 0.6846(11) 0.8077(8)
H16 H 0.174891 0.609713 0.814866
C22 C 0.3033(8) 0.6663(9) 0.6952(7)
H17 H 0.234893 0.580881 0.626364
Br2 Br 1.10592(10) 0.21820(10) 0.60150(10)
F4 F 0.9535(7) 0.6994(9) 0.8314(8)
F5 F 0.7984(9) 0.6503(10) 0.9442(6)
F6 F 0.8588(10) 0.8500(7) 0.8942(8)
O2 O 0.4876(6) 0.4587(5) 0.5324(4)
N2 N 0.4429(6) 0.2137(5) 0.5044(4)
H18 H 0.452536 0.153938 0.538382
C23 C 0.6129(7) 0.4271(7) 0.6975(5)
C24 C 0.5087(6) 0.3691(6) 0.5709(5)
C25 C 0.6998(8) 0.6094(7) 0.7378(6)
H19 H 0.742316 0.634259 0.670230
H20 H 0.625625 0.646390 0.750256
C26 C 0.8257(11) 0.7019(11) 0.8500(10)
C27 C 0.7319(7) 0.3703(7) 0.6763(5)
C28 C 0.7951(7) 0.3748(8) 0.5748(6)
H21 H 0.761482 0.408236 0.519738
C29 C 0.9065(8) 0.3311(8) 0.5526(7)
H22 H 0.948281 0.336207 0.484296
C30 C 0.9541(7) 0.2804(8) 0.6328(7)
C31 C 0.8964(8) 0.2752(9) 0.7346(7)
H23 H 0.930942 0.241196 0.788711
C32 C 0.7858(8) 0.3209(9) 0.7571(6)
H24 H 0.747264 0.318498 0.827061
C33 C 0.5080(7) 0.3672(8) 0.7800(5)
C34 C 0.4436(8) 0.2113(8) 0.7706(6)
H25 H 0.474484 0.145356 0.719397
C35 C 0.3350(10) 0.1512(11) 0.8351(8)
H26 H 0.293514 0.046061 0.826110
C36 C 0.2880(13) 0.2472(14) 0.9131(9)
H27 H 0.215200 0.207918 0.956867
C37 C 0.3517(13) 0.4019(14) 0.9241(8)
H28 H 0.322225 0.467970 0.977053
C38 C 0.4564(10) 0.4608(10) 0.8595(6)
H29 H 0.495198 0.565497 0.868030
C39 C 0.3584(7) 0.1426(6) 0.3812(5)
C40 C 0.4210(9) 0.1960(8) 0.2940(6)
H30 H 0.519075 0.280702 0.315921
C41 C 0.3415(13) 0.1265(11) 0.1731(7)
H31 H 0.384946 0.165183 0.114632
C42 C 0.1987(13) 0.0007(11) 0.1414(8)
H32 H 0.144938 -0.047573 0.060420
C43 C 0.1342(9) -0.0548(11) 0.2273(9)
H33 H 0.036666 -0.140636 0.204319
C44 C 0.2124(8) 0.0151(8) 0.3485(7)
H34 H 0.167802 -0.022684 0.407009
loop_
_geom_bond_atom_site_label_1
_geom_bond_atom_site_label_2
_geom_bond_site_symmetry_1
_geom_bond_site_symmetry_2
Br1 C8 1_555 1_555
F1 C4 1_555 1_555
F2 C4 1_555 1_555
F3 C4 1_555 1_555
O1 C2 1_555 1_555
N1 H1 1_555 1_555
C1 C2 1_555 1_555
C2 N1 1_555 1_555
C3 C1 1_555 1_555
H2 C3 1_555 1_555
H3 C3 1_555 1_555
C4 C3 1_555 1_555
C5 C1 1_555 1_555
C6 C5 1_555 1_555
H4 C6 1_555 1_555
C7 C6 1_555 1_555
H5 C7 1_555 1_555
C8 C7 1_555 1_555
C9 C8 1_555 1_555
H6 C9 1_555 1_555
C10 C5 1_555 1_555
H7 C10 1_555 1_555
C11 C1 1_555 1_555
C12 C11 1_555 1_555
H8 C12 1_555 1_555
C13 C12 1_555 1_555
H9 C13 1_555 1_555
C14 C13 1_555 1_555
H10 C14 1_555 1_555
C15 C14 1_555 1_555
H11 C15 1_555 1_555
C16 C11 1_555 1_555
H12 C16 1_555 1_555
C17 N1 1_555 1_555
C18 C17 1_555 1_555
H13 C18 1_555 1_555
C19 C18 1_555 1_555
H14 C19 1_555 1_555
C20 C19 1_555 1_555
H15 C20 1_555 1_555
C21 C20 1_555 1_555
H16 C21 1_555 1_555
C22 C17 1_555 1_555
H17 C22 1_555 1_555
Br2 C30 1_555 1_555
F4 C26 1_555 1_555
F5 C26 1_555 1_555
F6 C26 1_555 1_555
O2 C24 1_555 1_555
N2 H18 1_555 1_555
C23 C24 1_555 1_555
C24 N2 1_555 1_555
C25 C23 1_555 1_555
H19 C25 1_555 1_555
H20 C25 1_555 1_555
C26 C25 1_555 1_555
C27 C23 1_555 1_555
C28 C27 1_555 1_555
H21 C28 1_555 1_555
C29 C28 1_555 1_555
H22 C29 1_555 1_555
C30 C29 1_555 1_555
C31 C30 1_555 1_555
H23 C31 1_555 1_555
C32 C27 1_555 1_555
H24 C32 1_555 1_555
C33 C23 1_555 1_555
C34 C33 1_555 1_555
H25 C34 1_555 1_555
C35 C34 1_555 1_555
H26 C35 1_555 1_555
C36 C35 1_555 1_555
H27 C36 1_555 1_555
C37 C36 1_555 1_555
H28 C37 1_555 1_555
C38 C33 1_555 1_555
H29 C38 1_555 1_555
C39 N2 1_555 1_555
C40 C39 1_555 1_555
H30 C40 1_555 1_555
C41 C40 1_555 1_555
H31 C41 1_555 1_555
C42 C41 1_555 1_555
H32 C42 1_555 1_555
C43 C42 1_555 1_555
H33 C43 1_555 1_555
C44 C39 1_555 1_555
H34 C44 1_555 1_555
C9 C10 1_555 1_555
C15 C16 1_555 1_555
C21 C22 1_555 1_555
C31 C32 1_555 1_555
C37 C38 1_555 1_555
C43 C44 1_555 1_555

#END
