
#######################################################################
#
#                 Cambridge Crystallographic Data Centre
#                                CCDC 
#
#######################################################################
#
# If this CIF has been generated from an entry in the Cambridge 
# Structural Database, then it will include bibliographic, chemical, 
# crystal, experimental, refinement or atomic coordinate data resulting 
# from the CCDC's data processing and validation procedures.
#
#######################################################################

data_GIXXUH
_chemical_name_common            
'C-t-buylpyrogallol[4]arene isopropanol solvate'
_chemical_formula_moiety         'C44 H56 O12,4(C3 H8 O1)'
_chemical_name_systematic        
'2,8,14,20-Tetra-t-butylpyrogallo(4)arene isopropanol solvate'
_symmetry_cell_setting           monoclinic
_symmetry_space_group_name_H-M   'P 21/c'
_symmetry_Int_Tables_number      14
_space_group_name_Hall           '-P 2ybc'
loop_
_symmetry_equiv_pos_site_id
_symmetry_equiv_pos_as_xyz
1 x,y,z
2 -x,1/2+y,1/2-z
3 -x,-y,-z
4 x,1/2-y,1/2+z
_cell_length_a                   11.1175(7)
_cell_length_b                   23.4525(15)
_cell_length_c                   21.9595(14)
_cell_angle_alpha                90
_cell_angle_beta                 101.6720(10)
_cell_angle_gamma                90
_cell_volume                     5607.18
_exptl_crystal_colour            red
_exptl_crystal_description       plate
_chemical_melting_point          'above 350deg.C'
_cell_formula_units_Z            4
_exptl_crystal_recrystallization_method 'isopropanol/diethyl ether'
loop_
_atom_site_label
_atom_site_type_symbol
_atom_site_fract_x
_atom_site_fract_y
_atom_site_fract_z
C1 C -0.0157(3) 0.70856(15) 0.01957(17)
H1 H -0.0446 0.6758 0.0402
H2 H -0.0453 0.7054 -0.0255
H3 H -0.0472 0.7438 0.0346
C2 C 0.1226(3) 0.70971(11) 0.03398(12)
H4 H 0.1510 0.7425 0.0114
C3 C 0.1779(4) 0.65551(13) 0.01459(15)
H5 H 0.2677 0.6585 0.0242
H6 H 0.1494 0.6497 -0.0302
H7 H 0.1524 0.6231 0.0372
O1 O 0.16857(18) 0.71694(7) 0.09889(8)
H8 H 0.1345 0.7452 0.1116
C4 C 0.1310(4) 0.4588(2) 0.04240(19)
H9 H 0.0779 0.4320 0.0588
H10 H 0.1160 0.4556 -0.0030
H11 H 0.1131 0.4978 0.0539
C5 C 0.2609(3) 0.44532(16) 0.06868(14)
H12 H 0.3129 0.4725 0.0503
C6 C 0.3006(4) 0.38516(16) 0.05616(17)
H13 H 0.3893 0.3812 0.0717
H14 H 0.2814 0.3778 0.0113
H15 H 0.2569 0.3577 0.0774
O2 O 0.29008(19) 0.45243(9) 0.13495(9)
H16 H 0.2542 0.4815 0.1448
C7 C 0.7447(3) 0.23308(15) 0.63191(17)
H17 H 0.8145 0.2099 0.6256
H18 H 0.6999 0.2473 0.5917
H19 H 0.6897 0.2097 0.6513
C8 C 0.7902(2) 0.28212(12) 0.67315(12)
H20 H 0.7179 0.3054 0.6788
C9 C 0.8771(4) 0.3199(2) 0.64944(19)
H21 H 0.9023 0.3511 0.6790
H22 H 0.8369 0.3357 0.6091
H23 H 0.9495 0.2980 0.6445
O3 O 0.85331(17) 0.26305(9) 0.73280(9)
H24 H 0.8062 0.2425 0.7489
C10 C 0.2958(2) 0.25705(13) 0.92286(14)
H25 H 0.3143 0.2807 0.9604
H26 H 0.2822 0.2176 0.9345
H27 H 0.2217 0.2715 0.8951
C11 C 0.4013(2) 0.25912(11) 0.89020(12)
H28 H 0.3840 0.2330 0.8535
C12 C 0.5217(3) 0.24281(14) 0.93095(15)
H29 H 0.5876 0.2471 0.9076
H30 H 0.5181 0.2031 0.9442
H31 H 0.5382 0.2676 0.9676
O4 O 0.41778(17) 0.31699(8) 0.86887(10)
H32 H 0.3488 0.3318 0.8553
C13 C 0.43960(17) 0.57979(8) 0.65609(9)
H33 H 0.4147 0.5496 0.6275
C14 C 0.35646(17) 0.62378(8) 0.65888(9)
C15 C 0.39472(17) 0.66765(8) 0.70146(9)
C16 C 0.50939(18) 0.66606(8) 0.74062(9)
C17 C 0.59000(17) 0.62140(8) 0.73663(9)
C18 C 0.55804(17) 0.57774(8) 0.69327(9)
C19 C 0.65435(17) 0.53235(7) 0.68837(9)
H34 H 0.7294 0.5456 0.7182
C20 C 0.69553(17) 0.53042(8) 0.62394(9)
C21 C 0.7184(2) 0.59164(9) 0.60448(10)
H35 H 0.7546 0.5909 0.5673
H36 H 0.7749 0.6108 0.6384
H37 H 0.6404 0.6124 0.5953
C22 C 0.81719(19) 0.49700(10) 0.63315(10)
H38 H 0.8457 0.4956 0.5938
H39 H 0.8041 0.4581 0.6468
H40 H 0.8791 0.5160 0.6647
C23 C 0.60340(19) 0.50200(10) 0.57146(10)
H41 H 0.5266 0.5238 0.5635
H42 H 0.5872 0.4630 0.5836
H43 H 0.6375 0.5011 0.5337
C24 C 0.51928(17) 0.44322(8) 0.69287(9)
H44 H 0.4576 0.4600 0.6617
C25 C 0.62750(17) 0.47393(8) 0.71346(9)
C26 C 0.71581(17) 0.44874(8) 0.76003(9)
C27 C 0.69403(18) 0.39651(8) 0.78590(10)
C28 C 0.58571(18) 0.36747(8) 0.76395(9)
C29 C 0.49613(17) 0.38912(8) 0.71536(9)
C30 C 0.38118(17) 0.35285(8) 0.69171(9)
H45 H 0.4057 0.3134 0.7067
C31 C 0.34170(19) 0.34656(8) 0.61919(10)
C32 C 0.2854(2) 0.40041(9) 0.58602(10)
H46 H 0.3507 0.4279 0.5837
H47 H 0.2275 0.4172 0.6092
H48 H 0.2420 0.3907 0.5439
C33 C 0.4538(2) 0.32811(10) 0.59341(11)
H49 H 0.4299 0.3231 0.5483
H50 H 0.4855 0.2920 0.6126
H51 H 0.5177 0.3574 0.6028
C34 C 0.2444(2) 0.29910(9) 0.60360(11)
H52 H 0.1711 0.3098 0.6193
H53 H 0.2778 0.2634 0.6231
H54 H 0.2224 0.2940 0.5584
C35 C 0.25704(17) 0.42507(8) 0.74170(9)
H55 H 0.3034 0.4542 0.7272
C36 C 0.27751(17) 0.36873(8) 0.72522(9)
C37 C 0.20604(17) 0.32624(8) 0.74564(9)
C38 C 0.11861(18) 0.34095(8) 0.78039(10)
C39 C 0.10378(17) 0.39734(8) 0.79696(9)
C40 C 0.17310(17) 0.44136(8) 0.77802(9)
C41 C 0.16300(18) 0.50106(8) 0.80492(9)
H56 H 0.0975 0.4975 0.8299
C42 C 0.2823(2) 0.51817(9) 0.85389(10)
C43 C 0.2494(3) 0.56851(11) 0.89140(13)
H57 H 0.3206 0.5788 0.9237
H58 H 0.1807 0.5579 0.9109
H59 H 0.2257 0.6012 0.8637
C44 C 0.3189(3) 0.46791(11) 0.89880(12)
H60 H 0.3489 0.4364 0.8767
H61 H 0.2472 0.4553 0.9148
H62 H 0.3838 0.4801 0.9335
C45 C 0.3931(2) 0.53405(12) 0.82602(12)
H63 H 0.3729 0.5673 0.7988
H64 H 0.4145 0.5019 0.8018
H65 H 0.4630 0.5432 0.8596
C46 C 0.17494(17) 0.56238(8) 0.70943(9)
H66 H 0.2377 0.5378 0.7013
C47 C 0.11814(17) 0.54870(8) 0.75842(9)
C48 C 0.02170(18) 0.58459(8) 0.76729(10)
C49 C -0.01105(17) 0.63226(8) 0.72966(10)
C50 C 0.05107(17) 0.64555(8) 0.68253(9)
C51 C 0.14487(17) 0.61043(8) 0.67136(9)
C52 C 0.22231(17) 0.62687(8) 0.62430(9)
H67 H 0.2059 0.6684 0.6163
C53 C 0.18256(18) 0.59772(8) 0.55930(9)
C54 C 0.05293(19) 0.61930(10) 0.52973(10)
H68 H 0.0270 0.6025 0.4883
H69 H 0.0542 0.6609 0.5262
H70 H -0.0048 0.6082 0.5559
C55 C 0.1754(2) 0.53267(9) 0.56194(10)
H71 H 0.1191 0.5215 0.5889
H72 H 0.2572 0.5171 0.5786
H73 H 0.1452 0.5177 0.5200
C56 C 0.2700(2) 0.61608(10) 0.51693(10)
H74 H 0.3527 0.6016 0.5338
H75 H 0.2723 0.6578 0.5149
H76 H 0.2409 0.6006 0.4751
O5 O 0.31682(13) 0.71253(6) 0.70649(7)
H77 H 0.3575 0.7429 0.7126
O6 O 0.54041(14) 0.70921(6) 0.78311(8)
H78 H 0.6169 0.7097 0.7958
O7 O 0.70348(13) 0.62484(6) 0.77728(7)
H79 H 0.7074 0.6000 0.8051
O8 O 0.82592(13) 0.47642(6) 0.78366(8)
H80 H 0.8794 0.4523 0.7989
O9 O 0.78449(14) 0.37695(7) 0.83314(8)
H81 H 0.7679 0.3435 0.8425
O10 O 0.57427(14) 0.31548(6) 0.79255(7)
H82 H 0.5218 0.3184 0.8151
O11 O 0.22464(13) 0.26950(6) 0.73423(7)
H83 H 0.1729 0.2496 0.7478
O12 O 0.05254(13) 0.29869(6) 0.80306(7)
H84 H -0.0100 0.2905 0.7760
O13 O 0.02191(14) 0.40896(6) 0.83472(7)
H85 H -0.0150 0.3789 0.8408
O14 O -0.04147(14) 0.57696(6) 0.81483(7)
H86 H -0.0856 0.5477 0.8078
O15 O -0.10362(13) 0.66871(6) 0.73779(7)
H87 H -0.1547 0.6509 0.7540
O16 O 0.01974(13) 0.69409(6) 0.64737(7)
H88 H -0.0309 0.7133 0.6625
loop_
_geom_bond_atom_site_label_1
_geom_bond_atom_site_label_2
_geom_bond_site_symmetry_1
_geom_bond_site_symmetry_2
C1 H1 1_555 1_555
H2 C1 1_555 1_555
H3 C1 1_555 1_555
C2 C1 1_555 1_555
H4 C2 1_555 1_555
C3 C2 1_555 1_555
H5 C3 1_555 1_555
H6 C3 1_555 1_555
H7 C3 1_555 1_555
O1 C2 1_555 1_555
H8 O1 1_555 1_555
C4 H9 1_555 1_555
H10 C4 1_555 1_555
H11 C4 1_555 1_555
C5 C4 1_555 1_555
H12 C5 1_555 1_555
C6 C5 1_555 1_555
H13 C6 1_555 1_555
H14 C6 1_555 1_555
H15 C6 1_555 1_555
O2 C5 1_555 1_555
H16 O2 1_555 1_555
C7 H17 1_555 1_555
H18 C7 1_555 1_555
H19 C7 1_555 1_555
C8 C7 1_555 1_555
H20 C8 1_555 1_555
C9 C8 1_555 1_555
H21 C9 1_555 1_555
H22 C9 1_555 1_555
H23 C9 1_555 1_555
O3 C8 1_555 1_555
H24 O3 1_555 1_555
C10 H25 1_555 1_555
H26 C10 1_555 1_555
H27 C10 1_555 1_555
C11 C10 1_555 1_555
H28 C11 1_555 1_555
C12 C11 1_555 1_555
H29 C12 1_555 1_555
H30 C12 1_555 1_555
H31 C12 1_555 1_555
O4 C11 1_555 1_555
H32 O4 1_555 1_555
C13 H33 1_555 1_555
C14 C13 1_555 1_555
C15 C14 1_555 1_555
C16 C15 1_555 1_555
C17 C16 1_555 1_555
C18 C13 1_555 1_555
C19 C18 1_555 1_555
H34 C19 1_555 1_555
C20 C19 1_555 1_555
C21 C20 1_555 1_555
H35 C21 1_555 1_555
H36 C21 1_555 1_555
H37 C21 1_555 1_555
C22 C20 1_555 1_555
H38 C22 1_555 1_555
H39 C22 1_555 1_555
H40 C22 1_555 1_555
C23 C20 1_555 1_555
H41 C23 1_555 1_555
H42 C23 1_555 1_555
H43 C23 1_555 1_555
C24 H44 1_555 1_555
C25 C19 1_555 1_555
C26 C25 1_555 1_555
C27 C26 1_555 1_555
C28 C27 1_555 1_555
C29 C24 1_555 1_555
C30 C29 1_555 1_555
H45 C30 1_555 1_555
C31 C30 1_555 1_555
C32 C31 1_555 1_555
H46 C32 1_555 1_555
H47 C32 1_555 1_555
H48 C32 1_555 1_555
C33 C31 1_555 1_555
H49 C33 1_555 1_555
H50 C33 1_555 1_555
H51 C33 1_555 1_555
C34 C31 1_555 1_555
H52 C34 1_555 1_555
H53 C34 1_555 1_555
H54 C34 1_555 1_555
C35 H55 1_555 1_555
C36 C30 1_555 1_555
C37 C36 1_555 1_555
C38 C37 1_555 1_555
C39 C38 1_555 1_555
C40 C35 1_555 1_555
C41 C40 1_555 1_555
H56 C41 1_555 1_555
C42 C41 1_555 1_555
C43 C42 1_555 1_555
H57 C43 1_555 1_555
H58 C43 1_555 1_555
H59 C43 1_555 1_555
C44 C42 1_555 1_555
H60 C44 1_555 1_555
H61 C44 1_555 1_555
H62 C44 1_555 1_555
C45 C42 1_555 1_555
H63 C45 1_555 1_555
H64 C45 1_555 1_555
H65 C45 1_555 1_555
C46 H66 1_555 1_555
C47 C41 1_555 1_555
C48 C47 1_555 1_555
C49 C48 1_555 1_555
C50 C49 1_555 1_555
C51 C46 1_555 1_555
C52 C14 1_555 1_555
H67 C52 1_555 1_555
C53 C52 1_555 1_555
C54 C53 1_555 1_555
H68 C54 1_555 1_555
H69 C54 1_555 1_555
H70 C54 1_555 1_555
C55 C53 1_555 1_555
H71 C55 1_555 1_555
H72 C55 1_555 1_555
H73 C55 1_555 1_555
C56 C53 1_555 1_555
H74 C56 1_555 1_555
H75 C56 1_555 1_555
H76 C56 1_555 1_555
O5 C15 1_555 1_555
H77 O5 1_555 1_555
O6 C16 1_555 1_555
H78 O6 1_555 1_555
O7 C17 1_555 1_555
H79 O7 1_555 1_555
O8 C26 1_555 1_555
H80 O8 1_555 1_555
O9 C27 1_555 1_555
H81 O9 1_555 1_555
O10 C28 1_555 1_555
H82 O10 1_555 1_555
O11 C37 1_555 1_555
H83 O11 1_555 1_555
O12 C38 1_555 1_555
H84 O12 1_555 1_555
O13 C39 1_555 1_555
H85 O13 1_555 1_555
O14 C48 1_555 1_555
H86 O14 1_555 1_555
O15 C49 1_555 1_555
H87 O15 1_555 1_555
O16 C50 1_555 1_555
H88 O16 1_555 1_555
C17 C18 1_555 1_555
C24 C25 1_555 1_555
C28 C29 1_555 1_555
C35 C36 1_555 1_555
C39 C40 1_555 1_555
C46 C47 1_555 1_555
C50 C51 1_555 1_555
C51 C52 1_555 1_555

#END
