
#######################################################################
#
#                 Cambridge Crystallographic Data Centre
#                                CCDC 
#
#######################################################################
#
# If this CIF has been generated from an entry in the Cambridge 
# Structural Database, then it will include bibliographic, chemical, 
# crystal, experimental, refinement or atomic coordinate data resulting 
# from the CCDC's data processing and validation procedures.
#
#######################################################################

data_GIXZEV
_chemical_formula_moiety         'C17 H15 F4 N1 O1'
_chemical_name_systematic        
4,4,4-trifluoro-2-(2-fluorophenyl)-2-methyl-N-phenylbutanamide
_symmetry_cell_setting           orthorhombic
_symmetry_space_group_name_H-M   'P 21 21 21'
_symmetry_Int_Tables_number      19
_space_group_name_Hall           'P 2ac 2ab'
loop_
_symmetry_equiv_pos_site_id
_symmetry_equiv_pos_as_xyz
1 x,y,z
2 1/2-x,-y,1/2+z
3 -x,1/2+y,1/2-z
4 1/2+x,1/2-y,-z
_cell_length_a                   10.24270(10)
_cell_length_b                   17.1382(2)
_cell_length_c                   17.4927(2)
_cell_angle_alpha                90
_cell_angle_beta                 90
_cell_angle_gamma                90
_cell_volume                     3070.69
_exptl_crystal_colour            colorless
_exptl_crystal_description       block
_cell_formula_units_Z            8
loop_
_atom_site_label
_atom_site_type_symbol
_atom_site_fract_x
_atom_site_fract_y
_atom_site_fract_z
F1 F 0.6948(2) 0.81374(13) 0.86122(13)
F2 F 0.6880(2) 0.60504(14) 0.91740(11)
F3 F 0.6969(3) 0.52420(13) 0.82796(15)
F4 F 0.5134(2) 0.56701(18) 0.86597(16)
O1 O 0.63716(18) 0.76548(12) 0.68712(12)
N1 N 0.8506(2) 0.79923(13) 0.69731(13)
H1 H 0.924926 0.785068 0.718407
C1 C 0.7731(3) 0.68621(17) 0.77056(16)
C2 C 0.6371(3) 0.6545(2) 0.79460(19)
H2 H 0.586570 0.698393 0.816562
H3 H 0.590884 0.637407 0.747807
C3 C 0.6342(3) 0.5889(2) 0.8504(2)
C4 C 0.8476(3) 0.62521(18) 0.72382(19)
H4 H 0.795721 0.610422 0.679024
H5 H 0.863562 0.579000 0.755469
H6 H 0.931172 0.647142 0.707041
C5 C 0.7452(3) 0.75495(16) 0.71505(15)
C6 C 0.8495(3) 0.71518(18) 0.84024(16)
C7 C 0.8052(4) 0.7769(2) 0.88404(18)
C8 C 0.8644(5) 0.8038(3) 0.9492(2)
H7 H 0.829128 0.846257 0.977291
C9 C 0.9768(5) 0.7669(3) 0.9725(3)
H8 H 1.019759 0.783592 1.017768
C10 C 1.0271(4) 0.7064(3) 0.9309(3)
H9 H 1.105463 0.681790 0.947239
C11 C 0.9648(3) 0.6805(2) 0.8651(2)
H10 H 1.001300 0.638533 0.836711
C12 C 0.8559(3) 0.86556(15) 0.64893(15)
C13 C 0.7466(3) 0.90005(17) 0.61591(15)
H11 H 0.662204 0.878391 0.623553
C14 C 0.7627(4) 0.96675(17) 0.57151(17)
H12 H 0.688118 0.991045 0.549711
C15 C 0.8844(4) 0.99838(18) 0.55844(19)
H13 H 0.894191 1.042955 0.526671
C16 C 0.9920(3) 0.96417(17) 0.5923(2)
H14 H 1.076167 0.985985 0.584360
C17 C 0.9785(3) 0.89858(17) 0.63757(18)
H15 H 1.053164 0.875970 0.660997
F5 F 0.3141(2) 0.60541(12) 0.74149(11)
F6 F 0.3022(2) 0.86301(10) 0.57204(11)
F7 F 0.36591(18) 0.79726(12) 0.47442(12)
F8 F 0.18213(17) 0.85541(10) 0.47256(10)
O2 O 0.13549(18) 0.75821(12) 0.71097(11)
N2 N 0.3532(2) 0.78026(14) 0.71775(13)
H16 H 0.429246 0.767267 0.698110
C18 C 0.2640(2) 0.69773(15) 0.61332(14)
C19 C 0.1954(3) 0.74248(15) 0.54754(15)
H17 H 0.183664 0.705905 0.504275
H18 H 0.107257 0.757655 0.565375
C20 C 0.2617(3) 0.81386(17) 0.51794(16)
C21 C 0.4056(3) 0.67788(18) 0.59219(17)
H19 H 0.406995 0.648689 0.544025
H20 H 0.444573 0.646072 0.632789
H21 H 0.455780 0.726206 0.586284
C22 C 0.2465(3) 0.74801(16) 0.68636(14)
C23 C 0.1912(3) 0.62102(15) 0.62854(16)
C24 C 0.2218(3) 0.57702(18) 0.69285(18)
C25 C 0.1650(4) 0.50695(19) 0.7103(2)
H22 H 0.190657 0.479110 0.754787
C26 C 0.0706(4) 0.47734(19) 0.6627(2)
H23 H 0.030114 0.428813 0.674005
C27 C 0.0351(3) 0.51869(18) 0.59846(19)
H24 H -0.030335 0.498673 0.565336
C28 C 0.0946(3) 0.58953(16) 0.58193(17)
H25 H 0.068498 0.617315 0.537480
C29 C 0.3539(3) 0.83390(17) 0.78035(16)
C30 C 0.4472(3) 0.89109(19) 0.7816(2)
H26 H 0.509220 0.894578 0.741315
C31 C 0.4513(4) 0.9438(2) 0.8414(2)
H27 H 0.516389 0.983257 0.841877
C32 C 0.3633(4) 0.9398(2) 0.8996(2)
H28 H 0.365987 0.976692 0.940127
C33 C 0.2709(4) 0.8820(3) 0.8989(2)
H29 H 0.210100 0.878414 0.939779
C34 C 0.2652(4) 0.8287(2) 0.83931(18)
H30 H 0.200558 0.788999 0.839149
loop_
_geom_bond_atom_site_label_1
_geom_bond_atom_site_label_2
_geom_bond_site_symmetry_1
_geom_bond_site_symmetry_2
F1 C7 1_555 1_555
F2 C3 1_555 1_555
F3 C3 1_555 1_555
F4 C3 1_555 1_555
O1 C5 1_555 1_555
N1 H1 1_555 1_555
C1 C2 1_555 1_555
C2 H2 1_555 1_555
H3 C2 1_555 1_555
C3 C2 1_555 1_555
C4 C1 1_555 1_555
H4 C4 1_555 1_555
H5 C4 1_555 1_555
H6 C4 1_555 1_555
C5 N1 1_555 1_555
C6 C1 1_555 1_555
C7 C6 1_555 1_555
C8 C7 1_555 1_555
H7 C8 1_555 1_555
C9 C8 1_555 1_555
H8 C9 1_555 1_555
C10 C9 1_555 1_555
H9 C10 1_555 1_555
C11 C6 1_555 1_555
H10 C11 1_555 1_555
C12 N1 1_555 1_555
C13 C12 1_555 1_555
H11 C13 1_555 1_555
C14 C13 1_555 1_555
H12 C14 1_555 1_555
C15 C14 1_555 1_555
H13 C15 1_555 1_555
C16 C15 1_555 1_555
H14 C16 1_555 1_555
C17 C12 1_555 1_555
H15 C17 1_555 1_555
F5 C24 1_555 1_555
F6 C20 1_555 1_555
F7 C20 1_555 1_555
F8 C20 1_555 1_555
O2 C22 1_555 1_555
N2 H16 1_555 1_555
C18 C19 1_555 1_555
C19 H17 1_555 1_555
H18 C19 1_555 1_555
C20 C19 1_555 1_555
C21 C18 1_555 1_555
H19 C21 1_555 1_555
H20 C21 1_555 1_555
H21 C21 1_555 1_555
C22 N2 1_555 1_555
C23 C18 1_555 1_555
C24 C23 1_555 1_555
C25 C24 1_555 1_555
H22 C25 1_555 1_555
C26 C25 1_555 1_555
H23 C26 1_555 1_555
C27 C26 1_555 1_555
H24 C27 1_555 1_555
C28 C23 1_555 1_555
H25 C28 1_555 1_555
C29 N2 1_555 1_555
C30 C29 1_555 1_555
H26 C30 1_555 1_555
C31 C30 1_555 1_555
H27 C31 1_555 1_555
C32 C31 1_555 1_555
H28 C32 1_555 1_555
C33 C32 1_555 1_555
H29 C33 1_555 1_555
C34 C29 1_555 1_555
H30 C34 1_555 1_555
C1 C5 1_555 1_555
C10 C11 1_555 1_555
C16 C17 1_555 1_555
C18 C22 1_555 1_555
C27 C28 1_555 1_555
C33 C34 1_555 1_555

#END
