
#######################################################################
#
#                 Cambridge Crystallographic Data Centre
#                                CCDC 
#
#######################################################################
#
# If this CIF has been generated from an entry in the Cambridge 
# Structural Database, then it will include bibliographic, chemical, 
# crystal, experimental, refinement or atomic coordinate data resulting 
# from the CCDC's data processing and validation procedures.
#
#######################################################################

data_GIXZIZ
_chemical_formula_moiety         'C19 H20 O4'
_chemical_name_systematic        
"ethyl 3-(4,4'-dimethoxy[1,1'-biphenyl]-3-yl)prop-2-enoate"
_symmetry_cell_setting           monoclinic
_symmetry_space_group_name_H-M   'P 21/c'
_symmetry_Int_Tables_number      14
_space_group_name_Hall           '-P 2ybc'
loop_
_symmetry_equiv_pos_site_id
_symmetry_equiv_pos_as_xyz
1 x,y,z
2 -x,1/2+y,1/2-z
3 -x,-y,-z
4 x,1/2-y,1/2+z
_cell_length_a                   13.280(3)
_cell_length_b                   20.622(4)
_cell_length_c                   5.7279(11)
_cell_angle_alpha                90
_cell_angle_beta                 95.38(3)
_cell_angle_gamma                90
_cell_volume                     1561.73
_cell_formula_units_Z            4
loop_
_atom_site_label
_atom_site_type_symbol
_atom_site_fract_x
_atom_site_fract_y
_atom_site_fract_z
O1 O 0.33082(7) 0.65236(5) 0.78244(16)
O2 O 0.24490(7) 0.51673(5) 0.17621(16)
O3 O 0.35156(7) 0.48039(5) -0.07563(16)
O4 O 1.06078(7) 0.67411(5) 0.59653(16)
C1 C 0.29079(11) 0.69112(7) 0.9578(2)
H1 H 0.3175 0.6758 1.1134
H2 H 0.2169 0.6877 0.9424
H3 H 0.3105 0.7365 0.9382
C2 C 0.43339(10) 0.65377(6) 0.7693(2)
C3 C 0.50007(11) 0.69017(7) 0.9177(2)
H4 H 0.4758 0.7147 1.0413
C4 C 0.60175(11) 0.69064(6) 0.8851(2)
H5 H 0.6465 0.7159 0.9875
C5 C 0.64116(10) 0.65524(6) 0.7066(2)
C6 C 0.57310(10) 0.61797(6) 0.5634(2)
H6 H 0.5981 0.5927 0.4426
C7 C 0.46985(10) 0.61618(6) 0.5900(2)
C8 C 0.39807(10) 0.57770(6) 0.4377(2)
H7 H 0.3310 0.5753 0.4820
C9 C 0.41622(10) 0.54578(6) 0.2444(2)
H8 H 0.4832 0.5456 0.1988
C10 C 0.33710(10) 0.51082(6) 0.0983(2)
C11 C 0.16282(11) 0.48527(7) 0.0369(2)
H9 H 0.1074 0.4760 0.1363
H10 H 0.1867 0.4435 -0.0226
C12 C 0.12371(13) 0.52688(8) -0.1651(3)
H11 H 0.1011 0.5685 -0.1064
H12 H 0.0667 0.5051 -0.2538
H13 H 0.1777 0.5343 -0.2677
C13 C 0.75109(10) 0.65814(6) 0.6733(2)
C14 C 0.79022(10) 0.63324(7) 0.4748(2)
H14 H 0.7455 0.6131 0.3575
C15 C 0.89248(10) 0.63679(7) 0.4421(2)
H15 H 0.9167 0.6193 0.3045
C16 C 0.95887(10) 0.66596(6) 0.6108(2)
C17 C 0.92214(10) 0.69100(6) 0.8097(2)
H16 H 0.9673 0.7110 0.9266
C18 C 0.82065(10) 0.68728(6) 0.8404(2)
H17 H 0.7972 0.7049 0.9785
C19 C 1.10261(11) 0.64898(8) 0.3963(3)
H18 H 1.0873 0.6026 0.3813
H19 H 1.1761 0.6552 0.4133
H20 H 1.0733 0.6718 0.2558
loop_
_geom_bond_atom_site_label_1
_geom_bond_atom_site_label_2
_geom_bond_site_symmetry_1
_geom_bond_site_symmetry_2
O1 C1 1_555 1_555
O2 C10 1_555 1_555
O3 C10 1_555 1_555
O4 C16 1_555 1_555
C1 H1 1_555 1_555
H2 C1 1_555 1_555
H3 C1 1_555 1_555
C2 O1 1_555 1_555
C3 C2 1_555 1_555
H4 C3 1_555 1_555
C4 C3 1_555 1_555
H5 C4 1_555 1_555
C5 C4 1_555 1_555
C6 C5 1_555 1_555
H6 C6 1_555 1_555
C7 C2 1_555 1_555
C8 C7 1_555 1_555
H7 C8 1_555 1_555
C9 C8 1_555 1_555
H8 C9 1_555 1_555
C10 C9 1_555 1_555
C11 O2 1_555 1_555
H9 C11 1_555 1_555
H10 C11 1_555 1_555
C12 C11 1_555 1_555
H11 C12 1_555 1_555
H12 C12 1_555 1_555
H13 C12 1_555 1_555
C13 C5 1_555 1_555
C14 C13 1_555 1_555
H14 C14 1_555 1_555
C15 C14 1_555 1_555
H15 C15 1_555 1_555
C16 C15 1_555 1_555
C17 C16 1_555 1_555
H16 C17 1_555 1_555
C18 C13 1_555 1_555
H17 C18 1_555 1_555
C19 O4 1_555 1_555
H18 C19 1_555 1_555
H19 C19 1_555 1_555
H20 C19 1_555 1_555
C6 C7 1_555 1_555
C17 C18 1_555 1_555

#END
