
#######################################################################
#
#                 Cambridge Crystallographic Data Centre
#                                CCDC 
#
#######################################################################
#
# If this CIF has been generated from an entry in the Cambridge 
# Structural Database, then it will include bibliographic, chemical, 
# crystal, experimental, refinement or atomic coordinate data resulting 
# from the CCDC's data processing and validation procedures.
#
#######################################################################

data_GIYBIA
_chemical_formula_moiety         'C69 H78 B6 N8 O12,4(C1 H1 Cl3)'
_chemical_name_systematic        
'11,15,35,39,58,62,74,77,82,85,90,93-Dodecaoxa-1,4,22,25,28,46,51,69-octaaza-10,16,34,40,57,63-hexabora-tetradecacyclo(23.23.23.2^6,9^.2^10,13^.2^13,16^.2^17,20^.2^30,33^.2^34,37^.2^37,40^.2^41,44^.2^53,56^.2^57,60^.2^60,63^.2^64,67^)pentanonaconta-4,6,8,17,19,21,28,30,32,41,43,45,51,53,55,64,66,68,72,78,80,86,88,94-tetracosaene chloroform solvate'
_symmetry_cell_setting           rhombohedral
_symmetry_space_group_name_H-M   'R -3 c'
_symmetry_Int_Tables_number      167
_space_group_name_Hall           '-R 3 2"c'
loop_
_symmetry_equiv_pos_site_id
_symmetry_equiv_pos_as_xyz
1 x,y,z
2 -y,x-y,z
3 -x+y,-x,z
4 y,x,1/2-z
5 2/3+x,1/3+y,1/3+z
6 2/3-y,1/3+x-y,1/3+z
7 2/3-x+y,1/3-x,1/3+z
8 2/3+y,1/3+x,5/6-z
9 1/3+x,2/3+y,2/3+z
10 1/3+y,2/3+x,1/6-z
11 x-y,-y,1/2-z
12 -x,-x+y,1/2-z
13 1/3-y,2/3+x-y,2/3+z
14 1/3-x+y,2/3-x,2/3+z
15 1/3+x-y,2/3-y,1/6-z
16 1/3-x,2/3-x+y,1/6-z
17 2/3+x-y,1/3-y,5/6-z
18 2/3-x,1/3-x+y,5/6-z
19 -x,-y,-z
20 y,-x+y,-z
21 x-y,x,-z
22 -y,-x,1/2+z
23 1/3-x,2/3-y,2/3-z
24 1/3+y,2/3-x+y,2/3-z
25 1/3+x-y,2/3+x,2/3-z
26 1/3-y,2/3-x,1/6+z
27 2/3-x,1/3-y,1/3-z
28 2/3-y,1/3-x,5/6+z
29 -x+y,y,1/2+z
30 x,x-y,1/2+z
31 2/3+y,1/3-x+y,1/3-z
32 2/3+x-y,1/3+x,1/3-z
33 2/3-x+y,1/3+y,5/6+z
34 2/3+x,1/3+x-y,5/6+z
35 1/3-x+y,2/3+y,1/6+z
36 1/3+x,2/3+x-y,1/6+z
_cell_length_a                   18.110(3)
_cell_length_b                   18.110(3)
_cell_length_c                   50.971(10)
_cell_angle_alpha                90
_cell_angle_beta                 90
_cell_angle_gamma                120.00
_cell_volume                     14477.4
_exptl_crystal_colour            colorless
_exptl_crystal_description       prismatic
_cell_formula_units_Z            6
_exptl_crystal_recrystallization_method pentane/chloroform
loop_
_atom_site_label
_atom_site_type_symbol
_atom_site_fract_x
_atom_site_fract_y
_atom_site_fract_z
O1 O 0.3584(4) -0.0480(4) -0.03527(13)
O2 O 0.4285(4) -0.1088(4) -0.05998(13)
N1 N 0.4709(6) -0.1853(6) 0.08382(19)
N2 N 0.3333 -0.3333 0.1174(3)
B1 B 0.4017(8) -0.0918(9) -0.0365(3)
C1 C 0.3333 -0.0702(8) -0.0833
C2 C 0.3392(7) -0.0159(7) -0.0595(2)
H1 H 0.3844 0.0439 -0.0625
H2 H 0.2844 -0.0167 -0.0573
C3 C 0.4137(6) -0.0758(7) -0.08428(19)
H3 H 0.4096 -0.1135 -0.0990
H4 H 0.4629 -0.0184 -0.0877
C4 C 0.4205(7) -0.1250(7) -0.0104(2)
C5 C 0.4140(7) -0.0930(7) 0.0139(2)
H5 H 0.3985 -0.0501 0.0143
C6 C 0.4294(7) -0.1214(7) 0.0375(2)
H6 H 0.4246 -0.0983 0.0537
C7 C 0.4521(7) -0.1842(7) 0.0370(2)
C8 C 0.4588(6) -0.2177(7) 0.0132(2)
H7 H 0.4738 -0.2610 0.0130
C9 C 0.4437(6) -0.1885(7) -0.0103(2)
H8 H 0.4492 -0.2115 -0.0265
C10 C 0.4646(6) -0.2201(7) 0.0621(2)
H9 H 0.4678 -0.2708 0.0614
C11 C 0.4836(8) -0.2255(8) 0.1074(2)
H10 H 0.5373 -0.1844 0.1163
H11 H 0.4882 -0.2757 0.1022
C12 C 0.4075(8) -0.2535(8) 0.1264(2)
H12 H 0.4242 -0.2618 0.1442
H13 H 0.3922 -0.2082 0.1274
O1Q O 0.3083(4) -0.0731(6) -0.13140(13)
O1G O 0.6187(4) -0.3083(4) -0.13140(13)
O1B O 0.5936(6) -0.3584(4) -0.03527(13)
O1A O 0.0480(4) -0.5936(6) -0.03527(13)
O1P O 0.0731(6) -0.6187(4) -0.13140(13)
O2Q O 0.2382(4) -0.2040(6) -0.10669(13)
O2B O 0.4627(6) -0.4285(4) -0.05998(13)
O2G O 0.5579(4) -0.2382(4) -0.10669(13)
O2P O 0.2040(6) -0.5579(4) -0.10669(13)
O2A O 0.1088(4) -0.4627(6) -0.05998(13)
N1Q N 0.1958(6) -0.3229(8) -0.25049(19)
N1G N 0.4814(6) -0.1958(6) -0.25049(19)
N1B N 0.3438(8) -0.4709(6) 0.08382(19)
N1A N 0.1853(6) -0.3438(8) 0.08382(19)
N1P N 0.3229(8) -0.4814(6) -0.25049(19)
N2Q N 0.3334 -0.3333 -0.2841(3)
B1Q B 0.2650(8) -0.1602(12) -0.1302(3)
B1G B 0.5749(9) -0.2650(8) -0.1302(3)
B1B B 0.5065(12) -0.4017(8) -0.0365(3)
B1A B 0.0918(9) -0.5065(12) -0.0365(3)
B1P B 0.1602(12) -0.5749(9) -0.1302(3)
C1G C 0.5965(8) -0.3334 -0.0834
C1A C 0.0702(8) -0.5965(8) -0.0833
C2Q C 0.3275(7) -0.0218(10) -0.1072(2)
C2G C 0.6508(7) -0.3275(7) -0.1072(2)
C2B C 0.6449(10) -0.3392(7) -0.0595(2)
C2A C 0.0159(7) -0.6449(10) -0.0595(2)
C2P C 0.0218(10) -0.6508(7) -0.1072(2)
H1P H 0.0072 -0.7106 -0.1042
H1A H -0.0439 -0.6595 -0.0625
H1B H 0.6595 -0.3844 -0.0625
H1G H 0.7106 -0.2823 -0.1042
H1Q H 0.2823 -0.0072 -0.1042
H2P H -0.0322 -0.6500 -0.1094
H2A H 0.0167 -0.6989 -0.0573
H2B H 0.6989 -0.2844 -0.0573
H2G H 0.6500 -0.3823 -0.1094
H2Q H 0.3823 0.0322 -0.1094
C3Q C 0.2530(6) -0.1562(9) -0.08239(19)
C3B C 0.5105(9) -0.4137(6) -0.08428(19)
C3G C 0.5909(7) -0.2530(6) -0.08239(19)
C3P C 0.1562(9) -0.5909(7) -0.08239(19)
C3A C 0.0758(7) -0.5105(9) -0.08428(19)
H3Q H 0.2571 -0.1898 -0.0677
H3G H 0.5532 -0.2571 -0.0677
H3B H 0.4769 -0.4096 -0.0990
H3A H 0.1135 -0.4769 -0.0990
H3P H 0.1898 -0.5532 -0.0677
H4Q H 0.2038 -0.1480 -0.0790
H4G H 0.6483 -0.2038 -0.0790
H4B H 0.5187 -0.4629 -0.0877
H4A H 0.0184 -0.5187 -0.0877
H4P H 0.1480 -0.6483 -0.0790
C4Q C 0.2462(7) -0.2122(10) -0.1563(2)
C4G C 0.5417(7) -0.2462(7) -0.1563(2)
C4B C 0.4545(10) -0.4205(7) -0.0104(2)
C4A C 0.1250(7) -0.4545(10) -0.0104(2)
C4P C 0.2122(10) -0.5417(7) -0.1563(2)
C5Q C 0.2527(7) -0.1737(10) -0.1806(2)
C5G C 0.5737(7) -0.2527(7) -0.1806(2)
C5B C 0.4930(10) -0.4140(7) 0.0139(2)
C5A C 0.0930(7) -0.4930(10) 0.0139(2)
C5P C 0.1737(10) -0.5737(7) -0.1806(2)
H5Q H 0.2682 -0.1153 -0.1810
H5B H 0.5514 -0.3985 0.0143
H5P H 0.1153 -0.6166 -0.1810
H5A H 0.0501 -0.5514 0.0143
H5G H 0.6166 -0.2682 -0.1810
C6Q C 0.2373(7) -0.2175(10) -0.2042(2)
C6G C 0.5453(7) -0.2373(7) -0.2042(2)
C6B C 0.4492(10) -0.4294(7) 0.0375(2)
C6A C 0.1214(7) -0.4492(10) 0.0375(2)
C6P C 0.2175(10) -0.5453(7) -0.2042(2)
H6Q H 0.2421 -0.1896 -0.2204
H6B H 0.4771 -0.4246 0.0537
H6P H 0.1896 -0.5684 -0.2204
H6A H 0.0983 -0.4771 0.0537
H6G H 0.5684 -0.2421 -0.2204
C7Q C 0.2146(7) -0.3030(10) -0.2037(2)
C7G C 0.4825(7) -0.2146(7) -0.2037(2)
C7B C 0.3637(10) -0.4521(7) 0.0370(2)
C7A C 0.1842(7) -0.3637(10) 0.0370(2)
C7P C 0.3030(10) -0.4825(7) -0.2037(2)
C8Q C 0.2079(6) -0.3432(9) -0.1799(2)
C8B C 0.3235(9) -0.4588(6) 0.0132(2)
C8P C 0.3432(9) -0.4490(7) -0.1799(2)
C8A C 0.2177(7) -0.3235(9) 0.0132(2)
C8G C 0.4490(7) -0.2079(6) -0.1799(2)
H7Q H 0.1929 -0.4015 -0.1797
H7B H 0.2652 -0.4738 0.0130
H7P H 0.4015 -0.4057 -0.1797
H7A H 0.2610 -0.2652 0.0130
H7G H 0.4057 -0.1929 -0.1797
C9Q C 0.2230(6) -0.2989(9) -0.1564(2)
C9B C 0.3678(9) -0.4437(6) -0.0103(2)
C9P C 0.2989(9) -0.4782(7) -0.1564(2)
C9A C 0.1885(7) -0.3678(9) -0.0103(2)
C9G C 0.4782(7) -0.2230(6) -0.1564(2)
H8Q H 0.2175 -0.3274 -0.1402
H8B H 0.3393 -0.4492 -0.0265
H8P H 0.3274 -0.4552 -0.1402
H8A H 0.2115 -0.3393 -0.0265
H8G H 0.4552 -0.2175 -0.1402
C10Q C 0.2021(6) -0.3514(9) -0.2288(2)
C10G C 0.4466(7) -0.2021(6) -0.2288(2)
C10B C 0.3153(9) -0.4646(6) 0.0621(2)
C10A C 0.2201(7) -0.3153(9) 0.0621(2)
C10P C 0.3514(9) -0.4466(7) -0.2288(2)
H9P H 0.4053 -0.3959 -0.2281
H9A H 0.2708 -0.2614 0.0614
H9B H 0.2614 -0.4678 0.0614
H9G H 0.3959 -0.1989 -0.2281
H9Q H 0.1989 -0.4053 -0.2281
C11Q C 0.1831(8) -0.3758(11) -0.2741(2)
C11G C 0.4412(8) -0.1831(8) -0.2741(2)
C11B C 0.2909(11) -0.4836(8) 0.1074(2)
C11A C 0.2255(8) -0.2909(11) 0.1074(2)
C11P C 0.3758(11) -0.4412(8) -0.2741(2)
H10Q H 0.1294 -0.3884 -0.2830
H10B H 0.2783 -0.5373 0.1163
H10P H 0.3884 -0.4823 -0.2830
H10A H 0.1844 -0.2783 0.1163
H10G H 0.4823 -0.1294 -0.2830
H11Q H 0.1785 -0.4306 -0.2689
H11B H 0.2361 -0.4882 0.1022
H11P H 0.4306 -0.3910 -0.2689
H11A H 0.2757 -0.2361 0.1022
H11G H 0.3910 -0.1785 -0.2689
C12Q C 0.2592(8) -0.3277(11) -0.2931(2)
C12G C 0.4132(8) -0.2592(8) -0.2931(2)
C12B C 0.3390(11) -0.4075(8) 0.1264(2)
C12A C 0.2535(8) -0.3390(11) 0.1264(2)
C12P C 0.3277(11) -0.4132(8) -0.2931(2)
H12P H 0.3527 -0.4049 -0.3109
H12A H 0.2618 -0.3140 0.1442
H12B H 0.3140 -0.4242 0.1442
H12G H 0.4049 -0.2425 -0.3109
H12Q H 0.2425 -0.3527 -0.3109
H13P H 0.2671 -0.4585 -0.2941
H13A H 0.2082 -0.3996 0.1274
H13B H 0.3996 -0.3922 0.1274
H13G H 0.4585 -0.2745 -0.2941
H13Q H 0.2745 -0.2671 -0.2941
Cl1 Cl 0.0462(6) -0.2929(6) -0.04883(16)
Cl2 Cl -0.0210(7) -0.2427(6) -0.00668(17)
Cl3 Cl 0.1567(8) -0.1671(7) -0.0121(2)
C13 C 0.0614(12) -0.2578(18) -0.0166(5)
H14 H 0.0607 -0.3033 -0.0054
Cl4? Cl -0.0995(15) -0.3308(17) -0.0573(5)
Cl5? Cl 0.052(2) -0.336(3) -0.0631(8)
Cl6? Cl 0.035(3) -0.242(3) -0.0210(8)
C14? C 0.0080(19) -0.276(2) -0.0530(7)
H15? H 0.0317 -0.2239 -0.0644
loop_
_geom_bond_atom_site_label_1
_geom_bond_atom_site_label_2
_geom_bond_site_symmetry_1
_geom_bond_site_symmetry_2
O1 B1 1_555 1_555
O2 B1 1_555 1_555
N1 C10 1_555 1_555
N2 C12 1_555 1_555
B1 C4 1_555 1_555
C1 C2 1_555 1_555
C2 O1 1_555 1_555
H1 C2 1_555 1_555
H2 C2 1_555 1_555
C3 O2 1_555 1_555
H3 C3 1_555 1_555
H4 C3 1_555 1_555
C4 C5 1_555 1_555
C5 H5 1_555 1_555
C6 C5 1_555 1_555
H6 C6 1_555 1_555
C7 C6 1_555 1_555
C8 C7 1_555 1_555
H7 C8 1_555 1_555
C9 C4 1_555 1_555
H8 C9 1_555 1_555
C10 C7 1_555 1_555
H9 C10 1_555 1_555
C11 N1 1_555 1_555
H10 C11 1_555 1_555
H11 C11 1_555 1_555
C12 C11 1_555 1_555
H12 C12 1_555 1_555
H13 C12 1_555 1_555
Cl1 C13 1_555 1_555
Cl2 C13 1_555 1_555
Cl3 C13 1_555 1_555
C13 H14 1_555 1_555
O1Q B1Q 1_555 1_555
O1G B1G 1_555 1_555
O1B B1B 1_555 1_555
O1A B1A 1_555 1_555
O1P B1P 1_555 1_555
O2Q B1Q 1_555 1_555
O2B B1B 1_555 1_555
O2G B1G 1_555 1_555
O2P B1P 1_555 1_555
O2A B1A 1_555 1_555
N1Q C10Q 1_555 1_555
N1G C10G 1_555 1_555
N1B C10B 1_555 1_555
N1A C10A 1_555 1_555
N1P C10P 1_555 1_555
N2Q C12Q 1_555 1_555
B1Q C4Q 1_555 1_555
B1G C4G 1_555 1_555
B1B C4B 1_555 1_555
B1A C4A 1_555 1_555
B1P C4P 1_555 1_555
C1G C2G 1_555 1_555
C1A C2A 1_555 1_555
C2Q C1 1_555 1_555
C2G O1G 1_555 1_555
C2B O1B 1_555 1_555
C2A O1A 1_555 1_555
C2P O1P 1_555 1_555
H1P C2P 1_555 1_555
H1A C2A 1_555 1_555
H1B C2B 1_555 1_555
H1G C2G 1_555 1_555
H1Q C2Q 1_555 1_555
H2P C2P 1_555 1_555
H2A C2A 1_555 1_555
H2B C2B 1_555 1_555
H2G C2G 1_555 1_555
H2Q C2Q 1_555 1_555
C3Q C1 1_555 1_555
C3B O2B 1_555 1_555
C3G O2G 1_555 1_555
C3P O2P 1_555 1_555
C3A O2A 1_555 1_555
H3Q C3Q 1_555 1_555
H3G C3G 1_555 1_555
H3B C3B 1_555 1_555
H3A C3A 1_555 1_555
H3P C3P 1_555 1_555
H4Q C3Q 1_555 1_555
H4G C3G 1_555 1_555
H4B C3B 1_555 1_555
H4A C3A 1_555 1_555
H4P C3P 1_555 1_555
C4Q C5Q 1_555 1_555
C4G C5G 1_555 1_555
C4B C5B 1_555 1_555
C4A C5A 1_555 1_555
C4P C5P 1_555 1_555
C5Q H5Q 1_555 1_555
C5G H5G 1_555 1_555
C5B H5B 1_555 1_555
C5A H5A 1_555 1_555
C5P H5P 1_555 1_555
C6Q C5Q 1_555 1_555
C6G C5G 1_555 1_555
C6B C5B 1_555 1_555
C6A C5A 1_555 1_555
C6P C5P 1_555 1_555
H6Q C6Q 1_555 1_555
H6B C6B 1_555 1_555
H6P C6P 1_555 1_555
H6A C6A 1_555 1_555
H6G C6G 1_555 1_555
C7Q C6Q 1_555 1_555
C7G C6G 1_555 1_555
C7B C6B 1_555 1_555
C7A C6A 1_555 1_555
C7P C6P 1_555 1_555
C8Q C7Q 1_555 1_555
C8B C7B 1_555 1_555
C8P C7P 1_555 1_555
C8A C7A 1_555 1_555
C8G C7G 1_555 1_555
H7Q C8Q 1_555 1_555
H7B C8B 1_555 1_555
H7P C8P 1_555 1_555
H7A C8A 1_555 1_555
H7G C8G 1_555 1_555
C9Q C4Q 1_555 1_555
C9B C4B 1_555 1_555
C9P C4P 1_555 1_555
C9A C4A 1_555 1_555
C9G C4G 1_555 1_555
H8Q C9Q 1_555 1_555
H8B C9B 1_555 1_555
H8P C9P 1_555 1_555
H8A C9A 1_555 1_555
H8G C9G 1_555 1_555
C10Q C7Q 1_555 1_555
C10G C7G 1_555 1_555
C10B C7B 1_555 1_555
C10A C7A 1_555 1_555
C10P C7P 1_555 1_555
H9P C10P 1_555 1_555
H9A C10A 1_555 1_555
H9B C10B 1_555 1_555
H9G C10G 1_555 1_555
H9Q C10Q 1_555 1_555
C11Q N1Q 1_555 1_555
C11G N1G 1_555 1_555
C11B N1B 1_555 1_555
C11A N1A 1_555 1_555
C11P N1P 1_555 1_555
H10Q C11Q 1_555 1_555
H10B C11B 1_555 1_555
H10P C11P 1_555 1_555
H10A C11A 1_555 1_555
H10G C11G 1_555 1_555
H11Q C11Q 1_555 1_555
H11B C11B 1_555 1_555
H11P C11P 1_555 1_555
H11A C11A 1_555 1_555
H11G C11G 1_555 1_555
C12Q C11Q 1_555 1_555
C12G N2Q 1_555 1_555
C12B N2 1_555 1_555
C12A N2 1_555 1_555
C12P N2Q 1_555 1_555
H12P C12P 1_555 1_555
H12A C12A 1_555 1_555
H12B C12B 1_555 1_555
H12G C12G 1_555 1_555
H12Q C12Q 1_555 1_555
H13P C12P 1_555 1_555
H13A C12A 1_555 1_555
H13B C12B 1_555 1_555
H13G C12G 1_555 1_555
H13Q C12Q 1_555 1_555
C1 C3 1_555 1_555
C8 C9 1_555 1_555
O1Q C2Q 1_555 1_555
O2Q C3Q 1_555 1_555
C1G C2B 1_555 1_555
C1G C3B 1_555 1_555
C1G C3G 1_555 1_555
C1A C2P 1_555 1_555
C1A C3P 1_555 1_555
C1A C3A 1_555 1_555
C8Q C9Q 1_555 1_555
C8B C9B 1_555 1_555
C8P C9P 1_555 1_555
C8A C9A 1_555 1_555
C8G C9G 1_555 1_555
C11G C12G 1_555 1_555
C11B C12B 1_555 1_555
C11A C12A 1_555 1_555
C11P C12P 1_555 1_555

#END
