
#######################################################################
#
#                 Cambridge Crystallographic Data Centre
#                                CCDC 
#
#######################################################################
#
# If this CIF has been generated from an entry in the Cambridge 
# Structural Database, then it will include bibliographic, chemical, 
# crystal, experimental, refinement or atomic coordinate data resulting 
# from the CCDC's data processing and validation procedures.
#
#######################################################################

data_GIYBAS
_chemical_formula_moiety         'C50 H44 B4 N4 O8,2(C1 H1 Cl3)'
_chemical_name_systematic        
'3,24,28,49,52,57,60,65-Octaoxa-11,16,36,41-tetraaza-4,23,29,48-tetrabora-undecacyclo(46.2.2.2^1,4^.2^12,15^.2^23,26^.2^26,29^.2^37,40^.1^5,9^.1^18,22^.1^30,34^.1^43,47^)hexahexaconta-5(64),6,8,10,12,14,16,18(61),19,21,30(56),31,33,35,37,39,41,43(53),44,46,54,62-docosaene chloroform solvate'
_symmetry_cell_setting           monoclinic
_symmetry_space_group_name_H-M   'P 21/n'
_symmetry_Int_Tables_number      14
_space_group_name_Hall           '-P 2yn'
loop_
_symmetry_equiv_pos_site_id
_symmetry_equiv_pos_as_xyz
1 x,y,z
2 1/2-x,1/2+y,1/2-z
3 -x,-y,-z
4 1/2+x,1/2-y,1/2+z
_cell_length_a                   6.475(3)
_cell_length_b                   19.32(2)
_cell_length_c                   21.19(2)
_cell_angle_alpha                90
_cell_angle_beta                 94.73(6)
_cell_angle_gamma                90
_cell_volume                     2641.78
_exptl_crystal_colour            yellow
_exptl_crystal_description       'long needle'
_cell_formula_units_Z            2
_exptl_crystal_recrystallization_method chloroform/pentane
loop_
_atom_site_label
_atom_site_type_symbol
_atom_site_fract_x
_atom_site_fract_y
_atom_site_fract_z
O1 O 0.1558(9) 0.0706(3) 0.1042(3)
O2 O 0.1450(9) 0.0314(3) 0.2110(2)
O3 O -1.5387(9) -0.2096(3) 0.7307(3)
O4 O -1.1656(9) -0.2127(3) 0.7383(2)
N1 N -0.5102(11) -0.0915(4) 0.2750(3)
N2 N -1.0644(10) -0.2115(4) 0.4353(3)
B1 B 0.0668(16) 0.0332(5) 0.1488(4)
B2 B -1.3568(19) -0.2235(6) 0.7061(5)
C1 C 0.3416(13) 0.1359(4) 0.1904(4)
C2 C 0.3401(14) 0.1109(5) 0.1226(4)
H1 H 0.3460 0.1513 0.0941
H2 H 0.4646 0.0822 0.1180
C3 C 0.3261(13) 0.0733(5) 0.2328(4)
H3 H 0.4534 0.0450 0.2322
H4 H 0.3134 0.0886 0.2769
C4 C -0.1352(13) -0.0088(4) 0.1316(4)
C5 C -0.2149(13) -0.0195(4) 0.0681(4)
H5 H -0.1465 -0.0001 0.0343
C6 C -0.3932(14) -0.0586(5) 0.0554(4)
H6 H -0.4450 -0.0657 0.0126
C7 C -0.4970(14) -0.0875(4) 0.1028(4)
H7 H -0.6180 -0.1145 0.0929
C8 C -0.4222(13) -0.0766(4) 0.1667(4)
C9 C -0.2426(13) -0.0378(4) 0.1790(4)
H8 H -0.1912 -0.0308 0.2218
C10 C -0.5394(13) -0.1058(4) 0.2162(4)
H9 H -0.6459 -0.1380 0.2036
C11 C -0.6501(14) -0.1184(4) 0.3161(4)
C12 C -0.8626(13) -0.1270(4) 0.2974(4)
H10 H -0.9160 -0.1125 0.2564
C13 C -0.9932(14) -0.1561(5) 0.3379(4)
H11 H -1.1354 -0.1621 0.3240
C14 C -0.9218(14) -0.1771(4) 0.3993(4)
C15 C -0.7111(13) -0.1659(4) 0.4194(4)
H12 H -0.6600 -0.1784 0.4612
C16 C -0.5785(14) -0.1369(5) 0.3787(4)
H13 H -0.4374 -0.1292 0.3930
C17 C -1.0556(14) -0.2068(5) 0.4955(4)
H14 H -0.9456 -0.1808 0.5163
C18 C -1.2026(13) -0.2387(4) 0.5336(4)
C19 C -1.3614(13) -0.2823(5) 0.5049(4)
H15 H -1.3641 -0.2942 0.4613
C20 C -1.5119(15) -0.3070(4) 0.5421(4)
H16 H -1.6156 -0.3373 0.5236
C21 C -1.5161(15) -0.2892(5) 0.6046(4)
H17 H -1.6271 -0.3045 0.6278
C22 C -1.3569(13) -0.2485(5) 0.6347(4)
C23 C -1.2047(13) -0.2258(4) 0.5983(4)
H18 H -1.0938 -0.1996 0.6185
C24 C 0.5456(14) 0.1748(5) 0.2099(4)
H19 H 0.5718 0.2091 0.1768
H20 H 0.6619 0.1414 0.2129
C25 C 0.1611(14) 0.1868(5) 0.1982(4)
H21 H 0.0277 0.1629 0.1874
H22 H 0.1707 0.2260 0.1686
O1B O -1.1558(9) -0.0706(3) 0.8958(3)
O2B O -1.1450(9) -0.0314(3) 0.7890(2)
O3B O 0.5387(9) 0.2096(3) 0.2693(3)
O4B O 0.1656(9) 0.2127(3) 0.2617(2)
N1B N -0.4898(11) 0.0915(4) 0.7250(3)
N2B N 0.0644(10) 0.2115(4) 0.5647(3)
B1B B -1.0668(16) -0.0332(5) 0.8512(4)
B2B B 0.3568(19) 0.2235(6) 0.2939(5)
C1B C -1.3416(13) -0.1359(4) 0.8096(4)
C2B C -1.3401(14) -0.1109(5) 0.8774(4)
H1B H -1.3460 -0.1513 0.9059
H2B H -1.4646 -0.0822 0.8820
C3B C -1.3261(13) -0.0733(5) 0.7672(4)
H3B H -1.4534 -0.0450 0.7678
H4B H -1.3134 -0.0886 0.7231
C4B C -0.8648(13) 0.0088(4) 0.8684(4)
C5B C -0.7851(13) 0.0195(4) 0.9319(4)
H5B H -0.8535 0.0001 0.9657
C6B C -0.6068(14) 0.0586(5) 0.9446(4)
H6B H -0.5550 0.0657 0.9874
C7B C -0.5030(14) 0.0875(4) 0.8972(4)
H7B H -0.3820 0.1145 0.9071
C8B C -0.5778(13) 0.0766(4) 0.8333(4)
C9B C -0.7574(13) 0.0378(4) 0.8210(4)
H8B H -0.8088 0.0308 0.7782
C10B C -0.4606(13) 0.1058(4) 0.7838(4)
H9B H -0.3541 0.1380 0.7964
C11B C -0.3499(14) 0.1184(4) 0.6839(4)
C12B C -0.1374(13) 0.1270(4) 0.7026(4)
H10B H -0.0840 0.1125 0.7436
C13B C -0.0068(14) 0.1561(5) 0.6621(4)
H11B H 0.1354 0.1621 0.6760
C14B C -0.0782(14) 0.1771(4) 0.6007(4)
C15B C -0.2889(13) 0.1659(4) 0.5806(4)
H12B H -0.3400 0.1784 0.5388
C16B C -0.4215(14) 0.1369(5) 0.6213(4)
H13B H -0.5626 0.1292 0.6070
C17B C 0.0556(14) 0.2068(5) 0.5045(4)
H14B H -0.0544 0.1808 0.4837
C18B C 0.2026(13) 0.2387(4) 0.4664(4)
C19B C 0.3614(13) 0.2823(5) 0.4951(4)
H15B H 0.3641 0.2942 0.5387
C20B C 0.5119(15) 0.3070(4) 0.4579(4)
H16B H 0.6156 0.3373 0.4764
C21B C 0.5161(15) 0.2892(5) 0.3954(4)
H17B H 0.6271 0.3045 0.3722
C22B C 0.3569(13) 0.2485(5) 0.3653(4)
C23B C 0.2047(13) 0.2258(4) 0.4017(4)
H18B H 0.0938 0.1996 0.3815
C24B C -1.5456(14) -0.1748(5) 0.7901(4)
H19B H -1.5718 -0.2091 0.8232
H20B H -1.6619 -0.1414 0.7871
C25B C -1.1611(14) -0.1868(5) 0.8018(4)
H21B H -1.0277 -0.1629 0.8126
H22B H -1.1707 -0.2260 0.8314
C26 C -0.230(3) 0.0239(7) 0.3799(6)
H23 H -0.2911 -0.0147 0.3530
Cl1 Cl -0.4766(10) 0.0767(4) 0.4067(2)
Cl2 Cl -0.1332(17) -0.0117(4) 0.4403(4)
Cl3 Cl -0.1271(14) 0.0757(6) 0.3306(4)
Cl4? Cl 0.0864(12) 0.0208(3) 0.3953(3)
Cl5? Cl -0.3029(15) 0.0072(6) 0.4539(4)
Cl6? Cl -0.2607(16) 0.1000(4) 0.3483(4)
loop_
_geom_bond_atom_site_label_1
_geom_bond_atom_site_label_2
_geom_bond_site_symmetry_1
_geom_bond_site_symmetry_2
O1 B1 1_555 1_555
O2 B1 1_555 1_555
O3 B2 1_555 1_555
O4 B2 1_555 1_555
N1 C10 1_555 1_555
N2 C14 1_555 1_555
B1 C4 1_555 1_555
B2 C22 1_555 1_555
C1 C2 1_555 1_555
C2 O1 1_555 1_555
H1 C2 1_555 1_555
H2 C2 1_555 1_555
C3 O2 1_555 1_555
H3 C3 1_555 1_555
H4 C3 1_555 1_555
C4 C5 1_555 1_555
C5 H5 1_555 1_555
C6 C5 1_555 1_555
H6 C6 1_555 1_555
C7 C6 1_555 1_555
H7 C7 1_555 1_555
C8 C7 1_555 1_555
C9 C4 1_555 1_555
H8 C9 1_555 1_555
C10 C8 1_555 1_555
H9 C10 1_555 1_555
C11 N1 1_555 1_555
C12 C11 1_555 1_555
H10 C12 1_555 1_555
C13 C12 1_555 1_555
H11 C13 1_555 1_555
C14 C13 1_555 1_555
C15 C14 1_555 1_555
H12 C15 1_555 1_555
C16 C11 1_555 1_555
H13 C16 1_555 1_555
C17 N2 1_555 1_555
H14 C17 1_555 1_555
C18 C17 1_555 1_555
C19 C18 1_555 1_555
H15 C19 1_555 1_555
C20 C19 1_555 1_555
H16 C20 1_555 1_555
C21 C20 1_555 1_555
H17 C21 1_555 1_555
C22 C21 1_555 1_555
C23 C18 1_555 1_555
H18 C23 1_555 1_555
C24 C1 1_555 1_555
H19 C24 1_555 1_555
H20 C24 1_555 1_555
C25 C1 1_555 1_555
H21 C25 1_555 1_555
H22 C25 1_555 1_555
C26 H23 1_555 1_555
Cl1 C26 1_555 1_555
Cl2 C26 1_555 1_555
Cl3 C26 1_555 1_555
O1B B1B 1_555 1_555
O2B B1B 1_555 1_555
O3B C24 1_555 1_555
O4B C25 1_555 1_555
N1B C10B 1_555 1_555
N2B C14B 1_555 1_555
B1B C4B 1_555 1_555
B2B O3B 1_555 1_555
C1B C2B 1_555 1_555
C2B O1B 1_555 1_555
H1B C2B 1_555 1_555
H2B C2B 1_555 1_555
C3B O2B 1_555 1_555
H3B C3B 1_555 1_555
H4B C3B 1_555 1_555
C4B C5B 1_555 1_555
C5B H5B 1_555 1_555
C6B C5B 1_555 1_555
H6B C6B 1_555 1_555
C7B C6B 1_555 1_555
H7B C7B 1_555 1_555
C8B C7B 1_555 1_555
C9B C4B 1_555 1_555
H8B C9B 1_555 1_555
C10B C8B 1_555 1_555
H9B C10B 1_555 1_555
C11B N1B 1_555 1_555
C12B C11B 1_555 1_555
H10B C12B 1_555 1_555
C13B C12B 1_555 1_555
H11B C13B 1_555 1_555
C14B C13B 1_555 1_555
C15B C14B 1_555 1_555
H12B C15B 1_555 1_555
C16B C11B 1_555 1_555
H13B C16B 1_555 1_555
C17B N2B 1_555 1_555
H14B C17B 1_555 1_555
C18B C17B 1_555 1_555
C19B C18B 1_555 1_555
H15B C19B 1_555 1_555
C20B C19B 1_555 1_555
H16B C20B 1_555 1_555
C21B C20B 1_555 1_555
H17B C21B 1_555 1_555
C22B B2B 1_555 1_555
C23B C18B 1_555 1_555
H18B C23B 1_555 1_555
C24B O3 1_555 1_555
H19B C24B 1_555 1_555
H20B C24B 1_555 1_555
C25B O4 1_555 1_555
H21B C25B 1_555 1_555
H22B C25B 1_555 1_555
C1 C3 1_555 1_555
C8 C9 1_555 1_555
C15 C16 1_555 1_555
C22 C23 1_555 1_555
O4B B2B 1_555 1_555
C1B C3B 1_555 1_555
C1B C24B 1_555 1_555
C1B C25B 1_555 1_555
C8B C9B 1_555 1_555
C15B C16B 1_555 1_555
C21B C22B 1_555 1_555
C22B C23B 1_555 1_555

#END
