
#######################################################################
#
#                 Cambridge Crystallographic Data Centre
#                                CCDC 
#
#######################################################################
#
# If this CIF has been generated from an entry in the Cambridge 
# Structural Database, then it will include bibliographic, chemical, 
# crystal, experimental, refinement or atomic coordinate data resulting 
# from the CCDC's data processing and validation procedures.
#
#######################################################################

data_GIYBEV
_chemical_formula_moiety         'C10 H20 B1 F3 O1 S1 Si2'
_chemical_name_systematic        
2,5-bis(Trimethylsilyl)-1-(trifluoroboranyloxido)thiophene
_symmetry_cell_setting           monoclinic
_symmetry_space_group_name_H-M   'P 21/c'
_symmetry_Int_Tables_number      14
_space_group_name_Hall           '-P 2ybc'
loop_
_symmetry_equiv_pos_site_id
_symmetry_equiv_pos_as_xyz
1 x,y,z
2 -x,1/2+y,1/2-z
3 -x,-y,-z
4 x,1/2-y,1/2+z
_cell_length_a                   11.666(2)
_cell_length_b                   10.821(2)
_cell_length_c                   13.887(2)
_cell_angle_alpha                90
_cell_angle_beta                 106.71(1)
_cell_angle_gamma                90
_cell_volume                     1679.04
_exptl_crystal_colour            colorless
_exptl_crystal_description       block
_chemical_melting_point          96-98deg.C
_cell_formula_units_Z            4
loop_
_atom_site_label
_atom_site_type_symbol
_atom_site_fract_x
_atom_site_fract_y
_atom_site_fract_z
S1 S 0.8684(1) 0.2164(1) 0.3107(1)
Si1 Si 1.1381(2) 0.1165(2) 0.3841(1)
Si2 Si 0.6349(2) 0.3514(2) 0.3406(1)
F1 F 0.7020(6) 0.0983(6) 0.1409(4)
F2 F 0.7039(5) -0.0748(5) 0.2236(5)
F3 F 0.8614(5) -0.0152(5) 0.1782(4)
O1 O 0.8124(4) 0.0860(4) 0.3082(3)
C1 C 0.8002(5) 0.3142(5) 0.3804(4)
C2 C 0.8907(6) 0.3582(6) 0.4549(4)
C3 C 1.0069(5) 0.3035(6) 0.4654(4)
C4 C 1.0111(5) 0.2141(5) 0.3986(4)
C5 C 1.1443(6) 0.1366(7) 0.2546(5)
C6 C 1.1067(6) -0.0441(6) 0.4066(6)
C7 C 1.2742(6) 0.1708(8) 0.4781(6)
C8 C 0.6183(6) 0.4993(7) 0.3993(5)
C9 C 0.5837(6) 0.3629(8) 0.2039(5)
C10 C 0.5623(7) 0.2247(9) 0.3867(7)
B1 B 0.769(1) 0.019(1) 0.2104(8)
H1 H 0.8780 0.4306 0.5044
H2 H 1.0858 0.3324 0.5235
H3 H 1.2093 0.0873 0.2446
H4 H 1.0693 0.1102 0.2085
H5 H 1.1581 0.2231 0.2433
H6 H 1.1035 -0.0532 0.4752
H7 H 1.0305 -0.0680 0.3605
H8 H 1.1696 -0.0963 0.3960
H9 H 1.2646 0.1606 0.5448
H10 H 1.3421 0.1226 0.4726
H11 H 1.2869 0.2572 0.4664
H12 H 0.6488 0.4913 0.4717
H13 H 0.6632 0.5623 0.3761
H14 H 0.5345 0.5218 0.3810
H15 H 0.6244 0.4308 0.1826
H16 H 0.6015 0.2864 0.1751
H17 H 0.4981 0.3773 0.1829
H18 H 0.4769 0.2404 0.3680
H19 H 0.5781 0.1486 0.3567
H20 H 0.5938 0.2207 0.4590
loop_
_geom_bond_atom_site_label_1
_geom_bond_atom_site_label_2
_geom_bond_site_symmetry_1
_geom_bond_site_symmetry_2
S1 O1 1_555 1_555
Si1 C4 1_555 1_555
Si2 C1 1_555 1_555
F1 B1 1_555 1_555
F2 B1 1_555 1_555
F3 B1 1_555 1_555
O1 B1 1_555 1_555
C1 S1 1_555 1_555
C2 C1 1_555 1_555
C3 C2 1_555 1_555
C4 S1 1_555 1_555
C5 Si1 1_555 1_555
C6 Si1 1_555 1_555
C7 Si1 1_555 1_555
C8 Si2 1_555 1_555
C9 Si2 1_555 1_555
C10 Si2 1_555 1_555
H1 C2 1_555 1_555
H2 C3 1_555 1_555
H3 C5 1_555 1_555
H4 C5 1_555 1_555
H5 C5 1_555 1_555
H6 C6 1_555 1_555
H7 C6 1_555 1_555
H8 C6 1_555 1_555
H9 C7 1_555 1_555
H10 C7 1_555 1_555
H11 C7 1_555 1_555
H12 C8 1_555 1_555
H13 C8 1_555 1_555
H14 C8 1_555 1_555
H15 C9 1_555 1_555
H16 C9 1_555 1_555
H17 C9 1_555 1_555
H18 C10 1_555 1_555
H19 C10 1_555 1_555
H20 C10 1_555 1_555
C3 C4 1_555 1_555

#END
