
#######################################################################
#
#                 Cambridge Crystallographic Data Centre
#                                CCDC 
#
#######################################################################
#
# If this CIF has been generated from an entry in the Cambridge 
# Structural Database, then it will include bibliographic, chemical, 
# crystal, experimental, refinement or atomic coordinate data resulting 
# from the CCDC's data processing and validation procedures.
#
#######################################################################

data_GIYBUL
_chemical_formula_moiety         'C19 H26 O7'
_chemical_name_systematic        
(3aR*,6aR*,9aR*,9bR*)-Spiro((5',5'-dimethyl-1',3'-dioxane)2',6-(decahydro-9a-methoxycarbonyl-9-oxoazuleno(4,5-c)furan-1(3H)-one))
_symmetry_cell_setting           triclinic
_symmetry_space_group_name_H-M   'P -1'
_symmetry_Int_Tables_number      2
_space_group_name_Hall           '-P 1'
loop_
_symmetry_equiv_pos_site_id
_symmetry_equiv_pos_as_xyz
1 x,y,z
2 -x,-y,-z
_cell_length_a                   10.224(1)
_cell_length_b                   11.326(1)
_cell_length_c                   16.326(1)
_cell_angle_alpha                108.42(1)
_cell_angle_beta                 92.26(1)
_cell_angle_gamma                90.67(1)
_cell_volume                     1791.67
_exptl_crystal_colour            colorless
_exptl_crystal_description       prism
_cell_formula_units_Z            4
loop_
_atom_site_label
_atom_site_type_symbol
_atom_site_fract_x
_atom_site_fract_y
_atom_site_fract_z
O1 O 0.40679(15) 0.51783(13) 0.81603(10)
C1 C 0.41049(19) 0.44125(17) 0.85233(12)
O2 O 0.30079(14) 0.39907(14) 0.87744(10)
C2 C 0.32751(20) 0.30890(20) 0.92213(14)
H1 H 0.29971(20) 0.33997(20) 0.98040(14)
H2 H 0.28200(20) 0.23160(20) 0.89256(14)
C3 C 0.51470(20) 0.15543(17) 0.87697(12)
H3 H 0.60858(20) 0.15352(17) 0.87980(12)
H4 H 0.47977(20) 0.10499(17) 0.90880(12)
C4 C 0.46915(20) 0.09539(17) 0.78208(12)
H5 H 0.50817(20) 0.01523(17) 0.76195(12)
H6 H 0.37563(20) 0.08502(17) 0.78011(12)
C5 C 0.50222(18) 0.16576(16) 0.71901(11)
C6 C 0.68445(22) 0.27972(19) 0.66683(12)
H7 H 0.63726(22) 0.23665(19) 0.61351(12)
H8 H 0.77634(22) 0.26521(19) 0.66029(12)
C7 C 0.65931(26) 0.41844(20) 0.69243(13)
H9 H 0.57302(26) 0.43280(20) 0.67279(13)
H10 H 0.72292(26) 0.45986(20) 0.66864(13)
C8 C 0.67199(18) 0.46322(17) 0.78908(12)
O3 O 0.70547(15) 0.56509(12) 0.83603(10)
C9 C 0.64411(16) 0.35255(15) 0.82357(10)
C10 C 0.52973(17) 0.38800(15) 0.88487(11)
H11 H 0.57738(17) 0.45143(15) 0.92976(11)
C11 C 0.47644(19) 0.28935(17) 0.92237(11)
H12 H 0.51500(19) 0.30069(17) 0.97899(11)
C12 C 0.63540(17) 0.23452(16) 0.74064(11)
H13 H 0.68880(17) 0.17065(16) 0.75038(11)
O4 O 0.41028(13) 0.25707(12) 0.71674(8)
C13 C 0.28217(20) 0.20974(20) 0.68161(13)
H14 H 0.24417(20) 0.16712(20) 0.71757(13)
H15 H 0.22819(20) 0.27785(20) 0.68004(13)
C14 C 0.29061(23) 0.11923(21) 0.58998(14)
C15 C 0.38883(22) 0.02232(19) 0.59678(13)
H16 H 0.40179(22) -0.03383(19) 0.53995(13)
H17 H 0.35438(22) -0.02315(19) 0.63211(13)
O5 O 0.51218(14) 0.07853(12) 0.63431(8)
C16 C 0.76769(18) 0.34677(16) 0.87760(11)
O6 O 0.77123(15) 0.35663(16) 0.95315(9)
O7 O 0.87204(13) 0.33381(13) 0.83007(9)
C17 C 0.99696(20) 0.32490(22) 0.87204(16)
H18 H 1.06480(20) 0.31585(22) 0.83164(16)
H19 H 0.99511(20) 0.25392(22) 0.89216(16)
H20 H 1.01396(20) 0.39902(22) 0.92019(16)
C18 C 0.33447(28) 0.18574(26) 0.52834(15)
H21 H 0.27104(28) 0.24618(26) 0.52521(15)
H22 H 0.34251(28) 0.12641(26) 0.47198(15)
H23 H 0.41766(28) 0.22688(26) 0.54872(15)
C19 C 0.15586(27) 0.05557(28) 0.56012(20)
H24 H 0.16008(27) -0.00152(28) 0.50262(20)
H25 H 0.09224(27) 0.11740(28) 0.56052(20)
H26 H 0.13100(27) 0.01103(28) 0.59853(20)
O8 O -0.14320(14) -1.01916(13) -0.80831(9)
C20 C -0.14395(18) -0.94500(16) -0.84722(12)
O9 O -0.25681(13) -0.90499(13) -0.87253(9)
C21 C -0.23342(20) -0.81970(20) -0.92154(14)
H27 H -0.26871(20) -0.85530(20) -0.97969(14)
H28 H -0.27437(20) -0.74196(20) -0.89474(14)
C22 C -0.03863(20) -0.66370(16) -0.87901(11)
H29 H 0.05492(20) -0.66151(16) -0.88196(11)
H30 H -0.07677(20) -0.61520(16) -0.91210(11)
C23 C -0.07056(21) -0.60052(17) -0.78464(12)
H31 H -0.02779(21) -0.51993(17) -0.76601(12)
H32 H -0.16367(21) -0.59100(17) -0.78268(12)
C24 C -0.02948(18) -0.66778(16) -0.71958(10)
C25 C 0.15767(22) -0.77735(20) -0.66551(12)
H33 H 0.11749(22) -0.73390(20) -0.61258(12)
H34 H 0.25046(22) -0.76088(20) -0.65887(12)
C26 C 0.12914(25) -0.91609(21) -0.68922(13)
H35 H 0.04540(25) -0.93145(21) -0.66942(13)
H36 H 0.19585(25) -0.95508(21) -0.66447(13)
C27 C 0.12895(18) -0.96366(17) -0.78564(12)
O10 O 0.15601(15) -1.06540(12) -0.83113(10)
C28 C 0.09498(16) -0.85557(15) -0.82199(10)
C29 C -0.02848(17) -0.89444(15) -0.88229(10)
H37 H 0.01124(17) -0.95975(15) -0.92624(10)
C30 C -0.08534(19) -0.79847(17) -0.92219(11)
H38 H -0.05478(19) -0.81114(17) -0.97911(11)
C31 C 0.09912(17) -0.73550(16) -0.74052(11)
H39 H 0.15192(17) -0.67208(16) -0.75164(11)
O11 O -0.12286(13) -0.75807(11) -0.71513(8)
C32 C -0.24563(20) -0.71032(20) -0.68091(14)
H40 H -0.28728(20) -0.66986(20) -0.71818(14)
H41 H -0.30077(20) -0.77795(20) -0.67802(14)
C33 C -0.22399(24) -0.61669(21) -0.59032(14)
C34 C -0.12416(23) -0.52021(19) -0.59827(14)
H42 H -0.10229(23) -0.46316(19) -0.54178(14)
H43 H -0.16202(23) -0.47562(19) -0.63415(14)
O12 O -0.00721(14) -0.57748(12) -0.63567(8)
C35 C 0.21063(18) -0.85112(16) -0.87787(12)
O13 O 0.20450(15) -0.86809(15) -0.95425(9)
O14 O 0.32157(13) -0.83111(14) -0.82979(9)
C36 C 0.44026(20) -0.82155(21) -0.87209(17)
H44 H 0.51337(20) -0.80718(21) -0.83112(17)
H45 H 0.43465(20) -0.75354(21) -0.89518(17)
H46 H 0.45195(20) -0.89756(21) -0.91818(17)
C37 C -0.17184(29) -0.68158(25) -0.52685(15)
H47 H -0.09091(29) -0.72060(25) -0.54633(15)
H48 H -0.23470(29) -0.74352(25) -0.52383(15)
H49 H -0.15725(29) -0.62132(25) -0.47063(15)
C38 C -0.35293(29) -0.55411(29) -0.56001(21)
H50 H -0.33924(29) -0.49534(29) -0.50314(21)
H51 H -0.41692(29) -0.61611(29) -0.55867(21)
H52 H -0.38360(29) -0.51160(29) -0.59918(21)
loop_
_geom_bond_atom_site_label_1
_geom_bond_atom_site_label_2
_geom_bond_site_symmetry_1
_geom_bond_site_symmetry_2
O1 C1 1_555 1_555
C1 O2 1_555 1_555
O2 C2 1_555 1_555
C2 H1 1_555 1_555
H2 C2 1_555 1_555
C3 H3 1_555 1_555
H4 C3 1_555 1_555
C4 C3 1_555 1_555
H5 C4 1_555 1_555
H6 C4 1_555 1_555
C5 C4 1_555 1_555
C6 H7 1_555 1_555
H8 C6 1_555 1_555
C7 C6 1_555 1_555
H9 C7 1_555 1_555
H10 C7 1_555 1_555
C8 C7 1_555 1_555
O3 C8 1_555 1_555
C9 C8 1_555 1_555
C10 C1 1_555 1_555
H11 C10 1_555 1_555
C11 C2 1_555 1_555
H12 C11 1_555 1_555
C12 C5 1_555 1_555
H13 C12 1_555 1_555
O4 C5 1_555 1_555
C13 O4 1_555 1_555
H14 C13 1_555 1_555
H15 C13 1_555 1_555
C14 C13 1_555 1_555
C15 C14 1_555 1_555
H16 C15 1_555 1_555
H17 C15 1_555 1_555
O5 C5 1_555 1_555
C16 C9 1_555 1_555
O6 C16 1_555 1_555
O7 C16 1_555 1_555
C17 O7 1_555 1_555
H18 C17 1_555 1_555
H19 C17 1_555 1_555
H20 C17 1_555 1_555
C18 C14 1_555 1_555
H21 C18 1_555 1_555
H22 C18 1_555 1_555
H23 C18 1_555 1_555
C19 C14 1_555 1_555
H24 C19 1_555 1_555
H25 C19 1_555 1_555
H26 C19 1_555 1_555
O8 C20 1_555 1_555
C20 O9 1_555 1_555
O9 C21 1_555 1_555
C21 H27 1_555 1_555
H28 C21 1_555 1_555
C22 H29 1_555 1_555
H30 C22 1_555 1_555
C23 C22 1_555 1_555
H31 C23 1_555 1_555
H32 C23 1_555 1_555
C24 C23 1_555 1_555
C25 H33 1_555 1_555
H34 C25 1_555 1_555
C26 C25 1_555 1_555
H35 C26 1_555 1_555
H36 C26 1_555 1_555
C27 C26 1_555 1_555
O10 C27 1_555 1_555
C28 C27 1_555 1_555
C29 C20 1_555 1_555
H37 C29 1_555 1_555
C30 C21 1_555 1_555
H38 C30 1_555 1_555
C31 C24 1_555 1_555
H39 C31 1_555 1_555
O11 C24 1_555 1_555
C32 O11 1_555 1_555
H40 C32 1_555 1_555
H41 C32 1_555 1_555
C33 C32 1_555 1_555
C34 C33 1_555 1_555
H42 C34 1_555 1_555
H43 C34 1_555 1_555
O12 C24 1_555 1_555
C35 C28 1_555 1_555
O13 C35 1_555 1_555
O14 C35 1_555 1_555
C36 O14 1_555 1_555
H44 C36 1_555 1_555
H45 C36 1_555 1_555
H46 C36 1_555 1_555
C37 C33 1_555 1_555
H47 C37 1_555 1_555
H48 C37 1_555 1_555
H49 C37 1_555 1_555
C38 C33 1_555 1_555
H50 C38 1_555 1_555
H51 C38 1_555 1_555
H52 C38 1_555 1_555
C3 C11 1_555 1_555
C6 C12 1_555 1_555
C9 C10 1_555 1_555
C9 C12 1_555 1_555
C10 C11 1_555 1_555
C15 O5 1_555 1_555
C22 C30 1_555 1_555
C25 C31 1_555 1_555
C28 C29 1_555 1_555
C28 C31 1_555 1_555
C29 C30 1_555 1_555
C34 O12 1_555 1_555

#END
