
#######################################################################
#
#                 Cambridge Crystallographic Data Centre
#                                CCDC 
#
#######################################################################
#
# If this CIF has been generated from an entry in the Cambridge 
# Structural Database, then it will include bibliographic, chemical, 
# crystal, experimental, refinement or atomic coordinate data resulting 
# from the CCDC's data processing and validation procedures.
#
#######################################################################

data_GIYCOI
_chemical_formula_moiety         'C15 H26 N1 P1'
_chemical_name_systematic        
2-((di-t-butylphosphino)methyl)-3-methylpyridine
_symmetry_cell_setting           orthorhombic
_symmetry_space_group_name_H-M   'A b a 2'
_symmetry_Int_Tables_number      41
_space_group_name_Hall           'A 2 -2ab'
loop_
_symmetry_equiv_pos_site_id
_symmetry_equiv_pos_as_xyz
1 x,y,z
2 -x,-y,z
3 1/2-x,1/2+y,z
4 1/2+x,1/2-y,z
5 x,1/2+y,1/2+z
6 -x,1/2-y,1/2+z
7 1/2-x,y,1/2+z
8 1/2+x,-y,1/2+z
_cell_length_a                   21.6794(5)
_cell_length_b                   15.0690(3)
_cell_length_c                   9.5202(2)
_cell_angle_alpha                90
_cell_angle_beta                 90
_cell_angle_gamma                90
_cell_volume                     3110.12
_exptl_crystal_colour            'pale yellow'
_exptl_crystal_description       prism
_cell_formula_units_Z            8
loop_
_atom_site_label
_atom_site_type_symbol
_atom_site_fract_x
_atom_site_fract_y
_atom_site_fract_z
C1 C 0.42335(7) 0.96595(9) 0.20606(15)
H1 H 0.4407 1.0264 0.1958
H2 H 0.4436 0.9383 0.2884
C2 C 0.44072(6) 0.91329(9) 0.07790(16)
C3 C 0.42707(7) 0.94180(10) -0.05903(16)
C4 C 0.44586(8) 0.88803(12) -0.16951(18)
H3 H 0.4369 0.9049 -0.2635
C5 C 0.47766(8) 0.80988(11) -0.1435(2)
H4 H 0.4904 0.7723 -0.2182
C6 C 0.48999(8) 0.78881(10) -0.0064(2)
H5 H 0.5122 0.7357 0.0118
C7 C 0.39512(8) 1.02854(11) -0.08659(19)
H6 H 0.3876 1.0349 -0.1876
H7 H 0.4212 1.0775 -0.0540
H8 H 0.3557 1.0298 -0.0362
C8 C 0.34307(7) 1.07832(10) 0.36263(19)
C9 C 0.39708(9) 1.08366(12) 0.4658(2)
H9 H 0.3955 1.1403 0.5162
H10 H 0.4360 1.0794 0.4141
H11 H 0.3943 1.0347 0.5333
C10 C 0.28228(9) 1.08878(12) 0.4426(2)
H12 H 0.2801 1.0443 0.5175
H13 H 0.2476 1.0805 0.3778
H14 H 0.2802 1.1483 0.4838
C11 C 0.34826(8) 1.15701(10) 0.2596(3)
H15 H 0.3473 1.2129 0.3122
H16 H 0.3136 1.1554 0.1935
H17 H 0.3871 1.1527 0.2075
C12 C 0.32142(7) 0.87478(9) 0.35326(17)
C13 C 0.33913(9) 0.79528(10) 0.2607(2)
H18 H 0.3842 0.7906 0.2556
H19 H 0.3224 0.8037 0.1660
H20 H 0.3221 0.7408 0.3014
C14 C 0.35444(9) 0.86629(12) 0.4945(2)
H21 H 0.3393 0.9122 0.5588
H22 H 0.3989 0.8737 0.4807
H23 H 0.3462 0.8076 0.5346
C15 C 0.25159(8) 0.87135(11) 0.3774(2)
H24 H 0.2406 0.8146 0.4210
H25 H 0.2302 0.8772 0.2872
H26 H 0.2393 0.9201 0.4396
N1 N 0.47277(6) 0.83824(8) 0.10336(14)
P1 P 0.339184(14) 0.97685(2) 0.24538(4)
loop_
_geom_bond_atom_site_label_1
_geom_bond_atom_site_label_2
_geom_bond_site_symmetry_1
_geom_bond_site_symmetry_2
C1 H1 1_555 1_555
H2 C1 1_555 1_555
C2 C1 1_555 1_555
C3 C2 1_555 1_555
C4 C3 1_555 1_555
H3 C4 1_555 1_555
C5 C4 1_555 1_555
H4 C5 1_555 1_555
C6 C5 1_555 1_555
H5 C6 1_555 1_555
C7 C3 1_555 1_555
H6 C7 1_555 1_555
H7 C7 1_555 1_555
H8 C7 1_555 1_555
C8 C9 1_555 1_555
C9 H9 1_555 1_555
H10 C9 1_555 1_555
H11 C9 1_555 1_555
C10 C8 1_555 1_555
H12 C10 1_555 1_555
H13 C10 1_555 1_555
H14 C10 1_555 1_555
C11 C8 1_555 1_555
H15 C11 1_555 1_555
H16 C11 1_555 1_555
H17 C11 1_555 1_555
C12 C13 1_555 1_555
C13 H18 1_555 1_555
H19 C13 1_555 1_555
H20 C13 1_555 1_555
C14 C12 1_555 1_555
H21 C14 1_555 1_555
H22 C14 1_555 1_555
H23 C14 1_555 1_555
C15 C12 1_555 1_555
H24 C15 1_555 1_555
H25 C15 1_555 1_555
H26 C15 1_555 1_555
N1 C2 1_555 1_555
P1 C1 1_555 1_555
C6 N1 1_555 1_555
C8 P1 1_555 1_555
C12 P1 1_555 1_555

#END
