
#######################################################################
#
#                 Cambridge Crystallographic Data Centre
#                                CCDC 
#
#######################################################################
#
# If this CIF has been generated from an entry in the Cambridge 
# Structural Database, then it will include bibliographic, chemical, 
# crystal, experimental, refinement or atomic coordinate data resulting 
# from the CCDC's data processing and validation procedures.
#
#######################################################################

data_GIYDAV
_chemical_formula_moiety         'C31 H27 N1 P2'
_chemical_name_systematic        
2-(bis(diphenylphosphino)methyl)-3-methylpyridine
_symmetry_cell_setting           monoclinic
_symmetry_space_group_name_H-M   'P 21/c'
_symmetry_Int_Tables_number      14
_space_group_name_Hall           '-P 2ybc'
loop_
_symmetry_equiv_pos_site_id
_symmetry_equiv_pos_as_xyz
1 x,y,z
2 -x,1/2+y,1/2-z
3 -x,-y,-z
4 x,1/2-y,1/2+z
_cell_length_a                   7.8660(2)
_cell_length_b                   22.4909(5)
_cell_length_c                   14.3707(4)
_cell_angle_alpha                90
_cell_angle_beta                 98.184(2)
_cell_angle_gamma                90
_cell_volume                     2516.48
_exptl_crystal_colour            colorless
_exptl_crystal_description       prism
_cell_formula_units_Z            4
loop_
_atom_site_label
_atom_site_type_symbol
_atom_site_fract_x
_atom_site_fract_y
_atom_site_fract_z
C1 C 0.15562(13) 0.36996(5) 0.24184(7)
H1 H 0.0453 0.3636 0.2645
C2 C 0.29954(14) 0.34301(5) 0.30916(7)
C3 C 0.59071(15) 0.33042(6) 0.34541(9)
H2 H 0.7010 0.3391 0.3332
C4 C 0.57299(17) 0.29203(6) 0.41791(9)
H3 H 0.6686 0.2750 0.4536
C5 C 0.40939(17) 0.27955(6) 0.43617(9)
H4 H 0.3939 0.2541 0.4853
C6 C 0.26738(15) 0.30468(5) 0.38173(8)
C7 C 0.08916(17) 0.28966(6) 0.40038(9)
H5 H 0.0958 0.2630 0.4530
H6 H 0.0269 0.2709 0.3459
H7 H 0.0309 0.3254 0.4142
C8 C -0.03421(14) 0.47567(5) 0.19269(7)
C9 C -0.07763(15) 0.50758(5) 0.11001(8)
H8 H 0.0077 0.5181 0.0745
C10 C -0.24697(17) 0.52398(6) 0.07961(9)
H9 H -0.2745 0.5453 0.0241
C11 C -0.37406(16) 0.50843(6) 0.13213(9)
H10 H -0.4879 0.5181 0.1109
C12 C -0.33199(15) 0.47838(5) 0.21636(9)
H11 H -0.4173 0.4688 0.2525
C13 C -0.16339(14) 0.46264(5) 0.24679(8)
H12 H -0.1357 0.4431 0.3040
C14 C 0.23883(14) 0.48209(5) 0.34090(8)
C15 C 0.32977(15) 0.53543(5) 0.34805(9)
H13 H 0.3667 0.5515 0.2948
C16 C 0.36624(17) 0.56496(6) 0.43326(10)
H14 H 0.4257 0.6008 0.4368
C17 C 0.31357(17) 0.54076(6) 0.51301(9)
H15 H 0.3380 0.5603 0.5704
C18 C 0.22491(17) 0.48768(6) 0.50761(9)
H16 H 0.1901 0.4715 0.5614
C19 C 0.18760(15) 0.45840(6) 0.42220(8)
H17 H 0.1278 0.4226 0.4191
C20 C -0.05997(14) 0.34531(5) 0.06330(8)
C21 C -0.07504(17) 0.35397(5) -0.03347(8)
H18 H 0.0230 0.3542 -0.0628
C22 C -0.23531(19) 0.36235(6) -0.08665(10)
H19 H -0.2440 0.3675 -0.1514
C23 C -0.38113(18) 0.36309(6) -0.04377(11)
H20 H -0.4881 0.3685 -0.0796
C24 C -0.36878(17) 0.35585(6) 0.05223(11)
H21 H -0.4670 0.3572 0.0814
C25 C -0.20965(15) 0.34662(6) 0.10508(9)
H22 H -0.2023 0.3412 0.1697
C26 C 0.14767(16) 0.25331(5) 0.15846(8)
C27 C 0.30518(19) 0.22523(6) 0.18613(10)
H23 H 0.4066 0.2467 0.1873
C28 C 0.3120(3) 0.16578(7) 0.21192(11)
H24 H 0.4177 0.1478 0.2311
C29 C 0.1630(3) 0.13306(7) 0.20924(11)
H25 H 0.1679 0.0933 0.2272
C30 C 0.0076(3) 0.15963(7) 0.17984(12)
H26 H -0.0928 0.1375 0.1766
C31 C -0.0011(2) 0.21950(6) 0.15474(10)
H27 H -0.1074 0.2370 0.1353
N1 N 0.45792(12) 0.35591(4) 0.29147(7)
P1 P 0.19013(3) 0.451320(13) 0.221885(19)
P2 P 0.15663(4) 0.332148(13) 0.124568(19)
loop_
_geom_bond_atom_site_label_1
_geom_bond_atom_site_label_2
_geom_bond_site_symmetry_1
_geom_bond_site_symmetry_2
C1 H1 1_555 1_555
C2 C1 1_555 1_555
C3 H2 1_555 1_555
C4 C3 1_555 1_555
H3 C4 1_555 1_555
C5 C4 1_555 1_555
H4 C5 1_555 1_555
C6 C2 1_555 1_555
C7 C6 1_555 1_555
H5 C7 1_555 1_555
H6 C7 1_555 1_555
H7 C7 1_555 1_555
C8 C9 1_555 1_555
C9 H8 1_555 1_555
C10 C9 1_555 1_555
H9 C10 1_555 1_555
C11 C10 1_555 1_555
H10 C11 1_555 1_555
C12 C11 1_555 1_555
H11 C12 1_555 1_555
C13 C8 1_555 1_555
H12 C13 1_555 1_555
C14 C15 1_555 1_555
C15 H13 1_555 1_555
C16 C15 1_555 1_555
H14 C16 1_555 1_555
C17 C16 1_555 1_555
H15 C17 1_555 1_555
C18 C17 1_555 1_555
H16 C18 1_555 1_555
C19 C14 1_555 1_555
H17 C19 1_555 1_555
C20 C21 1_555 1_555
C21 H18 1_555 1_555
C22 C21 1_555 1_555
H19 C22 1_555 1_555
C23 C22 1_555 1_555
H20 C23 1_555 1_555
C24 C23 1_555 1_555
H21 C24 1_555 1_555
C25 C20 1_555 1_555
H22 C25 1_555 1_555
C26 C27 1_555 1_555
C27 H23 1_555 1_555
C28 C27 1_555 1_555
H24 C28 1_555 1_555
C29 C28 1_555 1_555
H25 C29 1_555 1_555
C30 C29 1_555 1_555
H26 C30 1_555 1_555
C31 C26 1_555 1_555
H27 C31 1_555 1_555
N1 C2 1_555 1_555
P1 C1 1_555 1_555
P2 C1 1_555 1_555
C3 N1 1_555 1_555
C5 C6 1_555 1_555
C8 P1 1_555 1_555
C12 C13 1_555 1_555
C14 P1 1_555 1_555
C18 C19 1_555 1_555
C20 P2 1_555 1_555
C24 C25 1_555 1_555
C26 P2 1_555 1_555
C30 C31 1_555 1_555

#END
