
#######################################################################
#
#                 Cambridge Crystallographic Data Centre
#                                CCDC 
#
#######################################################################
#
# If this CIF has been generated from an entry in the Cambridge 
# Structural Database, then it will include bibliographic, chemical, 
# crystal, experimental, refinement or atomic coordinate data resulting 
# from the CCDC's data processing and validation procedures.
#
#######################################################################

data_GIYDEZ
_chemical_name_common            'Diglycine methanesulfonate'
_chemical_formula_moiety         'C2 H6 N1 O2 1+,C2 H5 N1 O2,C1 H3 O3 S1 1-'
_chemical_name_systematic        
'carboxymethanaminium methanesulfonate ammonioacetate'
_symmetry_cell_setting           monoclinic
_symmetry_space_group_name_H-M   'P 21/c'
_symmetry_Int_Tables_number      14
_space_group_name_Hall           '-P 2ybc'
loop_
_symmetry_equiv_pos_site_id
_symmetry_equiv_pos_as_xyz
1 x,y,z
2 -x,1/2+y,1/2-z
3 -x,-y,-z
4 x,1/2-y,1/2+z
_cell_length_a                   14.4791(6)
_cell_length_b                   6.3108(2)
_cell_length_c                   11.3899(5)
_cell_angle_alpha                90
_cell_angle_beta                 99.721(4)
_cell_angle_gamma                90
_cell_volume                     1025.81
_cell_formula_units_Z            4
loop_
_atom_site_label
_atom_site_type_symbol
_atom_site_fract_x
_atom_site_fract_y
_atom_site_fract_z
S1 S 0.89156(3) 0.25341(5) 0.29451(3)
O1 O 0.82506(8) 0.42611(17) 0.30083(10)
C1 C 0.92284(12) 0.2678(2) 0.15202(15)
H1 H 0.9555 0.4017 0.1441
H2 H 0.8662 0.2607 0.0913
H3 H 0.9642 0.1490 0.1413
O2 O 0.97674(8) 0.27900(18) 0.38153(11)
O3 O 0.84772(8) 0.04698(17) 0.30149(10)
O4 O 0.33794(9) 0.26132(17) 1.12026(11)
C2 C 0.22403(12) 0.2412(2) 0.94227(16)
H4 H 0.2139 0.3668 0.8896
H5 H 0.2159 0.1129 0.8915
O5 O 0.38455(8) 0.23271(17) 0.94295(11)
C3 C 0.32186(12) 0.2459(2) 1.01220(16)
N1 N 0.15422(10) 0.24019(18) 1.02341(13)
H6 H 0.1640 0.1255 1.0723
H7 H 0.0955 0.2338 0.9798
H8 H 0.1602 0.3607 1.0679
H9 H 0.4432 0.2407 0.9892
N2 N 0.64688(10) 0.1929(3) 0.27595(13)
H10 H 0.6947 0.2871 0.2947
H11 H 0.6225 0.2043 0.1972
H12 H 0.6688 0.0590 0.2918
O6 O 0.55127(9) 0.25094(16) 0.54840(11)
C4 C 0.57350(13) 0.2388(3) 0.34736(16)
H13 H 0.5238 0.1297 0.3313
H14 H 0.5448 0.3780 0.3234
O7 O 0.69799(9) 0.23946(17) 0.51335(11)
C5 C 0.61285(12) 0.2420(2) 0.48009(16)
loop_
_geom_bond_atom_site_label_1
_geom_bond_atom_site_label_2
_geom_bond_site_symmetry_1
_geom_bond_site_symmetry_2
S1 O1 1_555 1_555
C1 S1 1_555 1_555
H1 C1 1_555 1_555
H2 C1 1_555 1_555
H3 C1 1_555 1_555
O2 S1 1_555 1_555
O3 S1 1_555 1_555
O4 C3 1_555 1_555
C2 H4 1_555 1_555
H5 C2 1_555 1_555
O5 C3 1_555 1_555
C3 C2 1_555 1_555
N1 C2 1_555 1_555
H6 N1 1_555 1_555
H7 N1 1_555 1_555
H8 N1 1_555 1_555
H9 O5 1_555 1_555
N2 H10 1_555 1_555
H11 N2 1_555 1_555
H12 N2 1_555 1_555
O6 C5 1_555 1_555
C4 N2 1_555 1_555
H13 C4 1_555 1_555
H14 C4 1_555 1_555
O7 C5 1_555 1_555
C5 C4 1_555 1_555

#END
