
#######################################################################
#
#                 Cambridge Crystallographic Data Centre
#                                CCDC 
#
#######################################################################
#
# If this CIF has been generated from an entry in the Cambridge 
# Structural Database, then it will include bibliographic, chemical, 
# crystal, experimental, refinement or atomic coordinate data resulting 
# from the CCDC's data processing and validation procedures.
#
#######################################################################

data_GIYGUR
_chemical_formula_moiety         'C10 H11 Cl1 N2 O2 S1'
_chemical_name_systematic        N-Ethoxycarbonyl-N'-p-chlorophenylthiourea
_symmetry_cell_setting           triclinic
_symmetry_space_group_name_H-M   'P -1'
_symmetry_Int_Tables_number      2
_space_group_name_Hall           '-P 1'
loop_
_symmetry_equiv_pos_site_id
_symmetry_equiv_pos_as_xyz
1 x,y,z
2 -x,-y,-z
_cell_length_a                   7.3721(9)
_cell_length_b                   7.3909(10)
_cell_length_c                   11.5740(14)
_cell_angle_alpha                79.584(5)
_cell_angle_beta                 77.951(6)
_cell_angle_gamma                79.682(5)
_cell_volume                     599.983
_exptl_crystal_colour            colorless
_exptl_crystal_description       block
_chemical_melting_point          120-122deg.C
_cell_formula_units_Z            2
_exptl_crystal_recrystallization_method chloroform
loop_
_atom_site_label
_atom_site_type_symbol
_atom_site_fract_x
_atom_site_fract_y
_atom_site_fract_z
S1 S 0.33434(8) 1.14395(7) 0.64468(4)
Cl1 Cl -0.02791(8) 1.32765(9) 1.22417(5)
C1 C 0.3042(2) 1.0165(3) 0.93066(16)
C2 C 0.1064(3) 1.2059(3) 1.11190(17)
C3 C 0.2947(3) 1.2064(3) 0.91788(18)
C4 C 0.1194(3) 1.0167(3) 1.12748(18)
C5 C 0.2203(3) 0.9205(3) 1.03760(17)
C6 C 0.1949(3) 1.3014(3) 1.00893(18)
N1 N 0.4051(2) 0.9073(2) 0.84169(14)
C7 C 0.4240(2) 0.9487(3) 0.72297(16)
C8 C 0.5956(3) 0.6306(3) 0.70578(17)
C9 C 0.7743(3) 0.3518(3) 0.64961(19)
H1 H 0.6817 0.2808 0.7009
H2 H 0.8748 0.3498 0.6924
C10 C 0.8495(3) 0.2704(3) 0.5373(2)
H3 H 0.7497 0.2774 0.4943
H4 H 0.9027 0.1427 0.5565
H5 H 0.9446 0.3387 0.4888
O1 O 0.6890(2) 0.54256(18) 0.61582(11)
O2 O 0.5728(2) 0.56339(18) 0.81010(12)
N2 N 0.5292(2) 0.8093(2) 0.66090(15)
H6 H 0.191(3) 1.423(3) 0.9997(18)
H7 H 0.353(3) 1.274(3) 0.8477(19)
H8 H 0.229(2) 0.794(3) 1.0461(17)
H9 H 0.061(3) 0.958(3) 1.1930(19)
H10 H 0.451(3) 0.793(3) 0.8672(18)
H11 H 0.557(3) 0.834(3) 0.590(2)
loop_
_geom_bond_atom_site_label_1
_geom_bond_atom_site_label_2
_geom_bond_site_symmetry_1
_geom_bond_site_symmetry_2
S1 C7 1_555 1_555
Cl1 C2 1_555 1_555
C1 C3 1_555 1_555
C2 C4 1_555 1_555
C3 C6 1_555 1_555
C4 C5 1_555 1_555
C5 C1 1_555 1_555
C6 C2 1_555 1_555
N1 C1 1_555 1_555
C7 N1 1_555 1_555
C8 O1 1_555 1_555
C9 H1 1_555 1_555
H2 C9 1_555 1_555
C10 C9 1_555 1_555
H3 C10 1_555 1_555
H4 C10 1_555 1_555
H5 C10 1_555 1_555
O1 C9 1_555 1_555
O2 C8 1_555 1_555
N2 C7 1_555 1_555
H6 C6 1_555 1_555
H7 C3 1_555 1_555
H8 C5 1_555 1_555
H9 C4 1_555 1_555
H10 N1 1_555 1_555
H11 N2 1_555 1_555
C8 N2 1_555 1_555

#END
