
#######################################################################
#
#                 Cambridge Crystallographic Data Centre
#                                CCDC 
#
#######################################################################
#
# If this CIF has been generated from an entry in the Cambridge 
# Structural Database, then it will include bibliographic, chemical, 
# crystal, experimental, refinement or atomic coordinate data resulting 
# from the CCDC's data processing and validation procedures.
#
#######################################################################

data_GIYJII
_chemical_formula_moiety         'C22 H11 Cl2 F3 N4'
_chemical_name_systematic        
1-(2,6-Dichloro-4-(trifluoromethyl)phenyl)-5-((naphthalen-1-ylmethylene)amino)-1H-pyrazole-3-carbonitrile
_symmetry_cell_setting           monoclinic
_symmetry_space_group_name_H-M   'P 21/c'
_symmetry_Int_Tables_number      14
_space_group_name_Hall           '-P 2ybc'
loop_
_symmetry_equiv_pos_site_id
_symmetry_equiv_pos_as_xyz
1 x,y,z
2 -x,1/2+y,1/2-z
3 -x,-y,-z
4 x,1/2-y,1/2+z
_cell_length_a                   9.433(3)
_cell_length_b                   22.150(8)
_cell_length_c                   10.728(4)
_cell_angle_alpha                90
_cell_angle_beta                 111.643(7)
_cell_angle_gamma                90
_cell_volume                     2083.49
_exptl_crystal_colour            colorless
_exptl_crystal_description       block
_cell_formula_units_Z            4
_exptl_crystal_recrystallization_method methanol
loop_
_atom_site_label
_atom_site_type_symbol
_atom_site_fract_x
_atom_site_fract_y
_atom_site_fract_z
Cl1 Cl 0.4192(2) 0.42425(8) -0.0293(2)
Cl2 Cl 0.8430(2) 0.26406(11) 0.2513(3)
F1 F 0.3108(8) 0.1884(3) 0.2388(9)
F2 F 0.2807(12) 0.2631(3) 0.3295(10)
F3 F 0.1521(8) 0.2506(6) 0.1344(11)
N1 N 0.7300(5) 0.3716(2) 0.0804(5)
N2 N 0.7695(6) 0.3544(2) -0.0231(5)
N3 N 1.0166(8) 0.3891(3) -0.1832(7)
N4 N 0.7733(6) 0.4398(2) 0.2561(5)
C1 C 0.2846(11) 0.2451(4) 0.2175(10)
C2 C 0.4013(7) 0.2783(3) 0.1800(6)
C3 C 0.5488(8) 0.2582(3) 0.2277(7)
H1 H 0.5763 0.2244 0.2829
C4 C 0.6558(7) 0.2886(3) 0.1932(7)
C5 C 0.6175(7) 0.3394(2) 0.1119(5)
C6 C 0.4686(7) 0.3592(3) 0.0673(6)
C7 C 0.3598(7) 0.3288(3) 0.0991(6)
H2 H 0.2592 0.3421 0.0666
C8 C 0.8765(7) 0.3945(3) -0.0189(5)
C9 C 0.9053(7) 0.4367(3) 0.0853(6)
H3 H 0.9754 0.4682 0.1070
C10 C 0.8080(7) 0.4214(2) 0.1473(6)
C11 C 0.9518(7) 0.3908(3) -0.1127(6)
C12 C 0.8290(6) 0.4885(2) 0.3156(6)
H4 H 0.8913 0.5107 0.2827
C13 C 0.8026(7) 0.5123(3) 0.4316(6)
C14 C 0.7326(7) 0.4797(3) 0.5100(6)
C15 C 0.6874(9) 0.4183(3) 0.4888(7)
H5 H 0.7055 0.3965 0.4221
C16 C 0.6176(10) 0.3906(4) 0.5649(8)
H6 H 0.5884 0.3504 0.5491
C17 C 0.5898(10) 0.4221(5) 0.6657(8)
H7 H 0.5409 0.4031 0.7160
C18 C 0.6339(9) 0.4802(5) 0.6905(7)
H8 H 0.6155 0.5007 0.7587
C19 C 0.7072(8) 0.5107(4) 0.6153(6)
C20 C 0.7533(10) 0.5716(4) 0.6407(7)
H9 H 0.7342 0.5921 0.7086
C21 C 0.8242(9) 0.6011(4) 0.5697(8)
H10 H 0.8562 0.6408 0.5907
C22 C 0.8491(8) 0.5715(3) 0.4649(7)
H11 H 0.8978 0.5919 0.4162
loop_
_geom_bond_atom_site_label_1
_geom_bond_atom_site_label_2
_geom_bond_site_symmetry_1
_geom_bond_site_symmetry_2
Cl1 C6 1_555 1_555
Cl2 C4 1_555 1_555
F1 C1 1_555 1_555
F2 C1 1_555 1_555
F3 C1 1_555 1_555
N1 N2 1_555 1_555
N2 C8 1_555 1_555
N3 C11 1_555 1_555
N4 C10 1_555 1_555
C1 C2 1_555 1_555
C2 C3 1_555 1_555
C3 H1 1_555 1_555
C4 C3 1_555 1_555
C5 N1 1_555 1_555
C6 C5 1_555 1_555
C7 C2 1_555 1_555
H2 C7 1_555 1_555
C8 C9 1_555 1_555
C9 H3 1_555 1_555
C10 N1 1_555 1_555
C11 C8 1_555 1_555
C12 N4 1_555 1_555
H4 C12 1_555 1_555
C13 C12 1_555 1_555
C14 C13 1_555 1_555
C15 C14 1_555 1_555
H5 C15 1_555 1_555
C16 C15 1_555 1_555
H6 C16 1_555 1_555
C17 C16 1_555 1_555
H7 C17 1_555 1_555
C18 C17 1_555 1_555
H8 C18 1_555 1_555
C19 C14 1_555 1_555
C20 C19 1_555 1_555
H9 C20 1_555 1_555
C21 C20 1_555 1_555
H10 C21 1_555 1_555
C22 C13 1_555 1_555
H11 C22 1_555 1_555
C4 C5 1_555 1_555
C6 C7 1_555 1_555
C9 C10 1_555 1_555
C18 C19 1_555 1_555
C21 C22 1_555 1_555

#END
