
#######################################################################
#
#                 Cambridge Crystallographic Data Centre
#                                CCDC 
#
#######################################################################
#
# If this CIF has been generated from an entry in the Cambridge 
# Structural Database, then it will include bibliographic, chemical, 
# crystal, experimental, refinement or atomic coordinate data resulting 
# from the CCDC's data processing and validation procedures.
#
#######################################################################

data_GIYJEE
_chemical_formula_moiety         'C19 H16 N4 O2 S1'
_chemical_name_systematic        
1-(3-methylbenzoyl)-3-(5-(E)-styryl-1,3,4-thiadiazol-2-yl)urea
_symmetry_cell_setting           monoclinic
_symmetry_space_group_name_H-M   'P 21/n'
_symmetry_Int_Tables_number      14
_space_group_name_Hall           '-P 2yn'
loop_
_symmetry_equiv_pos_site_id
_symmetry_equiv_pos_as_xyz
1 x,y,z
2 1/2-x,1/2+y,1/2-z
3 -x,-y,-z
4 1/2+x,1/2-y,1/2+z
_cell_length_a                   11.2654(9)
_cell_length_b                   6.2217(5)
_cell_length_c                   25.027(2)
_cell_angle_alpha                90
_cell_angle_beta                 93.964(2)
_cell_angle_gamma                90
_cell_volume                     1749.94
_exptl_crystal_colour            colorless
_exptl_crystal_description       block
_chemical_melting_point          'above 573 K'
_cell_formula_units_Z            4
_exptl_crystal_recrystallization_method methanol/dimethylformamide
loop_
_atom_site_label
_atom_site_type_symbol
_atom_site_fract_x
_atom_site_fract_y
_atom_site_fract_z
C1 C -0.4213(3) 0.3192(5) 0.74932(11)
H1 H -0.4342 0.2259 0.7189
H2 H -0.3763 0.4423 0.7395
H3 H -0.4966 0.3653 0.7610
C2 C -0.2552(2) 0.2891(4) 0.82227(10)
H4 H -0.2300 0.4253 0.8127
C3 C -0.3532(2) 0.1994(5) 0.79432(10)
C4 C -0.3874(3) -0.0024(5) 0.80885(12)
H5 H -0.4534 -0.0659 0.7909
C5 C -0.3257(3) -0.1127(5) 0.84953(12)
H6 H -0.3495 -0.2508 0.8582
C6 C -0.2289(3) -0.0205(5) 0.87768(12)
H7 H -0.1882 -0.0946 0.9055
C7 C -0.1936(2) 0.1826(4) 0.86388(10)
C8 C -0.0900(2) 0.2981(4) 0.89102(10)
C9 C 0.0643(2) 0.2793(4) 0.96715(10)
C10 C 0.2124(2) 0.5603(4) 0.97415(10)
C11 C 0.3850(2) 0.6877(4) 1.02343(11)
C12 C 0.4886(3) 0.7374(5) 1.05845(11)
H8 H 0.5253 0.8690 1.0533
C13 C 0.5364(2) 0.6130(5) 1.09723(11)
H9 H 0.4984 0.4831 1.1028
C14 C 0.6424(2) 0.6590(5) 1.13198(10)
C15 C 0.7041(3) 0.8522(5) 1.12929(11)
H10 H 0.6757 0.9581 1.1055
C16 C 0.8063(3) 0.8889(5) 1.16127(12)
H11 H 0.8461 1.0191 1.1588
C17 C 0.8501(3) 0.7356(6) 1.19672(13)
H12 H 0.9193 0.7611 1.2182
C18 C 0.7908(3) 0.5446(6) 1.20015(12)
H13 H 0.8197 0.4398 1.2242
C19 C 0.6888(3) 0.5072(5) 1.16821(12)
H14 H 0.6497 0.3764 1.1710
N1 N -0.0344(2) 0.2041(4) 0.93603(9)
H15 H -0.059(2) 0.095(5) 0.9471(11)
N2 N 0.1132(2) 0.4621(4) 0.94992(9)
H16 H 0.080(2) 0.528(4) 0.9245(10)
N3 N 0.2484(2) 0.7404(4) 0.95543(9)
N4 N 0.3491(2) 0.8145(4) 0.98412(10)
O1 O -0.05705(17) 0.4713(3) 0.87436(7)
O2 O 0.10230(16) 0.1843(3) 1.00721(7)
S1 S 0.29620(6) 0.46109(12) 1.02866(3)
loop_
_geom_bond_atom_site_label_1
_geom_bond_atom_site_label_2
_geom_bond_site_symmetry_1
_geom_bond_site_symmetry_2
C1 H1 1_555 1_555
H2 C1 1_555 1_555
H3 C1 1_555 1_555
C2 H4 1_555 1_555
C3 C1 1_555 1_555
C4 C3 1_555 1_555
H5 C4 1_555 1_555
C5 C4 1_555 1_555
H6 C5 1_555 1_555
C6 C5 1_555 1_555
H7 C6 1_555 1_555
C7 C2 1_555 1_555
C8 C7 1_555 1_555
C9 N1 1_555 1_555
C10 N2 1_555 1_555
C11 C12 1_555 1_555
C12 H8 1_555 1_555
C13 C12 1_555 1_555
H9 C13 1_555 1_555
C14 C13 1_555 1_555
C15 C14 1_555 1_555
H10 C15 1_555 1_555
C16 C15 1_555 1_555
H11 C16 1_555 1_555
C17 C16 1_555 1_555
H12 C17 1_555 1_555
C18 C17 1_555 1_555
H13 C18 1_555 1_555
C19 C14 1_555 1_555
H14 C19 1_555 1_555
N1 C8 1_555 1_555
H15 N1 1_555 1_555
N2 C9 1_555 1_555
H16 N2 1_555 1_555
N3 C10 1_555 1_555
N4 C11 1_555 1_555
O1 C8 1_555 1_555
O2 C9 1_555 1_555
S1 C10 1_555 1_555
C2 C3 1_555 1_555
C6 C7 1_555 1_555
C11 S1 1_555 1_555
C18 C19 1_555 1_555
N3 N4 1_555 1_555

#END
