
#######################################################################
#
#                 Cambridge Crystallographic Data Centre
#                                CCDC 
#
#######################################################################
#
# If this CIF has been generated from an entry in the Cambridge 
# Structural Database, then it will include bibliographic, chemical, 
# crystal, experimental, refinement or atomic coordinate data resulting 
# from the CCDC's data processing and validation procedures.
#
#######################################################################

data_GIYLAE
_chemical_formula_moiety         'C18 H16 N2 O2'
_chemical_name_systematic        
1-nitro-2-phenyl-2,3,9,9a-tetrahydro-1H-carbazole
_symmetry_cell_setting           hexagonal
_symmetry_space_group_name_H-M   'P 65'
_symmetry_Int_Tables_number      170
_space_group_name_Hall           'P 65'
loop_
_symmetry_equiv_pos_site_id
_symmetry_equiv_pos_as_xyz
1 x,y,z
2 x-y,x,5/6+z
3 -y,x-y,2/3+z
4 -x,-y,1/2+z
5 -x+y,-x,1/3+z
6 y,-x+y,1/6+z
_cell_length_a                   10.86074(5)
_cell_length_b                   10.86074(5)
_cell_length_c                   21.89996(14)
_cell_angle_alpha                90
_cell_angle_beta                 90
_cell_angle_gamma                120
_cell_volume                     2237.14
_exptl_crystal_colour            yellow
_exptl_crystal_description       block
_cell_formula_units_Z            6
loop_
_atom_site_label
_atom_site_type_symbol
_atom_site_fract_x
_atom_site_fract_y
_atom_site_fract_z
O1 O 0.31165(19) 0.82515(17) 0.08333(8)
C1 C 0.51671(19) 1.25120(18) 0.20251(10)
H1 H 0.5605 1.3399 0.2213
O2 O 0.18539(16) 0.71986(14) 0.16236(8)
N1 N 0.16459(17) 1.03010(17) 0.14457(9)
H2 H 0.1114 0.9797 0.1149
C2 C 0.5133(2) 1.02519(18) 0.16777(9)
H3 H 0.5423 1.0508 0.1251
C3 C 0.2981(2) 1.26599(19) 0.17389(9)
C4 C 0.1639(2) 1.1584(2) 0.15482(9)
C5 C 0.39405(19) 1.20768(18) 0.17386(9)
N2 N 0.27780(17) 0.82478(16) 0.13611(8)
C6 C 0.2052(3) 1.4220(2) 0.18740(10)
H4 H 0.2175 1.5100 0.1987
C7 C 0.58744(19) 1.16337(19) 0.20589(11)
H5 H 0.5903 1.1387 0.2482
H6 H 0.6848 1.2203 0.1919
C8 C 0.56088(19) 0.92183(19) 0.18745(9)
C9 C 0.31494(19) 1.06688(19) 0.14027(9)
H7 H 0.3446 1.0799 0.0974
C10 C 0.35131(19) 0.96304(17) 0.17088(9)
H8 H 0.3195 0.9477 0.2135
C11 C 0.3186(2) 1.3977(2) 0.19086(10)
H9 H 0.4071 1.4688 0.2044
C12 C 0.6544(2) 0.9024(2) 0.15104(11)
H10 H 0.6845 0.9506 0.1141
C13 C 0.6595(2) 0.7402(2) 0.22313(13)
H11 H 0.6930 0.6800 0.2352
C14 C 0.0501(2) 1.1818(2) 0.15107(11)
H12 H -0.0389 1.1105 0.1382
C15 C 0.7035(2) 0.8125(2) 0.16880(13)
H13 H 0.7663 0.8009 0.1439
C16 C 0.0735(3) 1.3159(2) 0.16718(11)
H14 H -0.0010 1.3347 0.1643
C17 C 0.5660(3) 0.7568(2) 0.25973(11)
H15 H 0.5357 0.7073 0.2964
C18 C 0.5168(2) 0.8474(2) 0.24206(11)
H16 H 0.4537 0.8583 0.2671
loop_
_geom_bond_atom_site_label_1
_geom_bond_atom_site_label_2
_geom_bond_site_symmetry_1
_geom_bond_site_symmetry_2
O1 N2 1_555 1_555
C1 H1 1_555 1_555
O2 N2 1_555 1_555
N1 H2 1_555 1_555
C2 H3 1_555 1_555
C3 C4 1_555 1_555
C4 N1 1_555 1_555
C5 C1 1_555 1_555
N2 C10 1_555 1_555
C6 H4 1_555 1_555
C7 C1 1_555 1_555
H5 C7 1_555 1_555
H6 C7 1_555 1_555
C8 C2 1_555 1_555
C9 N1 1_555 1_555
H7 C9 1_555 1_555
C10 C2 1_555 1_555
H8 C10 1_555 1_555
C11 C3 1_555 1_555
H9 C11 1_555 1_555
C12 C8 1_555 1_555
H10 C12 1_555 1_555
C13 H11 1_555 1_555
C14 C4 1_555 1_555
H12 C14 1_555 1_555
C15 C12 1_555 1_555
H13 C15 1_555 1_555
C16 C6 1_555 1_555
H14 C16 1_555 1_555
C17 C13 1_555 1_555
H15 C17 1_555 1_555
C18 C8 1_555 1_555
H16 C18 1_555 1_555
C2 C7 1_555 1_555
C3 C5 1_555 1_555
C5 C9 1_555 1_555
C6 C11 1_555 1_555
C9 C10 1_555 1_555
C13 C15 1_555 1_555
C14 C16 1_555 1_555
C17 C18 1_555 1_555

#END
