
#######################################################################
#
#                 Cambridge Crystallographic Data Centre
#                                CCDC 
#
#######################################################################
#
# If this CIF has been generated from an entry in the Cambridge 
# Structural Database, then it will include bibliographic, chemical, 
# crystal, experimental, refinement or atomic coordinate data resulting 
# from the CCDC's data processing and validation procedures.
#
#######################################################################

data_GIYXUI
_chemical_formula_moiety         'C25 H24 O4'
_chemical_name_systematic        
2\b,5\b-Diphenyl-4\b-ethoxycarbonyl-4\a-benzyl-1,3-dioxolane
_symmetry_cell_setting           monoclinic
_symmetry_space_group_name_H-M   'P 21/n'
_symmetry_Int_Tables_number      14
_space_group_name_Hall           '-P 2yn'
loop_
_symmetry_equiv_pos_site_id
_symmetry_equiv_pos_as_xyz
1 x,y,z
2 1/2-x,1/2+y,1/2-z
3 -x,-y,-z
4 1/2+x,1/2-y,1/2+z
_cell_length_a                   8.462(4)
_cell_length_b                   9.852(5)
_cell_length_c                   24.897(12)
_cell_angle_alpha                90
_cell_angle_beta                 94.670(7)
_cell_angle_gamma                90
_cell_volume                     2068.71
_exptl_crystal_colour            colorless
_exptl_crystal_description       block
_cell_formula_units_Z            4
loop_
_atom_site_label
_atom_site_type_symbol
_atom_site_fract_x
_atom_site_fract_y
_atom_site_fract_z
O1 O 0.26130(11) 0.21558(10) 0.20522(4)
O2 O 0.11393(11) 0.03355(10) 0.17755(4)
O3 O 0.25858(13) 0.07040(12) 0.04938(4)
O4 O 0.04284(13) 0.15733(13) 0.08285(5)
C1 C 0.23747(15) 0.03951(13) 0.14234(5)
C2 C 0.16529(16) 0.09590(14) 0.08851(6)
C3 C 0.2086(2) 0.1317(2) -0.00254(7)
H1 H 0.1163 0.0821 -0.0199
H2 H 0.1773 0.2274 0.0025
C4 C 0.3414(3) 0.1248(3) -0.03621(8)
H3 H 0.3089 0.1615 -0.0720
H4 H 0.3744 0.0301 -0.0397
H5 H 0.4302 0.1781 -0.0196
C5 C 0.31625(16) -0.09896(14) 0.13738(5)
H6 H 0.4006 -0.0906 0.1123
H7 H 0.3676 -0.1246 0.1731
C6 C 0.20557(15) -0.21163(13) 0.11778(5)
C7 C 0.12075(17) -0.28163(14) 0.15465(6)
H8 H 0.1296 -0.2549 0.1914
C8 C 0.02372(18) -0.38969(15) 0.13832(7)
H9 H -0.0327 -0.4370 0.1639
C9 C 0.00887(19) -0.42864(17) 0.08512(8)
H10 H -0.0570 -0.5032 0.0740
C10 C 0.0901(2) -0.35878(18) 0.04812(7)
H11 H 0.0789 -0.3847 0.0113
C11 C 0.18829(19) -0.25090(16) 0.06417(6)
H12 H 0.2439 -0.2037 0.0383
C12 C 0.15877(17) 0.11519(14) 0.22362(5)
H13 H 0.2168 0.0587 0.2522
C13 C 0.01710(17) 0.17990(14) 0.24542(5)
C14 C -0.0659(2) 0.28059(17) 0.21661(7)
H14 H -0.0362 0.3062 0.1820
C15 C -0.1919(2) 0.34393(19) 0.23811(8)
H15 H -0.2479 0.4139 0.2184
C16 C -0.2373(2) 0.30607(18) 0.28819(8)
H16 H -0.3237 0.3501 0.3030
C17 C -0.1559(2) 0.20362(17) 0.31643(6)
H17 H -0.1872 0.1761 0.3506
C18 C -0.02888(18) 0.14108(15) 0.29510(6)
H18 H 0.0271 0.0710 0.3147
C19 C 0.35839(16) 0.14327(14) 0.17088(5)
H19 H 0.4398 0.0912 0.1938
C20 C 0.44222(16) 0.23738(14) 0.13532(5)
C21 C 0.36982(18) 0.35444(14) 0.11444(6)
H20 H 0.2667 0.3781 0.1237
C22 C 0.4482(2) 0.43747(16) 0.07985(6)
H21 H 0.3988 0.5180 0.0658
C23 C 0.5976(2) 0.40278(18) 0.06604(7)
H22 H 0.6502 0.4591 0.0422
C24 C 0.67069(19) 0.28706(19) 0.08666(7)
H23 H 0.7735 0.2634 0.0770
C25 C 0.59320(17) 0.20481(16) 0.12175(6)
H24 H 0.6443 0.1258 0.1365
loop_
_geom_bond_atom_site_label_1
_geom_bond_atom_site_label_2
_geom_bond_site_symmetry_1
_geom_bond_site_symmetry_2
O1 C12 1_555 1_555
O2 C1 1_555 1_555
O3 C2 1_555 1_555
O4 C2 1_555 1_555
C1 C2 1_555 1_555
C3 O3 1_555 1_555
H1 C3 1_555 1_555
H2 C3 1_555 1_555
C4 C3 1_555 1_555
H3 C4 1_555 1_555
H4 C4 1_555 1_555
H5 C4 1_555 1_555
C5 C1 1_555 1_555
H6 C5 1_555 1_555
H7 C5 1_555 1_555
C6 C5 1_555 1_555
C7 C6 1_555 1_555
H8 C7 1_555 1_555
C8 C7 1_555 1_555
H9 C8 1_555 1_555
C9 C8 1_555 1_555
H10 C9 1_555 1_555
C10 C9 1_555 1_555
H11 C10 1_555 1_555
C11 C6 1_555 1_555
H12 C11 1_555 1_555
C12 O2 1_555 1_555
H13 C12 1_555 1_555
C13 C12 1_555 1_555
C14 C13 1_555 1_555
H14 C14 1_555 1_555
C15 C14 1_555 1_555
H15 C15 1_555 1_555
C16 C15 1_555 1_555
H16 C16 1_555 1_555
C17 C16 1_555 1_555
H17 C17 1_555 1_555
C18 C13 1_555 1_555
H18 C18 1_555 1_555
C19 O1 1_555 1_555
H19 C19 1_555 1_555
C20 C19 1_555 1_555
C21 C20 1_555 1_555
H20 C21 1_555 1_555
C22 C21 1_555 1_555
H21 C22 1_555 1_555
C23 C22 1_555 1_555
H22 C23 1_555 1_555
C24 C23 1_555 1_555
H23 C24 1_555 1_555
C25 C20 1_555 1_555
H24 C25 1_555 1_555
C1 C19 1_555 1_555
C10 C11 1_555 1_555
C17 C18 1_555 1_555
C24 C25 1_555 1_555

#END
