
#######################################################################
#
#                 Cambridge Crystallographic Data Centre
#                                CCDC 
#
#######################################################################
#
# If this CIF has been generated from an entry in the Cambridge 
# Structural Database, then it will include bibliographic, chemical, 
# crystal, experimental, refinement or atomic coordinate data resulting 
# from the CCDC's data processing and validation procedures.
#
#######################################################################

data_GIYYIX
_chemical_formula_moiety         'C19 H20 O4'
_chemical_name_systematic        
2\b,5\b-Diphenyl-4\b-ethoxycarbonyl-4\a-methyl-1,3-dioxolane
_symmetry_cell_setting           monoclinic
_symmetry_space_group_name_H-M   'P 21/c'
_symmetry_Int_Tables_number      14
_space_group_name_Hall           '-P 2ybc'
loop_
_symmetry_equiv_pos_site_id
_symmetry_equiv_pos_as_xyz
1 x,y,z
2 -x,1/2+y,1/2-z
3 -x,-y,-z
4 x,1/2-y,1/2+z
_cell_length_a                   10.349(3)
_cell_length_b                   8.407(3)
_cell_length_c                   18.380(5)
_cell_angle_alpha                90
_cell_angle_beta                 91.688(4)
_cell_angle_gamma                90
_cell_volume                     1598.44
_exptl_crystal_colour            colorless
_exptl_crystal_description       block
_chemical_melting_point          '98-100 deg.C'
_cell_formula_units_Z            4
loop_
_atom_site_label
_atom_site_type_symbol
_atom_site_fract_x
_atom_site_fract_y
_atom_site_fract_z
O1 O 0.37986(7) 0.64487(8) 0.17864(4)
O2 O 0.33956(7) 0.48011(9) 0.08303(4)
O3 O 0.15940(8) 0.80009(10) 0.14054(5)
O4 O 0.27096(7) 0.96866(9) 0.07061(4)
C1 C 0.38553(10) 0.48271(12) 0.15657(5)
H1 H 0.4769 0.4439 0.1598
C2 C 0.38795(10) 0.62197(12) 0.05141(5)
H2 H 0.4800 0.6046 0.0383
C3 C 0.38379(10) 0.74405(12) 0.11553(5)
C4 C 0.30129(10) 0.37968(12) 0.20200(5)
C5 C 0.34027(11) 0.22601(13) 0.21972(6)
H3 H 0.4210 0.1871 0.2040
C6 C 0.26080(13) 0.12910(15) 0.26063(7)
H4 H 0.2863 0.0231 0.2717
C7 C 0.14496(13) 0.18718(15) 0.28510(6)
H5 H 0.0918 0.1219 0.3140
C8 C 0.10603(12) 0.34138(15) 0.26751(7)
H6 H 0.0264 0.3812 0.2843
C9 C 0.18352(11) 0.43661(13) 0.22546(6)
H7 H 0.1561 0.5410 0.2126
C10 C 0.30975(10) 0.66145(12) -0.01666(5)
C11 C 0.18034(11) 0.61781(12) -0.02387(6)
H8 H 0.1407 0.5600 0.0139
C12 C 0.10897(12) 0.65883(13) -0.08640(6)
H9 H 0.0208 0.6283 -0.0914
C13 C 0.16607(11) 0.74413(14) -0.14153(6)
H10 H 0.1169 0.7725 -0.1840
C14 C 0.29465(12) 0.78772(13) -0.13458(6)
H11 H 0.3337 0.8464 -0.1722
C15 C 0.36712(11) 0.74575(13) -0.07247(6)
H12 H 0.4558 0.7746 -0.0681
C16 C 0.50282(11) 0.85004(13) 0.11850(6)
H13 H 0.4968 0.9247 0.1592
H14 H 0.5080 0.9095 0.0728
H15 H 0.5804 0.7842 0.1254
C17 C 0.25768(10) 0.83941(12) 0.11175(6)
C18 C 0.15512(11) 1.06374(14) 0.05720(7)
H16 H 0.1402 1.1347 0.0991
H17 H 0.0788 0.9938 0.0501
C19 C 0.17599(13) 1.16007(15) -0.01008(7)
H18 H 0.0993 1.2253 -0.0208
H19 H 0.1909 1.0886 -0.0511
H20 H 0.2513 1.2293 -0.0023
loop_
_geom_bond_atom_site_label_1
_geom_bond_atom_site_label_2
_geom_bond_site_symmetry_1
_geom_bond_site_symmetry_2
O1 C1 1_555 1_555
O2 C1 1_555 1_555
O3 C17 1_555 1_555
O4 C17 1_555 1_555
C1 H1 1_555 1_555
C2 O2 1_555 1_555
H2 C2 1_555 1_555
C3 O1 1_555 1_555
C4 C1 1_555 1_555
C5 C4 1_555 1_555
H3 C5 1_555 1_555
C6 C5 1_555 1_555
H4 C6 1_555 1_555
C7 C6 1_555 1_555
H5 C7 1_555 1_555
C8 C7 1_555 1_555
H6 C8 1_555 1_555
C9 C4 1_555 1_555
H7 C9 1_555 1_555
C10 C2 1_555 1_555
C11 C10 1_555 1_555
H8 C11 1_555 1_555
C12 C11 1_555 1_555
H9 C12 1_555 1_555
C13 C12 1_555 1_555
H10 C13 1_555 1_555
C14 C13 1_555 1_555
H11 C14 1_555 1_555
C15 C10 1_555 1_555
H12 C15 1_555 1_555
C16 C3 1_555 1_555
H13 C16 1_555 1_555
H14 C16 1_555 1_555
H15 C16 1_555 1_555
C17 C3 1_555 1_555
C18 O4 1_555 1_555
H16 C18 1_555 1_555
H17 C18 1_555 1_555
C19 C18 1_555 1_555
H18 C19 1_555 1_555
H19 C19 1_555 1_555
H20 C19 1_555 1_555
C2 C3 1_555 1_555
C8 C9 1_555 1_555
C14 C15 1_555 1_555

#END
