
#######################################################################
#
#                 Cambridge Crystallographic Data Centre
#                                CCDC 
#
#######################################################################
#
# If this CIF has been generated from an entry in the Cambridge 
# Structural Database, then it will include bibliographic, chemical, 
# crystal, experimental, refinement or atomic coordinate data resulting 
# from the CCDC's data processing and validation procedures.
#
#######################################################################

data_GIZGOM
_chemical_formula_moiety         'C18 H13 Cl2 N3 O2 S2'
_chemical_name_systematic        
2-(2,4-Dichlorophenyl)-3-(5-(4-methoxyphenyl)-1,3,4-thiadiazol-2-yl)-1,3-thiazolidin-4-one
_symmetry_cell_setting           triclinic
_symmetry_space_group_name_H-M   'P -1'
_symmetry_Int_Tables_number      2
_space_group_name_Hall           '-P 1'
loop_
_symmetry_equiv_pos_site_id
_symmetry_equiv_pos_as_xyz
1 x,y,z
2 -x,-y,-z
_cell_length_a                   7.1310(14)
_cell_length_b                   8.1540(16)
_cell_length_c                   16.671(3)
_cell_angle_alpha                93.19(3)
_cell_angle_beta                 96.43(3)
_cell_angle_gamma                105.89(3)
_cell_volume                     922.665
_exptl_crystal_colour            colorless
_exptl_crystal_description       block
_chemical_melting_point          507-509K
_cell_formula_units_Z            2
_exptl_crystal_recrystallization_method acetone
loop_
_atom_site_label
_atom_site_type_symbol
_atom_site_fract_x
_atom_site_fract_y
_atom_site_fract_z
Cl1 Cl 1.3375(3) 0.6645(2) 0.50289(13)
Cl2 Cl 1.1228(2) 1.20318(19) 0.40205(10)
S1 S 0.78625(18) 0.7174(2) 0.06058(9)
S2 S 0.5812(2) 0.9562(2) 0.33166(11)
O1 O 1.3277(6) 0.6538(6) -0.2389(2)
O2 O 0.4564(5) 0.6490(6) 0.1380(3)
N1 N 1.1375(6) 0.9039(7) 0.1050(3)
N2 N 1.0345(6) 0.9262(7) 0.1690(3)
N3 N 0.7229(6) 0.8433(6) 0.2094(3)
C1 C 1.5346(9) 0.7003(9) -0.2423(4)
H1 H 1.5586 0.6672 -0.2955
H2 H 1.5962 0.6431 -0.2030
H3 H 1.5880 0.8220 -0.2306
C2 C 1.2658(8) 0.6915(7) -0.1674(3)
C3 C 1.0653(8) 0.6308(9) -0.1639(4)
H4 H 0.9826 0.5675 -0.2088
C4 C 0.9884(8) 0.6632(8) -0.0956(4)
H5 H 0.8538 0.6203 -0.0944
C5 C 1.1052(7) 0.7578(7) -0.0282(3)
C6 C 1.3061(8) 0.8127(8) -0.0323(4)
H6 H 1.3900 0.8721 0.0131
C7 C 1.3842(8) 0.7822(8) -0.1009(4)
H7 H 1.5189 0.8237 -0.1021
C8 C 1.0288(7) 0.8015(7) 0.0450(3)
C9 C 0.8518(7) 0.8390(7) 0.1524(3)
C10 C 0.5300(7) 0.7452(8) 0.1973(4)
C11 C 0.4280(9) 0.7736(9) 0.2684(4)
H8 H 0.4038 0.6734 0.2987
H9 H 0.3025 0.7928 0.2499
C12 C 0.7992(7) 0.9486(7) 0.2846(3)
H10 H 0.8693 1.0643 0.2731
C13 C 0.9363(7) 0.8774(7) 0.3396(3)
C14 C 0.9118(8) 0.7054(7) 0.3390(4)
H11 H 0.8099 0.6322 0.3033
C15 C 1.0296(8) 0.6354(7) 0.3883(4)
H12 H 1.0095 0.5175 0.3865
C16 C 1.1798(8) 0.7468(8) 0.4411(3)
C17 C 1.2064(7) 0.9194(7) 0.4448(3)
H13 H 1.3064 0.9927 0.4813
C18 C 1.0853(7) 0.9832(7) 0.3946(3)
loop_
_geom_bond_atom_site_label_1
_geom_bond_atom_site_label_2
_geom_bond_site_symmetry_1
_geom_bond_site_symmetry_2
Cl1 C16 1_555 1_555
Cl2 C18 1_555 1_555
S1 C8 1_555 1_555
S2 C11 1_555 1_555
O1 C1 1_555 1_555
O2 C10 1_555 1_555
N1 N2 1_555 1_555
N2 C9 1_555 1_555
N3 C9 1_555 1_555
C1 H1 1_555 1_555
H2 C1 1_555 1_555
H3 C1 1_555 1_555
C2 O1 1_555 1_555
C3 C2 1_555 1_555
H4 C3 1_555 1_555
C4 C3 1_555 1_555
H5 C4 1_555 1_555
C5 C4 1_555 1_555
C6 C5 1_555 1_555
H6 C6 1_555 1_555
C7 C2 1_555 1_555
H7 C7 1_555 1_555
C8 N1 1_555 1_555
C9 S1 1_555 1_555
C10 N3 1_555 1_555
C11 C10 1_555 1_555
H8 C11 1_555 1_555
H9 C11 1_555 1_555
C12 S2 1_555 1_555
H10 C12 1_555 1_555
C13 C12 1_555 1_555
C14 C13 1_555 1_555
H11 C14 1_555 1_555
C15 C14 1_555 1_555
H12 C15 1_555 1_555
C16 C15 1_555 1_555
C17 C16 1_555 1_555
H13 C17 1_555 1_555
C18 C13 1_555 1_555
N3 C12 1_555 1_555
C5 C8 1_555 1_555
C6 C7 1_555 1_555
C17 C18 1_555 1_555

#END
