
#######################################################################
#
#                 Cambridge Crystallographic Data Centre
#                                CCDC 
#
#######################################################################
#
# If this CIF has been generated from an entry in the Cambridge 
# Structural Database, then it will include bibliographic, chemical, 
# crystal, experimental, refinement or atomic coordinate data resulting 
# from the CCDC's data processing and validation procedures.
#
#######################################################################

data_GIZJIK
_chemical_formula_moiety         'C4 H18 B12'
_chemical_name_systematic        1,3-dimethyl-1,3-dicarba-tetradecaborane(11)
_symmetry_cell_setting           monoclinic
_symmetry_space_group_name_H-M   'C 2/c'
_symmetry_Int_Tables_number      15
_space_group_name_Hall           '-C 2yn'
loop_
_symmetry_equiv_pos_site_id
_symmetry_equiv_pos_as_xyz
1 x,y,z
2 -x,y,1/2-z
3 1/2+x,1/2+y,z
4 1/2-x,1/2+y,1/2-z
5 -x,-y,-z
6 x,-y,1/2+z
7 1/2-x,1/2-y,-z
8 1/2+x,1/2-y,1/2+z
_cell_length_a                   14.6928(8)
_cell_length_b                   7.6394(4)
_cell_length_c                   12.0671(7)
_cell_angle_alpha                90
_cell_angle_beta                 113.5700(10)
_cell_angle_gamma                90
_cell_volume                     1241.46
_exptl_crystal_colour            colorless
_exptl_crystal_description       block
_cell_formula_units_Z            4
loop_
_atom_site_label
_atom_site_type_symbol
_atom_site_fract_x
_atom_site_fract_y
_atom_site_fract_z
C1 C 0.40101(13) 0.0814(3) 0.19543(17)
C2 C 0.31488(17) -0.0466(4) 0.1346(3)
H1 H 0.3031 -0.1121 0.1955
H2 H 0.3315 -0.1254 0.0836
H3 H 0.2561 0.0177 0.0867
B1 B 0.44775(18) 0.2365(3) 0.1069(2)
B2 B 0.50179(16) 0.0199(3) 0.1779(2)
H4 H 0.5018(18) -0.102(4) 0.137(2)
H5 H 0.408(2) 0.228(3) 0.017(2)
B3 B 0.5575(2) 0.3940(4) 0.1771(3)
H6 H 0.586(2) 0.478(4) 0.120(3)
B4 B 0.4459(2) 0.4506(3) 0.1825(3)
H7 H 0.4075(19) 0.566(3) 0.128(2)
B5 B 0.36513(17) 0.2886(3) 0.1901(2)
H8 H 0.2810(19) 0.300(3) 0.135(2)
B6 B 0.41605(18) 0.1758(4) 0.3284(2)
H9 H 0.368(2) 0.123(4) 0.379(2)
C1A C 0.59899(13) 0.0814(3) 0.30457(17)
C2A C 0.68512(17) -0.0466(4) 0.3654(3)
H1A H 0.6969 -0.1121 0.3045
H2A H 0.6685 -0.1254 0.4164
H3A H 0.7439 0.0177 0.4133
B1A B 0.55225(18) 0.2365(3) 0.3931(2)
B2A B 0.49821(16) 0.0199(3) 0.3221(2)
H4A H 0.4982(18) -0.102(4) 0.363(2)
H5A H 0.592(2) 0.228(3) 0.483(2)
B3A B 0.4425(2) 0.3940(4) 0.3229(3)
H6A H 0.414(2) 0.478(4) 0.380(3)
B4A B 0.5541(2) 0.4506(3) 0.3175(3)
H7A H 0.5925(19) 0.566(3) 0.372(2)
B5A B 0.63487(17) 0.2886(3) 0.3099(2)
H8A H 0.7190(19) 0.300(3) 0.365(2)
B6A B 0.58395(18) 0.1758(4) 0.1716(2)
H9A H 0.632(2) 0.123(4) 0.121(2)
loop_
_geom_bond_atom_site_label_1
_geom_bond_atom_site_label_2
_geom_bond_site_symmetry_1
_geom_bond_site_symmetry_2
C1 C2 1_555 1_555
C2 H1 1_555 1_555
H2 C2 1_555 1_555
H3 C2 1_555 1_555
B1 C1 1_555 1_555
B2 C1 1_555 1_555
H4 B2 1_555 1_555
H5 B1 1_555 1_555
B3 B1 1_555 1_555
H6 B3 1_555 1_555
B4 B1 1_555 1_555
H7 B4 1_555 1_555
B5 C1 1_555 1_555
H8 B5 1_555 1_555
B6 C1 1_555 1_555
H9 B6 1_555 1_555
C1A B2 1_555 1_555
C2A C1A 1_555 1_555
H1A C2A 1_555 1_555
H2A C2A 1_555 1_555
H3A C2A 1_555 1_555
B1A B6 1_555 1_555
B2A C1 1_555 1_555
H4A B2A 1_555 1_555
H5A B1A 1_555 1_555
B3A B4 1_555 1_555
H6A B3A 1_555 1_555
B4A B3 1_555 1_555
H7A B4A 1_555 1_555
B5A B3 1_555 1_555
H8A B5A 1_555 1_555
B6A B1 1_555 1_555
H9A B6A 1_555 1_555
B1 B2 1_555 1_555
B1 B5 1_555 1_555
B2 B2A 1_555 1_555
B2 B6A 1_555 1_555
B3 B4 1_555 1_555
B3 B6A 1_555 1_555
B4 B5 1_555 1_555
B4 B4A 1_555 1_555
B5 B6 1_555 1_555
B5 B3A 1_555 1_555
B6 B2A 1_555 1_555
B6 B3A 1_555 1_555
C1A B1A 1_555 1_555
C1A B2A 1_555 1_555
C1A B5A 1_555 1_555
C1A B6A 1_555 1_555
B1A B2A 1_555 1_555
B1A B3A 1_555 1_555
B1A B4A 1_555 1_555
B1A B5A 1_555 1_555
B3A B4A 1_555 1_555
B4A B5A 1_555 1_555
B5A B6A 1_555 1_555

#END
