
#######################################################################
#
#                 Cambridge Crystallographic Data Centre
#                                CCDC 
#
#######################################################################
#
# If this CIF has been generated from an entry in the Cambridge 
# Structural Database, then it will include bibliographic, chemical, 
# crystal, experimental, refinement or atomic coordinate data resulting 
# from the CCDC's data processing and validation procedures.
#
#######################################################################

data_GIZKOR
_chemical_formula_moiety         'C16 H25 B1 N2 Si1'
_chemical_name_systematic        
(1,3-dimethyl-1H-imidazol-3-ium-2-yl)(dihydrido)(2-phenyl-1-(trimethylsilyl)vinyl)borate
_symmetry_cell_setting           monoclinic
_symmetry_space_group_name_H-M   'C c'
_symmetry_Int_Tables_number      9
_space_group_name_Hall           'C -2yc'
loop_
_symmetry_equiv_pos_site_id
_symmetry_equiv_pos_as_xyz
1 x,y,z
2 x,-y,1/2+z
3 1/2+x,1/2+y,z
4 1/2+x,1/2-y,1/2+z
_cell_length_a                   19.300(3)
_cell_length_b                   7.7161(10)
_cell_length_c                   12.3941(17)
_cell_angle_alpha                90
_cell_angle_beta                 113.586(6)
_cell_angle_gamma                90
_cell_volume                     1691.55
_cell_formula_units_Z            4
loop_
_atom_site_label
_atom_site_type_symbol
_atom_site_fract_x
_atom_site_fract_y
_atom_site_fract_z
Si1 Si 0.47927(5) 0.09484(16) 0.21458(8)
N1 N 0.7034(2) 0.5774(6) 0.3034(4)
B1 B 0.6145(2) 0.2977(8) 0.2530(4)
H1 H 0.625(3) 0.187(10) 0.193(6)
H2 H 0.647(2) 0.264(7) 0.347(4)
C1 C 0.6484(2) 0.4757(6) 0.2282(4)
N2 N 0.6274(2) 0.5566(6) 0.1230(4)
C2 C 0.7153(2) 0.7198(7) 0.2466(5)
H3 H 0.7506 0.8103 0.2810
C3 C 0.6675(2) 0.7068(8) 0.1333(5)
H4 H 0.6623 0.7862 0.0720
C4 C 0.7469(3) 0.5386(8) 0.4282(5)
H5 H 0.7283 0.4308 0.4488
H6 H 0.7411 0.6337 0.4763
H7 H 0.8005 0.5256 0.4428
C5 C 0.5685(3) 0.4954(9) 0.0127(5)
H8 H 0.5480 0.3853 0.0264
H9 H 0.5901 0.4785 -0.0459
H10 H 0.5279 0.5816 -0.0164
C6 C 0.52417(19) 0.3128(7) 0.2206(4)
C7 C 0.4885(2) 0.4645(7) 0.2054(4)
H11 H 0.5203 0.5635 0.2205
C8 C 0.5484(2) -0.0438(7) 0.3340(5)
H12 H 0.5263 -0.1586 0.3326
H13 H 0.5600 0.0107 0.4106
H14 H 0.5950 -0.0560 0.3208
C9 C 0.4618(3) -0.0138(8) 0.0727(5)
H15 H 0.4259 0.0550 0.0079
H16 H 0.4406 -0.1294 0.0724
H17 H 0.5095 -0.0244 0.0628
C10 C 0.3898(2) 0.0988(7) 0.2391(5)
H18 H 0.3522 0.1705 0.1785
H19 H 0.3999 0.1474 0.3170
H20 H 0.3704 -0.0195 0.2346
C11 C 0.3797(2) 0.5941(6) 0.2400(4)
H21 H 0.4143 0.6329 0.3149
C12 C 0.3032(2) 0.6301(7) 0.2044(5)
H22 H 0.2858 0.6907 0.2555
C13 C 0.2527(2) 0.5780(7) 0.0952(5)
H23 H 0.2004 0.6029 0.0709
C14 C 0.2776(2) 0.4899(7) 0.0207(5)
H24 H 0.2427 0.4555 -0.0552
C15 C 0.3541(2) 0.4514(7) 0.0572(4)
H25 H 0.3710 0.3894 0.0060
C16 C 0.4067(2) 0.5026(6) 0.1683(4)
loop_
_geom_bond_atom_site_label_1
_geom_bond_atom_site_label_2
_geom_bond_site_symmetry_1
_geom_bond_site_symmetry_2
Si1 C6 1_555 1_555
N1 C1 1_555 1_555
B1 H1 1_555 1_555
H2 B1 1_555 1_555
C1 B1 1_555 1_555
N2 C1 1_555 1_555
C2 N1 1_555 1_555
H3 C2 1_555 1_555
C3 N2 1_555 1_555
H4 C3 1_555 1_555
C4 N1 1_555 1_555
H5 C4 1_555 1_555
H6 C4 1_555 1_555
H7 C4 1_555 1_555
C5 N2 1_555 1_555
H8 C5 1_555 1_555
H9 C5 1_555 1_555
H10 C5 1_555 1_555
C6 B1 1_555 1_555
C7 C6 1_555 1_555
H11 C7 1_555 1_555
C8 Si1 1_555 1_555
H12 C8 1_555 1_555
H13 C8 1_555 1_555
H14 C8 1_555 1_555
C9 Si1 1_555 1_555
H15 C9 1_555 1_555
H16 C9 1_555 1_555
H17 C9 1_555 1_555
C10 Si1 1_555 1_555
H18 C10 1_555 1_555
H19 C10 1_555 1_555
H20 C10 1_555 1_555
C11 H21 1_555 1_555
C12 C11 1_555 1_555
H22 C12 1_555 1_555
C13 C12 1_555 1_555
H23 C13 1_555 1_555
C14 C13 1_555 1_555
H24 C14 1_555 1_555
C15 C14 1_555 1_555
H25 C15 1_555 1_555
C16 C7 1_555 1_555
C2 C3 1_555 1_555
C11 C16 1_555 1_555
C15 C16 1_555 1_555

#END
