
#######################################################################
#
#                 Cambridge Crystallographic Data Centre
#                                CCDC 
#
#######################################################################
#
# If this CIF has been generated from an entry in the Cambridge 
# Structural Database, then it will include bibliographic, chemical, 
# crystal, experimental, refinement or atomic coordinate data resulting 
# from the CCDC's data processing and validation procedures.
#
#######################################################################

data_GIZKUW
_chemical_formula_moiety         'C48 H54 N24 O12,22(H2 O1)'
_chemical_name_systematic        'm-Tricyclohexyl cucurbit[6]uril hydrate'
_symmetry_cell_setting           monoclinic
_symmetry_space_group_name_H-M   'P 21'
_symmetry_Int_Tables_number      4
_space_group_name_Hall           'P 2yb'
loop_
_symmetry_equiv_pos_site_id
_symmetry_equiv_pos_as_xyz
1 x,y,z
2 -x,1/2+y,-z
_cell_length_a                   12.1921(10)
_cell_length_b                   17.1458(15)
_cell_length_c                   16.9966(15)
_cell_angle_alpha                90
_cell_angle_beta                 98.937(2)
_cell_angle_gamma                90
_cell_volume                     3509.89
_exptl_crystal_colour            colorless
_cell_formula_units_Z            2
loop_
_atom_site_label
_atom_site_type_symbol
_atom_site_fract_x
_atom_site_fract_y
_atom_site_fract_z
O1 O 0.1024(3) 0.7485(2) 0.0309(2)
O2 O 0.0028(2) 0.2254(2) 0.12083(19)
O3 O 0.2937(4) 0.5760(3) 0.9186(3)
O4 O 0.7620(3) 0.4906(2) 0.38290(18)
O5 O 0.5598(4) 0.4674(3) 0.8305(2)
O6 O 0.3367(3) 0.4127(3) 0.9242(3)
O7 O 0.1443(4) 0.5268(3) 0.0329(3)
O8 O 0.0575(4) 0.4842(3) 0.5877(2)
O9 O 0.1029(4) 0.6053(3) 0.8147(2)
O10 O 0.6348(4) 0.4896(3) 0.4856(4)
O11 O 0.4080(6) 0.4545(5) 0.6913(3)
O12 O 0.1867(4) 0.3723(3) 0.0255(3)
O13 O 0.9658(4) 0.2534(5) 0.4294(3)
O14 O 0.9384(5) 0.8089(4) 0.1048(4)
O15 O 0.8547(6) 0.4926(9) 0.4610(4)
O16 O 0.1425(5) 0.6234(6) 0.6580(4)
O17 O 0.0373(10) 0.4557(7) 0.7761(5)
O18 O 0.8036(6) 0.8508(5) 0.3417(7)
O19 O 0.9065(17) 0.604(2) 0.4544(8)
O20 O 0.2497(8) 0.3954(8) 0.7677(6)
O21 O 0.611(2) 0.4891(10) 0.2796(10)
O22 O 0.9138(12) 0.702(3) 0.4399(9)
C1 C 0.1378(2) 0.4529(2) 0.27223(17)
C2 C 0.1641(2) 0.41337(19) 0.40613(16)
H1 H 0.1078 0.3889 0.4334
C3 C 0.1504(3) 0.5034(2) 0.40178(18)
H2 H 0.0823 0.5203 0.4208
C4 C 0.3182(3) 0.47299(19) 0.48216(16)
C5 C 0.1085(2) 0.5941(2) 0.2826(2)
H3 H 0.0529 0.6150 0.3120
H4 H 0.0732 0.5859 0.2281
C6 C 0.2679(4) 0.6120(2) 0.47442(18)
H5 H 0.3221 0.6131 0.5227
H6 H 0.1997 0.6347 0.4869
C7 C 0.2308(2) 0.67344(18) 0.21370(17)
C8 C 0.2403(3) 0.70132(19) 0.35087(18)
C9 C 0.3263(3) 0.75264(19) 0.31380(18)
C10 C 0.4189(3) 0.6705(2) 0.41423(18)
C11 C 0.3490(3) 0.7736(2) 0.16590(18)
H7 H 0.2963 0.7696 0.1171
H8 H 0.3573 0.8285 0.1793
C12 C 0.5396(3) 0.7513(3) 0.3449(2)
H9 H 0.5916 0.7371 0.3919
H10 H 0.5350 0.8077 0.3430
C13 C 0.4668(3) 0.69510(19) 0.08915(17)
C14 C 0.5599(2) 0.7639(2) 0.19884(19)
H11 H 0.5701 0.8204 0.2047
C15 C 0.6463(2) 0.72648(19) 0.15194(18)
H12 H 0.6863 0.7659 0.1258
C16 C 0.6806(3) 0.6841(3) 0.2840(2)
C17 C 0.6220(3) 0.6388(2) 0.03103(17)
H13 H 0.5624 0.6299 -0.0129
H14 H 0.6754 0.6732 0.0122
C18 C 0.8265(2) 0.6538(2) 0.2011(2)
H15 H 0.8595 0.6882 0.1660
H16 H 0.8744 0.6538 0.2523
C19 C 0.6231(3) 0.4968(2) 0.03210(17)
C20 C 0.7934(2) 0.55470(18) 0.08527(17)
C21 C 0.8062(2) 0.46325(18) 0.08644(17)
C22 C 0.8476(2) 0.5113(2) 0.21694(18)
C23 C 0.6657(3) 0.35634(19) 0.03395(18)
H17 H 0.7285 0.3298 0.0173
H18 H 0.6051 0.3550 -0.0104
C24 C 0.8668(2) 0.3705(2) 0.2043(2)
H19 H 0.9095 0.3440 0.1687
H20 H 0.9153 0.3782 0.2546
C25 C 0.5272(3) 0.28496(19) 0.09807(17)
C26 C 0.7139(3) 0.27218(18) 0.15723(18)
H21 H 0.7625 0.2393 0.1304
C27 C 0.6396(2) 0.22297(19) 0.20510(17)
H22 H 0.6623 0.1681 0.2087
C28 C 0.7415(3) 0.3131(2) 0.28978(19)
C29 C 0.4336(2) 0.1880(2) 0.17390(16)
H23 H 0.3796 0.1878 0.1256
H24 H 0.4563 0.1345 0.1854
C30 C 0.6225(3) 0.2249(2) 0.35208(17)
H25 H 0.6322 0.1689 0.3494
H26 H 0.6709 0.2437 0.3989
C31 C 0.2812(2) 0.25582(19) 0.22412(17)
C32 C 0.4125(2) 0.19725(18) 0.32294(16)
C33 C 0.3156(2) 0.23343(18) 0.36226(16)
C34 C 0.4841(3) 0.29129(19) 0.41909(17)
C35 C 0.1412(2) 0.3099(2) 0.29730(19)
H27 H 0.1015 0.2813 0.3332
H28 H 0.0968 0.3082 0.2448
C36 C 0.3218(3) 0.33063(19) 0.47819(17)
H29 H 0.2640 0.2984 0.4946
H30 H 0.3777 0.3394 0.5246
C37 C 0.1480(4) 0.7505(2) 0.3790(3)
H31 H 0.0875 0.7168 0.3885
H32 H 0.1769 0.7765 0.4286
C38 C 0.1060(3) 0.8099(3) 0.3171(3)
H33 H 0.0453 0.8386 0.3343
H34 H 0.0770 0.7834 0.2679
C39 C 0.1962(4) 0.8679(2) 0.3012(4)
H35 H 0.1889 0.8772 0.2444
H36 H 0.1843 0.9171 0.3267
C40 C 0.3148(3) 0.8396(2) 0.3317(3)
H37 H 0.3672 0.8692 0.3061
H38 H 0.3321 0.8482 0.3886
C41 C 0.8696(3) 0.5940(2) 0.0324(2)
H39 H 0.8524 0.6492 0.0276
H40 H 0.9464 0.5886 0.0571
C42 C 0.8537(5) 0.5566(3) -0.0507(3)
H41 H 0.9039 0.5810 -0.0823
H42 H 0.7783 0.5659 -0.0769
C43 C 0.8759(4) 0.4675(3) -0.0463(2)
H43 H 0.8125 0.4405 -0.0755
H44 H 0.9399 0.4560 -0.0719
C44 C 0.8973(3) 0.4369(2) 0.0392(2)
H45 H 0.9686 0.4559 0.0655
H46 H 0.9002 0.3804 0.0385
C45 C 0.4239(3) 0.1103(2) 0.3370(2)
H47 H 0.4490 0.1007 0.3931
H48 H 0.4796 0.0899 0.3075
C46 C 0.3138(3) 0.0673(2) 0.3110(3)
H49 H 0.3215 0.0137 0.3293
H50 H 0.2978 0.0666 0.2533
C47 C 0.2159(3) 0.1052(2) 0.3437(3)
H51 H 0.1632 0.1248 0.2995
H52 H 0.1785 0.0657 0.3707
C48 C 0.2509(3) 0.1712(2) 0.4009(2)
H53 H 0.2971 0.1509 0.4481
H54 H 0.1857 0.1947 0.4172
N1 N 0.1518(2) 0.39036(17) 0.32325(15)
N2 N 0.1462(2) 0.51948(17) 0.31695(15)
N3 N 0.2745(2) 0.40439(17) 0.45077(15)
N4 N 0.2468(3) 0.53206(17) 0.45133(16)
N5 N 0.1968(2) 0.65102(17) 0.28339(15)
N6 N 0.3025(2) 0.73387(16) 0.22938(14)
N7 N 0.3082(3) 0.66035(17) 0.41491(15)
N8 N 0.4320(2) 0.7204(2) 0.35260(16)
N9 N 0.4546(2) 0.74434(16) 0.15102(15)
N10 N 0.5768(2) 0.67747(16) 0.09441(14)
N11 N 0.5824(2) 0.7238(2) 0.27480(15)
N12 N 0.7183(2) 0.68479(18) 0.21144(16)
N13 N 0.6754(2) 0.56530(16) 0.05350(15)
N14 N 0.6955(2) 0.43621(16) 0.05129(16)
N15 N 0.8225(2) 0.57553(16) 0.16860(16)
N16 N 0.8337(2) 0.44592(16) 0.17092(15)
N17 N 0.6324(2) 0.31401(16) 0.10036(15)
N18 N 0.5302(2) 0.23263(18) 0.15940(15)
N19 N 0.7762(2) 0.32058(17) 0.21771(16)
N20 N 0.6558(2) 0.26022(17) 0.28205(15)
N21 N 0.3805(2) 0.21696(16) 0.23851(14)
N22 N 0.2454(2) 0.27102(17) 0.29402(15)
N23 N 0.5089(2) 0.24131(16) 0.36075(14)
N24 N 0.3718(2) 0.28895(16) 0.41909(15)
O23 O 0.1187(2) 0.44903(17) 0.19959(13)
O24 O 0.1974(2) 0.64490(15) 0.14814(13)
O25 O 0.3919(2) 0.67350(17) 0.03805(14)
O26 O 0.5278(2) 0.49051(18) -0.00160(17)
O27 O 0.4463(2) 0.30103(15) 0.04955(13)
O28 O 0.2317(2) 0.27169(17) 0.15681(13)
O29 O 0.4026(2) 0.48140(16) 0.52962(14)
O30 O 0.4942(3) 0.6415(2) 0.46121(15)
O31 O 0.7277(3) 0.6566(3) 0.34463(17)
O32 O 0.87848(19) 0.51340(16) 0.28860(13)
O33 O 0.7820(3) 0.3475(2) 0.35106(16)
O34 O 0.5515(2) 0.32820(17) 0.46478(14)
loop_
_geom_bond_atom_site_label_1
_geom_bond_atom_site_label_2
_geom_bond_site_symmetry_1
_geom_bond_site_symmetry_2
C1 N1 1_555 1_555
C2 H1 1_555 1_555
C3 C2 1_555 1_555
H2 C3 1_555 1_555
C4 N3 1_555 1_555
C5 H3 1_555 1_555
H4 C5 1_555 1_555
C6 H5 1_555 1_555
H6 C6 1_555 1_555
C7 N5 1_555 1_555
C8 C9 1_555 1_555
C9 C40 1_555 1_555
C10 N7 1_555 1_555
C11 H7 1_555 1_555
H8 C11 1_555 1_555
C12 H9 1_555 1_555
H10 C12 1_555 1_555
C13 N9 1_555 1_555
C14 H11 1_555 1_555
C15 C14 1_555 1_555
H12 C15 1_555 1_555
C16 N11 1_555 1_555
C17 H13 1_555 1_555
H14 C17 1_555 1_555
C18 H15 1_555 1_555
H16 C18 1_555 1_555
C19 N13 1_555 1_555
C20 C21 1_555 1_555
C21 C44 1_555 1_555
C22 N15 1_555 1_555
C23 H17 1_555 1_555
H18 C23 1_555 1_555
C24 H19 1_555 1_555
H20 C24 1_555 1_555
C25 N17 1_555 1_555
C26 H21 1_555 1_555
C27 C26 1_555 1_555
H22 C27 1_555 1_555
C28 N19 1_555 1_555
C29 H23 1_555 1_555
H24 C29 1_555 1_555
C30 H25 1_555 1_555
H26 C30 1_555 1_555
C31 N21 1_555 1_555
C32 C33 1_555 1_555
C33 C48 1_555 1_555
C34 N23 1_555 1_555
C35 H27 1_555 1_555
H28 C35 1_555 1_555
C36 H29 1_555 1_555
H30 C36 1_555 1_555
C37 C8 1_555 1_555
H31 C37 1_555 1_555
H32 C37 1_555 1_555
C38 C37 1_555 1_555
H33 C38 1_555 1_555
H34 C38 1_555 1_555
C39 C38 1_555 1_555
H35 C39 1_555 1_555
H36 C39 1_555 1_555
C40 C39 1_555 1_555
H37 C40 1_555 1_555
H38 C40 1_555 1_555
C41 C20 1_555 1_555
H39 C41 1_555 1_555
H40 C41 1_555 1_555
C42 C41 1_555 1_555
H41 C42 1_555 1_555
H42 C42 1_555 1_555
C43 C42 1_555 1_555
H43 C43 1_555 1_555
H44 C43 1_555 1_555
C44 C43 1_555 1_555
H45 C44 1_555 1_555
H46 C44 1_555 1_555
C45 C32 1_555 1_555
H47 C45 1_555 1_555
H48 C45 1_555 1_555
C46 C45 1_555 1_555
H49 C46 1_555 1_555
H50 C46 1_555 1_555
C47 C46 1_555 1_555
H51 C47 1_555 1_555
H52 C47 1_555 1_555
C48 C47 1_555 1_555
H53 C48 1_555 1_555
H54 C48 1_555 1_555
N1 C2 1_555 1_555
N2 C1 1_555 1_555
N3 C2 1_555 1_555
N4 C3 1_555 1_555
N5 C5 1_555 1_555
N6 C7 1_555 1_555
N7 C6 1_555 1_555
N8 C9 1_555 1_555
N9 C11 1_555 1_555
N10 C13 1_555 1_555
N11 C12 1_555 1_555
N12 C15 1_555 1_555
N13 C17 1_555 1_555
N14 C19 1_555 1_555
N15 C18 1_555 1_555
N16 C21 1_555 1_555
N17 C23 1_555 1_555
N18 C25 1_555 1_555
N19 C24 1_555 1_555
N20 C27 1_555 1_555
N21 C29 1_555 1_555
N22 C31 1_555 1_555
N23 C30 1_555 1_555
N24 C33 1_555 1_555
O23 C1 1_555 1_555
O24 C7 1_555 1_555
O25 C13 1_555 1_555
O26 C19 1_555 1_555
O27 C25 1_555 1_555
O28 C31 1_555 1_555
O29 C4 1_555 1_555
O30 C10 1_555 1_555
O31 C16 1_555 1_555
O32 C22 1_555 1_555
O33 C28 1_555 1_555
O34 C34 1_555 1_555
C3 N2 1_555 1_555
C4 N4 1_555 1_555
C5 N2 1_555 1_555
C6 N4 1_555 1_555
C8 N5 1_555 1_555
C8 N7 1_555 1_555
C9 N6 1_555 1_555
C10 N8 1_555 1_555
C11 N6 1_555 1_555
C12 N8 1_555 1_555
C14 N9 1_555 1_555
C14 N11 1_555 1_555
C15 N10 1_555 1_555
C16 N12 1_555 1_555
C17 N10 1_555 1_555
C18 N12 1_555 1_555
C20 N13 1_555 1_555
C20 N15 1_555 1_555
C21 N14 1_555 1_555
C22 N16 1_555 1_555
C23 N14 1_555 1_555
C24 N16 1_555 1_555
C26 N17 1_555 1_555
C26 N19 1_555 1_555
C27 N18 1_555 1_555
C28 N20 1_555 1_555
C29 N18 1_555 1_555
C30 N20 1_555 1_555
C32 N21 1_555 1_555
C32 N23 1_555 1_555
C33 N22 1_555 1_555
C34 N24 1_555 1_555
C35 N1 1_555 1_555
C35 N22 1_555 1_555
C36 N3 1_555 1_555
C36 N24 1_555 1_555

#END
