
#######################################################################
#
#                 Cambridge Crystallographic Data Centre
#                                CCDC 
#
#######################################################################
#
# If this CIF has been generated from an entry in the Cambridge 
# Structural Database, then it will include bibliographic, chemical, 
# crystal, experimental, refinement or atomic coordinate data resulting 
# from the CCDC's data processing and validation procedures.
#
#######################################################################

data_GIZMOT
_chemical_formula_moiety         'C30 H39 I1 O4 Si1'
_chemical_name_systematic        
5'-(((t-Butyl(diphenyl)silyl)oxy)methyl)-7-iodo-3',3a-dimethyloctahydro-3'H-spiro[1-benzofuran-3,2'-furan]-2-one
_symmetry_cell_setting           orthorhombic
_symmetry_space_group_name_H-M   'P 21 21 21'
_symmetry_Int_Tables_number      19
_space_group_name_Hall           'P 2ac 2ab'
loop_
_symmetry_equiv_pos_site_id
_symmetry_equiv_pos_as_xyz
1 x,y,z
2 1/2-x,-y,1/2+z
3 -x,1/2+y,1/2-z
4 1/2+x,1/2-y,-z
_cell_length_a                   10.0598(5)
_cell_length_b                   10.3875(5)
_cell_length_c                   27.6339(14)
_cell_angle_alpha                90
_cell_angle_beta                 90
_cell_angle_gamma                90
_cell_volume                     2887.64
_exptl_crystal_colour            colorless
_exptl_crystal_description       column
_cell_formula_units_Z            4
loop_
_atom_site_label
_atom_site_type_symbol
_atom_site_fract_x
_atom_site_fract_y
_atom_site_fract_z
I1 I 0.45931(2) 0.90411(2) 0.757483(8)
Si1 Si 0.79598(6) 0.50635(5) 0.54931(2)
C1 C 0.5608(2) 0.6387(2) 0.57652(8)
H1 H 0.6209 0.7037 0.5869
C2 C 0.4242(3) 0.6575(3) 0.58284(10)
H2 H 0.3925 0.7352 0.5968
C3 C 0.3360(2) 0.5638(3) 0.56891(9)
H3 H 0.2433 0.5764 0.5734
C4 C 0.3820(3) 0.4516(3) 0.54842(10)
H4 H 0.3212 0.3863 0.5389
C5 C 0.5182(2) 0.4339(2) 0.54161(8)
H5 H 0.5486 0.3563 0.5272
C6 C 0.6110(2) 0.5267(2) 0.55532(7)
C7 C 0.9767(2) 0.5133(2) 0.47046(8)
H6 H 1.0348 0.5519 0.4934
C8 C 1.0229(3) 0.4903(2) 0.42395(8)
H7 H 1.1112 0.5132 0.4152
C9 C 0.9393(3) 0.4336(2) 0.39031(8)
H8 H 0.9704 0.4163 0.3585
C10 C 0.8106(3) 0.4022(3) 0.40306(8)
H9 H 0.7527 0.3642 0.3799
C11 C 0.8474(2) 0.48148(19) 0.48470(7)
C12 C 0.7657(2) 0.4264(2) 0.44979(8)
H10 H 0.6769 0.4046 0.4581
O1 O 1.01746(19) 1.08541(16) 0.66571(6)
O2 O 0.83187(15) 0.87606(18) 0.62179(6)
O3 O 0.8224(2) 1.06742(15) 0.70283(6)
C13 C 0.9264(2) 1.0196(2) 0.67795(8)
C14 C 0.9012(2) 0.8763(2) 0.66737(8)
C15 C 0.9248(2) 0.8588(2) 0.58208(9)
H11 H 0.9351 0.9424 0.5645
C16 C 1.0567(3) 0.8228(2) 0.60514(11)
H12 H 1.1206 0.8949 0.6026
H13 H 1.0953 0.7463 0.5891
C17 C 1.0254(2) 0.7937(2) 0.65802(11)
H14 H 0.9989 0.7011 0.6604
C18 C 1.1469(3) 0.8145(3) 0.69041(14)
H15 H 1.1660 0.9068 0.6927
H16 H 1.2237 0.7699 0.6765
H17 H 1.1288 0.7801 0.7228
C19 C 0.8698(3) 0.7604(2) 0.54797(8)
H18 H 0.7777 0.7838 0.5390
H19 H 0.9240 0.7582 0.5181
C20 C 0.8599(2) 0.3691(2) 0.58778(8)
C21 C 1.0079(3) 0.3474(3) 0.57869(11)
H20 H 1.0393 0.2759 0.5988
H21 H 1.0572 0.4257 0.5869
H22 H 1.0221 0.3265 0.5445
C22 C 0.8401(3) 0.3988(3) 0.64151(8)
H23 H 0.7459 0.4164 0.6477
H24 H 0.8931 0.4743 0.6504
H25 H 0.8685 0.3246 0.6609
O4 O 0.87064(17) 0.63600(14) 0.57033(5)
C23 C 0.8015(2) 0.8411(2) 0.70758(9)
C24 C 0.8760(3) 0.8175(3) 0.75467(11)
H26 H 0.9506 0.8793 0.7571
H27 H 0.9141 0.7296 0.7542
C25 C 0.7869(3) 0.2446(2) 0.57560(11)
H28 H 0.7971 0.2259 0.5410
H29 H 0.6924 0.2542 0.5833
H30 H 0.8244 0.1738 0.5946
C26 C 0.7163(3) 0.7259(3) 0.69384(13)
H31 H 0.7721 0.6599 0.6787
H32 H 0.6472 0.7531 0.6710
H33 H 0.6745 0.6903 0.7230
C27 C 0.7872(4) 0.8316(4) 0.79913(11)
H34 H 0.7136 0.7684 0.7974
H35 H 0.8394 0.8136 0.8287
C28 C 0.7310(4) 0.9656(4) 0.80168(10)
H36 H 0.8047 1.0279 0.8056
H37 H 0.6728 0.9727 0.8305
C29 C 0.6515(3) 1.0001(3) 0.75672(10)
H38 H 0.6354 1.0951 0.7572
C30 C 0.7220(3) 0.9672(2) 0.70975(8)
H39 H 0.6569 0.9698 0.6824
loop_
_geom_bond_atom_site_label_1
_geom_bond_atom_site_label_2
_geom_bond_site_symmetry_1
_geom_bond_site_symmetry_2
I1 C29 1_555 1_555
Si1 C6 1_555 1_555
C1 H1 1_555 1_555
C2 C1 1_555 1_555
H2 C2 1_555 1_555
C3 C2 1_555 1_555
H3 C3 1_555 1_555
C4 C3 1_555 1_555
H4 C4 1_555 1_555
C5 C4 1_555 1_555
H5 C5 1_555 1_555
C6 C1 1_555 1_555
C7 H6 1_555 1_555
C8 C7 1_555 1_555
H7 C8 1_555 1_555
C9 C8 1_555 1_555
H8 C9 1_555 1_555
C10 C9 1_555 1_555
H9 C10 1_555 1_555
C11 Si1 1_555 1_555
C12 C10 1_555 1_555
H10 C12 1_555 1_555
O1 C13 1_555 1_555
O2 C14 1_555 1_555
O3 C13 1_555 1_555
C13 C14 1_555 1_555
C14 C17 1_555 1_555
C15 O2 1_555 1_555
H11 C15 1_555 1_555
C16 C15 1_555 1_555
H12 C16 1_555 1_555
H13 C16 1_555 1_555
C17 C16 1_555 1_555
H14 C17 1_555 1_555
C18 C17 1_555 1_555
H15 C18 1_555 1_555
H16 C18 1_555 1_555
H17 C18 1_555 1_555
C19 C15 1_555 1_555
H18 C19 1_555 1_555
H19 C19 1_555 1_555
C20 Si1 1_555 1_555
C21 C20 1_555 1_555
H20 C21 1_555 1_555
H21 C21 1_555 1_555
H22 C21 1_555 1_555
C22 C20 1_555 1_555
H23 C22 1_555 1_555
H24 C22 1_555 1_555
H25 C22 1_555 1_555
O4 Si1 1_555 1_555
C23 C14 1_555 1_555
C24 C23 1_555 1_555
H26 C24 1_555 1_555
H27 C24 1_555 1_555
C25 C20 1_555 1_555
H28 C25 1_555 1_555
H29 C25 1_555 1_555
H30 C25 1_555 1_555
C26 C23 1_555 1_555
H31 C26 1_555 1_555
H32 C26 1_555 1_555
H33 C26 1_555 1_555
C27 C24 1_555 1_555
H34 C27 1_555 1_555
H35 C27 1_555 1_555
C28 C27 1_555 1_555
H36 C28 1_555 1_555
H37 C28 1_555 1_555
C29 C28 1_555 1_555
H38 C29 1_555 1_555
C30 O3 1_555 1_555
H39 C30 1_555 1_555
C5 C6 1_555 1_555
C7 C11 1_555 1_555
C11 C12 1_555 1_555
C19 O4 1_555 1_555
C23 C30 1_555 1_555
C29 C30 1_555 1_555

#END
