
#######################################################################
#
#                 Cambridge Crystallographic Data Centre
#                                CCDC 
#
#######################################################################
#
# If this CIF has been generated from an entry in the Cambridge 
# Structural Database, then it will include bibliographic, chemical, 
# crystal, experimental, refinement or atomic coordinate data resulting 
# from the CCDC's data processing and validation procedures.
#
#######################################################################

data_GIZNAF
_chemical_name_common            
syn-3-Methylenetetrahydro-1-benzofuran-2,5(3H,4H)-dione
_chemical_formula_moiety         'C9 H10 O3'
_chemical_name_systematic        
cis-3-Methylenetetrahydro-1-benzofuran-2,5(3H,4H)-dione
_symmetry_cell_setting           orthorhombic
_symmetry_space_group_name_H-M   'P 21 21 21'
_symmetry_Int_Tables_number      19
_space_group_name_Hall           'P 2ac 2ab'
loop_
_symmetry_equiv_pos_site_id
_symmetry_equiv_pos_as_xyz
1 x,y,z
2 1/2-x,-y,1/2+z
3 -x,1/2+y,1/2-z
4 1/2+x,1/2-y,-z
_cell_length_a                   6.2905(8)
_cell_length_b                   10.2013(13)
_cell_length_c                   11.8846(15)
_cell_angle_alpha                90
_cell_angle_beta                 90
_cell_angle_gamma                90
_cell_volume                     762.65
_exptl_crystal_colour            colorless
_exptl_crystal_description       plate
_cell_formula_units_Z            4
loop_
_atom_site_label
_atom_site_type_symbol
_atom_site_fract_x
_atom_site_fract_y
_atom_site_fract_z
C1 C 0.7964(4) 0.0405(2) 0.6888(2)
C2 C 0.8097(3) 0.16578(16) 0.62476(15)
C3 C 0.8526(2) 0.27488(14) 0.70623(12)
H1 H 0.9956 0.3133 0.6900
C4 C 0.6844(4) 0.38478(15) 0.70320(14)
H2 H 0.7040 0.4377 0.6341
H3 H 0.5408 0.3451 0.7003
C5 C 0.6995(4) 0.4727(3) 0.8043(2)
C6 C 0.7178(3) 0.40134(14) 0.91725(11)
H4 H 0.8577 0.4211 0.9513
H5 H 0.6063 0.4343 0.9688
C7 C 0.6942(3) 0.25287(17) 0.90463(14)
H6 H 0.7144 0.2098 0.9785
H7 H 0.5499 0.2314 0.8770
C8 C 0.8595(2) 0.20353(15) 0.82191(12)
H8 H 1.0042 0.2141 0.8556
C9 C 0.7804(3) 0.16972(13) 0.51383(12)
H9 H 0.7501 0.0914 0.4736
H10 H 0.7897 0.2508 0.4749
O1 O 0.8211(3) 0.06455(12) 0.79918(10)
O2 O 0.76597(18) -0.06859(10) 0.65334(8)
O3 O 0.6997(3) 0.59126(19) 0.79864(16)
C10? C 0.738(4) 0.053(3) 0.681(2)
C11? C 0.712(4) 0.1645(14) 0.6219(17)
C12? C 0.640(3) 0.2728(15) 0.7060(12)
H11? H 0.4948 0.3053 0.6869
C13? C 0.796(4) 0.3814(18) 0.7050(14)
H12? H 0.7743 0.4379 0.6383
H13? H 0.9430 0.3469 0.7035
C14? C 0.753(4) 0.463(3) 0.820(2)
C15? C 0.7178(3) 0.40134(14) 0.91725(11)
H14? H 0.5649 0.4041 0.9368
H15? H 0.8000 0.4424 0.9789
C16? C 0.796(4) 0.2501(18) 0.8968(15)
H16? H 0.9388 0.2475 0.8622
H17? H 0.7986 0.2005 0.9684
C17? C 0.639(3) 0.1984(16) 0.8221(13)
H18? H 0.4952 0.2029 0.8573
C18? C 0.7804(3) 0.16972(13) 0.51383(12)
H19? H 0.8456 0.0952 0.4805
H20? H 0.7631 0.2479 0.4714
O4? O 0.699(3) 0.0621(11) 0.8006(10)
O5? O 0.76597(18) -0.06859(10) 0.65334(8)
O6? O 0.780(3) 0.589(2) 0.808(2)
loop_
_geom_bond_atom_site_label_1
_geom_bond_atom_site_label_2
_geom_bond_site_symmetry_1
_geom_bond_site_symmetry_2
C1 C2 1_555 1_555
C2 C3 1_555 1_555
C3 H1 1_555 1_555
C4 C3 1_555 1_555
H2 C4 1_555 1_555
H3 C4 1_555 1_555
C5 C4 1_555 1_555
C6 C5 1_555 1_555
H4 C6 1_555 1_555
H5 C6 1_555 1_555
C7 C6 1_555 1_555
H6 C7 1_555 1_555
H7 C7 1_555 1_555
C8 C3 1_555 1_555
H8 C8 1_555 1_555
C9 C2 1_555 1_555
H9 C9 1_555 1_555
H10 C9 1_555 1_555
O1 C1 1_555 1_555
O2 C1 1_555 1_555
O3 C5 1_555 1_555
C7 C8 1_555 1_555
C8 O1 1_555 1_555

#END
