
#######################################################################
#
#                 Cambridge Crystallographic Data Centre
#                                CCDC 
#
#######################################################################
#
# If this CIF has been generated from an entry in the Cambridge 
# Structural Database, then it will include bibliographic, chemical, 
# crystal, experimental, refinement or atomic coordinate data resulting 
# from the CCDC's data processing and validation procedures.
#
#######################################################################

data_GIZRAJ
_chemical_formula_moiety         'C16 H23 N1 O4'
_chemical_name_systematic        
(3aR,7R,7aS)-5-Benzyl-7-(hydroxymethyl)-2,2-dimethyl-hexahydro[1,3]dioxolo[4,5-c]pyridin-7-ol
_symmetry_cell_setting           monoclinic
_symmetry_space_group_name_H-M   'P 21'
_symmetry_Int_Tables_number      4
_space_group_name_Hall           'P 2yb'
loop_
_symmetry_equiv_pos_site_id
_symmetry_equiv_pos_as_xyz
1 x,y,z
2 -x,1/2+y,-z
_cell_length_a                   10.9255(6)
_cell_length_b                   5.6715(3)
_cell_length_c                   12.9037(8)
_cell_angle_alpha                90
_cell_angle_beta                 107.143(1)
_cell_angle_gamma                90
_cell_volume                     764.042
_exptl_crystal_colour            colorless
_exptl_crystal_description       needle
_chemical_melting_point          '152-154 deg.C'
_cell_formula_units_Z            2
_exptl_crystal_recrystallization_method 'ethyl acetate/petroleum ether'
loop_
_atom_site_label
_atom_site_type_symbol
_atom_site_fract_x
_atom_site_fract_y
_atom_site_fract_z
O1 O 0.3181(2) 0.8253(5) 0.22366(19)
C1 C 0.2541(4) 0.9766(8) 0.1337(3)
C2 C 0.4706(4) 0.9872(8) 0.1576(3)
H1 H 0.4912 1.1136 0.2118
O2 O 0.3490(3) 1.0357(5) 0.0800(2)
C3 C 0.5841(4) 0.9479(8) 0.1146(3)
H2 H 0.5669 0.8201 0.0623
H3 H 0.6029 1.0895 0.0800
N1 N 0.6911(3) 0.8879(6) 0.2101(2)
C4 C 0.6652(4) 0.6756(8) 0.2661(3)
H4 H 0.7400 0.6414 0.3267
H5 H 0.6521 0.5432 0.2164
C5 C 0.5476(4) 0.6975(7) 0.3085(3)
C6 C 0.4399(4) 0.7665(7) 0.2090(3)
H6 H 0.4270 0.6382 0.1560
C7 C 0.5689(4) 0.8690(8) 0.4015(3)
H7 H 0.6432 0.8197 0.4597
H8 H 0.5868 1.0238 0.3775
C8 C 0.2093(5) 1.1917(9) 0.1790(4)
H9 H 0.1537 1.1458 0.2209
H10 H 0.1635 1.2924 0.1206
H11 H 0.2818 1.2748 0.2245
C9 C 0.1476(4) 0.8435(10) 0.0544(3)
H12 H 0.1811 0.7011 0.0330
H13 H 0.1113 0.9396 -0.0084
H14 H 0.0826 0.8050 0.0880
C10 C 0.8097(4) 0.8598(11) 0.1800(3)
H15 H 0.8167 0.9892 0.1329
H16 H 0.8045 0.7148 0.1390
C11 C 0.9298(4) 0.8532(9) 0.2760(3)
C12 C 0.9551(4) 1.0335(8) 0.3503(3)
H17 H 0.8964 1.1559 0.3426
C13 C 1.0666(4) 1.0360(9) 0.4365(4)
H18 H 1.0826 1.1587 0.4865
C14 C 1.1533(4) 0.8545(9) 0.4471(4)
H19 H 1.2287 0.8556 0.5043
C15 C 1.1294(5) 0.6727(10) 0.3740(4)
H20 H 1.1880 0.5502 0.3817
C16 C 1.0172(4) 0.6726(9) 0.2887(4)
H21 H 1.0007 0.5488 0.2392
O3 O 0.5234(3) 0.4650(5) 0.3413(2)
H22 H 0.5188 0.4690 0.4035
O4 O 0.4614(3) 0.8844(6) 0.4417(2)
H23 H 0.3972 0.9152 0.3917
loop_
_geom_bond_atom_site_label_1
_geom_bond_atom_site_label_2
_geom_bond_site_symmetry_1
_geom_bond_site_symmetry_2
O1 C1 1_555 1_555
C1 O2 1_555 1_555
C2 H1 1_555 1_555
O2 C2 1_555 1_555
C3 C2 1_555 1_555
H2 C3 1_555 1_555
H3 C3 1_555 1_555
N1 C3 1_555 1_555
C4 N1 1_555 1_555
H4 C4 1_555 1_555
H5 C4 1_555 1_555
C5 C4 1_555 1_555
C6 O1 1_555 1_555
H6 C6 1_555 1_555
C7 C5 1_555 1_555
H7 C7 1_555 1_555
H8 C7 1_555 1_555
C8 C1 1_555 1_555
H9 C8 1_555 1_555
H10 C8 1_555 1_555
H11 C8 1_555 1_555
C9 C1 1_555 1_555
H12 C9 1_555 1_555
H13 C9 1_555 1_555
H14 C9 1_555 1_555
C10 N1 1_555 1_555
H15 C10 1_555 1_555
H16 C10 1_555 1_555
C11 C10 1_555 1_555
C12 C11 1_555 1_555
H17 C12 1_555 1_555
C13 C12 1_555 1_555
H18 C13 1_555 1_555
C14 C13 1_555 1_555
H19 C14 1_555 1_555
C15 C14 1_555 1_555
H20 C15 1_555 1_555
C16 C11 1_555 1_555
H21 C16 1_555 1_555
O3 C5 1_555 1_555
H22 O3 1_555 1_555
O4 C7 1_555 1_555
H23 O4 1_555 1_555
C2 C6 1_555 1_555
C5 C6 1_555 1_555
C15 C16 1_555 1_555

#END
