
#######################################################################
#
#                 Cambridge Crystallographic Data Centre
#                                CCDC 
#
#######################################################################
#
# If this CIF has been generated from an entry in the Cambridge 
# Structural Database, then it will include bibliographic, chemical, 
# crystal, experimental, refinement or atomic coordinate data resulting 
# from the CCDC's data processing and validation procedures.
#
#######################################################################

data_GLYALB
_chemical_formula_moiety         'C5 H10 N2 O3'
_chemical_name_systematic        Glycyl-L-alanine
_symmetry_cell_setting           orthorhombic
_symmetry_space_group_name_H-M   'P 21 21 21'
_symmetry_Int_Tables_number      19
_space_group_name_Hall           'P 2ac 2ab'
loop_
_symmetry_equiv_pos_site_id
_symmetry_equiv_pos_as_xyz
1 x,y,z
2 1/2+x,1/2-y,-z
3 -x,1/2+y,1/2-z
4 1/2-x,-y,1/2+z
_cell_length_a                   9.693(3)
_cell_length_b                   9.524(3)
_cell_length_c                   7.537(2)
_cell_angle_alpha                90
_cell_angle_beta                 90
_cell_angle_gamma                90
_cell_volume                     695.787
_cell_formula_units_Z            4
loop_
_atom_site_label
_atom_site_type_symbol
_atom_site_fract_x
_atom_site_fract_y
_atom_site_fract_z
N1 N 0.15090 0.99330 0.98560
C1 C 0.13150 0.88280 0.85080
C2 C 0.26330 0.79530 0.84170
O1 O 0.34970 0.80060 0.95980
N2 N 0.27500 0.71550 0.69630
C3 C 0.38850 0.61650 0.67820
C4 C 0.35130 0.50690 0.53890
C5 C 0.52630 0.68450 0.62470
O2 O 0.63270 0.62450 0.67950
O3 O 0.52730 0.78680 0.51950
H1 H 0.15400 0.95300 1.10800
H2 H 0.22700 1.03600 0.96200
H3 H 0.08000 1.06200 0.99100
H4 H 0.04900 0.82600 0.87600
H5 H 0.11400 0.93200 0.73500
H6 H 0.20000 0.70800 0.61800
H7 H 0.40700 0.57300 0.79300
H8 H 0.34200 0.54800 0.41300
H9 H 0.43600 0.43700 0.52000
H10 H 0.25500 0.45700 0.59100
loop_
_geom_bond_atom_site_label_1
_geom_bond_atom_site_label_2
_geom_bond_site_symmetry_1
_geom_bond_site_symmetry_2
N1 C1 1_555 1_555
C1 C2 1_555 1_555
C2 O1 1_555 1_555
N2 C2 1_555 1_555
C3 N2 1_555 1_555
C4 C3 1_555 1_555
C5 C3 1_555 1_555
O2 C5 1_555 1_555
O3 C5 1_555 1_555
H1 N1 1_555 1_555
H2 N1 1_555 1_555
H3 N1 1_555 1_555
H4 C1 1_555 1_555
H5 C1 1_555 1_555
H6 N2 1_555 1_555
H7 C3 1_555 1_555
H8 C4 1_555 1_555
H9 C4 1_555 1_555
H10 C4 1_555 1_555

#END
