
#######################################################################
#
#                 Cambridge Crystallographic Data Centre
#                                CCDC 
#
#######################################################################
#
# If this CIF has been generated from an entry in the Cambridge 
# Structural Database, then it will include bibliographic, chemical, 
# crystal, experimental, refinement or atomic coordinate data resulting 
# from the CCDC's data processing and validation procedures.
#
#######################################################################

data_GOBCIK01
_chemical_formula_moiety         'C34 H36 F2 S2 Si2'
_chemical_name_systematic        
((2,8-Difluorothieno[2',3':6,7]anthra[2,3-b]thiene-5,11-diyl)diethyne-2,1-diyl)bis(triethylsilane)
_symmetry_cell_setting           triclinic
_symmetry_space_group_name_H-M   'P -1'
_symmetry_Int_Tables_number      2
_space_group_name_Hall           '-P 1'
loop_
_symmetry_equiv_pos_site_id
_symmetry_equiv_pos_as_xyz
1 x,y,z
2 -x,-y,-z
_cell_length_a                   7.0493(17)
_cell_length_b                   7.9236(15)
_cell_length_c                   16.025(2)
_cell_angle_alpha                87.014(13)
_cell_angle_beta                 84.846(15)
_cell_angle_gamma                63.64(2)
_cell_volume                     798.703
_exptl_crystal_colour            'dark red'
_exptl_crystal_description       block
_cell_formula_units_Z            1
loop_
_atom_site_label
_atom_site_type_symbol
_atom_site_fract_x
_atom_site_fract_y
_atom_site_fract_z
C1 C -0.0683(5) 0.8541(5) 0.1602(2)
C2 C -0.0887(6) 0.7898(5) 0.2281(2)
C3 C 0.0131(6) 0.4321(5) 0.3284(2)
H1 H 0.0147 0.3810 0.3849
H2 H -0.0841 0.4047 0.2989
C4 C 0.2349(8) 0.3298(6) 0.2850(3)
H3 H 0.2369 0.3807 0.2294
H4 H 0.2722 0.1980 0.2819
H5 H 0.3353 0.3465 0.3162
C5 C 0.0804(6) 0.7602(5) 0.3947(2)
H6 H 0.0629 0.7314 0.4536
H7 H 0.2276 0.6840 0.3756
C6 C 0.0314(7) 0.9683(5) 0.3850(2)
H8 H 0.0620 0.9952 0.3276
H9 H 0.1173 0.9955 0.4202
H10 H -0.1160 1.0449 0.4011
C7 C -0.3703(6) 0.8013(5) 0.3838(2)
H11 H -0.4201 0.9366 0.3856
H12 H -0.4600 0.7775 0.3483
C8 C -0.3973(7) 0.7292(7) 0.4725(2)
H13 H -0.3492 0.5953 0.4716
H14 H -0.5444 0.7891 0.4924
H15 H -0.3153 0.7579 0.5091
C9 C -0.0356(6) 0.9278(5) 0.07915(19)
C10 C 0.0822(6) 0.8022(5) 0.01442(19)
C11 C 0.1689(6) 0.6029(5) 0.0266(2)
H16 H 0.1455 0.5534 0.0782
C12 C 0.2861(6) 0.4848(5) -0.0371(2)
C13 C 0.491(3) 0.2107(15) -0.1085(9)
C14 C 0.383(5) 0.271(3) -0.0345(11)
H17 H 0.3688 0.1961 0.0100
C15 C 0.3284(6) 0.5566(5) -0.1170(2)
C16 C 0.2441(6) 0.7482(5) -0.1313(2)
H18 H 0.2679 0.7945 -0.1837
C17 C 0.1226(6) 0.8740(5) -0.06722(19)
F1 F 0.6045(11) 0.0305(8) -0.1313(3)
Si1 Si -0.09279(16) 0.69342(13) 0.33497(5)
S1 S 0.4873(10) 0.3816(9) -0.1847(2)
C1A C 0.0683(5) 1.1459(5) -0.1602(2)
C2A C 0.0887(6) 1.2102(5) -0.2281(2)
C3A C -0.0131(6) 1.5679(5) -0.3284(2)
H1A H -0.0147 1.6190 -0.3849
H2A H 0.0841 1.5953 -0.2989
C4A C -0.2349(8) 1.6702(6) -0.2850(3)
H3A H -0.2369 1.6193 -0.2294
H4A H -0.2722 1.8020 -0.2819
H5A H -0.3353 1.6535 -0.3162
C5A C -0.0804(6) 1.2398(5) -0.3947(2)
H6A H -0.0629 1.2686 -0.4536
H7A H -0.2276 1.3160 -0.3756
C6A C -0.0314(7) 1.0317(5) -0.3850(2)
H8A H -0.0620 1.0048 -0.3276
H9A H -0.1173 1.0045 -0.4202
H10A H 0.1160 0.9551 -0.4011
C7A C 0.3703(6) 1.1987(5) -0.3838(2)
H11A H 0.4201 1.0634 -0.3856
H12A H 0.4600 1.2225 -0.3483
C8A C 0.3973(7) 1.2708(7) -0.4725(2)
H13A H 0.3492 1.4047 -0.4716
H14A H 0.5444 1.2109 -0.4924
H15A H 0.3153 1.2421 -0.5091
C9A C 0.0356(6) 1.0722(5) -0.07915(19)
C10A C -0.0822(6) 1.1978(5) -0.01442(19)
C11A C -0.1689(6) 1.3971(5) -0.0266(2)
H16A H -0.1455 1.4466 -0.0782
C12A C -0.2861(6) 1.5152(5) 0.0371(2)
C13A C -0.491(3) 1.7893(15) 0.1085(9)
C14A C -0.383(5) 1.729(3) 0.0345(11)
H17A H -0.3688 1.8039 -0.0100
C15A C -0.3284(6) 1.4434(5) 0.1170(2)
C16A C -0.2441(6) 1.2518(5) 0.1313(2)
H18A H -0.2679 1.2055 0.1837
C17A C -0.1226(6) 1.1260(5) 0.06722(19)
F1A F -0.6045(11) 1.9695(8) 0.1313(3)
Si1A Si 0.09279(16) 1.30658(13) -0.33497(5)
S1A S -0.4873(10) 1.6184(9) 0.1847(2)
C18? C 0.508(4) 0.2381(16) -0.1370(9)
C19? C 0.448(3) 0.403(3) -0.1806(11)
F2? F 0.6280(11) 0.0679(8) -0.1716(4)
H19? H 0.4747 0.4182 -0.2377
S2? S 0.4074(14) 0.2418(9) -0.0342(3)
loop_
_geom_bond_atom_site_label_1
_geom_bond_atom_site_label_2
_geom_bond_site_symmetry_1
_geom_bond_site_symmetry_2
C1 C2 1_555 1_555
C2 Si1 1_555 1_555
C3 H1 1_555 1_555
H2 C3 1_555 1_555
C4 C3 1_555 1_555
H3 C4 1_555 1_555
H4 C4 1_555 1_555
H5 C4 1_555 1_555
C5 H6 1_555 1_555
H7 C5 1_555 1_555
C6 C5 1_555 1_555
H8 C6 1_555 1_555
H9 C6 1_555 1_555
H10 C6 1_555 1_555
C7 H11 1_555 1_555
H12 C7 1_555 1_555
C8 C7 1_555 1_555
H13 C8 1_555 1_555
H14 C8 1_555 1_555
H15 C8 1_555 1_555
C9 C1 1_555 1_555
C10 C9 1_555 1_555
C11 C10 1_555 1_555
H16 C11 1_555 1_555
C12 C11 1_555 1_555
C13 C14 1_555 1_555
C14 C12 1_555 1_555
H17 C14 1_555 1_555
C15 C12 1_555 1_555
C16 C15 1_555 1_555
H18 C16 1_555 1_555
C17 C10 1_555 1_555
F1 C13 1_555 1_555
Si1 C3 1_555 1_555
S1 C13 1_555 1_555
C1A C2A 1_555 1_555
C2A Si1A 1_555 1_555
C3A H1A 1_555 1_555
H2A C3A 1_555 1_555
C4A C3A 1_555 1_555
H3A C4A 1_555 1_555
H4A C4A 1_555 1_555
H5A C4A 1_555 1_555
C5A H6A 1_555 1_555
H7A C5A 1_555 1_555
C6A C5A 1_555 1_555
H8A C6A 1_555 1_555
H9A C6A 1_555 1_555
H10A C6A 1_555 1_555
C7A H11A 1_555 1_555
H12A C7A 1_555 1_555
C8A C7A 1_555 1_555
H13A C8A 1_555 1_555
H14A C8A 1_555 1_555
H15A C8A 1_555 1_555
C9A C17 1_555 1_555
C10A C9A 1_555 1_555
C11A C10A 1_555 1_555
H16A C11A 1_555 1_555
C12A C11A 1_555 1_555
C13A C14A 1_555 1_555
C14A C12A 1_555 1_555
H17A C14A 1_555 1_555
C15A C12A 1_555 1_555
C16A C15A 1_555 1_555
H18A C16A 1_555 1_555
C17A C9 1_555 1_555
F1A C13A 1_555 1_555
Si1A C3A 1_555 1_555
S1A C13A 1_555 1_555
C5 Si1 1_555 1_555
C7 Si1 1_555 1_555
C15 S1 1_555 1_555
C16 C17 1_555 1_555
C1A C9A 1_555 1_555
C5A Si1A 1_555 1_555
C7A Si1A 1_555 1_555
C10A C17A 1_555 1_555
C15A S1A 1_555 1_555
C16A C17A 1_555 1_555

#END
