
#######################################################################
#
#                 Cambridge Crystallographic Data Centre
#                                CCDC 
#
#######################################################################
#
# If this CIF has been generated from an entry in the Cambridge 
# Structural Database, then it will include bibliographic, chemical, 
# crystal, experimental, refinement or atomic coordinate data resulting 
# from the CCDC's data processing and validation procedures.
#
#######################################################################

data_GOBLUF
_chemical_formula_moiety         'C31 H24 O4 S2'
_chemical_name_systematic        
9,9'-Methanediylidenebis(1,8-dimethoxy-9H-thioxanthene)
_symmetry_cell_setting           monoclinic
_symmetry_space_group_name_H-M   'P 21/c'
_symmetry_Int_Tables_number      14
_space_group_name_Hall           '-P 2ybc'
loop_
_symmetry_equiv_pos_site_id
_symmetry_equiv_pos_as_xyz
1 x,y,z
2 -x,1/2+y,1/2-z
3 -x,-y,-z
4 x,1/2-y,1/2+z
_cell_length_a                   10.972(2)
_cell_length_b                   12.222(2)
_cell_length_c                   19.955(4)
_cell_angle_alpha                90
_cell_angle_beta                 98.005(1)
_cell_angle_gamma                90
_cell_volume                     2649.89
_exptl_crystal_colour            colorless
_exptl_crystal_description       plate
_chemical_melting_point          '269-271 deg.C'
_cell_formula_units_Z            4
_exptl_crystal_recrystallization_method dichloromethane/n-hexane
loop_
_atom_site_label
_atom_site_type_symbol
_atom_site_fract_x
_atom_site_fract_y
_atom_site_fract_z
C1 C 0.4732(3) 0.0455(3) 0.61058(16)
C2 C 0.3615(3) 0.0277(3) 0.56932(18)
H1 H 0.2983 0.0813 0.5667
C3 C 0.3426(3) -0.0679(4) 0.53214(17)
H2 H 0.2663 -0.0794 0.5041
C4 C 0.4340(3) -0.1473(3) 0.53530(17)
H3 H 0.4205 -0.2132 0.5101
C5 C 0.5460(3) -0.1282(3) 0.57629(16)
C6 C 0.7547(3) -0.2093(3) 0.65210(18)
C7 C 0.8290(4) -0.2985(3) 0.6752(2)
H4 H 0.8251 -0.3646 0.6499
C8 C 0.9082(4) -0.2893(4) 0.7352(2)
H5 H 0.9600 -0.3489 0.7510
C9 C 0.9122(4) -0.1934(4) 0.7724(2)
H6 H 0.9645 -0.1885 0.8145
C10 C 0.8402(3) -0.1045(3) 0.74862(18)
C11 C 0.7593(3) -0.1098(3) 0.68710(17)
C12 C 0.6909(3) -0.0132(3) 0.65569(15)
C13 C 0.5690(3) -0.0322(3) 0.61390(15)
C14 C 0.4009(4) 0.2184(4) 0.6464(3)
H7 H 0.3807 0.2460 0.6001
H8 H 0.4295 0.2790 0.6767
H9 H 0.3275 0.1855 0.6609
C15 C 0.9250(5) 0.0042(4) 0.8429(2)
H10 H 0.8991 -0.0445 0.8773
H11 H 0.9239 0.0801 0.8586
H12 H 1.0085 -0.0152 0.8351
C16 C 0.7357(3) 0.0872(3) 0.65880(15)
C17 C 0.6898(4) 0.2811(3) 0.74703(18)
C18 C 0.6318(4) 0.3696(3) 0.7727(2)
H13 H 0.6105 0.3665 0.8172
C19 C 0.6049(5) 0.4622(4) 0.7337(2)
H14 H 0.5621 0.5211 0.7509
C20 C 0.6396(4) 0.4700(3) 0.6701(2)
H15 H 0.6227 0.5344 0.6438
C21 C 0.7001(4) 0.3816(3) 0.64477(19)
C22 C 0.8518(3) 0.2992(3) 0.55818(17)
C23 C 0.9323(4) 0.3176(4) 0.5108(2)
H16 H 0.9259 0.3823 0.4841
C24 C 1.0215(4) 0.2400(5) 0.5033(2)
H17 H 1.0753 0.2509 0.4705
C25 C 1.0332(3) 0.1466(4) 0.5430(2)
H18 H 1.0948 0.0941 0.5374
C26 C 0.9545(3) 0.1296(3) 0.59124(17)
C27 C 0.8599(3) 0.2055(3) 0.59851(16)
C28 C 0.7729(3) 0.1873(3) 0.64878(15)
C29 C 0.7249(3) 0.2853(3) 0.68143(17)
C30 C 0.6584(5) 0.1666(4) 0.8398(2)
H19 H 0.6951 0.2139 0.8769
H20 H 0.6700 0.0898 0.8533
H21 H 0.5702 0.1824 0.8295
C31 C 1.0682(4) -0.0277(4) 0.6366(3)
H22 H 1.0738 -0.0599 0.5922
H23 H 1.0625 -0.0861 0.6696
H24 H 1.1417 0.0166 0.6509
O1 O 0.4954(2) 0.1382(2) 0.64851(14)
O2 O 0.8430(3) -0.0071(2) 0.78168(13)
O3 O 0.7161(3) 0.1866(2) 0.78161(13)
O4 O 0.9612(2) 0.0402(2) 0.63235(14)
S1 S 0.66108(9) -0.22796(8) 0.57384(5)
S2 S 0.73593(10) 0.39799(8) 0.56185(5)
loop_
_geom_bond_atom_site_label_1
_geom_bond_atom_site_label_2
_geom_bond_site_symmetry_1
_geom_bond_site_symmetry_2
C1 C2 1_555 1_555
C2 H1 1_555 1_555
C3 C2 1_555 1_555
H2 C3 1_555 1_555
C4 C3 1_555 1_555
H3 C4 1_555 1_555
C5 C4 1_555 1_555
C6 C7 1_555 1_555
C7 H4 1_555 1_555
C8 C7 1_555 1_555
H5 C8 1_555 1_555
C9 C8 1_555 1_555
H6 C9 1_555 1_555
C10 C9 1_555 1_555
C11 C6 1_555 1_555
C12 C11 1_555 1_555
C13 C1 1_555 1_555
C14 H7 1_555 1_555
H8 C14 1_555 1_555
H9 C14 1_555 1_555
C15 H10 1_555 1_555
H11 C15 1_555 1_555
H12 C15 1_555 1_555
C16 C12 1_555 1_555
C17 C18 1_555 1_555
C18 H13 1_555 1_555
C19 C18 1_555 1_555
H14 C19 1_555 1_555
C20 C19 1_555 1_555
H15 C20 1_555 1_555
C21 C20 1_555 1_555
C22 C23 1_555 1_555
C23 H16 1_555 1_555
C24 C23 1_555 1_555
H17 C24 1_555 1_555
C25 C24 1_555 1_555
H18 C25 1_555 1_555
C26 C25 1_555 1_555
C27 C22 1_555 1_555
C28 C16 1_555 1_555
C29 C17 1_555 1_555
C30 H19 1_555 1_555
H20 C30 1_555 1_555
H21 C30 1_555 1_555
C31 H22 1_555 1_555
H23 C31 1_555 1_555
H24 C31 1_555 1_555
O1 C1 1_555 1_555
O2 C10 1_555 1_555
O3 C17 1_555 1_555
O4 C26 1_555 1_555
S1 C5 1_555 1_555
S2 C21 1_555 1_555
C5 C13 1_555 1_555
C6 S1 1_555 1_555
C10 C11 1_555 1_555
C12 C13 1_555 1_555
C14 O1 1_555 1_555
C15 O2 1_555 1_555
C21 C29 1_555 1_555
C22 S2 1_555 1_555
C26 C27 1_555 1_555
C27 C28 1_555 1_555
C28 C29 1_555 1_555
C30 O3 1_555 1_555
C31 O4 1_555 1_555

#END
