
#######################################################################
#
#                 Cambridge Crystallographic Data Centre
#                                CCDC 
#
#######################################################################
#
# If this CIF has been generated from an entry in the Cambridge 
# Structural Database, then it will include bibliographic, chemical, 
# crystal, experimental, refinement or atomic coordinate data resulting 
# from the CCDC's data processing and validation procedures.
#
#######################################################################

data_GOBMEQ
_chemical_formula_moiety         
'C33 H30 O4 S2 2+,2(C1 H6 B11 Br6 1-),2(C1 H2 Cl2)'
_chemical_name_systematic        
"9,9'-Methanediylidenebis(1,8-dimethoxy-10-methyl-9H-thioxanthenium) bis(7,8,9,10,11,12-hexabromo-1-carba-closo-dodecaborate(6)) dichloromethane solvate"
_symmetry_cell_setting           monoclinic
_symmetry_space_group_name_H-M   'P 21/n'
_symmetry_Int_Tables_number      14
_space_group_name_Hall           '-P 2yn'
loop_
_symmetry_equiv_pos_site_id
_symmetry_equiv_pos_as_xyz
1 x,y,z
2 1/2-x,1/2+y,1/2-z
3 -x,-y,-z
4 1/2+x,1/2-y,1/2+z
_cell_length_a                   14.1088(6)
_cell_length_b                   17.7301(7)
_cell_length_c                   27.1659(11)
_cell_angle_alpha                90
_cell_angle_beta                 102.242(1)
_cell_angle_gamma                90
_cell_volume                     6641.04
_exptl_crystal_colour            'light violet'
_exptl_crystal_description       'prism fragment'
_cell_formula_units_Z            4
_exptl_crystal_recrystallization_method dideuterodichloromethane
loop_
_atom_site_label
_atom_site_type_symbol
_atom_site_fract_x
_atom_site_fract_y
_atom_site_fract_z
C1 C 0.7054(3) 0.2607(3) 0.13031(17)
H1 H 0.7682(8) 0.2626(6) 0.1523(4)
B1 B 0.6111(4) 0.2266(3) 0.1532(2)
H2 H 0.6161 0.2045 0.1923
B2 B 0.6601(4) 0.1763(3) 0.10786(19)
H3 H 0.6974 0.1207 0.1172
B3 B 0.7018(4) 0.2427(3) 0.06799(19)
H4 H 0.7662 0.2312 0.0512
B4 B 0.6781(4) 0.3341(3) 0.08911(19)
H5 H 0.7275 0.3826 0.0863
B5 B 0.6216(4) 0.3250(3) 0.1416(2)
H6 H 0.6334 0.3674 0.1729
B6 B 0.5092(4) 0.2785(3) 0.12040(18)
B7 B 0.5332(4) 0.1866(3) 0.09978(19)
B8 B 0.5898(4) 0.1965(3) 0.04731(19)
B9 B 0.6005(4) 0.2947(3) 0.03545(18)
B10 B 0.5511(4) 0.3456(3) 0.08095(18)
B11 B 0.4946(4) 0.2607(3) 0.05472(18)
Br2 Br 0.39561(4) 0.29769(3) 0.149615(17)
Br3 Br 0.45103(4) 0.09995(3) 0.107525(18)
Br4 Br 0.57097(3) 0.12260(3) -0.007490(18)
Br5 Br 0.59488(3) 0.33300(2) -0.032516(16)
Br6 Br 0.49067(3) 0.44460(2) 0.064551(17)
Br7 Br 0.36816(3) 0.25939(2) 0.009503(16)
C2 C 0.5861(4) 0.4966(3) 0.80844(17)
H7 H 0.6051(9) 0.5268(5) 0.8379(4)
B12 B 0.6328(4) 0.5188(3) 0.75768(19)
H8 H 0.6855 0.5656 0.7563
B13 B 0.6678(4) 0.4358(3) 0.7934(2)
H9 H 0.7437 0.4278 0.8154
B14 B 0.5673(4) 0.4029(3) 0.8168(2)
H10 H 0.5769 0.3734 0.8540
B15 B 0.4693(4) 0.4666(3) 0.79505(19)
H11 H 0.4144 0.4791 0.8183
B16 B 0.5096(4) 0.5379(3) 0.75832(19)
H12 H 0.4811 0.5970 0.7573
B17 B 0.5404(4) 0.4947(3) 0.70518(18)
B18 B 0.6389(4) 0.4317(3) 0.7267(2)
B19 B 0.5970(4) 0.3596(3) 0.7633(2)
B20 B 0.4731(4) 0.3792(3) 0.7644(2)
B21 B 0.4384(4) 0.4622(3) 0.72816(19)
B22 B 0.5172(4) 0.3957(3) 0.70791(18)
Br10 Br 0.52579(4) 0.54874(3) 0.641311(17)
Br11 Br 0.73853(4) 0.41075(3) 0.68857(2)
Br12 Br 0.64479(4) 0.25610(3) 0.76541(2)
Br13 Br 0.38108(4) 0.29804(3) 0.767432(19)
Br14 Br 0.30466(3) 0.47724(3) 0.693013(18)
Br15 Br 0.47435(3) 0.33331(3) 0.648574(17)
C3 C 0.2157(3) 0.1542(2) 0.90325(16)
C4 C 0.2918(3) 0.1050(2) 0.90381(17)
H13 H 0.3232 0.1048 0.8762
C5 C 0.3234(3) 0.0560(2) 0.94360(18)
H14 H 0.3766 0.0233 0.9433
C6 C 0.2771(3) 0.0549(2) 0.98402(17)
H15 H 0.2977 0.0216 1.0116
C7 C 0.2003(3) 0.1037(2) 0.98269(16)
C8 C 0.0206(3) 0.1201(2) 1.00455(16)
C9 C -0.0509(3) 0.0882(2) 1.02619(16)
H16 H -0.0350 0.0517 1.0523
C10 C -0.1451(3) 0.1108(2) 1.00878(17)
H17 H -0.1950 0.0905 1.0234
C11 C -0.1681(4) 0.1631(3) 0.97004(17)
H18 H -0.2337 0.1780 0.9582
C12 C -0.0962(3) 0.1938(2) 0.94861(15)
C13 C 0.0011(3) 0.1723(2) 0.96535(15)
C14 C 0.0813(3) 0.2040(2) 0.94316(15)
C15 C 0.1669(3) 0.1547(2) 0.94365(15)
C16 C 0.2116(4) 0.1935(3) 0.81900(18)
H19 H 0.1791 0.2308 0.7945
H20 H 0.1939 0.1426 0.8063
H21 H 0.2820 0.2000 0.8242
C17 C -0.2057(3) 0.2793(3) 0.8977(2)
H22 H -0.2054 0.3179 0.8719
H23 H -0.2227 0.3026 0.9274
H24 H -0.2535 0.2404 0.8843
C18 C 0.1786(3) 0.1866(2) 1.06782(16)
H25 H 0.2491 0.1865 1.0803
H26 H 0.1464 0.1907 1.0963
H27 H 0.1602 0.2295 1.0451
C19 C 0.0806(3) 0.2718(2) 0.92388(15)
C20 C 0.0247(3) 0.3356(2) 0.81688(16)
C21 C 0.0222(3) 0.3598(2) 0.76764(16)
H28 H -0.0251 0.3399 0.7406
C22 C 0.0882(3) 0.4123(2) 0.75815(16)
H29 H 0.0855 0.4288 0.7246
C23 C 0.1573(3) 0.4408(2) 0.79661(17)
H30 H 0.2037 0.4760 0.7899
C24 C 0.1590(3) 0.4174(2) 0.84570(16)
C25 C 0.2097(3) 0.4479(2) 0.94706(16)
C26 C 0.2488(4) 0.4994(3) 0.98485(17)
H31 H 0.2986 0.5334 0.9808
C27 C 0.2127(4) 0.4992(3) 1.02807(18)
H32 H 0.2379 0.5337 1.0543
C28 C 0.1401(4) 0.4493(3) 1.03390(17)
H33 H 0.1158 0.4505 1.0639
C29 C 0.1028(3) 0.3979(3) 0.99635(17)
C30 C 0.1379(3) 0.3958(2) 0.95137(15)
C31 C 0.1006(3) 0.3405(2) 0.91051(15)
C32 C 0.0934(3) 0.3651(2) 0.85750(16)
C33 C -0.0936(4) 0.2398(3) 0.78972(17)
H34 H -0.1312 0.2026 0.8042
H35 H -0.0512 0.2137 0.7710
H36 H -0.1380 0.2731 0.7669
C34 C -0.0151(4) 0.3537(3) 1.04160(19)
H37 H -0.0687 0.3176 1.0376
H38 H -0.0402 0.4050 1.0432
H39 H 0.0322 0.3427 1.0728
C35 C 0.3378(3) 0.3704(3) 0.89926(18)
H40 H 0.3667 0.3662 0.8696
H41 H 0.3015 0.3243 0.9028
H42 H 0.3893 0.3774 0.9294
O1 O 0.1823(2) 0.20399(17) 0.86555(11)
O2 O -0.1120(2) 0.24601(17) 0.91153(11)
O3 O -0.0359(2) 0.28356(17) 0.82927(11)
O4 O 0.0311(2) 0.34772(18) 0.99962(12)
S1 S 0.14220(8) 0.10007(6) 1.03427(4)
S2 S 0.25673(8) 0.45039(6) 0.89193(4)
C36 C 0.4631(4) 0.8661(3) 0.1503(2)
H43 H 0.4565 0.8135 0.1613
H44 H 0.4799 0.8645 0.1167
Cl1 Cl 0.55675(11) 0.91020(8) 0.19278(6)
Cl2 Cl 0.35157(12) 0.91323(9) 0.14537(7)
C37 C 0.9770(10) 0.5947(8) 0.8096(5)
H45 H 0.9850 0.5783 0.7759
H46 H 0.9385 0.6419 0.8054
Cl3 Cl 1.0915(8) 0.6115(8) 0.8485(6)
Cl4 Cl 0.9149(2) 0.52418(19) 0.83637(11)
Br1? Br 0.6788(7) 0.3765(5) 0.1963(3)
Br8? Br 0.729(2) 0.5923(14) 0.7626(11)
Br9? Br 0.8092(8) 0.4397(7) 0.8276(5)
C38? C 0.932(2) 0.569(3) 0.816(3)
H47? H 0.9176 0.5733 0.7785
H48? H 0.9225 0.5165 0.8250
Cl5? Cl 1.053(2) 0.598(3) 0.8405(17)
Cl6? Cl 0.8543(19) 0.6297(16) 0.8409(9)
C39? C 0.914(3) 0.612(2) 0.8096(12)
H49? H 0.8833 0.5968 0.7748
H50? H 0.9621 0.6521 0.8075
Cl7? Cl 0.9739(13) 0.5337(9) 0.8427(5)
Cl8? Cl 0.8240(14) 0.6489(11) 0.8397(7)
C40? C 0.972(3) 0.583(3) 0.8018(17)
H51? H 0.9816 0.5307 0.7913
H52? H 0.9566 0.6148 0.7711
Cl9? Cl 1.081(3) 0.616(2) 0.8410(19)
Cl10? Cl 0.8752(7) 0.5863(7) 0.8336(3)
loop_
_geom_bond_atom_site_label_1
_geom_bond_atom_site_label_2
_geom_bond_site_symmetry_1
_geom_bond_site_symmetry_2
C1 H1 1_555 1_555
B1 C1 1_555 1_555
H2 B1 1_555 1_555
B2 C1 1_555 1_555
H3 B2 1_555 1_555
B3 C1 1_555 1_555
H4 B3 1_555 1_555
B4 C1 1_555 1_555
H5 B4 1_555 1_555
B5 C1 1_555 1_555
H6 B5 1_555 1_555
B6 B1 1_555 1_555
B7 B1 1_555 1_555
B8 B2 1_555 1_555
B9 B3 1_555 1_555
B10 B4 1_555 1_555
B11 B6 1_555 1_555
Br2 B6 1_555 1_555
Br3 B7 1_555 1_555
Br4 B8 1_555 1_555
Br5 B9 1_555 1_555
Br6 B10 1_555 1_555
Br7 B11 1_555 1_555
C2 H7 1_555 1_555
B12 C2 1_555 1_555
H8 B12 1_555 1_555
B13 C2 1_555 1_555
H9 B13 1_555 1_555
B14 C2 1_555 1_555
H10 B14 1_555 1_555
B15 C2 1_555 1_555
H11 B15 1_555 1_555
B16 C2 1_555 1_555
H12 B16 1_555 1_555
B17 B12 1_555 1_555
B18 B12 1_555 1_555
B19 B13 1_555 1_555
B20 B14 1_555 1_555
B21 B15 1_555 1_555
B22 B17 1_555 1_555
Br10 B17 1_555 1_555
Br11 B18 1_555 1_555
Br12 B19 1_555 1_555
Br13 B20 1_555 1_555
Br14 B21 1_555 1_555
Br15 B22 1_555 1_555
C3 C4 1_555 1_555
C4 H13 1_555 1_555
C5 C4 1_555 1_555
H14 C5 1_555 1_555
C6 C5 1_555 1_555
H15 C6 1_555 1_555
C7 C6 1_555 1_555
C8 C9 1_555 1_555
C9 H16 1_555 1_555
C10 C9 1_555 1_555
H17 C10 1_555 1_555
C11 C10 1_555 1_555
H18 C11 1_555 1_555
C12 C11 1_555 1_555
C13 C8 1_555 1_555
C14 C13 1_555 1_555
C15 C3 1_555 1_555
C16 H19 1_555 1_555
H20 C16 1_555 1_555
H21 C16 1_555 1_555
C17 H22 1_555 1_555
H23 C17 1_555 1_555
H24 C17 1_555 1_555
C18 H25 1_555 1_555
H26 C18 1_555 1_555
H27 C18 1_555 1_555
C19 C14 1_555 1_555
C20 C21 1_555 1_555
C21 H28 1_555 1_555
C22 C21 1_555 1_555
H29 C22 1_555 1_555
C23 C22 1_555 1_555
H30 C23 1_555 1_555
C24 C23 1_555 1_555
C25 C26 1_555 1_555
C26 H31 1_555 1_555
C27 C26 1_555 1_555
H32 C27 1_555 1_555
C28 C27 1_555 1_555
H33 C28 1_555 1_555
C29 C28 1_555 1_555
C30 C25 1_555 1_555
C31 C19 1_555 1_555
C32 C20 1_555 1_555
C33 H34 1_555 1_555
H35 C33 1_555 1_555
H36 C33 1_555 1_555
C34 H37 1_555 1_555
H38 C34 1_555 1_555
H39 C34 1_555 1_555
C35 H40 1_555 1_555
H41 C35 1_555 1_555
H42 C35 1_555 1_555
O1 C3 1_555 1_555
O2 C12 1_555 1_555
O3 C20 1_555 1_555
O4 C29 1_555 1_555
S1 C7 1_555 1_555
S2 C24 1_555 1_555
C36 H43 1_555 1_555
H44 C36 1_555 1_555
Cl1 C36 1_555 1_555
Cl2 C36 1_555 1_555
C37 H45 1_555 1_555
H46 C37 1_555 1_555
Cl3 C37 1_555 1_555
Cl4 C37 1_555 1_555
B1 B2 1_555 1_555
B1 B5 1_555 1_555
B2 B3 1_555 1_555
B2 B7 1_555 1_555
B3 B4 1_555 1_555
B3 B8 1_555 1_555
B4 B5 1_555 1_555
B4 B9 1_555 1_555
B5 B6 1_555 1_555
B5 B10 1_555 1_555
B6 B7 1_555 1_555
B6 B10 1_555 1_555
B7 B8 1_555 1_555
B7 B11 1_555 1_555
B8 B9 1_555 1_555
B8 B11 1_555 1_555
B9 B10 1_555 1_555
B9 B11 1_555 1_555
B10 B11 1_555 1_555
B12 B13 1_555 1_555
B12 B16 1_555 1_555
B13 B14 1_555 1_555
B13 B18 1_555 1_555
B14 B15 1_555 1_555
B14 B19 1_555 1_555
B15 B16 1_555 1_555
B15 B20 1_555 1_555
B16 B17 1_555 1_555
B16 B21 1_555 1_555
B17 B18 1_555 1_555
B17 B21 1_555 1_555
B18 B19 1_555 1_555
B18 B22 1_555 1_555
B19 B20 1_555 1_555
B19 B22 1_555 1_555
B20 B21 1_555 1_555
B20 B22 1_555 1_555
B21 B22 1_555 1_555
C7 C15 1_555 1_555
C8 S1 1_555 1_555
C12 C13 1_555 1_555
C14 C15 1_555 1_555
C16 O1 1_555 1_555
C17 O2 1_555 1_555
C18 S1 1_555 1_555
C24 C32 1_555 1_555
C25 S2 1_555 1_555
C29 C30 1_555 1_555
C30 C31 1_555 1_555
C31 C32 1_555 1_555
C33 O3 1_555 1_555
C34 O4 1_555 1_555
C35 S2 1_555 1_555

#END
