
#######################################################################
#
#                 Cambridge Crystallographic Data Centre
#                                CCDC 
#
#######################################################################
#
# If this CIF has been generated from an entry in the Cambridge 
# Structural Database, then it will include bibliographic, chemical, 
# crystal, experimental, refinement or atomic coordinate data resulting 
# from the CCDC's data processing and validation procedures.
#
#######################################################################

data_GOBSAT
_chemical_formula_moiety         'C47 H59 O4 P1,3(C3 H8 O1)'
_chemical_name_systematic        
"3,7-bis(2,4,6-Tri-isopropylphenyl)-10,11,12,13-tetrahydrodiindeno[7,1-de:1',7'-fg][1,3,2]dioxaphosphocin-5-ol 5-oxide isopropanol solvate"
_symmetry_cell_setting           monoclinic
_symmetry_space_group_name_H-M   'P 21'
_symmetry_Int_Tables_number      4
_space_group_name_Hall           'P 2yb'
loop_
_symmetry_equiv_pos_site_id
_symmetry_equiv_pos_as_xyz
1 x,y,z
2 -x,1/2+y,-z
_cell_length_a                   11.7790(13)
_cell_length_b                   17.451(2)
_cell_length_c                   13.8490(16)
_cell_angle_alpha                90
_cell_angle_beta                 110.544(4)
_cell_angle_gamma                90
_cell_volume                     2665.69
_exptl_crystal_colour            colorless
_exptl_crystal_description       prism
_cell_formula_units_Z            2
loop_
_atom_site_label
_atom_site_type_symbol
_atom_site_fract_x
_atom_site_fract_y
_atom_site_fract_z
P1 P 0.30509(4) 0.72170(3) 0.22927(3)
O1 O 0.32816(11) 0.78977(7) 0.16237(9)
O2 O 0.37982(11) 0.64951(7) 0.21133(10)
O3 O 0.34341(12) 0.74759(8) 0.33678(10)
O4 O 0.17296(12) 0.69686(8) 0.17604(10)
H1 H 0.143(2) 0.6704(14) 0.2171(19)
C1 C 0.52631(15) 0.72482(11) 0.08991(13)
C2 C 0.39726(16) 0.74799(10) 0.02695(13)
C3 C 0.30852(16) 0.78235(10) 0.05696(13)
C4 C 0.20354(16) 0.81342(10) -0.01545(14)
C5 C 0.18714(17) 0.80339(11) -0.11966(14)
H2 H 0.1174 0.8249 -0.1703
C6 C 0.26938(18) 0.76305(12) -0.15159(14)
H3 H 0.2538 0.7543 -0.2228
C7 C 0.37483(17) 0.73570(10) -0.07751(14)
C8 C 0.47783(19) 0.69126(12) -0.09254(15)
H4 H 0.5294 0.7248 -0.1176
H5 H 0.4472 0.6482 -0.1414
C9 C 0.54730(18) 0.66201(11) 0.01790(15)
H6 H 0.6348 0.6562 0.0297
H7 H 0.5148 0.6120 0.0299
C10 C 0.56759(16) 0.69619(10) 0.20043(13)
C11 C 0.50709(16) 0.65450(10) 0.25315(13)
C12 C 0.57094(17) 0.61711(10) 0.34628(14)
C13 C 0.69627(17) 0.62933(11) 0.38866(14)
H8 H 0.7416 0.6039 0.4509
C14 C 0.75674(17) 0.67757(11) 0.34263(15)
H9 H 0.8410 0.6874 0.3749
C15 C 0.69158(16) 0.71088(11) 0.24889(14)
C16 C 0.73595(17) 0.76449(12) 0.18419(16)
H10 H 0.7885 0.7374 0.1531
H11 H 0.7813 0.8081 0.2257
C17 C 0.61732(17) 0.79165(11) 0.10063(15)
H12 H 0.6297 0.8010 0.0345
H13 H 0.5876 0.8394 0.1222
C18 C 0.11710(16) 0.86169(10) 0.01635(13)
C19 C 0.15648(17) 0.93457(11) 0.06085(14)
C20 C 0.07558(19) 0.97967(11) 0.08822(15)
H14 H 0.1021 1.0281 0.1191
C21 C -0.04306(18) 0.95673(11) 0.07219(15)
C22 C -0.08064(18) 0.88566(12) 0.02688(15)
H15 H -0.1614 0.8693 0.0148
C23 C -0.00205(17) 0.83736(11) -0.00150(14)
C24 C 0.28288(19) 0.96361(11) 0.07320(17)
H16 H 0.3399 0.9193 0.0957
C25 C 0.3306(2) 1.02743(12) 0.15340(18)
H17 H 0.3244 1.0111 0.2191
H18 H 0.2824 1.0739 0.1293
H19 H 0.4156 1.0380 0.1631
C26 C 0.2853(3) 0.99072(15) -0.0314(2)
H20 H 0.2355 1.0369 -0.0529
H21 H 0.2531 0.9503 -0.0828
H22 H 0.3690 1.0023 -0.0252
C27 C -0.1259(2) 1.01213(12) 0.10243(17)
H23 H -0.0743 1.0382 0.1673
C28 C -0.2294(3) 0.97562(15) 0.1248(2)
H24 H -0.1983 0.9350 0.1761
H25 H -0.2866 0.9537 0.0612
H26 H -0.2707 1.0144 0.1516
C29 C -0.1729(3) 1.07463(15) 0.0209(2)
H27 H -0.2143 1.1142 0.0465
H28 H -0.2299 1.0522 -0.0424
H29 H -0.1047 1.0976 0.0064
C30 C -0.04681(17) 0.76057(12) -0.05280(15)
H30 H 0.0258 0.7308 -0.0525
C31 C -0.11170(19) 0.71311(13) 0.00515(17)
H31 H -0.1901 0.7367 -0.0033
H32 H -0.0619 0.7114 0.0786
H33 H -0.1246 0.6609 -0.0227
C32 C -0.1297(2) 0.77047(15) -0.16570(18)
H34 H -0.0871 0.7998 -0.2028
H35 H -0.2034 0.7979 -0.1685
H36 H -0.1515 0.7200 -0.1979
C33 C 0.51329(16) 0.56090(11) 0.39667(14)
C34 C 0.49184(17) 0.57933(11) 0.48729(14)
C35 C 0.45001(18) 0.52197(11) 0.53711(15)
H37 H 0.4347 0.5345 0.5982
C36 C 0.43020(18) 0.44746(12) 0.50037(15)
C37 C 0.45173(19) 0.43054(12) 0.41008(16)
H38 H 0.4378 0.3798 0.3838
C38 C 0.49275(18) 0.48498(11) 0.35687(14)
C39 C 0.51495(18) 0.66000(11) 0.53262(14)
H39 H 0.5186 0.6954 0.4770
C40 C 0.4131(2) 0.68833(13) 0.56853(16)
H40 H 0.4179 0.6616 0.6321
H41 H 0.3345 0.6779 0.5149
H42 H 0.4219 0.7436 0.5816
C41 C 0.6373(2) 0.66531(13) 0.62210(17)
H43 H 0.7026 0.6492 0.5980
H44 H 0.6360 0.6318 0.6785
H45 H 0.6513 0.7183 0.6468
C42 C 0.3862(2) 0.38343(13) 0.55408(17)
H46 H 0.4316 0.3361 0.5490
C43 C 0.2530(3) 0.36685(19) 0.4982(2)
H47 H 0.2386 0.3572 0.4251
H48 H 0.2048 0.4110 0.5046
H49 H 0.2294 0.3216 0.5286
C44 C 0.4130(3) 0.39792(17) 0.6675(2)
H50 H 0.3954 0.3515 0.6996
H51 H 0.3622 0.4401 0.6757
H52 H 0.4986 0.4115 0.7007
C45 C 0.5254(2) 0.46129(12) 0.26405(16)
H53 H 0.5233 0.5084 0.2223
C46 C 0.4366(3) 0.40330(15) 0.19397(19)
H54 H 0.3541 0.4242 0.1719
H55 H 0.4399 0.3554 0.2319
H56 H 0.4588 0.3932 0.1333
C47 C 0.6547(2) 0.42972(15) 0.2998(2)
H57 H 0.6616 0.3865 0.3467
H58 H 0.7118 0.4701 0.3357
H59 H 0.6736 0.4123 0.2398
O5 O 0.07356(16) 0.62208(10) 0.28295(14)
H60 H 0.069(3) 0.6483(17) 0.341(2)
C48 C -0.0156(3) 0.5044(2) 0.3157(3)
H61 H -0.0337 0.5293 0.3720
H62 H -0.0027 0.4495 0.3301
H63 H -0.0838 0.5117 0.2509
C49 C 0.0974(3) 0.53930(15) 0.3064(2)
H64 H 0.1667 0.5331 0.3729
C50 C 0.1304(4) 0.50584(19) 0.2202(3)
H65 H 0.0635 0.5137 0.1547
H66 H 0.1458 0.4508 0.2320
H67 H 0.2036 0.5311 0.2174
O6 O 0.07145(14) 0.69543(10) 0.45667(12)
H75 H 0.108(3) 0.7362(17) 0.452(2)
C54 C 0.1058(5) 0.6007(2) 0.5862(3)
H76 H 0.1642 0.5765 0.5599
H77 H 0.0252 0.5787 0.5512
H78 H 0.1303 0.5916 0.6605
C55 C 0.1021(2) 0.68463(16) 0.56625(17)
H79 H 0.1848 0.7063 0.6025
C56 C 0.0127(2) 0.7268(2) 0.6031(2)
H80 H -0.0694 0.7079 0.5656
H81 H 0.0166 0.7818 0.5903
H82 H 0.0329 0.7179 0.6771
O7 O 0.19361(15) 0.81606(9) 0.42422(13)
H83 H 0.244(3) 0.7921(17) 0.399(2)
C57 C 0.0297(3) 0.9023(2) 0.3977(3)
H84 H 0.0613 0.9178 0.4703
H85 H -0.0239 0.8580 0.3896
H86 H -0.0158 0.9449 0.3556
C58 C 0.1350(2) 0.88091(14) 0.36298(19)
H87 H 0.1026 0.8658 0.2886
C59 C 0.2231(3) 0.94522(17) 0.3775(2)
H88 H 0.2862 0.9302 0.3502
H89 H 0.2604 0.9569 0.4511
H90 H 0.1806 0.9906 0.3406
C51? C -0.0508(18) 0.5156(11) 0.2873(16)
H68? H -0.0086 0.5058 0.3609
H69? H -0.0861 0.4678 0.2526
H70? H -0.1153 0.5533 0.2786
C52? C 0.0402(11) 0.5472(6) 0.2396(11)
H71? H 0.0032 0.5496 0.1627
C53? C 0.1658(16) 0.5055(8) 0.2747(16)
H72? H 0.2170 0.5287 0.2400
H73? H 0.1537 0.4511 0.2566
H74? H 0.2055 0.5108 0.3496
loop_
_geom_bond_atom_site_label_1
_geom_bond_atom_site_label_2
_geom_bond_site_symmetry_1
_geom_bond_site_symmetry_2
P1 O1 1_555 1_555
O1 C3 1_555 1_555
O2 P1 1_555 1_555
O3 P1 1_555 1_555
O4 P1 1_555 1_555
H1 O4 1_555 1_555
C1 C2 1_555 1_555
C2 C3 1_555 1_555
C3 C4 1_555 1_555
C4 C5 1_555 1_555
C5 H2 1_555 1_555
C6 C5 1_555 1_555
H3 C6 1_555 1_555
C7 C2 1_555 1_555
C8 C7 1_555 1_555
H4 C8 1_555 1_555
H5 C8 1_555 1_555
C9 C1 1_555 1_555
H6 C9 1_555 1_555
H7 C9 1_555 1_555
C10 C1 1_555 1_555
C11 O2 1_555 1_555
C12 C11 1_555 1_555
C13 C12 1_555 1_555
H8 C13 1_555 1_555
C14 C13 1_555 1_555
H9 C14 1_555 1_555
C15 C10 1_555 1_555
C16 C15 1_555 1_555
H10 C16 1_555 1_555
H11 C16 1_555 1_555
C17 C1 1_555 1_555
H12 C17 1_555 1_555
H13 C17 1_555 1_555
C18 C4 1_555 1_555
C19 C18 1_555 1_555
C20 C19 1_555 1_555
H14 C20 1_555 1_555
C21 C20 1_555 1_555
C22 C21 1_555 1_555
H15 C22 1_555 1_555
C23 C18 1_555 1_555
C24 C19 1_555 1_555
H16 C24 1_555 1_555
C25 C24 1_555 1_555
H17 C25 1_555 1_555
H18 C25 1_555 1_555
H19 C25 1_555 1_555
C26 C24 1_555 1_555
H20 C26 1_555 1_555
H21 C26 1_555 1_555
H22 C26 1_555 1_555
C27 C21 1_555 1_555
H23 C27 1_555 1_555
C28 C27 1_555 1_555
H24 C28 1_555 1_555
H25 C28 1_555 1_555
H26 C28 1_555 1_555
C29 C27 1_555 1_555
H27 C29 1_555 1_555
H28 C29 1_555 1_555
H29 C29 1_555 1_555
C30 C23 1_555 1_555
H30 C30 1_555 1_555
C31 C30 1_555 1_555
H31 C31 1_555 1_555
H32 C31 1_555 1_555
H33 C31 1_555 1_555
C32 C30 1_555 1_555
H34 C32 1_555 1_555
H35 C32 1_555 1_555
H36 C32 1_555 1_555
C33 C12 1_555 1_555
C34 C33 1_555 1_555
C35 C34 1_555 1_555
H37 C35 1_555 1_555
C36 C35 1_555 1_555
C37 C36 1_555 1_555
H38 C37 1_555 1_555
C38 C33 1_555 1_555
C39 C34 1_555 1_555
H39 C39 1_555 1_555
C40 C39 1_555 1_555
H40 C40 1_555 1_555
H41 C40 1_555 1_555
H42 C40 1_555 1_555
C41 C39 1_555 1_555
H43 C41 1_555 1_555
H44 C41 1_555 1_555
H45 C41 1_555 1_555
C42 C36 1_555 1_555
H46 C42 1_555 1_555
C43 C42 1_555 1_555
H47 C43 1_555 1_555
H48 C43 1_555 1_555
H49 C43 1_555 1_555
C44 C42 1_555 1_555
H50 C44 1_555 1_555
H51 C44 1_555 1_555
H52 C44 1_555 1_555
C45 C38 1_555 1_555
H53 C45 1_555 1_555
C46 C45 1_555 1_555
H54 C46 1_555 1_555
H55 C46 1_555 1_555
H56 C46 1_555 1_555
C47 C45 1_555 1_555
H57 C47 1_555 1_555
H58 C47 1_555 1_555
H59 C47 1_555 1_555
O5 H60 1_555 1_555
C48 H61 1_555 1_555
H62 C48 1_555 1_555
H63 C48 1_555 1_555
C49 O5 1_555 1_555
H64 C49 1_555 1_555
C50 C49 1_555 1_555
H65 C50 1_555 1_555
H66 C50 1_555 1_555
H67 C50 1_555 1_555
O6 H75 1_555 1_555
C54 H76 1_555 1_555
H77 C54 1_555 1_555
H78 C54 1_555 1_555
C55 O6 1_555 1_555
H79 C55 1_555 1_555
C56 C55 1_555 1_555
H80 C56 1_555 1_555
H81 C56 1_555 1_555
H82 C56 1_555 1_555
O7 H83 1_555 1_555
C57 H84 1_555 1_555
H85 C57 1_555 1_555
H86 C57 1_555 1_555
C58 O7 1_555 1_555
H87 C58 1_555 1_555
C59 C58 1_555 1_555
H88 C59 1_555 1_555
H89 C59 1_555 1_555
H90 C59 1_555 1_555
C6 C7 1_555 1_555
C8 C9 1_555 1_555
C10 C11 1_555 1_555
C14 C15 1_555 1_555
C16 C17 1_555 1_555
C22 C23 1_555 1_555
C37 C38 1_555 1_555
C48 C49 1_555 1_555
C54 C55 1_555 1_555
C57 C58 1_555 1_555

#END
