
#######################################################################
#
#                 Cambridge Crystallographic Data Centre
#                                CCDC 
#
#######################################################################
#
# If this CIF has been generated from an entry in the Cambridge 
# Structural Database, then it will include bibliographic, chemical, 
# crystal, experimental, refinement or atomic coordinate data resulting 
# from the CCDC's data processing and validation procedures.
#
#######################################################################

data_GOBXEC
_chemical_formula_moiety         'C11 H9 N1 O3'
_chemical_name_systematic        'Methyl 3-phenyl-1,2-oxazole-5-carboxylate'
_symmetry_cell_setting           monoclinic
_symmetry_space_group_name_H-M   'P 21/c'
_symmetry_Int_Tables_number      14
_space_group_name_Hall           '-P 2ybc'
loop_
_symmetry_equiv_pos_site_id
_symmetry_equiv_pos_as_xyz
1 x,y,z
2 -x,1/2+y,1/2-z
3 -x,-y,-z
4 x,1/2-y,1/2+z
_cell_length_a                   12.2275(18)
_cell_length_b                   13.604(2)
_cell_length_c                   5.8746(9)
_cell_angle_alpha                90
_cell_angle_beta                 97.011(3)
_cell_angle_gamma                90
_cell_volume                     969.891
_exptl_crystal_colour            colorless
_exptl_crystal_description       plate
_cell_formula_units_Z            4
_exptl_crystal_recrystallization_method dichloromethane
loop_
_atom_site_label
_atom_site_type_symbol
_atom_site_fract_x
_atom_site_fract_y
_atom_site_fract_z
N1 N 0.58165(16) 0.12445(15) 0.1263(4)
O1 O 0.69685(13) 0.12779(12) 0.1714(3)
O2 O 0.91297(15) 0.11346(15) 0.3629(3)
O3 O 0.85964(13) 0.14679(13) 0.7065(3)
C1 C 0.3828(2) 0.15075(17) 0.5374(4)
H1 H 0.4298 0.1742 0.6620
C2 C 0.2707(2) 0.14652(19) 0.5489(5)
H2 H 0.2426 0.1677 0.6807
C3 C 0.2004(2) 0.11121(19) 0.3669(5)
H3 H 0.1249 0.1088 0.3746
C4 C 0.2428(2) 0.07947(19) 0.1727(5)
H4 H 0.1956 0.0546 0.0501
C5 C 0.35431(19) 0.08422(18) 0.1585(4)
H5 H 0.3820 0.0632 0.0261
C6 C 0.42544(18) 0.12036(15) 0.3418(4)
C7 C 0.54474(18) 0.12641(15) 0.3261(4)
C8 C 0.72372(19) 0.13278(17) 0.4011(4)
C9 C 0.63299(18) 0.13246(16) 0.5065(4)
H6 H 0.6286 0.1355 0.6633
C10 C 0.8426(2) 0.13030(18) 0.4824(5)
C11 C 0.9720(2) 0.1372(2) 0.8127(5)
H7 H 1.0015 0.0755 0.7694
H8 H 0.9737 0.1397 0.9764
H9 H 1.0154 0.1900 0.7629
loop_
_geom_bond_atom_site_label_1
_geom_bond_atom_site_label_2
_geom_bond_site_symmetry_1
_geom_bond_site_symmetry_2
N1 O1 1_555 1_555
O1 C8 1_555 1_555
O2 C10 1_555 1_555
O3 C10 1_555 1_555
C1 H1 1_555 1_555
C2 C1 1_555 1_555
H2 C2 1_555 1_555
C3 C2 1_555 1_555
H3 C3 1_555 1_555
C4 C3 1_555 1_555
H4 C4 1_555 1_555
C5 C4 1_555 1_555
H5 C5 1_555 1_555
C6 C1 1_555 1_555
C7 N1 1_555 1_555
C8 C9 1_555 1_555
C9 C7 1_555 1_555
H6 C9 1_555 1_555
C10 C8 1_555 1_555
C11 O3 1_555 1_555
H7 C11 1_555 1_555
H8 C11 1_555 1_555
H9 C11 1_555 1_555
C5 C6 1_555 1_555
C6 C7 1_555 1_555

#END
