
#######################################################################
#
#                 Cambridge Crystallographic Data Centre
#                                CCDC 
#
#######################################################################
#
# If this CIF has been generated from an entry in the Cambridge 
# Structural Database, then it will include bibliographic, chemical, 
# crystal, experimental, refinement or atomic coordinate data resulting 
# from the CCDC's data processing and validation procedures.
#
#######################################################################

data_GOBZAY
_chemical_formula_moiety         'C12 H26 N2 O4,2(C8 H12 N2 O3)'
_chemical_name_systematic        
'1,4,10,13-Tetraoxa-7,16-diazacyclo-octadecane bis(5,5-diethylbarbituric acid) clathrate'
_symmetry_cell_setting           triclinic
_symmetry_space_group_name_H-M   'P -1'
_symmetry_Int_Tables_number      2
_space_group_name_Hall           '-P 1'
loop_
_symmetry_equiv_pos_site_id
_symmetry_equiv_pos_as_xyz
1 x,y,z
2 -x,-y,-z
_cell_length_a                   9.563(3)
_cell_length_b                   12.748(4)
_cell_length_c                   7.745(2)
_cell_angle_alpha                118.03(2)
_cell_angle_beta                 91.12(2)
_cell_angle_gamma                91.92(3)
_cell_volume                     832.3
_chemical_melting_point          97-105deg.C
_cell_formula_units_Z            1
loop_
_atom_site_label
_atom_site_type_symbol
_atom_site_fract_x
_atom_site_fract_y
_atom_site_fract_z
N1 N 0.1718(1) 0.4749(1) 0.8030(2)
C1 C 0.3127(2) 0.5372(2) 0.8568(3)
C2 C 0.3349(2) 0.6134(2) 1.0739(3)
O1 O 0.3335(1) 0.5388(1) 1.1622(2)
C3 C 0.3457(2) 0.6012(2) 1.3700(3)
C4 C 0.2247(2) 0.6746(2) 1.4662(3)
O2 O 0.0988(1) 0.6030(1) 1.4042(2)
C5 C -0.0196(2) 0.6716(2) 1.4785(3)
C6 C 0.1486(2) 0.4087(2) 0.5856(2)
H1 H 0.1122(23) 0.5194(18) 0.8462(29)
H2 H 0.3822 0.4785 0.8112
H3 H 0.3228 0.5866 0.7945
H4 H 0.2613 0.6682 1.1235
H5 H 0.4236 0.6569 1.1019
H6 H 0.3545 0.5438 1.4165
H7 H 0.4287 0.6526 1.4075
H8 H 0.2193 0.7370 1.4303
H9 H 0.2375 0.7089 1.6057
H10 H -0.0115 0.7137 1.6189
H11 H -0.0255 0.7276 1.4287
H12 H 0.1403 0.4652 0.5373
H13 H 0.2280 0.3617 0.5303
C6A C -0.1486(2) 0.5913(2) 1.4144(2)
C5A C 0.0196(2) 0.3284(2) 0.5215(3)
N1A N -0.1718(1) 0.5251(1) 1.1970(2)
H12A H -0.1403 0.5348 1.4627
H13A H -0.2280 0.6383 1.4697
O2A O -0.0988(1) 0.3970(1) 0.5958(2)
H10A H 0.0115 0.2863 0.3811
H11A H 0.0255 0.2724 0.5713
C1A C -0.3127(2) 0.4628(2) 1.1432(3)
H1A H -0.1122(23) 0.4806(18) 1.1538(29)
C4A C -0.2247(2) 0.3254(2) 0.5338(3)
C2A C -0.3349(2) 0.3866(2) 0.9261(3)
H2A H -0.3822 0.5215 1.1888
H3A H -0.3228 0.4134 1.2055
C3A C -0.3457(2) 0.3988(2) 0.6300(3)
H8A H -0.2193 0.2630 0.5697
H9A H -0.2375 0.2911 0.3943
O1A O -0.3335(1) 0.4612(1) 0.8378(2)
H4A H -0.2613 0.3318 0.8765
H5A H -0.4236 0.3431 0.8981
H6A H -0.3545 0.4562 0.5835
H7A H -0.4287 0.3474 0.5925
N2 N 0.0590(1) 0.1335(1) 0.9597(2)
C7 C 0.1618(2) 0.0564(1) 0.8748(2)
C8 C 0.2823(2) 0.0988(1) 0.7964(2)
C9 C 0.2573(2) 0.2168(1) 0.7975(2)
N3 N 0.1487(1) 0.2830(1) 0.8858(2)
C10 C 0.0519(2) 0.2457(1) 0.9701(2)
O3 O -0.0480(1) 0.3042(1) 1.0568(2)
O4 O 0.1568(1) -0.0424(1) 0.8659(2)
O5 O 0.3427(1) 0.2508(1) 0.7131(2)
C11 C 0.3111(2) 0.0036(2) 0.5869(3)
C12 C 0.1932(3) -0.0231(2) 0.4386(3)
C13 C 0.4130(2) 0.1170(2) 0.9293(3)
C14 C 0.4031(3) 0.2074(3) 1.1409(4)
H14 H -0.0146 0.1091 1.0176
H15 H 0.1401 0.3587 0.8888
H16 H 0.3312 -0.0687 0.5904
H17 H 0.3916 0.0310 0.5445
H18 H 0.1690 0.0486 0.4359
H19 H 0.1133 -0.0557 0.4734
H20 H 0.2222 -0.0798 0.3117
H21 H 0.4901 0.1422 0.8779
H22 H 0.4316 0.0419 0.9236
H23 H 0.3845 0.2835 1.1506
H24 H 0.4898 0.2133 1.2103
H25 H 0.3284 0.1829 1.1969
loop_
_geom_bond_atom_site_label_1
_geom_bond_atom_site_label_2
_geom_bond_site_symmetry_1
_geom_bond_site_symmetry_2
N1 C1 1_555 1_555
C1 C2 1_555 1_555
C2 O1 1_555 1_555
O1 C3 1_555 1_555
C3 C4 1_555 1_555
C4 O2 1_555 1_555
O2 C5 1_555 1_555
C5 H10 1_555 1_555
C6 N1 1_555 1_555
H1 N1 1_555 1_555
H2 C1 1_555 1_555
H3 C1 1_555 1_555
H4 C2 1_555 1_555
H5 C2 1_555 1_555
H6 C3 1_555 1_555
H7 C3 1_555 1_555
H8 C4 1_555 1_555
H9 C4 1_555 1_555
H11 C5 1_555 1_555
H12 C6 1_555 1_555
H13 C6 1_555 1_555
N2 C7 1_555 1_555
C7 C8 1_555 1_555
C8 C9 1_555 1_555
C9 N3 1_555 1_555
N3 C10 1_555 1_555
C10 N2 1_555 1_555
O3 C10 1_555 1_555
O4 C7 1_555 1_555
O5 C9 1_555 1_555
C11 C8 1_555 1_555
C12 C11 1_555 1_555
C13 C8 1_555 1_555
C14 C13 1_555 1_555
H14 N2 1_555 1_555
H15 N3 1_555 1_555
H16 C11 1_555 1_555
H17 C11 1_555 1_555
H18 C12 1_555 1_555
H19 C12 1_555 1_555
H20 C12 1_555 1_555
H21 C13 1_555 1_555
H22 C13 1_555 1_555
H23 C14 1_555 1_555
H24 C14 1_555 1_555
H25 C14 1_555 1_555
C6A C5 1_555 1_555
C5A C6 1_555 1_555
N1A C6A 1_555 1_555
H12A C6A 1_555 1_555
H13A C6A 1_555 1_555
O2A C5A 1_555 1_555
H10A C5A 1_555 1_555
H11A C5A 1_555 1_555
C1A N1A 1_555 1_555
H1A N1A 1_555 1_555
C4A O2A 1_555 1_555
C2A C1A 1_555 1_555
H2A C1A 1_555 1_555
H3A C1A 1_555 1_555
C3A C4A 1_555 1_555
H8A C4A 1_555 1_555
H9A C4A 1_555 1_555
O1A C2A 1_555 1_555
H4A C2A 1_555 1_555
H5A C2A 1_555 1_555
H6A C3A 1_555 1_555
H7A C3A 1_555 1_555
C3A O1A 1_555 1_555

#END
