
#######################################################################
#
#                 Cambridge Crystallographic Data Centre
#                                CCDC 
#
#######################################################################
#
# If this CIF has been generated from an entry in the Cambridge 
# Structural Database, then it will include bibliographic, chemical, 
# crystal, experimental, refinement or atomic coordinate data resulting 
# from the CCDC's data processing and validation procedures.
#
#######################################################################

data_GOBZIG
_chemical_formula_moiety         'C12 H26 N2 O4,C4 H6 O2'
_chemical_name_systematic        
'1,4,10,13-Tetraoxa-7,16-diazacyclo-octadecane 1,4-dihydroxybut-2-yne clathrate'
_symmetry_cell_setting           monoclinic
_symmetry_space_group_name_H-M   'C 2/m'
_symmetry_Int_Tables_number      12
_space_group_name_Hall           '-C 2y'
loop_
_symmetry_equiv_pos_site_id
_symmetry_equiv_pos_as_xyz
1 x,y,z
2 1/2+x,1/2+y,z
3 -x,y,-z
4 1/2-x,1/2+y,-z
5 -x,-y,-z
6 1/2-x,1/2-y,-z
7 x,-y,z
8 1/2+x,1/2-y,z
_cell_length_a                   7.917(7)
_cell_length_b                   14.418(10)
_cell_length_c                   8.764(7)
_cell_angle_alpha                90
_cell_angle_beta                 102.03(7)
_cell_angle_gamma                90
_cell_volume                     978.417
_cell_formula_units_Z            2
loop_
_atom_site_label
_atom_site_type_symbol
_atom_site_fract_x
_atom_site_fract_y
_atom_site_fract_z
N1 N 0.1626(6) 0.0000 0.3160(6)
C1 C 0.2557(6) 0.0843(3) 0.3720(5)
C2 C 0.1512(7) 0.1694(3) 0.3157(5)
O1 O 0.1169(3) 0.1700(2) 0.1507(3)
C3 C 0.0123(6) 0.2473(3) 0.0864(5)
H1 H 0.1522(79) 0.0000 0.2181(79)
H2 H 0.2814 0.0839 0.4840
H3 H 0.3615 0.0861 0.3349
H4 H 0.2151 0.2240 0.3552
H5 H 0.0444 0.1681 0.3513
H6 H 0.0682 0.3038 0.1271
C1F C 0.2557(6) -0.0843(3) 0.3720(5)
C3B C -0.0123(6) 0.2473(3) -0.0864(5)
C2F C 0.1512(7) -0.1694(3) 0.3157(5)
H2F H 0.2814 -0.0839 0.4840
H3F H 0.3615 -0.0861 0.3349
O1B O -0.1169(3) 0.1700(2) -0.1507(3)
H6B H -0.0682 0.3038 -0.1271
O1F O 0.1169(3) -0.1700(2) 0.1507(3)
H4F H 0.2151 -0.2240 0.3552
H5F H 0.0444 -0.1681 0.3513
C2B C -0.1512(7) 0.1694(3) -0.3157(5)
C3F C 0.0123(6) -0.2473(3) 0.0864(5)
C1B C -0.2557(6) 0.0843(3) -0.3720(5)
H4B H -0.2151 0.2240 -0.3552
H5B H -0.0444 0.1681 -0.3513
C3D C -0.0123(6) -0.2473(3) -0.0864(5)
H6F H 0.0682 -0.3038 0.1271
N1D N -0.1626(6) 0.0000 -0.3160(6)
H2B H -0.2814 0.0839 -0.4840
H3B H -0.3615 0.0861 -0.3349
O1D O -0.1169(3) -0.1700(2) -0.1507(3)
H6D H -0.0682 -0.3038 -0.1271
C1D C -0.2557(6) -0.0843(3) -0.3720(5)
H1D H -0.1522(79) 0.0000 -0.2181(79)
C2D C -0.1512(7) -0.1694(3) -0.3157(5)
H2D H -0.2814 -0.0839 -0.4840
H3D H -0.3615 -0.0861 -0.3349
H4D H -0.2151 -0.2240 -0.3552
H5D H -0.0444 -0.1681 -0.3513
C4 C 0.4263(7) 0.0000 0.9700(7)
C5 C 0.2393(8) 0.0000 0.9002(7)
O2 O 0.2099(6) 0.0000 0.7363(5)
H7 H 0.188(10) 0.0688 0.9461(92)
H8 H 0.2820(93) 0.0000 0.6525(84)
C4D C 0.5737(7) 0.0000 1.0300(7)
H7F H 0.188(10) -0.0688 0.9461(92)
C5D C 0.7607(8) 0.0000 1.0998(7)
O2D O 0.7901(6) 0.0000 1.2637(5)
H7D H 0.812(10) -0.0688 1.0539(92)
H7B H 0.812(10) 0.0688 1.0539(92)
H8D H 0.7180(93) 0.0000 1.3475(84)
loop_
_geom_bond_atom_site_label_1
_geom_bond_atom_site_label_2
_geom_bond_site_symmetry_1
_geom_bond_site_symmetry_2
N1 C1 1_555 1_555
C1 C2 1_555 1_555
C2 O1 1_555 1_555
O1 C3 1_555 1_555
C3 H6 1_555 1_555
C4 C5 1_555 1_555
C5 O2 1_555 1_555
O2 H8 1_555 1_555
H1 N1 1_555 1_555
H2 C1 1_555 1_555
H3 C1 1_555 1_555
H4 C2 1_555 1_555
H5 C2 1_555 1_555
H7 C5 1_555 1_555
C1F N1 1_555 1_555
C3B C3 1_555 1_555
C2F C1F 1_555 1_555
H2F C1F 1_555 1_555
H3F C1F 1_555 1_555
O1B C3B 1_555 1_555
H6B C3B 1_555 1_555
O1F C2F 1_555 1_555
H4F C2F 1_555 1_555
H5F C2F 1_555 1_555
C2B O1B 1_555 1_555
C3F O1F 1_555 1_555
C1B C2B 1_555 1_555
H4B C2B 1_555 1_555
H5B C2B 1_555 1_555
C3D C3F 1_555 1_555
H6F C3F 1_555 1_555
N1D C1B 1_555 1_555
H2B C1B 1_555 1_555
H3B C1B 1_555 1_555
O1D C3D 1_555 1_555
H6D C3D 1_555 1_555
C1D N1D 1_555 1_555
H1D N1D 1_555 1_555
C2D O1D 1_555 1_555
H2D C1D 1_555 1_555
H3D C1D 1_555 1_555
H4D C2D 1_555 1_555
H5D C2D 1_555 1_555
C4D C4 1_555 1_555
H7F C5 1_555 1_555
C5D C4D 1_555 1_555
O2D C5D 1_555 1_555
H7D C5D 1_555 1_555
H7B C5D 1_555 1_555
H8D O2D 1_555 1_555
C1D C2D 1_555 1_555

#END
