
#######################################################################
#
#                 Cambridge Crystallographic Data Centre
#                                CCDC 
#
#######################################################################
#
# If this CIF has been generated from an entry in the Cambridge 
# Structural Database, then it will include bibliographic, chemical, 
# crystal, experimental, refinement or atomic coordinate data resulting 
# from the CCDC's data processing and validation procedures.
#
#######################################################################

data_GOCJEP
_chemical_formula_moiety         'C123 H157 N27 O16,6(H2 O1),6(C2 H6 O1 S1)'
_chemical_name_systematic        
'17,21-dioxo-18,20-diaza-1(1,4),3(5,3),5(1,4),7(5,3),9(1,4),11(5,3),13(1,4),15(5,3)-octakis(1,2,3-triazola)-19(2,6)-pyridina-2(4,6),4(4,6),6(4,6),8(4,6),10(4,6),12(4,6),14(4,6)-heptakis(1,3-diisobutoxybenzena)cyclodocosaphane dimethyl sulfoxide solvate hexahydrate'
_symmetry_cell_setting           triclinic
_symmetry_space_group_name_H-M   'P -1'
_symmetry_Int_Tables_number      2
_space_group_name_Hall           '-P 1'
loop_
_symmetry_equiv_pos_site_id
_symmetry_equiv_pos_as_xyz
1 x,y,z
2 -x,-y,-z
_cell_length_a                   19.039(3)
_cell_length_b                   20.027(3)
_cell_length_c                   25.362(4)
_cell_angle_alpha                98.223(2)
_cell_angle_beta                 102.795(2)
_cell_angle_gamma                109.489(2)
_cell_volume                     8638.94
_exptl_crystal_colour            colorless
_exptl_crystal_description       block
_cell_formula_units_Z            2
loop_
_atom_site_label
_atom_site_type_symbol
_atom_site_fract_x
_atom_site_fract_y
_atom_site_fract_z
C1 C 0.6121(5) -0.2006(5) -0.1562(3)
C2 C 0.5495(6) -0.1788(5) -0.1677(4)
H1 H 0.4983 -0.2099 -0.1698
C3 C 0.5660(6) -0.1100(6) -0.1759(4)
H2 H 0.5248 -0.0931 -0.1853
C4 C 0.6417(7) -0.0639(6) -0.1707(4)
H3 H 0.6535 -0.0155 -0.1753
C5 C 0.6978(5) -0.0918(5) -0.1587(4)
C6 C 0.5429(6) -0.3188(6) -0.1378(4)
C7 C 0.5628(6) -0.3852(6) -0.1221(4)
H4 H 0.5245 -0.4316 -0.1476
H5 H 0.6153 -0.3801 -0.1249
C8 C 0.8148(6) 0.0212(5) -0.1487(3)
C9 C 0.8982(5) 0.0412(4) -0.1478(4)
H6 H 0.9216 0.0132 -0.1254
H7 H 0.9017 0.0290 -0.1861
C10 C 0.9398(5) 0.1734(4) -0.1500(4)
H8 H 0.9149 0.1693 -0.1878
C11 C 0.9837(5) 0.2358(4) -0.1092(4)
C12 C 0.4981(5) -0.4184(4) -0.0476(4)
H9 H 0.4469 -0.4503 -0.0688
C13 C 0.5297(5) -0.3942(4) 0.0106(4)
C14 C 0.4914(4) -0.4122(4) 0.0532(3)
C15 C 0.5403(4) -0.3956(4) 0.1086(3)
H10 H 0.5950 -0.3732 0.1158
C16 C 0.5098(4) -0.4115(4) 0.1525(3)
C17 C 0.4286(4) -0.4491(4) 0.1401(3)
C18 C 0.3808(4) -0.4650(4) 0.0867(3)
H11 H 0.3262 -0.4886 0.0794
C19 C 0.4114(4) -0.4471(4) 0.0435(3)
C20 C 0.2875(5) -0.4847(9) -0.0216(4)
H12 H 0.2717 -0.4547 0.0044
H13 H 0.2672 -0.5357 -0.0178
C21 C 0.2567(7) -0.4816(9) -0.0767(7)
H14 H 0.2004 -0.5143 -0.0887
C22 C 0.2601(6) -0.4077(8) -0.0638(4)
H15 H 0.2392 -0.3949 -0.0981
H16 H 0.3143 -0.3743 -0.0463
H17 H 0.2292 -0.4038 -0.0382
C23 C 0.2830(9) -0.4865(8) -0.1235(5)
H18 H 0.2443 -0.4851 -0.1555
H19 H 0.2909 -0.5325 -0.1310
H20 H 0.3323 -0.4455 -0.1168
C24 C 0.3183(4) -0.5022(4) 0.1732(3)
H21 H 0.2974 -0.5486 0.1446
H22 H 0.2931 -0.4696 0.1592
C25 C 0.3011(4) -0.5166(4) 0.2272(3)
H23 H 0.3270 -0.5495 0.2407
C26 C 0.3323(5) -0.4461(5) 0.2713(3)
H24 H 0.3887 -0.4230 0.2784
H25 H 0.3205 -0.4564 0.3057
H26 H 0.3077 -0.4132 0.2583
C27 C 0.2130(4) -0.5563(4) 0.2129(4)
H27 H 0.1988 -0.5660 0.2467
H28 H 0.1967 -0.6025 0.1856
H29 H 0.1869 -0.5259 0.1971
C28 C 0.5627(4) -0.3892(5) 0.2084(4)
C29 C 0.5554(4) -0.4046(4) 0.2583(3)
H30 H 0.5098 -0.4362 0.2645
C30 C 0.6490(4) -0.3603(4) 0.3545(3)
C31 C 0.6971(4) -0.2928(4) 0.3892(3)
H31 H 0.7101 -0.2509 0.3742
C32 C 0.7258(4) -0.2864(4) 0.4445(3)
C33 C 0.7097(4) -0.3472(4) 0.4676(3)
C34 C 0.6607(4) -0.4152(4) 0.4327(3)
H32 H 0.6478 -0.4568 0.4480
C35 C 0.6307(4) -0.4228(4) 0.3763(3)
C36 C 0.5556(5) -0.5498(4) 0.3631(4)
H33 H 0.5228 -0.5420 0.3868
H34 H 0.6000 -0.5579 0.3861
C37 C 0.5079(5) -0.6157(5) 0.3137(5)
C38 C 0.4362(5) -0.6051(5) 0.2832(4)
H35 H 0.4052 -0.6471 0.2517
H36 H 0.4517 -0.5607 0.2694
H37 H 0.4051 -0.6007 0.3085
C39 C 0.5507(7) -0.6339(6) 0.2811(5)
H38 H 0.5976 -0.6363 0.3048
H39 H 0.5657 -0.5968 0.2599
H40 H 0.5194 -0.6814 0.2553
C40 C 0.7252(6) -0.3971(4) 0.5474(3)
H41 H 0.7500 -0.4296 0.5336
H42 H 0.6685 -0.4254 0.5376
C41 C 0.7581(10) -0.3695(6) 0.6091(5)
H43 H 0.7341 -0.3370 0.6249
C42 C 0.8454(11) -0.3322(14) 0.6211(10)
H44 H 0.8694 -0.3150 0.6615
H45 H 0.8570 -0.2906 0.6038
H46 H 0.8662 -0.3668 0.6059
C43 C 0.7474(14) -0.4368(7) 0.6336(6)
H47 H 0.7713 -0.4211 0.6740
H48 H 0.7723 -0.4664 0.6170
H49 H 0.6917 -0.4657 0.6255
C44 C 0.8540(4) -0.1968(4) 0.5068(3)
H50 H 0.8817 -0.2281 0.5126
C45 C 0.8824(4) -0.1230(4) 0.5254(3)
C46 C 0.9615(4) -0.0681(4) 0.5565(3)
C47 C 0.9759(4) 0.0048(4) 0.5631(3)
H51 H 0.9337 0.0193 0.5499
C48 C 1.0494(4) 0.0584(4) 0.5883(3)
C49 C 1.1108(4) 0.0368(4) 0.6062(3)
C50 C 1.0980(5) -0.0374(4) 0.5985(4)
H52 H 1.1404 -0.0522 0.6099
C51 C 1.0234(4) -0.0893(4) 0.5744(3)
C52 C 1.0641(5) -0.1905(4) 0.5725(5)
H53 H 1.1016 -0.1700 0.6101
H54 H 1.0927 -0.1753 0.5453
C53 C 1.0329(6) -0.2704(5) 0.5617(5)
H55 H 0.9894 -0.2909 0.5263
C54 C 1.0039(18) -0.2912(12) 0.6060(13)
H56 H 0.9806 -0.3445 0.5984
H57 H 0.9643 -0.2711 0.6096
H58 H 1.0466 -0.2725 0.6407
C55 C 1.0868(8) -0.3056(7) 0.5596(9)
H59 H 1.0594 -0.3584 0.5529
H60 H 1.1280 -0.2879 0.5951
H61 H 1.1098 -0.2946 0.5294
C56 C 1.2525(7) 0.0726(7) 0.6343(6)
H62 H 1.2403 0.0300 0.6038
H63 H 1.2947 0.1141 0.6294
C57 C 1.2792(9) 0.0568(8) 0.6841(6)
H64 H 1.2456 0.0125 0.6935
C58 C 1.3049(11) 0.1411(13) 0.7274(8)
H65 H 1.2626 0.1588 0.7180
H66 H 1.3523 0.1754 0.7227
H67 H 1.3143 0.1369 0.7662
C59 C 1.3690(9) 0.0670(13) 0.6870(7)
H68 H 1.3704 0.0424 0.6511
H69 H 1.3892 0.0456 0.7163
H70 H 1.4012 0.1190 0.6951
C60 C 1.0602(4) 0.1348(3) 0.5935(3)
C61 C 1.1194(4) 0.1990(3) 0.6249(3)
H71 H 1.1665 0.2042 0.6507
C62 C 1.1366(4) 0.3305(3) 0.6325(3)
C63 C 1.1471(4) 0.3747(3) 0.5956(3)
H72 H 1.1302 0.3536 0.5567
C64 C 1.1814(4) 0.4485(4) 0.6145(3)
C65 C 1.2087(5) 0.4796(4) 0.6720(3)
C66 C 1.1998(5) 0.4354(4) 0.7078(3)
H73 H 1.2193 0.4566 0.7467
C67 C 1.1627(5) 0.3595(4) 0.6895(3)
C68 C 1.1756(5) 0.3386(4) 0.7820(3)
H74 H 1.1544 0.3754 0.7935
H75 H 1.2331 0.3624 0.7934
C69 C 1.1521(5) 0.2780(5) 0.8100(3)
H76 H 1.0941 0.2569 0.8014
C70 C 1.1810(6) 0.2181(5) 0.7917(4)
H77 H 1.1591 0.1985 0.7513
H78 H 1.1645 0.1788 0.8107
H79 H 1.2380 0.2385 0.8012
C71 C 1.1895(6) 0.3062(5) 0.8740(3)
H80 H 1.1717 0.3439 0.8880
H81 H 1.2463 0.3266 0.8823
H82 H 1.1740 0.2656 0.8920
C72 C 1.2552(5) 0.5873(4) 0.7455(3)
H83 H 1.2998 0.5803 0.7693
H84 H 1.2088 0.5653 0.7581
C73 C 1.2730(5) 0.6685(4) 0.7500(4)
H85 H 1.3161 0.6878 0.7330
C74 C 1.2030(6) 0.6791(5) 0.7176(5)
H86 H 1.1883 0.6530 0.6786
H87 H 1.2153 0.7311 0.7197
H88 H 1.1597 0.6600 0.7332
C75 C 1.3006(6) 0.7075(5) 0.8095(4)
H89 H 1.3459 0.6980 0.8285
H90 H 1.2589 0.6902 0.8269
H91 H 1.3154 0.7600 0.8125
C76 C 1.2436(4) 0.5582(3) 0.5784(3)
H92 H 1.2858 0.5885 0.6099
C77 C 1.2257(4) 0.5711(3) 0.5267(3)
C78 C 1.2667(4) 0.6304(4) 0.5023(3)
C79 C 1.2449(4) 0.6231(3) 0.4448(3)
H93 H 1.2027 0.5803 0.4222
C80 C 1.2823(4) 0.6758(3) 0.4189(3)
C81 C 1.3459(4) 0.7369(4) 0.4537(3)
C82 C 1.3696(5) 0.7457(4) 0.5105(3)
H94 H 1.4132 0.7875 0.5328
C83 C 1.3296(5) 0.6934(4) 0.5352(3)
C84 C 1.4130(6) 0.7620(5) 0.6282(4)
H95 H 1.4580 0.7750 0.6129
H96 H 1.4296 0.7505 0.6645
C85 C 1.3889(6) 0.8248(5) 0.6366(4)
H97 H 1.3697 0.8321 0.5987
C86 C 1.4567(7) 0.8954(6) 0.6689(5)
H98 H 1.4986 0.9033 0.6512
H99 H 1.4759 0.8921 0.7072
H100 H 1.4391 0.9362 0.6691
C87 C 1.3201(8) 0.8140(8) 0.6635(6)
H101 H 1.2757 0.7696 0.6419
H102 H 1.3047 0.8560 0.6636
H103 H 1.3372 0.8096 0.7018
C88 C 1.4416(5) 0.8553(5) 0.4595(4)
H104 H 1.4433 0.8944 0.4393
H105 H 1.4295 0.8693 0.4944
C89 C 1.5159(7) 0.8511(7) 0.4729(6)
H106 H 1.5151 0.8139 0.4954
C90 C 1.5428(9) 0.8304(10) 0.4207(8)
H107 H 1.5067 0.7818 0.3985
H108 H 1.5953 0.8302 0.4330
H109 H 1.5431 0.8661 0.3980
C91 C 1.5703(10) 0.9318(8) 0.5130(8)
H110 H 1.5517 0.9394 0.5455
H111 H 1.5677 0.9690 0.4922
H112 H 1.6243 0.9354 0.5252
C92 C 1.2531(4) 0.6646(3) 0.3588(3)
C93 C 1.2738(4) 0.7070(4) 0.3217(3)
H113 H 1.3146 0.7536 0.3305
C94 C 1.2172(4) 0.6855(4) 0.2173(3)
C95 C 1.1853(4) 0.6288(3) 0.1724(3)
H114 H 1.1713 0.5806 0.1777
C96 C 1.1725(4) 0.6393(4) 0.1188(3)
C97 C 1.1898(4) 0.7109(4) 0.1111(3)
C98 C 1.2208(4) 0.7679(4) 0.1568(3)
H115 H 1.2308 0.8159 0.1516
C99 C 1.2384(4) 0.7578(4) 0.2109(3)
C100 C 1.2999(7) 0.8855(4) 0.2509(4)
H116 H 1.2551 0.8995 0.2373
H117 H 1.3298 0.8895 0.2233
C101 C 1.3505(10) 0.9345(5) 0.3061(6)
H118 H 1.3650 0.9855 0.3011
C102 C 1.4267(8) 0.9202(7) 0.3204(6)
H119 H 1.4483 0.9222 0.2887
H120 H 1.4158 0.8720 0.3285
H121 H 1.4644 0.9575 0.3531
C103 C 1.3063(11) 0.9293(6) 0.3505(6)
H122 H 1.2593 0.9395 0.3373
H123 H 1.3398 0.9651 0.3852
H124 H 1.2916 0.8802 0.3572
C104 C 1.1893(8) 0.7907(5) 0.0484(4)
H125 H 1.1381 0.7914 0.0299
H126 H 1.2082 0.8248 0.0854
C105 C 1.231(3) 0.8160(12) 0.0236(19)
H127 H 1.2783 0.8297 0.0555
C106 C 1.2600(17) 0.7769(9) -0.0153(12)
H128 H 1.2599 0.7316 -0.0049
H129 H 1.3131 0.8079 -0.0133
H130 H 1.2262 0.7654 -0.0534
C107 C 1.2475(17) 0.8949(8) 0.0185(11)
H131 H 1.2450 0.9236 0.0523
H132 H 1.2088 0.8956 -0.0138
H133 H 1.2996 0.9158 0.0139
C108 C 1.1035(4) 0.5601(4) 0.0192(3)
H134 H 1.0832 0.5905 0.0004
C109 C 1.0949(4) 0.4909(4) -0.0025(3)
C110 C 1.0571(4) 0.4398(4) -0.0571(3)
C111 C 1.0373(4) 0.3665(4) -0.0599(3)
H135 H 1.0464 0.3518 -0.0259
C112 C 1.0050(4) 0.3129(4) -0.1087(3)
C113 C 0.9930(4) 0.3370(5) -0.1594(3)
C114 C 1.0106(4) 0.4106(4) -0.1581(3)
H136 H 1.0020 0.4259 -0.1919
C115 C 1.0403(4) 0.4611(4) -0.1083(4)
C116 C 1.0351(5) 0.5591(5) -0.1494(4)
H137 H 0.9794 0.5311 -0.1694
H138 H 1.0662 0.5516 -0.1746
C117 C 1.0498(6) 0.6396(6) -0.1327(5)
H139 H 1.1058 0.6677 -0.1117
C118 C 0.9995(7) 0.6526(6) -0.0979(5)
H140 H 1.0128 0.6378 -0.0630
H141 H 0.9447 0.6239 -0.1182
H142 H 1.0080 0.7045 -0.0897
C119 C 1.0297(10) 0.6643(8) -0.1876(6)
H143 H 1.0615 0.6545 -0.2109
H144 H 1.0404 0.7167 -0.1789
H145 H 0.9745 0.6374 -0.2077
C120 C 0.9572(6) 0.3031(6) -0.2593(4)
H146 H 1.0096 0.3305 -0.2622
H147 H 0.9261 0.3341 -0.2634
C121 C 0.9166(8) 0.2307(6) -0.3051(4)
H148 H 0.8663 0.2053 -0.2974
C122 C 0.9604(8) 0.1774(7) -0.3005(5)
H149 H 0.9305 0.1323 -0.3293
H150 H 0.9661 0.1663 -0.2637
H151 H 1.0119 0.2002 -0.3055
C123 C 0.8962(12) 0.2495(15) -0.3532(10)
H152 H 0.8687 0.2054 -0.3834
H153 H 0.9430 0.2804 -0.3610
H154 H 0.8620 0.2763 -0.3504
N1 N 0.6847(4) -0.1585(4) -0.1505(3)
N2 N 0.6059(4) -0.2691(4) -0.1454(3)
H155 H 0.6470 -0.2806 -0.1434
N3 N 0.7760(5) -0.0531(4) -0.1521(3)
H156 H 0.8055 -0.0789 -0.1498
N4 N 0.9403(4) 0.1186(4) -0.1237(3)
N5 N 0.9800(6) 0.1447(4) -0.0697(4)
N6 N 1.0089(5) 0.2169(4) -0.0609(4)
N7 N 0.5599(5) -0.3844(5) -0.0659(3)
N8 N 0.6219(5) -0.3430(6) -0.0247(4)
N9 N 0.6025(4) -0.3518(6) 0.0213(4)
N10 N 0.6367(4) -0.3404(5) 0.2198(3)
N11 N 0.6749(4) -0.3290(5) 0.2725(3)
N12 N 0.6230(3) -0.3676(4) 0.2963(3)
N13 N 0.7791(3) -0.2164(3) 0.4786(3)
N14 N 0.7598(4) -0.1581(4) 0.4780(3)
N15 N 0.8225(4) -0.1016(3) 0.5074(3)
N16 N 1.0048(3) 0.1551(3) 0.5624(3)
N17 N 1.0263(3) 0.2256(3) 0.5742(3)
N18 N 1.0971(3) 0.2526(3) 0.6115(2)
N19 N 1.1883(3) 0.4929(3) 0.5753(2)
N20 N 1.1397(4) 0.4645(3) 0.5222(2)
N21 N 1.1608(4) 0.5132(3) 0.4934(3)
N22 N 1.1920(4) 0.6043(3) 0.3284(3)
N23 N 1.1737(3) 0.6066(3) 0.2768(3)
N24 N 1.2261(3) 0.6703(3) 0.2720(2)
N25 N 1.1470(3) 0.5775(3) 0.0732(2)
N26 N 1.1652(4) 0.5206(3) 0.0844(3)
N27 N 1.1312(4) 0.4675(3) 0.0403(3)
O1 O 0.4799(4) -0.3167(4) -0.1417(4)
O2 O 0.7818(4) 0.0635(3) -0.1493(3)
O3 O 0.3689(3) -0.4585(3) -0.0087(2)
O4 O 0.4018(3) -0.4683(3) 0.18378(19)
O5 O 0.5833(3) -0.4875(3) 0.3401(2)
O6 O 0.7395(3) -0.3363(3) 0.5221(2)
O7 O 1.0068(3) -0.1628(3) 0.5688(2)
O8 O 1.1827(3) 0.0912(3) 0.6295(3)
O9 O 1.1477(3) 0.3120(3) 0.7234(2)
O10 O 1.2409(3) 0.5531(2) 0.6882(2)
O11 O 1.3504(4) 0.6990(3) 0.5908(2)
O12 O 1.3795(3) 0.7886(3) 0.4259(2)
O13 O 1.2726(3) 0.8113(2) 0.2578(2)
O14 O 1.1747(3) 0.7183(3) 0.0584(2)
O15 O 1.0559(3) 0.5349(3) -0.1018(2)
O16 O 0.9629(3) 0.2836(3) -0.2076(2)
S1 S 0.5032(4) 0.5887(4) 0.4716(3)
C124 C 0.4671(9) 0.5125(6) 0.4359(8)
O17 O 0.4477(5) 0.5806(7) 0.4884(5)
C125 C 0.4816(17) 0.6419(16) 0.4338(7)
C126 C 0.8045(5) 0.6706(5) 0.9716(4)
C127 C 0.8049(10) 0.8039(7) 0.9660(6)
O18 O 0.7390(3) 0.6919(3) 0.8763(2)
S2 S 0.8164(4) 0.7283(4) 0.9213(3)
C128 C 0.2139(8) 0.9415(7) 0.4799(6)
C129 C 0.2125(13) 0.8072(8) 0.4853(8)
O19 O 0.3405(12) 0.9357(7) 0.5438(7)
S3 S 0.2595(2) 0.9010(3) 0.5275(3)
C130 C -0.0403(8) 0.5421(7) 0.6620(7)
C131 C -0.0266(10) 0.4147(9) 0.6188(7)
O20 O 0.0572(4) 0.4950(5) 0.7208(3)
S4 S 0.0378(2) 0.5001(3) 0.6598(2)
C132 C 0.5838(16) 0.2600(13) 0.8790(8)
C133 C 0.5748(11) 0.2698(8) 0.7851(12)
O21 O 0.5737(9) 0.1455(7) 0.8122(8)
S5 S 0.5437(4) 0.2061(5) 0.8171(4)
C134 C 0.7150(12) 0.853(2) 0.603(3)
C135 C 0.6814(17) 0.847(2) 0.6988(8)
O22 O 0.5831(13) 0.7787(7) 0.5989(9)
S6 S 0.6445(6) 0.8518(6) 0.6320(6)
C136 C 0.9305(11) 0.8815(13) 0.6788(8)
C137 C 1.0154(9) 1.0149(10) 0.7207(7)
O23 O 0.8783(7) 0.9631(8) 0.7309(6)
S7 S 0.9158(4) 0.9515(4) 0.6866(3)
O24 O 0.5808(13) 0.8427(11) 0.9836(5)
O25 O 0.5345(6) 0.7759(5) 0.0387(5)
O26 O 0.3617(7) 0.9090(6) 0.8958(5)
O27 O 0.1409(11) 0.8435(10) 0.7706(12)
O28 O 0.1717(12) 0.0325(7) 0.9419(5)
S8? S 0.7897(6) 0.7299(5) 0.9361(4)
S9? S -0.0125(6) 0.4837(5) 0.6783(4)
S10? S 0.9273(11) 0.9835(14) 0.7019(11)
O29? O 0.3905(16) 0.9347(17) 0.8384(15)
O30? O 0.4173(8) 0.9809(9) 0.8675(7)
O31? O 0.1697(7) 0.9091(8) 0.8151(5)
O32? O 0.193(3) 0.926(4) 0.773(2)
S11? S 0.9494(4) 0.8812(4) 0.8564(4)
C138? C 0.9222(15) 0.7859(13) 0.8043(12)
O33? O 0.8841(7) 0.8809(8) 0.8651(10)
O34? O 0.8597(6) 0.8177(4) 0.7846(3)
C139? C 1.0792(13) 0.9762(11) 0.9850(9)
loop_
_geom_bond_atom_site_label_1
_geom_bond_atom_site_label_2
_geom_bond_site_symmetry_1
_geom_bond_site_symmetry_2
C1 C2 1_555 1_555
C2 H1 1_555 1_555
C3 C2 1_555 1_555
H2 C3 1_555 1_555
C4 C3 1_555 1_555
H3 C4 1_555 1_555
C5 C4 1_555 1_555
C6 C7 1_555 1_555
C7 H4 1_555 1_555
H5 C7 1_555 1_555
C8 C9 1_555 1_555
C9 H6 1_555 1_555
H7 C9 1_555 1_555
C10 H8 1_555 1_555
C11 C10 1_555 1_555
C12 H9 1_555 1_555
C13 C12 1_555 1_555
C14 C13 1_555 1_555
C15 C14 1_555 1_555
H10 C15 1_555 1_555
C16 C15 1_555 1_555
C17 C16 1_555 1_555
C18 C17 1_555 1_555
H11 C18 1_555 1_555
C19 C14 1_555 1_555
C20 H12 1_555 1_555
H13 C20 1_555 1_555
C21 C20 1_555 1_555
H14 C21 1_555 1_555
C22 C21 1_555 1_555
H15 C22 1_555 1_555
H16 C22 1_555 1_555
H17 C22 1_555 1_555
C23 C21 1_555 1_555
H18 C23 1_555 1_555
H19 C23 1_555 1_555
H20 C23 1_555 1_555
C24 H21 1_555 1_555
H22 C24 1_555 1_555
C25 C24 1_555 1_555
H23 C25 1_555 1_555
C26 C25 1_555 1_555
H24 C26 1_555 1_555
H25 C26 1_555 1_555
H26 C26 1_555 1_555
C27 C25 1_555 1_555
H27 C27 1_555 1_555
H28 C27 1_555 1_555
H29 C27 1_555 1_555
C28 C16 1_555 1_555
C29 C28 1_555 1_555
H30 C29 1_555 1_555
C30 C31 1_555 1_555
C31 H31 1_555 1_555
C32 C31 1_555 1_555
C33 C32 1_555 1_555
C34 C33 1_555 1_555
H32 C34 1_555 1_555
C35 C30 1_555 1_555
C36 H33 1_555 1_555
H34 C36 1_555 1_555
C37 C36 1_555 1_555
C38 C37 1_555 1_555
H35 C38 1_555 1_555
H36 C38 1_555 1_555
H37 C38 1_555 1_555
C39 C37 1_555 1_555
H38 C39 1_555 1_555
H39 C39 1_555 1_555
H40 C39 1_555 1_555
C40 H41 1_555 1_555
H42 C40 1_555 1_555
C41 C40 1_555 1_555
H43 C41 1_555 1_555
C42 C41 1_555 1_555
H44 C42 1_555 1_555
H45 C42 1_555 1_555
H46 C42 1_555 1_555
C43 C41 1_555 1_555
H47 C43 1_555 1_555
H48 C43 1_555 1_555
H49 C43 1_555 1_555
C44 H50 1_555 1_555
C45 C44 1_555 1_555
C46 C45 1_555 1_555
C47 C46 1_555 1_555
H51 C47 1_555 1_555
C48 C47 1_555 1_555
C49 C48 1_555 1_555
C50 C49 1_555 1_555
H52 C50 1_555 1_555
C51 C46 1_555 1_555
C52 H53 1_555 1_555
H54 C52 1_555 1_555
C53 C52 1_555 1_555
H55 C53 1_555 1_555
C54 C53 1_555 1_555
H56 C54 1_555 1_555
H57 C54 1_555 1_555
H58 C54 1_555 1_555
C55 C53 1_555 1_555
H59 C55 1_555 1_555
H60 C55 1_555 1_555
H61 C55 1_555 1_555
C56 H62 1_555 1_555
H63 C56 1_555 1_555
C57 C56 1_555 1_555
H64 C57 1_555 1_555
C58 C57 1_555 1_555
H65 C58 1_555 1_555
H66 C58 1_555 1_555
H67 C58 1_555 1_555
C59 C57 1_555 1_555
H68 C59 1_555 1_555
H69 C59 1_555 1_555
H70 C59 1_555 1_555
C60 C48 1_555 1_555
C61 C60 1_555 1_555
H71 C61 1_555 1_555
C62 C63 1_555 1_555
C63 H72 1_555 1_555
C64 C63 1_555 1_555
C65 C64 1_555 1_555
C66 C65 1_555 1_555
H73 C66 1_555 1_555
C67 C62 1_555 1_555
C68 H74 1_555 1_555
H75 C68 1_555 1_555
C69 C68 1_555 1_555
H76 C69 1_555 1_555
C70 C69 1_555 1_555
H77 C70 1_555 1_555
H78 C70 1_555 1_555
H79 C70 1_555 1_555
C71 C69 1_555 1_555
H80 C71 1_555 1_555
H81 C71 1_555 1_555
H82 C71 1_555 1_555
C72 H83 1_555 1_555
H84 C72 1_555 1_555
C73 C72 1_555 1_555
H85 C73 1_555 1_555
C74 C73 1_555 1_555
H86 C74 1_555 1_555
H87 C74 1_555 1_555
H88 C74 1_555 1_555
C75 C73 1_555 1_555
H89 C75 1_555 1_555
H90 C75 1_555 1_555
H91 C75 1_555 1_555
C76 H92 1_555 1_555
C77 C76 1_555 1_555
C78 C77 1_555 1_555
C79 C78 1_555 1_555
H93 C79 1_555 1_555
C80 C79 1_555 1_555
C81 C80 1_555 1_555
C82 C81 1_555 1_555
H94 C82 1_555 1_555
C83 C78 1_555 1_555
C84 H95 1_555 1_555
H96 C84 1_555 1_555
C85 C84 1_555 1_555
H97 C85 1_555 1_555
C86 C85 1_555 1_555
H98 C86 1_555 1_555
H99 C86 1_555 1_555
H100 C86 1_555 1_555
C87 C85 1_555 1_555
H101 C87 1_555 1_555
H102 C87 1_555 1_555
H103 C87 1_555 1_555
C88 H104 1_555 1_555
H105 C88 1_555 1_555
C89 C88 1_555 1_555
H106 C89 1_555 1_555
C90 C89 1_555 1_555
H107 C90 1_555 1_555
H108 C90 1_555 1_555
H109 C90 1_555 1_555
C91 C89 1_555 1_555
H110 C91 1_555 1_555
H111 C91 1_555 1_555
H112 C91 1_555 1_555
C92 C80 1_555 1_555
C93 C92 1_555 1_555
H113 C93 1_555 1_555
C94 C95 1_555 1_555
C95 H114 1_555 1_555
C96 C95 1_555 1_555
C97 C96 1_555 1_555
C98 C97 1_555 1_555
H115 C98 1_555 1_555
C99 C94 1_555 1_555
C100 H116 1_555 1_555
H117 C100 1_555 1_555
C101 C100 1_555 1_555
H118 C101 1_555 1_555
C102 C101 1_555 1_555
H119 C102 1_555 1_555
H120 C102 1_555 1_555
H121 C102 1_555 1_555
C103 C101 1_555 1_555
H122 C103 1_555 1_555
H123 C103 1_555 1_555
H124 C103 1_555 1_555
C104 H125 1_555 1_555
H126 C104 1_555 1_555
C105 C104 1_555 1_555
H127 C105 1_555 1_555
C106 C105 1_555 1_555
H128 C106 1_555 1_555
H129 C106 1_555 1_555
H130 C106 1_555 1_555
C107 C105 1_555 1_555
H131 C107 1_555 1_555
H132 C107 1_555 1_555
H133 C107 1_555 1_555
C108 H134 1_555 1_555
C109 C108 1_555 1_555
C110 C109 1_555 1_555
C111 C110 1_555 1_555
H135 C111 1_555 1_555
C112 C11 1_555 1_555
C113 C112 1_555 1_555
C114 C113 1_555 1_555
H136 C114 1_555 1_555
C115 C110 1_555 1_555
C116 H137 1_555 1_555
H138 C116 1_555 1_555
C117 C116 1_555 1_555
H139 C117 1_555 1_555
C118 C117 1_555 1_555
H140 C118 1_555 1_555
H141 C118 1_555 1_555
H142 C118 1_555 1_555
C119 C117 1_555 1_555
H143 C119 1_555 1_555
H144 C119 1_555 1_555
H145 C119 1_555 1_555
C120 H146 1_555 1_555
H147 C120 1_555 1_555
C121 C120 1_555 1_555
H148 C121 1_555 1_555
C122 C121 1_555 1_555
H149 C122 1_555 1_555
H150 C122 1_555 1_555
H151 C122 1_555 1_555
C123 C121 1_555 1_555
H152 C123 1_555 1_555
H153 C123 1_555 1_555
H154 C123 1_555 1_555
N1 C1 1_555 1_555
N2 C1 1_555 1_555
H155 N2 1_555 1_555
N3 C5 1_555 1_555
H156 N3 1_555 1_555
N4 C9 1_555 1_555
N5 N4 1_555 1_555
N6 C11 1_555 1_555
N7 C7 1_555 1_555
N8 N7 1_555 1_555
N9 C13 1_555 1_555
N10 C28 1_555 1_555
N11 N10 1_555 1_555
N12 C29 1_555 1_555
N13 C32 1_555 1_555
N14 N13 1_555 1_555
N15 C45 1_555 1_555
N16 C60 1_555 1_555
N17 N16 1_555 1_555
N18 C61 1_555 1_555
N19 C64 1_555 1_555
N20 N19 1_555 1_555
N21 C77 1_555 1_555
N22 C92 1_555 1_555
N23 N22 1_555 1_555
N24 C93 1_555 1_555
N25 C96 1_555 1_555
N26 N25 1_555 1_555
N27 C109 1_555 1_555
O1 C6 1_555 1_555
O2 C8 1_555 1_555
O3 C19 1_555 1_555
O4 C17 1_555 1_555
O5 C35 1_555 1_555
O6 C33 1_555 1_555
O7 C51 1_555 1_555
O8 C49 1_555 1_555
O9 C67 1_555 1_555
O10 C65 1_555 1_555
O11 C83 1_555 1_555
O12 C81 1_555 1_555
O13 C99 1_555 1_555
O14 C97 1_555 1_555
O15 C115 1_555 1_555
O16 C113 1_555 1_555
S1 C124 1_555 1_555
O17 S1 1_555 1_555
C125 S1 1_555 1_555
C126 S2 1_555 1_555
C127 S2 1_555 1_555
O18 S2 1_555 1_555
C128 S3 1_555 1_555
C129 S3 1_555 1_555
O19 S3 1_555 1_555
C130 S4 1_555 1_555
C131 S4 1_555 1_555
O20 S4 1_555 1_555
C132 S5 1_555 1_555
C133 S5 1_555 1_555
O21 S5 1_555 1_555
C134 S6 1_555 1_555
C135 S6 1_555 1_555
O22 S6 1_555 1_555
C136 S7 1_555 1_555
C137 S7 1_555 1_555
O23 S7 1_555 1_555
C5 N1 1_555 1_555
C6 N2 1_555 1_555
C8 N3 1_555 1_555
C10 N4 1_555 1_555
C12 N7 1_555 1_555
C18 C19 1_555 1_555
C20 O3 1_555 1_555
C24 O4 1_555 1_555
C30 N12 1_555 1_555
C34 C35 1_555 1_555
C36 O5 1_555 1_555
C40 O6 1_555 1_555
C44 N13 1_555 1_555
C50 C51 1_555 1_555
C52 O7 1_555 1_555
C56 O8 1_555 1_555
C62 N18 1_555 1_555
C66 C67 1_555 1_555
C68 O9 1_555 1_555
C72 O10 1_555 1_555
C76 N19 1_555 1_555
C82 C83 1_555 1_555
C84 O11 1_555 1_555
C88 O12 1_555 1_555
C94 N24 1_555 1_555
C98 C99 1_555 1_555
C100 O13 1_555 1_555
C104 O14 1_555 1_555
C108 N25 1_555 1_555
C111 C112 1_555 1_555
C114 C115 1_555 1_555
C116 O15 1_555 1_555
C120 O16 1_555 1_555
N5 N6 1_555 1_555
N8 N9 1_555 1_555
N11 N12 1_555 1_555
N14 N15 1_555 1_555
N17 N18 1_555 1_555
N20 N21 1_555 1_555
N23 N24 1_555 1_555
N26 N27 1_555 1_555

#END
