
#######################################################################
#
#                 Cambridge Crystallographic Data Centre
#                                CCDC 
#
#######################################################################
#
# If this CIF has been generated from an entry in the Cambridge 
# Structural Database, then it will include bibliographic, chemical, 
# crystal, experimental, refinement or atomic coordinate data resulting 
# from the CCDC's data processing and validation procedures.
#
#######################################################################

data_GOCJAL
_chemical_formula_moiety         'C54 H62 N18 O8,4(C3 H7 N1 O1),2(H2 O1)'
_chemical_name_systematic        
'22,24,46,48-tetraisobutoxy-3,4,5,8,14,17,18,19,27,28,29,32,38,41,42,43,51,55-octadecaazanonacyclo[43.3.1.1^2,5^.1^9,13^.1^17,20^.1^21,25^.1^26,29^.1^33,37^.1^41,44^]hexapentaconta-1(49),2(56),3,9(55),10,12,18,20(54),21(53),22,24,26(52),27,33(51),34,36,42,44(50),45,47-icosaene-7,15,31,39-tetrone N,N-dimethylformamide solvate dihydrate'
_symmetry_cell_setting           triclinic
_symmetry_space_group_name_H-M   'P -1'
_symmetry_Int_Tables_number      2
_space_group_name_Hall           '-P 1'
loop_
_symmetry_equiv_pos_site_id
_symmetry_equiv_pos_as_xyz
1 x,y,z
2 -x,-y,-z
_cell_length_a                   8.9525(10)
_cell_length_b                   14.4548(15)
_cell_length_c                   14.5468(15)
_cell_angle_alpha                90.1820(10)
_cell_angle_beta                 102.8100(10)
_cell_angle_gamma                90.3490(10)
_cell_volume                     1835.55
_exptl_crystal_colour            colorless
_exptl_crystal_description       prismatic
_cell_formula_units_Z            1
loop_
_atom_site_label
_atom_site_type_symbol
_atom_site_fract_x
_atom_site_fract_y
_atom_site_fract_z
N1 N -0.05501(17) 0.18296(10) -0.29261(10)
N2 N 0.0945(2) 0.16610(12) -0.26280(11)
N3 N 0.13852(19) 0.20256(12) -0.17859(11)
N4 N 0.48574(18) 0.29176(11) 0.11008(11)
N5 N 0.61005(18) 0.28907(11) 0.17705(11)
N6 N 0.57397(16) 0.32284(10) 0.25519(10)
N7 N 0.54082(18) 0.22302(10) 0.41646(11)
N8 N 0.39697(17) 0.10289(10) 0.45083(10)
N9 N 0.24437(17) -0.02360(10) 0.47564(10)
O1 O -0.21921(14) 0.34070(9) -0.09542(8)
O2 O 0.13224(14) 0.42938(8) 0.19719(8)
O3 O 0.67703(19) 0.34027(10) 0.50306(10)
O4 O 0.26190(18) -0.03641(10) 0.32010(9)
C1 C -0.1087(2) 0.22984(11) -0.22698(12)
H1 H -0.2108 0.2498 -0.2307
C2 C 0.01498(19) 0.24262(11) -0.15364(11)
C3 C 0.03658(19) 0.29068(11) -0.06201(11)
C4 C 0.17933(19) 0.28880(11) -0.00096(12)
H2 H 0.2584 0.2547 -0.0193
C5 C 0.2131(2) 0.33430(11) 0.08584(11)
C6 C 0.0952(2) 0.38461(11) 0.11159(11)
C7 C -0.0500(2) 0.38807(11) 0.05218(11)
H3 H -0.1288 0.4226 0.0703
C8 C -0.08002(19) 0.34083(11) -0.03415(11)
C9 C -0.3387(2) 0.39519(12) -0.07136(12)
H4 H -0.3110 0.4616 -0.0704
H5 H -0.3524 0.3780 -0.0079
C10 C -0.4868(2) 0.37776(13) -0.14412(13)
H6 H -0.5164 0.3113 -0.1403
C11 C -0.6115(2) 0.43764(16) -0.11777(15)
H7 H -0.5872 0.5031 -0.1246
H8 H -0.6166 0.4255 -0.0523
H9 H -0.7105 0.4227 -0.1596
C12 C -0.4726(3) 0.39719(15) -0.24342(14)
H10 H -0.4429 0.4620 -0.2484
H11 H -0.5712 0.3853 -0.2870
H12 H -0.3945 0.3569 -0.2596
C13 C 0.0158(2) 0.48312(12) 0.22580(12)
H13 H -0.0723 0.4429 0.2300
H14 H -0.0208 0.5320 0.1788
C14 C 0.0831(2) 0.52691(12) 0.32161(12)
H15 H 0.1721 0.5668 0.3155
C15 C -0.0378(2) 0.58835(13) 0.34973(14)
H16 H -0.0762 0.6325 0.2991
H17 H 0.0079 0.6221 0.4078
H18 H -0.1228 0.5498 0.3603
C16 C 0.1394(3) 0.45531(15) 0.39803(13)
H19 H 0.0523 0.4184 0.4081
H20 H 0.1882 0.4869 0.4568
H21 H 0.2138 0.4147 0.3782
C17 C 0.36756(19) 0.32739(11) 0.14506(12)
C18 C 0.4262(2) 0.34834(11) 0.23827(12)
H22 H 0.3736 0.3752 0.2816
C19 C 0.6896(2) 0.32971(13) 0.34291(13)
H23 H 0.7249 0.3948 0.3524
H24 H 0.7788 0.2917 0.3372
C20 C 0.6335(2) 0.29833(12) 0.42914(13)
C21 C 0.4666(2) 0.18261(12) 0.48254(12)
C22 C 0.4636(3) 0.22198(14) 0.56916(15)
H25 H 0.5131 0.2793 0.5886
C23 C 0.3859(3) 0.17433(17) 0.62555(16)
H26 H 0.3816 0.1987 0.6856
C24 C 0.3141(3) 0.09145(15) 0.59584(15)
H27 H 0.2610 0.0576 0.6347
C25 C 0.3221(2) 0.05909(12) 0.50688(12)
C26 C 0.2205(2) -0.06417(11) 0.38919(12)
C27 C 0.1318(2) -0.15532(12) 0.38729(12)
H28 H 0.2037 -0.2046 0.4156
H29 H 0.0548 -0.1486 0.4262
H30 H 0.202(3) -0.0547(15) 0.5196(16)
H31 H 0.525(3) 0.1958(18) 0.3637(19)
N1A N 0.05501(17) -0.18296(10) 0.29261(10)
N2A N -0.0945(2) -0.16610(12) 0.26280(11)
N3A N -0.13852(19) -0.20256(12) 0.17859(11)
N4A N -0.48574(18) -0.29176(11) -0.11008(11)
N5A N -0.61005(18) -0.28907(11) -0.17705(11)
N6A N -0.57397(16) -0.32284(10) -0.25519(10)
N7A N -0.54082(18) -0.22302(10) -0.41646(11)
N8A N -0.39697(17) -0.10289(10) -0.45083(10)
N9A N -0.24437(17) 0.02360(10) -0.47564(10)
O1A O 0.21921(14) -0.34070(9) 0.09542(8)
O2A O -0.13224(14) -0.42938(8) -0.19719(8)
O3A O -0.67703(19) -0.34027(10) -0.50306(10)
O4A O -0.26190(18) 0.03641(10) -0.32010(9)
C1A C 0.1087(2) -0.22984(11) 0.22698(12)
H1A H 0.2108 -0.2498 0.2307
C2A C -0.01498(19) -0.24262(11) 0.15364(11)
C3A C -0.03658(19) -0.29068(11) 0.06201(11)
C4A C -0.17933(19) -0.28880(11) 0.00096(12)
H2A H -0.2584 -0.2547 0.0193
C5A C -0.2131(2) -0.33430(11) -0.08584(11)
C6A C -0.0952(2) -0.38461(11) -0.11159(11)
C7A C 0.0500(2) -0.38807(11) -0.05218(11)
H3A H 0.1288 -0.4226 -0.0703
C8A C 0.08002(19) -0.34083(11) 0.03415(11)
C9A C 0.3387(2) -0.39519(12) 0.07136(12)
H4A H 0.3110 -0.4616 0.0704
H5A H 0.3524 -0.3780 0.0079
C10A C 0.4868(2) -0.37776(13) 0.14412(13)
H6A H 0.5164 -0.3113 0.1403
C11A C 0.6115(2) -0.43764(16) 0.11777(15)
H7A H 0.5872 -0.5031 0.1246
H8A H 0.6166 -0.4255 0.0523
H9A H 0.7105 -0.4227 0.1596
C12A C 0.4726(3) -0.39719(15) 0.24342(14)
H10A H 0.4429 -0.4620 0.2484
H11A H 0.5712 -0.3853 0.2870
H12A H 0.3945 -0.3569 0.2596
C13A C -0.0158(2) -0.48312(12) -0.22580(12)
H13A H 0.0723 -0.4429 -0.2300
H14A H 0.0208 -0.5320 -0.1788
C14A C -0.0831(2) -0.52691(12) -0.32161(12)
H15A H -0.1721 -0.5668 -0.3155
C15A C 0.0378(2) -0.58835(13) -0.34973(14)
H16A H 0.0762 -0.6325 -0.2991
H17A H -0.0079 -0.6221 -0.4078
H18A H 0.1228 -0.5498 -0.3603
C16A C -0.1394(3) -0.45531(15) -0.39803(13)
H19A H -0.0523 -0.4184 -0.4081
H20A H -0.1882 -0.4869 -0.4568
H21A H -0.2138 -0.4147 -0.3782
C17A C -0.36756(19) -0.32739(11) -0.14506(12)
C18A C -0.4262(2) -0.34834(11) -0.23827(12)
H22A H -0.3736 -0.3752 -0.2816
C19A C -0.6896(2) -0.32971(13) -0.34291(13)
H23A H -0.7249 -0.3948 -0.3524
H24A H -0.7788 -0.2917 -0.3372
C20A C -0.6335(2) -0.29833(12) -0.42914(13)
C21A C -0.4666(2) -0.18261(12) -0.48254(12)
C22A C -0.4636(3) -0.22198(14) -0.56916(15)
H25A H -0.5131 -0.2793 -0.5886
C23A C -0.3859(3) -0.17433(17) -0.62555(16)
H26A H -0.3816 -0.1987 -0.6856
C24A C -0.3141(3) -0.09145(15) -0.59584(15)
H27A H -0.2610 -0.0576 -0.6347
C25A C -0.3221(2) -0.05909(12) -0.50688(12)
C26A C -0.2205(2) 0.06417(11) -0.38919(12)
C27A C -0.1318(2) 0.15532(12) -0.38729(12)
H28A H -0.2037 0.2046 -0.4156
H29A H -0.0548 0.1486 -0.4262
H30A H -0.202(3) 0.0547(15) -0.5196(16)
H31A H -0.525(3) -0.1958(18) -0.3637(19)
N10 N 0.0080(2) 0.13790(12) 0.27189(12)
O5 O -0.10523(19) 0.12061(11) 0.39539(10)
C28 C -0.0808(3) 0.09467(14) 0.31938(14)
H32 H -0.1297 0.0392 0.2929
C29 C 0.0915(3) 0.22044(16) 0.30934(18)
H33 H 0.0470 0.2741 0.2723
H34 H 0.1991 0.2143 0.3060
H35 H 0.0849 0.2291 0.3752
C30 C 0.0287(3) 0.1043(2) 0.18147(17)
H36 H -0.0193 0.0432 0.1686
H37 H 0.1384 0.0998 0.1829
H38 H -0.0189 0.1474 0.1318
N11 N 0.6927(2) 0.04535(12) 1.00076(13)
O6 O 0.6299(2) 0.03456(13) 1.14300(13)
C31 C 0.6375(3) 0.07776(16) 1.07118(18)
H39 H 0.6006 0.1394 1.0662
C32 C 0.7479(3) -0.04848(16) 1.00109(17)
H40 H 0.7302 -0.0807 1.0569
H41 H 0.8579 -0.0475 1.0025
H42 H 0.6932 -0.0808 0.9441
C33 C 0.7009(4) 0.10053(19) 0.9186(2)
H43 H 0.6709 0.1643 0.9285
H44 H 0.6312 0.0744 0.8628
H45 H 0.8059 0.1001 0.9092
O7 O 0.45377(19) 0.11064(10) 0.25781(10)
H46 H 0.520(4) 0.077(2) 0.225(2)
H47 H 0.413(4) 0.067(2) 0.289(2)
loop_
_geom_bond_atom_site_label_1
_geom_bond_atom_site_label_2
_geom_bond_site_symmetry_1
_geom_bond_site_symmetry_2
N1 N2 1_555 1_555
N2 N3 1_555 1_555
N3 C2 1_555 1_555
N4 N5 1_555 1_555
N5 N6 1_555 1_555
N6 C18 1_555 1_555
N7 C20 1_555 1_555
N8 C21 1_555 1_555
N9 C25 1_555 1_555
O1 C8 1_555 1_555
O2 C6 1_555 1_555
O3 C20 1_555 1_555
O4 C26 1_555 1_555
C1 N1 1_555 1_555
H1 C1 1_555 1_555
C2 C1 1_555 1_555
C3 C2 1_555 1_555
C4 C3 1_555 1_555
H2 C4 1_555 1_555
C5 C4 1_555 1_555
C6 C5 1_555 1_555
C7 C6 1_555 1_555
H3 C7 1_555 1_555
C8 C3 1_555 1_555
C9 O1 1_555 1_555
H4 C9 1_555 1_555
H5 C9 1_555 1_555
C10 C9 1_555 1_555
H6 C10 1_555 1_555
C11 C10 1_555 1_555
H7 C11 1_555 1_555
H8 C11 1_555 1_555
H9 C11 1_555 1_555
C12 C10 1_555 1_555
H10 C12 1_555 1_555
H11 C12 1_555 1_555
H12 C12 1_555 1_555
C13 O2 1_555 1_555
H13 C13 1_555 1_555
H14 C13 1_555 1_555
C14 C13 1_555 1_555
H15 C14 1_555 1_555
C15 C14 1_555 1_555
H16 C15 1_555 1_555
H17 C15 1_555 1_555
H18 C15 1_555 1_555
C16 C14 1_555 1_555
H19 C16 1_555 1_555
H20 C16 1_555 1_555
H21 C16 1_555 1_555
C17 N4 1_555 1_555
C18 C17 1_555 1_555
H22 C18 1_555 1_555
C19 N6 1_555 1_555
H23 C19 1_555 1_555
H24 C19 1_555 1_555
C20 C19 1_555 1_555
C21 N7 1_555 1_555
C22 C21 1_555 1_555
H25 C22 1_555 1_555
C23 C22 1_555 1_555
H26 C23 1_555 1_555
C24 C23 1_555 1_555
H27 C24 1_555 1_555
C25 N8 1_555 1_555
C26 N9 1_555 1_555
C27 C26 1_555 1_555
H28 C27 1_555 1_555
H29 C27 1_555 1_555
H30 N9 1_555 1_555
H31 N7 1_555 1_555
N10 C28 1_555 1_555
O5 C28 1_555 1_555
C28 H32 1_555 1_555
C29 N10 1_555 1_555
H33 C29 1_555 1_555
H34 C29 1_555 1_555
H35 C29 1_555 1_555
C30 N10 1_555 1_555
H36 C30 1_555 1_555
H37 C30 1_555 1_555
H38 C30 1_555 1_555
N11 C31 1_555 1_555
O6 C31 1_555 1_555
C31 H39 1_555 1_555
C32 N11 1_555 1_555
H40 C32 1_555 1_555
H41 C32 1_555 1_555
H42 C32 1_555 1_555
C33 N11 1_555 1_555
H43 C33 1_555 1_555
H44 C33 1_555 1_555
H45 C33 1_555 1_555
O7 H46 1_555 1_555
H47 O7 1_555 1_555
N1A C27 1_555 1_555
N2A N1A 1_555 1_555
N3A N2A 1_555 1_555
N4A N5A 1_555 1_555
N5A N6A 1_555 1_555
N6A C18A 1_555 1_555
N7A C20A 1_555 1_555
N8A C21A 1_555 1_555
N9A C25A 1_555 1_555
O1A C8A 1_555 1_555
O2A C6A 1_555 1_555
O3A C20A 1_555 1_555
O4A C26A 1_555 1_555
C1A N1A 1_555 1_555
H1A C1A 1_555 1_555
C2A N3A 1_555 1_555
C3A C2A 1_555 1_555
C4A C3A 1_555 1_555
H2A C4A 1_555 1_555
C5A C4A 1_555 1_555
C6A C5A 1_555 1_555
C7A C6A 1_555 1_555
H3A C7A 1_555 1_555
C8A C3A 1_555 1_555
C9A O1A 1_555 1_555
H4A C9A 1_555 1_555
H5A C9A 1_555 1_555
C10A C9A 1_555 1_555
H6A C10A 1_555 1_555
C11A C10A 1_555 1_555
H7A C11A 1_555 1_555
H8A C11A 1_555 1_555
H9A C11A 1_555 1_555
C12A C10A 1_555 1_555
H10A C12A 1_555 1_555
H11A C12A 1_555 1_555
H12A C12A 1_555 1_555
C13A O2A 1_555 1_555
H13A C13A 1_555 1_555
H14A C13A 1_555 1_555
C14A C13A 1_555 1_555
H15A C14A 1_555 1_555
C15A C14A 1_555 1_555
H16A C15A 1_555 1_555
H17A C15A 1_555 1_555
H18A C15A 1_555 1_555
C16A C14A 1_555 1_555
H19A C16A 1_555 1_555
H20A C16A 1_555 1_555
H21A C16A 1_555 1_555
C17A N4A 1_555 1_555
C18A C17A 1_555 1_555
H22A C18A 1_555 1_555
C19A N6A 1_555 1_555
H23A C19A 1_555 1_555
H24A C19A 1_555 1_555
C20A C19A 1_555 1_555
C21A N7A 1_555 1_555
C22A C21A 1_555 1_555
H25A C22A 1_555 1_555
C23A C22A 1_555 1_555
H26A C23A 1_555 1_555
C24A C23A 1_555 1_555
H27A C24A 1_555 1_555
C25A N8A 1_555 1_555
C26A N9A 1_555 1_555
C27A N1 1_555 1_555
H28A C27A 1_555 1_555
H29A C27A 1_555 1_555
H30A N9A 1_555 1_555
H31A N7A 1_555 1_555
C5 C17 1_555 1_555
C7 C8 1_555 1_555
C24 C25 1_555 1_555
C1A C2A 1_555 1_555
C5A C17A 1_555 1_555
C7A C8A 1_555 1_555
C24A C25A 1_555 1_555
C26A C27A 1_555 1_555

#END
