
#######################################################################
#
#                 Cambridge Crystallographic Data Centre
#                                CCDC 
#
#######################################################################
#
# If this CIF has been generated from an entry in the Cambridge 
# Structural Database, then it will include bibliographic, chemical, 
# crystal, experimental, refinement or atomic coordinate data resulting 
# from the CCDC's data processing and validation procedures.
#
#######################################################################

data_GOCQUM
_chemical_formula_moiety         'C21 H20 O4 S1'
_chemical_name_systematic        
4'-Methoxy-4-((4-methoxyphenyl)sulfonyl)-2-methylbiphenyl
_symmetry_cell_setting           triclinic
_symmetry_space_group_name_H-M   'P -1'
_symmetry_Int_Tables_number      2
_space_group_name_Hall           '-P 1'
loop_
_symmetry_equiv_pos_site_id
_symmetry_equiv_pos_as_xyz
1 x,y,z
2 -x,-y,-z
_cell_length_a                   8.2608(9)
_cell_length_b                   10.2952(12)
_cell_length_c                   11.2990(13)
_cell_angle_alpha                72.007(5)
_cell_angle_beta                 86.670(5)
_cell_angle_gamma                80.266(5)
_cell_volume                     900.77
_exptl_crystal_colour            colorless
_cell_formula_units_Z            2
loop_
_atom_site_label
_atom_site_type_symbol
_atom_site_fract_x
_atom_site_fract_y
_atom_site_fract_z
C1 C 0.8956(2) 0.27766(19) 0.56567(17)
C2 C 0.8579(2) 0.26990(19) 0.44890(17)
H1 H 0.8955 0.1884 0.4262
C3 C 0.7650(2) 0.3833(2) 0.36732(17)
H2 H 0.7374 0.3794 0.2881
C4 C 0.7114(2) 0.50323(19) 0.40081(17)
C5 C 0.7510(2) 0.51126(19) 0.51626(18)
H3 H 0.7156 0.5937 0.5381
C6 C 0.8433(2) 0.39683(19) 0.59958(17)
H4 H 0.8702 0.4004 0.6790
C7 C 0.8469(2) 0.03174(18) 0.74640(17)
C8 C 0.8029(2) 0.01912(19) 0.86930(17)
H5 H 0.8549 0.0626 0.9161
C9 C 0.6804(2) -0.05895(19) 0.92204(17)
H6 H 0.6509 -0.0707 1.0068
C10 C 0.5993(2) -0.12073(18) 0.85345(17)
C11 C 0.6453(2) -0.10615(19) 0.72826(17)
C12 C 0.7711(2) -0.03059(19) 0.67671(18)
H7 H 0.8052 -0.0217 0.5932
C13 C 0.4681(2) -0.20183(19) 0.91614(17)
C14 C 0.4986(2) -0.3041(2) 1.03111(18)
H8 H 0.6041 -0.3229 1.0675
C15 C 0.3776(2) -0.3780(2) 1.09244(18)
H9 H 0.4013 -0.4483 1.1695
C16 C 0.2212(2) -0.35002(19) 1.04181(17)
C17 C 0.1877(2) -0.2480(2) 0.92819(18)
H10 H 0.0813 -0.2279 0.8929
C18 C 0.3112(2) -0.1760(2) 0.86680(18)
H11 H 0.2880 -0.1071 0.7889
C19 C 0.5545(2) 0.73185(19) 0.34241(19)
H12 H 0.4876 0.7098 0.4184
H13 H 0.4863 0.7948 0.2734
H14 H 0.6451 0.7763 0.3553
C20 C 0.5685(3) -0.1728(2) 0.64864(19)
H15 H 0.4603 -0.1195 0.6207
H16 H 0.5565 -0.2676 0.6974
H17 H 0.6390 -0.1745 0.5762
C21 C -0.0602(2) -0.3813(2) 1.0756(2)
H18 H -0.0930 -0.2855 1.0764
H19 H -0.1287 -0.4408 1.1346
H20 H -0.0746 -0.3864 0.9918
O1 O 1.10830(16) 0.05227(14) 0.60517(12)
O2 O 1.07274(16) 0.17187(14) 0.76710(12)
O3 O 0.61963(17) 0.60700(14) 0.31328(12)
O4 O 0.10941(16) -0.42695(14) 1.11081(12)
S1 S 1.00172(5) 0.13039(4) 0.67401(4)
loop_
_geom_bond_atom_site_label_1
_geom_bond_atom_site_label_2
_geom_bond_site_symmetry_1
_geom_bond_site_symmetry_2
C1 C2 1_555 1_555
C2 H1 1_555 1_555
C3 C2 1_555 1_555
H2 C3 1_555 1_555
C4 C3 1_555 1_555
C5 C4 1_555 1_555
H3 C5 1_555 1_555
C6 C1 1_555 1_555
H4 C6 1_555 1_555
C7 C8 1_555 1_555
C8 H5 1_555 1_555
C9 C8 1_555 1_555
H6 C9 1_555 1_555
C10 C9 1_555 1_555
C11 C10 1_555 1_555
C12 C7 1_555 1_555
H7 C12 1_555 1_555
C13 C10 1_555 1_555
C14 C13 1_555 1_555
H8 C14 1_555 1_555
C15 C14 1_555 1_555
H9 C15 1_555 1_555
C16 C15 1_555 1_555
C17 C16 1_555 1_555
H10 C17 1_555 1_555
C18 C13 1_555 1_555
H11 C18 1_555 1_555
C19 H12 1_555 1_555
H13 C19 1_555 1_555
H14 C19 1_555 1_555
C20 C11 1_555 1_555
H15 C20 1_555 1_555
H16 C20 1_555 1_555
H17 C20 1_555 1_555
C21 H18 1_555 1_555
H19 C21 1_555 1_555
H20 C21 1_555 1_555
O1 S1 1_555 1_555
O2 S1 1_555 1_555
O3 C4 1_555 1_555
O4 C16 1_555 1_555
S1 C1 1_555 1_555
C5 C6 1_555 1_555
C7 S1 1_555 1_555
C11 C12 1_555 1_555
C17 C18 1_555 1_555
C19 O3 1_555 1_555
C21 O4 1_555 1_555

#END
