
#######################################################################
#
#                 Cambridge Crystallographic Data Centre
#                                CCDC 
#
#######################################################################
#
# If this CIF has been generated from an entry in the Cambridge 
# Structural Database, then it will include bibliographic, chemical, 
# crystal, experimental, refinement or atomic coordinate data resulting 
# from the CCDC's data processing and validation procedures.
#
#######################################################################

data_GOCYEC
_chemical_formula_moiety         'C15 H26 O2'
_chemical_name_systematic        Guaidiol
_symmetry_cell_setting           orthorhombic
_symmetry_space_group_name_H-M   'P 21 21 21'
_symmetry_Int_Tables_number      19
_space_group_name_Hall           'P 2ac 2ab'
loop_
_symmetry_equiv_pos_site_id
_symmetry_equiv_pos_as_xyz
1 x,y,z
2 1/2-x,-y,1/2+z
3 -x,1/2+y,1/2-z
4 1/2+x,1/2-y,-z
_cell_length_a                   7.8949(2)
_cell_length_b                   11.1943(2)
_cell_length_c                   16.42960(10)
_cell_angle_alpha                90
_cell_angle_beta                 90
_cell_angle_gamma                90
_cell_volume                     1452.01
_exptl_crystal_colour            colorless
_exptl_crystal_description       chunky
_chemical_melting_point          134-136deg.C
_cell_formula_units_Z            4
_exptl_crystal_recrystallization_method benzene/hexane
loop_
_atom_site_label
_atom_site_type_symbol
_atom_site_fract_x
_atom_site_fract_y
_atom_site_fract_z
C1 C -0.0759(3) 0.9420(2) 0.5648(2)
C2 C -0.0598(3) 1.0472(2) 0.5072(2)
H1 H -0.0813(3) 1.1216(2) 0.5356(2)
H2 H 0.0528(3) 1.0502(2) 0.4837(2)
C3 C -0.1917(4) 1.0262(3) 0.4419(2)
H3 H -0.1395(4) 0.9917(3) 0.3939(2)
H4 H -0.2448(4) 1.1010(3) 0.4267(2)
C4 C -0.3241(3) 0.9398(2) 0.4775(2)
H5 H -0.3067(3) 0.8643(2) 0.4484(2)
C5 C -0.5092(4) 0.9743(3) 0.4604(2)
C6 C -0.5596(4) 1.1003(2) 0.4872(2)
H6 H -0.4795(4) 1.1557(2) 0.4632(2)
H7 H -0.6696(4) 1.1177(2) 0.4637(2)
C7 C -0.5695(4) 1.1273(3) 0.5771(2)
H8 H -0.6574(4) 1.0774(3) 0.6005(2)
H9 H -0.6054(4) 1.2097(3) 0.5834(2)
C8 C -0.4083(4) 1.1097(2) 0.6268(2)
H10 H -0.3148(4) 1.1480(2) 0.5975(2)
C9 C -0.3666(3) 0.9762(2) 0.6354(2)
H11 H -0.4726(3) 0.9336(2) 0.6422(2)
H12 H -0.3025(3) 0.9660(2) 0.6852(2)
C10 C -0.2675(3) 0.9147(2) 0.5664(2)
H13 H -0.2790(3) 0.8284(2) 0.5750(2)
C11 C -0.4226(5) 1.1681(3) 0.7099(2)
C12 C -0.3054(6) 1.2446(4) 0.7354(3)
H14 H -0.3144(6) 1.2791(4) 0.7867(3)
H15 H -0.2144(6) 1.2637(4) 0.7019(3)
C13 C -0.5679(6) 1.1359(5) 0.7610(3)
H16 H -0.6383(6) 1.0799(5) 0.7324(3)
H17 H -0.6324(6) 1.2063(5) 0.7734(3)
H18 H -0.5283(6) 1.1003(5) 0.8107(3)
C14 C -0.5412(4) 0.9632(3) 0.3695(2)
H19 H -0.5102(4) 0.8845(3) 0.3516(2)
H20 H -0.4745(4) 1.0214(3) 0.3409(2)
H21 H -0.6591(4) 0.9766(3) 0.3585(2)
C15 C 0.0073(4) 0.9565(3) 0.6462(2)
H22 H -0.0100(4) 0.8856(3) 0.6779(2)
H23 H -0.0414(4) 1.0237(3) 0.6739(2)
H24 H 0.1265(4) 0.9695(3) 0.6388(2)
O1 O 0.0001(2) 0.8400(2) 0.52382(14)
H25 H 0.1019(2) 0.8517(2) 0.51792(14)
O2 O -0.6225(2) 0.8929(2) 0.50276(13)
H26 H -0.5898(2) 0.8240(2) 0.49621(13)
loop_
_geom_bond_atom_site_label_1
_geom_bond_atom_site_label_2
_geom_bond_site_symmetry_1
_geom_bond_site_symmetry_2
C1 C2 1_555 1_555
C2 H1 1_555 1_555
H2 C2 1_555 1_555
C3 C2 1_555 1_555
H3 C3 1_555 1_555
H4 C3 1_555 1_555
C4 C3 1_555 1_555
H5 C4 1_555 1_555
C5 C4 1_555 1_555
C6 C5 1_555 1_555
H6 C6 1_555 1_555
H7 C6 1_555 1_555
C7 C6 1_555 1_555
H8 C7 1_555 1_555
H9 C7 1_555 1_555
C8 C7 1_555 1_555
H10 C8 1_555 1_555
C9 C8 1_555 1_555
H11 C9 1_555 1_555
H12 C9 1_555 1_555
C10 C1 1_555 1_555
H13 C10 1_555 1_555
C11 C8 1_555 1_555
C12 C11 1_555 1_555
H14 C12 1_555 1_555
H15 C12 1_555 1_555
C13 C11 1_555 1_555
H16 C13 1_555 1_555
H17 C13 1_555 1_555
H18 C13 1_555 1_555
C14 C5 1_555 1_555
H19 C14 1_555 1_555
H20 C14 1_555 1_555
H21 C14 1_555 1_555
C15 C1 1_555 1_555
H22 C15 1_555 1_555
H23 C15 1_555 1_555
H24 C15 1_555 1_555
O1 C1 1_555 1_555
H25 O1 1_555 1_555
O2 C5 1_555 1_555
H26 O2 1_555 1_555
C4 C10 1_555 1_555
C9 C10 1_555 1_555

#END
