
#######################################################################
#
#                 Cambridge Crystallographic Data Centre
#                                CCDC 
#
#######################################################################
#
# If this CIF has been generated from an entry in the Cambridge 
# Structural Database, then it will include bibliographic, chemical, 
# crystal, experimental, refinement or atomic coordinate data resulting 
# from the CCDC's data processing and validation procedures.
#
#######################################################################

data_GODKEQ
_chemical_compound_source        'aerial parts of Euphorbia humifosa Willd'
_chemical_formula_moiety         'C6 H9 N1 O3'
_chemical_name_systematic        
4\b-Hydroxy-5\b-methoxy-3-methylene-\a-pyrrolidin-2-one
_chemical_properties_biological  
'plant source used in Chinese folk medicine for treatment of jaundice, dysentery, enteritis, poisonous snake bites and traumatic bleeding'
_symmetry_cell_setting           hexagonal
_symmetry_space_group_name_H-M   'P 65'
_symmetry_Int_Tables_number      170
_space_group_name_Hall           'P 65'
loop_
_symmetry_equiv_pos_site_id
_symmetry_equiv_pos_as_xyz
1 x,y,z
2 -y,x-y,2/3+z
3 -x+y,-x,1/3+z
4 -x,-y,1/2+z
5 y,-x+y,1/6+z
6 x-y,x,5/6+z
_cell_length_a                   13.5532(13)
_cell_length_b                   13.5532(13)
_cell_length_c                   6.6908(10)
_cell_angle_alpha                90
_cell_angle_beta                 90
_cell_angle_gamma                120
_cell_volume                     1064.37
_exptl_crystal_colour            colorless
_exptl_crystal_description       needles
_chemical_melting_point          '381.15-382.15 K'
_cell_formula_units_Z            6
loop_
_atom_site_label
_atom_site_type_symbol
_atom_site_fract_x
_atom_site_fract_y
_atom_site_fract_z
O1 O 0.74346(16) 0.26786(17) 1.1086(3)
O2 O 0.87618(17) 0.09985(15) 0.6212(3)
O3 O 0.93443(15) 0.32192(16) 0.5837(3)
N1 N 0.76933(19) 0.28359(19) 0.7692(4)
C1 C 0.77110(19) 0.2422(2) 0.9503(5)
C2 C 0.8080(2) 0.1566(2) 0.9202(5)
C3 C 0.8022(2) 0.1355(2) 0.7004(4)
C4 C 0.8170(2) 0.2470(2) 0.6114(5)
C5 C 0.8386(2) 0.1129(2) 1.0687(5)
H1 H 0.8378 0.1356 1.1995
H2 H 0.8610 0.0596 1.0420
C6 C 0.9613(3) 0.4196(3) 0.4678(5)
H3 H 0.9215 0.3965 0.3426
H4 H 1.0419 0.4617 0.4434
H5 H 0.9388 0.4668 0.5386
H6 H 0.749(2) 0.333(2) 0.762(5)
H7 H 0.9430(18) 0.146(3) 0.649(6)
H8 H 0.726(2) 0.074(2) 0.666(4)
H9 H 0.783(2) 0.241(2) 0.485(4)
loop_
_geom_bond_atom_site_label_1
_geom_bond_atom_site_label_2
_geom_bond_site_symmetry_1
_geom_bond_site_symmetry_2
O1 C1 1_555 1_555
O2 C3 1_555 1_555
O3 C4 1_555 1_555
N1 C1 1_555 1_555
C1 C2 1_555 1_555
C2 C3 1_555 1_555
C3 C4 1_555 1_555
C4 N1 1_555 1_555
C5 C2 1_555 1_555
H1 C5 1_555 1_555
H2 C5 1_555 1_555
C6 O3 1_555 1_555
H3 C6 1_555 1_555
H4 C6 1_555 1_555
H5 C6 1_555 1_555
H6 N1 1_555 1_555
H7 O2 1_555 1_555
H8 C3 1_555 1_555
H9 C4 1_555 1_555

#END
