
#######################################################################
#
#                 Cambridge Crystallographic Data Centre
#                                CCDC 
#
#######################################################################
#
# If this CIF has been generated from an entry in the Cambridge 
# Structural Database, then it will include bibliographic, chemical, 
# crystal, experimental, refinement or atomic coordinate data resulting 
# from the CCDC's data processing and validation procedures.
#
#######################################################################

data_GODROI
_chemical_formula_moiety         'C16 H19 N3 O2'
_chemical_name_systematic        
'4-Methoxy-6-methyl-N-(2-(pyridin-2-yl)propan-2-yl)nicotinamide unknown solvate'
_symmetry_cell_setting           triclinic
_symmetry_space_group_name_H-M   'P -1'
_symmetry_Int_Tables_number      2
_space_group_name_Hall           '-P 1'
loop_
_symmetry_equiv_pos_site_id
_symmetry_equiv_pos_as_xyz
1 x,y,z
2 -x,-y,-z
_cell_length_a                   8.0742(5)
_cell_length_b                   12.4409(10)
_cell_length_c                   17.6473(12)
_cell_angle_alpha                71.940(7)
_cell_angle_beta                 79.009(6)
_cell_angle_gamma                72.177(6)
_cell_volume                     1595.45
_exptl_crystal_colour            colorless
_exptl_crystal_description       block
_cell_formula_units_Z            4
loop_
_atom_site_label
_atom_site_type_symbol
_atom_site_fract_x
_atom_site_fract_y
_atom_site_fract_z
O1 O 0.31256(18) 0.27148(12) 0.54334(10)
O2 O 0.84135(19) 0.13991(13) 0.56868(11)
N1 N 0.6730(3) 0.44260(16) 0.39646(11)
N2 N 0.5931(2) 0.08297(13) 0.58298(10)
H1 H 0.4858 0.1065 0.5729
N3 N 0.3499(2) -0.02557(15) 0.62508(10)
C1 C 0.4996(3) 0.49180(18) 0.39170(13)
C2 C 0.3763(3) 0.43816(18) 0.43984(13)
H2 H 0.2581 0.4748 0.4355
C3 C 0.4266(3) 0.32994(17) 0.49483(13)
C4 C 0.6051(3) 0.27738(16) 0.50101(12)
C5 C 0.7184(3) 0.33925(18) 0.45023(13)
H3 H 0.8374 0.3054 0.4541
C6 C 0.4478(4) 0.6066(2) 0.33070(16)
H4 H 0.4266 0.5936 0.2829
H5 H 0.5402 0.6448 0.3183
H6 H 0.3433 0.6552 0.3516
C7 C 0.1298(3) 0.3240(2) 0.53969(18)
H7 H 0.0659 0.2700 0.5737
H8 H 0.1033 0.3434 0.4855
H9 H 0.0968 0.3940 0.5574
C8 C 0.6884(3) 0.16043(17) 0.55523(13)
C9 C 0.6567(3) -0.03940(16) 0.62945(12)
C10 C 0.8055(3) -0.10519(18) 0.57930(14)
H10 H 0.8997 -0.0683 0.5651
H11 H 0.7637 -0.1036 0.5315
H12 H 0.8466 -0.1850 0.6099
C11 C 0.7138(3) -0.0444(2) 0.70895(13)
H13 H 0.6164 -0.0046 0.7395
H14 H 0.8070 -0.0072 0.6982
H15 H 0.7537 -0.1248 0.7388
C12 C 0.5040(3) -0.09469(17) 0.64790(12)
C13 C 0.5256(3) -0.21253(18) 0.68791(14)
H16 H 0.6347 -0.2598 0.7026
C14 C 0.3838(4) -0.2585(2) 0.70549(14)
H17 H 0.3956 -0.3371 0.7329
C15 C 0.2241(3) -0.1872(2) 0.68207(14)
H18 H 0.1263 -0.2163 0.6934
C16 C 0.2132(3) -0.0722(2) 0.64156(14)
H19 H 0.1061 -0.0242 0.6247
O3 O 0.9537(2) 0.75262(13) -0.03090(9)
O4 O 1.1427(2) 0.59964(13) 0.19183(10)
N4 N 1.3295(3) 0.43490(16) 0.01416(13)
N5 N 0.9907(2) 0.76730(14) 0.11209(11)
H20 H 0.9651 0.8014 0.0637
N6 N 0.7725(4) 0.96322(18) 0.05353(14)
C17 C 1.2658(3) 0.4817(2) -0.05755(15)
C18 C 1.1412(3) 0.58727(18) -0.07537(14)
H21 H 1.1001 0.6168 -0.1255
C19 C 1.0775(3) 0.64933(17) -0.01840(13)
C20 C 1.1428(3) 0.60412(16) 0.05637(13)
C21 C 1.2666(3) 0.49640(18) 0.06764(15)
H22 H 1.3095 0.4642 0.1174
C22 C 1.3351(4) 0.4119(2) -0.11804(18)
H23 H 1.4519 0.4171 -0.1393
H24 H 1.2614 0.4427 -0.1608
H25 H 1.3363 0.3314 -0.0927
C23 C 0.8806(4) 0.8004(2) -0.10595(14)
H26 H 0.9707 0.8171 -0.1484
H27 H 0.7906 0.8715 -0.1048
H28 H 0.8315 0.7448 -0.1149
C24 C 1.0910(3) 0.65772(18) 0.12553(13)
C25 C 0.9184(3) 0.83703(18) 0.17036(13)
C26 C 1.0678(5) 0.8512(3) 0.2058(2)
H29 H 1.1366 0.7753 0.2322
H30 H 1.0196 0.8966 0.2438
H31 H 1.1404 0.8905 0.1636
C27 C 0.7966(4) 0.7778(2) 0.23657(16)
H32 H 0.6973 0.7779 0.2140
H33 H 0.7577 0.8198 0.2768
H34 H 0.8586 0.6984 0.2604
C28 C 0.8110(3) 0.95493(18) 0.12457(14)
C29 C 0.7515(4) 1.0507(2) 0.15586(17)
H35 H 0.7795 1.0446 0.2060
C30 C 0.6526(4) 1.1537(2) 0.1137(2)
H36 H 0.6119 1.2178 0.1350
C31 C 0.6134(4) 1.1625(2) 0.0405(2)
H37 H 0.5466 1.2324 0.0104
C32 C 0.6747(5) 1.0663(3) 0.0126(2)
H38 H 0.6478 1.0717 -0.0376
loop_
_geom_bond_atom_site_label_1
_geom_bond_atom_site_label_2
_geom_bond_site_symmetry_1
_geom_bond_site_symmetry_2
O1 C3 1_555 1_555
O2 C8 1_555 1_555
N1 C1 1_555 1_555
N2 H1 1_555 1_555
N3 C12 1_555 1_555
C1 C2 1_555 1_555
C2 H2 1_555 1_555
C3 C2 1_555 1_555
C4 C3 1_555 1_555
C5 N1 1_555 1_555
H3 C5 1_555 1_555
C6 C1 1_555 1_555
H4 C6 1_555 1_555
H5 C6 1_555 1_555
H6 C6 1_555 1_555
C7 O1 1_555 1_555
H7 C7 1_555 1_555
H8 C7 1_555 1_555
H9 C7 1_555 1_555
C8 N2 1_555 1_555
C9 N2 1_555 1_555
C10 C9 1_555 1_555
H10 C10 1_555 1_555
H11 C10 1_555 1_555
H12 C10 1_555 1_555
C11 C9 1_555 1_555
H13 C11 1_555 1_555
H14 C11 1_555 1_555
H15 C11 1_555 1_555
C12 C9 1_555 1_555
C13 C12 1_555 1_555
H16 C13 1_555 1_555
C14 C13 1_555 1_555
H17 C14 1_555 1_555
C15 C14 1_555 1_555
H18 C15 1_555 1_555
C16 N3 1_555 1_555
H19 C16 1_555 1_555
O3 C19 1_555 1_555
O4 C24 1_555 1_555
N4 C17 1_555 1_555
N5 H20 1_555 1_555
N6 C28 1_555 1_555
C17 C18 1_555 1_555
C18 H21 1_555 1_555
C19 C18 1_555 1_555
C20 C19 1_555 1_555
C21 N4 1_555 1_555
H22 C21 1_555 1_555
C22 C17 1_555 1_555
H23 C22 1_555 1_555
H24 C22 1_555 1_555
H25 C22 1_555 1_555
C23 O3 1_555 1_555
H26 C23 1_555 1_555
H27 C23 1_555 1_555
H28 C23 1_555 1_555
C24 N5 1_555 1_555
C25 N5 1_555 1_555
C26 C25 1_555 1_555
H29 C26 1_555 1_555
H30 C26 1_555 1_555
H31 C26 1_555 1_555
C27 C25 1_555 1_555
H32 C27 1_555 1_555
H33 C27 1_555 1_555
H34 C27 1_555 1_555
C28 C25 1_555 1_555
C29 C28 1_555 1_555
H35 C29 1_555 1_555
C30 C29 1_555 1_555
H36 C30 1_555 1_555
C31 C30 1_555 1_555
H37 C31 1_555 1_555
C32 N6 1_555 1_555
H38 C32 1_555 1_555
C4 C5 1_555 1_555
C4 C8 1_555 1_555
C15 C16 1_555 1_555
C20 C21 1_555 1_555
C20 C24 1_555 1_555
C31 C32 1_555 1_555

#END
