
#######################################################################
#
#                 Cambridge Crystallographic Data Centre
#                                CCDC 
#
#######################################################################
#
# If this CIF has been generated from an entry in the Cambridge 
# Structural Database, then it will include bibliographic, chemical, 
# crystal, experimental, refinement or atomic coordinate data resulting 
# from the CCDC's data processing and validation procedures.
#
#######################################################################

data_GODRIA
_chemical_formula_moiety         'C19 H20 N2 O2'
_chemical_name_systematic        
N,N'-Diformyl-t-5-methyl-r-2,t-3-diphenylpiperazine-1,4-dicarbaldehyde
_symmetry_cell_setting           monoclinic
_symmetry_space_group_name_H-M   'P 21/n'
_symmetry_Int_Tables_number      14
_space_group_name_Hall           '-P 2yn'
loop_
_symmetry_equiv_pos_site_id
_symmetry_equiv_pos_as_xyz
1 x,y,z
2 1/2-x,1/2+y,1/2-z
3 -x,-y,-z
4 1/2+x,1/2-y,1/2+z
_cell_length_a                   12.355(3)
_cell_length_b                   11.645(3)
_cell_length_c                   12.750(3)
_cell_angle_alpha                90
_cell_angle_beta                 117.407(16)
_cell_angle_gamma                90
_cell_volume                     1628.5
_exptl_crystal_colour            colorless
_exptl_crystal_description       cubic
_cell_formula_units_Z            4
_exptl_crystal_recrystallization_method ethanol
loop_
_atom_site_label
_atom_site_type_symbol
_atom_site_fract_x
_atom_site_fract_y
_atom_site_fract_z
N1 N 0.66874(15) 0.56348(15) 0.23883(14)
C1 C 0.59273(17) 0.63564(17) 0.13723(17)
H1 H 0.5389 0.5841 0.0738
C2 C 0.66733(18) 0.70274(17) 0.09047(17)
O1 O 0.62820(16) 0.39832(14) 0.13242(15)
N2 N 0.58374(16) 0.76717(15) 0.28458(16)
C3 C 0.74201(19) 0.62279(19) 0.35071(19)
H2 H 0.8018 0.6711 0.3428
H3 H 0.7855 0.5666 0.4120
C4 C 0.6628(2) 0.69610(19) 0.38653(19)
H4 H 0.7173 0.7484 0.4486
C5 C 0.6104(2) 0.7823(2) 0.00014(19)
H5 H 0.5273 0.7956 -0.0291
O2 O 0.51810(19) 0.94770(15) 0.2174(2)
C6 C 0.51085(18) 0.71148(17) 0.16975(18)
H6 H 0.4801 0.7730 0.1108
C7 C 0.6800(2) 0.45031(19) 0.2255(2)
C8 C 0.39901(18) 0.65223(19) 0.16688(17)
C9 C 0.5798(2) 0.8818(2) 0.2957(2)
C10 C 0.6740(2) 0.8417(2) -0.0470(2)
H7 H 0.6339 0.8949 -0.1070
C11 C 0.7972(2) 0.8225(2) -0.0054(2)
H8 H 0.8408 0.8631 -0.0363
C12 C 0.8546(2) 0.7425(2) 0.0824(2)
H9 H 0.9374 0.7286 0.1104
C13 C 0.3210(2) 0.7186(2) 0.1926(2)
H10 H 0.3386 0.7958 0.2110
C14 C 0.79047(19) 0.68220(19) 0.1296(2)
H11 H 0.8304 0.6276 0.1880
C15 C 0.5938(3) 0.6273(2) 0.4375(2)
H12 H 0.5389 0.6769 0.4501
H13 H 0.6505 0.5938 0.5113
H14 H 0.5482 0.5674 0.3833
C16 C 0.2186(2) 0.6723(3) 0.1915(2)
H15 H 0.1672 0.7184 0.2085
C17 C 0.3705(2) 0.5376(2) 0.1393(2)
H16 H 0.4210 0.4916 0.1209
C18 C 0.1911(3) 0.5581(3) 0.1654(3)
H17 H 0.1220 0.5264 0.1656
C19 C 0.2673(3) 0.4911(3) 0.1390(3)
H18 H 0.2491 0.4139 0.1208
H19 H 0.7350 0.4139 0.3095
H20 H 0.6300 0.9079 0.3872
loop_
_geom_bond_atom_site_label_1
_geom_bond_atom_site_label_2
_geom_bond_site_symmetry_1
_geom_bond_site_symmetry_2
N1 C1 1_555 1_555
C1 H1 1_555 1_555
C2 C1 1_555 1_555
O1 C7 1_555 1_555
N2 C4 1_555 1_555
C3 N1 1_555 1_555
H2 C3 1_555 1_555
H3 C3 1_555 1_555
C4 C3 1_555 1_555
H4 C4 1_555 1_555
C5 C2 1_555 1_555
H5 C5 1_555 1_555
O2 C9 1_555 1_555
C6 C1 1_555 1_555
H6 C6 1_555 1_555
C7 N1 1_555 1_555
C8 C6 1_555 1_555
C9 N2 1_555 1_555
C10 C5 1_555 1_555
H7 C10 1_555 1_555
C11 C10 1_555 1_555
H8 C11 1_555 1_555
C12 C11 1_555 1_555
H9 C12 1_555 1_555
C13 C8 1_555 1_555
H10 C13 1_555 1_555
C14 C2 1_555 1_555
H11 C14 1_555 1_555
C15 C4 1_555 1_555
H12 C15 1_555 1_555
H13 C15 1_555 1_555
H14 C15 1_555 1_555
C16 C13 1_555 1_555
H15 C16 1_555 1_555
C17 C8 1_555 1_555
H16 C17 1_555 1_555
C18 C16 1_555 1_555
H17 C18 1_555 1_555
C19 C17 1_555 1_555
H18 C19 1_555 1_555
H19 C7 1_555 1_555
H20 C9 1_555 1_555
N2 C6 1_555 1_555
C12 C14 1_555 1_555
C18 C19 1_555 1_555

#END
