
#######################################################################
#
#                 Cambridge Crystallographic Data Centre
#                                CCDC 
#
#######################################################################
#
# If this CIF has been generated from an entry in the Cambridge 
# Structural Database, then it will include bibliographic, chemical, 
# crystal, experimental, refinement or atomic coordinate data resulting 
# from the CCDC's data processing and validation procedures.
#
#######################################################################

data_GODTEA
_chemical_compound_source        'Isolated from Rhododendron principis'
_chemical_name_common            'principinol A methanol solvate'
_chemical_formula_moiety         'C20 H30 O4,C1 H4 O1'
_chemical_name_systematic        
'(9S)-6,10-epoxygrayanotox-15-ene-3,5,14-triol methanol solvate'
_symmetry_cell_setting           monoclinic
_symmetry_space_group_name_H-M   'P 21'
_symmetry_Int_Tables_number      4
_space_group_name_Hall           'P 2yb'
loop_
_symmetry_equiv_pos_site_id
_symmetry_equiv_pos_as_xyz
1 x,y,z
2 -x,1/2+y,-z
_cell_length_a                   9.6060(3)
_cell_length_b                   6.2829(2)
_cell_length_c                   16.1321(4)
_cell_angle_alpha                90
_cell_angle_beta                 97.869(2)
_cell_angle_gamma                90
_cell_volume                     964.461
_exptl_crystal_colour            colorless
_exptl_crystal_description       plate
_cell_formula_units_Z            2
loop_
_atom_site_label
_atom_site_type_symbol
_atom_site_fract_x
_atom_site_fract_y
_atom_site_fract_z
O1 O 0.32125(14) 1.1914(2) 0.61420(7)
H1 H 0.3918 1.1504 0.6469
O2 O 0.26026(14) 0.5369(2) 0.70894(7)
H2 H 0.2648 0.4417 0.6729
O3 O 0.50933(12) 0.94958(18) 0.71655(6)
O4 O 0.61598(14) 0.4054(2) 0.94037(7)
H3 H 0.5365 0.3496 0.9404
C1 C 0.41265(16) 0.7144(3) 0.61200(9)
H4 H 0.4181 0.5641 0.5923
C2 C 0.35203(17) 0.8612(3) 0.53904(9)
H5 H 0.4282 0.9428 0.5181
H6 H 0.3025 0.7763 0.4923
C3 C 0.25017(18) 1.0107(3) 0.57418(10)
H7 H 0.1773 1.0599 0.5279
C4 C 0.18098(17) 0.8671(3) 0.63439(10)
C5 C 0.30750(16) 0.7326(3) 0.67909(9)
C6 C 0.39669(17) 0.8512(3) 0.75404(9)
H8 H 0.3380 0.9640 0.7760
C7 C 0.46193(18) 0.7097(3) 0.82633(10)
H9 H 0.3995 0.5864 0.8316
H10 H 0.4697 0.7915 0.8792
C8 C 0.60775(17) 0.6291(3) 0.81308(9)
C9 C 0.61648(17) 0.5910(3) 0.71794(9)
H11 H 0.5551 0.4657 0.7007
C10 C 0.55418(16) 0.7837(3) 0.66257(9)
C11 C 0.76710(18) 0.5273(3) 0.70416(10)
H12 H 0.7644 0.4700 0.6468
H13 H 0.8269 0.6563 0.7085
C12 C 0.83462(19) 0.3605(3) 0.76696(11)
H14 H 0.9371 0.3551 0.7650
H15 H 0.7950 0.2184 0.7513
C13 C 0.80754(18) 0.4159(3) 0.85651(10)
H16 H 0.8574 0.3174 0.8994
C14 C 0.64851(17) 0.4149(3) 0.85654(9)
H17 H 0.6041 0.2934 0.8226
C15 C 0.73018(17) 0.7674(3) 0.85056(9)
H18 H 0.7269 0.9179 0.8555
C16 C 0.84277(18) 0.6480(3) 0.87553(10)
C17 C 0.9877(2) 0.7223(4) 0.90899(12)
H19 H 0.9896 0.8783 0.9103
H20 H 1.0544 0.6704 0.8728
H21 H 1.0139 0.6670 0.9658
C18 C 0.09782(19) 0.9907(3) 0.69219(11)
H22 H 0.1572 1.1027 0.7207
H23 H 0.0675 0.8937 0.7338
H24 H 0.0152 1.0551 0.6593
C19 C 0.0789(2) 0.7152(4) 0.58142(12)
H25 H 0.0312 0.6254 0.6185
H26 H 0.1315 0.6251 0.5470
H27 H 0.0090 0.7984 0.5450
C20 C 0.65646(18) 0.8915(3) 0.61243(10)
H28 H 0.6137 1.0215 0.5867
H29 H 0.6792 0.7948 0.5686
H30 H 0.7426 0.9281 0.6496
O5 O 0.37071(15) 0.1886(3) 0.93299(9)
H31 H 0.3741 0.1128 0.9761
C21 C 0.2390(2) 0.2855(6) 0.91680(15)
H32 H 0.2343 0.4044 0.9556
H33 H 0.1658 0.1813 0.9243
H34 H 0.2246 0.3386 0.8592
loop_
_geom_bond_atom_site_label_1
_geom_bond_atom_site_label_2
_geom_bond_site_symmetry_1
_geom_bond_site_symmetry_2
O1 H1 1_555 1_555
O2 H2 1_555 1_555
O3 C6 1_555 1_555
O4 H3 1_555 1_555
C1 H4 1_555 1_555
C2 C1 1_555 1_555
H5 C2 1_555 1_555
H6 C2 1_555 1_555
C3 O1 1_555 1_555
H7 C3 1_555 1_555
C4 C3 1_555 1_555
C5 O2 1_555 1_555
C6 C5 1_555 1_555
H8 C6 1_555 1_555
C7 C6 1_555 1_555
H9 C7 1_555 1_555
H10 C7 1_555 1_555
C8 C7 1_555 1_555
C9 C8 1_555 1_555
H11 C9 1_555 1_555
C10 O3 1_555 1_555
C11 C9 1_555 1_555
H12 C11 1_555 1_555
H13 C11 1_555 1_555
C12 C11 1_555 1_555
H14 C12 1_555 1_555
H15 C12 1_555 1_555
C13 C12 1_555 1_555
H16 C13 1_555 1_555
C14 O4 1_555 1_555
H17 C14 1_555 1_555
C15 C8 1_555 1_555
H18 C15 1_555 1_555
C16 C13 1_555 1_555
C17 C16 1_555 1_555
H19 C17 1_555 1_555
H20 C17 1_555 1_555
H21 C17 1_555 1_555
C18 C4 1_555 1_555
H22 C18 1_555 1_555
H23 C18 1_555 1_555
H24 C18 1_555 1_555
C19 C4 1_555 1_555
H25 C19 1_555 1_555
H26 C19 1_555 1_555
H27 C19 1_555 1_555
C20 C10 1_555 1_555
H28 C20 1_555 1_555
H29 C20 1_555 1_555
H30 C20 1_555 1_555
O5 H31 1_555 1_555
C21 O5 1_555 1_555
H32 C21 1_555 1_555
H33 C21 1_555 1_555
H34 C21 1_555 1_555
C1 C5 1_555 1_555
C1 C10 1_555 1_555
C2 C3 1_555 1_555
C4 C5 1_555 1_555
C8 C14 1_555 1_555
C9 C10 1_555 1_555
C13 C14 1_555 1_555
C15 C16 1_555 1_555

#END
