
#######################################################################
#
#                 Cambridge Crystallographic Data Centre
#                                CCDC 
#
#######################################################################
#
# If this CIF has been generated from an entry in the Cambridge 
# Structural Database, then it will include bibliographic, chemical, 
# crystal, experimental, refinement or atomic coordinate data resulting 
# from the CCDC's data processing and validation procedures.
#
#######################################################################

data_GODTUQ
_chemical_formula_moiety         'C12 H15 N1 O3'
_chemical_name_systematic        
14-hydroxy-12-oxa-6-azatetracyclo[5.5.2.0^1,9^.0^2,6^]tetradec-9-en-11-one
_symmetry_cell_setting           orthorhombic
_symmetry_space_group_name_H-M   'P 21 21 21'
_symmetry_Int_Tables_number      19
_space_group_name_Hall           'P 2ac 2ab'
loop_
_symmetry_equiv_pos_site_id
_symmetry_equiv_pos_as_xyz
1 x,y,z
2 1/2-x,-y,1/2+z
3 1/2+x,1/2-y,-z
4 -x,1/2+y,1/2-z
_cell_length_a                   5.80812(19)
_cell_length_b                   8.2156(3)
_cell_length_c                   21.4801(7)
_cell_angle_alpha                90
_cell_angle_beta                 90
_cell_angle_gamma                90
_cell_volume                     1024.97
_cell_formula_units_Z            4
loop_
_atom_site_label
_atom_site_type_symbol
_atom_site_fract_x
_atom_site_fract_y
_atom_site_fract_z
O1 O 0.2371(2) 0.59131(15) 0.05987(5)
H1 H 0.0987 0.5980 0.0670
N1 N 0.7529(3) 0.57192(15) 0.07763(6)
O2 O 0.6524(2) 0.52302(14) 0.24697(5)
C1 C 0.3686(3) 0.6161(2) 0.16863(8)
H2 H 0.2993 0.6899 0.1985
H3 H 0.2841 0.5143 0.1695
O3 O 0.8474(2) 0.59836(17) 0.33263(6)
C2 C 0.8440(3) 0.7674(2) 0.23972(8)
H4 H 0.9343 0.8563 0.2508
C3 C 0.7221(3) 0.83738(19) 0.12513(8)
H5 H 0.8728 0.8698 0.1101
H6 H 0.6286 0.9342 0.1306
C4 C 0.7400(3) 0.47838(18) 0.13717(7)
H7 H 0.8980 0.4602 0.1516
C5 C 0.3596(3) 0.6912(2) 0.10239(7)
H8 H 0.2817 0.7967 0.1049
C6 C 0.6071(3) 0.7195(2) 0.07909(8)
H9 H 0.6029 0.7689 0.0376
C7 C 0.7914(3) 0.6285(2) 0.28004(9)
C8 C 0.7395(4) 0.2886(2) 0.05602(8)
H10 H 0.6558 0.2056 0.0332
H11 H 0.9006 0.2582 0.0583
C9 C 0.6384(4) 0.3133(2) 0.12062(8)
H12 H 0.6885 0.2293 0.1493
H13 H 0.4715 0.3164 0.1196
C10 C 0.7100(3) 0.4551(2) 0.02593(8)
H14 H 0.8202 0.4705 -0.0075
H15 H 0.5557 0.4680 0.0094
C11 C 0.6203(3) 0.5866(2) 0.18513(7)
C12 C 0.7431(3) 0.74659(18) 0.18516(8)
loop_
_geom_bond_atom_site_label_1
_geom_bond_atom_site_label_2
_geom_bond_site_symmetry_1
_geom_bond_site_symmetry_2
O1 H1 1_555 1_555
N1 C4 1_555 1_555
O2 C7 1_555 1_555
C1 H2 1_555 1_555
H3 C1 1_555 1_555
O3 C7 1_555 1_555
C2 H4 1_555 1_555
C3 H5 1_555 1_555
H6 C3 1_555 1_555
C4 H7 1_555 1_555
C5 O1 1_555 1_555
H8 C5 1_555 1_555
C6 N1 1_555 1_555
H9 C6 1_555 1_555
C7 C2 1_555 1_555
C8 H10 1_555 1_555
H11 C8 1_555 1_555
C9 C4 1_555 1_555
H12 C9 1_555 1_555
H13 C9 1_555 1_555
C10 N1 1_555 1_555
H14 C10 1_555 1_555
H15 C10 1_555 1_555
C11 O2 1_555 1_555
C12 C2 1_555 1_555
C1 C5 1_555 1_555
C1 C11 1_555 1_555
C3 C6 1_555 1_555
C3 C12 1_555 1_555
C4 C11 1_555 1_555
C5 C6 1_555 1_555
C8 C9 1_555 1_555
C8 C10 1_555 1_555
C11 C12 1_555 1_555

#END
