
#######################################################################
#
#                 Cambridge Crystallographic Data Centre
#                                CCDC 
#
#######################################################################
#
# If this CIF has been generated from an entry in the Cambridge 
# Structural Database, then it will include bibliographic, chemical, 
# crystal, experimental, refinement or atomic coordinate data resulting 
# from the CCDC's data processing and validation procedures.
#
#######################################################################

data_GODTIE
_chemical_compound_source        'Isolated from Rhododendron principis'
_chemical_name_common            'principinol B'
_chemical_formula_moiety         'C20 H30 O4'
_chemical_name_systematic        (9R)-6,10-epoxygrayanotox-15-ene-3,5,14-triol
_symmetry_cell_setting           orthorhombic
_symmetry_space_group_name_H-M   'P 21 21 21'
_symmetry_Int_Tables_number      19
_space_group_name_Hall           'P 2ac 2ab'
loop_
_symmetry_equiv_pos_site_id
_symmetry_equiv_pos_as_xyz
1 x,y,z
2 1/2+x,1/2-y,-z
3 -x,1/2+y,1/2-z
4 1/2-x,-y,1/2+z
_cell_length_a                   7.17230(10)
_cell_length_b                   12.2168(2)
_cell_length_c                   20.2054(3)
_cell_angle_alpha                90
_cell_angle_beta                 90
_cell_angle_gamma                90
_cell_volume                     1770.45
_exptl_crystal_colour            colorless
_exptl_crystal_description       block
_cell_formula_units_Z            4
loop_
_atom_site_label
_atom_site_type_symbol
_atom_site_fract_x
_atom_site_fract_y
_atom_site_fract_z
O1 O 1.20151(11) 0.30121(7) 0.74906(4)
H1 H 1.3124 0.2853 0.7584
O2 O 0.88319(11) 0.00956(6) 0.80185(3)
H2 H 0.8535 -0.0369 0.7731
O3 O 0.52973(11) 0.21272(6) 0.79156(4)
O4 O 0.64126(14) -0.15555(7) 0.88864(4)
H3 H 0.7203 -0.1540 0.8580
C1 C 0.81318(15) 0.18683(9) 0.84753(5)
H4 H 0.8537 0.1414 0.8861
C2 C 0.96034(17) 0.27546(9) 0.83443(5)
H5 H 0.9018 0.3445 0.8193
H6 H 1.0356 0.2903 0.8745
C3 C 1.07854(15) 0.22428(9) 0.77999(5)
H7 H 1.1553 0.1644 0.7999
C4 C 0.93553(15) 0.17255(8) 0.73235(5)
C5 C 0.80767(14) 0.11346(8) 0.78431(5)
C6 C 0.59838(15) 0.10929(9) 0.76730(5)
H8 H 0.5815 0.1051 0.7182
C7 C 0.48912(16) 0.01747(9) 0.80096(5)
H9 H 0.5459 -0.0534 0.7884
H10 H 0.3600 0.0181 0.7837
C8 C 0.48123(16) 0.02426(9) 0.87719(5)
C9 C 0.49628(15) 0.14440(9) 0.90356(5)
H11 H 0.3661 0.1736 0.9050
C10 C 0.60791(16) 0.22258(9) 0.85795(5)
C11 C 0.57177(18) 0.15058(11) 0.97606(6)
H12 H 0.7065 0.1679 0.9738
H13 H 0.5098 0.2131 0.9982
C12 C 0.5485(2) 0.04922(11) 1.02109(6)
H14 H 0.6600 0.0426 1.0497
H15 H 0.4392 0.0606 1.0502
C13 C 0.52224(19) -0.05888(10) 0.98273(6)
H16 H 0.5650 -0.1239 1.0087
C14 C 0.62195(18) -0.04948(10) 0.91596(5)
H17 H 0.7457 -0.0127 0.9208
C15 C 0.29749(17) -0.02103(9) 0.90358(6)
H18 H 0.1819 -0.0160 0.8808
C16 C 0.31875(18) -0.06821(10) 0.96203(6)
C17 C 0.1726(2) -0.11602(12) 1.00630(7)
H19 H 0.0507 -0.1112 0.9846
H20 H 0.1693 -0.0753 1.0481
H21 H 0.2021 -0.1929 1.0153
C18 C 1.02775(18) 0.09375(11) 0.68378(6)
H22 H 0.9314 0.0552 0.6585
H23 H 1.1032 0.0405 0.7083
H24 H 1.1079 0.1349 0.6534
C19 C 0.83532(17) 0.26130(10) 0.69227(6)
H25 H 0.9268 0.3026 0.6663
H26 H 0.7703 0.3111 0.7225
H27 H 0.7448 0.2270 0.6624
C20 C 0.57728(16) 0.34123(10) 0.87864(6)
H28 H 0.6269 0.3901 0.8444
H29 H 0.6417 0.3551 0.9206
H30 H 0.4435 0.3548 0.8842
loop_
_geom_bond_atom_site_label_1
_geom_bond_atom_site_label_2
_geom_bond_site_symmetry_1
_geom_bond_site_symmetry_2
O1 H1 1_555 1_555
O2 H2 1_555 1_555
O3 C6 1_555 1_555
O4 H3 1_555 1_555
C1 H4 1_555 1_555
C2 C1 1_555 1_555
H5 C2 1_555 1_555
H6 C2 1_555 1_555
C3 O1 1_555 1_555
H7 C3 1_555 1_555
C4 C3 1_555 1_555
C5 O2 1_555 1_555
C6 C5 1_555 1_555
H8 C6 1_555 1_555
C7 C6 1_555 1_555
H9 C7 1_555 1_555
H10 C7 1_555 1_555
C8 C7 1_555 1_555
C9 C8 1_555 1_555
H11 C9 1_555 1_555
C10 O3 1_555 1_555
C11 C9 1_555 1_555
H12 C11 1_555 1_555
H13 C11 1_555 1_555
C12 C11 1_555 1_555
H14 C12 1_555 1_555
H15 C12 1_555 1_555
C13 C12 1_555 1_555
H16 C13 1_555 1_555
C14 O4 1_555 1_555
H17 C14 1_555 1_555
C15 C8 1_555 1_555
H18 C15 1_555 1_555
C16 C13 1_555 1_555
C17 C16 1_555 1_555
H19 C17 1_555 1_555
H20 C17 1_555 1_555
H21 C17 1_555 1_555
C18 C4 1_555 1_555
H22 C18 1_555 1_555
H23 C18 1_555 1_555
H24 C18 1_555 1_555
C19 C4 1_555 1_555
H25 C19 1_555 1_555
H26 C19 1_555 1_555
H27 C19 1_555 1_555
C20 C10 1_555 1_555
H28 C20 1_555 1_555
H29 C20 1_555 1_555
H30 C20 1_555 1_555
C1 C5 1_555 1_555
C1 C10 1_555 1_555
C2 C3 1_555 1_555
C4 C5 1_555 1_555
C8 C14 1_555 1_555
C9 C10 1_555 1_555
C13 C14 1_555 1_555
C15 C16 1_555 1_555

#END
