
#######################################################################
#
#                 Cambridge Crystallographic Data Centre
#                                CCDC 
#
#######################################################################
#
# If this CIF has been generated from an entry in the Cambridge 
# Structural Database, then it will include bibliographic, chemical, 
# crystal, experimental, refinement or atomic coordinate data resulting 
# from the CCDC's data processing and validation procedures.
#
#######################################################################

data_GODWON
_chemical_formula_moiety         'C28 H24 O2 S1'
_chemical_name_systematic        
1,1'-(1-phenyl-2-(phenylsulfanyl)ethene-1,2-diyl)bis(4-methoxybenzene)
_symmetry_cell_setting           monoclinic
_symmetry_space_group_name_H-M   'P 21'
_symmetry_Int_Tables_number      4
_space_group_name_Hall           'P 2yb'
loop_
_symmetry_equiv_pos_site_id
_symmetry_equiv_pos_as_xyz
1 x,y,z
2 -x,1/2+y,-z
_cell_length_a                   5.9048(14)
_cell_length_b                   20.852(5)
_cell_length_c                   9.218(2)
_cell_angle_alpha                90
_cell_angle_beta                 94.460(4)
_cell_angle_gamma                90
_cell_volume                     1131.55
_exptl_crystal_colour            colorless
_exptl_crystal_description       block
_cell_formula_units_Z            2
loop_
_atom_site_label
_atom_site_type_symbol
_atom_site_fract_x
_atom_site_fract_y
_atom_site_fract_z
S1 S 0.02758(14) 0.39234(4) 0.51785(8)
O1 O 0.1588(5) 0.71063(13) 0.0117(3)
O2 O -0.2140(4) 0.35400(13) -0.1920(3)
C1 C 0.1722(5) 0.50140(16) 0.4017(4)
C2 C 0.0806(5) 0.44316(15) 0.3695(3)
C3 C 0.1476(5) 0.31754(16) 0.4747(3)
C4 C 0.3242(6) 0.31141(17) 0.3853(4)
H1 H 0.3762 0.3473 0.3382
C5 C 0.4236(7) 0.2525(2) 0.3653(4)
H2 H 0.5422 0.2489 0.3051
C6 C 0.3474(8) 0.1993(2) 0.4344(4)
H3 H 0.4143 0.1596 0.4211
C7 C 0.1728(8) 0.20487(19) 0.5229(4)
H4 H 0.1223 0.1687 0.5699
C8 C 0.0702(7) 0.26364(18) 0.5434(4)
H5 H -0.0496 0.2668 0.6028
C9 C 0.2852(6) 0.51620(15) 0.5489(4)
C10 C 0.4928(7) 0.48945(19) 0.5931(5)
H6 H 0.5614 0.4617 0.5309
C11 C 0.6009(9) 0.5031(2) 0.7282(5)
H7 H 0.7417 0.4850 0.7553
C12 C 0.5027(10) 0.5427(2) 0.8206(5)
H8 H 0.5743 0.5515 0.9119
C13 C 0.2940(11) 0.5701(3) 0.7782(5)
H9 H 0.2250 0.5972 0.8418
C14 C 0.1876(8) 0.5576(2) 0.6420(4)
H10 H 0.0498 0.5772 0.6134
C15 C 0.1612(5) 0.55560(14) 0.2975(3)
C16 C 0.3474(5) 0.59591(17) 0.2882(4)
H11 H 0.4788 0.5883 0.3480
C17 C 0.3424(6) 0.64677(18) 0.1929(4)
H12 H 0.4702 0.6725 0.1882
C18 C 0.1465(6) 0.65987(16) 0.1034(4)
C19 C -0.0417(6) 0.62123(16) 0.1129(4)
H13 H -0.1748 0.6299 0.0556
C20 C -0.0325(6) 0.56976(16) 0.2075(4)
H14 H -0.1598 0.5437 0.2112
C21 C -0.0401(9) 0.7261(2) -0.0806(6)
H15 H -0.1612 0.7375 -0.0218
H16 H -0.0845 0.6895 -0.1395
H17 H -0.0079 0.7615 -0.1422
C22 C -0.0033(5) 0.42115(15) 0.2216(3)
C23 C 0.1257(5) 0.42929(15) 0.1027(3)
H18 H 0.2658 0.4498 0.1154
C24 C 0.0490(5) 0.40750(16) -0.0332(4)
H19 H 0.1373 0.4138 -0.1112
C25 C -0.1592(5) 0.37615(15) -0.0554(3)
C26 C -0.2917(5) 0.36852(17) 0.0606(4)
H20 H -0.4334 0.3490 0.0471
C27 C -0.2116(5) 0.39020(18) 0.1969(3)
H21 H -0.3001 0.3839 0.2749
C28 C -0.4342(6) 0.3279(2) -0.2238(4)
H22 H -0.4574 0.2931 -0.1585
H23 H -0.4481 0.3124 -0.3222
H24 H -0.5462 0.3605 -0.2123
loop_
_geom_bond_atom_site_label_1
_geom_bond_atom_site_label_2
_geom_bond_site_symmetry_1
_geom_bond_site_symmetry_2
S1 C2 1_555 1_555
O1 C18 1_555 1_555
O2 C25 1_555 1_555
C1 C2 1_555 1_555
C2 C22 1_555 1_555
C3 S1 1_555 1_555
C4 C3 1_555 1_555
H1 C4 1_555 1_555
C5 C4 1_555 1_555
H2 C5 1_555 1_555
C6 C5 1_555 1_555
H3 C6 1_555 1_555
C7 C6 1_555 1_555
H4 C7 1_555 1_555
C8 C3 1_555 1_555
H5 C8 1_555 1_555
C9 C1 1_555 1_555
C10 C9 1_555 1_555
H6 C10 1_555 1_555
C11 C10 1_555 1_555
H7 C11 1_555 1_555
C12 C11 1_555 1_555
H8 C12 1_555 1_555
C13 C12 1_555 1_555
H9 C13 1_555 1_555
C14 C9 1_555 1_555
H10 C14 1_555 1_555
C15 C1 1_555 1_555
C16 C15 1_555 1_555
H11 C16 1_555 1_555
C17 C16 1_555 1_555
H12 C17 1_555 1_555
C18 C17 1_555 1_555
C19 C18 1_555 1_555
H13 C19 1_555 1_555
C20 C15 1_555 1_555
H14 C20 1_555 1_555
C21 O1 1_555 1_555
H15 C21 1_555 1_555
H16 C21 1_555 1_555
H17 C21 1_555 1_555
C22 C23 1_555 1_555
C23 H18 1_555 1_555
C24 C23 1_555 1_555
H19 C24 1_555 1_555
C25 C24 1_555 1_555
C26 C25 1_555 1_555
H20 C26 1_555 1_555
C27 C22 1_555 1_555
H21 C27 1_555 1_555
C28 O2 1_555 1_555
H22 C28 1_555 1_555
H23 C28 1_555 1_555
H24 C28 1_555 1_555
C7 C8 1_555 1_555
C13 C14 1_555 1_555
C19 C20 1_555 1_555
C26 C27 1_555 1_555

#END
