
#######################################################################
#
#                 Cambridge Crystallographic Data Centre
#                                CCDC 
#
#######################################################################
#
# If this CIF has been generated from an entry in the Cambridge 
# Structural Database, then it will include bibliographic, chemical, 
# crystal, experimental, refinement or atomic coordinate data resulting 
# from the CCDC's data processing and validation procedures.
#
#######################################################################

data_GODWIH
_chemical_formula_moiety         'C30 H28 O4 S1'
_chemical_name_systematic        
1,1',1''-(2-((4-methoxyphenyl)sulfanyl)ethene-1,1,2-triyl)tris(4-methoxybenzene)
_symmetry_cell_setting           monoclinic
_symmetry_space_group_name_H-M   'P 21/c'
_symmetry_Int_Tables_number      14
_space_group_name_Hall           '-P 2ybc'
loop_
_symmetry_equiv_pos_site_id
_symmetry_equiv_pos_as_xyz
1 x,y,z
2 -x,1/2+y,1/2-z
3 -x,-y,-z
4 x,1/2-y,1/2+z
_cell_length_a                   9.694(3)
_cell_length_b                   9.672(3)
_cell_length_c                   27.021(8)
_cell_angle_alpha                90
_cell_angle_beta                 95.745(3)
_cell_angle_gamma                90
_cell_volume                     2520.77
_exptl_crystal_colour            colorless
_exptl_crystal_description       block
_cell_formula_units_Z            4
loop_
_atom_site_label
_atom_site_type_symbol
_atom_site_fract_x
_atom_site_fract_y
_atom_site_fract_z
S1 S 0.06459(6) 0.59267(6) 0.07294(2)
O1 O 0.3216(2) 1.0467(2) -0.03311(8)
O2 O 0.54242(17) 0.96172(19) 0.20170(7)
O3 O -0.07487(19) 0.7842(2) 0.36053(6)
O4 O -0.55968(18) 0.4205(2) 0.06565(7)
C1 C 0.1426(2) 0.7283(2) 0.04148(8)
C2 C 0.1051(3) 0.8665(3) 0.04667(9)
H1 H 0.0356 0.8899 0.0676
C3 C 0.1678(3) 0.9689(3) 0.02176(9)
H2 H 0.1428 1.0627 0.0262
C4 C 0.2673(3) 0.9362(3) -0.00972(9)
C5 C 0.3052(3) 0.7999(3) -0.01561(9)
H3 H 0.3728 0.7768 -0.0374
C6 C 0.2439(2) 0.6969(3) 0.01054(8)
H4 H 0.2718 0.6035 0.0072
C7 C 0.4146(4) 1.0174(3) -0.06944(12)
H5 H 0.3676 0.9596 -0.0958
H6 H 0.4958 0.9682 -0.0537
H7 H 0.4442 1.1041 -0.0838
C8 C 0.0557(2) 0.6673(2) 0.13303(8)
C9 C 0.1824(2) 0.7427(2) 0.15373(8)
C10 C 0.3146(2) 0.6951(2) 0.14633(8)
H8 H 0.3240 0.6101 0.1294
C11 C 0.4320(2) 0.7687(2) 0.16302(8)
H9 H 0.5209 0.7335 0.1579
C12 C 0.4205(2) 0.8942(2) 0.18736(8)
C13 C 0.2899(2) 0.9441(2) 0.19505(8)
H10 H 0.2808 1.0291 0.2120
C14 C 0.1733(2) 0.8692(2) 0.17793(8)
H11 H 0.0844 0.9050 0.1828
C15 C 0.5337(3) 1.0861(3) 0.22903(12)
H12 H 0.4772 1.1534 0.2089
H13 H 0.6270 1.1237 0.2374
H14 H 0.4909 1.0671 0.2597
C16 C -0.0585(2) 0.6483(2) 0.15709(8)
C17 C -0.0585(2) 0.6826(2) 0.21111(8)
C18 C 0.0436(2) 0.6352(2) 0.24663(8)
H15 H 0.1163 0.5794 0.2364
C19 C 0.0430(2) 0.6667(2) 0.29667(8)
H16 H 0.1147 0.6331 0.3202
C20 C -0.0625(2) 0.7474(2) 0.31229(8)
C21 C -0.1667(2) 0.7956(2) 0.27721(8)
H17 H -0.2394 0.8510 0.2876
C22 C -0.1650(2) 0.7634(2) 0.22757(8)
H18 H -0.2371 0.7965 0.2042
C23 C 0.0277(3) 0.7355(3) 0.39776(9)
H19 H 0.1189 0.7699 0.3909
H20 H 0.0283 0.6341 0.3976
H21 H 0.0065 0.7687 0.4304
C24 C -0.1909(2) 0.5882(2) 0.13336(8)
C25 C -0.2577(2) 0.4841(2) 0.15745(8)
H22 H -0.2180 0.4523 0.1890
C26 C -0.3821(3) 0.4249(2) 0.13627(9)
H23 H -0.4257 0.3533 0.1530
C27 C -0.4403(2) 0.4727(3) 0.09050(9)
C28 C -0.3779(2) 0.5796(3) 0.06691(8)
H24 H -0.4195 0.6140 0.0360
C29 C -0.2561(2) 0.6359(3) 0.08804(8)
H25 H -0.2149 0.7094 0.0714
C30 C -0.6347(3) 0.3183(3) 0.09005(13)
H26 H -0.7170 0.2907 0.0683
H27 H -0.6632 0.3566 0.1210
H28 H -0.5753 0.2375 0.0976
loop_
_geom_bond_atom_site_label_1
_geom_bond_atom_site_label_2
_geom_bond_site_symmetry_1
_geom_bond_site_symmetry_2
S1 C1 1_555 1_555
O1 C4 1_555 1_555
O2 C12 1_555 1_555
O3 C20 1_555 1_555
O4 C27 1_555 1_555
C1 C2 1_555 1_555
C2 H1 1_555 1_555
C3 C2 1_555 1_555
H2 C3 1_555 1_555
C4 C3 1_555 1_555
C5 C4 1_555 1_555
H3 C5 1_555 1_555
C6 C1 1_555 1_555
H4 C6 1_555 1_555
C7 O1 1_555 1_555
H5 C7 1_555 1_555
H6 C7 1_555 1_555
H7 C7 1_555 1_555
C8 S1 1_555 1_555
C9 C8 1_555 1_555
C10 C9 1_555 1_555
H8 C10 1_555 1_555
C11 C10 1_555 1_555
H9 C11 1_555 1_555
C12 C11 1_555 1_555
C13 C12 1_555 1_555
H10 C13 1_555 1_555
C14 C9 1_555 1_555
H11 C14 1_555 1_555
C15 O2 1_555 1_555
H12 C15 1_555 1_555
H13 C15 1_555 1_555
H14 C15 1_555 1_555
C16 C8 1_555 1_555
C17 C16 1_555 1_555
C18 C17 1_555 1_555
H15 C18 1_555 1_555
C19 C18 1_555 1_555
H16 C19 1_555 1_555
C20 C19 1_555 1_555
C21 C20 1_555 1_555
H17 C21 1_555 1_555
C22 C17 1_555 1_555
H18 C22 1_555 1_555
C23 O3 1_555 1_555
H19 C23 1_555 1_555
H20 C23 1_555 1_555
H21 C23 1_555 1_555
C24 C16 1_555 1_555
C25 C24 1_555 1_555
H22 C25 1_555 1_555
C26 C25 1_555 1_555
H23 C26 1_555 1_555
C27 C26 1_555 1_555
C28 C27 1_555 1_555
H24 C28 1_555 1_555
C29 C24 1_555 1_555
H25 C29 1_555 1_555
C30 O4 1_555 1_555
H26 C30 1_555 1_555
H27 C30 1_555 1_555
H28 C30 1_555 1_555
C5 C6 1_555 1_555
C13 C14 1_555 1_555
C21 C22 1_555 1_555
C28 C29 1_555 1_555

#END
