
#######################################################################
#
#                 Cambridge Crystallographic Data Centre
#                                CCDC 
#
#######################################################################
#
# If this CIF has been generated from an entry in the Cambridge 
# Structural Database, then it will include bibliographic, chemical, 
# crystal, experimental, refinement or atomic coordinate data resulting 
# from the CCDC's data processing and validation procedures.
#
#######################################################################

data_GODWED
_chemical_compound_source        'Isolated from Rhododendron principis'
_chemical_name_common            'principinol D methanol solvate'
_chemical_formula_moiety         'C20 H32 O5,C1 H4 O1'
_chemical_name_systematic        
'grayanotox-10-ene-3,5,6,14,16-pentol methanol solvate'
_symmetry_cell_setting           monoclinic
_symmetry_space_group_name_H-M   'P 21'
_symmetry_Int_Tables_number      4
_space_group_name_Hall           'P 2yb'
loop_
_symmetry_equiv_pos_site_id
_symmetry_equiv_pos_as_xyz
1 x,y,z
2 -x,1/2+y,-z
_cell_length_a                   10.00420(10)
_cell_length_b                   6.56990(10)
_cell_length_c                   15.5831(2)
_cell_angle_alpha                90
_cell_angle_beta                 105.6820(10)
_cell_angle_gamma                90
_cell_volume                     986.099
_exptl_crystal_colour            colorless
_exptl_crystal_description       block
_cell_formula_units_Z            2
loop_
_atom_site_label
_atom_site_type_symbol
_atom_site_fract_x
_atom_site_fract_y
_atom_site_fract_z
O1 O 0.91164(18) -0.2852(3) 0.26759(15)
H1 H 0.9675 -0.3371 0.2422
O2 O 0.66297(14) -0.2241(2) 0.29619(10)
H2 H 0.7251 -0.2991 0.2862
O3 O 0.61301(14) 0.0430(3) 0.41958(9)
H3 H 0.6018 -0.0834 0.4220
O4 O 0.35964(15) 0.4528(3) 0.32082(9)
H4 H 0.4227 0.5117 0.3595
O5 O 0.09470(15) 0.4533(3) 0.22401(10)
H5 H 0.1557 0.4522 0.2731
C1 C 0.68908(19) 0.0399(3) 0.18986(12)
H6 H 0.6375 -0.0752 0.1536
C2 C 0.84084(19) 0.0260(4) 0.18203(13)
H7 H 0.8449 -0.0598 0.1306
H8 H 0.8767 0.1632 0.1740
C3 C 0.9258(2) -0.0689(4) 0.26874(14)
H9 H 1.0256 -0.0279 0.2821
C4 C 0.85802(19) 0.0154(4) 0.33950(13)
C5 C 0.70040(19) -0.0149(3) 0.29070(12)
C6 C 0.59706(19) 0.1027(3) 0.32866(11)
H10 H 0.6187 0.2511 0.3277
C7 C 0.44507(18) 0.0694(3) 0.27406(12)
H11 H 0.4383 -0.0660 0.2453
H12 H 0.3862 0.0661 0.3159
C8 C 0.38523(19) 0.2274(3) 0.20212(12)
C9 C 0.45279(19) 0.2162(3) 0.12270(12)
H13 H 0.4316 0.0771 0.0965
C10 C 0.6113(2) 0.2339(3) 0.15094(12)
C11 C 0.3782(2) 0.3672(4) 0.04888(12)
H14 H 0.4388 0.3916 0.0091
H15 H 0.2921 0.3021 0.0128
C12 C 0.3402(2) 0.5738(3) 0.08191(14)
H16 H 0.4235 0.6622 0.0964
H17 H 0.2688 0.6400 0.0334
C13 C 0.28505(19) 0.5558(3) 0.16448(13)
H18 H 0.2644 0.6934 0.1851
C14 C 0.39627(19) 0.4475(3) 0.23745(12)
H19 H 0.4907 0.5060 0.2435
C15 C 0.22463(19) 0.1980(3) 0.16471(13)
H20 H 0.2030 0.1256 0.1068
H21 H 0.1878 0.1172 0.2069
C16 C 0.1589(2) 0.4136(3) 0.15272(12)
C17 C 0.0425(2) 0.4446(4) 0.06765(14)
H22 H -0.0323 0.3470 0.0660
H23 H 0.0785 0.4232 0.0158
H24 H 0.0063 0.5835 0.0664
C18 C 0.8932(2) 0.2414(4) 0.35441(14)
H25 H 0.8518 0.3169 0.2994
H26 H 0.9942 0.2590 0.3711
H27 H 0.8560 0.2931 0.4023
C19 C 0.9120(2) -0.0953(4) 0.42825(15)
H28 H 1.0121 -0.0722 0.4512
H29 H 0.8941 -0.2415 0.4194
H30 H 0.8645 -0.0433 0.4711
C20 C 0.6743(2) 0.4033(4) 0.13569(13)
H31 H 0.7727 0.4080 0.1491
H32 H 0.6208 0.5195 0.1114
O6 O 0.45655(15) 0.1389(3) 0.53349(9)
H33 H 0.5066 0.1270 0.4983
C21 C 0.3237(2) 0.0503(4) 0.49440(16)
H34 H 0.2730 0.0366 0.5398
H35 H 0.3359 -0.0843 0.4705
H36 H 0.2711 0.1378 0.4461
loop_
_geom_bond_atom_site_label_1
_geom_bond_atom_site_label_2
_geom_bond_site_symmetry_1
_geom_bond_site_symmetry_2
O1 H1 1_555 1_555
O2 H2 1_555 1_555
O3 H3 1_555 1_555
O4 H4 1_555 1_555
O5 H5 1_555 1_555
C1 H6 1_555 1_555
C2 C1 1_555 1_555
H7 C2 1_555 1_555
H8 C2 1_555 1_555
C3 O1 1_555 1_555
H9 C3 1_555 1_555
C4 C3 1_555 1_555
C5 O2 1_555 1_555
C6 O3 1_555 1_555
H10 C6 1_555 1_555
C7 C6 1_555 1_555
H11 C7 1_555 1_555
H12 C7 1_555 1_555
C8 C7 1_555 1_555
C9 C8 1_555 1_555
H13 C9 1_555 1_555
C10 C1 1_555 1_555
C11 C9 1_555 1_555
H14 C11 1_555 1_555
H15 C11 1_555 1_555
C12 C11 1_555 1_555
H16 C12 1_555 1_555
H17 C12 1_555 1_555
C13 C12 1_555 1_555
H18 C13 1_555 1_555
C14 O4 1_555 1_555
H19 C14 1_555 1_555
C15 C8 1_555 1_555
H20 C15 1_555 1_555
H21 C15 1_555 1_555
C16 O5 1_555 1_555
C17 C16 1_555 1_555
H22 C17 1_555 1_555
H23 C17 1_555 1_555
H24 C17 1_555 1_555
C18 C4 1_555 1_555
H25 C18 1_555 1_555
H26 C18 1_555 1_555
H27 C18 1_555 1_555
C19 C4 1_555 1_555
H28 C19 1_555 1_555
H29 C19 1_555 1_555
H30 C19 1_555 1_555
C20 C10 1_555 1_555
H31 C20 1_555 1_555
H32 C20 1_555 1_555
O6 H33 1_555 1_555
C21 O6 1_555 1_555
H34 C21 1_555 1_555
H35 C21 1_555 1_555
H36 C21 1_555 1_555
C1 C5 1_555 1_555
C2 C3 1_555 1_555
C4 C5 1_555 1_555
C5 C6 1_555 1_555
C8 C14 1_555 1_555
C9 C10 1_555 1_555
C13 C14 1_555 1_555
C13 C16 1_555 1_555
C15 C16 1_555 1_555

#END
