
#######################################################################
#
#                 Cambridge Crystallographic Data Centre
#                                CCDC 
#
#######################################################################
#
# If this CIF has been generated from an entry in the Cambridge 
# Structural Database, then it will include bibliographic, chemical, 
# crystal, experimental, refinement or atomic coordinate data resulting 
# from the CCDC's data processing and validation procedures.
#
#######################################################################

data_GODXEE
_chemical_formula_moiety         'C21 H15 N3 O1'
_chemical_name_systematic        
6-(4-methoxyphenyl)-6H-indolo[2,3-b]quinoxaline
_symmetry_cell_setting           triclinic
_symmetry_space_group_name_H-M   'P -1'
_symmetry_Int_Tables_number      2
_space_group_name_Hall           '-P 1'
loop_
_symmetry_equiv_pos_site_id
_symmetry_equiv_pos_as_xyz
1 x,y,z
2 -x,-y,-z
_cell_length_a                   5.9259(3)
_cell_length_b                   11.0893(6)
_cell_length_c                   12.3340(6)
_cell_angle_alpha                79.323(3)
_cell_angle_beta                 78.333(3)
_cell_angle_gamma                86.450(3)
_cell_volume                     779.778
_exptl_crystal_colour            yellow
_exptl_crystal_description       needle
_cell_formula_units_Z            2
loop_
_atom_site_label
_atom_site_type_symbol
_atom_site_fract_x
_atom_site_fract_y
_atom_site_fract_z
N1 N 0.2420(3) 0.12410(15) 0.09797(14)
N2 N 0.0426(3) 0.11353(16) 0.33439(14)
N3 N -0.0890(3) 0.25295(15) 0.07153(14)
O1 O 0.0226(3) 0.37873(14) -0.39413(12)
C1 C 0.0507(3) 0.18081(18) 0.13579(16)
C2 C -0.0500(3) 0.17767(18) 0.25291(16)
C3 C -0.2580(3) 0.25272(18) 0.25658(17)
C4 C -0.2761(4) 0.29687(18) 0.14454(17)
C5 C 0.3452(4) 0.05910(18) 0.18257(17)
C6 C 0.5573(4) -0.00285(18) 0.15323(18)
H1 H 0.6249 -0.0001 0.0761
C7 C 0.6666(4) -0.06664(18) 0.23379(18)
H2 H 0.8109 -0.1066 0.2124
C8 C 0.5676(4) -0.0739(2) 0.34875(18)
H3 H 0.6449 -0.1192 0.4044
C9 C 0.3605(4) -0.01595(19) 0.38038(18)
H4 H 0.2936 -0.0222 0.4579
C10 C 0.2455(3) 0.05292(18) 0.29887(17)
C11 C -0.4584(4) 0.37198(19) 0.11680(19)
H5 H -0.4706 0.4000 0.0405
C12 C -0.6225(4) 0.4050(2) 0.2039(2)
H6 H -0.7489 0.4571 0.1872
C13 C -0.6056(4) 0.3629(2) 0.3160(2)
H7 H -0.7194 0.3876 0.3744
C14 C -0.4257(4) 0.28609(19) 0.34281(18)
H8 H -0.4165 0.2564 0.4192
C15 C -0.0575(4) 0.27980(18) -0.04866(17)
C16 C 0.1272(4) 0.34846(19) -0.11196(18)
H9 H 0.2380 0.3747 -0.0760
C17 C 0.1498(4) 0.37858(19) -0.22718(17)
H10 H 0.2772 0.4249 -0.2705
C18 C -0.0129(4) 0.34146(18) -0.27995(17)
C19 C -0.1971(4) 0.27274(18) -0.21743(17)
H11 H -0.3079 0.2466 -0.2535
C20 C -0.2185(4) 0.24232(18) -0.10160(17)
H12 H -0.3450 0.1953 -0.0583
C21 C -0.1427(4) 0.3423(2) -0.45119(18)
H13 H -0.1340 0.2529 -0.4460
H14 H -0.1094 0.3818 -0.5305
H15 H -0.2979 0.3672 -0.4162
loop_
_geom_bond_atom_site_label_1
_geom_bond_atom_site_label_2
_geom_bond_site_symmetry_1
_geom_bond_site_symmetry_2
N1 C1 1_555 1_555
N2 C2 1_555 1_555
N3 C1 1_555 1_555
O1 C18 1_555 1_555
C1 C2 1_555 1_555
C2 C3 1_555 1_555
C3 C4 1_555 1_555
C4 N3 1_555 1_555
C5 N1 1_555 1_555
C6 C5 1_555 1_555
H1 C6 1_555 1_555
C7 C6 1_555 1_555
H2 C7 1_555 1_555
C8 C7 1_555 1_555
H3 C8 1_555 1_555
C9 C8 1_555 1_555
H4 C9 1_555 1_555
C10 N2 1_555 1_555
C11 C4 1_555 1_555
H5 C11 1_555 1_555
C12 C11 1_555 1_555
H6 C12 1_555 1_555
C13 C12 1_555 1_555
H7 C13 1_555 1_555
C14 C3 1_555 1_555
H8 C14 1_555 1_555
C15 N3 1_555 1_555
C16 C15 1_555 1_555
H9 C16 1_555 1_555
C17 C16 1_555 1_555
H10 C17 1_555 1_555
C18 C17 1_555 1_555
C19 C18 1_555 1_555
H11 C19 1_555 1_555
C20 C15 1_555 1_555
H12 C20 1_555 1_555
C21 O1 1_555 1_555
H13 C21 1_555 1_555
H14 C21 1_555 1_555
H15 C21 1_555 1_555
C5 C10 1_555 1_555
C9 C10 1_555 1_555
C13 C14 1_555 1_555
C19 C20 1_555 1_555

#END
