
#######################################################################
#
#                 Cambridge Crystallographic Data Centre
#                                CCDC 
#
#######################################################################
#
# If this CIF has been generated from an entry in the Cambridge 
# Structural Database, then it will include bibliographic, chemical, 
# crystal, experimental, refinement or atomic coordinate data resulting 
# from the CCDC's data processing and validation procedures.
#
#######################################################################

data_GODZOQ
_chemical_formula_moiety         'C26 H22 F1 N3 O2'
_chemical_name_systematic        
3-benzyl-1-(4-fluorophenyl)-6-methyl-4-phenyl-3,4-dihydro-1H-pyrrolo[3,4-d]pyrimidine-5,7(2H,6H)-dione
_symmetry_cell_setting           monoclinic
_symmetry_space_group_name_H-M   'P 21/c'
_symmetry_Int_Tables_number      14
_space_group_name_Hall           '-P 2ybc'
loop_
_symmetry_equiv_pos_site_id
_symmetry_equiv_pos_as_xyz
1 x,y,z
2 -x,1/2+y,1/2-z
3 -x,-y,-z
4 x,1/2-y,1/2+z
_cell_length_a                   9.874(6)
_cell_length_b                   11.373(7)
_cell_length_c                   19.058(12)
_cell_angle_alpha                90
_cell_angle_beta                 90.118(10)
_cell_angle_gamma                90
_cell_volume                     2140.15
_cell_formula_units_Z            4
loop_
_atom_site_label
_atom_site_type_symbol
_atom_site_fract_x
_atom_site_fract_y
_atom_site_fract_z
N1 N 0.6862(2) 0.77879(17) 0.13364(10)
O1 O 1.08796(19) 0.84362(18) 0.00520(10)
O2 O 0.74949(19) 0.57634(17) 0.03106(10)
N2 N 0.7538(2) 0.98617(18) 0.14139(10)
C1 C 0.5591(2) 0.7198(2) 0.12974(12)
C2 C 0.8930(2) 0.8433(2) 0.08169(12)
N3 N 0.9306(2) 0.6940(2) 0.00269(11)
C3 C 0.9838(3) 0.8004(3) 0.02742(13)
C4 C 0.7892(2) 0.7670(2) 0.08727(12)
C5 C 0.6981(3) 0.8859(2) 0.17822(12)
H1 H 0.6091 0.9064 0.1959
H2 H 0.7554 0.8682 0.2183
C6 C 0.8137(3) 0.6650(3) 0.03813(13)
F1 F 0.18160(19) 0.5765(2) 0.12599(11)
C7 C 0.4907(3) 0.7091(2) 0.06722(14)
H3 H 0.5300 0.7359 0.0259
C8 C 0.5022(3) 0.6791(2) 0.19083(13)
H4 H 0.5499 0.6849 0.2328
C9 C 0.8948(3) 0.9588(2) 0.11891(13)
H5 H 0.9206 1.0186 0.0844
C10 C 0.5571(3) 1.1060(3) 0.10264(13)
C11 C 0.9938(3) 0.9682(2) 0.17914(13)
C12 C 0.3740(3) 0.6292(2) 0.19012(16)
H6 H 0.3338 0.6020 0.2311
C13 C 0.3096(3) 0.6217(3) 0.12753(19)
C14 C 1.1796(3) 0.9968(3) 0.28744(16)
H7 H 1.2413 1.0061 0.3239
C15 C 0.6671(3) 1.0220(2) 0.08204(13)
H8 H 0.6263 0.9524 0.0615
H9 H 0.7232 1.0586 0.0464
C16 C 0.9917(3) 1.0672(3) 0.22022(16)
H10 H 0.9279 1.1256 0.2117
C17 C 0.5883(3) 1.2219(3) 0.11578(14)
H11 H 0.6784 1.2456 0.1155
C18 C 1.1834(3) 0.8997(3) 0.24650(18)
H12 H 1.2487 0.8424 0.2547
C19 C 0.9915(3) 0.6287(3) -0.05485(14)
H13 H 0.9400 0.5586 -0.0635
H14 H 1.0828 0.6079 -0.0427
H15 H 0.9919 0.6766 -0.0963
C20 C 0.3640(3) 0.6587(3) 0.06580(17)
H16 H 0.3169 0.6501 0.0238
C21 C 1.0909(3) 0.8851(3) 0.19255(16)
H17 H 1.0947 0.8178 0.1649
C22 C 0.4234(3) 1.0728(3) 0.10468(15)
H18 H 0.3998 0.9948 0.0966
C23 C 1.0846(3) 1.0804(3) 0.27464(18)
H19 H 1.0816 1.1473 0.3026
C24 C 0.4888(4) 1.3033(3) 0.12930(16)
H20 H 0.5120 1.3813 0.1377
C25 C 0.3223(4) 1.1561(5) 0.11893(18)
H21 H 0.2318 1.1335 0.1205
C26 C 0.3575(5) 1.2701(5) 0.13040(18)
H22 H 0.2905 1.3257 0.1391
loop_
_geom_bond_atom_site_label_1
_geom_bond_atom_site_label_2
_geom_bond_site_symmetry_1
_geom_bond_site_symmetry_2
N1 C1 1_555 1_555
O1 C3 1_555 1_555
O2 C6 1_555 1_555
N2 C5 1_555 1_555
C1 C7 1_555 1_555
C2 C3 1_555 1_555
N3 C3 1_555 1_555
C4 N1 1_555 1_555
C5 N1 1_555 1_555
H1 C5 1_555 1_555
H2 C5 1_555 1_555
C6 N3 1_555 1_555
F1 C13 1_555 1_555
C7 H3 1_555 1_555
C8 C1 1_555 1_555
H4 C8 1_555 1_555
C9 N2 1_555 1_555
H5 C9 1_555 1_555
C10 C15 1_555 1_555
C11 C9 1_555 1_555
C12 C8 1_555 1_555
H6 C12 1_555 1_555
C13 C12 1_555 1_555
C14 H7 1_555 1_555
C15 N2 1_555 1_555
H8 C15 1_555 1_555
H9 C15 1_555 1_555
C16 C11 1_555 1_555
H10 C16 1_555 1_555
C17 C10 1_555 1_555
H11 C17 1_555 1_555
C18 C14 1_555 1_555
H12 C18 1_555 1_555
C19 N3 1_555 1_555
H13 C19 1_555 1_555
H14 C19 1_555 1_555
H15 C19 1_555 1_555
C20 C7 1_555 1_555
H16 C20 1_555 1_555
C21 C11 1_555 1_555
H17 C21 1_555 1_555
C22 C10 1_555 1_555
H18 C22 1_555 1_555
C23 C14 1_555 1_555
H19 C23 1_555 1_555
C24 C17 1_555 1_555
H20 C24 1_555 1_555
C25 C22 1_555 1_555
H21 C25 1_555 1_555
C26 C24 1_555 1_555
H22 C26 1_555 1_555
C2 C4 1_555 1_555
C2 C9 1_555 1_555
C4 C6 1_555 1_555
C13 C20 1_555 1_555
C16 C23 1_555 1_555
C18 C21 1_555 1_555
C25 C26 1_555 1_555

#END
