
#######################################################################
#
#                 Cambridge Crystallographic Data Centre
#                                CCDC 
#
#######################################################################
#
# If this CIF has been generated from an entry in the Cambridge 
# Structural Database, then it will include bibliographic, chemical, 
# crystal, experimental, refinement or atomic coordinate data resulting 
# from the CCDC's data processing and validation procedures.
#
#######################################################################

data_GOFBAF
_chemical_formula_moiety         'C19 H12 Br1 N1 O1'
_chemical_name_systematic        2-(4-Bromo-1,1'-biphenyl-2-yl)benzoxazole
_symmetry_cell_setting           triclinic
_symmetry_space_group_name_H-M   'P -1'
_symmetry_Int_Tables_number      2
_space_group_name_Hall           '-P 1'
loop_
_symmetry_equiv_pos_site_id
_symmetry_equiv_pos_as_xyz
1 x,y,z
2 -x,-y,-z
_cell_length_a                   5.9079(12)
_cell_length_b                   8.6366(17)
_cell_length_c                   14.747(3)
_cell_angle_alpha                90.28(3)
_cell_angle_beta                 100.58(3)
_cell_angle_gamma                93.44(3)
_cell_volume                     738.232
_exptl_crystal_colour            colorless
_exptl_crystal_description       prismatic
_chemical_melting_point          '113-115 deg.C'
_cell_formula_units_Z            2
loop_
_atom_site_label
_atom_site_type_symbol
_atom_site_fract_x
_atom_site_fract_y
_atom_site_fract_z
Br1 Br 0.22768(13) 0.79782(9) 0.44691(5)
O1 O -0.3500(7) 0.8728(4) 0.6701(3)
N1 N -0.2745(8) 0.7445(5) 0.8036(3)
C1 C 0.1537(10) 0.6960(6) 0.5528(4)
C2 C -0.0101(10) 0.7535(6) 0.5952(4)
H1 H -0.0884 0.8381 0.5703
C3 C -0.0631(8) 0.6862(6) 0.6771(3)
C4 C 0.0574(9) 0.5588(6) 0.7137(4)
C5 C 0.2227(10) 0.5039(7) 0.6664(4)
H2 H 0.2997 0.4173 0.6890
C6 C 0.2762(11) 0.5718(7) 0.5884(4)
H3 H 0.3917 0.5353 0.5604
C7 C 0.0235(8) 0.4740(5) 0.7987(3)
C8 C 0.2071(10) 0.4684(6) 0.8729(4)
H4 H 0.3469 0.5222 0.8703
C9 C 0.1827(12) 0.3835(7) 0.9499(4)
H5 H 0.3049 0.3838 0.9997
C10 C -0.0162(12) 0.2996(7) 0.9544(4)
H6 H -0.0295 0.2425 1.0067
C11 C -0.1998(11) 0.2990(7) 0.8809(5)
H7 H -0.3355 0.2398 0.8829
C12 C -0.1791(10) 0.3878(7) 0.8038(4)
H8 H -0.3034 0.3891 0.7549
C13 C -0.2280(9) 0.7626(6) 0.7220(4)
C14 C -0.4891(9) 0.9268(6) 0.7265(4)
C15 C -0.6499(11) 1.0362(7) 0.7077(5)
H9 H -0.6764 1.0878 0.6519
C16 C -0.7694(11) 1.0641(7) 0.7776(5)
H10 H -0.8818 1.1362 0.7686
C17 C -0.7266(11) 0.9875(6) 0.8610(5)
H11 H -0.8123 1.0091 0.9060
C18 C -0.5629(12) 0.8820(7) 0.8787(4)
H12 H -0.5330 0.8335 0.9355
C19 C -0.4411(9) 0.8487(6) 0.8090(4)
loop_
_geom_bond_atom_site_label_1
_geom_bond_atom_site_label_2
_geom_bond_site_symmetry_1
_geom_bond_site_symmetry_2
Br1 C1 1_555 1_555
O1 C13 1_555 1_555
N1 C13 1_555 1_555
C1 C2 1_555 1_555
C2 H1 1_555 1_555
C3 C2 1_555 1_555
C4 C3 1_555 1_555
C5 C4 1_555 1_555
H2 C5 1_555 1_555
C6 C1 1_555 1_555
H3 C6 1_555 1_555
C7 C4 1_555 1_555
C8 C7 1_555 1_555
H4 C8 1_555 1_555
C9 C8 1_555 1_555
H5 C9 1_555 1_555
C10 C9 1_555 1_555
H6 C10 1_555 1_555
C11 C10 1_555 1_555
H7 C11 1_555 1_555
C12 C7 1_555 1_555
H8 C12 1_555 1_555
C13 C3 1_555 1_555
C14 O1 1_555 1_555
C15 C14 1_555 1_555
H9 C15 1_555 1_555
C16 C15 1_555 1_555
H10 C16 1_555 1_555
C17 C16 1_555 1_555
H11 C17 1_555 1_555
C18 C17 1_555 1_555
H12 C18 1_555 1_555
C19 N1 1_555 1_555
C5 C6 1_555 1_555
C11 C12 1_555 1_555
C14 C19 1_555 1_555
C18 C19 1_555 1_555

#END
