
#######################################################################
#
#                 Cambridge Crystallographic Data Centre
#                                CCDC 
#
#######################################################################
#
# If this CIF has been generated from an entry in the Cambridge 
# Structural Database, then it will include bibliographic, chemical, 
# crystal, experimental, refinement or atomic coordinate data resulting 
# from the CCDC's data processing and validation procedures.
#
#######################################################################

data_GOFCAH
_chemical_formula_moiety         'C19 H22 N2 O3'
_chemical_name_systematic        
'ethyl 9-(4-methylbenzoyl)-2,3,4,5-tetrahydro-1H-pyrrolo[1,2-a][1,3]diazepine-7-carboxylate'
_symmetry_cell_setting           triclinic
_symmetry_space_group_name_H-M   'P -1'
_symmetry_Int_Tables_number      2
_space_group_name_Hall           '-P 1'
loop_
_symmetry_equiv_pos_site_id
_symmetry_equiv_pos_as_xyz
1 x,y,z
2 -x,-y,-z
_cell_length_a                   6.6323(11)
_cell_length_b                   9.9091(17)
_cell_length_c                   14.608(3)
_cell_angle_alpha                71.147(2)
_cell_angle_beta                 79.238(2)
_cell_angle_gamma                74.744(2)
_cell_volume                     871.062
_exptl_crystal_colour            yellow
_exptl_crystal_description       block
_cell_formula_units_Z            2
loop_
_atom_site_label
_atom_site_type_symbol
_atom_site_fract_x
_atom_site_fract_y
_atom_site_fract_z
N1 N 0.2393(3) 0.6494(2) 0.44167(16)
H1 H 0.2951 0.5849 0.4948
N2 N 0.5405(3) 0.7004(2) 0.33257(15)
O1 O 0.0862(3) 0.4547(2) 0.38914(14)
O2 O 0.9265(3) 0.6502(2) 0.12769(14)
O3 O 0.8735(3) 0.8297(2) 0.19678(17)
C1 C 0.1617(4) 0.7881(3) 0.4641(2)
H2 H 0.0354 0.7823 0.5097
H3 H 0.1228 0.8639 0.4049
C2 C 0.3135(5) 0.8319(4) 0.5061(2)
H4 H 0.3626 0.7525 0.5620
H5 H 0.2411 0.9158 0.5289
C3 C 0.5032(5) 0.8703(3) 0.4345(2)
H6 H 0.4539 0.9511 0.3793
H7 H 0.5899 0.9031 0.4659
C4 C 0.6372(5) 0.7464(3) 0.3975(2)
H8 H 0.7663 0.7747 0.3629
H9 H 0.6749 0.6627 0.4531
C5 C 0.6562(4) 0.6565(3) 0.25096(19)
C6 C 0.8260(4) 0.7228(3) 0.1918(2)
C7 C 0.5638(4) 0.5585(3) 0.23620(18)
H10 H 0.6084 0.5130 0.1871
C8 C 0.3890(4) 0.5371(3) 0.30766(18)
C9 C 0.2416(4) 0.4454(3) 0.32607(18)
C10 C 0.2679(4) 0.3341(3) 0.27368(17)
C11 C 0.4619(4) 0.2622(3) 0.23890(18)
H11 H 0.5844 0.2845 0.2464
C12 C 0.4741(4) 0.1572(3) 0.1930(2)
H12 H 0.6055 0.1100 0.1704
C13 C 0.2965(5) 0.1208(3) 0.17990(19)
C14 C 0.1034(5) 0.1907(3) 0.2168(2)
H13 H -0.0186 0.1667 0.2102
C15 C 0.0885(4) 0.2950(3) 0.26295(19)
H14 H -0.0430 0.3397 0.2872
C16 C 1.1047(5) 0.7031(3) 0.0662(2)
H15 H 1.2007 0.7115 0.1056
H16 H 1.0575 0.7985 0.0214
C17 C 1.2109(5) 0.5966(4) 0.0119(2)
H17 H 1.2476 0.5013 0.0569
H18 H 1.3360 0.6246 -0.0259
H19 H 1.1180 0.5948 -0.0306
C18 C 0.3101(6) 0.0079(4) 0.1285(3)
H20 H 0.2064 -0.0490 0.1602
H21 H 0.4477 -0.0551 0.1308
H22 H 0.2848 0.0562 0.0619
C19 C 0.3799(4) 0.6305(3) 0.36462(18)
H23? H 0.1253 0.6206 0.4363
loop_
_geom_bond_atom_site_label_1
_geom_bond_atom_site_label_2
_geom_bond_site_symmetry_1
_geom_bond_site_symmetry_2
N1 H1 1_555 1_555
N2 C4 1_555 1_555
O1 C9 1_555 1_555
O2 C6 1_555 1_555
O3 C6 1_555 1_555
C1 N1 1_555 1_555
H2 C1 1_555 1_555
H3 C1 1_555 1_555
C2 C1 1_555 1_555
H4 C2 1_555 1_555
H5 C2 1_555 1_555
C3 C2 1_555 1_555
H6 C3 1_555 1_555
H7 C3 1_555 1_555
C4 C3 1_555 1_555
H8 C4 1_555 1_555
H9 C4 1_555 1_555
C5 N2 1_555 1_555
C6 C5 1_555 1_555
C7 C5 1_555 1_555
H10 C7 1_555 1_555
C8 C7 1_555 1_555
C9 C8 1_555 1_555
C10 C9 1_555 1_555
C11 C10 1_555 1_555
H11 C11 1_555 1_555
C12 C11 1_555 1_555
H12 C12 1_555 1_555
C13 C12 1_555 1_555
C14 C13 1_555 1_555
H13 C14 1_555 1_555
C15 C10 1_555 1_555
H14 C15 1_555 1_555
C16 O2 1_555 1_555
H15 C16 1_555 1_555
H16 C16 1_555 1_555
C17 C16 1_555 1_555
H17 C17 1_555 1_555
H18 C17 1_555 1_555
H19 C17 1_555 1_555
C18 C13 1_555 1_555
H20 C18 1_555 1_555
H21 C18 1_555 1_555
H22 C18 1_555 1_555
C19 N1 1_555 1_555
N2 C19 1_555 1_555
C8 C19 1_555 1_555
C14 C15 1_555 1_555

#END
