
#######################################################################
#
#                 Cambridge Crystallographic Data Centre
#                                CCDC 
#
#######################################################################
#
# If this CIF has been generated from an entry in the Cambridge 
# Structural Database, then it will include bibliographic, chemical, 
# crystal, experimental, refinement or atomic coordinate data resulting 
# from the CCDC's data processing and validation procedures.
#
#######################################################################

data_GOFHIT
_chemical_formula_moiety         'C40 H48 N6 P2,C6 H6'
_chemical_name_systematic        
'1,4,8,11-Tetramesityl-1,4,6,8,11,12-hexaaza-5,7-diphospha-dispiro(4.1.4.1)dodeca-2,9-diene benzene solvate'
_symmetry_cell_setting           orthorhombic
_symmetry_space_group_name_H-M   'C m c a'
_symmetry_Int_Tables_number      64
_space_group_name_Hall           '-C 2ac 2'
loop_
_symmetry_equiv_pos_site_id
_symmetry_equiv_pos_as_xyz
1 x,y,z
2 1/2+x,1/2+y,z
3 -x,1/2-y,1/2+z
4 -x,1/2+y,1/2-z
5 x,-y,-z
6 1/2-x,-y,1/2+z
7 1/2-x,y,1/2-z
8 1/2+x,1/2-y,-z
9 -x,-y,-z
10 1/2-x,1/2-y,-z
11 x,1/2+y,1/2-z
12 x,1/2-y,1/2+z
13 -x,y,z
14 1/2+x,y,1/2-z
15 1/2+x,-y,1/2+z
16 1/2-x,1/2+y,z
_cell_length_a                   22.6662(8)
_cell_length_b                   14.4954(5)
_cell_length_c                   12.2951(4)
_cell_angle_alpha                90
_cell_angle_beta                 90
_cell_angle_gamma                90
_cell_volume                     4039.62
_exptl_crystal_colour            yellowish
_exptl_crystal_description       plates
_cell_formula_units_Z            4
_exptl_crystal_recrystallization_method toluene/benzene
loop_
_atom_site_label
_atom_site_type_symbol
_atom_site_fract_x
_atom_site_fract_y
_atom_site_fract_z
N1 N 0.0000 0.48221(15) 0.59626(18)
P1 P 0.0000 0.57468(5) 0.51927(6)
N2 N 0.05261(6) 0.65249(11) 0.53967(13)
C1 C 0.02924(8) 0.74144(14) 0.55896(16)
H1 H 0.0527 0.7949 0.5705
C2 C 0.11459(8) 0.64043(13) 0.51504(16)
C3 C 0.13468(8) 0.66713(14) 0.41250(17)
C4 C 0.19499(8) 0.66230(14) 0.39203(18)
H2 H 0.2094 0.6805 0.3227
C5 C 0.23470(8) 0.63159(14) 0.47011(19)
C6 C 0.21295(9) 0.60432(14) 0.56996(18)
H3 H 0.2398 0.5829 0.6236
C7 C 0.15272(8) 0.60710(14) 0.59489(17)
C8 C 0.13130(9) 0.57480(15) 0.70375(16)
H4 H 0.0941 0.6058 0.7214
H5 H 0.1608 0.5895 0.7593
H6 H 0.1250 0.5079 0.7017
C9 C 0.29994(8) 0.62802(16) 0.44550(19)
H7 H 0.3068 0.5877 0.3828
H8 H 0.3211 0.6038 0.5088
H9 H 0.3142 0.6903 0.4290
C10 C 0.09252(9) 0.69899(16) 0.32529(17)
H10 H 0.0647 0.6492 0.3083
H11 H 0.1147 0.7154 0.2597
H12 H 0.0707 0.7530 0.3512
N1H N 0.0000 0.51779(15) 0.40374(18)
P1H P 0.0000 0.42532(5) 0.48073(6)
N2H N -0.05261(6) 0.34751(11) 0.46033(13)
N2D N 0.05261(6) 0.34751(11) 0.46033(13)
N2L N -0.05261(6) 0.65249(11) 0.53967(13)
C1H C -0.02924(8) 0.25856(14) 0.44104(16)
C1D C 0.02924(8) 0.25856(14) 0.44104(16)
C1L C -0.02924(8) 0.74144(14) 0.55896(16)
H1D H 0.0527 0.2051 0.4295
H1H H -0.0527 0.2051 0.4295
H1L H -0.0527 0.7949 0.5705
C2D C 0.11459(8) 0.35957(13) 0.48496(16)
C2H C -0.11459(8) 0.35957(13) 0.48496(16)
C2L C -0.11459(8) 0.64043(13) 0.51504(16)
C3D C 0.13468(8) 0.33287(14) 0.58750(17)
C3H C -0.13468(8) 0.33287(14) 0.58750(17)
C3L C -0.13468(8) 0.66713(14) 0.41250(17)
C4D C 0.19499(8) 0.33770(14) 0.60797(18)
C4H C -0.19499(8) 0.33770(14) 0.60797(18)
C4L C -0.19499(8) 0.66230(14) 0.39203(18)
H2D H 0.2094 0.3195 0.6773
H2H H -0.2094 0.3195 0.6773
H2L H -0.2094 0.6805 0.3227
C5D C 0.23470(8) 0.36841(14) 0.52989(19)
C5H C -0.23470(8) 0.36841(14) 0.52989(19)
C5L C -0.23470(8) 0.63159(14) 0.47011(19)
C6D C 0.21295(9) 0.39568(14) 0.43004(18)
C6H C -0.21295(9) 0.39568(14) 0.43004(18)
C6L C -0.21295(9) 0.60432(14) 0.56996(18)
H3D H 0.2398 0.4171 0.3764
H3H H -0.2398 0.4171 0.3764
H3L H -0.2398 0.5829 0.6236
C7D C 0.15272(8) 0.39290(14) 0.40511(17)
C7H C -0.15272(8) 0.39290(14) 0.40511(17)
C7L C -0.15272(8) 0.60710(14) 0.59489(17)
C8D C 0.13130(9) 0.42520(15) 0.29625(16)
C8H C -0.13130(9) 0.42520(15) 0.29625(16)
C8L C -0.13130(9) 0.57480(15) 0.70375(16)
H4D H 0.0941 0.3942 0.2786
H4H H -0.0941 0.3942 0.2786
H4L H -0.0941 0.6058 0.7214
H5D H 0.1608 0.4105 0.2407
H5H H -0.1608 0.4105 0.2407
H5L H -0.1608 0.5895 0.7593
H6D H 0.1250 0.4921 0.2983
H6H H -0.1250 0.4921 0.2983
H6L H -0.1250 0.5079 0.7017
C9D C 0.29994(8) 0.37198(16) 0.55450(19)
C9H C -0.29994(8) 0.37198(16) 0.55450(19)
C9L C -0.29994(8) 0.62802(16) 0.44550(19)
H7D H 0.3068 0.4123 0.6172
H7H H -0.3068 0.4123 0.6172
H7L H -0.3068 0.5877 0.3828
H8D H 0.3211 0.3962 0.4912
H8H H -0.3211 0.3962 0.4912
H8L H -0.3211 0.6038 0.5088
H9D H 0.3142 0.3097 0.5710
H9H H -0.3142 0.3097 0.5710
H9L H -0.3142 0.6903 0.4290
C10D C 0.09252(9) 0.30101(16) 0.67471(17)
C10H C -0.09252(9) 0.30101(16) 0.67471(17)
C10L C -0.09252(9) 0.69899(16) 0.32529(17)
H10D H 0.0647 0.3508 0.6917
H10H H -0.0647 0.3508 0.6917
H10L H -0.0647 0.6492 0.3083
H11D H 0.1147 0.2846 0.7403
H11H H -0.1147 0.2846 0.7403
H11L H -0.1147 0.7154 0.2597
H12D H 0.0707 0.2470 0.6488
H12H H -0.0707 0.2470 0.6488
H12L H -0.0707 0.7530 0.3512
C11 C 0.0000 0.4983(2) 0.8868(3)
H13 H 0.0000 0.4974 0.8096
C12 C 0.05243(9) 0.49900(16) 0.94391(18)
H14 H 0.0888 0.4981 0.9056
C11H C 0.0000 0.5017(2) 1.1132(3)
H13H H 0.0000 0.5026 1.1904
C12D C 0.05243(9) 0.50100(16) 1.05609(18)
C12H C -0.05243(9) 0.50100(16) 1.05609(18)
C12L C -0.05243(9) 0.49900(16) 0.94391(18)
H14L H -0.0888 0.4981 0.9056
H14H H -0.0888 0.5019 1.0944
H14D H 0.0888 0.5019 1.0944
loop_
_geom_bond_atom_site_label_1
_geom_bond_atom_site_label_2
_geom_bond_site_symmetry_1
_geom_bond_site_symmetry_2
N1 P1 1_555 1_555
P1 N2 1_555 1_555
N2 C1 1_555 1_555
C1 H1 1_555 1_555
C2 N2 1_555 1_555
C3 C2 1_555 1_555
C4 C3 1_555 1_555
H2 C4 1_555 1_555
C5 C4 1_555 1_555
C6 C5 1_555 1_555
H3 C6 1_555 1_555
C7 C2 1_555 1_555
C8 C7 1_555 1_555
H4 C8 1_555 1_555
H5 C8 1_555 1_555
H6 C8 1_555 1_555
C9 C5 1_555 1_555
H7 C9 1_555 1_555
H8 C9 1_555 1_555
H9 C9 1_555 1_555
C10 C3 1_555 1_555
H10 C10 1_555 1_555
H11 C10 1_555 1_555
H12 C10 1_555 1_555
C11 H13 1_555 1_555
C12 C11 1_555 1_555
H14 C12 1_555 1_555
N1H P1 1_555 1_555
P1H N1 1_555 1_555
N2H P1H 1_555 1_555
N2D P1H 1_555 1_555
N2L P1 1_555 1_555
C1H N2H 1_555 1_555
C1D N2D 1_555 1_555
C1L C1 1_555 1_555
H1D C1D 1_555 1_555
H1H C1H 1_555 1_555
H1L C1L 1_555 1_555
C2D N2D 1_555 1_555
C2H N2H 1_555 1_555
C2L N2L 1_555 1_555
C3D C2D 1_555 1_555
C3H C2H 1_555 1_555
C3L C2L 1_555 1_555
C4D C3D 1_555 1_555
C4H C3H 1_555 1_555
C4L C3L 1_555 1_555
H2D C4D 1_555 1_555
H2H C4H 1_555 1_555
H2L C4L 1_555 1_555
C5D C4D 1_555 1_555
C5H C4H 1_555 1_555
C5L C4L 1_555 1_555
C6D C5D 1_555 1_555
C6H C5H 1_555 1_555
C6L C5L 1_555 1_555
H3D C6D 1_555 1_555
H3H C6H 1_555 1_555
H3L C6L 1_555 1_555
C7D C2D 1_555 1_555
C7H C2H 1_555 1_555
C7L C2L 1_555 1_555
C8D C7D 1_555 1_555
C8H C7H 1_555 1_555
C8L C7L 1_555 1_555
H4D C8D 1_555 1_555
H4H C8H 1_555 1_555
H4L C8L 1_555 1_555
H5D C8D 1_555 1_555
H5H C8H 1_555 1_555
H5L C8L 1_555 1_555
H6D C8D 1_555 1_555
H6H C8H 1_555 1_555
H6L C8L 1_555 1_555
C9D C5D 1_555 1_555
C9H C5H 1_555 1_555
C9L C5L 1_555 1_555
H7D C9D 1_555 1_555
H7H C9H 1_555 1_555
H7L C9L 1_555 1_555
H8D C9D 1_555 1_555
H8H C9H 1_555 1_555
H8L C9L 1_555 1_555
H9D C9D 1_555 1_555
H9H C9H 1_555 1_555
H9L C9L 1_555 1_555
C10D C3D 1_555 1_555
C10H C3H 1_555 1_555
C10L C3L 1_555 1_555
H10D C10D 1_555 1_555
H10H C10H 1_555 1_555
H10L C10L 1_555 1_555
H11D C10D 1_555 1_555
H11H C10H 1_555 1_555
H11L C10L 1_555 1_555
H12D C10D 1_555 1_555
H12H C10H 1_555 1_555
H12L C10L 1_555 1_555
C11H H13H 1_555 1_555
C12D C12 1_555 1_555
C12H C11H 1_555 1_555
C12L C11 1_555 1_555
H14L C12L 1_555 1_555
H14H C12H 1_555 1_555
H14D C12D 1_555 1_555
C6 C7 1_555 1_555
N1H P1H 1_555 1_555
N2L C1L 1_555 1_555
C1H C1D 1_555 1_555
C6D C7D 1_555 1_555
C6H C7H 1_555 1_555
C6L C7L 1_555 1_555
C11H C12D 1_555 1_555
C12H C12L 1_555 1_555

#END
