
#######################################################################
#
#                 Cambridge Crystallographic Data Centre
#                                CCDC 
#
#######################################################################
#
# If this CIF has been generated from an entry in the Cambridge 
# Structural Database, then it will include bibliographic, chemical, 
# crystal, experimental, refinement or atomic coordinate data resulting 
# from the CCDC's data processing and validation procedures.
#
#######################################################################

data_GOFHOZ
_chemical_formula_moiety         
'C40 H50 N6 P2 2+,2(C1 F3 O3 S1 1-),2(C1 H1 F3 O3 S1)'
_chemical_name_systematic        
'1,4,8,11-Tetramesityl-1,4,6,8,11,12-hexaaza-5,7-diphosphonia-dispiro(4.1.4.1)dodeca-2,9-diene bis(trifluoromethanesulfonate) trifluoromethanesulfonic acid solvate'
_symmetry_cell_setting           monoclinic
_symmetry_space_group_name_H-M   'C 2/c'
_symmetry_Int_Tables_number      15
_space_group_name_Hall           '-C 2yn'
loop_
_symmetry_equiv_pos_site_id
_symmetry_equiv_pos_as_xyz
1 x,y,z
2 1/2+x,1/2+y,z
3 -x,y,1/2-z
4 1/2-x,1/2+y,1/2-z
5 -x,-y,-z
6 1/2-x,1/2-y,-z
7 x,-y,1/2+z
8 1/2+x,1/2-y,1/2+z
_cell_length_a                   31.662(2)
_cell_length_b                   12.3344(13)
_cell_length_c                   16.2491(17)
_cell_angle_alpha                90
_cell_angle_beta                 108.536(3)
_cell_angle_gamma                90
_cell_volume                     6016.6
_exptl_crystal_colour            colorless
_exptl_crystal_description       plates
_cell_formula_units_Z            4
_chemical_properties_physical    hygroscopic
_exptl_crystal_recrystallization_method dichloromethane
loop_
_atom_site_label
_atom_site_type_symbol
_atom_site_fract_x
_atom_site_fract_y
_atom_site_fract_z
S1 S 0.33167(7) 0.39053(14) 0.48704(12)
O1 O 0.29730(19) 0.4692(4) 0.4754(4)
O2 O 0.37452(19) 0.4376(4) 0.4957(4)
O3 O 0.3208(2) 0.2970(5) 0.4341(4)
C1 C 0.3404(6) 0.3392(8) 0.5979(8)
F1 F 0.3058(3) 0.2842(5) 0.5998(4)
F2 F 0.3443(3) 0.4245(7) 0.6501(4)
F3 F 0.3751(3) 0.2801(8) 0.6222(7)
N1 N 0.26495(18) 0.6700(4) 0.4935(3)
H1 H 0.2767 0.6068 0.4883
P1 P 0.23650(6) 0.75996(13) 0.42037(11)
N2 N 0.19040(18) 0.7288(4) 0.3483(4)
C2 C 0.1910(2) 0.7620(5) 0.2638(4)
H2 H 0.1670 0.7509 0.2118
C3 C 0.2284(3) 0.8091(5) 0.2667(5)
H3 H 0.2345 0.8380 0.2175
N3 N 0.25944(19) 0.8119(4) 0.3544(4)
C4 C 0.1544(2) 0.6637(5) 0.3587(4)
C5 C 0.1197(2) 0.7142(5) 0.3790(5)
C6 C 0.0850(3) 0.6443(7) 0.3839(6)
H4 H 0.0612 0.6746 0.4001
C7 C 0.0839(3) 0.5341(7) 0.3665(6)
C8 C 0.1188(3) 0.4909(7) 0.3466(5)
H5 H 0.1186 0.4155 0.3346
C9 C 0.1554(3) 0.5539(5) 0.3432(4)
C10 C 0.1941(3) 0.4997(6) 0.3225(5)
H6 H 0.2030 0.5443 0.2809
H7 H 0.1849 0.4279 0.2974
H8 H 0.2194 0.4920 0.3759
C11 C 0.0451(3) 0.4669(9) 0.3696(7)
H9 H 0.0443 0.3995 0.3373
H10 H 0.0174 0.5074 0.3434
H11 H 0.0481 0.4499 0.4301
C12 C 0.1184(3) 0.8334(6) 0.3948(7)
H12 H 0.1381 0.8504 0.4533
H13 H 0.0878 0.8550 0.3896
H14 H 0.1283 0.8729 0.3520
C13 C 0.3057(2) 0.8455(6) 0.3716(4)
C14 C 0.3172(3) 0.9524(6) 0.3958(5)
C15 C 0.3617(3) 0.9825(8) 0.4056(5)
H15 H 0.3713 1.0541 0.4238
C16 C 0.3912(3) 0.9106(9) 0.3896(6)
C17 C 0.3778(3) 0.8041(9) 0.3666(5)
H16 H 0.3988 0.7545 0.3571
C18 C 0.3349(2) 0.7676(7) 0.3569(5)
C19 C 0.3201(3) 0.6528(6) 0.3267(6)
H17 H 0.3441 0.6152 0.3124
H18 H 0.2935 0.6558 0.2752
H19 H 0.3130 0.6136 0.3732
C20 C 0.4374(3) 0.9468(10) 0.3967(7)
H20 H 0.4395 1.0257 0.4038
H21 H 0.4441 0.9263 0.3439
H22 H 0.4588 0.9121 0.4471
C21 C 0.2838(3) 1.0322(6) 0.4080(6)
H23 H 0.2552 1.0218 0.3624
H24 H 0.2945 1.1062 0.4047
H25 H 0.2800 1.0208 0.4650
N1E N 0.23505(18) 0.8300(4) 0.5065(3)
H1E H 0.2233 0.8932 0.5117
P1E P 0.26350(6) 0.74004(13) 0.57963(11)
N2E N 0.30960(18) 0.7712(4) 0.6517(4)
C2E C 0.3090(2) 0.7380(5) 0.7362(4)
H2E H 0.3330 0.7491 0.7882
C3E C 0.2716(3) 0.6909(5) 0.7333(5)
H3E H 0.2655 0.6620 0.7825
N3E N 0.24056(19) 0.6881(4) 0.6456(4)
C4E C 0.3456(2) 0.8363(5) 0.6413(4)
C5E C 0.3803(2) 0.7858(5) 0.6210(5)
C6E C 0.4150(3) 0.8557(7) 0.6161(6)
H4E H 0.4388 0.8254 0.5999
C7E C 0.4161(3) 0.9659(7) 0.6335(6)
C8E C 0.3812(3) 1.0091(7) 0.6534(5)
H5E H 0.3814 1.0845 0.6654
C9E C 0.3446(3) 0.9461(5) 0.6568(4)
C10E C 0.3059(3) 1.0003(6) 0.6775(5)
H6E H 0.2970 0.9557 0.7191
H7E H 0.3151 1.0721 0.7026
H8E H 0.2806 1.0080 0.6241
C11E C 0.4549(3) 1.0331(9) 0.6304(7)
H9E H 0.4557 1.1005 0.6627
H10E H 0.4826 0.9926 0.6566
H11E H 0.4519 1.0501 0.5699
C12E C 0.3816(3) 0.6666(6) 0.6052(7)
H12E H 0.3619 0.6496 0.5467
H13E H 0.4122 0.6450 0.6104
H14E H 0.3717 0.6271 0.6480
C13E C 0.1943(2) 0.6545(6) 0.6284(4)
C14E C 0.1828(3) 0.5476(6) 0.6042(5)
C15E C 0.1383(3) 0.5175(8) 0.5944(5)
H15E H 0.1287 0.4459 0.5762
C16E C 0.1088(3) 0.5894(9) 0.6104(6)
C17E C 0.1222(3) 0.6959(9) 0.6334(5)
H16E H 0.1012 0.7455 0.6429
C18E C 0.1651(2) 0.7324(7) 0.6431(5)
C19E C 0.1799(3) 0.8472(6) 0.6733(6)
H17E H 0.1559 0.8848 0.6876
H18E H 0.2065 0.8442 0.7248
H19E H 0.1870 0.8864 0.6268
C20E C 0.0626(3) 0.5532(10) 0.6033(7)
H20E H 0.0605 0.4743 0.5962
H21E H 0.0559 0.5737 0.6561
H22E H 0.0412 0.5879 0.5529
C21E C 0.2162(3) 0.4678(6) 0.5920(6)
H23E H 0.2448 0.4782 0.6376
H24E H 0.2055 0.3938 0.5953
H25E H 0.2200 0.4792 0.5350
S2 S 0.45042(10) 0.2891(3) 0.4246(2)
O4 O 0.4455(3) 0.3436(8) 0.5028(5)
H26 H 0.4205 0.3738 0.4899
O5 O 0.4097(2) 0.2467(8) 0.3758(6)
O6 O 0.4890(3) 0.2189(7) 0.4528(6)
C22 C 0.4596(10) 0.3775(17) 0.3673(11)
F4 F 0.5023(5) 0.4396(10) 0.4088(12)
F5 F 0.4684(4) 0.3516(13) 0.2946(8)
F6 F 0.4341(5) 0.4681(11) 0.3490(10)
loop_
_geom_bond_atom_site_label_1
_geom_bond_atom_site_label_2
_geom_bond_site_symmetry_1
_geom_bond_site_symmetry_2
S1 O1 1_555 1_555
O2 S1 1_555 1_555
O3 S1 1_555 1_555
C1 S1 1_555 1_555
F1 C1 1_555 1_555
F2 C1 1_555 1_555
F3 C1 1_555 1_555
N1 H1 1_555 1_555
P1 N1 1_555 1_555
N2 P1 1_555 1_555
C2 N2 1_555 1_555
H2 C2 1_555 1_555
C3 C2 1_555 1_555
H3 C3 1_555 1_555
N3 P1 1_555 1_555
C4 N2 1_555 1_555
C5 C4 1_555 1_555
C6 C5 1_555 1_555
H4 C6 1_555 1_555
C7 C6 1_555 1_555
C8 C7 1_555 1_555
H5 C8 1_555 1_555
C9 C4 1_555 1_555
C10 C9 1_555 1_555
H6 C10 1_555 1_555
H7 C10 1_555 1_555
H8 C10 1_555 1_555
C11 C7 1_555 1_555
H9 C11 1_555 1_555
H10 C11 1_555 1_555
H11 C11 1_555 1_555
C12 C5 1_555 1_555
H12 C12 1_555 1_555
H13 C12 1_555 1_555
H14 C12 1_555 1_555
C13 N3 1_555 1_555
C14 C13 1_555 1_555
C15 C14 1_555 1_555
H15 C15 1_555 1_555
C16 C15 1_555 1_555
C17 C16 1_555 1_555
H16 C17 1_555 1_555
C18 C13 1_555 1_555
C19 C18 1_555 1_555
H17 C19 1_555 1_555
H18 C19 1_555 1_555
H19 C19 1_555 1_555
C20 C16 1_555 1_555
H20 C20 1_555 1_555
H21 C20 1_555 1_555
H22 C20 1_555 1_555
C21 C14 1_555 1_555
H23 C21 1_555 1_555
H24 C21 1_555 1_555
H25 C21 1_555 1_555
S2 O4 1_555 1_555
O4 H26 1_555 1_555
O5 S2 1_555 1_555
O6 S2 1_555 1_555
C22 S2 1_555 1_555
F4 C22 1_555 1_555
F5 C22 1_555 1_555
F6 C22 1_555 1_555
N1E P1 1_555 1_555
H1E N1E 1_555 1_555
P1E N1 1_555 1_555
N2E P1E 1_555 1_555
C2E N2E 1_555 1_555
H2E C2E 1_555 1_555
C3E C2E 1_555 1_555
H3E C3E 1_555 1_555
N3E P1E 1_555 1_555
C4E N2E 1_555 1_555
C5E C4E 1_555 1_555
C6E C5E 1_555 1_555
H4E C6E 1_555 1_555
C7E C6E 1_555 1_555
C8E C7E 1_555 1_555
H5E C8E 1_555 1_555
C9E C4E 1_555 1_555
C10E C9E 1_555 1_555
H6E C10E 1_555 1_555
H7E C10E 1_555 1_555
H8E C10E 1_555 1_555
C11E C7E 1_555 1_555
H9E C11E 1_555 1_555
H10E C11E 1_555 1_555
H11E C11E 1_555 1_555
C12E C5E 1_555 1_555
H12E C12E 1_555 1_555
H13E C12E 1_555 1_555
H14E C12E 1_555 1_555
C13E N3E 1_555 1_555
C14E C13E 1_555 1_555
C15E C14E 1_555 1_555
H15E C15E 1_555 1_555
C16E C15E 1_555 1_555
C17E C16E 1_555 1_555
H16E C17E 1_555 1_555
C18E C13E 1_555 1_555
C19E C18E 1_555 1_555
H17E C19E 1_555 1_555
H18E C19E 1_555 1_555
H19E C19E 1_555 1_555
C20E C16E 1_555 1_555
H20E C20E 1_555 1_555
H21E C20E 1_555 1_555
H22E C20E 1_555 1_555
C21E C14E 1_555 1_555
H23E C21E 1_555 1_555
H24E C21E 1_555 1_555
H25E C21E 1_555 1_555
C3 N3 1_555 1_555
C8 C9 1_555 1_555
C17 C18 1_555 1_555
N1E P1E 1_555 1_555
C3E N3E 1_555 1_555
C8E C9E 1_555 1_555
C17E C18E 1_555 1_555

#END
