
#######################################################################
#
#                 Cambridge Crystallographic Data Centre
#                                CCDC 
#
#######################################################################
#
# If this CIF has been generated from an entry in the Cambridge 
# Structural Database, then it will include bibliographic, chemical, 
# crystal, experimental, refinement or atomic coordinate data resulting 
# from the CCDC's data processing and validation procedures.
#
#######################################################################

data_GOFHEP
_chemical_formula_moiety         'C36 H40 N6 P2'
_chemical_name_systematic        
1,4,8,11-tetrakis(2,6-Dimethylphenyl)-1,4,6,8,11,12-hexaaza-5,7-diphospha-dispiro(4.1.4.1)dodeca-2,9-diene
_symmetry_cell_setting           monoclinic
_symmetry_space_group_name_H-M   'P 21/n'
_symmetry_Int_Tables_number      14
_space_group_name_Hall           '-P 2yn'
loop_
_symmetry_equiv_pos_site_id
_symmetry_equiv_pos_as_xyz
1 x,y,z
2 1/2-x,1/2+y,1/2-z
3 -x,-y,-z
4 1/2+x,1/2-y,1/2+z
_cell_length_a                   8.3779(3)
_cell_length_b                   17.0975(7)
_cell_length_c                   11.4017(6)
_cell_angle_alpha                90
_cell_angle_beta                 96.728(2)
_cell_angle_gamma                90
_cell_volume                     1621.95
_exptl_crystal_colour            colorless
_exptl_crystal_description       rods
_cell_formula_units_Z            2
_exptl_crystal_recrystallization_method toluene
loop_
_atom_site_label
_atom_site_type_symbol
_atom_site_fract_x
_atom_site_fract_y
_atom_site_fract_z
N1 N 0.62972(17) 0.53174(10) 0.50716(15)
P1 P 0.45410(6) 0.54029(3) 0.42762(5)
N2 N 0.44567(18) 0.53735(10) 0.28101(15)
C1 C 0.3725(2) 0.60438(13) 0.2274(2)
H1 H 0.3560 0.6125 0.1444
C2 C 0.3290(2) 0.65490(13) 0.3058(2)
H2 H 0.2785 0.7036 0.2858
N3 N 0.36662(18) 0.62789(10) 0.42246(16)
C3 C 0.4850(2) 0.47050(12) 0.21247(18)
C4 C 0.6436(2) 0.45976(12) 0.18943(19)
C5 C 0.6758(2) 0.39604(13) 0.1207(2)
H3 H 0.7829 0.3872 0.1042
C6 C 0.5565(3) 0.34521(13) 0.0758(2)
H4 H 0.5816 0.3017 0.0295
C7 C 0.3998(2) 0.35772(13) 0.09829(19)
H5 H 0.3176 0.3231 0.0656
C8 C 0.3606(2) 0.41999(13) 0.1678(2)
C9 C 0.1909(2) 0.43372(14) 0.1927(2)
H6 H 0.1224 0.3909 0.1591
H7 H 0.1519 0.4833 0.1569
H8 H 0.1874 0.4359 0.2782
C10 C 0.7751(2) 0.51574(14) 0.2344(2)
H9 H 0.7648 0.5638 0.1873
H10 H 0.8798 0.4916 0.2279
H11 H 0.7663 0.5283 0.3173
C11 C 0.3209(2) 0.67189(12) 0.52126(19)
C12 C 0.4309(2) 0.72439(12) 0.57873(19)
C13 C 0.3802(2) 0.76993(13) 0.6675(2)
H12 H 0.4524 0.8065 0.7078
C14 C 0.2261(3) 0.76324(14) 0.6987(2)
H13 H 0.1934 0.7952 0.7598
C15 C 0.1202(3) 0.71050(13) 0.6415(2)
H14 H 0.0151 0.7059 0.6643
C16 C 0.1643(2) 0.66384(12) 0.55077(19)
C17 C 0.0470(2) 0.60832(13) 0.4841(2)
H15 H 0.0212 0.6268 0.4027
H16 H -0.0515 0.6060 0.5226
H17 H 0.0951 0.5561 0.4837
C18 C 0.5978(2) 0.73276(13) 0.5428(2)
H18 H 0.6539 0.7756 0.5873
H19 H 0.5905 0.7442 0.4581
H20 H 0.6574 0.6839 0.5595
N1B N 0.37028(17) 0.46826(10) 0.49284(15)
P1B P 0.54590(6) 0.45971(3) 0.57238(5)
N2B N 0.55433(18) 0.46265(10) 0.71899(15)
C1B C 0.6275(2) 0.39562(13) 0.7726(2)
H1B H 0.6440 0.3875 0.8556
C2B C 0.6710(2) 0.34510(13) 0.6942(2)
H2B H 0.7215 0.2964 0.7142
N3B N 0.63338(18) 0.37211(10) 0.57754(16)
C3B C 0.5150(2) 0.52950(12) 0.78753(18)
C4B C 0.3564(2) 0.54024(12) 0.81057(19)
C5B C 0.3242(2) 0.60396(13) 0.8793(2)
H3B H 0.2171 0.6128 0.8958
C6B C 0.4435(3) 0.65479(13) 0.9242(2)
H4B H 0.4184 0.6983 0.9705
C7B C 0.6002(2) 0.64228(13) 0.90171(19)
H5B H 0.6824 0.6769 0.9344
C8B C 0.6394(2) 0.58001(13) 0.8322(2)
C9B C 0.8091(2) 0.56628(14) 0.8073(2)
H6B H 0.8776 0.6091 0.8409
H7B H 0.8481 0.5167 0.8431
H8B H 0.8126 0.5641 0.7218
C10B C 0.2249(2) 0.48426(14) 0.7656(2)
H9B H 0.2352 0.4362 0.8127
H10B H 0.1202 0.5084 0.7721
H11B H 0.2337 0.4717 0.6827
C11B C 0.6791(2) 0.32811(12) 0.47874(19)
C12B C 0.5691(2) 0.27561(12) 0.42127(19)
C13B C 0.6198(2) 0.23007(13) 0.3325(2)
H12B H 0.5476 0.1935 0.2922
C14B C 0.7739(3) 0.23676(14) 0.3013(2)
H13B H 0.8066 0.2048 0.2402
C15B C 0.8798(3) 0.28950(13) 0.3585(2)
H14B H 0.9849 0.2941 0.3357
C16B C 0.8357(2) 0.33616(12) 0.44923(19)
C17B C 0.9530(2) 0.39168(13) 0.5159(2)
H15B H 0.9788 0.3732 0.5973
H16B H 1.0515 0.3940 0.4774
H17B H 0.9049 0.4439 0.5163
C18B C 0.4022(2) 0.26724(13) 0.4572(2)
H18B H 0.3461 0.2244 0.4127
H19B H 0.4095 0.2558 0.5419
H20B H 0.3426 0.3161 0.4405
loop_
_geom_bond_atom_site_label_1
_geom_bond_atom_site_label_2
_geom_bond_site_symmetry_1
_geom_bond_site_symmetry_2
N1 P1 1_555 1_555
P1 N2 1_555 1_555
N2 C1 1_555 1_555
C1 H1 1_555 1_555
C2 C1 1_555 1_555
H2 C2 1_555 1_555
N3 P1 1_555 1_555
C3 N2 1_555 1_555
C4 C3 1_555 1_555
C5 C4 1_555 1_555
H3 C5 1_555 1_555
C6 C5 1_555 1_555
H4 C6 1_555 1_555
C7 C6 1_555 1_555
H5 C7 1_555 1_555
C8 C3 1_555 1_555
C9 C8 1_555 1_555
H6 C9 1_555 1_555
H7 C9 1_555 1_555
H8 C9 1_555 1_555
C10 C4 1_555 1_555
H9 C10 1_555 1_555
H10 C10 1_555 1_555
H11 C10 1_555 1_555
C11 N3 1_555 1_555
C12 C11 1_555 1_555
C13 C12 1_555 1_555
H12 C13 1_555 1_555
C14 C13 1_555 1_555
H13 C14 1_555 1_555
C15 C14 1_555 1_555
H14 C15 1_555 1_555
C16 C11 1_555 1_555
C17 C16 1_555 1_555
H15 C17 1_555 1_555
H16 C17 1_555 1_555
H17 C17 1_555 1_555
C18 C12 1_555 1_555
H18 C18 1_555 1_555
H19 C18 1_555 1_555
H20 C18 1_555 1_555
N1B P1 1_555 1_555
P1B N1 1_555 1_555
N2B P1B 1_555 1_555
C1B N2B 1_555 1_555
H1B C1B 1_555 1_555
C2B C1B 1_555 1_555
H2B C2B 1_555 1_555
N3B P1B 1_555 1_555
C3B N2B 1_555 1_555
C4B C3B 1_555 1_555
C5B C4B 1_555 1_555
H3B C5B 1_555 1_555
C6B C5B 1_555 1_555
H4B C6B 1_555 1_555
C7B C6B 1_555 1_555
H5B C7B 1_555 1_555
C8B C3B 1_555 1_555
C9B C8B 1_555 1_555
H6B C9B 1_555 1_555
H7B C9B 1_555 1_555
H8B C9B 1_555 1_555
C10B C4B 1_555 1_555
H9B C10B 1_555 1_555
H10B C10B 1_555 1_555
H11B C10B 1_555 1_555
C11B N3B 1_555 1_555
C12B C11B 1_555 1_555
C13B C12B 1_555 1_555
H12B C13B 1_555 1_555
C14B C13B 1_555 1_555
H13B C14B 1_555 1_555
C15B C14B 1_555 1_555
H14B C15B 1_555 1_555
C16B C11B 1_555 1_555
C17B C16B 1_555 1_555
H15B C17B 1_555 1_555
H16B C17B 1_555 1_555
H17B C17B 1_555 1_555
C18B C12B 1_555 1_555
H18B C18B 1_555 1_555
H19B C18B 1_555 1_555
H20B C18B 1_555 1_555
C2 N3 1_555 1_555
C7 C8 1_555 1_555
C15 C16 1_555 1_555
N1B P1B 1_555 1_555
C2B N3B 1_555 1_555
C7B C8B 1_555 1_555
C15B C16B 1_555 1_555

#END
