
#######################################################################
#
#                 Cambridge Crystallographic Data Centre
#                                CCDC 
#
#######################################################################
#
# If this CIF has been generated from an entry in the Cambridge 
# Structural Database, then it will include bibliographic, chemical, 
# crystal, experimental, refinement or atomic coordinate data resulting 
# from the CCDC's data processing and validation procedures.
#
#######################################################################

data_GOFKIX
_chemical_formula_moiety         'C18 H12 B1 F2 N3'
_chemical_name_systematic        
difluoro(6-(phenylethynyl)-N-(pyridin-2-yl)pyridin-2(1H)-iminato)boron
_symmetry_cell_setting           triclinic
_symmetry_space_group_name_H-M   'P -1'
_symmetry_Int_Tables_number      2
_space_group_name_Hall           '-P 1'
loop_
_symmetry_equiv_pos_site_id
_symmetry_equiv_pos_as_xyz
1 x,y,z
2 -x,-y,-z
_cell_length_a                   7.7142(8)
_cell_length_b                   11.6063(11)
_cell_length_c                   18.1270(17)
_cell_angle_alpha                77.920(2)
_cell_angle_beta                 78.971(2)
_cell_angle_gamma                78.798(2)
_cell_volume                     1537.48
_exptl_crystal_colour            yellow
_exptl_crystal_description       block
_cell_formula_units_Z            4
loop_
_atom_site_label
_atom_site_type_symbol
_atom_site_fract_x
_atom_site_fract_y
_atom_site_fract_z
C1 C 0.8327(3) 0.8886(2) 0.74237(14)
C2 C 0.8200(3) 0.8075(2) 0.81548(18)
C3 C 0.7866(3) 0.6432(2) 0.93661(14)
C4 C 0.7292(3) 0.4448(2) 0.98743(13)
N1 N 0.6918(3) 0.33960(18) 0.98267(11)
C5 C 0.6676(3) 0.3168(2) 0.91597(14)
N2 N 0.6917(3) 0.39527(17) 0.84935(10)
F1 F 0.9125(2) 0.52112(15) 0.80089(8)
F2 F 0.6196(2) 0.60402(13) 0.81094(9)
C6 C 0.8639(4) 1.0382(2) 0.60234(17)
H1 H 0.8753 1.0888 0.5552
C7 C 0.8063(4) 0.9302(3) 0.60999(17)
H2 H 0.7784 0.9081 0.5677
C8 C 0.7899(4) 0.8554(2) 0.67921(16)
H3 H 0.7505 0.7830 0.6842
C9 C 0.8082(3) 0.7374(2) 0.87201(15)
C10 C 0.6643(3) 0.3677(2) 0.78308(14)
H4 H 0.6816 0.4225 0.7380
C11 C 0.6133(4) 0.2641(3) 0.78080(17)
H5 H 0.5947 0.2477 0.7351
C12 C 0.9039(4) 1.0698(2) 0.66465(17)
H6 H 0.9420 1.1427 0.6597
C13 C 0.8891(3) 0.9969(2) 0.73372(15)
H7 H 0.9171 1.0201 0.7755
C14 C 0.5890(4) 0.1820(3) 0.84861(19)
H8 H 0.5540 0.1097 0.8485
C15 C 0.6162(4) 0.2075(2) 0.91435(17)
H9 H 0.6008 0.1521 0.9593
C16 C 0.7470(4) 0.4639(3) 1.06032(14)
H10 H 0.7338 0.4029 1.1024
C17 C 0.7825(4) 0.5684(3) 1.06973(15)
H11 H 0.7935 0.5793 1.1179
C18 C 0.8029(4) 0.6602(3) 1.00714(15)
H12 H 0.8275 0.7326 1.0133
B1 B 0.7447(4) 0.5177(3) 0.84425(15)
N3 N 0.7514(2) 0.53597(17) 0.92630(10)
C19 C 0.7868(3) 0.8520(2) 0.22319(13)
C20 C 0.8044(3) 0.7478(2) 0.28192(14)
C21 C 0.8104(3) 0.6691(2) 0.33346(14)
C22 C 0.8123(3) 0.5745(2) 0.39868(13)
N4 N 0.7108(2) 0.59896(15) 0.46719(10)
C23 C 0.7066(3) 0.51074(19) 0.53009(12)
N5 N 0.6079(3) 0.52439(18) 0.59772(11)
C24 C 0.5058(3) 0.6285(3) 0.60772(14)
N6 N 0.5043(3) 0.72766(18) 0.55244(12)
F3 F 0.7395(2) 0.80381(12) 0.46084(9)
C25 C 0.8102(3) 0.3975(2) 0.52374(14)
H13 H 0.8095 0.3370 0.5664
C26 C 0.9114(3) 0.4655(2) 0.39310(14)
H14 H 0.9797 0.4511 0.3468
C27 C 0.7631(6) 1.0533(4) 0.1121(2)
H15 H 0.7581 1.1219 0.0748
C28 C 0.6641(5) 1.0558(3) 0.1841(2)
H16 H 0.5892 1.1253 0.1949
C29 C 0.6769(4) 0.9559(2) 0.23919(15)
H17 H 0.6114 0.9576 0.2878
C30 C 0.3931(4) 0.6380(3) 0.67811(15)
H18 H 0.3908 0.5712 0.7167
C31 C 0.2902(4) 0.7406(4) 0.6905(2)
H19 H 0.2173 0.7448 0.7374
C32 C 0.8687(6) 0.9494(4) 0.09603(18)
H20 H 0.9319 0.9475 0.0470
C33 C 0.8829(4) 0.8485(3) 0.15054(15)
H21 H 0.9558 0.7786 0.1391
C34 C 0.3969(4) 0.8323(3) 0.56646(19)
H22 H 0.3975 0.8993 0.5279
C35 C 0.2917(4) 0.8418(4) 0.6332(2)
H23 H 0.2211 0.9141 0.6414
B2 B 0.6146(4) 0.7286(2) 0.47187(16)
C36 C 0.9098(3) 0.3757(2) 0.45716(15)
H24 H 0.9773 0.3007 0.4540
F4 F 0.4993(2) 0.76874(12) 0.41906(8)
loop_
_geom_bond_atom_site_label_1
_geom_bond_atom_site_label_2
_geom_bond_site_symmetry_1
_geom_bond_site_symmetry_2
C1 C2 1_555 1_555
C2 C9 1_555 1_555
C3 C9 1_555 1_555
C4 N1 1_555 1_555
N1 C5 1_555 1_555
C5 N2 1_555 1_555
N2 C10 1_555 1_555
F1 B1 1_555 1_555
F2 B1 1_555 1_555
C6 H1 1_555 1_555
C7 C6 1_555 1_555
H2 C7 1_555 1_555
C8 C1 1_555 1_555
H3 C8 1_555 1_555
C10 H4 1_555 1_555
C11 C10 1_555 1_555
H5 C11 1_555 1_555
C12 C6 1_555 1_555
H6 C12 1_555 1_555
C13 C1 1_555 1_555
H7 C13 1_555 1_555
C14 C11 1_555 1_555
H8 C14 1_555 1_555
C15 C5 1_555 1_555
H9 C15 1_555 1_555
C16 C4 1_555 1_555
H10 C16 1_555 1_555
C17 C16 1_555 1_555
H11 C17 1_555 1_555
C18 C3 1_555 1_555
H12 C18 1_555 1_555
B1 N2 1_555 1_555
N3 C3 1_555 1_555
C19 C20 1_555 1_555
C20 C21 1_555 1_555
C21 C22 1_555 1_555
C22 N4 1_555 1_555
N4 C23 1_555 1_555
C23 N5 1_555 1_555
N5 C24 1_555 1_555
C24 N6 1_555 1_555
N6 C34 1_555 1_555
F3 B2 1_555 1_555
C25 C23 1_555 1_555
H13 C25 1_555 1_555
C26 C22 1_555 1_555
H14 C26 1_555 1_555
C27 H15 1_555 1_555
C28 C27 1_555 1_555
H16 C28 1_555 1_555
C29 C19 1_555 1_555
H17 C29 1_555 1_555
C30 C24 1_555 1_555
H18 C30 1_555 1_555
C31 C30 1_555 1_555
H19 C31 1_555 1_555
C32 C27 1_555 1_555
H20 C32 1_555 1_555
C33 C19 1_555 1_555
H21 C33 1_555 1_555
C34 H22 1_555 1_555
C35 C31 1_555 1_555
H23 C35 1_555 1_555
B2 N4 1_555 1_555
C36 C25 1_555 1_555
H24 C36 1_555 1_555
F4 B2 1_555 1_555
C4 N3 1_555 1_555
C7 C8 1_555 1_555
C12 C13 1_555 1_555
C14 C15 1_555 1_555
C17 C18 1_555 1_555
B1 N3 1_555 1_555
N6 B2 1_555 1_555
C26 C36 1_555 1_555
C28 C29 1_555 1_555
C32 C33 1_555 1_555
C34 C35 1_555 1_555

#END
