
#######################################################################
#
#                 Cambridge Crystallographic Data Centre
#                                CCDC 
#
#######################################################################
#
# If this CIF has been generated from an entry in the Cambridge 
# Structural Database, then it will include bibliographic, chemical, 
# crystal, experimental, refinement or atomic coordinate data resulting 
# from the CCDC's data processing and validation procedures.
#
#######################################################################

data_GOFMIY
_chemical_name_common            
'bis(mu!2$-Nonaglyme)-tri-lithium tris(hexafluoro-arsenate)'
_chemical_formula_moiety         'C40 H84 Li3 O20 3+,3(As1 F6 1-)'
_chemical_name_systematic        
'bis(\m~2~-1,26-Dimethoxy-3,6,9,12,15,18,21,24-octaoxahexacosane)-tri-lithium tris(hexafluoro-arsenate)'
_symmetry_cell_setting           triclinic
_symmetry_space_group_name_H-M   'P -1'
_symmetry_Int_Tables_number      2
_space_group_name_Hall           '-P 1'
loop_
_symmetry_equiv_pos_site_id
_symmetry_equiv_pos_as_xyz
1 x,y,z
2 -x,-y,-z
_cell_length_a                   9.2197(14)
_cell_length_b                   9.3713(14)
_cell_length_c                   35.083(6)
_cell_angle_alpha                82.412(11)
_cell_angle_beta                 84.302(12)
_cell_angle_gamma                87.731(10)
_cell_volume                     2988.72
_exptl_crystal_colour            colorless
_exptl_crystal_description       platelet
_cell_formula_units_Z            2
loop_
_atom_site_label
_atom_site_type_symbol
_atom_site_fract_x
_atom_site_fract_y
_atom_site_fract_z
As1 As 0.47058(15) -0.79542(15) 0.07492(4)
F1 F 0.4371(11) -0.9195(10) 0.1139(3)
F2 F 0.5055(10) -0.6697(10) 0.0358(2)
F3 F 0.2924(8) -0.7932(8) 0.0669(2)
F4 F 0.4350(8) -0.6631(8) 0.1033(2)
F5 F 0.6495(9) -0.7960(10) 0.0830(3)
F6 F 0.5055(12) -0.9249(12) 0.0458(4)
As2 As 0.13875(16) -1.17773(16) 0.27946(5)
F7 F 0.1255(12) -1.3548(10) 0.2770(4)
F8 F 0.1558(11) -1.0014(9) 0.2835(3)
F9 F 0.061(3) -1.1432(14) 0.2409(5)
F10 F -0.0243(17) -1.175(2) 0.3033(7)
F11 F 0.2129(18) -1.2166(13) 0.3227(3)
F12 F 0.3063(12) -1.1868(14) 0.2600(4)
As3 As -0.42647(16) -0.31794(17) 0.42188(6)
F13 F -0.2640(10) -0.3650(9) 0.4371(3)
F14 F -0.4404(10) -0.4732(11) 0.4046(3)
F15 F -0.509(2) -0.401(3) 0.4620(6)
F16 F -0.4139(15) -0.170(2) 0.4422(12)
F17 F -0.5860(18) -0.2746(14) 0.4083(11)
F18 F -0.343(3) -0.242(3) 0.3841(7)
C1 C -0.106(4) -0.122(4) 0.1428(10)
H1 H -0.2036 -0.1143 0.1338
H2 H -0.0845 -0.0329 0.1526
H3 H -0.1020 -0.2030 0.1636
O1 O -0.0052(18) -0.1458(16) 0.1129(3)
C2 C 0.144(3) -0.160(2) 0.1262(7)
H4 H 0.1500 -0.2452 0.1462
H5 H 0.1662 -0.0736 0.1376
C3 C 0.251(2) -0.179(2) 0.0918(7)
H6 H 0.2455 -0.0946 0.0717
H7 H 0.3519 -0.1891 0.0994
O2 O 0.2121(16) -0.3014(13) 0.0784(4)
C4 C 0.3078(19) -0.341(3) 0.0461(8)
H8 H 0.3303 -0.2554 0.0268
H9 H 0.4001 -0.3851 0.0547
C5 C 0.227(2) -0.440(2) 0.0306(8)
H10 H 0.2815 -0.4651 0.0065
H11 H 0.2192 -0.5298 0.0492
O3 O 0.0904(13) -0.3913(11) 0.0229(3)
C6 C 0.098(3) -0.289(2) -0.0097(6)
H12 H 0.1190 -0.3360 -0.0334
H13 H 0.1769 -0.2209 -0.0087
C7 C -0.043(3) -0.211(2) -0.0103(4)
H14 H -0.0420 -0.1360 -0.0330
H15 H -0.1218 -0.2783 -0.0116
O4 O -0.0638(10) -0.1472(11) 0.0247(3)
C8 C -0.2087(17) -0.0956(18) 0.0313(7)
H16 H -0.2443 -0.0520 0.0066
H17 H -0.2124 -0.0204 0.0488
C9 C -0.3058(19) -0.218(2) 0.0494(9)
H18 H -0.4016 -0.1800 0.0594
H19 H -0.3219 -0.2819 0.0299
O5 O -0.2369(12) -0.2956(12) 0.0794(3)
C10 C -0.299(2) -0.4300(19) 0.0938(5)
H20 H -0.3056 -0.4891 0.0727
H21 H -0.3977 -0.4165 0.1069
C11 C -0.197(3) -0.500(3) 0.1220(5)
H22 H -0.1975 -0.4433 0.1439
H23 H -0.2305 -0.5979 0.1324
O6 O -0.0554(13) -0.5098(16) 0.1043(3)
C12 C 0.075(2) -0.582(3) 0.1245(6)
H24 H 0.1661 -0.5646 0.1075
H25 H 0.0834 -0.5402 0.1487
C13 C 0.0530(18) -0.723(2) 0.1325(4)
H26 H 0.1484 -0.7737 0.1352
H27 H 0.0101 -0.7564 0.1106
O7 O -0.0405(11) -0.7605(15) 0.1670(3)
C14 C 0.0405(15) -0.7808(19) 0.1993(4)
H28 H 0.1029 -0.6972 0.1993
H29 H 0.1039 -0.8684 0.1986
C15 C -0.0654(15) -0.7964(17) 0.2346(5)
H30 H -0.1263 -0.8806 0.2340
H31 H -0.0104 -0.8160 0.2576
O8 O -0.1612(9) -0.6694(9) 0.2384(2)
C16 C -0.0889(14) -0.5444(15) 0.2423(4)
H32 H -0.0288 -0.5103 0.2180
H33 H -0.0247 -0.5627 0.2635
C17 C -0.2048(16) -0.4370(15) 0.2510(4)
H34 H -0.1619 -0.3489 0.2574
H35 H -0.2614 -0.4103 0.2284
O9 O -0.2969(10) -0.5019(10) 0.2832(3)
C18 C -0.4111(16) -0.4097(15) 0.2960(4)
H36 H -0.4462 -0.3468 0.2737
H37 H -0.3758 -0.3479 0.3138
C19 C -0.5332(16) -0.5006(16) 0.3165(4)
H38 H -0.5021 -0.5553 0.3406
H39 H -0.6192 -0.4390 0.3233
O10 O -0.5681(9) -0.5959(10) 0.2909(3)
C20 C -0.6902(17) -0.6749(18) 0.3061(4)
H40 H -0.7119 -0.7405 0.2880
H41 H -0.7739 -0.6090 0.3102
H42 H -0.6708 -0.7307 0.3308
C21 C -0.516(3) -0.2133(17) 0.1748(5)
H43 H -0.4672 -0.1570 0.1519
H44 H -0.4566 -0.2151 0.1965
H45 H -0.6118 -0.1693 0.1813
O11 O -0.5333(15) -0.3564(13) 0.1670(3)
C22 C -0.6101(18) -0.439(2) 0.2016(5)
H46 H -0.5672 -0.4185 0.2250
H47 H -0.7143 -0.4079 0.2038
C23 C -0.5983(17) -0.585(2) 0.1988(5)
H48 H -0.6204 -0.6028 0.1729
H49 H -0.6692 -0.6372 0.2182
O12 O -0.4569(10) -0.6340(12) 0.2052(3)
C24 C -0.4237(19) -0.7737(18) 0.1918(4)
H50 H -0.3169 -0.7869 0.1864
H51 H -0.4689 -0.7778 0.1675
C25 C -0.4795(19) -0.8887(19) 0.2213(4)
H52 H -0.5865 -0.8774 0.2266
H53 H -0.4570 -0.9840 0.2125
O13 O -0.4089(10) -0.8760(10) 0.2549(2)
C26 C -0.4369(18) -0.9916(17) 0.2868(4)
H54 H -0.4201 -1.0867 0.2775
H55 H -0.5391 -0.9850 0.2983
C27 C -0.3349(18) -0.9733(14) 0.3157(4)
H56 H -0.3587 -1.0395 0.3397
H57 H -0.2334 -0.9941 0.3055
O14 O -0.3515(10) -0.8255(10) 0.3232(3)
C28 C -0.2716(15) -0.7946(19) 0.3542(4)
H58 H -0.2849 -0.8736 0.3759
H59 H -0.3123 -0.7049 0.3636
C29 C -0.1145(13) -0.7779(14) 0.3427(4)
H60 H -0.0682 -0.8743 0.3409
H61 H -0.1014 -0.7217 0.3167
O15 O -0.0428(10) -0.7080(9) 0.3688(3)
C30 C -0.0856(16) -0.5630(14) 0.3682(4)
H62 H -0.1814 -0.5543 0.3833
H63 H -0.0947 -0.5186 0.3413
C31 C 0.0266(17) -0.4883(16) 0.3853(4)
H64 H 0.1187 -0.4835 0.3681
H65 H -0.0073 -0.3890 0.3888
O16 O 0.0487(10) -0.5686(9) 0.4213(2)
C32 C 0.1540(18) -0.5116(15) 0.4408(4)
H66 H 0.1179 -0.4191 0.4495
H67 H 0.2448 -0.4939 0.4235
C33 C 0.1823(17) -0.6174(15) 0.4743(4)
H68 H 0.2672 -0.5878 0.4863
H69 H 0.0967 -0.6203 0.4938
O17 O 0.2111(9) -0.7586(9) 0.4629(2)
C34 C 0.3561(15) -0.7760(16) 0.4463(4)
H70 H 0.4237 -0.7934 0.4667
H71 H 0.3860 -0.6881 0.4288
C35 C 0.3601(15) -0.9023(17) 0.4241(4)
H72 H 0.4592 -0.9175 0.4113
H73 H 0.3323 -0.9909 0.4415
O18 O 0.2578(9) -0.8687(9) 0.3959(2)
C36 C 0.2280(15) -0.9902(14) 0.3786(4)
H74 H 0.3199 -1.0453 0.3733
H75 H 0.1874 -0.9584 0.3537
C37 C 0.1210(14) -1.0867(14) 0.4043(4)
H76 H 0.0842 -1.1586 0.3896
H77 H 0.1686 -1.1385 0.4264
O19 O 0.0049(9) -0.9972(8) 0.4176(2)
C38 C -0.0790(14) -1.0636(14) 0.4510(3)
H78 H -0.0171 -1.0891 0.4725
H79 H -0.1233 -1.1522 0.4455
C39 C -0.1941(15) -0.9555(15) 0.4611(4)
H80 H -0.2649 -0.9428 0.4414
H81 H -0.2471 -0.9893 0.4864
O20 O -0.1267(9) -0.8200(9) 0.4628(3)
C40 C -0.2333(14) -0.7147(15) 0.4716(4)
H82 H -0.1863 -0.6231 0.4722
H83 H -0.2855 -0.7451 0.4969
H84 H -0.3024 -0.7024 0.4519
Li1 Li -0.012(2) -0.286(3) 0.0723(8)
Li2 Li -0.373(3) -0.681(2) 0.2676(7)
Li3 Li 0.048(2) -0.789(2) 0.4202(7)
loop_
_geom_bond_atom_site_label_1
_geom_bond_atom_site_label_2
_geom_bond_site_symmetry_1
_geom_bond_site_symmetry_2
As1 F1 1_555 1_555
F2 As1 1_555 1_555
F3 As1 1_555 1_555
F4 As1 1_555 1_555
F5 As1 1_555 1_555
F6 As1 1_555 1_555
As2 F7 1_555 1_555
F8 As2 1_555 1_555
F9 As2 1_555 1_555
F10 As2 1_555 1_555
F11 As2 1_555 1_555
F12 As2 1_555 1_555
As3 F13 1_555 1_555
F14 As3 1_555 1_555
F15 As3 1_555 1_555
F16 As3 1_555 1_555
F17 As3 1_555 1_555
F18 As3 1_555 1_555
C1 H1 1_555 1_555
H2 C1 1_555 1_555
H3 C1 1_555 1_555
O1 C1 1_555 1_555
C2 O1 1_555 1_555
H4 C2 1_555 1_555
H5 C2 1_555 1_555
C3 C2 1_555 1_555
H6 C3 1_555 1_555
H7 C3 1_555 1_555
O2 C3 1_555 1_555
C4 O2 1_555 1_555
H8 C4 1_555 1_555
H9 C4 1_555 1_555
C5 C4 1_555 1_555
H10 C5 1_555 1_555
H11 C5 1_555 1_555
O3 C5 1_555 1_555
C6 O3 1_555 1_555
H12 C6 1_555 1_555
H13 C6 1_555 1_555
C7 C6 1_555 1_555
H14 C7 1_555 1_555
H15 C7 1_555 1_555
O4 C7 1_555 1_555
C8 O4 1_555 1_555
H16 C8 1_555 1_555
H17 C8 1_555 1_555
C9 C8 1_555 1_555
H18 C9 1_555 1_555
H19 C9 1_555 1_555
O5 C9 1_555 1_555
C10 O5 1_555 1_555
H20 C10 1_555 1_555
H21 C10 1_555 1_555
C11 C10 1_555 1_555
H22 C11 1_555 1_555
H23 C11 1_555 1_555
O6 C11 1_555 1_555
C12 O6 1_555 1_555
H24 C12 1_555 1_555
H25 C12 1_555 1_555
C13 C12 1_555 1_555
H26 C13 1_555 1_555
H27 C13 1_555 1_555
O7 C13 1_555 1_555
C14 O7 1_555 1_555
H28 C14 1_555 1_555
H29 C14 1_555 1_555
C15 C14 1_555 1_555
H30 C15 1_555 1_555
H31 C15 1_555 1_555
O8 C15 1_555 1_555
C16 O8 1_555 1_555
H32 C16 1_555 1_555
H33 C16 1_555 1_555
C17 C16 1_555 1_555
H34 C17 1_555 1_555
H35 C17 1_555 1_555
O9 C17 1_555 1_555
C18 O9 1_555 1_555
H36 C18 1_555 1_555
H37 C18 1_555 1_555
C19 C18 1_555 1_555
H38 C19 1_555 1_555
H39 C19 1_555 1_555
O10 C19 1_555 1_555
C20 O10 1_555 1_555
H40 C20 1_555 1_555
H41 C20 1_555 1_555
H42 C20 1_555 1_555
C21 H43 1_555 1_555
H44 C21 1_555 1_555
H45 C21 1_555 1_555
O11 C21 1_555 1_555
C22 O11 1_555 1_555
H46 C22 1_555 1_555
H47 C22 1_555 1_555
C23 C22 1_555 1_555
H48 C23 1_555 1_555
H49 C23 1_555 1_555
O12 C23 1_555 1_555
C24 O12 1_555 1_555
H50 C24 1_555 1_555
H51 C24 1_555 1_555
C25 C24 1_555 1_555
H52 C25 1_555 1_555
H53 C25 1_555 1_555
O13 C25 1_555 1_555
C26 O13 1_555 1_555
H54 C26 1_555 1_555
H55 C26 1_555 1_555
C27 C26 1_555 1_555
H56 C27 1_555 1_555
H57 C27 1_555 1_555
O14 C27 1_555 1_555
C28 O14 1_555 1_555
H58 C28 1_555 1_555
H59 C28 1_555 1_555
C29 C28 1_555 1_555
H60 C29 1_555 1_555
H61 C29 1_555 1_555
O15 C29 1_555 1_555
C30 O15 1_555 1_555
H62 C30 1_555 1_555
H63 C30 1_555 1_555
C31 C30 1_555 1_555
H64 C31 1_555 1_555
H65 C31 1_555 1_555
O16 C31 1_555 1_555
C32 O16 1_555 1_555
H66 C32 1_555 1_555
H67 C32 1_555 1_555
C33 C32 1_555 1_555
H68 C33 1_555 1_555
H69 C33 1_555 1_555
O17 C33 1_555 1_555
C34 O17 1_555 1_555
H70 C34 1_555 1_555
H71 C34 1_555 1_555
C35 C34 1_555 1_555
H72 C35 1_555 1_555
H73 C35 1_555 1_555
O18 C35 1_555 1_555
C36 O18 1_555 1_555
H74 C36 1_555 1_555
H75 C36 1_555 1_555
C37 C36 1_555 1_555
H76 C37 1_555 1_555
H77 C37 1_555 1_555
O19 C37 1_555 1_555
C38 O19 1_555 1_555
H78 C38 1_555 1_555
H79 C38 1_555 1_555
C39 C38 1_555 1_555
H80 C39 1_555 1_555
H81 C39 1_555 1_555
O20 C39 1_555 1_555
C40 O20 1_555 1_555
H82 C40 1_555 1_555
H83 C40 1_555 1_555
H84 C40 1_555 1_555
Li1 O1 1_555 1_555
Li2 O8 1_555 1_555
Li3 O15 1_555 1_555
O2 Li1 1_555 1_555
O3 Li1 1_555 1_555
O4 Li1 1_555 1_555
O5 Li1 1_555 1_555
O6 Li1 1_555 1_555
O9 Li2 1_555 1_555
O10 Li2 1_555 1_555
O12 Li2 1_555 1_555
O13 Li2 1_555 1_555
O14 Li2 1_555 1_555
O16 Li3 1_555 1_555
O17 Li3 1_555 1_555
O18 Li3 1_555 1_555
O19 Li3 1_555 1_555
O20 Li3 1_555 1_555

#END
