
#######################################################################
#
#                 Cambridge Crystallographic Data Centre
#                                CCDC 
#
#######################################################################
#
# If this CIF has been generated from an entry in the Cambridge 
# Structural Database, then it will include bibliographic, chemical, 
# crystal, experimental, refinement or atomic coordinate data resulting 
# from the CCDC's data processing and validation procedures.
#
#######################################################################

data_GOFMEU
_chemical_name_common            
'bis(mu!2$-Octaglyme)-tri-lithium tris(hexafluoro-arsenate)'
_chemical_formula_moiety         'C36 H76 Li3 O18 3+,3(As1 F6 1-)'
_chemical_name_systematic        
'bis(\m~2~-1,23-Dimethoxy-3,6,9,12,15,18,21-heptaoxatricosane)-tri-lithium tris(hexafluoro-arsenate)'
_symmetry_cell_setting           triclinic
_symmetry_space_group_name_H-M   'P -1'
_symmetry_Int_Tables_number      2
_space_group_name_Hall           '-P 1'
loop_
_symmetry_equiv_pos_site_id
_symmetry_equiv_pos_as_xyz
1 x,y,z
2 -x,-y,-z
_cell_length_a                   13.7013(19)
_cell_length_b                   18.271(2)
_cell_length_c                   22.817(3)
_cell_angle_alpha                84.145(9)
_cell_angle_beta                 83.761(9)
_cell_angle_gamma                83.781(9)
_cell_volume                     5621.1
_exptl_crystal_colour            colorless
_exptl_crystal_description       prism
_cell_formula_units_Z            4
loop_
_atom_site_label
_atom_site_type_symbol
_atom_site_fract_x
_atom_site_fract_y
_atom_site_fract_z
As1 As 0.30682(3) 0.439126(19) 0.111578(16)
F1 F 0.20111(18) 0.49793(14) 0.10951(12)
F2 F 0.2771(2) 0.39844(13) 0.05248(10)
F3 F 0.36985(19) 0.50146(12) 0.06417(10)
F4 F 0.41343(15) 0.38056(12) 0.11334(10)
F5 F 0.33711(18) 0.47887(16) 0.17093(11)
F6 F 0.24499(17) 0.37595(15) 0.15878(11)
As2 As 0.65071(2) 0.117283(18) 0.111322(15)
F7 F 0.58740(16) 0.20295(11) 0.09789(10)
F8 F 0.57328(15) 0.07884(12) 0.07111(9)
F9 F 0.72917(15) 0.13423(12) 0.04862(9)
F10 F 0.71454(15) 0.03187(11) 0.12471(9)
F11 F 0.72789(15) 0.15532(11) 0.15240(9)
F12 F 0.57315(15) 0.10038(12) 0.17479(9)
As3 As -0.00886(3) 0.773345(19) 0.095516(15)
F13 F 0.08725(15) 0.70456(12) 0.08941(10)
F14 F 0.05610(16) 0.81665(11) 0.14025(9)
F15 F -0.06059(15) 0.72311(11) 0.15737(9)
F16 F -0.10487(16) 0.84158(12) 0.10278(10)
F17 F -0.07370(16) 0.72927(12) 0.05159(9)
F18 F 0.04310(17) 0.82323(12) 0.03435(9)
As4 As 0.97237(2) 0.249414(19) 0.375297(16)
F19 F 0.89508(16) 0.32741(13) 0.38900(10)
F20 F 0.89203(16) 0.22473(11) 0.32910(11)
F21 F 1.03255(16) 0.29749(12) 0.31590(9)
F22 F 1.05053(16) 0.17153(12) 0.36140(11)
F23 F 1.05264(15) 0.27497(12) 0.42099(9)
F24 F 0.91321(17) 0.20104(14) 0.43449(11)
As5 As 0.68494(2) 0.559476(18) 0.400285(14)
F25 F 0.62297(18) 0.64673(11) 0.39987(9)
F26 F 0.61686(16) 0.53815(12) 0.34654(9)
F27 F 0.77096(17) 0.59255(12) 0.34611(9)
F28 F 0.74658(16) 0.47261(11) 0.40104(10)
F29 F 0.75302(15) 0.58107(12) 0.45419(9)
F30 F 0.59771(15) 0.52794(11) 0.45445(9)
As6 As 0.29624(2) 0.923872(18) 0.403765(15)
F31 F 0.33872(17) 0.83191(11) 0.41640(11)
F32 F 0.39162(15) 0.94794(12) 0.43901(9)
F33 F 0.20128(15) 0.89981(12) 0.36867(9)
F34 F 0.25522(16) 1.01606(11) 0.39071(9)
F35 F 0.36876(15) 0.92918(12) 0.33722(9)
F36 F 0.22363(15) 0.91976(12) 0.47027(9)
Li1 Li -0.1741(4) 0.8953(3) 0.3683(3)
Li2 Li 0.1780(4) 0.6019(3) 0.3515(3)
Li3 Li 0.4800(4) 0.7646(3) 0.1555(3)
C1 C -0.3900(3) 0.8539(2) 0.35677(18)
H1 H -0.4571 0.8574 0.3769
H2 H -0.3660 0.8018 0.3537
H3 H -0.3905 0.8799 0.3170
O1 O -0.32638(17) 0.88715(13) 0.39000(10)
C2 C -0.3541(3) 0.8742(2) 0.45197(15)
H4 H -0.3528 0.8204 0.4637
H5 H -0.4217 0.8974 0.4621
C3 C -0.2818(3) 0.9073(2) 0.48382(16)
H6 H -0.2876 0.9617 0.4754
H7 H -0.2942 0.8952 0.5271
O2 O -0.18602(16) 0.87620(13) 0.46269(10)
C4 C -0.1072(3) 0.9020(2) 0.48959(16)
H8 H -0.0936 0.8705 0.5263
H9 H -0.1250 0.9536 0.4996
C5 C -0.0182(3) 0.8976(2) 0.44429(18)
H10 H 0.0359 0.9210 0.4583
H11 H 0.0050 0.8452 0.4395
O3 O -0.04244(19) 0.93433(13) 0.38865(12)
C6 C -0.0483(4) 1.0133(2) 0.3869(2)
H12 H 0.0183 1.0299 0.3864
H13 H -0.0899 1.0309 0.4218
C7 C -0.0930(4) 1.0420(2) 0.3314(2)
H14 H -0.0980 1.0968 0.3268
H15 H -0.0517 1.0234 0.2966
O4 O -0.1899(2) 1.01665(14) 0.33566(12)
C8 C -0.2305(3) 1.0221(2) 0.28029(18)
H16 H -0.2210 1.0712 0.2590
H17 H -0.3023 1.0176 0.2873
C9 C -0.1822(3) 0.9623(2) 0.24238(17)
H18 H -0.2185 0.9610 0.2073
H19 H -0.1131 0.9712 0.2287
O5 O -0.18602(18) 0.89479(13) 0.27953(10)
C10 C -0.1325(3) 0.8328(2) 0.25329(16)
H20 H -0.0618 0.8407 0.2446
H21 H -0.1589 0.8256 0.2158
C11 C -0.1446(3) 0.7668(2) 0.29672(16)
H22 H -0.2146 0.7565 0.3028
H23 H -0.1046 0.7228 0.2818
O6 O -0.11226(16) 0.78242(12) 0.35111(10)
C12 C -0.1243(2) 0.72263(18) 0.39685(15)
H24 H -0.1911 0.7066 0.3974
H25 H -0.1194 0.7410 0.4357
C13 C -0.0490(2) 0.65656(18) 0.38903(16)
H26 H -0.0681 0.6154 0.4182
H27 H -0.0504 0.6405 0.3490
O7 O 0.04981(16) 0.67060(12) 0.39618(10)
C14 C 0.0651(3) 0.67393(19) 0.45691(15)
H28 H 0.0432 0.6294 0.4810
H29 H 0.0263 0.7180 0.4724
C15 C 0.1727(2) 0.67804(19) 0.46059(15)
H30 H 0.1931 0.7258 0.4413
H31 H 0.1874 0.6732 0.5024
O8 O 0.22271(16) 0.61826(13) 0.43058(10)
C16 C 0.3259(2) 0.6049(2) 0.43754(16)
H32 H 0.3362 0.5920 0.4798
H33 H 0.3597 0.6494 0.4230
C17 C 0.3654(3) 0.5420(2) 0.40204(15)
H34 H 0.4379 0.5329 0.4023
H35 H 0.3357 0.4963 0.4187
O9 O 0.33990(17) 0.56255(13) 0.34318(10)
C18 C 0.3814(3) 0.5091(2) 0.30385(18)
H36 H 0.4525 0.4997 0.3068
H37 H 0.3696 0.5279 0.2632
H38 H 0.3504 0.4631 0.3145
C19 C 0.1062(3) 0.4660(2) 0.43875(16)
H39 H 0.0913 0.4145 0.4406
H40 H 0.0470 0.4968 0.4530
H41 H 0.1592 0.4694 0.4636
O10 O 0.13681(17) 0.49142(13) 0.37880(10)
C20 C 0.0791(3) 0.46399(19) 0.33865(16)
H42 H 0.0082 0.4798 0.3483
H43 H 0.0883 0.4093 0.3415
C21 C 0.1133(3) 0.49506(18) 0.27757(16)
H44 H 0.1825 0.4758 0.2664
H45 H 0.0714 0.4816 0.2484
O11 O 0.10556(17) 0.57358(12) 0.27933(10)
C22 C 0.1405(3) 0.6129(2) 0.22509(15)
H46 H 0.0950 0.6114 0.1944
H47 H 0.2068 0.5910 0.2105
C23 C 0.1445(3) 0.69117(19) 0.23904(16)
H48 H 0.1705 0.7216 0.2035
H49 H 0.0778 0.7135 0.2527
O12 O 0.20849(17) 0.68730(12) 0.28466(10)
C24 C 0.2297(3) 0.7585(2) 0.29852(17)
H50 H 0.2585 0.7529 0.3369
H51 H 0.1673 0.7912 0.3030
C25 C 0.3009(3) 0.79483(19) 0.25119(16)
H52 H 0.2673 0.8083 0.2148
H53 H 0.3179 0.8410 0.2650
O13 O 0.39015(18) 0.74862(13) 0.23710(10)
O14 O 0.58531(18) 0.73250(13) 0.21443(11)
C26 C 0.4481(3) 0.7316(2) 0.28623(17)
H54 H 0.4122 0.7016 0.3184
H55 H 0.4620 0.7777 0.3018
C27 C 0.5417(3) 0.6895(2) 0.26438(18)
H56 H 0.5870 0.6806 0.2959
H57 H 0.5283 0.6411 0.2527
O15 O 0.61417(18) 0.73536(14) 0.09468(12)
C28 C 0.6762(3) 0.6984(2) 0.1891(2)
H58 H 0.6715 0.6451 0.1866
H59 H 0.7300 0.7035 0.2136
C29 C 0.6960(3) 0.7368(3) 0.1286(2)
H60 H 0.7075 0.7887 0.1319
H61 H 0.7562 0.7122 0.1081
C30 C 0.6109(3) 0.6642(2) 0.0731(2)
H62 H 0.6274 0.6240 0.1040
H63 H 0.6587 0.6583 0.0378
C31 C 0.5078(3) 0.6618(2) 0.05774(17)
H64 H 0.4906 0.7025 0.0274
H65 H 0.5008 0.6141 0.0423
O16 O 0.44600(18) 0.66997(13) 0.11161(11)
C32 C 0.3430(3) 0.68489(19) 0.10334(16)
H66 H 0.3034 0.6798 0.1422
H67 H 0.3241 0.6483 0.0786
C33 C 0.3211(3) 0.7611(2) 0.07413(17)
H68 H 0.3509 0.7645 0.0326
H69 H 0.2489 0.7738 0.0744
O17 O 0.36276(18) 0.81071(13) 0.10744(10)
C34 C 0.3986(3) 0.87397(19) 0.07254(16)
H70 H 0.3456 0.9018 0.0507
H71 H 0.4544 0.8586 0.0437
C35 C 0.4316(3) 0.92071(19) 0.11587(17)
H72 H 0.4620 0.9638 0.0945
H73 H 0.3745 0.9390 0.1428
O18 O 0.50171(18) 0.87533(12) 0.14875(11)
C36 C 0.5333(3) 0.9127(2) 0.19451(18)
H74 H 0.5378 0.9649 0.1806
H75 H 0.5982 0.8898 0.2045
H76 H 0.4856 0.9089 0.2297
Li4 Li 0.4916(4) 0.2426(3) 0.3546(2)
Li5 Li 0.8176(5) 0.4237(3) 0.1406(3)
Li6 Li 1.1679(4) 0.1060(3) 0.1224(3)
C37 C 0.4935(3) 0.0740(2) 0.3329(2)
H77 H 0.5320 0.0255 0.3332
H78 H 0.4743 0.0891 0.2930
H79 H 0.4343 0.0709 0.3609
O19 O 0.55189(17) 0.12705(13) 0.34973(11)
C38 C 0.5916(3) 0.1033(2) 0.40425(17)
H80 H 0.6305 0.0546 0.4017
H81 H 0.5378 0.0985 0.4366
C39 C 0.6571(3) 0.1604(2) 0.41636(17)
H82 H 0.6743 0.1524 0.4577
H83 H 0.7187 0.1578 0.3893
O20 O 0.60081(17) 0.23022(13) 0.40635(10)
C40 C 0.6312(3) 0.2908(2) 0.43211(16)
H84 H 0.7025 0.2951 0.4213
H85 H 0.6186 0.2844 0.4758
C41 C 0.5698(3) 0.3588(2) 0.40694(17)
H86 H 0.5663 0.3984 0.4338
H87 H 0.6022 0.3769 0.3680
O21 O 0.47191(17) 0.34258(13) 0.39994(10)
C42 C 0.4138(3) 0.3272(2) 0.45492(16)
H88 H 0.3977 0.3726 0.4758
H89 H 0.4500 0.2893 0.4808
C43 C 0.3216(3) 0.2994(2) 0.43984(17)
H90 H 0.2771 0.2891 0.4762
H91 H 0.2865 0.3369 0.4131
O22 O 0.35039(17) 0.23308(13) 0.41130(11)
C44 C 0.2790(3) 0.2160(2) 0.37441(18)
H92 H 0.2117 0.2264 0.3943
H93 H 0.2892 0.1629 0.3680
C45 C 0.2889(3) 0.2617(2) 0.31583(18)
H94 H 0.2452 0.2464 0.2884
H95 H 0.2715 0.3148 0.3210
O23 O 0.39051(16) 0.24816(13) 0.29338(11)
O24 O 0.57670(16) 0.28869(12) 0.27597(10)
C46 C 0.4187(3) 0.29638(19) 0.24238(16)
H96 H 0.4063 0.3486 0.2514
H97 H 0.3806 0.2895 0.2092
C47 C 0.5262(3) 0.27667(19) 0.22636(15)
H98 H 0.5386 0.2243 0.2178
H99 H 0.5498 0.3080 0.1908
C48 C 0.6777(2) 0.25851(19) 0.27109(16)
H100 H 0.6800 0.2050 0.2667
H101 H 0.7056 0.2638 0.3085
C49 C 0.7426(3) 0.29303(18) 0.22056(16)
H102 H 0.8097 0.2667 0.2206
H103 H 0.7170 0.2853 0.1830
O25 O 0.75015(17) 0.37044(12) 0.22164(10)
C50 C 0.8024(3) 0.3865(2) 0.26936(15)
H104 H 0.8645 0.3535 0.2709
H105 H 0.7616 0.3786 0.3076
C51 C 0.8242(3) 0.4655(2) 0.25819(16)
H106 H 0.7620 0.4987 0.2579
H107 H 0.8621 0.4786 0.2895
O26 O 0.88043(16) 0.47284(12) 0.20198(10)
O27 O 0.8940(3) 0.50665(18) 0.08622(13)
C52 C 0.8962(3) 0.54741(18) 0.18062(18)
H108 H 0.9355 0.5690 0.2073
H109 H 0.8325 0.5782 0.1783
C53 C 0.9508(3) 0.5439(2) 0.12066(18)
H110 H 0.9595 0.5943 0.1019
H111 H 1.0168 0.5165 0.1236
C54 C 0.8767(5) 0.5383(3) 0.0336(2)
H112 H 0.9246 0.5742 0.0205
H113 H 0.8099 0.5637 0.0354
H114 H 0.8827 0.5006 0.0054
C55 C 0.5800(3) 0.4858(2) 0.18131(16)
H115 H 0.5221 0.5167 0.1680
H116 H 0.5999 0.5046 0.2165
H117 H 0.5637 0.4348 0.1911
O28 O 0.65935(17) 0.48759(14) 0.13514(11)
C56 C 0.6305(3) 0.4720(2) 0.07952(16)
H118 H 0.6601 0.5058 0.0474
H119 H 0.5579 0.4808 0.0800
C57 C 0.6635(2) 0.39330(19) 0.06764(15)
H120 H 0.6288 0.3588 0.0969
H121 H 0.6496 0.3842 0.0275
O29 O 0.76751(16) 0.38340(12) 0.07264(10)
C58 C 0.8157(2) 0.31401(18) 0.05591(15)
H122 H 0.8078 0.3083 0.0141
H123 H 0.7876 0.2726 0.0811
C59 C 0.9230(2) 0.31497(18) 0.06434(15)
H124 H 0.9596 0.2665 0.0570
H125 H 0.9525 0.3535 0.0363
O30 O 0.92827(16) 0.33060(12) 0.12419(10)
C60 C 1.0287(2) 0.32565(18) 0.13940(17)
H126 H 1.0360 0.3674 0.1625
H127 H 1.0740 0.3301 0.1026
C61 C 1.0577(3) 0.25374(18) 0.17508(16)
H128 H 1.1259 0.2540 0.1856
H129 H 1.0135 0.2500 0.2124
O31 O 1.05260(16) 0.18993(12) 0.14370(10)
C62 C 0.9616(2) 0.15693(19) 0.15935(17)
H130 H 0.9048 0.1952 0.1572
H131 H 0.9598 0.1327 0.2002
C63 C 0.9562(3) 0.10092(19) 0.11638(18)
H132 H 0.8971 0.0740 0.1275
H133 H 0.9523 0.1256 0.0759
O32 O 1.04308(17) 0.05133(13) 0.11860(13)
C64 C 1.0491(3) -0.0021(3) 0.0773(3)
H134 H 1.0330 0.0220 0.0382
H135 H 1.0017 -0.0390 0.0907
C65 C 1.1526(3) -0.0391(2) 0.0728(3)
H136 H 1.1639 -0.0710 0.1097
H137 H 1.1626 -0.0706 0.0394
O33 O 1.22124(19) 0.01625(14) 0.06358(12)
C66 C 1.2336(5) 0.0490(3) 0.0051(2)
H138 H 1.1687 0.0657 -0.0094
H139 H 1.2692 0.0130 -0.0213
C67 C 1.2905(5) 0.1118(3) 0.0059(3)
H140 H 1.3548 0.0954 0.0214
H141 H 1.3027 0.1366 -0.0345
O34 O 1.2323(3) 0.16081(17) 0.04380(18)
C68 C 1.2754(5) 0.2200(4) 0.0536(3)
H142 H 1.2249 0.2600 0.0655
H143 H 1.3148 0.2383 0.0172
C69 C 1.3374(3) 0.1980(3) 0.0996(3)
H144 H 1.3635 0.2420 0.1117
H145 H 1.3939 0.1640 0.0849
O35 O 1.2786(3) 0.1587(2) 0.1538(2)
C70 C 1.3395(4) 0.1234(4) 0.1847(4)
H146 H 1.3793 0.1565 0.2019
H147 H 1.3840 0.0875 0.1622
C71 C 1.2664(4) 0.0829(3) 0.2345(2)
H148 H 1.3045 0.0487 0.2621
H149 H 1.2244 0.1198 0.2575
O36 O 1.2059(3) 0.0422(2) 0.20324(17)
C72 C 1.1448(4) -0.0033(6) 0.2376(3)
H150 H 1.1779 -0.0263 0.2718
H151 H 1.1293 -0.0418 0.2142
H152 H 1.0837 0.0257 0.2513
loop_
_geom_bond_atom_site_label_1
_geom_bond_atom_site_label_2
_geom_bond_site_symmetry_1
_geom_bond_site_symmetry_2
As1 F1 1_555 1_555
F2 As1 1_555 1_555
F3 As1 1_555 1_555
F4 As1 1_555 1_555
F5 As1 1_555 1_555
F6 As1 1_555 1_555
As2 F7 1_555 1_555
F8 As2 1_555 1_555
F9 As2 1_555 1_555
F10 As2 1_555 1_555
F11 As2 1_555 1_555
F12 As2 1_555 1_555
As3 F13 1_555 1_555
F14 As3 1_555 1_555
F15 As3 1_555 1_555
F16 As3 1_555 1_555
F17 As3 1_555 1_555
F18 As3 1_555 1_555
As4 F19 1_555 1_555
F20 As4 1_555 1_555
F21 As4 1_555 1_555
F22 As4 1_555 1_555
F23 As4 1_555 1_555
F24 As4 1_555 1_555
As5 F25 1_555 1_555
F26 As5 1_555 1_555
F27 As5 1_555 1_555
F28 As5 1_555 1_555
F29 As5 1_555 1_555
F30 As5 1_555 1_555
As6 F31 1_555 1_555
F32 As6 1_555 1_555
F33 As6 1_555 1_555
F34 As6 1_555 1_555
F35 As6 1_555 1_555
F36 As6 1_555 1_555
Li1 O1 1_555 1_555
Li2 O7 1_555 1_555
Li3 O13 1_555 1_555
Li4 O19 1_555 1_555
Li5 O25 1_555 1_555
Li6 O31 1_555 1_555
C1 H1 1_555 1_555
H2 C1 1_555 1_555
H3 C1 1_555 1_555
O1 C1 1_555 1_555
C2 O1 1_555 1_555
H4 C2 1_555 1_555
H5 C2 1_555 1_555
C3 C2 1_555 1_555
H6 C3 1_555 1_555
H7 C3 1_555 1_555
O2 Li1 1_555 1_555
C4 O2 1_555 1_555
H8 C4 1_555 1_555
H9 C4 1_555 1_555
C5 C4 1_555 1_555
H10 C5 1_555 1_555
H11 C5 1_555 1_555
O3 Li1 1_555 1_555
C6 O3 1_555 1_555
H12 C6 1_555 1_555
H13 C6 1_555 1_555
C7 C6 1_555 1_555
H14 C7 1_555 1_555
H15 C7 1_555 1_555
O4 Li1 1_555 1_555
C8 O4 1_555 1_555
H16 C8 1_555 1_555
H17 C8 1_555 1_555
C9 C8 1_555 1_555
H18 C9 1_555 1_555
H19 C9 1_555 1_555
O5 Li1 1_555 1_555
C10 O5 1_555 1_555
H20 C10 1_555 1_555
H21 C10 1_555 1_555
C11 C10 1_555 1_555
H22 C11 1_555 1_555
H23 C11 1_555 1_555
O6 Li1 1_555 1_555
C12 O6 1_555 1_555
H24 C12 1_555 1_555
H25 C12 1_555 1_555
C13 C12 1_555 1_555
H26 C13 1_555 1_555
H27 C13 1_555 1_555
O7 C13 1_555 1_555
C14 O7 1_555 1_555
H28 C14 1_555 1_555
H29 C14 1_555 1_555
C15 C14 1_555 1_555
H30 C15 1_555 1_555
H31 C15 1_555 1_555
O8 Li2 1_555 1_555
C16 O8 1_555 1_555
H32 C16 1_555 1_555
H33 C16 1_555 1_555
C17 C16 1_555 1_555
H34 C17 1_555 1_555
H35 C17 1_555 1_555
O9 Li2 1_555 1_555
C18 O9 1_555 1_555
H36 C18 1_555 1_555
H37 C18 1_555 1_555
H38 C18 1_555 1_555
C19 H39 1_555 1_555
H40 C19 1_555 1_555
H41 C19 1_555 1_555
O10 Li2 1_555 1_555
C20 O10 1_555 1_555
H42 C20 1_555 1_555
H43 C20 1_555 1_555
C21 C20 1_555 1_555
H44 C21 1_555 1_555
H45 C21 1_555 1_555
O11 Li2 1_555 1_555
C22 O11 1_555 1_555
H46 C22 1_555 1_555
H47 C22 1_555 1_555
C23 C22 1_555 1_555
H48 C23 1_555 1_555
H49 C23 1_555 1_555
O12 Li2 1_555 1_555
C24 O12 1_555 1_555
H50 C24 1_555 1_555
H51 C24 1_555 1_555
C25 C24 1_555 1_555
H52 C25 1_555 1_555
H53 C25 1_555 1_555
O13 C25 1_555 1_555
O14 Li3 1_555 1_555
C26 O13 1_555 1_555
H54 C26 1_555 1_555
H55 C26 1_555 1_555
C27 O14 1_555 1_555
H56 C27 1_555 1_555
H57 C27 1_555 1_555
O15 Li3 1_555 1_555
C28 O14 1_555 1_555
H58 C28 1_555 1_555
H59 C28 1_555 1_555
C29 O15 1_555 1_555
H60 C29 1_555 1_555
H61 C29 1_555 1_555
C30 O15 1_555 1_555
H62 C30 1_555 1_555
H63 C30 1_555 1_555
C31 C30 1_555 1_555
H64 C31 1_555 1_555
H65 C31 1_555 1_555
O16 Li3 1_555 1_555
C32 O16 1_555 1_555
H66 C32 1_555 1_555
H67 C32 1_555 1_555
C33 C32 1_555 1_555
H68 C33 1_555 1_555
H69 C33 1_555 1_555
O17 Li3 1_555 1_555
C34 O17 1_555 1_555
H70 C34 1_555 1_555
H71 C34 1_555 1_555
C35 C34 1_555 1_555
H72 C35 1_555 1_555
H73 C35 1_555 1_555
O18 Li3 1_555 1_555
C36 O18 1_555 1_555
H74 C36 1_555 1_555
H75 C36 1_555 1_555
H76 C36 1_555 1_555
C37 H77 1_555 1_555
H78 C37 1_555 1_555
H79 C37 1_555 1_555
O19 C37 1_555 1_555
C38 O19 1_555 1_555
H80 C38 1_555 1_555
H81 C38 1_555 1_555
C39 C38 1_555 1_555
H82 C39 1_555 1_555
H83 C39 1_555 1_555
O20 Li4 1_555 1_555
C40 O20 1_555 1_555
H84 C40 1_555 1_555
H85 C40 1_555 1_555
C41 C40 1_555 1_555
H86 C41 1_555 1_555
H87 C41 1_555 1_555
O21 Li4 1_555 1_555
C42 O21 1_555 1_555
H88 C42 1_555 1_555
H89 C42 1_555 1_555
C43 C42 1_555 1_555
H90 C43 1_555 1_555
H91 C43 1_555 1_555
O22 Li4 1_555 1_555
C44 O22 1_555 1_555
H92 C44 1_555 1_555
H93 C44 1_555 1_555
C45 C44 1_555 1_555
H94 C45 1_555 1_555
H95 C45 1_555 1_555
O23 Li4 1_555 1_555
O24 Li4 1_555 1_555
C46 O23 1_555 1_555
H96 C46 1_555 1_555
H97 C46 1_555 1_555
C47 O24 1_555 1_555
H98 C47 1_555 1_555
H99 C47 1_555 1_555
C48 O24 1_555 1_555
H100 C48 1_555 1_555
H101 C48 1_555 1_555
C49 C48 1_555 1_555
H102 C49 1_555 1_555
H103 C49 1_555 1_555
O25 C49 1_555 1_555
C50 O25 1_555 1_555
H104 C50 1_555 1_555
H105 C50 1_555 1_555
C51 C50 1_555 1_555
H106 C51 1_555 1_555
H107 C51 1_555 1_555
O26 Li5 1_555 1_555
O27 Li5 1_555 1_555
C52 O26 1_555 1_555
H108 C52 1_555 1_555
H109 C52 1_555 1_555
C53 O27 1_555 1_555
H110 C53 1_555 1_555
H111 C53 1_555 1_555
C54 O27 1_555 1_555
H112 C54 1_555 1_555
H113 C54 1_555 1_555
H114 C54 1_555 1_555
C55 H115 1_555 1_555
H116 C55 1_555 1_555
H117 C55 1_555 1_555
O28 Li5 1_555 1_555
C56 O28 1_555 1_555
H118 C56 1_555 1_555
H119 C56 1_555 1_555
C57 C56 1_555 1_555
H120 C57 1_555 1_555
H121 C57 1_555 1_555
O29 Li5 1_555 1_555
C58 O29 1_555 1_555
H122 C58 1_555 1_555
H123 C58 1_555 1_555
C59 C58 1_555 1_555
H124 C59 1_555 1_555
H125 C59 1_555 1_555
O30 Li5 1_555 1_555
C60 O30 1_555 1_555
H126 C60 1_555 1_555
H127 C60 1_555 1_555
C61 C60 1_555 1_555
H128 C61 1_555 1_555
H129 C61 1_555 1_555
O31 C61 1_555 1_555
C62 O31 1_555 1_555
H130 C62 1_555 1_555
H131 C62 1_555 1_555
C63 C62 1_555 1_555
H132 C63 1_555 1_555
H133 C63 1_555 1_555
O32 Li6 1_555 1_555
C64 O32 1_555 1_555
H134 C64 1_555 1_555
H135 C64 1_555 1_555
C65 C64 1_555 1_555
H136 C65 1_555 1_555
H137 C65 1_555 1_555
O33 Li6 1_555 1_555
C66 O33 1_555 1_555
H138 C66 1_555 1_555
H139 C66 1_555 1_555
C67 C66 1_555 1_555
H140 C67 1_555 1_555
H141 C67 1_555 1_555
O34 Li6 1_555 1_555
C68 O34 1_555 1_555
H142 C68 1_555 1_555
H143 C68 1_555 1_555
C69 C68 1_555 1_555
H144 C69 1_555 1_555
H145 C69 1_555 1_555
O35 Li6 1_555 1_555
C70 O35 1_555 1_555
H146 C70 1_555 1_555
H147 C70 1_555 1_555
C71 C70 1_555 1_555
H148 C71 1_555 1_555
H149 C71 1_555 1_555
O36 Li6 1_555 1_555
C72 O36 1_555 1_555
H150 C72 1_555 1_555
H151 C72 1_555 1_555
H152 C72 1_555 1_555
C3 O2 1_555 1_555
C5 O3 1_555 1_555
C7 O4 1_555 1_555
C9 O5 1_555 1_555
C11 O6 1_555 1_555
C15 O8 1_555 1_555
C17 O9 1_555 1_555
C19 O10 1_555 1_555
C21 O11 1_555 1_555
C23 O12 1_555 1_555
C26 C27 1_555 1_555
C28 C29 1_555 1_555
C31 O16 1_555 1_555
C33 O17 1_555 1_555
C35 O18 1_555 1_555
C39 O20 1_555 1_555
C41 O21 1_555 1_555
C43 O22 1_555 1_555
C45 O23 1_555 1_555
C46 C47 1_555 1_555
C51 O26 1_555 1_555
C52 C53 1_555 1_555
C55 O28 1_555 1_555
C57 O29 1_555 1_555
C59 O30 1_555 1_555
C63 O32 1_555 1_555
C65 O33 1_555 1_555
C67 O34 1_555 1_555
C69 O35 1_555 1_555
C71 O36 1_555 1_555

#END
