
#######################################################################
#
#                 Cambridge Crystallographic Data Centre
#                                CCDC 
#
#######################################################################
#
# If this CIF has been generated from an entry in the Cambridge 
# Structural Database, then it will include bibliographic, chemical, 
# crystal, experimental, refinement or atomic coordinate data resulting 
# from the CCDC's data processing and validation procedures.
#
#######################################################################

data_GOFPEY
_chemical_formula_moiety         'C21 H17 F1'
_chemical_name_systematic        
1,1',1''-(1-fluoroprop-1-ene-1,3,3-triyl)tribenzene
_symmetry_cell_setting           triclinic
_symmetry_space_group_name_H-M   'P -1'
_symmetry_Int_Tables_number      2
_space_group_name_Hall           '-P 1'
loop_
_symmetry_equiv_pos_site_id
_symmetry_equiv_pos_as_xyz
1 x,y,z
2 -x,-y,-z
_cell_length_a                   9.7181(19)
_cell_length_b                   10.056(2)
_cell_length_c                   10.142(2)
_cell_angle_alpha                62.07(3)
_cell_angle_beta                 65.74(3)
_cell_angle_gamma                68.51(3)
_cell_volume                     779.527
_exptl_crystal_colour            colorless
_exptl_crystal_description       block
_cell_formula_units_Z            2
loop_
_atom_site_label
_atom_site_type_symbol
_atom_site_fract_x
_atom_site_fract_y
_atom_site_fract_z
F1 F 0.27155(9) 0.06078(10) 0.22728(11)
C1 C 0.32174(13) 0.52988(14) 0.16877(13)
H1 H 0.3067 0.4858 0.1144
C2 C 0.38417(15) 0.65973(15) 0.08710(15)
H2 H 0.4095 0.7027 -0.0212
C3 C 0.40899(17) 0.72566(15) 0.16527(17)
H3 H 0.4521 0.8122 0.1103
C4 C 0.36933(18) 0.66223(15) 0.32534(17)
H4 H 0.3852 0.7066 0.3790
C5 C 0.30607(15) 0.53307(14) 0.40739(14)
H5 H 0.2797 0.4915 0.5158
C6 C 0.28121(11) 0.46434(12) 0.33022(12)
C7 C 0.34428(13) 0.16648(14) 0.62661(14)
H6 H 0.4373 0.1647 0.5477
C8 C 0.34459(15) 0.09337(14) 0.78038(15)
H7 H 0.4376 0.0421 0.8044
C9 C 0.20799(16) 0.09572(15) 0.89857(15)
H8 H 0.2087 0.0473 1.0021
C10 C 0.07078(16) 0.17003(16) 0.86261(15)
H9 H -0.0218 0.1720 0.9420
C11 C 0.06994(13) 0.24197(13) 0.70857(14)
H10 H -0.0238 0.2905 0.6856
C12 C 0.20597(12) 0.24297(12) 0.58818(13)
C13 C -0.02929(14) 0.39389(14) 0.21475(14)
H11 H 0.0282 0.4640 0.1878
C14 C -0.17778(15) 0.44688(16) 0.20238(15)
H12 H -0.2203 0.5522 0.1684
C15 C -0.26334(15) 0.3439(2) 0.24039(17)
H13 H -0.3636 0.3796 0.2326
C16 C -0.19971(17) 0.1883(2) 0.28988(19)
H14 H -0.2570 0.1190 0.3145
C17 C -0.05161(16) 0.13434(16) 0.30336(16)
H15 H -0.0094 0.0290 0.3368
C18 C 0.03494(13) 0.23758(13) 0.26690(13)
C19 C 0.20222(11) 0.32683(12) 0.41964(12)
H16 H 0.0933 0.3679 0.4219
C20 C 0.26763(13) 0.21420(13) 0.33923(14)
H17 H 0.3712 0.1653 0.3290
C21 C 0.19312(13) 0.17779(14) 0.28172(14)
loop_
_geom_bond_atom_site_label_1
_geom_bond_atom_site_label_2
_geom_bond_site_symmetry_1
_geom_bond_site_symmetry_2
F1 C21 1_555 1_555
C1 H1 1_555 1_555
C2 C1 1_555 1_555
H2 C2 1_555 1_555
C3 C2 1_555 1_555
H3 C3 1_555 1_555
C4 C3 1_555 1_555
H4 C4 1_555 1_555
C5 C4 1_555 1_555
H5 C5 1_555 1_555
C6 C1 1_555 1_555
C7 H6 1_555 1_555
C8 C7 1_555 1_555
H7 C8 1_555 1_555
C9 C8 1_555 1_555
H8 C9 1_555 1_555
C10 C9 1_555 1_555
H9 C10 1_555 1_555
C11 C10 1_555 1_555
H10 C11 1_555 1_555
C12 C7 1_555 1_555
C13 H11 1_555 1_555
C14 C13 1_555 1_555
H12 C14 1_555 1_555
C15 C14 1_555 1_555
H13 C15 1_555 1_555
C16 C15 1_555 1_555
H14 C16 1_555 1_555
C17 C16 1_555 1_555
H15 C17 1_555 1_555
C18 C13 1_555 1_555
C19 C6 1_555 1_555
H16 C19 1_555 1_555
C20 C19 1_555 1_555
H17 C20 1_555 1_555
C21 C18 1_555 1_555
C5 C6 1_555 1_555
C11 C12 1_555 1_555
C12 C19 1_555 1_555
C17 C18 1_555 1_555
C20 C21 1_555 1_555

#END
