
#######################################################################
#
#                 Cambridge Crystallographic Data Centre
#                                CCDC 
#
#######################################################################
#
# If this CIF has been generated from an entry in the Cambridge 
# Structural Database, then it will include bibliographic, chemical, 
# crystal, experimental, refinement or atomic coordinate data resulting 
# from the CCDC's data processing and validation procedures.
#
#######################################################################

data_GOFPAU
_chemical_formula_moiety         'C24 H26 Cl1 N1 O4'
_chemical_name_systematic        
N-t-butyl-2-(1-chloro-3-(4-methoxyphenyl)-3-oxopropyl)-1-oxoindane-2-carboxamide
_symmetry_cell_setting           monoclinic
_symmetry_space_group_name_H-M   'P 21'
_symmetry_Int_Tables_number      4
_space_group_name_Hall           'P 2yb'
loop_
_symmetry_equiv_pos_site_id
_symmetry_equiv_pos_as_xyz
1 x,y,z
2 -x,1/2+y,-z
_cell_length_a                   9.6498(5)
_cell_length_b                   6.2614(3)
_cell_length_c                   18.4779(7)
_cell_angle_alpha                90
_cell_angle_beta                 92.352(4)
_cell_angle_gamma                90
_cell_volume                     1115.52
_cell_formula_units_Z            2
loop_
_atom_site_label
_atom_site_type_symbol
_atom_site_fract_x
_atom_site_fract_y
_atom_site_fract_z
C1 C -0.1885(4) 0.5933(5) 0.69840(17)
C2 C -0.3308(4) 0.5805(7) 0.68310(19)
H1 H -0.3692 0.4609 0.6602
C3 C -0.4133(4) 0.7477(8) 0.7025(2)
H2 H -0.5082 0.7442 0.6916
C4 C -0.3548(4) 0.9215(8) 0.7383(2)
H3 H -0.4119 1.0327 0.7520
C5 C -0.2138(4) 0.9346(6) 0.7542(2)
H4 H -0.1765 1.0514 0.7793
C6 C -0.1290(4) 0.7696(5) 0.73207(17)
C7 C 0.0280(4) 0.7519(6) 0.7374(2)
H5 H 0.070(3) 0.870(6) 0.7069(18)
H6 H 0.061(4) 0.780(6) 0.788(2)
C8 C -0.0826(4) 0.4364(5) 0.68219(16)
C9 C 0.0598(3) 0.5272(5) 0.70787(17)
C10 C 0.1269(3) 0.3746(6) 0.76474(15)
H7 H 0.1302 0.2317 0.7432
C11 C 0.2730(4) 0.4338(5) 0.79105(18)
H8 H 0.3270 0.4682 0.7495
H9 H 0.2688 0.5609 0.8209
C12 C 0.3467(4) 0.2587(6) 0.83437(18)
C13 C 0.4747(3) 0.3179(6) 0.87751(16)
C14 C 0.5378(4) 0.1685(6) 0.9229(2)
H10 H 0.4976 0.0342 0.9271
C15 C 0.6593(4) 0.2138(6) 0.9623(2)
H11 H 0.6999 0.1107 0.9925
C16 C 0.7197(4) 0.4109(7) 0.95656(18)
C17 C 0.6583(4) 0.5636(6) 0.9113(2)
H12 H 0.6994 0.6971 0.9069
C18 C 0.5371(4) 0.5183(6) 0.87301(19)
H13 H 0.4959 0.6228 0.8436
C19 C 0.9008(4) 0.3360(8) 1.0446(2)
H14 H 0.9274 0.2063 1.0212
H15 H 0.8360 0.3038 1.0812
H16 H 0.9814 0.4030 1.0666
C20 C 0.1618(4) 0.5369(5) 0.64438(16)
C21 C 0.2489(3) 0.3172(5) 0.54079(17)
C22 C 0.2024(6) 0.1044(7) 0.5104(2)
H17 H 0.2054 -0.0005 0.5483
H18 H 0.2630 0.0617 0.4731
H19 H 0.1093 0.1164 0.4904
C23 C 0.2294(6) 0.4845(7) 0.4828(2)
H20 H 0.1324 0.4981 0.4697
H21 H 0.2788 0.4431 0.4410
H22 H 0.2643 0.6189 0.5006
C24 C 0.3972(5) 0.3069(12) 0.5674(3)
H23 H 0.4264 0.4452 0.5844
H24 H 0.4538 0.2633 0.5285
H25 H 0.4065 0.2055 0.6062
Cl1 Cl 0.01838(10) 0.36140(17) 0.84226(4)
N1 N 0.1601(3) 0.3637(4) 0.60236(13)
H26 H 0.1001 0.2675 0.6122
O1 O -0.0994(3) 0.2626(4) 0.65397(13)
O2 O 0.3057(3) 0.0761(4) 0.83080(16)
O3 O 0.8381(3) 0.4756(5) 0.99287(15)
O4 O 0.2380(3) 0.6902(4) 0.63763(13)
loop_
_geom_bond_atom_site_label_1
_geom_bond_atom_site_label_2
_geom_bond_site_symmetry_1
_geom_bond_site_symmetry_2
C1 C2 1_555 1_555
C2 H1 1_555 1_555
C3 C2 1_555 1_555
H2 C3 1_555 1_555
C4 C3 1_555 1_555
H3 C4 1_555 1_555
C5 C4 1_555 1_555
H4 C5 1_555 1_555
C6 C1 1_555 1_555
C7 C6 1_555 1_555
H5 C7 1_555 1_555
H6 C7 1_555 1_555
C8 C1 1_555 1_555
C9 C7 1_555 1_555
C10 C9 1_555 1_555
H7 C10 1_555 1_555
C11 C10 1_555 1_555
H8 C11 1_555 1_555
H9 C11 1_555 1_555
C12 C11 1_555 1_555
C13 C12 1_555 1_555
C14 C13 1_555 1_555
H10 C14 1_555 1_555
C15 C14 1_555 1_555
H11 C15 1_555 1_555
C16 C15 1_555 1_555
C17 C16 1_555 1_555
H12 C17 1_555 1_555
C18 C13 1_555 1_555
H13 C18 1_555 1_555
C19 H14 1_555 1_555
H15 C19 1_555 1_555
H16 C19 1_555 1_555
C20 C9 1_555 1_555
C21 C22 1_555 1_555
C22 H17 1_555 1_555
H18 C22 1_555 1_555
H19 C22 1_555 1_555
C23 C21 1_555 1_555
H20 C23 1_555 1_555
H21 C23 1_555 1_555
H22 C23 1_555 1_555
C24 C21 1_555 1_555
H23 C24 1_555 1_555
H24 C24 1_555 1_555
H25 C24 1_555 1_555
Cl1 C10 1_555 1_555
N1 C20 1_555 1_555
H26 N1 1_555 1_555
O1 C8 1_555 1_555
O2 C12 1_555 1_555
O3 C16 1_555 1_555
O4 C20 1_555 1_555
C5 C6 1_555 1_555
C8 C9 1_555 1_555
C17 C18 1_555 1_555
C19 O3 1_555 1_555
C21 N1 1_555 1_555

#END
