
#######################################################################
#
#                 Cambridge Crystallographic Data Centre
#                                CCDC 
#
#######################################################################
#
# If this CIF has been generated from an entry in the Cambridge 
# Structural Database, then it will include bibliographic, chemical, 
# crystal, experimental, refinement or atomic coordinate data resulting 
# from the CCDC's data processing and validation procedures.
#
#######################################################################

data_GOFQEY
_chemical_formula_moiety         'C4 H4 N2 O2'
_chemical_name_systematic        meso-2,3-Dihydroxybutane-1,4-dinitrile
_symmetry_cell_setting           orthorhombic
_symmetry_space_group_name_H-M   'P b c a'
_symmetry_Int_Tables_number      61
_space_group_name_Hall           '-P 2ac 2ab'
loop_
_symmetry_equiv_pos_site_id
_symmetry_equiv_pos_as_xyz
1 x,y,z
2 1/2-x,-y,1/2+z
3 -x,1/2+y,1/2-z
4 1/2+x,1/2-y,-z
5 -x,-y,-z
6 1/2+x,y,1/2-z
7 x,1/2-y,1/2+z
8 1/2-x,1/2+y,z
_cell_length_a                   7.2155(15)
_cell_length_b                   6.2725(12)
_cell_length_c                   10.828(2)
_cell_angle_alpha                90
_cell_angle_beta                 90
_cell_angle_gamma                90
_cell_volume                     490.067
_exptl_crystal_colour            colorless
_exptl_crystal_description       prismatic
_cell_formula_units_Z            4
loop_
_atom_site_label
_atom_site_type_symbol
_atom_site_fract_x
_atom_site_fract_y
_atom_site_fract_z
C1 C 0.1068(3) 0.1971(3) 0.39095(19)
C2 C 0.0641(3) 0.0965(3) 0.51150(17)
H1 H -0.0003 0.2018 0.5659
N1 N 0.1434(2) 0.2728(3) 0.29811(14)
O1 O 0.23079(18) 0.0297(2) 0.56832(13)
H2 H 0.229(3) 0.085(4) 0.642(2)
C1D C -0.1068(3) -0.1971(3) 0.60905(19)
C2D C -0.0641(3) -0.0965(3) 0.48850(17)
H1D H 0.0003 -0.2018 0.4341
N1D N -0.1434(2) -0.2728(3) 0.70189(14)
O1D O -0.23079(18) -0.0297(2) 0.43168(13)
H2D H -0.229(3) -0.085(4) 0.358(2)
loop_
_geom_bond_atom_site_label_1
_geom_bond_atom_site_label_2
_geom_bond_site_symmetry_1
_geom_bond_site_symmetry_2
C1 C2 1_555 1_555
C2 H1 1_555 1_555
N1 C1 1_555 1_555
O1 C2 1_555 1_555
H2 O1 1_555 1_555
C1D C2D 1_555 1_555
C2D C2 1_555 1_555
H1D C2D 1_555 1_555
N1D C1D 1_555 1_555
O1D C2D 1_555 1_555
H2D O1D 1_555 1_555

#END
