
#######################################################################
#
#                 Cambridge Crystallographic Data Centre
#                                CCDC 
#
#######################################################################
#
# If this CIF has been generated from an entry in the Cambridge 
# Structural Database, then it will include bibliographic, chemical, 
# crystal, experimental, refinement or atomic coordinate data resulting 
# from the CCDC's data processing and validation procedures.
#
#######################################################################

data_GOFSEA
_chemical_formula_moiety         'C2 H10 N2 2+,2(C10 H9 N2 O1 1-)'
_chemical_name_systematic        
'Ethylene-1,2-diammonium bis(5-methyl-3-oxo-2-phenyl-2,3-dihydropyrazol-1-ide)'
_symmetry_cell_setting           tetragonal
_symmetry_space_group_name_H-M   'P 42/n'
_symmetry_Int_Tables_number      86
_space_group_name_Hall           '-P 4bc'
loop_
_symmetry_equiv_pos_site_id
_symmetry_equiv_pos_as_xyz
1 x,y,z
2 -y,1/2+x,1/2+z
3 1/2+y,-x,1/2+z
4 1/2-x,1/2-y,z
5 -x,-y,-z
6 y,1/2-x,1/2-z
7 1/2-y,x,1/2-z
8 1/2+x,1/2+y,-z
_cell_length_a                   17.179(2)
_cell_length_b                   17.179(2)
_cell_length_c                   7.0929(15)
_cell_angle_alpha                90
_cell_angle_beta                 90
_cell_angle_gamma                90
_cell_volume                     2093.24
_exptl_crystal_colour            pink
_exptl_crystal_description       block
_chemical_melting_point          438-441K
_cell_formula_units_Z            4
loop_
_atom_site_label
_atom_site_type_symbol
_atom_site_fract_x
_atom_site_fract_y
_atom_site_fract_z
N1 N 0.50902(11) 0.26458(10) 0.1311(3)
N2 N 0.55431(11) 0.19843(11) 0.0995(3)
O1 O 0.50279(10) 0.39457(9) 0.0303(2)
C1 C 0.53354(13) 0.32631(13) 0.0203(3)
C2 C 0.59414(14) 0.29704(13) -0.0881(3)
H4 H 0.6225 0.3239 -0.1788
C3 C 0.60418(14) 0.21958(13) -0.0345(3)
C4 C 0.66173(18) 0.16275(17) -0.1105(4)
H5 H 0.6533 0.1128 -0.0533
H6 H 0.7135 0.1804 -0.0825
H7 H 0.6554 0.1585 -0.2446
C5 C 0.46305(12) 0.26868(12) 0.2962(3)
C6 C 0.39474(13) 0.31290(14) 0.2980(3)
H8 H 0.3778 0.3380 0.1893
C7 C 0.35267(15) 0.31879(15) 0.4635(4)
H9 H 0.3077 0.3489 0.4661
C8 C 0.37619(15) 0.28079(15) 0.6244(4)
H10 H 0.3476 0.2857 0.7351
C9 C 0.44250(15) 0.23530(14) 0.6208(4)
H11 H 0.4578 0.2085 0.7285
C10 C 0.48621(13) 0.22946(13) 0.4580(3)
H12 H 0.5311 0.1993 0.4567
N3 N 0.45643(11) 0.51464(11) 0.2591(3)
H1 H 0.4611 0.4662 0.2161
H2 H 0.4679 0.5481 0.1675
H3 H 0.4078 0.5226 0.2977
C11 C 0.51023(13) 0.52621(14) 0.4182(3)
H13 H 0.5080 0.5801 0.4588
H14 H 0.5630 0.5153 0.3773
N3D N 0.54357(11) 0.48536(11) 0.7409(3)
H1D H 0.5389 0.5338 0.7839
H2D H 0.5321 0.4519 0.8325
H3D H 0.5922 0.4774 0.7023
C11D C 0.48977(13) 0.47379(14) 0.5818(3)
H13D H 0.4920 0.4199 0.5412
H14D H 0.4370 0.4847 0.6227
loop_
_geom_bond_atom_site_label_1
_geom_bond_atom_site_label_2
_geom_bond_site_symmetry_1
_geom_bond_site_symmetry_2
N1 N2 1_555 1_555
N2 C3 1_555 1_555
N3 H1 1_555 1_555
H2 N3 1_555 1_555
H3 N3 1_555 1_555
O1 C1 1_555 1_555
C1 N1 1_555 1_555
C2 C1 1_555 1_555
H4 C2 1_555 1_555
C3 C2 1_555 1_555
C4 C3 1_555 1_555
H5 C4 1_555 1_555
H6 C4 1_555 1_555
H7 C4 1_555 1_555
C5 N1 1_555 1_555
C6 C5 1_555 1_555
H8 C6 1_555 1_555
C7 C6 1_555 1_555
H9 C7 1_555 1_555
C8 C7 1_555 1_555
H10 C8 1_555 1_555
C9 C8 1_555 1_555
H11 C9 1_555 1_555
C10 C5 1_555 1_555
H12 C10 1_555 1_555
C11 N3 1_555 1_555
H13 C11 1_555 1_555
H14 C11 1_555 1_555
N3D H1D 1_555 1_555
H2D N3D 1_555 1_555
H3D N3D 1_555 1_555
C11D C11 1_555 1_555
H13D C11D 1_555 1_555
H14D C11D 1_555 1_555
C9 C10 1_555 1_555
N3D C11D 1_555 1_555

#END
