
#######################################################################
#
#                 Cambridge Crystallographic Data Centre
#                                CCDC 
#
#######################################################################
#
# If this CIF has been generated from an entry in the Cambridge 
# Structural Database, then it will include bibliographic, chemical, 
# crystal, experimental, refinement or atomic coordinate data resulting 
# from the CCDC's data processing and validation procedures.
#
#######################################################################

data_GOFWIJ
_chemical_formula_moiety         'C28 H19 N1 S3'
_chemical_name_systematic        
4-(2-(Bisthieno[2,3-b:3',2'-d]thiophen-2-yl)vinyl)-N,N-diphenylaniline
_symmetry_cell_setting           monoclinic
_symmetry_space_group_name_H-M   'P c'
_symmetry_Int_Tables_number      7
_space_group_name_Hall           'P -2yc'
loop_
_symmetry_equiv_pos_site_id
_symmetry_equiv_pos_as_xyz
1 x,y,z
2 x,-y,1/2+z
_cell_length_a                   12.637(5)
_cell_length_b                   10.829(4)
_cell_length_c                   35.798(12)
_cell_angle_alpha                90
_cell_angle_beta                 108.688(12)
_cell_angle_gamma                90
_cell_volume                     4640.54
_exptl_crystal_colour            'light yellow'
_exptl_crystal_description       block
_cell_formula_units_Z            8
loop_
_atom_site_label
_atom_site_type_symbol
_atom_site_fract_x
_atom_site_fract_y
_atom_site_fract_z
S1 S 0.80628(16) -0.6779(2) -0.42961(6)
S2 S 0.98286(19) -0.6149(2) -0.47255(6)
S3 S 1.04962(19) -0.7245(3) -0.54397(6)
N1 N 0.3433(4) -0.9587(6) -0.31230(16)
C1 C 0.3811(5) -1.0298(5) -0.27539(16)
C2 C 0.3227(5) -1.0177(6) -0.24871(18)
H1 H 0.2611 -0.9656 -0.2543
C3 C 0.3567(7) -1.0836(7) -0.2137(2)
H2 H 0.3191 -1.0740 -0.1954
C4 C 0.4450(8) -1.1625(8) -0.2061(2)
H3 H 0.4650 -1.2098 -0.1832
C5 C 0.5054(6) -1.1727(6) -0.2322(2)
H4 H 0.5676 -1.2238 -0.2266
C6 C 0.4705(5) -1.1045(5) -0.26703(17)
H5 H 0.5099 -1.1109 -0.2849
C7 C 0.2248(5) -0.9540(6) -0.33261(16)
C8 C 0.1554(5) -1.0496(5) -0.33861(18)
H6 H 0.1819 -1.1256 -0.3274
C9 C 0.0426(5) -1.0377(7) -0.3616(2)
H7 H -0.0057 -1.1045 -0.3649
C10 C 0.0044(6) -0.9271(8) -0.3791(2)
H8 H -0.0697 -0.9196 -0.3950
C11 C 0.0738(5) -0.8278(6) -0.3735(2)
H9 H 0.0461 -0.7522 -0.3848
C12 C 0.1849(5) -0.8384(5) -0.35125(17)
H10 H 0.2331 -0.7716 -0.3484
C13 C 0.4206(4) -0.9236(5) -0.33137(15)
C14 C 0.3923(4) -0.9396(5) -0.37209(16)
H11 H 0.3233 -0.9733 -0.3861
C15 C 0.4658(4) -0.9060(5) -0.39165(15)
H12 H 0.4445 -0.9163 -0.4189
C16 C 0.5702(5) -0.8576(6) -0.37212(18)
C17 C 0.5977(5) -0.8404(5) -0.33096(17)
H13 H 0.6670 -0.8079 -0.3167
C18 C 0.5223(4) -0.8717(5) -0.31144(15)
H14 H 0.5411 -0.8574 -0.2845
C19 C 0.6493(4) -0.8203(5) -0.39236(16)
H15 H 0.7081 -0.7694 -0.3786
C20 C 0.6443(5) -0.8538(5) -0.42959(18)
H16 H 0.5890 -0.9081 -0.4438
C21 C 0.7256(4) -0.8050(5) -0.44761(16)
C22 C 0.7465(5) -0.8565(5) -0.48069(17)
H17 H 0.7082 -0.9243 -0.4945
C23 C 0.8325(5) -0.7934(5) -0.49071(17)
C24 C 0.8718(5) -0.6945(6) -0.46436(19)
C25 C 0.8927(6) -0.8034(6) -0.51693(16)
C26 C 0.9710(6) -0.7160(6) -0.51156(19)
C27 C 0.8917(6) -0.8816(6) -0.55176(19)
H18 H 0.8416 -0.9456 -0.5620
C28 C 0.9700(8) -0.8478(9) -0.5656(3)
H19 H 0.9823 -0.8893 -0.5866
S4 S 0.49487(16) -1.5720(2) -0.08292(6)
S5 S 0.31643(18) -1.6417(2) -0.04155(6)
S6 S 0.23259(18) -1.5265(3) 0.02529(6)
N2 N 0.9610(5) -1.2593(7) -0.19795(17)
C29 C 0.9091(6) -1.2113(7) -0.23463(19)
C30 C 0.9631(7) -1.1183(6) -0.2499(2)
H20 H 1.0341 -1.0912 -0.2353
C31 C 0.9084(11) -1.0672(8) -0.2873(3)
H21 H 0.9440 -1.0062 -0.2972
C32 C 0.8020(10) -1.1063(11) -0.3098(3)
H22 H 0.7675 -1.0733 -0.3348
C33 C 0.7505(7) -1.1913(11) -0.2952(2)
H23 H 0.6781 -1.2147 -0.3096
C34 C 0.8030(6) -1.2464(8) -0.2586(2)
H24 H 0.7657 -1.3086 -0.2499
C35 C 1.0720(6) -1.3048(7) -0.1842(2)
C36 C 1.1356(6) -1.3018(6) -0.14594(18)
H25 H 1.1042 -1.2730 -0.1274
C37 C 1.2462(7) -1.3400(8) -0.1333(2)
H26 H 1.2861 -1.3414 -0.1065
C38 C 1.2964(6) -1.3755(6) -0.1598(2)
H27 H 1.3713 -1.3985 -0.1515
C39 C 1.2361(6) -1.3766(8) -0.1983(2)
H28 H 1.2696 -1.4028 -0.2165
C40 C 1.1269(6) -1.3404(7) -0.21117(19)
H29 H 1.0882 -1.3391 -0.2381
C41 C 0.8883(5) -1.3049(6) -0.17561(18)
C42 C 0.8202(5) -1.2248(5) -0.16459(16)
H30 H 0.8197 -1.1415 -0.1710
C43 C 0.7520(5) -1.2679(6) -0.14386(17)
H31 H 0.7072 -1.2122 -0.1360
C44 C 0.7486(5) -1.3916(7) -0.13453(19)
C45 C 0.8169(5) -1.4722(5) -0.14665(17)
H32 H 0.8151 -1.5561 -0.1414
C46 C 0.8882(5) -1.4294(6) -0.16657(18)
H33 H 0.9352 -1.4840 -0.1737
C47 C 0.6766(5) -1.4402(6) -0.11237(18)
H34 H 0.6558 -1.5226 -0.1169
C48 C 0.6389(5) -1.3831(7) -0.08753(19)
H35 H 0.6619 -1.3015 -0.0823
C49 C 0.5659(5) -1.4293(6) -0.06687(18)
C50 C 0.5344(5) -1.3770(7) -0.03780(19)
H36 H 0.5629 -1.3027 -0.0257
C51 C 0.4522(5) -1.4488(6) -0.02767(18)
C52 C 0.4208(6) -1.5532(6) -0.0498(2)
C53 C 0.3880(5) -1.4381(6) 0.00112(18)
C54 C 0.3114(6) -1.5370(6) -0.0054(2)
C55 C 0.3797(6) -1.3542(7) 0.0281(2)
H37 H 0.4222 -1.2825 0.0344
C56 C 0.2983(7) -1.3893(8) 0.0454(2)
H38 H 0.2819 -1.3448 0.0651
S7 S 0.47217(15) -1.0757(2) -0.08803(5)
S8 S 0.29084(16) -1.1422(2) -0.04767(5)
S9 S 0.20657(16) -1.0284(2) 0.01905(5)
N3 N 0.9332(4) -0.7862(7) -0.20642(16)
C57 C 1.04832(16) -0.80403(18) -0.18352(5)
C58 C 1.12190(18) -0.6998(2) -0.17969(6)
H39 H 1.0953 -0.6249 -0.1918
C59 C 1.2339(2) -0.7141(3) -0.15740(7)
H40 H 1.2821 -0.6470 -0.1539
C60 C 1.2740(2) -0.8250(3) -0.14060(7)
H41 H 1.3492 -0.8340 -0.1262
C61 C 1.2013(2) -0.9241(3) -0.14514(7)
H42 H 1.2278 -0.9994 -0.1333
C62 C 1.08991(18) -0.9117(2) -0.16716(6)
H43 H 1.0429 -0.9798 -0.1707
C63 C 0.89688(17) -0.7236(2) -0.24109(6)
C64 C 0.80301(18) -0.6434(2) -0.25096(6)
H44 H 0.7633 -0.6339 -0.2333
C65 C 0.7689(2) -0.5782(3) -0.28654(8)
H45 H 0.7067 -0.5270 -0.2922
C66 C 0.8256(2) -0.5888(3) -0.31317(8)
H46 H 0.8011 -0.5475 -0.3372
C67 C 0.9187(2) -0.6612(3) -0.30377(7)
H47 H 0.9597 -0.6647 -0.3212
C68 C 0.9555(2) -0.7314(2) -0.26857(6)
H48 H 1.0178 -0.7822 -0.2636
C69 C 0.85452(14) -0.82142(14) -0.18624(4)
C70 C 0.88391(13) -0.80681(14) -0.14554(4)
H49 H 0.9537 -0.7748 -0.1316
C71 C 0.81003(12) -0.83949(13) -0.12547(4)
H50 H 0.8301 -0.8268 -0.0984
C72 C 0.7053(5) -0.8916(6) -0.14579(18)
C73 C 0.6778(4) -0.9070(5) -0.18625(16)
H51 H 0.6080 -0.9385 -0.2004
C74 C 0.75322(14) -0.87600(18) -0.20611(5)
H52 H 0.7350 -0.8923 -0.2329
C75 C 0.62564(13) -0.92577(16) -0.12501(5)
H53 H 0.5650 -0.9731 -0.1395
C76 C 0.62828(14) -0.89880(16) -0.08892(5)
H54 H 0.6859 -0.8472 -0.0747
C77 C 0.55167(16) -0.94023(19) -0.06872(6)
C78 C 0.52655(18) -0.8923(2) -0.03833(6)
H55 H 0.5611 -0.8229 -0.0244
C79 C 0.4395(2) -0.9607(2) -0.02955(7)
C80 C 0.4005(2) -1.0586(2) -0.05411(7)
C81 C 0.3732(2) -0.9469(3) -0.00134(8)
C82 C 0.2907(2) -1.0412(3) -0.00992(9)
C83 C 0.3651(3) -0.8650(3) 0.02602(9)
H56 H 0.4115 -0.7967 0.0340
C84 C 0.2778(7) -0.8949(7) 0.0412(2)
H57 H 0.2605 -0.8494 0.0605
S10 S 0.77835(15) -1.1761(2) -0.43863(5)
S11 S 0.96300(17) -1.1041(2) -0.47704(6)
S12 S 1.06487(16) -1.2255(2) -0.53885(6)
N4 N 0.3186(5) -1.4858(7) -0.32373(16)
C85 C 0.3705(5) -1.5405(7) -0.28468(18)
C86 C 0.4742(6) -1.4992(8) -0.26318(19)
H58 H 0.5096 -1.4383 -0.2732
C87 C 0.5269(8) -1.5507(11) -0.2254(3)
H59 H 0.5968 -1.5230 -0.2099
C88 C 0.4724(12) -1.6432(12) -0.2120(3)
H60 H 0.5075 -1.6813 -0.1880
C89 C 0.3696(9) -1.6776(8) -0.2336(2)
H61 H 0.3332 -1.7374 -0.2236
C90 C 0.3145(7) -1.6271(6) -0.2708(2)
H62 H 0.2426 -1.6517 -0.2854
C91 C 0.2038(6) -1.4537(6) -0.33514(17)
C92 C 0.1433(6) -1.4479(7) -0.37626(18)
H63 H 0.1787 -1.4684 -0.3945
C93 C 0.0303(7) -1.4113(7) -0.3894(2)
H64 H -0.0089 -1.4114 -0.4162
C94 C -0.0227(6) -1.3757(7) -0.3631(2)
H65 H -0.0976 -1.3530 -0.3717
C95 C 0.0383(6) -1.3746(8) -0.3242(2)
H66 H 0.0043 -1.3490 -0.3060
C96 C 0.1489(6) -1.4103(7) -0.31079(19)
H67 H 0.1876 -1.4044 -0.2840
C97 C 0.3883(5) -1.4412(7) -0.34510(18)
C98 C 0.3926(5) -1.3190(6) -0.35322(18)
H68 H 0.3483 -1.2632 -0.3452
C99 C 0.4632(5) -1.2767(5) -0.37363(18)
H69 H 0.4668 -1.1927 -0.3785
C100 C 0.5287(6) -1.3600(7) -0.38686(19)
C101 C 0.5232(5) -1.4839(5) -0.37851(17)
H70 H 0.5665 -1.5405 -0.3867
C102 C 0.4533(5) -1.5251(6) -0.35786(17)
H71 H 0.4499 -1.6088 -0.3526
C103 C 0.6022(5) -1.3099(5) -0.40806(18)
H72 H 0.6285 -1.2298 -0.4018
C104 C 0.6346(5) -1.3699(6) -0.43577(18)
H73 H 0.6057 -1.4480 -0.4438
C105 C 0.7140(5) -1.3157(5) -0.45353(17)
C106 C 0.7499(4) -1.3698(5) -0.48282(16)
H74 H 0.7223 -1.4448 -0.4946
C107 C 0.8321(5) -1.3004(5) -0.49296(17)
C108 C 0.8549(5) -1.1918(6) -0.47026(19)
C109 C 0.9027(5) -1.3106(6) -0.51568(15)
C110 C 0.9730(5) -1.2143(6) -0.51123(17)
C111 C 0.9204(5) -1.3980(6) -0.54601(18)
H75 H 0.8786 -1.4691 -0.5548
C112 C 1.0010(7) -1.3612(8) -0.5581(2)
H76 H 1.0233 -1.4063 -0.5765
loop_
_geom_bond_atom_site_label_1
_geom_bond_atom_site_label_2
_geom_bond_site_symmetry_1
_geom_bond_site_symmetry_2
S1 C21 1_555 1_555
S2 C24 1_555 1_555
S3 C26 1_555 1_555
N1 C1 1_555 1_555
C1 C2 1_555 1_555
C2 H1 1_555 1_555
C3 C2 1_555 1_555
H2 C3 1_555 1_555
C4 C3 1_555 1_555
H3 C4 1_555 1_555
C5 C4 1_555 1_555
H4 C5 1_555 1_555
C6 C1 1_555 1_555
H5 C6 1_555 1_555
C7 N1 1_555 1_555
C8 C7 1_555 1_555
H6 C8 1_555 1_555
C9 C8 1_555 1_555
H7 C9 1_555 1_555
C10 C9 1_555 1_555
H8 C10 1_555 1_555
C11 C10 1_555 1_555
H9 C11 1_555 1_555
C12 C7 1_555 1_555
H10 C12 1_555 1_555
C13 N1 1_555 1_555
C14 C13 1_555 1_555
H11 C14 1_555 1_555
C15 C14 1_555 1_555
H12 C15 1_555 1_555
C16 C15 1_555 1_555
C17 C16 1_555 1_555
H13 C17 1_555 1_555
C18 C13 1_555 1_555
H14 C18 1_555 1_555
C19 C16 1_555 1_555
H15 C19 1_555 1_555
C20 C19 1_555 1_555
H16 C20 1_555 1_555
C21 C20 1_555 1_555
C22 C21 1_555 1_555
H17 C22 1_555 1_555
C23 C22 1_555 1_555
C24 S1 1_555 1_555
C25 C23 1_555 1_555
C26 S2 1_555 1_555
C27 C25 1_555 1_555
H18 C27 1_555 1_555
C28 S3 1_555 1_555
H19 C28 1_555 1_555
S4 C49 1_555 1_555
S5 C52 1_555 1_555
S6 C54 1_555 1_555
N2 C29 1_555 1_555
C29 C30 1_555 1_555
C30 H20 1_555 1_555
C31 C30 1_555 1_555
H21 C31 1_555 1_555
C32 C31 1_555 1_555
H22 C32 1_555 1_555
C33 C32 1_555 1_555
H23 C33 1_555 1_555
C34 C29 1_555 1_555
H24 C34 1_555 1_555
C35 N2 1_555 1_555
C36 C35 1_555 1_555
H25 C36 1_555 1_555
C37 C36 1_555 1_555
H26 C37 1_555 1_555
C38 C37 1_555 1_555
H27 C38 1_555 1_555
C39 C38 1_555 1_555
H28 C39 1_555 1_555
C40 C35 1_555 1_555
H29 C40 1_555 1_555
C41 N2 1_555 1_555
C42 C41 1_555 1_555
H30 C42 1_555 1_555
C43 C42 1_555 1_555
H31 C43 1_555 1_555
C44 C43 1_555 1_555
C45 C44 1_555 1_555
H32 C45 1_555 1_555
C46 C41 1_555 1_555
H33 C46 1_555 1_555
C47 C44 1_555 1_555
H34 C47 1_555 1_555
C48 C47 1_555 1_555
H35 C48 1_555 1_555
C49 C48 1_555 1_555
C50 C49 1_555 1_555
H36 C50 1_555 1_555
C51 C50 1_555 1_555
C52 S4 1_555 1_555
C53 C51 1_555 1_555
C54 S5 1_555 1_555
C55 C53 1_555 1_555
H37 C55 1_555 1_555
C56 S6 1_555 1_555
H38 C56 1_555 1_555
S7 C77 1_555 1_555
S8 C80 1_555 1_555
S9 C82 1_555 1_555
N3 C57 1_555 1_555
C57 C58 1_555 1_555
C58 H39 1_555 1_555
C59 C58 1_555 1_555
H40 C59 1_555 1_555
C60 C59 1_555 1_555
H41 C60 1_555 1_555
C61 C60 1_555 1_555
H42 C61 1_555 1_555
C62 C57 1_555 1_555
H43 C62 1_555 1_555
C63 N3 1_555 1_555
C64 C63 1_555 1_555
H44 C64 1_555 1_555
C65 C64 1_555 1_555
H45 C65 1_555 1_555
C66 C65 1_555 1_555
H46 C66 1_555 1_555
C67 C66 1_555 1_555
H47 C67 1_555 1_555
C68 C63 1_555 1_555
H48 C68 1_555 1_555
C69 N3 1_555 1_555
C70 C69 1_555 1_555
H49 C70 1_555 1_555
C71 C70 1_555 1_555
H50 C71 1_555 1_555
C72 C71 1_555 1_555
C73 C72 1_555 1_555
H51 C73 1_555 1_555
C74 C69 1_555 1_555
H52 C74 1_555 1_555
C75 C72 1_555 1_555
H53 C75 1_555 1_555
C76 C75 1_555 1_555
H54 C76 1_555 1_555
C77 C76 1_555 1_555
C78 C77 1_555 1_555
H55 C78 1_555 1_555
C79 C78 1_555 1_555
C80 S7 1_555 1_555
C81 C79 1_555 1_555
C82 S8 1_555 1_555
C83 C81 1_555 1_555
H56 C83 1_555 1_555
C84 S9 1_555 1_555
H57 C84 1_555 1_555
S10 C105 1_555 1_555
S11 C108 1_555 1_555
S12 C110 1_555 1_555
N4 C85 1_555 1_555
C85 C86 1_555 1_555
C86 H58 1_555 1_555
C87 C86 1_555 1_555
H59 C87 1_555 1_555
C88 C87 1_555 1_555
H60 C88 1_555 1_555
C89 C88 1_555 1_555
H61 C89 1_555 1_555
C90 C85 1_555 1_555
H62 C90 1_555 1_555
C91 N4 1_555 1_555
C92 C91 1_555 1_555
H63 C92 1_555 1_555
C93 C92 1_555 1_555
H64 C93 1_555 1_555
C94 C93 1_555 1_555
H65 C94 1_555 1_555
C95 C94 1_555 1_555
H66 C95 1_555 1_555
C96 C91 1_555 1_555
H67 C96 1_555 1_555
C97 N4 1_555 1_555
C98 C97 1_555 1_555
H68 C98 1_555 1_555
C99 C98 1_555 1_555
H69 C99 1_555 1_555
C100 C99 1_555 1_555
C101 C100 1_555 1_555
H70 C101 1_555 1_555
C102 C97 1_555 1_555
H71 C102 1_555 1_555
C103 C100 1_555 1_555
H72 C103 1_555 1_555
C104 C103 1_555 1_555
H73 C104 1_555 1_555
C105 C104 1_555 1_555
C106 C105 1_555 1_555
H74 C106 1_555 1_555
C107 C106 1_555 1_555
C108 S10 1_555 1_555
C109 C107 1_555 1_555
C110 S11 1_555 1_555
C111 C109 1_555 1_555
H75 C111 1_555 1_555
C112 S12 1_555 1_555
H76 C112 1_555 1_555
C5 C6 1_555 1_555
C11 C12 1_555 1_555
C17 C18 1_555 1_555
C23 C24 1_555 1_555
C25 C26 1_555 1_555
C27 C28 1_555 1_555
C33 C34 1_555 1_555
C39 C40 1_555 1_555
C45 C46 1_555 1_555
C51 C52 1_555 1_555
C53 C54 1_555 1_555
C55 C56 1_555 1_555
C61 C62 1_555 1_555
C67 C68 1_555 1_555
C73 C74 1_555 1_555
C79 C80 1_555 1_555
C81 C82 1_555 1_555
C83 C84 1_555 1_555
C89 C90 1_555 1_555
C95 C96 1_555 1_555
C101 C102 1_555 1_555
C107 C108 1_555 1_555
C109 C110 1_555 1_555
C111 C112 1_555 1_555

#END
