
#######################################################################
#
#                 Cambridge Crystallographic Data Centre
#                                CCDC 
#
#######################################################################
#
# If this CIF has been generated from an entry in the Cambridge 
# Structural Database, then it will include bibliographic, chemical, 
# crystal, experimental, refinement or atomic coordinate data resulting 
# from the CCDC's data processing and validation procedures.
#
#######################################################################

data_GOFWEF
_chemical_formula_moiety         'C38 H19 N1 S6'
_chemical_name_systematic        
N-(Naphtho[2,1-b]thieno[3',2':4,5]thieno[3,2-d]thiophen-2-yl)-N-phenylnaphtho[2,1-b]thieno[3',2':4,5]thieno[3,2-d]thiophen-2-amine
_symmetry_cell_setting           orthorhombic
_symmetry_space_group_name_H-M   'P n a 21'
_symmetry_Int_Tables_number      33
_space_group_name_Hall           'P 2c -2n'
loop_
_symmetry_equiv_pos_site_id
_symmetry_equiv_pos_as_xyz
1 x,y,z
2 -x,-y,1/2+z
3 1/2+x,1/2-y,z
4 1/2-x,1/2+y,1/2+z
_cell_length_a                   17.1487(8)
_cell_length_b                   22.2201(11)
_cell_length_c                   15.8182(8)
_cell_angle_alpha                90
_cell_angle_beta                 90
_cell_angle_gamma                90
_cell_volume                     6027.46
_exptl_crystal_colour            yellow
_cell_formula_units_Z            8
loop_
_atom_site_label
_atom_site_type_symbol
_atom_site_fract_x
_atom_site_fract_y
_atom_site_fract_z
S1 S 0.75052(7) 0.62143(6) 1.27493(7)
S2 S 0.75367(8) 0.74045(5) 1.17394(9)
S3 S 0.69191(10) 0.79129(5) 1.00312(9)
S4 S 0.48155(8) 0.75759(5) 0.59220(8)
S5 S 0.58333(8) 0.68316(5) 0.46823(8)
S6 S 0.66784(7) 0.55976(6) 0.46177(8)
C1 C 0.6421(3) 0.74054(18) 0.9412(3)
H1 H 0.6203 0.7503 0.8892
C2 C 0.6378(3) 0.68503(17) 0.9758(3)
H2 H 0.6126 0.6528 0.9502
C3 C 0.6765(2) 0.68112(17) 1.0563(3)
C4 C 0.7081(3) 0.73671(19) 1.0772(3)
C5 C 0.6914(2) 0.63812(17) 1.1236(2)
C6 C 0.7303(2) 0.66621(18) 1.1897(3)
C7 C 0.6802(2) 0.57444(17) 1.1431(2)
C8 C 0.7100(2) 0.56076(18) 1.2227(2)
C9 C 0.7083(2) 0.50248(19) 1.2563(2)
H3 H 0.7273 0.4954 1.3105
C10 C 0.6789(2) 0.4564(2) 1.2099(3)
H4 H 0.6789 0.4176 1.2319
C11 C 0.6485(2) 0.46695(17) 1.1287(2)
C12 C 0.6472(2) 0.52655(15) 1.0944(2)
C13 C 0.6155(2) 0.53413(16) 1.0133(2)
H5 H 0.6146 0.5725 0.9899
C14 C 0.5858(2) 0.48685(15) 0.9668(2)
C15 C 0.5893(2) 0.42903(15) 1.0010(2)
H6 H 0.5703 0.3966 0.9700
C16 C 0.6200(2) 0.41962(17) 1.0790(3)
H7 H 0.6221 0.3806 1.1001
C17 C 0.5672(2) 0.45696(14) 0.8197(2)
C18 C 0.6419(2) 0.43440(16) 0.8081(2)
H8 H 0.6817 0.4454 0.8450
C19 C 0.6574(3) 0.39557(18) 0.7418(3)
H9 H 0.7073 0.3800 0.7353
C20 C 0.6003(3) 0.37981(18) 0.6858(3)
H10 H 0.6113 0.3538 0.6412
C21 C 0.5258(3) 0.40301(19) 0.6961(3)
H11 H 0.4867 0.3929 0.6580
C22 C 0.5096(2) 0.44090(17) 0.7627(3)
H12 H 0.4593 0.4559 0.7694
C23 C 0.5139(2) 0.55271(15) 0.8705(2)
C24 C 0.4616(2) 0.57688(17) 0.9302(2)
H13 H 0.4519 0.5565 0.9805
C25 C 0.4254(2) 0.62991(17) 0.9141(2)
H14 H 0.3912 0.6455 0.9541
C26 C 0.4381(2) 0.66194(16) 0.8390(3)
C27 C 0.4898(2) 0.63773(15) 0.7772(2)
C28 C 0.5283(2) 0.58260(14) 0.7970(2)
H15 H 0.5640 0.5667 0.7588
C29 C 0.4013(2) 0.71812(17) 0.8229(3)
H16 H 0.3677 0.7341 0.8633
C30 C 0.4139(3) 0.74872(19) 0.7509(3)
H17 H 0.3897 0.7856 0.7417
C31 C 0.4640(3) 0.72430(17) 0.6899(3)
C32 C 0.5023(2) 0.66862(15) 0.6998(2)
C33 C 0.5448(2) 0.65202(17) 0.6242(2)
C34 C 0.5383(2) 0.69718(18) 0.5635(2)
C35 C 0.6133(2) 0.61526(17) 0.5082(3)
C36 C 0.5897(2) 0.60298(17) 0.5897(2)
C37 C 0.6177(2) 0.54396(18) 0.6130(2)
H18 H 0.6074 0.5262 0.6651
C38 C 0.6603(3) 0.51695(19) 0.5522(3)
H19 H 0.6831 0.4792 0.5584
N1 N 0.55078(18) 0.49695(13) 0.88741(18)
S7 S 0.28416(7) 0.31035(6) 1.23364(8)
S8 S 0.28217(8) 0.21234(6) 1.09437(10)
S9 S 0.21071(8) 0.19096(5) 0.91659(9)
S10 S 0.18585(7) 0.50260(5) 0.47294(8)
S11 S 0.13596(8) 0.36833(6) 0.45052(7)
S12 S 0.04286(9) 0.27190(5) 0.54841(9)
C39 C 0.1533(3) 0.24806(18) 0.8803(3)
H20 H 0.1261 0.2463 0.8295
C40 C 0.1514(2) 0.29600(18) 0.9326(3)
H21 H 0.1233 0.3308 0.9210
C41 C 0.1965(2) 0.28822(17) 1.0072(3)
C42 C 0.2312(3) 0.23138(18) 1.0045(3)
C43 C 0.2151(2) 0.31903(18) 1.0858(3)
C44 C 0.2598(3) 0.28152(19) 1.1368(3)
C45 C 0.2341(2) 0.3763(2) 1.2093(3)
C46 C 0.2007(2) 0.37548(19) 1.1293(2)
C47 C 0.1608(2) 0.42902(18) 1.1016(2)
C48 C 0.1570(2) 0.4793(2) 1.1570(3)
C49 C 0.1910(3) 0.4757(3) 1.2387(3)
H22 H 0.1866 0.5083 1.2753
C50 C 0.2298(3) 0.4255(3) 1.2646(3)
H23 H 0.2530 0.4240 1.3177
C51 C 0.1200(3) 0.5328(2) 1.1300(3)
H24 H 0.1168 0.5653 1.1669
C52 C 0.0886(2) 0.53757(19) 1.0507(3)
H25 H 0.0644 0.5730 1.0338
C53 C 0.0934(2) 0.48824(18) 0.9948(2)
C54 C 0.1303(2) 0.43693(18) 1.0202(2)
H26 H 0.1354 0.4057 0.9815
C55 C 0.0710(3) 0.54420(18) 0.8622(2)
C56 C 0.1392(3) 0.5780(2) 0.8651(3)
H27 H 0.1790 0.5673 0.9021
C57 C 0.1478(3) 0.6277(2) 0.8129(4)
H28 H 0.1937 0.6500 0.8144
C58 C 0.0897(4) 0.6438(2) 0.7599(3)
H29 H 0.0955 0.6779 0.7263
C59 C 0.0223(3) 0.6107(2) 0.7550(3)
H30 H -0.0167 0.6216 0.7171
C60 C 0.0126(3) 0.56110(18) 0.8069(3)
H31 H -0.0334 0.5390 0.8045
C61 C 0.0295(2) 0.43902(17) 0.8762(3)
C62 C 0.0482(2) 0.42218(15) 0.7954(2)
H32 H 0.0823 0.4461 0.7646
C63 C 0.0174(2) 0.36970(17) 0.7571(2)
C64 C -0.0332(2) 0.33319(18) 0.8056(3)
C65 C -0.0523(2) 0.3521(2) 0.8887(3)
H33 H -0.0862 0.3289 0.9208
C66 C -0.0223(2) 0.4033(2) 0.9225(3)
H34 H -0.0364 0.4147 0.9770
C67 C -0.0610(3) 0.2773(2) 0.7740(3)
H35 H -0.0954 0.2545 0.8063
C68 C -0.0383(3) 0.2571(2) 0.6980(3)
H36 H -0.0553 0.2199 0.6783
C69 C 0.0114(3) 0.29303(19) 0.6486(3)
C70 C 0.0380(2) 0.35018(16) 0.6738(3)
C71 C 0.0812(2) 0.37843(17) 0.6062(2)
C72 C 0.0884(3) 0.33983(17) 0.5380(3)
C73 C 0.1147(2) 0.43678(17) 0.5848(2)
C74 C 0.1473(2) 0.43583(17) 0.5032(3)
C75 C 0.1231(2) 0.49513(17) 0.6200(2)
H37 H 0.1049 0.5057 0.6734
C76 C 0.1603(2) 0.53376(19) 0.5678(3)
H38 H 0.1709 0.5735 0.5821
N2 N 0.06084(19) 0.49257(14) 0.9128(2)
loop_
_geom_bond_atom_site_label_1
_geom_bond_atom_site_label_2
_geom_bond_site_symmetry_1
_geom_bond_site_symmetry_2
S1 C6 1_555 1_555
S2 C4 1_555 1_555
S3 C1 1_555 1_555
S4 C31 1_555 1_555
S5 C34 1_555 1_555
S6 C35 1_555 1_555
C1 H1 1_555 1_555
C2 C1 1_555 1_555
H2 C2 1_555 1_555
C3 C2 1_555 1_555
C4 S3 1_555 1_555
C5 C3 1_555 1_555
C6 S2 1_555 1_555
C7 C5 1_555 1_555
C8 S1 1_555 1_555
C9 C8 1_555 1_555
H3 C9 1_555 1_555
C10 C9 1_555 1_555
H4 C10 1_555 1_555
C11 C10 1_555 1_555
C12 C7 1_555 1_555
C13 C12 1_555 1_555
H5 C13 1_555 1_555
C14 C13 1_555 1_555
C15 C14 1_555 1_555
H6 C15 1_555 1_555
C16 C11 1_555 1_555
H7 C16 1_555 1_555
C17 C18 1_555 1_555
C18 H8 1_555 1_555
C19 C18 1_555 1_555
H9 C19 1_555 1_555
C20 C19 1_555 1_555
H10 C20 1_555 1_555
C21 C20 1_555 1_555
H11 C21 1_555 1_555
C22 C17 1_555 1_555
H12 C22 1_555 1_555
C23 C24 1_555 1_555
C24 H13 1_555 1_555
C25 C24 1_555 1_555
H14 C25 1_555 1_555
C26 C25 1_555 1_555
C27 C26 1_555 1_555
C28 C23 1_555 1_555
H15 C28 1_555 1_555
C29 C26 1_555 1_555
H16 C29 1_555 1_555
C30 C29 1_555 1_555
H17 C30 1_555 1_555
C31 C30 1_555 1_555
C32 C27 1_555 1_555
C33 C32 1_555 1_555
C34 S4 1_555 1_555
C35 S5 1_555 1_555
C36 C33 1_555 1_555
C37 C36 1_555 1_555
H18 C37 1_555 1_555
C38 S6 1_555 1_555
H19 C38 1_555 1_555
N1 C14 1_555 1_555
S7 C44 1_555 1_555
S8 C42 1_555 1_555
S9 C39 1_555 1_555
S10 C74 1_555 1_555
S11 C72 1_555 1_555
S12 C69 1_555 1_555
C39 H20 1_555 1_555
C40 C39 1_555 1_555
H21 C40 1_555 1_555
C41 C40 1_555 1_555
C42 S9 1_555 1_555
C43 C41 1_555 1_555
C44 S8 1_555 1_555
C45 S7 1_555 1_555
C46 C43 1_555 1_555
C47 C46 1_555 1_555
C48 C47 1_555 1_555
C49 C48 1_555 1_555
H22 C49 1_555 1_555
C50 C45 1_555 1_555
H23 C50 1_555 1_555
C51 C48 1_555 1_555
H24 C51 1_555 1_555
C52 C51 1_555 1_555
H25 C52 1_555 1_555
C53 C52 1_555 1_555
C54 C47 1_555 1_555
H26 C54 1_555 1_555
C55 C56 1_555 1_555
C56 H27 1_555 1_555
C57 C56 1_555 1_555
H28 C57 1_555 1_555
C58 C57 1_555 1_555
H29 C58 1_555 1_555
C59 C58 1_555 1_555
H30 C59 1_555 1_555
C60 C55 1_555 1_555
H31 C60 1_555 1_555
C61 C62 1_555 1_555
C62 H32 1_555 1_555
C63 C62 1_555 1_555
C64 C63 1_555 1_555
C65 C64 1_555 1_555
H33 C65 1_555 1_555
C66 C61 1_555 1_555
H34 C66 1_555 1_555
C67 C64 1_555 1_555
H35 C67 1_555 1_555
C68 C67 1_555 1_555
H36 C68 1_555 1_555
C69 C68 1_555 1_555
C70 C63 1_555 1_555
C71 C70 1_555 1_555
C72 S12 1_555 1_555
C73 C71 1_555 1_555
C74 S11 1_555 1_555
C75 C73 1_555 1_555
H37 C75 1_555 1_555
C76 S10 1_555 1_555
H38 C76 1_555 1_555
N2 C53 1_555 1_555
C3 C4 1_555 1_555
C5 C6 1_555 1_555
C7 C8 1_555 1_555
C11 C12 1_555 1_555
C15 C16 1_555 1_555
C17 N1 1_555 1_555
C21 C22 1_555 1_555
C23 N1 1_555 1_555
C27 C28 1_555 1_555
C31 C32 1_555 1_555
C33 C34 1_555 1_555
C35 C36 1_555 1_555
C37 C38 1_555 1_555
C41 C42 1_555 1_555
C43 C44 1_555 1_555
C45 C46 1_555 1_555
C49 C50 1_555 1_555
C53 C54 1_555 1_555
C55 N2 1_555 1_555
C59 C60 1_555 1_555
C61 N2 1_555 1_555
C65 C66 1_555 1_555
C69 C70 1_555 1_555
C71 C72 1_555 1_555
C73 C74 1_555 1_555
C75 C76 1_555 1_555

#END
