
#######################################################################
#
#                 Cambridge Crystallographic Data Centre
#                                CCDC 
#
#######################################################################
#
# If this CIF has been generated from an entry in the Cambridge 
# Structural Database, then it will include bibliographic, chemical, 
# crystal, experimental, refinement or atomic coordinate data resulting 
# from the CCDC's data processing and validation procedures.
#
#######################################################################

data_GOFXAB01
_chemical_formula_moiety         'C20 H18 O1'
_chemical_name_systematic        Methoxy-triphenylmethane
_symmetry_cell_setting           triclinic
_symmetry_space_group_name_H-M   'P -1'
_symmetry_Int_Tables_number      2
_space_group_name_Hall           '-P 1'
loop_
_symmetry_equiv_pos_site_id
_symmetry_equiv_pos_as_xyz
1 x,y,z
2 -x,-y,-z
_cell_length_a                   8.9588(12)
_cell_length_b                   12.3065(16)
_cell_length_c                   15.0594(19)
_cell_angle_alpha                71.524(2)
_cell_angle_beta                 87.360(2)
_cell_angle_gamma                76.712(2)
_cell_volume                     1531.94
_exptl_crystal_colour            colorless
_exptl_crystal_description       block
_chemical_melting_point          '355.5-356 K'
_cell_formula_units_Z            4
_exptl_crystal_recrystallization_method ethanol
loop_
_atom_site_label
_atom_site_type_symbol
_atom_site_fract_x
_atom_site_fract_y
_atom_site_fract_z
O1 O 0.33890(12) 0.14100(9) 0.04616(7)
C1 C 0.57334(15) 0.21460(11) 0.02841(9)
C2 C 0.34554(14) 0.31178(11) -0.08003(9)
C3 C 0.32521(15) 0.31843(12) 0.08695(9)
C4 C 0.39713(15) 0.24591(11) 0.02270(9)
C5 C 0.35792(18) 0.42669(13) -0.12213(10)
H1 H 0.3943 0.4656 -0.0869
C6 C 0.65585(17) 0.29968(14) 0.01941(12)
H2 H 0.6039 0.3773 0.0099
C7 C 0.40275(19) 0.32195(16) 0.16255(11)
H3 H 0.5057 0.2837 0.1737
C8 C 0.65510(19) 0.10118(14) 0.03890(12)
H4 H 0.6029 0.0429 0.0422
C9 C 0.31733(19) 0.48492(15) -0.21535(11)
H5 H 0.3285 0.5617 -0.2425
C10 C 0.17174(17) 0.37462(16) 0.07416(11)
H6 H 0.1162 0.3726 0.0243
C11 C 0.1786(2) 0.43876(17) 0.20744(13)
H7 H 0.1306 0.4804 0.2467
C12 C 0.2892(2) 0.25793(15) -0.13447(11)
H8 H 0.2796 0.1806 -0.1083
C13 C 0.26092(19) 0.43044(17) -0.26785(11)
H9 H 0.2324 0.4699 -0.3305
C14 C 0.0991(2) 0.43379(18) 0.13392(13)
H10 H -0.0045 0.4705 0.1241
C15 C 0.8136(2) 0.07333(17) 0.04456(14)
H11 H 0.8667 -0.0037 0.0528
C16 C 0.81413(19) 0.27087(17) 0.02440(13)
H12 H 0.8675 0.3293 0.0183
C17 C 0.89327(19) 0.15768(19) 0.03825(13)
H13 H 0.9999 0.1382 0.0433
C18 C 0.2469(2) 0.31753(19) -0.22751(12)
H14 H 0.2083 0.2800 -0.2630
C19 C 0.3295(2) 0.38163(19) 0.22229(13)
H15 H 0.3838 0.3828 0.2730
C20 C 0.3412(3) 0.07431(17) 0.14237(13)
H16 H 0.4394 0.0650 0.1704
H17 H 0.3236 -0.0017 0.1482
H18 H 0.2623 0.1145 0.1736
O2 O 0.40406(12) 0.95230(9) 0.41734(8)
C21 C 0.27783(16) 0.82220(12) 0.37240(9)
C22 C 0.36266(15) 0.84022(11) 0.45141(9)
C23 C 0.51631(15) 0.74959(12) 0.47867(9)
C24 C 0.35750(18) 0.76473(13) 0.31280(10)
H19 H 0.4625 0.7336 0.3228
C25 C 0.27119(15) 0.83215(12) 0.54128(9)
C26 C 0.12194(17) 0.87022(14) 0.35332(10)
H20 H 0.0656 0.9108 0.3911
C27 C 0.51920(18) 0.63413(13) 0.53120(11)
H21 H 0.4274 0.6117 0.5498
C28 C 0.15947(17) 0.76754(14) 0.56677(11)
H22 H 0.1342 0.7295 0.5272
C29 C 0.65500(18) 0.77919(15) 0.45155(12)
H23 H 0.6564 0.8559 0.4157
C30 C 0.31005(19) 0.88508(15) 0.60334(11)
H24 H 0.3864 0.9274 0.5883
C31 C 0.2840(2) 0.75279(15) 0.23896(11)
H25 H 0.3397 0.7134 0.2003
C32 C 0.0497(2) 0.85841(17) 0.27893(12)
H26 H -0.0546 0.8914 0.2670
C33 C 0.1300(2) 0.79856(16) 0.22237(12)
H27 H 0.0803 0.7893 0.1733
C34 C 0.2811(2) 1.05406(14) 0.39100(13)
H28 H 0.2279 1.0557 0.3365
H29 H 0.3213 1.1233 0.3772
H30 H 0.2113 1.0517 0.4416
C35 C 0.7928(2) 0.58314(19) 0.52994(13)
H31 H 0.8852 0.5280 0.5478
C36 C 0.79175(19) 0.6961(2) 0.47710(15)
H32 H 0.8840 0.7175 0.4580
C37 C 0.6563(2) 0.55182(16) 0.55639(12)
H33 H 0.6560 0.4746 0.5915
C38 C 0.2360(2) 0.87516(19) 0.68719(13)
H34 H 0.2628 0.9108 0.7282
C39 C 0.1226(2) 0.81287(19) 0.71033(12)
H35 H 0.0719 0.8075 0.7663
C40 C 0.0849(2) 0.75890(18) 0.65069(13)
H36 H 0.0089 0.7162 0.6665
loop_
_geom_bond_atom_site_label_1
_geom_bond_atom_site_label_2
_geom_bond_site_symmetry_1
_geom_bond_site_symmetry_2
O1 C4 1_555 1_555
C1 C4 1_555 1_555
C2 C4 1_555 1_555
C3 C4 1_555 1_555
C5 C2 1_555 1_555
H1 C5 1_555 1_555
C6 C1 1_555 1_555
H2 C6 1_555 1_555
C7 C3 1_555 1_555
H3 C7 1_555 1_555
C8 C1 1_555 1_555
H4 C8 1_555 1_555
C9 C5 1_555 1_555
H5 C9 1_555 1_555
C10 C3 1_555 1_555
H6 C10 1_555 1_555
C11 H7 1_555 1_555
C12 C2 1_555 1_555
H8 C12 1_555 1_555
C13 C9 1_555 1_555
H9 C13 1_555 1_555
C14 C10 1_555 1_555
H10 C14 1_555 1_555
C15 C8 1_555 1_555
H11 C15 1_555 1_555
C16 C6 1_555 1_555
H12 C16 1_555 1_555
C17 C15 1_555 1_555
H13 C17 1_555 1_555
C18 C12 1_555 1_555
H14 C18 1_555 1_555
C19 C7 1_555 1_555
H15 C19 1_555 1_555
C20 O1 1_555 1_555
H16 C20 1_555 1_555
H17 C20 1_555 1_555
H18 C20 1_555 1_555
O2 C22 1_555 1_555
C21 C22 1_555 1_555
C22 C23 1_555 1_555
C23 C27 1_555 1_555
C24 C21 1_555 1_555
H19 C24 1_555 1_555
C25 C22 1_555 1_555
C26 C21 1_555 1_555
H20 C26 1_555 1_555
C27 H21 1_555 1_555
C28 C25 1_555 1_555
H22 C28 1_555 1_555
C29 C23 1_555 1_555
H23 C29 1_555 1_555
C30 C25 1_555 1_555
H24 C30 1_555 1_555
C31 C24 1_555 1_555
H25 C31 1_555 1_555
C32 C26 1_555 1_555
H26 C32 1_555 1_555
C33 C31 1_555 1_555
H27 C33 1_555 1_555
C34 O2 1_555 1_555
H28 C34 1_555 1_555
H29 C34 1_555 1_555
H30 C34 1_555 1_555
C35 H31 1_555 1_555
C36 C29 1_555 1_555
H32 C36 1_555 1_555
C37 C27 1_555 1_555
H33 C37 1_555 1_555
C38 C30 1_555 1_555
H34 C38 1_555 1_555
C39 C38 1_555 1_555
H35 C39 1_555 1_555
C40 C28 1_555 1_555
H36 C40 1_555 1_555
C11 C14 1_555 1_555
C11 C19 1_555 1_555
C13 C18 1_555 1_555
C16 C17 1_555 1_555
C32 C33 1_555 1_555
C35 C36 1_555 1_555
C35 C37 1_555 1_555
C39 C40 1_555 1_555

#END
