
#######################################################################
#
#                 Cambridge Crystallographic Data Centre
#                                CCDC 
#
#######################################################################
#
# If this CIF has been generated from an entry in the Cambridge 
# Structural Database, then it will include bibliographic, chemical, 
# crystal, experimental, refinement or atomic coordinate data resulting 
# from the CCDC's data processing and validation procedures.
#
#######################################################################

data_GOFYUX
_chemical_formula_moiety         'C36 H30 N2 O4 S2'
_chemical_name_systematic        
3,18-bis((4-Methylphenyl)sulfonyl)-3,18-diazatetracyclo[18.3.1.0^4,9^.0^12,17^]tetracosa-1(24),4,6,8,12,14,16,20,22-nonaen-10-yne
_symmetry_cell_setting           monoclinic
_symmetry_space_group_name_H-M   'P 21/c'
_symmetry_Int_Tables_number      14
_space_group_name_Hall           '-P 2ybc'
loop_
_symmetry_equiv_pos_site_id
_symmetry_equiv_pos_as_xyz
1 x,y,z
2 -x,1/2+y,1/2-z
3 -x,-y,-z
4 x,1/2-y,1/2+z
_cell_length_a                   16.994(3)
_cell_length_b                   13.0810(8)
_cell_length_c                   16.3912(13)
_cell_angle_alpha                90
_cell_angle_beta                 118.026(10)
_cell_angle_gamma                90
_cell_volume                     3216.45
_exptl_crystal_colour            colorless
_exptl_crystal_description       lath
_chemical_melting_point          '524 K'
_cell_formula_units_Z            4
_exptl_crystal_recrystallization_method acetone
loop_
_atom_site_label
_atom_site_type_symbol
_atom_site_fract_x
_atom_site_fract_y
_atom_site_fract_z
S1 S 0.57094(6) 0.68888(6) 0.82564(5)
S2 S 0.07801(6) 0.71494(7) 0.55670(6)
O1 O 0.55752(16) 0.79618(16) 0.82028(15)
O2 O 0.57098(18) 0.63183(19) 0.90006(14)
O3 O 0.09576(17) 0.81899(19) 0.54699(18)
O4 O 0.07636(18) 0.6398(2) 0.49238(19)
N1 N 0.49224(16) 0.63850(17) 0.73150(15)
N2 N 0.15479(18) 0.6779(2) 0.6586(2)
C1 C 0.46839(19) 0.6895(2) 0.64491(19)
C2 C 0.5124(2) 0.6658(3) 0.5944(2)
H1 H 0.5577 0.6173 0.6165
C3 C 0.4891(2) 0.7143(3) 0.5113(2)
H2 H 0.5189 0.6982 0.4778
C4 C 0.4227(2) 0.7854(3) 0.4780(2)
H3 H 0.4080 0.8181 0.4223
C5 C 0.3775(2) 0.8090(2) 0.5264(2)
H4 H 0.3318 0.8570 0.5028
C6 C 0.39957(19) 0.7614(2) 0.6107(2)
C7 C 0.3506(2) 0.7847(2) 0.6599(2)
C8 C 0.3074(2) 0.7989(2) 0.6978(2)
C9 C 0.2609(2) 0.8114(3) 0.7506(2)
C10 C 0.2903(3) 0.8817(3) 0.8229(3)
H5 H 0.3391 0.9229 0.8349
C11 C 0.2492(4) 0.8912(4) 0.8760(3)
H6 H 0.2704 0.9380 0.9244
C12 C 0.1766(4) 0.8321(4) 0.8587(3)
H7 H 0.1485 0.8393 0.8953
C13 C 0.1445(3) 0.7616(4) 0.7872(3)
H8 H 0.0954 0.7213 0.7760
C14 C 0.1858(2) 0.7515(3) 0.7326(2)
C15 C 0.1565(2) 0.5692(3) 0.6836(3)
H9 H 0.1286 0.5281 0.6279
H10 H 0.1229 0.5601 0.7173
C16 C 0.2516(2) 0.5338(2) 0.7427(2)
C17 C 0.2777(3) 0.4886(3) 0.8283(2)
H11 H 0.2366 0.4809 0.8503
C18 C 0.3640(3) 0.4551(3) 0.8808(2)
H12 H 0.3808 0.4241 0.9377
C19 C 0.4249(2) 0.4675(2) 0.8493(2)
H13 H 0.4832 0.4455 0.8856
C20 C 0.4013(2) 0.5124(2) 0.7640(2)
C21 C 0.3136(2) 0.5433(2) 0.7108(2)
H14 H 0.2960 0.5710 0.6526
C22 C 0.4696(2) 0.5292(2) 0.7313(2)
H15 H 0.5233 0.4915 0.7710
H16 H 0.4468 0.5024 0.6691
C23 C 0.6732(2) 0.6657(2) 0.8270(2)
C24 C 0.7139(2) 0.7408(3) 0.8004(2)
H17 H 0.6868 0.8043 0.7809
C25 C 0.7948(3) 0.7215(4) 0.8030(3)
H18 H 0.8221 0.7732 0.7864
C26 C 0.8359(3) 0.6294(4) 0.8291(3)
C27 C 0.7963(3) 0.5553(4) 0.8579(3)
H19 H 0.8246 0.4926 0.8784
C28 C 0.7153(3) 0.5726(3) 0.8568(3)
H20 H 0.6894 0.5218 0.8760
C29 C 0.9233(3) 0.6068(5) 0.8287(4)
H21 H 0.9122 0.5647 0.7764
H22 H 0.9626 0.5715 0.8846
H23 H 0.9505 0.6697 0.8249
C30 C -0.0249(2) 0.7077(3) 0.5571(2)
C31 C -0.0626(3) 0.7927(3) 0.5730(3)
H24 H -0.0343 0.8558 0.5834
C32 C -0.1443(3) 0.7830(3) 0.5734(3)
H25 H -0.1697 0.8409 0.5843
C33 C -0.1876(2) 0.6934(3) 0.5585(2)
C34 C -0.1490(3) 0.6088(3) 0.5416(3)
H26 H -0.1780 0.5461 0.5304
C35 C -0.0680(2) 0.6153(3) 0.5409(3)
H27 H -0.0429 0.5574 0.5296
C36 C -0.2767(3) 0.6842(4) 0.5572(3)
H28 H -0.2705 0.6424 0.6081
H29 H -0.3189 0.6534 0.5002
H30 H -0.2973 0.7509 0.5626
loop_
_geom_bond_atom_site_label_1
_geom_bond_atom_site_label_2
_geom_bond_site_symmetry_1
_geom_bond_site_symmetry_2
S1 O1 1_555 1_555
S2 O3 1_555 1_555
O2 S1 1_555 1_555
O4 S2 1_555 1_555
N1 S1 1_555 1_555
N2 S2 1_555 1_555
C1 N1 1_555 1_555
C2 C1 1_555 1_555
H1 C2 1_555 1_555
C3 C2 1_555 1_555
H2 C3 1_555 1_555
C4 C3 1_555 1_555
H3 C4 1_555 1_555
C5 C4 1_555 1_555
H4 C5 1_555 1_555
C6 C1 1_555 1_555
C7 C6 1_555 1_555
C8 C7 1_555 1_555
C9 C8 1_555 1_555
C10 C9 1_555 1_555
H5 C10 1_555 1_555
C11 C10 1_555 1_555
H6 C11 1_555 1_555
C12 C11 1_555 1_555
H7 C12 1_555 1_555
C13 C12 1_555 1_555
H8 C13 1_555 1_555
C14 N2 1_555 1_555
C15 N2 1_555 1_555
H9 C15 1_555 1_555
H10 C15 1_555 1_555
C16 C15 1_555 1_555
C17 C16 1_555 1_555
H11 C17 1_555 1_555
C18 C17 1_555 1_555
H12 C18 1_555 1_555
C19 C18 1_555 1_555
H13 C19 1_555 1_555
C20 C19 1_555 1_555
C21 C16 1_555 1_555
H14 C21 1_555 1_555
C22 N1 1_555 1_555
H15 C22 1_555 1_555
H16 C22 1_555 1_555
C23 S1 1_555 1_555
C24 C23 1_555 1_555
H17 C24 1_555 1_555
C25 C24 1_555 1_555
H18 C25 1_555 1_555
C26 C25 1_555 1_555
C27 C26 1_555 1_555
H19 C27 1_555 1_555
C28 C23 1_555 1_555
H20 C28 1_555 1_555
C29 C26 1_555 1_555
H21 C29 1_555 1_555
H22 C29 1_555 1_555
H23 C29 1_555 1_555
C30 S2 1_555 1_555
C31 C30 1_555 1_555
H24 C31 1_555 1_555
C32 C31 1_555 1_555
H25 C32 1_555 1_555
C33 C32 1_555 1_555
C34 C33 1_555 1_555
H26 C34 1_555 1_555
C35 C30 1_555 1_555
H27 C35 1_555 1_555
C36 C33 1_555 1_555
H28 C36 1_555 1_555
H29 C36 1_555 1_555
H30 C36 1_555 1_555
C5 C6 1_555 1_555
C9 C14 1_555 1_555
C13 C14 1_555 1_555
C20 C21 1_555 1_555
C20 C22 1_555 1_555
C27 C28 1_555 1_555
C34 C35 1_555 1_555

#END
