
#######################################################################
#
#                 Cambridge Crystallographic Data Centre
#                                CCDC 
#
#######################################################################
#
# If this CIF has been generated from an entry in the Cambridge 
# Structural Database, then it will include bibliographic, chemical, 
# crystal, experimental, refinement or atomic coordinate data resulting 
# from the CCDC's data processing and validation procedures.
#
#######################################################################

data_GOGVEE
_chemical_formula_moiety         'C28 H32 N2 S4'
_chemical_name_systematic        
4,8-bis(2-Thienyl)-2,6-dihexyl-benzo(1,2-d;4,5-d')bisthiazole
_symmetry_cell_setting           monoclinic
_symmetry_space_group_name_H-M   'C 2/c'
_symmetry_Int_Tables_number      15
_space_group_name_Hall           '-C 2yn'
loop_
_symmetry_equiv_pos_site_id
_symmetry_equiv_pos_as_xyz
1 x,y,z
2 1/2+x,1/2+y,z
3 -x,y,1/2-z
4 1/2-x,1/2+y,1/2-z
5 -x,-y,-z
6 1/2-x,1/2-y,-z
7 x,-y,1/2+z
8 1/2+x,1/2-y,1/2+z
_cell_length_a                   27.379(6)
_cell_length_b                   10.566(2)
_cell_length_c                   9.916(2)
_cell_angle_alpha                90
_cell_angle_beta                 106.49(3)
_cell_angle_gamma                90
_cell_volume                     2750.58
_exptl_crystal_colour            'pale yellow'
_exptl_crystal_description       plate
_cell_formula_units_Z            4
_exptl_crystal_preparation       luminescent
loop_
_atom_site_label
_atom_site_type_symbol
_atom_site_fract_x
_atom_site_fract_y
_atom_site_fract_z
S1 S 0.10765(4) 0.67497(10) -0.26888(12)
C1 C 0.06498(16) 0.5618(5) -0.2569(5)
H1 H 0.0330 0.5534 -0.3211
C2 C 0.08221(17) 0.4863(4) -0.1458(5)
H2 H 0.0635 0.4189 -0.1259
C3 C 0.13186(13) 0.5183(3) -0.0606(4)
H3 H 0.1494 0.4755 0.0207
C4 C 0.15097(12) 0.6248(3) -0.1169(3)
C5 C 0.20035(11) 0.6871(2) -0.0570(3)
C6 C 0.22926(12) 0.6763(2) 0.0834(3)
S2 S 0.21497(3) 0.59034(7) 0.21808(9)
C7 C 0.27204(13) 0.6409(3) 0.3350(4)
N1 N 0.29988(10) 0.7155(2) 0.2823(3)
C8 C 0.22330(11) 0.7637(2) -0.1397(3)
C9 C 0.28792(16) 0.5950(3) 0.4848(4)
H4 H 0.2612 0.6155 0.5277
H5 H 0.2910 0.5036 0.4845
C10 C 0.33709(16) 0.6495(4) 0.5739(4)
H6 H 0.3335 0.7407 0.5778
H7 H 0.3636 0.6321 0.5292
C11 C 0.35352(19) 0.5986(4) 0.7216(5)
H8 H 0.3576 0.5076 0.7184
H9 H 0.3272 0.6158 0.7670
C12 C 0.4030(3) 0.6567(5) 0.8075(6)
H10 H 0.4283 0.6418 0.7578
H11 H 0.3980 0.7475 0.8089
C13 C 0.4252(3) 0.6146(7) 0.9553(7)
H12 H 0.4305 0.5238 0.9583
H13 H 0.4021 0.6347 1.0105
C14 C 0.4751(3) 0.6817(9) 1.0149(12)
H14 H 0.4900 0.6552 1.1104
H15 H 0.4695 0.7715 1.0123
H16 H 0.4978 0.6612 0.9599
S1E S 0.39235(4) 0.82503(10) 0.26888(12)
C1E C 0.43502(16) 0.9382(5) 0.2569(5)
H1E H 0.4670 0.9466 0.3211
C2E C 0.41779(17) 1.0137(4) 0.1458(5)
H2E H 0.4365 1.0811 0.1259
C3E C 0.36814(13) 0.9817(3) 0.0606(4)
H3E H 0.3506 1.0245 -0.0207
C4E C 0.34903(12) 0.8752(3) 0.1169(3)
C5E C 0.29965(11) 0.8129(2) 0.0570(3)
C6E C 0.27074(12) 0.8237(2) -0.0834(3)
S2E S 0.28503(3) 0.90966(7) -0.21808(9)
C7E C 0.22796(13) 0.8591(3) -0.3350(4)
N1E N 0.20012(10) 0.7845(2) -0.2823(3)
C8E C 0.27670(11) 0.7363(2) 0.1397(3)
C9E C 0.21208(16) 0.9050(3) -0.4848(4)
H4E H 0.2388 0.8845 -0.5277
H5E H 0.2090 0.9964 -0.4845
C10E C 0.16291(16) 0.8505(4) -0.5739(4)
H6E H 0.1665 0.7593 -0.5778
H7E H 0.1364 0.8679 -0.5292
C11E C 0.14648(19) 0.9014(4) -0.7216(5)
H8E H 0.1424 0.9924 -0.7184
H9E H 0.1728 0.8842 -0.7670
C12E C 0.0970(3) 0.8433(5) -0.8075(6)
H10E H 0.0717 0.8582 -0.7578
H11E H 0.1020 0.7525 -0.8089
C13E C 0.0748(3) 0.8854(7) -0.9553(7)
H12E H 0.0695 0.9762 -0.9583
H13E H 0.0979 0.8653 -1.0105
C14E C 0.0249(3) 0.8183(9) -1.0149(12)
H14E H 0.0100 0.8448 -1.1104
H15E H 0.0305 0.7285 -1.0123
H16E H 0.0022 0.8388 -0.9599
loop_
_geom_bond_atom_site_label_1
_geom_bond_atom_site_label_2
_geom_bond_site_symmetry_1
_geom_bond_site_symmetry_2
S1 C1 1_555 1_555
C1 H1 1_555 1_555
C2 C1 1_555 1_555
H2 C2 1_555 1_555
C3 C2 1_555 1_555
H3 C3 1_555 1_555
C4 S1 1_555 1_555
C5 C4 1_555 1_555
C6 C5 1_555 1_555
S2 C6 1_555 1_555
C7 S2 1_555 1_555
N1 C7 1_555 1_555
C8 C5 1_555 1_555
C9 C7 1_555 1_555
H4 C9 1_555 1_555
H5 C9 1_555 1_555
C10 C9 1_555 1_555
H6 C10 1_555 1_555
H7 C10 1_555 1_555
C11 C10 1_555 1_555
H8 C11 1_555 1_555
H9 C11 1_555 1_555
C12 C11 1_555 1_555
H10 C12 1_555 1_555
H11 C12 1_555 1_555
C13 C12 1_555 1_555
H12 C13 1_555 1_555
H13 C13 1_555 1_555
C14 C13 1_555 1_555
H14 C14 1_555 1_555
H15 C14 1_555 1_555
H16 C14 1_555 1_555
S1E C1E 1_555 1_555
C1E H1E 1_555 1_555
C2E C1E 1_555 1_555
H2E C2E 1_555 1_555
C3E C2E 1_555 1_555
H3E C3E 1_555 1_555
C4E S1E 1_555 1_555
C5E C4E 1_555 1_555
C6E C8 1_555 1_555
S2E C6E 1_555 1_555
C7E S2E 1_555 1_555
N1E C8 1_555 1_555
C8E C6 1_555 1_555
C9E C7E 1_555 1_555
H4E C9E 1_555 1_555
H5E C9E 1_555 1_555
C10E C9E 1_555 1_555
H6E C10E 1_555 1_555
H7E C10E 1_555 1_555
C11E C10E 1_555 1_555
H8E C11E 1_555 1_555
H9E C11E 1_555 1_555
C12E C11E 1_555 1_555
H10E C12E 1_555 1_555
H11E C12E 1_555 1_555
C13E C12E 1_555 1_555
H12E C13E 1_555 1_555
H13E C13E 1_555 1_555
C14E C13E 1_555 1_555
H14E C14E 1_555 1_555
H15E C14E 1_555 1_555
H16E C14E 1_555 1_555
C3 C4 1_555 1_555
N1 C8E 1_555 1_555
C3E C4E 1_555 1_555
C5E C6E 1_555 1_555
C5E C8E 1_555 1_555
C7E N1E 1_555 1_555

#END
