
#######################################################################
#
#                 Cambridge Crystallographic Data Centre
#                                CCDC 
#
#######################################################################
#
# If this CIF has been generated from an entry in the Cambridge 
# Structural Database, then it will include bibliographic, chemical, 
# crystal, experimental, refinement or atomic coordinate data resulting 
# from the CCDC's data processing and validation procedures.
#
#######################################################################

data_GOGXIL
_chemical_formula_moiety         'C19 H18 N2 O2'
_chemical_name_systematic        'ethyl N-(3-phenylisoquinolin-1-yl)glycinate'
_symmetry_cell_setting           monoclinic
_symmetry_space_group_name_H-M   'P 21/c'
_symmetry_Int_Tables_number      14
_space_group_name_Hall           '-P 2ybc'
loop_
_symmetry_equiv_pos_site_id
_symmetry_equiv_pos_as_xyz
1 x,y,z
2 -x,1/2+y,1/2-z
3 -x,-y,-z
4 x,1/2-y,1/2+z
_cell_length_a                   12.1660(12)
_cell_length_b                   5.1885(5)
_cell_length_c                   25.903(3)
_cell_angle_alpha                90
_cell_angle_beta                 96.3010(10)
_cell_angle_gamma                90
_cell_volume                     1625.21
_cell_formula_units_Z            4
loop_
_atom_site_label
_atom_site_type_symbol
_atom_site_fract_x
_atom_site_fract_y
_atom_site_fract_z
N1 N 0.23103(14) 0.2683(3) 0.18290(8)
N2 N 0.13809(17) 0.0194(4) 0.23536(10)
H1 H 0.1256 -0.0331 0.2657
C1 C 0.2783(4) 0.3453(9) 0.08203(16)
H2 H 0.2343 0.2085 0.0905
C2 C 0.2964(5) 0.3796(12) 0.03067(17)
H3 H 0.2644 0.2662 0.0056
C3 C 0.3591(3) 0.5732(10) 0.01662(16)
H4 H 0.3705 0.5996 -0.0179
C4 C 0.4033(4) 0.7228(10) 0.05331(19)
H5 H 0.4486 0.8566 0.0446
C5 C 0.3861(4) 0.6922(9) 0.10463(15)
H6 H 0.4199 0.8059 0.1292
C6 C 0.32210(19) 0.5033(5) 0.12020(12)
C7 C 0.30552(17) 0.4584(4) 0.17514(10)
C8 C 0.35992(19) 0.5922(5) 0.21545(11)
H7 H 0.4080 0.7245 0.2088
C9 C 0.34372(18) 0.5313(5) 0.26712(11)
C10 C 0.3985(2) 0.6610(6) 0.31067(13)
H8 H 0.4467 0.7953 0.3055
C11 C 0.3822(3) 0.5934(7) 0.35988(14)
H9 H 0.4190 0.6806 0.3880
C12 C 0.3100(3) 0.3931(7) 0.36795(13)
H10 H 0.2992 0.3463 0.4017
C13 C 0.2549(2) 0.2641(6) 0.32711(12)
H11 H 0.2068 0.1310 0.3332
C14 C 0.27029(18) 0.3310(4) 0.27601(10)
C15 C 0.21439(18) 0.2079(4) 0.23064(11)
C16 C 0.0787(2) -0.0910(5) 0.19002(12)
H12 H 0.0349 -0.2347 0.2002
H13 H 0.1310 -0.1573 0.1676
C17 C 0.0038(2) 0.1006(5) 0.16020(12)
C18 C -0.0818(4) 0.2229(10) 0.07718(17)
H14 H -0.1078 0.1376 0.0448
H15 H -0.1459 0.2686 0.0945
C19 C -0.0303(9) 0.4267(19) 0.0673(4)
H16 H -0.0191 0.5313 0.0980
H17 H -0.0730 0.5211 0.0402
H18 H 0.0399 0.3819 0.0562
O1 O -0.03792(15) 0.2833(4) 0.17882(8)
O2 O -0.01215(19) 0.0443(4) 0.11016(10)
C20? C -0.0660(11) 0.157(2) 0.0201(4)
H19? H -0.1112 0.2696 -0.0028
H20? H -0.0874 -0.0184 0.0130
H21? H 0.0102 0.1797 0.0148
loop_
_geom_bond_atom_site_label_1
_geom_bond_atom_site_label_2
_geom_bond_site_symmetry_1
_geom_bond_site_symmetry_2
N1 C7 1_555 1_555
N2 H1 1_555 1_555
C1 H2 1_555 1_555
C2 C1 1_555 1_555
H3 C2 1_555 1_555
C3 C2 1_555 1_555
H4 C3 1_555 1_555
C4 C3 1_555 1_555
H5 C4 1_555 1_555
C5 C4 1_555 1_555
H6 C5 1_555 1_555
C6 C1 1_555 1_555
C7 C6 1_555 1_555
C8 C7 1_555 1_555
H7 C8 1_555 1_555
C9 C8 1_555 1_555
C10 C9 1_555 1_555
H8 C10 1_555 1_555
C11 C10 1_555 1_555
H9 C11 1_555 1_555
C12 C11 1_555 1_555
H10 C12 1_555 1_555
C13 C12 1_555 1_555
H11 C13 1_555 1_555
C14 C9 1_555 1_555
C15 N1 1_555 1_555
C16 N2 1_555 1_555
H12 C16 1_555 1_555
H13 C16 1_555 1_555
C17 C16 1_555 1_555
C18 H14 1_555 1_555
H15 C18 1_555 1_555
C19 C18 1_555 1_555
H16 C19 1_555 1_555
H17 C19 1_555 1_555
H18 C19 1_555 1_555
O1 C17 1_555 1_555
O2 C17 1_555 1_555
N2 C15 1_555 1_555
C5 C6 1_555 1_555
C13 C14 1_555 1_555
C14 C15 1_555 1_555
C18 O2 1_555 1_555

#END
