
#######################################################################
#
#                 Cambridge Crystallographic Data Centre
#                                CCDC 
#
#######################################################################
#
# If this CIF has been generated from an entry in the Cambridge 
# Structural Database, then it will include bibliographic, chemical, 
# crystal, experimental, refinement or atomic coordinate data resulting 
# from the CCDC's data processing and validation procedures.
#
#######################################################################

data_GOGXIK
_chemical_formula_moiety         'C31 H30 O4'
_chemical_name_systematic        
'diethyl 4-(diphenylethenylidene)-6-methyl-3,4-dihydronaphthalene-2,2(1H)-dicarboxylate'
_symmetry_cell_setting           monoclinic
_symmetry_space_group_name_H-M   'P 21/n'
_symmetry_Int_Tables_number      14
_space_group_name_Hall           '-P 2yn'
loop_
_symmetry_equiv_pos_site_id
_symmetry_equiv_pos_as_xyz
1 x,y,z
2 1/2-x,1/2+y,1/2-z
3 -x,-y,-z
4 1/2+x,1/2-y,1/2+z
_cell_length_a                   12.989(6)
_cell_length_b                   9.804(4)
_cell_length_c                   20.082(9)
_cell_angle_alpha                90
_cell_angle_beta                 98.805(6)
_cell_angle_gamma                90
_cell_volume                     2527.19
_exptl_crystal_colour            colorless
_exptl_crystal_description       column
_cell_formula_units_Z            4
loop_
_atom_site_label
_atom_site_type_symbol
_atom_site_fract_x
_atom_site_fract_y
_atom_site_fract_z
O1 O 0.6159(3) 0.4419(4) -0.01504(18)
O2 O 0.7750(2) 0.3705(3) 0.01989(14)
O3 O 0.7814(2) 0.1994(3) 0.15693(14)
O4 O 0.70558(18) 0.3970(2) 0.16396(11)
C1 C 0.4585(3) -0.3077(3) 0.17910(19)
H1 H 0.4075 -0.2704 0.2039
H2 H 0.5118 -0.3530 0.2096
H3 H 0.4257 -0.3720 0.1465
C2 C 0.5064(2) -0.1946(3) 0.14355(15)
C3 C 0.5827(2) -0.2239(3) 0.10402(15)
H4 H 0.6037 -0.3136 0.0994
C4 C 0.6269(2) -0.1213(3) 0.07194(15)
H5 H 0.6777 -0.1434 0.0458
C5 C 0.5986(2) 0.0157(3) 0.07680(13)
C6 C 0.5219(2) 0.0458(3) 0.11647(13)
C7 C 0.4777(2) -0.0601(3) 0.14873(14)
H6 H 0.4266 -0.0392 0.1749
C8 C 0.4923(2) 0.1894(2) 0.12527(13)
C9 C 0.4353(2) 0.2305(3) 0.17006(15)
C10 C 0.3775(2) 0.2803(2) 0.21236(15)
C11 C 0.2622(2) 0.2949(3) 0.19133(14)
C12 C 0.2037(3) 0.1915(3) 0.15735(17)
H7 H 0.2356 0.1098 0.1486
C13 C 0.0989(3) 0.2086(4) 0.13651(19)
H8 H 0.0602 0.1380 0.1141
C14 C 0.0506(3) 0.3284(4) 0.14829(18)
H9 H -0.0204 0.3393 0.1339
C15 C 0.1084(3) 0.4325(3) 0.18165(17)
H10 H 0.0763 0.5145 0.1896
C16 C 0.2131(2) 0.4153(3) 0.20325(15)
H11 H 0.2514 0.4857 0.2262
C17 C 0.4254(2) 0.3215(2) 0.28197(15)
C18 C 0.3715(3) 0.3075(3) 0.33581(17)
H12 H 0.3027 0.2778 0.3286
C19 C 0.4201(4) 0.3380(4) 0.40085(18)
H13 H 0.3839 0.3275 0.4371
C20 C 0.5217(4) 0.3837(4) 0.4116(2)
H14 H 0.5543 0.4035 0.4551
C21 C 0.5735(3) 0.3997(4) 0.3591(2)
H15 H 0.6417 0.4316 0.3665
C22 C 0.5271(3) 0.3694(3) 0.29426(18)
H16 H 0.5642 0.3811 0.2586
C23 C 0.5309(2) 0.2945(3) 0.07959(14)
H17 H 0.5271 0.3845 0.0992
H18 H 0.4861 0.2940 0.0363
C24 C 0.6426(2) 0.2661(3) 0.06926(14)
C25 C 0.6483(2) 0.1233(3) 0.03951(15)
H19 H 0.6144 0.1245 -0.0070
H20 H 0.7209 0.0997 0.0397
C26 C 0.6739(3) 0.3712(3) 0.02010(16)
C27 C 0.8151(4) 0.4718(4) -0.0226(2)
H21 H 0.8792 0.4383 -0.0360
H22 H 0.7650 0.4854 -0.0631
C28 C 0.8341(6) 0.5943(6) 0.0103(3)
H23 H 0.8591 0.6591 -0.0193
H24 H 0.8856 0.5818 0.0495
H25 H 0.7708 0.6277 0.0236
C29 C 0.7184(2) 0.2805(3) 0.13459(16)
C30 C 0.7813(3) 0.4368(4) 0.22249(18)
H26 H 0.7473 0.4424 0.2622
H27 H 0.8363 0.3691 0.2307
C31 C 0.8243(4) 0.5658(4) 0.2096(2)
H28 H 0.8734 0.5930 0.2480
H29 H 0.7695 0.6322 0.2014
H30 H 0.8589 0.5592 0.1708
loop_
_geom_bond_atom_site_label_1
_geom_bond_atom_site_label_2
_geom_bond_site_symmetry_1
_geom_bond_site_symmetry_2
O1 C26 1_555 1_555
O2 C26 1_555 1_555
O3 C29 1_555 1_555
O4 C29 1_555 1_555
C1 H1 1_555 1_555
H2 C1 1_555 1_555
H3 C1 1_555 1_555
C2 C1 1_555 1_555
C3 C2 1_555 1_555
H4 C3 1_555 1_555
C4 C3 1_555 1_555
H5 C4 1_555 1_555
C5 C4 1_555 1_555
C6 C5 1_555 1_555
C7 C2 1_555 1_555
H6 C7 1_555 1_555
C8 C6 1_555 1_555
C9 C8 1_555 1_555
C10 C9 1_555 1_555
C11 C10 1_555 1_555
C12 C11 1_555 1_555
H7 C12 1_555 1_555
C13 C12 1_555 1_555
H8 C13 1_555 1_555
C14 C13 1_555 1_555
H9 C14 1_555 1_555
C15 C14 1_555 1_555
H10 C15 1_555 1_555
C16 C11 1_555 1_555
H11 C16 1_555 1_555
C17 C10 1_555 1_555
C18 C17 1_555 1_555
H12 C18 1_555 1_555
C19 C18 1_555 1_555
H13 C19 1_555 1_555
C20 C19 1_555 1_555
H14 C20 1_555 1_555
C21 C20 1_555 1_555
H15 C21 1_555 1_555
C22 C17 1_555 1_555
H16 C22 1_555 1_555
C23 C8 1_555 1_555
H17 C23 1_555 1_555
H18 C23 1_555 1_555
C24 C23 1_555 1_555
C25 C5 1_555 1_555
H19 C25 1_555 1_555
H20 C25 1_555 1_555
C26 C24 1_555 1_555
C27 O2 1_555 1_555
H21 C27 1_555 1_555
H22 C27 1_555 1_555
C28 C27 1_555 1_555
H23 C28 1_555 1_555
H24 C28 1_555 1_555
H25 C28 1_555 1_555
C29 C24 1_555 1_555
C30 O4 1_555 1_555
H26 C30 1_555 1_555
H27 C30 1_555 1_555
C31 C30 1_555 1_555
H28 C31 1_555 1_555
H29 C31 1_555 1_555
H30 C31 1_555 1_555
C6 C7 1_555 1_555
C15 C16 1_555 1_555
C21 C22 1_555 1_555
C24 C25 1_555 1_555

#END
