
#######################################################################
#
#                 Cambridge Crystallographic Data Centre
#                                CCDC 
#
#######################################################################
#
# If this CIF has been generated from an entry in the Cambridge 
# Structural Database, then it will include bibliographic, chemical, 
# crystal, experimental, refinement or atomic coordinate data resulting 
# from the CCDC's data processing and validation procedures.
#
#######################################################################

data_GOGYOS
_chemical_formula_moiety         'C48 H38 P2 2+,2(Br1 1-)'
_chemical_name_systematic        
"biphenyl-4,4'-diylbis(triphenylphosphonium) dibromide"
_symmetry_cell_setting           triclinic
_symmetry_space_group_name_H-M   'P -1'
_symmetry_Int_Tables_number      2
_space_group_name_Hall           '-P 1'
loop_
_symmetry_equiv_pos_site_id
_symmetry_equiv_pos_as_xyz
1 x,y,z
2 -x,-y,-z
_cell_length_a                   9.2730(2)
_cell_length_b                   10.5567(4)
_cell_length_c                   12.3149(6)
_cell_angle_alpha                84.7365(17)
_cell_angle_beta                 78.272(2)
_cell_angle_gamma                83.458(2)
_cell_volume                     1169.76
_exptl_crystal_colour            colorless
_exptl_crystal_description       prism
_cell_formula_units_Z            1
loop_
_atom_site_label
_atom_site_type_symbol
_atom_site_fract_x
_atom_site_fract_y
_atom_site_fract_z
C1 C 0.4939(2) 0.45960(19) 0.45505(16)
C2 C 0.6078(2) 0.4480(2) 0.36172(19)
C3 C 0.5993(2) 0.3715(2) 0.27837(19)
C4 C 0.4767(2) 0.30416(19) 0.28565(17)
C5 C 0.3601(3) 0.3179(2) 0.3764(2)
C6 C 0.3687(3) 0.3960(2) 0.4592(2)
C7 C 0.2970(2) 0.1524(2) 0.18642(17)
C8 C 0.1825(2) 0.2501(2) 0.1824(2)
C9 C 0.0424(3) 0.2191(3) 0.1782(3)
C10 C 0.0167(3) 0.0921(3) 0.1789(2)
C11 C 0.1284(3) -0.0039(2) 0.1835(2)
C12 C 0.2709(2) 0.0250(2) 0.1869(2)
C13 C 0.5968(2) 0.05338(19) 0.21619(18)
C14 C 0.6188(3) 0.0267(2) 0.3258(2)
C15 C 0.7063(3) -0.0832(3) 0.3517(2)
C16 C 0.7700(3) -0.1663(2) 0.2710(3)
C17 C 0.7494(3) -0.1400(2) 0.1629(3)
C18 C 0.6626(3) -0.0306(2) 0.1346(2)
C19 C 0.5550(2) 0.2595(2) 0.04685(17)
C20 C 0.7075(3) 0.2687(2) 0.01434(19)
C21 C 0.7628(3) 0.3267(3) -0.0896(2)
C22 C 0.6683(3) 0.3717(3) -0.1616(2)
C23 C 0.5188(3) 0.3605(3) -0.1304(2)
C24 C 0.4606(3) 0.3062(3) -0.0253(2)
P1 P 0.48031(6) 0.19317(5) 0.18337(4)
H1 H 0.6923 0.4933 0.3555
H2 H 0.6779 0.3647 0.2157
H3 H 0.2750 0.2737 0.3817
H4 H 0.2878 0.4063 0.5200
H5 H 0.2005 0.3369 0.1827
H6 H -0.0357 0.2849 0.1747
H7 H -0.0795 0.0714 0.1761
H8 H 0.1090 -0.0905 0.1845
H9 H 0.3488 -0.0413 0.1895
H10 H 0.5740 0.0831 0.3817
H11 H 0.7230 -0.1010 0.4254
H12 H 0.8280 -0.2420 0.2901
H13 H 0.7947 -0.1970 0.1077
H14 H 0.6482 -0.0129 0.0604
H15 H 0.7725 0.2357 0.0629
H16 H 0.8657 0.3357 -0.1113
H17 H 0.7068 0.4100 -0.2328
H18 H 0.4548 0.3905 -0.1804
H19 H 0.3571 0.3005 -0.0033
C1A C 0.5061(2) 0.54040(19) 0.54495(16)
C2A C 0.3922(2) 0.5520(2) 0.63828(19)
C3A C 0.4007(2) 0.6285(2) 0.72163(19)
C4A C 0.5233(2) 0.69584(19) 0.71435(17)
C5A C 0.6399(3) 0.6821(2) 0.6236(2)
C6A C 0.6313(3) 0.6040(2) 0.5408(2)
C7A C 0.7030(2) 0.8476(2) 0.81358(17)
C8A C 0.8175(2) 0.7499(2) 0.8176(2)
C9A C 0.9576(3) 0.7809(3) 0.8218(3)
C10A C 0.9833(3) 0.9079(3) 0.8211(2)
C11A C 0.8716(3) 1.0039(2) 0.8165(2)
C12A C 0.7291(2) 0.9750(2) 0.8131(2)
C13A C 0.4032(2) 0.94662(19) 0.78381(18)
C14A C 0.3812(3) 0.9733(2) 0.6742(2)
C15A C 0.2937(3) 1.0832(3) 0.6483(2)
C16A C 0.2300(3) 1.1663(2) 0.7290(3)
C17A C 0.2506(3) 1.1400(2) 0.8371(3)
C18A C 0.3374(3) 1.0306(2) 0.8654(2)
C19A C 0.4450(2) 0.7405(2) 0.95315(17)
C20A C 0.2925(3) 0.7313(2) 0.98566(19)
C21A C 0.2372(3) 0.6733(3) 1.0896(2)
C22A C 0.3317(3) 0.6283(3) 1.1616(2)
C23A C 0.4812(3) 0.6395(3) 1.1304(2)
C24A C 0.5394(3) 0.6938(3) 1.0253(2)
P1A P 0.51969(6) 0.80683(5) 0.81663(4)
H1A H 0.3077 0.5067 0.6445
H2A H 0.3221 0.6353 0.7843
H3A H 0.7250 0.7263 0.6183
H4A H 0.7122 0.5937 0.4800
H5A H 0.7995 0.6631 0.8173
H6A H 1.0357 0.7151 0.8253
H7A H 1.0795 0.9286 0.8239
H8A H 0.8910 1.0905 0.8155
H9A H 0.6512 1.0413 0.8105
H10A H 0.4260 0.9169 0.6183
H11A H 0.2770 1.1010 0.5746
H12A H 0.1720 1.2420 0.7099
H13A H 0.2053 1.1970 0.8923
H14A H 0.3518 1.0129 0.9396
H15A H 0.2275 0.7643 0.9371
H16A H 0.1343 0.6643 1.1113
H17A H 0.2932 0.5900 1.2328
H18A H 0.5452 0.6095 1.1804
H19A H 0.6429 0.6995 1.0033
Br1 Br 0.89145(7) 0.53447(6) 0.11333(6)
Br2 Br 0.99742(6) 0.52749(6) 0.35135(6)
loop_
_geom_bond_atom_site_label_1
_geom_bond_atom_site_label_2
_geom_bond_site_symmetry_1
_geom_bond_site_symmetry_2
C1 C2 1_555 1_555
C2 C3 1_555 1_555
C3 C4 1_555 1_555
C4 C5 1_555 1_555
C5 C6 1_555 1_555
C6 C1 1_555 1_555
C7 C8 1_555 1_555
C8 C9 1_555 1_555
C9 C10 1_555 1_555
C10 C11 1_555 1_555
C11 C12 1_555 1_555
C12 C7 1_555 1_555
C13 C14 1_555 1_555
C14 C15 1_555 1_555
C15 C16 1_555 1_555
C16 C17 1_555 1_555
C17 C18 1_555 1_555
C18 C13 1_555 1_555
C19 C20 1_555 1_555
C20 C21 1_555 1_555
C21 C22 1_555 1_555
C22 C23 1_555 1_555
C23 C24 1_555 1_555
C24 C19 1_555 1_555
P1 C4 1_555 1_555
H1 C2 1_555 1_555
H2 C3 1_555 1_555
H3 C5 1_555 1_555
H4 C6 1_555 1_555
H5 C8 1_555 1_555
H6 C9 1_555 1_555
H7 C10 1_555 1_555
H8 C11 1_555 1_555
H9 C12 1_555 1_555
H10 C14 1_555 1_555
H11 C15 1_555 1_555
H12 C16 1_555 1_555
H13 C17 1_555 1_555
H14 C18 1_555 1_555
H15 C20 1_555 1_555
H16 C21 1_555 1_555
H17 C22 1_555 1_555
H18 C23 1_555 1_555
H19 C24 1_555 1_555
C1A C1 1_555 1_555
C2A C1A 1_555 1_555
C3A C2A 1_555 1_555
C4A C3A 1_555 1_555
C5A C4A 1_555 1_555
C6A C1A 1_555 1_555
C7A C8A 1_555 1_555
C8A C9A 1_555 1_555
C9A C10A 1_555 1_555
C10A C11A 1_555 1_555
C11A C12A 1_555 1_555
C12A C7A 1_555 1_555
C13A C14A 1_555 1_555
C14A C15A 1_555 1_555
C15A C16A 1_555 1_555
C16A C17A 1_555 1_555
C17A C18A 1_555 1_555
C18A C13A 1_555 1_555
C19A C20A 1_555 1_555
C20A C21A 1_555 1_555
C21A C22A 1_555 1_555
C22A C23A 1_555 1_555
C23A C24A 1_555 1_555
C24A C19A 1_555 1_555
P1A C4A 1_555 1_555
H1A C2A 1_555 1_555
H2A C3A 1_555 1_555
H3A C5A 1_555 1_555
H4A C6A 1_555 1_555
H5A C8A 1_555 1_555
H6A C9A 1_555 1_555
H7A C10A 1_555 1_555
H8A C11A 1_555 1_555
H9A C12A 1_555 1_555
H10A C14A 1_555 1_555
H11A C15A 1_555 1_555
H12A C16A 1_555 1_555
H13A C17A 1_555 1_555
H14A C18A 1_555 1_555
H15A C20A 1_555 1_555
H16A C21A 1_555 1_555
H17A C22A 1_555 1_555
H18A C23A 1_555 1_555
H19A C24A 1_555 1_555
C7 P1 1_555 1_555
C13 P1 1_555 1_555
C19 P1 1_555 1_555
C5A C6A 1_555 1_555
C7A P1A 1_555 1_555
C13A P1A 1_555 1_555
C19A P1A 1_555 1_555

#END
