
#######################################################################
#
#                 Cambridge Crystallographic Data Centre
#                                CCDC 
#
#######################################################################
#
# If this CIF has been generated from an entry in the Cambridge 
# Structural Database, then it will include bibliographic, chemical, 
# crystal, experimental, refinement or atomic coordinate data resulting 
# from the CCDC's data processing and validation procedures.
#
#######################################################################

data_GOHGOB
_chemical_formula_moiety         'C22 H23 Br1 N2 O2 S1 Se1'
_chemical_name_systematic        
'methyl 2-(4-(4-bromophenyl)-5-methyl-2-(phenylimino)-1,3-selenazol-3(2H)-yl)-4-(methylsulfanyl)butanoate'
_symmetry_cell_setting           monoclinic
_symmetry_space_group_name_H-M   'P 21'
_symmetry_Int_Tables_number      4
_space_group_name_Hall           'P 2yb'
loop_
_symmetry_equiv_pos_site_id
_symmetry_equiv_pos_as_xyz
1 x,y,z
2 -x,1/2+y,-z
_cell_length_a                   11.244(2)
_cell_length_b                   7.6728(14)
_cell_length_c                   12.837(2)
_cell_angle_alpha                90
_cell_angle_beta                 98.983(4)
_cell_angle_gamma                90
_cell_volume                     1093.9
_exptl_crystal_colour            colorless
_exptl_crystal_description       columnar
_cell_formula_units_Z            2
loop_
_atom_site_label
_atom_site_type_symbol
_atom_site_fract_x
_atom_site_fract_y
_atom_site_fract_z
Br1 Br 0.51396(2) 0.36699(3) 0.480298(17)
Se1 Se 1.042501(17) 0.39096(3) 1.064026(15)
S1 S 0.96496(7) 0.64826(9) 0.54364(5)
N1 N 1.22896(14) 0.3679(3) 0.92948(12)
O1 O 1.11533(17) 0.1075(2) 0.74899(13)
N2 N 1.02930(14) 0.3932(3) 0.85304(12)
O2 O 1.23262(15) 0.2973(2) 0.67938(13)
C1 C 0.63161(17) 0.3664(4) 0.60434(15)
C2 C 0.7196(2) 0.2395(3) 0.61755(18)
H1 H 0.7196 0.1491 0.5670
C3 C 0.8078(2) 0.2457(3) 0.70539(17)
H2 H 0.8677 0.1574 0.7154
C4 C 0.81079(16) 0.3785(4) 0.77939(14)
C5 C 0.90820(17) 0.3890(3) 0.87085(15)
C6 C 0.89310(17) 0.3877(4) 0.97252(15)
C7 C 1.11744(17) 0.3823(4) 0.93974(15)
C8 C 1.32151(17) 0.3553(3) 1.01666(16)
C9 C 1.4158(2) 0.2393(3) 1.00928(18)
H3 H 1.4160 0.1737 0.9465
C10 C 1.5085(2) 0.2195(3) 1.09224(19)
H4 H 1.5705 0.1374 1.0868
C11 C 1.5131(2) 0.3169(3) 1.18324(19)
H5 H 1.5775 0.3023 1.2400
C12 C 1.4222(2) 0.4365(3) 1.19061(19)
H6 H 1.4249 0.5051 1.2526
C13 C 1.3269(2) 0.4570(3) 1.10808(18)
H7 H 1.2655 0.5400 1.1137
C14 C 1.06633(19) 0.4134(3) 0.74871(16)
H8 H 0.9909 0.4081 0.6960
C15 C 1.1401(2) 0.2531(3) 0.72897(17)
C16 C 1.3065(3) 0.1513(3) 0.6577(2)
H9 H 1.2584 0.0711 0.6088
H10 H 1.3363 0.0902 0.7237
H11 H 1.3749 0.1938 0.6261
C17 C 1.1219(3) 0.5914(3) 0.7353(2)
H12 H 1.2076 0.5888 0.7683
H13 H 1.0805 0.6793 0.7733
C18 C 1.1143(2) 0.6480(3) 0.62006(19)
H14 H 1.1659 0.5695 0.5852
H15 H 1.1480 0.7670 0.6187
C19 C 0.8921(3) 0.8126(3) 0.6116(2)
H16 H 0.9423 0.9176 0.6204
H17 H 0.8807 0.7686 0.6810
H18 H 0.8136 0.8410 0.5703
C20 C 0.77924(17) 0.3735(4) 1.01900(15)
H19 H 0.7770 0.2606 1.0543
H20 H 0.7098 0.3833 0.9628
H21 H 0.7764 0.4674 1.0703
C21 C 0.7189(2) 0.5028(3) 0.76537(18)
H22 H 0.7182 0.5929 0.8161
C22 C 0.6288(2) 0.4967(3) 0.67851(18)
H23 H 0.5659 0.5806 0.6700
loop_
_geom_bond_atom_site_label_1
_geom_bond_atom_site_label_2
_geom_bond_site_symmetry_1
_geom_bond_site_symmetry_2
Br1 C1 1_555 1_555
Se1 C6 1_555 1_555
S1 C18 1_555 1_555
N1 C7 1_555 1_555
O1 C15 1_555 1_555
N2 C5 1_555 1_555
O2 C15 1_555 1_555
C1 C2 1_555 1_555
C2 H1 1_555 1_555
C3 C2 1_555 1_555
H2 C3 1_555 1_555
C4 C3 1_555 1_555
C5 C4 1_555 1_555
C6 C5 1_555 1_555
C7 Se1 1_555 1_555
C8 N1 1_555 1_555
C9 C8 1_555 1_555
H3 C9 1_555 1_555
C10 C9 1_555 1_555
H4 C10 1_555 1_555
C11 C10 1_555 1_555
H5 C11 1_555 1_555
C12 C11 1_555 1_555
H6 C12 1_555 1_555
C13 C8 1_555 1_555
H7 C13 1_555 1_555
C14 N2 1_555 1_555
H8 C14 1_555 1_555
C15 C14 1_555 1_555
C16 O2 1_555 1_555
H9 C16 1_555 1_555
H10 C16 1_555 1_555
H11 C16 1_555 1_555
C17 C14 1_555 1_555
H12 C17 1_555 1_555
H13 C17 1_555 1_555
C18 C17 1_555 1_555
H14 C18 1_555 1_555
H15 C18 1_555 1_555
C19 S1 1_555 1_555
H16 C19 1_555 1_555
H17 C19 1_555 1_555
H18 C19 1_555 1_555
C20 C6 1_555 1_555
H19 C20 1_555 1_555
H20 C20 1_555 1_555
H21 C20 1_555 1_555
C21 C4 1_555 1_555
H22 C21 1_555 1_555
C22 C1 1_555 1_555
H23 C22 1_555 1_555
N2 C7 1_555 1_555
C12 C13 1_555 1_555
C21 C22 1_555 1_555

#END
