
#######################################################################
#
#                 Cambridge Crystallographic Data Centre
#                                CCDC 
#
#######################################################################
#
# If this CIF has been generated from an entry in the Cambridge 
# Structural Database, then it will include bibliographic, chemical, 
# crystal, experimental, refinement or atomic coordinate data resulting 
# from the CCDC's data processing and validation procedures.
#
#######################################################################

data_GOHGER
_chemical_formula_moiety         'C25 H24 N2 O2 S1'
_chemical_name_systematic        
5-s-butyl-2-((2-(2-naphthyl)-2-oxoethyl)sulfanyl)-3-phenyl-3,5-dihydro-4H-imidazol-4-one
_symmetry_cell_setting           orthorhombic
_symmetry_space_group_name_H-M   'P 21 21 21'
_symmetry_Int_Tables_number      19
_space_group_name_Hall           'P 2ac 2ab'
loop_
_symmetry_equiv_pos_site_id
_symmetry_equiv_pos_as_xyz
1 x,y,z
2 1/2+x,1/2-y,-z
3 -x,1/2+y,1/2-z
4 1/2-x,-y,1/2+z
_cell_length_a                   11.8659(4)
_cell_length_b                   12.6972(4)
_cell_length_c                   28.1782(12)
_cell_angle_alpha                90
_cell_angle_beta                 90
_cell_angle_gamma                90
_cell_volume                     4245.43
_exptl_crystal_colour            colorless
_cell_formula_units_Z            8
loop_
_atom_site_label
_atom_site_type_symbol
_atom_site_fract_x
_atom_site_fract_y
_atom_site_fract_z
S1 S -0.00937(7) 0.15526(6) 0.77995(3)
O1 O -0.02196(19) 0.22967(19) 0.88263(9)
O2 O 0.17350(18) 0.46901(18) 0.70515(8)
N1 N 0.1605(2) 0.2899(2) 0.80264(9)
N2 N 0.0726(2) 0.3252(2) 0.73212(9)
C1 C 0.3975(3) 0.4939(3) 0.84572(15)
H1 H 0.4053 0.5647 0.8322
H2 H 0.4218 0.4416 0.8223
H3 H 0.4444 0.4881 0.8742
C2 C 0.2746(3) 0.4744(3) 0.85876(13)
H4 H 0.2678 0.4039 0.8735
H5 H 0.2507 0.5273 0.8825
C3 C 0.1965(3) 0.4802(3) 0.81594(13)
H6 H 0.2172 0.5449 0.7976
C4 C 0.2114(3) 0.3862(2) 0.78293(11)
H7 H 0.2937 0.3738 0.7778
C5 C 0.0831(3) 0.2627(2) 0.77348(12)
C6 C 0.0567(3) 0.0979(3) 0.83175(11)
H8 H 0.0173 0.0315 0.8398
H9 H 0.1357 0.0801 0.8239
C7 C 0.0556(3) 0.1695(3) 0.87503(12)
C8 C 0.1499(3) 0.1585(3) 0.90943(11)
C9 C 0.2136(3) 0.0690(2) 0.91222(12)
H10 H 0.2006 0.0132 0.8904
C10 C 0.2979(3) 0.0584(3) 0.94677(12)
C11 C 0.3636(3) -0.0344(3) 0.95105(14)
H11 H 0.3503 -0.0919 0.9303
C12 C 0.4470(3) -0.0420(3) 0.98518(13)
H12 H 0.4900 -0.1049 0.9877
C13 C 0.4690(3) 0.0433(3) 1.01637(14)
H13 H 0.5269 0.0378 1.0395
C14 C -0.1293(3) 0.2669(3) 0.61261(14)
H14 H -0.1746 0.2531 0.5855
C15 C -0.1796(3) 0.2788(3) 0.65652(13)
H15 H -0.2590 0.2730 0.6597
C16 C -0.1133(3) 0.2992(3) 0.69575(13)
H16 H -0.1474 0.3096 0.7259
C17 C 0.0029(3) 0.3046(2) 0.69122(11)
C18 C 0.3196(3) 0.1434(3) 0.97865(12)
C19 C 0.4066(3) 0.1331(3) 1.01298(13)
H17 H 0.4216 0.1899 1.0340
C20 C 0.2530(3) 0.2357(3) 0.97407(13)
H18 H 0.2667 0.2936 0.9946
C21 C 0.1700(3) 0.2431(3) 0.94097(12)
H19 H 0.1254 0.3051 0.9390
C22 C 0.0741(2) 0.4923(3) 0.83157(13)
H20 H 0.0659 0.5569 0.8503
H21 H 0.0523 0.4315 0.8509
H22 H 0.0254 0.4962 0.8035
C23 C 0.1547(3) 0.4023(2) 0.73504(12)
C24 C 0.0532(3) 0.2931(3) 0.64726(12)
H23 H 0.1328 0.2974 0.6442
C25 C -0.0133(3) 0.2751(3) 0.60779(12)
H24 H 0.0205 0.2684 0.5774
S2 S 0.51725(7) 0.33169(6) 0.72284(3)
O3 O 0.53444(19) 0.25783(19) 0.62130(8)
N3 N 0.4274(2) 0.1627(2) 0.76770(9)
O4 O 0.31747(19) 0.02421(18) 0.79434(9)
C26 C 0.0583(3) 0.4613(3) 0.48291(13)
H25 H 0.0050 0.4713 0.4582
C27 C 0.1264(3) 0.3744(3) 0.48204(13)
H26 H 0.1199 0.3249 0.4569
C28 C 0.2065(3) 0.3582(3) 0.51852(11)
C29 C 0.2778(3) 0.2688(3) 0.52010(11)
H27 H 0.2711 0.2158 0.4964
C30 C 0.3561(3) 0.2578(3) 0.55526(12)
H28 H 0.4045 0.1982 0.5553
C31 C 0.3660(3) 0.3347(3) 0.59194(12)
C32 C 0.4583(3) 0.3207(3) 0.62772(12)
C33 C 0.4565(3) 0.3920(3) 0.67123(11)
H29 H 0.3776 0.4117 0.6783
H30 H 0.4985 0.4575 0.6639
C34 C 0.4191(3) 0.2308(2) 0.72856(12)
C35 C 0.4998(3) 0.1758(2) 0.80760(11)
C36 C 0.4524(3) 0.2051(3) 0.85116(12)
H31 H 0.3735 0.2159 0.8541
C37 C 0.5225(3) 0.2178(3) 0.88967(13)
H32 H 0.4915 0.2375 0.9195
C38 C 0.6376(3) 0.2022(3) 0.88556(13)
H33 H 0.6850 0.2116 0.9124
C39 C 0.2732(3) -0.0212(3) 0.59324(14)
H34 H 0.2320 -0.0871 0.5984
H35 H 0.3544 -0.0355 0.5930
H36 H 0.2509 0.0094 0.5627
C40 C 0.2456(3) 0.0569(3) 0.63348(13)
H37 H 0.2765 0.1270 0.6252
H38 H 0.1628 0.0639 0.6362
C41 C 0.2933(3) 0.0230(3) 0.68139(13)
H39 H 0.3752 0.0069 0.6772
C42 C 0.2824(3) 0.1143(2) 0.71740(12)
H40 H 0.2008 0.1294 0.7230
N4 N 0.3386(2) 0.2113(2) 0.69967(10)
C43 C 0.2149(3) 0.4346(3) 0.55489(12)
C44 C 0.1418(3) 0.5225(3) 0.55422(13)
H41 H 0.1467 0.5734 0.5789
C45 C 0.0652(3) 0.5356(3) 0.51922(13)
H42 H 0.0165 0.5950 0.5194
C46 C 0.2961(3) 0.4197(3) 0.59160(12)
H43 H 0.3016 0.4703 0.6164
C47 C 0.6839(3) 0.1728(3) 0.84226(13)
H44 H 0.7629 0.1624 0.8395
C48 C 0.6150(3) 0.1585(3) 0.80330(12)
H45 H 0.6461 0.1371 0.7738
C49 C 0.3397(3) 0.0906(2) 0.76478(13)
C50 C 0.2347(3) -0.0762(3) 0.70027(13)
H46 H 0.2324 -0.1298 0.6753
H47 H 0.1577 -0.0586 0.7100
H48 H 0.2766 -0.1035 0.7276
loop_
_geom_bond_atom_site_label_1
_geom_bond_atom_site_label_2
_geom_bond_site_symmetry_1
_geom_bond_site_symmetry_2
S1 C5 1_555 1_555
O1 C7 1_555 1_555
O2 C23 1_555 1_555
N1 C4 1_555 1_555
N2 C5 1_555 1_555
C1 H1 1_555 1_555
H2 C1 1_555 1_555
H3 C1 1_555 1_555
C2 C1 1_555 1_555
H4 C2 1_555 1_555
H5 C2 1_555 1_555
C3 C2 1_555 1_555
H6 C3 1_555 1_555
C4 C3 1_555 1_555
H7 C4 1_555 1_555
C5 N1 1_555 1_555
C6 S1 1_555 1_555
H8 C6 1_555 1_555
H9 C6 1_555 1_555
C7 C6 1_555 1_555
C8 C7 1_555 1_555
C9 C8 1_555 1_555
H10 C9 1_555 1_555
C10 C9 1_555 1_555
C11 C10 1_555 1_555
H11 C11 1_555 1_555
C12 C11 1_555 1_555
H12 C12 1_555 1_555
C13 C12 1_555 1_555
H13 C13 1_555 1_555
C14 H14 1_555 1_555
C15 C14 1_555 1_555
H15 C15 1_555 1_555
C16 C15 1_555 1_555
H16 C16 1_555 1_555
C17 N2 1_555 1_555
C18 C10 1_555 1_555
C19 C13 1_555 1_555
H17 C19 1_555 1_555
C20 C18 1_555 1_555
H18 C20 1_555 1_555
C21 C8 1_555 1_555
H19 C21 1_555 1_555
C22 C3 1_555 1_555
H20 C22 1_555 1_555
H21 C22 1_555 1_555
H22 C22 1_555 1_555
C23 N2 1_555 1_555
C24 C17 1_555 1_555
H23 C24 1_555 1_555
C25 C14 1_555 1_555
H24 C25 1_555 1_555
S2 C33 1_555 1_555
O3 C32 1_555 1_555
N3 C34 1_555 1_555
O4 C49 1_555 1_555
C26 H25 1_555 1_555
C27 C26 1_555 1_555
H26 C27 1_555 1_555
C28 C27 1_555 1_555
C29 C28 1_555 1_555
H27 C29 1_555 1_555
C30 C29 1_555 1_555
H28 C30 1_555 1_555
C31 C30 1_555 1_555
C32 C31 1_555 1_555
C33 C32 1_555 1_555
H29 C33 1_555 1_555
H30 C33 1_555 1_555
C34 S2 1_555 1_555
C35 N3 1_555 1_555
C36 C35 1_555 1_555
H31 C36 1_555 1_555
C37 C36 1_555 1_555
H32 C37 1_555 1_555
C38 C37 1_555 1_555
H33 C38 1_555 1_555
C39 H34 1_555 1_555
H35 C39 1_555 1_555
H36 C39 1_555 1_555
C40 C39 1_555 1_555
H37 C40 1_555 1_555
H38 C40 1_555 1_555
C41 C40 1_555 1_555
H39 C41 1_555 1_555
C42 C41 1_555 1_555
H40 C42 1_555 1_555
N4 C34 1_555 1_555
C43 C28 1_555 1_555
C44 C43 1_555 1_555
H41 C44 1_555 1_555
C45 C26 1_555 1_555
H42 C45 1_555 1_555
C46 C31 1_555 1_555
H43 C46 1_555 1_555
C47 C38 1_555 1_555
H44 C47 1_555 1_555
C48 C35 1_555 1_555
H45 C48 1_555 1_555
C49 N3 1_555 1_555
C50 C41 1_555 1_555
H46 C50 1_555 1_555
H47 C50 1_555 1_555
H48 C50 1_555 1_555
C4 C23 1_555 1_555
C16 C17 1_555 1_555
C18 C19 1_555 1_555
C20 C21 1_555 1_555
C24 C25 1_555 1_555
C42 N4 1_555 1_555
C42 C49 1_555 1_555
C43 C46 1_555 1_555
C44 C45 1_555 1_555
C47 C48 1_555 1_555

#END
