
#######################################################################
#
#                 Cambridge Crystallographic Data Centre
#                                CCDC 
#
#######################################################################
#
# If this CIF has been generated from an entry in the Cambridge 
# Structural Database, then it will include bibliographic, chemical, 
# crystal, experimental, refinement or atomic coordinate data resulting 
# from the CCDC's data processing and validation procedures.
#
#######################################################################

data_GOHPAW
_chemical_formula_moiety         'C31 H28 N2 O3 Se1'
_chemical_name_systematic        
'methyl 2-(4-hydroxy-4,5-diphenyl-2-(phenylimino)-1,3-selenazolidin-3-yl)-3-phenylpropanoate'
_symmetry_cell_setting           monoclinic
_symmetry_space_group_name_H-M   'P 21'
_symmetry_Int_Tables_number      4
_space_group_name_Hall           'P 2yb'
loop_
_symmetry_equiv_pos_site_id
_symmetry_equiv_pos_as_xyz
1 x,y,z
2 -x,1/2+y,-z
_cell_length_a                   8.6504(3)
_cell_length_b                   9.7776(4)
_cell_length_c                   16.3783(6)
_cell_angle_alpha                90
_cell_angle_beta                 98.688(2)
_cell_angle_gamma                90
_cell_volume                     1369.38
_exptl_crystal_colour            colorless
_exptl_crystal_description       prism
_cell_formula_units_Z            2
loop_
_atom_site_label
_atom_site_type_symbol
_atom_site_fract_x
_atom_site_fract_y
_atom_site_fract_z
C1 C 0.7424(3) 1.0811(4) 0.79307(17)
C2 C 0.7870(3) 1.2648(4) 0.8819(2)
C3 C 0.8712(4) 1.3595(4) 0.8444(3)
H1 H 0.8643 1.3613 0.7872
C4 C 0.9665(4) 1.4522(5) 0.8928(3)
H2 H 1.0229 1.5172 0.8681
C5 C 0.9772(5) 1.4471(5) 0.9783(3)
H3 H 1.0438 1.5070 1.0109
C6 C 0.8912(5) 1.3555(5) 1.0149(3)
H4 H 0.8980 1.3541 1.0721
C7 C 0.7946(4) 1.2652(4) 0.9678(2)
H5 H 0.7341 1.2041 0.9930
C8 C 0.4817(3) 0.9913(3) 0.7428(2)
H6 H 0.4374 0.9200 0.7042
C9 C 0.4294(3) 1.1273(3) 0.7027(2)
C10 C 0.2393(7) 1.3042(6) 0.6969(4)
H7 H 0.1436 1.3233 0.7177
H8 H 0.2204 1.3047 0.6376
H9 H 0.3155 1.3728 0.7162
C11 C 0.4176(3) 0.9646(4) 0.8246(2)
H10 H 0.4538 1.0371 0.8632
H11 H 0.3043 0.9693 0.8138
C12 C 0.4640(3) 0.8306(4) 0.8642(2)
C13 C 0.3785(4) 0.7133(4) 0.8425(2)
H12 H 0.2897 0.7174 0.8028
C14 C 0.4248(5) 0.5886(5) 0.8799(3)
H13 H 0.3667 0.5098 0.8655
C15 C 0.5578(6) 0.5832(6) 0.9385(3)
H14 H 0.5903 0.5004 0.9632
C16 C 0.6412(5) 0.6991(6) 0.9599(3)
H15 H 0.7295 0.6950 1.0000
C17 C 0.5970(4) 0.8210(4) 0.9235(2)
H16 H 0.6564 0.8989 0.9385
C18 C 0.7227(3) 0.9151(3) 0.68257(18)
C19 C 0.6556(3) 0.7753(3) 0.65788(19)
C20 C 0.6470(3) 0.6738(4) 0.7167(2)
H17 H 0.6739 0.6942 0.7725
C21 C 0.5992(4) 0.5437(4) 0.6930(2)
H18 H 0.5925 0.4769 0.7327
C22 C 0.5607(4) 0.5119(4) 0.6095(2)
H19 H 0.5295 0.4238 0.5931
C23 C 0.5692(4) 0.6109(4) 0.5526(2)
H20 H 0.5427 0.5904 0.4968
C24 C 0.6162(3) 0.7409(4) 0.57579(19)
H21 H 0.6216 0.8069 0.5355
C25 C 0.8989(3) 0.8954(3) 0.71728(19)
H22 H 0.9069 0.8196 0.7568
C26 C 1.0006(3) 0.8612(4) 0.6532(2)
C27 C 1.0528(4) 0.7292(5) 0.6464(3)
H23 H 1.0272 0.6623 0.6825
C28 C 1.1436(6) 0.6951(7) 0.5860(4)
H24 H 1.1785 0.6057 0.5822
C29 C 1.1811(6) 0.7909(8) 0.5331(4)
H25 H 1.2431 0.7677 0.4934
C30 C 1.1287(5) 0.9206(7) 0.5375(3)
H26 H 1.1522 0.9854 0.4997
C31 C 1.0406(4) 0.9580(5) 0.5978(2)
H27 H 1.0080 1.0481 0.6012
N1 N 0.6856(3) 1.1687(3) 0.83577(17)
N2 N 0.6530(2) 0.9787(3) 0.74983(15)
O1 O 0.4955(3) 1.1861(3) 0.65390(15)
O2 O 0.2969(2) 1.1720(3) 0.72569(17)
O3 O 0.7089(2) 1.0015(2) 0.61352(12)
H28 H 0.6450 1.0663 0.6209
Se1 Se 0.95880(3) 1.06374(4) 0.779777(18)
C32? C 0.2196(11) 1.2797(11) 0.6596(6)
H29? H 0.1237 1.3127 0.6753
H30? H 0.1982 1.2368 0.6064
H31? H 0.2900 1.3550 0.6571
loop_
_geom_bond_atom_site_label_1
_geom_bond_atom_site_label_2
_geom_bond_site_symmetry_1
_geom_bond_site_symmetry_2
C1 N1 1_555 1_555
C2 C3 1_555 1_555
C3 H1 1_555 1_555
C4 C3 1_555 1_555
H2 C4 1_555 1_555
C5 C4 1_555 1_555
H3 C5 1_555 1_555
C6 C5 1_555 1_555
H4 C6 1_555 1_555
C7 C2 1_555 1_555
H5 C7 1_555 1_555
C8 H6 1_555 1_555
C9 C8 1_555 1_555
C10 H7 1_555 1_555
H8 C10 1_555 1_555
H9 C10 1_555 1_555
C11 C8 1_555 1_555
H10 C11 1_555 1_555
H11 C11 1_555 1_555
C12 C11 1_555 1_555
C13 C12 1_555 1_555
H12 C13 1_555 1_555
C14 C13 1_555 1_555
H13 C14 1_555 1_555
C15 C14 1_555 1_555
H14 C15 1_555 1_555
C16 C15 1_555 1_555
H15 C16 1_555 1_555
C17 C12 1_555 1_555
H16 C17 1_555 1_555
C18 C19 1_555 1_555
C19 C20 1_555 1_555
C20 H17 1_555 1_555
C21 C20 1_555 1_555
H18 C21 1_555 1_555
C22 C21 1_555 1_555
H19 C22 1_555 1_555
C23 C22 1_555 1_555
H20 C23 1_555 1_555
C24 C19 1_555 1_555
H21 C24 1_555 1_555
C25 C18 1_555 1_555
H22 C25 1_555 1_555
C26 C25 1_555 1_555
C27 C26 1_555 1_555
H23 C27 1_555 1_555
C28 C27 1_555 1_555
H24 C28 1_555 1_555
C29 C28 1_555 1_555
H25 C29 1_555 1_555
C30 C29 1_555 1_555
H26 C30 1_555 1_555
C31 C26 1_555 1_555
H27 C31 1_555 1_555
N1 C2 1_555 1_555
N2 C1 1_555 1_555
O1 C9 1_555 1_555
O2 C9 1_555 1_555
O3 C18 1_555 1_555
H28 O3 1_555 1_555
Se1 C1 1_555 1_555
C6 C7 1_555 1_555
C8 N2 1_555 1_555
C10 O2 1_555 1_555
C16 C17 1_555 1_555
C18 N2 1_555 1_555
C23 C24 1_555 1_555
C25 Se1 1_555 1_555
C30 C31 1_555 1_555

#END
