
#######################################################################
#
#                 Cambridge Crystallographic Data Centre
#                                CCDC 
#
#######################################################################
#
# If this CIF has been generated from an entry in the Cambridge 
# Structural Database, then it will include bibliographic, chemical, 
# crystal, experimental, refinement or atomic coordinate data resulting 
# from the CCDC's data processing and validation procedures.
#
#######################################################################

data_GOHPUQ
_chemical_formula_moiety         'C29 H22 O3'
_chemical_name_systematic        
1-benzoyl-15-phenyltetracyclo[6.6.2.0^2,7^.0^9,14^]hexadeca-4,9,11,13-tetraene-3,6-dione
_symmetry_cell_setting           monoclinic
_symmetry_space_group_name_H-M   'P 21/c'
_symmetry_Int_Tables_number      14
_space_group_name_Hall           '-P 2ybc'
loop_
_symmetry_equiv_pos_site_id
_symmetry_equiv_pos_as_xyz
1 x,y,z
2 -x,1/2+y,1/2-z
3 -x,-y,-z
4 x,1/2-y,1/2+z
_cell_length_a                   13.084(3)
_cell_length_b                   11.765(2)
_cell_length_c                   14.203(3)
_cell_angle_alpha                90
_cell_angle_beta                 105.26(3)
_cell_angle_gamma                90
_cell_volume                     2109.23
_cell_formula_units_Z            4
loop_
_atom_site_label
_atom_site_type_symbol
_atom_site_fract_x
_atom_site_fract_y
_atom_site_fract_z
C1 C 0.26810(9) 0.24690(9) 0.12220(9)
C2 C 0.21685(9) 0.23478(10) 0.20893(9)
H1 H 0.2480 0.2939 0.2565
C3 C 0.24634(10) 0.11771(10) 0.26090(9)
H2 H 0.2943 0.1336 0.3252
C4 C 0.39192(9) 0.22870(10) 0.16311(9)
H3 H 0.4165 0.2836 0.2161
C5 C 0.22284(10) 0.14800(10) 0.05423(9)
C6 C 0.25092(10) 0.36467(10) 0.07311(10)
C7 C 0.30917(10) 0.04739(10) 0.20427(10)
H4 H 0.3225 -0.0293 0.2317
C8 C 0.24640(10) 0.04248(10) 0.09979(10)
C9 C 0.24189(10) 0.47188(10) 0.12811(11)
C10 C 0.09877(10) 0.25811(11) 0.17515(10)
C11 C 0.45466(10) 0.25099(10) 0.08909(10)
C12 C 0.41339(10) 0.10863(11) 0.20915(11)
H5 H 0.4546 0.0647 0.1745
H6 H 0.4541 0.1153 0.2767
C13 C 0.21165(14) -0.05714(12) 0.04922(12)
H7 H 0.2294 -0.1272 0.0794
C14 C 0.03161(11) 0.20944(13) 0.23352(11)
H8 H -0.0297 0.2473 0.2369
C15 C 0.05737(12) 0.11272(13) 0.28121(12)
H9 H 0.0135 0.0836 0.3173
C16 C 0.30209(12) 0.49734(11) 0.22131(12)
H10 H 0.3493 0.4438 0.2563
C17 C 0.15384(12) 0.05018(12) 0.27835(11)
C18 C 0.15961(12) 0.15224(13) -0.04099(11)
H11 H 0.1414 0.2219 -0.0717
C19 C 0.17107(12) 0.55346(11) 0.07697(13)
H12 H 0.1310 0.5382 0.0138
C20 C 0.45595(12) 0.17558(13) 0.01428(12)
H13 H 0.4144 0.1104 0.0063
C21 C 0.22140(13) 0.68138(12) 0.21186(16)
H14 H 0.2147 0.7516 0.2398
C22 C 0.29256(14) 0.60251(13) 0.26306(14)
H15 H 0.3341 0.6195 0.3253
C23 C 0.16035(13) 0.65642(12) 0.11964(15)
H16 H 0.1115 0.7093 0.0858
C24 C 0.51687(12) 0.34750(13) 0.09741(14)
H17 H 0.5163 0.3999 0.1463
C25 C 0.15090(17) -0.05191(14) -0.04577(14)
H18 H 0.1281 -0.1185 -0.0802
C26 C 0.58113(14) 0.29201(17) -0.03795(15)
H19 H 0.6239 0.3050 -0.0798
C27 C 0.51879(14) 0.19672(16) -0.04876(14)
H20 H 0.5186 0.1457 -0.0988
C28 C 0.57996(14) 0.36796(16) 0.03489(17)
H21 H 0.6215 0.4332 0.0423
C29 C 0.12387(17) 0.05229(15) -0.09001(13)
H22 H 0.0810 0.0554 -0.1536
O1 O 0.06041(8) 0.31621(10) 0.10414(9)
O2 O 0.24922(9) 0.37360(8) -0.01239(8)
O3 O 0.15918(11) -0.05136(9) 0.29068(11)
loop_
_geom_bond_atom_site_label_1
_geom_bond_atom_site_label_2
_geom_bond_site_symmetry_1
_geom_bond_site_symmetry_2
C1 C2 1_555 1_555
C2 H1 1_555 1_555
C3 C2 1_555 1_555
H2 C3 1_555 1_555
C4 C1 1_555 1_555
H3 C4 1_555 1_555
C5 C1 1_555 1_555
C6 C1 1_555 1_555
C7 C3 1_555 1_555
H4 C7 1_555 1_555
C8 C5 1_555 1_555
C9 C6 1_555 1_555
C10 C2 1_555 1_555
C11 C4 1_555 1_555
C12 C4 1_555 1_555
H5 C12 1_555 1_555
H6 C12 1_555 1_555
C13 C8 1_555 1_555
H7 C13 1_555 1_555
C14 C10 1_555 1_555
H8 C14 1_555 1_555
C15 C14 1_555 1_555
H9 C15 1_555 1_555
C16 C9 1_555 1_555
H10 C16 1_555 1_555
C17 C3 1_555 1_555
C18 C5 1_555 1_555
H11 C18 1_555 1_555
C19 C9 1_555 1_555
H12 C19 1_555 1_555
C20 C11 1_555 1_555
H13 C20 1_555 1_555
C21 H14 1_555 1_555
C22 C16 1_555 1_555
H15 C22 1_555 1_555
C23 C19 1_555 1_555
H16 C23 1_555 1_555
C24 C11 1_555 1_555
H17 C24 1_555 1_555
C25 C13 1_555 1_555
H18 C25 1_555 1_555
C26 H19 1_555 1_555
C27 C20 1_555 1_555
H20 C27 1_555 1_555
C28 C24 1_555 1_555
H21 C28 1_555 1_555
C29 C18 1_555 1_555
H22 C29 1_555 1_555
O1 C10 1_555 1_555
O2 C6 1_555 1_555
O3 C17 1_555 1_555
C7 C8 1_555 1_555
C7 C12 1_555 1_555
C15 C17 1_555 1_555
C21 C22 1_555 1_555
C21 C23 1_555 1_555
C25 C29 1_555 1_555
C26 C27 1_555 1_555
C26 C28 1_555 1_555

#END
