
#######################################################################
#
#                 Cambridge Crystallographic Data Centre
#                                CCDC 
#
#######################################################################
#
# If this CIF has been generated from an entry in the Cambridge 
# Structural Database, then it will include bibliographic, chemical, 
# crystal, experimental, refinement or atomic coordinate data resulting 
# from the CCDC's data processing and validation procedures.
#
#######################################################################

data_GOHSAY
_chemical_formula_moiety         'C37 H39 B1 P1 1+,I1 1-,C1 H4 O1'
_chemical_name_systematic        
'1-(Dimesitylboryl)-2-(methyl(diphenyl)phosphonio)benzene iodide methanol solvate'
_symmetry_cell_setting           monoclinic
_symmetry_space_group_name_H-M   'P 21/c'
_symmetry_Int_Tables_number      14
_space_group_name_Hall           '-P 2ybc'
loop_
_symmetry_equiv_pos_site_id
_symmetry_equiv_pos_as_xyz
1 x,y,z
2 -x,1/2+y,1/2-z
3 -x,-y,-z
4 x,1/2-y,1/2+z
_cell_length_a                   17.290(2)
_cell_length_b                   8.6503(12)
_cell_length_c                   23.517(3)
_cell_angle_alpha                90
_cell_angle_beta                 109.7030(10)
_cell_angle_gamma                90
_cell_volume                     3311.36
_exptl_crystal_colour            colorless
_exptl_crystal_description       block
_chemical_melting_point          162deg.C(dec)
_cell_formula_units_Z            4
loop_
_atom_site_label
_atom_site_type_symbol
_atom_site_fract_x
_atom_site_fract_y
_atom_site_fract_z
P1 P 0.33857(4) -0.42152(8) 0.01203(3)
C1 C -0.03074(19) -0.9151(3) -0.14139(15)
C2 C 0.15191(17) -0.1877(4) -0.12164(13)
H1 H 0.1623 -0.0865 -0.1342
H2 H 0.1721 -0.1932 -0.0783
H3 H 0.0939 -0.2074 -0.1363
C3 C 0.40853(18) -0.3961(3) 0.08800(13)
C4 C 0.23595(17) -0.3809(3) 0.01155(13)
C5 C 0.09007(19) -0.4127(3) -0.01930(15)
H4 H 0.0418 -0.4604 -0.0432
C6 C 0.21972(19) -0.7436(3) -0.16554(14)
H5 H 0.2475 -0.7907 -0.1902
H6 H 0.1628 -0.7727 -0.1801
H7 H 0.2444 -0.7777 -0.1245
C7 C 0.03585(18) -0.9187(3) -0.08809(15)
H8 H 0.0427 -1.0040 -0.0628
C8 C 0.22680(18) -0.5696(3) -0.16822(13)
C9 C 0.26892(17) -0.5103(4) -0.20408(13)
H9 H 0.2941 -0.5785 -0.2230
C10 C 0.37198(16) -0.2940(3) -0.03486(12)
C11 C 0.34899(18) -0.6178(3) -0.00760(13)
H10 H 0.4042 -0.6356 -0.0068
H11 H 0.3113 -0.6383 -0.0474
H12 H 0.3371 -0.6852 0.0208
C12 C 0.36224(17) -0.1355(3) -0.03026(13)
H13 H 0.3329 -0.0969 -0.0067
C13 C 0.09245(17) -0.7995(3) -0.07128(13)
C14 C 0.44990(17) -0.2506(4) -0.10073(13)
H14 H 0.4793 -0.2886 -0.1244
C15 C 0.16422(18) -0.8204(4) -0.01348(14)
H15 H 0.1583 -0.9162 0.0052
H16 H 0.1655 -0.7364 0.0135
H17 H 0.2144 -0.8218 -0.0224
C16 C 0.08480(17) -0.6698(3) -0.10897(13)
C17 C 0.19524(17) -0.3075(3) -0.14700(13)
C18 C 0.44113(19) -0.0931(3) -0.09546(15)
H18 H 0.4653 -0.0253 -0.1152
C19 C 0.16325(17) -0.4472(3) -0.02986(13)
C20 C 0.47688(17) -0.3007(3) 0.10038(13)
H19 H 0.4861 -0.2443 0.0696
C21 C 0.39492(19) -0.4790(3) 0.13459(13)
H20 H 0.3491 -0.5427 0.1263
C22 C 0.41499(17) -0.3517(3) -0.07082(13)
H21 H 0.4202 -0.4578 -0.0747
C23 C 0.23581(17) -0.2538(4) -0.18455(13)
H22 H 0.2370 -0.1479 -0.1911
C24 C 0.39682(19) -0.0355(4) -0.06111(14)
H23 H 0.3901 0.0706 -0.0586
C25 C 0.27482(17) -0.3518(4) -0.21274(13)
C26 C 0.15740(19) -0.2426(3) 0.06267(14)
H24 H 0.1553 -0.1714 0.0918
C27 C 0.3206(2) -0.2908(4) -0.25182(14)
H25 H 0.3182 -0.1799 -0.2525
H26 H 0.2961 -0.3299 -0.2921
H27 H 0.3769 -0.3234 -0.2359
C28 C 0.19147(16) -0.4685(3) -0.13610(13)
B1 B 0.14927(19) -0.5326(4) -0.09178(15)
C29 C 0.53145(18) -0.2903(4) 0.15929(14)
H28 H 0.5776 -0.2276 0.1678
C30 C 0.44889(19) -0.4669(4) 0.19266(14)
H29 H 0.4395 -0.5220 0.2237
C31 C 0.23187(18) -0.2812(3) 0.05651(13)
H30 H 0.2801 -0.2394 0.0831
C32 C -0.03967(18) -0.7853(4) -0.17754(14)
H31 H -0.0848 -0.7789 -0.2128
C33 C 0.01623(17) -0.6649(3) -0.16297(13)
C34 C 0.5174(2) -0.3724(4) 0.20493(14)
H32 H 0.5540 -0.3644 0.2442
C35 C 0.0003(2) -0.5272(4) -0.20537(15)
H33 H -0.0488 -0.5450 -0.2392
H34 H 0.0459 -0.5137 -0.2194
H35 H -0.0064 -0.4359 -0.1843
C36 C 0.08639(18) -0.3105(4) 0.02531(14)
H36 H 0.0362 -0.2880 0.0299
C37 C -0.0896(2) -1.0491(4) -0.15879(16)
H37 H -0.1318 -1.0272 -0.1966
H38 H -0.1141 -1.0647 -0.1282
H39 H -0.0605 -1.1407 -0.1627
I1 I 0.345069(12) 0.08780(2) 0.122112(8)
O1 O 0.28649(18) 0.3527(3) 0.21423(12)
H40 H 0.2981 0.2775 0.1975
C38 C 0.2101(3) 0.4103(4) 0.1789(2)
H41 H 0.1676 0.3435 0.1824
H42 H 0.2073 0.4148 0.1374
H43 H 0.2029 0.5121 0.1925
loop_
_geom_bond_atom_site_label_1
_geom_bond_atom_site_label_2
_geom_bond_site_symmetry_1
_geom_bond_site_symmetry_2
P1 C3 1_555 1_555
C1 C7 1_555 1_555
C2 H1 1_555 1_555
H2 C2 1_555 1_555
H3 C2 1_555 1_555
C3 C20 1_555 1_555
C4 P1 1_555 1_555
C5 H4 1_555 1_555
C6 H5 1_555 1_555
H6 C6 1_555 1_555
H7 C6 1_555 1_555
C7 H8 1_555 1_555
C8 C6 1_555 1_555
C9 C8 1_555 1_555
H9 C9 1_555 1_555
C10 P1 1_555 1_555
C11 P1 1_555 1_555
H10 C11 1_555 1_555
H11 C11 1_555 1_555
H12 C11 1_555 1_555
C12 C10 1_555 1_555
H13 C12 1_555 1_555
C13 C7 1_555 1_555
C14 H14 1_555 1_555
C15 C13 1_555 1_555
H15 C15 1_555 1_555
H16 C15 1_555 1_555
H17 C15 1_555 1_555
C16 C13 1_555 1_555
C17 C2 1_555 1_555
C18 C14 1_555 1_555
H18 C18 1_555 1_555
C19 C4 1_555 1_555
C20 H19 1_555 1_555
C21 C3 1_555 1_555
H20 C21 1_555 1_555
C22 C10 1_555 1_555
H21 C22 1_555 1_555
C23 C17 1_555 1_555
H22 C23 1_555 1_555
C24 C12 1_555 1_555
H23 C24 1_555 1_555
C25 C9 1_555 1_555
C26 H24 1_555 1_555
C27 C25 1_555 1_555
H25 C27 1_555 1_555
H26 C27 1_555 1_555
H27 C27 1_555 1_555
C28 C8 1_555 1_555
B1 C16 1_555 1_555
C29 C20 1_555 1_555
H28 C29 1_555 1_555
C30 C21 1_555 1_555
H29 C30 1_555 1_555
C31 C4 1_555 1_555
H30 C31 1_555 1_555
C32 C1 1_555 1_555
H31 C32 1_555 1_555
C33 C16 1_555 1_555
C34 C29 1_555 1_555
H32 C34 1_555 1_555
C35 C33 1_555 1_555
H33 C35 1_555 1_555
H34 C35 1_555 1_555
H35 C35 1_555 1_555
C36 C5 1_555 1_555
H36 C36 1_555 1_555
C37 C1 1_555 1_555
H37 C37 1_555 1_555
H38 C37 1_555 1_555
H39 C37 1_555 1_555
O1 H40 1_555 1_555
C38 O1 1_555 1_555
H41 C38 1_555 1_555
H42 C38 1_555 1_555
H43 C38 1_555 1_555
C5 C19 1_555 1_555
C14 C22 1_555 1_555
C17 C28 1_555 1_555
C18 C24 1_555 1_555
C19 B1 1_555 1_555
C23 C25 1_555 1_555
C26 C31 1_555 1_555
C26 C36 1_555 1_555
C28 B1 1_555 1_555
C30 C34 1_555 1_555
C32 C33 1_555 1_555

#END
