
#######################################################################
#
#                 Cambridge Crystallographic Data Centre
#                                CCDC 
#
#######################################################################
#
# If this CIF has been generated from an entry in the Cambridge 
# Structural Database, then it will include bibliographic, chemical, 
# crystal, experimental, refinement or atomic coordinate data resulting 
# from the CCDC's data processing and validation procedures.
#
#######################################################################

data_GOHWAC
_chemical_formula_moiety         'C3 H10 N1 1+,C14 H24 B9 1-'
_chemical_name_systematic        
'Trimethylammonium 7-(2-(3-indenyl)prop-2-yl)-(\m~2~-hydrido)-7,8-dicarba-nido-undecaborate'
_symmetry_cell_setting           orthorhombic
_symmetry_space_group_name_H-M   'P b c a'
_symmetry_Int_Tables_number      61
_space_group_name_Hall           '-P 2ac 2ab'
loop_
_symmetry_equiv_pos_site_id
_symmetry_equiv_pos_as_xyz
1 x,y,z
2 1/2-x,-y,1/2+z
3 -x,1/2+y,1/2-z
4 1/2+x,1/2-y,-z
5 -x,-y,-z
6 1/2+x,y,1/2-z
7 x,1/2-y,1/2+z
8 1/2-x,1/2+y,z
_cell_length_a                   9.3447(13)
_cell_length_b                   13.4617(18)
_cell_length_c                   34.022(5)
_cell_angle_alpha                90
_cell_angle_beta                 90
_cell_angle_gamma                90
_cell_volume                     4279.82
_exptl_crystal_colour            yellow
_exptl_crystal_description       prism
_cell_formula_units_Z            8
_exptl_crystal_recrystallization_method ethanol
loop_
_atom_site_label
_atom_site_type_symbol
_atom_site_fract_x
_atom_site_fract_y
_atom_site_fract_z
C1 C 0.1459(3) 0.52644(19) 0.07044(7)
C2 C 0.2947(3) 0.56401(19) 0.08144(8)
C3 C 0.0191(3) 0.5878(2) 0.06072(7)
C4 C 0.3067(3) 0.59758(18) 0.12520(7)
C5 C 0.2767(3) 0.51294(18) 0.15570(8)
B1 B 0.2038(3) 0.5542(2) 0.19898(9)
C6 C -0.0913(3) 0.5256(2) 0.04838(8)
B2 B 0.2068(3) 0.6835(2) 0.19324(9)
B3 B 0.1549(3) 0.6090(2) 0.15404(9)
B4 B 0.5004(4) 0.6142(3) 0.18761(10)
H1 H 0.6153 0.5993 0.1913
B5 B 0.3816(3) 0.5092(2) 0.19295(10)
C7 C -0.0039(3) 0.6896(2) 0.06116(8)
H2 H 0.0677 0.7319 0.0701
B6 B 0.3475(4) 0.6211(2) 0.21788(9)
H3 H 0.3616 0.6278 0.2499
C8 C 0.3364(3) 0.6476(2) 0.05333(9)
H4 H 0.3283 0.6247 0.0267
H5 H 0.4333 0.6675 0.0584
H6 H 0.2737 0.7033 0.0572
C9 C 0.1093(3) 0.4321(2) 0.06467(8)
H7 H 0.1709 0.3790 0.0691
B7 B 0.4433(3) 0.6638(2) 0.13934(10)
B8 B 0.3886(4) 0.7195(2) 0.18425(10)
C10 C 0.4069(3) 0.4810(2) 0.07550(9)
H8 H 0.4026 0.4575 0.0489
H9 H 0.3870 0.4271 0.0931
H10 H 0.5007 0.5068 0.0808
B9 B 0.2638(3) 0.7101(2) 0.14532(10)
C11 C -0.2372(4) 0.6667(3) 0.03568(9)
H11 H -0.3221 0.6942 0.0265
C12 C -0.2219(3) 0.5644(3) 0.03601(9)
H12 H -0.2964 0.5230 0.0282
C13 C -0.1309(4) 0.7281(3) 0.04854(10)
H13 H -0.1450 0.7965 0.0487
C14 C -0.0408(4) 0.4201(3) 0.05028(9)
H14 H -0.0978 0.3813 0.0685
H15 H -0.0433 0.3888 0.0246
H26 H 0.408(2) 0.4419(16) 0.2049(6)
H27 H 0.051(2) 0.5978(16) 0.1420(6)
H28 H 0.132(3) 0.7268(19) 0.2116(8)
H29 H 0.512(3) 0.705(2) 0.1175(7)
H30 H 0.245(3) 0.455(2) 0.1437(8)
H31 H 0.128(2) 0.5123(17) 0.2138(7)
H32 H 0.502(3) 0.569(2) 0.1597(9)
H33 H 0.220(2) 0.7749(17) 0.1262(6)
H34 H 0.415(3) 0.786(2) 0.1973(9)
N1 N 0.7244(4) 0.3787(3) 0.18147(10)
H16 H 0.6494 0.4216 0.1833
C15 C 0.7361(5) 0.3541(3) 0.21997(10)
H17 H 0.7769 0.4087 0.2342
H18 H 0.7968 0.2969 0.2226
H19 H 0.6430 0.3392 0.2304
C16 C 0.6595(4) 0.3058(4) 0.15644(14)
H20 H 0.5893 0.2692 0.1711
H21 H 0.7316 0.2611 0.1469
H22 H 0.6142 0.3384 0.1346
C17 C 0.8250(4) 0.4436(4) 0.16369(17)
H23 H 0.8564 0.4918 0.1826
H24 H 0.7811 0.4768 0.1419
H25 H 0.9058 0.4059 0.1546
loop_
_geom_bond_atom_site_label_1
_geom_bond_atom_site_label_2
_geom_bond_site_symmetry_1
_geom_bond_site_symmetry_2
C1 C2 1_555 1_555
C2 C4 1_555 1_555
C3 C1 1_555 1_555
C4 C5 1_555 1_555
C5 B1 1_555 1_555
B1 B2 1_555 1_555
C6 C3 1_555 1_555
B2 B3 1_555 1_555
B3 C4 1_555 1_555
B4 H1 1_555 1_555
B5 C5 1_555 1_555
C7 C3 1_555 1_555
H2 C7 1_555 1_555
B6 B1 1_555 1_555
H3 B6 1_555 1_555
C8 C2 1_555 1_555
H4 C8 1_555 1_555
H5 C8 1_555 1_555
H6 C8 1_555 1_555
C9 C1 1_555 1_555
H7 C9 1_555 1_555
B7 C4 1_555 1_555
B8 B2 1_555 1_555
C10 C2 1_555 1_555
H8 C10 1_555 1_555
H9 C10 1_555 1_555
H10 C10 1_555 1_555
B9 C4 1_555 1_555
C11 H11 1_555 1_555
C12 C6 1_555 1_555
H12 C12 1_555 1_555
C13 C7 1_555 1_555
H13 C13 1_555 1_555
C14 C6 1_555 1_555
H14 C14 1_555 1_555
H15 C14 1_555 1_555
N1 H16 1_555 1_555
C15 N1 1_555 1_555
H17 C15 1_555 1_555
H18 C15 1_555 1_555
H19 C15 1_555 1_555
C16 N1 1_555 1_555
H20 C16 1_555 1_555
H21 C16 1_555 1_555
H22 C16 1_555 1_555
C17 N1 1_555 1_555
H23 C17 1_555 1_555
H24 C17 1_555 1_555
H25 C17 1_555 1_555
H26 B5 1_555 1_555
H27 B3 1_555 1_555
H28 B2 1_555 1_555
H29 B7 1_555 1_555
H30 C5 1_555 1_555
H31 B1 1_555 1_555
H32 B4 1_555 1_555
H33 B9 1_555 1_555
H34 B8 1_555 1_555
C5 B3 1_555 1_555
B1 B3 1_555 1_555
B1 B5 1_555 1_555
B2 B6 1_555 1_555
B2 B9 1_555 1_555
B3 B9 1_555 1_555
B4 B5 1_555 1_555
B4 B6 1_555 1_555
B4 B7 1_555 1_555
B4 B8 1_555 1_555
B5 B6 1_555 1_555
B6 B8 1_555 1_555
C9 C14 1_555 1_555
B7 B8 1_555 1_555
B7 B9 1_555 1_555
B7 H32 1_555 1_555
B8 B9 1_555 1_555
C11 C12 1_555 1_555
C11 C13 1_555 1_555

#END
