
#######################################################################
#
#                 Cambridge Crystallographic Data Centre
#                                CCDC 
#
#######################################################################
#
# If this CIF has been generated from an entry in the Cambridge 
# Structural Database, then it will include bibliographic, chemical, 
# crystal, experimental, refinement or atomic coordinate data resulting 
# from the CCDC's data processing and validation procedures.
#
#######################################################################

data_GOJGAO
_chemical_formula_moiety         
'C24 H48 Ca1 O6 2+,2(C35 H25 1-),C4 H8 O1,0.5(C7 H8)'
_chemical_name_systematic        
'hexakis(Tetrahydrofuran)-calcium bis(pentaphenylcyclopentadienide) tetrahydrofuran toluene solvate'
_symmetry_cell_setting           triclinic
_symmetry_space_group_name_H-M   'P -1'
_symmetry_Int_Tables_number      2
_space_group_name_Hall           '-P 1'
loop_
_symmetry_equiv_pos_site_id
_symmetry_equiv_pos_as_xyz
1 x,y,z
2 -x,-y,-z
_cell_length_a                   14.1340(8)
_cell_length_b                   14.5437(8)
_cell_length_c                   21.2696(12)
_cell_angle_alpha                74.746(2)
_cell_angle_beta                 82.574(2)
_cell_angle_gamma                86.212(2)
_cell_volume                     4180.43
_exptl_crystal_colour            colorless
_exptl_crystal_description       prism
_cell_formula_units_Z            2
_chemical_properties_physical    'extremely air- and moisture-sensitive'
_exptl_crystal_recrystallization_method toluene/tetrahydrofuran
loop_
_atom_site_label
_atom_site_type_symbol
_atom_site_fract_x
_atom_site_fract_y
_atom_site_fract_z
O7 O 0.5639(6) 0.3310(7) 0.4374(4)
C95 C 0.4942(16) 0.3321(15) 0.4909(11)
H99 H 0.5243 0.3506 0.5251
H100 H 0.4444 0.3813 0.4761
C96 C 0.4497(9) 0.2430(9) 0.5194(6)
H101 H 0.3792 0.2505 0.5236
H102 H 0.4703 0.2117 0.5629
C97 C 0.4848(12) 0.1914(12) 0.4716(8)
H103 H 0.4340 0.1891 0.4441
H104 H 0.5029 0.1251 0.4941
C98 C 0.5664(13) 0.2371(13) 0.4308(9)
H105 H 0.6260 0.2029 0.4450
H106 H 0.5635 0.2374 0.3845
C1 C 0.7305(4) 0.0684(4) 0.1915(3)
C2 C 0.8248(5) 0.1018(5) 0.1818(3)
C3 C 0.8540(5) 0.0988(4) 0.2434(3)
C4 C 0.7765(5) 0.0642(4) 0.2921(3)
C5 C 0.7001(5) 0.0457(4) 0.2598(3)
C11 C 0.6736(5) 0.0660(4) 0.1391(3)
C12 C 0.5823(5) 0.1093(5) 0.1360(3)
H1 H 0.5559 0.1380 0.1699
C13 C 0.5293(6) 0.1119(5) 0.0856(3)
H2 H 0.4669 0.1406 0.0857
C14 C 0.5670(7) 0.0727(6) 0.0351(4)
H3 H 0.5320 0.0765 -0.0008
C15 C 0.6565(7) 0.0275(5) 0.0372(4)
H4 H 0.6824 -0.0006 0.0029
C16 C 0.7082(6) 0.0230(5) 0.0888(3)
H5 H 0.7685 -0.0099 0.0900
C17 C 0.8861(5) 0.1227(5) 0.1177(3)
C18 C 0.8548(5) 0.1773(5) 0.0595(3)
H6 H 0.7944 0.2099 0.0615
C19 C 0.9078(6) 0.1861(6) -0.0015(4)
H7 H 0.8828 0.2226 -0.0401
C20 C 0.9975(6) 0.1415(6) -0.0056(4)
H8 H 1.0338 0.1462 -0.0471
C21 C 1.0333(6) 0.0903(6) 0.0511(4)
H9 H 1.0956 0.0617 0.0489
C22 C 0.9788(5) 0.0807(5) 0.1112(4)
H10 H 1.0046 0.0444 0.1496
C23 C 0.9500(5) 0.1201(5) 0.2552(3)
C24 C 0.9959(5) 0.2027(5) 0.2179(4)
H11 H 0.9637 0.2475 0.1858
C25 C 1.0871(6) 0.2197(6) 0.2272(4)
H12 H 1.1167 0.2766 0.2018
C26 C 1.1353(6) 0.1567(6) 0.2719(4)
H13 H 1.1986 0.1691 0.2770
C27 C 1.0930(6) 0.0746(6) 0.3100(4)
H14 H 1.1260 0.0313 0.3423
C28 C 1.0012(5) 0.0562(5) 0.3005(4)
H15 H 0.9729 -0.0015 0.3255
C29 C 0.7785(5) 0.0503(5) 0.3633(3)
C30 C 0.8156(6) 0.1187(5) 0.3881(4)
H16 H 0.8391 0.1755 0.3582
C31 C 0.8194(6) 0.1068(6) 0.4543(4)
H17 H 0.8450 0.1550 0.4692
C32 C 0.7858(6) 0.0243(6) 0.4989(4)
H18 H 0.7887 0.0155 0.5445
C33 C 0.7483(6) -0.0447(6) 0.4768(3)
H19 H 0.7250 -0.1010 0.5073
C34 C 0.7441(5) -0.0327(5) 0.4099(3)
H20 H 0.7177 -0.0810 0.3955
C35 C 0.6048(5) 0.0115(4) 0.2921(3)
C36 C 0.5564(5) -0.0519(5) 0.2688(3)
H21 H 0.5864 -0.0753 0.2332
C37 C 0.4647(5) -0.0813(5) 0.2972(3)
H22 H 0.4324 -0.1222 0.2795
C38 C 0.4213(6) -0.0516(6) 0.3501(4)
H23 H 0.3596 -0.0728 0.3695
C39 C 0.4671(5) 0.0088(6) 0.3751(4)
H24 H 0.4374 0.0292 0.4120
C40 C 0.5581(5) 0.0402(5) 0.3458(3)
H25 H 0.5889 0.0825 0.3632
C6 C 0.2317(4) 0.6129(4) 0.2912(3)
C7 C 0.2782(4) 0.6594(4) 0.2294(3)
C8 C 0.3198(4) 0.5889(4) 0.1986(3)
C9 C 0.2998(4) 0.4978(4) 0.2423(3)
C10 C 0.2438(4) 0.5126(5) 0.2995(3)
C41 C 0.1799(4) 0.6604(4) 0.3394(3)
C42 C 0.0930(4) 0.6267(5) 0.3759(3)
H26 H 0.0679 0.5708 0.3702
C43 C 0.0437(5) 0.6726(5) 0.4193(3)
H27 H -0.0143 0.6472 0.4435
C44 C 0.0759(5) 0.7540(5) 0.4288(3)
H28 H 0.0404 0.7859 0.4583
C45 C 0.1620(5) 0.7890(5) 0.3941(3)
H29 H 0.1858 0.8455 0.3998
C46 C 0.2128(5) 0.7423(5) 0.3517(3)
H30 H 0.2725 0.7663 0.3297
C47 C 0.2801(5) 0.7639(4) 0.2006(3)
C48 C 0.1995(5) 0.8231(5) 0.2012(3)
H31 H 0.1393 0.7959 0.2182
C49 C 0.2043(6) 0.9213(6) 0.1775(4)
H32 H 0.1481 0.9602 0.1803
C50 C 0.2900(7) 0.9629(6) 0.1500(4)
H33 H 0.2929 1.0300 0.1325
C51 C 0.3714(6) 0.9054(5) 0.1482(3)
H34 H 0.4310 0.9331 0.1298
C52 C 0.3667(5) 0.8076(5) 0.1729(3)
H35 H 0.4235 0.7691 0.1711
C53 C 0.3710(4) 0.6050(4) 0.1315(3)
C54 C 0.3362(5) 0.6719(5) 0.0787(3)
H36 H 0.2794 0.7080 0.0863
C55 C 0.3819(5) 0.6868(5) 0.0161(3)
H37 H 0.3569 0.7334 -0.0186
C56 C 0.4649(5) 0.6343(5) 0.0030(3)
H38 H 0.4959 0.6435 -0.0405
C57 C 0.5011(5) 0.5683(5) 0.0548(3)
H39 H 0.5583 0.5329 0.0469
C58 C 0.4554(4) 0.5533(5) 0.1178(3)
H40 H 0.4812 0.5073 0.1525
C59 C 0.3299(5) 0.4039(5) 0.2297(3)
C60 C 0.3142(5) 0.3813(5) 0.1715(4)
H41 H 0.2862 0.4281 0.1383
C61 C 0.3390(6) 0.2918(6) 0.1621(5)
H42 H 0.3285 0.2782 0.1222
C62 C 0.3783(6) 0.2227(6) 0.2094(6)
H43 H 0.3925 0.1606 0.2034
C63 C 0.3970(5) 0.2441(6) 0.2658(5)
H44 H 0.4268 0.1971 0.2979
C64 C 0.3731(5) 0.3327(5) 0.2764(4)
H45 H 0.3860 0.3457 0.3159
C65 C 0.2125(4) 0.4353(4) 0.3583(3)
C66 C 0.1696(5) 0.3542(5) 0.3526(3)
H46 H 0.1576 0.3502 0.3105
C67 C 0.1443(5) 0.2797(5) 0.4069(4)
H47 H 0.1160 0.2250 0.4019
C68 C 0.1604(5) 0.2857(5) 0.4684(4)
H48 H 0.1433 0.2348 0.5058
C69 C 0.2012(5) 0.3654(5) 0.4758(3)
H49 H 0.2120 0.3694 0.5182
C70 C 0.2264(5) 0.4396(5) 0.4211(3)
H50 H 0.2537 0.4945 0.4267
Ca1 Ca 0.76477(9) 0.58208(9) 0.24152(6)
O1 O 0.8096(3) 0.4884(3) 0.3409(2)
O2 O 0.7201(4) 0.6781(4) 0.1421(2)
O3 O 0.9217(3) 0.5705(3) 0.1943(2)
O4 O 0.6106(3) 0.5962(4) 0.2907(3)
O5 O 0.8042(3) 0.7198(3) 0.2675(2)
O6 O 0.7332(3) 0.4411(3) 0.2165(2)
C71 C 0.7500(5) 0.4680(5) 0.4038(3)
H51 H 0.6881 0.4434 0.3997
H52 H 0.7377 0.5265 0.4195
C72 C 0.8036(6) 0.3951(7) 0.4500(4)
H53 H 0.7891 0.3298 0.4494
H54 H 0.7893 0.4020 0.4954
C73 C 0.9061(6) 0.4179(8) 0.4230(4)
H55 H 0.9268 0.4730 0.4364
H56 H 0.9497 0.3624 0.4376
C74 C 0.9021(6) 0.4412(6) 0.3509(4)
H57 H 0.9541 0.4839 0.3271
H58 H 0.9081 0.3824 0.3353
C75 C 0.6274(7) 0.7260(6) 0.1355(5)
H59 H 0.6177 0.7741 0.1613
H60 H 0.5758 0.6796 0.1508
C76 C 0.6282(11) 0.7729(8) 0.0634(7)
H61 H 0.5751 0.7505 0.0458
H62 H 0.6214 0.8431 0.0557
C77 C 0.7152(14) 0.7474(16) 0.0337(7)
H63 H 0.7445 0.8048 0.0032
H64 H 0.7050 0.7022 0.0078
C78 C 0.7781(9) 0.7045(10) 0.0804(5)
H65 H 0.8265 0.7501 0.0816
H66 H 0.8114 0.6476 0.0696
C79 C 0.9970(6) 0.6377(6) 0.1871(5)
H67 H 1.0059 0.6474 0.2303
H68 H 0.9804 0.7001 0.1577
C80 C 1.0848(5) 0.5957(6) 0.1588(4)
H69 H 1.1420 0.6125 0.1753
H70 H 1.0924 0.6173 0.1103
C81 C 1.0689(5) 0.4910(6) 0.1819(4)
H71 H 1.1078 0.4560 0.1530
H72 H 1.0844 0.4650 0.2274
C82 C 0.9651(5) 0.4856(5) 0.1780(4)
H73 H 0.9538 0.4844 0.1333
H74 H 0.9389 0.4276 0.2096
C83 C 0.5369(5) 0.5268(6) 0.3024(4)
H75 H 0.5632 0.4613 0.3193
H76 H 0.5088 0.5301 0.2615
C84 C 0.4642(6) 0.5532(6) 0.3521(4)
H77 H 0.4000 0.5338 0.3479
H78 H 0.4801 0.5231 0.3971
C85 C 0.4685(6) 0.6585(6) 0.3369(4)
H79 H 0.4424 0.6827 0.3752
H80 H 0.4336 0.6901 0.2990
C86 C 0.5748(6) 0.6722(6) 0.3207(5)
H81 H 0.5880 0.7352 0.2898
H82 H 0.6050 0.6676 0.3609
C87 C 0.8010(7) 0.8176(6) 0.2281(5)
H83 H 0.7434 0.8523 0.2430
H84 H 0.7997 0.8196 0.1813
C88 C 0.8894(6) 0.8609(5) 0.2372(4)
H85 H 0.9445 0.8468 0.2070
H86 H 0.8806 0.9309 0.2299
C89 C 0.9023(8) 0.8145(6) 0.3059(4)
H87 H 0.8770 0.8563 0.3346
H88 H 0.9709 0.8001 0.3107
C90 C 0.8475(8) 0.7231(7) 0.3240(4)
H89 H 0.8913 0.6670 0.3365
H90 H 0.7980 0.7228 0.3615
C91 C 0.7078(6) 0.4382(6) 0.1529(4)
H91 H 0.7640 0.4510 0.1193
H92 H 0.6569 0.4867 0.1391
C92 C 0.6733(9) 0.3397(6) 0.1611(5)
H93 H 0.6131 0.3428 0.1414
H94 H 0.7216 0.3017 0.1398
C93 C 0.6580(6) 0.2970(6) 0.2325(4)
H95 H 0.5923 0.3111 0.2508
H96 H 0.6696 0.2270 0.2429
C94 C 0.7286(6) 0.3430(5) 0.2580(4)
H97 H 0.7083 0.3425 0.3044
H98 H 0.7917 0.3095 0.2551
C99? C 1.0780(9) 0.4877(10) 0.0080(14)
C100? C 1.0075(11) 0.4211(9) 0.0194(12)
H107? H 1.0221 0.3554 0.0371
C101? C 0.9156(10) 0.4508(12) 0.0047(10)
H108? H 0.8674 0.4052 0.0134
C102? C 0.8932(12) 0.5463(13) -0.023(2)
H109? H 0.8303 0.5657 -0.0328
C103? C 0.9635(12) 0.6133(10) -0.0347(13)
H110? H 0.9497 0.6786 -0.0544
C104? C 1.0543(11) 0.5834(9) -0.0177(9)
H111? H 1.1014 0.6295 -0.0237
C105? C 1.1763(15) 0.4583(19) 0.023(3)
H112? H 1.1804 0.3890 0.0408
H113? H 1.1931 0.4898 0.0553
H114? H 1.2206 0.4767 -0.0173
loop_
_geom_bond_atom_site_label_1
_geom_bond_atom_site_label_2
_geom_bond_site_symmetry_1
_geom_bond_site_symmetry_2
Ca1 O1 1_555 1_555
O1 C71 1_555 1_555
O2 Ca1 1_555 1_555
O3 Ca1 1_555 1_555
O4 Ca1 1_555 1_555
O5 Ca1 1_555 1_555
O6 Ca1 1_555 1_555
O7 C95 1_555 1_555
C1 C2 1_555 1_555
C2 C3 1_555 1_555
C3 C4 1_555 1_555
C4 C5 1_555 1_555
C5 C1 1_555 1_555
C6 C7 1_555 1_555
C7 C8 1_555 1_555
C8 C9 1_555 1_555
C9 C10 1_555 1_555
C10 C6 1_555 1_555
C11 C1 1_555 1_555
C12 C11 1_555 1_555
H1 C12 1_555 1_555
C13 C12 1_555 1_555
H2 C13 1_555 1_555
C14 C13 1_555 1_555
H3 C14 1_555 1_555
C15 C14 1_555 1_555
H4 C15 1_555 1_555
C16 C11 1_555 1_555
H5 C16 1_555 1_555
C17 C2 1_555 1_555
C18 C17 1_555 1_555
H6 C18 1_555 1_555
C19 C18 1_555 1_555
H7 C19 1_555 1_555
C20 C19 1_555 1_555
H8 C20 1_555 1_555
C21 C20 1_555 1_555
H9 C21 1_555 1_555
C22 C17 1_555 1_555
H10 C22 1_555 1_555
C23 C3 1_555 1_555
C24 C23 1_555 1_555
H11 C24 1_555 1_555
C25 C24 1_555 1_555
H12 C25 1_555 1_555
C26 C25 1_555 1_555
H13 C26 1_555 1_555
C27 C26 1_555 1_555
H14 C27 1_555 1_555
C28 C23 1_555 1_555
H15 C28 1_555 1_555
C29 C4 1_555 1_555
C30 C29 1_555 1_555
H16 C30 1_555 1_555
C31 C30 1_555 1_555
H17 C31 1_555 1_555
C32 C31 1_555 1_555
H18 C32 1_555 1_555
C33 C32 1_555 1_555
H19 C33 1_555 1_555
C34 C29 1_555 1_555
H20 C34 1_555 1_555
C35 C5 1_555 1_555
C36 C35 1_555 1_555
H21 C36 1_555 1_555
C37 C36 1_555 1_555
H22 C37 1_555 1_555
C38 C37 1_555 1_555
H23 C38 1_555 1_555
C39 C38 1_555 1_555
H24 C39 1_555 1_555
C40 C35 1_555 1_555
H25 C40 1_555 1_555
C41 C6 1_555 1_555
C42 C41 1_555 1_555
H26 C42 1_555 1_555
C43 C42 1_555 1_555
H27 C43 1_555 1_555
C44 C43 1_555 1_555
H28 C44 1_555 1_555
C45 C44 1_555 1_555
H29 C45 1_555 1_555
C46 C41 1_555 1_555
H30 C46 1_555 1_555
C47 C7 1_555 1_555
C48 C47 1_555 1_555
H31 C48 1_555 1_555
C49 C48 1_555 1_555
H32 C49 1_555 1_555
C50 C49 1_555 1_555
H33 C50 1_555 1_555
C51 C50 1_555 1_555
H34 C51 1_555 1_555
C52 C47 1_555 1_555
H35 C52 1_555 1_555
C53 C8 1_555 1_555
C54 C53 1_555 1_555
H36 C54 1_555 1_555
C55 C54 1_555 1_555
H37 C55 1_555 1_555
C56 C55 1_555 1_555
H38 C56 1_555 1_555
C57 C56 1_555 1_555
H39 C57 1_555 1_555
C58 C53 1_555 1_555
H40 C58 1_555 1_555
C59 C9 1_555 1_555
C60 C59 1_555 1_555
H41 C60 1_555 1_555
C61 C60 1_555 1_555
H42 C61 1_555 1_555
C62 C61 1_555 1_555
H43 C62 1_555 1_555
C63 C62 1_555 1_555
H44 C63 1_555 1_555
C64 C59 1_555 1_555
H45 C64 1_555 1_555
C65 C10 1_555 1_555
C66 C65 1_555 1_555
H46 C66 1_555 1_555
C67 C66 1_555 1_555
H47 C67 1_555 1_555
C68 C67 1_555 1_555
H48 C68 1_555 1_555
C69 C68 1_555 1_555
H49 C69 1_555 1_555
C70 C65 1_555 1_555
H50 C70 1_555 1_555
C71 H51 1_555 1_555
H52 C71 1_555 1_555
C72 C71 1_555 1_555
H53 C72 1_555 1_555
H54 C72 1_555 1_555
C73 C72 1_555 1_555
H55 C73 1_555 1_555
H56 C73 1_555 1_555
C74 O1 1_555 1_555
H57 C74 1_555 1_555
H58 C74 1_555 1_555
C75 O2 1_555 1_555
H59 C75 1_555 1_555
H60 C75 1_555 1_555
C76 C75 1_555 1_555
H61 C76 1_555 1_555
H62 C76 1_555 1_555
C77 C76 1_555 1_555
H63 C77 1_555 1_555
H64 C77 1_555 1_555
C78 O2 1_555 1_555
H65 C78 1_555 1_555
H66 C78 1_555 1_555
C79 O3 1_555 1_555
H67 C79 1_555 1_555
H68 C79 1_555 1_555
C80 C79 1_555 1_555
H69 C80 1_555 1_555
H70 C80 1_555 1_555
C81 C80 1_555 1_555
H71 C81 1_555 1_555
H72 C81 1_555 1_555
C82 O3 1_555 1_555
H73 C82 1_555 1_555
H74 C82 1_555 1_555
C83 O4 1_555 1_555
H75 C83 1_555 1_555
H76 C83 1_555 1_555
C84 C83 1_555 1_555
H77 C84 1_555 1_555
H78 C84 1_555 1_555
C85 C84 1_555 1_555
H79 C85 1_555 1_555
H80 C85 1_555 1_555
C86 O4 1_555 1_555
H81 C86 1_555 1_555
H82 C86 1_555 1_555
C87 O5 1_555 1_555
H83 C87 1_555 1_555
H84 C87 1_555 1_555
C88 C87 1_555 1_555
H85 C88 1_555 1_555
H86 C88 1_555 1_555
C89 C88 1_555 1_555
H87 C89 1_555 1_555
H88 C89 1_555 1_555
C90 O5 1_555 1_555
H89 C90 1_555 1_555
H90 C90 1_555 1_555
C91 O6 1_555 1_555
H91 C91 1_555 1_555
H92 C91 1_555 1_555
C92 C91 1_555 1_555
H93 C92 1_555 1_555
H94 C92 1_555 1_555
C93 C92 1_555 1_555
H95 C93 1_555 1_555
H96 C93 1_555 1_555
C94 O6 1_555 1_555
H97 C94 1_555 1_555
H98 C94 1_555 1_555
C95 H99 1_555 1_555
H100 C95 1_555 1_555
C96 C95 1_555 1_555
H101 C96 1_555 1_555
H102 C96 1_555 1_555
C97 C96 1_555 1_555
H103 C97 1_555 1_555
H104 C97 1_555 1_555
C98 O7 1_555 1_555
H105 C98 1_555 1_555
H106 C98 1_555 1_555
C15 C16 1_555 1_555
C21 C22 1_555 1_555
C27 C28 1_555 1_555
C33 C34 1_555 1_555
C39 C40 1_555 1_555
C45 C46 1_555 1_555
C51 C52 1_555 1_555
C57 C58 1_555 1_555
C63 C64 1_555 1_555
C69 C70 1_555 1_555
C73 C74 1_555 1_555
C77 C78 1_555 1_555
C81 C82 1_555 1_555
C85 C86 1_555 1_555
C89 C90 1_555 1_555
C93 C94 1_555 1_555
C97 C98 1_555 1_555

#END
