
#######################################################################
#
#                 Cambridge Crystallographic Data Centre
#                                CCDC 
#
#######################################################################
#
# If this CIF has been generated from an entry in the Cambridge 
# Structural Database, then it will include bibliographic, chemical, 
# crystal, experimental, refinement or atomic coordinate data resulting 
# from the CCDC's data processing and validation procedures.
#
#######################################################################

data_GOJMUO
_chemical_compound_source        'root of aconitum szechenyianum Gay'
_chemical_formula_moiety         'C36 H49 N1 O12'
_chemical_name_systematic        
'(1\b,3\b,6\b,14\b,15\b,16\a)-3,8-Diacetoxy-20-ethyl-13,15-dihydroxy-1,6,16-trimethoxy-4-(methoxymethyl)aconitan-14-yl benzoate'
_chemical_properties_biological  'antirheumatic and analgesic activities'
_symmetry_cell_setting           orthorhombic
_symmetry_space_group_name_H-M   'P 21 21 21'
_symmetry_Int_Tables_number      19
_space_group_name_Hall           'P 2ac 2ab'
loop_
_symmetry_equiv_pos_site_id
_symmetry_equiv_pos_as_xyz
1 x,y,z
2 1/2-x,-y,1/2+z
3 -x,1/2+y,1/2-z
4 1/2+x,1/2-y,-z
_cell_length_a                   9.2002(8)
_cell_length_b                   11.6454(9)
_cell_length_c                   33.072(3)
_cell_angle_alpha                90
_cell_angle_beta                 90
_cell_angle_gamma                90
_cell_volume                     3543.33
_exptl_crystal_colour            colorless
_exptl_crystal_description       prism
_cell_formula_units_Z            4
_exptl_crystal_recrystallization_method acetonitrile
loop_
_atom_site_label
_atom_site_type_symbol
_atom_site_fract_x
_atom_site_fract_y
_atom_site_fract_z
C1 C 1.2739(4) 0.6811(4) 0.0703(1)
H1 H 1.2657 0.6493 0.0430
O1 O 1.3929(3) 0.6239(2) 0.08968(8)
C2 C 1.5047(5) 0.5889(5) 0.0623(2)
H2 H 1.4637 0.5407 0.0417
H3 H 1.5779 0.5470 0.0768
H4 H 1.5476 0.6554 0.0500
C3 C 1.3129(5) 0.8064(4) 0.0659(1)
H5 H 1.3521 0.8343 0.0913
H6 H 1.3876 0.8145 0.0454
C4 C 1.1843(5) 0.8772(4) 0.0544(1)
H7 H 1.1502 0.8522 0.0278
O2 O 1.2271(4) 0.9963(2) 0.05184(9)
C5 C 1.2914(6) 1.0304(4) 0.0172(2)
C6 C 1.3309(8) 1.1558(4) 0.0190(2)
H8 H 1.4232 1.1676 0.0061
H9 H 1.3369 1.1797 0.0468
H10 H 1.2579 1.2002 0.0054
O3 O 1.3132(4) 0.9686(3) -0.0107(1)
C7 C 1.0032(4) 0.7393(3) 0.0813(1)
H11 H 0.9679 0.7239 0.0538
C8 C 0.8837(5) 0.7091(3) 0.1132(1)
H12 H 0.8155 0.6544 0.1010
O4 O 0.8041(4) 0.8055(2) 0.1275(1)
C9 C 0.669(1) 0.781(1) 0.1447(6)
H13 H 0.6113 0.8499 0.1457
H14 H 0.6822 0.7522 0.1716
H15 H 0.6195 0.7244 0.1287
C11 C 0.9651(4) 0.6489(3) 0.1479(1)
H19 H 0.9376 0.6818 0.1740
O5 O 0.7711(3) 0.5032(2) 0.15184(8)
C12 C 0.7047(5) 0.5135(4) 0.1872(2)
C13 C 0.5454(5) 0.4881(5) 0.1830(2)
H20 H 0.4964 0.5080 0.2076
H21 H 0.5321 0.4078 0.1776
H22 H 0.5060 0.5323 0.1611
O6 O 0.7630(4) 0.5379(3) 0.21849(9)
C14 C 0.9324(4) 0.5188(3) 0.1467(1)
C15 C 0.9508(4) 0.4758(3) 0.1032(1)
H23 H 0.8645 0.4944 0.0870
C16 C 1.0897(4) 0.5263(3) 0.0830(1)
H24 H 1.0748 0.5215 0.0537
C17 C 1.1284(4) 0.6544(3) 0.0926(1)
C18 C 1.2098(4) 0.4359(3) 0.0939(1)
H25 H 1.2526 0.4045 0.0695
H26 H 1.2861 0.4713 0.1098
C19 C 1.1345(5) 0.3419(4) 0.1180(1)
O7 O 1.2049(4) 0.2364(3) 0.1116(1)
H27 H 1.1476 0.1905 0.1016
C20 C 0.9821(5) 0.3474(3) 0.1014(1)
H28 H 0.9799 0.3201 0.0733
O8 O 0.8906(3) 0.2769(2) 0.12668(8)
C21 C 0.7576(5) 0.2478(4) 0.1134(2)
C22 C 0.6823(5) 0.1740(4) 0.1432(1)
C23 C 0.7527(6) 0.1305(4) 0.1763(1)
H29 H 0.8507 0.1465 0.1803
C24 C 0.6777(7) 0.0622(5) 0.2041(2)
H30 H 0.7258 0.0320 0.2265
C25 C 0.5336(7) 0.0401(5) 0.1983(2)
H31 H 0.4824 -0.0041 0.2169
C26 C 0.4654(6) 0.0830(5) 0.1653(2)
H32 H 0.3675 0.0666 0.1613
C27 C 0.5375(6) 0.1502(4) 0.1375(2)
H33 H 0.4886 0.1791 0.1151
O9 O 0.7091(4) 0.2789(3) 0.0818(1)
C28 C 1.0106(5) 0.4441(4) 0.1785(1)
H34 H 0.9376 0.3904 0.1889
O10 O 1.0614(3) 0.5077(3) 0.21253(8)
H35 H 0.9950 0.5472 0.2215
C29 C 1.1376(5) 0.3707(4) 0.1638(1)
H36 H 1.2286 0.4107 0.1700
O11 O 1.1354(4) 0.2636(3) 0.1853(1)
C30 C 1.2054(9) 0.2659(5) 0.2240(2)
H37 H 1.3053 0.2879 0.2207
H38 H 1.2006 0.1911 0.2361
H39 H 1.1572 0.3204 0.2412
C31 C 1.1290(5) 0.6726(4) 0.1385(1)
H40 H 1.1905 0.6149 0.1517
C32 C 1.0586(5) 0.8648(3) 0.0848(1)
C33 C 0.9427(5) 0.9554(4) 0.0752(2)
H41 H 0.8789 0.9648 0.0983
H42 H 0.9891 1.0285 0.0698
O12 O 0.854(2) 0.919(2) 0.0386(5)
C34 C 0.727(3) 0.985(3) 0.0348(7)
H43 H 0.6766 0.9866 0.0602
H44 H 0.6646 0.9506 0.0147
H45 H 0.7512 1.0614 0.0267
C36 C 1.1060(5) 0.8846(4) 0.1290(1)
H49 H 1.1697 0.9509 0.1297
H50 H 1.0204 0.9031 0.1448
N1 N 1.1804(4) 0.7884(3) 0.1483(1)
C37 C 1.1948(7) 0.8124(5) 0.1922(2)
H51 H 1.2090 0.8942 0.1959
H52 H 1.1045 0.7917 0.2055
C38 C 1.3096(8) 0.7536(6) 0.2111(2)
H53 H 1.2952 0.6724 0.2083
H54 H 1.3120 0.7733 0.2393
H55 H 1.3999 0.7751 0.1987
C10? C 0.665(2) 0.816(2) 0.114(1)
H16? H 0.6631 0.8193 0.0854
H17? H 0.6231 0.8853 0.1252
H18? H 0.6089 0.7512 0.1234
O13? O 0.909(5) 0.945(2) 0.039(1)
C35? C 0.808(6) 1.034(4) 0.028(1)
H46? H 0.7218 1.0262 0.0445
H47? H 0.7829 1.0274 0.0002
H48? H 0.8513 1.1076 0.0332
loop_
_geom_bond_atom_site_label_1
_geom_bond_atom_site_label_2
_geom_bond_site_symmetry_1
_geom_bond_site_symmetry_2
C1 H1 1_555 1_555
O1 C1 1_555 1_555
C2 O1 1_555 1_555
H2 C2 1_555 1_555
H3 C2 1_555 1_555
H4 C2 1_555 1_555
C3 C1 1_555 1_555
H5 C3 1_555 1_555
H6 C3 1_555 1_555
C4 C3 1_555 1_555
H7 C4 1_555 1_555
O2 C4 1_555 1_555
C5 O2 1_555 1_555
C6 C5 1_555 1_555
H8 C6 1_555 1_555
H9 C6 1_555 1_555
H10 C6 1_555 1_555
O3 C5 1_555 1_555
C7 H11 1_555 1_555
C8 C7 1_555 1_555
H12 C8 1_555 1_555
O4 C8 1_555 1_555
C9 O4 1_555 1_555
H13 C9 1_555 1_555
H14 C9 1_555 1_555
H15 C9 1_555 1_555
C11 C8 1_555 1_555
H19 C11 1_555 1_555
O5 C12 1_555 1_555
C12 C13 1_555 1_555
C13 H20 1_555 1_555
H21 C13 1_555 1_555
H22 C13 1_555 1_555
O6 C12 1_555 1_555
C14 C11 1_555 1_555
C15 C14 1_555 1_555
H23 C15 1_555 1_555
C16 C15 1_555 1_555
H24 C16 1_555 1_555
C17 C1 1_555 1_555
C18 C16 1_555 1_555
H25 C18 1_555 1_555
H26 C18 1_555 1_555
C19 C18 1_555 1_555
O7 C19 1_555 1_555
H27 O7 1_555 1_555
C20 C15 1_555 1_555
H28 C20 1_555 1_555
O8 C20 1_555 1_555
C21 O8 1_555 1_555
C22 C21 1_555 1_555
C23 C22 1_555 1_555
H29 C23 1_555 1_555
C24 C23 1_555 1_555
H30 C24 1_555 1_555
C25 C24 1_555 1_555
H31 C25 1_555 1_555
C26 C25 1_555 1_555
H32 C26 1_555 1_555
C27 C22 1_555 1_555
H33 C27 1_555 1_555
O9 C21 1_555 1_555
C28 C14 1_555 1_555
H34 C28 1_555 1_555
O10 C28 1_555 1_555
H35 O10 1_555 1_555
C29 C19 1_555 1_555
H36 C29 1_555 1_555
O11 C29 1_555 1_555
C30 O11 1_555 1_555
H37 C30 1_555 1_555
H38 C30 1_555 1_555
H39 C30 1_555 1_555
C31 C11 1_555 1_555
H40 C31 1_555 1_555
C32 C4 1_555 1_555
C33 C32 1_555 1_555
H41 C33 1_555 1_555
H42 C33 1_555 1_555
O12 C33 1_555 1_555
C34 O12 1_555 1_555
H43 C34 1_555 1_555
H44 C34 1_555 1_555
H45 C34 1_555 1_555
C36 C32 1_555 1_555
H49 C36 1_555 1_555
H50 C36 1_555 1_555
N1 C31 1_555 1_555
C37 N1 1_555 1_555
H51 C37 1_555 1_555
H52 C37 1_555 1_555
C38 C37 1_555 1_555
H53 C38 1_555 1_555
H54 C38 1_555 1_555
H55 C38 1_555 1_555
C7 C17 1_555 1_555
C7 C32 1_555 1_555
O5 C14 1_555 1_555
C16 C17 1_555 1_555
C17 C31 1_555 1_555
C19 C20 1_555 1_555
C26 C27 1_555 1_555
C28 C29 1_555 1_555
C36 N1 1_555 1_555

#END
