
#######################################################################
#
#                 Cambridge Crystallographic Data Centre
#                                CCDC 
#
#######################################################################
#
# If this CIF has been generated from an entry in the Cambridge 
# Structural Database, then it will include bibliographic, chemical, 
# crystal, experimental, refinement or atomic coordinate data resulting 
# from the CCDC's data processing and validation procedures.
#
#######################################################################

data_GOJRIH
_chemical_formula_moiety         
'C192 H240 N120 O78 Sr12 24+,2(C64 H82 N40 O27 Sr4 8+),2(C32 H42 N20 O14 Sr2 4+),48(Cl1 1-),188(H2 O1)'
_chemical_name_systematic        
"tris(\m~4~-\a,\a'-dimethyl-cucurbit(5)uril)-tris(\m~2~-\a,\a'-dimethyl-cucurbit(5)uril)-dodecakis(\m~2~-aqua)-hexa-aqua-dodeca-strontium bis((\m~3~-\a,\a'-dimethyl-cucurbit(5)uril)-(\m~2~-\a,\a'-dimethyl-cucurbit(5)uril)-bis(\m~2~-aqua)-penta-aqua-tetra-strontium) bis((\m~2~-\a,\a'-dimethyl-cucurbit(5)uril)-tetra-auqa-di-strontium) hexatriacontachloride dodecachloride clathrate hydrate"
_symmetry_cell_setting           triclinic
_symmetry_space_group_name_H-M   'P -1'
_symmetry_Int_Tables_number      2
_space_group_name_Hall           '-P 1'
loop_
_symmetry_equiv_pos_site_id
_symmetry_equiv_pos_as_xyz
1 x,y,z
2 -x,-y,-z
_cell_length_a                   27.7887(19)
_cell_length_b                   35.544(3)
_cell_length_c                   36.548(3)
_cell_angle_alpha                60.922(3)
_cell_angle_beta                 84.036(4)
_cell_angle_gamma                89.995(4)
_cell_volume                     31325.7
_cell_formula_units_Z            2
loop_
_atom_site_label
_atom_site_type_symbol
_atom_site_fract_x
_atom_site_fract_y
_atom_site_fract_z
O19 O 0.9503(4) 0.6997(4) 0.1373(4)
O20 O 0.8571(5) 0.6908(4) 0.1851(4)
O21 O 0.9582(3) 0.3438(3) 0.3426(3)
O22 O 0.8565(3) 0.3415(3) 0.3510(3)
O23 O 0.9063(3) 0.2660(3) 0.4222(3)
O24 O 0.9031(3) 0.0971(3) 0.2383(3)
O25 O 0.8711(7) 0.1766(7) 0.1699(6)
C55 C 0.9901(6) 0.5851(5) 0.2628(5)
C56 C 0.9981(6) 0.5224(5) 0.3272(5)
C57 C 1.0388(6) 0.5265(6) 0.2921(5)
C58 C 0.9898(5) 0.4653(5) 0.3156(5)
C59 C 1.0538(6) 0.5833(6) 0.2146(6)
C60 C 1.0575(5) 0.4742(5) 0.2638(5)
C61 C 1.0115(6) 0.5867(5) 0.1586(5)
C62 C 1.0604(6) 0.5302(6) 0.1862(5)
C63 C 1.0364(6) 0.5299(5) 0.1503(5)
C64 C 1.0121(5) 0.4663(5) 0.2131(5)
C65 C 0.9791(6) 0.5824(6) 0.1001(6)
C66 C 0.9795(6) 0.4728(5) 0.1509(5)
C67 C 0.8917(5) 0.5829(5) 0.1241(4)
C68 C 0.9134(5) 0.5249(5) 0.1133(4)
C69 C 0.8578(5) 0.5212(5) 0.1257(4)
C70 C 0.8924(5) 0.4629(4) 0.1795(4)
C71 C 0.8031(5) 0.5718(4) 0.1418(4)
C72 C 0.8038(5) 0.4614(4) 0.1919(4)
C73 C 0.7987(4) 0.5741(4) 0.2077(4)
C74 C 0.7614(4) 0.5119(4) 0.2136(4)
C75 C 0.7544(5) 0.5099(4) 0.2573(4)
C76 C 0.7988(5) 0.4509(4) 0.2629(4)
C77 C 0.7770(5) 0.5668(5) 0.2781(4)
C78 C 0.7779(4) 0.4548(4) 0.3278(4)
C79 C 0.8586(5) 0.5747(4) 0.2956(4)
C80 C 0.8141(5) 0.5119(5) 0.3454(4)
C81 C 0.8631(5) 0.5140(5) 0.3608(5)
C82 C 0.8604(5) 0.4552(5) 0.3478(4)
C83 C 0.9323(6) 0.5754(6) 0.3241(5)
C84 C 0.9341(5) 0.4637(5) 0.3724(5)
C85 C 0.7676(5) 0.5094(5) 0.3773(5)
C86 C 0.8603(6) 0.5132(6) 0.4047(6)
C87 C 0.9026(4) 0.3409(4) 0.2405(4)
C88 C 0.9261(5) 0.3441(5) 0.1760(5)
C89 C 0.8697(5) 0.3416(5) 0.1833(4)
C90 C 0.8972(5) 0.2816(4) 0.1794(4)
C91 C 0.8124(5) 0.3365(5) 0.2468(5)
C92 C 0.8087(5) 0.2829(5) 0.1890(4)
C93 C 0.7941(5) 0.2710(4) 0.3138(4)
C94 C 0.7619(5) 0.2696(5) 0.2585(5)
C95 C 0.7454(5) 0.2273(5) 0.2995(4)
C96 C 0.7902(5) 0.2116(4) 0.2520(4)
C97 C 0.7604(5) 0.2021(5) 0.3752(5)
C98 C 0.7581(5) 0.1493(5) 0.3182(5)
C99 C 0.8389(5) 0.1729(4) 0.3998(4)
C100 C 0.7914(5) 0.1266(5) 0.3904(5)
C101 C 0.8381(6) 0.1043(5) 0.4075(5)
C102 C 0.8329(5) 0.1157(5) 0.3390(5)
C103 C 0.9088(6) 0.1306(6) 0.4311(5)
C104 C 0.9067(6) 0.0757(5) 0.3736(5)
C105 C 0.9741(5) 0.1816(5) 0.3823(4)
C106 C 0.9750(6) 0.1132(6) 0.3882(5)
C107 C 1.0194(6) 0.1428(5) 0.3577(5)
C108 C 0.9696(5) 0.1225(5) 0.3220(5)
C109 C 1.0477(6) 0.2210(5) 0.3350(5)
C110 C 1.0441(6) 0.1660(5) 0.2789(5)
C111 C 1.0111(5) 0.2835(4) 0.2828(4)
C112 C 1.0576(5) 0.2466(5) 0.2547(5)
C113 C 1.0408(6) 0.2867(5) 0.2187(5)
C114 C 1.0092(5) 0.2249(5) 0.2211(5)
C115 C 0.9898(5) 0.3482(5) 0.2198(4)
C116 C 0.9858(6) 0.2939(5) 0.1634(5)
C117 C 0.9481(10) 0.3862(10) 0.1347(9)
C118 C 0.8446(9) 0.3791(8) 0.1496(8)
N21 N 0.9739(5) 0.5624(4) 0.3044(4)
N22 N 1.0294(5) 0.5679(5) 0.2535(5)
N23 N 0.9711(5) 0.4840(4) 0.3381(4)
N24 N 1.0288(4) 0.4888(4) 0.2890(4)
N25 N 1.0404(5) 0.5673(4) 0.1887(4)
N26 N 1.0090(5) 0.5683(5) 0.1346(4)
N27 N 1.0440(5) 0.4896(4) 0.2225(4)
N28 N 1.0077(5) 0.4900(4) 0.1723(4)
N29 N 0.9288(4) 0.5635(4) 0.1139(4)
N30 N 0.8493(4) 0.5595(4) 0.1290(4)
N31 N 0.9289(4) 0.4850(4) 0.1484(4)
N32 N 0.8509(4) 0.4813(4) 0.1672(3)
N33 N 0.7910(4) 0.5518(3) 0.1869(3)
N34 N 0.7795(4) 0.5498(3) 0.2482(3)
N35 N 0.7893(4) 0.4738(4) 0.2223(3)
N36 N 0.7795(4) 0.4718(3) 0.2837(3)
N37 N 0.8152(4) 0.5515(3) 0.3051(3)
N38 N 0.8859(4) 0.5552(4) 0.3254(4)
N39 N 0.8159(4) 0.4741(4) 0.3407(3)
N40 N 0.8869(4) 0.4765(4) 0.3618(4)
N41 N 0.9405(4) 0.3458(4) 0.2132(4)
N42 N 0.8611(4) 0.3377(3) 0.2253(3)
N43 N 0.9372(4) 0.3059(4) 0.1740(3)
N44 N 0.8574(4) 0.3019(4) 0.1842(4)
N45 N 0.7914(4) 0.2928(4) 0.2728(3)
N46 N 0.7670(4) 0.2321(4) 0.3315(4)
N47 N 0.7891(4) 0.2554(4) 0.2322(4)
N48 N 0.7682(4) 0.1948(4) 0.2919(4)
N49 N 0.7961(4) 0.1681(4) 0.3880(3)
N50 N 0.8625(4) 0.1358(4) 0.4128(4)
N51 N 0.7918(4) 0.1286(4) 0.3493(4)
N52 N 0.8602(4) 0.0989(4) 0.3731(4)
N53 N 0.9512(4) 0.1421(4) 0.4015(4)
N54 N 1.0140(4) 0.1826(4) 0.3586(4)
N55 N 0.9488(4) 0.1036(4) 0.3602(4)
N56 N 1.0124(5) 0.1462(4) 0.3163(4)
N57 N 1.0377(4) 0.2480(4) 0.2928(4)
N58 N 1.0124(4) 0.3057(4) 0.2403(4)
N59 N 1.0366(4) 0.2114(4) 0.2518(4)
N60 N 1.0102(4) 0.2691(4) 0.1998(4)
O74 O 0.9742(4) 0.6200(4) 0.2365(3)
O75 O 0.9898(4) 0.6196(4) 0.1529(4)
O76 O 0.8942(4) 0.6162(3) 0.1262(3)
O77 O 0.8190(3) 0.6089(3) 0.1921(3)
O78 O 0.8680(3) 0.6100(3) 0.2626(3)
O79 O 0.9731(3) 0.4315(3) 0.3201(3)
O80 O 0.9938(3) 0.4311(3) 0.2386(3)
O81 O 0.8970(3) 0.4284(3) 0.2116(3)
O82 O 0.8191(3) 0.4176(3) 0.2788(3)
O83 O 0.8698(3) 0.4238(3) 0.3451(3)
O84 O 0.9041(3) 0.3404(3) 0.2739(3)
O85 O 0.8159(3) 0.2828(3) 0.3348(3)
O86 O 0.8527(3) 0.2055(3) 0.4015(3)
O87 O 0.9607(3) 0.2113(3) 0.3881(3)
O88 O 0.9905(3) 0.2922(3) 0.3084(3)
O89 O 0.8960(3) 0.2475(3) 0.1783(3)
O90 O 0.8091(3) 0.1918(3) 0.2355(3)
O91 O 0.8462(3) 0.1138(3) 0.3060(3)
O92 O 0.9541(3) 0.1212(3) 0.2913(3)
O93 O 0.9864(3) 0.2020(3) 0.2098(3)
Sr13 Sr 0.90949(5) 0.62658(4) 0.18917(5)
Sr14 Sr 0.91108(5) 0.40901(4) 0.28688(4)
Sr15 Sr 0.90652(4) 0.27496(4) 0.35051(4)
Sr16 Sr 0.89799(5) 0.16923(4) 0.23841(4)
O26 O 0.5499(4) 0.8372(4) 0.8632(4)
O27 O 0.6421(4) 0.8745(4) 0.8166(4)
O28 O 0.6439(3) 0.6927(3) 0.6492(3)
O29 O 0.5415(3) 0.6865(3) 0.6571(3)
O30 O 0.5939(3) 0.6885(3) 0.5777(3)
O31 O 0.5971(4) 0.3350(3) 0.7620(3)
O32 O 0.6295(7) 0.3446(6) 0.8307(6)
C1 C 0.5983(5) 0.5813(4) 0.7594(4)
C2 C 0.5739(5) 0.5202(5) 0.8247(5)
C3 C 0.6299(5) 0.5249(5) 0.8163(5)
C4 C 0.6028(5) 0.4611(4) 0.8204(4)
C5 C 0.6859(5) 0.5827(4) 0.7549(4)
C6 C 0.6932(5) 0.4722(5) 0.8105(5)
C7 C 0.7054(5) 0.5846(4) 0.6860(4)
C8 C 0.7388(5) 0.5285(5) 0.7406(4)
C9 C 0.7538(5) 0.5268(5) 0.7005(5)
C10 C 0.7097(5) 0.4633(4) 0.7480(4)
C11 C 0.7394(5) 0.5768(5) 0.6245(5)
C12 C 0.7418(5) 0.4679(5) 0.6810(5)
C13 C 0.6614(5) 0.5735(5) 0.5997(4)
C14 C 0.7092(6) 0.5165(5) 0.6094(5)
C15 C 0.6624(6) 0.5111(5) 0.5917(5)
C16 C 0.6667(5) 0.4552(5) 0.6606(5)
C17 C 0.5921(6) 0.5618(6) 0.5679(5)
C18 C 0.5959(6) 0.4508(5) 0.6257(5)
C19 C 0.5255(5) 0.5648(5) 0.6178(4)
C20 C 0.5527(11) 0.5175(11) 0.8686(10)
C21 C 0.6576(9) 0.5294(8) 0.8485(8)
C54 C 0.6389(6) 0.9167(6) 0.5960(5)
C119 C 0.5092(6) 0.8486(6) 0.7372(6)
C120 C 0.5023(7) 0.8505(6) 0.6722(6)
C121 C 0.4614(6) 0.8204(6) 0.7069(6)
C122 C 0.5111(5) 0.7820(5) 0.6834(4)
C123 C 0.4454(7) 0.7982(7) 0.7862(6)
C124 C 0.4409(6) 0.7387(6) 0.7356(6)
C125 C 0.4885(6) 0.7452(6) 0.8420(5)
C126 C 0.4382(6) 0.7164(6) 0.8148(6)
C127 C 0.4643(6) 0.6801(5) 0.8503(5)
C128 C 0.4873(6) 0.6802(5) 0.7871(5)
C129 C 0.5201(6) 0.6827(6) 0.9000(6)
C130 C 0.5216(6) 0.6232(5) 0.8493(5)
C131 C 0.6084(5) 0.7062(5) 0.8766(5)
C132 C 0.5860(5) 0.6385(5) 0.8864(5)
C133 C 0.6419(5) 0.6470(5) 0.8743(4)
C134 C 0.6063(5) 0.6415(4) 0.8212(4)
C135 C 0.6969(4) 0.7136(4) 0.8581(4)
C136 C 0.6964(5) 0.6518(5) 0.8081(4)
C137 C 0.7015(4) 0.7822(4) 0.7921(4)
C138 C 0.7381(5) 0.7244(4) 0.7866(4)
C139 C 0.7451(5) 0.7668(4) 0.7429(4)
C140 C 0.7018(5) 0.7145(4) 0.7371(4)
C141 C 0.7233(5) 0.8459(4) 0.7218(4)
C142 C 0.7227(5) 0.7842(4) 0.6710(4)
C143 C 0.6424(5) 0.8703(4) 0.7059(4)
C144 C 0.6874(5) 0.8574(4) 0.6546(4)
C145 C 0.6360(5) 0.8752(5) 0.6398(5)
C146 C 0.6406(5) 0.8046(4) 0.6514(4)
C147 C 0.5665(7) 0.9000(6) 0.6758(6)
C148 C 0.5644(6) 0.8364(5) 0.6279(5)
C149 C 0.7326(5) 0.8860(5) 0.6234(5)
C150 C 0.5251(6) 0.5015(5) 0.6119(5)
C151 C 0.4806(6) 0.5011(5) 0.6422(5)
C152 C 0.5302(5) 0.4459(5) 0.6784(5)
C153 C 0.4523(5) 0.5548(5) 0.6640(5)
C154 C 0.4553(5) 0.4460(5) 0.7202(5)
C155 C 0.4891(4) 0.5669(4) 0.7172(4)
C156 C 0.4423(5) 0.5010(5) 0.7445(5)
C157 C 0.4596(6) 0.5058(5) 0.7820(5)
C158 C 0.4913(5) 0.4451(5) 0.7801(4)
C159 C 0.5096(5) 0.5682(5) 0.7801(5)
C160 C 0.5151(5) 0.4571(5) 0.8363(4)
N61 N 0.5255(5) 0.8672(4) 0.6959(4)
N62 N 0.4713(5) 0.8227(5) 0.7450(5)
N63 N 0.5278(5) 0.8229(4) 0.6618(4)
N64 N 0.4712(5) 0.7794(4) 0.7105(4)
N65 N 0.4600(5) 0.7551(5) 0.8117(5)
N66 N 0.4910(5) 0.7028(4) 0.8659(4)
N67 N 0.4560(4) 0.7121(4) 0.7782(4)
N68 N 0.4935(5) 0.6617(4) 0.8290(4)
N69 N 0.5701(4) 0.6774(4) 0.8866(4)
N70 N 0.6505(4) 0.6884(4) 0.8711(4)
N71 N 0.5717(4) 0.6341(4) 0.8507(4)
N72 N 0.6490(4) 0.6491(4) 0.8329(4)
N73 N 0.7091(4) 0.7385(3) 0.8136(3)
N74 N 0.7208(4) 0.7983(3) 0.7516(3)
N75 N 0.7108(4) 0.6967(4) 0.7774(4)
N76 N 0.7202(4) 0.7560(3) 0.7167(3)
N77 N 0.6851(4) 0.8578(4) 0.6950(3)
N78 N 0.6138(4) 0.8814(4) 0.6742(4)
N79 N 0.6851(4) 0.8152(4) 0.6588(3)
N80 N 0.6130(4) 0.8394(4) 0.6379(4)
N81 N 0.5595(4) 0.5580(4) 0.7878(4)
N82 N 0.6396(4) 0.5633(3) 0.7744(3)
N83 N 0.5629(4) 0.4793(4) 0.8265(4)
N84 N 0.6418(4) 0.4856(4) 0.8165(3)
N85 N 0.7094(4) 0.5656(4) 0.7272(4)
N86 N 0.7325(4) 0.5627(4) 0.6689(4)
N87 N 0.7114(4) 0.4878(3) 0.7677(3)
N88 N 0.7319(4) 0.4867(4) 0.7088(4)
N89 N 0.7035(4) 0.5555(4) 0.6122(3)
N90 N 0.6372(4) 0.5493(4) 0.5865(4)
N91 N 0.7077(4) 0.4767(4) 0.6505(3)
N92 N 0.6397(4) 0.4714(4) 0.6268(4)
N93 N 0.5490(4) 0.5442(4) 0.5979(4)
N94 N 0.4852(4) 0.5420(4) 0.6408(4)
N95 N 0.5525(4) 0.4650(4) 0.6393(4)
N96 N 0.4886(5) 0.4627(4) 0.6828(4)
N97 N 0.4618(4) 0.5413(4) 0.7072(4)
N98 N 0.4875(4) 0.5468(4) 0.7593(4)
N99 N 0.4636(4) 0.4632(4) 0.7478(4)
N100 N 0.4900(4) 0.4688(4) 0.8001(3)
O94 O 0.5252(4) 0.8584(4) 0.7633(3)
O95 O 0.5102(4) 0.7730(4) 0.8470(4)
O96 O 0.6060(4) 0.7425(3) 0.8743(3)
O97 O 0.6817(3) 0.8017(3) 0.8080(3)
O98 O 0.6319(3) 0.8727(3) 0.7376(3)
O99 O 0.5269(3) 0.7504(3) 0.6806(3)
O100 O 0.5059(3) 0.6699(3) 0.7616(3)
O101 O 0.6028(3) 0.6403(3) 0.7888(3)
O102 O 0.6804(3) 0.6965(3) 0.7210(3)
O103 O 0.6301(3) 0.7692(3) 0.6546(3)
O104 O 0.5961(3) 0.6144(3) 0.7260(3)
O105 O 0.6836(3) 0.6171(3) 0.6654(3)
O106 O 0.6470(3) 0.6071(3) 0.5984(3)
O107 O 0.5399(3) 0.5996(3) 0.6119(3)
O108 O 0.5095(3) 0.6007(3) 0.6912(3)
O109 O 0.6038(3) 0.4260(3) 0.8216(3)
O110 O 0.6907(3) 0.4271(3) 0.7646(3)
O111 O 0.6537(3) 0.4213(3) 0.6944(3)
O112 O 0.5467(3) 0.4128(3) 0.7082(3)
O113 O 0.5137(3) 0.4114(3) 0.7905(3)
Sr17 Sr 0.59053(5) 0.81601(5) 0.81080(5)
Sr18 Sr 0.58895(5) 0.69608(4) 0.71313(4)
Sr19 Sr 0.59348(5) 0.62558(4) 0.64941(4)
Sr20 Sr 0.60202(5) 0.40758(4) 0.76162(4)
O33 O 0.6716(4) 0.4169(3) 0.3317(3)
O34 O 0.7154(6) 0.3423(6) 0.3315(5)
O35 O 0.6246(4) 0.2424(3) 0.6764(3)
O36 O 0.6537(7) 0.1646(6) 0.6748(6)
C22 C 0.5791(5) 0.2745(4) 0.4424(4)
C23 C 0.5535(5) 0.2086(4) 0.5030(4)
C24 C 0.5231(5) 0.2436(5) 0.5021(5)
C25 C 0.5622(5) 0.2127(4) 0.5612(4)
C26 C 0.5225(5) 0.3254(5) 0.4488(5)
C27 C 0.5077(5) 0.2704(5) 0.5561(5)
C28 C 0.5852(5) 0.3777(4) 0.4441(4)
C29 C 0.5269(5) 0.3517(5) 0.5036(4)
C30 C 0.5597(5) 0.3840(5) 0.5027(5)
C31 C 0.5671(5) 0.3184(5) 0.5615(5)
C32 C 0.6323(6) 0.4323(5) 0.4509(5)
C33 C 0.6159(5) 0.3770(5) 0.5595(5)
C34 C 0.7136(5) 0.4055(4) 0.4454(4)
C35 C 0.6926(5) 0.4137(5) 0.5054(5)
C36 C 0.7463(5) 0.3986(4) 0.5040(4)
C37 C 0.6972(5) 0.3460(4) 0.5639(4)
C38 C 0.7989(5) 0.3849(4) 0.4515(4)
C39 C 0.7822(5) 0.3296(4) 0.5601(4)
C40 C 0.7873(4) 0.3192(4) 0.4438(4)
C41 C 0.8197(5) 0.3090(4) 0.5043(4)
C42 C 0.8159(5) 0.2663(4) 0.5040(4)
C43 C 0.7693(5) 0.2589(4) 0.5639(4)
C44 C 0.7900(4) 0.2486(4) 0.4489(4)
C45 C 0.7746(5) 0.1933(4) 0.5568(4)
C46 C 0.7052(4) 0.2356(4) 0.4441(4)
C47 C 0.7353(4) 0.1797(4) 0.5028(4)
C48 C 0.6804(4) 0.1687(4) 0.5014(4)
C49 C 0.6889(4) 0.1765(4) 0.5607(4)
C50 C 0.6209(4) 0.2112(4) 0.4469(4)
C51 C 0.6061(5) 0.1563(4) 0.5559(4)
C52 C 0.7712(5) 0.1484(5) 0.5016(4)
C53 C 0.6703(5) 0.1256(5) 0.5022(5)
N1 N 0.5877(4) 0.2318(3) 0.4635(3)
N2 N 0.5422(4) 0.2830(3) 0.4634(3)
N3 N 0.5761(4) 0.1932(3) 0.5399(3)
N4 N 0.5308(4) 0.2441(4) 0.5406(4)
N5 N 0.5446(4) 0.3508(4) 0.4645(4)
N6 N 0.5936(4) 0.3988(4) 0.4659(4)
N7 N 0.5331(4) 0.3116(4) 0.5415(4)
N8 N 0.5832(4) 0.3586(4) 0.5429(4)
N9 N 0.6782(4) 0.4164(4) 0.4664(4)
N10 N 0.7537(4) 0.3967(4) 0.4665(4)
N11 N 0.6676(4) 0.3769(4) 0.5434(4)
N12 N 0.7423(4) 0.3574(4) 0.5440(3)
N13 N 0.8003(4) 0.3386(4) 0.4660(3)
N14 N 0.7961(4) 0.2769(3) 0.4648(3)
N15 N 0.7887(4) 0.3000(3) 0.5432(3)
N16 N 0.7837(4) 0.2389(3) 0.5417(3)
N17 N 0.7451(4) 0.2222(3) 0.4645(3)
N18 N 0.6680(3) 0.2054(3) 0.4633(3)
N19 N 0.7334(3) 0.1828(3) 0.5409(3)
N20 N 0.6565(4) 0.1660(3) 0.5401(3)
O64 O 0.6015(3) 0.3010(3) 0.4084(3)
O65 O 0.6074(3) 0.3827(3) 0.4117(3)
O66 O 0.7100(3) 0.4049(3) 0.4131(3)
O67 O 0.7722(3) 0.3385(3) 0.4094(3)
O68 O 0.7031(3) 0.2704(3) 0.4123(3)
O69 O 0.5741(3) 0.2052(3) 0.5969(3)
O70 O 0.5816(3) 0.2893(3) 0.5951(3)
O71 O 0.6853(3) 0.3116(3) 0.5959(3)
O72 O 0.7446(3) 0.2430(3) 0.5978(3)
O73 O 0.6767(3) 0.1788(3) 0.5928(3)
Sr21 Sr 0.68065(5) 0.34570(4) 0.39829(4)
Sr22 Sr 0.65061(5) 0.23847(4) 0.60887(4)
Cl1 Cl 0.4857(4) -0.1436(4) 1.3264(3)
Cl2 Cl 0.8379(4) 0.5258(4) 0.5939(4)
O37 O 0.9137(10) 0.7200(10) 0.8941(9)
O38 O 0.8820(12) 0.4408(12) 0.0897(11)
O39 O 0.6178(14) 0.5314(14) 0.9094(12)
O40 O 0.9561(9) 0.0033(9) 0.8884(8)
O41 O 0.5930(11) 0.9519(11) 0.7558(10)
O42 O 0.7580(10) 0.6076(9) 0.9108(9)
O43 O 0.8355(10) 0.6552(9) 0.8417(9)
O44 O 0.5836(9) 0.6147(9) 0.1038(8)
O45 O 0.3351(13) 0.7121(13) 0.6914(12)
O47 O 0.6484(12) 0.3542(12) 1.1722(11)
O48 O 0.5442(11) -0.1060(10) 1.1091(9)
O49 O 0.5356(10) 0.2062(10) 0.3988(9)
O50 O 0.9614(10) 0.6052(10) 0.6060(9)
O51 O 0.7738(17) 0.0174(17) 0.9236(15)
O52 O 0.6644(10) 0.4956(10) 0.1599(9)
O53 O 0.8339(10) 0.5940(10) 0.6925(9)
O54 O 0.9262(15) 0.6121(14) 0.8674(13)
O55 O 1.0082(12) 0.2881(12) 0.6139(11)
O56 O 0.9049(12) 0.7113(12) 0.2401(11)
O57 O 0.4234(14) 0.5193(13) 0.8727(12)
O58 O 0.736(2) -0.051(2) 1.0735(18)
O59 O 0.8538(12) 0.5246(12) 0.8296(11)
O60 O 0.9858(14) 0.3823(13) 1.0361(12)
O61 O 0.5154(12) 0.4219(12) 0.9616(11)
O62 O 0.4936(11) -0.0948(11) 1.3862(10)
O63 O 0.9607(15) -0.0040(15) 0.4592(13)
Cl3 Cl 0.89942(12) 0.17945(11) 0.50313(10)
Cl4 Cl 0.60067(12) -0.31750(11) 1.49687(11)
Cl5 Cl 0.89268(13) 0.00724(12) 0.32432(11)
Cl6 Cl 0.39259(13) -0.33137(12) 1.32444(12)
Cl7 Cl 0.65468(12) 0.50397(11) 0.33232(11)
Cl8 Cl 1.15480(13) 0.16349(12) 0.33228(11)
Cl9 Cl 0.66608(16) 0.20228(15) 0.25311(14)
Cl10 Cl 0.83404(16) 0.45552(15) 0.74678(14)
Cl11 Cl 0.6670(2) 0.5789(2) 0.1672(2)
Cl12 Cl 0.8336(2) 0.7463(2) 0.8325(2)
Cl13 Cl 0.9370(3) 0.3423(3) 0.4331(2)
Cl14 Cl 0.5615(3) 0.7754(3) 0.5671(2)
Cl15 Cl 0.9205(3) 0.2720(3) 0.5769(3)
Cl16 Cl 0.5808(4) 0.8482(4) 0.4240(3)
Cl17 Cl 0.4761(4) 0.9579(4) 0.5942(3)
Cl18 Cl 0.9077(4) 0.7825(4) 0.1441(4)
Cl19 Cl 1.0240(3) 0.5533(3) 0.4051(3)
Cl20 Cl 0.5904(4) 0.9254(4) 0.8572(4)
Cl21 Cl 0.6374(5) 0.5101(5) 0.4970(4)
Cl22 Cl 0.6360(4) 0.0226(4) 0.5946(4)
Cl23 Cl 0.8636(5) 0.0073(5) 0.5023(5)
Cl24 Cl 0.8638(4) -0.3839(4) 1.4056(4)
Cl25 Cl 0.6796(6) 0.4242(6) 0.2436(6)
Cl26 Cl 0.4922(4) 0.7671(4) 0.9523(4)
Cl27 Cl 1.0154(5) 0.0663(4) 0.9672(4)
Cl28 Cl 0.6609(5) 0.1203(5) 0.4053(4)
Cl29 Cl 1.0071(4) 0.7175(4) 0.0485(4)
Cl30 Cl 1.0135(5) 0.1805(5) 0.6753(4)
Cl31 Cl 0.4843(5) 0.0333(4) 1.0338(4)
Cl32 Cl 0.4389(5) 0.6850(5) 0.6670(4)
Cl33 Cl 0.8149(5) 0.6650(5) 0.7574(4)
Cl34 Cl 1.0604(5) 0.3515(4) 0.3319(4)
Cl35 Cl 0.7499(2) 0.3259(2) 1.0001(3)
Cl36 Cl 0.6695(2) 0.0276(2) 1.22020(17)
Cl37 Cl 0.65707(17) -0.27818(16) 1.28932(16)
Cl38 Cl 0.74991(18) -0.21346(16) 1.00043(18)
Cl39 Cl 0.84271(17) 0.01162(19) 0.71054(15)
Cl40 Cl 0.8303(2) 0.24799(17) 0.77985(17)
Cl41 Cl 0.91007(16) 0.52498(16) 0.23453(15)
Cl42 Cl 0.90176(15) 0.21914(13) 0.29040(13)
Cl43 Cl 0.59018(16) 0.75991(15) 0.76539(14)
Cl44 Cl 0.59848(15) 0.50954(14) 0.70951(13)
Cl45 Cl 0.66543(14) 0.29290(13) 0.50259(13)
Cl46 Cl 0.83423(14) 0.79549(13) 0.49746(13)
O1 O 0.8101(5) 0.4535(4) 0.8290(4)
O2 O 0.8533(8) 0.3612(7) 0.8485(7)
O3 O 0.7717(5) 0.3754(5) 0.8244(5)
O4 O 0.6891(5) 0.2826(4) 1.1708(4)
O5 O 0.7279(5) 0.1997(4) 1.1758(4)
O6 O 0.6456(8) 0.2093(8) 1.1528(7)
O7 O 0.6882(3) -0.1527(3) 1.3419(3)
O8 O 0.5884(3) -0.1522(3) 1.3343(3)
O9 O 0.6174(3) -0.2275(3) 1.4168(3)
O10 O 0.6703(3) -0.4102(3) 1.2450(3)
O11 O 0.6455(3) -0.3289(3) 1.1648(3)
O12 O 0.7434(4) -0.3324(4) 1.1768(4)
O13 O 0.7573(4) -0.1553(4) 0.8224(3)
O14 O 0.8543(3) -0.1639(3) 0.8353(3)
O15 O 0.8285(3) -0.1648(3) 0.7548(3)
O16 O 0.8823(3) 0.1893(3) 0.5836(3)
O17 O 0.8115(3) 0.1898(3) 0.6578(3)
O18 O 0.9124(3) 0.1827(3) 0.6656(3)
C161 C 0.7697(5) 0.2649(5) 0.9417(5)
C162 C 0.7756(6) 0.2047(5) 1.0038(5)
C163 C 0.7239(5) 0.2081(5) 0.9951(5)
C164 C 0.7304(5) 0.2071(4) 1.0595(4)
C165 C 0.6843(5) 0.2666(5) 0.9321(5)
C166 C 0.6477(7) 0.2134(6) 1.0388(6)
C167 C 0.6643(5) 0.3387(5) 0.9241(5)
C168 C 0.6177(6) 0.2803(5) 0.9779(5)
C169 C 0.6009(6) 0.3224(6) 0.9750(5)
C170 C 0.6272(6) 0.2799(6) 1.0394(6)
C171 C 0.6303(6) 0.4002(6) 0.9251(5)
C172 C 0.5942(6) 0.3463(6) 1.0308(6)
C173 C 0.7018(6) 0.4335(5) 0.9314(5)
C174 C 0.6407(6) 0.4207(6) 0.9823(6)
C175 C 0.6856(7) 0.4443(6) 0.9890(6)
C176 C 0.6643(6) 0.3763(6) 1.0484(5)
C177 C 0.7671(7) 0.4692(6) 0.9474(6)
C178 C 0.7338(7) 0.4167(7) 1.0526(6)
C179 C 0.8354(6) 0.4244(6) 0.9513(5)
C180 C 0.8149(7) 0.4336(6) 1.0109(6)
C181 C 0.8591(6) 0.4038(6) 1.0164(5)
C182 C 0.7965(6) 0.3648(6) 1.0680(5)
C183 C 0.9063(7) 0.3776(6) 0.9692(6)
C184 C 0.8690(6) 0.3258(6) 1.0753(5)
C185 C 0.8729(6) 0.3200(5) 0.9587(5)
C186 C 0.8992(6) 0.2982(6) 1.0244(5)
C187 C 0.8829(6) 0.2580(6) 1.0230(6)
C188 C 0.8345(5) 0.2612(5) 1.0771(5)
C189 C 0.8527(6) 0.2521(6) 0.9613(5)
C190 C 0.8146(5) 0.1979(5) 1.0681(5)
C191 C 0.7984(11) 0.1618(10) 1.0098(9)
C192 C 0.6998(10) 0.1719(9) 0.9896(8)
C193 C 0.7905(5) 0.0791(5) 1.1941(5)
C194 C 0.8165(5) 0.0146(5) 1.2459(4)
C195 C 0.8235(5) 0.0135(5) 1.2030(5)
C196 C 0.7716(5) -0.0444(4) 1.2533(4)
C197 C 0.8026(6) 0.0715(5) 1.1292(5)
C198 C 0.7849(6) -0.0386(5) 1.1836(5)
C199 C 0.7219(6) 0.0803(6) 1.1102(5)
C200 C 0.7510(6) 0.0204(6) 1.1152(6)
C201 C 0.7010(6) 0.0242(6) 1.1029(5)
C202 C 0.7021(5) -0.0379(5) 1.1695(4)
C203 C 0.6441(7) 0.0824(7) 1.0875(6)
C204 C 0.6239(5) -0.0268(5) 1.1401(5)
C205 C 0.5888(6) 0.0931(6) 1.1413(6)
C206 C 0.5679(7) 0.0324(6) 1.1357(6)
C207 C 0.5316(6) 0.0341(6) 1.1709(6)
C208 C 0.5739(6) -0.0281(6) 1.1990(5)
C209 C 0.5287(6) 0.0919(6) 1.1943(6)
C210 C 0.5121(6) -0.0199(6) 1.2492(6)
C211 C 0.5828(6) 0.0941(5) 1.2419(5)
C212 C 0.5232(7) 0.0362(6) 1.2733(6)
C213 C 0.5516(5) 0.0345(5) 1.3085(5)
C214 C 0.5630(5) -0.0291(5) 1.3039(4)
C215 C 0.6207(6) 0.0842(5) 1.3052(5)
C216 C 0.6016(5) -0.0266(5) 1.3585(5)
C217 C 0.7028(5) 0.0815(5) 1.2793(4)
C218 C 0.6756(5) 0.0238(5) 1.3452(5)
C219 C 0.7332(5) 0.0201(4) 1.3322(4)
C220 C 0.6856(5) -0.0371(4) 1.3364(4)
C221 C 0.7887(5) 0.0718(5) 1.2648(5)
C222 C 0.7724(4) -0.0389(4) 1.3184(4)
C223 C 0.7669(5) 0.0178(5) 1.3626(5)
C224 C 0.6658(5) 0.0255(5) 1.3860(5)
C225 C 0.6722(4) -0.1599(4) 1.2349(4)
C226 C 0.7185(5) -0.1623(4) 1.1796(4)
C227 C 0.6655(5) -0.1588(4) 1.1720(4)
C228 C 0.6928(4) -0.2215(4) 1.1748(4)
C229 C 0.5898(5) -0.1514(5) 1.2139(5)
C230 C 0.6080(5) -0.2096(4) 1.1613(4)
C231 C 0.5501(5) -0.2137(5) 1.2786(5)
C232 C 0.5379(5) -0.2127(5) 1.2151(5)
C233 C 0.5083(5) -0.2514(5) 1.2517(5)
C234 C 0.5680(5) -0.2763(4) 1.2211(4)
C235 C 0.4974(6) -0.2764(6) 1.3330(5)
C236 C 0.5152(6) -0.3339(5) 1.2795(5)
C237 C 0.5584(5) -0.3130(5) 1.3793(5)
C238 C 0.5217(6) -0.3554(5) 1.3575(5)
C239 C 0.5560(6) -0.3817(5) 1.3865(5)
C240 C 0.5787(6) -0.3757(5) 1.3218(5)
C241 C 0.6108(6) -0.3652(6) 1.4298(5)
C242 C 0.6287(6) -0.4214(6) 1.3743(5)
C243 C 0.6893(5) -0.3229(5) 1.3971(5)
C244 C 0.6885(6) -0.3924(5) 1.4065(5)
C245 C 0.7413(5) -0.3710(5) 1.3887(5)
C246 C 0.7086(5) -0.3845(5) 1.3397(5)
C247 C 0.7728(5) -0.2961(5) 1.3734(5)
C248 C 0.7926(5) -0.3528(5) 1.3199(5)
C249 C 0.7600(5) -0.2282(5) 1.3093(5)
C250 C 0.8125(5) -0.2723(5) 1.2968(4)
C251 C 0.8085(5) -0.2308(5) 1.2554(5)
C252 C 0.7795(5) -0.2901(5) 1.2505(4)
C253 C 0.7601(5) -0.1634(4) 1.2412(4)
C254 C 0.7777(5) -0.2200(5) 1.1869(4)
C255 C 0.7491(14) -0.1195(13) 1.1492(12)
C256 C 0.6566(14) -0.1198(14) 1.1298(12)
C257 C 0.7303(5) -0.1528(5) 1.0570(5)
C258 C 0.7751(6) -0.0937(6) 1.0041(5)
C259 C 0.7234(6) -0.0887(6) 0.9956(5)
C260 C 0.7688(6) -0.0952(5) 0.9429(5)
C261 C 0.6484(6) -0.1398(6) 1.0402(5)
C262 C 0.6829(6) -0.0868(5) 0.9345(5)
C263 C 0.6261(6) -0.2103(5) 1.0436(5)
C264 C 0.6168(6) -0.1459(5) 0.9803(5)
C265 C 0.6004(6) -0.1888(5) 0.9783(5)
C266 C 0.6653(5) -0.1498(5) 0.9258(5)
C267 C 0.5962(5) -0.2681(5) 1.0332(5)
C268 C 0.6307(5) -0.2131(5) 0.9265(5)
C269 C 0.6664(5) -0.3114(4) 1.0477(4)
C270 C 0.6402(5) -0.2918(5) 0.9828(5)
C271 C 0.6822(5) -0.3220(5) 0.9909(4)
C272 C 0.7032(5) -0.2540(5) 0.9332(5)
C273 C 0.7337(5) -0.3585(4) 1.0534(4)
C274 C 0.7665(5) -0.3055(5) 0.9461(4)
C275 C 0.7977(5) -0.3203(5) 1.0668(5)
C276 C 0.8173(5) -0.3321(5) 1.0095(5)
C277 C 0.8595(5) -0.3097(5) 1.0164(5)
C278 C 0.8337(5) -0.2630(5) 0.9513(4)
C279 C 0.8689(6) -0.2873(5) 1.0737(5)
C280 C 0.9044(6) -0.2349(5) 0.9666(5)
C281 C 0.8348(5) -0.2248(5) 1.0742(5)
C282 C 0.8997(6) -0.2095(5) 1.0229(5)
C283 C 0.8817(6) -0.1662(5) 1.0195(5)
C284 C 0.8732(5) -0.1654(5) 0.9566(5)
C285 C 0.8163(6) -0.1524(6) 1.0650(5)
C286 C 0.8505(6) -0.1004(6) 0.9603(5)
C287 C 0.5926(10) -0.3136(10) 0.9781(9)
C288 C 0.6734(9) -0.3671(8) 0.9920(8)
C291 C 0.8073(4) -0.0464(4) 0.8246(4)
C292 C 0.8355(5) 0.0127(4) 0.8276(4)
C293 C 0.7816(5) 0.0173(4) 0.8206(4)
C294 C 0.8281(4) 0.0756(4) 0.7647(4)
C295 C 0.7223(5) -0.0335(5) 0.8134(4)
C296 C 0.7407(5) 0.0781(4) 0.7586(4)
C297 C 0.7214(5) -0.0391(5) 0.7497(4)
C298 C 0.6924(5) 0.0251(5) 0.7452(4)
C299 C 0.6882(5) 0.0251(5) 0.7022(5)
C300 C 0.7403(5) 0.0816(4) 0.6910(4)
C301 C 0.7083(5) -0.0327(5) 0.6798(5)
C302 C 0.7262(5) 0.0766(5) 0.6265(5)
C303 C 0.7923(5) -0.0444(5) 0.6598(5)
C304 C 0.7591(5) 0.0185(5) 0.6110(5)
C305 C 0.8114(6) 0.0144(5) 0.5936(5)
C306 C 0.8105(5) 0.0747(5) 0.6025(4)
C307 C 0.8700(6) -0.0459(5) 0.6257(5)
C308 C 0.8888(6) 0.0648(5) 0.5702(5)
C309 C 0.9218(5) -0.0542(5) 0.6795(4)
C310 C 0.9447(6) 0.0049(5) 0.6143(5)
C311 C 0.9789(5) 0.0017(5) 0.6435(5)
C312 C 0.9422(5) 0.0664(5) 0.6203(4)
C313 C 0.9850(6) -0.0552(5) 0.7206(5)
C314 C 1.0035(6) 0.0549(5) 0.6678(5)
C315 C 0.9317(5) -0.0556(4) 0.7797(4)
C316 C 0.9911(5) 0.0003(5) 0.7486(5)
C317 C 0.9618(5) 0.0030(5) 0.7847(5)
C318 C 0.9503(5) 0.0640(4) 0.7223(4)
C319 C 0.8914(4) -0.0483(4) 0.8390(4)
C320 C 0.9111(5) 0.0636(5) 0.7845(4)
C321 C 0.8416(13) 0.0133(12) 0.8684(11)
C322 C 0.7475(12) 0.0213(12) 0.8518(11)
C323 C 0.8144(5) 0.2990(4) 0.6638(4)
C324 C 0.7670(5) 0.3514(4) 0.6676(4)
C325 C 0.8245(5) 0.3696(5) 0.6548(5)
C326 C 0.7966(5) 0.3590(4) 0.7223(4)
C327 C 0.8981(5) 0.3310(5) 0.6419(5)
C328 C 0.8789(5) 0.3894(5) 0.6960(5)
C329 C 0.9361(5) 0.2735(5) 0.6970(5)
C330 C 0.9488(6) 0.3419(5) 0.6914(5)
C331 C 0.9766(6) 0.3086(6) 0.7265(6)
C332 C 0.9162(6) 0.3372(6) 0.7580(6)
C333 C 0.9884(7) 0.2305(6) 0.7498(6)
C334 C 0.9714(7) 0.2850(6) 0.8068(6)
C335 C 0.9275(6) 0.1717(5) 0.8002(5)
C336 C 0.9674(6) 0.2049(6) 0.8297(5)
C337 C 0.9323(7) 0.1687(7) 0.8642(6)
C338 C 0.9111(6) 0.2346(6) 0.8582(6)
C339 C 0.8762(6) 0.1139(5) 0.8594(5)
C340 C 0.8585(7) 0.1709(6) 0.9107(6)
C341 C 0.7977(5) 0.1327(5) 0.8307(5)
C342 C 0.7978(6) 0.1257(6) 0.8979(5)
C343 C 0.7495(6) 0.1349(6) 0.8847(6)
C344 C 0.7786(6) 0.1910(6) 0.8903(5)
C345 C 0.7151(6) 0.1446(5) 0.8173(5)
C346 C 0.6965(6) 0.2017(6) 0.8701(5)
C347 C 0.7304(5) 0.2085(5) 0.7459(4)
C348 C 0.6775(5) 0.2173(5) 0.7965(5)
C349 C 0.6836(5) 0.2598(5) 0.7546(5)
C350 C 0.7093(6) 0.2726(5) 0.8064(5)
C351 C 0.7261(5) 0.2788(4) 0.6824(4)
C352 C 0.7095(5) 0.3372(5) 0.7358(4)
C353 C 0.7331(5) 0.3794(5) 0.6377(5)
C354 C 0.8347(6) 0.4121(5) 0.6139(5)
N101 N 0.8015(4) 0.2404(4) 0.9683(4)
N102 N 0.7259(4) 0.2493(4) 0.9561(4)
N103 N 0.7746(4) 0.2052(4) 1.0437(3)
N104 N 0.6984(4) 0.2083(4) 1.0326(4)
N105 N 0.6563(5) 0.2950(5) 0.9441(4)
N106 N 0.6335(5) 0.3574(5) 0.9398(4)
N107 N 0.6323(5) 0.2570(4) 1.0190(4)
N108 N 0.6082(5) 0.3179(5) 1.0147(5)
N109 N 0.6585(5) 0.4187(5) 0.9452(4)
N110 N 0.7203(5) 0.4498(5) 0.9553(5)
N111 N 0.6334(5) 0.3798(4) 1.0214(4)
N112 N 0.6946(5) 0.4115(5) 1.0321(5)
N113 N 0.8049(5) 0.4428(5) 0.9680(4)
N114 N 0.8666(5) 0.4007(4) 0.9791(4)
N115 N 0.7799(5) 0.4049(5) 1.0452(5)
N116 N 0.8411(5) 0.3630(5) 1.0543(4)
N117 N 0.8929(6) 0.3322(5) 0.9840(5)
N118 N 0.8670(5) 0.2768(5) 0.9800(4)
N119 N 0.8659(5) 0.2974(4) 1.0596(4)
N120 N 0.8429(4) 0.2390(4) 1.0563(4)
N121 N 0.7964(4) 0.0556(4) 1.2351(4)
N122 N 0.8025(5) 0.0545(4) 1.1756(4)
N123 N 0.7834(4) -0.0224(3) 1.2724(3)
N124 N 0.7911(4) -0.0221(4) 1.2118(4)
N125 N 0.7594(5) 0.0590(4) 1.1193(4)
N126 N 0.6854(4) 0.0639(4) 1.0994(4)
N127 N 0.7468(4) -0.0201(4) 1.1572(4)
N128 N 0.6736(5) -0.0145(5) 1.1388(4)
N129 N 0.6019(5) 0.0691(5) 1.1217(4)
N130 N 0.5512(5) 0.0743(5) 1.1675(4)
N131 N 0.5908(5) -0.0094(4) 1.1592(4)
N132 N 0.5403(5) -0.0045(5) 1.2084(5)
N133 N 0.5462(5) 0.0735(4) 1.2360(4)
N134 N 0.5842(4) 0.0711(4) 1.2853(4)
N135 N 0.5304(5) -0.0053(5) 1.2758(4)
N136 N 0.5756(4) -0.0071(4) 1.3222(4)
N137 N 0.6649(4) 0.0638(4) 1.3081(3)
N138 N 0.7431(4) 0.0579(3) 1.2914(3)
N139 N 0.6541(4) -0.0151(4) 1.3490(3)
N140 N 0.7302(4) -0.0196(3) 1.3290(3)
N141 N 0.7173(4) -0.1630(3) 1.2204(3)
N142 N 0.6405(4) -0.1568(3) 1.2082(3)
N143 N 0.7310(4) -0.2025(3) 1.1810(3)
N144 N 0.6532(4) -0.1974(3) 1.1708(3)
N145 N 0.5611(4) -0.1920(4) 1.2361(3)
N146 N 0.5188(4) -0.2475(4) 1.2892(4)
N147 N 0.5718(4) -0.2321(4) 1.1985(3)
N148 N 0.5314(4) -0.2880(4) 1.2508(4)
N149 N 0.5260(4) -0.3136(4) 1.3549(4)
N150 N 0.5772(5) -0.3524(4) 1.3985(4)
N151 N 0.5374(4) -0.3544(4) 1.3179(4)
N152 N 0.5890(5) -0.3933(4) 1.3610(4)
N153 N 0.6621(4) -0.3595(4) 1.4108(4)
N154 N 0.7346(4) -0.3288(4) 1.3865(4)
N155 N 0.6755(5) -0.4003(4) 1.3733(4)
N156 N 0.7477(4) -0.3673(4) 1.3475(4)
N157 N 0.7812(4) -0.2656(4) 1.3274(4)
N158 N 0.7746(4) -0.2061(4) 1.2670(4)
N159 N 0.7932(4) -0.3056(4) 1.2898(4)
N160 N 0.7867(4) -0.2464(4) 1.2298(3)
N161 N 0.7764(4) -0.1352(4) 1.0442(4)
N162 N 0.6989(5) -0.1287(4) 1.0324(4)
N163 N 0.8002(4) -0.0959(4) 0.9679(4)
N164 N 0.7254(5) -0.0901(4) 0.9554(4)
N165 N 0.6312(4) -0.1648(4) 1.0224(4)
N166 N 0.6095(4) -0.2232(4) 1.0187(4)
N167 N 0.6564(4) -0.1274(4) 0.9474(4)
N168 N 0.6330(4) -0.1841(4) 0.9423(4)
N169 N 0.6334(4) -0.2902(4) 1.0230(4)
N170 N 0.6962(4) -0.3308(4) 1.0311(4)
N171 N 0.6579(4) -0.2530(4) 0.9478(4)
N172 N 0.7188(4) -0.2933(4) 0.9554(3)
N173 N 0.7811(4) -0.3379(4) 1.0445(4)
N174 N 0.8417(4) -0.3054(4) 1.0521(4)
N175 N 0.8044(4) -0.2993(4) 0.9690(4)
N176 N 0.8664(4) -0.2675(4) 0.9773(4)
N177 N 0.8673(4) -0.2419(4) 1.0576(4)
N178 N 0.8424(4) -0.1797(4) 1.0530(4)
N179 N 0.8902(4) -0.2048(4) 0.9808(4)
N180 N 0.8692(4) -0.1429(4) 0.9775(4)
N181 N 0.8466(4) -0.0274(3) 0.8292(3)
N182 N 0.7696(4) -0.0215(3) 0.8189(3)
N183 N 0.8593(4) 0.0517(3) 0.7922(3)
N184 N 0.7824(4) 0.0565(3) 0.7800(3)
N185 N 0.7132(4) -0.0170(4) 0.7707(4)
N186 N 0.7074(4) -0.0156(4) 0.7099(4)
N187 N 0.7249(4) 0.0622(4) 0.7320(4)
N188 N 0.7187(4) 0.0619(4) 0.6729(4)
N189 N 0.7514(4) -0.0209(4) 0.6524(4)
N190 N 0.8254(4) -0.0278(4) 0.6265(4)
N191 N 0.7653(4) 0.0584(4) 0.6131(4)
N192 N 0.8380(4) 0.0522(4) 0.5885(4)
N193 N 0.9116(4) -0.0331(4) 0.6393(4)
N194 N 0.9617(4) -0.0365(4) 0.6826(4)
N195 N 0.9234(4) 0.0451(4) 0.6015(4)
N196 N 0.9753(4) 0.0414(4) 0.6449(4)
N197 N 0.9686(4) -0.0370(4) 0.7487(4)
N198 N 0.9279(4) -0.0337(4) 0.8018(3)
N199 N 0.9806(4) 0.0414(4) 0.7109(4)
N200 N 0.9399(4) 0.0438(3) 0.7643(3)
N201 N 0.7700(4) 0.3090(3) 0.6716(3)
N202 N 0.8467(4) 0.3333(4) 0.6517(3)
N203 N 0.7567(4) 0.3500(4) 0.7087(4)
N204 N 0.8353(4) 0.3713(4) 0.6922(4)
N205 N 0.9250(4) 0.3149(4) 0.6781(4)
N206 N 0.9693(5) 0.2698(4) 0.7244(4)
N207 N 0.9161(5) 0.3557(4) 0.7148(4)
N208 N 0.9551(5) 0.3087(4) 0.7637(4)
N209 N 0.9600(5) 0.2028(5) 0.7928(5)
N210 N 0.9116(5) 0.1505(5) 0.8404(4)
N211 N 0.9498(5) 0.2423(5) 0.8323(4)
N212 N 0.8973(5) 0.1902(5) 0.8790(5)
N213 N 0.8270(5) 0.1236(4) 0.8615(4)
N214 N 0.7535(5) 0.1376(4) 0.8424(4)
N215 N 0.8145(5) 0.1636(5) 0.9012(4)
N216 N 0.7398(5) 0.1784(4) 0.8807(4)
N217 N 0.7089(4) 0.1887(4) 0.7885(4)
N218 N 0.7159(4) 0.2501(3) 0.7276(3)
N219 N 0.6975(5) 0.2298(4) 0.8252(4)
N220 N 0.7031(4) 0.2902(4) 0.7658(4)
O114 O 0.7824(4) 0.2997(3) 0.9069(3)
O115 O 0.6955(4) 0.3595(4) 0.8926(3)
O116 O 0.7275(4) 0.4351(4) 0.9009(4)
O117 O 0.8343(4) 0.4272(4) 0.9164(4)
O118 O 0.8631(4) 0.3442(4) 0.9234(4)
O119 O 0.7178(3) 0.2065(3) 1.0934(3)
O120 O 0.6368(4) 0.2675(4) 1.0768(4)
O121 O 0.6653(4) 0.3430(4) 1.0837(4)
O122 O 0.7715(4) 0.3362(4) 1.0991(4)
O123 O 0.8045(4) 0.2525(4) 1.1067(3)
O124 O 0.7757(4) 0.1154(3) 1.1768(3)
O125 O 0.7176(4) 0.1169(4) 1.1108(4)
O126 O 0.6148(4) 0.1260(4) 1.1338(4)
O127 O 0.6074(4) 0.1239(4) 1.2168(4)
O128 O 0.7035(4) 0.1144(3) 1.2437(3)
O129 O 0.7444(3) -0.0771(3) 1.2690(3)
O130 O 0.6873(3) -0.0706(3) 1.2025(3)
O131 O 0.5847(4) -0.0649(3) 1.2277(3)
O132 O 0.5788(3) -0.0628(3) 1.3076(3)
O133 O 0.6742(3) -0.0705(3) 1.3361(3)
O134 O 0.6607(3) -0.1571(3) 1.2678(3)
O135 O 0.5636(3) -0.2035(3) 1.3031(3)
O136 O 0.5711(3) -0.2823(3) 1.3840(3)
O137 O 0.6754(3) -0.2891(3) 1.3966(3)
O138 O 0.7317(3) -0.2138(3) 1.3286(3)
O139 O 0.6936(3) -0.2561(3) 1.1743(3)
O140 O 0.5932(3) -0.2995(3) 1.2118(3)
O141 O 0.6015(4) -0.3801(3) 1.2930(3)
O142 O 0.7053(3) -0.3860(3) 1.3068(3)
O143 O 0.7634(3) -0.3114(3) 1.2357(3)
O144 O 0.7214(4) -0.1881(3) 1.0901(3)
O145 O 0.6350(4) -0.2321(3) 1.0802(3)
O146 O 0.6706(3) -0.3119(3) 1.0816(3)
O147 O 0.7715(3) -0.3206(3) 1.0974(3)
O148 O 0.8040(4) -0.2451(3) 1.1055(3)
O149 O 0.7801(3) -0.0973(3) 0.9094(3)
O150 O 0.6954(4) -0.1385(3) 0.8943(3)
O151 O 0.7282(3) -0.2232(3) 0.9022(3)
O152 O 0.8292(3) -0.2308(3) 0.9178(3)
O153 O 0.8647(3) -0.1510(3) 0.9196(3)
O154 O 0.8066(3) -0.0817(3) 0.8253(3)
O155 O 0.7378(3) -0.0757(3) 0.7637(3)
O156 O 0.7945(3) -0.0790(3) 0.6930(3)
O157 O 0.8978(3) -0.0869(3) 0.7074(3)
O158 O 0.9075(3) -0.0876(3) 0.7875(3)
O159 O 0.8392(3) 0.1101(3) 0.7325(3)
O160 O 0.7683(3) 0.1149(3) 0.6715(3)
O161 O 0.8248(3) 0.1074(3) 0.6034(3)
O162 O 0.9287(3) 0.1013(3) 0.6161(3)
O163 O 0.9357(3) 0.0998(3) 0.6971(3)
O164 O 0.8257(3) 0.2652(3) 0.6641(3)
O165 O 0.9213(3) 0.2449(3) 0.6923(3)
O166 O 0.9156(4) 0.1626(3) 0.7717(3)
O167 O 0.8123(3) 0.1310(3) 0.7984(3)
O168 O 0.7564(3) 0.1916(3) 0.7311(3)
O169 O 0.7966(3) 0.3577(3) 0.7567(3)
O170 O 0.8922(4) 0.3415(4) 0.7838(4)
O171 O 0.8863(4) 0.2605(4) 0.8657(4)
O172 O 0.7826(4) 0.2277(4) 0.8893(4)
O173 O 0.7236(4) 0.2911(4) 0.8239(3)
Sr1 Sr 0.78431(6) 0.37957(5) 0.89504(5)
Sr2 Sr 0.71569(6) 0.27447(5) 1.10507(5)
Sr3 Sr 0.68711(7) 0.13403(5) 1.16947(5)
Sr4 Sr 0.65122(5) -0.08628(4) 1.27699(4)
Sr5 Sr 0.63645(5) -0.22100(4) 1.34428(4)
Sr6 Sr 0.67272(5) -0.33519(4) 1.23650(4)
Sr7 Sr 0.71468(5) -0.26754(4) 1.10624(4)
Sr8 Sr 0.78533(5) -0.16121(4) 0.89376(4)
Sr9 Sr 0.82724(5) -0.09866(4) 0.76356(4)
Sr10 Sr 0.86354(5) 0.12330(4) 0.65575(4)
Sr11 Sr 0.84878(5) 0.19050(4) 0.72308(4)
Sr12 Sr 0.81291(7) 0.30354(5) 0.83057(5)
O46? O 0.5949(11) 0.0177(10) 0.6418(9)
C289? C 0.8284(10) -0.3752(9) 1.0075(9)
C290? C 0.9071(10) -0.3354(9) 1.0209(9)
loop_
_geom_bond_atom_site_label_1
_geom_bond_atom_site_label_2
_geom_bond_site_symmetry_1
_geom_bond_site_symmetry_2
O1 Sr1 1_555 1_555
O2 Sr1 1_555 1_555
O3 Sr1 1_555 1_555
O4 Sr2 1_555 1_555
O5 Sr2 1_555 1_555
O6 Sr2 1_555 1_555
O7 Sr4 1_555 1_555
O8 Sr4 1_555 1_555
O9 Sr5 1_555 1_555
O10 Sr6 1_555 1_555
O11 Sr6 1_555 1_555
O12 Sr6 1_555 1_555
O13 Sr8 1_555 1_555
O14 Sr8 1_555 1_555
O15 Sr9 1_555 1_555
O16 Sr10 1_555 1_555
O17 Sr10 1_555 1_555
O18 Sr10 1_555 1_555
O19 Sr13 1_555 1_555
O20 Sr13 1_555 1_555
O21 Sr14 1_555 1_555
O22 Sr14 1_555 1_555
O23 Sr15 1_555 1_555
O24 Sr16 1_555 1_555
O25 Sr16 1_555 1_555
O26 Sr17 1_555 1_555
O27 Sr17 1_555 1_555
O28 Sr18 1_555 1_555
O29 Sr18 1_555 1_555
O30 Sr19 1_555 1_555
O31 Sr20 1_555 1_555
O32 Sr20 1_555 1_555
O33 Sr21 1_555 1_555
O34 Sr21 1_555 1_555
O35 Sr22 1_555 1_555
O36 Sr22 1_555 1_555
C1 N81 1_555 1_555
C2 C3 1_555 1_555
C3 C21 1_555 1_555
C4 N83 1_555 1_555
C5 N82 1_555 1_555
C6 N84 1_555 1_555
C7 N85 1_555 1_555
C8 C9 1_555 1_555
C9 N86 1_555 1_555
C10 N87 1_555 1_555
C11 N86 1_555 1_555
C12 N88 1_555 1_555
C13 N89 1_555 1_555
C14 C15 1_555 1_555
C15 N90 1_555 1_555
C16 N91 1_555 1_555
C17 N90 1_555 1_555
C18 N92 1_555 1_555
C19 N93 1_555 1_555
C20 C2 1_555 1_555
C22 N1 1_555 1_555
C23 C24 1_555 1_555
C24 N2 1_555 1_555
C25 N3 1_555 1_555
C26 N2 1_555 1_555
C27 N4 1_555 1_555
C28 N5 1_555 1_555
C29 C30 1_555 1_555
C30 N6 1_555 1_555
C31 N7 1_555 1_555
C32 N6 1_555 1_555
C33 N8 1_555 1_555
C34 N9 1_555 1_555
C35 C36 1_555 1_555
C36 N10 1_555 1_555
C37 N11 1_555 1_555
C38 N10 1_555 1_555
C39 N12 1_555 1_555
C40 N13 1_555 1_555
C41 C42 1_555 1_555
C42 N14 1_555 1_555
C43 N15 1_555 1_555
C44 N14 1_555 1_555
C45 N16 1_555 1_555
C46 N17 1_555 1_555
C47 C48 1_555 1_555
C48 C53 1_555 1_555
C49 N19 1_555 1_555
C50 N1 1_555 1_555
C51 N3 1_555 1_555
C52 C47 1_555 1_555
C54 C145 1_555 1_555
N1 C23 1_555 1_555
N2 C22 1_555 1_555
N3 C23 1_555 1_555
N4 C24 1_555 1_555
N5 C26 1_555 1_555
N6 C28 1_555 1_555
N7 C27 1_555 1_555
N8 C30 1_555 1_555
N9 C32 1_555 1_555
N10 C34 1_555 1_555
N11 C33 1_555 1_555
N12 C36 1_555 1_555
N13 C38 1_555 1_555
N14 C40 1_555 1_555
N15 C39 1_555 1_555
N16 C42 1_555 1_555
N17 C44 1_555 1_555
N18 C46 1_555 1_555
N19 C45 1_555 1_555
N20 C48 1_555 1_555
O64 C22 1_555 1_555
O65 C28 1_555 1_555
O66 C34 1_555 1_555
O67 C40 1_555 1_555
O68 C46 1_555 1_555
O69 C25 1_555 1_555
O70 C31 1_555 1_555
O71 C37 1_555 1_555
O72 C43 1_555 1_555
O73 C49 1_555 1_555
C55 N21 1_555 1_555
C56 C57 1_555 1_555
C57 N22 1_555 1_555
C58 N23 1_555 1_555
C59 N22 1_555 1_555
C60 N24 1_555 1_555
C61 N25 1_555 1_555
C62 C63 1_555 1_555
C63 N26 1_555 1_555
C64 N27 1_555 1_555
C65 N26 1_555 1_555
C66 N28 1_555 1_555
C67 N29 1_555 1_555
C68 C69 1_555 1_555
C69 N30 1_555 1_555
C70 N31 1_555 1_555
C71 N30 1_555 1_555
C72 N32 1_555 1_555
C73 N33 1_555 1_555
C74 C75 1_555 1_555
C75 N34 1_555 1_555
C76 N35 1_555 1_555
C77 N34 1_555 1_555
C78 N36 1_555 1_555
C79 N37 1_555 1_555
C80 C81 1_555 1_555
C81 C86 1_555 1_555
C82 N39 1_555 1_555
C83 N21 1_555 1_555
C84 N23 1_555 1_555
C85 C80 1_555 1_555
C87 N41 1_555 1_555
C88 C89 1_555 1_555
C89 C118 1_555 1_555
C90 N43 1_555 1_555
C91 N42 1_555 1_555
C92 N44 1_555 1_555
C93 N45 1_555 1_555
C94 C95 1_555 1_555
C95 N46 1_555 1_555
C96 N47 1_555 1_555
C97 N46 1_555 1_555
C98 N48 1_555 1_555
C99 N49 1_555 1_555
C100 C101 1_555 1_555
C101 N50 1_555 1_555
C102 N51 1_555 1_555
C103 N50 1_555 1_555
C104 N52 1_555 1_555
C105 N53 1_555 1_555
C106 C107 1_555 1_555
C107 N54 1_555 1_555
C108 N55 1_555 1_555
C109 N54 1_555 1_555
C110 N56 1_555 1_555
C111 N57 1_555 1_555
C112 C113 1_555 1_555
C113 N58 1_555 1_555
C114 N59 1_555 1_555
C115 N41 1_555 1_555
C116 N43 1_555 1_555
C117 C88 1_555 1_555
C119 N61 1_555 1_555
C120 C121 1_555 1_555
C121 N62 1_555 1_555
C122 N63 1_555 1_555
C123 N62 1_555 1_555
C124 N64 1_555 1_555
C125 N65 1_555 1_555
C126 C127 1_555 1_555
C127 N66 1_555 1_555
C128 N67 1_555 1_555
C129 N66 1_555 1_555
C130 N68 1_555 1_555
C131 N69 1_555 1_555
C132 C133 1_555 1_555
C133 N70 1_555 1_555
C134 N71 1_555 1_555
C135 N70 1_555 1_555
C136 N72 1_555 1_555
C137 N73 1_555 1_555
C138 C139 1_555 1_555
C139 N74 1_555 1_555
C140 N75 1_555 1_555
C141 N74 1_555 1_555
C142 N76 1_555 1_555
C143 N77 1_555 1_555
C144 C145 1_555 1_555
C145 N78 1_555 1_555
C146 N79 1_555 1_555
C147 N61 1_555 1_555
C148 N63 1_555 1_555
C149 C144 1_555 1_555
C150 C151 1_555 1_555
C151 N94 1_555 1_555
C152 N95 1_555 1_555
C153 N94 1_555 1_555
C154 N96 1_555 1_555
C155 N97 1_555 1_555
C156 C157 1_555 1_555
C157 N98 1_555 1_555
C158 N99 1_555 1_555
C159 N81 1_555 1_555
C160 N83 1_555 1_555
N21 C56 1_555 1_555
N22 C55 1_555 1_555
N23 C56 1_555 1_555
N24 C57 1_555 1_555
N25 C59 1_555 1_555
N26 C61 1_555 1_555
N27 C60 1_555 1_555
N28 C63 1_555 1_555
N29 C65 1_555 1_555
N30 C67 1_555 1_555
N31 C66 1_555 1_555
N32 C69 1_555 1_555
N33 C71 1_555 1_555
N34 C73 1_555 1_555
N35 C72 1_555 1_555
N36 C75 1_555 1_555
N37 C77 1_555 1_555
N38 C79 1_555 1_555
N39 C78 1_555 1_555
N40 C81 1_555 1_555
N41 C88 1_555 1_555
N42 C87 1_555 1_555
N43 C88 1_555 1_555
N44 C89 1_555 1_555
N45 C91 1_555 1_555
N46 C93 1_555 1_555
N47 C92 1_555 1_555
N48 C95 1_555 1_555
N49 C97 1_555 1_555
N50 C99 1_555 1_555
N51 C98 1_555 1_555
N52 C101 1_555 1_555
N53 C103 1_555 1_555
N54 C105 1_555 1_555
N55 C104 1_555 1_555
N56 C107 1_555 1_555
N57 C109 1_555 1_555
N58 C111 1_555 1_555
N59 C110 1_555 1_555
N60 C113 1_555 1_555
N61 C120 1_555 1_555
N62 C119 1_555 1_555
N63 C120 1_555 1_555
N64 C121 1_555 1_555
N65 C123 1_555 1_555
N66 C125 1_555 1_555
N67 C124 1_555 1_555
N68 C127 1_555 1_555
N69 C129 1_555 1_555
N70 C131 1_555 1_555
N71 C130 1_555 1_555
N72 C133 1_555 1_555
N73 C135 1_555 1_555
N74 C137 1_555 1_555
N75 C136 1_555 1_555
N76 C139 1_555 1_555
N77 C141 1_555 1_555
N78 C143 1_555 1_555
N79 C142 1_555 1_555
N80 C145 1_555 1_555
N81 C2 1_555 1_555
N82 C1 1_555 1_555
N83 C2 1_555 1_555
N84 C3 1_555 1_555
N85 C5 1_555 1_555
N86 C7 1_555 1_555
N87 C6 1_555 1_555
N88 C9 1_555 1_555
N89 C11 1_555 1_555
N90 C13 1_555 1_555
N91 C12 1_555 1_555
N92 C15 1_555 1_555
N93 C17 1_555 1_555
N94 C19 1_555 1_555
N95 C18 1_555 1_555
N96 C151 1_555 1_555
N97 C153 1_555 1_555
N98 C155 1_555 1_555
N99 C154 1_555 1_555
N100 C157 1_555 1_555
O74 C55 1_555 1_555
O75 C61 1_555 1_555
O76 C67 1_555 1_555
O77 C73 1_555 1_555
O78 C79 1_555 1_555
O79 C58 1_555 1_555
O80 C64 1_555 1_555
O81 C70 1_555 1_555
O82 C76 1_555 1_555
O83 C82 1_555 1_555
O84 C87 1_555 1_555
O85 C93 1_555 1_555
O86 C99 1_555 1_555
O87 C105 1_555 1_555
O88 C111 1_555 1_555
O89 C90 1_555 1_555
O90 C96 1_555 1_555
O91 C102 1_555 1_555
O92 C108 1_555 1_555
O93 C114 1_555 1_555
O94 C119 1_555 1_555
O95 C125 1_555 1_555
O96 C131 1_555 1_555
O97 C137 1_555 1_555
O98 C143 1_555 1_555
O99 C122 1_555 1_555
O100 C128 1_555 1_555
O101 C134 1_555 1_555
O102 C140 1_555 1_555
O103 C146 1_555 1_555
O104 C1 1_555 1_555
O105 C7 1_555 1_555
O106 C13 1_555 1_555
O107 C19 1_555 1_555
O108 C155 1_555 1_555
O109 C4 1_555 1_555
O110 C10 1_555 1_555
O111 C16 1_555 1_555
O112 C152 1_555 1_555
O113 C158 1_555 1_555
C161 N101 1_555 1_555
C162 C163 1_555 1_555
C163 C192 1_555 1_555
C164 N103 1_555 1_555
C165 N102 1_555 1_555
C166 N104 1_555 1_555
C167 N105 1_555 1_555
C168 C169 1_555 1_555
C169 N106 1_555 1_555
C170 N107 1_555 1_555
C171 N106 1_555 1_555
C172 N108 1_555 1_555
C173 N109 1_555 1_555
C174 C175 1_555 1_555
C175 N110 1_555 1_555
C176 N111 1_555 1_555
C177 N110 1_555 1_555
C178 N112 1_555 1_555
C179 N113 1_555 1_555
C180 C181 1_555 1_555
C181 N114 1_555 1_555
C182 N115 1_555 1_555
C183 N114 1_555 1_555
C184 N116 1_555 1_555
C185 N117 1_555 1_555
C186 C187 1_555 1_555
C187 N118 1_555 1_555
C188 N119 1_555 1_555
C189 N101 1_555 1_555
C190 N103 1_555 1_555
C191 C162 1_555 1_555
C193 N121 1_555 1_555
C194 C195 1_555 1_555
C195 N122 1_555 1_555
C196 N123 1_555 1_555
C197 N122 1_555 1_555
C198 N124 1_555 1_555
C199 N125 1_555 1_555
C200 C201 1_555 1_555
C201 N126 1_555 1_555
C202 N127 1_555 1_555
C203 N126 1_555 1_555
C204 N128 1_555 1_555
C205 N129 1_555 1_555
C206 C207 1_555 1_555
C207 N130 1_555 1_555
C208 N131 1_555 1_555
C209 N130 1_555 1_555
C210 N132 1_555 1_555
C211 N133 1_555 1_555
C212 C213 1_555 1_555
C213 N134 1_555 1_555
C214 N135 1_555 1_555
C215 N134 1_555 1_555
C216 N136 1_555 1_555
C217 N137 1_555 1_555
C218 C219 1_555 1_555
C219 C223 1_555 1_555
C220 N139 1_555 1_555
C221 N121 1_555 1_555
C222 N123 1_555 1_555
C224 C218 1_555 1_555
C225 N141 1_555 1_555
C226 C227 1_555 1_555
C227 C256 1_555 1_555
C228 N143 1_555 1_555
C229 N142 1_555 1_555
C230 N144 1_555 1_555
C231 N145 1_555 1_555
C232 C233 1_555 1_555
C233 N146 1_555 1_555
C234 N147 1_555 1_555
C235 N146 1_555 1_555
C236 N148 1_555 1_555
C237 N149 1_555 1_555
C238 C239 1_555 1_555
C239 N150 1_555 1_555
C240 N151 1_555 1_555
C241 N150 1_555 1_555
C242 N152 1_555 1_555
C243 N153 1_555 1_555
C244 C245 1_555 1_555
C245 N154 1_555 1_555
C246 N155 1_555 1_555
C247 N154 1_555 1_555
C248 N156 1_555 1_555
C249 N157 1_555 1_555
C250 C251 1_555 1_555
C251 N158 1_555 1_555
C252 N159 1_555 1_555
C253 N141 1_555 1_555
C254 N143 1_555 1_555
C255 C226 1_555 1_555
C257 N161 1_555 1_555
C258 C259 1_555 1_555
C259 N162 1_555 1_555
C260 N163 1_555 1_555
C261 N162 1_555 1_555
C262 N164 1_555 1_555
C263 N165 1_555 1_555
C264 C265 1_555 1_555
C265 N166 1_555 1_555
C266 N167 1_555 1_555
C267 N166 1_555 1_555
C268 N168 1_555 1_555
C269 N169 1_555 1_555
C270 C271 1_555 1_555
C271 C288 1_555 1_555
C272 N171 1_555 1_555
C273 N170 1_555 1_555
C274 N172 1_555 1_555
C275 N173 1_555 1_555
C276 C277 1_555 1_555
C277 N174 1_555 1_555
C278 N175 1_555 1_555
C279 N174 1_555 1_555
C280 N176 1_555 1_555
C281 N177 1_555 1_555
C282 C283 1_555 1_555
C283 N178 1_555 1_555
C284 N179 1_555 1_555
C285 N161 1_555 1_555
C286 N163 1_555 1_555
C287 C270 1_555 1_555
C291 N181 1_555 1_555
C292 C293 1_555 1_555
C293 C322 1_555 1_555
C294 N183 1_555 1_555
C295 N182 1_555 1_555
C296 N184 1_555 1_555
C297 N185 1_555 1_555
C298 C299 1_555 1_555
C299 N186 1_555 1_555
C300 N187 1_555 1_555
C301 N186 1_555 1_555
C302 N188 1_555 1_555
C303 N189 1_555 1_555
C304 C305 1_555 1_555
C305 N190 1_555 1_555
C306 N191 1_555 1_555
C307 N190 1_555 1_555
C308 N192 1_555 1_555
C309 N193 1_555 1_555
C310 C311 1_555 1_555
C311 N194 1_555 1_555
C312 N195 1_555 1_555
C313 N194 1_555 1_555
C314 N196 1_555 1_555
C315 N197 1_555 1_555
C316 C317 1_555 1_555
C317 N198 1_555 1_555
C318 N199 1_555 1_555
C319 N181 1_555 1_555
C320 N183 1_555 1_555
C321 C292 1_555 1_555
C323 N201 1_555 1_555
C324 C325 1_555 1_555
C325 C354 1_555 1_555
C326 N203 1_555 1_555
C327 N202 1_555 1_555
C328 N204 1_555 1_555
C329 N205 1_555 1_555
C330 C331 1_555 1_555
C331 N206 1_555 1_555
C332 N207 1_555 1_555
C333 N206 1_555 1_555
C334 N208 1_555 1_555
C335 N209 1_555 1_555
C336 C337 1_555 1_555
C337 N210 1_555 1_555
C338 N211 1_555 1_555
C339 N210 1_555 1_555
C340 N212 1_555 1_555
C341 N213 1_555 1_555
C342 C343 1_555 1_555
C343 N214 1_555 1_555
C344 N215 1_555 1_555
C345 N214 1_555 1_555
C346 N216 1_555 1_555
C347 N217 1_555 1_555
C348 C349 1_555 1_555
C349 N218 1_555 1_555
C350 N219 1_555 1_555
C351 N201 1_555 1_555
C352 N203 1_555 1_555
C353 C324 1_555 1_555
N101 C162 1_555 1_555
N102 C161 1_555 1_555
N103 C162 1_555 1_555
N104 C163 1_555 1_555
N105 C165 1_555 1_555
N106 C167 1_555 1_555
N107 C166 1_555 1_555
N108 C169 1_555 1_555
N109 C171 1_555 1_555
N110 C173 1_555 1_555
N111 C172 1_555 1_555
N112 C175 1_555 1_555
N113 C177 1_555 1_555
N114 C179 1_555 1_555
N115 C178 1_555 1_555
N116 C181 1_555 1_555
N117 C183 1_555 1_555
N118 C185 1_555 1_555
N119 C184 1_555 1_555
N120 C187 1_555 1_555
N121 C194 1_555 1_555
N122 C193 1_555 1_555
N123 C194 1_555 1_555
N124 C195 1_555 1_555
N125 C197 1_555 1_555
N126 C199 1_555 1_555
N127 C198 1_555 1_555
N128 C201 1_555 1_555
N129 C203 1_555 1_555
N130 C205 1_555 1_555
N131 C204 1_555 1_555
N132 C207 1_555 1_555
N133 C209 1_555 1_555
N134 C211 1_555 1_555
N135 C210 1_555 1_555
N136 C213 1_555 1_555
N137 C215 1_555 1_555
N138 C217 1_555 1_555
N139 C216 1_555 1_555
N140 C219 1_555 1_555
N141 C226 1_555 1_555
N142 C225 1_555 1_555
N143 C226 1_555 1_555
N144 C227 1_555 1_555
N145 C229 1_555 1_555
N146 C231 1_555 1_555
N147 C230 1_555 1_555
N148 C233 1_555 1_555
N149 C235 1_555 1_555
N150 C237 1_555 1_555
N151 C236 1_555 1_555
N152 C239 1_555 1_555
N153 C241 1_555 1_555
N154 C243 1_555 1_555
N155 C242 1_555 1_555
N156 C245 1_555 1_555
N157 C247 1_555 1_555
N158 C249 1_555 1_555
N159 C248 1_555 1_555
N160 C251 1_555 1_555
N161 C258 1_555 1_555
N162 C257 1_555 1_555
N163 C258 1_555 1_555
N164 C259 1_555 1_555
N165 C261 1_555 1_555
N166 C263 1_555 1_555
N167 C262 1_555 1_555
N168 C265 1_555 1_555
N169 C267 1_555 1_555
N170 C269 1_555 1_555
N171 C268 1_555 1_555
N172 C271 1_555 1_555
N173 C273 1_555 1_555
N174 C275 1_555 1_555
N175 C274 1_555 1_555
N176 C277 1_555 1_555
N177 C279 1_555 1_555
N178 C281 1_555 1_555
N179 C280 1_555 1_555
N180 C283 1_555 1_555
N181 C292 1_555 1_555
N182 C291 1_555 1_555
N183 C292 1_555 1_555
N184 C293 1_555 1_555
N185 C295 1_555 1_555
N186 C297 1_555 1_555
N187 C296 1_555 1_555
N188 C299 1_555 1_555
N189 C301 1_555 1_555
N190 C303 1_555 1_555
N191 C302 1_555 1_555
N192 C305 1_555 1_555
N193 C307 1_555 1_555
N194 C309 1_555 1_555
N195 C308 1_555 1_555
N196 C311 1_555 1_555
N197 C313 1_555 1_555
N198 C315 1_555 1_555
N199 C314 1_555 1_555
N200 C317 1_555 1_555
N201 C324 1_555 1_555
N202 C323 1_555 1_555
N203 C324 1_555 1_555
N204 C325 1_555 1_555
N205 C327 1_555 1_555
N206 C329 1_555 1_555
N207 C328 1_555 1_555
N208 C331 1_555 1_555
N209 C333 1_555 1_555
N210 C335 1_555 1_555
N211 C334 1_555 1_555
N212 C337 1_555 1_555
N213 C339 1_555 1_555
N214 C341 1_555 1_555
N215 C340 1_555 1_555
N216 C343 1_555 1_555
N217 C345 1_555 1_555
N218 C347 1_555 1_555
N219 C346 1_555 1_555
N220 C349 1_555 1_555
O114 C161 1_555 1_555
O115 C167 1_555 1_555
O116 C173 1_555 1_555
O117 C179 1_555 1_555
O118 C185 1_555 1_555
O119 C164 1_555 1_555
O120 C170 1_555 1_555
O121 C176 1_555 1_555
O122 C182 1_555 1_555
O123 C188 1_555 1_555
O124 C193 1_555 1_555
O125 C199 1_555 1_555
O126 C205 1_555 1_555
O127 C211 1_555 1_555
O128 C217 1_555 1_555
O129 C196 1_555 1_555
O130 C202 1_555 1_555
O131 C208 1_555 1_555
O132 C214 1_555 1_555
O133 C220 1_555 1_555
O134 C225 1_555 1_555
O135 C231 1_555 1_555
O136 C237 1_555 1_555
O137 C243 1_555 1_555
O138 C249 1_555 1_555
O139 C228 1_555 1_555
O140 C234 1_555 1_555
O141 C240 1_555 1_555
O142 C246 1_555 1_555
O143 C252 1_555 1_555
O144 C257 1_555 1_555
O145 C263 1_555 1_555
O146 C269 1_555 1_555
O147 C275 1_555 1_555
O148 C281 1_555 1_555
O149 C260 1_555 1_555
O150 C266 1_555 1_555
O151 C272 1_555 1_555
O152 C278 1_555 1_555
O153 C284 1_555 1_555
O154 C291 1_555 1_555
O155 C297 1_555 1_555
O156 C303 1_555 1_555
O157 C309 1_555 1_555
O158 C315 1_555 1_555
O159 C294 1_555 1_555
O160 C300 1_555 1_555
O161 C306 1_555 1_555
O162 C312 1_555 1_555
O163 C318 1_555 1_555
O164 C323 1_555 1_555
O165 C329 1_555 1_555
O166 C335 1_555 1_555
O167 C341 1_555 1_555
O168 C347 1_555 1_555
O169 C326 1_555 1_555
O170 C332 1_555 1_555
O171 C338 1_555 1_555
O172 C344 1_555 1_555
O173 C350 1_555 1_555
Sr1 O114 1_555 1_555
Sr2 O119 1_555 1_555
Sr3 O5 1_555 1_555
Sr4 O129 1_555 1_555
Sr5 O7 1_555 1_555
Sr6 O139 1_555 1_555
Sr7 O11 1_555 1_555
Sr8 O149 1_555 1_555
Sr9 O13 1_555 1_555
Sr10 O159 1_555 1_555
Sr11 O17 1_555 1_555
Sr12 O2 1_555 1_555
Sr13 O74 1_555 1_555
Sr14 O79 1_555 1_555
Sr15 O21 1_555 1_555
Sr16 O89 1_555 1_555
Sr17 O94 1_555 1_555
Sr18 O99 1_555 1_555
Sr19 O28 1_555 1_555
Sr20 O109 1_555 1_555
Sr21 O64 1_555 1_555
Sr22 O69 1_555 1_555
O3 Sr12 1_555 1_555
O6 Sr3 1_555 1_555
O8 Sr5 1_555 1_555
O12 Sr7 1_555 1_555
O14 Sr9 1_555 1_555
O18 Sr11 1_555 1_555
O22 Sr15 1_555 1_555
O29 Sr19 1_555 1_555
C3 N82 1_555 1_555
C4 N84 1_555 1_555
C8 N85 1_555 1_555
C8 N87 1_555 1_555
C10 N88 1_555 1_555
C14 N89 1_555 1_555
C14 N91 1_555 1_555
C16 N92 1_555 1_555
C25 N4 1_555 1_555
C29 N5 1_555 1_555
C29 N7 1_555 1_555
C31 N8 1_555 1_555
C35 N9 1_555 1_555
C35 N11 1_555 1_555
C37 N12 1_555 1_555
C41 N13 1_555 1_555
C41 N15 1_555 1_555
C43 N16 1_555 1_555
C47 N17 1_555 1_555
C47 N19 1_555 1_555
C48 N18 1_555 1_555
C49 N20 1_555 1_555
C50 N18 1_555 1_555
C51 N20 1_555 1_555
O65 Sr21 1_555 1_555
O66 Sr21 1_555 1_555
O67 Sr21 1_555 1_555
O68 Sr21 1_555 1_555
O70 Sr22 1_555 1_555
O71 Sr22 1_555 1_555
O72 Sr22 1_555 1_555
O73 Sr22 1_555 1_555
C58 N24 1_555 1_555
C62 N25 1_555 1_555
C62 N27 1_555 1_555
C64 N28 1_555 1_555
C68 N29 1_555 1_555
C68 N31 1_555 1_555
C70 N32 1_555 1_555
C74 N33 1_555 1_555
C74 N35 1_555 1_555
C76 N36 1_555 1_555
C80 N37 1_555 1_555
C80 N39 1_555 1_555
C81 N38 1_555 1_555
C82 N40 1_555 1_555
C83 N38 1_555 1_555
C84 N40 1_555 1_555
C89 N42 1_555 1_555
C90 N44 1_555 1_555
C94 N45 1_555 1_555
C94 N47 1_555 1_555
C96 N48 1_555 1_555
C100 N49 1_555 1_555
C100 N51 1_555 1_555
C102 N52 1_555 1_555
C106 N53 1_555 1_555
C106 N55 1_555 1_555
C108 N56 1_555 1_555
C112 N57 1_555 1_555
C112 N59 1_555 1_555
C114 N60 1_555 1_555
C115 N58 1_555 1_555
C116 N60 1_555 1_555
C122 N64 1_555 1_555
C126 N65 1_555 1_555
C126 N67 1_555 1_555
C128 N68 1_555 1_555
C132 N69 1_555 1_555
C132 N71 1_555 1_555
C134 N72 1_555 1_555
C138 N73 1_555 1_555
C138 N75 1_555 1_555
C140 N76 1_555 1_555
C144 N77 1_555 1_555
C144 N79 1_555 1_555
C146 N80 1_555 1_555
C147 N78 1_555 1_555
C148 N80 1_555 1_555
C150 N93 1_555 1_555
C150 N95 1_555 1_555
C152 N96 1_555 1_555
C156 N97 1_555 1_555
C156 N99 1_555 1_555
C158 N100 1_555 1_555
C159 N98 1_555 1_555
C160 N100 1_555 1_555
O75 Sr13 1_555 1_555
O76 Sr13 1_555 1_555
O77 Sr13 1_555 1_555
O78 Sr13 1_555 1_555
O80 Sr14 1_555 1_555
O81 Sr14 1_555 1_555
O82 Sr14 1_555 1_555
O83 Sr14 1_555 1_555
O84 Sr14 1_555 1_555
O84 Sr15 1_555 1_555
O85 Sr15 1_555 1_555
O86 Sr15 1_555 1_555
O87 Sr15 1_555 1_555
O88 Sr15 1_555 1_555
O90 Sr16 1_555 1_555
O91 Sr16 1_555 1_555
O92 Sr16 1_555 1_555
O93 Sr16 1_555 1_555
O95 Sr17 1_555 1_555
O96 Sr17 1_555 1_555
O97 Sr17 1_555 1_555
O98 Sr17 1_555 1_555
O100 Sr18 1_555 1_555
O101 Sr18 1_555 1_555
O102 Sr18 1_555 1_555
O103 Sr18 1_555 1_555
O104 Sr18 1_555 1_555
O104 Sr19 1_555 1_555
O105 Sr19 1_555 1_555
O106 Sr19 1_555 1_555
O107 Sr19 1_555 1_555
O108 Sr19 1_555 1_555
O110 Sr20 1_555 1_555
O111 Sr20 1_555 1_555
O112 Sr20 1_555 1_555
O113 Sr20 1_555 1_555
C163 N102 1_555 1_555
C164 N104 1_555 1_555
C168 N105 1_555 1_555
C168 N107 1_555 1_555
C170 N108 1_555 1_555
C174 N109 1_555 1_555
C174 N111 1_555 1_555
C176 N112 1_555 1_555
C180 N113 1_555 1_555
C180 N115 1_555 1_555
C182 N116 1_555 1_555
C186 N117 1_555 1_555
C186 N119 1_555 1_555
C188 N120 1_555 1_555
C189 N118 1_555 1_555
C190 N120 1_555 1_555
C196 N124 1_555 1_555
C200 N125 1_555 1_555
C200 N127 1_555 1_555
C202 N128 1_555 1_555
C206 N129 1_555 1_555
C206 N131 1_555 1_555
C208 N132 1_555 1_555
C212 N133 1_555 1_555
C212 N135 1_555 1_555
C214 N136 1_555 1_555
C218 N137 1_555 1_555
C218 N139 1_555 1_555
C219 N138 1_555 1_555
C220 N140 1_555 1_555
C221 N138 1_555 1_555
C222 N140 1_555 1_555
C227 N142 1_555 1_555
C228 N144 1_555 1_555
C232 N145 1_555 1_555
C232 N147 1_555 1_555
C234 N148 1_555 1_555
C238 N149 1_555 1_555
C238 N151 1_555 1_555
C240 N152 1_555 1_555
C244 N153 1_555 1_555
C244 N155 1_555 1_555
C246 N156 1_555 1_555
C250 N157 1_555 1_555
C250 N159 1_555 1_555
C252 N160 1_555 1_555
C253 N158 1_555 1_555
C254 N160 1_555 1_555
C260 N164 1_555 1_555
C264 N165 1_555 1_555
C264 N167 1_555 1_555
C266 N168 1_555 1_555
C270 N169 1_555 1_555
C270 N171 1_555 1_555
C271 N170 1_555 1_555
C272 N172 1_555 1_555
C276 N173 1_555 1_555
C276 N175 1_555 1_555
C278 N176 1_555 1_555
C282 N177 1_555 1_555
C282 N179 1_555 1_555
C284 N180 1_555 1_555
C285 N178 1_555 1_555
C286 N180 1_555 1_555
C293 N182 1_555 1_555
C294 N184 1_555 1_555
C298 N185 1_555 1_555
C298 N187 1_555 1_555
C300 N188 1_555 1_555
C304 N189 1_555 1_555
C304 N191 1_555 1_555
C306 N192 1_555 1_555
C310 N193 1_555 1_555
C310 N195 1_555 1_555
C312 N196 1_555 1_555
C316 N197 1_555 1_555
C316 N199 1_555 1_555
C318 N200 1_555 1_555
C319 N198 1_555 1_555
C320 N200 1_555 1_555
C325 N202 1_555 1_555
C326 N204 1_555 1_555
C330 N205 1_555 1_555
C330 N207 1_555 1_555
C332 N208 1_555 1_555
C336 N209 1_555 1_555
C336 N211 1_555 1_555
C338 N212 1_555 1_555
C342 N213 1_555 1_555
C342 N215 1_555 1_555
C344 N216 1_555 1_555
C348 N217 1_555 1_555
C348 N219 1_555 1_555
C350 N220 1_555 1_555
C351 N218 1_555 1_555
C352 N220 1_555 1_555
O114 Sr12 1_555 1_555
O115 Sr1 1_555 1_555
O116 Sr1 1_555 1_555
O117 Sr1 1_555 1_555
O118 Sr1 1_555 1_555
O119 Sr3 1_555 1_555
O120 Sr2 1_555 1_555
O121 Sr2 1_555 1_555
O122 Sr2 1_555 1_555
O123 Sr2 1_555 1_555
O124 Sr3 1_555 1_555
O125 Sr3 1_555 1_555
O126 Sr3 1_555 1_555
O127 Sr3 1_555 1_555
O128 Sr3 1_555 1_555
O130 Sr4 1_555 1_555
O131 Sr4 1_555 1_555
O132 Sr4 1_555 1_555
O133 Sr4 1_555 1_555
O134 Sr4 1_555 1_555
O134 Sr5 1_555 1_555
O135 Sr5 1_555 1_555
O136 Sr5 1_555 1_555
O137 Sr5 1_555 1_555
O138 Sr5 1_555 1_555
O139 Sr7 1_555 1_555
O140 Sr6 1_555 1_555
O141 Sr6 1_555 1_555
O142 Sr6 1_555 1_555
O143 Sr6 1_555 1_555
O144 Sr7 1_555 1_555
O145 Sr7 1_555 1_555
O146 Sr7 1_555 1_555
O147 Sr7 1_555 1_555
O148 Sr7 1_555 1_555
O150 Sr8 1_555 1_555
O151 Sr8 1_555 1_555
O152 Sr8 1_555 1_555
O153 Sr8 1_555 1_555
O154 Sr8 1_555 1_555
O154 Sr9 1_555 1_555
O155 Sr9 1_555 1_555
O156 Sr9 1_555 1_555
O157 Sr9 1_555 1_555
O158 Sr9 1_555 1_555
O159 Sr11 1_555 1_555
O160 Sr10 1_555 1_555
O161 Sr10 1_555 1_555
O162 Sr10 1_555 1_555
O163 Sr10 1_555 1_555
O164 Sr11 1_555 1_555
O165 Sr11 1_555 1_555
O166 Sr11 1_555 1_555
O167 Sr11 1_555 1_555
O168 Sr11 1_555 1_555
O169 Sr12 1_555 1_555
O170 Sr12 1_555 1_555
O171 Sr12 1_555 1_555
O172 Sr12 1_555 1_555
O173 Sr12 1_555 1_555

#END
