
#######################################################################
#
#                 Cambridge Crystallographic Data Centre
#                                CCDC 
#
#######################################################################
#
# If this CIF has been generated from an entry in the Cambridge 
# Structural Database, then it will include bibliographic, chemical, 
# crystal, experimental, refinement or atomic coordinate data resulting 
# from the CCDC's data processing and validation procedures.
#
#######################################################################

data_GOJVUX
_chemical_formula_moiety         '2(C20 H15 N4 1+),C8 H4 O4 2-,4(H2 O1)'
_chemical_name_systematic        
'bis(1-(Benzimidazolium-2-yl)-3-(benzimidazol-2-yl)benzene) terephthalate tetrahydrate'
_symmetry_cell_setting           triclinic
_symmetry_space_group_name_H-M   'P -1'
_symmetry_Int_Tables_number      2
_space_group_name_Hall           '-P 1'
loop_
_symmetry_equiv_pos_site_id
_symmetry_equiv_pos_as_xyz
1 x,y,z
2 -x,-y,-z
_cell_length_a                   7.9422(3)
_cell_length_b                   9.2534(3)
_cell_length_c                   14.5539(4)
_cell_angle_alpha                88.9470(10)
_cell_angle_beta                 79.1290(10)
_cell_angle_gamma                72.6560(10)
_cell_volume                     1001.83
_exptl_crystal_colour            yellow
_exptl_crystal_description       block
_cell_formula_units_Z            1
loop_
_atom_site_label
_atom_site_type_symbol
_atom_site_fract_x
_atom_site_fract_y
_atom_site_fract_z
O1 O 0.54502(14) 0.88030(11) 0.23794(7)
O2 O 0.29698(14) 1.07650(12) 0.24961(7)
C21 C 0.43465(19) 0.98204(16) 0.20287(10)
C22 C 0.46916(18) 0.99283(15) 0.09746(10)
C23 C 0.62972(19) 0.90504(16) 0.04321(11)
H13 H 0.7193 0.8399 0.0726
C24 C 0.34023(19) 1.08806(16) 0.05329(10)
H14 H 0.2304 1.1490 0.0897
O1A O 0.45498(14) 1.11970(11) -0.23794(7)
O2A O 0.70302(14) 0.92350(12) -0.24961(7)
C21A C 0.56535(19) 1.01796(16) -0.20287(10)
C22A C 0.53084(18) 1.00717(15) -0.09746(10)
C23A C 0.37028(19) 1.09496(16) -0.04321(11)
H13A H 0.2807 1.1601 -0.0726
C24A C 0.65977(19) 0.91194(16) -0.05329(10)
H14A H 0.7696 0.8510 -0.0897
O3 O 0.28865(18) 0.15256(14) 0.59377(10)
H18 H 0.324(3) 0.149(2) 0.5330(7)
H19 H 0.375(3) 0.093(3) 0.615(2)
O4 O 0.4066(2) 0.12000(14) 0.41112(9)
H20 H 0.435(3) 0.2000(16) 0.3968(15)
H21 H 0.366(3) 0.098(3) 0.3650(13)
N1 N 0.05777(16) 0.40238(14) 0.66667(9)
N2 N -0.11909(16) 0.62131(14) 0.72625(9)
N3 N 0.49520(16) 0.37746(13) 0.34634(8)
N4 N 0.54092(16) 0.59147(14) 0.28913(8)
C1 C -0.05419(19) 0.37307(16) 0.74494(10)
C2 C -0.0635(2) 0.23729(18) 0.78497(11)
H1 H 0.0149 0.1421 0.7590
C3 C -0.1930(2) 0.24887(19) 0.86429(11)
H2 H -0.2041 0.1590 0.8940
C4 C -0.3086(2) 0.38860(19) 0.90244(11)
H3 H -0.3963 0.3908 0.9571
C5 C -0.2993(2) 0.52392(18) 0.86311(11)
H4 H -0.3780 0.6189 0.8892
C6 C -0.16806(19) 0.51278(16) 0.78302(10)
C7 C 0.01697(18) 0.55169(16) 0.65720(10)
C8 C 0.10837(18) 0.62657(16) 0.58309(10)
C9 C 0.07844(19) 0.78305(17) 0.59111(10)
H5 H -0.0036 0.8405 0.6431
C10 C 0.1690(2) 0.85388(17) 0.52282(11)
H6 H 0.1497 0.9599 0.5286
C11 C 0.28689(19) 0.77131(16) 0.44652(11)
H7 H 0.3463 0.8214 0.3995
C12 C 0.31949(18) 0.61494(16) 0.43785(10)
C13 C 0.44980(18) 0.52636(16) 0.35852(10)
C14 C 0.65265(18) 0.47636(16) 0.22773(10)
C15 C 0.77402(19) 0.47692(18) 0.14479(11)
H8 H 0.7933 0.5681 0.1208
C16 C 0.8643(2) 0.33853(19) 0.09959(11)
H9 H 0.9482 0.3340 0.0430
C17 C 0.8354(2) 0.20359(19) 0.13503(12)
H10 H 0.8997 0.1103 0.1016
C18 C 0.7155(2) 0.20368(17) 0.21758(11)
H11 H 0.6972 0.1122 0.2415
C19 C 0.62278(19) 0.34297(16) 0.26428(10)
C20 C 0.22871(18) 0.54360(16) 0.50670(10)
H12 H 0.2494 0.4373 0.5013
H15 H 0.145(2) 0.3288(19) 0.6343(13)
H16 H -0.174(3) 0.7190(12) 0.7354(15)
H17 H 0.528(3) 0.6878(12) 0.2820(14)
loop_
_geom_bond_atom_site_label_1
_geom_bond_atom_site_label_2
_geom_bond_site_symmetry_1
_geom_bond_site_symmetry_2
O1 C21 1_555 1_555
O2 C21 1_555 1_555
O3 H18 1_555 1_555
O4 H20 1_555 1_555
N1 C1 1_555 1_555
N2 C6 1_555 1_555
N3 C13 1_555 1_555
N4 C13 1_555 1_555
C1 C2 1_555 1_555
C2 H1 1_555 1_555
C3 C2 1_555 1_555
H2 C3 1_555 1_555
C4 C3 1_555 1_555
H3 C4 1_555 1_555
C5 C4 1_555 1_555
H4 C5 1_555 1_555
C6 C1 1_555 1_555
C7 N1 1_555 1_555
C8 C7 1_555 1_555
C9 C8 1_555 1_555
H5 C9 1_555 1_555
C10 C9 1_555 1_555
H6 C10 1_555 1_555
C11 C10 1_555 1_555
H7 C11 1_555 1_555
C12 C11 1_555 1_555
C13 C12 1_555 1_555
C14 N4 1_555 1_555
C15 C14 1_555 1_555
H8 C15 1_555 1_555
C16 C15 1_555 1_555
H9 C16 1_555 1_555
C17 C16 1_555 1_555
H10 C17 1_555 1_555
C18 C17 1_555 1_555
H11 C18 1_555 1_555
C19 N3 1_555 1_555
C20 C8 1_555 1_555
H12 C20 1_555 1_555
C21 C22 1_555 1_555
C22 C23 1_555 1_555
C23 H13 1_555 1_555
C24 C22 1_555 1_555
H14 C24 1_555 1_555
H15 N1 1_555 1_555
H16 N2 1_555 1_555
H17 N4 1_555 1_555
H19 O3 1_555 1_555
H21 O4 1_555 1_555
O1A C21A 1_555 1_555
O2A C21A 1_555 1_555
C21A C22A 1_555 1_555
C22A C23A 1_555 1_555
C23A C24 1_555 1_555
H13A C23A 1_555 1_555
C24A C23 1_555 1_555
H14A C24A 1_555 1_555
N2 C7 1_555 1_555
C5 C6 1_555 1_555
C12 C20 1_555 1_555
C14 C19 1_555 1_555
C18 C19 1_555 1_555
C22A C24A 1_555 1_555

#END
