
#######################################################################
#
#                 Cambridge Crystallographic Data Centre
#                                CCDC 
#
#######################################################################
#
# If this CIF has been generated from an entry in the Cambridge 
# Structural Database, then it will include bibliographic, chemical, 
# crystal, experimental, refinement or atomic coordinate data resulting 
# from the CCDC's data processing and validation procedures.
#
#######################################################################

data_GOKFES
_chemical_formula_moiety         'C9 H13 N3 O2 Se1,H2 O1'
_chemical_name_systematic        
"\b-D-2',3'-Dideoxy-4'-selenocytidine monohydrate"
_chemical_properties_biological  'no significant anti-HIV activity'
_symmetry_cell_setting           orthorhombic
_symmetry_space_group_name_H-M   'P 21 21 21'
_symmetry_Int_Tables_number      19
_space_group_name_Hall           'P 2ac 2ab'
loop_
_symmetry_equiv_pos_site_id
_symmetry_equiv_pos_as_xyz
1 x,y,z
2 1/2-x,-y,1/2+z
3 1/2+x,1/2-y,-z
4 -x,1/2+y,1/2-z
_cell_length_a                   9.2933(3)
_cell_length_b                   10.9991(3)
_cell_length_c                   11.3111(4)
_cell_angle_alpha                90
_cell_angle_beta                 90
_cell_angle_gamma                90
_cell_volume                     1156.2
_chemical_melting_point          '139.3-147.4 deg.C'
_cell_formula_units_Z            4
loop_
_atom_site_label
_atom_site_type_symbol
_atom_site_fract_x
_atom_site_fract_y
_atom_site_fract_z
Se1 Se 0.05224(2) 0.30110(2) 0.17218(2)
C1 C -0.0554(3) 0.26575(18) 0.0254(2)
C2 C -0.1511(3) 0.4585(3) 0.2918(3)
C3 C -0.0850(2) 0.07002(19) -0.0802(2)
C4 C -0.2557(3) -0.0141(2) 0.1029(2)
C5 C -0.1194(3) 0.4798(2) 0.0683(3)
C6 C -0.1993(3) 0.0979(2) 0.1079(2)
C7 C -0.0504(3) 0.45723(19) 0.1881(2)
C8 C -0.1737(3) 0.3606(2) 0.0171(3)
C9 C -0.2200(2) -0.08729(19) 0.0028(2)
O1 O -0.01283(16) 0.11274(13) -0.16261(16)
O2 O -0.2601(2) 0.3675(2) 0.29050(19)
N1 N -0.11104(19) 0.14046(15) 0.01998(18)
N2 N -0.2687(3) -0.2005(2) -0.0066(2)
N3 N -0.1373(2) -0.04461(16) -0.0848(2)
H1 H -0.212(3) 0.154(2) 0.171(2)
H2 H -0.318(3) -0.044(2) 0.162(3)
H3 H -0.252(3) 0.336(2) 0.059(2)
H4 H 0.005(3) 0.271(2) -0.036(2)
H5 H -0.057(3) 0.521(2) 0.012(2)
H6 H -0.316(4) 0.401(3) 0.253(4)
H7 H -0.202(3) 0.546(2) 0.075(2)
H8 H -0.195(3) 0.364(2) -0.064(3)
H9 H 0.019(3) 0.519(2) 0.204(2)
H10 H -0.191(4) 0.537(3) 0.299(3)
H11 H -0.102(3) 0.451(3) 0.372(3)
H12 H -0.317(4) -0.233(3) 0.045(3)
H13 H -0.232(4) -0.252(3) -0.077(3)
O3 O -0.5887(2) 0.1858(2) 0.3063(2)
H14 H -0.561(4) 0.234(3) 0.268(3)
H15 H -0.516(4) 0.147(3) 0.330(3)
loop_
_geom_bond_atom_site_label_1
_geom_bond_atom_site_label_2
_geom_bond_site_symmetry_1
_geom_bond_site_symmetry_2
Se1 C1 1_555 1_555
C1 C8 1_555 1_555
C2 C7 1_555 1_555
C3 O1 1_555 1_555
C4 C6 1_555 1_555
C5 C7 1_555 1_555
C6 N1 1_555 1_555
C7 Se1 1_555 1_555
C8 C5 1_555 1_555
C9 C4 1_555 1_555
O2 C2 1_555 1_555
O3 H14 1_555 1_555
N1 C1 1_555 1_555
N2 C9 1_555 1_555
N3 C3 1_555 1_555
H1 C6 1_555 1_555
H2 C4 1_555 1_555
H3 C8 1_555 1_555
H4 C1 1_555 1_555
H5 C5 1_555 1_555
H6 O2 1_555 1_555
H7 C5 1_555 1_555
H8 C8 1_555 1_555
H9 C7 1_555 1_555
H10 C2 1_555 1_555
H11 C2 1_555 1_555
H12 N2 1_555 1_555
H13 N2 1_555 1_555
H15 O3 1_555 1_555
C3 N1 1_555 1_555
C9 N3 1_555 1_555

#END
