
#######################################################################
#
#                 Cambridge Crystallographic Data Centre
#                                CCDC 
#
#######################################################################
#
# If this CIF has been generated from an entry in the Cambridge 
# Structural Database, then it will include bibliographic, chemical, 
# crystal, experimental, refinement or atomic coordinate data resulting 
# from the CCDC's data processing and validation procedures.
#
#######################################################################

data_GOKLOI
_chemical_formula_moiety         'C22 H19 F1 N2 O1'
_chemical_name_systematic        
1-Phenyl-3-(4-fluorophenyl)-5-(4-methoxyphenyl)-2-pyrazoline
_symmetry_cell_setting           monoclinic
_symmetry_space_group_name_H-M   'P 21/c'
_symmetry_Int_Tables_number      14
_space_group_name_Hall           '-P 2ybc'
loop_
_symmetry_equiv_pos_site_id
_symmetry_equiv_pos_as_xyz
1 x,y,z
2 -x,1/2+y,1/2-z
3 -x,-y,-z
4 x,1/2-y,1/2+z
_cell_length_a                   20.685(4)
_cell_length_b                   5.5015(11)
_cell_length_c                   16.244(3)
_cell_angle_alpha                90
_cell_angle_beta                 103.42(3)
_cell_angle_gamma                90
_cell_volume                     1798.07
_exptl_crystal_colour            'light yellow'
_exptl_crystal_description       block
_chemical_melting_point          '141-142 deg.C'
_cell_formula_units_Z            4
_exptl_crystal_recrystallization_method 'acetic ether'
loop_
_atom_site_label
_atom_site_type_symbol
_atom_site_fract_x
_atom_site_fract_y
_atom_site_fract_z
F1 F 0.53012(12) 0.5241(6) 0.3161(2)
O1 O -0.05612(11) 0.0107(5) 0.34558(16)
N1 N 0.32137(13) 0.0295(5) 0.49574(17)
N2 N 0.26048(13) -0.0068(5) 0.51749(16)
C1 C 0.4784(2) 0.4492(9) 0.3485(3)
C2 C 0.4851(2) 0.2507(13) 0.3971(4)
H1 H 0.5246 0.1631 0.4084
C3 C 0.4322(2) 0.1769(12) 0.4305(4)
H2 H 0.4368 0.0397 0.4648
C4 C 0.37345(16) 0.3018(7) 0.4140(2)
C5 C 0.36794(19) 0.4939(8) 0.3605(3)
H3 H 0.3279 0.5776 0.3458
C6 C 0.4209(2) 0.5689(9) 0.3270(3)
H4 H 0.4162 0.7007 0.2902
C7 C 0.31760(15) 0.2216(6) 0.44979(19)
C8 C 0.25098(15) 0.3470(6) 0.4349(2)
H5 H 0.2266 0.3312 0.3765
H6 H 0.2559 0.5180 0.4496
C9 C 0.21642(15) 0.2079(6) 0.49507(19)
H7 H 0.2182 0.3058 0.5459
C10 C 0.14430(15) 0.1424(6) 0.45517(18)
C11 C 0.09354(16) 0.2872(6) 0.4704(2)
H8 H 0.1040 0.4202 0.5063
C12 C 0.02762(16) 0.2383(7) 0.4332(2)
H9 H -0.0056 0.3390 0.4441
C13 C 0.01084(16) 0.0406(6) 0.38003(19)
C14 C -0.0768(2) -0.1918(8) 0.2920(3)
H10 H -0.1244 -0.1901 0.2728
H11 H -0.0632 -0.3391 0.3228
H12 H -0.0571 -0.1831 0.2442
C15 C 0.06053(17) -0.1073(6) 0.3640(2)
H13 H 0.0500 -0.2406 0.3281
C16 C 0.12663(16) -0.0544(6) 0.4021(2)
H14 H 0.1599 -0.1551 0.3915
C17 C 0.26048(15) -0.1552(6) 0.58753(19)
C18 C 0.20646(17) -0.1553(7) 0.6259(2)
H15 H 0.1711 -0.0497 0.6065
C19 C 0.20529(19) -0.3106(8) 0.6920(2)
H16 H 0.1692 -0.3076 0.7171
C20 C 0.2566(2) -0.4700(8) 0.7215(2)
H17 H 0.2552 -0.5749 0.7660
C21 C 0.31050(19) -0.4726(7) 0.6840(2)
H18 H 0.3453 -0.5806 0.7034
C22 C 0.31297(16) -0.3167(7) 0.6185(2)
H19 H 0.3497 -0.3186 0.5946
loop_
_geom_bond_atom_site_label_1
_geom_bond_atom_site_label_2
_geom_bond_site_symmetry_1
_geom_bond_site_symmetry_2
F1 C1 1_555 1_555
O1 C13 1_555 1_555
N1 N2 1_555 1_555
N2 C9 1_555 1_555
C1 C2 1_555 1_555
C2 H1 1_555 1_555
C3 C2 1_555 1_555
H2 C3 1_555 1_555
C4 C3 1_555 1_555
C5 C4 1_555 1_555
H3 C5 1_555 1_555
C6 C1 1_555 1_555
H4 C6 1_555 1_555
C7 N1 1_555 1_555
C8 C7 1_555 1_555
H5 C8 1_555 1_555
H6 C8 1_555 1_555
C9 C8 1_555 1_555
H7 C9 1_555 1_555
C10 C9 1_555 1_555
C11 C10 1_555 1_555
H8 C11 1_555 1_555
C12 C11 1_555 1_555
H9 C12 1_555 1_555
C13 C12 1_555 1_555
C14 O1 1_555 1_555
H10 C14 1_555 1_555
H11 C14 1_555 1_555
H12 C14 1_555 1_555
C15 C13 1_555 1_555
H13 C15 1_555 1_555
C16 C10 1_555 1_555
H14 C16 1_555 1_555
C17 N2 1_555 1_555
C18 C17 1_555 1_555
H15 C18 1_555 1_555
C19 C18 1_555 1_555
H16 C19 1_555 1_555
C20 C19 1_555 1_555
H17 C20 1_555 1_555
C21 C20 1_555 1_555
H18 C21 1_555 1_555
C22 C17 1_555 1_555
H19 C22 1_555 1_555
C4 C7 1_555 1_555
C5 C6 1_555 1_555
C15 C16 1_555 1_555
C21 C22 1_555 1_555

#END
