
#######################################################################
#
#                 Cambridge Crystallographic Data Centre
#                                CCDC 
#
#######################################################################
#
# If this CIF has been generated from an entry in the Cambridge 
# Structural Database, then it will include bibliographic, chemical, 
# crystal, experimental, refinement or atomic coordinate data resulting 
# from the CCDC's data processing and validation procedures.
#
#######################################################################

data_GOKNEB
_chemical_formula_moiety         'C16 H15 Cl1 N4 O1'
_chemical_name_systematic        
2-chloro-6-phenyl-9-(tetrahydro-2H-pyran-2-yl)-9H-purine
_symmetry_cell_setting           triclinic
_symmetry_space_group_name_H-M   'P -1'
_symmetry_Int_Tables_number      2
_space_group_name_Hall           '-P 1'
loop_
_symmetry_equiv_pos_site_id
_symmetry_equiv_pos_as_xyz
1 x,y,z
2 -x,-y,-z
_cell_length_a                   7.8931(7)
_cell_length_b                   8.2099(5)
_cell_length_c                   12.0407(9)
_cell_angle_alpha                81.875(5)
_cell_angle_beta                 80.762(6)
_cell_angle_gamma                70.913(6)
_cell_volume                     724.488
_exptl_crystal_colour            colorless
_exptl_crystal_description       block
_cell_formula_units_Z            2
loop_
_atom_site_label
_atom_site_type_symbol
_atom_site_fract_x
_atom_site_fract_y
_atom_site_fract_z
Cl1 Cl 0.70968(5) 0.32526(5) 0.18066(3)
O1 O 0.15646(16) 1.01025(15) 0.12204(9)
N1 N 0.47654(16) 0.38229(15) 0.35961(10)
N2 N 0.48404(16) 0.62647(15) 0.22498(10)
N3 N 0.16276(16) 0.79568(15) 0.45865(10)
N4 N 0.27460(16) 0.89407(15) 0.28777(10)
C1 C 0.53606(19) 0.46123(18) 0.26543(12)
C2 C 0.35865(18) 0.71896(17) 0.29934(11)
C3 C 0.28708(18) 0.65817(17) 0.40525(11)
C4 C 0.34644(18) 0.47903(17) 0.43275(11)
C5 C 0.1598(2) 0.93056(18) 0.38612(12)
H1 H 0.0847 1.0443 0.4001
C6 C 0.27570(18) 0.38414(17) 0.53309(11)
C7 C 0.1405(2) 0.46894(19) 0.61344(12)
H2 H 0.0939 0.5918 0.6060
C8 C 0.0737(2) 0.3742(2) 0.70455(13)
H3 H -0.0180 0.4328 0.7596
C9 C 0.1393(2) 0.1958(2) 0.71589(12)
H4 H 0.0918 0.1319 0.7780
C10 C 0.2740(2) 0.1102(2) 0.63686(14)
H5 H 0.3197 -0.0127 0.6447
C11 C 0.3425(2) 0.20352(19) 0.54613(13)
H6 H 0.4359 0.1441 0.4922
C12 C 0.2942(2) 1.00564(18) 0.18506(12)
H7 H 0.4137 0.9513 0.1411
C13 C 0.1780(3) 1.1011(3) 0.01174(14)
H8 H 0.0812 1.1014 -0.0315
H9 H 0.2953 1.0393 -0.0297
C14 C 0.1706(2) 1.2842(2) 0.01902(15)
H10 H 0.0477 1.3507 0.0510
H11 H 0.1962 1.3390 -0.0578
C15 C 0.3061(3) 1.2899(2) 0.09218(14)
H12 H 0.2878 1.4115 0.1045
H13 H 0.4299 1.2420 0.0535
C16 C 0.2850(3) 1.1845(2) 0.20634(14)
H14 H 0.3827 1.1780 0.2508
H15 H 0.1677 1.2410 0.2499
loop_
_geom_bond_atom_site_label_1
_geom_bond_atom_site_label_2
_geom_bond_site_symmetry_1
_geom_bond_site_symmetry_2
Cl1 C1 1_555 1_555
O1 C12 1_555 1_555
N1 C1 1_555 1_555
N2 C1 1_555 1_555
N3 C3 1_555 1_555
N4 C2 1_555 1_555
C2 N2 1_555 1_555
C3 C2 1_555 1_555
C4 N1 1_555 1_555
C5 N3 1_555 1_555
H1 C5 1_555 1_555
C6 C4 1_555 1_555
C7 C6 1_555 1_555
H2 C7 1_555 1_555
C8 C7 1_555 1_555
H3 C8 1_555 1_555
C9 C8 1_555 1_555
H4 C9 1_555 1_555
C10 C9 1_555 1_555
H5 C10 1_555 1_555
C11 C6 1_555 1_555
H6 C11 1_555 1_555
C12 N4 1_555 1_555
H7 C12 1_555 1_555
C13 O1 1_555 1_555
H8 C13 1_555 1_555
H9 C13 1_555 1_555
C14 C13 1_555 1_555
H10 C14 1_555 1_555
H11 C14 1_555 1_555
C15 C14 1_555 1_555
H12 C15 1_555 1_555
H13 C15 1_555 1_555
C16 C12 1_555 1_555
H14 C16 1_555 1_555
H15 C16 1_555 1_555
N4 C5 1_555 1_555
C3 C4 1_555 1_555
C10 C11 1_555 1_555
C15 C16 1_555 1_555

#END
