
#######################################################################
#
#                 Cambridge Crystallographic Data Centre
#                                CCDC 
#
#######################################################################
#
# If this CIF has been generated from an entry in the Cambridge 
# Structural Database, then it will include bibliographic, chemical, 
# crystal, experimental, refinement or atomic coordinate data resulting 
# from the CCDC's data processing and validation procedures.
#
#######################################################################

data_GOKTUV
_chemical_formula_moiety         'C12 H16 Cl4'
_chemical_name_systematic        
1-(Chloromethyl)-7-(2,2,2-trichloroethyl)-tricyclo(3.2.1.1^3,7^)nonane
_symmetry_cell_setting           monoclinic
_symmetry_space_group_name_H-M   'P 21/c'
_symmetry_Int_Tables_number      14
_space_group_name_Hall           '-P 2ybc'
loop_
_symmetry_equiv_pos_site_id
_symmetry_equiv_pos_as_xyz
1 x,y,z
2 -x,1/2+y,1/2-z
3 -x,-y,-z
4 x,1/2-y,1/2+z
_cell_length_a                   12.637(1)
_cell_length_b                   12.1029(7)
_cell_length_c                   9.2666(5)
_cell_angle_alpha                90
_cell_angle_beta                 108.880(5)
_cell_angle_gamma                90
_cell_volume                     1341.02
_cell_formula_units_Z            4
loop_
_atom_site_label
_atom_site_type_symbol
_atom_site_fract_x
_atom_site_fract_y
_atom_site_fract_z
Cl1 Cl 0.3679(1) -0.1759(1) 0.9398(1)
Cl2 Cl 0.0338(1) 0.0629(1) 0.2219(1)
Cl3 Cl 0.2151(1) -0.0536(1) 0.1672(1)
Cl4 Cl 0.0297(1) -0.1728(1) 0.1997(1)
C1 C 0.4265(3) 0.1064(3) 0.6353(4)
C2 C 0.4367(3) 0.0043(2) 0.7347(3)
C3 C 0.3129(2) -0.0206(2) 0.7127(3)
C4 C 0.2760(3) 0.0644(3) 0.8109(3)
C5 C 0.2609(3) 0.1673(3) 0.7125(4)
C6 C 0.1844(3) 0.1232(3) 0.5614(3)
C7 C 0.2485(2) 0.0196(2) 0.5380(3)
C8 C 0.3456(3) 0.0619(3) 0.4868(3)
C9 C 0.3740(3) 0.2019(3) 0.6968(4)
C10 C 0.2917(3) -0.1389(2) 0.7451(3)
C11 C 0.1757(2) -0.0712(2) 0.4408(3)
C12 C 0.1195(3) -0.0560(3) 0.2699(3)
loop_
_geom_bond_atom_site_label_1
_geom_bond_atom_site_label_2
_geom_bond_site_symmetry_1
_geom_bond_site_symmetry_2
Cl1 C10 1_555 1_555
Cl2 C12 1_555 1_555
Cl3 C12 1_555 1_555
Cl4 C12 1_555 1_555
C1 C2 1_555 1_555
C2 C3 1_555 1_555
C3 C4 1_555 1_555
C4 C5 1_555 1_555
C5 C6 1_555 1_555
C6 C7 1_555 1_555
C7 C3 1_555 1_555
C8 C1 1_555 1_555
C9 C1 1_555 1_555
C10 C3 1_555 1_555
C11 C7 1_555 1_555
C12 C11 1_555 1_555
C5 C9 1_555 1_555
C7 C8 1_555 1_555

#END
