
#######################################################################
#
#                 Cambridge Crystallographic Data Centre
#                                CCDC 
#
#######################################################################
#
# If this CIF has been generated from an entry in the Cambridge 
# Structural Database, then it will include bibliographic, chemical, 
# crystal, experimental, refinement or atomic coordinate data resulting 
# from the CCDC's data processing and validation procedures.
#
#######################################################################

data_GOKWEK
_chemical_name_common            
'isopropyl 1-benzoyl-4-(benzoyloxy)-2,6-diphenylpiperidine-3-carboxylate'
_chemical_formula_moiety         'C35 H31 N1 O5'
_chemical_name_systematic        
'isopropyl 1-benzoyl-4-(benzoyloxy)-2,6-diphenyl-1,2,5,6-tetrahydropyridine-3-carboxylate'
_symmetry_cell_setting           triclinic
_symmetry_space_group_name_H-M   'P -1'
_symmetry_Int_Tables_number      2
_space_group_name_Hall           '-P 1'
loop_
_symmetry_equiv_pos_site_id
_symmetry_equiv_pos_as_xyz
1 x,y,z
2 -x,-y,-z
_cell_length_a                   10.1788(6)
_cell_length_b                   11.4325(7)
_cell_length_c                   13.1395(9)
_cell_angle_alpha                81.847(2)
_cell_angle_beta                 86.662(3)
_cell_angle_gamma                69.654(2)
_cell_volume                     1419.08
_exptl_crystal_colour            white
_exptl_crystal_description       block
_cell_formula_units_Z            2
_exptl_crystal_recrystallization_method ethanol
loop_
_atom_site_label
_atom_site_type_symbol
_atom_site_fract_x
_atom_site_fract_y
_atom_site_fract_z
C1 C 0.96506(16) 0.08716(14) 0.67253(11)
H1 H 0.8967 0.0763 0.6347
C2 C 1.09259(18) 0.08065(17) 0.62695(13)
H2 H 1.1096 0.0652 0.5589
C3 C 1.19444(18) 0.09692(18) 0.68161(14)
H3 H 1.2805 0.0924 0.6510
C4 C 1.16822(16) 0.11983(17) 0.78179(13)
H4 H 1.2365 0.1317 0.8189
C5 C 1.04077(15) 0.12537(14) 0.82808(12)
H5 H 1.0246 0.1399 0.8963
C6 C 0.93736(14) 0.10950(12) 0.77359(10)
C7 C 0.79798(13) 0.10671(12) 0.82094(10)
H6 H 0.7885 0.0281 0.8069
C8 C 0.78325(14) 0.10737(12) 0.93686(10)
H7 H 0.7113 0.0729 0.9625
H8 H 0.8709 0.0539 0.9692
C9 C 0.74623(13) 0.23572(12) 0.96537(10)
C10 C 0.69662(13) 0.34103(12) 0.90037(10)
C11 C 0.65643(14) 0.33967(12) 0.79121(10)
H9 H 0.5551 0.3845 0.7874
C12 C 0.72113(14) 0.41264(12) 0.70991(10)
C13 C 0.84932(16) 0.42433(14) 0.72253(12)
H10 H 0.9004 0.3847 0.7818
C14 C 0.90280(18) 0.49434(16) 0.64800(13)
H11 H 0.9897 0.5011 0.6571
C15 C 0.8275(2) 0.55393(15) 0.56055(13)
H12 H 0.8636 0.6008 0.5104
C16 C 0.6998(2) 0.54443(14) 0.54719(11)
H13 H 0.6488 0.5851 0.4881
C17 C 0.64622(16) 0.47421(13) 0.62156(11)
H14 H 0.5590 0.4683 0.6121
C18 C 0.66009(14) 0.46966(13) 0.93018(10)
C19 C 0.72277(18) 0.59541(14) 1.03681(13)
H15 H 0.6229 0.6459 1.0317
C20 C 0.7649(3) 0.56499(19) 1.14784(15)
H16 H 0.8630 0.5163 1.1528
H17 H 0.7118 0.5175 1.1849
H18 H 0.7469 0.6417 1.1768
C21 C 0.8054(3) 0.6625(2) 0.97090(19)
H19 H 0.7820 0.7460 0.9887
H20 H 0.7838 0.6671 0.9000
H21 H 0.9036 0.6175 0.9816
N1 N 0.67724(11) 0.21014(10) 0.77234(8)
O1 O 0.56508(11) 0.55833(9) 0.89218(8)
O2 O 0.74703(10) 0.47477(9) 1.00008(8)
O3 O 0.74902(9) 0.24164(9) 1.07066(7)
O4 O 0.98397(11) 0.18061(10) 1.06863(8)
O5 O 0.48623(13) 0.27894(10) 0.67147(10)
C22 C 0.87486(15) 0.21460(12) 1.11539(11)
C23 C 0.86017(15) 0.23327(12) 1.22445(10)
C24 C 0.58887(14) 0.05921(14) 0.70980(11)
C25 C 0.58068(15) 0.19148(14) 0.71550(11)
C26 C 0.73276(17) 0.26105(15) 1.27588(12)
H22 H 0.6523 0.2683 1.2417
C27 C 0.97936(17) 0.22454(14) 1.27551(12)
H23 H 1.0651 0.2061 1.2410
C28 C 0.62173(17) 0.00964(16) 0.61776(13)
H24 H 0.6427 0.0573 0.5599
C29 C 0.55352(17) -0.01192(15) 0.79366(13)
H25 H 0.5299 0.0206 0.8558
C30 C 0.55295(18) -0.13089(16) 0.78597(15)
H26 H 0.5275 -0.1776 0.8425
C31 C 0.7256(2) 0.27799(17) 1.37821(13)
H27 H 0.6404 0.2951 1.4134
C32 C 0.9705(2) 0.24314(16) 1.37712(13)
H28 H 1.0503 0.2377 1.4113
C33 C 0.8442(2) 0.26963(16) 1.42834(13)
H29 H 0.8388 0.2820 1.4971
C34 C 0.58985(19) -0.18005(17) 0.69509(16)
H30 H 0.5920 -0.2611 0.6904
C35 C 0.62343(19) -0.11043(18) 0.61150(16)
H31 H 0.6477 -0.1440 0.5498
loop_
_geom_bond_atom_site_label_1
_geom_bond_atom_site_label_2
_geom_bond_site_symmetry_1
_geom_bond_site_symmetry_2
C1 H1 1_555 1_555
C2 C1 1_555 1_555
H2 C2 1_555 1_555
C3 C2 1_555 1_555
H3 C3 1_555 1_555
C4 C3 1_555 1_555
H4 C4 1_555 1_555
C5 C4 1_555 1_555
H5 C5 1_555 1_555
C6 C1 1_555 1_555
C7 C6 1_555 1_555
H6 C7 1_555 1_555
C8 C7 1_555 1_555
H7 C8 1_555 1_555
H8 C8 1_555 1_555
C9 C8 1_555 1_555
C10 C9 1_555 1_555
C11 C10 1_555 1_555
H9 C11 1_555 1_555
C12 C11 1_555 1_555
C13 C12 1_555 1_555
H10 C13 1_555 1_555
C14 C13 1_555 1_555
H11 C14 1_555 1_555
C15 C14 1_555 1_555
H12 C15 1_555 1_555
C16 C15 1_555 1_555
H13 C16 1_555 1_555
C17 C12 1_555 1_555
H14 C17 1_555 1_555
C18 C10 1_555 1_555
C19 H15 1_555 1_555
C20 C19 1_555 1_555
H16 C20 1_555 1_555
H17 C20 1_555 1_555
H18 C20 1_555 1_555
C21 C19 1_555 1_555
H19 C21 1_555 1_555
H20 C21 1_555 1_555
H21 C21 1_555 1_555
N1 C7 1_555 1_555
O1 C18 1_555 1_555
O2 C18 1_555 1_555
O3 C9 1_555 1_555
O4 C22 1_555 1_555
O5 C25 1_555 1_555
C22 O3 1_555 1_555
C23 C22 1_555 1_555
C24 C25 1_555 1_555
C25 N1 1_555 1_555
C26 C23 1_555 1_555
H22 C26 1_555 1_555
C27 C23 1_555 1_555
H23 C27 1_555 1_555
C28 C24 1_555 1_555
H24 C28 1_555 1_555
C29 C24 1_555 1_555
H25 C29 1_555 1_555
C30 C29 1_555 1_555
H26 C30 1_555 1_555
C31 C26 1_555 1_555
H27 C31 1_555 1_555
C32 C27 1_555 1_555
H28 C32 1_555 1_555
C33 C31 1_555 1_555
H29 C33 1_555 1_555
C34 C30 1_555 1_555
H30 C34 1_555 1_555
C35 C28 1_555 1_555
H31 C35 1_555 1_555
C5 C6 1_555 1_555
C11 N1 1_555 1_555
C16 C17 1_555 1_555
C19 O2 1_555 1_555
C32 C33 1_555 1_555
C34 C35 1_555 1_555

#END
