
#######################################################################
#
#                 Cambridge Crystallographic Data Centre
#                                CCDC 
#
#######################################################################
#
# If this CIF has been generated from an entry in the Cambridge 
# Structural Database, then it will include bibliographic, chemical, 
# crystal, experimental, refinement or atomic coordinate data resulting 
# from the CCDC's data processing and validation procedures.
#
#######################################################################

data_GOKXUZ
_chemical_formula_moiety         'C40 H48 O12 Rb1 1+,C6 H2 N3 O7 1-'
_chemical_name_systematic        
'bis(unsymm-Dibenzo-18-crown-6)-rubidium picrate'
_symmetry_cell_setting           triclinic
_symmetry_space_group_name_H-M   'P -1'
_symmetry_Int_Tables_number      2
_space_group_name_Hall           '-P 1'
loop_
_symmetry_equiv_pos_site_id
_symmetry_equiv_pos_as_xyz
1 x,y,z
2 -x,-y,-z
_cell_length_a                   12.9339(11)
_cell_length_b                   13.4891(11)
_cell_length_c                   15.9603(13)
_cell_angle_alpha                101.375(2)
_cell_angle_beta                 102.532(2)
_cell_angle_gamma                113.005(2)
_cell_volume                     2375.58
_exptl_crystal_colour            yellow
_cell_formula_units_Z            2
loop_
_atom_site_label
_atom_site_type_symbol
_atom_site_fract_x
_atom_site_fract_y
_atom_site_fract_z
Rb1 Rb 0.0799(1) 0.3972(1) 0.2476(1)
O1 O 0.1085(6) 0.2032(7) 0.0988(5)
O2 O 0.2689(6) 0.4316(7) 0.1292(5)
O3 O 0.2236(5) 0.6205(6) 0.1991(5)
O4 O -0.0260(5) 0.5273(6) 0.1313(5)
O5 O -0.1624(5) 0.3124(6) 0.0828(5)
O6 O -0.0984(5) 0.1468(6) 0.1314(5)
O7 O 0.2337(6) 0.3071(7) 0.3736(5)
O8 O -0.0115(6) 0.2071(7) 0.3503(5)
O9 O -0.1595(5) 0.3118(6) 0.3030(5)
O10 O -0.0034(5) 0.5472(6) 0.3781(5)
O11 O 0.2248(5) 0.6343(6) 0.4226(5)
O12 O 0.3474(5) 0.5174(7) 0.3618(5)
C1 C 0.2200(8) 0.2351(10) 0.0831(7)
C2 C 0.2455(10) 0.3364(11) 0.0534(7)
C3 C 0.3228(9) 0.5322(11) 0.1119(8)
C4 C 0.3326(8) 0.6289(10) 0.1907(7)
C5 C 0.1635(8) 0.6507(9) 0.1317(7)
C6 C 0.0537(8) 0.6459(9) 0.1490(7)
C7 C -0.1385(8) 0.5011(10) 0.1280(6)
C8 C -0.2169(8) 0.3803(9) 0.0996(6)
C9 C -0.2397(7) 0.1917(8) 0.0468(7)
C10 C -0.1612(8) 0.1356(9) 0.0420(6)
C11 C -0.0439(8) 0.0782(9) 0.1389(6)
C12 C 0.0653(8) 0.1058(9) 0.1230(7)
C13 C 0.1250(9) 0.0437(10) 0.1402(7)
C14 C 0.0748(9) -0.0515(11) 0.1673(8)
C15 C -0.0371(10) -0.0826(12) 0.1798(9)
C16 C -0.0930(9) -0.0149(10) 0.1656(7)
C17 C -0.1842(9) 0.5753(10) 0.1469(6)
C18 C -0.3037(10) 0.5382(12) 0.1374(8)
C19 C -0.3802(10) 0.4192(12) 0.1073(8)
C20 C -0.3337(8) 0.3427(10) 0.0888(7)
C21 C 0.1727(9) 0.1980(10) 0.3776(8)
C22 C 0.0716(9) 0.1910(11) 0.4114(7)
C23 C -0.1189(8) 0.1774(10) 0.3699(7)
C24 C -0.2031(8) 0.1976(10) 0.3044(8)
C25 C -0.1632(8) 0.3833(10) 0.3792(7)
C26 C -0.1258(7) 0.5031(10) 0.3714(7)
C27 C 0.0530(8) 0.6610(9) 0.3874(7)
C28 C 0.1791(8) 0.7061(9) 0.4115(7)
C29 C 0.3497(8) 0.6788(10) 0.4509(8)
C30 C 0.3823(8) 0.5849(9) 0.4524(6)
C31 C 0.3975(7) 0.4426(9) 0.3474(7)
C32 C 0.3365(7) 0.3301(10) 0.3493(7)
C33 C 0.3790(8) 0.2539(11) 0.3273(7)
C34 C 0.4803(10) 0.2871(12) 0.3046(8)
C35 C 0.5398(9) 0.3928(13) 0.3012(8)
C36 C 0.4964(8) 0.4715(11) 0.3231(7)
C37 C -0.0038(10) 0.7252(11) 0.3734(7)
C38 C 0.0639(11) 0.8443(12) 0.3888(8)
C39 C 0.1849(11) 0.8896(11) 0.4129(9)
C40 C 0.2438(10) 0.8217(11) 0.4252(8)
O13 O 0.6997(14) 0.7861(14) 0.2174(13)
O14 O 0.6224(25) 0.7808(39) 0.0506(18)
O15 O 0.5706(16) 0.9267(17) 0.0418(11)
O16 O 0.3585(12) 0.9987(14) 0.2412(15)
O17 O 0.4478(19) 1.0382(18) 0.3792(22)
O18 O 0.6371(10) 0.7941(13) 0.4435(10)
O19 O 0.7927(11) 0.8599(19) 0.4095(15)
N1 N 0.5994(14) 0.8544(29) 0.0819(13)
N2 N 0.4351(16) 0.9948(17) 0.2893(20)
N3 N 0.6923(10) 0.8381(14) 0.3986(11)
C41 C 0.6440(10) 0.8425(11) 0.2374(11)
C42 C 0.5858(11) 0.8824(13) 0.1744(10)
C43 C 0.5171(9) 0.9309(12) 0.1936(10)
C44 C 0.5071(9) 0.9475(11) 0.2795(12)
C45 C 0.5634(8) 0.9104(11) 0.3453(9)
C46 C 0.6322(9) 0.8681(10) 0.3237(9)
loop_
_geom_bond_atom_site_label_1
_geom_bond_atom_site_label_2
_geom_bond_site_symmetry_1
_geom_bond_site_symmetry_2
Rb1 O1 1_555 1_555
O1 C1 1_555 1_555
O2 Rb1 1_555 1_555
O3 Rb1 1_555 1_555
O4 Rb1 1_555 1_555
O5 Rb1 1_555 1_555
O6 Rb1 1_555 1_555
O7 Rb1 1_555 1_555
O8 Rb1 1_555 1_555
O9 Rb1 1_555 1_555
O10 Rb1 1_555 1_555
O11 Rb1 1_555 1_555
O12 Rb1 1_555 1_555
O13 C41 1_555 1_555
O14 N1 1_555 1_555
O15 N1 1_555 1_555
O16 N2 1_555 1_555
O17 N2 1_555 1_555
O18 N3 1_555 1_555
O19 N3 1_555 1_555
N1 C42 1_555 1_555
N2 C44 1_555 1_555
N3 C46 1_555 1_555
C1 C2 1_555 1_555
C2 O2 1_555 1_555
C3 O2 1_555 1_555
C4 O3 1_555 1_555
C5 O3 1_555 1_555
C6 O4 1_555 1_555
C7 O4 1_555 1_555
C8 O5 1_555 1_555
C9 O5 1_555 1_555
C10 O6 1_555 1_555
C11 O6 1_555 1_555
C12 O1 1_555 1_555
C13 C12 1_555 1_555
C14 C13 1_555 1_555
C15 C14 1_555 1_555
C16 C11 1_555 1_555
C17 C7 1_555 1_555
C18 C17 1_555 1_555
C19 C18 1_555 1_555
C20 C8 1_555 1_555
C21 O7 1_555 1_555
C22 O8 1_555 1_555
C23 O8 1_555 1_555
C24 O9 1_555 1_555
C25 O9 1_555 1_555
C26 O10 1_555 1_555
C27 O10 1_555 1_555
C28 O11 1_555 1_555
C29 O11 1_555 1_555
C30 O12 1_555 1_555
C31 O12 1_555 1_555
C32 O7 1_555 1_555
C33 C32 1_555 1_555
C34 C33 1_555 1_555
C35 C34 1_555 1_555
C36 C31 1_555 1_555
C37 C27 1_555 1_555
C38 C37 1_555 1_555
C39 C38 1_555 1_555
C40 C28 1_555 1_555
C41 C42 1_555 1_555
C42 C43 1_555 1_555
C43 C44 1_555 1_555
C44 C45 1_555 1_555
C45 C46 1_555 1_555
C46 C41 1_555 1_555
C3 C4 1_555 1_555
C5 C6 1_555 1_555
C7 C8 1_555 1_555
C9 C10 1_555 1_555
C11 C12 1_555 1_555
C15 C16 1_555 1_555
C19 C20 1_555 1_555
C21 C22 1_555 1_555
C23 C24 1_555 1_555
C25 C26 1_555 1_555
C27 C28 1_555 1_555
C29 C30 1_555 1_555
C31 C32 1_555 1_555
C35 C36 1_555 1_555
C39 C40 1_555 1_555

#END
