
#######################################################################
#
#                 Cambridge Crystallographic Data Centre
#                                CCDC 
#
#######################################################################
#
# If this CIF has been generated from an entry in the Cambridge 
# Structural Database, then it will include bibliographic, chemical, 
# crystal, experimental, refinement or atomic coordinate data resulting 
# from the CCDC's data processing and validation procedures.
#
#######################################################################

data_GOLHUL
_chemical_formula_moiety         'C22 H19 N1 O1'
_chemical_name_systematic        9-Ethyl-3-(2-methylbenzoyl)-9H-carbazole
_symmetry_cell_setting           monoclinic
_symmetry_space_group_name_H-M   'P 21/c'
_symmetry_Int_Tables_number      14
_space_group_name_Hall           '-P 2ybc'
loop_
_symmetry_equiv_pos_site_id
_symmetry_equiv_pos_as_xyz
1 x,y,z
2 -x,1/2+y,1/2-z
3 -x,-y,-z
4 x,1/2-y,1/2+z
_cell_length_a                   11.676(2)
_cell_length_b                   10.569(2)
_cell_length_c                   13.756(3)
_cell_angle_alpha                90
_cell_angle_beta                 96.48(3)
_cell_angle_gamma                90
_cell_volume                     1686.7
_exptl_crystal_colour            colorless
_exptl_crystal_description       plate
_cell_formula_units_Z            4
loop_
_atom_site_label
_atom_site_type_symbol
_atom_site_fract_x
_atom_site_fract_y
_atom_site_fract_z
O1 O 0.04033(19) 0.4866(2) 0.24020(17)
N1 N 0.5747(2) 0.5162(3) 0.36517(18)
C1 C 0.7412(3) 0.4981(4) 0.2716(3)
H1 H 0.8113 0.4515 0.2686
H2 H 0.7588 0.5864 0.2808
H3 H 0.6917 0.4868 0.2116
C2 C 0.6818(3) 0.4509(4) 0.3554(2)
H4 H 0.6661 0.3613 0.3465
H5 H 0.7330 0.4610 0.4155
C3 C 0.5588(3) 0.6168(3) 0.4282(2)
C4 C 0.6411(3) 0.6748(4) 0.4954(2)
H6 H 0.7177 0.6492 0.5033
C5 C 0.6016(4) 0.7725(4) 0.5493(3)
H7 H 0.6532 0.8118 0.5963
C6 C 0.4896(4) 0.8141(3) 0.5365(3)
H8 H 0.4681 0.8827 0.5727
C7 C 0.4076(3) 0.7551(3) 0.4703(2)
H9 H 0.3311 0.7817 0.4630
C8 C 0.4436(3) 0.6549(3) 0.4150(2)
C9 C 0.3850(2) 0.5716(3) 0.3427(2)
C10 C 0.2712(3) 0.5577(3) 0.3037(2)
H10 H 0.2149 0.6117 0.3228
C11 C 0.2415(2) 0.4626(3) 0.2359(2)
C12 C 0.3274(3) 0.3846(3) 0.2051(2)
H11 H 0.3070 0.3236 0.1575
C13 C 0.4413(3) 0.3958(3) 0.2433(2)
H12 H 0.4976 0.3423 0.2235
C14 C 0.4691(2) 0.4903(3) 0.3127(2)
C15 C 0.1190(3) 0.4411(3) 0.1988(2)
C16 C 0.0876(2) 0.3582(3) 0.1113(2)
C17 C 0.0254(3) 0.2480(3) 0.1238(2)
H13 H 0.0064 0.2274 0.1857
C18 C -0.0088(3) 0.1689(3) 0.0462(3)
H14 H -0.0489 0.0948 0.0560
C19 C 0.0167(3) 0.2000(3) -0.0451(3)
H15 H -0.0060 0.1474 -0.0979
C20 C 0.0767(3) 0.3106(3) -0.0587(2)
H16 H 0.0914 0.3322 -0.1216
C21 C 0.1159(2) 0.3909(3) 0.0190(2)
C22 C 0.1797(3) 0.5092(3) 0.0004(2)
H17 H 0.2030 0.5510 0.0613
H18 H 0.1305 0.5642 -0.0412
H19 H 0.2466 0.4884 -0.0310
loop_
_geom_bond_atom_site_label_1
_geom_bond_atom_site_label_2
_geom_bond_site_symmetry_1
_geom_bond_site_symmetry_2
O1 C15 1_555 1_555
N1 C2 1_555 1_555
C1 H1 1_555 1_555
H2 C1 1_555 1_555
H3 C1 1_555 1_555
C2 C1 1_555 1_555
H4 C2 1_555 1_555
H5 C2 1_555 1_555
C3 N1 1_555 1_555
C4 C3 1_555 1_555
H6 C4 1_555 1_555
C5 C4 1_555 1_555
H7 C5 1_555 1_555
C6 C5 1_555 1_555
H8 C6 1_555 1_555
C7 C6 1_555 1_555
H9 C7 1_555 1_555
C8 C3 1_555 1_555
C9 C8 1_555 1_555
C10 C9 1_555 1_555
H10 C10 1_555 1_555
C11 C10 1_555 1_555
C12 C11 1_555 1_555
H11 C12 1_555 1_555
C13 C12 1_555 1_555
H12 C13 1_555 1_555
C14 N1 1_555 1_555
C15 C11 1_555 1_555
C16 C15 1_555 1_555
C17 C16 1_555 1_555
H13 C17 1_555 1_555
C18 C17 1_555 1_555
H14 C18 1_555 1_555
C19 C18 1_555 1_555
H15 C19 1_555 1_555
C20 C19 1_555 1_555
H16 C20 1_555 1_555
C21 C16 1_555 1_555
C22 C21 1_555 1_555
H17 C22 1_555 1_555
H18 C22 1_555 1_555
H19 C22 1_555 1_555
C7 C8 1_555 1_555
C9 C14 1_555 1_555
C13 C14 1_555 1_555
C20 C21 1_555 1_555

#END
