
#######################################################################
#
#                 Cambridge Crystallographic Data Centre
#                                CCDC 
#
#######################################################################
#
# If this CIF has been generated from an entry in the Cambridge 
# Structural Database, then it will include bibliographic, chemical, 
# crystal, experimental, refinement or atomic coordinate data resulting 
# from the CCDC's data processing and validation procedures.
#
#######################################################################

data_GOLLUO02
_chemical_name_common            
1,4,4a,5,8,8a-hexahydro-1,4-methanonaphthalene-5,8-dione
_chemical_formula_moiety         'C11 H10 O2'
_chemical_name_systematic        
Tricyclo(6.2.1.0^2,7^)undeca-4,9-diene-3,6-dione
_symmetry_cell_setting           monoclinic
_symmetry_space_group_name_H-M   'P 21/c'
_symmetry_Int_Tables_number      14
_space_group_name_Hall           '-P 2ybc'
loop_
_symmetry_equiv_pos_site_id
_symmetry_equiv_pos_as_xyz
1 x,y,z
2 -x,1/2+y,1/2-z
3 -x,-y,-z
4 x,1/2-y,1/2+z
_cell_length_a                   15.649(3)
_cell_length_b                   6.5399(13)
_cell_length_c                   21.448(7)
_cell_angle_alpha                90
_cell_angle_beta                 125.05(2)
_cell_angle_gamma                90
_cell_volume                     1796.98
_exptl_crystal_colour            'dark brown'
_exptl_crystal_description       needle
_cell_formula_units_Z            8
_exptl_crystal_recrystallization_method hexane
loop_
_atom_site_label
_atom_site_type_symbol
_atom_site_fract_x
_atom_site_fract_y
_atom_site_fract_z
O1 O 0.29192(15) 0.0348(3) 0.02418(12)
O2 O 0.1016(2) -0.5875(3) -0.16845(10)
C1 C 0.23966(16) -0.1048(3) -0.01874(12)
C2 C 0.28081(17) -0.3137(4) -0.00061(13)
H1 H 0.3425 -0.3397 0.0467
C3 C 0.23343(19) -0.4665(4) -0.04914(13)
H2 H 0.2631 -0.5960 -0.0342
C4 C 0.13635(19) -0.4419(4) -0.12469(12)
C5 C 0.07944(16) -0.2423(3) -0.14694(10)
H3 H 0.0655 -0.1990 -0.1957
C6 C 0.13399(15) -0.0649(3) -0.08969(11)
H4 H 0.1391 0.0514 -0.1162
C7 C 0.05338(18) -0.0092(4) -0.07124(13)
H5 H 0.0633 0.1236 -0.0468
C8 C -0.04733(19) -0.0353(5) -0.15063(15)
H6 H -0.1095 -0.0148 -0.1516
H7 H -0.0497 0.0498 -0.1886
C9 C -0.02716(19) -0.2589(5) -0.15655(14)
H8 H -0.0828 -0.3311 -0.2022
C10 C -0.0019(2) -0.3395(5) -0.08217(17)
H9 H -0.0175 -0.4691 -0.0735
C11 C 0.0467(2) -0.1914(5) -0.03133(15)
H10 H 0.0721 -0.1986 0.0199
O3 O 0.2497(2) -0.2686(4) -0.34967(12)
O4 O 0.48892(15) 0.3614(3) -0.18269(12)
C12 C 0.3043(2) -0.1294(4) -0.30817(13)
C13 C 0.28648(19) 0.0779(4) -0.33792(13)
H11 H 0.2323 0.1012 -0.3886
C14 C 0.34485(18) 0.2354(4) -0.29597(14)
H12 H 0.3289 0.3645 -0.3182
C15 C 0.43306(16) 0.2141(3) -0.21624(13)
C16 C 0.45436(15) 0.0118(3) -0.17730(11)
H13 H 0.5278 -0.0221 -0.1540
C17 C 0.38776(16) -0.1714(3) -0.22614(11)
H14 H 0.4348 -0.2753 -0.2236
C18 C 0.34259(19) -0.2549(4) -0.18255(14)
H15 H 0.3164 -0.3956 -0.1948
C19 C 0.4353(2) -0.2168(5) -0.10083(14)
H16 H 0.4984 -0.2847 -0.0886
H17 H 0.4212 -0.2508 -0.0636
C20 C 0.4363(2) 0.0123(5) -0.11275(13)
H18 H 0.4863 0.0923 -0.0673
C21 C 0.3220(3) 0.0601(6) -0.15010(19)
H19 H 0.2952 0.1807 -0.1449
C22 C 0.2675(2) -0.0992(5) -0.19120(19)
H20 H 0.1953 -0.1120 -0.2203
loop_
_geom_bond_atom_site_label_1
_geom_bond_atom_site_label_2
_geom_bond_site_symmetry_1
_geom_bond_site_symmetry_2
O1 C1 1_555 1_555
O2 C4 1_555 1_555
C1 C2 1_555 1_555
C2 H1 1_555 1_555
C3 C2 1_555 1_555
H2 C3 1_555 1_555
C4 C3 1_555 1_555
C5 C4 1_555 1_555
H3 C5 1_555 1_555
C6 C1 1_555 1_555
H4 C6 1_555 1_555
C7 C6 1_555 1_555
H5 C7 1_555 1_555
C8 C7 1_555 1_555
H6 C8 1_555 1_555
H7 C8 1_555 1_555
C9 C5 1_555 1_555
H8 C9 1_555 1_555
C10 C9 1_555 1_555
H9 C10 1_555 1_555
C11 C7 1_555 1_555
H10 C11 1_555 1_555
O3 C12 1_555 1_555
O4 C15 1_555 1_555
C12 C13 1_555 1_555
C13 H11 1_555 1_555
C14 C13 1_555 1_555
H12 C14 1_555 1_555
C15 C14 1_555 1_555
C16 C15 1_555 1_555
H13 C16 1_555 1_555
C17 C12 1_555 1_555
H14 C17 1_555 1_555
C18 C17 1_555 1_555
H15 C18 1_555 1_555
C19 C18 1_555 1_555
H16 C19 1_555 1_555
H17 C19 1_555 1_555
C20 C16 1_555 1_555
H18 C20 1_555 1_555
C21 C20 1_555 1_555
H19 C21 1_555 1_555
C22 C18 1_555 1_555
H20 C22 1_555 1_555
C5 C6 1_555 1_555
C8 C9 1_555 1_555
C10 C11 1_555 1_555
C16 C17 1_555 1_555
C19 C20 1_555 1_555
C21 C22 1_555 1_555

#END
