
#######################################################################
#
#                 Cambridge Crystallographic Data Centre
#                                CCDC 
#
#######################################################################
#
# If this CIF has been generated from an entry in the Cambridge 
# Structural Database, then it will include bibliographic, chemical, 
# crystal, experimental, refinement or atomic coordinate data resulting 
# from the CCDC's data processing and validation procedures.
#
#######################################################################

data_GOLLAW
_chemical_formula_moiety         'C14 H14 B1 N1 O3'
_chemical_name_systematic        "2,2'-[Iminobis(methylene)]bisphenyl borate"
_symmetry_cell_setting           monoclinic
_symmetry_space_group_name_H-M   'P 21/c'
_symmetry_Int_Tables_number      14
_space_group_name_Hall           '-P 2ybc'
loop_
_symmetry_equiv_pos_site_id
_symmetry_equiv_pos_as_xyz
1 x,y,z
2 -x,1/2+y,1/2-z
3 -x,-y,-z
4 x,1/2-y,1/2+z
_cell_length_a                   9.5474(4)
_cell_length_b                   6.2245(2)
_cell_length_c                   19.7977(7)
_cell_angle_alpha                90
_cell_angle_beta                 96.657(2)
_cell_angle_gamma                90
_cell_volume                     1168.6
_exptl_crystal_colour            colorless
_exptl_crystal_description       needle
_cell_formula_units_Z            4
loop_
_atom_site_label
_atom_site_type_symbol
_atom_site_fract_x
_atom_site_fract_y
_atom_site_fract_z
O1 O 0.14929(10) 0.32166(15) 0.24082(5)
O2 O 0.17523(10) 0.38319(15) 0.12298(5)
O3 O -0.05304(10) 0.36782(17) 0.16628(6)
H1 H -0.081(2) 0.339(3) 0.1246(11)
N1 N 0.10059(13) 0.68428(19) 0.19266(6)
H2 H 0.0424(17) 0.715(3) 0.2231(8)
C1 C 0.24547(15) 0.7559(2) 0.21850(8)
H3 H 0.2392(16) 0.904(3) 0.2362(8)
H4 H 0.2978(16) 0.764(2) 0.1789(8)
C2 C 0.31621(14) 0.6073(2) 0.27134(7)
C3 C 0.43803(15) 0.6732(3) 0.31175(8)
H5 H 0.4718(16) 0.814(3) 0.3047(8)
C4 C 0.50643(16) 0.5400(3) 0.36071(8)
H6 H 0.5913(18) 0.588(3) 0.3896(8)
C5 C 0.45229(16) 0.3361(3) 0.37031(8)
H7 H 0.4991(17) 0.239(3) 0.4045(9)
C6 C 0.33265(15) 0.2657(2) 0.33011(7)
H8 H 0.2944(16) 0.121(3) 0.3361(8)
C7 C 0.26599(14) 0.3996(2) 0.27982(7)
C8 C 0.04760(16) 0.8018(2) 0.12928(7)
H9 H 0.0529(15) 0.961(3) 0.1377(7)
H10 H -0.0548(17) 0.761(2) 0.1168(8)
C9 C 0.13339(14) 0.7362(2) 0.07341(7)
C10 C 0.16214(15) 0.8827(2) 0.02358(7)
H11 H 0.1263(16) 1.032(3) 0.0263(7)
C11 C 0.24350(15) 0.8254(2) -0.02708(7)
H12 H 0.2653(17) 0.933(3) -0.0618(8)
C12 C 0.29883(15) 0.6187(2) -0.02751(7)
H13 H 0.3594(17) 0.574(3) -0.0618(8)
C13 C 0.27279(15) 0.4709(2) 0.02191(7)
H14 H 0.3116(16) 0.328(3) 0.0225(8)
C14 C 0.19059(14) 0.5289(2) 0.07309(7)
B1 B 0.09106(17) 0.4296(3) 0.17864(8)
loop_
_geom_bond_atom_site_label_1
_geom_bond_atom_site_label_2
_geom_bond_site_symmetry_1
_geom_bond_site_symmetry_2
O1 C7 1_555 1_555
O2 C14 1_555 1_555
O3 H1 1_555 1_555
N1 H2 1_555 1_555
C1 N1 1_555 1_555
H3 C1 1_555 1_555
H4 C1 1_555 1_555
C2 C1 1_555 1_555
C3 C2 1_555 1_555
H5 C3 1_555 1_555
C4 C3 1_555 1_555
H6 C4 1_555 1_555
C5 C4 1_555 1_555
H7 C5 1_555 1_555
C6 C5 1_555 1_555
H8 C6 1_555 1_555
C7 C2 1_555 1_555
C8 N1 1_555 1_555
H9 C8 1_555 1_555
H10 C8 1_555 1_555
C9 C8 1_555 1_555
C10 C9 1_555 1_555
H11 C10 1_555 1_555
C11 C10 1_555 1_555
H12 C11 1_555 1_555
C12 C11 1_555 1_555
H13 C12 1_555 1_555
C13 C12 1_555 1_555
H14 C13 1_555 1_555
C14 C9 1_555 1_555
B1 O1 1_555 1_555
O2 B1 1_555 1_555
O3 B1 1_555 1_555
N1 B1 1_555 1_555
C6 C7 1_555 1_555
C13 C14 1_555 1_555

#END
