
#######################################################################
#
#                 Cambridge Crystallographic Data Centre
#                                CCDC 
#
#######################################################################
#
# If this CIF has been generated from an entry in the Cambridge 
# Structural Database, then it will include bibliographic, chemical, 
# crystal, experimental, refinement or atomic coordinate data resulting 
# from the CCDC's data processing and validation procedures.
#
#######################################################################

data_GOLNEA
_chemical_formula_moiety         'C32 H30 N3 O14 Rb1'
_chemical_name_systematic        (Tribenzo-21-crown-7)-(picrate-O,O')-rubidium
_symmetry_cell_setting           triclinic
_symmetry_space_group_name_H-M   'P -1'
_symmetry_Int_Tables_number      2
_space_group_name_Hall           '-P 1'
loop_
_symmetry_equiv_pos_site_id
_symmetry_equiv_pos_as_xyz
1 x,y,z
2 -x,-y,-z
_cell_length_a                   12.1544(3)
_cell_length_b                   12.6001(3)
_cell_length_c                   12.9493(3)
_cell_angle_alpha                61.601(1)
_cell_angle_beta                 68.438(1)
_cell_angle_gamma                77.943(1)
_cell_volume                     1621
_exptl_crystal_colour            yellow
_cell_formula_units_Z            2
loop_
_atom_site_label
_atom_site_type_symbol
_atom_site_fract_x
_atom_site_fract_y
_atom_site_fract_z
Rb1 Rb 0.6828(1) 0.7850(1) 0.6498(1)
O1 O 0.6813(3) 1.0567(3) 0.4795(3)
O2 O 0.8725(3) 0.9102(3) 0.4115(3)
O3 O 0.8743(3) 0.6498(3) 0.5185(3)
O4 O 0.7442(3) 0.5176(3) 0.7353(3)
O5 O 0.6258(3) 0.6010(2) 0.9177(3)
O6 O 0.4928(3) 0.7931(3) 0.8848(3)
O7 O 0.4816(3) 0.9730(3) 0.6453(3)
O8 O 0.8654(3) 0.7800(3) 0.7393(3)
O9 O 0.7055(4) 0.9630(3) 0.7363(4)
O10 O 0.7082(4) 1.0617(3) 0.8317(4)
O11 O 0.9102(5) 0.9226(4) 1.1218(4)
O12 O 1.0629(5) 0.7994(5) 1.1091(4)
O13 O 1.1407(4) 0.6135(3) 0.8299(4)
O14 O 0.9763(4) 0.5563(3) 0.8483(4)
N1 N 1.0326(4) 0.6245(4) 0.8497(4)
N2 N 0.9747(5) 0.8533(5) 1.0808(4)
N3 N 0.7429(4) 0.9768(3) 0.8048(4)
C1 C 0.7970(5) 1.1022(4) 0.4045(5)
C2 C 0.8883(5) 1.0025(4) 0.4362(5)
C3 C 0.9762(5) 0.8307(4) 0.4075(5)
C4 C 0.9493(5) 0.7256(4) 0.3987(5)
C5 C 0.8387(4) 0.5472(4) 0.5308(4)
C6 C 0.7649(4) 0.4765(4) 0.6482(4)
C7 C 0.6810(5) 0.4410(4) 0.8596(5)
C8 C 0.6901(5) 0.4866(4) 0.9428(5)
C9 C 0.6160(4) 0.6525(4) 0.9931(4)
C10 C 0.5424(4) 0.7576(4) 0.9748(4)
C11 C 0.4091(5) 0.8940(4) 0.8674(5)
C12 C 0.3822(5) 0.9195(4) 0.7527(5)
C13 C 0.4852(5) 1.0967(4) 0.5840(4)
C14 C 0.5928(5) 1.1416(4) 0.4903(5)
C15 C 0.6020(5) 1.2642(4) 0.4183(5)
C16 C 0.5103(6) 1.3446(4) 0.4396(6)
C17 C 0.4085(6) 1.3017(5) 0.5349(5)
C18 C 0.3943(5) 1.1773(4) 0.6065(5)
C19 C 0.8683(5) 0.5130(4) 0.4371(5)
C20 C 0.8192(6) 0.4090(5) 0.4601(6)
C21 C 0.7457(6) 0.3424(5) 0.5731(6)
C22 C 0.7178(5) 0.3738(4) 0.6701(5)
C23 C 0.6706(5) 0.6091(4) 1.0831(5)
C24 C 0.6506(5) 0.6665(5) 1.1577(5)
C25 C 0.5772(5) 0.7683(5) 1.1410(5)
C26 C 0.5227(5) 0.8137(4) 1.0504(4)
C27 C 0.8831(4) 0.7959(4) 0.8188(4)
C28 C 0.8292(4) 0.8906(4) 0.8583(4)
C29 C 0.8581(5) 0.9075(4) 0.9425(4)
C30 C 0.9434(5) 0.8335(5) 0.9937(5)
C31 C 1.0018(5) 0.7414(4) 0.9604(5)
C32 C 0.9699(5) 0.7227(4) 0.8805(5)
loop_
_geom_bond_atom_site_label_1
_geom_bond_atom_site_label_2
_geom_bond_site_symmetry_1
_geom_bond_site_symmetry_2
Rb1 O1 1_555 1_555
O1 C1 1_555 1_555
O2 Rb1 1_555 1_555
O3 Rb1 1_555 1_555
O4 Rb1 1_555 1_555
O5 Rb1 1_555 1_555
O6 Rb1 1_555 1_555
O7 Rb1 1_555 1_555
O8 Rb1 1_555 1_555
O9 Rb1 1_555 1_555
O10 N3 1_555 1_555
O11 N2 1_555 1_555
O12 N2 1_555 1_555
O13 N1 1_555 1_555
O14 N1 1_555 1_555
N1 C32 1_555 1_555
N2 C30 1_555 1_555
N3 O9 1_555 1_555
C1 C2 1_555 1_555
C2 O2 1_555 1_555
C3 O2 1_555 1_555
C4 O3 1_555 1_555
C5 O3 1_555 1_555
C6 O4 1_555 1_555
C7 O4 1_555 1_555
C8 O5 1_555 1_555
C9 O5 1_555 1_555
C10 O6 1_555 1_555
C11 O6 1_555 1_555
C12 O7 1_555 1_555
C13 O7 1_555 1_555
C14 O1 1_555 1_555
C15 C14 1_555 1_555
C16 C15 1_555 1_555
C17 C16 1_555 1_555
C18 C13 1_555 1_555
C19 C5 1_555 1_555
C20 C19 1_555 1_555
C21 C20 1_555 1_555
C22 C6 1_555 1_555
C23 C9 1_555 1_555
C24 C23 1_555 1_555
C25 C24 1_555 1_555
C26 C10 1_555 1_555
C27 O8 1_555 1_555
C28 N3 1_555 1_555
C29 C28 1_555 1_555
C30 C29 1_555 1_555
C31 C30 1_555 1_555
C32 C27 1_555 1_555
C3 C4 1_555 1_555
C5 C6 1_555 1_555
C7 C8 1_555 1_555
C9 C10 1_555 1_555
C11 C12 1_555 1_555
C13 C14 1_555 1_555
C17 C18 1_555 1_555
C21 C22 1_555 1_555
C25 C26 1_555 1_555
C27 C28 1_555 1_555
C31 C32 1_555 1_555

#END
