
#######################################################################
#
#                 Cambridge Crystallographic Data Centre
#                                CCDC 
#
#######################################################################
#
# If this CIF has been generated from an entry in the Cambridge 
# Structural Database, then it will include bibliographic, chemical, 
# crystal, experimental, refinement or atomic coordinate data resulting 
# from the CCDC's data processing and validation procedures.
#
#######################################################################

data_GOLXUB
_chemical_formula_moiety         'C1 H7 N4 1+,C4 H5 O4 1-'
_chemical_name_systematic        'Aminoguanidinium hydrogen succinate'
_symmetry_cell_setting           monoclinic
_symmetry_space_group_name_H-M   'C 2/c'
_symmetry_Int_Tables_number      15
_space_group_name_Hall           '-C 2yn'
loop_
_symmetry_equiv_pos_site_id
_symmetry_equiv_pos_as_xyz
1 x,y,z
2 1/2+x,1/2+y,z
3 -x,y,1/2-z
4 1/2-x,1/2+y,1/2-z
5 -x,-y,-z
6 1/2-x,1/2-y,-z
7 x,-y,1/2+z
8 1/2+x,1/2-y,1/2+z
_cell_length_a                   15.071(5)
_cell_length_b                   6.565(2)
_cell_length_c                   18.152(5)
_cell_angle_alpha                90
_cell_angle_beta                 109.733(5)
_cell_angle_gamma                90
_cell_volume                     1690.51
_exptl_crystal_colour            colorless
_exptl_crystal_description       block
_cell_formula_units_Z            8
_exptl_crystal_recrystallization_method ethanol
loop_
_atom_site_label
_atom_site_type_symbol
_atom_site_fract_x
_atom_site_fract_y
_atom_site_fract_z
H1 H 0.1707(12) 1.015(3) 0.2850(10)
H2 H 0.1337(11) 0.802(3) 0.2512(9)
H3 H 0.3357(16) 1.149(3) 0.4112(13)
H4 H 0.2620(13) 1.136(3) 0.4466(12)
H5 H 0.1961(13) 0.509(3) 0.3165(11)
H6 H 0.2701(11) 0.531(2) 0.3943(10)
H7 H 0.3229(11) 0.826(2) 0.4490(9)
C5 C 0.22849(7) 0.78408(16) 0.34760(6)
N1 N 0.23172(8) 0.58414(15) 0.35140(6)
N2 N 0.28683(7) 0.88965(14) 0.40661(6)
N3 N 0.16935(7) 0.87957(16) 0.28669(6)
N4 N 0.27963(9) 1.10237(16) 0.40542(7)
C1 C 0.54873(7) 0.08831(15) 0.67511(6)
C2 C 0.47896(7) 0.20438(15) 0.61002(6)
H8 H 0.4158 0.1689 0.6083
H9 H 0.4853 0.1628 0.5607
C3 C 0.49064(7) 0.43218(15) 0.61797(6)
H10 H 0.5542 0.4676 0.6209
H11 H 0.4826 0.4744 0.6666
C4 C 0.42163(7) 0.54741(15) 0.55112(6)
O1 O 0.54679(6) -0.10939(12) 0.66765(5)
H12 H 0.5057 -0.1414 0.6265
O2 O 0.60494(6) 0.17027(12) 0.73220(5)
O3 O 0.42768(6) 0.74200(11) 0.55212(5)
O4 O 0.36190(7) 0.45581(13) 0.49819(5)
loop_
_geom_bond_atom_site_label_1
_geom_bond_atom_site_label_2
_geom_bond_site_symmetry_1
_geom_bond_site_symmetry_2
H1 N3 1_555 1_555
H2 N3 1_555 1_555
H3 N4 1_555 1_555
H4 N4 1_555 1_555
H5 N1 1_555 1_555
H6 N1 1_555 1_555
H7 N2 1_555 1_555
C1 C2 1_555 1_555
C2 H8 1_555 1_555
H9 C2 1_555 1_555
C3 C2 1_555 1_555
H10 C3 1_555 1_555
H11 C3 1_555 1_555
C4 C3 1_555 1_555
C5 N1 1_555 1_555
N2 C5 1_555 1_555
N3 C5 1_555 1_555
N4 N2 1_555 1_555
O1 C1 1_555 1_555
H12 O1 1_555 1_555
O2 C1 1_555 1_555
O3 C4 1_555 1_555
O4 C4 1_555 1_555

#END
