
#######################################################################
#
#                 Cambridge Crystallographic Data Centre
#                                CCDC 
#
#######################################################################
#
# If this CIF has been generated from an entry in the Cambridge 
# Structural Database, then it will include bibliographic, chemical, 
# crystal, experimental, refinement or atomic coordinate data resulting 
# from the CCDC's data processing and validation procedures.
#
#######################################################################

data_GOMCAN
_chemical_formula_moiety         'C16 H14 N6 O5 S1'
_chemical_name_systematic        
3-(2,4-Dinitrophenylthio)-5-(2-ethoxyphenyl)-4H-1,2,4-triazol-4-amine
_symmetry_cell_setting           monoclinic
_symmetry_space_group_name_H-M   'P 21/c'
_symmetry_Int_Tables_number      14
_space_group_name_Hall           '-P 2ybc'
loop_
_symmetry_equiv_pos_site_id
_symmetry_equiv_pos_as_xyz
1 x,y,z
2 -x,1/2+y,1/2-z
3 -x,-y,-z
4 x,1/2-y,1/2+z
_cell_length_a                   8.429(5)
_cell_length_b                   11.538(7)
_cell_length_c                   18.774(11)
_cell_angle_alpha                90
_cell_angle_beta                 94.674(11)
_cell_angle_gamma                90
_cell_volume                     1819.77
_exptl_crystal_colour            colorless
_exptl_crystal_description       block
_cell_formula_units_Z            4
_exptl_crystal_recrystallization_method ethanol
loop_
_atom_site_label
_atom_site_type_symbol
_atom_site_fract_x
_atom_site_fract_y
_atom_site_fract_z
S1 S 0.35900(11) 0.35555(7) 0.28126(5)
O1 O 0.2243(3) -0.0913(2) 0.25476(12)
O2 O 0.2013(4) 0.5230(2) 0.21045(15)
O3 O 0.0882(3) 0.5236(3) 0.10367(16)
O4 O 0.1844(5) 0.2306(4) -0.06236(17)
O5 O 0.3514(7) 0.0927(4) -0.03519(19)
N1 N 0.1420(3) 0.1391(3) 0.29032(17)
N2 N 0.2993(3) 0.1319(2) 0.32096(13)
N3 N 0.5153(3) 0.0820(2) 0.38526(15)
N4 N 0.5362(3) 0.1936(3) 0.35951(15)
N5 N 0.1760(4) 0.4800(3) 0.15110(18)
N6 N 0.2793(6) 0.1796(4) -0.0211(2)
C1 C 0.1549(6) -0.0834(4) 0.1306(2)
H1 H 0.1103 -0.0079 0.1367
H2 H 0.0985 -0.1214 0.0907
H3 H 0.2652 -0.0761 0.1221
C2 C 0.1403(4) -0.1535(3) 0.19677(19)
H4 H 0.0293 -0.1629 0.2056
H5 H 0.1868 -0.2297 0.1917
C3 C 0.2255(4) -0.1347(3) 0.32218(18)
C4 C 0.1601(4) -0.2409(3) 0.3398(2)
H6 H 0.1076 -0.2863 0.3043
C5 C 0.1734(5) -0.2787(4) 0.4097(2)
H7 H 0.1300 -0.3498 0.4211
C6 C 0.2498(5) -0.2126(4) 0.4628(2)
H8 H 0.2590 -0.2391 0.5097
C7 C 0.3129(4) -0.1065(3) 0.44616(19)
H9 H 0.3636 -0.0613 0.4822
C8 C 0.3015(4) -0.0666(3) 0.37637(17)
C9 C 0.3727(3) 0.0466(3) 0.36091(15)
C10 C 0.4050(4) 0.2212(3) 0.32164(16)
C11 C 0.3445(4) 0.3104(3) 0.19074(17)
C12 C 0.4222(4) 0.2092(3) 0.17049(18)
H10 H 0.4868 0.1690 0.2046
C13 C 0.4052(5) 0.1685(3) 0.1020(2)
H11 H 0.4589 0.1022 0.0894
C14 C 0.3072(5) 0.2273(3) 0.05173(19)
C15 C 0.2337(4) 0.3288(3) 0.06784(19)
H12 H 0.1707 0.3687 0.0330
C16 C 0.2550(4) 0.3703(3) 0.13655(18)
H13 H 0.080(4) 0.137(3) 0.3243(13)
H14 H 0.126(4) 0.079(2) 0.2642(14)
loop_
_geom_bond_atom_site_label_1
_geom_bond_atom_site_label_2
_geom_bond_site_symmetry_1
_geom_bond_site_symmetry_2
S1 C10 1_555 1_555
O1 C2 1_555 1_555
O2 N5 1_555 1_555
O3 N5 1_555 1_555
O4 N6 1_555 1_555
O5 N6 1_555 1_555
N1 N2 1_555 1_555
N2 C9 1_555 1_555
N3 N4 1_555 1_555
N4 C10 1_555 1_555
N5 C16 1_555 1_555
N6 C14 1_555 1_555
C1 H1 1_555 1_555
H2 C1 1_555 1_555
H3 C1 1_555 1_555
C2 C1 1_555 1_555
H4 C2 1_555 1_555
H5 C2 1_555 1_555
C3 O1 1_555 1_555
C4 C3 1_555 1_555
H6 C4 1_555 1_555
C5 C4 1_555 1_555
H7 C5 1_555 1_555
C6 C5 1_555 1_555
H8 C6 1_555 1_555
C7 C6 1_555 1_555
H9 C7 1_555 1_555
C8 C3 1_555 1_555
C9 N3 1_555 1_555
C10 N2 1_555 1_555
C11 S1 1_555 1_555
C12 C11 1_555 1_555
H10 C12 1_555 1_555
C13 C12 1_555 1_555
H11 C13 1_555 1_555
C14 C13 1_555 1_555
C15 C14 1_555 1_555
H12 C15 1_555 1_555
C16 C11 1_555 1_555
H13 N1 1_555 1_555
H14 N1 1_555 1_555
C7 C8 1_555 1_555
C8 C9 1_555 1_555
C15 C16 1_555 1_555

#END
