
#######################################################################
#
#                 Cambridge Crystallographic Data Centre
#                                CCDC 
#
#######################################################################
#
# If this CIF has been generated from an entry in the Cambridge 
# Structural Database, then it will include bibliographic, chemical, 
# crystal, experimental, refinement or atomic coordinate data resulting 
# from the CCDC's data processing and validation procedures.
#
#######################################################################

data_GOMCIV
_chemical_formula_moiety         'C17 H15 F1 N4 O1 S1'
_chemical_name_systematic        
(E)-3-(2-Ethoxyphenyl)-4-(2-fluorobenzylideneamino)-1H-1,2,4-triazole-5(4H)-thione
_symmetry_cell_setting           monoclinic
_symmetry_space_group_name_H-M   'P 21/n'
_symmetry_Int_Tables_number      14
_space_group_name_Hall           '-P 2yn'
loop_
_symmetry_equiv_pos_site_id
_symmetry_equiv_pos_as_xyz
1 x,y,z
2 1/2-x,1/2+y,1/2-z
3 -x,-y,-z
4 1/2+x,1/2-y,1/2+z
_cell_length_a                   8.7787(11)
_cell_length_b                   10.7897(13)
_cell_length_c                   17.948(2)
_cell_angle_alpha                90
_cell_angle_beta                 90.00
_cell_angle_gamma                90
_cell_volume                     1700.03
_exptl_crystal_colour            colorless
_exptl_crystal_description       block
_cell_formula_units_Z            4
_exptl_crystal_recrystallization_method ethanol
loop_
_atom_site_label
_atom_site_type_symbol
_atom_site_fract_x
_atom_site_fract_y
_atom_site_fract_z
S1 S 0.30255(14) 0.62710(11) 1.01351(6)
F1 F -0.1562(3) 0.7188(3) 0.96176(18)
O1 O 0.2397(4) 0.7226(5) 0.72203(18)
N1 N 0.5680(4) 0.6490(3) 0.83984(19)
N2 N 0.5191(4) 0.6030(3) 0.90694(19)
N3 N 0.3564(3) 0.7375(3) 0.87708(16)
N4 N 0.2443(4) 0.8306(3) 0.87855(16)
C1 C -0.0149(9) 0.7604(11) 0.7048(4)
H1 H -0.0341 0.7280 0.7537
H2 H -0.0989 0.7408 0.6727
H3 H -0.0030 0.8488 0.7076
C2 C 0.1030(8) 0.7137(13) 0.6795(4)
H4 H 0.1223 0.7511 0.6313
H5 H 0.0831 0.6264 0.6709
C3 C 0.3506(5) 0.8045(5) 0.7053(2)
C4 C 0.3564(7) 0.8771(6) 0.6418(3)
H6 H 0.2754 0.8763 0.6085
C5 C 0.4794(10) 0.9495(6) 0.6279(3)
H7 H 0.4832 0.9956 0.5842
C6 C 0.5972(8) 0.9556(5) 0.6769(4)
H8 H 0.6799 1.0070 0.6672
C7 C 0.5936(5) 0.8845(4) 0.7420(3)
H9 H 0.6743 0.8875 0.7755
C8 C 0.4697(4) 0.8100(4) 0.7560(2)
C9 C 0.4668(4) 0.7322(3) 0.8231(2)
C10 C 0.3923(4) 0.6551(3) 0.9322(2)
C11 C 0.1153(4) 0.7943(4) 0.9007(2)
H10 H 0.1015 0.7110 0.9122
C12 C -0.0122(4) 0.8791(4) 0.9088(2)
C13 C -0.0056(5) 1.0032(4) 0.8874(2)
H11 H 0.0825 1.0339 0.8654
C14 C -0.1275(6) 1.0807(5) 0.8986(3)
H12 H -0.1216 1.1633 0.8842
C15 C -0.2590(6) 1.0358(5) 0.9311(3)
H13 H -0.3412 1.0887 0.9388
C16 C -0.2693(5) 0.9143(5) 0.9522(3)
H14 H -0.3579 0.8836 0.9738
C17 C -0.1468(5) 0.8393(4) 0.9407(2)
H15 H 0.571(4) 0.547(3) 0.929(2)
loop_
_geom_bond_atom_site_label_1
_geom_bond_atom_site_label_2
_geom_bond_site_symmetry_1
_geom_bond_site_symmetry_2
S1 C10 1_555 1_555
F1 C17 1_555 1_555
O1 C2 1_555 1_555
N1 N2 1_555 1_555
N2 C10 1_555 1_555
N3 N4 1_555 1_555
N4 C11 1_555 1_555
C1 H1 1_555 1_555
H2 C1 1_555 1_555
H3 C1 1_555 1_555
C2 C1 1_555 1_555
H4 C2 1_555 1_555
H5 C2 1_555 1_555
C3 O1 1_555 1_555
C4 C3 1_555 1_555
H6 C4 1_555 1_555
C5 C4 1_555 1_555
H7 C5 1_555 1_555
C6 C5 1_555 1_555
H8 C6 1_555 1_555
C7 C6 1_555 1_555
H9 C7 1_555 1_555
C8 C3 1_555 1_555
C9 N1 1_555 1_555
C10 N3 1_555 1_555
C11 H10 1_555 1_555
C12 C11 1_555 1_555
C13 C12 1_555 1_555
H11 C13 1_555 1_555
C14 C13 1_555 1_555
H12 C14 1_555 1_555
C15 C14 1_555 1_555
H13 C15 1_555 1_555
C16 C15 1_555 1_555
H14 C16 1_555 1_555
C17 C12 1_555 1_555
H15 N2 1_555 1_555
N3 C9 1_555 1_555
C7 C8 1_555 1_555
C8 C9 1_555 1_555
C16 C17 1_555 1_555

#END
