
#######################################################################
#
#                 Cambridge Crystallographic Data Centre
#                                CCDC 
#
#######################################################################
#
# If this CIF has been generated from an entry in the Cambridge 
# Structural Database, then it will include bibliographic, chemical, 
# crystal, experimental, refinement or atomic coordinate data resulting 
# from the CCDC's data processing and validation procedures.
#
#######################################################################

data_GOMHEW
_chemical_formula_moiety         
'C40 H38 Mg2 N4 O10 2+,C16 H10 O4 2-,2(C12 H8 N2)'
_chemical_name_systematic        
"(\m~2~-4,4'-(Ethene-1,2-diyl)dibenzoato-O,O')-hexaaqua-bis(1,10-phenanthroline)-di-magnesium(ii) 4,4'-(ethene-1,2-diyl)dibenzoate bis(1,10-phenanthroline)"
_symmetry_cell_setting           triclinic
_symmetry_space_group_name_H-M   'P -1'
_symmetry_Int_Tables_number      2
_space_group_name_Hall           '-P 1'
loop_
_symmetry_equiv_pos_site_id
_symmetry_equiv_pos_as_xyz
1 x,y,z
2 -x,-y,-z
_cell_length_a                   10.309(5)
_cell_length_b                   12.745(6)
_cell_length_c                   14.311(7)
_cell_angle_alpha                99.529(6)
_cell_angle_beta                 90.154(6)
_cell_angle_gamma                111.901(5)
_cell_volume                     1716.25
_exptl_crystal_colour            'dark pink'
_exptl_crystal_description       'quinquangular bipyramid'
_cell_formula_units_Z            1
loop_
_atom_site_label
_atom_site_type_symbol
_atom_site_fract_x
_atom_site_fract_y
_atom_site_fract_z
Mg1 Mg 0.38174(6) 0.73123(5) 0.41578(4)
O1 O 0.54421(14) 0.81102(11) 0.33524(9)
O2 O 0.26807(14) 0.60398(11) 0.30677(9)
H1 H 0.2985 0.5524 0.2999
H2 H 0.2177 0.6253 0.2525
O3 O 0.65443(15) 0.98779(12) 0.41814(10)
O4 O 0.45403(15) 0.61816(12) 0.46263(10)
H3 H 0.4341 0.5602 0.4218
H4 H 0.4912 0.6241 0.5291
O5 O 0.48345(15) 0.86030(11) 0.53217(9)
H5 H 0.5457 0.9132 0.5139
H6 H 0.4258 0.8974 0.5571
N1 N 0.25585(16) 0.82907(13) 0.37576(11)
N2 N 0.19546(16) 0.68712(13) 0.50483(11)
C1 C 0.2839(2) 0.89834(17) 0.31265(15)
H7 H 0.3656 0.9101 0.2812
C2 C 0.1986(2) 0.9544(2) 0.29073(17)
H8 H 0.2231 1.0023 0.2459
C3 C 0.0785(3) 0.9382(2) 0.33586(18)
H9 H 0.0199 0.9749 0.3219
C4 C 0.0434(2) 0.86610(19) 0.40328(16)
C5 C -0.0810(2) 0.8442(2) 0.45460(19)
H10 H -0.1412 0.8809 0.4442
C6 C -0.1124(3) 0.7720(2) 0.51734(19)
H11 H -0.1948 0.7583 0.5482
C7 C -0.0206(2) 0.71605(19) 0.53719(15)
C8 C -0.0471(2) 0.6411(2) 0.60262(16)
H12 H -0.1281 0.6249 0.6354
C9 C 0.0458(2) 0.5922(2) 0.61799(15)
H13 H 0.0294 0.5427 0.6615
C10 C 0.1665(2) 0.61712(18) 0.56771(14)
H14 H 0.2293 0.5831 0.5788
C11 C 0.1032(2) 0.73621(16) 0.48915(13)
C12 C 0.13527(19) 0.81246(16) 0.42091(13)
C13 C 0.6363(2) 0.91157(17) 0.34621(14)
C14 C 0.73184(19) 0.94239(16) 0.26722(13)
C15 C 0.7370(2) 0.85799(17) 0.19416(13)
H15 H 0.6807 0.7815 0.1941
C16 C 0.8245(2) 0.88586(17) 0.12149(14)
H16 H 0.8285 0.8277 0.0743
C17 C 0.9071(2) 1.00043(17) 0.11789(13)
C18 C 0.9030(2) 1.08444(17) 0.19278(14)
H17 H 0.9588 1.1611 0.1930
C19 C 0.8180(2) 1.05629(17) 0.26648(14)
H18 H 0.8183 1.1138 0.3160
C20 C 0.9914(2) 1.03445(18) 0.03742(13)
H19 H 1.0378 1.1130 0.0392
Mg1A Mg 1.61826(6) 1.26877(5) -0.41578(4)
O1A O 1.45579(14) 1.18898(11) -0.33524(9)
O2A O 1.73193(14) 1.39602(11) -0.30677(9)
H1A H 1.7015 1.4476 -0.2999
H2A H 1.7823 1.3747 -0.2525
O3A O 1.34557(15) 1.01221(12) -0.41814(10)
O4A O 1.54597(15) 1.38184(12) -0.46263(10)
H3A H 1.5659 1.4398 -0.4218
H4A H 1.5088 1.3759 -0.5291
O5A O 1.51655(15) 1.13970(11) -0.53217(9)
H5A H 1.4543 1.0868 -0.5139
H6A H 1.5742 1.1026 -0.5571
N1A N 1.74415(16) 1.17093(13) -0.37576(11)
N2A N 1.80454(16) 1.31288(13) -0.50483(11)
C1A C 1.7161(2) 1.10166(17) -0.31265(15)
H7A H 1.6344 1.0899 -0.2812
C2A C 1.8014(2) 1.0456(2) -0.29073(17)
H8A H 1.7769 0.9977 -0.2459
C3A C 1.9215(3) 1.0618(2) -0.33586(18)
H9A H 1.9801 1.0251 -0.3219
C4A C 1.9566(2) 1.13390(19) -0.40328(16)
C5A C 2.0810(2) 1.1558(2) -0.45460(19)
H10A H 2.1412 1.1191 -0.4442
C6A C 2.1124(3) 1.2280(2) -0.51734(19)
H11A H 2.1948 1.2417 -0.5482
C7A C 2.0206(2) 1.28395(19) -0.53719(15)
C8A C 2.0471(2) 1.3589(2) -0.60262(16)
H12A H 2.1281 1.3751 -0.6354
C9A C 1.9542(2) 1.4078(2) -0.61799(15)
H13A H 1.9706 1.4573 -0.6615
C10A C 1.8335(2) 1.38288(18) -0.56771(14)
H14A H 1.7707 1.4169 -0.5788
C11A C 1.8968(2) 1.26379(16) -0.48915(13)
C12A C 1.86473(19) 1.18754(16) -0.42091(13)
C13A C 1.3637(2) 1.08843(17) -0.34621(14)
C14A C 1.26816(19) 1.05761(16) -0.26722(13)
C15A C 1.2630(2) 1.14201(17) -0.19416(13)
H15A H 1.3193 1.2185 -0.1941
C16A C 1.1755(2) 1.11414(17) -0.12149(14)
H16A H 1.1715 1.1723 -0.0743
C17A C 1.0929(2) 0.99957(17) -0.11789(13)
C18A C 1.0970(2) 0.91556(17) -0.19278(14)
H17A H 1.0412 0.8389 -0.1930
C19A C 1.1820(2) 0.94371(17) -0.26648(14)
H18A H 1.1817 0.8862 -0.3160
C20A C 1.0086(2) 0.96555(18) -0.03742(13)
H19A H 0.9622 0.8870 -0.0392
O6 O 0.31186(17) 0.41126(13) 0.24650(10)
O7 O 0.43344(17) 0.40525(12) 0.37156(9)
C21 C 0.5144(2) 0.01501(17) 0.04675(13)
H20 H 0.5674 -0.0187 0.0741
C22 C 0.4707(2) 0.09624(17) 0.11110(14)
C23 C 0.3662(2) 0.13139(19) 0.08496(15)
H21 H 0.3137 0.0962 0.0275
C24 C 0.3386(2) 0.21765(19) 0.14241(15)
H22 H 0.2700 0.2411 0.1216
C25 C 0.40965(19) 0.27004(16) 0.22975(13)
C26 C 0.5057(2) 0.22915(18) 0.25997(14)
H23 H 0.5512 0.2593 0.3202
C27 C 0.5360(2) 0.14336(18) 0.20179(14)
H24 H 0.6010 0.1171 0.2240
C28 C 0.3827(2) 0.36899(17) 0.28725(14)
O6A O 0.68814(17) -0.41126(13) -0.24650(10)
O7A O 0.56656(17) -0.40525(12) -0.37156(9)
C21A C 0.4856(2) -0.01501(17) -0.04675(13)
H20A H 0.4326 0.0187 -0.0741
C22A C 0.5293(2) -0.09624(17) -0.11110(14)
C23A C 0.6338(2) -0.13139(19) -0.08496(15)
H21A H 0.6863 -0.0962 -0.0275
C24A C 0.6614(2) -0.21765(19) -0.14241(15)
H22A H 0.7300 -0.2411 -0.1216
C25A C 0.59035(19) -0.27004(16) -0.22975(13)
C26A C 0.4943(2) -0.22915(18) -0.25997(14)
H23A H 0.4488 -0.2593 -0.3202
C27A C 0.4640(2) -0.14336(18) -0.20179(14)
H24A H 0.3990 -0.1171 -0.2240
C28A C 0.6173(2) -0.36899(17) -0.28725(14)
N3 N 1.1856(2) 0.66590(17) 0.14309(15)
N4 N 0.9368(2) 0.61168(19) 0.22673(17)
C29 C 1.3060(4) 0.6930(2) 0.1030(3)
H25 H 1.3870 0.7065 0.1399
C30 C 1.3164(6) 0.7024(3) 0.0050(4)
H26 H 1.4019 0.7216 -0.0225
C31 C 1.1948(7) 0.6819(3) -0.0466(3)
H27 H 1.1986 0.6872 -0.1106
C32 C 1.0681(5) 0.6540(2) -0.0077(2)
C33 C 0.9390(7) 0.6296(3) -0.0620(3)
H28 H 0.9395 0.6340 -0.1262
C34 C 0.8167(7) 0.6000(4) -0.0187(4)
H29 H 0.7335 0.5827 -0.0545
C35 C 0.8120(4) 0.5949(2) 0.0781(3)
C36 C 0.6877(5) 0.5663(4) 0.1233(5)
H30 H 0.6036 0.5479 0.0883
C37 C 0.6873(5) 0.5647(3) 0.2170(5)
H31 H 0.6050 0.5499 0.2482
C38 C 0.8147(4) 0.5861(3) 0.2661(3)
H32 H 0.8139 0.5821 0.3304
C39 C 0.9351(3) 0.61715(19) 0.1340(2)
C40 C 1.0669(3) 0.64689(18) 0.08919(17)
loop_
_geom_bond_atom_site_label_1
_geom_bond_atom_site_label_2
_geom_bond_site_symmetry_1
_geom_bond_site_symmetry_2
Mg1 O1 1_555 1_555
O1 C13 1_555 1_555
O2 Mg1 1_555 1_555
H1 O2 1_555 1_555
H2 O2 1_555 1_555
O3 C13 1_555 1_555
O4 Mg1 1_555 1_555
H3 O4 1_555 1_555
H4 O4 1_555 1_555
O5 Mg1 1_555 1_555
H5 O5 1_555 1_555
H6 O5 1_555 1_555
N1 Mg1 1_555 1_555
N2 Mg1 1_555 1_555
C1 N1 1_555 1_555
H7 C1 1_555 1_555
C2 C1 1_555 1_555
H8 C2 1_555 1_555
C3 C2 1_555 1_555
H9 C3 1_555 1_555
C4 C3 1_555 1_555
C5 C4 1_555 1_555
H10 C5 1_555 1_555
C6 C5 1_555 1_555
H11 C6 1_555 1_555
C7 C6 1_555 1_555
C8 C7 1_555 1_555
H12 C8 1_555 1_555
C9 C8 1_555 1_555
H13 C9 1_555 1_555
C10 N2 1_555 1_555
H14 C10 1_555 1_555
C11 N2 1_555 1_555
C12 N1 1_555 1_555
C13 C14 1_555 1_555
C14 C15 1_555 1_555
C15 H15 1_555 1_555
C16 C15 1_555 1_555
H16 C16 1_555 1_555
C17 C16 1_555 1_555
C18 C17 1_555 1_555
H17 C18 1_555 1_555
C19 C14 1_555 1_555
H18 C19 1_555 1_555
C20 C17 1_555 1_555
H19 C20 1_555 1_555
O6 C28 1_555 1_555
O7 C28 1_555 1_555
C21 H20 1_555 1_555
C22 C21 1_555 1_555
C23 C22 1_555 1_555
H21 C23 1_555 1_555
C24 C23 1_555 1_555
H22 C24 1_555 1_555
C25 C24 1_555 1_555
C26 C25 1_555 1_555
H23 C26 1_555 1_555
C27 C22 1_555 1_555
H24 C27 1_555 1_555
C28 C25 1_555 1_555
N3 C29 1_555 1_555
N4 C38 1_555 1_555
C29 H25 1_555 1_555
C30 C29 1_555 1_555
H26 C30 1_555 1_555
C31 C30 1_555 1_555
H27 C31 1_555 1_555
C32 C31 1_555 1_555
C33 C32 1_555 1_555
H28 C33 1_555 1_555
C34 C33 1_555 1_555
H29 C34 1_555 1_555
C35 C34 1_555 1_555
C36 C35 1_555 1_555
H30 C36 1_555 1_555
C37 C36 1_555 1_555
H31 C37 1_555 1_555
C38 C37 1_555 1_555
H32 C38 1_555 1_555
C39 N4 1_555 1_555
C40 N3 1_555 1_555
Mg1A O1A 1_555 1_555
O1A C13A 1_555 1_555
O2A Mg1A 1_555 1_555
H1A O2A 1_555 1_555
H2A O2A 1_555 1_555
O3A C13A 1_555 1_555
O4A Mg1A 1_555 1_555
H3A O4A 1_555 1_555
H4A O4A 1_555 1_555
O5A Mg1A 1_555 1_555
H5A O5A 1_555 1_555
H6A O5A 1_555 1_555
N1A Mg1A 1_555 1_555
N2A Mg1A 1_555 1_555
C1A N1A 1_555 1_555
H7A C1A 1_555 1_555
C2A C1A 1_555 1_555
H8A C2A 1_555 1_555
C3A C2A 1_555 1_555
H9A C3A 1_555 1_555
C4A C3A 1_555 1_555
C5A C4A 1_555 1_555
H10A C5A 1_555 1_555
C6A C5A 1_555 1_555
H11A C6A 1_555 1_555
C7A C6A 1_555 1_555
C8A C7A 1_555 1_555
H12A C8A 1_555 1_555
C9A C8A 1_555 1_555
H13A C9A 1_555 1_555
C10A N2A 1_555 1_555
H14A C10A 1_555 1_555
C11A N2A 1_555 1_555
C12A N1A 1_555 1_555
C13A C14A 1_555 1_555
C14A C15A 1_555 1_555
C15A H15A 1_555 1_555
C16A C15A 1_555 1_555
H16A C16A 1_555 1_555
C17A C16A 1_555 1_555
C18A C17A 1_555 1_555
H17A C18A 1_555 1_555
C19A C14A 1_555 1_555
H18A C19A 1_555 1_555
C20A C20 1_555 1_555
H19A C20A 1_555 1_555
O6A C28A 1_555 1_555
O7A C28A 1_555 1_555
C21A C21 1_555 1_555
H20A C21A 1_555 1_555
C22A C21A 1_555 1_555
C23A C22A 1_555 1_555
H21A C23A 1_555 1_555
C24A C23A 1_555 1_555
H22A C24A 1_555 1_555
C25A C24A 1_555 1_555
C26A C25A 1_555 1_555
H23A C26A 1_555 1_555
C27A C22A 1_555 1_555
H24A C27A 1_555 1_555
C28A C25A 1_555 1_555
C4 C12 1_555 1_555
C7 C11 1_555 1_555
C9 C10 1_555 1_555
C11 C12 1_555 1_555
C18 C19 1_555 1_555
C26 C27 1_555 1_555
C32 C40 1_555 1_555
C35 C39 1_555 1_555
C39 C40 1_555 1_555
C4A C12A 1_555 1_555
C7A C11A 1_555 1_555
C9A C10A 1_555 1_555
C11A C12A 1_555 1_555
C17A C20A 1_555 1_555
C18A C19A 1_555 1_555
C26A C27A 1_555 1_555

#END
