
#######################################################################
#
#                 Cambridge Crystallographic Data Centre
#                                CCDC 
#
#######################################################################
#
# If this CIF has been generated from an entry in the Cambridge 
# Structural Database, then it will include bibliographic, chemical, 
# crystal, experimental, refinement or atomic coordinate data resulting 
# from the CCDC's data processing and validation procedures.
#
#######################################################################

data_GOMWOV
_chemical_compound_source        'slash pine rosin'
_chemical_name_common            'Pimara-7,15-dien-18-oic acid'
_chemical_formula_moiety         'C20 H30 O2'
_chemical_name_systematic        
'1,4a,7-Trimethyl-7-vinyl-1,2,3,4,4a,4b,5,6,7,8,10,10a-dodecahydrophenanthrene-1-carboxylic acid'
_chemical_properties_biological  'antibacterial activity, BK channels activity'
_symmetry_cell_setting           orthorhombic
_symmetry_space_group_name_H-M   'P 21 21 21'
_symmetry_Int_Tables_number      19
_space_group_name_Hall           'P 2ac 2ab'
loop_
_symmetry_equiv_pos_site_id
_symmetry_equiv_pos_as_xyz
1 x,y,z
2 1/2-x,-y,1/2+z
3 -x,1/2+y,1/2-z
4 1/2+x,1/2-y,-z
_cell_length_a                   11.624(2)
_cell_length_b                   11.803(2)
_cell_length_c                   25.698(5)
_cell_angle_alpha                90
_cell_angle_beta                 90
_cell_angle_gamma                90
_cell_volume                     3525.72
_exptl_crystal_colour            colorless
_exptl_crystal_description       quadrate
_chemical_melting_point          '436 K'
_cell_formula_units_Z            8
_exptl_crystal_recrystallization_method acetone
loop_
_atom_site_label
_atom_site_type_symbol
_atom_site_fract_x
_atom_site_fract_y
_atom_site_fract_z
O1 O 0.7921(4) 0.8907(4) 0.96412(19)
O2 O 0.6441(4) 1.0009(4) 0.97857(19)
H1 H 0.6765 1.0386 0.9561
C1 C 0.9481(9) 0.1236(8) 1.0193(3)
H2 H 0.8843 0.0857 1.0060
H3 H 1.0204 0.0899 1.0178
C2 C 0.9370(8) 0.2172(8) 1.0385(3)
H4 H 1.0080 0.2437 1.0499
C3 C 0.7282(7) 0.2534(6) 1.0540(3)
H5 H 0.7268 0.1988 1.0817
H6 H 0.7082 0.2170 1.0218
H7 H 0.6738 0.3126 1.0612
C4 C 0.8463(7) 0.3031(6) 1.0497(3)
C5 C 0.8871(7) 0.3611(6) 1.0991(3)
H8 H 0.9652 0.3881 1.0942
H9 H 0.8874 0.3070 1.1275
C6 C 0.8086(6) 0.4615(5) 1.1131(3)
H10 H 0.7309 0.4342 1.1187
H11 H 0.8352 0.4957 1.1452
C7 C 0.8077(5) 0.5512(5) 1.0699(2)
H12 H 0.8864 0.5808 1.0676
C8 C 0.7810(6) 0.4997(5) 1.0180(3)
C9 C 0.8475(6) 0.3926(5) 1.0056(3)
H13 H 0.9267 0.4127 0.9981
H14 H 0.8154 0.3588 0.9744
C10 C 0.7276(6) 0.6559(5) 1.0837(2)
C11 C 0.7174(6) 0.7258(5) 1.0326(2)
H15 H 0.7965 0.7339 1.0199
C12 C 0.6560(6) 0.6608(5) 0.9911(2)
H16 H 0.6586 0.7027 0.9586
H17 H 0.5759 0.6510 1.0007
C13 C 0.7126(6) 0.5439(5) 0.9835(3)
H18 H 0.6972 0.5035 0.9533
C14 C 0.7876(6) 0.7254(5) 1.1253(2)
H19 H 0.8674 0.7364 1.1154
H20 H 0.7864 0.6839 1.1579
C15 C 0.7310(7) 0.8406(5) 1.1333(3)
H21 H 0.7709 0.8811 1.1607
H22 H 0.6518 0.8298 1.1441
C16 C 0.7336(7) 0.9111(6) 1.0836(3)
H23 H 0.8129 0.9255 1.0739
H24 H 0.6968 0.9835 1.0900
C17 C 0.6704(6) 0.8497(5) 1.0371(2)
C18 C 0.6102(5) 0.6120(6) 1.1030(3)
H25 H 0.5611 0.6751 1.1109
H26 H 0.6211 0.5670 1.1337
H27 H 0.5752 0.5665 1.0764
C19 C 0.5398(6) 0.8563(6) 1.0466(3)
H28 H 0.5171 0.9341 1.0500
H29 H 0.5210 0.8162 1.0780
H30 H 0.4999 0.8225 1.0178
C20 C 0.7059(7) 0.9151(5) 0.9899(3)
O3 O 0.3506(4) 1.4855(4) 1.11796(19)
H31 H 0.3267 1.5163 1.0915
O4 O 0.2231(4) 1.3579(4) 1.09334(19)
C21 C 0.0730(7) 0.5800(8) 1.1914(4)
H32 H 0.0778 0.5751 1.2275
H33 H 0.0414 0.5207 1.1724
C22 C 0.1091(7) 0.6666(6) 1.1685(4)
H34 H 0.1017 0.6661 1.1325
C23 C 0.1430(6) 0.7841(7) 1.2495(3)
H35 H 0.0621 0.7856 1.2569
H36 H 0.1774 0.8540 1.2606
H37 H 0.1781 0.7222 1.2678
C24 C 0.1616(7) 0.7689(6) 1.1909(3)
C25 C 0.2897(6) 0.7684(5) 1.1787(3)
H38 H 0.3248 0.7052 1.1968
H39 H 0.2993 0.7553 1.1417
C26 C 0.3541(6) 0.8752(5) 1.1930(3)
H40 H 0.4335 0.8676 1.1819
H41 H 0.3539 0.8831 1.2306
C27 C 0.3037(5) 0.9826(5) 1.1690(2)
H42 H 0.3218 0.9779 1.1318
C28 C 0.1740(6) 0.9838(6) 1.1720(2)
C29 C 0.1117(6) 0.8732(5) 1.1632(3)
H43 H 0.1107 0.8581 1.1261
H44 H 0.0325 0.8825 1.1743
C30 C 0.3612(5) 1.0954(5) 1.1883(3)
C31 C 0.2935(5) 1.1915(5) 1.1639(2)
H45 H 0.2870 1.1711 1.1270
C32 C 0.1699(6) 1.1945(6) 1.1837(3)
H46 H 0.1690 1.2197 1.2196
H47 H 0.1255 1.2480 1.1633
C33 C 0.1167(6) 1.0799(6) 1.1800(3)
H48 H 0.0372 1.0752 1.1834
C34 C 0.4849(5) 1.0947(6) 1.1698(3)
H49 H 0.4870 1.0785 1.1328
H50 H 0.5266 1.0351 1.1877
C35 C 0.5446(6) 1.2105(6) 1.1803(3)
H51 H 0.5418 1.2283 1.2171
H52 H 0.6246 1.2073 1.1696
C36 C 0.4813(5) 1.3000(6) 1.1494(3)
H53 H 0.4862 1.2810 1.1127
H54 H 0.5199 1.3721 1.1543
C37 C 0.3535(6) 1.3142(5) 1.1640(2)
C38 C 0.3546(6) 1.0973(5) 1.2479(2)
H55 H 0.3887 1.1660 1.2607
H56 H 0.3954 1.0334 1.2618
H57 H 0.2755 1.0938 1.2586
C39 C 0.3395(7) 1.3764(5) 1.2144(3)
H58 H 0.3785 1.4480 1.2124
H59 H 0.3719 1.3322 1.2422
H60 H 0.2592 1.3889 1.2210
C40 C 0.3037(6) 1.3882(6) 1.1227(3)
loop_
_geom_bond_atom_site_label_1
_geom_bond_atom_site_label_2
_geom_bond_site_symmetry_1
_geom_bond_site_symmetry_2
O1 C20 1_555 1_555
O2 H1 1_555 1_555
C1 H2 1_555 1_555
H3 C1 1_555 1_555
C2 C1 1_555 1_555
H4 C2 1_555 1_555
C3 H5 1_555 1_555
H6 C3 1_555 1_555
H7 C3 1_555 1_555
C4 C2 1_555 1_555
C5 C4 1_555 1_555
H8 C5 1_555 1_555
H9 C5 1_555 1_555
C6 C5 1_555 1_555
H10 C6 1_555 1_555
H11 C6 1_555 1_555
C7 C6 1_555 1_555
H12 C7 1_555 1_555
C8 C7 1_555 1_555
C9 C4 1_555 1_555
H13 C9 1_555 1_555
H14 C9 1_555 1_555
C10 C7 1_555 1_555
C11 C10 1_555 1_555
H15 C11 1_555 1_555
C12 C11 1_555 1_555
H16 C12 1_555 1_555
H17 C12 1_555 1_555
C13 C8 1_555 1_555
H18 C13 1_555 1_555
C14 C10 1_555 1_555
H19 C14 1_555 1_555
H20 C14 1_555 1_555
C15 C14 1_555 1_555
H21 C15 1_555 1_555
H22 C15 1_555 1_555
C16 C15 1_555 1_555
H23 C16 1_555 1_555
H24 C16 1_555 1_555
C17 C11 1_555 1_555
C18 C10 1_555 1_555
H25 C18 1_555 1_555
H26 C18 1_555 1_555
H27 C18 1_555 1_555
C19 C17 1_555 1_555
H28 C19 1_555 1_555
H29 C19 1_555 1_555
H30 C19 1_555 1_555
C20 O2 1_555 1_555
O3 H31 1_555 1_555
O4 C40 1_555 1_555
C21 H32 1_555 1_555
H33 C21 1_555 1_555
C22 C21 1_555 1_555
H34 C22 1_555 1_555
C23 H35 1_555 1_555
H36 C23 1_555 1_555
H37 C23 1_555 1_555
C24 C22 1_555 1_555
C25 C24 1_555 1_555
H38 C25 1_555 1_555
H39 C25 1_555 1_555
C26 C25 1_555 1_555
H40 C26 1_555 1_555
H41 C26 1_555 1_555
C27 C26 1_555 1_555
H42 C27 1_555 1_555
C28 C27 1_555 1_555
C29 C24 1_555 1_555
H43 C29 1_555 1_555
H44 C29 1_555 1_555
C30 C27 1_555 1_555
C31 C30 1_555 1_555
H45 C31 1_555 1_555
C32 C31 1_555 1_555
H46 C32 1_555 1_555
H47 C32 1_555 1_555
C33 C28 1_555 1_555
H48 C33 1_555 1_555
C34 C30 1_555 1_555
H49 C34 1_555 1_555
H50 C34 1_555 1_555
C35 C34 1_555 1_555
H51 C35 1_555 1_555
H52 C35 1_555 1_555
C36 C35 1_555 1_555
H53 C36 1_555 1_555
H54 C36 1_555 1_555
C37 C31 1_555 1_555
C38 C30 1_555 1_555
H55 C38 1_555 1_555
H56 C38 1_555 1_555
H57 C38 1_555 1_555
C39 C37 1_555 1_555
H58 C39 1_555 1_555
H59 C39 1_555 1_555
H60 C39 1_555 1_555
C40 O3 1_555 1_555
C3 C4 1_555 1_555
C8 C9 1_555 1_555
C12 C13 1_555 1_555
C16 C17 1_555 1_555
C17 C20 1_555 1_555
C23 C24 1_555 1_555
C28 C29 1_555 1_555
C32 C33 1_555 1_555
C36 C37 1_555 1_555
C37 C40 1_555 1_555

#END
