
#######################################################################
#
#                 Cambridge Crystallographic Data Centre
#                                CCDC 
#
#######################################################################
#
# If this CIF has been generated from an entry in the Cambridge 
# Structural Database, then it will include bibliographic, chemical, 
# crystal, experimental, refinement or atomic coordinate data resulting 
# from the CCDC's data processing and validation procedures.
#
#######################################################################

data_GOMZUD
_chemical_formula_moiety         'C18 H4 N6 O4,C6 H4 S4,C6 H5 Cl1'
_chemical_name_systematic        
'2,7-Dicyano-4,5-dinitro-9-dicyanomethylene-9H-fluorene tetrathiafulvalene chlorobenzene solvate'
_symmetry_cell_setting           triclinic
_symmetry_space_group_name_H-M   'P -1'
_symmetry_Int_Tables_number      2
_space_group_name_Hall           '-P 1'
loop_
_symmetry_equiv_pos_site_id
_symmetry_equiv_pos_as_xyz
1 x,y,z
2 -x,-y,-z
_cell_length_a                   7.204(2)
_cell_length_b                   9.500(2)
_cell_length_c                   21.660(5)
_cell_angle_alpha                96.25(2)
_cell_angle_beta                 92.72(2)
_cell_angle_gamma                95.95(2)
_cell_volume                     1463.03
_exptl_crystal_colour            black
_exptl_crystal_description       needle
_cell_formula_units_Z            2
loop_
_atom_site_label
_atom_site_type_symbol
_atom_site_fract_x
_atom_site_fract_y
_atom_site_fract_z
S1 S -0.3296(2) 0.8016(1) 0.7295(1)
S2 S -0.3678(2) 0.5533(1) 0.6334(1)
S3 S -0.5183(2) 0.3495(1) 0.7306(1)
S4 S -0.5048(2) 0.5897(1) 0.8292(1)
C9 C -0.3902(6) 0.6193(4) 0.7113(2)
C10 C -0.4602(6) 0.5315(4) 0.7521(2)
C11 C -0.2862(7) 0.8315(5) 0.6538(2)
C12 C -0.3020(7) 0.7216(5) 0.6100(2)
C13 C -0.5952(7) 0.3136(5) 0.8025(2)
C14 C -0.5918(7) 0.4213(5) 0.8469(2)
H3 H -0.2516(7) 0.9253(5) 0.6439(2)
H4 H -0.2788(7) 0.7333(5) 0.5679(2)
H5 H -0.6386(7) 0.2193(5) 0.8098(2)
H6 H -0.6349(7) 0.4075(5) 0.8868(2)
O1 O -0.0785(5) -1.0144(3) 0.2530(1)
O2 O -0.3294(5) -1.0387(3) 0.3049(2)
O3 O -0.3660(5) -0.9488(3) 0.1778(1)
O4 O -0.1905(5) -1.0616(3) 0.1148(2)
N1 N 0.0675(7) -0.1801(4) 0.3570(2)
N2 N 0.1849(7) -0.1976(5) 0.1650(2)
N3 N -0.2422(7) -0.5486(5) 0.5034(2)
N4 N -0.1988(6) -0.9667(4) 0.2855(2)
N5 N -0.2273(6) -0.9552(4) 0.1470(2)
N6 N 0.1631(10) -0.6181(6) -0.0266(2)
C15 C -0.0993(7) -0.5291(4) 0.3537(2)
C16 C -0.1747(7) -0.6300(5) 0.3895(2)
C17 C -0.2139(7) -0.7731(4) 0.3655(2)
C18 C -0.1774(7) -0.8122(4) 0.3039(2)
C19 C -0.1035(7) -0.8224(4) 0.1465(2)
C20 C -0.0419(7) -0.7983(5) 0.0887(2)
C21 C 0.0487(7) -0.6657(5) 0.0813(2)
C22 C 0.0740(7) -0.5551(5) 0.1296(2)
C23 C 0.0139(6) -0.4851(4) 0.2450(2)
C24 C -0.0677(6) -0.5699(4) 0.2916(2)
C25 C -0.1115(6) -0.7144(4) 0.2647(2)
C26 C -0.0712(6) -0.7198(4) 0.1983(2)
C27 C 0.0115(7) -0.5828(4) 0.1880(2)
C28 C 0.0733(7) -0.3412(5) 0.2536(2)
C29 C 0.0693(7) -0.2542(5) 0.3122(2)
C30 C 0.1380(7) -0.2628(5) 0.2041(2)
C31 C 0.1138(9) -0.6390(6) 0.0208(2)
C32 C -0.2120(7) -0.5857(5) 0.4536(2)
H7 H -0.0693(7) -0.4328(4) 0.3712(2)
H8 H -0.2642(7) -0.8420(4) 0.3906(2)
H9 H -0.0614(7) -0.8712(5) 0.0546(2)
H10 H 0.1318(7) -0.4637(5) 0.1233(2)
Cl1 Cl 0.4047(5) -0.3200(3) -0.0058(2)
C1 C 0.4584(8) -0.1445(6) -0.0015(2)
C2 C 0.5744(8) -0.0907(6) -0.0444(2)
C3 C 0.3831(8) -0.0546(7) 0.0427(2)
H1 H 0.6245(8) -0.1534(6) -0.0748(2)
H2 H 0.3027(8) -0.0926(7) 0.0717(2)
C3A C 0.6169(8) 0.0546(7) -0.0427(2)
C1A C 0.5416(8) 0.1445(6) 0.0015(2)
Cl1A Cl 0.5953(5) 0.3200(3) 0.0058(2)
C2A C 0.4256(8) 0.0907(6) 0.0444(2)
H1A H 0.3755(8) 0.1534(6) 0.0748(2)
H2A H 0.6973(8) 0.0926(7) -0.0717(2)
Cl2? Cl -0.2601(12) -0.1421(9) 0.4470(3)
C4? C -0.4281(16) -0.0451(12) 0.4848(5)
C5? C -0.6169(12) -0.0882(8) 0.4726(3)
C6? C -0.7551(15) -0.0257(17) 0.4972(6)
C7? C -0.7136(22) 0.0948(18) 0.5382(8)
C8? C -0.5240(24) 0.1527(13) 0.5547(5)
loop_
_geom_bond_atom_site_label_1
_geom_bond_atom_site_label_2
_geom_bond_site_symmetry_1
_geom_bond_site_symmetry_2
Cl1 C1 1_555 1_555
C1 C2 1_555 1_555
C2 H1 1_555 1_555
C3 C1 1_555 1_555
S1 C9 1_555 1_555
S2 C9 1_555 1_555
S3 C10 1_555 1_555
S4 C10 1_555 1_555
O1 N4 1_555 1_555
O2 N4 1_555 1_555
O3 N5 1_555 1_555
O4 N5 1_555 1_555
N1 C29 1_555 1_555
N2 C30 1_555 1_555
N3 C32 1_555 1_555
N4 C18 1_555 1_555
N5 C19 1_555 1_555
N6 C31 1_555 1_555
C9 C10 1_555 1_555
C11 S1 1_555 1_555
C12 S2 1_555 1_555
C13 S3 1_555 1_555
C14 S4 1_555 1_555
C15 C16 1_555 1_555
C16 C17 1_555 1_555
C17 C18 1_555 1_555
C18 C25 1_555 1_555
C19 C20 1_555 1_555
C20 C21 1_555 1_555
C21 C22 1_555 1_555
C22 C27 1_555 1_555
C23 C24 1_555 1_555
C24 C15 1_555 1_555
C25 C24 1_555 1_555
C26 C19 1_555 1_555
C27 C23 1_555 1_555
C28 C23 1_555 1_555
C29 C28 1_555 1_555
C30 C28 1_555 1_555
C31 C21 1_555 1_555
C32 C16 1_555 1_555
H2 C3 1_555 1_555
H3 C11 1_555 1_555
H4 C12 1_555 1_555
H5 C13 1_555 1_555
H6 C14 1_555 1_555
H7 C15 1_555 1_555
H8 C17 1_555 1_555
H9 C20 1_555 1_555
H10 C22 1_555 1_555
C3A C2 1_555 1_555
C1A C3A 1_555 1_555
Cl1A C1A 1_555 1_555
C2A C3 1_555 1_555
H1A C2A 1_555 1_555
H2A C3A 1_555 1_555
C11 C12 1_555 1_555
C13 C14 1_555 1_555
C25 C26 1_555 1_555
C26 C27 1_555 1_555
C1A C2A 1_555 1_555

#END
