
#######################################################################
#
#                 Cambridge Crystallographic Data Centre
#                                CCDC 
#
#######################################################################
#
# If this CIF has been generated from an entry in the Cambridge 
# Structural Database, then it will include bibliographic, chemical, 
# crystal, experimental, refinement or atomic coordinate data resulting 
# from the CCDC's data processing and validation procedures.
#
#######################################################################

data_GOMZOX
_chemical_formula_moiety         'C17 H16 N2 O2'
_chemical_name_systematic        
9,10-Dimethyl-9,10-(epoxyureido)dihydroanthracene
_symmetry_cell_setting           monoclinic
_symmetry_space_group_name_H-M   'P 21/c'
_symmetry_Int_Tables_number      14
_space_group_name_Hall           '-P 2ybc'
loop_
_symmetry_equiv_pos_site_id
_symmetry_equiv_pos_as_xyz
1 x,y,z
2 -x,1/2+y,1/2-z
3 -x,-y,-z
4 x,1/2-y,1/2+z
_cell_length_a                   8.8730(7)
_cell_length_b                   20.035(2)
_cell_length_c                   8.5553(7)
_cell_angle_alpha                90
_cell_angle_beta                 115.035(5)
_cell_angle_gamma                90
_cell_volume                     1377.99
_exptl_crystal_colour            colorless
_chemical_melting_point          181-182.5deg.C
_cell_formula_units_Z            4
loop_
_atom_site_label
_atom_site_type_symbol
_atom_site_fract_x
_atom_site_fract_y
_atom_site_fract_z
O1 O 0.5834(2) 0.2149(1) 0.3668(2)
O2 O 0.9717(3) 0.1736(1) 0.3859(3)
N1 N 0.6915(3) 0.1905(1) 0.2917(3)
N2 N 0.8833(4) 0.2271(2) 0.5635(4)
C1 C 0.6350(3) 0.1207(1) 0.2132(3)
C2 C 0.4782(3) 0.1612(1) 0.3917(3)
C3 C 0.5897(3) 0.1021(1) 0.4707(3)
C4 C 0.6683(3) 0.0776(1) 0.3712(3)
C5 C 0.4469(4) 0.1253(1) 0.1117(3)
C6 C 0.3617(3) 0.1441(1) 0.2079(3)
C7 C 0.1905(4) 0.1483(1) 0.1351(4)
C8 C 0.1025(4) 0.1333(2) -0.0394(4)
C9 C 0.1855(4) 0.1152(2) -0.1364(4)
C10 C 0.3574(4) 0.1108(2) -0.0626(4)
C11 C 0.7743(4) 0.0236(2) 0.4273(4)
C12 C 0.8010(4) -0.0066(2) 0.5830(4)
C13 C 0.7268(4) 0.0179(2) 0.6828(4)
C14 C 0.6211(4) 0.0725(2) 0.6276(4)
C15 C 0.8599(4) 0.1948(2) 0.4185(4)
C16 C 0.7231(4) 0.0999(2) 0.1030(4)
C17 C 0.3995(4) 0.1936(2) 0.4978(4)
H1 H 0.9855(45) 0.2347(17) 0.6426(44)
H2 H 0.7890(49) 0.2379(20) 0.5826(48)
H3 H 0.1348 0.1610 0.2012
H4 H -0.0130 0.1356 -0.0903
H5 H 0.1257 0.1057 -0.2530
H6 H 0.4127 0.0983 -0.1291
H7 H 0.8273 0.0075 0.3615
H8 H 0.8698 -0.0438 0.6199
H9 H 0.7474 -0.0022 0.7879
H10 H 0.5714 0.0891 0.6959
H11 H 0.8407 0.0979 0.1732
H12 H 0.7006 0.1319 0.0123
H13 H 0.6837 0.0568 0.0537
H14 H 0.3316 0.2304 0.4348
H15 H 0.4849 0.2096 0.6043
H16 H 0.3317 0.1616 0.5219
loop_
_geom_bond_atom_site_label_1
_geom_bond_atom_site_label_2
_geom_bond_site_symmetry_1
_geom_bond_site_symmetry_2
O1 N1 1_555 1_555
O2 C15 1_555 1_555
N1 C1 1_555 1_555
N2 C15 1_555 1_555
C1 C4 1_555 1_555
C2 O1 1_555 1_555
C3 C2 1_555 1_555
C4 C3 1_555 1_555
C5 C1 1_555 1_555
C6 C2 1_555 1_555
C7 C6 1_555 1_555
C8 C7 1_555 1_555
C9 C8 1_555 1_555
C10 C5 1_555 1_555
C11 C4 1_555 1_555
C12 C11 1_555 1_555
C13 C12 1_555 1_555
C14 C3 1_555 1_555
C15 N1 1_555 1_555
C16 C1 1_555 1_555
C17 C2 1_555 1_555
H1 N2 1_555 1_555
H2 N2 1_555 1_555
H3 C7 1_555 1_555
H4 C8 1_555 1_555
H5 C9 1_555 1_555
H6 C10 1_555 1_555
H7 C11 1_555 1_555
H8 C12 1_555 1_555
H9 C13 1_555 1_555
H10 C14 1_555 1_555
H11 C16 1_555 1_555
H12 C16 1_555 1_555
H13 C16 1_555 1_555
H14 C17 1_555 1_555
H15 C17 1_555 1_555
H16 C17 1_555 1_555
C5 C6 1_555 1_555
C9 C10 1_555 1_555
C13 C14 1_555 1_555

#END
