
#######################################################################
#
#                 Cambridge Crystallographic Data Centre
#                                CCDC 
#
#######################################################################
#
# If this CIF has been generated from an entry in the Cambridge 
# Structural Database, then it will include bibliographic, chemical, 
# crystal, experimental, refinement or atomic coordinate data resulting 
# from the CCDC's data processing and validation procedures.
#
#######################################################################

data_GONBAM
_chemical_formula_moiety         'C16 H4 N6 O8,C6 H4 S4'
_chemical_name_systematic        
'2,4,5,7-Tetranitro-9-dicyanomethylenefluorene tetrathiafulvalene'
_symmetry_cell_setting           orthorhombic
_symmetry_space_group_name_H-M   'P n a 21'
_symmetry_Int_Tables_number      33
_space_group_name_Hall           'P 2c -2n'
loop_
_symmetry_equiv_pos_site_id
_symmetry_equiv_pos_as_xyz
1 x,y,z
2 -x,-y,1/2+z
3 1/2-x,1/2+y,1/2+z
4 1/2+x,1/2-y,z
_cell_length_a                   21.958(4)
_cell_length_b                   15.447(3)
_cell_length_c                   6.8810(10)
_cell_angle_alpha                90
_cell_angle_beta                 90
_cell_angle_gamma                90
_cell_volume                     2333.93
_exptl_crystal_colour            black
_exptl_crystal_description       needle
_cell_formula_units_Z            4
loop_
_atom_site_label
_atom_site_type_symbol
_atom_site_fract_x
_atom_site_fract_y
_atom_site_fract_z
S1 S 0.7996(1) 0.1687(1) 0.9824(2)
S2 S 0.8441(1) 0.3476(1) 0.9362(2)
S3 S 0.9812(1) 0.2771(1) 0.8781(3)
S4 S 0.9361(1) 0.0987(1) 0.8832(3)
C1 C 0.8605(3) 0.2377(4) 0.9318(9)
C2 C 0.7473(3) 0.2521(4) 1.0041(9)
C3 C 0.7674(3) 0.3333(4) 0.9831(11)
C4 C 0.9184(3) 0.2086(4) 0.9012(10)
C5 C 1.0348(3) 0.1956(5) 0.8639(13)
C6 C 1.0143(3) 0.1139(4) 0.8668(14)
H1 H 0.7065(3) 0.2408(4) 1.0297(9)
H2 H 0.7412(3) 0.3803(4) 0.9933(11)
H3 H 1.0761(3) 0.2078(5) 0.8546(13)
H4 H 1.0409(3) 0.0672(4) 0.8604(14)
O1 O 0.4423(2) -0.1176(3) 0.7460(7)
O2 O 0.4637(2) 0.0117(3) 0.8455(9)
O3 O 0.6712(2) 0.0855(3) 0.9931(8)
O4 O 0.7146(2) -0.0085(3) 1.1798(7)
O5 O 0.8430(2) -0.0532(3) 1.0128(10)
O6 O 0.7646(2) -0.0383(3) 0.8181(7)
O7 O 0.9027(2) -0.3484(3) 1.1362(7)
O8 O 0.8410(2) -0.4525(3) 1.0592(7)
N1 N 0.4886(2) -0.3831(4) 0.8753(11)
N2 N 0.6534(3) -0.5213(3) 0.9588(12)
N3 N 0.4772(2) -0.0641(3) 0.8204(8)
N4 N 0.6783(3) 0.0120(3) 1.0512(8)
N5 N 0.7952(2) -0.0782(3) 0.9376(9)
N6 N 0.8526(2) -0.3762(3) 1.0804(8)
C7 C 0.5499(3) -0.1810(4) 0.8890(10)
C8 C 0.5378(3) -0.0928(4) 0.8767(10)
C9 C 0.5810(3) -0.0290(4) 0.9203(10)
C10 C 0.6388(3) -0.0561(4) 0.9717(9)
C11 C 0.7751(3) -0.1658(4) 0.9916(9)
C12 C 0.8210(3) -0.2262(4) 1.0210(9)
C13 C 0.8043(3) -0.3120(4) 1.0419(9)
C14 C 0.7456(3) -0.3416(4) 1.0231(9)
C15 C 0.6352(3) -0.2923(4) 0.9587(9)
C16 C 0.6089(3) -0.2051(3) 0.9348(9)
C17 C 0.6562(3) -0.1437(4) 0.9681(10)
C18 C 0.7140(3) -0.1901(4) 0.9875(9)
C19 C 0.6991(3) -0.2802(4) 0.9920(9)
C20 C 0.6036(3) -0.3697(4) 0.9423(10)
C21 C 0.5402(3) -0.3759(4) 0.9043(10)
C22 C 0.6334(3) -0.4533(4) 0.9546(12)
H5 H 0.5196(3) -0.2221(4) 0.8675(10)
H6 H 0.5711(3) 0.0295(4) 0.9149(10)
H7 H 0.8617(3) -0.2096(4) 1.0265(9)
H8 H 0.7368(3) -0.4004(4) 1.0306(9)
loop_
_geom_bond_atom_site_label_1
_geom_bond_atom_site_label_2
_geom_bond_site_symmetry_1
_geom_bond_site_symmetry_2
S1 C1 1_555 1_555
S2 C1 1_555 1_555
S3 C4 1_555 1_555
S4 C4 1_555 1_555
C1 C4 1_555 1_555
C2 S1 1_555 1_555
C3 S2 1_555 1_555
C5 S3 1_555 1_555
C6 S4 1_555 1_555
O1 N3 1_555 1_555
O2 N3 1_555 1_555
O3 N4 1_555 1_555
O4 N4 1_555 1_555
O5 N5 1_555 1_555
O6 N5 1_555 1_555
O7 N6 1_555 1_555
O8 N6 1_555 1_555
N1 C21 1_555 1_555
N2 C22 1_555 1_555
N3 C8 1_555 1_555
N4 C10 1_555 1_555
N5 C11 1_555 1_555
N6 C13 1_555 1_555
C7 C8 1_555 1_555
C8 C9 1_555 1_555
C9 C10 1_555 1_555
C10 C17 1_555 1_555
C11 C12 1_555 1_555
C12 C13 1_555 1_555
C13 C14 1_555 1_555
C14 C19 1_555 1_555
C15 C16 1_555 1_555
C16 C7 1_555 1_555
C17 C16 1_555 1_555
C18 C11 1_555 1_555
C19 C15 1_555 1_555
C20 C15 1_555 1_555
C21 C20 1_555 1_555
C22 C20 1_555 1_555
H1 C2 1_555 1_555
H2 C3 1_555 1_555
H3 C5 1_555 1_555
H4 C6 1_555 1_555
H5 C7 1_555 1_555
H6 C9 1_555 1_555
H7 C12 1_555 1_555
H8 C14 1_555 1_555
C2 C3 1_555 1_555
C5 C6 1_555 1_555
C17 C18 1_555 1_555
C18 C19 1_555 1_555

#END
