
#######################################################################
#
#                 Cambridge Crystallographic Data Centre
#                                CCDC 
#
#######################################################################
#
# If this CIF has been generated from an entry in the Cambridge 
# Structural Database, then it will include bibliographic, chemical, 
# crystal, experimental, refinement or atomic coordinate data resulting 
# from the CCDC's data processing and validation procedures.
#
#######################################################################

data_GONCOB
_chemical_formula_moiety         'C26 H42 N2 O4,H2 O1'
_chemical_name_systematic        
'trans-1,2-bis(2-Hydroxy-7,7-dimethyl-bicyclo(2.2.1)heptyl)-1,2-diamido-cyclohexane monohydrate'
_symmetry_cell_setting           orthorhombic
_symmetry_space_group_name_H-M   'P 21 21 21'
_symmetry_Int_Tables_number      19
_space_group_name_Hall           'P 2ac 2ab'
loop_
_symmetry_equiv_pos_site_id
_symmetry_equiv_pos_as_xyz
1 x,y,z
2 1/2-x,-y,1/2+z
3 1/2+x,1/2-y,-z
4 -x,1/2+y,1/2-z
_cell_length_a                   9.1045(2)
_cell_length_b                   14.7599(2)
_cell_length_c                   19.1821(3)
_cell_angle_alpha                90
_cell_angle_beta                 90
_cell_angle_gamma                90
_cell_volume                     2577.72
_exptl_crystal_colour            colorless
_exptl_crystal_description       equant
_cell_formula_units_Z            4
loop_
_atom_site_label
_atom_site_type_symbol
_atom_site_fract_x
_atom_site_fract_y
_atom_site_fract_z
O1 O 0.5946(1) 0.4192(1) 0.4992(1)
O2 O 0.8138(1) 0.6362(1) 0.3977(1)
O3 O 1.0103(1) 0.4915(1) 0.3888(1)
O4 O 1.1357(1) 0.2301(1) 0.4137(1)
N1 N 0.7735(1) 0.5234(1) 0.5113(1)
N2 N 0.9965(2) 0.3891(1) 0.4758(1)
C1 C 1.0134(2) 0.4538(1) 0.5329(1)
C2 C 1.1167(2) 0.4162(2) 0.5886(1)
C3 C 1.1313(2) 0.4803(2) 0.6501(1)
C4 C 0.9825(3) 0.5016(2) 0.6813(1)
C5 C 0.8819(2) 0.5419(2) 0.6265(1)
C6 C 0.8638(2) 0.4787(1) 0.5640(1)
C7 C 0.6496(2) 0.4927(1) 0.4830(1)
C8 C 0.5750(2) 0.5566(1) 0.4323(1)
C9 C 0.4510(2) 0.5118(1) 0.3896(1)
C10 C 0.3562(2) 0.5927(2) 0.3649(1)
C11 C 0.4340(2) 0.6741(1) 0.3971(1)
C12 C 0.5747(2) 0.6885(1) 0.3567(1)
C13 C 0.6719(2) 0.6058(1) 0.3758(1)
C14 C 0.4909(2) 0.6372(1) 0.4683(1)
C15 C 0.3699(2) 0.6039(2) 0.5181(1)
C16 C 0.5849(2) 0.7045(1) 0.5090(1)
C17 C 0.9944(2) 0.4121(1) 0.4082(1)
C18 C 0.9628(2) 0.3370(1) 0.3562(1)
C19 C 0.7954(2) 0.3341(1) 0.3386(1)
C20 C 0.7914(3) 0.2814(2) 0.2687(1)
C21 C 0.9530(3) 0.2602(1) 0.2550(1)
C22 C 0.9987(3) 0.1875(1) 0.3072(1)
C23 C 0.9987(2) 0.2381(1) 0.3778(1)
C24 C 1.0329(2) 0.3457(1) 0.2821(1)
C25 C 0.9901(3) 0.4321(1) 0.2414(1)
C26 C 1.2000(3) 0.3387(2) 0.2817(1)
H1 H 0.8028 0.5768 0.4950
H2 H 1.0555 0.5103 0.5146
H3 H 0.8804 0.5918 0.3892
H4 H 0.9777 0.3352 0.4872
H5 H 1.2119 0.4070 0.5658
H6 H 1.0717 0.3552 0.6045
H7 H 1.1854 0.5384 0.6324
H8 H 1.1927 0.4497 0.6836
H9 H 1.1300 0.1861 0.4416
H10 H 0.9908 0.5452 0.7189
H11 H 0.9350 0.4427 0.6979
H14 H 0.7901 0.5589 0.6414
H15 H 0.9255 0.6068 0.6077
H16 H 0.8103 0.4211 0.5760
H17 H 0.4981 0.4783 0.3512
H18 H 0.4003 0.4738 0.4201
H19 H 0.2630 0.5889 0.3817
H20 H 0.3580 0.5996 0.3105
H21 H 0.3714 0.7273 0.4021
H22 H 0.6276 0.7408 0.3744
H23 H 0.5578 0.6918 0.3082
H24 H 0.6802 0.5606 0.3328
H25 H 0.4094 0.5591 0.5566
H26 H 0.2929 0.5705 0.4952
H27 H 0.3154 0.6554 0.5372
H28 H 0.6714 0.7200 0.4823
H29 H 0.6191 0.6765 0.5532
H30 H 0.5309 0.7586 0.5192
H31 H 0.7326 0.3020 0.3773
H32 H 0.7641 0.3971 0.3301
H33 H 0.7341 0.2274 0.2715
H34 H 0.7542 0.3169 0.2294
H35 H 0.9642 0.2461 0.2047
H36 H 1.1052 0.1661 0.2987
H37 H 0.9360 0.1354 0.3080
H38 H 0.9211 0.2135 0.4099
H39 H 1.0240 0.4196 0.1906
H40 H 1.0588 0.4850 0.2564
H41 H 0.8839 0.4453 0.2442
H42 H 1.2382 0.3422 0.2372
H43 H 1.2381 0.2822 0.3080
H44 H 1.2445 0.3919 0.3041
O5 O 0.4258(2) 0.2759(1) 0.4463(1)
H12 H 0.4554 0.3319 0.4573
H13 H 0.3371 0.2869 0.4337
loop_
_geom_bond_atom_site_label_1
_geom_bond_atom_site_label_2
_geom_bond_site_symmetry_1
_geom_bond_site_symmetry_2
O1 C7 1_555 1_555
O2 C13 1_555 1_555
O3 C17 1_555 1_555
O4 C23 1_555 1_555
O5 H12 1_555 1_555
N1 C6 1_555 1_555
N2 C1 1_555 1_555
C1 C2 1_555 1_555
C2 C3 1_555 1_555
C3 C4 1_555 1_555
C4 C5 1_555 1_555
C5 C6 1_555 1_555
C6 C1 1_555 1_555
C7 N1 1_555 1_555
C8 C7 1_555 1_555
C9 C8 1_555 1_555
C10 C9 1_555 1_555
C11 C10 1_555 1_555
C12 C11 1_555 1_555
C13 C8 1_555 1_555
C14 C8 1_555 1_555
C15 C14 1_555 1_555
C16 C14 1_555 1_555
C17 N2 1_555 1_555
C18 C17 1_555 1_555
C19 C18 1_555 1_555
C20 C19 1_555 1_555
C21 C20 1_555 1_555
C22 C21 1_555 1_555
C23 C18 1_555 1_555
C24 C18 1_555 1_555
C25 C24 1_555 1_555
C26 C24 1_555 1_555
H1 N1 1_555 1_555
H2 C1 1_555 1_555
H3 O2 1_555 1_555
H4 N2 1_555 1_555
H5 C2 1_555 1_555
H6 C2 1_555 1_555
H7 C3 1_555 1_555
H8 C3 1_555 1_555
H9 O4 1_555 1_555
H10 C4 1_555 1_555
H11 C4 1_555 1_555
H13 O5 1_555 1_555
H14 C5 1_555 1_555
H15 C5 1_555 1_555
H16 C6 1_555 1_555
H17 C9 1_555 1_555
H18 C9 1_555 1_555
H19 C10 1_555 1_555
H20 C10 1_555 1_555
H21 C11 1_555 1_555
H22 C12 1_555 1_555
H23 C12 1_555 1_555
H24 C13 1_555 1_555
H25 C15 1_555 1_555
H26 C15 1_555 1_555
H27 C15 1_555 1_555
H28 C16 1_555 1_555
H29 C16 1_555 1_555
H30 C16 1_555 1_555
H31 C19 1_555 1_555
H32 C19 1_555 1_555
H33 C20 1_555 1_555
H34 C20 1_555 1_555
H35 C21 1_555 1_555
H36 C22 1_555 1_555
H37 C22 1_555 1_555
H38 C23 1_555 1_555
H39 C25 1_555 1_555
H40 C25 1_555 1_555
H41 C25 1_555 1_555
H42 C26 1_555 1_555
H43 C26 1_555 1_555
H44 C26 1_555 1_555
C11 C14 1_555 1_555
C12 C13 1_555 1_555
C21 C24 1_555 1_555
C22 C23 1_555 1_555

#END
