
#######################################################################
#
#                 Cambridge Crystallographic Data Centre
#                                CCDC 
#
#######################################################################
#
# If this CIF has been generated from an entry in the Cambridge 
# Structural Database, then it will include bibliographic, chemical, 
# crystal, experimental, refinement or atomic coordinate data resulting 
# from the CCDC's data processing and validation procedures.
#
#######################################################################

data_GONFOE
_chemical_name_common            'Monoxaisomaragdyrin trifluoroacetate'
_chemical_formula_moiety         'C39 H49 N4 O1 1+,C2 F3 O2 1-'
_chemical_name_systematic        
'16,20-Di-n-butyl-2,3,6,7,10,11,15,21-octamethyl-5-oxa-(22)pentaphyrin-(1.1.1.0.0) trifluoroacetate'
_symmetry_cell_setting           triclinic
_symmetry_space_group_name_H-M   'P -1'
_symmetry_Int_Tables_number      2
_space_group_name_Hall           '-P 1'
loop_
_symmetry_equiv_pos_site_id
_symmetry_equiv_pos_as_xyz
1 x,y,z
2 -x,-y,-z
_cell_length_a                   11.683(2)
_cell_length_b                   11.885(1)
_cell_length_c                   15.299(2)
_cell_angle_alpha                97.59(1)
_cell_angle_beta                 109.59(1)
_cell_angle_gamma                110.68(1)
_cell_volume                     1795.19
_exptl_crystal_description       prisms
_cell_formula_units_Z            2
_exptl_crystal_recrystallization_method chloroform/hexanes
loop_
_atom_site_label
_atom_site_type_symbol
_atom_site_fract_x
_atom_site_fract_y
_atom_site_fract_z
N1 N 0.3053(10) 0.1542(7) 0.1575(6)
O1 O 0.5020(8) 0.3414(6) 0.3064(4)
N2 N 0.5584(9) 0.5696(7) 0.2963(6)
N3 N 0.4122(10) 0.5605(7) 0.0725(6)
N4 N 0.2231(10) 0.2520(8) -0.0256(6)
C1 C 0.2220(13) 0.0434(9) 0.0839(8)
C2 C 0.2431(12) -0.0532(9) 0.1205(8)
C3 C 0.3304(13) -0.0017(10) 0.2148(8)
C4 C 0.3709(12) 0.1285(9) 0.2373(8)
C5 C 0.4575(13) 0.2277(10) 0.3221(8)
C6 C 0.5060(12) 0.2442(9) 0.4202(8)
C7 C 0.5837(12) 0.3763(10) 0.4685(8)
C8 C 0.5779(13) 0.4307(10) 0.3975(8)
C9 C 0.6213(13) 0.5546(10) 0.3851(8)
C10 C 0.7131(13) 0.6744(10) 0.4479(8)
C11 C 0.7067(13) 0.7589(10) 0.3940(8)
C12 C 0.6078(13) 0.6951(10) 0.2989(8)
C13 C 0.5766(12) 0.7430(10) 0.2196(8)
C14 C 0.4940(13) 0.6875(10) 0.1204(8)
C15 C 0.4856(14) 0.7513(11) 0.0482(9)
C16 C 0.4066(14) 0.6669(12) -0.0435(9)
C17 C 0.3595(14) 0.5479(12) -0.0254(8)
C18 C 0.2660(13) 0.4346(11) -0.0952(8)
C19 C 0.2098(13) 0.3075(10) -0.0980(8)
C20 C 0.1101(13) 0.2058(11) -0.1886(7)
C21 C 0.0676(13) 0.0952(10) -0.1638(8)
C22 C 0.1461(13) 0.1221(10) -0.0612(8)
C23 C 0.1485(13) 0.0350(10) -0.0103(8)
C24 C 0.1705(12) -0.1915(9) 0.0642(7)
C25 C 0.3922(11) -0.0725(9) 0.2773(7)
C26 C 0.4749(12) 0.1482(10) 0.4734(7)
C27 C 0.6459(12) 0.4360(9) 0.5759(7)
C28 C 0.8152(12) 0.7063(9) 0.5502(7)
C29 C 0.7904(12) 0.9030(9) 0.4290(8)
C30 C 0.5573(13) 0.8927(10) 0.0688(8)
C31 C 0.370(2) 0.6945(12) -0.1424(9)
C32 C 0.247(2) 0.7120(12) -0.1698(8)
C33 C 0.152(2) 0.720(2) -0.2707(12)
C34 C 0.247(3) 0.833(2) -0.2903(14)
C37 C 0.0517(13) 0.2269(10) -0.2887(8)
C38 C -0.0715(14) 0.2427(12) -0.3121(9)
C39 C -0.1239(13) 0.2610(10) -0.4139(8)
C40 C -0.0323(14) 0.3829(10) -0.4251(8)
C41 C -0.0269(11) -0.0329(9) -0.2318(7)
H1 H 0.3138(10) 0.2278(7) 0.1529(6)
H2 H 0.4970(9) 0.5094(7) 0.2463(6)
H3 H 0.3974(10) 0.5008(7) 0.0992(6)
H4 H 0.2726(10) 0.2915(8) 0.0345(6)
H5 H 0.6197(12) 0.8300(10) 0.2360(8)
H6 H 0.2318(13) 0.4463(11) -0.1558(8)
H7 H 0.0876(13) -0.0465(10) -0.0473(8)
H8 H 0.1150(12) -0.2011(9) -0.0013(7)
H9 H 0.1156(12) -0.2369(9) 0.0939(7)
H10 H 0.2352(12) -0.2239(9) 0.0646(7)
H11 H 0.4503(11) -0.0176(9) 0.3413(7)
H12 H 0.4430(11) -0.1014(9) 0.2497(7)
H13 H 0.3222(11) -0.1429(9) 0.2801(7)
H14 H 0.5259(12) 0.1870(10) 0.5416(7)
H15 H 0.4979(12) 0.0823(10) 0.4532(7)
H16 H 0.3809(12) 0.1139(10) 0.4593(7)
H17 H 0.6329(12) 0.3719(9) 0.6085(7)
H18 H 0.6042(12) 0.4881(9) 0.5909(7)
H19 H 0.7401(12) 0.4863(9) 0.5970(7)
H20 H 0.7993(12) 0.6320(9) 0.5716(7)
H21 H 0.8071(12) 0.7679(9) 0.5922(7)
H22 H 0.9038(12) 0.7393(9) 0.5518(7)
H23 H 0.7649(12) 0.9380(9) 0.3766(8)
H24 H 0.8840(12) 0.9217(9) 0.4508(8)
H25 H 0.7742(12) 0.9384(9) 0.4813(8)
H26 H 0.6050(13) 0.9306(10) 0.1374(8)
H27 H 0.4927(13) 0.9252(10) 0.0431(8)
H28 H 0.6195(13) 0.9115(10) 0.0389(8)
H29 H 0.1189(13) 0.3008(10) -0.2919(8)
H30 H 0.0357(13) 0.1560(10) -0.3379(8)
H31 H -0.0561(14) 0.3149(12) -0.2643(9)
H32 H -0.1396(14) 0.1694(12) -0.3089(9)
H33 H -0.1348(13) 0.1905(10) -0.4610(8)
H34 H -0.2116(13) 0.2603(10) -0.4287(8)
H35 H -0.0713(14) 0.3875(10) -0.4898(8)
H36 H 0.0543(14) 0.3837(10) -0.4124(8)
H37 H -0.0227(14) 0.4536(10) -0.3801(8)
H38 H -0.0391(11) -0.0928(9) -0.1955(7)
H39 H 0.0098(11) -0.0548(9) -0.2754(7)
H40 H -0.1118(11) -0.0331(9) -0.2680(7)
O2 O 0.2906(9) 0.3885(6) 0.1633(5)
O3 O 0.1120(11) 0.3012(9) 0.1907(7)
C42 C 0.192(2) 0.3852(10) 0.1703(9)
C43 C 0.1505(6) 0.4935(4) 0.1501(4)
F1 F 0.0387(7) 0.4790(7) 0.1630(6)
F2 F 0.1288(8) 0.4911(6) 0.0580(3)
F3 F 0.2505(6) 0.6037(5) 0.2088(4)
C35? C 0.268(2) 0.748(2) -0.2619(12)
C36? C 0.164(3) 0.803(2) -0.3004(14)
C44? C 0.1568(6) 0.4950(4) 0.1688(4)
F4? F 0.2674(5) 0.5976(6) 0.1866(5)
F5? F 0.0593(5) 0.4798(5) 0.0849(4)
F6? F 0.1166(10) 0.5082(8) 0.2404(5)
loop_
_geom_bond_atom_site_label_1
_geom_bond_atom_site_label_2
_geom_bond_site_symmetry_1
_geom_bond_site_symmetry_2
N1 C1 1_555 1_555
O1 C5 1_555 1_555
N2 C9 1_555 1_555
N3 C14 1_555 1_555
N4 C19 1_555 1_555
C1 C2 1_555 1_555
C2 C3 1_555 1_555
C3 C4 1_555 1_555
C4 N1 1_555 1_555
C5 C4 1_555 1_555
C6 C5 1_555 1_555
C7 C6 1_555 1_555
C8 O1 1_555 1_555
C9 C8 1_555 1_555
C10 C9 1_555 1_555
C11 C10 1_555 1_555
C12 N2 1_555 1_555
C13 C12 1_555 1_555
C14 C13 1_555 1_555
C15 C14 1_555 1_555
C16 C15 1_555 1_555
C17 N3 1_555 1_555
C18 C17 1_555 1_555
C19 C18 1_555 1_555
C20 C19 1_555 1_555
C21 C20 1_555 1_555
C22 N4 1_555 1_555
C23 C1 1_555 1_555
C24 C2 1_555 1_555
C25 C3 1_555 1_555
C26 C6 1_555 1_555
C27 C7 1_555 1_555
C28 C10 1_555 1_555
C29 C11 1_555 1_555
C30 C15 1_555 1_555
C31 C16 1_555 1_555
C32 C31 1_555 1_555
C33 C32 1_555 1_555
C34 C33 1_555 1_555
C37 C20 1_555 1_555
C38 C37 1_555 1_555
C39 C38 1_555 1_555
C40 C39 1_555 1_555
C41 C21 1_555 1_555
O2 C42 1_555 1_555
O3 C42 1_555 1_555
C42 C43 1_555 1_555
C43 F1 1_555 1_555
F2 C43 1_555 1_555
F3 C43 1_555 1_555
H1 N1 1_555 1_555
H2 N2 1_555 1_555
H3 N3 1_555 1_555
H4 N4 1_555 1_555
H5 C13 1_555 1_555
H6 C18 1_555 1_555
H7 C23 1_555 1_555
H8 C24 1_555 1_555
H9 C24 1_555 1_555
H10 C24 1_555 1_555
H11 C25 1_555 1_555
H12 C25 1_555 1_555
H13 C25 1_555 1_555
H14 C26 1_555 1_555
H15 C26 1_555 1_555
H16 C26 1_555 1_555
H17 C27 1_555 1_555
H18 C27 1_555 1_555
H19 C27 1_555 1_555
H20 C28 1_555 1_555
H21 C28 1_555 1_555
H22 C28 1_555 1_555
H23 C29 1_555 1_555
H24 C29 1_555 1_555
H25 C29 1_555 1_555
H26 C30 1_555 1_555
H27 C30 1_555 1_555
H28 C30 1_555 1_555
H29 C37 1_555 1_555
H30 C37 1_555 1_555
H31 C38 1_555 1_555
H32 C38 1_555 1_555
H33 C39 1_555 1_555
H34 C39 1_555 1_555
H35 C40 1_555 1_555
H36 C40 1_555 1_555
H37 C40 1_555 1_555
H38 C41 1_555 1_555
H39 C41 1_555 1_555
H40 C41 1_555 1_555
C7 C8 1_555 1_555
C11 C12 1_555 1_555
C16 C17 1_555 1_555
C21 C22 1_555 1_555
C22 C23 1_555 1_555

#END
