
#######################################################################
#
#                 Cambridge Crystallographic Data Centre
#                                CCDC 
#
#######################################################################
#
# If this CIF has been generated from an entry in the Cambridge 
# Structural Database, then it will include bibliographic, chemical, 
# crystal, experimental, refinement or atomic coordinate data resulting 
# from the CCDC's data processing and validation procedures.
#
#######################################################################

data_GONLIG
_chemical_formula_moiety         
'C4 H4 N1 O4 S1 1-,C4 H5 F1 N3 O1 1+,0.5(H2 O1)'
_chemical_name_systematic        
'5-fluoro-2-oxo-2,3-dihydropyrimidin-4(1H)-iminium 6-methyl-4-oxo-4H-1,2,3-oxathiazin-3-ide 2,2-dioxide hemihydrate'
_symmetry_cell_setting           monoclinic
_symmetry_space_group_name_H-M   'C 2/c'
_symmetry_Int_Tables_number      15
_space_group_name_Hall           '-C 2yn'
loop_
_symmetry_equiv_pos_site_id
_symmetry_equiv_pos_as_xyz
1 x,y,z
2 -x,y,1/2-z
3 1/2+x,1/2+y,z
4 1/2-x,1/2+y,1/2-z
5 -x,-y,-z
6 x,-y,1/2+z
7 1/2-x,1/2-y,-z
8 1/2+x,1/2-y,1/2+z
_cell_length_a                   26.3596(11)
_cell_length_b                   5.8523(3)
_cell_length_c                   32.3137(11)
_cell_angle_alpha                90
_cell_angle_beta                 105.987(4)
_cell_angle_gamma                90
_cell_volume                     4792.06
_exptl_crystal_colour            'light colorless'
_exptl_crystal_description       block
_cell_formula_units_Z            16
loop_
_atom_site_label
_atom_site_type_symbol
_atom_site_fract_x
_atom_site_fract_y
_atom_site_fract_z
S1 S 0.65182(2) 0.86240(11) 0.526660(18)
O1 O 0.63114(7) 1.0652(3) 0.55216(5)
O2 O 0.60598(7) 0.7628(3) 0.49897(5)
O3 O 0.68725(8) 0.9750(3) 0.50720(6)
O4 O 0.68333(7) 0.4959(3) 0.62236(5)
N1 N 0.68383(7) 0.6954(3) 0.56285(6)
C1 C 0.66404(9) 0.6520(4) 0.59635(7)
C2 C 0.62266(9) 0.7961(4) 0.60426(7)
H1 H 0.6054 0.7476 0.6242
C3 C 0.60851(9) 0.9945(4) 0.58414(7)
C4 C 0.57136(11) 1.1646(5) 0.59249(9)
H2 H 0.5432 1.1884 0.5667
H3 H 0.5896 1.3061 0.6012
H4 H 0.5570 1.1100 0.6149
S2 S 0.49281(3) 0.51570(13) 0.650993(19)
O5 O 0.48060(7) 0.5202(3) 0.59943(5)
O6 O 0.53984(7) 0.6456(4) 0.66702(6)
O7 O 0.49535(9) 0.2787(4) 0.66161(6)
O8 O 0.38197(7) 0.9037(3) 0.64776(5)
N2 N 0.44340(8) 0.6269(4) 0.66122(6)
C5 C 0.41829(9) 0.8031(4) 0.63696(7)
C6 C 0.43087(10) 0.8583(4) 0.59682(7)
H5 H 0.4189 0.9960 0.5833
C7 C 0.45850(10) 0.7207(5) 0.57905(7)
C8 C 0.46835(11) 0.7389(5) 0.53606(7)
H6 H 0.5055 0.7250 0.5391
H7 H 0.4561 0.8845 0.5235
H8 H 0.4498 0.6191 0.5177
F1 F 0.33224(6) 0.5267(3) 0.54768(5)
O9 O 0.24034(7) 0.5178(3) 0.67548(5)
N3 N 0.29620(8) 0.3495(3) 0.64194(6)
H9 H 0.3025(10) 0.245(3) 0.6610(6)
N4 N 0.25199(8) 0.6835(3) 0.61547(6)
H10 H 0.2287(10) 0.788(4) 0.6164(7)
N5 N 0.26547(9) 0.8691(4) 0.55637(6)
H11 H 0.2427(11) 0.975(5) 0.5574(8)
H12 H 0.2826(10) 0.884(4) 0.5346(8)
C9 C 0.32010(9) 0.3504(4) 0.60942(8)
H13 H 0.3433 0.2340 0.6075
C10 C 0.31013(10) 0.5177(4) 0.58056(8)
C11 C 0.27511(9) 0.6977(4) 0.58311(7)
C12 C 0.26151(9) 0.5145(4) 0.64628(7)
F2 F 0.36989(6) 0.2622(2) 0.79262(4)
O10 O 0.30297(7) 1.0443(3) 0.71084(5)
N6 N 0.30240(8) 0.7937(4) 0.76438(6)
H14 H 0.2828(10) 0.881(5) 0.7745(8)
N7 N 0.35450(7) 0.7269(3) 0.71866(6)
H15 H 0.3666(10) 0.776(4) 0.6971(8)
N8 N 0.40707(9) 0.4042(4) 0.72567(7)
H16 H 0.4191(11) 0.466(5) 0.7052(9)
H17 H 0.4175(10) 0.282(5) 0.7374(8)
C13 C 0.31872(9) 0.5927(4) 0.78526(7)
H18 H 0.3061 0.5488 0.8083
C14 C 0.35229(9) 0.4611(4) 0.77289(7)
C15 C 0.37297(9) 0.5259(4) 0.73843(7)
C16 C 0.31853(9) 0.8672(4) 0.73028(7)
O11 O 0.54470(10) -0.0043(4) 0.73412(12)
H19 H 0.5464(19) -0.107(6) 0.7174(12)
H20 H 0.521(3) -0.023(15) 0.746(3)
H21? H 0.528(3) 0.073(5) 0.7138(17)
loop_
_geom_bond_atom_site_label_1
_geom_bond_atom_site_label_2
_geom_bond_site_symmetry_1
_geom_bond_site_symmetry_2
S1 O1 1_555 1_555
O1 C3 1_555 1_555
O2 S1 1_555 1_555
O3 S1 1_555 1_555
O4 C1 1_555 1_555
N1 S1 1_555 1_555
C1 N1 1_555 1_555
C2 C1 1_555 1_555
H1 C2 1_555 1_555
C3 C2 1_555 1_555
C4 C3 1_555 1_555
H2 C4 1_555 1_555
H3 C4 1_555 1_555
H4 C4 1_555 1_555
S2 O5 1_555 1_555
O5 C7 1_555 1_555
O6 S2 1_555 1_555
O7 S2 1_555 1_555
O8 C5 1_555 1_555
N2 S2 1_555 1_555
C5 N2 1_555 1_555
C6 C5 1_555 1_555
H5 C6 1_555 1_555
C7 C6 1_555 1_555
C8 C7 1_555 1_555
H6 C8 1_555 1_555
H7 C8 1_555 1_555
H8 C8 1_555 1_555
F1 C10 1_555 1_555
O9 C12 1_555 1_555
N3 H9 1_555 1_555
N4 H10 1_555 1_555
N5 H11 1_555 1_555
H12 N5 1_555 1_555
C9 N3 1_555 1_555
H13 C9 1_555 1_555
C10 C9 1_555 1_555
C11 N4 1_555 1_555
C12 N3 1_555 1_555
F2 C14 1_555 1_555
O10 C16 1_555 1_555
N6 H14 1_555 1_555
N7 H15 1_555 1_555
N8 H16 1_555 1_555
H17 N8 1_555 1_555
C13 N6 1_555 1_555
H18 C13 1_555 1_555
C14 C13 1_555 1_555
C15 N7 1_555 1_555
C16 N6 1_555 1_555
O11 H19 1_555 1_555
H20 O11 1_555 1_555
N4 C12 1_555 1_555
N5 C11 1_555 1_555
C10 C11 1_555 1_555
N7 C16 1_555 1_555
N8 C15 1_555 1_555
C14 C15 1_555 1_555

#END
