
#######################################################################
#
#                 Cambridge Crystallographic Data Centre
#                                CCDC 
#
#######################################################################
#
# If this CIF has been generated from an entry in the Cambridge 
# Structural Database, then it will include bibliographic, chemical, 
# crystal, experimental, refinement or atomic coordinate data resulting 
# from the CCDC's data processing and validation procedures.
#
#######################################################################

data_GOPLOO
_chemical_name_common            'Paliperidone 4-aminobenzoic acid'
_chemical_formula_moiety         'C23 H27 F1 N4 O3,C7 H7 N1 O2'
_chemical_name_systematic        
'3-(2-(4-(6-Fluoro-1,2-benzoxazol-3-yl)piperidin-1-yl)ethyl)-9-hydroxy-2-methyl-6,7,8,9-tetrahydro-4H-pyrido[1,2-a]pyrimidin-4-one 4-aminobenzoic acid'
_chemical_properties_biological  'Paliperidone has antipsychotic activity'
_symmetry_cell_setting           triclinic
_symmetry_space_group_name_H-M   'P -1'
_symmetry_Int_Tables_number      2
_space_group_name_Hall           '-P 1'
loop_
_symmetry_equiv_pos_site_id
_symmetry_equiv_pos_as_xyz
1 x,y,z
2 -x,-y,-z
_cell_length_a                   10.9374(7)
_cell_length_b                   12.6162(8)
_cell_length_c                   12.7201(8)
_cell_angle_alpha                61.3960(10)
_cell_angle_beta                 66.8530(10)
_cell_angle_gamma                68.1370(10)
_cell_volume                     1379.57
_cell_formula_units_Z            2
loop_
_atom_site_label
_atom_site_type_symbol
_atom_site_fract_x
_atom_site_fract_y
_atom_site_fract_z
C1 C 0.4648(2) 0.1966(2) 1.0371(2)
C2 C 0.3463(2) 0.2571(2) 0.98380(19)
C3 C 0.3188(2) 0.2018(2) 0.9273(2)
C4 C 0.2110(2) 0.2606(2) 0.8707(2)
C5 C 0.1312(2) 0.3748(2) 0.8720(2)
C6 C 0.1597(3) 0.4297(2) 0.9298(2)
C7 C 0.2655(2) 0.3724(2) 0.9837(2)
H1 H 0.381(3) 0.118(3) 0.928(2)
H2 H 0.179(2) 0.210(2) 0.8405(19)
H3 H 0.101(3) 0.516(3) 0.927(2)
H4 H 0.588(2) 0.226(4) 1.080(5)
H5 H 0.299(2) 0.4114(19) 1.0127(19)
N1 N 0.02737(18) 0.43538(17) 0.81990(17)
H6 H 0.0077 0.4036 0.7836
H7 H -0.0200 0.5063 0.8226
O1 O 0.49943(18) 0.26908(17) 1.06464(17)
O2 O 0.52799(19) 0.09048(17) 1.05240(19)
C8 C 0.2577(3) 0.5683(2) -0.4883(2)
C9 C 0.2463(2) 0.6352(2) -0.4243(2)
C10 C 0.3653(3) 0.5708(2) -0.5938(2)
C11 C 0.4638(3) 0.6351(2) -0.6399(2)
C12 C 0.4495(2) 0.7010(2) -0.5727(2)
C13 C 0.3442(2) 0.7024(2) -0.46735(18)
C14 C 0.3713(2) 0.7803(2) -0.42956(19)
C15 C 0.2904(2) 0.8121(2) -0.3186(2)
C16 C 0.2992(3) 0.6970(2) -0.1988(2)
C17 C 0.2074(3) 0.7278(3) -0.0869(2)
C18 C 0.2395(3) 0.9385(2) -0.1973(2)
C19 C 0.3297(3) 0.9118(2) -0.3122(2)
C20 C 0.1603(2) 0.8543(2) 0.0275(2)
C21 C 0.1122(2) 0.79051(19) 0.25782(18)
C22 C 0.1981(2) 0.7572(2) 0.1473(2)
C23 C 0.0080(2) 0.7247(2) 0.34399(19)
C24 C -0.0423(2) 0.8423(2) 0.46384(19)
C25 C -0.1266(3) 0.8762(3) 0.5764(2)
C26 C -0.2246(4) 0.7002(4) 0.6595(3)
H8 H -0.3054 0.6666 0.7076
H9 H -0.1578 0.6549 0.7076
C27 C -0.1679(3) 0.6781(3) 0.5422(2)
C28 C 0.2389(3) 0.9494(3) 0.2026(2)
H10 H 0.3012 0.9158 0.1421
H11 H 0.2877 0.9444 0.2538
H12 H 0.1972 1.0345 0.1611
C29 C 0.1309(2) 0.8768(2) 0.28184(19)
C30 C -0.2601(4) 0.8280(4) 0.6420(4)
H13 H -0.3022 0.8359 0.7216
H14 H -0.3244 0.8759 0.5914
F1 F 0.37318(18) 0.50384(15) -0.65455(14)
H15 H 0.532(3) 0.636(2) -0.708(2)
H16 H 0.202(3) 0.515(2) -0.461(2)
H17 H 0.172(3) 0.632(2) -0.352(2)
H18 H 0.202(3) 0.838(2) -0.323(2)
H19 H 0.432(3) 0.877(2) -0.305(2)
H20 H 0.320(2) 0.986(2) -0.383(2)
H21 H 0.392(3) 0.667(3) -0.195(3)
H22 H 0.275(3) 0.629(3) -0.198(3)
H23 H 0.217(3) 0.655(3) -0.006(3)
H24 H 0.103(3) 0.763(3) -0.091(3)
H25 H 0.269(3) 1.001(2) -0.193(2)
H26 H 0.137(3) 0.969(2) -0.201(2)
H27 H 0.177(2) 0.939(2) 0.009(2)
H28 H 0.062(3) 0.864(2) 0.032(2)
H29 H 0.289(3) 0.750(2) 0.139(2)
H30 H 0.184(3) 0.673(2) 0.166(2)
H31 H -0.231(3) 0.693(3) 0.502(3)
H32 H -0.113(3) 0.582(3) 0.560(3)
N2 N 0.4805(2) 0.8209(2) -0.50391(18)
N3 N 0.24696(17) 0.82514(15) -0.08261(15)
N4 N -0.06535(17) 0.75332(16) 0.44926(15)
N5 N 0.0502(2) 0.90469(19) 0.38375(17)
O3 O 0.53329(18) 0.77093(18) -0.59770(15)
O4 O -0.02049(18) 0.64343(16) 0.33528(16)
O5 O -0.0454(3) 0.8539(3) 0.6428(3)
H33 H -0.0364 0.9197 0.6336
C31? C -0.1884(14) 0.7681(12) 0.6815(8)
H34? H -0.1225 0.7150 0.7298
H35? H -0.2677 0.8023 0.7350
O6? O -0.1729(4) 0.9886(4) 0.5453(3)
H36? H -0.1340 1.0168 0.5664
loop_
_geom_bond_atom_site_label_1
_geom_bond_atom_site_label_2
_geom_bond_site_symmetry_1
_geom_bond_site_symmetry_2
C1 C2 1_555 1_555
C2 C3 1_555 1_555
C3 C4 1_555 1_555
C4 C5 1_555 1_555
C5 C6 1_555 1_555
C6 C7 1_555 1_555
C7 C2 1_555 1_555
H1 C3 1_555 1_555
H2 C4 1_555 1_555
H3 C6 1_555 1_555
H4 O1 1_555 1_555
H5 C7 1_555 1_555
N1 C5 1_555 1_555
H6 N1 1_555 1_555
H7 N1 1_555 1_555
O1 C1 1_555 1_555
O2 C1 1_555 1_555
C8 C9 1_555 1_555
C9 C13 1_555 1_555
C10 C8 1_555 1_555
C11 C10 1_555 1_555
C12 C11 1_555 1_555
C13 C12 1_555 1_555
C14 C13 1_555 1_555
C15 C14 1_555 1_555
C16 C15 1_555 1_555
C17 C16 1_555 1_555
C18 C19 1_555 1_555
C19 C15 1_555 1_555
C20 C22 1_555 1_555
C21 C22 1_555 1_555
C22 H29 1_555 1_555
C23 C21 1_555 1_555
C24 C25 1_555 1_555
C25 C30 1_555 1_555
C26 H8 1_555 1_555
H9 C26 1_555 1_555
C27 C26 1_555 1_555
C28 H10 1_555 1_555
H11 C28 1_555 1_555
H12 C28 1_555 1_555
C29 C21 1_555 1_555
C30 C26 1_555 1_555
H13 C30 1_555 1_555
H14 C30 1_555 1_555
F1 C10 1_555 1_555
H15 C11 1_555 1_555
H16 C8 1_555 1_555
H17 C9 1_555 1_555
H18 C15 1_555 1_555
H19 C19 1_555 1_555
H20 C19 1_555 1_555
H21 C16 1_555 1_555
H22 C16 1_555 1_555
H23 C17 1_555 1_555
H24 C17 1_555 1_555
H25 C18 1_555 1_555
H26 C18 1_555 1_555
H27 C20 1_555 1_555
H28 C20 1_555 1_555
H30 C22 1_555 1_555
H31 C27 1_555 1_555
H32 C27 1_555 1_555
N2 C14 1_555 1_555
N3 C17 1_555 1_555
N4 C23 1_555 1_555
N5 C24 1_555 1_555
O3 C12 1_555 1_555
O4 C23 1_555 1_555
O5 C25 1_555 1_555
H33 O5 1_555 1_555
C18 N3 1_555 1_555
C20 N3 1_555 1_555
C24 N4 1_555 1_555
C27 N4 1_555 1_555
C28 C29 1_555 1_555
C29 N5 1_555 1_555
N2 O3 1_555 1_555

#END
