
#######################################################################
#
#                 Cambridge Crystallographic Data Centre
#                                CCDC 
#
#######################################################################
#
# If this CIF has been generated from an entry in the Cambridge 
# Structural Database, then it will include bibliographic, chemical, 
# crystal, experimental, refinement or atomic coordinate data resulting 
# from the CCDC's data processing and validation procedures.
#
#######################################################################

data_GOPTAI
_chemical_formula_moiety         'C15 H24 O3'
_chemical_name_systematic        
'3-(2-Hydroxy-2-methyl-5-(prop-1-en-2-yl)cyclopentyl)-2,2-dimethylcyclopropanecarboxylic acid'
_symmetry_cell_setting           orthorhombic
_symmetry_space_group_name_H-M   'P 21 21 21'
_symmetry_Int_Tables_number      19
_space_group_name_Hall           'P 2ac 2ab'
loop_
_symmetry_equiv_pos_site_id
_symmetry_equiv_pos_as_xyz
1 x,y,z
2 1/2-x,-y,1/2+z
3 1/2+x,1/2-y,-z
4 -x,1/2+y,1/2-z
_cell_length_a                   11.2310(5)
_cell_length_b                   17.3234(7)
_cell_length_c                   31.7240(19)
_cell_angle_alpha                90
_cell_angle_beta                 90
_cell_angle_gamma                90
_cell_volume                     6172.19
_exptl_crystal_colour            colorless
_exptl_crystal_description       block
_cell_formula_units_Z            16
loop_
_atom_site_label
_atom_site_type_symbol
_atom_site_fract_x
_atom_site_fract_y
_atom_site_fract_z
O1 O 0.5460(3) -0.0383(2) 0.38163(18)
H1 H 0.5710 0.0057 0.3850
O2 O 0.1409(3) 0.19696(19) 0.34787(15)
H2 H 0.1618 0.2417 0.3521
O3 O 0.3324(3) 0.17528(18) 0.35988(14)
C1 C 0.2845(5) 0.0093(3) 0.44667(16)
H3 H 0.2365 -0.0379 0.4472
C2 C 0.3893(7) -0.0021(5) 0.4782(2)
H4 H 0.4207 0.0474 0.4873
H5 H 0.3633 -0.0307 0.5028
C3 C 0.4805(9) -0.0461(6) 0.4544(3)
H6 H 0.4876 -0.0977 0.4661
H7 H 0.5572 -0.0208 0.4570
C4 C 0.4449(5) -0.0508(3) 0.40853(19)
C5 C 0.3488(4) 0.0122(2) 0.40362(14)
H8 H 0.3884 0.0623 0.4009
C6 C 0.2633(4) 0.0025(2) 0.36708(15)
H9 H 0.2085 -0.0406 0.3718
C7 C 0.2014(4) 0.0695(3) 0.34482(16)
H10 H 0.1169 0.0607 0.3389
C8 C 0.2860(5) 0.0145(3) 0.32180(17)
C9 C 0.2039(6) 0.0749(4) 0.45626(19)
C10 C 0.0853(7) 0.0626(7) 0.4585(3)
H11 H 0.0344 0.1029 0.4656
H12 H 0.0546 0.0138 0.4529
C11 C 0.2559(9) 0.1506(4) 0.4648(3)
H13 H 0.3004 0.1486 0.4906
H14 H 0.1935 0.1883 0.4674
H15 H 0.3078 0.1648 0.4421
C12 C 0.4034(6) -0.1310(3) 0.3960(3)
H16 H 0.3365 -0.1456 0.4131
H17 H 0.4670 -0.1673 0.4001
H18 H 0.3804 -0.1310 0.3668
C13 C 0.2256(7) -0.0415(4) 0.2916(2)
H19 H 0.2718 -0.0879 0.2897
H20 H 0.2194 -0.0182 0.2642
H21 H 0.1474 -0.0536 0.3019
C14 C 0.4040(5) 0.0432(4) 0.3051(2)
H22 H 0.4405 0.0764 0.3257
H23 H 0.3914 0.0714 0.2795
H24 H 0.4553 0.0000 0.2997
C15 C 0.2331(4) 0.1509(3) 0.35186(16)
O4 O 0.4312(3) 0.3248(2) 0.3543(3)
H25 H 0.4270 0.2776 0.3554
O5 O 0.6630(3) 0.10117(18) 0.35734(14)
O6 O 0.8537(4) 0.0674(2) 0.3504(2)
H26 H 0.8279 0.0256 0.3585
C16 C 0.6813(5) 0.2988(3) 0.40533(15)
H27 H 0.7609 0.3210 0.4018
C17 C 0.5987(9) 0.3642(4) 0.4206(2)
H28 H 0.5250 0.3439 0.4320
H29 H 0.6374 0.3959 0.4417
C18 C 0.5770(7) 0.4092(3) 0.3804(2)
H30 H 0.5096 0.4438 0.3834
H31 H 0.6467 0.4390 0.3725
C19 C 0.5518(4) 0.3472(2) 0.34887(16)
C20 C 0.6342(4) 0.2783(2) 0.36052(14)
H32 H 0.5870 0.2308 0.3619
C21 C 0.7387(4) 0.2662(2) 0.33144(15)
H33 H 0.7929 0.3105 0.3312
C22 C 0.8045(4) 0.1893(3) 0.32845(18)
H34 H 0.8912 0.1946 0.3268
C23 C 0.7377(5) 0.2234(3) 0.29018(16)
C24 C 0.6935(5) 0.2307(4) 0.43428(17)
C25 C 0.7994(7) 0.2062(5) 0.4462(2)
H35 H 0.8059 0.1635 0.4638
H36 H 0.8675 0.2318 0.4371
C26 C 0.5826(7) 0.1916(5) 0.4481(2)
H37 H 0.5435 0.2226 0.4691
H38 H 0.6018 0.1421 0.4599
H39 H 0.5306 0.1848 0.4244
C27 C 0.5649(7) 0.3802(4) 0.3048(2)
H40 H 0.6450 0.3980 0.3008
H41 H 0.5107 0.4226 0.3013
H42 H 0.5472 0.3409 0.2844
C28 C 0.8176(7) 0.2547(4) 0.2556(2)
H43 H 0.7727 0.2888 0.2379
H44 H 0.8481 0.2127 0.2391
H45 H 0.8827 0.2825 0.2681
C29 C 0.6278(6) 0.1846(3) 0.27410(19)
H46 H 0.5757 0.1734 0.2973
H47 H 0.6493 0.1374 0.2602
H48 H 0.5880 0.2181 0.2545
C30 C 0.7653(4) 0.1170(3) 0.34728(19)
O7 O 0.2185(4) 0.4262(2) 0.1261(2)
H49 H 0.2837 0.4270 0.1145
O8 O 0.4530(3) 0.21468(19) 0.15133(12)
O9 O 0.4097(4) 0.1008(2) 0.17989(16)
H50 H 0.4783 0.0915 0.1727
C31 C 0.1628(5) 0.2305(3) 0.08476(17)
H51 H 0.0926 0.2039 0.0960
C32 C 0.1187(8) 0.2844(4) 0.0498(3)
H52 H 0.1544 0.2704 0.0230
H53 H 0.0328 0.2809 0.0471
C33 C 0.1542(8) 0.3642(4) 0.0619(3)
H54 H 0.0986 0.4019 0.0508
H55 H 0.2335 0.3762 0.0518
C34 C 0.1509(5) 0.3630(3) 0.1106(2)
C35 C 0.2093(4) 0.2847(2) 0.12033(16)
H56 H 0.2956 0.2902 0.1171
C36 C 0.1850(4) 0.2527(3) 0.16324(16)
H57 H 0.1006 0.2403 0.1672
C37 C 0.2668(4) 0.1953(3) 0.18636(16)
H58 H 0.2245 0.1540 0.2013
C38 C 0.2434(5) 0.2760(3) 0.20362(18)
C39 C 0.2481(6) 0.1697(3) 0.07135(18)
C40 C 0.2318(9) 0.0974(4) 0.0813(3)
H59 H 0.1657 0.0830 0.0971
H60 H 0.2863 0.0602 0.0726
C41 C 0.3536(8) 0.1952(6) 0.0468(3)
H61 H 0.3313 0.2369 0.0284
H62 H 0.3828 0.1529 0.0302
H63 H 0.4147 0.2123 0.0657
C42 C 0.0289(6) 0.3711(4) 0.1279(4)
H64 H -0.0172 0.3263 0.1207
H65 H -0.0081 0.4163 0.1163
H66 H 0.0330 0.3759 0.1581
C43 C 0.1653(8) 0.2759(5) 0.2428(2)
H67 H 0.1060 0.3155 0.2404
H68 H 0.2136 0.2855 0.2672
H69 H 0.1271 0.2266 0.2456
C44 C 0.3409(6) 0.3362(4) 0.2054(2)
H70 H 0.3897 0.3322 0.1806
H71 H 0.3889 0.3280 0.2300
H72 H 0.3058 0.3867 0.2066
C45 C 0.3836(4) 0.1729(3) 0.17046(15)
O10 O 0.1919(3) 0.34830(19) 0.35480(16)
H73 H 0.2645 0.3498 0.3575
O11 O 0.3105(3) 0.69491(17) 0.34633(14)
H74 H 0.3824 0.7021 0.3484
O12 O 0.3682(3) 0.57240(18) 0.34073(14)
C46 C 0.1690(7) 0.5052(4) 0.4328(2)
H75 H 0.0846 0.5123 0.4397
C47 C 0.2142(12) 0.4344(6) 0.4566(3)
H76 H 0.3000 0.4369 0.4598
H77 H 0.1783 0.4319 0.4844
C48 C 0.1808(10) 0.3661(5) 0.4317(3)
H78 H 0.1179 0.3379 0.4459
H79 H 0.2489 0.3321 0.4286
C49 C 0.1371(5) 0.3932(3) 0.3875(2)
C50 C 0.1772(4) 0.4780(2) 0.38623(17)
H80 H 0.2611 0.4793 0.3778
C51 C 0.1088(4) 0.5297(2) 0.35696(18)
H81 H 0.0268 0.5379 0.3665
C52 C 0.1626(4) 0.6031(2) 0.33773(17)
H82 H 0.1102 0.6484 0.3380
C53 C 0.1195(6) 0.5360(3) 0.3106(2)
C54 C 0.2327(6) 0.5779(4) 0.44326(19)
C55 C 0.1725(10) 0.6422(5) 0.4481(3)
H83 H 0.0902 0.6421 0.4450
H84 H 0.2122 0.6877 0.4547
C56 C 0.3652(8) 0.5772(8) 0.4461(3)
H85 H 0.3898 0.5401 0.4668
H86 H 0.3931 0.6275 0.4541
H87 H 0.3981 0.5636 0.4191
C57 C 0.0054(6) 0.3823(4) 0.3811(4)
H88 H -0.0373 0.4099 0.4026
H89 H -0.0136 0.3283 0.3829
H90 H -0.0170 0.4016 0.3539
C58 C 0.0025(9) 0.5528(5) 0.2878(3)
H91 H -0.0361 0.5050 0.2808
H92 H 0.0184 0.5813 0.2625
H93 H -0.0484 0.5827 0.3058
C59 C 0.2055(8) 0.4875(4) 0.2860(2)
H94 H 0.2812 0.4869 0.3001
H95 H 0.2150 0.5088 0.2582
H96 H 0.1755 0.4358 0.2838
C60 C 0.2894(4) 0.6201(2) 0.34203(15)
loop_
_geom_bond_atom_site_label_1
_geom_bond_atom_site_label_2
_geom_bond_site_symmetry_1
_geom_bond_site_symmetry_2
O1 H1 1_555 1_555
O2 H2 1_555 1_555
O3 C15 1_555 1_555
C1 H3 1_555 1_555
C2 C1 1_555 1_555
H4 C2 1_555 1_555
H5 C2 1_555 1_555
C3 C2 1_555 1_555
H6 C3 1_555 1_555
H7 C3 1_555 1_555
C4 O1 1_555 1_555
C5 C1 1_555 1_555
H8 C5 1_555 1_555
C6 C5 1_555 1_555
H9 C6 1_555 1_555
C7 C6 1_555 1_555
H10 C7 1_555 1_555
C8 C6 1_555 1_555
C9 C1 1_555 1_555
C10 C9 1_555 1_555
H11 C10 1_555 1_555
H12 C10 1_555 1_555
C11 C9 1_555 1_555
H13 C11 1_555 1_555
H14 C11 1_555 1_555
H15 C11 1_555 1_555
C12 C4 1_555 1_555
H16 C12 1_555 1_555
H17 C12 1_555 1_555
H18 C12 1_555 1_555
C13 C8 1_555 1_555
H19 C13 1_555 1_555
H20 C13 1_555 1_555
H21 C13 1_555 1_555
C14 C8 1_555 1_555
H22 C14 1_555 1_555
H23 C14 1_555 1_555
H24 C14 1_555 1_555
C15 O2 1_555 1_555
O4 H25 1_555 1_555
O5 C30 1_555 1_555
O6 H26 1_555 1_555
C16 H27 1_555 1_555
C17 C16 1_555 1_555
H28 C17 1_555 1_555
H29 C17 1_555 1_555
C18 C17 1_555 1_555
H30 C18 1_555 1_555
H31 C18 1_555 1_555
C19 O4 1_555 1_555
C20 C16 1_555 1_555
H32 C20 1_555 1_555
C21 C20 1_555 1_555
H33 C21 1_555 1_555
C22 C21 1_555 1_555
H34 C22 1_555 1_555
C23 C21 1_555 1_555
C24 C16 1_555 1_555
C25 C24 1_555 1_555
H35 C25 1_555 1_555
H36 C25 1_555 1_555
C26 C24 1_555 1_555
H37 C26 1_555 1_555
H38 C26 1_555 1_555
H39 C26 1_555 1_555
C27 C19 1_555 1_555
H40 C27 1_555 1_555
H41 C27 1_555 1_555
H42 C27 1_555 1_555
C28 C23 1_555 1_555
H43 C28 1_555 1_555
H44 C28 1_555 1_555
H45 C28 1_555 1_555
C29 C23 1_555 1_555
H46 C29 1_555 1_555
H47 C29 1_555 1_555
H48 C29 1_555 1_555
C30 O6 1_555 1_555
O7 H49 1_555 1_555
O8 C45 1_555 1_555
O9 H50 1_555 1_555
C31 H51 1_555 1_555
C32 C31 1_555 1_555
H52 C32 1_555 1_555
H53 C32 1_555 1_555
C33 C32 1_555 1_555
H54 C33 1_555 1_555
H55 C33 1_555 1_555
C34 O7 1_555 1_555
C35 C31 1_555 1_555
H56 C35 1_555 1_555
C36 C35 1_555 1_555
H57 C36 1_555 1_555
C37 C36 1_555 1_555
H58 C37 1_555 1_555
C38 C36 1_555 1_555
C39 C31 1_555 1_555
C40 C39 1_555 1_555
H59 C40 1_555 1_555
H60 C40 1_555 1_555
C41 C39 1_555 1_555
H61 C41 1_555 1_555
H62 C41 1_555 1_555
H63 C41 1_555 1_555
C42 C34 1_555 1_555
H64 C42 1_555 1_555
H65 C42 1_555 1_555
H66 C42 1_555 1_555
C43 C38 1_555 1_555
H67 C43 1_555 1_555
H68 C43 1_555 1_555
H69 C43 1_555 1_555
C44 C38 1_555 1_555
H70 C44 1_555 1_555
H71 C44 1_555 1_555
H72 C44 1_555 1_555
C45 O9 1_555 1_555
O10 H73 1_555 1_555
O11 H74 1_555 1_555
O12 C60 1_555 1_555
C46 H75 1_555 1_555
C47 C46 1_555 1_555
H76 C47 1_555 1_555
H77 C47 1_555 1_555
C48 C47 1_555 1_555
H78 C48 1_555 1_555
H79 C48 1_555 1_555
C49 O10 1_555 1_555
C50 C46 1_555 1_555
H80 C50 1_555 1_555
C51 C50 1_555 1_555
H81 C51 1_555 1_555
C52 C51 1_555 1_555
H82 C52 1_555 1_555
C53 C51 1_555 1_555
C54 C46 1_555 1_555
C55 C54 1_555 1_555
H83 C55 1_555 1_555
H84 C55 1_555 1_555
C56 C54 1_555 1_555
H85 C56 1_555 1_555
H86 C56 1_555 1_555
H87 C56 1_555 1_555
C57 C49 1_555 1_555
H88 C57 1_555 1_555
H89 C57 1_555 1_555
H90 C57 1_555 1_555
C58 C53 1_555 1_555
H91 C58 1_555 1_555
H92 C58 1_555 1_555
H93 C58 1_555 1_555
C59 C53 1_555 1_555
H94 C59 1_555 1_555
H95 C59 1_555 1_555
H96 C59 1_555 1_555
C60 O11 1_555 1_555
C3 C4 1_555 1_555
C4 C5 1_555 1_555
C7 C8 1_555 1_555
C7 C15 1_555 1_555
C18 C19 1_555 1_555
C19 C20 1_555 1_555
C22 C23 1_555 1_555
C22 C30 1_555 1_555
C33 C34 1_555 1_555
C34 C35 1_555 1_555
C37 C38 1_555 1_555
C37 C45 1_555 1_555
C48 C49 1_555 1_555
C49 C50 1_555 1_555
C52 C53 1_555 1_555
C52 C60 1_555 1_555

#END
