
#######################################################################
#
#                 Cambridge Crystallographic Data Centre
#                                CCDC 
#
#######################################################################
#
# If this CIF has been generated from an entry in the Cambridge 
# Structural Database, then it will include bibliographic, chemical, 
# crystal, experimental, refinement or atomic coordinate data resulting 
# from the CCDC's data processing and validation procedures.
#
#######################################################################

data_GOQBAP
_chemical_formula_moiety         'C20 H12 S8'
_chemical_name_systematic        
9-(4,5-Di(methylsulfanyl)-1,3-dithiol-2-ylidene)acenaphthyleno(1,2-b)(1,3)dithiolo(4,5-e)(1,4)dithiine
_symmetry_cell_setting           monoclinic
_symmetry_space_group_name_H-M   'P 21/c'
_symmetry_Int_Tables_number      14
_space_group_name_Hall           '-P 2ybc'
loop_
_symmetry_equiv_pos_site_id
_symmetry_equiv_pos_as_xyz
1 x,y,z
2 x,1/2-y,1/2+z
3 -x,-y,-z
4 -x,1/2+y,1/2-z
_cell_length_a                   17.224(2)
_cell_length_b                   7.805(1)
_cell_length_c                   16.978(2)
_cell_angle_alpha                90
_cell_angle_beta                 115.15(1)
_cell_angle_gamma                90
_cell_volume                     2066.03
_exptl_crystal_colour            'dark red'
_exptl_crystal_description       plate
_chemical_melting_point          460-463K
_cell_formula_units_Z            4
loop_
_atom_site_label
_atom_site_type_symbol
_atom_site_fract_x
_atom_site_fract_y
_atom_site_fract_z
S1 S 0.45269(12) 0.5439(2) 0.15926(12)
S2 S 0.57227(12) 0.5552(2) 0.37570(12)
S3 S 0.31313(12) 0.3951(2) 0.20179(12)
S4 S 0.42342(12) 0.3922(2) 0.39253(12)
S5 S 0.15301(12) 0.2569(2) 0.24058(12)
S6 S 0.26505(13) 0.2559(3) 0.42918(12)
S7 S 0.02073(13) 0.0262(3) 0.26353(14)
S8 S 0.1515(2) 0.0129(3) 0.46933(14)
C1 C 0.6124(5) 0.4011(8) 0.1702(5)
C2 C 0.5995(5) 0.3590(8) 0.0866(5)
H1 H 0.5465(5) 0.3749(8) 0.0398(5)
C3 C 0.6699(6) 0.2866(9) 0.0753(5)
H2 H 0.6615(6) 0.2596(9) 0.0189(5)
C4 C 0.7487(5) 0.2556(9) 0.1425(5)
H3 H 0.7928(5) 0.2098(9) 0.1313(5)
C5 C 0.8380(5) 0.2676(9) 0.3083(5)
H4 H 0.8865(5) 0.2187(9) 0.3065(5)
C6 C 0.8398(5) 0.3109(9) 0.3871(5)
H5 H 0.8900(5) 0.2938(9) 0.4373(5)
C7 C 0.7662(5) 0.3835(9) 0.3938(5)
H6 H 0.7688(5) 0.4102(9) 0.4483(5)
C8 C 0.6934(4) 0.4129(8) 0.3206(5)
C9 C 0.6924(5) 0.3681(8) 0.2393(5)
C10 C 0.7635(5) 0.2939(8) 0.2304(5)
C11 C 0.5595(4) 0.4766(7) 0.2119(4)
C12 C 0.6077(4) 0.4791(7) 0.2989(4)
C13 C 0.4171(4) 0.4776(7) 0.2390(4)
C14 C 0.4666(4) 0.4804(8) 0.3245(4)
C15 C 0.3207(4) 0.3567(8) 0.3079(4)
C16 C 0.2550(4) 0.2987(8) 0.3229(4)
C17 C 0.1176(5) 0.1373(8) 0.3064(5)
C18 C 0.1687(5) 0.1346(8) 0.3919(5)
C19 C -0.0219(5) 0.0684(10) 0.1491(5)
H7 H -0.0730(17) 0.0019(47) 0.1194(6)
H8 H 0.0197(12) 0.0379(56) 0.1277(8)
H9 H -0.0353(28) 0.1882(15) 0.1388(5)
C20 C 0.0960(5) 0.1614(10) 0.5071(5)
H10 H 0.0856(33) 0.1105(29) 0.5533(25)
H11 H 0.0422(16) 0.1913(54) 0.4600(11)
H12 H 0.1302(16) 0.2629(32) 0.5283(33)
loop_
_geom_bond_atom_site_label_1
_geom_bond_atom_site_label_2
_geom_bond_site_symmetry_1
_geom_bond_site_symmetry_2
S1 C11 1_555 1_555
S2 C12 1_555 1_555
S3 C13 1_555 1_555
S4 C14 1_555 1_555
S5 C16 1_555 1_555
S6 C16 1_555 1_555
S7 C17 1_555 1_555
S8 C18 1_555 1_555
C1 C2 1_555 1_555
C2 H1 1_555 1_555
C3 C2 1_555 1_555
H2 C3 1_555 1_555
C4 C3 1_555 1_555
H3 C4 1_555 1_555
C5 H4 1_555 1_555
C6 C5 1_555 1_555
H5 C6 1_555 1_555
C7 C6 1_555 1_555
H6 C7 1_555 1_555
C8 C7 1_555 1_555
C9 C1 1_555 1_555
C10 C4 1_555 1_555
C11 C1 1_555 1_555
C12 C8 1_555 1_555
C13 S1 1_555 1_555
C14 S2 1_555 1_555
C15 S3 1_555 1_555
C16 C15 1_555 1_555
C17 S5 1_555 1_555
C18 S6 1_555 1_555
C19 S7 1_555 1_555
H7 C19 1_555 1_555
H8 C19 1_555 1_555
H9 C19 1_555 1_555
C20 S8 1_555 1_555
H10 C20 1_555 1_555
H11 C20 1_555 1_555
H12 C20 1_555 1_555
S4 C15 1_555 1_555
C5 C10 1_555 1_555
C8 C9 1_555 1_555
C9 C10 1_555 1_555
C11 C12 1_555 1_555
C13 C14 1_555 1_555
C17 C18 1_555 1_555

#END
