
#######################################################################
#
#                 Cambridge Crystallographic Data Centre
#                                CCDC 
#
#######################################################################
#
# If this CIF has been generated from an entry in the Cambridge 
# Structural Database, then it will include bibliographic, chemical, 
# crystal, experimental, refinement or atomic coordinate data resulting 
# from the CCDC's data processing and validation procedures.
#
#######################################################################

data_GOQSIO
_chemical_formula_moiety         'C18 H24 S8'
_chemical_name_systematic        
rac-bis(1,2-Diethylethylenedithio)tetrathiafulvalene
_symmetry_cell_setting           tetragonal
_symmetry_space_group_name_H-M   'P 43 21 2'
_symmetry_Int_Tables_number      96
_space_group_name_Hall           'P 4nw 2abw'
loop_
_symmetry_equiv_pos_site_id
_symmetry_equiv_pos_as_xyz
1 x,y,z
2 -x,-y,1/2+z
3 1/2-y,1/2+x,3/4+z
4 1/2+y,1/2-x,1/4+z
5 y,x,-z
6 -y,-x,1/2-z
7 1/2-x,1/2+y,3/4-z
8 1/2+x,1/2-y,1/4-z
_cell_length_a                   13.9032(5)
_cell_length_b                   13.9032(5)
_cell_length_c                   23.9326(12)
_cell_angle_alpha                90
_cell_angle_beta                 90
_cell_angle_gamma                90
_cell_volume                     4626.15
_exptl_crystal_colour            orange
_exptl_crystal_description       block
_cell_formula_units_Z            8
loop_
_atom_site_label
_atom_site_type_symbol
_atom_site_fract_x
_atom_site_fract_y
_atom_site_fract_z
S1 S 1.01853(8) 1.18356(8) 0.06092(3)
S2 S 1.02381(7) 1.18715(8) -0.06235(3)
S3 S 0.87488(9) 1.33750(10) 0.07209(4)
S4 S 0.88066(9) 1.33957(9) -0.07530(4)
C1 C 1.0707(2) 1.1390(2) -0.00044(13)
C2 C 0.9432(3) 1.2660(3) 0.02683(13)
C3 C 0.9468(3) 1.2690(3) -0.02867(13)
C4 C 0.7857(3) 1.3845(3) 0.0238(2)
H1 H 0.7531(3) 1.4370(3) 0.0435(2)
C5 C 0.8316(3) 1.4297(3) -0.0281(2)
H2 H 0.7791(3) 1.4609(3) -0.0486(2)
C6 C 0.7076(3) 1.3116(3) 0.0091(2)
H3 H 0.6601(3) 1.3430(3) -0.0143(2)
H4 H 0.7365(3) 1.2604(3) -0.0128(2)
C7 C 0.6571(4) 1.2675(5) 0.0583(2)
H5 H 0.6050(21) 1.2280(26) 0.0453(2)
H6 H 0.6322(28) 1.3176(5) 0.0818(10)
H7 H 0.7016(9) 1.2289(26) 0.0791(11)
C8 C 0.9047(4) 1.5094(4) -0.0153(2)
H8 H 0.8739(4) 1.5571(4) 0.0082(2)
H9 H 0.9573(4) 1.4817(4) 0.0058(2)
C9 C 0.9458(5) 1.5597(4) -0.0662(2)
H10 H 0.9906(25) 1.6082(23) -0.0544(3)
H11 H 0.8946(6) 1.5892(28) -0.0870(11)
H12 H 0.9782(29) 1.5136(7) -0.0894(10)
C1D C 1.1390(2) 1.0707(2) 0.00044(13)
S1D S 1.18356(8) 1.01853(8) -0.06092(3)
C2D C 1.2660(3) 0.9432(3) -0.02683(13)
S3D S 1.33750(10) 0.87488(9) -0.07209(4)
C4D C 1.3845(3) 0.7857(3) -0.0238(2)
H1D H 1.4370(3) 0.7531(3) -0.0435(2)
C5D C 1.4297(3) 0.8316(3) 0.0281(2)
S4D S 1.33957(9) 0.88066(9) 0.07530(4)
C3D C 1.2690(3) 0.9468(3) 0.02867(13)
S2D S 1.18715(8) 1.02381(7) 0.06235(3)
H2D H 1.4609(3) 0.7791(3) 0.0486(2)
C8D C 1.5094(4) 0.9047(4) 0.0153(2)
H8D H 1.5571(4) 0.8739(4) -0.0082(2)
H9D H 1.4817(4) 0.9573(4) -0.0058(2)
C9D C 1.5597(4) 0.9458(5) 0.0662(2)
H10D H 1.6082(23) 0.9906(25) 0.0544(3)
H11D H 1.5892(28) 0.8946(6) 0.0870(11)
H12D H 1.5136(7) 0.9782(29) 0.0894(10)
C6D C 1.3116(3) 0.7076(3) -0.0091(2)
H3D H 1.3430(3) 0.6601(3) 0.0143(2)
H4D H 1.2604(3) 0.7365(3) 0.0128(2)
C7D C 1.2675(5) 0.6571(4) -0.0583(2)
H5D H 1.2280(26) 0.6050(21) -0.0453(2)
H6D H 1.3176(5) 0.6322(28) -0.0818(10)
H7D H 1.2289(26) 0.7016(9) -0.0791(11)
S5 S 0.51908(8) 0.51812(8) -0.06170(3)
S6 S 0.67869(8) 0.68709(8) -0.06145(3)
S7 S 0.37002(10) 0.37062(9) -0.07357(4)
S8 S 0.82670(10) 0.83647(9) -0.07360(4)
C10 C 0.5666(2) 0.5666(2) 0.0000
C11 C 0.6350(2) 0.6350(2) 0.0000
C12 C 0.4393(3) 0.4391(3) -0.02827(12)
C13 C 0.7604(3) 0.7643(3) -0.02806(12)
C14 C 0.3237(3) 0.2788(3) -0.0260(2)
H13 H 0.2709(3) 0.2473(3) -0.0459(2)
C15 C 0.8761(3) 0.9243(3) -0.0245(2)
H14 H 0.9276(3) 0.9574(3) -0.0448(2)
C16 C 0.3973(4) 0.2007(3) -0.0145(2)
H15 H 0.4501(4) 0.2286(3) 0.0064(2)
H16 H 0.3677(4) 0.1522(3) 0.0090(2)
C17 C 0.4374(4) 0.1522(4) -0.0655(2)
H17 H 0.4831(25) 0.1041(23) -0.0544(3)
H18 H 0.4687(28) 0.1991(7) -0.0886(9)
H19 H 0.3861(6) 0.1225(28) -0.0860(10)
C18 C 0.8040(4) 1.0022(4) -0.0089(2)
H20 H 0.7530(4) 0.9729(4) 0.0129(2)
H21 H 0.8361(4) 1.0486(4) 0.0150(2)
C19 C 0.7595(5) 1.0550(4) -0.0569(2)
H22 H 0.7121(27) 1.0992(27) -0.0430(3)
H23 H 0.7294(33) 1.0098(5) -0.0817(12)
H24 H 0.8084(8) 1.0898(30) -0.0767(13)
S5D S 0.51812(8) 0.51908(8) 0.06170(3)
C12D C 0.4391(3) 0.4393(3) 0.02827(12)
S7D S 0.37062(9) 0.37002(10) 0.07357(4)
C14D C 0.2788(3) 0.3237(3) 0.0260(2)
H13D H 0.2473(3) 0.2709(3) 0.0459(2)
C16D C 0.2007(3) 0.3973(4) 0.0145(2)
H15D H 0.2286(3) 0.4501(4) -0.0064(2)
H16D H 0.1522(3) 0.3677(4) -0.0090(2)
C17D C 0.1522(4) 0.4374(4) 0.0655(2)
H17D H 0.1041(23) 0.4831(25) 0.0544(3)
H18D H 0.1991(7) 0.4687(28) 0.0886(9)
H19D H 0.1225(28) 0.3861(6) 0.0860(10)
C15D C 0.9243(3) 0.8761(3) 0.0245(2)
S8D S 0.83647(9) 0.82670(10) 0.07360(4)
C13D C 0.7643(3) 0.7604(3) 0.02806(12)
S6D S 0.68709(8) 0.67869(8) 0.06145(3)
H14D H 0.9574(3) 0.9276(3) 0.0448(2)
C18D C 1.0022(4) 0.8040(4) 0.0089(2)
H20D H 0.9729(4) 0.7530(4) -0.0129(2)
H21D H 1.0486(4) 0.8361(4) -0.0150(2)
C19D C 1.0550(4) 0.7595(5) 0.0569(2)
H22D H 1.0992(27) 0.7121(27) 0.0430(3)
H23D H 1.0098(5) 0.7294(33) 0.0817(12)
H24D H 1.0898(30) 0.8084(8) 0.0767(13)
loop_
_geom_bond_atom_site_label_1
_geom_bond_atom_site_label_2
_geom_bond_site_symmetry_1
_geom_bond_site_symmetry_2
S1 C1 1_555 1_555
S2 C1 1_555 1_555
S3 C2 1_555 1_555
S4 C3 1_555 1_555
C1 C1D 1_555 1_555
C2 S1 1_555 1_555
C3 S2 1_555 1_555
C4 S3 1_555 1_555
H1 C4 1_555 1_555
C5 S4 1_555 1_555
H2 C5 1_555 1_555
C6 C4 1_555 1_555
H3 C6 1_555 1_555
H4 C6 1_555 1_555
C7 C6 1_555 1_555
H5 C7 1_555 1_555
H6 C7 1_555 1_555
H7 C7 1_555 1_555
C8 C5 1_555 1_555
H8 C8 1_555 1_555
H9 C8 1_555 1_555
C9 C8 1_555 1_555
H10 C9 1_555 1_555
H11 C9 1_555 1_555
H12 C9 1_555 1_555
S5 C10 1_555 1_555
S6 C11 1_555 1_555
S7 C12 1_555 1_555
S8 C13 1_555 1_555
C10 C11 1_555 1_555
C11 S6D 1_555 1_555
C12 S5 1_555 1_555
C13 S6 1_555 1_555
C14 S7 1_555 1_555
H13 C14 1_555 1_555
C15 S8 1_555 1_555
H14 C15 1_555 1_555
C16 C14 1_555 1_555
H15 C16 1_555 1_555
H16 C16 1_555 1_555
C17 C16 1_555 1_555
H17 C17 1_555 1_555
H18 C17 1_555 1_555
H19 C17 1_555 1_555
C18 C15 1_555 1_555
H20 C18 1_555 1_555
H21 C18 1_555 1_555
C19 C18 1_555 1_555
H22 C19 1_555 1_555
H23 C19 1_555 1_555
H24 C19 1_555 1_555
C1D S1D 1_555 1_555
S1D C2D 1_555 1_555
C2D S3D 1_555 1_555
S3D C4D 1_555 1_555
C4D H1D 1_555 1_555
C5D C4D 1_555 1_555
S4D C5D 1_555 1_555
C3D C2D 1_555 1_555
S2D C1D 1_555 1_555
H2D C5D 1_555 1_555
C8D C5D 1_555 1_555
H8D C8D 1_555 1_555
H9D C8D 1_555 1_555
C9D C8D 1_555 1_555
H10D C9D 1_555 1_555
H11D C9D 1_555 1_555
H12D C9D 1_555 1_555
C6D C4D 1_555 1_555
H3D C6D 1_555 1_555
H4D C6D 1_555 1_555
C7D C6D 1_555 1_555
H5D C7D 1_555 1_555
H6D C7D 1_555 1_555
H7D C7D 1_555 1_555
S5D C10 1_555 1_555
C12D C12 1_555 1_555
S7D C12D 1_555 1_555
C14D C14 1_555 1_555
H13D C14D 1_555 1_555
C16D C14D 1_555 1_555
H15D C16D 1_555 1_555
H16D C16D 1_555 1_555
C17D C16D 1_555 1_555
H17D C17D 1_555 1_555
H18D C17D 1_555 1_555
H19D C17D 1_555 1_555
C15D C15 1_555 1_555
S8D C15D 1_555 1_555
C13D C13 1_555 1_555
S6D C13D 1_555 1_555
H14D C15D 1_555 1_555
C18D C15D 1_555 1_555
H20D C18D 1_555 1_555
H21D C18D 1_555 1_555
C19D C18D 1_555 1_555
H22D C19D 1_555 1_555
H23D C19D 1_555 1_555
H24D C19D 1_555 1_555
C2 C3 1_555 1_555
C4 C5 1_555 1_555
S4D C3D 1_555 1_555
C3D S2D 1_555 1_555
S5D C12D 1_555 1_555
S7D C14D 1_555 1_555
S8D C13D 1_555 1_555

#END
