
#######################################################################
#
#                 Cambridge Crystallographic Data Centre
#                                CCDC 
#
#######################################################################
#
# If this CIF has been generated from an entry in the Cambridge 
# Structural Database, then it will include bibliographic, chemical, 
# crystal, experimental, refinement or atomic coordinate data resulting 
# from the CCDC's data processing and validation procedures.
#
#######################################################################

data_GOQSUA
_chemical_formula_moiety         'C18 H24 S8 2+,2(Br2 I1 1-)'
_chemical_name_systematic        
'bis(1,2-Diethyl-ethylenedithio)tetrathiafulvalenium dibromoiodate'
_symmetry_cell_setting           monoclinic
_symmetry_space_group_name_H-M   'C 2/m'
_symmetry_Int_Tables_number      12
_space_group_name_Hall           '-C 2y'
loop_
_symmetry_equiv_pos_site_id
_symmetry_equiv_pos_as_xyz
1 x,y,z
2 1/2+x,1/2+y,z
3 x,-y,z
4 1/2+x,1/2-y,z
5 -x,-y,-z
6 1/2-x,1/2-y,-z
7 -x,y,-z
8 1/2-x,1/2+y,-z
_cell_length_a                   13.190(3)
_cell_length_b                   18.925(4)
_cell_length_c                   6.5035(13)
_cell_angle_alpha                90
_cell_angle_beta                 98.19(3)
_cell_angle_gamma                90
_cell_volume                     1606.85
_exptl_crystal_colour            black
_exptl_crystal_description       rod
_cell_formula_units_Z            2
loop_
_atom_site_label
_atom_site_type_symbol
_atom_site_fract_x
_atom_site_fract_y
_atom_site_fract_z
I1 I -0.20347(4) 0.5000 0.83764(9)
Br1 Br -0.19662(6) 0.35808(3) 0.84508(13)
Br1B Br -0.19662(6) 0.64192(3) 0.84508(13)
S1 S -0.08380(13) 0.41402(7) 0.3348(3)
S2 S -0.10447(14) 0.26006(7) 0.2994(3)
C1 C 0.0000 0.4625(4) 0.5000
C2 C -0.0411(4) 0.3319(3) 0.4228(10)
C3 C -0.0551(6) 0.1868(3) 0.4698(14)
H1 H -0.0710(6) 0.1435(3) 0.3886(14)
C4 C -0.1108(7) 0.1790(4) 0.6695(18)
H2 H -0.0759(7) 0.2079(4) 0.7810(18)
H3 H -0.1808(7) 0.1958(4) 0.6379(18)
C5 C -0.1111(9) 0.1040(6) 0.7385(18)
H4 H -0.1694(38) 0.0958(13) 0.809(12)
H5 H -0.0494(33) 0.0943(13) 0.832(10)
H6 H -0.1147(66) 0.0734(6) 0.6198(21)
S1F S 0.08380(13) 0.41402(7) 0.6652(3)
C2F C 0.0411(4) 0.3319(3) 0.5772(10)
S2F S 0.10447(14) 0.26006(7) 0.7006(3)
C3F C 0.0551(6) 0.1868(3) 0.5302(14)
H1F H 0.0710(6) 0.1435(3) 0.6114(14)
C4F C 0.1108(7) 0.1790(4) 0.3305(18)
H2F H 0.0759(7) 0.2079(4) 0.2190(18)
H3F H 0.1808(7) 0.1958(4) 0.3621(18)
C5F C 0.1111(9) 0.1040(6) 0.2615(18)
H4F H 0.1694(38) 0.0958(13) 0.191(12)
H5F H 0.0494(33) 0.0943(13) 0.168(10)
H6F H 0.1147(66) 0.0734(6) 0.3802(21)
C1B C 0.0000 0.5375(4) 0.5000
S1B S -0.08380(13) 0.58598(7) 0.3348(3)
C2B C -0.0411(4) 0.6681(3) 0.4228(10)
S2B S -0.10447(14) 0.73994(7) 0.2994(3)
C3B C -0.0551(6) 0.8132(3) 0.4698(14)
C3D C 0.0551(6) 0.8132(3) 0.5302(14)
S2D S 0.10447(14) 0.73994(7) 0.7006(3)
C2D C 0.0411(4) 0.6681(3) 0.5772(10)
S1D S 0.08380(13) 0.58598(7) 0.6652(3)
H1D H 0.0710(6) 0.8565(3) 0.6114(14)
C4D C 0.1108(7) 0.8210(4) 0.3305(18)
H2D H 0.0759(7) 0.7921(4) 0.2190(18)
H3D H 0.1808(7) 0.8042(4) 0.3621(18)
C5D C 0.1111(9) 0.8960(6) 0.2615(18)
H4D H 0.1694(38) 0.9042(13) 0.191(12)
H5D H 0.0494(33) 0.9057(13) 0.168(10)
H6D H 0.1147(66) 0.9266(6) 0.3802(21)
H1B H -0.0710(6) 0.8565(3) 0.3886(14)
C4B C -0.1108(7) 0.8210(4) 0.6695(18)
H2B H -0.0759(7) 0.7921(4) 0.7810(18)
H3B H -0.1808(7) 0.8042(4) 0.6379(18)
C5B C -0.1111(9) 0.8960(6) 0.7385(18)
H4B H -0.1694(38) 0.9042(13) 0.809(12)
H5B H -0.0494(33) 0.9057(13) 0.832(10)
H6B H -0.1147(66) 0.9266(6) 0.6198(21)
loop_
_geom_bond_atom_site_label_1
_geom_bond_atom_site_label_2
_geom_bond_site_symmetry_1
_geom_bond_site_symmetry_2
I1 Br1 1_555 1_555
S1 C1 1_555 1_555
S2 C2 1_555 1_555
C1 S1F 1_555 1_555
C2 S1 1_555 1_555
C3 S2 1_555 1_555
H1 C3 1_555 1_555
C4 C3 1_555 1_555
H2 C4 1_555 1_555
H3 C4 1_555 1_555
C5 C4 1_555 1_555
H4 C5 1_555 1_555
H5 C5 1_555 1_555
H6 C5 1_555 1_555
Br1B I1 1_555 1_555
S1F C2F 1_555 1_555
C2F C2 1_555 1_555
S2F C2F 1_555 1_555
C3F C3 1_555 1_555
H1F C3F 1_555 1_555
C4F C3F 1_555 1_555
H2F C4F 1_555 1_555
H3F C4F 1_555 1_555
C5F C4F 1_555 1_555
H4F C5F 1_555 1_555
H5F C5F 1_555 1_555
H6F C5F 1_555 1_555
C1B C1 1_555 1_555
S1B C1B 1_555 1_555
C2B S1B 1_555 1_555
S2B C2B 1_555 1_555
C3B S2B 1_555 1_555
C3D C3B 1_555 1_555
S2D C3D 1_555 1_555
C2D C2B 1_555 1_555
S1D C1B 1_555 1_555
H1D C3D 1_555 1_555
C4D C3D 1_555 1_555
H2D C4D 1_555 1_555
H3D C4D 1_555 1_555
C5D C4D 1_555 1_555
H4D C5D 1_555 1_555
H5D C5D 1_555 1_555
H6D C5D 1_555 1_555
H1B C3B 1_555 1_555
C4B C3B 1_555 1_555
H2B C4B 1_555 1_555
H3B C4B 1_555 1_555
C5B C4B 1_555 1_555
H4B C5B 1_555 1_555
H5B C5B 1_555 1_555
H6B C5B 1_555 1_555
S2F C3F 1_555 1_555
S2D C2D 1_555 1_555
C2D S1D 1_555 1_555

#END
