
#######################################################################
#
#                 Cambridge Crystallographic Data Centre
#                                CCDC 
#
#######################################################################
#
# If this CIF has been generated from an entry in the Cambridge 
# Structural Database, then it will include bibliographic, chemical, 
# crystal, experimental, refinement or atomic coordinate data resulting 
# from the CCDC's data processing and validation procedures.
#
#######################################################################

data_GOQTAH
_chemical_formula_moiety         'C18 H24 S8 2+,2(I3 1-),0.1(C2 H3 Cl3)'
_chemical_name_systematic        
'bis(1,2-Diethylethylenedithio)tetrathiafulvalenium tri-iodide 1,1,2-trichloroethane solvate'
_symmetry_cell_setting           monoclinic
_symmetry_space_group_name_H-M   'C 2/c'
_symmetry_Int_Tables_number      15
_space_group_name_Hall           '-C 2yn'
loop_
_symmetry_equiv_pos_site_id
_symmetry_equiv_pos_as_xyz
1 x,y,z
2 1/2+x,1/2+y,z
3 x,-y,1/2+z
4 1/2+x,1/2-y,1/2+z
5 -x,-y,-z
6 1/2-x,1/2-y,-z
7 -x,y,1/2-z
8 1/2-x,1/2+y,1/2-z
_cell_length_a                   39.754(2)
_cell_length_b                   13.8902(7)
_cell_length_c                   11.4853(6)
_cell_angle_alpha                90
_cell_angle_beta                 92.7220(10)
_cell_angle_gamma                90
_cell_volume                     6334.92
_exptl_crystal_colour            black
_exptl_crystal_description       'slanted octagonal prism'
_cell_formula_units_Z            8
loop_
_atom_site_label
_atom_site_type_symbol
_atom_site_fract_x
_atom_site_fract_y
_atom_site_fract_z
I3 I 0.0000 0.23348(8) 0.2500
I4 I 0.05645(2) 0.23766(8) 0.09689(9)
I4F I -0.05645(2) 0.23766(8) 0.40311(9)
S1 S 0.31127(6) -0.0493(2) 0.4307(2)
S2 S 0.30101(6) 0.1027(2) 0.5990(2)
S3 S 0.23382(5) -0.0234(2) 0.3312(2)
S4 S 0.22436(6) 0.1255(2) 0.5040(2)
S5 S 0.38188(6) -0.0877(2) 0.5042(2)
S6 S 0.36964(6) 0.0984(2) 0.7044(2)
S7 S 0.16421(6) -0.0169(2) 0.2312(2)
S8 S 0.15416(7) 0.1656(3) 0.4365(2)
C1 C 0.2840(2) 0.0317(6) 0.4874(7)
C2 C 0.2509(2) 0.0428(6) 0.4461(7)
C3 C 0.3458(2) -0.0194(6) 0.5213(7)
C4 C 0.3411(2) 0.0514(6) 0.5985(7)
C5 C 0.1943(2) 0.0272(6) 0.3325(7)
C6 C 0.1895(2) 0.0953(7) 0.4123(7)
C7 C 0.4027(2) -0.0697(7) 0.6476(9)
H1 H 0.4250(2) -0.0995(7) 0.6454(9)
C8 C 0.4082(2) 0.0343(8) 0.6741(9)
H2 H 0.4221(2) 0.0363(8) 0.7467(9)
C9 C 0.1382(2) 0.0923(7) 0.2152(8)
H3 H 0.1192(2) 0.0745(7) 0.1622(8)
C10 C 0.1228(2) 0.1207(7) 0.3283(8)
H4 H 0.1081(2) 0.1756(7) 0.3089(8)
C11 C 0.3836(3) -0.1214(9) 0.7483(10)
H5 H 0.3926(3) -0.0984(9) 0.8232(10)
H6 H 0.3599(3) -0.1048(9) 0.7414(10)
C12 C 0.3873(4) -0.2294(11) 0.7433(14)
H7 H 0.3755(4) -0.2582(11) 0.8054(14)
H8 H 0.4107(4) -0.2462(11) 0.7515(14)
H9 H 0.3781(4) -0.2526(11) 0.6698(14)
C13 C 0.4282(3) 0.0892(9) 0.5831(11)
H10 H 0.4147(3) 0.0920(9) 0.5106(11)
H11 H 0.4317(3) 0.1548(9) 0.6100(11)
C14 C 0.4620(4) 0.0459(13) 0.5590(15)
H12 H 0.4727(4) 0.0841(13) 0.5018(15)
H13 H 0.4588(4) -0.0185(13) 0.5301(15)
H14 H 0.4759(4) 0.0445(13) 0.6297(15)
C15 C 0.1561(2) 0.1737(7) 0.1546(8)
H15 H 0.1432(2) 0.2326(7) 0.1620(8)
H16 H 0.1780(2) 0.1837(7) 0.1934(8)
C16 C 0.1606(3) 0.1543(9) 0.0273(10)
H17 H 0.1720(3) 0.2077(9) -0.0064(10)
H18 H 0.1390(3) 0.1458(9) -0.0120(10)
H19 H 0.1738(3) 0.0969(9) 0.0193(10)
C17 C 0.0998(3) 0.0431(10) 0.3744(11)
H20 H 0.0851(3) 0.0202(10) 0.3106(11)
H21 H 0.1136(3) -0.0108(10) 0.4015(11)
C18 C 0.0787(4) 0.0749(13) 0.4710(15)
H22 H 0.0651(4) 0.0222(13) 0.4950(15)
H23 H 0.0645(4) 0.1271(13) 0.4447(15)
H24 H 0.0931(4) 0.0959(13) 0.5357(15)
I1 I 0.2500 0.2500 0.0000
I2 I 0.28337(2) 0.20503(6) 0.22480(7)
I2E I 0.21663(2) 0.29497(6) -0.22480(7)
Cl1? Cl 0.0000 0.3272(12) 0.7500
Cl2? Cl 0.0086(8) 0.0388(15) 0.6881(3)
Cl3? Cl 0.0218(10) 0.1185(48) 0.6576(43)
Cl4? Cl 0.0250(7) 0.2352(59) 0.6483(38)
C19? C -0.0052(17) 0.2046(48) 0.6802(54)
C20? C -0.0093(32) 0.1423(75) 0.7981(94)
loop_
_geom_bond_atom_site_label_1
_geom_bond_atom_site_label_2
_geom_bond_site_symmetry_1
_geom_bond_site_symmetry_2
I1 I2 1_555 1_555
I3 I4 1_555 1_555
S1 C1 1_555 1_555
S2 C1 1_555 1_555
S3 C2 1_555 1_555
S4 C2 1_555 1_555
S5 C3 1_555 1_555
S6 C4 1_555 1_555
S7 C5 1_555 1_555
S8 C6 1_555 1_555
C1 C2 1_555 1_555
C3 S1 1_555 1_555
C4 S2 1_555 1_555
C5 S3 1_555 1_555
C6 S4 1_555 1_555
C7 S5 1_555 1_555
H1 C7 1_555 1_555
C8 S6 1_555 1_555
H2 C8 1_555 1_555
C9 S7 1_555 1_555
H3 C9 1_555 1_555
C10 S8 1_555 1_555
H4 C10 1_555 1_555
C11 C7 1_555 1_555
H5 C11 1_555 1_555
H6 C11 1_555 1_555
C12 C11 1_555 1_555
H7 C12 1_555 1_555
H8 C12 1_555 1_555
H9 C12 1_555 1_555
C13 C8 1_555 1_555
H10 C13 1_555 1_555
H11 C13 1_555 1_555
C14 C13 1_555 1_555
H12 C14 1_555 1_555
H13 C14 1_555 1_555
H14 C14 1_555 1_555
C15 C9 1_555 1_555
H15 C15 1_555 1_555
H16 C15 1_555 1_555
C16 C15 1_555 1_555
H17 C16 1_555 1_555
H18 C16 1_555 1_555
H19 C16 1_555 1_555
C17 C10 1_555 1_555
H20 C17 1_555 1_555
H21 C17 1_555 1_555
C18 C17 1_555 1_555
H22 C18 1_555 1_555
H23 C18 1_555 1_555
H24 C18 1_555 1_555
I2E I1 1_555 1_555
I4F I3 1_555 1_555
C3 C4 1_555 1_555
C5 C6 1_555 1_555
C7 C8 1_555 1_555
C9 C10 1_555 1_555

#END
