
#######################################################################
#
#                 Cambridge Crystallographic Data Centre
#                                CCDC 
#
#######################################################################
#
# If this CIF has been generated from an entry in the Cambridge 
# Structural Database, then it will include bibliographic, chemical, 
# crystal, experimental, refinement or atomic coordinate data resulting 
# from the CCDC's data processing and validation procedures.
#
#######################################################################

data_GORMIJ
_chemical_formula_moiety         'C16 H14 N2'
_chemical_name_systematic        13-Cyano(2)(1,4)benzeno(2)(2,5)pyridinophane
_symmetry_cell_setting           monoclinic
_symmetry_space_group_name_H-M   'P 21/n'
_symmetry_Int_Tables_number      14
_space_group_name_Hall           '-P 2yn'
loop_
_symmetry_equiv_pos_site_id
_symmetry_equiv_pos_as_xyz
1 x,y,z
2 1/2+x,1/2-y,1/2+z
3 -x,-y,-z
4 1/2-x,1/2+y,1/2-z
_cell_length_a                   7.4660(2)
_cell_length_b                   17.5470(6)
_cell_length_c                   9.1913(2)
_cell_angle_alpha                90
_cell_angle_beta                 96.366(2)
_cell_angle_gamma                90
_cell_volume                     1196.69
_exptl_crystal_colour            colorless
_exptl_crystal_description       prisms
_chemical_melting_point          136deg.C
_cell_formula_units_Z            4
loop_
_atom_site_label
_atom_site_type_symbol
_atom_site_fract_x
_atom_site_fract_y
_atom_site_fract_z
C1 C 0.34369(17) 0.11630(7) 0.49436(13)
H1 H 0.4534 0.1331 0.5565
H2 H 0.2892 0.0741 0.5458
C2 C 0.20483(17) 0.18522(7) 0.47477(13)
H3 H 0.1022 0.1743 0.5311
H4 H 0.2648 0.2321 0.5156
C3 C 0.13436(16) 0.19893(7) 0.31658(13)
C4 C 0.21738(17) 0.25144(7) 0.23277(14)
H5 H 0.2777 0.2942 0.2789
C5 C 0.21305(17) 0.24214(7) 0.08238(14)
H6 H 0.2721 0.2781 0.0269
C6 C 0.12314(16) 0.18062(7) 0.01201(13)
C7 C 0.00731(15) 0.13881(7) 0.09098(14)
H7 H -0.0758 0.1041 0.0413
C8 C 0.01269(15) 0.14763(7) 0.24156(14)
H8 H -0.0665 0.1188 0.2941
C9 C 0.18056(18) 0.15044(8) -0.13015(14)
H9 H 0.2473 0.1908 -0.1768
H10 H 0.0719 0.1378 -0.1976
C10 C 0.3028(2) 0.07771(9) -0.10678(14)
H11 H 0.2317 0.0322 -0.1407
H12 H 0.4046 0.0822 -0.1668
C11 C 0.37613(17) 0.06715(7) 0.05172(13)
N1 N 0.29191(14) 0.01665(6) 0.12935(11)
C12 C 0.30786(15) 0.02657(7) 0.27568(13)
C13 C 0.39656(15) 0.08718(7) 0.35071(13)
C14 C 0.51361(16) 0.12695(7) 0.26990(14)
H13 H 0.5983 0.1617 0.3178
C15 C 0.50690(17) 0.11605(8) 0.12094(14)
H14 H 0.5898 0.1413 0.0661
C16 C 0.20913(17) -0.02784(7) 0.35476(13)
N2 N 0.13414(18) -0.07101(7) 0.41954(14)
loop_
_geom_bond_atom_site_label_1
_geom_bond_atom_site_label_2
_geom_bond_site_symmetry_1
_geom_bond_site_symmetry_2
C1 H1 1_555 1_555
H2 C1 1_555 1_555
C2 C1 1_555 1_555
H3 C2 1_555 1_555
H4 C2 1_555 1_555
C3 C2 1_555 1_555
C4 C3 1_555 1_555
H5 C4 1_555 1_555
C5 C4 1_555 1_555
H6 C5 1_555 1_555
C6 C5 1_555 1_555
C7 C6 1_555 1_555
H7 C7 1_555 1_555
C8 C3 1_555 1_555
H8 C8 1_555 1_555
C9 C6 1_555 1_555
H9 C9 1_555 1_555
H10 C9 1_555 1_555
C10 C9 1_555 1_555
H11 C10 1_555 1_555
H12 C10 1_555 1_555
C11 C10 1_555 1_555
N1 C11 1_555 1_555
C12 N1 1_555 1_555
C13 C1 1_555 1_555
C14 C13 1_555 1_555
H13 C14 1_555 1_555
C15 C11 1_555 1_555
H14 C15 1_555 1_555
C16 C12 1_555 1_555
N2 C16 1_555 1_555
C7 C8 1_555 1_555
C12 C13 1_555 1_555
C14 C15 1_555 1_555

#END
