
#######################################################################
#
#                 Cambridge Crystallographic Data Centre
#                                CCDC 
#
#######################################################################
#
# If this CIF has been generated from an entry in the Cambridge 
# Structural Database, then it will include bibliographic, chemical, 
# crystal, experimental, refinement or atomic coordinate data resulting 
# from the CCDC's data processing and validation procedures.
#
#######################################################################

data_GORNAE
_chemical_formula_moiety         'C36 H24 N2 O2 S3,0.75(C3 H6 O1)'
_chemical_name_systematic        
"10,10'-(sulfonyldi-4,1-phenylene)bis-10H-phenothiazine acetone solvate"
_symmetry_cell_setting           orthorhombic
_symmetry_space_group_name_H-M   'P b c n'
_symmetry_Int_Tables_number      60
_space_group_name_Hall           '-P 2n 2ab'
loop_
_symmetry_equiv_pos_site_id
_symmetry_equiv_pos_as_xyz
1 x,y,z
2 1/2-x,1/2-y,1/2+z
3 1/2+x,1/2-y,-z
4 -x,y,1/2-z
5 -x,-y,-z
6 1/2+x,1/2+y,1/2-z
7 1/2-x,1/2+y,z
8 x,-y,1/2+z
_cell_length_a                   36.098(3)
_cell_length_b                   14.1215(6)
_cell_length_c                   25.1197(14)
_cell_angle_alpha                90
_cell_angle_beta                 90
_cell_angle_gamma                90
_cell_volume                     12805
_exptl_crystal_colour            yellow
_exptl_crystal_description       block
_cell_formula_units_Z            16
loop_
_atom_site_label
_atom_site_type_symbol
_atom_site_fract_x
_atom_site_fract_y
_atom_site_fract_z
C1 C 0.2712(2) 0.3659(5) 0.5788(3)
C2 C 0.2659(2) 0.2685(5) 0.5736(3)
C3 C 0.2953(2) 0.2130(5) 0.5554(3)
H1 H 0.2929 0.1461 0.5543
C4 C 0.3278(2) 0.2552(5) 0.5389(3)
H2 H 0.3472 0.2176 0.5245
C5 C 0.3324(2) 0.3533(5) 0.5435(3)
H3 H 0.3549 0.3824 0.5325
C6 C 0.3038(2) 0.4074(5) 0.5641(3)
H4 H 0.3070 0.4738 0.5681
C7 C 0.2168(2) 0.3525(6) 0.6523(3)
C8 C 0.2175(2) 0.2562(6) 0.6403(3)
C9 C 0.2061(2) 0.1886(7) 0.6772(3)
H5 H 0.2086 0.1230 0.6696
C10 C 0.1911(3) 0.2176(10) 0.7247(4)
H6 H 0.1825 0.1723 0.7498
C11 C 0.1886(3) 0.3134(11) 0.7358(4)
H7 H 0.1773 0.3328 0.7682
C12 C 0.2017(2) 0.3809(8) 0.7018(4)
H8 H 0.2007 0.4461 0.7112
C13 C 0.1009(2) 0.4220(6) 0.2345(3)
C14 C 0.0835(2) 0.3343(5) 0.2414(3)
C15 C 0.0827(2) 0.2694(6) 0.2000(3)
H9 H 0.0705 0.2103 0.2046
C16 C 0.0997(2) 0.2906(6) 0.1516(3)
H10 H 0.0993 0.2462 0.1232
C17 C 0.1174(2) 0.3779(6) 0.1454(3)
H11 H 0.1295 0.3921 0.1128
C18 C 0.1175(2) 0.4428(6) 0.1855(3)
H12 H 0.1289 0.5027 0.1802
C19 C 0.0554(2) 0.4824(6) 0.3110(3)
C20 C 0.0417(2) 0.3897(5) 0.3101(3)
C21 C 0.0057(2) 0.3718(6) 0.3255(3)
H13 H -0.0040 0.3094 0.3233
C22 C -0.0164(2) 0.4451(7) 0.3441(3)
H14 H -0.0408 0.4326 0.3564
C23 C -0.0026(3) 0.5365(7) 0.3445(4)
H15 H -0.0180 0.5868 0.3564
C24 C 0.0326(3) 0.5560(6) 0.3281(4)
H16 H 0.0415 0.6193 0.3283
C25 C 0.20758(19) 0.1810(5) 0.5530(3)
C26 C 0.1709(2) 0.1660(5) 0.5656(3)
H17 H 0.1619 0.1869 0.5992
C27 C 0.1466(2) 0.1212(5) 0.5308(3)
H18 H 0.1214 0.1117 0.5404
C28 C 0.1597(2) 0.0906(5) 0.4818(3)
C29 C 0.1968(2) 0.1052(5) 0.4683(3)
H19 H 0.2059 0.0838 0.4349
C30 C 0.2203(2) 0.1502(5) 0.5031(3)
H20 H 0.2454 0.1607 0.4933
C31 C 0.08007(18) 0.2478(5) 0.3263(3)
C32 C 0.0661(2) 0.2357(5) 0.3778(3)
H21 H 0.0460 0.2740 0.3894
C33 C 0.08070(19) 0.1697(5) 0.4119(3)
H22 H 0.0706 0.1624 0.4466
C34 C 0.11042(19) 0.1131(5) 0.3957(3)
C35 C 0.1248(2) 0.1244(5) 0.3450(3)
H23 H 0.1454 0.0870 0.3341
C36 C 0.10967(19) 0.1895(5) 0.3102(3)
H24 H 0.1193 0.1949 0.2751
N1 N 0.23126(16) 0.2275(4) 0.5887(2)
N2 N 0.06607(17) 0.3156(4) 0.2916(2)
O1 O 0.15169(14) -0.0343(3) 0.40681(19)
O2 O 0.09991(14) -0.0086(3) 0.47158(19)
S1 S 0.12959(5) 0.02901(12) 0.43901(7)
S2 S 0.23500(6) 0.43583(15) 0.60747(9)
S3 S 0.10068(6) 0.50491(15) 0.28688(9)
C37 C 0.0973(2) 0.9153(6) 0.1989(3)
C38 C 0.0787(2) 0.8277(5) 0.1942(3)
C39 C 0.0774(2) 0.7665(6) 0.2374(3)
H25 H 0.0653 0.7071 0.2343
C40 C 0.0939(3) 0.7926(6) 0.2847(3)
H26 H 0.0927 0.7513 0.3145
C41 C 0.1123(3) 0.8794(6) 0.2892(3)
H27 H 0.1238 0.8963 0.3219
C42 C 0.1138(2) 0.9405(6) 0.2466(4)
H28 H 0.1261 0.9997 0.2498
C43 C 0.0543(3) 0.9686(6) 0.1174(3)
C44 C 0.0389(2) 0.8784(6) 0.1221(3)
C45 C 0.0027(3) 0.8601(7) 0.1054(4)
H29 H -0.0082 0.7999 0.1115
C46 C -0.0172(3) 0.9318(10) 0.0795(4)
H30 H -0.0416 0.9204 0.0668
C47 C -0.0006(4) 1.0203(10) 0.0726(5)
H31 H -0.0139 1.0681 0.0540
C48 C 0.0338(4) 1.0409(8) 0.0916(4)
H32 H 0.0440 1.1026 0.0875
C49 C 0.2731(2) 0.8657(5) -0.1417(3)
C50 C 0.2685(2) 0.7675(5) -0.1371(3)
C51 C 0.2982(2) 0.7124(5) -0.1209(3)
H33 H 0.2958 0.6454 -0.1202
C52 C 0.3306(2) 0.7534(5) -0.1059(3)
H34 H 0.3503 0.7155 -0.0929
C53 C 0.3348(2) 0.8518(5) -0.1095(3)
H35 H 0.3573 0.8810 -0.0987
C54 C 0.3064(2) 0.9052(5) -0.1285(3)
H36 H 0.3097 0.9716 -0.1326
C55 C 0.2183(2) 0.8547(6) -0.2143(3)
C56 C 0.2194(2) 0.7585(6) -0.2032(3)
C57 C 0.2080(2) 0.6935(7) -0.2409(3)
H37 H 0.2102 0.6277 -0.2338
C58 C 0.1932(3) 0.7234(10) -0.2892(4)
H38 H 0.1855 0.6785 -0.3150
C59 C 0.1899(3) 0.8189(12) -0.2991(4)
H39 H 0.1784 0.8396 -0.3311
C60 C 0.2028(2) 0.8847(8) -0.2633(4)
H40 H 0.2013 0.9503 -0.2715
C61 C 0.07823(18) 0.7400(5) 0.1091(3)
C62 C 0.0652(2) 0.7281(5) 0.0575(3)
H41 H 0.0447 0.7646 0.0456
C63 C 0.0815(2) 0.6639(5) 0.0231(3)
H42 H 0.0719 0.6562 -0.0118
C64 C 0.11158(19) 0.6108(5) 0.0394(3)
C65 C 0.1253(2) 0.6222(5) 0.0910(3)
H43 H 0.1462 0.5867 0.1021
C66 C 0.1086(2) 0.6844(5) 0.1259(3)
H44 H 0.1176 0.6898 0.1614
C67 C 0.20961(18) 0.6818(5) -0.1165(3)
C68 C 0.1730(2) 0.6671(5) -0.1296(3)
H45 H 0.1641 0.6880 -0.1632
C69 C 0.1486(2) 0.6224(5) -0.0946(3)
H46 H 0.1233 0.6139 -0.1039
C70 C 0.1618(2) 0.5906(4) -0.0458(3)
C71 C 0.1988(2) 0.6037(5) -0.0325(3)
H47 H 0.2077 0.5814 0.0008
C72 C 0.2227(2) 0.6485(5) -0.0669(3)
H48 H 0.2480 0.6570 -0.0574
N3 N 0.06137(18) 0.8038(4) 0.1448(2)
N4 N 0.23351(17) 0.7275(4) -0.1525(2)
O3 O 0.10199(14) 0.4905(3) -0.0367(2)
O4 O 0.15388(15) 0.4647(3) 0.02867(19)
S4 S 0.13177(5) 0.52799(12) -0.00358(7)
S5 S 0.09877(7) 0.99245(16) 0.14333(9)
S6 S 0.23682(6) 0.93632(15) -0.16832(9)
C73 C 0.0692(3) 0.2640(10) -0.0050(6)
H49 H 0.0732 0.1982 0.0059
H50 H 0.0886 0.3041 0.0103
H51 H 0.0699 0.2684 -0.0439
C74 C 0.0311(4) 0.2977(9) 0.0152(5)
C75 C 0.0209(4) 0.3990(10) 0.0043(7)
H52 H 0.0222 0.4110 -0.0341
H53 H 0.0383 0.4409 0.0228
H54 H -0.0043 0.4110 0.0170
O5 O 0.0089(2) 0.2467(6) 0.0355(3)
C76 C 0.0248(3) 0.0251(8) 0.2841(4)
H55 H 0.0280 0.0594 0.3177
H56 H 0.0489 0.0184 0.2664
H57 H 0.0145 -0.0377 0.2912
C77 C 0.0000 0.0771(11) 0.2500
O6 O 0.0000 0.1607(10) 0.2500
C76C C -0.0248(3) 0.0251(8) 0.2159(4)
H55C H -0.0280 0.0594 0.1823
H56C H -0.0489 0.0184 0.2336
H57C H -0.0145 -0.0377 0.2088
loop_
_geom_bond_atom_site_label_1
_geom_bond_atom_site_label_2
_geom_bond_site_symmetry_1
_geom_bond_site_symmetry_2
C1 C2 1_555 1_555
C2 C3 1_555 1_555
C3 H1 1_555 1_555
C4 C3 1_555 1_555
H2 C4 1_555 1_555
C5 C4 1_555 1_555
H3 C5 1_555 1_555
C6 C1 1_555 1_555
H4 C6 1_555 1_555
C7 C8 1_555 1_555
C8 C9 1_555 1_555
C9 H5 1_555 1_555
C10 C9 1_555 1_555
H6 C10 1_555 1_555
C11 C10 1_555 1_555
H7 C11 1_555 1_555
C12 C7 1_555 1_555
H8 C12 1_555 1_555
C13 C14 1_555 1_555
C14 C15 1_555 1_555
C15 H9 1_555 1_555
C16 C15 1_555 1_555
H10 C16 1_555 1_555
C17 C16 1_555 1_555
H11 C17 1_555 1_555
C18 C13 1_555 1_555
H12 C18 1_555 1_555
C19 C20 1_555 1_555
C20 C21 1_555 1_555
C21 H13 1_555 1_555
C22 C21 1_555 1_555
H14 C22 1_555 1_555
C23 C22 1_555 1_555
H15 C23 1_555 1_555
C24 C19 1_555 1_555
H16 C24 1_555 1_555
C25 C26 1_555 1_555
C26 H17 1_555 1_555
C27 C26 1_555 1_555
H18 C27 1_555 1_555
C28 C27 1_555 1_555
C29 C28 1_555 1_555
H19 C29 1_555 1_555
C30 C25 1_555 1_555
H20 C30 1_555 1_555
C31 C32 1_555 1_555
C32 H21 1_555 1_555
C33 C32 1_555 1_555
H22 C33 1_555 1_555
C34 C33 1_555 1_555
C35 C34 1_555 1_555
H23 C35 1_555 1_555
C36 C31 1_555 1_555
H24 C36 1_555 1_555
N1 C2 1_555 1_555
N2 C14 1_555 1_555
O1 S1 1_555 1_555
O2 S1 1_555 1_555
S1 C28 1_555 1_555
S2 C1 1_555 1_555
S3 C13 1_555 1_555
C37 C38 1_555 1_555
C38 C39 1_555 1_555
C39 H25 1_555 1_555
C40 C39 1_555 1_555
H26 C40 1_555 1_555
C41 C40 1_555 1_555
H27 C41 1_555 1_555
C42 C37 1_555 1_555
H28 C42 1_555 1_555
C43 C44 1_555 1_555
C44 C45 1_555 1_555
C45 H29 1_555 1_555
C46 C45 1_555 1_555
H30 C46 1_555 1_555
C47 C46 1_555 1_555
H31 C47 1_555 1_555
C48 C43 1_555 1_555
H32 C48 1_555 1_555
C49 C50 1_555 1_555
C50 C51 1_555 1_555
C51 H33 1_555 1_555
C52 C51 1_555 1_555
H34 C52 1_555 1_555
C53 C52 1_555 1_555
H35 C53 1_555 1_555
C54 C49 1_555 1_555
H36 C54 1_555 1_555
C55 C56 1_555 1_555
C56 C57 1_555 1_555
C57 H37 1_555 1_555
C58 C57 1_555 1_555
H38 C58 1_555 1_555
C59 C58 1_555 1_555
H39 C59 1_555 1_555
C60 C55 1_555 1_555
H40 C60 1_555 1_555
C61 C62 1_555 1_555
C62 H41 1_555 1_555
C63 C62 1_555 1_555
H42 C63 1_555 1_555
C64 C63 1_555 1_555
C65 C64 1_555 1_555
H43 C65 1_555 1_555
C66 C61 1_555 1_555
H44 C66 1_555 1_555
C67 C68 1_555 1_555
C68 H45 1_555 1_555
C69 C68 1_555 1_555
H46 C69 1_555 1_555
C70 C69 1_555 1_555
C71 C70 1_555 1_555
H47 C71 1_555 1_555
C72 C67 1_555 1_555
H48 C72 1_555 1_555
N3 C38 1_555 1_555
N4 C50 1_555 1_555
O3 S4 1_555 1_555
O4 S4 1_555 1_555
S4 C64 1_555 1_555
S5 C37 1_555 1_555
S6 C49 1_555 1_555
C73 H49 1_555 1_555
H50 C73 1_555 1_555
H51 C73 1_555 1_555
C74 C73 1_555 1_555
C75 C74 1_555 1_555
H52 C75 1_555 1_555
H53 C75 1_555 1_555
H54 C75 1_555 1_555
O5 C74 1_555 1_555
C76 H55 1_555 1_555
H56 C76 1_555 1_555
H57 C76 1_555 1_555
C77 C76 1_555 1_555
O6 C77 1_555 1_555
C76C C77 1_555 1_555
H55C C76C 1_555 1_555
H56C C76C 1_555 1_555
H57C C76C 1_555 1_555
C5 C6 1_555 1_555
C7 S2 1_555 1_555
C8 N1 1_555 1_555
C11 C12 1_555 1_555
C17 C18 1_555 1_555
C19 S3 1_555 1_555
C20 N2 1_555 1_555
C23 C24 1_555 1_555
C25 N1 1_555 1_555
C29 C30 1_555 1_555
C31 N2 1_555 1_555
C34 S1 1_555 1_555
C35 C36 1_555 1_555
C41 C42 1_555 1_555
C43 S5 1_555 1_555
C44 N3 1_555 1_555
C47 C48 1_555 1_555
C53 C54 1_555 1_555
C55 S6 1_555 1_555
C56 N4 1_555 1_555
C59 C60 1_555 1_555
C61 N3 1_555 1_555
C65 C66 1_555 1_555
C67 N4 1_555 1_555
C70 S4 1_555 1_555
C71 C72 1_555 1_555

#END
