
#######################################################################
#
#                 Cambridge Crystallographic Data Centre
#                                CCDC 
#
#######################################################################
#
# If this CIF has been generated from an entry in the Cambridge 
# Structural Database, then it will include bibliographic, chemical, 
# crystal, experimental, refinement or atomic coordinate data resulting 
# from the CCDC's data processing and validation procedures.
#
#######################################################################

data_GORNEI
_chemical_formula_moiety         'C36 H24 N2 O2 S1,2(C1 H4 O1)'
_chemical_name_systematic        
"9,9'-(sulfonyldi-4,1-phenylene)bis-9H-carbazole methanol solvate"
_symmetry_cell_setting           monoclinic
_symmetry_space_group_name_H-M   'C 2/c'
_symmetry_Int_Tables_number      15
_space_group_name_Hall           '-C 2yn'
loop_
_symmetry_equiv_pos_site_id
_symmetry_equiv_pos_as_xyz
1 x,y,z
2 -x,y,1/2-z
3 1/2+x,1/2+y,z
4 1/2-x,1/2+y,1/2-z
5 -x,-y,-z
6 x,-y,1/2+z
7 1/2-x,1/2-y,-z
8 1/2+x,1/2-y,1/2+z
_cell_length_a                   21.8698(11)
_cell_length_b                   12.9959(6)
_cell_length_c                   10.9517(5)
_cell_angle_alpha                90
_cell_angle_beta                 109.380(4)
_cell_angle_gamma                90
_cell_volume                     2936.3
_exptl_crystal_colour            yellow
_exptl_crystal_description       block
_cell_formula_units_Z            4
loop_
_atom_site_label
_atom_site_type_symbol
_atom_site_fract_x
_atom_site_fract_y
_atom_site_fract_z
C19 C 0.5000 0.3956(13) 0.2500
O2 O 0.5181(7) 0.4404(9) 0.1413(10)
C20 C 0.5000 0.5051(12) 0.2500
O2A O 0.4819(7) 0.4404(9) 0.3587(10)
C1 C 0.28074(14) 0.3644(2) 0.4160(3)
C2 C 0.21543(14) 0.3881(2) 0.3999(3)
C3 C 0.20159(16) 0.4619(2) 0.4797(3)
H1 H 0.1580 0.4792 0.4696
C4 C 0.25258(17) 0.5096(2) 0.5740(3)
H2 H 0.2437 0.5588 0.6302
C5 C 0.31669(16) 0.4860(2) 0.5870(3)
H3 H 0.3508 0.5205 0.6511
C6 C 0.33187(15) 0.4135(2) 0.5089(3)
H4 H 0.3756 0.3979 0.5184
C7 C 0.21747(14) 0.2611(2) 0.2555(3)
C8 C 0.19433(14) 0.1830(2) 0.1645(3)
H5 H 0.2230 0.1405 0.1382
C9 C 0.12776(15) 0.1698(3) 0.1141(3)
H6 H 0.1106 0.1171 0.0520
C10 C 0.08512(15) 0.2322(3) 0.1525(3)
H7 H 0.0397 0.2217 0.1155
C11 C 0.10825(15) 0.3083(2) 0.2431(3)
H8 H 0.0791 0.3508 0.2681
C12 C 0.17561(14) 0.3228(2) 0.2983(3)
C13 C 0.33702(14) 0.2425(2) 0.3092(3)
C14 C 0.38690(14) 0.2059(2) 0.4157(3)
H9 H 0.3856 0.2168 0.5006
C15 C 0.43884(13) 0.1533(2) 0.3981(3)
H10 H 0.4731 0.1281 0.4705
C16 C 0.43983(13) 0.1381(2) 0.2735(3)
C17 C 0.39148(14) 0.1776(2) 0.1656(3)
H11 H 0.3936 0.1682 0.0811
C18 C 0.34006(14) 0.2311(2) 0.1842(3)
H12 H 0.3071 0.2599 0.1122
N1 N 0.28167(11) 0.28813(19) 0.3252(2)
O1 O 0.52943(10) 0.00211(16) 0.3682(2)
S1 S 0.5000 0.05841(7) 0.2500
C1A C 0.71926(14) 0.3644(2) 0.0840(3)
C2A C 0.78457(14) 0.3881(2) 0.1001(3)
C3A C 0.79841(16) 0.4619(2) 0.0203(3)
H1A H 0.8420 0.4792 0.0304
C4A C 0.74742(17) 0.5096(2) -0.0740(3)
H2A H 0.7563 0.5588 -0.1302
C5A C 0.68331(16) 0.4860(2) -0.0870(3)
H3A H 0.6492 0.5205 -0.1511
C6A C 0.66813(15) 0.4135(2) -0.0089(3)
H4A H 0.6244 0.3979 -0.0184
C7A C 0.78253(14) 0.2611(2) 0.2445(3)
C8A C 0.80567(14) 0.1830(2) 0.3355(3)
H5A H 0.7770 0.1405 0.3618
C9A C 0.87224(15) 0.1698(3) 0.3859(3)
H6A H 0.8894 0.1171 0.4480
C10A C 0.91488(15) 0.2322(3) 0.3475(3)
H7A H 0.9603 0.2217 0.3845
C11A C 0.89175(15) 0.3083(2) 0.2569(3)
H8A H 0.9209 0.3508 0.2319
C12A C 0.82439(14) 0.3228(2) 0.2017(3)
C13A C 0.66298(14) 0.2425(2) 0.1908(3)
C14A C 0.61310(14) 0.2059(2) 0.0843(3)
H9A H 0.6144 0.2168 -0.0006
C15A C 0.56116(13) 0.1533(2) 0.1019(3)
H10A H 0.5269 0.1281 0.0295
C16A C 0.56017(13) 0.1381(2) 0.2265(3)
C17A C 0.60852(14) 0.1776(2) 0.3344(3)
H11A H 0.6064 0.1682 0.4189
C18A C 0.65994(14) 0.2311(2) 0.3158(3)
H12A H 0.6929 0.2599 0.3878
N1A N 0.71833(11) 0.28813(19) 0.1748(2)
O1A O 0.47057(10) 0.00211(16) 0.1318(2)
O3? O 0.5129(5) 0.4781(7) 0.1281(7)
loop_
_geom_bond_atom_site_label_1
_geom_bond_atom_site_label_2
_geom_bond_site_symmetry_1
_geom_bond_site_symmetry_2
C1 C2 1_555 1_555
C2 C3 1_555 1_555
C3 H1 1_555 1_555
C4 C3 1_555 1_555
H2 C4 1_555 1_555
C5 C4 1_555 1_555
H3 C5 1_555 1_555
C6 C1 1_555 1_555
H4 C6 1_555 1_555
C7 C8 1_555 1_555
C8 H5 1_555 1_555
C9 C8 1_555 1_555
H6 C9 1_555 1_555
C10 C9 1_555 1_555
H7 C10 1_555 1_555
C11 C10 1_555 1_555
H8 C11 1_555 1_555
C12 C2 1_555 1_555
C13 C14 1_555 1_555
C14 H9 1_555 1_555
C15 C14 1_555 1_555
H10 C15 1_555 1_555
C16 C15 1_555 1_555
C17 C16 1_555 1_555
H11 C17 1_555 1_555
C18 C13 1_555 1_555
H12 C18 1_555 1_555
N1 C1 1_555 1_555
O1 S1 1_555 1_555
S1 C16 1_555 1_555
C19 O2 1_555 1_555
O2 C20 1_555 1_555
C20 C19 1_555 1_555
C1A C2A 1_555 1_555
C2A C3A 1_555 1_555
C3A H1A 1_555 1_555
C4A C3A 1_555 1_555
H2A C4A 1_555 1_555
C5A C4A 1_555 1_555
H3A C5A 1_555 1_555
C6A C1A 1_555 1_555
H4A C6A 1_555 1_555
C7A C8A 1_555 1_555
C8A H5A 1_555 1_555
C9A C8A 1_555 1_555
H6A C9A 1_555 1_555
C10A C9A 1_555 1_555
H7A C10A 1_555 1_555
C11A C10A 1_555 1_555
H8A C11A 1_555 1_555
C12A C2A 1_555 1_555
C13A C14A 1_555 1_555
C14A H9A 1_555 1_555
C15A C14A 1_555 1_555
H10A C15A 1_555 1_555
C16A S1 1_555 1_555
C17A C16A 1_555 1_555
H11A C17A 1_555 1_555
C18A C13A 1_555 1_555
H12A C18A 1_555 1_555
N1A C1A 1_555 1_555
O1A S1 1_555 1_555
O2A C19 1_555 1_555
C5 C6 1_555 1_555
C7 C12 1_555 1_555
C7 N1 1_555 1_555
C11 C12 1_555 1_555
C13 N1 1_555 1_555
C17 C18 1_555 1_555
C20 O2A 1_555 1_555
C5A C6A 1_555 1_555
C7A C12A 1_555 1_555
C7A N1A 1_555 1_555
C11A C12A 1_555 1_555
C13A N1A 1_555 1_555
C15A C16A 1_555 1_555
C17A C18A 1_555 1_555

#END
