
#######################################################################
#
#                 Cambridge Crystallographic Data Centre
#                                CCDC 
#
#######################################################################
#
# If this CIF has been generated from an entry in the Cambridge 
# Structural Database, then it will include bibliographic, chemical, 
# crystal, experimental, refinement or atomic coordinate data resulting 
# from the CCDC's data processing and validation procedures.
#
#######################################################################

data_GORQAH
_chemical_formula_moiety         'C30 H29 N1 O4 S1'
_chemical_name_systematic        
'2-Butyl-1-phenyl-4-tosyl-1,4-dihydrocyclopenta[b]indol-3-yl acetate'
_symmetry_cell_setting           triclinic
_symmetry_space_group_name_H-M   'P -1'
_symmetry_Int_Tables_number      2
_space_group_name_Hall           '-P 1'
loop_
_symmetry_equiv_pos_site_id
_symmetry_equiv_pos_as_xyz
1 x,y,z
2 -x,-y,-z
_cell_length_a                   10.4856(16)
_cell_length_b                   10.7380(16)
_cell_length_c                   12.2159(19)
_cell_angle_alpha                101.874(4)
_cell_angle_beta                 98.888(3)
_cell_angle_gamma                94.374(3)
_cell_volume                     1321.52
_exptl_crystal_colour            white
_exptl_crystal_description       prismatic
_cell_formula_units_Z            2
_exptl_crystal_recrystallization_method 'Chloroform/petroleum ether'
loop_
_atom_site_label
_atom_site_type_symbol
_atom_site_fract_x
_atom_site_fract_y
_atom_site_fract_z
S1 S 0.18411(6) 0.10992(7) 0.21486(6)
N1 N 0.30279(18) 0.17324(19) 0.16053(18)
O1 O 0.3807(2) 0.4322(2) 0.40769(18)
O2 O 0.46235(18) 0.25239(17) 0.43311(15)
O3 O 0.06680(16) 0.10912(18) 0.13933(19)
O4 O 0.1991(2) 0.1778(2) 0.32928(19)
C1 C 0.4329(2) 0.2048(2) 0.2172(2)
C2 C 0.5083(2) 0.2441(2) 0.3315(2)
C3 C 0.6347(2) 0.2642(2) 0.3251(2)
C4 C 0.6512(2) 0.2385(2) 0.2007(2)
H1 H 0.6996 0.1641 0.1851
C5 C 0.5135(2) 0.2024(2) 0.1400(2)
C6 C 0.4388(2) 0.16334(19) 0.02863(19)
C7 C 0.3084(2) 0.1440(2) 0.0418(2)
C8 C 0.2091(3) 0.1046(2) -0.0520(2)
H2 H 0.1229 0.0917 -0.0432
C9 C 0.2426(3) 0.0856(2) -0.1572(2)
H3 H 0.1778 0.0587 -0.2209
C10 C 0.3702(3) 0.1051(2) -0.1718(2)
H4 H 0.3895 0.0920 -0.2448
C11 C 0.4685(3) 0.1437(2) -0.0800(2)
H5 H 0.5541 0.1565 -0.0904
C12 C 0.3946(3) 0.3534(3) 0.4621(2)
C13 C 0.3454(4) 0.3519(4) 0.5696(3)
H6 H 0.3943 0.4185 0.6295
H7 H 0.3547 0.2704 0.5890
H8 H 0.2553 0.3658 0.5600
C14 C 0.7445(3) 0.3084(3) 0.4222(2)
H9 H 0.7088 0.3399 0.4901
H10 H 0.7965 0.3800 0.4077
C15 C 0.8330(3) 0.2086(3) 0.4459(2)
H11 H 0.7827 0.1380 0.4636
H12 H 0.8681 0.1754 0.3782
C16 C 0.9439(3) 0.2618(4) 0.5434(3)
H13 H 0.9991 0.3256 0.5214
H14 H 0.9083 0.3049 0.6079
C17 C 1.0250(5) 0.1668(5) 0.5801(4)
H15 H 0.9717 0.1025 0.6018
H16 H 1.0905 0.2085 0.6437
H17 H 1.0658 0.1273 0.5187
C18 C 0.7240(2) 0.3521(2) 0.1725(2)
C19 C 0.8579(3) 0.3650(3) 0.1885(3)
H18 H 0.9037 0.3012 0.2114
C20 C 0.9243(4) 0.4748(4) 0.1700(3)
H19 H 1.0146 0.4844 0.1815
C21 C 0.8577(5) 0.5677(4) 0.1354(4)
H20 H 0.9025 0.6403 0.1232
C22 C 0.7277(4) 0.5547(3) 0.1188(3)
H21 H 0.6827 0.6185 0.0950
C23 C 0.6602(3) 0.4476(2) 0.1367(3)
H22 H 0.5699 0.4399 0.1243
C24 C 0.2182(2) -0.0470(3) 0.2119(2)
C25 C 0.1652(2) -0.1446(3) 0.1187(2)
H23 H 0.1096 -0.1272 0.0580
C26 C 0.1955(3) -0.2663(3) 0.1169(3)
H24 H 0.1601 -0.3315 0.0544
C27 C 0.2786(3) -0.2947(3) 0.2071(3)
C28 C 0.3299(3) -0.1946(4) 0.2990(3)
H25 H 0.3854 -0.2116 0.3600
C29 C 0.3012(3) -0.0727(3) 0.3022(2)
H26 H 0.3369 -0.0072 0.3645
C30 C 0.3130(5) -0.4289(4) 0.2020(4)
H27 H 0.4030 -0.4315 0.1958
H28 H 0.2602 -0.4857 0.1370
H29 H 0.2978 -0.4551 0.2698
loop_
_geom_bond_atom_site_label_1
_geom_bond_atom_site_label_2
_geom_bond_site_symmetry_1
_geom_bond_site_symmetry_2
S1 N1 1_555 1_555
N1 C1 1_555 1_555
O1 C12 1_555 1_555
O2 C2 1_555 1_555
O3 S1 1_555 1_555
O4 S1 1_555 1_555
C1 C2 1_555 1_555
C2 C3 1_555 1_555
C3 C4 1_555 1_555
C4 H1 1_555 1_555
C5 C1 1_555 1_555
C6 C5 1_555 1_555
C7 N1 1_555 1_555
C8 C7 1_555 1_555
H2 C8 1_555 1_555
C9 C8 1_555 1_555
H3 C9 1_555 1_555
C10 C9 1_555 1_555
H4 C10 1_555 1_555
C11 C6 1_555 1_555
H5 C11 1_555 1_555
C12 O2 1_555 1_555
C13 C12 1_555 1_555
H6 C13 1_555 1_555
H7 C13 1_555 1_555
H8 C13 1_555 1_555
C14 C3 1_555 1_555
H9 C14 1_555 1_555
H10 C14 1_555 1_555
C15 C14 1_555 1_555
H11 C15 1_555 1_555
H12 C15 1_555 1_555
C16 C15 1_555 1_555
H13 C16 1_555 1_555
H14 C16 1_555 1_555
C17 C16 1_555 1_555
H15 C17 1_555 1_555
H16 C17 1_555 1_555
H17 C17 1_555 1_555
C18 C4 1_555 1_555
C19 C18 1_555 1_555
H18 C19 1_555 1_555
C20 C19 1_555 1_555
H19 C20 1_555 1_555
C21 C20 1_555 1_555
H20 C21 1_555 1_555
C22 C21 1_555 1_555
H21 C22 1_555 1_555
C23 C18 1_555 1_555
H22 C23 1_555 1_555
C24 S1 1_555 1_555
C25 C24 1_555 1_555
H23 C25 1_555 1_555
C26 C25 1_555 1_555
H24 C26 1_555 1_555
C27 C26 1_555 1_555
C28 C27 1_555 1_555
H25 C28 1_555 1_555
C29 C24 1_555 1_555
H26 C29 1_555 1_555
C30 C27 1_555 1_555
H27 C30 1_555 1_555
H28 C30 1_555 1_555
H29 C30 1_555 1_555
C4 C5 1_555 1_555
C6 C7 1_555 1_555
C10 C11 1_555 1_555
C22 C23 1_555 1_555
C28 C29 1_555 1_555

#END
