
#######################################################################
#
#                 Cambridge Crystallographic Data Centre
#                                CCDC 
#
#######################################################################
#
# If this CIF has been generated from an entry in the Cambridge 
# Structural Database, then it will include bibliographic, chemical, 
# crystal, experimental, refinement or atomic coordinate data resulting 
# from the CCDC's data processing and validation procedures.
#
#######################################################################

data_GORQOV
_chemical_name_common            
'2-butyl-4-((4-methylphenyl)sulfonyl)-1-(3,4,5-trimethoxyphenyl)-3,4-dihydrocyclopenta[b]indol-3-yl 4-bromobenzoate diethyl ether solvate'
_chemical_formula_moiety         'C38 H36 Br1 N1 O7 S1,0.5(C4 H10 O1)'
_chemical_name_systematic        
'2-Butyl-4-tosyl-1-(3,4,5-trimethoxyphenyl)-3,4-dihydrocyclopenta[b]indol-3-yl 4-bromobenzoate diethyl ether solvate'
_symmetry_cell_setting           monoclinic
_symmetry_space_group_name_H-M   'P 21/c'
_symmetry_Int_Tables_number      14
_space_group_name_Hall           '-P 2ybc'
loop_
_symmetry_equiv_pos_site_id
_symmetry_equiv_pos_as_xyz
1 x,y,z
2 -x,1/2+y,1/2-z
3 -x,-y,-z
4 x,1/2-y,1/2+z
_cell_length_a                   14.2113(16)
_cell_length_b                   24.803(3)
_cell_length_c                   11.2658(13)
_cell_angle_alpha                90
_cell_angle_beta                 107.763(2)
_cell_angle_gamma                90
_cell_volume                     3781.69
_exptl_crystal_colour            colorless
_exptl_crystal_description       prismatic
_cell_formula_units_Z            4
_exptl_crystal_recrystallization_method 
'petroleum ether/ethyl acetate/diethyl ether'
loop_
_atom_site_label
_atom_site_type_symbol
_atom_site_fract_x
_atom_site_fract_y
_atom_site_fract_z
Br1 Br 1.20960(6) 0.47589(3) 1.03350(7)
S1 S 1.22584(10) 0.11992(6) 1.13550(12)
N1 N 1.1169(3) 0.09531(15) 1.0530(3)
O1 O 0.5293(4) 0.0966(4) 0.6547(6)
O2 O 0.5715(3) 0.0927(2) 0.4232(5)
O3 O 0.7524(3) 0.11001(17) 0.4183(4)
O4 O 1.0306(2) 0.22388(12) 1.0398(3)
O5 O 1.0135(3) 0.25177(15) 1.2215(3)
O6 O 1.2030(3) 0.16239(15) 1.2066(3)
O7 O 1.2838(3) 0.07531(15) 1.1942(3)
C1 C 1.1039(4) 0.04939(19) 0.9732(4)
C2 C 1.1658(4) 0.0059(2) 0.9781(5)
H1 H 1.2278 0.0038 1.0375
C3 C 1.1319(4) -0.0340(2) 0.8918(6)
H2 H 1.1720 -0.0637 0.8926
C4 C 1.0404(4) -0.0317(2) 0.8038(6)
H3 H 1.0201 -0.0597 0.7469
C5 C 0.9785(4) 0.0113(2) 0.7986(5)
H4 H 0.9163 0.0125 0.7396
C6 C 1.0110(4) 0.05303(19) 0.8836(4)
C7 C 0.9687(3) 0.10287(18) 0.9066(4)
C8 C 1.0328(3) 0.12750(18) 1.0028(4)
C9 C 0.9849(3) 0.17286(19) 1.0483(4)
H5 H 0.9822 0.1662 1.1329
C10 C 0.8817(4) 0.1721(2) 0.9534(5)
C11 C 0.8746(3) 0.13219(19) 0.8713(5)
C12 C 0.7931(4) 0.1208(2) 0.7566(5)
C13 C 0.6979(5) 0.1125(3) 0.7584(6)
H6 H 0.6834 0.1128 0.8335
C14 C 0.6234(5) 0.1037(3) 0.6470(8)
C15 C 0.6438(5) 0.1029(2) 0.5351(7)
C16 C 0.7399(4) 0.1110(2) 0.5336(6)
C17 C 0.8131(4) 0.11883(19) 0.6437(5)
H7 H 0.8779 0.1229 0.6428
C18 C 0.4911(11) 0.0468(7) 0.6357(17)
H8 H 0.5103 0.0297 0.5702
H9 H 0.4204 0.0488 0.6125
H10 H 0.5154 0.0261 0.7109
C19 C 0.5071(6) 0.1356(4) 0.3754(9)
H11 H 0.4786 0.1479 0.4376
H12 H 0.4556 0.1238 0.3032
H13 H 0.5430 0.1646 0.3526
C20 C 0.8471(5) 0.1190(3) 0.4118(6)
H14 H 0.8710 0.1530 0.4501
H15 H 0.8458 0.1196 0.3261
H16 H 0.8901 0.0906 0.4548
C21 C 0.8065(4) 0.2142(2) 0.9559(6)
H17 H 0.7581 0.2165 0.8740
H18 H 0.8391 0.2489 0.9746
C22 C 0.7526(5) 0.2021(3) 1.0535(7)
H19 H 0.7265 0.1657 1.0405
H20 H 0.8001 0.2036 1.1361
C23 C 0.6716(7) 0.2394(4) 1.0483(10)
H21 H 0.6990 0.2752 1.0697
H22 H 0.6281 0.2407 0.9632
C24 C 0.6129(7) 0.2258(4) 1.1301(9)
H23 H 0.5674 0.1975 1.0930
H24 H 0.5768 0.2571 1.1418
H25 H 0.6558 0.2140 1.2092
C25 C 1.0383(4) 0.2603(2) 1.1296(5)
C26 C 1.0802(3) 0.31195(18) 1.1033(4)
C27 C 1.1008(4) 0.32072(19) 0.9926(4)
H26 H 1.0880 0.2940 0.9319
C28 C 1.1405(4) 0.3694(2) 0.9726(5)
H27 H 1.1563 0.3753 0.8994
C29 C 1.1565(4) 0.40881(19) 1.0616(5)
C30 C 1.1364(4) 0.4014(2) 1.1709(5)
H28 H 1.1484 0.4286 1.2304
C31 C 1.0976(4) 0.3523(2) 1.1917(4)
H29 H 1.0831 0.3464 1.2659
C32 C 1.2768(3) 0.1472(2) 1.0266(4)
C33 C 1.3391(4) 0.1161(2) 0.9817(5)
H30 H 1.3556 0.0812 1.0110
C34 C 1.3765(4) 0.1378(3) 0.8924(6)
H31 H 1.4182 0.1170 0.8613
C35 C 1.3535(4) 0.1896(3) 0.8482(6)
C36 C 1.2924(4) 0.2196(2) 0.8946(6)
H32 H 1.2767 0.2547 0.8660
C37 C 1.2532(4) 0.1988(2) 0.9838(5)
H33 H 1.2112 0.2196 1.0143
C38 C 1.3954(5) 0.2123(3) 0.7503(7)
H34 H 1.3547 0.2015 0.6691
H35 H 1.4613 0.1990 0.7643
H36 H 1.3969 0.2510 0.7555
O8 O 0.5000 0.0000 0.0000
C39 C 0.6031(8) 0.0508(5) 0.1361(12)
H37 H 0.5610 0.0274 0.1654
H38 H 0.5907 0.0876 0.1531
H39 H 0.6709 0.0421 0.1779
C40 C 0.5820(8) 0.0433(5) -0.0022(13)
H40 H 0.6371 0.0284 -0.0254
H41 H 0.5559 0.0752 -0.0508
C39B C 0.3969(8) -0.0508(5) -0.1361(12)
H37B H 0.4390 -0.0274 -0.1654
H38B H 0.4093 -0.0876 -0.1531
H39B H 0.3291 -0.0421 -0.1779
C40B C 0.4180(8) -0.0433(5) 0.0022(13)
H40B H 0.3629 -0.0284 0.0254
H41B H 0.4441 -0.0752 0.0508
loop_
_geom_bond_atom_site_label_1
_geom_bond_atom_site_label_2
_geom_bond_site_symmetry_1
_geom_bond_site_symmetry_2
Br1 C29 1_555 1_555
S1 N1 1_555 1_555
N1 C1 1_555 1_555
O1 C14 1_555 1_555
O2 C15 1_555 1_555
O3 C16 1_555 1_555
O4 C9 1_555 1_555
O5 C25 1_555 1_555
O6 S1 1_555 1_555
O7 S1 1_555 1_555
C1 C2 1_555 1_555
C2 H1 1_555 1_555
C3 C2 1_555 1_555
H2 C3 1_555 1_555
C4 C3 1_555 1_555
H3 C4 1_555 1_555
C5 C4 1_555 1_555
H4 C5 1_555 1_555
C6 C1 1_555 1_555
C7 C6 1_555 1_555
C8 N1 1_555 1_555
C9 C8 1_555 1_555
H5 C9 1_555 1_555
C10 C9 1_555 1_555
C11 C7 1_555 1_555
C12 C11 1_555 1_555
C13 C12 1_555 1_555
H6 C13 1_555 1_555
C14 C13 1_555 1_555
C15 C14 1_555 1_555
C16 C15 1_555 1_555
C17 C12 1_555 1_555
H7 C17 1_555 1_555
C18 O1 1_555 1_555
H8 C18 1_555 1_555
H9 C18 1_555 1_555
H10 C18 1_555 1_555
C19 O2 1_555 1_555
H11 C19 1_555 1_555
H12 C19 1_555 1_555
H13 C19 1_555 1_555
C20 O3 1_555 1_555
H14 C20 1_555 1_555
H15 C20 1_555 1_555
H16 C20 1_555 1_555
C21 C10 1_555 1_555
H17 C21 1_555 1_555
H18 C21 1_555 1_555
C22 C21 1_555 1_555
H19 C22 1_555 1_555
H20 C22 1_555 1_555
C23 C22 1_555 1_555
H21 C23 1_555 1_555
H22 C23 1_555 1_555
C24 C23 1_555 1_555
H23 C24 1_555 1_555
H24 C24 1_555 1_555
H25 C24 1_555 1_555
C25 O4 1_555 1_555
C26 C25 1_555 1_555
C27 C26 1_555 1_555
H26 C27 1_555 1_555
C28 C27 1_555 1_555
H27 C28 1_555 1_555
C29 C28 1_555 1_555
C30 C29 1_555 1_555
H28 C30 1_555 1_555
C31 C26 1_555 1_555
H29 C31 1_555 1_555
C32 S1 1_555 1_555
C33 C32 1_555 1_555
H30 C33 1_555 1_555
C34 C33 1_555 1_555
H31 C34 1_555 1_555
C35 C34 1_555 1_555
C36 C35 1_555 1_555
H32 C36 1_555 1_555
C37 C32 1_555 1_555
H33 C37 1_555 1_555
C38 C35 1_555 1_555
H34 C38 1_555 1_555
H35 C38 1_555 1_555
H36 C38 1_555 1_555
O8 C40 1_555 1_555
C39 H37 1_555 1_555
H38 C39 1_555 1_555
H39 C39 1_555 1_555
C40 C39 1_555 1_555
H40 C40 1_555 1_555
H41 C40 1_555 1_555
C39B H37B 1_555 1_555
H38B C39B 1_555 1_555
H39B C39B 1_555 1_555
C40B O8 1_555 1_555
H40B C40B 1_555 1_555
H41B C40B 1_555 1_555
C5 C6 1_555 1_555
C7 C8 1_555 1_555
C10 C11 1_555 1_555
C16 C17 1_555 1_555
C30 C31 1_555 1_555
C36 C37 1_555 1_555
C39B C40B 1_555 1_555

#END
