
#######################################################################
#
#                 Cambridge Crystallographic Data Centre
#                                CCDC 
#
#######################################################################
#
# If this CIF has been generated from an entry in the Cambridge 
# Structural Database, then it will include bibliographic, chemical, 
# crystal, experimental, refinement or atomic coordinate data resulting 
# from the CCDC's data processing and validation procedures.
#
#######################################################################

data_GOSFOL
_chemical_formula_moiety         'C41 H41 N7 O2 2+,C3 H6 O1,2(B1 F4 1-)'
_chemical_name_systematic        
'1-benzyl-3-(3-(((6-((3-(1-benzyl-1H-benzimidazol-3-ium-3-yl)propyl)carbamoyl)pyridin-2-yl)carbonyl)amino)propyl)-1H-3,1-benzimidazol-3-ium bis(tetrafluoroborate) acetone solvate'
_symmetry_cell_setting           triclinic
_symmetry_space_group_name_H-M   'P -1'
_symmetry_Int_Tables_number      2
_space_group_name_Hall           '-P 1'
loop_
_symmetry_equiv_pos_site_id
_symmetry_equiv_pos_as_xyz
1 x,y,z
2 -x,-y,-z
_cell_length_a                   8.6769(11)
_cell_length_b                   15.920(2)
_cell_length_c                   17.935(3)
_cell_angle_alpha                115.794(4)
_cell_angle_beta                 103.951(3)
_cell_angle_gamma                90.302(3)
_cell_volume                     2147.55
_exptl_crystal_colour            colorless
_exptl_crystal_description       block
_cell_formula_units_Z            2
loop_
_atom_site_label
_atom_site_type_symbol
_atom_site_fract_x
_atom_site_fract_y
_atom_site_fract_z
O1 O 0.4019(2) 1.17103(13) 0.97016(12)
O2 O 0.03299(18) 0.92244(11) 1.13605(10)
N1 N -0.1769(2) 0.93005(14) 0.58410(12)
N2 N 0.0682(2) 0.98701(14) 0.66314(12)
N3 N 0.3604(2) 1.01162(15) 0.90851(13)
H1 H 0.323(3) 0.9643(15) 0.9112(17)
N4 N 0.2259(2) 1.01626(13) 1.03001(11)
N5 N 0.1224(2) 0.84895(13) 1.01776(12)
H2 H 0.161(3) 0.8555(18) 0.9816(14)
N6 N 0.3331(2) 0.62200(14) 0.97608(12)
N7 N 0.3444(2) 0.52857(14) 0.84575(13)
C1 C -0.0840(3) 0.98037(17) 0.66344(15)
H3 H -0.1215 1.0078 0.7135
C2 C -0.0798(3) 0.90202(18) 0.52807(15)
C3 C -0.1168(3) 0.85045(19) 0.43873(16)
H4 H -0.2236 0.8262 0.4043
C4 C 0.0113(4) 0.8368(2) 0.40352(17)
H5 H -0.0082 0.8021 0.3429
C5 C 0.1689(3) 0.8723(2) 0.45378(17)
H6 H 0.2533 0.8601 0.4266
C6 C 0.2048(3) 0.9245(2) 0.54204(17)
H7 H 0.3114 0.9498 0.5763
C7 C 0.0756(3) 0.93797(17) 0.57807(15)
C8 C -0.3527(3) 0.90785(19) 0.56024(17)
H8 H -0.3979 0.9040 0.5025
H9 H -0.3960 0.9600 0.6014
C9 C -0.4071(3) 0.81786(19) 0.55924(16)
C10 C -0.4630(4) 0.7363(2) 0.48266(19)
H10 H -0.4612 0.7361 0.4298
C11 C -0.5211(5) 0.6556(2) 0.4828(2)
H11 H -0.5578 0.5998 0.4302
C12 C -0.5261(4) 0.6558(3) 0.5587(2)
H12 H -0.5665 0.6001 0.5586
C13 C -0.4727(4) 0.7367(2) 0.6355(2)
H13 H -0.4773 0.7369 0.6880
C14 C -0.4128(3) 0.8167(2) 0.63550(17)
H14 H -0.3749 0.8720 0.6884
C15 C 0.2051(3) 1.03008(17) 0.74040(15)
H15 H 0.1657 1.0641 0.7918
H16 H 0.2738 1.0761 0.7353
C16 C 0.3020(3) 0.95527(17) 0.75083(15)
H17 H 0.3553 0.9287 0.7039
H18 H 0.2287 0.9037 0.7453
C17 C 0.4280(3) 0.9923(2) 0.83662(15)
H19 H 0.5039 0.9455 0.8339
H20 H 0.4889 1.0508 0.8469
C18 C 0.3543(3) 1.09708(17) 0.96799(15)
C19 C 0.2795(3) 1.09899(16) 1.03683(14)
C20 C 0.2678(3) 1.18459(17) 1.10215(16)
H21 H 0.3112 1.2418 1.1062
C21 C 0.1910(3) 1.18469(18) 1.16153(16)
H22 H 0.1784 1.2424 1.2063
C22 C 0.1334(3) 1.10063(17) 1.15514(15)
H23 H 0.0794 1.0991 1.1948
C23 C 0.1559(2) 1.01806(16) 1.08942(14)
C24 C 0.0982(3) 0.92507(16) 1.08318(14)
C25 C 0.0621(3) 0.75506(16) 1.00150(15)
H24 H 0.0598 0.7099 0.9419
H25 H -0.0491 0.7551 1.0065
C26 C 0.1633(3) 0.72266(17) 1.06347(15)
H26 H 0.1087 0.6629 1.0544
H27 H 0.1701 0.7699 1.1230
C27 C 0.3321(3) 0.70784(16) 1.05450(15)
H28 H 0.3807 0.7629 1.0525
H29 H 0.3979 0.7029 1.1055
C28 C 0.3578(3) 0.61750(17) 0.90463(15)
H30 H 0.3819 0.6706 0.8964
C29 C 0.3039(3) 0.53064(16) 0.96440(16)
C30 C 0.2762(3) 0.49619(19) 1.01992(18)
H31 H 0.2703 0.5370 1.0764
C31 C 0.2577(3) 0.3999(2) 0.9887(2)
H32 H 0.2404 0.3736 1.0249
C32 C 0.2637(3) 0.33965(19) 0.9051(2)
H33 H 0.2494 0.2736 0.8860
C33 C 0.2897(3) 0.37345(18) 0.84960(19)
H34 H 0.2928 0.3326 0.7927
C34 C 0.3111(3) 0.47120(17) 0.88190(16)
C35 C 0.3607(3) 0.49682(19) 0.75734(16)
H35 H 0.3194 0.5424 0.7359
H36 H 0.2948 0.4352 0.7190
C36 C 0.5321(3) 0.48778(19) 0.75379(16)
C37 C 0.6215(4) 0.5591(2) 0.7522(2)
H37 H 0.5741 0.6131 0.7531
C38 C 0.7783(4) 0.5524(2) 0.7491(3)
H38 H 0.8386 0.6020 0.7485
C39 C 0.8476(4) 0.4744(2) 0.7470(3)
H39 H 0.9560 0.4703 0.7453
C40 C 0.7609(4) 0.4022(2) 0.7472(2)
H40 H 0.8089 0.3481 0.7453
C41 C 0.6024(3) 0.40850(19) 0.75030(17)
H41 H 0.5420 0.3583 0.7500
B1 B 0.4331(4) 0.8556(2) 0.29147(18)
F1 F 0.40730(19) 0.92115(12) 0.26022(10)
F2 F 0.5361(2) 0.79551(11) 0.25371(12)
F3 F 0.2859(2) 0.80593(14) 0.27452(11)
F4 F 0.4984(2) 0.89980(12) 0.37946(10)
B2 B 0.1982(4) 0.7406(2) 0.7905(2)
F5 F 0.0958(2) 0.77018(12) 0.73729(11)
F6 F 0.3270(2) 0.70716(12) 0.75914(13)
F7 F 0.11544(18) 0.66829(11) 0.79520(10)
F8 F 0.2532(2) 0.81385(12) 0.87121(10)
O3 O 0.8683(10) 0.5901(7) 0.4190(4)
C42 C 0.9314(12) 0.6236(8) 0.4938(5)
C43 C 0.8707(13) 0.5956(9) 0.5524(8)
H42 H 0.7885 0.5410 0.5180
H43 H 0.8246 0.6481 0.5903
H44 H 0.9595 0.5795 0.5873
C44 C 1.0735(13) 0.6971(7) 0.5370(6)
H45 H 1.0995 0.7144 0.4948
H46 H 1.1650 0.6725 0.5613
H47 H 1.0493 0.7527 0.5831
O4? O 0.8051(9) 0.5312(6) 0.4324(4)
C45? C 0.8802(12) 0.5880(7) 0.5024(5)
C46? C 0.9989(16) 0.6665(8) 0.5172(7)
H48? H 1.1055 0.6601 0.5469
H49? H 0.9673 0.7270 0.5525
H50? H 1.0013 0.6635 0.4617
C47? C 0.8720(13) 0.5826(8) 0.5829(6)
H51? H 0.7887 0.5320 0.5685
H52? H 0.8464 0.6425 0.6231
H53? H 0.9756 0.5697 0.6097
loop_
_geom_bond_atom_site_label_1
_geom_bond_atom_site_label_2
_geom_bond_site_symmetry_1
_geom_bond_site_symmetry_2
O1 C18 1_555 1_555
O2 C24 1_555 1_555
N1 C1 1_555 1_555
N2 C1 1_555 1_555
N3 H1 1_555 1_555
N4 C19 1_555 1_555
N5 H2 1_555 1_555
N6 C27 1_555 1_555
N7 C28 1_555 1_555
C1 H3 1_555 1_555
C2 N1 1_555 1_555
C3 C2 1_555 1_555
H4 C3 1_555 1_555
C4 C3 1_555 1_555
H5 C4 1_555 1_555
C5 C4 1_555 1_555
H6 C5 1_555 1_555
C6 C5 1_555 1_555
H7 C6 1_555 1_555
C7 N2 1_555 1_555
C8 N1 1_555 1_555
H8 C8 1_555 1_555
H9 C8 1_555 1_555
C9 C8 1_555 1_555
C10 C9 1_555 1_555
H10 C10 1_555 1_555
C11 C10 1_555 1_555
H11 C11 1_555 1_555
C12 C11 1_555 1_555
H12 C12 1_555 1_555
C13 C12 1_555 1_555
H13 C13 1_555 1_555
C14 C9 1_555 1_555
H14 C14 1_555 1_555
C15 N2 1_555 1_555
H15 C15 1_555 1_555
H16 C15 1_555 1_555
C16 C15 1_555 1_555
H17 C16 1_555 1_555
H18 C16 1_555 1_555
C17 N3 1_555 1_555
H19 C17 1_555 1_555
H20 C17 1_555 1_555
C18 N3 1_555 1_555
C19 C18 1_555 1_555
C20 C19 1_555 1_555
H21 C20 1_555 1_555
C21 C20 1_555 1_555
H22 C21 1_555 1_555
C22 C21 1_555 1_555
H23 C22 1_555 1_555
C23 N4 1_555 1_555
C24 N5 1_555 1_555
C25 N5 1_555 1_555
H24 C25 1_555 1_555
H25 C25 1_555 1_555
C26 C25 1_555 1_555
H26 C26 1_555 1_555
H27 C26 1_555 1_555
C27 C26 1_555 1_555
H28 C27 1_555 1_555
H29 C27 1_555 1_555
C28 N6 1_555 1_555
H30 C28 1_555 1_555
C29 N6 1_555 1_555
C30 C29 1_555 1_555
H31 C30 1_555 1_555
C31 C30 1_555 1_555
H32 C31 1_555 1_555
C32 C31 1_555 1_555
H33 C32 1_555 1_555
C33 C32 1_555 1_555
H34 C33 1_555 1_555
C34 N7 1_555 1_555
C35 N7 1_555 1_555
H35 C35 1_555 1_555
H36 C35 1_555 1_555
C36 C35 1_555 1_555
C37 C36 1_555 1_555
H37 C37 1_555 1_555
C38 C37 1_555 1_555
H38 C38 1_555 1_555
C39 C38 1_555 1_555
H39 C39 1_555 1_555
C40 C39 1_555 1_555
H40 C40 1_555 1_555
C41 C36 1_555 1_555
H41 C41 1_555 1_555
B1 F1 1_555 1_555
F2 B1 1_555 1_555
F3 B1 1_555 1_555
F4 B1 1_555 1_555
B2 F5 1_555 1_555
F6 B2 1_555 1_555
F7 B2 1_555 1_555
F8 B2 1_555 1_555
O3 C42 1_555 1_555
C42 C43 1_555 1_555
C43 H42 1_555 1_555
H43 C43 1_555 1_555
H44 C43 1_555 1_555
C44 C42 1_555 1_555
H45 C44 1_555 1_555
H46 C44 1_555 1_555
H47 C44 1_555 1_555
C2 C7 1_555 1_555
C6 C7 1_555 1_555
C13 C14 1_555 1_555
C16 C17 1_555 1_555
C22 C23 1_555 1_555
C23 C24 1_555 1_555
C29 C34 1_555 1_555
C33 C34 1_555 1_555
C40 C41 1_555 1_555

#END
