
#######################################################################
#
#                 Cambridge Crystallographic Data Centre
#                                CCDC 
#
#######################################################################
#
# If this CIF has been generated from an entry in the Cambridge 
# Structural Database, then it will include bibliographic, chemical, 
# crystal, experimental, refinement or atomic coordinate data resulting 
# from the CCDC's data processing and validation procedures.
#
#######################################################################

data_GOSKAC
_chemical_formula_moiety         'C28 H60 N1 1+,2(H2 O1),Br1 1-'
_chemical_name_systematic        'tetraheptylammonium bromide dihydrate'
_symmetry_cell_setting           tetragonal
_symmetry_space_group_name_H-M   'I -4'
_symmetry_Int_Tables_number      82
_space_group_name_Hall           'I -4'
loop_
_symmetry_equiv_pos_site_id
_symmetry_equiv_pos_as_xyz
1 x,y,z
2 -x,-y,z
3 y,-x,-z
4 -y,x,-z
5 1/2+x,1/2+y,1/2+z
6 1/2-x,1/2-y,1/2+z
7 1/2+y,1/2-x,1/2-z
8 1/2-y,1/2+x,1/2-z
_cell_length_a                   6.9603(5)
_cell_length_b                   6.9603(5)
_cell_length_c                   31.454(7)
_cell_angle_alpha                90
_cell_angle_beta                 90
_cell_angle_gamma                90
_cell_volume                     1523.81
_chemical_melting_point          '360-362 K'
_cell_formula_units_Z            2
loop_
_atom_site_label
_atom_site_type_symbol
_atom_site_fract_x
_atom_site_fract_y
_atom_site_fract_z
Br1 Br 0.5000 1.0000 0.2500
N1 N 1.0000 1.5000 0.2500
C1 C 0.703(3) 0.812(3) 0.0685(5)
H1 H 0.5965 0.7372 0.0811
H2 H 0.6490 0.9270 0.0542
C2 C 0.825(3) 1.059(4) 0.1230(9)
H3 H 0.7990 1.1291 0.0962
H4 H 0.9617 1.0887 0.1289
C3 C 0.811(3) 0.697(4) 0.0390(5)
H5 H 0.7260 0.6540 0.0160
H6 H 0.9158 0.7736 0.0271
H7 H 0.8636 0.5851 0.0538
C4 C 1.003(4) 1.321(2) 0.2232(4)
H8 H 0.9803 1.2063 0.2410
H9 H 1.1287 1.3074 0.2088
C5 C 0.835(4) 1.345(4) 0.1890(7)
H10 H 0.7258 1.3901 0.2064
H11 H 0.8768 1.4589 0.1725
C6 C 0.856(3) 0.873(4) 0.1042(10)
H12 H 0.8538 0.7757 0.1271
H13 H 0.9859 0.8713 0.0914
C7 C 0.735(11) 1.216(9) 0.154(2)
H14 H 0.6684 1.3074 0.1354
H15 H 0.6330 1.1463 0.1698
C1A C 1.297(3) 2.188(3) 0.0685(5)
H1A H 1.4035 2.2628 0.0811
H2A H 1.3510 2.0730 0.0542
C2A C 1.175(3) 1.941(4) 0.1230(9)
H3A H 1.2010 1.8709 0.0962
H4A H 1.0383 1.9113 0.1289
C3A C 1.189(3) 2.303(4) 0.0390(5)
H5A H 1.2740 2.3460 0.0160
H6A H 1.0842 2.2264 0.0271
H7A H 1.1364 2.4149 0.0538
C4A C 0.997(4) 1.679(2) 0.2232(4)
H8A H 1.0197 1.7937 0.2410
H9A H 0.8713 1.6926 0.2088
C5A C 1.165(4) 1.655(4) 0.1890(7)
H10A H 1.2742 1.6099 0.2064
H11A H 1.1232 1.5411 0.1725
C6A C 1.144(3) 2.127(4) 0.1042(10)
H12A H 1.1462 2.2243 0.1271
H13A H 1.0141 2.1287 0.0914
C7A C 1.265(11) 1.784(9) 0.154(2)
H14A H 1.3316 1.6926 0.1354
H15A H 1.3670 1.8537 0.1698
C1F C 0.312(3) 1.797(3) 0.4315(5)
H1F H 0.2372 1.9035 0.4189
H2F H 0.4270 1.8510 0.4458
C2F C 0.559(4) 1.675(3) 0.3770(9)
H3F H 0.6291 1.7010 0.4038
H4F H 0.5887 1.5383 0.3711
C3F C 0.197(4) 1.689(3) 0.4610(5)
H5F H 0.1540 1.7740 0.4840
H6F H 0.2736 1.5842 0.4729
H7F H 0.0851 1.6364 0.4462
C4F C 0.821(2) 1.497(4) 0.2768(4)
H8F H 0.7063 1.5197 0.2590
H9F H 0.8074 1.3713 0.2912
C5F C 0.845(4) 1.665(4) 0.3110(7)
H10F H 0.8901 1.7742 0.2936
H11F H 0.9589 1.6232 0.3275
C6F C 0.373(4) 1.644(3) 0.3958(10)
H12F H 0.2757 1.6462 0.3729
H13F H 0.3713 1.5141 0.4086
C7F C 0.716(9) 1.765(11) 0.346(2)
H14F H 0.8074 1.8316 0.3646
H15F H 0.6463 1.8670 0.3302
C1G C 1.688(3) 1.203(3) 0.4315(5)
H1G H 1.7628 1.0965 0.4189
H2G H 1.5730 1.1490 0.4458
C2G C 1.441(4) 1.325(3) 0.3770(9)
H3G H 1.3709 1.2990 0.4038
H4G H 1.4113 1.4617 0.3711
C3G C 1.803(4) 1.311(3) 0.4610(5)
H5G H 1.8460 1.2260 0.4840
H6G H 1.7264 1.4158 0.4729
H7G H 1.9149 1.3636 0.4462
C4G C 1.179(2) 1.503(4) 0.2768(4)
H8G H 1.2937 1.4803 0.2590
H9G H 1.1926 1.6287 0.2912
C5G C 1.155(4) 1.335(4) 0.3110(7)
H10G H 1.1099 1.2258 0.2936
H11G H 1.0411 1.3768 0.3275
C6G C 1.627(4) 1.356(3) 0.3958(10)
H12G H 1.7243 1.3538 0.3729
H13G H 1.6287 1.4859 0.4086
C7G C 1.284(9) 1.235(11) 0.346(2)
H14G H 1.1926 1.1684 0.3646
H15G H 1.3537 1.1330 0.3302
O1 O 0.411(3) 0.502(4) 0.1638(6)
loop_
_geom_bond_atom_site_label_1
_geom_bond_atom_site_label_2
_geom_bond_site_symmetry_1
_geom_bond_site_symmetry_2
N1 C4 1_555 1_555
C1 H1 1_555 1_555
H2 C1 1_555 1_555
C2 H3 1_555 1_555
H4 C2 1_555 1_555
C3 C1 1_555 1_555
H5 C3 1_555 1_555
H6 C3 1_555 1_555
H7 C3 1_555 1_555
C4 H8 1_555 1_555
H9 C4 1_555 1_555
C5 C4 1_555 1_555
H10 C5 1_555 1_555
H11 C5 1_555 1_555
C6 C1 1_555 1_555
H12 C6 1_555 1_555
H13 C6 1_555 1_555
C7 C2 1_555 1_555
H14 C7 1_555 1_555
H15 C7 1_555 1_555
C1A H1A 1_555 1_555
H2A C1A 1_555 1_555
C2A H3A 1_555 1_555
H4A C2A 1_555 1_555
C3A C1A 1_555 1_555
H5A C3A 1_555 1_555
H6A C3A 1_555 1_555
H7A C3A 1_555 1_555
C4A N1 1_555 1_555
H8A C4A 1_555 1_555
H9A C4A 1_555 1_555
C5A C4A 1_555 1_555
H10A C5A 1_555 1_555
H11A C5A 1_555 1_555
C6A C1A 1_555 1_555
H12A C6A 1_555 1_555
H13A C6A 1_555 1_555
C7A C2A 1_555 1_555
H14A C7A 1_555 1_555
H15A C7A 1_555 1_555
C1F H1F 1_555 1_555
H2F C1F 1_555 1_555
C2F H3F 1_555 1_555
H4F C2F 1_555 1_555
C3F C1F 1_555 1_555
H5F C3F 1_555 1_555
H6F C3F 1_555 1_555
H7F C3F 1_555 1_555
C4F N1 1_555 1_555
H8F C4F 1_555 1_555
H9F C4F 1_555 1_555
C5F C4F 1_555 1_555
H10F C5F 1_555 1_555
H11F C5F 1_555 1_555
C6F C1F 1_555 1_555
H12F C6F 1_555 1_555
H13F C6F 1_555 1_555
C7F C2F 1_555 1_555
H14F C7F 1_555 1_555
H15F C7F 1_555 1_555
C1G H1G 1_555 1_555
H2G C1G 1_555 1_555
C2G H3G 1_555 1_555
H4G C2G 1_555 1_555
C3G C1G 1_555 1_555
H5G C3G 1_555 1_555
H6G C3G 1_555 1_555
H7G C3G 1_555 1_555
C4G N1 1_555 1_555
H8G C4G 1_555 1_555
H9G C4G 1_555 1_555
C5G C4G 1_555 1_555
H10G C5G 1_555 1_555
H11G C5G 1_555 1_555
C6G C1G 1_555 1_555
H12G C6G 1_555 1_555
H13G C6G 1_555 1_555
C7G C2G 1_555 1_555
H14G C7G 1_555 1_555
H15G C7G 1_555 1_555
C2 C6 1_555 1_555
C5 C7 1_555 1_555
C2A C6A 1_555 1_555
C5A C7A 1_555 1_555
C2F C6F 1_555 1_555
C5F C7F 1_555 1_555
C2G C6G 1_555 1_555
C5G C7G 1_555 1_555

#END
