
#######################################################################
#
#                 Cambridge Crystallographic Data Centre
#                                CCDC 
#
#######################################################################
#
# If this CIF has been generated from an entry in the Cambridge 
# Structural Database, then it will include bibliographic, chemical, 
# crystal, experimental, refinement or atomic coordinate data resulting 
# from the CCDC's data processing and validation procedures.
#
#######################################################################

data_GOTDIC
_chemical_formula_moiety         'C18 H41 Li1 N2 Si2'
_chemical_name_systematic        
(\h^3^-1,3-bis(Trimethylsilyl)cyclohexene)-(N,N,N',N'-tetramethylethanediamine)-lithium
_symmetry_cell_setting           orthorhombic
_symmetry_space_group_name_H-M   'P n a 21'
_symmetry_Int_Tables_number      33
_space_group_name_Hall           'P 2c -2n'
loop_
_symmetry_equiv_pos_site_id
_symmetry_equiv_pos_as_xyz
1 x,y,z
2 -x,-y,1/2+z
3 1/2+x,1/2-y,z
4 1/2-x,1/2+y,1/2+z
_cell_length_a                   19.325(4)
_cell_length_b                   8.660(2)
_cell_length_c                   14.750(3)
_cell_angle_alpha                90
_cell_angle_beta                 90
_cell_angle_gamma                90
_cell_volume                     2468.48
_exptl_crystal_colour            yellow
_exptl_crystal_description       prism
_cell_formula_units_Z            4
_chemical_properties_physical    air-sensitive
loop_
_atom_site_label
_atom_site_type_symbol
_atom_site_fract_x
_atom_site_fract_y
_atom_site_fract_z
C1 C -0.12928(17) 0.0684(3) 0.6153(3)
H1 H -0.1111 0.0167 0.5612
Li1 Li -0.1314(4) 0.3152(6) 0.6075(5)
C2 C -0.20182(16) 0.0880(4) 0.6164(2)
C3 C -0.2302(2) 0.1228(5) 0.7119(3)
H2 H -0.2376 0.2333 0.7171
H3 H -0.2748 0.0728 0.7183
C4 C -0.1857(2) 0.0730(5) 0.7864(3)
H4 H -0.1878 -0.0387 0.7905
H5 H -0.2041 0.1146 0.8425
C5 C -0.1119(2) 0.1204(5) 0.7779(3)
H6 H -0.0847 0.0637 0.8221
H7 H -0.1080 0.2294 0.7924
C6 C -0.08137(18) 0.0925(4) 0.6831(3)
Si1 Si 0.00959(5) 0.05323(14) 0.67744(10)
C7 C 0.0370(2) -0.1082(5) 0.7530(4)
H8 H 0.0857 -0.1257 0.7460
H9 H 0.0121 -0.2002 0.7370
H10 H 0.0272 -0.0817 0.8149
C8 C 0.06175(16) 0.2253(5) 0.7135(3)
H11 H 0.1101 0.2026 0.7072
H12 H 0.0517 0.2493 0.7756
H13 H 0.0501 0.3121 0.6760
C9 C 0.03579(18) -0.0040(5) 0.5596(3)
H14 H 0.0848 -0.0224 0.5580
H15 H 0.0243 0.0775 0.5182
H16 H 0.0117 -0.0964 0.5425
Si2 Si -0.25937(5) 0.04638(14) 0.52314(9)
C10 C -0.32651(17) -0.1047(4) 0.5497(4)
H17 H -0.3550 -0.1217 0.4974
H18 H -0.3548 -0.0701 0.5992
H19 H -0.3039 -0.1994 0.5662
C11 C -0.2105(2) -0.0321(5) 0.4226(3)
H20 H -0.2424 -0.0533 0.3742
H21 H -0.1872 -0.1256 0.4396
H22 H -0.1771 0.0427 0.4028
C12 C -0.31082(18) 0.2187(4) 0.4872(3)
H23 H -0.3403 0.1910 0.4374
H24 H -0.2800 0.2997 0.4687
H25 H -0.3386 0.2539 0.5370
C13 C -0.1143(3) 0.5621(5) 0.7499(3)
H26 H -0.1329 0.4933 0.7947
H27 H -0.1216 0.6669 0.7687
H28 H -0.0656 0.5434 0.7432
C14 C -0.2220(3) 0.5672(5) 0.6742(5)
H29 H -0.2414 0.4986 0.7185
H30 H -0.2445 0.5513 0.6169
H31 H -0.2286 0.6721 0.6933
N1 N -0.1483(2) 0.5361(4) 0.6647(2)
C15 C -0.1462(4) 0.6436(10) 0.5838(6)
H32 H -0.1431 0.7501 0.6039
H33 H -0.1878 0.6319 0.5477
C16 C -0.0802(3) 0.5994(6) 0.5257(5)
H34 H -0.0752 0.6696 0.4749
H35 H -0.0388 0.6054 0.5627
N2 N -0.09100(18) 0.4361(3) 0.4923(2)
C17 C -0.1288(2) 0.4042(6) 0.4085(3)
H36 H -0.1248 0.2965 0.3939
H37 H -0.1096 0.4648 0.3601
H38 H -0.1766 0.4304 0.4164
C18 C -0.01823(17) 0.4071(5) 0.4729(3)
H39 H -0.0122 0.3009 0.4560
H40 H 0.0089 0.4288 0.5259
H41 H -0.0034 0.4725 0.4240
C19? C -0.10152(17) 0.6379(5) 0.6040(3)
H42? H -0.0531 0.6155 0.6156
H43? H -0.1097 0.7464 0.6163
C20? C -0.1206(4) 0.5986(7) 0.5017(5)
H44? H -0.1702 0.5998 0.4920
H45? H -0.0987 0.6700 0.4598
loop_
_geom_bond_atom_site_label_1
_geom_bond_atom_site_label_2
_geom_bond_site_symmetry_1
_geom_bond_site_symmetry_2
C1 H1 1_555 1_555
Li1 C1 1_555 1_555
C2 C1 1_555 1_555
C3 C2 1_555 1_555
H2 C3 1_555 1_555
H3 C3 1_555 1_555
C4 C3 1_555 1_555
H4 C4 1_555 1_555
H5 C4 1_555 1_555
C5 C4 1_555 1_555
H6 C5 1_555 1_555
H7 C5 1_555 1_555
C6 C1 1_555 1_555
Si1 C6 1_555 1_555
C7 Si1 1_555 1_555
H8 C7 1_555 1_555
H9 C7 1_555 1_555
H10 C7 1_555 1_555
C8 Si1 1_555 1_555
H11 C8 1_555 1_555
H12 C8 1_555 1_555
H13 C8 1_555 1_555
C9 Si1 1_555 1_555
H14 C9 1_555 1_555
H15 C9 1_555 1_555
H16 C9 1_555 1_555
Si2 C2 1_555 1_555
C10 Si2 1_555 1_555
H17 C10 1_555 1_555
H18 C10 1_555 1_555
H19 C10 1_555 1_555
C11 Si2 1_555 1_555
H20 C11 1_555 1_555
H21 C11 1_555 1_555
H22 C11 1_555 1_555
C12 Si2 1_555 1_555
H23 C12 1_555 1_555
H24 C12 1_555 1_555
H25 C12 1_555 1_555
C13 H26 1_555 1_555
H27 C13 1_555 1_555
H28 C13 1_555 1_555
C14 H29 1_555 1_555
H30 C14 1_555 1_555
H31 C14 1_555 1_555
N1 Li1 1_555 1_555
C15 N1 1_555 1_555
H32 C15 1_555 1_555
H33 C15 1_555 1_555
C16 C15 1_555 1_555
H34 C16 1_555 1_555
H35 C16 1_555 1_555
N2 Li1 1_555 1_555
C17 N2 1_555 1_555
H36 C17 1_555 1_555
H37 C17 1_555 1_555
H38 C17 1_555 1_555
C18 N2 1_555 1_555
H39 C18 1_555 1_555
H40 C18 1_555 1_555
H41 C18 1_555 1_555
Li1 C2 1_555 1_555
Li1 C6 1_555 1_555
C5 C6 1_555 1_555
C13 N1 1_555 1_555
C14 N1 1_555 1_555
C16 N2 1_555 1_555

#END
