
#######################################################################
#
#                 Cambridge Crystallographic Data Centre
#                                CCDC 
#
#######################################################################
#
# If this CIF has been generated from an entry in the Cambridge 
# Structural Database, then it will include bibliographic, chemical, 
# crystal, experimental, refinement or atomic coordinate data resulting 
# from the CCDC's data processing and validation procedures.
#
#######################################################################

data_GOTMIL
_chemical_formula_moiety         'C20 H16 N6 O2,2(C6 H5 Cl1)'
_chemical_name_systematic        
"2,2'-Diamino-4,4'-diphenoxy-5,5'-bipyrimidine chlorobenzene solvate"
_symmetry_cell_setting           monoclinic
_symmetry_space_group_name_H-M   'P 21/c'
_symmetry_Int_Tables_number      14
_space_group_name_Hall           '-P 2ybc'
loop_
_symmetry_equiv_pos_site_id
_symmetry_equiv_pos_as_xyz
1 x,y,z
2 x,1/2-y,1/2+z
3 -x,-y,-z
4 -x,1/2+y,1/2-z
_cell_length_a                   9.935(1)
_cell_length_b                   13.859(2)
_cell_length_c                   21.630(2)
_cell_angle_alpha                90
_cell_angle_beta                 92.30(1)
_cell_angle_gamma                90
_cell_volume                     2975.82
_exptl_crystal_colour            colorless
_exptl_crystal_description       needle
_cell_formula_units_Z            4
loop_
_atom_site_label
_atom_site_type_symbol
_atom_site_fract_x
_atom_site_fract_y
_atom_site_fract_z
C1 C 0.6509(6) 0.5102(5) 0.3170(3)
C2 C 0.6742(7) 0.6020(6) 0.3372(3)
C3 C 0.6808(8) 0.6198(7) 0.3993(4)
C4 C 0.6641(9) 0.5480(7) 0.4406(4)
C5 C 0.6380(8) 0.4561(7) 0.4205(4)
C6 C 0.6343(7) 0.4362(6) 0.3578(3)
O1 O 0.6584(4) 0.4928(4) 0.2532(2)
C7 C 0.5563(6) 0.4481(5) 0.2208(3)
N1 N 0.4375(5) 0.4418(4) 0.2454(2)
C8 C 0.3385(6) 0.4048(6) 0.2078(3)
N2 N 0.3496(5) 0.3750(4) 0.1497(2)
C9 C 0.4736(6) 0.3816(6) 0.1286(3)
C10 C 0.5849(6) 0.4168(5) 0.1615(3)
N3 N 0.2155(6) 0.3963(6) 0.2317(3)
C11 C 0.7200(6) 0.4207(5) 0.1363(3)
C12 C 0.7485(6) 0.4644(5) 0.0812(3)
N4 N 0.8695(5) 0.4683(4) 0.0561(2)
C13 C 0.9700(6) 0.4269(5) 0.0898(3)
N5 N 0.9566(5) 0.3803(4) 0.1445(2)
C14 C 0.8339(6) 0.3772(5) 0.1654(3)
N6 N 1.0926(5) 0.4318(5) 0.0685(2)
O2 O 0.8107(4) 0.3298(4) 0.2184(2)
C15 C 0.9081(6) 0.2708(5) 0.2474(3)
C16 C 0.9542(7) 0.1898(6) 0.2190(3)
C17 C 1.0357(8) 0.1278(6) 0.2526(4)
C18 C 1.0729(8) 0.1463(7) 0.3119(4)
C19 C 1.0257(8) 0.2273(7) 0.3401(4)
C20 C 0.9423(7) 0.2911(6) 0.3071(3)
H1 H 0.212(6) 0.417(5) 0.265(3)
H2 H 0.145(8) 0.385(7) 0.209(4)
H3 H 1.113(6) 0.461(5) 0.037(3)
H4 H 1.155(5) 0.404(4) 0.087(2)
H5 H 0.6858 0.6529 0.3084
H6 H 0.6973 0.6836 0.4138
H7 H 0.6705 0.5614 0.4837
H8 H 0.6225 0.4061 0.4494
H9 H 0.6204 0.3721 0.3432
H10 H 0.4863 0.3603 0.0875
H11 H 0.6756 0.4946 0.0589
H12 H 0.9301 0.1768 0.1769
H13 H 1.0667 0.0706 0.2336
H14 H 1.1315 0.1034 0.3341
H15 H 1.0501 0.2399 0.3823
H16 H 0.9098 0.3478 0.3261
C21 C 0.5374(9) 0.8064(7) 0.5947(4)
C22 C 0.420(1) 0.8440(9) 0.5727(6)
C23 C 0.324(1) 0.866(1) 0.6122(8)
C24 C 0.341(1) 0.8532(8) 0.6718(6)
C25 C 0.463(1) 0.8150(8) 0.6950(5)
C26 C 0.5630(9) 0.7904(8) 0.6550(4)
Cl1 Cl 0.6628(4) 0.7779(3) 0.5433(2)
H17 H 0.4050 0.8547 0.5295
H18 H 0.2415 0.8921 0.5963
H19 H 0.2712 0.8694 0.6988
H20 H 0.4774 0.8059 0.7383
H21 H 0.6461 0.7634 0.6698
C27 C 1.111(1) 0.6368(8) 0.4496(4)
C28 C 1.073(1) 0.5478(8) 0.4300(4)
C29 C 1.160(1) 0.480(1) 0.3939(4)
C30 C 1.277(1) 0.533(1) 0.3831(5)
C31 C 1.299(1) 0.628(1) 0.4137(5)
C32 C 1.215(1) 0.699(1) 0.4485(7)
Cl2 Cl 0.9999(6) 0.7005(4) 0.4932(2)
H22 H 0.9852 0.5263 0.4396
H23 H 1.1394 0.4163 0.3812
H24 H 1.3420 0.5073 0.3564
H25 H 1.3893 0.6501 0.4104
H26 H 1.2298 0.7625 0.4637
loop_
_geom_bond_atom_site_label_1
_geom_bond_atom_site_label_2
_geom_bond_site_symmetry_1
_geom_bond_site_symmetry_2
C1 C2 1_555 1_555
C2 C3 1_555 1_555
C3 C4 1_555 1_555
C4 C5 1_555 1_555
C5 C6 1_555 1_555
C6 C1 1_555 1_555
O1 C1 1_555 1_555
C7 O1 1_555 1_555
N1 C7 1_555 1_555
C8 N1 1_555 1_555
N2 C8 1_555 1_555
C9 N2 1_555 1_555
C10 C7 1_555 1_555
N3 C8 1_555 1_555
C11 C10 1_555 1_555
C12 C11 1_555 1_555
N4 C12 1_555 1_555
C13 N4 1_555 1_555
N5 C13 1_555 1_555
C14 C11 1_555 1_555
N6 C13 1_555 1_555
O2 C14 1_555 1_555
C15 O2 1_555 1_555
C16 C15 1_555 1_555
C17 C16 1_555 1_555
C18 C17 1_555 1_555
C19 C18 1_555 1_555
C20 C15 1_555 1_555
C21 C22 1_555 1_555
C22 C23 1_555 1_555
C23 C24 1_555 1_555
C24 C25 1_555 1_555
C25 C26 1_555 1_555
C26 C21 1_555 1_555
Cl1 C21 1_555 1_555
C27 C28 1_555 1_555
C28 C29 1_555 1_555
C29 C30 1_555 1_555
C30 C31 1_555 1_555
C31 C32 1_555 1_555
C32 C27 1_555 1_555
Cl2 C27 1_555 1_555
H1 N3 1_555 1_555
H2 N3 1_555 1_555
H3 N6 1_555 1_555
H4 N6 1_555 1_555
H5 C2 1_555 1_555
H6 C3 1_555 1_555
H7 C4 1_555 1_555
H8 C5 1_555 1_555
H9 C6 1_555 1_555
H10 C9 1_555 1_555
H11 C12 1_555 1_555
H12 C16 1_555 1_555
H13 C17 1_555 1_555
H14 C18 1_555 1_555
H15 C19 1_555 1_555
H16 C20 1_555 1_555
H17 C22 1_555 1_555
H18 C23 1_555 1_555
H19 C24 1_555 1_555
H20 C25 1_555 1_555
H21 C26 1_555 1_555
H22 C28 1_555 1_555
H23 C29 1_555 1_555
H24 C30 1_555 1_555
H25 C31 1_555 1_555
H26 C32 1_555 1_555
C9 C10 1_555 1_555
N5 C14 1_555 1_555
C19 C20 1_555 1_555

#END
