
#######################################################################
#
#                 Cambridge Crystallographic Data Centre
#                                CCDC 
#
#######################################################################
#
# If this CIF has been generated from an entry in the Cambridge 
# Structural Database, then it will include bibliographic, chemical, 
# crystal, experimental, refinement or atomic coordinate data resulting 
# from the CCDC's data processing and validation procedures.
#
#######################################################################

data_GOTMEJ
_chemical_formula_moiety         'C18 H16 N2 O4'
_chemical_name_systematic        1,2-bis(4-cyanato-3-methoxyphenyl)ethane
_symmetry_cell_setting           monoclinic
_symmetry_space_group_name_H-M   'P 21/c'
_symmetry_Int_Tables_number      14
_space_group_name_Hall           '-P 2ybc'
loop_
_symmetry_equiv_pos_site_id
_symmetry_equiv_pos_as_xyz
1 x,y,z
2 -x,1/2+y,1/2-z
3 -x,-y,-z
4 x,1/2-y,1/2+z
_cell_length_a                   4.4010(3)
_cell_length_b                   12.3035(9)
_cell_length_c                   14.8314(11)
_cell_angle_alpha                90
_cell_angle_beta                 97.5930(10)
_cell_angle_gamma                90
_cell_volume                     796.045
_cell_formula_units_Z            2
loop_
_atom_site_label
_atom_site_type_symbol
_atom_site_fract_x
_atom_site_fract_y
_atom_site_fract_z
O1 O 0.5097(3) 0.22252(9) 0.78085(8)
O2 O 0.7308(3) 0.13433(8) 0.64666(8)
N1 N 0.2845(4) 0.28935(14) 0.90921(11)
C1 C 0.3943(4) 0.26189(13) 0.84860(11)
C2 C 0.6558(3) 0.29462(12) 0.72454(10)
C3 C 0.7713(3) 0.24374(12) 0.65310(10)
C4 C 0.9177(3) 0.30816(12) 0.59556(10)
H1 H 0.9961 0.2762 0.5467
C5 C 0.9499(3) 0.41944(12) 0.60933(9)
C6 C 1.1051(4) 0.48672(13) 0.54338(10)
H2 H 1.2821 0.4474 0.5279
H3 H 1.1775 0.554 0.5728
C7 C 0.8328(3) 0.46621(12) 0.68193(10)
H4 H 0.855 0.5406 0.692
C8 C 0.6821(4) 0.40362(13) 0.74009(10)
H5 H 0.601 0.4354 0.7886
C9 C 0.8705(5) 0.07989(14) 0.57788(13)
H6 H 0.7829 0.1059 0.5191
H7 H 0.8357 0.0031 0.5817
H8 H 1.0869 0.094 0.5865
O1B O 1.4903(3) 0.77748(9) 0.21915(8)
O2B O 1.2692(3) 0.86567(8) 0.35334(8)
N1B N 1.7155(4) 0.71065(14) 0.09079(11)
C1B C 1.6057(4) 0.73811(13) 0.15140(11)
C2B C 1.3442(3) 0.70538(12) 0.27546(10)
C3B C 1.2287(3) 0.75626(12) 0.34690(10)
C4B C 1.0823(3) 0.69184(12) 0.40444(10)
H1B H 1.0039 0.7238 0.4533
C5B C 1.0501(3) 0.58056(12) 0.39067(9)
C6B C 0.8949(4) 0.51328(13) 0.45662(10)
H2B H 0.7179 0.5526 0.4721
H3B H 0.8225 0.446 0.4272
C7B C 1.1672(3) 0.53379(12) 0.31807(10)
H4B H 1.145 0.4594 0.308
C8B C 1.3179(4) 0.59638(13) 0.25991(10)
H5B H 1.399 0.5646 0.2114
C9B C 1.1295(5) 0.92011(14) 0.42212(13)
H6B H 1.2171 0.8941 0.4809
H7B H 1.1643 0.9969 0.4183
H8B H 0.9131 0.906 0.4135
loop_
_geom_bond_atom_site_label_1
_geom_bond_atom_site_label_2
_geom_bond_site_symmetry_1
_geom_bond_site_symmetry_2
O1 C1 1_555 1_555
O2 C3 1_555 1_555
N1 C1 1_555 1_555
C2 O1 1_555 1_555
C3 C2 1_555 1_555
C4 C3 1_555 1_555
H1 C4 1_555 1_555
C5 C4 1_555 1_555
C6 C5 1_555 1_555
H2 C6 1_555 1_555
H3 C6 1_555 1_555
C7 C5 1_555 1_555
H4 C7 1_555 1_555
C8 C2 1_555 1_555
H5 C8 1_555 1_555
C9 O2 1_555 1_555
H6 C9 1_555 1_555
H7 C9 1_555 1_555
H8 C9 1_555 1_555
O1B C1B 1_555 1_555
O2B C3B 1_555 1_555
N1B C1B 1_555 1_555
C2B O1B 1_555 1_555
C3B C2B 1_555 1_555
C4B C3B 1_555 1_555
H1B C4B 1_555 1_555
C5B C4B 1_555 1_555
C6B C6 1_555 1_555
H2B C6B 1_555 1_555
H3B C6B 1_555 1_555
C7B C5B 1_555 1_555
H4B C7B 1_555 1_555
C8B C2B 1_555 1_555
H5B C8B 1_555 1_555
C9B O2B 1_555 1_555
H6B C9B 1_555 1_555
H7B C9B 1_555 1_555
H8B C9B 1_555 1_555
C7 C8 1_555 1_555
C5B C6B 1_555 1_555
C7B C8B 1_555 1_555

#END
