
#######################################################################
#
#                 Cambridge Crystallographic Data Centre
#                                CCDC 
#
#######################################################################
#
# If this CIF has been generated from an entry in the Cambridge 
# Structural Database, then it will include bibliographic, chemical, 
# crystal, experimental, refinement or atomic coordinate data resulting 
# from the CCDC's data processing and validation procedures.
#
#######################################################################

data_GOTMEH
_chemical_formula_moiety         'C20 H16 N6 O2,C2 H4 Cl2'
_chemical_name_systematic        
"2,2'-Diamino-4,4'-diphenoxy-5,5'-bipyrimidine 1,2-dichloroethane solvate."
_symmetry_cell_setting           monoclinic
_symmetry_space_group_name_H-M   'C 2/c'
_symmetry_Int_Tables_number      15
_space_group_name_Hall           '-C 2yn'
loop_
_symmetry_equiv_pos_site_id
_symmetry_equiv_pos_as_xyz
1 x,y,z
2 x,-y,1/2+z
3 1/2+x,1/2+y,z
4 1/2+x,1/2-y,1/2+z
5 -x,-y,-z
6 -x,y,1/2-z
7 1/2-x,1/2-y,-z
8 1/2-x,1/2+y,1/2-z
_cell_length_a                   12.479(2)
_cell_length_b                   19.746(2)
_cell_length_c                   10.126(2)
_cell_angle_alpha                90
_cell_angle_beta                 109.63(1)
_cell_angle_gamma                90
_cell_volume                     2350.14
_exptl_crystal_colour            colorless
_exptl_crystal_description       prism
_chemical_melting_point          255-256deg.C
_cell_formula_units_Z            4
loop_
_atom_site_label
_atom_site_type_symbol
_atom_site_fract_x
_atom_site_fract_y
_atom_site_fract_z
C1 C 1.0225(2) 0.1752(2) 0.1908(3)
C2 C 0.9683(2) 0.1440(2) 0.0624(3)
N1 N 1.0055(2) 0.1453(1) -0.0448(2)
C3 C 1.1038(2) 0.1786(2) -0.0243(3)
N2 N 1.1643(2) 0.2112(1) 0.0945(2)
C4 C 1.1211(3) 0.2076(2) 0.1979(3)
N3 N 1.1446(2) 0.1801(2) -0.1314(2)
O1 O 0.8699(2) 0.1113(1) 0.0499(2)
C5 C 0.8069(2) 0.0811(2) -0.0773(3)
C6 C 0.8340(3) 0.0183(2) -0.1110(5)
C7 C 0.7677(4) -0.0115(2) -0.2350(5)
C8 C 0.6755(4) 0.0189(3) -0.3172(5)
C9 C 0.6465(4) 0.0811(3) -0.2826(5)
C10 C 0.7133(4) 0.1129(2) -0.1601(4)
H1 H 1.1007 0.1608 -0.2189
H2 H 1.2128 0.2017 -0.1095
H3 H 1.1622 0.2293 0.2837
H4 H 0.8981 -0.0049 -0.0497
H5 H 0.7888 -0.0544 -0.2611
H6 H 0.6292 -0.0026 -0.4007
H7 H 0.5802 0.1030 -0.3425
H8 H 0.6930 0.1563 -0.1354
C1E C 0.9775(2) 0.1752(2) 0.3092(3)
C2E C 1.0317(2) 0.1440(2) 0.4376(3)
N1E N 0.9945(2) 0.1453(1) 0.5448(2)
C3E C 0.8962(2) 0.1786(2) 0.5243(3)
N2E N 0.8357(2) 0.2112(1) 0.4055(2)
C4E C 0.8789(3) 0.2076(2) 0.3021(3)
H3E H 0.8378 0.2293 0.2163
N3E N 0.8554(2) 0.1801(2) 0.6314(2)
H1E H 0.8993 0.1608 0.7189
H2E H 0.7872 0.2017 0.6095
O1E O 1.1301(2) 0.1113(1) 0.4501(2)
C5E C 1.1931(2) 0.0811(2) 0.5773(3)
C6E C 1.1660(3) 0.0183(2) 0.6110(5)
C7E C 1.2323(4) -0.0115(2) 0.7350(5)
C8E C 1.3245(4) 0.0189(3) 0.8172(5)
C9E C 1.3535(4) 0.0811(3) 0.7826(5)
C10E C 1.2867(4) 0.1129(2) 0.6601(4)
H8E H 1.3070 0.1563 0.6354
H7E H 1.4198 0.1030 0.8425
H6E H 1.3708 -0.0026 0.9007
H5E H 1.2112 -0.0544 0.7611
H4E H 1.1019 -0.0049 0.5497
Cl1 Cl 0.4208(1) 0.16064(9) 0.4068(1)
C11 C 0.531(1) 0.1482(7) 0.320(1)
C11E C 0.469(1) 0.1482(7) 0.180(1)
Cl1E Cl 0.5792(1) 0.16064(9) 0.0932(1)
C12? C 0.441(1) 0.1564(7) 0.245(1)
loop_
_geom_bond_atom_site_label_1
_geom_bond_atom_site_label_2
_geom_bond_site_symmetry_1
_geom_bond_site_symmetry_2
C1 C2 1_555 1_555
C2 N1 1_555 1_555
N1 C3 1_555 1_555
C3 N2 1_555 1_555
N2 C4 1_555 1_555
C4 C1 1_555 1_555
N3 C3 1_555 1_555
O1 C2 1_555 1_555
C5 O1 1_555 1_555
C6 C5 1_555 1_555
C7 C6 1_555 1_555
C8 C7 1_555 1_555
C9 C8 1_555 1_555
C10 C5 1_555 1_555
Cl1 C11 1_555 1_555
C11 C11E 1_555 1_555
H1 N3 1_555 1_555
H2 N3 1_555 1_555
H3 C4 1_555 1_555
H4 C6 1_555 1_555
H5 C7 1_555 1_555
H6 C8 1_555 1_555
H7 C9 1_555 1_555
H8 C10 1_555 1_555
C1E C1 1_555 1_555
C2E C1E 1_555 1_555
N1E C2E 1_555 1_555
C3E N1E 1_555 1_555
N2E C3E 1_555 1_555
C4E C1E 1_555 1_555
H3E C4E 1_555 1_555
N3E C3E 1_555 1_555
H1E N3E 1_555 1_555
H2E N3E 1_555 1_555
O1E C2E 1_555 1_555
C5E O1E 1_555 1_555
C6E C5E 1_555 1_555
C7E C6E 1_555 1_555
C8E C7E 1_555 1_555
C9E C8E 1_555 1_555
C10E C5E 1_555 1_555
H8E C10E 1_555 1_555
H7E C9E 1_555 1_555
H6E C8E 1_555 1_555
H5E C7E 1_555 1_555
H4E C6E 1_555 1_555
C11E Cl1E 1_555 1_555
C9 C10 1_555 1_555
N2E C4E 1_555 1_555
C9E C10E 1_555 1_555

#END
