
#######################################################################
#
#                 Cambridge Crystallographic Data Centre
#                                CCDC 
#
#######################################################################
#
# If this CIF has been generated from an entry in the Cambridge 
# Structural Database, then it will include bibliographic, chemical, 
# crystal, experimental, refinement or atomic coordinate data resulting 
# from the CCDC's data processing and validation procedures.
#
#######################################################################

data_GOVRAM
_chemical_formula_moiety         'C17 H8 F12 N2'
_chemical_name_systematic        
N,N'-bis(3,5-bis(trifluoromethyl)phenyl)imidoformamide
_symmetry_cell_setting           triclinic
_symmetry_space_group_name_H-M   'P -1'
_symmetry_Int_Tables_number      2
_space_group_name_Hall           '-P 1'
loop_
_symmetry_equiv_pos_site_id
_symmetry_equiv_pos_as_xyz
1 x,y,z
2 -x,-y,-z
_cell_length_a                   8.4009(13)
_cell_length_b                   8.9051(14)
_cell_length_c                   12.0229(19)
_cell_angle_alpha                98.324(3)
_cell_angle_beta                 98.474(3)
_cell_angle_gamma                91.035(3)
_cell_volume                     879.539
_exptl_crystal_colour            colorless
_exptl_crystal_description       block
_cell_formula_units_Z            2
loop_
_atom_site_label
_atom_site_type_symbol
_atom_site_fract_x
_atom_site_fract_y
_atom_site_fract_z
N1 N 0.34986(16) -0.49889(15) 0.36856(11)
N2 N 0.41358(16) -0.30587(15) 0.51835(11)
H1 H 0.4936 -0.3669 0.5470
C1 C 0.32122(19) -0.36758(19) 0.42003(13)
H2 H 0.2338 -0.3131 0.3885
C2 C 0.23999(19) -0.56084(18) 0.27061(13)
C3 C 0.07977(19) -0.59414(19) 0.27712(14)
H3 H 0.0399 -0.5687 0.3471
C4 C -0.0226(2) -0.66465(19) 0.18142(14)
C5 C 0.0328(2) -0.7005(2) 0.07817(14)
H4 H -0.0375 -0.7476 0.0128
C6 C 0.1926(2) -0.6663(2) 0.07193(14)
C7 C 0.2976(2) -0.59902(19) 0.16716(14)
H5 H 0.4076 -0.5791 0.1620
C8 C -0.1914(2) -0.7102(2) 0.19185(16)
C9 C 0.2526(2) -0.7057(3) -0.04075(16)
C10 C 0.41187(19) -0.15572(18) 0.57304(13)
C11 C 0.53599(19) -0.10519(19) 0.66152(13)
H6 H 0.6169 -0.1726 0.6839
C12 C 0.54215(19) 0.04327(19) 0.71730(13)
C13 C 0.42515(19) 0.14373(19) 0.68801(14)
H7 H 0.4288 0.2446 0.7273
C14 C 0.30175(19) 0.09251(18) 0.59911(13)
C15 C 0.29400(19) -0.05489(19) 0.54154(13)
H8 H 0.2089 -0.0870 0.4810
C16 C 0.6814(2) 0.0924(2) 0.80982(16)
C17 C 0.1728(2) 0.1984(2) 0.56611(15)
F1 F -0.25108(13) -0.62079(15) 0.27347(10)
F2 F -0.29397(14) -0.70879(18) 0.09703(11)
F3 F -0.20081(16) -0.85120(16) 0.21751(14)
F4 F 0.3941(3) -0.6338(7) -0.0435(2)
F5 F 0.2659(9) -0.8454(4) -0.0716(3)
F6 F 0.1559(3) -0.6552(4) -0.1243(2)
F7 F 0.8202(12) 0.034(3) 0.789(2)
F8 F 0.67644(19) 0.02924(15) 0.90098(11)
F9 F 0.69170(15) 0.24137(13) 0.84344(10)
F10 F 0.22992(13) 0.34105(12) 0.57096(12)
F11 F 0.05885(12) 0.20611(13) 0.63386(9)
F12 F 0.09433(13) 0.15734(12) 0.46014(9)
F13? F 0.3930(6) -0.7663(12) -0.0278(4)
F14? F 0.1670(9) -0.8235(13) -0.1038(7)
F15? F 0.2547(19) -0.6023(10) -0.0953(9)
F16? F 0.8202(13) 0.083(2) 0.7612(10)
loop_
_geom_bond_atom_site_label_1
_geom_bond_atom_site_label_2
_geom_bond_site_symmetry_1
_geom_bond_site_symmetry_2
N1 C1 1_555 1_555
N2 H1 1_555 1_555
C1 N2 1_555 1_555
H2 C1 1_555 1_555
C2 N1 1_555 1_555
C3 C2 1_555 1_555
H3 C3 1_555 1_555
C4 C3 1_555 1_555
C5 C4 1_555 1_555
H4 C5 1_555 1_555
C6 C5 1_555 1_555
C7 C2 1_555 1_555
H5 C7 1_555 1_555
C8 C4 1_555 1_555
C9 C6 1_555 1_555
C10 N2 1_555 1_555
C11 C10 1_555 1_555
H6 C11 1_555 1_555
C12 C11 1_555 1_555
C13 C12 1_555 1_555
H7 C13 1_555 1_555
C14 C13 1_555 1_555
C15 C10 1_555 1_555
H8 C15 1_555 1_555
C16 C12 1_555 1_555
C17 C14 1_555 1_555
F1 C8 1_555 1_555
F2 C8 1_555 1_555
F3 C8 1_555 1_555
F4 C9 1_555 1_555
F5 C9 1_555 1_555
F6 C9 1_555 1_555
F7 C16 1_555 1_555
F8 C16 1_555 1_555
F9 C16 1_555 1_555
F10 C17 1_555 1_555
F11 C17 1_555 1_555
F12 C17 1_555 1_555
C6 C7 1_555 1_555
C14 C15 1_555 1_555

#END
