
#######################################################################
#
#                 Cambridge Crystallographic Data Centre
#                                CCDC 
#
#######################################################################
#
# If this CIF has been generated from an entry in the Cambridge 
# Structural Database, then it will include bibliographic, chemical, 
# crystal, experimental, refinement or atomic coordinate data resulting 
# from the CCDC's data processing and validation procedures.
#
#######################################################################

data_GOVTIW
_chemical_formula_moiety         'C12 H14 Cl2 N6 O4'
_chemical_name_systematic        
3,3'-(1,2-phenylene)bis(1-(2-chloroethyl)-1-nitrosourea)
_symmetry_cell_setting           triclinic
_symmetry_space_group_name_H-M   'P -1'
_symmetry_Int_Tables_number      2
_space_group_name_Hall           '-P 1'
loop_
_symmetry_equiv_pos_site_id
_symmetry_equiv_pos_as_xyz
1 x,y,z
2 -x,-y,-z
_cell_length_a                   8.9151(8)
_cell_length_b                   9.8682(9)
_cell_length_c                   10.9205(9)
_cell_angle_alpha                105.678(7)
_cell_angle_beta                 106.754(8)
_cell_angle_gamma                108.541(8)
_cell_volume                     799.916
_exptl_crystal_colour            colorless
_exptl_crystal_description       Rhombic
_cell_formula_units_Z            2
loop_
_atom_site_label
_atom_site_type_symbol
_atom_site_fract_x
_atom_site_fract_y
_atom_site_fract_z
Cl1 Cl 1.26185(8) 1.39343(7) 0.50961(6)
Cl2 Cl 0.41165(9) 0.77048(8) 0.35335(6)
O1 O 0.6343(2) 0.70787(18) 0.12459(16)
O2 O 0.8523(2) 1.28231(19) 0.26441(16)
O3 O 0.8603(2) 1.0328(2) 0.54865(17)
O4 O 0.0710(2) 0.41334(19) -0.06851(17)
N1 N 0.8686(3) 1.1635(2) 0.41802(19)
N2 N 0.7674(3) 1.0188(2) 0.18069(19)
H1 H 0.7458 0.9406 0.2043
N3 N 0.3416(3) 0.5760(2) 0.04857(19)
N4 N 0.4577(3) 0.7579(2) -0.03747(19)
H2 H 0.3522 0.7430 -0.0781
N5 N 0.8236(3) 1.0241(2) 0.4291(2)
N6 N 0.1913(3) 0.5212(2) -0.0639(2)
C1 C 0.8295(3) 1.1608(3) 0.2811(2)
C2 C 1.1465(3) 1.3562(3) 0.6159(2)
H3 H 1.1617 1.2736 0.6425
H4 H 1.1953 1.4492 0.7005
C3 C 0.5873(3) 0.8573(3) -0.0659(2)
C4 C 0.4905(3) 0.6865(3) 0.0486(2)
C5 C 0.9549(3) 1.3094(3) 0.5417(2)
H5 H 0.9002 1.2982 0.6056
H6 H 0.9399 1.3915 0.5143
C6 C 0.7344(3) 0.9877(3) 0.0384(2)
C7 C 0.5597(3) 0.8240(3) -0.2053(2)
H7 H 0.4629 0.7362 -0.2750
C8 C 0.2903(3) 0.5647(3) 0.2566(3)
H8 H 0.2988 0.5124 0.3202
H9 H 0.1690 0.5405 0.2091
C9 C 0.3575(3) 0.5055(3) 0.1506(2)
H10 H 0.4784 0.5288 0.1986
H11 H 0.2929 0.3932 0.1024
C10 C 0.6749(3) 0.9201(3) -0.2408(3)
H12 H 0.6549 0.8975 -0.3341
C11 C 0.8502(3) 1.0832(3) 0.0013(3)
H13 H 0.9488 1.1699 0.0705
C12 C 0.8199(4) 1.0501(3) -0.1372(3)
H14 H 0.8971 1.1154 -0.1608
loop_
_geom_bond_atom_site_label_1
_geom_bond_atom_site_label_2
_geom_bond_site_symmetry_1
_geom_bond_site_symmetry_2
Cl1 C2 1_555 1_555
Cl2 C8 1_555 1_555
O1 C4 1_555 1_555
O2 C1 1_555 1_555
O3 N5 1_555 1_555
O4 N6 1_555 1_555
N1 N5 1_555 1_555
N2 H1 1_555 1_555
N3 N6 1_555 1_555
N4 H2 1_555 1_555
C1 N1 1_555 1_555
C2 H3 1_555 1_555
H4 C2 1_555 1_555
C3 N4 1_555 1_555
C4 N3 1_555 1_555
C5 N1 1_555 1_555
H5 C5 1_555 1_555
H6 C5 1_555 1_555
C6 N2 1_555 1_555
C7 C3 1_555 1_555
H7 C7 1_555 1_555
C8 H8 1_555 1_555
H9 C8 1_555 1_555
C9 N3 1_555 1_555
H10 C9 1_555 1_555
H11 C9 1_555 1_555
C10 C7 1_555 1_555
H12 C10 1_555 1_555
C11 C6 1_555 1_555
H13 C11 1_555 1_555
C12 C10 1_555 1_555
H14 C12 1_555 1_555
N2 C1 1_555 1_555
N4 C4 1_555 1_555
C2 C5 1_555 1_555
C3 C6 1_555 1_555
C8 C9 1_555 1_555
C11 C12 1_555 1_555

#END
