
#######################################################################
#
#                 Cambridge Crystallographic Data Centre
#                                CCDC 
#
#######################################################################
#
# If this CIF has been generated from an entry in the Cambridge 
# Structural Database, then it will include bibliographic, chemical, 
# crystal, experimental, refinement or atomic coordinate data resulting 
# from the CCDC's data processing and validation procedures.
#
#######################################################################

data_GOVZEY
_chemical_formula_moiety         'C54 H36 O8,2(C3 H7 N1 O1)'
_chemical_name_systematic        
"4',4'',4''',4''''-ethene-1,1,2,2-tetrayltetrabiphenyl-4-carboxylic acid N,N-dimethylformamide unknown solvate"
_symmetry_cell_setting           orthorhombic
_symmetry_space_group_name_H-M   'F d d 2'
_symmetry_Int_Tables_number      43
_space_group_name_Hall           'F 2 -2d'
loop_
_symmetry_equiv_pos_site_id
_symmetry_equiv_pos_as_xyz
1 x,y,z
2 1/4-x,1/4+y,1/4+z
3 1/4+x,1/4-y,1/4+z
4 1/2-x,-y,1/2+z
5 x,1/2+y,1/2+z
6 1/4-x,3/4+y,3/4+z
7 1/4+x,3/4-y,3/4+z
8 1/2-x,1/2-y,z
9 1/2+x,y,1/2+z
10 3/4-x,1/4+y,3/4+z
11 3/4+x,1/4-y,3/4+z
12 -x,-y,z
13 1/2+x,1/2+y,z
14 3/4-x,3/4+y,1/4+z
15 3/4+x,3/4-y,1/4+z
16 -x,1/2-y,1/2+z
_cell_length_a                   20.642(12)
_cell_length_b                   78.16(5)
_cell_length_c                   8.624(5)
_cell_angle_alpha                90
_cell_angle_beta                 90
_cell_angle_gamma                90
_cell_volume                     13913.8
_exptl_crystal_colour            colorless
_exptl_crystal_description       prism
_cell_formula_units_Z            8
loop_
_atom_site_label
_atom_site_type_symbol
_atom_site_fract_x
_atom_site_fract_y
_atom_site_fract_z
O1 O -0.0320(3) -0.02817(9) 0.3934(5)
H1 H -0.0680 -0.0329 0.3774
O2 O 0.0087(3) -0.05568(9) 0.3666(6)
O3 O 0.5328(3) 0.14196(4) 0.4640(13)
O4 O 0.4401(3) 0.14246(4) 0.3476(13)
H2 H 0.4401 0.1526 0.3812
C1 C 0.48323(16) 0.06037(4) 0.3793(5)
C2 C 0.47847(15) 0.02438(3) 0.3668(3)
C3 C 0.51518(19) 0.05034(4) 0.4935(5)
H3 H 0.5381 0.0558 0.5752
C4 C 0.40657(14) -0.00125(3) 0.3540(4)
C5 C 0.51311(16) 0.03281(4) 0.4867(4)
H4 H 0.5351 0.0262 0.5630
C6 C 0.32226(16) -0.01919(4) 0.2383(4)
H5 H 0.3102 -0.0276 0.1638
C7 C 0.4845(3) 0.13390(6) 0.4157(18)
C8 C 0.4847(2) 0.07940(5) 0.3846(8)
C9 C 0.0924(2) -0.01468(9) 0.3743(5)
H6 H 0.0575 -0.0071 0.3944
C10 C 0.43363(18) 0.08891(5) 0.3248(9)
H7 H 0.3968 0.0832 0.2843
C11 C 0.4833(3) 0.11534(5) 0.4097(13)
C12 C 0.44922(17) 0.05204(4) 0.2619(5)
H8 H 0.4274 0.0585 0.1846
C13 C 0.5372(2) 0.08852(5) 0.4514(11)
H9 H 0.5739 0.0823 0.4866
C14 C 0.44722(16) 0.03429(3) 0.2580(4)
H10 H 0.4235 0.0288 0.1777
C15 C 0.47387(15) 0.00513(3) 0.3589(3)
C16 C 0.1949(4) -0.03614(9) 0.3066(8)
H11 H 0.2291 -0.0437 0.2794
C17 C 0.35665(15) 0.00567(4) 0.4516(4)
H12 H 0.3676 0.0145 0.5227
C18 C 0.29459(17) 0.00007(4) 0.4461(4)
H13 H 0.2638 0.0048 0.5159
C19 C 0.27418(17) -0.01253(5) 0.3404(4)
C20 C 0.38625(19) -0.01379(4) 0.2448(4)
H14 H 0.4170 -0.0185 0.1751
C21 C 0.20676(19) -0.01843(6) 0.3377(5)
C22 C 0.0781(3) -0.03136(12) 0.3505(6)
C23 C 0.4356(3) 0.10679(5) 0.3231(11)
H15 H 0.4050 0.1131 0.2640
C24 C 0.0175(5) -0.03998(19) 0.3680(9)
C25 C 0.15544(18) -0.00784(6) 0.3713(4)
H16 H 0.1625 0.0039 0.3923
C26 C 0.5368(3) 0.10576(6) 0.4665(16)
H17 H 0.5722 0.1114 0.5149
C27 C 0.1289(4) -0.04194(11) 0.3184(10)
H18 H 0.1202 -0.0538 0.3029
O1K O 1.0320(3) 0.02817(9) 0.3934(5)
H1K H 1.0680 0.0329 0.3774
O2K O 0.9913(3) 0.05568(9) 0.3666(6)
O3K O 0.4672(3) -0.14196(4) 0.4640(13)
O4K O 0.5599(3) -0.14246(4) 0.3476(13)
H2K H 0.5599 -0.1526 0.3812
C1K C 0.51677(16) -0.06037(4) 0.3793(5)
C2K C 0.52153(15) -0.02438(3) 0.3668(3)
C3K C 0.48482(19) -0.05034(4) 0.4935(5)
H3K H 0.4619 -0.0558 0.5752
C4K C 0.59343(14) 0.00125(3) 0.3540(4)
C5K C 0.48689(16) -0.03281(4) 0.4867(4)
H4K H 0.4649 -0.0262 0.5630
C6K C 0.67774(16) 0.01919(4) 0.2383(4)
H5K H 0.6898 0.0276 0.1638
C7K C 0.5155(3) -0.13390(6) 0.4157(18)
C8K C 0.5153(2) -0.07940(5) 0.3846(8)
C9K C 0.9076(2) 0.01468(9) 0.3743(5)
H6K H 0.9425 0.0071 0.3944
C10K C 0.56637(18) -0.08891(5) 0.3248(9)
H7K H 0.6032 -0.0832 0.2843
C11K C 0.5167(3) -0.11534(5) 0.4097(13)
C12K C 0.55078(17) -0.05204(4) 0.2619(5)
H8K H 0.5726 -0.0585 0.1846
C13K C 0.4628(2) -0.08852(5) 0.4514(11)
H9K H 0.4261 -0.0823 0.4866
C14K C 0.55278(16) -0.03429(3) 0.2580(4)
H10K H 0.5765 -0.0288 0.1777
C15K C 0.52613(15) -0.00513(3) 0.3589(3)
C16K C 0.8051(4) 0.03614(9) 0.3066(8)
H11K H 0.7709 0.0437 0.2794
C17K C 0.64335(15) -0.00567(4) 0.4516(4)
H12K H 0.6324 -0.0145 0.5227
C18K C 0.70541(17) -0.00007(4) 0.4461(4)
H13K H 0.7362 -0.0048 0.5159
C19K C 0.72582(17) 0.01253(5) 0.3404(4)
C20K C 0.61375(19) 0.01379(4) 0.2448(4)
H14K H 0.5830 0.0185 0.1751
C21K C 0.79324(19) 0.01843(6) 0.3377(5)
C22K C 0.9219(3) 0.03136(12) 0.3505(6)
C23K C 0.5644(3) -0.10679(5) 0.3231(11)
H15K H 0.5950 -0.1131 0.2640
C24K C 0.9825(5) 0.03998(19) 0.3680(9)
C25K C 0.84456(18) 0.00784(6) 0.3713(4)
H16K H 0.8375 -0.0039 0.3923
C26K C 0.4632(3) -0.10576(6) 0.4665(16)
H17K H 0.4278 -0.1114 0.5149
C27K C 0.8711(4) 0.04194(11) 0.3184(10)
H18K H 0.8798 0.0538 0.3029
N1 N 0.23034(18) 0.05195(5) 0.2193(11)
O5 O 0.1893(4) 0.07588(6) 0.1310(15)
C28 C 0.2294(3) 0.06813(6) 0.1914(16)
H19 H 0.2662 0.0744 0.2248
C29 C 0.1766(4) 0.04126(8) 0.1526(13)
H20 H 0.1483 0.0485 0.0890
H21 H 0.1513 0.0362 0.2370
H22 H 0.1951 0.0322 0.0882
C30 C 0.2742(4) 0.04352(13) 0.320(3)
H23 H 0.3165 0.0425 0.2699
H24 H 0.2576 0.0321 0.3451
H25 H 0.2787 0.0502 0.4163
loop_
_geom_bond_atom_site_label_1
_geom_bond_atom_site_label_2
_geom_bond_site_symmetry_1
_geom_bond_site_symmetry_2
O1 H1 1_555 1_555
O2 C24 1_555 1_555
O3 C7 1_555 1_555
O4 H2 1_555 1_555
C1 C3 1_555 1_555
C2 C5 1_555 1_555
C3 H3 1_555 1_555
C4 C15 1_555 1_555
C5 C3 1_555 1_555
H4 C5 1_555 1_555
C6 H5 1_555 1_555
C7 O4 1_555 1_555
C8 C1 1_555 1_555
C9 H6 1_555 1_555
C10 C8 1_555 1_555
H7 C10 1_555 1_555
C11 C7 1_555 1_555
C12 C1 1_555 1_555
H8 C12 1_555 1_555
C13 C8 1_555 1_555
H9 C13 1_555 1_555
C14 C2 1_555 1_555
H10 C14 1_555 1_555
C15 C2 1_555 1_555
C16 H11 1_555 1_555
C17 C4 1_555 1_555
H12 C17 1_555 1_555
C18 C17 1_555 1_555
H13 C18 1_555 1_555
C19 C6 1_555 1_555
C20 C4 1_555 1_555
H14 C20 1_555 1_555
C21 C16 1_555 1_555
C22 C9 1_555 1_555
C23 C10 1_555 1_555
H15 C23 1_555 1_555
C24 O1 1_555 1_555
C25 C9 1_555 1_555
H16 C25 1_555 1_555
C26 C11 1_555 1_555
H17 C26 1_555 1_555
C27 C16 1_555 1_555
H18 C27 1_555 1_555
N1 C28 1_555 1_555
O5 C28 1_555 1_555
C28 H19 1_555 1_555
C29 N1 1_555 1_555
H20 C29 1_555 1_555
H21 C29 1_555 1_555
H22 C29 1_555 1_555
C30 N1 1_555 1_555
H23 C30 1_555 1_555
H24 C30 1_555 1_555
H25 C30 1_555 1_555
O1K H1K 1_555 1_555
O2K C24K 1_555 1_555
O3K C7K 1_555 1_555
O4K H2K 1_555 1_555
C1K C3K 1_555 1_555
C2K C5K 1_555 1_555
C3K H3K 1_555 1_555
C4K C15K 1_555 1_555
C5K C3K 1_555 1_555
H4K C5K 1_555 1_555
C6K H5K 1_555 1_555
C7K O4K 1_555 1_555
C8K C1K 1_555 1_555
C9K H6K 1_555 1_555
C10K C8K 1_555 1_555
H7K C10K 1_555 1_555
C11K C7K 1_555 1_555
C12K C1K 1_555 1_555
H8K C12K 1_555 1_555
C13K C8K 1_555 1_555
H9K C13K 1_555 1_555
C14K C2K 1_555 1_555
H10K C14K 1_555 1_555
C15K C15 1_555 1_555
C16K H11K 1_555 1_555
C17K C4K 1_555 1_555
H12K C17K 1_555 1_555
C18K C17K 1_555 1_555
H13K C18K 1_555 1_555
C19K C6K 1_555 1_555
C20K C4K 1_555 1_555
H14K C20K 1_555 1_555
C21K C16K 1_555 1_555
C22K C9K 1_555 1_555
C23K C10K 1_555 1_555
H15K C23K 1_555 1_555
C24K O1K 1_555 1_555
C25K C9K 1_555 1_555
H16K C25K 1_555 1_555
C26K C11K 1_555 1_555
H17K C26K 1_555 1_555
C27K C16K 1_555 1_555
H18K C27K 1_555 1_555
C6 C20 1_555 1_555
C11 C23 1_555 1_555
C12 C14 1_555 1_555
C13 C26 1_555 1_555
C18 C19 1_555 1_555
C19 C21 1_555 1_555
C21 C25 1_555 1_555
C22 C24 1_555 1_555
C22 C27 1_555 1_555
C2K C15K 1_555 1_555
C6K C20K 1_555 1_555
C11K C23K 1_555 1_555
C12K C14K 1_555 1_555
C13K C26K 1_555 1_555
C18K C19K 1_555 1_555
C19K C21K 1_555 1_555
C21K C25K 1_555 1_555
C22K C24K 1_555 1_555
C22K C27K 1_555 1_555

#END
