
#######################################################################
#
#                 Cambridge Crystallographic Data Centre
#                                CCDC 
#
#######################################################################
#
# If this CIF has been generated from an entry in the Cambridge 
# Structural Database, then it will include bibliographic, chemical, 
# crystal, experimental, refinement or atomic coordinate data resulting 
# from the CCDC's data processing and validation procedures.
#
#######################################################################

data_GOWBEB
_chemical_formula_moiety         'C10 H11 Cl1 N6 O1'
_chemical_name_systematic        
1-((4-chlorophenyl)amino)-5-methyl-1H-1,2,3-triazole-4-carbohydrazide
_symmetry_cell_setting           orthorhombic
_symmetry_space_group_name_H-M   'P b c a'
_symmetry_Int_Tables_number      61
_space_group_name_Hall           '-P 2ac 2ab'
loop_
_symmetry_equiv_pos_site_id
_symmetry_equiv_pos_as_xyz
1 x,y,z
2 1/2-x,-y,1/2+z
3 1/2+x,1/2-y,-z
4 -x,1/2+y,1/2-z
5 -x,-y,-z
6 1/2+x,y,1/2-z
7 1/2-x,1/2+y,z
8 x,1/2-y,1/2+z
_cell_length_a                   11.4176(4)
_cell_length_b                   7.2174(2)
_cell_length_c                   29.6018(10)
_cell_angle_alpha                90
_cell_angle_beta                 90
_cell_angle_gamma                90
_cell_volume                     2439.35
_exptl_crystal_colour            colorless
_exptl_crystal_description       block
_cell_formula_units_Z            8
loop_
_atom_site_label
_atom_site_type_symbol
_atom_site_fract_x
_atom_site_fract_y
_atom_site_fract_z
Cl1 Cl 0.10701(5) 0.80652(8) 0.662092(17)
O1 O -0.17459(12) 1.0625(2) 0.97406(5)
N1 N -0.12212(15) 1.3969(3) 1.01348(6)
H1 H -0.1471(19) 1.310(2) 1.0322(7)
H2 H -0.1858(13) 1.438(3) 0.9997(7)
N2 N -0.05336(15) 1.3048(2) 0.98048(5)
H3 H 0.0126(12) 1.360(3) 0.9744(7)
N3 N 0.10242(13) 1.1414(2) 0.92026(5)
N4 N 0.15828(14) 1.0337(2) 0.89232(5)
N5 N 0.09154(13) 0.8794(2) 0.88706(5)
N6 N 0.12760(14) 0.7329(2) 0.86038(5)
H4 H 0.1920(12) 0.683(2) 0.8710(6)
C1 C -0.08385(16) 1.1419(3) 0.96387(6)
C2 C 0.00010(15) 1.0570(2) 0.93238(6)
C3 C -0.00833(15) 0.8880(3) 0.91133(6)
C4 C -0.09755(17) 0.7393(3) 0.91142(7)
H5 H -0.0593 0.6194 0.9065
H6 H -0.1544 0.7620 0.8872
H7 H -0.1380 0.7379 0.9406
C5 C 0.12521(15) 0.7615(3) 0.81329(6)
C6 C 0.21451(16) 0.6904(2) 0.78683(6)
H8 H 0.2798 0.6320 0.8007
C7 C 0.20909(17) 0.7039(2) 0.74047(6)
H9 H 0.2698 0.6533 0.7223
C8 C 0.11506(16) 0.7913(3) 0.72056(6)
C9 C 0.02642(17) 0.8663(2) 0.74645(6)
H10 H -0.0375 0.9280 0.7324
C10 C 0.03150(16) 0.8507(2) 0.79294(6)
H11 H -0.0294 0.9013 0.8110
loop_
_geom_bond_atom_site_label_1
_geom_bond_atom_site_label_2
_geom_bond_site_symmetry_1
_geom_bond_site_symmetry_2
Cl1 C8 1_555 1_555
O1 C1 1_555 1_555
N1 H1 1_555 1_555
H2 N1 1_555 1_555
N2 N1 1_555 1_555
H3 N2 1_555 1_555
N3 N4 1_555 1_555
N4 N5 1_555 1_555
N5 N6 1_555 1_555
N6 H4 1_555 1_555
C1 N2 1_555 1_555
C2 N3 1_555 1_555
C3 N5 1_555 1_555
C4 C3 1_555 1_555
H5 C4 1_555 1_555
H6 C4 1_555 1_555
H7 C4 1_555 1_555
C5 N6 1_555 1_555
C6 C5 1_555 1_555
H8 C6 1_555 1_555
C7 C6 1_555 1_555
H9 C7 1_555 1_555
C8 C7 1_555 1_555
C9 C8 1_555 1_555
H10 C9 1_555 1_555
C10 C5 1_555 1_555
H11 C10 1_555 1_555
C1 C2 1_555 1_555
C2 C3 1_555 1_555
C9 C10 1_555 1_555

#END
