
#######################################################################
#
#                 Cambridge Crystallographic Data Centre
#                                CCDC 
#
#######################################################################
#
# If this CIF has been generated from an entry in the Cambridge 
# Structural Database, then it will include bibliographic, chemical, 
# crystal, experimental, refinement or atomic coordinate data resulting 
# from the CCDC's data processing and validation procedures.
#
#######################################################################

data_GOWBIF
_chemical_formula_moiety         'C10 H12 N6 O1'
_chemical_name_systematic        
1-anilino-5-methyl-1H-1,2,3-triazole-4-carbohydrazide
_symmetry_cell_setting           triclinic
_symmetry_space_group_name_H-M   'P -1'
_symmetry_Int_Tables_number      2
_space_group_name_Hall           '-P 1'
loop_
_symmetry_equiv_pos_site_id
_symmetry_equiv_pos_as_xyz
1 x,y,z
2 -x,-y,-z
_cell_length_a                   7.4637(14)
_cell_length_b                   11.481(2)
_cell_length_c                   13.395(3)
_cell_angle_alpha                95.849(3)
_cell_angle_beta                 98.205(4)
_cell_angle_gamma                93.393(5)
_cell_volume                     1126.99
_exptl_crystal_colour            'pale yellow'
_exptl_crystal_description       needle
_cell_formula_units_Z            4
loop_
_atom_site_label
_atom_site_type_symbol
_atom_site_fract_x
_atom_site_fract_y
_atom_site_fract_z
O1 O 0.15317(13) 0.89596(9) 0.51649(7)
N1 N -0.02873(16) 0.92507(12) 0.32870(9)
H1 H -0.097(2) 0.8660(12) 0.3460(13)
H2 H -0.038(2) 0.9860(11) 0.3733(11)
N2 N 0.15115(15) 0.89320(10) 0.34751(8)
H3 H 0.204(2) 0.8791(14) 0.2931(9)
N3 N 0.50074(16) 0.81205(10) 0.36901(9)
N4 N 0.66196(16) 0.77969(11) 0.40134(9)
N5 N 0.68082(15) 0.79349(10) 0.50475(8)
N6 N 0.84046(15) 0.77107(10) 0.56359(9)
H4 H 0.9352(17) 0.8050(14) 0.5423(13)
C1 C 0.23127(18) 0.87943(11) 0.44098(10)
C2 C 0.41727(17) 0.84337(11) 0.45082(9)
C3 C 0.53202(18) 0.83284(11) 0.53933(10)
C4 C 0.5173(2) 0.85506(14) 0.64880(10)
H5 H 0.4595 0.7852 0.6709
H6 H 0.4438 0.9218 0.6598
H7 H 0.6388 0.8728 0.6880
C5 C 0.85805(19) 0.65355(12) 0.58560(10)
C6 C 1.0324(2) 0.61894(13) 0.61235(11)
H8 H 1.1350 0.6707 0.6092
C7 C 1.0560(3) 0.50913(15) 0.64356(12)
H9 H 1.1751 0.4858 0.6622
C8 C 0.9077(3) 0.43308(15) 0.64779(13)
H10 H 0.9246 0.3578 0.6696
C9 C 0.7344(3) 0.46692(15) 0.62009(14)
H11 H 0.6323 0.4143 0.6225
C10 C 0.7083(2) 0.57724(14) 0.58874(12)
H12 H 0.5891 0.6001 0.5697
O2 O 1.32708(12) 0.11543(9) 0.03831(7)
N7 N 1.39610(16) 0.02924(11) -0.15519(9)
H13 H 1.442(2) -0.0149(13) -0.1085(11)
H14 H 1.473(2) 0.0917(11) -0.1506(13)
N8 N 1.23015(15) 0.06706(10) -0.13010(8)
H15 H 1.1416(17) 0.0667(14) -0.1817(10)
N9 N 0.89500(15) 0.15565(10) -0.10973(8)
N10 N 0.75182(15) 0.19841(10) -0.07800(8)
N11 N 0.78886(15) 0.21431(9) 0.02504(8)
N12 N 0.66514(15) 0.25861(10) 0.08380(9)
H16 H 0.5572(15) 0.2203(13) 0.0660(13)
C11 C 1.20664(17) 0.10854(10) -0.03697(9)
C12 C 1.02388(17) 0.14711(11) -0.02755(9)
C13 C 0.95643(17) 0.18379(11) 0.06001(10)
C14 C 1.0299(2) 0.19248(14) 0.16955(10)
H17 H 0.9304 0.1792 0.2085
H18 H 1.0905 0.2708 0.1916
H19 H 1.1175 0.1331 0.1809
C15 C 0.66529(19) 0.38270(12) 0.09951(10)
C16 C 0.5138(2) 0.42975(14) 0.13261(12)
H20 H 0.4119 0.3795 0.1399
C17 C 0.5119(3) 0.54995(16) 0.15490(13)
H21 H 0.4078 0.5819 0.1770
C18 C 0.6589(3) 0.62357(14) 0.14546(13)
H22 H 0.6572 0.7060 0.1617
C19 C 0.8090(3) 0.57719(14) 0.11224(13)
H23 H 0.9106 0.6281 0.1054
C20 C 0.8132(2) 0.45633(13) 0.08862(11)
H24 H 0.9166 0.4249 0.0653
loop_
_geom_bond_atom_site_label_1
_geom_bond_atom_site_label_2
_geom_bond_site_symmetry_1
_geom_bond_site_symmetry_2
O1 C1 1_555 1_555
N1 H1 1_555 1_555
H2 N1 1_555 1_555
N2 N1 1_555 1_555
H3 N2 1_555 1_555
N3 N4 1_555 1_555
N4 N5 1_555 1_555
N5 N6 1_555 1_555
N6 H4 1_555 1_555
C1 N2 1_555 1_555
C2 N3 1_555 1_555
C3 N5 1_555 1_555
C4 C3 1_555 1_555
H5 C4 1_555 1_555
H6 C4 1_555 1_555
H7 C4 1_555 1_555
C5 N6 1_555 1_555
C6 C5 1_555 1_555
H8 C6 1_555 1_555
C7 C6 1_555 1_555
H9 C7 1_555 1_555
C8 C7 1_555 1_555
H10 C8 1_555 1_555
C9 C8 1_555 1_555
H11 C9 1_555 1_555
C10 C5 1_555 1_555
H12 C10 1_555 1_555
O2 C11 1_555 1_555
N7 H13 1_555 1_555
H14 N7 1_555 1_555
N8 N7 1_555 1_555
H15 N8 1_555 1_555
N9 N10 1_555 1_555
N10 N11 1_555 1_555
N11 N12 1_555 1_555
N12 H16 1_555 1_555
C11 N8 1_555 1_555
C12 N9 1_555 1_555
C13 N11 1_555 1_555
C14 C13 1_555 1_555
H17 C14 1_555 1_555
H18 C14 1_555 1_555
H19 C14 1_555 1_555
C15 N12 1_555 1_555
C16 C15 1_555 1_555
H20 C16 1_555 1_555
C17 C16 1_555 1_555
H21 C17 1_555 1_555
C18 C17 1_555 1_555
H22 C18 1_555 1_555
C19 C18 1_555 1_555
H23 C19 1_555 1_555
C20 C15 1_555 1_555
H24 C20 1_555 1_555
C1 C2 1_555 1_555
C2 C3 1_555 1_555
C9 C10 1_555 1_555
C11 C12 1_555 1_555
C12 C13 1_555 1_555
C19 C20 1_555 1_555

#END
