
#######################################################################
#
#                 Cambridge Crystallographic Data Centre
#                                CCDC 
#
#######################################################################
#
# If this CIF has been generated from an entry in the Cambridge 
# Structural Database, then it will include bibliographic, chemical, 
# crystal, experimental, refinement or atomic coordinate data resulting 
# from the CCDC's data processing and validation procedures.
#
#######################################################################

data_GOWMIO03
_chemical_formula_moiety         'C18 H15 Cl1 N2 O1'
_chemical_name_systematic        
trans-2-Amino-3-cyano-1-phenyl-4-(p-chlorophenyl)cyclopent-2-en-1-ol
_symmetry_cell_setting           orthorhombic
_symmetry_space_group_name_H-M   'P b c n'
_symmetry_Int_Tables_number      60
_space_group_name_Hall           '-P 2n 2ab'
loop_
_symmetry_equiv_pos_site_id
_symmetry_equiv_pos_as_xyz
1 x,y,z
2 1/2-x,1/2-y,1/2+z
3 1/2+x,1/2-y,-z
4 -x,y,1/2-z
5 -x,-y,-z
6 1/2+x,1/2+y,1/2-z
7 1/2-x,1/2+y,z
8 x,-y,1/2+z
_cell_length_a                   13.370(5)
_cell_length_b                   10.481(5)
_cell_length_c                   23.350(6)
_cell_angle_alpha                90
_cell_angle_beta                 90
_cell_angle_gamma                90
_cell_volume                     3272.06
_exptl_crystal_colour            colorless
_chemical_melting_point          '191-193 deg.C'
_cell_formula_units_Z            8
loop_
_atom_site_label
_atom_site_type_symbol
_atom_site_fract_x
_atom_site_fract_y
_atom_site_fract_z
Cl1 Cl 0.93312(7) 0.0252(1) 0.63117(7)
O1 O 0.2670(2) 0.0926(2) 0.5770(1)
N1 N 0.3438(3) 0.3632(3) 0.5458(2)
N2 N 0.5942(2) 0.2967(4) 0.4751(1)
C1 C 0.3876(2) 0.2582(3) 0.5657(1)
C2 C 0.3338(2) 0.1719(3) 0.6091(1)
C3 C 0.4188(3) 0.0850(4) 0.6292(2)
C4 C 0.4940(2) 0.0773(3) 0.5799(2)
C5 C 0.4753(2) 0.2040(3) 0.5500(1)
C6 C 0.5403(2) 0.2551(4) 0.5086(2)
C7 C 0.6028(2) 0.0593(3) 0.5969(1)
C8 C 0.6507(3) 0.1434(4) 0.6327(2)
C9 C 0.7520(3) 0.1330(5) 0.6436(2)
C10 C 0.8046(3) 0.0369(4) 0.6189(2)
C11 C 0.7598(3) -0.0485(5) 0.5841(2)
C12 C 0.6583(3) -0.0374(4) 0.5730(2)
C13 C 0.2808(2) 0.2428(4) 0.6565(2)
C14 C 0.3311(4) 0.3348(5) 0.6882(2)
C15 C 0.2841(5) 0.3997(5) 0.7315(2)
C16 C 0.1873(5) 0.3742(6) 0.7455(2)
C17 C 0.1367(4) 0.2833(6) 0.7149(2)
C18 C 0.1819(3) 0.2178(4) 0.6703(2)
H1 H 0.378(3) 0.414(3) 0.527(2)
H2 H 0.291(3) 0.398(4) 0.560(2)
H3 H 0.214(3) 0.140(4) 0.557(2)
H4 H 0.395(2) 0.004(3) 0.637(1)
H5 H 0.448(2) 0.125(3) 0.661(1)
H6 H 0.478(2) 0.009(3) 0.552(1)
H7 H 0.613(3) 0.217(4) 0.644(1)
H8 H 0.776(4) 0.183(5) 0.669(2)
H9 H 0.793(3) -0.114(4) 0.564(2)
H10 H 0.627(3) -0.093(3) 0.547(2)
H11 H 0.405(3) 0.342(4) 0.685(2)
H12 H 0.321(4) 0.458(5) 0.750(2)
H13 H 0.151(3) 0.418(4) 0.780(2)
H14 H 0.062(3) 0.260(4) 0.720(2)
H15 H 0.147(3) 0.151(4) 0.645(2)
loop_
_geom_bond_atom_site_label_1
_geom_bond_atom_site_label_2
_geom_bond_site_symmetry_1
_geom_bond_site_symmetry_2
Cl1 C10 1_555 1_555
O1 C2 1_555 1_555
N1 C1 1_555 1_555
N2 C6 1_555 1_555
C1 C2 1_555 1_555
C2 C3 1_555 1_555
C3 C4 1_555 1_555
C4 C5 1_555 1_555
C5 C1 1_555 1_555
C6 C5 1_555 1_555
C7 C4 1_555 1_555
C8 C7 1_555 1_555
C9 C8 1_555 1_555
C10 C9 1_555 1_555
C11 C10 1_555 1_555
C12 C7 1_555 1_555
C13 C2 1_555 1_555
C14 C13 1_555 1_555
C15 C14 1_555 1_555
C16 C15 1_555 1_555
C17 C16 1_555 1_555
C18 C13 1_555 1_555
H1 N1 1_555 1_555
H2 N1 1_555 1_555
H3 O1 1_555 1_555
H4 C3 1_555 1_555
H5 C3 1_555 1_555
H6 C4 1_555 1_555
H7 C8 1_555 1_555
H8 C9 1_555 1_555
H9 C11 1_555 1_555
H10 C12 1_555 1_555
H11 C14 1_555 1_555
H12 C15 1_555 1_555
H13 C16 1_555 1_555
H14 C17 1_555 1_555
H15 C18 1_555 1_555
C11 C12 1_555 1_555
C17 C18 1_555 1_555

#END
