
#######################################################################
#
#                 Cambridge Crystallographic Data Centre
#                                CCDC 
#
#######################################################################
#
# If this CIF has been generated from an entry in the Cambridge 
# Structural Database, then it will include bibliographic, chemical, 
# crystal, experimental, refinement or atomic coordinate data resulting 
# from the CCDC's data processing and validation procedures.
#
#######################################################################

data_GOYCAY
_chemical_formula_moiety         'C20 H40 N8 O4,1.5(H2 O1)'
_chemical_name_systematic        
'1,4,7,10-tetrakis((N-Methylcarbamoyl)methyl)-1,4,7,10-tetra-azacyclodecane sesquihydrate'
_symmetry_cell_setting           monoclinic
_symmetry_space_group_name_H-M   'C 2/c'
_symmetry_Int_Tables_number      15
_space_group_name_Hall           '-C 2yn'
loop_
_symmetry_equiv_pos_site_id
_symmetry_equiv_pos_as_xyz
1 x,y,z
2 1/2+x,1/2+y,z
3 x,-y,1/2+z
4 1/2+x,1/2-y,1/2+z
5 -x,-y,-z
6 1/2-x,1/2-y,-z
7 -x,y,1/2-z
8 1/2-x,1/2+y,1/2-z
_cell_length_a                   32.517(7)
_cell_length_b                   8.7230(17)
_cell_length_c                   18.638(4)
_cell_angle_alpha                90
_cell_angle_beta                 106.13(3)
_cell_angle_gamma                90
_cell_volume                     5078.48
_exptl_crystal_colour            colorless
_chemical_melting_point          207-208deg.C
_cell_formula_units_Z            8
loop_
_atom_site_label
_atom_site_type_symbol
_atom_site_fract_x
_atom_site_fract_y
_atom_site_fract_z
O1 O 0.13819(13) 0.3830(4) 0.1492(2)
O2 O 0.06953(13) 0.1110(4) -0.2619(2)
O3 O 0.23999(13) -0.4675(4) -0.1117(2)
O4 O 0.01710(13) -0.2931(4) -0.0596(2)
N1 N 0.12592(14) 0.1447(4) 0.0371(2)
N2 N 0.16097(14) 0.0880(5) -0.0977(2)
N3 N 0.17457(13) -0.2572(5) -0.0952(2)
N4 N 0.12899(13) -0.1973(5) 0.0264(2)
N5 N 0.06705(15) 0.4154(5) 0.1259(2)
H1 H 0.0417 0.3810 0.1009
N6 N 0.09589(14) -0.0799(5) -0.1801(2)
H2 H 0.1159 -0.1080 -0.1399
N7 N 0.20414(15) -0.5154(5) -0.2312(2)
H3 H 0.1810 -0.4972 -0.2680
N8 N 0.05313(14) -0.0669(5) -0.0499(2)
H4 H 0.0777 -0.0194 -0.0318
C1 C 0.15184(18) 0.2545(6) 0.0080(3)
H5 H 0.1695 0.3149 0.0504
H6 H 0.1322 0.3267 -0.0259
C2 C 0.18123(19) 0.1852(6) -0.0337(3)
H7 H 0.1962 0.2698 -0.0514
H8 H 0.2032 0.1236 0.0020
C3 C 0.19359(18) 0.0063(6) -0.1247(3)
H9 H 0.2185 0.0747 -0.1200
H10 H 0.1815 -0.0186 -0.1782
C4 C 0.20854(18) -0.1400(6) -0.0817(3)
H11 H 0.2333 -0.1815 -0.0964
H12 H 0.2182 -0.1164 -0.0276
C5 C 0.17644(18) -0.3581(6) -0.0317(3)
H13 H 0.2048 -0.4086 -0.0171
H14 H 0.1546 -0.4394 -0.0481
C6 C 0.16936(18) -0.2812(6) 0.0366(3)
H15 H 0.1710 -0.3606 0.0753
H16 H 0.1932 -0.2086 0.0564
C7 C 0.12950(18) -0.1105(6) 0.0944(3)
H17 H 0.1450 -0.1705 0.1387
H18 H 0.0997 -0.0962 0.0969
C8 C 0.15053(17) 0.0445(6) 0.0967(3)
H19 H 0.1530 0.0932 0.1457
H20 H 0.1798 0.0311 0.0914
C9 C 0.09062(18) 0.2202(6) 0.0559(3)
H21 H 0.0738 0.1406 0.0729
H22 H 0.0718 0.2648 0.0094
C10 C 0.1011(2) 0.3477(6) 0.1155(3)
C11 C 0.0692(2) 0.5456(7) 0.1771(3)
H23 H 0.0401 0.5778 0.1758
H24 H 0.0843 0.6312 0.1616
H25 H 0.0846 0.5145 0.2280
C12 C 0.13028(18) 0.1679(6) -0.1577(3)
H26 H 0.1458 0.2174 -0.1903
H27 H 0.1164 0.2498 -0.1359
C13 C 0.09588(18) 0.0638(6) -0.2050(3)
C14 C 0.01659(19) 0.0217(7) -0.0915(3)
H28 H 0.0250 0.1291 -0.0936
H29 H -0.0063 0.0150 -0.0668
H30 H 0.0063 -0.0191 -0.1424
C15 C 0.17110(18) -0.3413(6) -0.1633(3)
H31 H 0.1671 -0.2664 -0.2046
H32 H 0.1449 -0.4047 -0.1737
C16 C 0.20875(19) -0.4467(6) -0.1653(3)
C17 C 0.2366(2) -0.6199(7) -0.2435(3)
H33 H 0.2274 -0.6590 -0.2948
H34 H 0.2404 -0.7057 -0.2084
H35 H 0.2638 -0.5650 -0.2357
C18 C 0.09172(17) -0.2964(6) 0.0027(3)
H36 H 0.0873 -0.3477 0.0473
H37 H 0.0979 -0.3772 -0.0302
C19 C 0.05124(18) -0.2181(6) -0.0377(3)
C20 C 0.0639(2) -0.1908(7) -0.2174(3)
H38 H 0.0695 -0.2889 -0.1909
H39 H 0.0652 -0.2048 -0.2689
H40 H 0.0354 -0.1536 -0.2177
O5 O 0.0000 0.2792(6) -0.2500
H41 H 0.0227 0.2121 -0.2486
H41F H -0.0227 0.2121 -0.2514
O6 O 0.05113(14) -0.5685(5) -0.1200(2)
H42 H 0.0237 -0.5841 -0.1587
H43 H 0.0319 -0.4858 -0.0986
loop_
_geom_bond_atom_site_label_1
_geom_bond_atom_site_label_2
_geom_bond_site_symmetry_1
_geom_bond_site_symmetry_2
O1 C10 1_555 1_555
O2 C13 1_555 1_555
O3 C16 1_555 1_555
O4 C19 1_555 1_555
N1 C1 1_555 1_555
N2 C2 1_555 1_555
N3 C4 1_555 1_555
N4 C6 1_555 1_555
N5 H1 1_555 1_555
N6 H2 1_555 1_555
N7 H3 1_555 1_555
N8 H4 1_555 1_555
C1 H5 1_555 1_555
H6 C1 1_555 1_555
C2 C1 1_555 1_555
H7 C2 1_555 1_555
H8 C2 1_555 1_555
C3 N2 1_555 1_555
H9 C3 1_555 1_555
H10 C3 1_555 1_555
C4 C3 1_555 1_555
H11 C4 1_555 1_555
H12 C4 1_555 1_555
C5 N3 1_555 1_555
H13 C5 1_555 1_555
H14 C5 1_555 1_555
C6 C5 1_555 1_555
H15 C6 1_555 1_555
H16 C6 1_555 1_555
C7 N4 1_555 1_555
H17 C7 1_555 1_555
H18 C7 1_555 1_555
C8 N1 1_555 1_555
H19 C8 1_555 1_555
H20 C8 1_555 1_555
C9 N1 1_555 1_555
H21 C9 1_555 1_555
H22 C9 1_555 1_555
C10 N5 1_555 1_555
C11 N5 1_555 1_555
H23 C11 1_555 1_555
H24 C11 1_555 1_555
H25 C11 1_555 1_555
C12 N2 1_555 1_555
H26 C12 1_555 1_555
H27 C12 1_555 1_555
C13 N6 1_555 1_555
C14 N8 1_555 1_555
H28 C14 1_555 1_555
H29 C14 1_555 1_555
H30 C14 1_555 1_555
C15 N3 1_555 1_555
H31 C15 1_555 1_555
H32 C15 1_555 1_555
C16 N7 1_555 1_555
C17 N7 1_555 1_555
H33 C17 1_555 1_555
H34 C17 1_555 1_555
H35 C17 1_555 1_555
C18 N4 1_555 1_555
H36 C18 1_555 1_555
H37 C18 1_555 1_555
C19 N8 1_555 1_555
C20 N6 1_555 1_555
H38 C20 1_555 1_555
H39 C20 1_555 1_555
H40 C20 1_555 1_555
O5 H41 1_555 1_555
O6 H42 1_555 1_555
H43 O6 1_555 1_555
H41F O5 1_555 1_555
C7 C8 1_555 1_555
C9 C10 1_555 1_555
C12 C13 1_555 1_555
C15 C16 1_555 1_555
C18 C19 1_555 1_555

#END
