
#######################################################################
#
#                 Cambridge Crystallographic Data Centre
#                                CCDC 
#
#######################################################################
#
# If this CIF has been generated from an entry in the Cambridge 
# Structural Database, then it will include bibliographic, chemical, 
# crystal, experimental, refinement or atomic coordinate data resulting 
# from the CCDC's data processing and validation procedures.
#
#######################################################################

data_GOYMIQ
_chemical_formula_moiety         'C27 H38 B1 Li1 N6'
_chemical_name_systematic        
Phenyl-tris(3-t-butylpyrazol-1-yl)borato-lithium
_symmetry_cell_setting           monoclinic
_symmetry_space_group_name_H-M   'C 2/c'
_symmetry_Int_Tables_number      15
_space_group_name_Hall           '-C 2yn'
loop_
_symmetry_equiv_pos_site_id
_symmetry_equiv_pos_as_xyz
1 x,y,z
2 1/2+x,1/2+y,z
3 x,-y,1/2+z
4 1/2+x,1/2-y,1/2+z
5 -x,-y,-z
6 1/2-x,1/2-y,-z
7 -x,y,1/2-z
8 1/2-x,1/2+y,1/2-z
_cell_length_a                   18.6329(10)
_cell_length_b                   16.1563(9)
_cell_length_c                   18.7233(10)
_cell_angle_alpha                90
_cell_angle_beta                 90.4540(10)
_cell_angle_gamma                90
_cell_volume                     5636.26
_exptl_crystal_colour            white
_cell_formula_units_Z            8
_exptl_crystal_recrystallization_method pentane
loop_
_atom_site_label
_atom_site_type_symbol
_atom_site_fract_x
_atom_site_fract_y
_atom_site_fract_z
Li1 Li 0.25837(12) 0.51339(15) 0.27919(13)
N1 N 0.12755(6) 0.48690(7) 0.34368(6)
N2 N 0.17708(6) 0.54937(7) 0.33892(6)
N3 N 0.22446(6) 0.37479(7) 0.35332(6)
N4 N 0.28479(6) 0.41978(7) 0.33816(6)
N5 N 0.15291(6) 0.39913(7) 0.23775(6)
N6 N 0.20196(6) 0.45142(7) 0.20687(6)
C1 C 0.06233(8) 0.52053(10) 0.35463(9)
H1 H 0.0190 0.4910 0.3584
C2 C 0.06951(9) 0.60487(10) 0.35938(11)
H2 H 0.0331 0.6439 0.3678
C3 C 0.14260(8) 0.62033(9) 0.34898(8)
C4 C 0.18205(9) 0.70236(9) 0.34833(9)
C5 C 0.15264(14) 0.75622(13) 0.28764(12)
H3 H 0.1625 0.7299 0.2422
H4 H 0.1756 0.8101 0.2892
H5 H 0.1012 0.7628 0.2931
C6 C 0.26217(11) 0.68920(13) 0.33823(17)
H6 H 0.2802 0.6518 0.3747
H7 H 0.2869 0.7419 0.3421
H8 H 0.2706 0.6655 0.2914
C7 C 0.16906(14) 0.74721(12) 0.41908(12)
H9 H 0.1942 0.7998 0.4190
H10 H 0.1868 0.7134 0.4583
H11 H 0.1180 0.7568 0.4248
C8 C 0.24226(7) 0.31368(9) 0.39949(8)
H12 H 0.2105 0.2740 0.4180
C9 C 0.31423(8) 0.31894(9) 0.41490(8)
H13 H 0.3412 0.2847 0.4455
C10 C 0.33866(7) 0.38636(8) 0.37511(7)
C11 C 0.41324(7) 0.42321(10) 0.37150(8)
C12 C 0.46809(9) 0.35416(14) 0.35932(14)
H14 H 0.5160 0.3775 0.3589
H15 H 0.4583 0.3275 0.3139
H16 H 0.4647 0.3137 0.3974
C13 C 0.41825(9) 0.48625(13) 0.31117(11)
H17 H 0.4673 0.5059 0.3076
H18 H 0.3867 0.5326 0.3211
H19 H 0.4039 0.4604 0.2665
C14 C 0.43040(11) 0.46662(16) 0.44195(11)
H20 H 0.4784 0.4899 0.4401
H21 H 0.4279 0.4270 0.4808
H22 H 0.3959 0.5106 0.4498
C15 C 0.10597(7) 0.37337(9) 0.18713(8)
H23 H 0.0666 0.3381 0.1948
C16 C 0.12506(8) 0.40696(10) 0.12285(8)
H24 H 0.1026 0.3987 0.0783
C17 C 0.18503(8) 0.45599(9) 0.13765(7)
C18 C 0.22413(10) 0.51427(10) 0.08812(8)
C19 C 0.17789(19) 0.59227(14) 0.07992(15)
H25 H 0.2023 0.6317 0.0495
H26 H 0.1701 0.6168 0.1265
H27 H 0.1320 0.5776 0.0586
C20 C 0.29740(15) 0.5372(2) 0.11792(12)
H28 H 0.3223 0.5719 0.0839
H29 H 0.3251 0.4872 0.1264
H30 H 0.2917 0.5669 0.1625
C21 C 0.23251(13) 0.47556(12) 0.01476(9)
H31 H 0.2553 0.5149 -0.0170
H32 H 0.1856 0.4608 -0.0042
H33 H 0.2620 0.4262 0.0186
C22 C 0.09332(7) 0.32764(9) 0.35094(8)
C23 C 0.08484(9) 0.25061(9) 0.31773(9)
H34 H 0.1089 0.2402 0.2747
C24 C 0.04184(10) 0.18914(11) 0.34662(12)
H35 H 0.0369 0.1382 0.3229
C25 C 0.00635(10) 0.20246(13) 0.40990(12)
H36 H -0.0237 0.1614 0.4289
C26 C 0.01548(9) 0.27641(13) 0.44489(11)
H37 H -0.0075 0.2854 0.4887
C27 C 0.05841(8) 0.33809(10) 0.41610(8)
H38 H 0.0641 0.3881 0.4411
B1 B 0.14853(8) 0.39636(9) 0.32133(8)
loop_
_geom_bond_atom_site_label_1
_geom_bond_atom_site_label_2
_geom_bond_site_symmetry_1
_geom_bond_site_symmetry_2
Li1 N2 1_555 1_555
N1 N2 1_555 1_555
N2 C3 1_555 1_555
N3 N4 1_555 1_555
N4 Li1 1_555 1_555
N5 N6 1_555 1_555
N6 Li1 1_555 1_555
C1 N1 1_555 1_555
H1 C1 1_555 1_555
C2 C1 1_555 1_555
H2 C2 1_555 1_555
C3 C2 1_555 1_555
C4 C3 1_555 1_555
C5 C4 1_555 1_555
H3 C5 1_555 1_555
H4 C5 1_555 1_555
H5 C5 1_555 1_555
C6 C4 1_555 1_555
H6 C6 1_555 1_555
H7 C6 1_555 1_555
H8 C6 1_555 1_555
C7 C4 1_555 1_555
H9 C7 1_555 1_555
H10 C7 1_555 1_555
H11 C7 1_555 1_555
C8 N3 1_555 1_555
H12 C8 1_555 1_555
C9 C8 1_555 1_555
H13 C9 1_555 1_555
C10 N4 1_555 1_555
C11 C10 1_555 1_555
C12 C11 1_555 1_555
H14 C12 1_555 1_555
H15 C12 1_555 1_555
H16 C12 1_555 1_555
C13 C11 1_555 1_555
H17 C13 1_555 1_555
H18 C13 1_555 1_555
H19 C13 1_555 1_555
C14 C11 1_555 1_555
H20 C14 1_555 1_555
H21 C14 1_555 1_555
H22 C14 1_555 1_555
C15 N5 1_555 1_555
H23 C15 1_555 1_555
C16 C15 1_555 1_555
H24 C16 1_555 1_555
C17 N6 1_555 1_555
C18 C17 1_555 1_555
C19 C18 1_555 1_555
H25 C19 1_555 1_555
H26 C19 1_555 1_555
H27 C19 1_555 1_555
C20 C18 1_555 1_555
H28 C20 1_555 1_555
H29 C20 1_555 1_555
H30 C20 1_555 1_555
C21 C18 1_555 1_555
H31 C21 1_555 1_555
H32 C21 1_555 1_555
H33 C21 1_555 1_555
C22 C23 1_555 1_555
C23 H34 1_555 1_555
C24 C23 1_555 1_555
H35 C24 1_555 1_555
C25 C24 1_555 1_555
H36 C25 1_555 1_555
C26 C25 1_555 1_555
H37 C26 1_555 1_555
C27 C22 1_555 1_555
H38 C27 1_555 1_555
B1 N1 1_555 1_555
N3 B1 1_555 1_555
N5 B1 1_555 1_555
C9 C10 1_555 1_555
C16 C17 1_555 1_555
C22 B1 1_555 1_555
C26 C27 1_555 1_555

#END
