
#######################################################################
#
#                 Cambridge Crystallographic Data Centre
#                                CCDC 
#
#######################################################################
#
# If this CIF has been generated from an entry in the Cambridge 
# Structural Database, then it will include bibliographic, chemical, 
# crystal, experimental, refinement or atomic coordinate data resulting 
# from the CCDC's data processing and validation procedures.
#
#######################################################################

data_GOYMOW
_chemical_formula_moiety         'C27 H39 B1 N6'
_chemical_name_systematic        Phenyl-tris(3-t-butylpyrazolyl)borate
_symmetry_cell_setting           triclinic
_symmetry_space_group_name_H-M   'P -1'
_symmetry_Int_Tables_number      2
_space_group_name_Hall           '-P 1'
loop_
_symmetry_equiv_pos_site_id
_symmetry_equiv_pos_as_xyz
1 x,y,z
2 -x,-y,-z
_cell_length_a                   11.6639(8)
_cell_length_b                   12.1658(8)
_cell_length_c                   12.2480(8)
_cell_angle_alpha                114.0030(10)
_cell_angle_beta                 101.4090(10)
_cell_angle_gamma                109.4400(10)
_cell_volume                     1380.66
_exptl_crystal_colour            colorless
_cell_formula_units_Z            2
_exptl_crystal_recrystallization_method pentane
loop_
_atom_site_label
_atom_site_type_symbol
_atom_site_fract_x
_atom_site_fract_y
_atom_site_fract_z
B1 B 0.6026(3) 0.6103(3) 0.2883(3)
N1 N 0.6452(2) 0.6718(2) 0.4387(2)
N2 N 0.6720(2) 0.8014(2) 0.5166(2)
H1 H 0.6868(28) 0.8493(30) 0.4821(29)
N3 N 0.7013(2) 0.7135(2) 0.2659(2)
N4 N 0.7343(2) 0.8491(2) 0.3342(2)
N5 N 0.4667(2) 0.6033(2) 0.2392(2)
N6 N 0.3677(2) 0.5458(2) 0.2734(2)
C1 C 0.6337(3) 0.6129(3) 0.5102(3)
H2 H 0.6132(3) 0.5207(3) 0.4801(3)
C2 C 0.6559(3) 0.7058(3) 0.6336(3)
H3 H 0.6545(3) 0.6903(3) 0.7035(3)
C3 C 0.6808(3) 0.8265(3) 0.6361(3)
C4 C 0.7060(3) 0.9613(3) 0.7404(3)
C5 C 0.5736(4) 0.9592(4) 0.7340(4)
H4 H 0.5878(4) 1.0448(12) 0.8051(16)
H5 H 0.5198(11) 0.8836(17) 0.7419(27)
H6 H 0.5279(12) 0.9479(28) 0.6510(11)
C6 C 0.7790(4) 0.9845(4) 0.8746(3)
H7 H 0.7924(22) 1.0710(13) 0.9434(3)
H8 H 0.8647(11) 0.9864(26) 0.8801(10)
H9 H 0.7260(12) 0.9106(14) 0.8850(11)
C7 C 0.7918(4) 1.0758(3) 0.7265(4)
H10 H 0.8178(21) 1.1630(3) 0.8030(12)
H11 H 0.7422(9) 1.0711(15) 0.6488(14)
H12 H 0.8708(12) 1.0671(15) 0.7187(24)
C8 C 0.7534(3) 0.6903(3) 0.1758(3)
H13 H 0.7443(3) 0.6048(3) 0.1163(3)
C9 C 0.8222(3) 0.8117(3) 0.1844(3)
H14 H 0.8693(3) 0.8267(3) 0.1326(3)
C10 C 0.8086(2) 0.9082(3) 0.2849(3)
C11 C 0.8652(3) 1.0600(3) 0.3405(3)
C12 C 0.9191(4) 1.0978(4) 0.2500(4)
H15 H 0.9517(25) 1.1954(6) 0.2843(15)
H16 H 0.8487(8) 1.0474(21) 0.1637(8)
H17 H 0.9915(18) 1.0750(26) 0.2438(21)
C13 C 0.9757(4) 1.1349(3) 0.4732(4)
H18 H 1.0122(18) 1.2329(3) 0.5083(12)
H19 H 1.0453(12) 1.1078(20) 0.4650(5)
H20 H 0.9409(6) 1.1121(21) 0.5319(8)
C14 C 0.7580(3) 1.1031(3) 0.3542(4)
H21 H 0.7952(6) 1.2013(5) 0.3903(23)
H22 H 0.7226(17) 1.0796(23) 0.4123(19)
H23 H 0.6870(12) 1.0560(19) 0.2689(5)
C15 C 0.4226(3) 0.6412(3) 0.1571(3)
H24 H 0.4728(3) 0.6829(3) 0.1199(3)
C16 C 0.2929(3) 0.6092(3) 0.1363(3)
H25 H 0.2357(3) 0.6233(3) 0.0826(3)
C17 C 0.2633(2) 0.5509(3) 0.2120(3)
C18 C 0.1320(3) 0.4928(3) 0.2235(3)
C19 C 0.0562(3) 0.5704(4) 0.2083(5)
H26 H -0.0296(12) 0.5302(18) 0.2127(27)
H27 H 0.0430(23) 0.5651(23) 0.1244(12)
H28 H 0.1067(13) 0.6656(8) 0.2782(15)
C20 C 0.0513(3) 0.3442(3) 0.1167(4)
H29 H -0.0351(10) 0.3069(8) 0.1210(16)
H30 H 0.0976(12) 0.2933(6) 0.1285(15)
H31 H 0.0396(22) 0.3367(4) 0.0321(4)
C21 C 0.1526(3) 0.5034(4) 0.3551(3)
H32 H 0.1921(21) 0.4457(18) 0.3621(9)
H33 H 0.0675(4) 0.4736(23) 0.3636(10)
H34 H 0.2115(19) 0.5978(5) 0.4242(3)
C22 C 0.6029(2) 0.4664(3) 0.2233(3)
C23 C 0.7137(3) 0.4514(3) 0.2666(3)
H35 H 0.7898(3) 0.5280(3) 0.3383(3)
C24 C 0.7163(3) 0.3283(3) 0.2082(4)
H36 H 0.7926(3) 0.3212(3) 0.2413(4)
C25 C 0.6082(4) 0.2161(3) 0.1021(3)
H37 H 0.6100(4) 0.1319(3) 0.0611(3)
C26 C 0.4975(3) 0.2279(3) 0.0561(3)
H38 H 0.4227(3) 0.1513(3) -0.0171(3)
C27 C 0.4944(3) 0.3505(3) 0.1158(3)
H39 H 0.4169(3) 0.3562(3) 0.0830(3)
loop_
_geom_bond_atom_site_label_1
_geom_bond_atom_site_label_2
_geom_bond_site_symmetry_1
_geom_bond_site_symmetry_2
B1 N1 1_555 1_555
N1 N2 1_555 1_555
N2 H1 1_555 1_555
N3 B1 1_555 1_555
N4 N3 1_555 1_555
N5 B1 1_555 1_555
N6 N5 1_555 1_555
C1 N1 1_555 1_555
H2 C1 1_555 1_555
C2 C1 1_555 1_555
H3 C2 1_555 1_555
C3 N2 1_555 1_555
C4 C3 1_555 1_555
C5 C4 1_555 1_555
H4 C5 1_555 1_555
H5 C5 1_555 1_555
H6 C5 1_555 1_555
C6 C4 1_555 1_555
H7 C6 1_555 1_555
H8 C6 1_555 1_555
H9 C6 1_555 1_555
C7 C4 1_555 1_555
H10 C7 1_555 1_555
H11 C7 1_555 1_555
H12 C7 1_555 1_555
C8 N3 1_555 1_555
H13 C8 1_555 1_555
C9 C8 1_555 1_555
H14 C9 1_555 1_555
C10 N4 1_555 1_555
C11 C10 1_555 1_555
C12 C11 1_555 1_555
H15 C12 1_555 1_555
H16 C12 1_555 1_555
H17 C12 1_555 1_555
C13 C11 1_555 1_555
H18 C13 1_555 1_555
H19 C13 1_555 1_555
H20 C13 1_555 1_555
C14 C11 1_555 1_555
H21 C14 1_555 1_555
H22 C14 1_555 1_555
H23 C14 1_555 1_555
C15 N5 1_555 1_555
H24 C15 1_555 1_555
C16 C15 1_555 1_555
H25 C16 1_555 1_555
C17 N6 1_555 1_555
C18 C17 1_555 1_555
C19 C18 1_555 1_555
H26 C19 1_555 1_555
H27 C19 1_555 1_555
H28 C19 1_555 1_555
C20 C18 1_555 1_555
H29 C20 1_555 1_555
H30 C20 1_555 1_555
H31 C20 1_555 1_555
C21 C18 1_555 1_555
H32 C21 1_555 1_555
H33 C21 1_555 1_555
H34 C21 1_555 1_555
C22 B1 1_555 1_555
C23 C22 1_555 1_555
H35 C23 1_555 1_555
C24 C23 1_555 1_555
H36 C24 1_555 1_555
C25 C24 1_555 1_555
H37 C25 1_555 1_555
C26 C25 1_555 1_555
H38 C26 1_555 1_555
C27 C22 1_555 1_555
H39 C27 1_555 1_555
C2 C3 1_555 1_555
C9 C10 1_555 1_555
C16 C17 1_555 1_555
C26 C27 1_555 1_555

#END
