
#######################################################################
#
#                 Cambridge Crystallographic Data Centre
#                                CCDC 
#
#######################################################################
#
# If this CIF has been generated from an entry in the Cambridge 
# Structural Database, then it will include bibliographic, chemical, 
# crystal, experimental, refinement or atomic coordinate data resulting 
# from the CCDC's data processing and validation procedures.
#
#######################################################################

data_GOZBUU
_chemical_formula_moiety         'C33 H23 N5 P2'
_chemical_name_systematic        
2,6-bis(3,5-diphenyl-1H-1,2,4-diazaphosphol-1-yl)pyridine
_symmetry_cell_setting           triclinic
_symmetry_space_group_name_H-M   'P -1'
_symmetry_Int_Tables_number      2
_space_group_name_Hall           '-P 1'
loop_
_symmetry_equiv_pos_site_id
_symmetry_equiv_pos_as_xyz
1 x,y,z
2 -x,-y,-z
_cell_length_a                   9.841(3)
_cell_length_b                   10.589(3)
_cell_length_c                   15.071(4)
_cell_angle_alpha                108.855(4)
_cell_angle_beta                 98.487(5)
_cell_angle_gamma                103.101(5)
_cell_volume                     1405.37
_exptl_crystal_colour            colorless
_exptl_crystal_description       bar
_cell_formula_units_Z            2
loop_
_atom_site_label
_atom_site_type_symbol
_atom_site_fract_x
_atom_site_fract_y
_atom_site_fract_z
C1 C 0.0922(4) 0.7015(4) 0.2306(3)
H1 H 0.1679 0.7261 0.2032
C2 C 0.0392(6) 0.5646(4) 0.2230(3)
H2 H 0.0802 0.4978 0.1907
C3 C -0.0722(6) 0.5268(4) 0.2621(3)
H3 H -0.1065 0.4347 0.2570
C4 C -0.1330(5) 0.6238(5) 0.3085(3)
H4 H -0.2105 0.5976 0.3339
C5 C -0.0803(4) 0.7616(4) 0.3183(3)
H5 H -0.1210 0.8279 0.3516
C6 C 0.0326(4) 0.8012(3) 0.2789(2)
C7 C 0.0930(3) 0.9506(3) 0.2949(2)
C8 C 0.1972(3) 1.1969(3) 0.3398(2)
C9 C 0.2549(4) 1.3497(3) 0.3809(2)
C10 C 0.2071(6) 1.4253(4) 0.4563(3)
H6 H 0.1372 1.3794 0.4798
C11 C 0.2624(8) 1.5693(5) 0.4975(4)
H7 H 0.2303 1.6197 0.5488
C12 C 0.3642(7) 1.6376(5) 0.4629(4)
H8 H 0.4022 1.7342 0.4910
C13 C 0.4087(7) 1.5647(5) 0.3884(4)
H9 H 0.4774 1.6112 0.3645
C14 C 0.3537(5) 1.4212(4) 0.3466(3)
H10 H 0.3848 1.3725 0.2941
C15 C 0.0800(3) 0.9140(3) 0.1203(2)
C16 C -0.0636(3) 0.8752(3) 0.0771(2)
H11 H -0.1315 0.8873 0.1135
C17 C -0.1034(3) 0.8177(3) -0.0223(2)
H12 H -0.1993 0.7916 -0.0548
C18 C 0.0011(3) 0.7992(3) -0.0729(2)
H13 H -0.0223 0.7614 -0.1400
C19 C 0.1411(3) 0.8385(3) -0.02082(19)
C20 C 0.2828(4) 0.6103(4) 0.0195(3)
H14 H 0.1902 0.5881 -0.0175
C21 C 0.3118(6) 0.5373(4) 0.0775(4)
H15 H 0.2384 0.4658 0.0791
C22 C 0.4471(7) 0.5689(5) 0.1324(3)
H16 H 0.4658 0.5185 0.1708
C23 C 0.5544(6) 0.6742(5) 0.1308(3)
H17 H 0.6463 0.6968 0.1689
C24 C 0.5272(4) 0.7470(4) 0.0733(2)
H18 H 0.6015 0.8183 0.0724
C25 C 0.3909(3) 0.7161(3) 0.0165(2)
C26 C 0.3716(3) 0.7864(3) -0.0519(2)
C27 C 0.3579(3) 0.8735(3) -0.1806(2)
C28 C 0.3690(3) 0.9227(3) -0.2611(2)
C29 C 0.5015(4) 0.9884(4) -0.2707(2)
H19 H 0.5846 0.9984 -0.2275
C30 C 0.5116(4) 1.0392(4) -0.3436(2)
H20 H 0.6012 1.0846 -0.3486
C31 C 0.3900(4) 1.0229(4) -0.4087(2)
H21 H 0.3967 1.0573 -0.4579
C32 C 0.2587(4) 0.9557(4) -0.4010(2)
H22 H 0.1763 0.9425 -0.4463
C33 C 0.2470(4) 0.9074(4) -0.3271(2)
H23 H 0.1569 0.8643 -0.3216
N1 N 0.1838(2) 0.8964(2) 0.07467(16)
N2 N 0.2429(3) 0.8751(2) -0.14551(16)
N3 N 0.2525(3) 0.8264(2) -0.07187(16)
N4 N 0.1270(3) 0.9922(2) 0.22312(16)
N5 N 0.1844(3) 1.1317(2) 0.24657(17)
P1 P 0.13915(10) 1.08977(9) 0.40333(6)
P2 P 0.48456(9) 0.80951(10) -0.12620(6)
loop_
_geom_bond_atom_site_label_1
_geom_bond_atom_site_label_2
_geom_bond_site_symmetry_1
_geom_bond_site_symmetry_2
C1 H1 1_555 1_555
C2 C1 1_555 1_555
H2 C2 1_555 1_555
C3 C2 1_555 1_555
H3 C3 1_555 1_555
C4 C3 1_555 1_555
H4 C4 1_555 1_555
C5 C4 1_555 1_555
H5 C5 1_555 1_555
C6 C1 1_555 1_555
C7 C6 1_555 1_555
C8 C9 1_555 1_555
C9 C10 1_555 1_555
C10 H6 1_555 1_555
C11 C10 1_555 1_555
H7 C11 1_555 1_555
C12 C11 1_555 1_555
H8 C12 1_555 1_555
C13 C12 1_555 1_555
H9 C13 1_555 1_555
C14 C9 1_555 1_555
H10 C14 1_555 1_555
C15 C16 1_555 1_555
C16 H11 1_555 1_555
C17 C16 1_555 1_555
H12 C17 1_555 1_555
C18 C17 1_555 1_555
H13 C18 1_555 1_555
C19 C18 1_555 1_555
C20 H14 1_555 1_555
C21 C20 1_555 1_555
H15 C21 1_555 1_555
C22 C21 1_555 1_555
H16 C22 1_555 1_555
C23 C22 1_555 1_555
H17 C23 1_555 1_555
C24 C23 1_555 1_555
H18 C24 1_555 1_555
C25 C20 1_555 1_555
C26 C25 1_555 1_555
C27 C28 1_555 1_555
C28 C29 1_555 1_555
C29 H19 1_555 1_555
C30 C29 1_555 1_555
H20 C30 1_555 1_555
C31 C30 1_555 1_555
H21 C31 1_555 1_555
C32 C31 1_555 1_555
H22 C32 1_555 1_555
C33 C28 1_555 1_555
H23 C33 1_555 1_555
N1 C15 1_555 1_555
N2 C27 1_555 1_555
N3 C19 1_555 1_555
N4 C7 1_555 1_555
N5 C8 1_555 1_555
P1 C7 1_555 1_555
P2 C26 1_555 1_555
C5 C6 1_555 1_555
C8 P1 1_555 1_555
C13 C14 1_555 1_555
C15 N4 1_555 1_555
C19 N1 1_555 1_555
C24 C25 1_555 1_555
C26 N3 1_555 1_555
C27 P2 1_555 1_555
C32 C33 1_555 1_555
N2 N3 1_555 1_555
N4 N5 1_555 1_555

#END
