
#######################################################################
#
#                 Cambridge Crystallographic Data Centre
#                                CCDC 
#
#######################################################################
#
# If this CIF has been generated from an entry in the Cambridge 
# Structural Database, then it will include bibliographic, chemical, 
# crystal, experimental, refinement or atomic coordinate data resulting 
# from the CCDC's data processing and validation procedures.
#
#######################################################################

data_GOZCIJ
_chemical_formula_moiety         'C6 H4 Cl1 N4 P1'
_chemical_name_systematic        
2-chloro-6-(1H-1,2,4-diazaphosphol-1-yl)pyrazine
_symmetry_cell_setting           monoclinic
_symmetry_space_group_name_H-M   'C 2/c'
_symmetry_Int_Tables_number      15
_space_group_name_Hall           '-C 2yn'
loop_
_symmetry_equiv_pos_site_id
_symmetry_equiv_pos_as_xyz
1 x,y,z
2 -x,y,1/2-z
3 1/2+x,1/2+y,z
4 1/2-x,1/2+y,1/2-z
5 -x,-y,-z
6 x,-y,1/2+z
7 1/2-x,1/2-y,-z
8 1/2+x,1/2-y,1/2+z
_cell_length_a                   14.8822(14)
_cell_length_b                   4.9374(4)
_cell_length_c                   22.026(2)
_cell_angle_alpha                90
_cell_angle_beta                 92.784(9)
_cell_angle_gamma                90
_cell_volume                     1616.55
_exptl_crystal_description       prismatic
_cell_formula_units_Z            8
loop_
_atom_site_label
_atom_site_type_symbol
_atom_site_fract_x
_atom_site_fract_y
_atom_site_fract_z
Cl1 Cl 0.93356(5) 1.16395(12) 0.32226(3)
P1 P 0.61601(5) 0.14897(14) 0.30735(3)
N1 N 0.89895(16) 0.7588(5) 0.47310(10)
N2 N 0.82836(13) 0.7714(4) 0.35362(9)
N3 N 0.72974(13) 0.4203(4) 0.37385(8)
N4 N 0.69383(15) 0.2519(5) 0.41510(9)
C1 C 0.89338(17) 0.9344(5) 0.37375(11)
C2 C 0.92958(19) 0.9324(5) 0.43253(12)
H1 H 0.9755 1.0523 0.4440
C3 C 0.83304(19) 0.5925(5) 0.45428(11)
H2 H 0.8098 0.4696 0.4814
C4 C 0.79856(16) 0.6003(4) 0.39475(11)
C5 C 0.63329(19) 0.0999(5) 0.38603(12)
H3 H 0.6007 -0.0293 0.4064
C6 C 0.69674(17) 0.3935(5) 0.31584(11)
H4 H 0.7161 0.4977 0.2838
loop_
_geom_bond_atom_site_label_1
_geom_bond_atom_site_label_2
_geom_bond_site_symmetry_1
_geom_bond_site_symmetry_2
Cl1 C1 1_555 1_555
P1 C5 1_555 1_555
N1 C2 1_555 1_555
N2 C1 1_555 1_555
N3 N4 1_555 1_555
N4 C5 1_555 1_555
C1 C2 1_555 1_555
C2 H1 1_555 1_555
C3 N1 1_555 1_555
H2 C3 1_555 1_555
C4 N2 1_555 1_555
C5 H3 1_555 1_555
C6 P1 1_555 1_555
H4 C6 1_555 1_555
N3 C4 1_555 1_555
N3 C6 1_555 1_555
C3 C4 1_555 1_555

#END
