
#######################################################################
#
#                 Cambridge Crystallographic Data Centre
#                                CCDC 
#
#######################################################################
#
# If this CIF has been generated from an entry in the Cambridge 
# Structural Database, then it will include bibliographic, chemical, 
# crystal, experimental, refinement or atomic coordinate data resulting 
# from the CCDC's data processing and validation procedures.
#
#######################################################################

data_GOZHUY
_chemical_formula_moiety         'C10 H13 O4 1-,C6 H14 N1 1+'
_chemical_name_systematic        
'Cyclohexylammonium 2-methoxycarbonyl-3-n-propylcyclobutene-1-carboxylate'
_symmetry_cell_setting           triclinic
_symmetry_space_group_name_H-M   'P -1'
_symmetry_Int_Tables_number      2
_space_group_name_Hall           '-P 1'
loop_
_symmetry_equiv_pos_site_id
_symmetry_equiv_pos_as_xyz
1 x,y,z
2 -x,-y,-z
_cell_length_a                   5.999(2)
_cell_length_b                   11.212(2)
_cell_length_c                   13.274(3)
_cell_angle_alpha                98.530(10)
_cell_angle_beta                 91.64(2)
_cell_angle_gamma                96.50(2)
_cell_volume                     876.331
_exptl_crystal_colour            colorless
_exptl_crystal_description       Needle
_cell_formula_units_Z            2
loop_
_atom_site_label
_atom_site_type_symbol
_atom_site_fract_x
_atom_site_fract_y
_atom_site_fract_z
O1 O 1.808(2) 0.5029(6) 0.1332(4)
O2 O 1.635(2) 0.4397(4) 0.2654(4)
O3 O 1.3036(18) 0.5822(4) 0.4089(3)
O4 O 1.046(2) 0.6696(9) 0.3390(8)
C1 C 1.675(3) 0.5131(6) 0.2072(5)
C2 C 1.540(3) 0.6191(7) 0.2064(6)
C3 C 1.389(3) 0.6658(8) 0.2589(5)
C4 C 1.233(3) 0.6322(11) 0.3391(11)
C5 C 1.387(5) 0.7689(13) 0.1991(11)
H1 H 1.2478 0.7684 0.1599
H2 H 1.4338 0.8482 0.2385
C6 C 1.566(5) 0.7159(14) 0.1395(10)
H3 H 1.6899 0.7655 0.1816
C7 C 1.627(5) 0.7368(12) 0.0701(12)
H4 H 1.5516 0.6716 0.0203
H5 H 1.7823 0.7201 0.0737
C8 C 1.927(4) 0.4067(11) 0.1295(6)
H6 H 2.0210 0.4043 0.0722
H7 H 1.8248 0.3331 0.1224
H8 H 2.0179 0.4142 0.1912
C9 C 1.640(5) 0.8473(15) 0.0132(12)
H9 H 1.5599 0.8217 -0.0524
H10 H 1.5580 0.9077 0.0514
C10 C 1.840(7) 0.902(4) -0.003(4)
H11 H 1.8232 0.9705 -0.0365
H12 H 1.9202 0.8455 -0.0457
H13 H 1.9229 0.9279 0.0607
N1 N 0.745(2) 0.6111(4) 0.4789(3)
H17 H 0.7763 0.5451 0.5038
H18 H 0.8435 0.6278 0.4326
H19 H 0.6070 0.5978 0.4499
C12 C 0.758(3) 0.7147(7) 0.5625(6)
H20 H 0.6465 0.6964 0.6122
C13 C 0.711(3) 0.8238(6) 0.5228(6)
H21 H 0.5580 0.8123 0.4944
H22 H 0.8109 0.8374 0.4684
C14 C 0.742(4) 0.9368(9) 0.6070(9)
H23 H 0.7267 1.0088 0.5761
H24 H 0.6239 0.9294 0.6550
C15 C 0.960(4) 0.9511(12) 0.6618(10)
H25 H 1.0748 0.9755 0.6166
H26 H 0.9618 1.0162 0.7189
C16 C 1.016(4) 0.8442(9) 0.6995(6)
H27 H 0.9204 0.8281 0.7548
H28 H 1.1706 0.8574 0.7259
C17 C 0.985(3) 0.7340(8) 0.6138(6)
H29 H 1.0964 0.7456 0.5636
H30 H 1.0109 0.6617 0.6424
C11? C 1.618(12) 0.839(3) -0.085(2)
H14? H 1.6176 0.9187 -0.1036
H15? H 1.4791 0.7904 -0.1093
H16? H 1.7409 0.8017 -0.1160
loop_
_geom_bond_atom_site_label_1
_geom_bond_atom_site_label_2
_geom_bond_site_symmetry_1
_geom_bond_site_symmetry_2
O1 C1 1_555 1_555
O2 C1 1_555 1_555
O3 C4 1_555 1_555
O4 C4 1_555 1_555
C1 C2 1_555 1_555
C2 C3 1_555 1_555
C3 C4 1_555 1_555
C5 C3 1_555 1_555
H1 C5 1_555 1_555
H2 C5 1_555 1_555
C6 C2 1_555 1_555
H3 C6 1_555 1_555
C7 C6 1_555 1_555
H4 C7 1_555 1_555
H5 C7 1_555 1_555
C8 O1 1_555 1_555
H6 C8 1_555 1_555
H7 C8 1_555 1_555
H8 C8 1_555 1_555
C9 C7 1_555 1_555
H9 C9 1_555 1_555
H10 C9 1_555 1_555
C10 C9 1_555 1_555
H11 C10 1_555 1_555
H12 C10 1_555 1_555
H13 C10 1_555 1_555
N1 H17 1_555 1_555
H18 N1 1_555 1_555
H19 N1 1_555 1_555
C12 N1 1_555 1_555
H20 C12 1_555 1_555
C13 C12 1_555 1_555
H21 C13 1_555 1_555
H22 C13 1_555 1_555
C14 C13 1_555 1_555
H23 C14 1_555 1_555
H24 C14 1_555 1_555
C15 C14 1_555 1_555
H25 C15 1_555 1_555
H26 C15 1_555 1_555
C16 C15 1_555 1_555
H27 C16 1_555 1_555
H28 C16 1_555 1_555
C17 C12 1_555 1_555
H29 C17 1_555 1_555
H30 C17 1_555 1_555
C5 C6 1_555 1_555
C16 C17 1_555 1_555

#END
