
#######################################################################
#
#                 Cambridge Crystallographic Data Centre
#                                CCDC 
#
#######################################################################
#
# If this CIF has been generated from an entry in the Cambridge 
# Structural Database, then it will include bibliographic, chemical, 
# crystal, experimental, refinement or atomic coordinate data resulting 
# from the CCDC's data processing and validation procedures.
#
#######################################################################

data_GOZJUC
_chemical_formula_moiety         'C24 H33 O3 P1'
_chemical_name_systematic        
'2-isopropyl-5-methylcyclohexyl (hydroxy(4-methylphenyl)methyl)phenylphosphinate'
_symmetry_cell_setting           monoclinic
_symmetry_space_group_name_H-M   'P 21'
_symmetry_Int_Tables_number      4
_space_group_name_Hall           'P 2yb'
loop_
_symmetry_equiv_pos_site_id
_symmetry_equiv_pos_as_xyz
1 x,y,z
2 -x,1/2+y,-z
_cell_length_a                   13.1444(7)
_cell_length_b                   5.8088(3)
_cell_length_c                   15.8460(9)
_cell_angle_alpha                90
_cell_angle_beta                 98.9280(10)
_cell_angle_gamma                90
_cell_volume                     1195.23
_exptl_crystal_colour            colorless
_exptl_crystal_description       block
_cell_formula_units_Z            2
loop_
_atom_site_label
_atom_site_type_symbol
_atom_site_fract_x
_atom_site_fract_y
_atom_site_fract_z
O1 O 0.01609(15) 0.4800(4) 0.01537(12)
H1 H 0.0112 0.6208 0.0159
O2 O 0.13756(14) 0.8378(3) 0.11865(12)
O3 O 0.21513(14) 0.5152(3) 0.22016(12)
P1 P 0.16574(5) 0.59201(13) 0.12679(4)
C1 C 0.2541(2) 0.5088(5) 0.05694(19)
C2 C 0.3079(3) 0.3039(7) 0.0681(2)
H2 H 0.3007 0.2099 0.1143
C3 C 0.3721(3) 0.2373(9) 0.0115(3)
H3 H 0.4074 0.0984 0.0195
C4 C 0.3840(3) 0.3735(10) -0.0558(3)
H4 H 0.4288 0.3292 -0.0929
C5 C 0.3306(3) 0.5750(12) -0.0694(3)
H5 H 0.3378 0.6661 -0.1164
C6 C 0.2653(2) 0.6440(7) -0.0128(2)
H6 H 0.2291 0.7816 -0.0219
C7 C 0.0557(2) 0.4003(5) 0.09888(17)
H7 H 0.0800 0.2415 0.0957
C8 C -0.0220(2) 0.4126(5) 0.16007(18)
C9 C -0.0896(2) 0.5942(7) 0.15890(19)
H8 H -0.0875 0.7131 0.1199
C10 C -0.1605(2) 0.6025(8) 0.2148(2)
H9 H -0.2051 0.7272 0.2135
C11 C -0.1655(3) 0.4262(7) 0.2729(2)
C12 C -0.0981(3) 0.2448(7) 0.2728(2)
H10 H -0.1001 0.1253 0.3116
C13 C -0.0286(3) 0.2357(6) 0.2175(2)
H11 H 0.0149 0.1093 0.2183
C14 C -0.2432(4) 0.4368(10) 0.3353(3)
H12 H -0.2981 0.5399 0.3136
H13 H -0.2095 0.4912 0.3898
H14 H -0.2707 0.2859 0.3418
C15 C 0.2656(2) 0.6843(5) 0.28081(17)
H15 H 0.2222 0.8221 0.2774
C16 C 0.2732(2) 0.5862(7) 0.37016(17)
H16 H 0.3170 0.4493 0.3723
C17 C 0.3300(3) 0.7606(9) 0.4332(2)
H17 H 0.3411 0.6934 0.4899
H18 H 0.2870 0.8958 0.4348
C18 C 0.4338(3) 0.8337(10) 0.4095(3)
H19 H 0.4646 0.9494 0.4497
H20 H 0.4795 0.7018 0.4141
C19 C 0.4227(3) 0.9305(8) 0.3194(2)
H21 H 0.3779 1.0659 0.3169
C20 C 0.3687(2) 0.7516(7) 0.2575(2)
H22 H 0.3588 0.8137 0.2000
H23 H 0.4119 0.6159 0.2584
C21 C 0.5256(3) 1.0080(13) 0.2959(4)
H24 H 0.5695 0.8767 0.2940
H25 H 0.5578 1.1149 0.3380
H26 H 0.5142 1.0812 0.2409
C22 C 0.1697(4) 0.5075(7) 0.3927(2)
H27 H 0.1415 0.3951 0.3491
C23 C 0.1817(5) 0.3831(10) 0.4788(3)
H28 H 0.1955 0.4936 0.5242
H29 H 0.2378 0.2758 0.4825
H30 H 0.1193 0.3018 0.4837
C24 C 0.0910(3) 0.7010(10) 0.3895(3)
H31 H 0.1175 0.8195 0.4292
H32 H 0.0281 0.6416 0.4046
H33 H 0.0780 0.7638 0.3329
loop_
_geom_bond_atom_site_label_1
_geom_bond_atom_site_label_2
_geom_bond_site_symmetry_1
_geom_bond_site_symmetry_2
O1 H1 1_555 1_555
O2 P1 1_555 1_555
O3 P1 1_555 1_555
P1 C1 1_555 1_555
C1 C2 1_555 1_555
C2 H2 1_555 1_555
C3 C2 1_555 1_555
H3 C3 1_555 1_555
C4 C3 1_555 1_555
H4 C4 1_555 1_555
C5 C4 1_555 1_555
H5 C5 1_555 1_555
C6 C1 1_555 1_555
H6 C6 1_555 1_555
C7 O1 1_555 1_555
H7 C7 1_555 1_555
C8 C7 1_555 1_555
C9 C8 1_555 1_555
H8 C9 1_555 1_555
C10 C9 1_555 1_555
H9 C10 1_555 1_555
C11 C10 1_555 1_555
C12 C11 1_555 1_555
H10 C12 1_555 1_555
C13 C8 1_555 1_555
H11 C13 1_555 1_555
C14 C11 1_555 1_555
H12 C14 1_555 1_555
H13 C14 1_555 1_555
H14 C14 1_555 1_555
C15 O3 1_555 1_555
H15 C15 1_555 1_555
C16 C15 1_555 1_555
H16 C16 1_555 1_555
C17 C16 1_555 1_555
H17 C17 1_555 1_555
H18 C17 1_555 1_555
C18 C17 1_555 1_555
H19 C18 1_555 1_555
H20 C18 1_555 1_555
C19 C18 1_555 1_555
H21 C19 1_555 1_555
C20 C15 1_555 1_555
H22 C20 1_555 1_555
H23 C20 1_555 1_555
C21 C19 1_555 1_555
H24 C21 1_555 1_555
H25 C21 1_555 1_555
H26 C21 1_555 1_555
C22 C16 1_555 1_555
H27 C22 1_555 1_555
C23 C22 1_555 1_555
H28 C23 1_555 1_555
H29 C23 1_555 1_555
H30 C23 1_555 1_555
C24 C22 1_555 1_555
H31 C24 1_555 1_555
H32 C24 1_555 1_555
H33 C24 1_555 1_555
P1 C7 1_555 1_555
C5 C6 1_555 1_555
C12 C13 1_555 1_555
C19 C20 1_555 1_555

#END
