
#######################################################################
#
#                 Cambridge Crystallographic Data Centre
#                                CCDC 
#
#######################################################################
#
# If this CIF has been generated from an entry in the Cambridge 
# Structural Database, then it will include bibliographic, chemical, 
# crystal, experimental, refinement or atomic coordinate data resulting 
# from the CCDC's data processing and validation procedures.
#
#######################################################################

data_GOZJOU
_chemical_formula_moiety         'C110 H96 N2 O12'
_chemical_name_systematic        
4,4'-bis((3'',5''-bis(3''',5'''-bis(Benzyloxy))benzyloxy)phenylethyl)-2,2'-bipyridine
_symmetry_cell_setting           triclinic
_symmetry_space_group_name_H-M   'P -1'
_symmetry_Int_Tables_number      2
_space_group_name_Hall           '-P 1'
loop_
_symmetry_equiv_pos_site_id
_symmetry_equiv_pos_as_xyz
1 x,y,z
2 -x,-y,-z
_cell_length_a                   10.096(1)
_cell_length_b                   11.270(1)
_cell_length_c                   20.127(1)
_cell_angle_alpha                81.47(1)
_cell_angle_beta                 75.94(1)
_cell_angle_gamma                73.40(1)
_cell_volume                     2121.21
_exptl_crystal_colour            colorless
_exptl_crystal_description       plates
_cell_formula_units_Z            1
loop_
_atom_site_label
_atom_site_type_symbol
_atom_site_fract_x
_atom_site_fract_y
_atom_site_fract_z
N1 N 0.9053(2) -0.1098(2) 0.49427(9)
C1 C 0.9320(2) 0.0010(2) 0.49189(10)
C2 C 0.8371(2) 0.1118(2) 0.47524(10)
H1 H 0.8591(2) 0.1885(2) 0.47446(10)
C3 C 0.7111(2) 0.1113(2) 0.45984(10)
C4 C 0.6869(2) -0.0041(2) 0.46004(11)
H2 H 0.6040(2) -0.0100(2) 0.44786(11)
C5 C 0.7849(2) -0.1103(2) 0.47817(12)
H3 H 0.7653(2) -0.1882(2) 0.47920(12)
C6 C 0.6021(2) 0.2308(2) 0.44639(10)
H4 H 0.5453(2) 0.2166(2) 0.41599(10)
H5 H 0.6506(2) 0.2950(2) 0.42250(10)
C7 C 0.5045(2) 0.2769(2) 0.51319(10)
H6 H 0.4686(2) 0.2073(2) 0.54003(10)
H7 H 0.5606(2) 0.3013(2) 0.54042(10)
C8 C 0.3791(2) 0.3862(2) 0.50433(10)
C9 C 0.3799(2) 0.4661(2) 0.44456(10)
H8 H 0.4602(2) 0.4531(2) 0.40765(10)
C10 C 0.2626(2) 0.5647(2) 0.43924(10)
C11 C 0.1426(2) 0.5854(2) 0.49211(10)
H9 H 0.0620(2) 0.6522(2) 0.48745(10)
C12 C 0.1438(2) 0.5059(2) 0.55187(10)
C13 C 0.2606(2) 0.4070(2) 0.55803(10)
H10 H 0.2598(2) 0.3531(2) 0.59912(10)
O1 O 0.27632(13) 0.64047(12) 0.37938(7)
C14 C 0.1582(2) 0.7432(2) 0.37056(10)
H11 H 0.1233(2) 0.7891(2) 0.41236(10)
H12 H 0.0805(2) 0.7126(2) 0.36343(10)
C15 C 0.2023(2) 0.8284(2) 0.30955(11)
C16 C 0.3209(2) 0.7901(2) 0.25915(10)
H13 H 0.3809(2) 0.7085(2) 0.26314(10)
C17 C 0.3525(2) 0.8723(2) 0.20199(11)
C18 C 0.2647(2) 0.9901(2) 0.19470(11)
H14 H 0.2861(2) 1.0453(2) 0.15558(11)
C19 C 0.1444(2) 1.0266(2) 0.24559(11)
C20 C 0.1132(2) 0.9494(2) 0.30364(11)
H15 H 0.0331(2) 0.9773(2) 0.33907(11)
O2 O 0.47241(14) 0.82478(13) 0.15439(7)
C21 C 0.5114(2) 0.9071(2) 0.09536(10)
H16 H 0.5281(2) 0.9806(2) 0.11017(10)
H17 H 0.4345(2) 0.9361(2) 0.06949(10)
C22 C 0.6441(2) 0.8357(2) 0.05080(11)
C23 C 0.7709(2) 0.8113(2) 0.07222(11)
H18 H 0.7720(2) 0.8386(2) 0.11449(11)
C24 C 0.8959(2) 0.7472(2) 0.03199(12)
H19 H 0.9823(2) 0.7300(2) 0.04691(12)
C25 C 0.8946(2) 0.7087(2) -0.02925(12)
H20 H 0.9803(2) 0.6649(2) -0.05678(12)
C26 C 0.7694(2) 0.7333(2) -0.05102(12)
H21 H 0.7691(2) 0.7079(2) -0.09391(12)
C27 C 0.6440(2) 0.7951(2) -0.01045(11)
H22 H 0.5575(2) 0.8096(2) -0.02493(11)
O3 O 0.06057(14) 1.14295(13) 0.23102(7)
C28 C -0.0644(2) 1.1897(2) 0.28082(11)
H23 H -0.0393(2) 1.2078(2) 0.32216(11)
H24 H -0.1206(2) 1.1277(2) 0.29476(11)
C29 C -0.1487(2) 1.3076(2) 0.24785(11)
C30 C -0.2956(2) 1.3383(2) 0.26479(11)
H25 H -0.3425(2) 1.2834(2) 0.29560(11)
C31 C -0.3747(2) 1.4486(2) 0.23707(12)
H26 H -0.4750(2) 1.4701(2) 0.25011(12)
C32 C -0.3076(3) 1.5260(2) 0.19099(12)
H27 H -0.3612(3) 1.6009(2) 0.17147(12)
C33 C -0.1605(3) 1.4947(2) 0.17284(12)
H28 H -0.1136(3) 1.5477(2) 0.14046(12)
C34 C -0.0829(2) 1.3869(2) 0.20175(11)
H29 H 0.0175(2) 1.3669(2) 0.18971(11)
O4 O 0.03386(14) 0.51833(12) 0.60816(7)
C35 C -0.0825(2) 0.6266(2) 0.60676(10)
H30 H -0.1349(2) 0.6212(2) 0.57210(10)
H31 H -0.0468(2) 0.7018(2) 0.59374(10)
C36 C -0.1801(2) 0.6359(2) 0.67676(10)
C37 C -0.1672(2) 0.5414(2) 0.72881(11)
H32 H -0.0947(2) 0.4664(2) 0.72145(11)
C38 C -0.2610(2) 0.5565(2) 0.79206(10)
C39 C -0.3687(2) 0.6635(2) 0.80331(11)
H33 H -0.4337(2) 0.6726(2) 0.84632(11)
C40 C -0.3802(2) 0.7584(2) 0.75000(11)
C41 C -0.2880(2) 0.7461(2) 0.68729(11)
H34 H -0.2971(2) 0.8113(2) 0.65156(11)
O5 O -0.23599(14) 0.45838(13) 0.84147(7)
C42 C -0.3415(2) 0.4604(2) 0.90374(10)
H35 H -0.4319(2) 0.4587(2) 0.89337(10)
H36 H -0.3574(2) 0.5375(2) 0.92587(10)
C43 C -0.2924(2) 0.3491(2) 0.95133(11)
C44 C -0.2469(2) 0.2312(2) 0.92930(11)
H37 H -0.2422(2) 0.2205(2) 0.88277(11)
C45 C -0.2079(2) 0.1277(2) 0.97440(12)
H38 H -0.1769(2) 0.0468(2) 0.95877(12)
C46 C -0.2144(2) 0.1433(2) 1.04199(12)
H39 H -0.1886(2) 0.0728(2) 1.07301(12)
C47 C -0.2580(2) 0.2606(2) 1.06470(11)
H40 H -0.2626(2) 0.2710(2) 1.11127(11)
C48 C -0.2954(2) 0.3642(2) 1.01901(11)
H41 H -0.3229(2) 0.4452(2) 1.03423(11)
O6 O -0.49201(14) 0.86046(13) 0.76704(7)
C49 C -0.5162(2) 0.9596(2) 0.71403(11)
H42 H -0.5147(2) 0.9259(2) 0.67106(11)
H43 H -0.4414(2) 1.0044(2) 0.70468(11)
C50 C -0.6592(2) 1.0468(2) 0.73884(10)
C51 C -0.6807(2) 1.1741(2) 0.71951(11)
H44 H -0.6046(2) 1.2060(2) 0.69330(11)
C52 C -0.8144(2) 1.2536(2) 0.73901(11)
H45 H -0.8298(2) 1.3398(2) 0.72486(11)
C53 C -0.9248(2) 1.2092(2) 0.77846(11)
H46 H -1.0156(2) 1.2644(2) 0.79171(11)
C54 C -0.9025(2) 1.0834(2) 0.79869(11)
H47 H -0.9779(2) 1.0521(2) 0.82632(11)
C55 C -0.7705(2) 1.0032(2) 0.77867(11)
H48 H -0.7562(2) 0.9170(2) 0.79250(11)
C1A C 1.0680(2) -0.0010(2) 0.50811(10)
N1A N 1.0947(2) 0.1098(2) 0.50573(9)
C5A C 1.2151(2) 0.1103(2) 0.52183(12)
C4A C 1.3131(2) 0.0041(2) 0.53996(11)
C3A C 1.2889(2) -0.1113(2) 0.54016(10)
C2A C 1.1629(2) -0.1118(2) 0.52476(10)
H1A H 1.1409(2) -0.1885(2) 0.52554(10)
C6A C 1.3979(2) -0.2308(2) 0.55361(10)
H4A H 1.4547(2) -0.2166(2) 0.58401(10)
H5A H 1.3494(2) -0.2950(2) 0.57750(10)
C7A C 1.4955(2) -0.2769(2) 0.48681(10)
H6A H 1.5314(2) -0.2073(2) 0.45997(10)
H7A H 1.4394(2) -0.3013(2) 0.45958(10)
C8A C 1.6209(2) -0.3862(2) 0.49567(10)
C9A C 1.6201(2) -0.4661(2) 0.55544(10)
H8A H 1.5398(2) -0.4531(2) 0.59235(10)
C10A C 1.7374(2) -0.5647(2) 0.56076(10)
C11A C 1.8574(2) -0.5854(2) 0.50789(10)
H9A H 1.9380(2) -0.6522(2) 0.51255(10)
C12A C 1.8562(2) -0.5059(2) 0.44813(10)
C13A C 1.7394(2) -0.4070(2) 0.44197(10)
H10A H 1.7402(2) -0.3531(2) 0.40088(10)
O4A O 1.96614(14) -0.51833(12) 0.39184(7)
C35A C 2.0825(2) -0.6266(2) 0.39324(10)
H30A H 2.1349(2) -0.6212(2) 0.42790(10)
H31A H 2.0468(2) -0.7018(2) 0.40626(10)
C36A C 2.1801(2) -0.6359(2) 0.32324(10)
C37A C 2.1672(2) -0.5414(2) 0.27119(11)
H32A H 2.0947(2) -0.4664(2) 0.27855(11)
C38A C 2.2610(2) -0.5565(2) 0.20794(10)
C39A C 2.3687(2) -0.6635(2) 0.19669(11)
H33A H 2.4337(2) -0.6726(2) 0.15368(11)
C40A C 2.3802(2) -0.7584(2) 0.25000(11)
C41A C 2.2880(2) -0.7461(2) 0.31271(11)
H34A H 2.2971(2) -0.8113(2) 0.34844(11)
O6A O 2.49201(14) -0.86046(13) 0.23296(7)
C49A C 2.5162(2) -0.9596(2) 0.28597(11)
H42A H 2.5147(2) -0.9259(2) 0.32894(11)
H43A H 2.4414(2) -1.0044(2) 0.29532(11)
C50A C 2.6592(2) -1.0468(2) 0.26116(10)
C51A C 2.6807(2) -1.1741(2) 0.28049(11)
H44A H 2.6046(2) -1.2060(2) 0.30670(11)
C52A C 2.8144(2) -1.2536(2) 0.26099(11)
H45A H 2.8298(2) -1.3398(2) 0.27514(11)
C53A C 2.9248(2) -1.2092(2) 0.22154(11)
H46A H 3.0156(2) -1.2644(2) 0.20829(11)
C54A C 2.9025(2) -1.0834(2) 0.20131(11)
H47A H 2.9779(2) -1.0521(2) 0.17368(11)
C55A C 2.7705(2) -1.0032(2) 0.22133(11)
H48A H 2.7562(2) -0.9170(2) 0.20750(11)
O5A O 2.23599(14) -0.45838(13) 0.15853(7)
C42A C 2.3415(2) -0.4604(2) 0.09626(10)
H35A H 2.4319(2) -0.4587(2) 0.10663(10)
H36A H 2.3574(2) -0.5375(2) 0.07413(10)
C43A C 2.2924(2) -0.3491(2) 0.04867(11)
C44A C 2.2469(2) -0.2312(2) 0.07070(11)
H37A H 2.2422(2) -0.2205(2) 0.11723(11)
C45A C 2.2079(2) -0.1277(2) 0.02560(12)
H38A H 2.1769(2) -0.0468(2) 0.04123(12)
C46A C 2.2144(2) -0.1433(2) -0.04199(12)
H39A H 2.1886(2) -0.0728(2) -0.07301(12)
C47A C 2.2580(2) -0.2606(2) -0.06470(11)
H40A H 2.2626(2) -0.2710(2) -0.11127(11)
C48A C 2.2954(2) -0.3642(2) -0.01901(11)
H41A H 2.3229(2) -0.4452(2) -0.03423(11)
O1A O 1.72368(13) -0.64047(12) 0.62062(7)
C14A C 1.8418(2) -0.7432(2) 0.62944(10)
H11A H 1.8767(2) -0.7891(2) 0.58764(10)
H12A H 1.9195(2) -0.7126(2) 0.63657(10)
C15A C 1.7977(2) -0.8284(2) 0.69045(11)
C16A C 1.6791(2) -0.7901(2) 0.74085(10)
H13A H 1.6191(2) -0.7085(2) 0.73686(10)
C17A C 1.6475(2) -0.8723(2) 0.79801(11)
C18A C 1.7353(2) -0.9901(2) 0.80530(11)
H14A H 1.7139(2) -1.0453(2) 0.84442(11)
C19A C 1.8556(2) -1.0266(2) 0.75441(11)
C20A C 1.8868(2) -0.9494(2) 0.69636(11)
H15A H 1.9669(2) -0.9773(2) 0.66093(11)
O3A O 1.93943(14) -1.14295(13) 0.76898(7)
C28A C 2.0644(2) -1.1897(2) 0.71918(11)
H23A H 2.0393(2) -1.2078(2) 0.67784(11)
H24A H 2.1206(2) -1.1277(2) 0.70524(11)
C29A C 2.1487(2) -1.3076(2) 0.75215(11)
C30A C 2.2956(2) -1.3383(2) 0.73521(11)
H25A H 2.3425(2) -1.2834(2) 0.70440(11)
C31A C 2.3747(2) -1.4486(2) 0.76293(12)
H26A H 2.4750(2) -1.4701(2) 0.74989(12)
C32A C 2.3076(3) -1.5260(2) 0.80901(12)
H27A H 2.3612(3) -1.6009(2) 0.82853(12)
C33A C 2.1605(3) -1.4947(2) 0.82716(12)
H28A H 2.1136(3) -1.5477(2) 0.85954(12)
C34A C 2.0829(2) -1.3869(2) 0.79825(11)
H29A H 1.9825(2) -1.3669(2) 0.81029(11)
O2A O 1.52759(14) -0.82478(13) 0.84561(7)
C21A C 1.4886(2) -0.9071(2) 0.90464(10)
H16A H 1.4719(2) -0.9806(2) 0.88983(10)
H17A H 1.5655(2) -0.9361(2) 0.93051(10)
C22A C 1.3559(2) -0.8357(2) 0.94920(11)
C23A C 1.2291(2) -0.8113(2) 0.92778(11)
H18A H 1.2280(2) -0.8386(2) 0.88551(11)
C24A C 1.1041(2) -0.7472(2) 0.96801(12)
H19A H 1.0177(2) -0.7300(2) 0.95309(12)
C25A C 1.1054(2) -0.7087(2) 1.02925(12)
H20A H 1.0197(2) -0.6649(2) 1.05678(12)
C26A C 1.2306(2) -0.7333(2) 1.05102(12)
H21A H 1.2309(2) -0.7079(2) 1.09391(12)
C27A C 1.3560(2) -0.7951(2) 1.01045(11)
H22A H 1.4425(2) -0.8096(2) 1.02493(11)
H2A H 1.3960(2) 0.0100(2) 0.55214(11)
H3A H 1.2347(2) 0.1882(2) 0.52080(12)
loop_
_geom_bond_atom_site_label_1
_geom_bond_atom_site_label_2
_geom_bond_site_symmetry_1
_geom_bond_site_symmetry_2
N1 C1 1_555 1_555
C1 C2 1_555 1_555
C2 H1 1_555 1_555
C3 C2 1_555 1_555
C4 C3 1_555 1_555
H2 C4 1_555 1_555
C5 N1 1_555 1_555
H3 C5 1_555 1_555
C6 C3 1_555 1_555
H4 C6 1_555 1_555
H5 C6 1_555 1_555
C7 C6 1_555 1_555
H6 C7 1_555 1_555
H7 C7 1_555 1_555
C8 C7 1_555 1_555
C9 C8 1_555 1_555
H8 C9 1_555 1_555
C10 C9 1_555 1_555
C11 C10 1_555 1_555
H9 C11 1_555 1_555
C12 C11 1_555 1_555
C13 C8 1_555 1_555
H10 C13 1_555 1_555
O1 C10 1_555 1_555
C14 O1 1_555 1_555
H11 C14 1_555 1_555
H12 C14 1_555 1_555
C15 C14 1_555 1_555
C16 C15 1_555 1_555
H13 C16 1_555 1_555
C17 C16 1_555 1_555
C18 C17 1_555 1_555
H14 C18 1_555 1_555
C19 C18 1_555 1_555
C20 C15 1_555 1_555
H15 C20 1_555 1_555
O2 C17 1_555 1_555
C21 O2 1_555 1_555
H16 C21 1_555 1_555
H17 C21 1_555 1_555
C22 C21 1_555 1_555
C23 C22 1_555 1_555
H18 C23 1_555 1_555
C24 C23 1_555 1_555
H19 C24 1_555 1_555
C25 C24 1_555 1_555
H20 C25 1_555 1_555
C26 C25 1_555 1_555
H21 C26 1_555 1_555
C27 C22 1_555 1_555
H22 C27 1_555 1_555
O3 C19 1_555 1_555
C28 O3 1_555 1_555
H23 C28 1_555 1_555
H24 C28 1_555 1_555
C29 C28 1_555 1_555
C30 C29 1_555 1_555
H25 C30 1_555 1_555
C31 C30 1_555 1_555
H26 C31 1_555 1_555
C32 C31 1_555 1_555
H27 C32 1_555 1_555
C33 C32 1_555 1_555
H28 C33 1_555 1_555
C34 C29 1_555 1_555
H29 C34 1_555 1_555
O4 C12 1_555 1_555
C35 O4 1_555 1_555
H30 C35 1_555 1_555
H31 C35 1_555 1_555
C36 C35 1_555 1_555
C37 C36 1_555 1_555
H32 C37 1_555 1_555
C38 C37 1_555 1_555
C39 C38 1_555 1_555
H33 C39 1_555 1_555
C40 C39 1_555 1_555
C41 C36 1_555 1_555
H34 C41 1_555 1_555
O5 C38 1_555 1_555
C42 O5 1_555 1_555
H35 C42 1_555 1_555
H36 C42 1_555 1_555
C43 C42 1_555 1_555
C44 C43 1_555 1_555
H37 C44 1_555 1_555
C45 C44 1_555 1_555
H38 C45 1_555 1_555
C46 C45 1_555 1_555
H39 C46 1_555 1_555
C47 C46 1_555 1_555
H40 C47 1_555 1_555
C48 C43 1_555 1_555
H41 C48 1_555 1_555
O6 C40 1_555 1_555
C49 O6 1_555 1_555
H42 C49 1_555 1_555
H43 C49 1_555 1_555
C50 C49 1_555 1_555
C51 C50 1_555 1_555
H44 C51 1_555 1_555
C52 C51 1_555 1_555
H45 C52 1_555 1_555
C53 C52 1_555 1_555
H46 C53 1_555 1_555
C54 C53 1_555 1_555
H47 C54 1_555 1_555
C55 C50 1_555 1_555
H48 C55 1_555 1_555
C1A C1 1_555 1_555
N1A C1A 1_555 1_555
C5A N1A 1_555 1_555
C4A C5A 1_555 1_555
C3A C4A 1_555 1_555
C2A C1A 1_555 1_555
H1A C2A 1_555 1_555
C6A C3A 1_555 1_555
H4A C6A 1_555 1_555
H5A C6A 1_555 1_555
C7A C6A 1_555 1_555
H6A C7A 1_555 1_555
H7A C7A 1_555 1_555
C8A C7A 1_555 1_555
C9A C8A 1_555 1_555
H8A C9A 1_555 1_555
C10A C9A 1_555 1_555
C11A C10A 1_555 1_555
H9A C11A 1_555 1_555
C12A C11A 1_555 1_555
C13A C8A 1_555 1_555
H10A C13A 1_555 1_555
O4A C12A 1_555 1_555
C35A O4A 1_555 1_555
H30A C35A 1_555 1_555
H31A C35A 1_555 1_555
C36A C35A 1_555 1_555
C37A C36A 1_555 1_555
H32A C37A 1_555 1_555
C38A C37A 1_555 1_555
C39A C38A 1_555 1_555
H33A C39A 1_555 1_555
C40A C39A 1_555 1_555
C41A C36A 1_555 1_555
H34A C41A 1_555 1_555
O6A C40A 1_555 1_555
C49A O6A 1_555 1_555
H42A C49A 1_555 1_555
H43A C49A 1_555 1_555
C50A C49A 1_555 1_555
C51A C50A 1_555 1_555
H44A C51A 1_555 1_555
C52A C51A 1_555 1_555
H45A C52A 1_555 1_555
C53A C52A 1_555 1_555
H46A C53A 1_555 1_555
C54A C53A 1_555 1_555
H47A C54A 1_555 1_555
C55A C50A 1_555 1_555
H48A C55A 1_555 1_555
O5A C38A 1_555 1_555
C42A O5A 1_555 1_555
H35A C42A 1_555 1_555
H36A C42A 1_555 1_555
C43A C42A 1_555 1_555
C44A C43A 1_555 1_555
H37A C44A 1_555 1_555
C45A C44A 1_555 1_555
H38A C45A 1_555 1_555
C46A C45A 1_555 1_555
H39A C46A 1_555 1_555
C47A C46A 1_555 1_555
H40A C47A 1_555 1_555
C48A C43A 1_555 1_555
H41A C48A 1_555 1_555
O1A C10A 1_555 1_555
C14A O1A 1_555 1_555
H11A C14A 1_555 1_555
H12A C14A 1_555 1_555
C15A C14A 1_555 1_555
C16A C15A 1_555 1_555
H13A C16A 1_555 1_555
C17A C16A 1_555 1_555
C18A C17A 1_555 1_555
H14A C18A 1_555 1_555
C19A C18A 1_555 1_555
C20A C15A 1_555 1_555
H15A C20A 1_555 1_555
O3A C19A 1_555 1_555
C28A O3A 1_555 1_555
H23A C28A 1_555 1_555
H24A C28A 1_555 1_555
C29A C28A 1_555 1_555
C30A C29A 1_555 1_555
H25A C30A 1_555 1_555
C31A C30A 1_555 1_555
H26A C31A 1_555 1_555
C32A C31A 1_555 1_555
H27A C32A 1_555 1_555
C33A C32A 1_555 1_555
H28A C33A 1_555 1_555
C34A C29A 1_555 1_555
H29A C34A 1_555 1_555
O2A C17A 1_555 1_555
C21A O2A 1_555 1_555
H16A C21A 1_555 1_555
H17A C21A 1_555 1_555
C22A C21A 1_555 1_555
C23A C22A 1_555 1_555
H18A C23A 1_555 1_555
C24A C23A 1_555 1_555
H19A C24A 1_555 1_555
C25A C24A 1_555 1_555
H20A C25A 1_555 1_555
C26A C25A 1_555 1_555
H21A C26A 1_555 1_555
C27A C22A 1_555 1_555
H22A C27A 1_555 1_555
H2A C4A 1_555 1_555
H3A C5A 1_555 1_555
C4 C5 1_555 1_555
C12 C13 1_555 1_555
C19 C20 1_555 1_555
C26 C27 1_555 1_555
C33 C34 1_555 1_555
C40 C41 1_555 1_555
C47 C48 1_555 1_555
C54 C55 1_555 1_555
C3A C2A 1_555 1_555
C12A C13A 1_555 1_555
C40A C41A 1_555 1_555
C54A C55A 1_555 1_555
C47A C48A 1_555 1_555
C19A C20A 1_555 1_555
C33A C34A 1_555 1_555
C26A C27A 1_555 1_555

#END
