
#######################################################################
#
#                 Cambridge Crystallographic Data Centre
#                                CCDC 
#
#######################################################################
#
# If this CIF has been generated from an entry in the Cambridge 
# Structural Database, then it will include bibliographic, chemical, 
# crystal, experimental, refinement or atomic coordinate data resulting 
# from the CCDC's data processing and validation procedures.
#
#######################################################################

data_GOZWID
_chemical_formula_moiety         'C15 H18 Br1 N1 O4 S1'
_chemical_name_systematic        
5-bromo-3-((4-methylphenyl)sulfonyl)-4-(2-methylprop-1-en-1-yl)-1,3-oxazinan-2-one
_symmetry_cell_setting           monoclinic
_symmetry_space_group_name_H-M   'P 21'
_symmetry_Int_Tables_number      4
_space_group_name_Hall           'P 2yb'
loop_
_symmetry_equiv_pos_site_id
_symmetry_equiv_pos_as_xyz
1 x,y,z
2 -x,1/2+y,-z
_cell_length_a                   8.1106(16)
_cell_length_b                   15.869(3)
_cell_length_c                   13.458(3)
_cell_angle_alpha                90
_cell_angle_beta                 105.33(3)
_cell_angle_gamma                90
_cell_volume                     1670.51
_exptl_crystal_colour            colorless
_exptl_crystal_description       block
_cell_formula_units_Z            4
loop_
_atom_site_label
_atom_site_type_symbol
_atom_site_fract_x
_atom_site_fract_y
_atom_site_fract_z
Br1 Br 0.34493(8) 0.41304(4) 1.06480(5)
S1 S 0.83282(19) 0.41979(13) 0.95312(15)
O1 O 0.8827(6) 0.3432(3) 1.0076(5)
O2 O 0.8857(6) 0.4369(4) 0.8629(4)
O3 O 0.6027(6) 0.5500(3) 0.8597(3)
O4 O 0.3592(5) 0.4835(3) 0.8443(3)
N1 N 0.6171(5) 0.4165(4) 0.9231(4)
C1 C 1.0256(12) 0.7080(6) 1.2526(7)
H1 H 0.9258 0.7250 1.2731
H2 H 1.0668 0.7546 1.2205
H3 H 1.1128 0.6904 1.3122
C2 C 0.9808(9) 0.6361(5) 1.1776(6)
C3 C 0.9283(8) 0.5593(5) 1.2076(5)
H4 H 0.9225 0.5527 1.2752
C4 C 0.8844(7) 0.4925(5) 1.1407(5)
H5 H 0.8514 0.4411 1.1626
C5 C 0.8908(7) 0.5039(4) 1.0394(5)
C6 C 0.9447(9) 0.5795(5) 1.0076(5)
H6 H 0.9508 0.5862 0.9400
C7 C 0.9893(9) 0.6447(5) 1.0773(6)
H7 H 1.0259 0.6955 1.0561
C8 C 0.5315(7) 0.4861(4) 0.8743(4)
C9 C 0.2674(7) 0.4056(4) 0.8447(4)
H8 H 0.2649 0.3738 0.7828
H9 H 0.1504 0.4178 0.8452
C10 C 0.3527(8) 0.3543(4) 0.9380(5)
H10 H 0.2909 0.3008 0.9349
C11 C 0.5350(8) 0.3352(4) 0.9370(5)
H11 H 0.5956 0.3108 1.0035
C12 C 0.5399(8) 0.2732(4) 0.8523(5)
H12 H 0.5515 0.2947 0.7902
C13 C 0.5286(8) 0.1908(4) 0.8608(5)
C14 C 0.5150(11) 0.1467(4) 0.9561(5)
H13 H 0.5085 0.1877 1.0075
H14 H 0.6137 0.1118 0.9815
H15 H 0.4139 0.1124 0.9407
C15 C 0.5332(10) 0.1343(5) 0.7727(6)
H16 H 0.5441 0.1677 0.7153
H17 H 0.4294 0.1021 0.7530
H18 H 0.6290 0.0967 0.7931
Br2 Br 0.31752(8) 0.49536(4) 0.40298(5)
S2 S 0.87401(19) 0.46538(10) 0.53698(12)
O5 O 1.0026(5) 0.4452(3) 0.6290(3)
O6 O 0.8953(6) 0.5380(3) 0.4788(4)
O7 O 0.6943(6) 0.3518(3) 0.6355(3)
O8 O 0.4791(5) 0.4346(3) 0.6431(3)
N2 N 0.6871(6) 0.4832(3) 0.5656(4)
C16 C 0.8011(11) 0.1725(5) 0.2436(6)
H19 H 0.8448 0.1914 0.1877
H20 H 0.6844 0.1550 0.2172
H21 H 0.8683 0.1259 0.2776
C17 C 0.8101(8) 0.2430(4) 0.3188(5)
C18 C 0.9085(9) 0.2362(4) 0.4202(5)
H22 H 0.9648 0.1859 0.4428
C19 C 0.9239(8) 0.3026(5) 0.4877(5)
H23 H 0.9907 0.2972 0.5551
C20 C 0.8392(7) 0.3779(4) 0.4548(4)
C21 C 0.7375(8) 0.3861(4) 0.3546(5)
H24 H 0.6799 0.4361 0.3325
C22 C 0.7234(9) 0.3186(4) 0.2886(5)
H25 H 0.6540 0.3235 0.2218
C23 C 0.6252(7) 0.4191(4) 0.6165(4)
C24 C 0.3874(8) 0.5133(4) 0.6209(5)
H26 H 0.4219 0.5498 0.6806
H27 H 0.2660 0.5024 0.6086
C25 C 0.4180(8) 0.5580(4) 0.5292(5)
H28 H 0.3650 0.6139 0.5239
C26 C 0.6106(8) 0.5684(4) 0.5472(4)
H29 H 0.6337 0.5920 0.4850
C27 C 0.6837(8) 0.6264(4) 0.6368(5)
H30 H 0.7300 0.6019 0.7008
C28 C 0.6868(9) 0.7085(4) 0.6311(5)
C29 C 0.7553(10) 0.7620(5) 0.7253(6)
H31 H 0.7882 0.7264 0.7850
H32 H 0.6684 0.8005 0.7331
H33 H 0.8530 0.7930 0.7180
C30 C 0.6219(12) 0.7568(5) 0.5329(7)
H34 H 0.6030 0.7188 0.4755
H35 H 0.7046 0.7984 0.5272
H36 H 0.5163 0.7840 0.5332
loop_
_geom_bond_atom_site_label_1
_geom_bond_atom_site_label_2
_geom_bond_site_symmetry_1
_geom_bond_site_symmetry_2
Br1 C10 1_555 1_555
S1 O1 1_555 1_555
O2 S1 1_555 1_555
O3 C8 1_555 1_555
O4 C8 1_555 1_555
N1 S1 1_555 1_555
C1 H1 1_555 1_555
H2 C1 1_555 1_555
H3 C1 1_555 1_555
C2 C1 1_555 1_555
C3 C2 1_555 1_555
H4 C3 1_555 1_555
C4 C3 1_555 1_555
H5 C4 1_555 1_555
C5 S1 1_555 1_555
C6 C5 1_555 1_555
H6 C6 1_555 1_555
C7 C2 1_555 1_555
H7 C7 1_555 1_555
C8 N1 1_555 1_555
C9 O4 1_555 1_555
H8 C9 1_555 1_555
H9 C9 1_555 1_555
C10 C9 1_555 1_555
H10 C10 1_555 1_555
C11 N1 1_555 1_555
H11 C11 1_555 1_555
C12 C11 1_555 1_555
H12 C12 1_555 1_555
C13 C12 1_555 1_555
C14 C13 1_555 1_555
H13 C14 1_555 1_555
H14 C14 1_555 1_555
H15 C14 1_555 1_555
C15 C13 1_555 1_555
H16 C15 1_555 1_555
H17 C15 1_555 1_555
H18 C15 1_555 1_555
Br2 C25 1_555 1_555
S2 O5 1_555 1_555
O6 S2 1_555 1_555
O7 C23 1_555 1_555
O8 C23 1_555 1_555
N2 S2 1_555 1_555
C16 H19 1_555 1_555
H20 C16 1_555 1_555
H21 C16 1_555 1_555
C17 C16 1_555 1_555
C18 C17 1_555 1_555
H22 C18 1_555 1_555
C19 C18 1_555 1_555
H23 C19 1_555 1_555
C20 S2 1_555 1_555
C21 C20 1_555 1_555
H24 C21 1_555 1_555
C22 C17 1_555 1_555
H25 C22 1_555 1_555
C23 N2 1_555 1_555
C24 O8 1_555 1_555
H26 C24 1_555 1_555
H27 C24 1_555 1_555
C25 C24 1_555 1_555
H28 C25 1_555 1_555
C26 N2 1_555 1_555
H29 C26 1_555 1_555
C27 C26 1_555 1_555
H30 C27 1_555 1_555
C28 C27 1_555 1_555
C29 C28 1_555 1_555
H31 C29 1_555 1_555
H32 C29 1_555 1_555
H33 C29 1_555 1_555
C30 C28 1_555 1_555
H34 C30 1_555 1_555
H35 C30 1_555 1_555
H36 C30 1_555 1_555
C4 C5 1_555 1_555
C6 C7 1_555 1_555
C10 C11 1_555 1_555
C19 C20 1_555 1_555
C21 C22 1_555 1_555
C25 C26 1_555 1_555

#END
