
#######################################################################
#
#                 Cambridge Crystallographic Data Centre
#                                CCDC 
#
#######################################################################
#
# If this CIF has been generated from an entry in the Cambridge 
# Structural Database, then it will include bibliographic, chemical, 
# crystal, experimental, refinement or atomic coordinate data resulting 
# from the CCDC's data processing and validation procedures.
#
#######################################################################

data_GOZWUP
_chemical_formula_moiety         'C13 H19 N1 O4 S1'
_chemical_name_systematic        
N-(1,3-dihydroxyhex-4-en-2-yl)-4-methylbenzenesulfonamide
_symmetry_cell_setting           triclinic
_symmetry_space_group_name_H-M   'P -1'
_symmetry_Int_Tables_number      2
_space_group_name_Hall           '-P 1'
loop_
_symmetry_equiv_pos_site_id
_symmetry_equiv_pos_as_xyz
1 x,y,z
2 -x,-y,-z
_cell_length_a                   7.714(2)
_cell_length_b                   8.924(3)
_cell_length_c                   11.423(3)
_cell_angle_alpha                76.922(12)
_cell_angle_beta                 75.224(12)
_cell_angle_gamma                74.066(12)
_cell_volume                     720.738
_exptl_crystal_colour            colorless
_exptl_crystal_description       plate
_cell_formula_units_Z            2
loop_
_atom_site_label
_atom_site_type_symbol
_atom_site_fract_x
_atom_site_fract_y
_atom_site_fract_z
S1 S 0.91629(5) -0.01899(5) 0.32810(3)
O1 O 0.79248(17) -0.05386(14) 0.26804(11)
O2 O 1.00685(17) -0.14274(14) 0.41206(11)
O3 O 0.47259(17) 0.21512(15) 0.57178(11)
H1 H 0.3913 0.1742 0.6176
O4 O 0.52253(17) 0.51958(14) 0.34228(12)
H2 H 0.5211 0.6044 0.3593
N1 N 0.79937(19) 0.11788(16) 0.40585(12)
H3 H 0.8734 0.1572 0.4282
C1 C 0.6495(2) 0.24602(19) 0.36621(15)
H4 H 0.6486 0.2415 0.2815
C2 C 0.6842(2) 0.40646(19) 0.36859(15)
H5 H 0.6978 0.4090 0.4511
C3 C 0.8512(2) 0.4423(2) 0.27629(16)
H6 H 0.8642 0.4272 0.1963
C4 C 0.9802(3) 0.4936(2) 0.30071(18)
H7 H 0.9718 0.5001 0.3822
C5 C 1.1401(3) 0.5425(3) 0.2080(2)
H8 H 1.1384 0.5240 0.1288
H9 H 1.2532 0.4820 0.2317
H10 H 1.1311 0.6529 0.2042
C6 C 0.4664(2) 0.2200(2) 0.44700(16)
H11 H 0.3663 0.3053 0.4232
H12 H 0.4457 0.1213 0.4376
C7 C 1.0879(2) 0.05322(19) 0.21313(14)
C8 C 1.2510(2) 0.0507(2) 0.24460(16)
H13 H 1.2712 0.0055 0.3231
C9 C 1.3831(3) 0.1162(2) 0.15776(17)
H14 H 1.4930 0.1138 0.1784
C10 C 1.3548(3) 0.1856(2) 0.04015(16)
C11 C 1.1924(3) 0.1836(2) 0.00965(16)
H15 H 1.1733 0.2268 -0.0694
C12 C 1.0582(2) 0.1181(2) 0.09540(15)
H16 H 0.9497 0.1177 0.0742
C13 C 1.4997(3) 0.2604(3) -0.0508(2)
H17 H 1.5091 0.3512 -0.0231
H18 H 1.4660 0.2923 -0.1296
H19 H 1.6163 0.1852 -0.0576
loop_
_geom_bond_atom_site_label_1
_geom_bond_atom_site_label_2
_geom_bond_site_symmetry_1
_geom_bond_site_symmetry_2
S1 O1 1_555 1_555
O2 S1 1_555 1_555
O3 H1 1_555 1_555
O4 H2 1_555 1_555
N1 S1 1_555 1_555
H3 N1 1_555 1_555
C1 N1 1_555 1_555
H4 C1 1_555 1_555
C2 O4 1_555 1_555
H5 C2 1_555 1_555
C3 C2 1_555 1_555
H6 C3 1_555 1_555
C4 C3 1_555 1_555
H7 C4 1_555 1_555
C5 C4 1_555 1_555
H8 C5 1_555 1_555
H9 C5 1_555 1_555
H10 C5 1_555 1_555
C6 O3 1_555 1_555
H11 C6 1_555 1_555
H12 C6 1_555 1_555
C7 S1 1_555 1_555
C8 C7 1_555 1_555
H13 C8 1_555 1_555
C9 C8 1_555 1_555
H14 C9 1_555 1_555
C10 C9 1_555 1_555
C11 C10 1_555 1_555
H15 C11 1_555 1_555
C12 C7 1_555 1_555
H16 C12 1_555 1_555
C13 C10 1_555 1_555
H17 C13 1_555 1_555
H18 C13 1_555 1_555
H19 C13 1_555 1_555
C1 C2 1_555 1_555
C1 C6 1_555 1_555
C11 C12 1_555 1_555

#END
