
#######################################################################
#
#                 Cambridge Crystallographic Data Centre
#                                CCDC 
#
#######################################################################
#
# If this CIF has been generated from an entry in the Cambridge 
# Structural Database, then it will include bibliographic, chemical, 
# crystal, experimental, refinement or atomic coordinate data resulting 
# from the CCDC's data processing and validation procedures.
#
#######################################################################

data_GOZXAW
_chemical_formula_moiety         'C13 H19 N1 O3 S1,H2 O1'
_chemical_name_systematic        
'N-(1-hydroxyhex-4-en-3-yl)-4-methylbenzenesulfonamide monohydrate'
_symmetry_cell_setting           monoclinic
_symmetry_space_group_name_H-M   'P 21'
_symmetry_Int_Tables_number      4
_space_group_name_Hall           'P 2yb'
loop_
_symmetry_equiv_pos_site_id
_symmetry_equiv_pos_as_xyz
1 x,y,z
2 -x,1/2+y,-z
_cell_length_a                   10.036(2)
_cell_length_b                   7.3432(15)
_cell_length_c                   10.826(2)
_cell_angle_alpha                90
_cell_angle_beta                 111.23(3)
_cell_angle_gamma                90
_cell_volume                     743.691
_exptl_crystal_colour            colorless
_exptl_crystal_description       Plate
_cell_formula_units_Z            2
loop_
_atom_site_label
_atom_site_type_symbol
_atom_site_fract_x
_atom_site_fract_y
_atom_site_fract_z
S1 S 0.48290(5) 0.39761(6) 0.34478(4)
O1 O 0.41971(15) 0.2864(2) 0.22877(15)
O2 O 0.46455(15) 0.3471(2) 0.46600(15)
O3 O 0.08142(17) 0.6277(2) 0.05745(16)
H1 H 0.0976 0.5258 0.0904
N1 N 0.41439(17) 0.5986(2) 0.31075(15)
H2 H 0.4531 0.6703 0.3769
C1 C 1.1198(2) 0.4562(3) 0.4654(2)
H3 H 1.1424 0.4123 0.3918
H4 H 1.1709 0.3860 0.5429
H5 H 1.1468 0.5819 0.4811
C2 C 0.9611(2) 0.4378(3) 0.4343(2)
C3 C 0.8701(2) 0.3701(3) 0.3125(2)
H6 H 0.9077 0.3352 0.2493
C4 C 0.7236(2) 0.3540(3) 0.2842(2)
H7 H 0.6637 0.3083 0.2029
C5 C 0.66838(18) 0.4069(3) 0.37851(18)
C6 C 0.7569(2) 0.4755(3) 0.50062(19)
H8 H 0.7188 0.5123 0.5631
C7 C 0.9023(2) 0.4882(3) 0.5277(2)
H9 H 0.9619 0.5312 0.6099
C8 C 0.4001(2) 0.6932(3) 0.18530(18)
H10 H 0.3717 0.6037 0.1132
C9 C 0.5379(2) 0.7801(3) 0.1915(2)
H11 H 0.5760 0.8700 0.2551
C10 C 0.6092(2) 0.7392(3) 0.1141(2)
H12 H 0.5693 0.6537 0.0476
C11 C 0.7504(3) 0.8211(4) 0.1261(3)
H13 H 0.7772 0.9114 0.1949
H14 H 0.7425 0.8769 0.0435
H15 H 0.8219 0.7274 0.1474
C12 C 0.2806(2) 0.8346(3) 0.1577(2)
H16 H 0.3130 0.9302 0.2237
H17 H 0.2642 0.8894 0.0719
C13 C 0.1397(2) 0.7617(3) 0.1585(2)
H18 H 0.1543 0.7080 0.2443
H19 H 0.0724 0.8613 0.1447
O4 O 0.11347(18) 0.2826(2) 0.15735(16)
H20 H 0.201(4) 0.260(5) 0.174(3)
H21 H 0.056(4) 0.216(5) 0.087(3)
loop_
_geom_bond_atom_site_label_1
_geom_bond_atom_site_label_2
_geom_bond_site_symmetry_1
_geom_bond_site_symmetry_2
S1 O1 1_555 1_555
O2 S1 1_555 1_555
O3 H1 1_555 1_555
N1 S1 1_555 1_555
H2 N1 1_555 1_555
C1 H3 1_555 1_555
H4 C1 1_555 1_555
H5 C1 1_555 1_555
C2 C1 1_555 1_555
C3 C2 1_555 1_555
H6 C3 1_555 1_555
C4 C3 1_555 1_555
H7 C4 1_555 1_555
C5 S1 1_555 1_555
C6 C5 1_555 1_555
H8 C6 1_555 1_555
C7 C2 1_555 1_555
H9 C7 1_555 1_555
C8 N1 1_555 1_555
H10 C8 1_555 1_555
C9 C8 1_555 1_555
H11 C9 1_555 1_555
C10 C9 1_555 1_555
H12 C10 1_555 1_555
C11 C10 1_555 1_555
H13 C11 1_555 1_555
H14 C11 1_555 1_555
H15 C11 1_555 1_555
C12 C8 1_555 1_555
H16 C12 1_555 1_555
H17 C12 1_555 1_555
C13 O3 1_555 1_555
H18 C13 1_555 1_555
H19 C13 1_555 1_555
O4 H20 1_555 1_555
H21 O4 1_555 1_555
C4 C5 1_555 1_555
C6 C7 1_555 1_555
C12 C13 1_555 1_555

#END
