
#######################################################################
#
#                 Cambridge Crystallographic Data Centre
#                                CCDC 
#
#######################################################################
#
# If this CIF has been generated from an entry in the Cambridge 
# Structural Database, then it will include bibliographic, chemical, 
# crystal, experimental, refinement or atomic coordinate data resulting 
# from the CCDC's data processing and validation procedures.
#
#######################################################################

data_GOZXOK
_chemical_formula_moiety         'C19 H18 Br1 N1 O4 S1'
_chemical_name_systematic        
5-bromo-3-((4-methylphenyl)sulfonyl)-4-(2-phenylvinyl)-1,3-oxazinan-2-one
_symmetry_cell_setting           orthorhombic
_symmetry_space_group_name_H-M   'P 21 21 21'
_symmetry_Int_Tables_number      19
_space_group_name_Hall           'P 2ac 2ab'
loop_
_symmetry_equiv_pos_site_id
_symmetry_equiv_pos_as_xyz
1 x,y,z
2 1/2-x,-y,1/2+z
3 -x,1/2+y,1/2-z
4 1/2+x,1/2-y,-z
_cell_length_a                   7.963(2)
_cell_length_b                   11.336(3)
_cell_length_c                   20.402(5)
_cell_angle_alpha                90
_cell_angle_beta                 90
_cell_angle_gamma                90
_cell_volume                     1841.66
_exptl_crystal_colour            colorless
_exptl_crystal_description       block
_cell_formula_units_Z            4
loop_
_atom_site_label
_atom_site_type_symbol
_atom_site_fract_x
_atom_site_fract_y
_atom_site_fract_z
Br1 Br 0.39930(5) 0.30537(3) 0.85487(2)
S1 S 0.86866(10) 0.25032(7) 0.76684(4)
O1 O 0.4903(3) 0.4430(2) 0.71323(12)
O2 O 0.7560(3) 0.4845(2) 0.72855(13)
O3 O 0.9876(3) 0.2895(2) 0.71942(11)
O4 O 0.8513(3) 0.12645(19) 0.77901(12)
N1 N 0.6753(3) 0.2925(2) 0.74212(12)
C1 C 0.3783(4) 0.2622(3) 0.76231(14)
H1 H 0.2852 0.2063 0.7575
C2 C 0.5393(4) 0.2034(3) 0.73928(14)
H2 H 0.5667 0.1384 0.7691
C3 C 0.6471(4) 0.4107(3) 0.72798(16)
C4 C 0.3427(4) 0.3698(3) 0.72111(17)
H3 H 0.3031 0.3451 0.6783
H4 H 0.2543 0.4156 0.7416
C5 C 0.5130(4) 0.1546(3) 0.67147(16)
H5 H 0.4349 0.0940 0.6672
C6 C 0.5898(4) 0.1891(3) 0.61748(14)
H6 H 0.6735 0.2456 0.6222
C7 C 0.5563(4) 0.1472(3) 0.55043(16)
C8 C 0.4598(5) 0.0461(3) 0.53697(18)
H7 H 0.4172 0.0013 0.5714
C9 C 0.4277(5) 0.0125(3) 0.47281(17)
H8 H 0.3652 -0.0551 0.4645
C10 C 0.4884(5) 0.0796(3) 0.42070(18)
H9 H 0.4665 0.0573 0.3777
C11 C 0.5818(5) 0.1798(3) 0.43376(16)
H10 H 0.6209 0.2259 0.3993
C12 C 0.6175(5) 0.2119(3) 0.49762(15)
H11 H 0.6836 0.2781 0.5054
C13 C 0.9064(4) 0.3218(3) 0.84161(14)
C14 C 0.9752(4) 0.4352(3) 0.84335(17)
H12 H 0.9930 0.4772 0.8048
C15 C 1.0163(5) 0.4839(3) 0.90366(18)
H13 H 1.0616 0.5594 0.9052
C16 C 0.9912(5) 0.4225(3) 0.96156(17)
C17 C 0.9223(5) 0.3100(4) 0.95853(16)
H14 H 0.9050 0.2679 0.9971
C18 C 0.8790(5) 0.2594(3) 0.89907(16)
H15 H 0.8320 0.1844 0.8977
C19 C 1.0437(6) 0.4746(4) 1.0264(2)
H16 H 1.1639 0.4803 1.0281
H17 H 1.0051 0.4248 1.0614
H18 H 0.9954 0.5517 1.0311
loop_
_geom_bond_atom_site_label_1
_geom_bond_atom_site_label_2
_geom_bond_site_symmetry_1
_geom_bond_site_symmetry_2
Br1 C1 1_555 1_555
S1 O3 1_555 1_555
O1 C3 1_555 1_555
O2 C3 1_555 1_555
O4 S1 1_555 1_555
N1 S1 1_555 1_555
C1 H1 1_555 1_555
C2 N1 1_555 1_555
H2 C2 1_555 1_555
C3 N1 1_555 1_555
C4 O1 1_555 1_555
H3 C4 1_555 1_555
H4 C4 1_555 1_555
C5 C2 1_555 1_555
H5 C5 1_555 1_555
C6 C5 1_555 1_555
H6 C6 1_555 1_555
C7 C6 1_555 1_555
C8 C7 1_555 1_555
H7 C8 1_555 1_555
C9 C8 1_555 1_555
H8 C9 1_555 1_555
C10 C9 1_555 1_555
H9 C10 1_555 1_555
C11 C10 1_555 1_555
H10 C11 1_555 1_555
C12 C7 1_555 1_555
H11 C12 1_555 1_555
C13 S1 1_555 1_555
C14 C13 1_555 1_555
H12 C14 1_555 1_555
C15 C14 1_555 1_555
H13 C15 1_555 1_555
C16 C15 1_555 1_555
C17 C16 1_555 1_555
H14 C17 1_555 1_555
C18 C13 1_555 1_555
H15 C18 1_555 1_555
C19 C16 1_555 1_555
H16 C19 1_555 1_555
H17 C19 1_555 1_555
H18 C19 1_555 1_555
C1 C2 1_555 1_555
C1 C4 1_555 1_555
C11 C12 1_555 1_555
C17 C18 1_555 1_555

#END
