
#######################################################################
#
#                 Cambridge Crystallographic Data Centre
#                                CCDC 
#
#######################################################################
#
# If this CIF has been generated from an entry in the Cambridge 
# Structural Database, then it will include bibliographic, chemical, 
# crystal, experimental, refinement or atomic coordinate data resulting 
# from the CCDC's data processing and validation procedures.
#
#######################################################################

data_GOZXEA
_chemical_formula_moiety         'C20 H24 Br1 N1 O5 S2'
_chemical_name_systematic        
'2-bromo-3-(((4-methylphenyl)sulfonyl)amino)hex-4-en-1-yl 4-methylbenzenesulfonate'
_symmetry_cell_setting           orthorhombic
_symmetry_space_group_name_H-M   'P 21 21 21'
_symmetry_Int_Tables_number      19
_space_group_name_Hall           'P 2ac 2ab'
loop_
_symmetry_equiv_pos_site_id
_symmetry_equiv_pos_as_xyz
1 x,y,z
2 1/2-x,-y,1/2+z
3 -x,1/2+y,1/2-z
4 1/2+x,1/2-y,-z
_cell_length_a                   5.6597(12)
_cell_length_b                   15.690(3)
_cell_length_c                   24.567(5)
_cell_angle_alpha                90
_cell_angle_beta                 90
_cell_angle_gamma                90
_cell_volume                     2181.57
_exptl_crystal_colour            colorless
_exptl_crystal_description       rod
_cell_formula_units_Z            4
loop_
_atom_site_label
_atom_site_type_symbol
_atom_site_fract_x
_atom_site_fract_y
_atom_site_fract_z
Br1 Br 0.02822(9) 0.26904(3) 0.57258(2)
S1 S 0.6541(2) 0.49863(9) 0.49872(5)
S2 S 0.5163(2) 0.28480(8) 0.72998(4)
O1 O 0.9028(6) 0.5037(2) 0.50153(16)
O2 O 0.5413(7) 0.4828(2) 0.44784(12)
O3 O 0.5886(5) 0.4252(2) 0.54048(13)
O4 O 0.7505(6) 0.2861(3) 0.70708(14)
O5 O 0.4379(7) 0.2125(2) 0.76064(13)
N1 N 0.3309(8) 0.2931(3) 0.67986(17)
C1 C 0.2181(10) 0.8058(4) 0.6070(2)
H1 H 0.3106 0.8559 0.6000
H2 H 0.2114 0.7956 0.6455
H3 H 0.0610 0.8139 0.5932
C2 C 0.3295(8) 0.7307(3) 0.57928(19)
C3 C 0.2238(8) 0.6931(3) 0.5343(2)
H4 H 0.0830 0.7155 0.5211
C4 C 0.3219(8) 0.6230(3) 0.50857(19)
H5 H 0.2488 0.5987 0.4785
C5 C 0.5307(8) 0.5902(3) 0.52855(18)
C6 C 0.6416(8) 0.6256(3) 0.5740(2)
H6 H 0.7814 0.6025 0.5874
C7 C 0.5401(9) 0.6953(3) 0.5986(2)
H7 H 0.6133 0.7195 0.6288
C8 C 0.3471(8) 0.3936(3) 0.53841(19)
H8 H 0.3136 0.3685 0.5032
H9 H 0.2356 0.4394 0.5450
C9 C 0.3316(8) 0.3274(3) 0.58273(18)
H10 H 0.4594 0.2860 0.5776
C10 C 0.3492(8) 0.3642(3) 0.64051(19)
H11 H 0.5085 0.3879 0.6443
C11 C 0.1793(9) 0.4349(3) 0.65327(19)
H12 H 0.0190 0.4244 0.6482
C12 C 0.2416(10) 0.5106(3) 0.67114(19)
H13 H 0.4027 0.5217 0.6734
C13 C 0.0776(10) 0.5808(3) 0.6883(2)
H14 H 0.0998 0.6293 0.6650
H15 H 0.1108 0.5965 0.7253
H16 H -0.0829 0.5614 0.6856
C14 C 0.4893(9) 0.3764(3) 0.77119(17)
C15 C 0.6639(9) 0.4376(3) 0.7715(2)
H17 H 0.7975 0.4313 0.7498
C16 C 0.6383(9) 0.5087(3) 0.8045(2)
H18 H 0.7550 0.5505 0.8045
C17 C 0.4406(9) 0.5187(3) 0.83764(19)
C18 C 0.2672(9) 0.4564(3) 0.8364(2)
H19 H 0.1339 0.4623 0.8582
C19 C 0.2889(9) 0.3857(3) 0.8031(2)
H20 H 0.1702 0.3448 0.8022
C20 C 0.4194(10) 0.5953(3) 0.8741(2)
H21 H 0.5722 0.6208 0.8789
H22 H 0.3581 0.5781 0.9088
H23 H 0.3142 0.6360 0.8578
H24 H 0.196(9) 0.282(4) 0.686(2)
loop_
_geom_bond_atom_site_label_1
_geom_bond_atom_site_label_2
_geom_bond_site_symmetry_1
_geom_bond_site_symmetry_2
Br1 C9 1_555 1_555
S1 O1 1_555 1_555
S2 O4 1_555 1_555
O2 S1 1_555 1_555
O3 S1 1_555 1_555
O5 S2 1_555 1_555
N1 S2 1_555 1_555
C1 H1 1_555 1_555
H2 C1 1_555 1_555
H3 C1 1_555 1_555
C2 C1 1_555 1_555
C3 C2 1_555 1_555
H4 C3 1_555 1_555
C4 C3 1_555 1_555
H5 C4 1_555 1_555
C5 S1 1_555 1_555
C6 C5 1_555 1_555
H6 C6 1_555 1_555
C7 C2 1_555 1_555
H7 C7 1_555 1_555
C8 O3 1_555 1_555
H8 C8 1_555 1_555
H9 C8 1_555 1_555
C9 C8 1_555 1_555
H10 C9 1_555 1_555
C10 N1 1_555 1_555
H11 C10 1_555 1_555
C11 C10 1_555 1_555
H12 C11 1_555 1_555
C12 C11 1_555 1_555
H13 C12 1_555 1_555
C13 C12 1_555 1_555
H14 C13 1_555 1_555
H15 C13 1_555 1_555
H16 C13 1_555 1_555
C14 S2 1_555 1_555
C15 C14 1_555 1_555
H17 C15 1_555 1_555
C16 C15 1_555 1_555
H18 C16 1_555 1_555
C17 C16 1_555 1_555
C18 C17 1_555 1_555
H19 C18 1_555 1_555
C19 C14 1_555 1_555
H20 C19 1_555 1_555
C20 C17 1_555 1_555
H21 C20 1_555 1_555
H22 C20 1_555 1_555
H23 C20 1_555 1_555
H24 N1 1_555 1_555
C4 C5 1_555 1_555
C6 C7 1_555 1_555
C9 C10 1_555 1_555
C18 C19 1_555 1_555

#END
