
#######################################################################
#
#                 Cambridge Crystallographic Data Centre
#                                CCDC 
#
#######################################################################
#
# If this CIF has been generated from an entry in the Cambridge 
# Structural Database, then it will include bibliographic, chemical, 
# crystal, experimental, refinement or atomic coordinate data resulting 
# from the CCDC's data processing and validation procedures.
#
#######################################################################

data_GRISFL03
_chemical_name_common            Griseofulvin
_chemical_formula_moiety         'C17 H17 Cl1 O6'
_chemical_name_systematic        
7-Chloro-2',4,6-trimethoxy-6'-methyl-3H,4'H-spiro[1-benzofuran-2,1'-cyclohex[2]ene]-3,4'-dione
_chemical_properties_biological  
'(+) stereoisomer is antifungal, antibiotic agent'
_symmetry_cell_setting           tetragonal
_symmetry_space_group_name_H-M   'P 41'
_symmetry_Int_Tables_number      76
_space_group_name_Hall           'P 4w'
loop_
_symmetry_equiv_pos_site_id
_symmetry_equiv_pos_as_xyz
1 x,y,z
2 -x,-y,1/2+z
3 -y,x,1/4+z
4 y,-x,3/4+z
_cell_length_a                   8.969(2)
_cell_length_b                   8.969(2)
_cell_length_c                   19.951(5)
_cell_angle_alpha                90
_cell_angle_beta                 90
_cell_angle_gamma                90
_cell_volume                     1604.92
_exptl_crystal_colour            colorless
_exptl_crystal_description       platelet
_cell_formula_units_Z            4
loop_
_atom_site_label
_atom_site_type_symbol
_atom_site_fract_x
_atom_site_fract_y
_atom_site_fract_z
Cl1 Cl -0.01798(9) -0.00510(13) 0.74629(6)
O1 O 0.1310(3) -0.1815(3) 0.84884(12)
O2 O 0.6256(2) 0.0077(2) 0.80444(10)
O3 O 0.2207(2) 0.1731(2) 0.67856(10)
O4 O 0.6122(2) 0.2224(3) 0.68409(11)
O5 O 0.2561(3) 0.4593(3) 0.68780(13)
O6 O 0.6014(4) 0.4586(4) 0.50999(18)
C1 C 0.1689(3) -0.0034(4) 0.76554(15)
C2 C 0.2286(4) -0.0928(3) 0.81625(15)
C3 C 0.3812(4) -0.0909(4) 0.83035(15)
H1 H 0.4185 -0.1505 0.8646
C4 C 0.4774(3) -0.0012(3) 0.79403(15)
C5 C 0.4190(3) 0.0874(3) 0.74256(15)
C6 C 0.2658(3) 0.0838(3) 0.72996(14)
C7 C 0.1860(5) -0.2739(4) 0.90212(19)
H2 H 0.1043 -0.3260 0.9226
H3 H 0.2346 -0.2129 0.9350
H4 H 0.2559 -0.3447 0.8844
C8 C 0.6878(4) -0.0798(4) 0.85788(16)
H5 H 0.7928 -0.0605 0.8612
H6 H 0.6720 -0.1837 0.8488
H7 H 0.6402 -0.0537 0.8993
C9 C 0.3524(3) 0.2319(3) 0.64664(15)
C10 C 0.4847(3) 0.1840(3) 0.69314(16)
C11 C 0.3422(4) 0.3994(4) 0.64050(17)
C12 C 0.4199(4) 0.4712(4) 0.59361(19)
H8 H 0.4157 0.5747 0.5920
C13 C 0.5102(4) 0.3927(5) 0.54533(18)
C14 C 0.4942(4) 0.2281(5) 0.53876(18)
H9 H 0.5846 0.1814 0.5552
H10 H 0.4849 0.2037 0.4916
C15 C 0.3618(4) 0.1613(4) 0.57599(15)
H11 H 0.2715 0.1907 0.5517
C16 C 0.2383(5) 0.6195(4) 0.6881(3)
H12 H 0.3331 0.6659 0.6959
H13 H 0.1701 0.6475 0.7230
H14 H 0.1997 0.6515 0.6456
C17 C 0.3656(5) -0.0066(4) 0.57733(19)
H15 H 0.3635 -0.0442 0.5323
H16 H 0.2805 -0.0433 0.6014
H17 H 0.4551 -0.0395 0.5992
loop_
_geom_bond_atom_site_label_1
_geom_bond_atom_site_label_2
_geom_bond_site_symmetry_1
_geom_bond_site_symmetry_2
Cl1 C1 1_555 1_555
O1 C2 1_555 1_555
O2 C4 1_555 1_555
O3 C6 1_555 1_555
O4 C10 1_555 1_555
O5 C11 1_555 1_555
O6 C13 1_555 1_555
C1 C2 1_555 1_555
C2 C3 1_555 1_555
C3 H1 1_555 1_555
C4 C3 1_555 1_555
C5 C4 1_555 1_555
C6 C1 1_555 1_555
C7 O1 1_555 1_555
H2 C7 1_555 1_555
H3 C7 1_555 1_555
H4 C7 1_555 1_555
C8 O2 1_555 1_555
H5 C8 1_555 1_555
H6 C8 1_555 1_555
H7 C8 1_555 1_555
C9 O3 1_555 1_555
C10 C5 1_555 1_555
C11 C9 1_555 1_555
C12 C11 1_555 1_555
H8 C12 1_555 1_555
C13 C12 1_555 1_555
C14 C13 1_555 1_555
H9 C14 1_555 1_555
H10 C14 1_555 1_555
C15 C9 1_555 1_555
H11 C15 1_555 1_555
C16 O5 1_555 1_555
H12 C16 1_555 1_555
H13 C16 1_555 1_555
H14 C16 1_555 1_555
C17 C15 1_555 1_555
H15 C17 1_555 1_555
H16 C17 1_555 1_555
H17 C17 1_555 1_555
C5 C6 1_555 1_555
C9 C10 1_555 1_555
C14 C15 1_555 1_555

#END
