
#######################################################################
#
#                 Cambridge Crystallographic Data Centre
#                                CCDC 
#
#######################################################################
#
# If this CIF has been generated from an entry in the Cambridge 
# Structural Database, then it will include bibliographic, chemical, 
# crystal, experimental, refinement or atomic coordinate data resulting 
# from the CCDC's data processing and validation procedures.
#
#######################################################################

data_GRISFL09
_chemical_name_common            Griseofulvin
_chemical_formula_moiety         'C17 H17 Cl1 O6'
_chemical_name_systematic        
7-chloro-2',4,6-trimethoxy-6'-methyl-3H,4'H-spiro[1-benzofuran-2,1'-cyclohex[2]ene]-3,4'-dione
_symmetry_cell_setting           orthorhombic
_symmetry_space_group_name_H-M   'P 21 21 21'
_symmetry_Int_Tables_number      19
_space_group_name_Hall           'P 2ac 2ab'
loop_
_symmetry_equiv_pos_site_id
_symmetry_equiv_pos_as_xyz
1 x,y,z
2 1/2-x,-y,1/2+z
3 -x,1/2+y,1/2-z
4 1/2+x,1/2-y,-z
_cell_length_a                   11.6359(6)
_cell_length_b                   11.9510(6)
_cell_length_c                   23.6290(12)
_cell_angle_alpha                90
_cell_angle_beta                 90
_cell_angle_gamma                90
_cell_volume                     3285.86
_chemical_melting_point          '486 K'
_cell_formula_units_Z            8
_exptl_crystal_recrystallization_method 'From the Melt'
loop_
_atom_site_label
_atom_site_type_symbol
_atom_site_fract_x
_atom_site_fract_y
_atom_site_fract_z
C1 C 0.5764(2) 0.32068(18) 0.66742(11)
H1 H 0.506258 0.293330 0.685741
H2 H 0.642364 0.276916 0.680655
H3 H 0.569064 0.312800 0.626298
C2 C 0.2116(2) 0.42273(17) 0.57724(9)
H4 H 0.267294 0.388511 0.551407
H5 H 0.134264 0.416633 0.561062
H6 H 0.213849 0.383969 0.613770
C3 C 0.36128(18) 0.67526(16) 0.62549(8)
C4 C 0.33781(19) 0.56152(16) 0.61395(8)
C5 C 0.41536(19) 0.48032(17) 0.63222(9)
H7 H 0.401444 0.403732 0.623913
C6 C 0.51385(19) 0.51087(17) 0.66280(9)
C7 C 0.53655(19) 0.62350(17) 0.67642(9)
C8 C 0.45954(18) 0.70225(16) 0.65703(8)
C9 C 0.30838(18) 0.78028(16) 0.60792(9)
C10 C 0.38844(18) 0.87354(16) 0.63238(9)
C11 C 0.32856(19) 0.95940(17) 0.67050(9)
H8 H 0.388411 0.991709 0.696100
C12 C 0.2805(2) 1.05595(18) 0.63461(11)
H9 H 0.216736 1.027328 0.610929
H10 H 0.248606 1.113865 0.660127
C13 C 0.3691(2) 1.10864(18) 0.59697(10)
C14 C 0.4505(2) 1.03342(18) 0.56925(10)
H11 H 0.499686 1.061615 0.540494
C15 C 0.45687(18) 0.92490(17) 0.58384(9)
C16 C 0.5903(2) 0.8786(2) 0.51090(10)
H12 H 0.538774 0.902107 0.480322
H13 H 0.636410 0.814699 0.498234
H14 H 0.641259 0.940687 0.521055
C17 C 0.2351(2) 0.9076(2) 0.70824(10)
H15 H 0.168355 0.887754 0.685017
H16 H 0.211957 0.961807 0.737202
H17 H 0.265354 0.840204 0.726575
Cl1 Cl 0.65685(5) 0.66315(4) 0.71484(2)
O1 O 0.59338(14) 0.43707(12) 0.68152(7)
O2 O 0.23988(14) 0.53893(12) 0.58529(6)
O3 O 0.22324(14) 0.79990(13) 0.57992(7)
O4 O 0.47238(13) 0.81355(12) 0.66747(6)
O5 O 0.52306(15) 0.84648(13) 0.55970(7)
O6 O 0.37184(18) 1.20992(14) 0.58881(9)
C18 C 0.2326(2) -0.06090(19) 0.45330(13)
H18 H 0.207578 -0.100302 0.419071
H19 H 0.172481 -0.066221 0.482247
H20 H 0.303438 -0.095052 0.467564
C19 C 0.5477(3) -0.1599(2) 0.32056(13)
H21 H 0.572779 -0.169645 0.359842
H22 H 0.597786 -0.203161 0.295437
H23 H 0.468306 -0.186163 0.316594
C20 C 0.5068(2) 0.14133(19) 0.32190(9)
C21 C 0.4855(2) 0.0283(2) 0.33404(9)
C22 C 0.4011(2) -0.00378(18) 0.37327(10)
H24 H 0.387750 -0.080904 0.380470
C23 C 0.3365(2) 0.07706(17) 0.40178(9)
C24 C 0.35865(19) 0.19082(17) 0.39070(9)
C25 C 0.44346(19) 0.21940(17) 0.35128(9)
C26 C 0.31467(18) 0.29505(17) 0.41459(9)
C27 C 0.38933(19) 0.38848(17) 0.38662(9)
C28 C 0.4721(2) 0.44686(18) 0.42837(10)
H25 H 0.535274 0.480611 0.405295
C29 C 0.4123(2) 0.54280(19) 0.45923(10)
H26 H 0.351717 0.512278 0.484251
H27 H 0.468816 0.582802 0.483164
C30 C 0.3591(2) 0.62404(19) 0.41752(11)
C31 C 0.2992(2) 0.57622(19) 0.36860(10)
H28 H 0.250249 0.622504 0.346517
C32 C 0.31230(19) 0.46788(18) 0.35444(9)
C33 C 0.1740(2) 0.4733(2) 0.27955(12)
H29 H 0.115610 0.504486 0.304931
H30 H 0.137389 0.422444 0.252489
H31 H 0.211935 0.534239 0.258990
C34 C 0.5283(2) 0.3631(2) 0.46918(12)
H32 H 0.583360 0.402467 0.493460
H33 H 0.568493 0.305299 0.447437
H34 H 0.468922 0.328207 0.492697
Cl2 Cl 0.61651(6) 0.18174(6) 0.27648(3)
O7 O 0.25332(16) 0.05469(13) 0.44015(8)
O8 O 0.55371(18) -0.04393(15) 0.30570(7)
O9 O 0.46172(14) 0.33107(13) 0.34520(6)
O10 O 0.23793(14) 0.31386(13) 0.44835(7)
O11 O 0.25815(15) 0.41271(14) 0.31228(7)
O12 O 0.3639(2) 0.72527(15) 0.42491(10)
loop_
_geom_bond_atom_site_label_1
_geom_bond_atom_site_label_2
_geom_bond_site_symmetry_1
_geom_bond_site_symmetry_2
C1 H1 1_555 1_555
H2 C1 1_555 1_555
H3 C1 1_555 1_555
C2 H4 1_555 1_555
H5 C2 1_555 1_555
H6 C2 1_555 1_555
C3 C4 1_555 1_555
C4 C5 1_555 1_555
C5 H7 1_555 1_555
C6 C5 1_555 1_555
C7 C6 1_555 1_555
C8 C3 1_555 1_555
C9 C3 1_555 1_555
C10 C9 1_555 1_555
C11 C10 1_555 1_555
H8 C11 1_555 1_555
C12 C11 1_555 1_555
H9 C12 1_555 1_555
H10 C12 1_555 1_555
C13 C12 1_555 1_555
C14 C13 1_555 1_555
H11 C14 1_555 1_555
C15 C10 1_555 1_555
C16 H12 1_555 1_555
H13 C16 1_555 1_555
H14 C16 1_555 1_555
C17 C11 1_555 1_555
H15 C17 1_555 1_555
H16 C17 1_555 1_555
H17 C17 1_555 1_555
Cl1 C7 1_555 1_555
O1 C1 1_555 1_555
O2 C2 1_555 1_555
O3 C9 1_555 1_555
O4 C8 1_555 1_555
O5 C15 1_555 1_555
O6 C13 1_555 1_555
C18 H18 1_555 1_555
H19 C18 1_555 1_555
H20 C18 1_555 1_555
C19 H21 1_555 1_555
H22 C19 1_555 1_555
H23 C19 1_555 1_555
C20 C21 1_555 1_555
C21 C22 1_555 1_555
C22 H24 1_555 1_555
C23 C22 1_555 1_555
C24 C23 1_555 1_555
C25 C20 1_555 1_555
C26 C24 1_555 1_555
C27 C26 1_555 1_555
C28 C27 1_555 1_555
H25 C28 1_555 1_555
C29 C28 1_555 1_555
H26 C29 1_555 1_555
H27 C29 1_555 1_555
C30 C29 1_555 1_555
C31 C30 1_555 1_555
H28 C31 1_555 1_555
C32 C27 1_555 1_555
C33 H29 1_555 1_555
H30 C33 1_555 1_555
H31 C33 1_555 1_555
C34 C28 1_555 1_555
H32 C34 1_555 1_555
H33 C34 1_555 1_555
H34 C34 1_555 1_555
Cl2 C20 1_555 1_555
O7 C18 1_555 1_555
O8 C19 1_555 1_555
O9 C25 1_555 1_555
O10 C26 1_555 1_555
O11 C32 1_555 1_555
O12 C30 1_555 1_555
C4 O2 1_555 1_555
C6 O1 1_555 1_555
C7 C8 1_555 1_555
C10 O4 1_555 1_555
C14 C15 1_555 1_555
C16 O5 1_555 1_555
C21 O8 1_555 1_555
C23 O7 1_555 1_555
C24 C25 1_555 1_555
C27 O9 1_555 1_555
C31 C32 1_555 1_555
C33 O11 1_555 1_555

#END
