
#######################################################################
#
#                 Cambridge Crystallographic Data Centre
#                                CCDC 
#
#######################################################################
#
# If this CIF has been generated from an entry in the Cambridge 
# Structural Database, then it will include bibliographic, chemical, 
# crystal, experimental, refinement or atomic coordinate data resulting 
# from the CCDC's data processing and validation procedures.
#
#######################################################################

data_GRISFL07
_chemical_name_common            Griseofulvin
_chemical_formula_moiety         'C17 H17 Cl1 O6'
_chemical_name_systematic        
7-chloro-2',4,6-trimethoxy-6'-methyl-3H,4'H-spiro[1-benzofuran-2,1'-cyclohex[2]ene]-3,4'-dione
_symmetry_cell_setting           tetragonal
_symmetry_space_group_name_H-M   'P 41'
_symmetry_Int_Tables_number      76
_space_group_name_Hall           'P 4w'
loop_
_symmetry_equiv_pos_site_id
_symmetry_equiv_pos_as_xyz
1 x,y,z
2 -x,-y,1/2+z
3 -y,x,1/4+z
4 y,-x,3/4+z
_cell_length_a                   8.9144(5)
_cell_length_b                   8.9144(5)
_cell_length_c                   19.6524(12)
_cell_angle_alpha                90
_cell_angle_beta                 90
_cell_angle_gamma                90
_cell_volume                     1561.71
_cell_formula_units_Z            4
loop_
_atom_site_label
_atom_site_type_symbol
_atom_site_fract_x
_atom_site_fract_y
_atom_site_fract_z
C1 C 1.0825(3) 0.6871(3) 0.65297(11)
H1 H 1.052449 0.641685 0.696301
H2 H 1.067685 0.795878 0.655174
H3 H 1.188552 0.665325 0.644294
C2 C 1.0018(2) 0.4765(2) 0.58808(11)
C3 C 1.0953(2) 0.3804(2) 0.62458(10)
H4 H 1.157813 0.419548 0.659495
C4 C 1.0978(2) 0.2265(2) 0.61009(10)
C5 C 1.0055(2) 0.1653(2) 0.55948(11)
C6 C 0.9151(2) 0.2621(2) 0.52385(10)
C7 C 0.9115(2) 0.4163(2) 0.53641(10)
C8 C 1.2812(3) 0.1851(3) 0.69619(12)
H5 H 1.353908 0.256455 0.677466
H6 H 1.334666 0.101666 0.717779
H7 H 1.218458 0.235787 0.730081
C9 C 0.8109(2) 0.4821(2) 0.48664(10)
C10 C 0.7642(2) 0.3484(2) 0.43962(11)
C11 C 0.5952(2) 0.3373(2) 0.43356(11)
C12 C 0.5221(2) 0.4179(3) 0.38649(12)
H8 H 0.415722 0.413703 0.384790
C13 C 0.6019(3) 0.5115(3) 0.33800(12)
C14 C 0.7688(3) 0.4940(3) 0.33093(11)
H9 H 0.817856 0.585916 0.348383
H10 H 0.793619 0.485406 0.281984
C15 C 0.8341(2) 0.3586(2) 0.36821(10)
H11 H 0.803238 0.266756 0.342549
C16 C 1.0053(3) 0.3622(3) 0.36936(12)
H12 H 1.043518 0.362434 0.322592
H13 H 1.043083 0.273439 0.393313
H14 H 1.039328 0.452919 0.392898
C17 C 0.3743(3) 0.2312(3) 0.48042(16)
H15 H 0.327271 0.326255 0.493489
H16 H 0.345030 0.152719 0.512724
H17 H 0.341331 0.203103 0.434583
Cl1 Cl 1.00763(7) -0.02299(5) 0.53975(3)
O1 O 0.99243(17) 0.62564(17) 0.59873(7)
O2 O 1.18843(18) 0.12866(18) 0.64250(8)
O3 O 0.77070(18) 0.61057(16) 0.47818(8)
O4 O 0.82407(16) 0.21585(16) 0.47235(8)
O5 O 0.53512(18) 0.24798(18) 0.48108(9)
O6 O 0.5359(2) 0.6055(2) 0.30318(11)
loop_
_geom_bond_atom_site_label_1
_geom_bond_atom_site_label_2
_geom_bond_site_symmetry_1
_geom_bond_site_symmetry_2
C1 H1 1_555 1_555
H2 C1 1_555 1_555
H3 C1 1_555 1_555
C2 C3 1_555 1_555
C3 H4 1_555 1_555
C4 C3 1_555 1_555
C5 C4 1_555 1_555
C6 C5 1_555 1_555
C7 C2 1_555 1_555
C8 H5 1_555 1_555
H6 C8 1_555 1_555
H7 C8 1_555 1_555
C9 C7 1_555 1_555
C10 C9 1_555 1_555
C11 C10 1_555 1_555
C12 C11 1_555 1_555
H8 C12 1_555 1_555
C13 C12 1_555 1_555
C14 C13 1_555 1_555
H9 C14 1_555 1_555
H10 C14 1_555 1_555
C15 C10 1_555 1_555
H11 C15 1_555 1_555
C16 C15 1_555 1_555
H12 C16 1_555 1_555
H13 C16 1_555 1_555
H14 C16 1_555 1_555
C17 H15 1_555 1_555
H16 C17 1_555 1_555
H17 C17 1_555 1_555
Cl1 C5 1_555 1_555
O1 C1 1_555 1_555
O2 C4 1_555 1_555
O3 C9 1_555 1_555
O4 C6 1_555 1_555
O5 C11 1_555 1_555
O6 C13 1_555 1_555
C2 O1 1_555 1_555
C6 C7 1_555 1_555
C8 O2 1_555 1_555
C10 O4 1_555 1_555
C14 C15 1_555 1_555
C17 O5 1_555 1_555

#END
