
#######################################################################
#
#                 Cambridge Crystallographic Data Centre
#                                CCDC 
#
#######################################################################
#
# If this CIF has been generated from an entry in the Cambridge 
# Structural Database, then it will include bibliographic, chemical, 
# crystal, experimental, refinement or atomic coordinate data resulting 
# from the CCDC's data processing and validation procedures.
#
#######################################################################

data_GUACET03
_chemical_name_common            '2-guanidinoacetic acid'
_chemical_formula_moiety         'C3 H7 N3 O2'
_chemical_name_systematic        ((amino(iminio)methyl)amino)acetate
_symmetry_cell_setting           monoclinic
_symmetry_space_group_name_H-M   'P 21/n'
_symmetry_Int_Tables_number      14
_space_group_name_Hall           '-P 2yn'
loop_
_symmetry_equiv_pos_site_id
_symmetry_equiv_pos_as_xyz
1 x,y,z
2 1/2-x,1/2+y,1/2-z
3 -x,-y,-z
4 1/2+x,1/2-y,1/2+z
_cell_length_a                   4.949(4)
_cell_length_b                   6.013(5)
_cell_length_c                   17.200(15)
_cell_angle_alpha                90
_cell_angle_beta                 94.538(9)
_cell_angle_gamma                90
_cell_volume                     510.239
_cell_formula_units_Z            4
_exptl_crystal_recrystallization_method 'methanol/dimethyl sulfoxide'
loop_
_atom_site_label
_atom_site_type_symbol
_atom_site_fract_x
_atom_site_fract_y
_atom_site_fract_z
C1 C 0.2042(3) -0.0611(3) 0.61469(10)
C2 C 0.4061(3) 0.1106(3) 0.59053(10)
H1 H 0.5757 0.0367 0.5823
H2 H 0.3378 0.1762 0.5413
C3 C 0.6430(3) 0.4451(3) 0.63859(10)
N1 N 0.4579(3) 0.2866(2) 0.64754(9)
H3 H 0.3672 0.2891 0.6882
N2 N 0.6886(3) 0.5987(2) 0.69342(9)
H4 H 0.8088 0.6999 0.6883
H5 H 0.5981 0.5972 0.7341
N3 N 0.7827(3) 0.4486(2) 0.57641(9)
H6 H 0.9026 0.5502 0.5716
H7 H 0.7539 0.3494 0.5407
O1 O 0.1064(3) -0.0425(2) 0.67940(8)
O2 O 0.1527(3) -0.2116(2) 0.56560(8)
loop_
_geom_bond_atom_site_label_1
_geom_bond_atom_site_label_2
_geom_bond_site_symmetry_1
_geom_bond_site_symmetry_2
C1 C2 1_555 1_555
C2 H1 1_555 1_555
H2 C2 1_555 1_555
C3 N1 1_555 1_555
N1 C2 1_555 1_555
H3 N1 1_555 1_555
N2 C3 1_555 1_555
H4 N2 1_555 1_555
H5 N2 1_555 1_555
N3 C3 1_555 1_555
H6 N3 1_555 1_555
H7 N3 1_555 1_555
O1 C1 1_555 1_555
O2 C1 1_555 1_555

#END
