
#######################################################################
#
#                 Cambridge Crystallographic Data Centre
#                                CCDC 
#
#######################################################################
#
# If this CIF has been generated from an entry in the Cambridge 
# Structural Database, then it will include bibliographic, chemical, 
# crystal, experimental, refinement or atomic coordinate data resulting 
# from the CCDC's data processing and validation procedures.
#
#######################################################################

data_GUBBIQ
_chemical_formula_moiety         'C23 H30 O7'
_chemical_name_systematic        
18,18-bis(methoxymethyl)-6,7,9,10,18,19-hexahydro-17H-dibenzo[b,k][1,4,7,10,13]pentaoxacyclohexadecine
_symmetry_cell_setting           triclinic
_symmetry_space_group_name_H-M   'P -1'
_symmetry_Int_Tables_number      2
_space_group_name_Hall           '-P 1'
loop_
_symmetry_equiv_pos_site_id
_symmetry_equiv_pos_as_xyz
1 x,y,z
2 -x,-y,-z
_cell_length_a                   8.364(2)
_cell_length_b                   11.528(4)
_cell_length_c                   24.247(8)
_cell_angle_alpha                78.58(3)
_cell_angle_beta                 85.01(2)
_cell_angle_gamma                85.48(2)
_cell_volume                     2278.38
_exptl_crystal_colour            colorless
_exptl_crystal_description       block
_cell_formula_units_Z            4
loop_
_atom_site_label
_atom_site_type_symbol
_atom_site_fract_x
_atom_site_fract_y
_atom_site_fract_z
C1 C 0.7874(6) 0.7536(4) 0.4222(2)
C2 C 0.9101(7) 0.7951(4) 0.4457(2)
H1 H 0.9932(7) 0.7428(4) 0.4603(2)
C3 C 0.9106(9) 0.9136(6) 0.4478(2)
H2 H 0.9939(9) 0.9418(6) 0.4634(2)
C4 C 0.7877(9) 0.9885(5) 0.4266(2)
H3 H 0.7879(9) 1.0684(5) 0.4283(2)
C5 C 0.6612(7) 0.9500(4) 0.4025(2)
H4 H 0.5785(7) 1.0031(4) 0.3882(2)
C6 C 0.6614(7) 0.8296(4) 0.4002(2)
O1 O 0.5450(4) 0.7809(2) 0.37746(13)
C7 C 0.4177(6) 0.8581(4) 0.3518(2)
H5 H 0.4624(6) 0.9188(4) 0.3222(2)
H6 H 0.3569(6) 0.8968(4) 0.3797(2)
C8 C 0.3100(6) 0.7870(5) 0.3276(3)
H7 H 0.2725(6) 0.7221(5) 0.3566(3)
H8 H 0.2170(6) 0.8365(5) 0.3139(3)
O2 O 0.3946(4) 0.7421(3) 0.2833(2)
C9 C 0.2981(6) 0.6742(5) 0.2583(3)
H9 H 0.2147(6) 0.7255(5) 0.2389(3)
H10 H 0.2468(6) 0.6156(5) 0.2873(3)
C10 C 0.3993(7) 0.6141(5) 0.2178(2)
H11 H 0.3331(7) 0.5706(5) 0.1991(2)
H12 H 0.4538(7) 0.6721(5) 0.1894(2)
O3 O 0.5133(4) 0.5353(3) 0.24865(14)
C11 C 0.6237(6) 0.4701(4) 0.2203(2)
C12 C 0.6189(7) 0.4548(5) 0.1655(3)
H13 H 0.5362(7) 0.4922(5) 0.1439(3)
C13 C 0.7382(9) 0.3834(6) 0.1425(2)
H14 H 0.7346(9) 0.3730(6) 0.1056(2)
C14 C 0.8601(8) 0.3288(4) 0.1738(2)
H15 H 0.9383(8) 0.2800(4) 0.1585(2)
C15 C 0.8674(6) 0.3458(4) 0.2278(2)
H16 H 0.9523(6) 0.3101(4) 0.2487(2)
C16 C 0.7513(6) 0.4145(4) 0.2512(2)
O4 O 0.7443(3) 0.4368(2) 0.30493(12)
C17 C 0.8832(4) 0.4063(3) 0.3361(2)
H17 H 0.9770(4) 0.4392(3) 0.3139(2)
H18 H 0.9021(4) 0.3208(3) 0.3454(2)
C18 C 0.8529(4) 0.4571(3) 0.3896(2)
C19 C 0.8118(5) 0.5899(3) 0.3737(2)
H19 H 0.8993(5) 0.6288(3) 0.3501(2)
H20 H 0.7154(5) 0.6052(3) 0.3531(2)
O5 O 0.7862(3) 0.6329(2) 0.42571(11)
C20 C 1.0063(4) 0.4310(3) 0.4212(2)
H21 H 0.9878(4) 0.4549(3) 0.4575(2)
H22 H 1.0357(4) 0.3465(3) 0.4277(2)
O6 O 1.1320(3) 0.4933(3) 0.38917(13)
C21 C 1.2801(4) 0.4673(4) 0.4132(2)
H23 H 1.3629(7) 0.5063(25) 0.3880(7)
H24 H 1.2734(15) 0.4949(27) 0.4482(7)
H25 H 1.3051(20) 0.3832(5) 0.4201(13)
C22 C 0.7127(5) 0.4011(3) 0.4268(2)
H26 H 0.6857(5) 0.4432(3) 0.4575(2)
H27 H 0.6196(5) 0.4085(3) 0.4048(2)
O7 O 0.7495(4) 0.2808(2) 0.44882(13)
C23 C 0.6257(7) 0.2344(5) 0.4888(2)
H28 H 0.6634(54) 0.1558(16) 0.5059(17)
H29 H 0.6085(56) 0.2830(33) 0.5169(14)
H30 H 0.5264(34) 0.2309(38) 0.4722(20)
C24 C 0.3092(5) 0.1467(3) 0.2388(2)
C25 C 0.4264(6) 0.2004(4) 0.2590(2)
H31 H 0.5146(6) 0.2267(4) 0.2350(2)
C26 C 0.4160(7) 0.2159(4) 0.3139(2)
H32 H 0.4954(7) 0.2535(4) 0.3270(2)
C27 C 0.2873(6) 0.1754(4) 0.3490(2)
H33 H 0.2800(6) 0.1848(4) 0.3863(2)
C28 C 0.1674(5) 0.1206(3) 0.3299(2)
H34 H 0.0801(5) 0.0940(3) 0.3543(2)
C29 C 0.1775(5) 0.1057(3) 0.2748(2)
O8 O 0.0640(3) 0.0547(2) 0.25100(11)
C30 C -0.0749(5) 0.0150(4) 0.2868(2)
H35 H -0.1327(5) 0.0814(4) 0.3003(2)
H36 H -0.0421(5) -0.0432(4) 0.3192(2)
C31 C -0.1805(5) -0.0387(5) 0.2536(2)
H37 H -0.2849(5) -0.0500(5) 0.2740(2)
H38 H -0.1959(5) 0.0139(5) 0.2177(2)
O9 O -0.1090(3) -0.1480(3) 0.24455(13)
C32 C -0.2106(5) -0.2063(4) 0.2166(2)
H39 H -0.2648(5) -0.1489(4) 0.1883(2)
H40 H -0.2916(5) -0.2451(4) 0.2435(2)
C33 C -0.1126(5) -0.2951(4) 0.1895(2)
H41 H -0.0568(5) -0.3520(4) 0.2176(2)
H42 H -0.1810(5) -0.3376(4) 0.1711(2)
O10 O 0.0008(3) -0.2333(2) 0.14896(13)
C34 C 0.1044(5) -0.2965(4) 0.1177(2)
C35 C 0.0852(6) -0.4103(4) 0.1116(2)
H43 H -0.0027(6) -0.4502(4) 0.1299(2)
C36 C 0.1965(8) -0.4653(5) 0.0784(3)
H44 H 0.1819(8) -0.5420(5) 0.0740(3)
C37 C 0.3279(7) -0.4094(5) 0.0518(2)
H45 H 0.4023(7) -0.4477(5) 0.0296(2)
C38 C 0.3494(6) -0.2949(4) 0.0582(2)
H46 H 0.4392(6) -0.2564(4) 0.0407(2)
C39 C 0.2391(5) -0.2388(4) 0.0903(2)
O11 O 0.2476(3) -0.1265(2) 0.09993(11)
C40 C 0.3992(4) -0.0744(3) 0.0870(2)
H47 H 0.4292(4) -0.0652(3) 0.0469(2)
H48 H 0.4817(4) -0.1253(3) 0.1072(2)
C41 C 0.3856(4) 0.0459(3) 0.10424(15)
C42 C 0.3392(5) 0.0280(3) 0.1671(2)
H49 H 0.2396(5) -0.0118(3) 0.1759(2)
H50 H 0.4226(5) -0.0202(3) 0.1879(2)
O12 O 0.3196(3) 0.1427(2) 0.18204(12)
C43 C 0.5479(4) 0.0997(4) 0.0893(2)
H51 H 0.5697(4) 0.1159(4) 0.0487(2)
H52 H 0.5451(4) 0.1742(4) 0.1023(2)
O13 O 0.6709(3) 0.0225(3) 0.11419(12)
C44 C 0.8265(5) 0.0546(5) 0.0911(2)
H53 H 0.9095(37) 0.0031(26) 0.1098(14)
H54 H 0.8376(49) 0.0529(31) 0.0515(4)
H55 H 0.8359(48) 0.1341(12) 0.0964(15)
C45 C 0.2571(4) 0.1278(4) 0.0723(2)
H56 H 0.1530(4) 0.0945(4) 0.0818(2)
H57 H 0.2508(4) 0.2047(4) 0.0832(2)
O14 O 0.2961(3) 0.1408(3) 0.01434(12)
C46 C 0.1825(6) 0.2155(5) -0.0184(2)
H58 H 0.2072(54) 0.2250(40) -0.0584(5)
H59 H 0.0782(28) 0.1847(38) -0.0088(18)
H60 H 0.1828(54) 0.2909(21) -0.0073(18)
loop_
_geom_bond_atom_site_label_1
_geom_bond_atom_site_label_2
_geom_bond_site_symmetry_1
_geom_bond_site_symmetry_2
C1 C2 1_555 1_555
C2 H1 1_555 1_555
C3 C2 1_555 1_555
H2 C3 1_555 1_555
C4 C3 1_555 1_555
H3 C4 1_555 1_555
C5 C4 1_555 1_555
H4 C5 1_555 1_555
C6 C1 1_555 1_555
O1 C6 1_555 1_555
C7 O1 1_555 1_555
H5 C7 1_555 1_555
H6 C7 1_555 1_555
C8 C7 1_555 1_555
H7 C8 1_555 1_555
H8 C8 1_555 1_555
O2 C8 1_555 1_555
C9 O2 1_555 1_555
H9 C9 1_555 1_555
H10 C9 1_555 1_555
C10 C9 1_555 1_555
H11 C10 1_555 1_555
H12 C10 1_555 1_555
O3 C10 1_555 1_555
C11 O3 1_555 1_555
C12 C11 1_555 1_555
H13 C12 1_555 1_555
C13 C12 1_555 1_555
H14 C13 1_555 1_555
C14 C13 1_555 1_555
H15 C14 1_555 1_555
C15 C14 1_555 1_555
H16 C15 1_555 1_555
C16 C11 1_555 1_555
O4 C16 1_555 1_555
C17 O4 1_555 1_555
H17 C17 1_555 1_555
H18 C17 1_555 1_555
C18 C17 1_555 1_555
C19 C18 1_555 1_555
H19 C19 1_555 1_555
H20 C19 1_555 1_555
O5 C1 1_555 1_555
C20 C18 1_555 1_555
H21 C20 1_555 1_555
H22 C20 1_555 1_555
O6 C20 1_555 1_555
C21 O6 1_555 1_555
H23 C21 1_555 1_555
H24 C21 1_555 1_555
H25 C21 1_555 1_555
C22 C18 1_555 1_555
H26 C22 1_555 1_555
H27 C22 1_555 1_555
O7 C22 1_555 1_555
C23 O7 1_555 1_555
H28 C23 1_555 1_555
H29 C23 1_555 1_555
H30 C23 1_555 1_555
C24 C25 1_555 1_555
C25 H31 1_555 1_555
C26 C25 1_555 1_555
H32 C26 1_555 1_555
C27 C26 1_555 1_555
H33 C27 1_555 1_555
C28 C27 1_555 1_555
H34 C28 1_555 1_555
C29 C24 1_555 1_555
O8 C29 1_555 1_555
C30 O8 1_555 1_555
H35 C30 1_555 1_555
H36 C30 1_555 1_555
C31 C30 1_555 1_555
H37 C31 1_555 1_555
H38 C31 1_555 1_555
O9 C31 1_555 1_555
C32 O9 1_555 1_555
H39 C32 1_555 1_555
H40 C32 1_555 1_555
C33 C32 1_555 1_555
H41 C33 1_555 1_555
H42 C33 1_555 1_555
O10 C33 1_555 1_555
C34 O10 1_555 1_555
C35 C34 1_555 1_555
H43 C35 1_555 1_555
C36 C35 1_555 1_555
H44 C36 1_555 1_555
C37 C36 1_555 1_555
H45 C37 1_555 1_555
C38 C37 1_555 1_555
H46 C38 1_555 1_555
C39 C34 1_555 1_555
O11 C39 1_555 1_555
C40 O11 1_555 1_555
H47 C40 1_555 1_555
H48 C40 1_555 1_555
C41 C40 1_555 1_555
C42 C41 1_555 1_555
H49 C42 1_555 1_555
H50 C42 1_555 1_555
O12 C24 1_555 1_555
C43 C41 1_555 1_555
H51 C43 1_555 1_555
H52 C43 1_555 1_555
O13 C43 1_555 1_555
C44 O13 1_555 1_555
H53 C44 1_555 1_555
H54 C44 1_555 1_555
H55 C44 1_555 1_555
C45 C41 1_555 1_555
H56 C45 1_555 1_555
H57 C45 1_555 1_555
O14 C45 1_555 1_555
C46 O14 1_555 1_555
H58 C46 1_555 1_555
H59 C46 1_555 1_555
H60 C46 1_555 1_555
C5 C6 1_555 1_555
C15 C16 1_555 1_555
C19 O5 1_555 1_555
C28 C29 1_555 1_555
C38 C39 1_555 1_555
C42 O12 1_555 1_555

#END
