
#######################################################################
#
#                 Cambridge Crystallographic Data Centre
#                                CCDC 
#
#######################################################################
#
# If this CIF has been generated from an entry in the Cambridge 
# Structural Database, then it will include bibliographic, chemical, 
# crystal, experimental, refinement or atomic coordinate data resulting 
# from the CCDC's data processing and validation procedures.
#
#######################################################################

data_GUBDAK
_chemical_formula_moiety         'C24 H27 N3 O2'
_chemical_name_systematic        
1-butyl-4-methyl-2,6-dioxo-5-(2-(1,3,3-trimethyl-1,3-dihydro-2H-indol-2-ylidene)ethylidene)-1,2,5,6-tetrahydropyridine-3-carbonitrile
_symmetry_cell_setting           monoclinic
_symmetry_space_group_name_H-M   'P 21/c'
_symmetry_Int_Tables_number      14
_space_group_name_Hall           '-P 2ybc'
loop_
_symmetry_equiv_pos_site_id
_symmetry_equiv_pos_as_xyz
1 x,y,z
2 -x,1/2+y,1/2-z
3 -x,-y,-z
4 x,1/2-y,1/2+z
_cell_length_a                   10.8848(2)
_cell_length_b                   15.0436(3)
_cell_length_c                   12.8829(2)
_cell_angle_alpha                90
_cell_angle_beta                 101.2440(10)
_cell_angle_gamma                90
_cell_volume                     2069.04
_exptl_crystal_colour            red
_exptl_crystal_description       block
_cell_formula_units_Z            4
loop_
_atom_site_label
_atom_site_type_symbol
_atom_site_fract_x
_atom_site_fract_y
_atom_site_fract_z
C1 C 0.61583(7) -0.12407(5) 0.94631(6)
C2 C 0.64659(7) -0.21190(5) 1.00659(6)
C3 C 0.55326(8) -0.27407(6) 0.94092(7)
C4 C 0.53561(9) -0.36471(6) 0.95079(8)
H1 H 0.5815 -0.3964 1.0073
C5 C 0.44683(9) -0.40721(6) 0.87344(8)
H2 H 0.4323 -0.4677 0.8793
C6 C 0.38001(9) -0.35985(7) 0.78772(8)
H3 H 0.3239 -0.3899 0.7358
C7 C 0.39549(8) -0.26836(7) 0.77807(7)
H4 H 0.3501 -0.2363 0.7216
C8 C 0.48213(8) -0.22762(6) 0.85706(6)
C9 C 0.67124(8) -0.04015(6) 0.96932(7)
H5 H 0.6327 0.0099 0.9352
C10 C 0.78227(8) -0.03103(5) 1.04200(6)
H6 H 0.8140 -0.0836 1.0746
C11 C 0.85506(7) 0.04516(5) 1.07453(6)
C12 C 0.97550(7) 0.03497(5) 1.14057(6)
C13 C 1.04469(7) 0.10955(5) 1.17714(6)
C14 C 0.99706(8) 0.19935(5) 1.15629(6)
C15 C 0.80896(8) 0.13392(5) 1.04148(7)
C16 C 0.45521(9) -0.06986(7) 0.79384(8)
H7 H 0.3700 -0.0646 0.8027
H8 H 0.4566 -0.0866 0.7222
H9 H 0.4970 -0.0138 0.8092
C17 C 0.61882(9) -0.20172(6) 1.11911(7)
H10 H 0.5361 -0.1780 1.1146
H11 H 0.6788 -0.1620 1.1595
H12 H 0.6243 -0.2588 1.1531
C18 C 0.77952(8) -0.24823(6) 1.00820(8)
H13 H 0.7846 -0.3087 1.0326
H14 H 0.8396 -0.2127 1.0549
H15 H 0.7972 -0.2459 0.9381
C19 C 1.02819(8) -0.05616(6) 1.17043(7)
H16 H 1.1118 -0.0506 1.2109
H17 H 1.0298 -0.0899 1.1074
H18 H 0.9766 -0.0860 1.2120
C20 C 1.16752(8) 0.10157(6) 1.24085(7)
C21 C 0.82890(8) 0.29620(5) 1.06542(7)
H19 H 0.8498 0.3314 1.1296
H20 H 0.7383 0.2917 1.0472
C22 C 0.87492(8) 0.34505(6) 0.97662(7)
H21 H 0.8557 0.3104 0.9120
H22 H 0.9650 0.3527 0.9951
C23 C 0.81123(9) 0.43602(6) 0.95910(7)
H23 H 0.7214 0.4275 0.9391
H24 H 0.8277 0.4688 1.0252
C24 C 0.85554(11) 0.49110(7) 0.87401(8)
H25 H 0.9439 0.5018 0.8946
H26 H 0.8117 0.5468 0.8658
H27 H 0.8389 0.4593 0.8081
N1 N 0.51895(7) -0.13733(5) 0.86567(6)
N2 N 0.88129(7) 0.20646(5) 1.08727(6)
N3 N 1.26678(8) 0.09235(6) 1.29108(7)
O1 O 1.05372(6) 0.26613(4) 1.19505(5)
O2 O 0.71046(6) 0.14831(4) 0.97802(6)
loop_
_geom_bond_atom_site_label_1
_geom_bond_atom_site_label_2
_geom_bond_site_symmetry_1
_geom_bond_site_symmetry_2
C1 C2 1_555 1_555
C2 C3 1_555 1_555
C3 C4 1_555 1_555
C4 H1 1_555 1_555
C5 C4 1_555 1_555
H2 C5 1_555 1_555
C6 C5 1_555 1_555
H3 C6 1_555 1_555
C7 C6 1_555 1_555
H4 C7 1_555 1_555
C8 C3 1_555 1_555
C9 C1 1_555 1_555
H5 C9 1_555 1_555
C10 C9 1_555 1_555
H6 C10 1_555 1_555
C11 C10 1_555 1_555
C12 C11 1_555 1_555
C13 C12 1_555 1_555
C14 C13 1_555 1_555
C15 C11 1_555 1_555
C16 H7 1_555 1_555
H8 C16 1_555 1_555
H9 C16 1_555 1_555
C17 C2 1_555 1_555
H10 C17 1_555 1_555
H11 C17 1_555 1_555
H12 C17 1_555 1_555
C18 C2 1_555 1_555
H13 C18 1_555 1_555
H14 C18 1_555 1_555
H15 C18 1_555 1_555
C19 C12 1_555 1_555
H16 C19 1_555 1_555
H17 C19 1_555 1_555
H18 C19 1_555 1_555
C20 C13 1_555 1_555
C21 H19 1_555 1_555
H20 C21 1_555 1_555
C22 C21 1_555 1_555
H21 C22 1_555 1_555
H22 C22 1_555 1_555
C23 C22 1_555 1_555
H23 C23 1_555 1_555
H24 C23 1_555 1_555
C24 C23 1_555 1_555
H25 C24 1_555 1_555
H26 C24 1_555 1_555
H27 C24 1_555 1_555
N1 C1 1_555 1_555
N2 C14 1_555 1_555
N3 C20 1_555 1_555
O1 C14 1_555 1_555
O2 C15 1_555 1_555
C7 C8 1_555 1_555
C8 N1 1_555 1_555
C15 N2 1_555 1_555
C16 N1 1_555 1_555
C21 N2 1_555 1_555

#END
