
#######################################################################
#
#                 Cambridge Crystallographic Data Centre
#                                CCDC 
#
#######################################################################
#
# If this CIF has been generated from an entry in the Cambridge 
# Structural Database, then it will include bibliographic, chemical, 
# crystal, experimental, refinement or atomic coordinate data resulting 
# from the CCDC's data processing and validation procedures.
#
#######################################################################

data_GUBHUH
_chemical_compound_source        
'fruiting bodies of the ascomycete Xylaria polymorpha NBRC 33288'
_chemical_formula_moiety         'C26 H42 O8,C1 H4 O1'
_chemical_name_systematic        
'16-\a-D-Mannopyranosyloxyisopimar-7-en-19-oic acid methanol solvate'
_chemical_properties_biological  'anticancer activity'
_symmetry_cell_setting           monoclinic
_symmetry_space_group_name_H-M   'P 21'
_symmetry_Int_Tables_number      4
_space_group_name_Hall           'P 2yb'
loop_
_symmetry_equiv_pos_site_id
_symmetry_equiv_pos_as_xyz
1 x,y,z
2 -x,1/2+y,-z
_cell_length_a                   11.3800(11)
_cell_length_b                   6.8700(7)
_cell_length_c                   17.4900(18)
_cell_angle_alpha                90
_cell_angle_beta                 101.3900(11)
_cell_angle_gamma                90
_cell_volume                     1340.45
_exptl_crystal_colour            colorless
_exptl_crystal_description       prism
_cell_formula_units_Z            2
loop_
_atom_site_label
_atom_site_type_symbol
_atom_site_fract_x
_atom_site_fract_y
_atom_site_fract_z
O1 O 0.60475(12) 0.2080(2) 0.79712(8)
O2 O 0.08999(11) 0.01945(17) 0.22832(7)
O3 O -0.02911(11) 0.04170(17) 0.10261(7)
O4 O 0.18933(11) 0.13144(18) 0.05135(7)
O5 O 0.21468(11) 0.50241(19) 0.12575(7)
O6 O -0.03930(12) 0.57582(18) 0.10641(8)
O7 O -0.21360(11) 0.24722(19) -0.01055(7)
O9 O 0.48054(12) -0.0097(2) 0.83043(8)
C1 C 0.39382(16) 0.2792(2) 0.76368(10)
C2 C 0.43957(16) 0.4834(2) 0.74834(10)
C3 C 0.49488(16) 0.5006(2) 0.67637(10)
C4 C 0.40592(16) 0.4327(2) 0.60459(10)
C5 C 0.36315(15) 0.2217(2) 0.61063(10)
C6 C 0.25803(15) 0.1827(2) 0.54031(10)
C7 C 0.29840(16) 0.1716(2) 0.46153(10)
C8 C 0.19671(16) 0.1210(2) 0.39410(10)
C9 C 0.13494(15) -0.0728(2) 0.40563(10)
C10 C 0.08955(16) -0.0535(2) 0.48259(10)
C11 C 0.18254(15) 0.0065(2) 0.55194(10)
C12 C 0.19221(17) -0.0790(2) 0.62072(11)
C13 C 0.27227(18) -0.0127(2) 0.69436(10)
C14 C 0.31460(16) 0.1976(2) 0.68647(10)
C15 C 0.49690(17) 0.1421(2) 0.79902(10)
C16 C 0.31546(18) 0.2967(3) 0.82492(11)
C17 C 0.22055(18) -0.2448(3) 0.41075(12)
C18 C 0.46711(16) 0.0785(2) 0.60845(11)
C19 C 0.02378(16) -0.1078(2) 0.34074(10)
C20 C 0.04354(17) -0.1497(2) 0.25948(10)
C21 C 0.08704(16) 0.0084(2) 0.14770(10)
C22 C 0.17600(16) 0.1586(2) 0.13063(10)
C23 C 0.12991(16) 0.3628(2) 0.14203(10)
C24 C 0.00638(16) 0.3887(2) 0.09252(11)
C25 C -0.07472(16) 0.2305(2) 0.11603(10)
C26 C -0.20290(17) 0.2395(3) 0.07163(10)
H1 H 0.3736 0.5706 0.7420
H2 H 0.4980 0.5210 0.7925
H3 H 0.5165 0.6321 0.6697
H4 H 0.5644 0.4209 0.6832
H5 H 0.3382 0.5164 0.5972
H6 H 0.4435 0.4417 0.5608
H7 H 0.3311 0.2939 0.4513
H8 H 0.3585 0.0742 0.4653
H9 H 0.1390 0.2226 0.3884
H10 H 0.2286 0.1117 0.3480
H11 H 0.0262 0.0390 0.4755
H12 H 0.0599 -0.1771 0.4940
H13 H 0.1456 -0.1927 0.6231
H14 H 0.2292 -0.0193 0.7356
H15 H 0.3404 -0.0953 0.7058
H16 H -0.0184 -0.2151 0.3565
H17 H -0.0248 0.0056 0.3374
H18 H -0.0304 -0.1861 0.2271
H19 H 0.0993 -0.2534 0.2617
H20 H 0.3569 0.3781 0.8729
H21 H 0.2329 0.3601 0.8039
H22 H 0.2969 0.1521 0.8449
H23 H 0.2755 -0.2347 0.4635
H24 H 0.1685 -0.3637 0.4065
H25 H 0.2745 -0.2607 0.3695
H26 H 0.5264 0.0617 0.6591
H27 H 0.4364 -0.0553 0.5971
H28 H 0.5104 0.1217 0.5701
H29 H 0.1131 -0.1173 0.1357
H30 H 0.2511 0.1391 0.1648
H31 H 0.1239 0.3762 0.1952
H32 H 0.0096 0.3751 0.0389
H33 H -0.0747 0.2438 0.1701
H34 H -0.2391 0.3531 0.0876
H35 H -0.2441 0.1276 0.0844
H39 H 0.6523 0.1396 0.8177
H40 H 0.2025 0.5605 0.0852
H41 H -0.0790 0.6062 0.0597
H42 H -0.2002 0.3382 -0.0157
H43 H 0.2465 0.1949 0.0446
H45 H 0.2065 0.2924 0.5371
H46 H 0.2436 0.2738 0.6786
O8 O 0.38967(13) 0.3048(2) 0.03671(8)
C27 C 0.4693(2) 0.1597(3) 0.02456(13)
H36 H 0.5489 0.1993 0.0461
H37 H 0.4615 0.1384 -0.0299
H38 H 0.4517 0.0426 0.0489
H44 H 0.4275 0.3827 0.0754
loop_
_geom_bond_atom_site_label_1
_geom_bond_atom_site_label_2
_geom_bond_site_symmetry_1
_geom_bond_site_symmetry_2
O1 C15 1_555 1_555
O2 C20 1_555 1_555
O3 C21 1_555 1_555
O4 C22 1_555 1_555
O5 C23 1_555 1_555
O6 C24 1_555 1_555
O7 C26 1_555 1_555
O8 C27 1_555 1_555
O9 C15 1_555 1_555
C1 C2 1_555 1_555
C2 C3 1_555 1_555
C3 C4 1_555 1_555
C4 C5 1_555 1_555
C5 C6 1_555 1_555
C6 C7 1_555 1_555
C7 C8 1_555 1_555
C8 C9 1_555 1_555
C9 C10 1_555 1_555
C10 C11 1_555 1_555
C11 C6 1_555 1_555
C12 C11 1_555 1_555
C13 C12 1_555 1_555
C14 C1 1_555 1_555
C15 C1 1_555 1_555
C16 C1 1_555 1_555
C17 C9 1_555 1_555
C18 C5 1_555 1_555
C19 C9 1_555 1_555
C20 C19 1_555 1_555
C21 O2 1_555 1_555
C22 C21 1_555 1_555
C23 C22 1_555 1_555
C24 C23 1_555 1_555
C25 O3 1_555 1_555
C26 C25 1_555 1_555
C27 H36 1_555 1_555
H1 C2 1_555 1_555
H2 C2 1_555 1_555
H3 C3 1_555 1_555
H4 C3 1_555 1_555
H5 C4 1_555 1_555
H6 C4 1_555 1_555
H7 C7 1_555 1_555
H8 C7 1_555 1_555
H9 C8 1_555 1_555
H10 C8 1_555 1_555
H11 C10 1_555 1_555
H12 C10 1_555 1_555
H13 C12 1_555 1_555
H14 C13 1_555 1_555
H15 C13 1_555 1_555
H16 C19 1_555 1_555
H17 C19 1_555 1_555
H18 C20 1_555 1_555
H19 C20 1_555 1_555
H20 C16 1_555 1_555
H21 C16 1_555 1_555
H22 C16 1_555 1_555
H23 C17 1_555 1_555
H24 C17 1_555 1_555
H25 C17 1_555 1_555
H26 C18 1_555 1_555
H27 C18 1_555 1_555
H28 C18 1_555 1_555
H29 C21 1_555 1_555
H30 C22 1_555 1_555
H31 C23 1_555 1_555
H32 C24 1_555 1_555
H33 C25 1_555 1_555
H34 C26 1_555 1_555
H35 C26 1_555 1_555
H37 C27 1_555 1_555
H38 C27 1_555 1_555
H39 O1 1_555 1_555
H40 O5 1_555 1_555
H41 O6 1_555 1_555
H42 O7 1_555 1_555
H43 O4 1_555 1_555
H44 O8 1_555 1_555
H45 C6 1_555 1_555
H46 C14 1_555 1_555
C5 C14 1_555 1_555
C13 C14 1_555 1_555
C24 C25 1_555 1_555

#END
