
#######################################################################
#
#                 Cambridge Crystallographic Data Centre
#                                CCDC 
#
#######################################################################
#
# If this CIF has been generated from an entry in the Cambridge 
# Structural Database, then it will include bibliographic, chemical, 
# crystal, experimental, refinement or atomic coordinate data resulting 
# from the CCDC's data processing and validation procedures.
#
#######################################################################

data_GUBJAP
_chemical_formula_moiety         'C54 H66 O7,C1 H4 O1'
_chemical_name_systematic        
'5,11,17,23-Tetra-t-butyl-25-(2-(4-formyl-2-methoxyphenoxy)ethoxy)-26,27,28-trihydroxycalix(4)arene methanol solvate'
_symmetry_cell_setting           triclinic
_symmetry_space_group_name_H-M   'P -1'
_symmetry_Int_Tables_number      2
_space_group_name_Hall           '-P 1'
loop_
_symmetry_equiv_pos_site_id
_symmetry_equiv_pos_as_xyz
1 x,y,z
2 -x,-y,-z
_cell_length_a                   11.781(3)
_cell_length_b                   13.544(3)
_cell_length_c                   18.455(4)
_cell_angle_alpha                80.850(3)
_cell_angle_beta                 74.043(3)
_cell_angle_gamma                66.862(3)
_cell_volume                     2599.17
_cell_formula_units_Z            2
loop_
_atom_site_label
_atom_site_type_symbol
_atom_site_fract_x
_atom_site_fract_y
_atom_site_fract_z
O1 O 1.0450(3) 0.7627(3) 0.05643(18)
O2 O 0.7431(4) 0.8929(3) 0.22232(19)
H1 H 0.7540 0.8444 0.1966
O3 O 0.8325(3) 0.7291(3) 0.13833(19)
H2 H 0.8934 0.7286 0.1034
O4 O 0.8848(3) 0.7916(3) -0.0380(2)
O5 O 0.9467(3) 0.9490(3) 0.1594(2)
H3 H 0.8779 0.9420 0.1753
O6 O 0.7379(3) 0.6864(3) 0.0172(2)
C1 C 1.2258(5) 0.7112(4) 0.1120(3)
C2 C 0.7237(4) 0.8584(4) 0.2974(3)
C3 C 0.6573(5) 0.7475(4) 0.3999(3)
H4 H 0.6275 0.6919 0.4178
C4 C 1.3204(5) 0.6284(5) 0.1394(3)
H5 H 1.3766 0.6459 0.1570
C5 C 1.2079(5) 0.8287(4) 0.1162(3)
H6 H 1.2901 0.8357 0.1011
H7 H 1.1576 0.8736 0.0812
C6 C 0.6789(4) 0.7744(4) 0.3232(3)
C7 C 0.9502(5) 0.9475(4) 0.2906(3)
C8 C 0.7497(4) 0.9107(4) 0.3473(3)
C9 C 1.0536(5) 0.5481(4) 0.0694(3)
H8 H 1.0942 0.4803 0.0450
H9 H 1.0127 0.6030 0.0344
C10 C 1.1526(5) 0.5772(5) 0.0894(3)
C11 C 0.8538(5) 0.6277(5) 0.1709(3)
C12 C 1.0100(5) 0.9210(4) 0.2163(3)
C13 C 1.2490(5) 0.4983(4) 0.1170(3)
H10 H 1.2561 0.4271 0.1188
C14 C 1.1430(5) 0.6844(4) 0.0850(3)
C15 C 0.6539(5) 0.7144(4) 0.2695(3)
H11 H 0.5844 0.6914 0.2961
H12 H 0.6270 0.7640 0.2280
C16 C 0.8069(5) 0.9961(4) 0.3170(3)
H13 H 0.7714 1.0374 0.2752
H14 H 0.7845 1.0448 0.3563
C17 C 0.7244(5) 0.8803(5) 0.4229(3)
H15 H 0.7396 0.9159 0.4562
C18 C 1.1424(5) 0.8677(4) 0.1952(3)
C19 C 0.9541(5) 0.5383(5) 0.1406(3)
C20 C 0.7665(5) 0.6174(5) 0.2374(3)
C21 C 0.9686(5) 0.4385(5) 0.1792(3)
H16 H 1.0370 0.3785 0.1592
C22 C 0.7851(6) 0.5164(5) 0.2740(3)
H17 H 0.7276 0.5104 0.3189
C23 C 0.6877(5) 0.7789(4) -0.0228(3)
C24 C 0.8843(6) 0.4247(5) 0.2471(3)
C25 C 1.2101(5) 0.8495(4) 0.2488(3)
H18 H 1.2979 0.8150 0.2350
C26 C 0.6775(5) 0.7992(5) 0.4521(3)
C27 C 0.7695(5) 0.8367(4) -0.0541(3)
C28 C 1.4449(5) 0.4315(5) 0.1719(3)
C29 C 0.5678(5) 0.8197(5) -0.0344(3)
H19 H 0.5130 0.7833 -0.0128
C30 C 0.6452(7) 0.7701(6) 0.5366(3)
C31 C 1.1545(5) 0.8799(5) 0.3227(3)
C32 C 0.5260(6) 0.9151(5) -0.0780(3)
C33 C 1.3369(5) 0.5211(5) 0.1425(3)
C34 C 1.0233(5) 0.9264(4) 0.3415(3)
H20 H 0.9829 0.9442 0.3911
C35 C 0.9585(5) 0.8581(5) -0.0482(3)
H21 H 0.9121 0.9203 -0.0179
H22 H 0.9779 0.8829 -0.1008
C36 C 1.0795(5) 0.7886(5) -0.0233(3)
H23 H 1.1217 0.7233 -0.0506
H24 H 1.1369 0.8271 -0.0335
C37 C 0.7299(6) 0.9285(5) -0.0974(3)
H25 H 0.7841 0.9655 -0.1190
C38 C 0.6546(6) 0.6367(5) 0.0627(4)
H26 H 0.5898 0.6864 0.0979
H27 H 0.7016 0.5742 0.0898
H28 H 0.6161 0.6158 0.0313
O7 O 0.3184(5) 0.9184(5) -0.0657(3)
C39 C 1.2387(6) 0.8609(6) 0.3786(4)
C40 C 0.9083(7) 0.3152(5) 0.2870(4)
C41 C 0.6081(6) 0.9674(5) -0.1095(4)
H29 H 0.5819 1.0302 -0.1397
C42 C 1.4054(6) 0.3376(5) 0.2110(4)
H30 H 1.3359 0.3622 0.2539
H31 H 1.4759 0.2820 0.2273
H32 H 1.3797 0.3096 0.1762
C43 C 1.3101(7) 0.7400(6) 0.3904(4)
H33 H 1.3611 0.7277 0.4259
H34 H 1.3638 0.7114 0.3431
H35 H 1.2503 0.7049 0.4096
C44 C 1.5566(6) 0.3861(5) 0.1048(4)
H36 H 1.5285 0.3610 0.0696
H37 H 1.6231 0.3273 0.1225
H38 H 1.5880 0.4414 0.0803
C45 C 1.1626(7) 0.9056(9) 0.4552(4)
H39 H 1.2190 0.8907 0.4879
H40 H 1.1014 0.8725 0.4770
H41 H 1.1195 0.9820 0.4491
C46 C 1.3352(7) 0.9164(6) 0.3464(5)
H42 H 1.2907 0.9923 0.3386
H43 H 1.3880 0.8872 0.2992
H44 H 1.3870 0.9045 0.3814
C47 C 1.4891(7) 0.4724(6) 0.2282(4)
H45 H 1.5332 0.5188 0.2017
H46 H 1.5450 0.4123 0.2525
H47 H 1.4167 0.5116 0.2655
C48 C 0.3977(7) 0.9576(7) -0.0900(5)
H48 H 0.3750 1.0216 -0.1194
C49 C 0.8082(15) 0.3170(8) 0.3539(7)
H49 H 0.7919 0.2518 0.3593
H50 H 0.7323 0.3775 0.3492
H51 H 0.8340 0.3229 0.3976
C50 C 0.6520(18) 0.6618(10) 0.5534(5)
H52 H 0.6619 0.6398 0.6041
H53 H 0.7233 0.6158 0.5188
H54 H 0.5753 0.6568 0.5485
C51 C 0.5194(12) 0.8384(13) 0.5707(5)
H55 H 0.4980 0.8156 0.6229
H56 H 0.4606 0.8342 0.5453
H57 H 0.5152 0.9112 0.5667
C52 C 1.0270(13) 0.2641(11) 0.2978(12)
H58 H 1.0371 0.2970 0.3369
H59 H 1.0876 0.2692 0.2518
H60 H 1.0408 0.1898 0.3125
C53 C 0.8917(16) 0.2439(9) 0.2374(7)
H61 H 0.9044 0.2721 0.1859
H62 H 0.8076 0.2427 0.2543
H63 H 0.9528 0.1721 0.2408
C54 C 0.7405(14) 0.7745(14) 0.5737(5)
H64 H 0.7033 0.8365 0.6033
H65 H 0.8129 0.7792 0.5358
H66 H 0.7666 0.7107 0.6058
O8 O 0.0489(12) 0.6143(15) 0.3250(9)
H67 H 0.1094 0.5656 0.3022
C55 C 0.011(2) 0.574(2) 0.4128(11)
H68 H 0.0841 0.5494 0.4338
H69 H -0.0191 0.5171 0.4162
H70 H -0.0548 0.6334 0.4404
loop_
_geom_bond_atom_site_label_1
_geom_bond_atom_site_label_2
_geom_bond_site_symmetry_1
_geom_bond_site_symmetry_2
O1 C14 1_555 1_555
O2 H1 1_555 1_555
O3 H2 1_555 1_555
O4 C27 1_555 1_555
O5 H3 1_555 1_555
O6 C23 1_555 1_555
C1 C4 1_555 1_555
C2 O2 1_555 1_555
C3 H4 1_555 1_555
C4 H5 1_555 1_555
C5 C1 1_555 1_555
H6 C5 1_555 1_555
H7 C5 1_555 1_555
C6 C2 1_555 1_555
C7 C12 1_555 1_555
C8 C2 1_555 1_555
C9 H8 1_555 1_555
H9 C9 1_555 1_555
C10 C9 1_555 1_555
C11 O3 1_555 1_555
C12 O5 1_555 1_555
C13 C10 1_555 1_555
H10 C13 1_555 1_555
C14 C1 1_555 1_555
C15 C6 1_555 1_555
H11 C15 1_555 1_555
H12 C15 1_555 1_555
C16 C7 1_555 1_555
H13 C16 1_555 1_555
H14 C16 1_555 1_555
C17 C8 1_555 1_555
H15 C17 1_555 1_555
C18 C5 1_555 1_555
C19 C9 1_555 1_555
C20 C11 1_555 1_555
C21 C19 1_555 1_555
H16 C21 1_555 1_555
C22 C20 1_555 1_555
H17 C22 1_555 1_555
C23 C27 1_555 1_555
C24 C21 1_555 1_555
C25 C18 1_555 1_555
H18 C25 1_555 1_555
C26 C3 1_555 1_555
C27 C37 1_555 1_555
C28 C33 1_555 1_555
C29 C23 1_555 1_555
H19 C29 1_555 1_555
C30 C26 1_555 1_555
C31 C25 1_555 1_555
C32 C29 1_555 1_555
C33 C4 1_555 1_555
C34 C7 1_555 1_555
H20 C34 1_555 1_555
C35 O4 1_555 1_555
H21 C35 1_555 1_555
H22 C35 1_555 1_555
C36 O1 1_555 1_555
H23 C36 1_555 1_555
H24 C36 1_555 1_555
C37 H25 1_555 1_555
C38 O6 1_555 1_555
H26 C38 1_555 1_555
H27 C38 1_555 1_555
H28 C38 1_555 1_555
O7 C48 1_555 1_555
C39 C31 1_555 1_555
C40 C24 1_555 1_555
C41 C32 1_555 1_555
H29 C41 1_555 1_555
C42 C28 1_555 1_555
H30 C42 1_555 1_555
H31 C42 1_555 1_555
H32 C42 1_555 1_555
C43 C39 1_555 1_555
H33 C43 1_555 1_555
H34 C43 1_555 1_555
H35 C43 1_555 1_555
C44 C28 1_555 1_555
H36 C44 1_555 1_555
H37 C44 1_555 1_555
H38 C44 1_555 1_555
C45 C39 1_555 1_555
H39 C45 1_555 1_555
H40 C45 1_555 1_555
H41 C45 1_555 1_555
C46 C39 1_555 1_555
H42 C46 1_555 1_555
H43 C46 1_555 1_555
H44 C46 1_555 1_555
C47 C28 1_555 1_555
H45 C47 1_555 1_555
H46 C47 1_555 1_555
H47 C47 1_555 1_555
C48 C32 1_555 1_555
H48 C48 1_555 1_555
C49 C40 1_555 1_555
H49 C49 1_555 1_555
H50 C49 1_555 1_555
H51 C49 1_555 1_555
C50 C30 1_555 1_555
H52 C50 1_555 1_555
H53 C50 1_555 1_555
H54 C50 1_555 1_555
C51 C30 1_555 1_555
H55 C51 1_555 1_555
H56 C51 1_555 1_555
H57 C51 1_555 1_555
C52 C40 1_555 1_555
H58 C52 1_555 1_555
H59 C52 1_555 1_555
H60 C52 1_555 1_555
C53 C40 1_555 1_555
H61 C53 1_555 1_555
H62 C53 1_555 1_555
H63 C53 1_555 1_555
C54 C30 1_555 1_555
H64 C54 1_555 1_555
H65 C54 1_555 1_555
H66 C54 1_555 1_555
O8 H67 1_555 1_555
C55 O8 1_555 1_555
H68 C55 1_555 1_555
H69 C55 1_555 1_555
H70 C55 1_555 1_555
C3 C6 1_555 1_555
C8 C16 1_555 1_555
C10 C14 1_555 1_555
C11 C19 1_555 1_555
C12 C18 1_555 1_555
C13 C33 1_555 1_555
C15 C20 1_555 1_555
C17 C26 1_555 1_555
C22 C24 1_555 1_555
C31 C34 1_555 1_555
C35 C36 1_555 1_555
C37 C41 1_555 1_555

#END
