
#######################################################################
#
#                 Cambridge Crystallographic Data Centre
#                                CCDC 
#
#######################################################################
#
# If this CIF has been generated from an entry in the Cambridge 
# Structural Database, then it will include bibliographic, chemical, 
# crystal, experimental, refinement or atomic coordinate data resulting 
# from the CCDC's data processing and validation procedures.
#
#######################################################################

data_GUBQEA
_chemical_formula_moiety         'C31 H28 N2 O2 P2'
_chemical_name_systematic        
N,N-bis(Diphenylphosphoryl)-2-(pyridin-2-yl)ethylamine
_symmetry_cell_setting           monoclinic
_symmetry_space_group_name_H-M   'P 21/c'
_symmetry_Int_Tables_number      14
_space_group_name_Hall           '-P 2ybc'
loop_
_symmetry_equiv_pos_site_id
_symmetry_equiv_pos_as_xyz
1 x,y,z
2 -x,1/2+y,1/2-z
3 -x,-y,-z
4 x,1/2-y,1/2+z
_cell_length_a                   13.1615(17)
_cell_length_b                   18.721(3)
_cell_length_c                   11.1081(15)
_cell_angle_alpha                90
_cell_angle_beta                 101.545(2)
_cell_angle_gamma                90
_cell_volume                     2681.62
_exptl_crystal_colour            colorless
_cell_formula_units_Z            4
_exptl_crystal_recrystallization_method ethanol
loop_
_atom_site_label
_atom_site_type_symbol
_atom_site_fract_x
_atom_site_fract_y
_atom_site_fract_z
P1 P 0.18206(5) 0.05806(3) 0.92054(6)
P2 P 0.29169(5) -0.06725(3) 0.83940(6)
O1 O 0.40293(14) -0.08427(10) 0.85266(18)
O2 O 0.07690(14) 0.03025(10) 0.87449(18)
N1 N 0.27092(17) 0.02157(11) 0.8483(2)
N2 N 0.4793(2) 0.11035(15) 0.6149(3)
C1 C 0.3128(2) 0.06339(17) 0.7484(3)
H1 H 0.3243 0.0305 0.6827
H2 H 0.2619 0.1001 0.7113
C2 C 0.4147(3) 0.09876(19) 0.8087(3)
H3 H 0.4043 0.1297 0.8775
H4 H 0.4672 0.0621 0.8412
C3 C 0.4500(2) 0.14273(17) 0.7106(3)
C4 C 0.4556(3) 0.21557(19) 0.7254(3)
H5 H 0.4306 0.2377 0.7907
C5 C 0.4979(3) 0.25603(18) 0.6445(4)
H6 H 0.5041 0.3064 0.6539
C6 C 0.5307(3) 0.2221(2) 0.5508(4)
H7 H 0.5614 0.2484 0.4942
C7 C 0.5190(3) 0.1513(2) 0.5394(3)
H8 H 0.5409 0.1289 0.4722
C8 C 0.2184(2) -0.09360(13) 0.6908(2)
C9 C 0.2624(2) -0.14365(15) 0.6241(3)
H9 H 0.3293 -0.1623 0.6567
C10 C 0.2088(2) -0.16640(17) 0.5100(3)
H10 H 0.2394 -0.2002 0.4643
C11 C 0.1117(3) -0.13992(18) 0.4634(3)
H11 H 0.0753 -0.1555 0.3852
C12 C 0.0666(2) -0.09077(17) 0.5291(3)
H12 H -0.0012 -0.0734 0.4967
C13 C 0.1198(2) -0.06667(15) 0.6419(3)
H13 H 0.0894 -0.0319 0.6860
C14 C 0.23394(19) -0.11055(12) 0.9541(2)
C15 C 0.1288(2) -0.12878(14) 0.9364(2)
H14 H 0.0835 -0.1181 0.8606
C16 C 0.0911(2) -0.16231(15) 1.0292(3)
H15 H 0.0196 -0.1742 1.0176
C17 C 0.1573(3) -0.17851(16) 1.1392(3)
H16 H 0.1310 -0.2017 1.2027
C18 C 0.2608(3) -0.16124(15) 1.1572(3)
H17 H 0.3057 -0.1723 1.2331
C19 C 0.2994(2) -0.12778(14) 1.0650(2)
H18 H 0.3711 -0.1165 1.0773
C20 C 0.2288(2) 0.04311(12) 1.0817(3)
C21 C 0.1577(2) 0.02271(13) 1.1526(3)
H19 H 0.0863 0.0183 1.1162
C22 C 0.1918(3) 0.00900(15) 1.2761(3)
H20 H 0.1438 -0.0055 1.3248
C23 C 0.2962(3) 0.01636(17) 1.3295(3)
H21 H 0.3192 0.0073 1.4147
C24 C 0.3667(3) 0.03685(16) 1.2590(3)
H22 H 0.4379 0.0418 1.2959
C25 C 0.3338(2) 0.05012(14) 1.1358(3)
H23 H 0.3823 0.0641 1.0874
C26 C 0.18713(19) 0.15290(13) 0.8922(2)
C27 C 0.2425(2) 0.20151(14) 0.9727(3)
H24 H 0.2837 0.1855 1.0481
C28 C 0.2384(3) 0.27389(16) 0.9441(4)
H25 H 0.2770 0.3071 0.9998
C29 C 0.1789(3) 0.29731(17) 0.8361(4)
H26 H 0.1770 0.3467 0.8162
C30 C 0.1220(3) 0.2496(2) 0.7564(4)
H27 H 0.0798 0.2661 0.6821
C31 C 0.1259(3) 0.17782(18) 0.7835(3)
H28 H 0.0865 0.1450 0.7276
C32? C 0.3799(8) 0.0636(6) 0.8525(8)
C33? C 0.3652(9) 0.0813(6) 0.7138(9)
H29? H 0.3854 0.1072 0.9039
H30? H 0.4408 0.0326 0.8811
H31? H 0.2942 0.0990 0.6808
H32? H 0.3787 0.0390 0.6661
loop_
_geom_bond_atom_site_label_1
_geom_bond_atom_site_label_2
_geom_bond_site_symmetry_1
_geom_bond_site_symmetry_2
P1 O2 1_555 1_555
P2 O1 1_555 1_555
N1 P1 1_555 1_555
N2 C3 1_555 1_555
C1 N1 1_555 1_555
H1 C1 1_555 1_555
H2 C1 1_555 1_555
C2 C1 1_555 1_555
H3 C2 1_555 1_555
H4 C2 1_555 1_555
C3 C2 1_555 1_555
C4 C3 1_555 1_555
H5 C4 1_555 1_555
C5 C4 1_555 1_555
H6 C5 1_555 1_555
C6 C5 1_555 1_555
H7 C6 1_555 1_555
C7 N2 1_555 1_555
H8 C7 1_555 1_555
C8 P2 1_555 1_555
C9 C8 1_555 1_555
H9 C9 1_555 1_555
C10 C9 1_555 1_555
H10 C10 1_555 1_555
C11 C10 1_555 1_555
H11 C11 1_555 1_555
C12 C11 1_555 1_555
H12 C12 1_555 1_555
C13 C8 1_555 1_555
H13 C13 1_555 1_555
C14 P2 1_555 1_555
C15 C14 1_555 1_555
H14 C15 1_555 1_555
C16 C15 1_555 1_555
H15 C16 1_555 1_555
C17 C16 1_555 1_555
H16 C17 1_555 1_555
C18 C17 1_555 1_555
H17 C18 1_555 1_555
C19 C14 1_555 1_555
H18 C19 1_555 1_555
C20 P1 1_555 1_555
C21 C20 1_555 1_555
H19 C21 1_555 1_555
C22 C21 1_555 1_555
H20 C22 1_555 1_555
C23 C22 1_555 1_555
H21 C23 1_555 1_555
C24 C23 1_555 1_555
H22 C24 1_555 1_555
C25 C20 1_555 1_555
H23 C25 1_555 1_555
C26 P1 1_555 1_555
C27 C26 1_555 1_555
H24 C27 1_555 1_555
C28 C27 1_555 1_555
H25 C28 1_555 1_555
C29 C28 1_555 1_555
H26 C29 1_555 1_555
C30 C29 1_555 1_555
H27 C30 1_555 1_555
C31 C26 1_555 1_555
H28 C31 1_555 1_555
P2 N1 1_555 1_555
C6 C7 1_555 1_555
C12 C13 1_555 1_555
C18 C19 1_555 1_555
C24 C25 1_555 1_555
C30 C31 1_555 1_555

#END
