
#######################################################################
#
#                 Cambridge Crystallographic Data Centre
#                                CCDC 
#
#######################################################################
#
# If this CIF has been generated from an entry in the Cambridge 
# Structural Database, then it will include bibliographic, chemical, 
# crystal, experimental, refinement or atomic coordinate data resulting 
# from the CCDC's data processing and validation procedures.
#
#######################################################################

data_GUBQEB
_chemical_formula_moiety         'C10 H15 N1 O6'
_chemical_name_systematic        
'Ethyl 5,5-dimethyl-4-(nitromethyl)-2-oxotetrahydrofuran-3-carboxylate'
_symmetry_cell_setting           monoclinic
_symmetry_space_group_name_H-M   'P 21'
_symmetry_Int_Tables_number      4
_space_group_name_Hall           'P 2yb'
loop_
_symmetry_equiv_pos_site_id
_symmetry_equiv_pos_as_xyz
1 x,y,z
2 -x,1/2+y,-z
_cell_length_a                   8.772(6)
_cell_length_b                   7.482(4)
_cell_length_c                   9.640(6)
_cell_angle_alpha                90
_cell_angle_beta                 113.568(15)
_cell_angle_gamma                90
_cell_volume                     579.918
_exptl_crystal_colour            colorless
_exptl_crystal_description       Block
_cell_formula_units_Z            2
loop_
_atom_site_label
_atom_site_type_symbol
_atom_site_fract_x
_atom_site_fract_y
_atom_site_fract_z
O1 O -0.0051(2) -0.4482(3) -0.6885(2)
O2 O -0.2007(2) -0.7681(3) -0.6270(2)
N1 N -0.1798(3) -0.9279(3) -0.6391(2)
O3 O -0.2786(2) -1.0441(3) -0.6393(2)
O4 O 0.1577(3) -0.5673(3) -0.9360(2)
O5 O 0.2885(2) -0.7730(3) -0.7616(2)
O6 O -0.2278(2) -0.5385(3) -0.89206(19)
C1 C -0.0734(3) -0.5549(4) -0.7879(3)
C2 C 0.2362(3) -1.0865(4) -0.7512(3)
H1 H 0.3372 -1.1092 -0.7645
H2 H 0.1446 -1.0822 -0.8484
H3 H 0.2179 -1.1802 -0.6916
C3 C 0.2500(3) -0.9093(4) -0.6711(3)
C4 C -0.3201(3) -0.3815(4) -0.8782(3)
H4 H -0.2824 -0.2756 -0.9133
H5 H -0.3031 -0.3635 -0.7734
C5 C 0.0839(3) -0.8408(4) -0.6664(3)
H6 H 0.1110 -0.7635 -0.5776
C6 C 0.0071(3) -0.7248(4) -0.8094(3)
H7 H -0.0729 -0.7951 -0.8924
C7 C -0.4989(4) -0.4147(5) -0.9727(5)
H8 H -0.5364 -0.5154 -0.9332
H9 H -0.5132 -0.4389 -1.0749
H10 H -0.5625 -0.3110 -0.9709
C8 C 0.1554(3) -0.6761(4) -0.8453(3)
C9 C 0.3929(3) -0.9093(4) -0.5158(3)
H11 H 0.4010 -0.7938 -0.4700
H12 H 0.4949 -0.9359 -0.5262
H13 H 0.3729 -0.9982 -0.4532
C10 C -0.0259(3) -0.9911(3) -0.6553(3)
H14 H -0.0578 -1.0646 -0.7454
H15 H 0.0376 -1.0653 -0.5690
loop_
_geom_bond_atom_site_label_1
_geom_bond_atom_site_label_2
_geom_bond_site_symmetry_1
_geom_bond_site_symmetry_2
O1 C1 1_555 1_555
O2 N1 1_555 1_555
N1 O3 1_555 1_555
O4 C8 1_555 1_555
O5 C3 1_555 1_555
O6 C1 1_555 1_555
C1 C6 1_555 1_555
C2 H1 1_555 1_555
H2 C2 1_555 1_555
H3 C2 1_555 1_555
C3 C2 1_555 1_555
C4 O6 1_555 1_555
H4 C4 1_555 1_555
H5 C4 1_555 1_555
C5 C3 1_555 1_555
H6 C5 1_555 1_555
C6 C5 1_555 1_555
H7 C6 1_555 1_555
C7 C4 1_555 1_555
H8 C7 1_555 1_555
H9 C7 1_555 1_555
H10 C7 1_555 1_555
C8 O5 1_555 1_555
C9 C3 1_555 1_555
H11 C9 1_555 1_555
H12 C9 1_555 1_555
H13 C9 1_555 1_555
C10 N1 1_555 1_555
H14 C10 1_555 1_555
H15 C10 1_555 1_555
C5 C10 1_555 1_555
C6 C8 1_555 1_555

#END
