
#######################################################################
#
#                 Cambridge Crystallographic Data Centre
#                                CCDC 
#
#######################################################################
#
# If this CIF has been generated from an entry in the Cambridge 
# Structural Database, then it will include bibliographic, chemical, 
# crystal, experimental, refinement or atomic coordinate data resulting 
# from the CCDC's data processing and validation procedures.
#
#######################################################################

data_GUBTII
_chemical_formula_moiety         'C28 H28 N4 O10'
_chemical_name_systematic        
"dimethyl 2,2'-((1,3,6,8-tetraoxo-1,3,6,8-tetrahydrobenzo[lmn][3,8]phenanthroline-2,7-diyl)bis((1-oxopropane-2,1-diyl)imino))dipropanoate"
_symmetry_cell_setting           orthorhombic
_symmetry_space_group_name_H-M   'P 21 21 21'
_symmetry_Int_Tables_number      19
_space_group_name_Hall           'P 2ac 2ab'
loop_
_symmetry_equiv_pos_site_id
_symmetry_equiv_pos_as_xyz
1 x,y,z
2 1/2-x,-y,1/2+z
3 1/2+x,1/2-y,-z
4 -x,1/2+y,1/2-z
_cell_length_a                   9.942(5)
_cell_length_b                   14.412(5)
_cell_length_c                   18.805(5)
_cell_angle_alpha                90
_cell_angle_beta                 90
_cell_angle_gamma                90
_cell_volume                     2694.46
_exptl_crystal_colour            colorless
_exptl_crystal_description       plate
_cell_formula_units_Z            4
_exptl_crystal_recrystallization_method DMSO
loop_
_atom_site_label
_atom_site_type_symbol
_atom_site_fract_x
_atom_site_fract_y
_atom_site_fract_z
O1 O 0.5599(10) 0.7170(6) 0.6476(6)
O2 O 0.3976(10) 0.3384(6) 0.6422(6)
O3 O 1.3159(10) -0.0046(7) 0.8225(5)
O4 O 0.1814(10) 0.5413(7) 0.6570(5)
O5 O 1.0881(11) 0.2341(7) 0.8814(6)
O6 O 0.5176(10) 0.7341(7) 0.5328(5)
O7 O 0.4839(10) 0.4809(7) 0.8511(6)
O8 O 0.9901(11) 0.0704(7) 0.6836(6)
N1 N 0.4413(11) 0.4071(8) 0.7472(6)
N2 N 0.4070(13) 0.5593(9) 0.6521(6)
H1 H 0.4867 0.5477 0.6704
O9 O 1.2597(12) 0.0095(8) 0.9798(6)
N3 N 1.0986(13) -0.0018(9) 0.8557(6)
H2 H 1.0189 0.0242 0.8517
O10 O 1.2812(12) -0.1482(8) 0.9744(6)
C1 C 0.8018(15) 0.2548(11) 0.7677(7)
N4 N 1.0475(13) 0.1625(9) 0.7784(6)
C2 C 0.5977(15) 0.2897(10) 0.7016(8)
C3 C 0.8331(16) 0.1904(11) 0.7165(8)
C4 C 0.4678(17) 0.3485(11) 0.6940(9)
C5 C 0.3965(16) 0.6196(10) 0.5917(7)
H3 H 0.3066 0.6506 0.5945
C6 C 0.6777(15) 0.3065(10) 0.7592(7)
C7 C 1.2027(16) 0.0324(10) 0.8190(7)
C8 C 0.5027(17) 0.6960(10) 0.5943(9)
C9 C 1.0165(18) 0.2202(11) 0.8309(9)
C10 C 0.2969(16) 0.5199(10) 0.6816(7)
C11 C 0.6478(15) 0.3702(11) 0.8108(8)
C12 C 0.7295(16) 0.3850(11) 0.8680(8)
H4 H 0.7038 0.4290 0.9030
C13 C 0.6281(16) 0.2227(10) 0.6528(8)
H5 H 0.5690 0.2098 0.6144
C14 C 0.1878(17) 0.3899(11) 0.7509(8)
H6 H 0.2012 0.3511 0.7931
H7 H 0.1820 0.3504 0.7086
H8 H 0.1044 0.4255 0.7560
C15 C 0.3081(15) 0.4577(10) 0.7429(7)
H9 H 0.3050 0.4987 0.7858
C16 C 0.5196(17) 0.4251(13) 0.8062(8)
C17 C 1.1891(16) 0.1231(11) 0.7801(8)
H10 H 1.2393 0.1678 0.8110
C18 C 0.8835(17) 0.2733(11) 0.8243(8)
C19 C 1.2234(18) -0.0652(14) 0.9528(9)
C20 C 1.2626(16) 0.1267(11) 0.7121(8)
H11 H 1.2509 0.1880 0.6905
H12 H 1.2272 0.0791 0.6800
H13 H 1.3584 0.1154 0.7207
C21 C 0.6172(17) 0.8108(12) 0.5292(9)
H14 H 0.6213 0.8350 0.4806
H15 H 0.7060 0.7874 0.5431
H16 H 0.5902 0.8605 0.5617
C22 C 0.7512(17) 0.1725(11) 0.6611(8)
H17 H 0.7752 0.1264 0.6274
C23 C 0.3984(17) 0.5623(12) 0.5225(8)
H18 H 0.3268 0.5156 0.5241
H19 H 0.4857 0.5313 0.5177
H20 H 0.3840 0.6035 0.4818
C24 C 0.9642(17) 0.1342(13) 0.7242(9)
C25 C 1.1156(16) -0.0804(12) 0.9017(8)
H21 H 1.1347 -0.1372 0.8728
C26 C 0.8505(16) 0.3361(11) 0.8760(8)
H22 H 0.9075 0.3463 0.9157
C27 C 1.388(2) -0.1445(14) 1.0266(10)
H23 H 1.4203 -0.2075 1.0365
H24 H 1.3544 -0.1164 1.0705
H25 H 1.4627 -0.1070 1.0080
C28 C 0.987(2) -0.0954(14) 0.9471(10)
H26 H 0.9100 -0.1057 0.9157
H27 H 0.9710 -0.0404 0.9765
H28 H 0.9995 -0.1497 0.9778
loop_
_geom_bond_atom_site_label_1
_geom_bond_atom_site_label_2
_geom_bond_site_symmetry_1
_geom_bond_site_symmetry_2
O1 C8 1_555 1_555
O2 C4 1_555 1_555
O3 C7 1_555 1_555
O4 C10 1_555 1_555
O5 C9 1_555 1_555
O6 C8 1_555 1_555
O7 C16 1_555 1_555
O8 C24 1_555 1_555
N1 C4 1_555 1_555
N2 H1 1_555 1_555
O9 C19 1_555 1_555
N3 H2 1_555 1_555
O10 C19 1_555 1_555
C1 C3 1_555 1_555
N4 C9 1_555 1_555
C2 C4 1_555 1_555
C3 C22 1_555 1_555
C5 N2 1_555 1_555
H3 C5 1_555 1_555
C6 C1 1_555 1_555
C7 N3 1_555 1_555
C8 C5 1_555 1_555
C9 C18 1_555 1_555
C10 N2 1_555 1_555
C11 C6 1_555 1_555
C12 C11 1_555 1_555
H4 C12 1_555 1_555
C13 C2 1_555 1_555
H5 C13 1_555 1_555
C14 H6 1_555 1_555
H7 C14 1_555 1_555
H8 C14 1_555 1_555
C15 N1 1_555 1_555
H9 C15 1_555 1_555
C16 N1 1_555 1_555
C17 N4 1_555 1_555
H10 C17 1_555 1_555
C18 C1 1_555 1_555
C19 C25 1_555 1_555
C20 C17 1_555 1_555
H11 C20 1_555 1_555
H12 C20 1_555 1_555
H13 C20 1_555 1_555
C21 O6 1_555 1_555
H14 C21 1_555 1_555
H15 C21 1_555 1_555
H16 C21 1_555 1_555
C22 C13 1_555 1_555
H17 C22 1_555 1_555
C23 C5 1_555 1_555
H18 C23 1_555 1_555
H19 C23 1_555 1_555
H20 C23 1_555 1_555
C24 N4 1_555 1_555
C25 N3 1_555 1_555
H21 C25 1_555 1_555
C26 C12 1_555 1_555
H22 C26 1_555 1_555
C27 O10 1_555 1_555
H23 C27 1_555 1_555
H24 C27 1_555 1_555
H25 C27 1_555 1_555
C28 C25 1_555 1_555
H26 C28 1_555 1_555
H27 C28 1_555 1_555
H28 C28 1_555 1_555
C2 C6 1_555 1_555
C3 C24 1_555 1_555
C7 C17 1_555 1_555
C10 C15 1_555 1_555
C11 C16 1_555 1_555
C14 C15 1_555 1_555
C18 C26 1_555 1_555

#END
