
#######################################################################
#
#                 Cambridge Crystallographic Data Centre
#                                CCDC 
#
#######################################################################
#
# If this CIF has been generated from an entry in the Cambridge 
# Structural Database, then it will include bibliographic, chemical, 
# crystal, experimental, refinement or atomic coordinate data resulting 
# from the CCDC's data processing and validation procedures.
#
#######################################################################

data_GUBYEJ
_chemical_formula_moiety         'C18 H12 I1 N3'
_chemical_name_systematic        
2-(8-iodo-1-naphthyl)-4-phenyl-2H-1,2,3-triazole
_symmetry_cell_setting           monoclinic
_symmetry_space_group_name_H-M   'P 21/c'
_symmetry_Int_Tables_number      14
_space_group_name_Hall           '-P 2ybc'
loop_
_symmetry_equiv_pos_site_id
_symmetry_equiv_pos_as_xyz
1 x,y,z
2 -x,1/2+y,1/2-z
3 -x,-y,-z
4 x,1/2-y,1/2+z
_cell_length_a                   23.8205(11)
_cell_length_b                   11.7972(5)
_cell_length_c                   11.1819(4)
_cell_angle_alpha                90
_cell_angle_beta                 103.4399(14)
_cell_angle_gamma                90
_cell_volume                     3056.23
_exptl_crystal_colour            'pale yellow'
_exptl_crystal_description       block
_cell_formula_units_Z            8
loop_
_atom_site_label
_atom_site_type_symbol
_atom_site_fract_x
_atom_site_fract_y
_atom_site_fract_z
I1 I 0.02840(2) 0.45896(2) 0.33275(2)
N1 N 0.18402(13) 0.5169(3) 0.4151(3)
N2 N 0.15576(12) 0.5054(2) 0.2978(2)
N3 N 0.14830(12) 0.3989(2) 0.2569(2)
C1 C 0.19375(15) 0.4105(3) 0.4518(3)
H1 H 0.2126 0.3884 0.5308
C2 C 0.17165(13) 0.3362(3) 0.3550(3)
C3 C 0.17021(14) 0.2122(3) 0.3512(3)
C4 C 0.19004(16) 0.1493(3) 0.4576(3)
H2 H 0.2049 0.1862 0.5316
C5 C 0.1878(2) 0.0329(4) 0.4544(4)
H3 H 0.2005 -0.0081 0.5267
C6 C 0.1671(2) -0.0234(4) 0.3461(5)
H4 H 0.1664 -0.1022 0.3445
C7 C 0.14728(19) 0.0376(3) 0.2388(4)
H5 H 0.133 -0.0002 0.165
C8 C 0.14866(16) 0.1541(3) 0.2416(3)
H6 H 0.135 0.1947 0.1693
C9 C 0.13852(14) 0.6007(3) 0.2173(3)
C10 C 0.18227(15) 0.6662(3) 0.1959(3)
H7 H 0.22 0.6531 0.2396
C11 C 0.17076(17) 0.7527(3) 0.1087(4)
H8 H 0.2002 0.8005 0.0978
C12 C 0.11620(18) 0.7668(3) 0.0400(4)
H9 H 0.1093 0.8205 -0.0226
C13 C 0.06938(15) 0.7012(3) 0.0615(3)
C14 C 0.01325(17) 0.7188(3) -0.0113(3)
H10 H 0.0074 0.7711 -0.0751
C15 C -0.03220(17) 0.6605(4) 0.0107(4)
H11 H -0.0687 0.6703 -0.0402
C16 C -0.02421(16) 0.5859(3) 0.1093(4)
H12 H -0.056 0.5494 0.1265
C17 C 0.02969(14) 0.5651(3) 0.1819(3)
C18 C 0.07970(14) 0.6179(3) 0.1575(3)
I2 I 0.52649(2) 0.95585(2) 0.19243(2)
N4 N 0.68174(13) 1.0139(3) 0.2643(3)
N5 N 0.65329(11) 1.0029(2) 0.3534(2)
N6 N 0.64703(11) 0.8965(2) 0.3892(2)
C19 C 0.69257(15) 0.9078(3) 0.2395(3)
H13 H 0.7118 0.8856 0.1799
C20 C 0.67098(13) 0.8334(3) 0.3154(3)
C21 C 0.67129(13) 0.7099(3) 0.3209(3)
C22 C 0.69233(16) 0.6456(3) 0.2363(3)
H14 H 0.7069 0.6817 0.1761
C23 C 0.69166(19) 0.5288(4) 0.2414(4)
H15 H 0.7059 0.487 0.1844
C24 C 0.67033(19) 0.4735(3) 0.3287(4)
H16 H 0.67 0.3947 0.3309
C25 C 0.64937(19) 0.5353(3) 0.4134(4)
H17 H 0.635 0.4982 0.4732
C26 C 0.64968(16) 0.6523(3) 0.4096(3)
H18 H 0.6353 0.6933 0.467
C27 C 0.63590(15) 1.0981(3) 0.4161(3)
C28 C 0.67907(16) 1.1654(3) 0.4794(4)
H19 H 0.7168 1.1538 0.4722
C29 C 0.66716(19) 1.2519(3) 0.5551(4)
H20 H 0.6964 1.3002 0.5949
C30 C 0.6129(2) 1.2648(3) 0.5702(4)
H21 H 0.6058 1.3185 0.6257
C31 C 0.56672(16) 1.1986(3) 0.5037(3)
C32 C 0.51019(18) 1.2152(3) 0.5205(4)
H22 H 0.5041 1.2674 0.5785
C33 C 0.46519(18) 1.1567(4) 0.4539(4)
H23 H 0.4286 1.1664 0.4683
C34 C 0.47344(16) 1.0812(3) 0.3630(4)
H24 H 0.4417 1.0441 0.3145
C35 C 0.52726(14) 1.0610(3) 0.3440(3)
C36 C 0.57709(14) 1.1153(3) 0.4178(3)
loop_
_geom_bond_atom_site_label_1
_geom_bond_atom_site_label_2
_geom_bond_site_symmetry_1
_geom_bond_site_symmetry_2
I1 C17 1_555 1_555
N1 N2 1_555 1_555
N2 N3 1_555 1_555
N3 C2 1_555 1_555
C1 N1 1_555 1_555
H1 C1 1_555 1_555
C2 C1 1_555 1_555
C3 C2 1_555 1_555
C4 C3 1_555 1_555
H2 C4 1_555 1_555
C5 C4 1_555 1_555
H3 C5 1_555 1_555
C6 C5 1_555 1_555
H4 C6 1_555 1_555
C7 C6 1_555 1_555
H5 C7 1_555 1_555
C8 C3 1_555 1_555
H6 C8 1_555 1_555
C9 N2 1_555 1_555
C10 C9 1_555 1_555
H7 C10 1_555 1_555
C11 C10 1_555 1_555
H8 C11 1_555 1_555
C12 C11 1_555 1_555
H9 C12 1_555 1_555
C13 C12 1_555 1_555
C14 C13 1_555 1_555
H10 C14 1_555 1_555
C15 C14 1_555 1_555
H11 C15 1_555 1_555
C16 C15 1_555 1_555
H12 C16 1_555 1_555
C17 C16 1_555 1_555
C18 C9 1_555 1_555
I2 C35 1_555 1_555
N4 N5 1_555 1_555
N5 N6 1_555 1_555
N6 C20 1_555 1_555
C19 N4 1_555 1_555
H13 C19 1_555 1_555
C20 C19 1_555 1_555
C21 C20 1_555 1_555
C22 C21 1_555 1_555
H14 C22 1_555 1_555
C23 C22 1_555 1_555
H15 C23 1_555 1_555
C24 C23 1_555 1_555
H16 C24 1_555 1_555
C25 C24 1_555 1_555
H17 C25 1_555 1_555
C26 C21 1_555 1_555
H18 C26 1_555 1_555
C27 N5 1_555 1_555
C28 C27 1_555 1_555
H19 C28 1_555 1_555
C29 C28 1_555 1_555
H20 C29 1_555 1_555
C30 C29 1_555 1_555
H21 C30 1_555 1_555
C31 C30 1_555 1_555
C32 C31 1_555 1_555
H22 C32 1_555 1_555
C33 C32 1_555 1_555
H23 C33 1_555 1_555
C34 C33 1_555 1_555
H24 C34 1_555 1_555
C35 C34 1_555 1_555
C36 C27 1_555 1_555
C7 C8 1_555 1_555
C13 C18 1_555 1_555
C17 C18 1_555 1_555
C25 C26 1_555 1_555
C31 C36 1_555 1_555
C35 C36 1_555 1_555

#END
