
#######################################################################
#
#                 Cambridge Crystallographic Data Centre
#                                CCDC 
#
#######################################################################
#
# If this CIF has been generated from an entry in the Cambridge 
# Structural Database, then it will include bibliographic, chemical, 
# crystal, experimental, refinement or atomic coordinate data resulting 
# from the CCDC's data processing and validation procedures.
#
#######################################################################

data_GUBZUA
_chemical_formula_moiety         'C17 H16 O1'
_chemical_name_systematic        
2-methyl-3-(4-methylphenyl)-1-phenylprop-2-en-1-one
_symmetry_cell_setting           monoclinic
_symmetry_space_group_name_H-M   'P 21/c'
_symmetry_Int_Tables_number      14
_space_group_name_Hall           '-P 2ybc'
loop_
_symmetry_equiv_pos_site_id
_symmetry_equiv_pos_as_xyz
1 x,y,z
2 -x,1/2+y,1/2-z
3 -x,-y,-z
4 x,1/2-y,1/2+z
_cell_length_a                   12.7973(6)
_cell_length_b                   6.1187(2)
_cell_length_c                   16.9311(8)
_cell_angle_alpha                90
_cell_angle_beta                 101.782(2)
_cell_angle_gamma                90
_cell_volume                     1297.82
_exptl_crystal_colour            colorless
_exptl_crystal_description       Tabullar
_cell_formula_units_Z            4
loop_
_atom_site_label
_atom_site_type_symbol
_atom_site_fract_x
_atom_site_fract_y
_atom_site_fract_z
O1 O 0.59449(9) 1.20959(19) 0.59017(6)
C1 C 0.62364(12) 1.2205(3) 0.88743(9)
H1 H 0.6187 1.2518 0.9415
C2 C 0.59794(12) 1.0138(3) 0.85568(9)
H2 H 0.5734 0.9048 0.8875
C3 C 0.60812(12) 0.9664(3) 0.77740(9)
H3 H 0.5937 0.8229 0.7566
C4 C 0.63948(11) 1.1286(2) 0.72930(9)
C5 C 0.63824(11) 1.0823(3) 0.64240(9)
C6 C 0.69249(12) 0.8825(3) 0.61980(9)
C7 C 0.78813(12) 0.8327(3) 0.66608(9)
H4 H 0.8069 0.9074 0.7162
C8 C 0.86678(12) 0.6755(3) 0.64767(9)
C9 C 0.97514(13) 0.7303(3) 0.66786(10)
H5 H 0.9965 0.8613 0.6968
C10 C 1.05182(13) 0.5957(3) 0.64609(10)
H6 H 1.1246 0.6392 0.6583
C11 C 1.02389(13) 0.3980(3) 0.60668(10)
C12 C 1.10716(14) 0.2514(3) 0.58302(12)
H7 H 1.1097 0.1126 0.6123
H8 H 1.1771 0.3228 0.5966
H9 H 1.0888 0.2234 0.5248
C13 C 0.65660(12) 1.3817(3) 0.84016(10)
H10 H 0.6753 1.5224 0.8623
C14 C 0.66234(12) 1.3381(3) 0.76064(9)
H11 H 0.6818 1.4505 0.7277
C15 C 0.64450(13) 0.7798(3) 0.54028(9)
H12 H 0.7015 0.7376 0.5125
H13 H 0.5969 0.8847 0.5071
H14 H 0.6038 0.6498 0.5493
C16 C 0.91666(13) 0.3389(3) 0.58938(10)
H15 H 0.8962 0.2027 0.5639
C17 C 0.83895(12) 0.4755(3) 0.60876(10)
H16 H 0.7661 0.4328 0.5955
loop_
_geom_bond_atom_site_label_1
_geom_bond_atom_site_label_2
_geom_bond_site_symmetry_1
_geom_bond_site_symmetry_2
O1 C5 1_555 1_555
C1 H1 1_555 1_555
C2 C1 1_555 1_555
H2 C2 1_555 1_555
C3 C2 1_555 1_555
H3 C3 1_555 1_555
C4 C3 1_555 1_555
C5 C4 1_555 1_555
C6 C5 1_555 1_555
C7 C6 1_555 1_555
H4 C7 1_555 1_555
C8 C7 1_555 1_555
C9 C8 1_555 1_555
H5 C9 1_555 1_555
C10 C9 1_555 1_555
H6 C10 1_555 1_555
C11 C10 1_555 1_555
C12 C11 1_555 1_555
H7 C12 1_555 1_555
H8 C12 1_555 1_555
H9 C12 1_555 1_555
C13 C1 1_555 1_555
H10 C13 1_555 1_555
C14 C4 1_555 1_555
H11 C14 1_555 1_555
C15 C6 1_555 1_555
H12 C15 1_555 1_555
H13 C15 1_555 1_555
H14 C15 1_555 1_555
C16 C11 1_555 1_555
H15 C16 1_555 1_555
C17 C8 1_555 1_555
H16 C17 1_555 1_555
C13 C14 1_555 1_555
C16 C17 1_555 1_555

#END
