
#######################################################################
#
#                 Cambridge Crystallographic Data Centre
#                                CCDC 
#
#######################################################################
#
# If this CIF has been generated from an entry in the Cambridge 
# Structural Database, then it will include bibliographic, chemical, 
# crystal, experimental, refinement or atomic coordinate data resulting 
# from the CCDC's data processing and validation procedures.
#
#######################################################################

data_GUCHET
_chemical_formula_moiety         'C25 H20 Cl1 N3 O2 S1,C2 H6 O1'
_chemical_name_systematic        
"7'-(2-Chlorophenyl)-6'-(pyridin-2-ylcarbonyl)-1',6',7',7a'-tetrahydrospiro[indole-3,5'-pyrrolo[1,2-c][1,3]thiazol]-2(1H)-one ethanol solvate"
_symmetry_cell_setting           monoclinic
_symmetry_space_group_name_H-M   'P 21/n'
_symmetry_Int_Tables_number      14
_space_group_name_Hall           '-P 2yn'
loop_
_symmetry_equiv_pos_site_id
_symmetry_equiv_pos_as_xyz
1 x,y,z
2 1/2-x,1/2+y,1/2-z
3 -x,-y,-z
4 1/2+x,1/2-y,1/2+z
_cell_length_a                   11.5516(8)
_cell_length_b                   16.6544(9)
_cell_length_c                   13.7742(8)
_cell_angle_alpha                90
_cell_angle_beta                 106.455(2)
_cell_angle_gamma                90
_cell_volume                     2541.41
_cell_formula_units_Z            4
loop_
_atom_site_label
_atom_site_type_symbol
_atom_site_fract_x
_atom_site_fract_y
_atom_site_fract_z
Cl1 Cl 0.3869(2) 0.24703(14) 0.08334(17)
N1 N 0.2229(4) 0.2673(2) 0.3837(3)
N2 N -0.0491(4) 0.3500(2) 0.3812(3)
H1 H -0.0947 0.3711 0.4140
N3 N 0.0044(4) 0.4928(2) 0.2576(3)
O1 O 0.1317(3) 0.4038(2) 0.4718(2)
O2 O 0.0876(3) 0.3696(2) 0.0821(2)
S1 S 0.27934(14) 0.12570(8) 0.32140(10)
C1 C 0.2078(5) 0.1826(3) 0.4017(4)
H2 H 0.1226 0.1693 0.3853
H3 H 0.2451 0.1697 0.4723
C2 C 0.3302(4) 0.2816(3) 0.3481(3)
H4 H 0.3844 0.3190 0.3943
C3 C 0.3948(5) 0.2025(3) 0.3482(4)
H5 H 0.4526 0.1932 0.4136
H6 H 0.4375 0.2026 0.2968
C4 C 0.2793(4) 0.3222(3) 0.2442(3)
H7 H 0.2457 0.2805 0.1940
C5 C 0.1739(4) 0.3717(3) 0.2610(3)
H8 H 0.2065 0.4195 0.3010
C6 C 0.0700(4) 0.3633(3) 0.4033(3)
C7 C 0.1197(4) 0.3143(3) 0.3269(3)
C8 C 0.0058(4) 0.2721(3) 0.2650(3)
C9 C -0.0910(4) 0.2981(3) 0.2987(3)
C10 C -0.2095(5) 0.2762(3) 0.2500(4)
H9 H -0.2740 0.2954 0.2711
C11 C -0.2265(6) 0.2246(4) 0.1683(4)
H10 H -0.3046 0.2085 0.1345
C12 C -0.1332(5) 0.1963(3) 0.1357(4)
H11 H -0.1487 0.1612 0.0809
C13 C -0.0150(5) 0.2194(3) 0.1834(3)
H12 H 0.0487 0.2001 0.1613
C14 C 0.0847(4) 0.3979(3) 0.1630(3)
C15 C -0.0066(4) 0.4602(3) 0.1672(3)
C16 C -0.0949(4) 0.4819(3) 0.0806(4)
H13 H -0.0997 0.4573 0.0191
C17 C -0.1759(5) 0.5408(3) 0.0872(5)
H14 H -0.2355 0.5576 0.0301
C18 C -0.1664(5) 0.5740(3) 0.1802(5)
H15 H -0.2206 0.6133 0.1874
C19 C -0.0767(5) 0.5489(3) 0.2622(4)
H16 H -0.0717 0.5721 0.3247
C20 C 0.3704(4) 0.3705(3) 0.2074(4)
C21 C 0.4207(5) 0.3411(4) 0.1351(4)
C22 C 0.5035(7) 0.3874(6) 0.1008(6)
H17 H 0.5354 0.3674 0.0508
C23 C 0.5360(7) 0.4602(6) 0.1403(7)
H18 H 0.5915 0.4904 0.1182
C24 C 0.4890(6) 0.4899(4) 0.2116(6)
H19 H 0.5123 0.5405 0.2389
C25 C 0.4060(5) 0.4458(4) 0.2446(5)
H20 H 0.3735 0.4676 0.2932
O3 O 0.1846(5) 0.5619(3) 0.5179(5)
H21 H 0.1580 0.5160 0.5116
C26 C 0.277(2) 0.5685(12) 0.4695(19)
H22 H 0.2421 0.5810 0.3985
H23 H 0.3193 0.5176 0.4740
C27 C 0.3667(18) 0.6342(12) 0.5190(16)
H24 H 0.3238 0.6787 0.5368
H25 H 0.4095 0.6519 0.4725
H26 H 0.4231 0.6134 0.5789
C28? C 0.310(2) 0.5593(14) 0.5559(19)
H27? H 0.3292 0.5163 0.6054
H28? H 0.3349 0.6089 0.5930
C29? C 0.394(2) 0.5479(17) 0.487(2)
H29? H 0.4759 0.5410 0.5287
H30? H 0.3695 0.5014 0.4456
H31? H 0.3896 0.5944 0.4453
loop_
_geom_bond_atom_site_label_1
_geom_bond_atom_site_label_2
_geom_bond_site_symmetry_1
_geom_bond_site_symmetry_2
Cl1 C21 1_555 1_555
N1 C1 1_555 1_555
N2 H1 1_555 1_555
N3 C15 1_555 1_555
O1 C6 1_555 1_555
O2 C14 1_555 1_555
S1 C1 1_555 1_555
C1 H2 1_555 1_555
H3 C1 1_555 1_555
C2 N1 1_555 1_555
H4 C2 1_555 1_555
C3 S1 1_555 1_555
H5 C3 1_555 1_555
H6 C3 1_555 1_555
C4 C2 1_555 1_555
H7 C4 1_555 1_555
C5 C4 1_555 1_555
H8 C5 1_555 1_555
C6 N2 1_555 1_555
C7 N1 1_555 1_555
C8 C7 1_555 1_555
C9 N2 1_555 1_555
C10 C9 1_555 1_555
H9 C10 1_555 1_555
C11 C10 1_555 1_555
H10 C11 1_555 1_555
C12 C11 1_555 1_555
H11 C12 1_555 1_555
C13 C8 1_555 1_555
H12 C13 1_555 1_555
C14 C5 1_555 1_555
C15 C14 1_555 1_555
C16 C15 1_555 1_555
H13 C16 1_555 1_555
C17 C16 1_555 1_555
H14 C17 1_555 1_555
C18 C17 1_555 1_555
H15 C18 1_555 1_555
C19 N3 1_555 1_555
H16 C19 1_555 1_555
C20 C4 1_555 1_555
C21 C20 1_555 1_555
C22 C21 1_555 1_555
H17 C22 1_555 1_555
C23 C22 1_555 1_555
H18 C23 1_555 1_555
C24 C23 1_555 1_555
H19 C24 1_555 1_555
C25 C20 1_555 1_555
H20 C25 1_555 1_555
O3 H21 1_555 1_555
C26 O3 1_555 1_555
H22 C26 1_555 1_555
H23 C26 1_555 1_555
C27 C26 1_555 1_555
H24 C27 1_555 1_555
H25 C27 1_555 1_555
H26 C27 1_555 1_555
C2 C3 1_555 1_555
C5 C7 1_555 1_555
C6 C7 1_555 1_555
C8 C9 1_555 1_555
C12 C13 1_555 1_555
C18 C19 1_555 1_555
C24 C25 1_555 1_555

#END
