
#######################################################################
#
#                 Cambridge Crystallographic Data Centre
#                                CCDC 
#
#######################################################################
#
# If this CIF has been generated from an entry in the Cambridge 
# Structural Database, then it will include bibliographic, chemical, 
# crystal, experimental, refinement or atomic coordinate data resulting 
# from the CCDC's data processing and validation procedures.
#
#######################################################################

data_GUCHAP
_chemical_formula_moiety         'C26 H22 Cl1 N3 O2,H2 O1'
_chemical_name_systematic        
"1'-(2-Chlorophenyl)-2'-(pyridin-2-ylcarbonyl)-1',2',5',6',7',7a'-hexahydrospiro[indole-3,3'-pyrrolizin]-2(1H)-one monohydrate"
_symmetry_cell_setting           triclinic
_symmetry_space_group_name_H-M   'P -1'
_symmetry_Int_Tables_number      2
_space_group_name_Hall           '-P 1'
loop_
_symmetry_equiv_pos_site_id
_symmetry_equiv_pos_as_xyz
1 x,y,z
2 -x,-y,-z
_cell_length_a                   10.6576(9)
_cell_length_b                   14.4453(19)
_cell_length_c                   17.842(2)
_cell_angle_alpha                110.294(2)
_cell_angle_beta                 94.8810(10)
_cell_angle_gamma                110.901(2)
_cell_volume                     2337.43
_exptl_crystal_colour            colorless
_cell_formula_units_Z            4
loop_
_atom_site_label
_atom_site_type_symbol
_atom_site_fract_x
_atom_site_fract_y
_atom_site_fract_z
Cl1 Cl 0.0477(2) 1.14035(12) 0.70385(11)
N1 N 0.1962(4) 0.6481(3) 0.5162(2)
H1 H 0.2148 0.5923 0.5049
N2 N -0.0511(4) 0.7454(3) 0.5368(2)
N3 N 0.3634(5) 0.8104(5) 0.6916(3)
O1 O 0.0467(3) 0.6115(3) 0.5970(2)
O2 O 0.3147(3) 1.0379(3) 0.6918(3)
C1 C 0.1090(4) 0.6682(3) 0.5634(3)
C2 C 0.0985(4) 0.7733(3) 0.5653(3)
C3 C 0.1960(4) 0.8047(3) 0.5126(3)
C4 C 0.2532(4) 0.7301(4) 0.4877(3)
C5 C 0.3522(5) 0.7398(4) 0.4422(3)
H2 H 0.3905 0.6894 0.4265
C6 C 0.3917(6) 0.8277(5) 0.4210(4)
H3 H 0.4590 0.8373 0.3911
C7 C 0.3338(6) 0.9011(5) 0.4431(4)
H4 H 0.3591 0.9576 0.4258
C8 C 0.2375(5) 0.8920(4) 0.4912(3)
H5 H 0.2019 0.9439 0.5086
C9 C -0.1015(6) 0.7468(5) 0.4583(3)
H6 H -0.0257 0.7682 0.4326
H7 H -0.1698 0.6755 0.4211
C10 C -0.1629(9) 0.8245(7) 0.4766(4)
H8 H -0.2453 0.7982 0.4339
H9 H -0.0980 0.8932 0.4790
C11 C -0.1986(5) 0.8385(5) 0.5559(3)
H10 H -0.2928 0.7885 0.5486
H11 H -0.1892 0.9120 0.5854
C12 C -0.0962(4) 0.8145(3) 0.6021(3)
H12 H -0.1425 0.7741 0.6333
C13 C 0.0367(4) 0.9109(3) 0.6581(3)
H13 H 0.0646 0.9622 0.6320
C14 C 0.1408(4) 0.8610(3) 0.6557(3)
H14 H 0.1272 0.8239 0.6930
C15 C 0.2875(5) 0.9448(4) 0.6830(3)
C16 C 0.4022(5) 0.9119(5) 0.6998(3)
C17 C 0.5387(6) 0.9849(6) 0.7205(4)
H15 H 0.5615 1.0558 0.7261
C18 C 0.6404(7) 0.9496(9) 0.7326(5)
H16 H 0.7336 0.9963 0.7470
C19 C 0.6012(10) 0.8455(10) 0.7231(5)
H17 H 0.6676 0.8197 0.7305
C20 C 0.4646(9) 0.7786(7) 0.7026(5)
H18 H 0.4402 0.7071 0.6958
C21 C 0.0251(4) 0.9709(3) 0.7434(3)
C22 C 0.0322(5) 1.0761(4) 0.7708(3)
C23 C 0.0251(6) 1.1319(4) 0.8492(4)
H19 H 0.0329 1.2026 0.8659
C24 C 0.0062(6) 1.0811(5) 0.9029(3)
H20 H 0.0006 1.1177 0.9560
C25 C -0.0044(5) 0.9770(4) 0.8779(3)
H21 H -0.0187 0.9424 0.9137
C26 C 0.0063(5) 0.9241(4) 0.8000(3)
H22 H 0.0006 0.8540 0.7845
Cl2 Cl 0.5550(2) 0.66376(18) 1.07034(11)
N4 N 0.8714(4) 0.5730(3) 0.6994(2)
H23 H 0.9138 0.5912 0.6645
N5 N 0.5736(4) 0.5119(3) 0.7614(2)
N6 N 1.0438(4) 0.7242(4) 0.8898(3)
O3 O 0.7615(4) 0.6871(3) 0.7256(2)
O4 O 0.8158(4) 0.5981(4) 0.9893(2)
C27 C 0.7875(4) 0.6158(4) 0.7354(3)
C28 C 0.7269(4) 0.5591(3) 0.7909(3)
C29 C 0.7926(4) 0.4794(3) 0.7786(3)
C30 C 0.8804(5) 0.4953(4) 0.7262(3)
C31 C 0.9640(6) 0.4415(5) 0.7069(4)
H24 H 1.0225 0.4541 0.6723
C32 C 0.9578(7) 0.3683(6) 0.7404(5)
H25 H 1.0137 0.3308 0.7286
C33 C 0.8702(7) 0.3489(5) 0.7916(4)
H26 H 0.8663 0.2974 0.8124
C34 C 0.7884(6) 0.4058(4) 0.8123(3)
H27 H 0.7318 0.3945 0.8480
C35 C 0.4918(5) 0.4046(4) 0.7597(4)
H28 H 0.5264 0.3972 0.8083
H29 H 0.4915 0.3471 0.7111
C36 C 0.3491(5) 0.4042(5) 0.7577(4)
H30 H 0.3003 0.3825 0.7018
H31 H 0.2950 0.3548 0.7799
C37 C 0.3743(5) 0.5181(5) 0.8098(4)
H32 H 0.3596 0.5247 0.8640
H33 H 0.3120 0.5402 0.7847
C38 C 0.5241(4) 0.5881(4) 0.8159(3)
H34 H 0.5284 0.6442 0.7961
C39 C 0.6232(4) 0.6391(4) 0.9011(3)
H35 H 0.5957 0.5882 0.9276
C40 C 0.7620(4) 0.6476(4) 0.8805(3)
H36 H 0.8094 0.7190 0.8795
C41 C 0.8560(5) 0.6361(4) 0.9415(3)
C42 C 1.0055(5) 0.6723(4) 0.9379(3)
C43 C 1.0935(6) 0.6504(6) 0.9821(4)
H37 H 1.0632 0.6153 1.0163
C44 C 1.2289(8) 0.6816(8) 0.9748(6)
H38 H 1.2911 0.6664 1.0030
C45 C 1.2693(7) 0.7347(6) 0.9258(6)
H39 H 1.3605 0.7582 0.9211
C46 C 1.1750(6) 0.7535(5) 0.8831(5)
H40 H 1.2031 0.7879 0.8482
C47 C 0.6262(4) 0.7455(4) 0.9572(3)
C48 C 0.5970(5) 0.7630(5) 1.0347(3)
C49 C 0.5981(6) 0.8625(6) 1.0854(4)
H41 H 0.5782 0.8730 1.1367
C50 C 0.6288(7) 0.9434(6) 1.0584(5)
H42 H 0.6294 1.0094 1.0917
C51 C 0.6588(6) 0.9300(5) 0.9831(5)
H43 H 0.6803 0.9866 0.9660
C52 C 0.6570(5) 0.8319(4) 0.9328(4)
H44 H 0.6767 0.8230 0.8816
O5 O 0.7242(3) 0.5293(3) 0.5079(2)
H45 H 0.6540 0.5241 0.4774
H46 H 0.7906 0.5895 0.5176
O6 O 0.5052(4) 0.5238(4) 0.4091(3)
H47 H 0.4359 0.5071 0.4298
H48 H 0.4762 0.5118 0.3593
loop_
_geom_bond_atom_site_label_1
_geom_bond_atom_site_label_2
_geom_bond_site_symmetry_1
_geom_bond_site_symmetry_2
Cl1 C22 1_555 1_555
N1 H1 1_555 1_555
N2 C2 1_555 1_555
N3 C16 1_555 1_555
O1 C1 1_555 1_555
O2 C15 1_555 1_555
C1 N1 1_555 1_555
C2 C1 1_555 1_555
C3 C2 1_555 1_555
C4 N1 1_555 1_555
C5 C4 1_555 1_555
H2 C5 1_555 1_555
C6 C5 1_555 1_555
H3 C6 1_555 1_555
C7 C6 1_555 1_555
H4 C7 1_555 1_555
C8 C3 1_555 1_555
H5 C8 1_555 1_555
C9 N2 1_555 1_555
H6 C9 1_555 1_555
H7 C9 1_555 1_555
C10 C9 1_555 1_555
H8 C10 1_555 1_555
H9 C10 1_555 1_555
C11 C10 1_555 1_555
H10 C11 1_555 1_555
H11 C11 1_555 1_555
C12 N2 1_555 1_555
H12 C12 1_555 1_555
C13 C12 1_555 1_555
H13 C13 1_555 1_555
C14 C2 1_555 1_555
H14 C14 1_555 1_555
C15 C14 1_555 1_555
C16 C15 1_555 1_555
C17 C16 1_555 1_555
H15 C17 1_555 1_555
C18 C17 1_555 1_555
H16 C18 1_555 1_555
C19 C18 1_555 1_555
H17 C19 1_555 1_555
C20 N3 1_555 1_555
H18 C20 1_555 1_555
C21 C13 1_555 1_555
C22 C21 1_555 1_555
C23 C22 1_555 1_555
H19 C23 1_555 1_555
C24 C23 1_555 1_555
H20 C24 1_555 1_555
C25 C24 1_555 1_555
H21 C25 1_555 1_555
C26 C21 1_555 1_555
H22 C26 1_555 1_555
Cl2 C48 1_555 1_555
N4 H23 1_555 1_555
N5 C28 1_555 1_555
N6 C42 1_555 1_555
O3 C27 1_555 1_555
O4 C41 1_555 1_555
C27 N4 1_555 1_555
C28 C27 1_555 1_555
C29 C28 1_555 1_555
C30 N4 1_555 1_555
C31 C30 1_555 1_555
H24 C31 1_555 1_555
C32 C31 1_555 1_555
H25 C32 1_555 1_555
C33 C32 1_555 1_555
H26 C33 1_555 1_555
C34 C29 1_555 1_555
H27 C34 1_555 1_555
C35 N5 1_555 1_555
H28 C35 1_555 1_555
H29 C35 1_555 1_555
C36 C35 1_555 1_555
H30 C36 1_555 1_555
H31 C36 1_555 1_555
C37 C36 1_555 1_555
H32 C37 1_555 1_555
H33 C37 1_555 1_555
C38 N5 1_555 1_555
H34 C38 1_555 1_555
C39 C38 1_555 1_555
H35 C39 1_555 1_555
C40 C28 1_555 1_555
H36 C40 1_555 1_555
C41 C40 1_555 1_555
C42 C41 1_555 1_555
C43 C42 1_555 1_555
H37 C43 1_555 1_555
C44 C43 1_555 1_555
H38 C44 1_555 1_555
C45 C44 1_555 1_555
H39 C45 1_555 1_555
C46 N6 1_555 1_555
H40 C46 1_555 1_555
C47 C39 1_555 1_555
C48 C47 1_555 1_555
C49 C48 1_555 1_555
H41 C49 1_555 1_555
C50 C49 1_555 1_555
H42 C50 1_555 1_555
C51 C50 1_555 1_555
H43 C51 1_555 1_555
C52 C47 1_555 1_555
H44 C52 1_555 1_555
O5 H45 1_555 1_555
H46 O5 1_555 1_555
O6 H47 1_555 1_555
H48 O6 1_555 1_555
C3 C4 1_555 1_555
C7 C8 1_555 1_555
C11 C12 1_555 1_555
C13 C14 1_555 1_555
C19 C20 1_555 1_555
C25 C26 1_555 1_555
C29 C30 1_555 1_555
C33 C34 1_555 1_555
C37 C38 1_555 1_555
C39 C40 1_555 1_555
C45 C46 1_555 1_555
C51 C52 1_555 1_555

#END
