
#######################################################################
#
#                 Cambridge Crystallographic Data Centre
#                                CCDC 
#
#######################################################################
#
# If this CIF has been generated from an entry in the Cambridge 
# Structural Database, then it will include bibliographic, chemical, 
# crystal, experimental, refinement or atomic coordinate data resulting 
# from the CCDC's data processing and validation procedures.
#
#######################################################################

data_GUCJUL
_chemical_formula_moiety         'C18 H15 N1 O2'
_chemical_name_systematic        
3,3-dimethyl-2,3-dihydro-1H-chromeno[2,3-b]quinolin-1-one
_symmetry_cell_setting           monoclinic
_symmetry_space_group_name_H-M   'P 21/c'
_symmetry_Int_Tables_number      14
_space_group_name_Hall           '-P 2ybc'
loop_
_symmetry_equiv_pos_site_id
_symmetry_equiv_pos_as_xyz
1 x,y,z
2 -x,1/2+y,1/2-z
3 -x,-y,-z
4 x,1/2-y,1/2+z
_cell_length_a                   15.5160(16)
_cell_length_b                   7.5160(8)
_cell_length_c                   12.3310(12)
_cell_angle_alpha                90
_cell_angle_beta                 92.5230(10)
_cell_angle_gamma                90
_cell_volume                     1436.63
_exptl_crystal_colour            colorless
_exptl_crystal_description       block
_cell_formula_units_Z            4
loop_
_atom_site_label
_atom_site_type_symbol
_atom_site_fract_x
_atom_site_fract_y
_atom_site_fract_z
N1 N 0.50386(14) 0.7889(3) 0.60677(16)
O1 O 0.37217(11) 0.6870(2) 0.64178(13)
O2 O 0.16281(13) 0.4700(3) 0.37388(18)
C1 C 0.43386(18) 0.7158(3) 0.5668(2)
C2 C 0.56907(17) 0.8210(3) 0.5357(2)
C3 C 0.64568(17) 0.9043(3) 0.5757(2)
H1 H 0.6515 0.9370 0.6484
C4 C 0.71112(17) 0.9370(3) 0.5080(2)
H2 H 0.7618 0.9891 0.5356
C5 C 0.70319(19) 0.8933(4) 0.3969(3)
H3 H 0.7478 0.9187 0.3514
C6 C 0.62928(19) 0.8131(3) 0.3565(2)
H4 H 0.6241 0.7835 0.2833
C7 C 0.56114(18) 0.7751(3) 0.4245(2)
C8 C 0.48329(18) 0.6928(3) 0.3862(2)
H5 H 0.4763 0.6592 0.3138
C9 C 0.41827(18) 0.6626(3) 0.4560(2)
C10 C 0.33545(17) 0.5852(3) 0.4248(2)
H6 H 0.3250 0.5437 0.3544
C11 C 0.27349(18) 0.5732(3) 0.4976(2)
C12 C 0.1859(2) 0.4992(4) 0.4680(3)
C13 C 0.13024(18) 0.4613(4) 0.5616(3)
H7 H 0.1473 0.3476 0.5930
H8 H 0.0709 0.4503 0.5342
C14 C 0.13432(19) 0.6029(4) 0.6520(3)
C15 C 0.22755(18) 0.6488(3) 0.6802(2)
H9 H 0.2426 0.6880 0.7500
C16 C 0.28855(18) 0.6347(3) 0.6085(2)
C17 C 0.0898(2) 0.5341(5) 0.7521(3)
H10 H 0.1199 0.4313 0.7802
H11 H 0.0312 0.5025 0.7322
H12 H 0.0903 0.6253 0.8066
C18 C 0.08688(18) 0.7734(4) 0.6098(2)
H13 H 0.0949 0.8670 0.6623
H14 H 0.0264 0.7488 0.5988
H15 H 0.1101 0.8097 0.5424
loop_
_geom_bond_atom_site_label_1
_geom_bond_atom_site_label_2
_geom_bond_site_symmetry_1
_geom_bond_site_symmetry_2
N1 C1 1_555 1_555
O1 C1 1_555 1_555
O2 C12 1_555 1_555
C1 C9 1_555 1_555
C2 N1 1_555 1_555
C3 C2 1_555 1_555
H1 C3 1_555 1_555
C4 C3 1_555 1_555
H2 C4 1_555 1_555
C5 C4 1_555 1_555
H3 C5 1_555 1_555
C6 C5 1_555 1_555
H4 C6 1_555 1_555
C7 C2 1_555 1_555
C8 C7 1_555 1_555
H5 C8 1_555 1_555
C9 C8 1_555 1_555
C10 C9 1_555 1_555
H6 C10 1_555 1_555
C11 C10 1_555 1_555
C12 C11 1_555 1_555
C13 C12 1_555 1_555
H7 C13 1_555 1_555
H8 C13 1_555 1_555
C14 C13 1_555 1_555
C15 C14 1_555 1_555
H9 C15 1_555 1_555
C16 O1 1_555 1_555
C17 C14 1_555 1_555
H10 C17 1_555 1_555
H11 C17 1_555 1_555
H12 C17 1_555 1_555
C18 C14 1_555 1_555
H13 C18 1_555 1_555
H14 C18 1_555 1_555
H15 C18 1_555 1_555
C6 C7 1_555 1_555
C11 C16 1_555 1_555
C15 C16 1_555 1_555

#END
