
#######################################################################
#
#                 Cambridge Crystallographic Data Centre
#                                CCDC 
#
#######################################################################
#
# If this CIF has been generated from an entry in the Cambridge 
# Structural Database, then it will include bibliographic, chemical, 
# crystal, experimental, refinement or atomic coordinate data resulting 
# from the CCDC's data processing and validation procedures.
#
#######################################################################

data_GUCJEU
_chemical_formula_moiety         'C42 H45 N5 O5,C2 H6 O1'
_chemical_name_systematic        
"N-(2-(3',6'-bis(Ethylamino)-2',7'-dimethyl-3-oxospiro[isoindole-1,9'-xanthen]-2(3H)-yl)ethyl)-7-(diethylamino)-2-oxo-2H-chromene-3-carboxamide ethanol solvate"
_symmetry_cell_setting           monoclinic
_symmetry_space_group_name_H-M   'P 21/c'
_symmetry_Int_Tables_number      14
_space_group_name_Hall           '-P 2ybc'
loop_
_symmetry_equiv_pos_site_id
_symmetry_equiv_pos_as_xyz
1 x,y,z
2 -x,1/2+y,1/2-z
3 -x,-y,-z
4 x,1/2-y,1/2+z
_cell_length_a                   19.1515(5)
_cell_length_b                   12.9911(4)
_cell_length_c                   15.9890(5)
_cell_angle_alpha                90
_cell_angle_beta                 95.423(2)
_cell_angle_gamma                90
_cell_volume                     3960.24
_exptl_crystal_colour            yellow
_exptl_crystal_description       block
_cell_formula_units_Z            4
_exptl_crystal_recrystallization_method dichloromethane/ethanol
_exptl_crystal_preparation       fluorescent
loop_
_atom_site_label
_atom_site_type_symbol
_atom_site_fract_x
_atom_site_fract_y
_atom_site_fract_z
N1 N 0.28857(10) 0.33787(17) 0.55447(12)
O1 O 0.36252(11) 0.26016(17) 0.65691(12)
O2 O 0.08217(12) 0.44960(18) 0.60220(17)
O3 O 0.08305(11) 0.12793(16) 0.57815(15)
O4 O -0.02327(10) 0.12912(14) 0.51462(13)
O5 O 0.17614(9) 0.50077(15) 0.39615(13)
N2 N 0.14725(12) 0.3073(2) 0.62398(16)
H1 H 0.1497 0.2419 0.6165
N3 N -0.25447(14) 0.1009(2) 0.3801(2)
N4 N 0.00968(12) 0.2463(2) 0.30276(16)
H2 H -0.0031 0.1828 0.3013
N5 N 0.34229(14) 0.7700(2) 0.38781(19)
H3 H 0.3853 0.7898 0.3914
C1 C 0.34129(14) 0.2746(2) 0.58277(17)
C2 C 0.36946(13) 0.2288(2) 0.50800(16)
C3 C 0.42133(15) 0.1559(2) 0.50310(19)
H4 H 0.4439 0.1265 0.5513
C4 C 0.43867(16) 0.1282(3) 0.4243(2)
H5 H 0.4731 0.0788 0.4192
C5 C 0.40535(17) 0.1731(3) 0.3531(2)
H6 H 0.4181 0.1538 0.3006
C6 C 0.35345(15) 0.2462(2) 0.35824(18)
H7 H 0.3309 0.2757 0.3100
C7 C 0.33599(13) 0.2741(2) 0.43709(16)
C8 C 0.28102(12) 0.3500(2) 0.45998(15)
C9 C 0.20814(13) 0.3221(2) 0.42117(16)
C10 C 0.18597(14) 0.2204(2) 0.41114(17)
H8 H 0.2166 0.1686 0.4313
C11 C 0.12103(14) 0.1922(2) 0.37286(17)
C12 C 0.07432(14) 0.2715(2) 0.34313(18)
C13 C 0.09472(14) 0.3738(2) 0.35353(18)
H9 H 0.0643 0.4265 0.3349
C14 C 0.16075(13) 0.3965(2) 0.39180(17)
C15 C 0.24560(13) 0.5290(2) 0.40938(17)
C16 C 0.25935(14) 0.6304(2) 0.39298(18)
H10 H 0.2226 0.6743 0.3749
C17 C 0.32738(15) 0.6681(2) 0.40301(18)
C18 C 0.38220(14) 0.6006(2) 0.43088(19)
C19 C 0.36571(14) 0.5001(2) 0.44695(17)
H11 H 0.4022 0.4559 0.4654
C20 C 0.29779(13) 0.4600(2) 0.43746(16)
C21 C 0.10013(17) 0.0812(2) 0.3615(2)
H12 H 0.1376 0.0380 0.3852
H13 H 0.0907 0.0665 0.3027
H14 H 0.0588 0.0683 0.3894
C22 C -0.03727(15) 0.3224(3) 0.2629(2)
H15 H -0.0133 0.3612 0.2224
H16 H -0.0516 0.3700 0.3049
C23 C -0.10127(17) 0.2702(3) 0.2191(2)
H17 H -0.1322 0.3213 0.1927
H18 H -0.1252 0.2326 0.2594
H19 H -0.0870 0.2237 0.1772
C24 C 0.45657(16) 0.6398(3) 0.4434(3)
H20 H 0.4874 0.5846 0.4624
H21 H 0.4596 0.6937 0.4847
H22 H 0.4701 0.6662 0.3912
C25 C 0.2867(2) 0.8454(3) 0.3658(3)
H23 H 0.2658 0.8308 0.3094
H24 H 0.2505 0.8367 0.4037
C26 C 0.3085(3) 0.9462(4) 0.3691(5)
H25 H 0.2691 0.9905 0.3544
H26 H 0.3432 0.9564 0.3303
H27 H 0.3284 0.9621 0.4250
C27 C 0.25552(14) 0.4089(2) 0.60894(17)
H28 H 0.2290 0.4591 0.5741
H29 H 0.2920 0.4457 0.6429
C28 C 0.20691(15) 0.3596(2) 0.66700(18)
H30 H 0.2336 0.3105 0.7029
H31 H 0.1900 0.4125 0.7028
C29 C 0.08869(15) 0.3562(2) 0.59540(19)
C30 C 0.02989(14) 0.2921(2) 0.55507(18)
C31 C -0.02899(14) 0.3400(2) 0.52026(19)
H32 H -0.0312 0.4115 0.5218
C32 C -0.08702(14) 0.2845(2) 0.48176(18)
C33 C -0.14933(16) 0.3279(2) 0.4457(2)
H33 H -0.1537 0.3992 0.4443
C34 C -0.20383(17) 0.2692(3) 0.4126(2)
H34 H -0.2448 0.3012 0.3900
C35 C -0.19965(15) 0.1606(2) 0.4118(2)
C36 C -0.13617(15) 0.1157(2) 0.44645(19)
H35 H -0.1305 0.0446 0.4461
C37 C -0.08296(14) 0.1778(2) 0.48068(18)
C38 C 0.03373(15) 0.1822(2) 0.55134(19)
C39 C -0.3169(2) 0.1471(3) 0.3305(3)
H36 H -0.3040 0.2121 0.3064
H37 H -0.3335 0.1013 0.2850
C40 C -0.25223(19) -0.0127(3) 0.3821(3)
H38 H -0.2225 -0.0355 0.4312
H39 H -0.2990 -0.0396 0.3861
C41 C -0.3718(3) 0.1636(5) 0.3848(4)
H40 H -0.4118 0.1934 0.3531
H41 H -0.3553 0.2094 0.4295
H42 H -0.3848 0.0990 0.4080
C42 C -0.2245(3) -0.0522(4) 0.3053(3)
H43 H -0.2229 -0.1261 0.3073
H44 H -0.1781 -0.0258 0.3018
H45 H -0.2544 -0.0306 0.2570
C43 C 0.4893(4) 0.0903(6) 0.7666(5)
H46 H 0.4588 0.1166 0.8068
H47 H 0.4663 0.0312 0.7390
C44 C 0.5495(5) 0.0598(6) 0.8079(5)
H48 H 0.5404 0.0061 0.8467
H49 H 0.5713 0.1169 0.8382
H50 H 0.5802 0.0343 0.7686
O6 O 0.49772(18) 0.1669(4) 0.7061(2)
H51 H 0.4597 0.1939 0.6920
loop_
_geom_bond_atom_site_label_1
_geom_bond_atom_site_label_2
_geom_bond_site_symmetry_1
_geom_bond_site_symmetry_2
N1 C1 1_555 1_555
O1 C1 1_555 1_555
O2 C29 1_555 1_555
O3 C38 1_555 1_555
O4 C37 1_555 1_555
O5 C14 1_555 1_555
N2 H1 1_555 1_555
N3 C35 1_555 1_555
N4 H2 1_555 1_555
N5 H3 1_555 1_555
C1 C2 1_555 1_555
C2 C3 1_555 1_555
C3 H4 1_555 1_555
C4 C3 1_555 1_555
H5 C4 1_555 1_555
C5 C4 1_555 1_555
H6 C5 1_555 1_555
C6 C5 1_555 1_555
H7 C6 1_555 1_555
C7 C2 1_555 1_555
C8 N1 1_555 1_555
C9 C8 1_555 1_555
C10 C9 1_555 1_555
H8 C10 1_555 1_555
C11 C10 1_555 1_555
C12 N4 1_555 1_555
C13 C12 1_555 1_555
H9 C13 1_555 1_555
C14 C9 1_555 1_555
C15 O5 1_555 1_555
C16 C15 1_555 1_555
H10 C16 1_555 1_555
C17 N5 1_555 1_555
C18 C17 1_555 1_555
C19 C18 1_555 1_555
H11 C19 1_555 1_555
C20 C8 1_555 1_555
C21 C11 1_555 1_555
H12 C21 1_555 1_555
H13 C21 1_555 1_555
H14 C21 1_555 1_555
C22 N4 1_555 1_555
H15 C22 1_555 1_555
H16 C22 1_555 1_555
C23 C22 1_555 1_555
H17 C23 1_555 1_555
H18 C23 1_555 1_555
H19 C23 1_555 1_555
C24 C18 1_555 1_555
H20 C24 1_555 1_555
H21 C24 1_555 1_555
H22 C24 1_555 1_555
C25 N5 1_555 1_555
H23 C25 1_555 1_555
H24 C25 1_555 1_555
C26 C25 1_555 1_555
H25 C26 1_555 1_555
H26 C26 1_555 1_555
H27 C26 1_555 1_555
C27 N1 1_555 1_555
H28 C27 1_555 1_555
H29 C27 1_555 1_555
C28 N2 1_555 1_555
H30 C28 1_555 1_555
H31 C28 1_555 1_555
C29 N2 1_555 1_555
C30 C29 1_555 1_555
C31 C30 1_555 1_555
H32 C31 1_555 1_555
C32 C31 1_555 1_555
C33 C32 1_555 1_555
H33 C33 1_555 1_555
C34 C33 1_555 1_555
H34 C34 1_555 1_555
C35 C34 1_555 1_555
C36 C35 1_555 1_555
H35 C36 1_555 1_555
C37 C32 1_555 1_555
C38 O4 1_555 1_555
C39 N3 1_555 1_555
H36 C39 1_555 1_555
H37 C39 1_555 1_555
C40 N3 1_555 1_555
H38 C40 1_555 1_555
H39 C40 1_555 1_555
C41 C39 1_555 1_555
H40 C41 1_555 1_555
H41 C41 1_555 1_555
H42 C41 1_555 1_555
C42 C40 1_555 1_555
H43 C42 1_555 1_555
H44 C42 1_555 1_555
H45 C42 1_555 1_555
C43 H46 1_555 1_555
H47 C43 1_555 1_555
C44 C43 1_555 1_555
H48 C44 1_555 1_555
H49 C44 1_555 1_555
H50 C44 1_555 1_555
O6 C43 1_555 1_555
H51 O6 1_555 1_555
C6 C7 1_555 1_555
C7 C8 1_555 1_555
C11 C12 1_555 1_555
C13 C14 1_555 1_555
C15 C20 1_555 1_555
C16 C17 1_555 1_555
C19 C20 1_555 1_555
C27 C28 1_555 1_555
C30 C38 1_555 1_555
C36 C37 1_555 1_555

#END
