
#######################################################################
#
#                 Cambridge Crystallographic Data Centre
#                                CCDC 
#
#######################################################################
#
# If this CIF has been generated from an entry in the Cambridge 
# Structural Database, then it will include bibliographic, chemical, 
# crystal, experimental, refinement or atomic coordinate data resulting 
# from the CCDC's data processing and validation procedures.
#
#######################################################################

data_GUCJIZ
_chemical_formula_moiety         'C14 H13 Br1 N2 O4'
_chemical_name_systematic        
3-(4-bromophenyl)-4-(3-methyl-4-nitro-1,2-oxazol-5-yl)butanal
_symmetry_cell_setting           monoclinic
_symmetry_space_group_name_H-M   'P 21'
_symmetry_Int_Tables_number      4
_space_group_name_Hall           'P 2yb'
loop_
_symmetry_equiv_pos_site_id
_symmetry_equiv_pos_as_xyz
1 x,y,z
2 -x,1/2+y,-z
_cell_length_a                   10.057(5)
_cell_length_b                   5.464(5)
_cell_length_c                   13.251(5)
_cell_angle_alpha                90
_cell_angle_beta                 90.677(5)
_cell_angle_gamma                90
_cell_volume                     728.111
_cell_formula_units_Z            2
loop_
_atom_site_label
_atom_site_type_symbol
_atom_site_fract_x
_atom_site_fract_y
_atom_site_fract_z
C1 C 0.67676(16) 0.3823(4) 0.90821(16)
C2 C 0.6024(2) 0.1725(4) 0.92595(16)
H1 H 0.6314 0.0590 0.9736
C3 C 0.4848(2) 0.1324(4) 0.87241(17)
H2 H 0.4350 -0.0079 0.8843
C4 C 0.44140(17) 0.3021(4) 0.80114(16)
C5 C 0.5157(2) 0.5119(4) 0.78340(15)
H3 H 0.4867 0.6255 0.7357
C6 C 0.63340(19) 0.5520(4) 0.83694(17)
H4 H 0.6831 0.6924 0.8251
C7 C 0.3105(3) 0.2507(7) 0.7448(2)
H5 H 0.2883 0.0779 0.7552
C8 C 0.3191(3) 0.2938(7) 0.6312(2)
H6 H 0.2296 0.2984 0.6031
H7 H 0.3591 0.4528 0.6199
C9 C 0.3964(4) 0.1071(8) 0.5764(3)
H8 H 0.4177 0.1429 0.5099
C10 C 0.1960(3) 0.4070(10) 0.7901(2)
H9 H 0.1999 0.3969 0.8632
H10 H 0.2077 0.5771 0.7712
C11 C 0.0640(3) 0.3194(8) 0.7534(3)
C12 C -0.0263(3) 0.3872(8) 0.6819(2)
C13 C -0.1293(3) 0.2098(9) 0.6841(3)
C14 C -0.2535(4) 0.1824(11) 0.6208(3)
H11 H -0.3016 0.0402 0.6422
H12 H -0.2299 0.1646 0.5512
H13 H -0.3082 0.3249 0.6285
N1 N -0.1029(3) 0.0410(7) 0.7515(3)
N2 N -0.0178(4) 0.5945(8) 0.6181(2)
O1 O 0.4337(3) -0.0814(8) 0.6081(2)
O2 O 0.0209(2) 0.1123(6) 0.79616(18)
O3 O 0.0844(3) 0.7173(7) 0.6187(3)
O4 O -0.1157(4) 0.6416(7) 0.5652(2)
Br1 Br 0.83608(3) 0.43576(14) 0.98109(3)
loop_
_geom_bond_atom_site_label_1
_geom_bond_atom_site_label_2
_geom_bond_site_symmetry_1
_geom_bond_site_symmetry_2
C1 C2 1_555 1_555
C2 H1 1_555 1_555
C3 C2 1_555 1_555
H2 C3 1_555 1_555
C4 C3 1_555 1_555
C5 C4 1_555 1_555
H3 C5 1_555 1_555
C6 C1 1_555 1_555
H4 C6 1_555 1_555
C7 C4 1_555 1_555
H5 C7 1_555 1_555
C8 C7 1_555 1_555
H6 C8 1_555 1_555
H7 C8 1_555 1_555
C9 C8 1_555 1_555
H8 C9 1_555 1_555
C10 C7 1_555 1_555
H9 C10 1_555 1_555
H10 C10 1_555 1_555
C11 C10 1_555 1_555
C12 C11 1_555 1_555
C13 C12 1_555 1_555
C14 C13 1_555 1_555
H11 C14 1_555 1_555
H12 C14 1_555 1_555
H13 C14 1_555 1_555
N1 C13 1_555 1_555
N2 C12 1_555 1_555
O1 C9 1_555 1_555
O2 C11 1_555 1_555
O3 N2 1_555 1_555
O4 N2 1_555 1_555
Br1 C1 1_555 1_555
C5 C6 1_555 1_555
N1 O2 1_555 1_555

#END
