
#######################################################################
#
#                 Cambridge Crystallographic Data Centre
#                                CCDC 
#
#######################################################################
#
# If this CIF has been generated from an entry in the Cambridge 
# Structural Database, then it will include bibliographic, chemical, 
# crystal, experimental, refinement or atomic coordinate data resulting 
# from the CCDC's data processing and validation procedures.
#
#######################################################################

data_GUCKAS
_chemical_formula_moiety         'C29 H33 N1 O4'
_chemical_name_systematic        
9-(6-isopropyl-2-oxo-1,2-dihydroquinolin-3-yl)-3,3,6,6-tetramethyl-3,4,5,6,7,9-hexahydro-1H-xanthene-1,8(2H)-dione
_symmetry_cell_setting           monoclinic
_symmetry_space_group_name_H-M   'P 21/n'
_symmetry_Int_Tables_number      14
_space_group_name_Hall           '-P 2yn'
loop_
_symmetry_equiv_pos_site_id
_symmetry_equiv_pos_as_xyz
1 x,y,z
2 1/2-x,1/2+y,1/2-z
3 -x,-y,-z
4 1/2+x,1/2-y,1/2+z
_cell_length_a                   12.9044(9)
_cell_length_b                   12.0994(5)
_cell_length_c                   17.6179(10)
_cell_angle_alpha                90
_cell_angle_beta                 110.508(7)
_cell_angle_gamma                90
_cell_volume                     2576.44
_exptl_crystal_colour            colorless
_exptl_crystal_description       prism
_cell_formula_units_Z            4
loop_
_atom_site_label
_atom_site_type_symbol
_atom_site_fract_x
_atom_site_fract_y
_atom_site_fract_z
O1 O 0.39386(10) 0.01428(10) 0.03705(7)
O2 O 0.25962(12) 0.31585(10) 0.14426(8)
O3 O 0.24555(9) -0.07244(9) 0.11760(7)
O4 O 0.03558(11) 0.11284(11) -0.12235(8)
N1 N 0.44524(11) 0.13883(12) -0.03906(9)
C1 C 0.37655(13) 0.10383(14) -0.00028(10)
C2 C 0.28366(13) 0.17614(13) -0.00556(10)
C3 C 0.27230(13) 0.27282(14) -0.04565(10)
H1 H 0.2123 0.3179 -0.0493
C4 C 0.34887(13) 0.30893(14) -0.08281(10)
C5 C 0.34192(14) 0.41196(14) -0.12097(10)
H2 H 0.2832 0.4586 -0.1244
C6 C 0.41950(15) 0.44617(15) -0.15356(10)
C7 C 0.50593(15) 0.37312(16) -0.14832(10)
H3 H 0.5593 0.3947 -0.1696
C8 C 0.51480(15) 0.27052(16) -0.11273(10)
H4 H 0.5723 0.2232 -0.1113
C9 C 0.43667(13) 0.23829(14) -0.07884(9)
C10 C 0.41588(17) 0.56075(16) -0.18941(11)
H5 H 0.4621 0.5596 -0.2232
C11 C 0.3000(2) 0.59719(18) -0.24266(13)
H6 H 0.2683 0.5427 -0.2839
H7 H 0.3043 0.6668 -0.2676
H8 H 0.2545 0.6050 -0.2100
C12 C 0.4665(2) 0.64363(19) -0.12119(14)
H9 H 0.4257 0.6427 -0.0849
H10 H 0.4636 0.7163 -0.1437
H11 H 0.5422 0.6240 -0.0920
C13 C 0.20171(13) 0.13733(13) 0.03316(9)
H12 H 0.1428 0.1926 0.0220
C14 C 0.25454(13) 0.12441(14) 0.12395(10)
C15 C 0.28132(14) 0.22410(15) 0.17471(11)
C16 C 0.33120(17) 0.20853(16) 0.26528(11)
H13 H 0.2719 0.2066 0.2871
H14 H 0.3772 0.2721 0.2886
C17 C 0.40094(16) 0.10400(16) 0.29191(11)
C18 C 0.33176(16) 0.00465(15) 0.24803(10)
H15 H 0.3795 -0.0594 0.2553
H16 H 0.2765 -0.0119 0.2721
C19 C 0.27561(13) 0.02563(14) 0.15973(10)
C20 C 0.17759(13) -0.06630(14) 0.03763(10)
C21 C 0.14031(15) -0.17780(15) 0.00356(11)
H17 H 0.0767 -0.1996 0.0173
H18 H 0.1990 -0.2308 0.0279
C22 C 0.10924(15) -0.18030(15) -0.08886(11)
C23 C 0.03028(15) -0.08429(16) -0.12364(11)
H19 H 0.0166 -0.0794 -0.1813
H20 H -0.0397 -0.1004 -0.1171
C24 C 0.07064(14) 0.02678(15) -0.08569(10)
C25 C 0.15017(13) 0.02898(14) -0.00267(10)
C26 C 0.50551(17) 0.1125(2) 0.27016(14)
H21 H 0.5463 0.1773 0.2949
H22 H 0.4853 0.1173 0.2124
H23 H 0.5506 0.0482 0.2896
C27 C 0.4352(2) 0.08876(19) 0.38348(12)
H24 H 0.4776 0.1516 0.4106
H25 H 0.4793 0.0231 0.3995
H26 H 0.3704 0.0820 0.3979
C28 C 0.0520(2) -0.28963(18) -0.12199(13)
H27 H -0.0129 -0.2973 -0.1077
H28 H 0.1017 -0.3498 -0.0992
H29 H 0.0312 -0.2905 -0.1799
C29 C 0.21311(17) -0.16918(19) -0.11141(13)
H30 H 0.1925 -0.1700 -0.1693
H31 H 0.2622 -0.2298 -0.0886
H32 H 0.2497 -0.1008 -0.0904
H33 H 0.5004(11) 0.0936(13) -0.0359(11)
loop_
_geom_bond_atom_site_label_1
_geom_bond_atom_site_label_2
_geom_bond_site_symmetry_1
_geom_bond_site_symmetry_2
O1 C1 1_555 1_555
O2 C15 1_555 1_555
O3 C19 1_555 1_555
O4 C24 1_555 1_555
N1 C1 1_555 1_555
C1 C2 1_555 1_555
C2 C3 1_555 1_555
C3 H1 1_555 1_555
C4 C3 1_555 1_555
C5 C4 1_555 1_555
H2 C5 1_555 1_555
C6 C5 1_555 1_555
C7 C6 1_555 1_555
H3 C7 1_555 1_555
C8 C7 1_555 1_555
H4 C8 1_555 1_555
C9 N1 1_555 1_555
C10 C6 1_555 1_555
H5 C10 1_555 1_555
C11 C10 1_555 1_555
H6 C11 1_555 1_555
H7 C11 1_555 1_555
H8 C11 1_555 1_555
C12 C10 1_555 1_555
H9 C12 1_555 1_555
H10 C12 1_555 1_555
H11 C12 1_555 1_555
C13 C2 1_555 1_555
H12 C13 1_555 1_555
C14 C13 1_555 1_555
C15 C14 1_555 1_555
C16 C15 1_555 1_555
H13 C16 1_555 1_555
H14 C16 1_555 1_555
C17 C16 1_555 1_555
C18 C17 1_555 1_555
H15 C18 1_555 1_555
H16 C18 1_555 1_555
C19 C14 1_555 1_555
C20 O3 1_555 1_555
C21 C20 1_555 1_555
H17 C21 1_555 1_555
H18 C21 1_555 1_555
C22 C21 1_555 1_555
C23 C22 1_555 1_555
H19 C23 1_555 1_555
H20 C23 1_555 1_555
C24 C23 1_555 1_555
C25 C13 1_555 1_555
C26 C17 1_555 1_555
H21 C26 1_555 1_555
H22 C26 1_555 1_555
H23 C26 1_555 1_555
C27 C17 1_555 1_555
H24 C27 1_555 1_555
H25 C27 1_555 1_555
H26 C27 1_555 1_555
C28 C22 1_555 1_555
H27 C28 1_555 1_555
H28 C28 1_555 1_555
H29 C28 1_555 1_555
C29 C22 1_555 1_555
H30 C29 1_555 1_555
H31 C29 1_555 1_555
H32 C29 1_555 1_555
H33 N1 1_555 1_555
C4 C9 1_555 1_555
C8 C9 1_555 1_555
C18 C19 1_555 1_555
C20 C25 1_555 1_555
C24 C25 1_555 1_555

#END
