
#######################################################################
#
#                 Cambridge Crystallographic Data Centre
#                                CCDC 
#
#######################################################################
#
# If this CIF has been generated from an entry in the Cambridge 
# Structural Database, then it will include bibliographic, chemical, 
# crystal, experimental, refinement or atomic coordinate data resulting 
# from the CCDC's data processing and validation procedures.
#
#######################################################################

data_GUCRUT
_chemical_formula_moiety         'C34 H26 S2 Si1'
_chemical_name_systematic        
5,5'-(1,1-Dimethyl-3,4-diphenyl-1H-silole-2,5-diyl)bis(1-benzothiophene)
_symmetry_cell_setting           monoclinic
_symmetry_space_group_name_H-M   'P 2/n'
_symmetry_Int_Tables_number      13
_space_group_name_Hall           '-P 2yac'
loop_
_symmetry_equiv_pos_site_id
_symmetry_equiv_pos_as_xyz
1 x,y,z
2 1/2-x,y,1/2-z
3 -x,-y,-z
4 1/2+x,-y,1/2+z
_cell_length_a                   7.7430(15)
_cell_length_b                   10.568(2)
_cell_length_c                   17.025(3)
_cell_angle_alpha                90
_cell_angle_beta                 94.46(3)
_cell_angle_gamma                90
_cell_volume                     1388.9
_cell_formula_units_Z            2
loop_
_atom_site_label
_atom_site_type_symbol
_atom_site_fract_x
_atom_site_fract_y
_atom_site_fract_z
C1 C 1.3841(3) 0.44893(18) 0.18877(11)
H1 H 1.3183 0.5217 0.1706
H2 H 1.4168 0.4012 0.1443
H3 H 1.4863 0.4759 0.2198
C2 C 1.11163(18) 0.22534(13) 0.19651(8)
C3 C 1.17189(17) 0.11019(13) 0.22066(8)
C4 C 1.09956(18) -0.01405(13) 0.19216(8)
C5 C 1.10034(19) -0.04601(16) 0.11301(9)
H4 H 1.1430 0.0114 0.0779
C6 C 1.0386(2) -0.16181(18) 0.08586(12)
H5 H 1.0405 -0.1821 0.0328
C7 C 0.9746(3) -0.24694(17) 0.13702(14)
H6 H 0.9332 -0.3249 0.1186
C8 C 0.9717(3) -0.21701(17) 0.21592(14)
H7 H 0.9277 -0.2746 0.2505
C9 C 1.0342(2) -0.10124(15) 0.24332(10)
H8 H 1.0325 -0.0815 0.2965
C10 C 0.95681(18) 0.25231(13) 0.14308(8)
C11 C 0.8106(2) 0.17637(14) 0.13628(9)
H9 H 0.8057 0.1047 0.1678
C12 C 0.67028(19) 0.20585(15) 0.08275(9)
C13 C 0.6762(2) 0.31563(14) 0.03646(9)
C14 C 0.8175(2) 0.39593(14) 0.04462(10)
H10 H 0.8197 0.4700 0.0152
C15 C 0.9549(2) 0.36414(15) 0.09716(10)
H11 H 1.0500 0.4181 0.1027
C16 C 0.5131(2) 0.1375(2) 0.06495(14)
H12 H 0.4851 0.0633 0.0905
C17 C 0.4099(3) 0.1916(2) 0.00741(14)
H13 H 0.3039 0.1577 -0.0115
S1 S 0.49237(6) 0.32940(5) -0.02798(3)
Si1 Si 1.2500 0.34807(5) 0.2500
C1A C 1.1159(3) 0.44893(18) 0.31123(11)
H1A H 1.1817 0.5217 0.3294
H2A H 1.0832 0.4012 0.3557
H3A H 1.0137 0.4759 0.2802
C2A C 1.38837(18) 0.22534(13) 0.30349(8)
C3A C 1.32811(17) 0.11019(13) 0.27934(8)
C4A C 1.40044(18) -0.01405(13) 0.30784(8)
C5A C 1.39966(19) -0.04601(16) 0.38699(9)
H4A H 1.3570 0.0114 0.4221
C6A C 1.4614(2) -0.16181(18) 0.41414(12)
H5A H 1.4595 -0.1821 0.4672
C7A C 1.5254(3) -0.24694(17) 0.36298(14)
H6A H 1.5668 -0.3249 0.3814
C8A C 1.5283(3) -0.21701(17) 0.28408(14)
H7A H 1.5723 -0.2746 0.2495
C9A C 1.4658(2) -0.10124(15) 0.25668(10)
H8A H 1.4675 -0.0815 0.2035
C10A C 1.54319(18) 0.25231(13) 0.35692(8)
C11A C 1.6894(2) 0.17637(14) 0.36372(9)
H9A H 1.6943 0.1047 0.3322
C12A C 1.82972(19) 0.20585(15) 0.41725(9)
C13A C 1.8238(2) 0.31563(14) 0.46354(9)
C14A C 1.6825(2) 0.39593(14) 0.45538(10)
H10A H 1.6803 0.4700 0.4848
C15A C 1.5451(2) 0.36414(15) 0.40284(10)
H11A H 1.4500 0.4181 0.3973
C16A C 1.9869(2) 0.1375(2) 0.43505(14)
H12A H 2.0149 0.0633 0.4095
C17A C 2.0901(3) 0.1916(2) 0.49259(14)
H13A H 2.1961 0.1577 0.5115
S1A S 2.00763(6) 0.32940(5) 0.52798(3)
loop_
_geom_bond_atom_site_label_1
_geom_bond_atom_site_label_2
_geom_bond_site_symmetry_1
_geom_bond_site_symmetry_2
C1 H1 1_555 1_555
H2 C1 1_555 1_555
H3 C1 1_555 1_555
C2 C3 1_555 1_555
C3 C4 1_555 1_555
C4 C5 1_555 1_555
C5 H4 1_555 1_555
C6 C5 1_555 1_555
H5 C6 1_555 1_555
C7 C6 1_555 1_555
H6 C7 1_555 1_555
C8 C7 1_555 1_555
H7 C8 1_555 1_555
C9 C4 1_555 1_555
H8 C9 1_555 1_555
C10 C2 1_555 1_555
C11 C10 1_555 1_555
H9 C11 1_555 1_555
C12 C11 1_555 1_555
C13 C12 1_555 1_555
C14 C13 1_555 1_555
H10 C14 1_555 1_555
C15 C10 1_555 1_555
H11 C15 1_555 1_555
C16 C12 1_555 1_555
H12 C16 1_555 1_555
C17 C16 1_555 1_555
H13 C17 1_555 1_555
S1 C13 1_555 1_555
Si1 C1 1_555 1_555
C1A Si1 1_555 1_555
H1A C1A 1_555 1_555
H2A C1A 1_555 1_555
H3A C1A 1_555 1_555
C2A Si1 1_555 1_555
C3A C3 1_555 1_555
C4A C3A 1_555 1_555
C5A C4A 1_555 1_555
H4A C5A 1_555 1_555
C6A C5A 1_555 1_555
H5A C6A 1_555 1_555
C7A C6A 1_555 1_555
H6A C7A 1_555 1_555
C8A C7A 1_555 1_555
H7A C8A 1_555 1_555
C9A C4A 1_555 1_555
H8A C9A 1_555 1_555
C10A C2A 1_555 1_555
C11A C10A 1_555 1_555
H9A C11A 1_555 1_555
C12A C11A 1_555 1_555
C13A C12A 1_555 1_555
C14A C13A 1_555 1_555
H10A C14A 1_555 1_555
C15A C10A 1_555 1_555
H11A C15A 1_555 1_555
C16A C12A 1_555 1_555
H12A C16A 1_555 1_555
C17A C16A 1_555 1_555
H13A C17A 1_555 1_555
S1A C13A 1_555 1_555
C2 Si1 1_555 1_555
C8 C9 1_555 1_555
C14 C15 1_555 1_555
C17 S1 1_555 1_555
C2A C3A 1_555 1_555
C8A C9A 1_555 1_555
C14A C15A 1_555 1_555
C17A S1A 1_555 1_555

#END
