
#######################################################################
#
#                 Cambridge Crystallographic Data Centre
#                                CCDC 
#
#######################################################################
#
# If this CIF has been generated from an entry in the Cambridge 
# Structural Database, then it will include bibliographic, chemical, 
# crystal, experimental, refinement or atomic coordinate data resulting 
# from the CCDC's data processing and validation procedures.
#
#######################################################################

data_GUCTIJ
_chemical_formula_moiety         'C29 H24 O4 Si1'
_chemical_name_systematic        
'3-Oxo-6-((triphenylsilyl)methyl)-1,3-dihydro-2-benzofuran-4-yl acetate'
_symmetry_cell_setting           monoclinic
_symmetry_space_group_name_H-M   'C 2/c'
_symmetry_Int_Tables_number      15
_space_group_name_Hall           '-C 2yn'
loop_
_symmetry_equiv_pos_site_id
_symmetry_equiv_pos_as_xyz
1 x,y,z
2 -x,y,1/2-z
3 1/2+x,1/2+y,z
4 1/2-x,1/2+y,1/2-z
5 -x,-y,-z
6 x,-y,1/2+z
7 1/2-x,1/2-y,-z
8 1/2+x,1/2-y,1/2+z
_cell_length_a                   14.369(3)
_cell_length_b                   13.008(2)
_cell_length_c                   26.874(4)
_cell_angle_alpha                90
_cell_angle_beta                 95.280(5)
_cell_angle_gamma                90
_cell_volume                     5001.76
_exptl_crystal_colour            colorless
_exptl_crystal_description       needle
_cell_formula_units_Z            8
loop_
_atom_site_label
_atom_site_type_symbol
_atom_site_fract_x
_atom_site_fract_y
_atom_site_fract_z
Si1 Si -0.00808(6) 0.41696(7) 0.10894(3)
O1 O 0.0551(4) -0.0499(3) 0.12618(17)
O2 O -0.0075(2) -0.0006(2) 0.19390(11)
O3 O 0.2876(2) 0.0593(3) 0.23651(14)
O4 O 0.1942(3) -0.0774(3) 0.22801(15)
C1 C 0.0091(5) -0.0683(4) 0.1596(2)
C2 C 0.0415(3) 0.0917(3) 0.19462(13)
C3 C -0.0057(2) 0.1803(3) 0.18423(12)
H1 H -0.0706 0.1775 0.1736
C4 C 0.0388(2) 0.2759(3) 0.18877(12)
C5 C -0.0152(3) 0.3720(3) 0.17533(13)
H2 H 0.0082 0.4275 0.1984
H3 H -0.0816 0.3600 0.1806
C6 C -0.0367(2) 0.3114(3) 0.06224(12)
C7 C -0.1085(3) 0.3216(3) 0.02433(14)
H4 H -0.1468 0.3812 0.0233
C8 C -0.1255(3) 0.2471(3) -0.01180(15)
H5 H -0.1747 0.2561 -0.0376
C9 C -0.0719(3) 0.1605(3) -0.01061(16)
H6 H -0.0835 0.1092 -0.0356
C10 C -0.2266(3) 0.6759(4) 0.07312(18)
H7 H -0.2717 0.7284 0.0656
C11 C -0.2523(3) 0.5868(4) 0.09451(17)
H8 H -0.3154 0.5767 0.1013
C12 C -0.1876(3) 0.5117(3) 0.10630(14)
H9 H -0.2064 0.4502 0.1216
C13 C -0.0946(2) 0.5232(3) 0.09644(12)
C14 C 0.1124(2) 0.4661(3) 0.10208(14)
C15 C 0.1552(3) 0.5324(5) 0.13790(19)
H10 H 0.1242 0.5494 0.1665
C16 C 0.2421(4) 0.5737(6) 0.1323(2)
H11 H 0.2699 0.6198 0.1567
C17 C 0.2883(3) 0.5489(5) 0.0919(2)
H12 H 0.3491 0.5757 0.0889
C18 C 0.2481(3) 0.4864(4) 0.05611(19)
H13 H 0.2795 0.4705 0.0275
C19 C 0.1605(3) 0.4455(3) 0.06143(15)
H14 H 0.1327 0.4016 0.0360
C20 C -0.0404(7) -0.1675(5) 0.1681(3)
H15 H -0.1081 -0.1560 0.1646
H16 H -0.0212 -0.1929 0.2018
H17 H -0.0242 -0.2185 0.1434
C21 C 0.1354(3) 0.0953(3) 0.21035(13)
C22 C 0.1802(3) 0.1881(3) 0.21469(14)
C23 C 0.1331(3) 0.2789(3) 0.20428(14)
H18 H 0.1651 0.3428 0.2077
C24 C 0.2797(3) 0.1704(4) 0.2307(2)
H19 H 0.3197 0.1954 0.2051
H20 H 0.2982 0.2058 0.2627
C25 C 0.2015(4) 0.0123(5) 0.22459(17)
C26 C -0.0013(3) 0.1477(3) 0.02667(16)
H21 H 0.0356 0.0870 0.0277
C27 C 0.0165(3) 0.2220(3) 0.06253(14)
H22 H 0.0661 0.2123 0.0880
C28 C -0.0712(3) 0.6143(3) 0.07441(14)
H23 H -0.0084 0.6255 0.0673
C29 C -0.1377(3) 0.6901(3) 0.06247(17)
H24 H -0.1205 0.7518 0.0468
loop_
_geom_bond_atom_site_label_1
_geom_bond_atom_site_label_2
_geom_bond_site_symmetry_1
_geom_bond_site_symmetry_2
Si1 C5 1_555 1_555
O1 C1 1_555 1_555
O2 C1 1_555 1_555
O3 C24 1_555 1_555
O4 C25 1_555 1_555
C1 C20 1_555 1_555
C2 O2 1_555 1_555
C3 C2 1_555 1_555
H1 C3 1_555 1_555
C4 C3 1_555 1_555
C5 C4 1_555 1_555
H2 C5 1_555 1_555
H3 C5 1_555 1_555
C6 Si1 1_555 1_555
C7 C6 1_555 1_555
H4 C7 1_555 1_555
C8 C7 1_555 1_555
H5 C8 1_555 1_555
C9 C8 1_555 1_555
H6 C9 1_555 1_555
C10 H7 1_555 1_555
C11 C10 1_555 1_555
H8 C11 1_555 1_555
C12 C11 1_555 1_555
H9 C12 1_555 1_555
C13 Si1 1_555 1_555
C14 Si1 1_555 1_555
C15 C14 1_555 1_555
H10 C15 1_555 1_555
C16 C15 1_555 1_555
H11 C16 1_555 1_555
C17 C16 1_555 1_555
H12 C17 1_555 1_555
C18 C17 1_555 1_555
H13 C18 1_555 1_555
C19 C14 1_555 1_555
H14 C19 1_555 1_555
C20 H15 1_555 1_555
H16 C20 1_555 1_555
H17 C20 1_555 1_555
C21 C2 1_555 1_555
C22 C21 1_555 1_555
C23 C4 1_555 1_555
H18 C23 1_555 1_555
C24 C22 1_555 1_555
H19 C24 1_555 1_555
H20 C24 1_555 1_555
C25 O3 1_555 1_555
C26 C9 1_555 1_555
H21 C26 1_555 1_555
C27 C6 1_555 1_555
H22 C27 1_555 1_555
C28 C13 1_555 1_555
H23 C28 1_555 1_555
C29 C10 1_555 1_555
H24 C29 1_555 1_555
C12 C13 1_555 1_555
C18 C19 1_555 1_555
C21 C25 1_555 1_555
C22 C23 1_555 1_555
C26 C27 1_555 1_555
C28 C29 1_555 1_555

#END
