
#######################################################################
#
#                 Cambridge Crystallographic Data Centre
#                                CCDC 
#
#######################################################################
#
# If this CIF has been generated from an entry in the Cambridge 
# Structural Database, then it will include bibliographic, chemical, 
# crystal, experimental, refinement or atomic coordinate data resulting 
# from the CCDC's data processing and validation procedures.
#
#######################################################################

data_GUCTUV
_chemical_formula_moiety         'C16 H9 F3 O3'
_chemical_name_systematic        
5-(4-(Trifluoromethyl)benzoyl)-2-benzofuran-1(3H)-one
_symmetry_cell_setting           monoclinic
_symmetry_space_group_name_H-M   'C c'
_symmetry_Int_Tables_number      9
_space_group_name_Hall           'C -2yc'
loop_
_symmetry_equiv_pos_site_id
_symmetry_equiv_pos_as_xyz
1 x,y,z
2 x,-y,1/2+z
3 1/2+x,1/2+y,z
4 1/2+x,1/2-y,1/2+z
_cell_length_a                   6.1349(14)
_cell_length_b                   13.537(4)
_cell_length_c                   15.751(4)
_cell_angle_alpha                90
_cell_angle_beta                 96.782(8)
_cell_angle_gamma                90
_cell_volume                     1298.94
_exptl_crystal_colour            colorless
_exptl_crystal_description       block
_cell_formula_units_Z            4
loop_
_atom_site_label
_atom_site_type_symbol
_atom_site_fract_x
_atom_site_fract_y
_atom_site_fract_z
F1 F 1.0736(12) -0.2809(3) 0.2308(5)
F2 F 1.3795(10) -0.2041(5) 0.2330(4)
F3 F 1.1728(9) -0.1800(4) 0.3311(3)
O1 O 1.2101(9) 0.4911(4) -0.1084(4)
O2 O 0.4962(8) 0.1099(4) 0.0451(4)
O3 O 0.8693(9) 0.4638(4) -0.1716(4)
C1 C 1.0459(13) 0.4444(5) -0.1126(5)
C2 C 0.9859(10) 0.3583(4) -0.0614(4)
C3 C 1.1113(11) 0.3104(4) 0.0060(5)
H1 H 1.2556 0.3319 0.026
C4 C 1.0185(11) 0.2308(4) 0.0424(5)
H2 H 1.099 0.1974 0.0891
C5 C 0.8044(10) 0.1979(4) 0.0114(5)
C6 C 0.6968(10) 0.1141(5) 0.0532(5)
C7 C 0.8294(11) 0.0370(4) 0.1027(5)
C8 C 0.7434(11) -0.0049(4) 0.1721(5)
H3 H 0.6065 0.0175 0.1874
C9 C 0.8570(12) -0.0794(4) 0.2193(5)
H4 H 0.7995 -0.1075 0.2672
C10 C 1.0544(11) -0.1122(5) 0.1956(5)
C11 C 1.1710(14) -0.1933(5) 0.2467(5)
C12 C 1.0293(11) 0.0034(4) 0.0797(5)
H5 H 1.0892 0.0325 0.0327
C13 C 1.1405(11) -0.0722(4) 0.1254(5)
H6 H 1.2745 -0.0966 0.109
C14 C 0.6918(13) 0.3942(6) -0.1646(6)
H7 H 0.6592 0.3555 -0.2179
H8 H 0.5569 0.429 -0.1526
C15 C 0.7765(11) 0.3282(5) -0.0910(5)
C16 C 0.6819(11) 0.2482(5) -0.0550(5)
H9 H 0.5367 0.2279 -0.0752
loop_
_geom_bond_atom_site_label_1
_geom_bond_atom_site_label_2
_geom_bond_site_symmetry_1
_geom_bond_site_symmetry_2
F1 C11 1_555 1_555
F2 C11 1_555 1_555
F3 C11 1_555 1_555
O1 C1 1_555 1_555
O2 C6 1_555 1_555
O3 C1 1_555 1_555
C1 C2 1_555 1_555
C2 C3 1_555 1_555
C3 H1 1_555 1_555
C4 C3 1_555 1_555
H2 C4 1_555 1_555
C5 C4 1_555 1_555
C6 C5 1_555 1_555
C7 C6 1_555 1_555
C8 C7 1_555 1_555
H3 C8 1_555 1_555
C9 C8 1_555 1_555
H4 C9 1_555 1_555
C10 C9 1_555 1_555
C11 C10 1_555 1_555
C12 C7 1_555 1_555
H5 C12 1_555 1_555
C13 C10 1_555 1_555
H6 C13 1_555 1_555
C14 O3 1_555 1_555
H7 C14 1_555 1_555
H8 C14 1_555 1_555
C15 C2 1_555 1_555
C16 C5 1_555 1_555
H9 C16 1_555 1_555
C12 C13 1_555 1_555
C14 C15 1_555 1_555
C15 C16 1_555 1_555

#END
