
#######################################################################
#
#                 Cambridge Crystallographic Data Centre
#                                CCDC 
#
#######################################################################
#
# If this CIF has been generated from an entry in the Cambridge 
# Structural Database, then it will include bibliographic, chemical, 
# crystal, experimental, refinement or atomic coordinate data resulting 
# from the CCDC's data processing and validation procedures.
#
#######################################################################

data_GUDDUE
_chemical_formula_moiety         'C20 H36 B1 Li1 N2'
_chemical_name_systematic        
(\h^6^-(1R,9R)-4,6,10,10-Tetramethyl-4-boratricyclo(7.1.1.0^2,7^)undeca-2,4,6-triene)-tetramethylethylenediamine-lithium
_symmetry_cell_setting           orthorhombic
_symmetry_space_group_name_H-M   'P 21 21 21'
_symmetry_Int_Tables_number      19
_space_group_name_Hall           'P 2ac 2ab'
loop_
_symmetry_equiv_pos_site_id
_symmetry_equiv_pos_as_xyz
1 x,y,z
2 1/2-x,-y,1/2+z
3 1/2+x,1/2-y,-z
4 -x,1/2+y,1/2-z
_cell_length_a                   8.788(5)
_cell_length_b                   15.424(8)
_cell_length_c                   31.288(9)
_cell_angle_alpha                90
_cell_angle_beta                 90
_cell_angle_gamma                90
_cell_volume                     4240.97
_exptl_crystal_colour            yellow
_cell_formula_units_Z            8
loop_
_atom_site_label
_atom_site_type_symbol
_atom_site_fract_x
_atom_site_fract_y
_atom_site_fract_z
N1 N 0.9636(5) 0.8862(3) 0.2591(1)
N2 N 1.2176(5) 0.7697(2) 0.2667(1)
C1 C 1.0168(7) 0.8358(4) 0.2225(2)
C2 C 1.0931(7) 0.7530(3) 0.2368(2)
C5 C 0.8548(6) 0.8464(3) 0.3965(2)
C7 C 0.9387(8) 0.9775(4) 0.2454(2)
C8 C 0.8212(7) 0.8507(5) 0.2766(2)
C9 C 1.3488(8) 0.8056(4) 0.2451(2)
C10 C 1.2581(8) 0.6865(4) 0.2867(2)
C15 C 1.3353(6) 1.1322(3) 0.3520(1)
C16 C 1.1590(5) 0.8262(3) 0.3797(1)
C17 C 1.2980(5) 0.8598(3) 0.3676(1)
C18 C 1.3105(5) 0.9442(2) 0.3505(1)
C19 C 1.4648(6) 0.9848(3) 0.3415(2)
C20 C 1.4447(6) 1.0779(3) 0.3238(2)
C21 C 1.3217(7) 1.0763(3) 0.2891(1)
C22 C 1.2064(6) 1.0850(3) 0.3261(1)
C23 C 1.1794(5) 0.9961(3) 0.3456(1)
C24 C 1.0363(5) 0.9675(3) 0.3588(1)
C35 C 1.3336(6) 1.1222(3) 0.3996(2)
C36 C 1.3440(7) 1.2290(3) 0.3413(2)
C37 C 1.4428(6) 0.8065(3) 0.3733(2)
B1 B 1.0137(6) 0.8787(3) 0.3789(2)
Li1 Li 1.1301(9) 0.8665(5) 0.3079(2)
H1 H 0.9349 0.8240 0.2021
H2 H 1.0943 0.8701 0.2076
H3 H 1.1243 0.7186 0.2119
H4 H 1.0125 0.7199 0.2510
H9 H 0.7793 0.8930 0.3950
H10 H 0.8634 0.8326 0.4270
H11 H 0.8207 0.7955 0.3803
H15 H 0.8337 0.9794 0.2349
H16 H 0.9434 1.0133 0.2712
H17 H 1.0180 0.9930 0.2247
H18 H 0.8084 0.8816 0.3037
H19 H 0.7348 0.8573 0.2570
H20 H 0.8365 0.7893 0.2833
H21 H 1.3638 0.7734 0.2184
H22 H 1.3335 0.8672 0.2388
H23 H 1.4370 0.7979 0.2639
H24 H 1.3633 0.6874 0.2970
H25 H 1.1967 0.6671 0.3110
H26 H 1.2490 0.6391 0.2660
H39 H 1.1528 0.7663 0.3900
H40 H 1.5196 0.9494 0.3205
H41 H 1.5287 0.9851 0.3672
H42 H 1.5521 1.0918 0.3188
H43 H 1.3213 1.1224 0.2676
H44 H 1.3100 1.0226 0.2727
H45 H 1.1041 1.1092 0.3224
H46 H 0.9506 1.0079 0.3569
H55 H 1.3335 1.0610 0.4081
H56 H 1.4357 1.1446 0.4057
H57 H 1.2522 1.1533 0.4146
H58 H 1.2581 1.2631 0.3521
H59 H 1.3485 1.2351 0.3101
H60 H 1.4422 1.2530 0.3503
H61 H 1.4433 0.7430 0.3753
H62 H 1.5061 0.8167 0.3480
H63 H 1.5037 0.8274 0.3974
N3 N 0.3752(5) 0.0597(2) 0.0248(1)
N4 N 0.0543(5) 0.0937(2) 0.0193(1)
C3 C 0.3041(7) 0.0987(4) -0.0136(2)
C4 C 0.1673(7) 0.1468(3) -0.0035(2)
C6 C 0.3866(8) 0.0643(4) 0.1661(2)
C11 C 0.4618(7) 0.1200(3) 0.0499(2)
C12 C 0.4794(7) -0.0081(3) 0.0095(2)
C13 C -0.0302(8) 0.0363(3) -0.0089(2)
C14 C -0.0544(7) 0.1526(3) 0.0399(2)
C25 C 0.1758(6) -0.2799(3) 0.0739(1)
C26 C 0.1074(6) 0.0203(3) 0.1353(1)
C27 C 0.0081(6) -0.0356(3) 0.1131(2)
C28 C 0.0691(5) -0.1056(3) 0.0890(1)
C29 C -0.0389(6) -0.1691(3) 0.0666(1)
C30 C 0.0562(6) -0.2400(3) 0.0435(2)
C31 C 0.1851(6) -0.1972(3) 0.0191(1)
C32 C 0.2749(5) -0.1988(3) 0.0613(1)
C33 C 0.2259(5) -0.1219(3) 0.0889(1)
C34 C 0.3284(6) -0.0722(3) 0.1117(1)
C38 C 0.2413(6) -0.3651(3) 0.0558(2)
C39 C 0.1373(6) -0.2945(3) 0.1205(2)
C40 C -0.1618(6) -0.0235(3) 0.1153(2)
B2 B 0.2745(8) 0.0044(4) 0.1377(2)
Li2 Li 0.191(1) 0.0201(4) 0.0639(2)
H5 H 0.3604 0.1536 -0.0129
H6 H 0.3108 0.0697 -0.0415
H7 H 0.1208 0.1473 -0.0319
H8 H 0.1630 0.2037 0.0105
H12 H 0.4894 0.0491 0.1565
H13 H 0.3771 0.1272 0.1624
H14 H 0.3888 0.0438 0.1957
H27 H 0.5358 0.1488 0.0312
H28 H 0.3994 0.1541 0.0697
H29 H 0.5258 0.0854 0.0690
H30 H 0.4776 -0.0564 0.0298
H31 H 0.4480 -0.0363 -0.0172
H32 H 0.5756 0.0191 0.0010
H33 H -0.1000 0.0669 -0.0281
H34 H -0.1072 0.0045 0.0075
H35 H 0.0240 -0.0111 -0.0232
H36 H 0.0071 0.1857 0.0603
H37 H -0.1259 0.1245 0.0595
H38 H -0.1057 0.1939 0.0209
H47 H 0.0643 0.0688 0.1515
H48 H -0.1087 -0.1398 0.0469
H49 H -0.1070 -0.1965 0.0874
H50 H -0.0212 -0.2771 0.0303
H51 H 0.1557 -0.1388 0.0099
H52 H 0.2226 -0.2273 -0.0063
H53 H 0.3862 -0.2023 0.0612
H54 H 0.4353 -0.0899 0.1096
H64 H 0.3370 -0.3782 0.0705
H65 H 0.2589 -0.3559 0.0252
H66 H 0.1655 -0.4114 0.0587
H67 H 0.0373 -0.3221 0.1230
H68 H 0.2132 -0.3303 0.1352
H69 H 0.1388 -0.2371 0.1339
H70 H -0.2278 -0.0425 0.0919
H71 H -0.1783 0.0373 0.1233
H72 H -0.1939 -0.0528 0.1416
loop_
_geom_bond_atom_site_label_1
_geom_bond_atom_site_label_2
_geom_bond_site_symmetry_1
_geom_bond_site_symmetry_2
N1 C1 1_555 1_555
N2 C2 1_555 1_555
N3 C3 1_555 1_555
N4 C4 1_555 1_555
C1 C2 1_555 1_555
C2 H3 1_555 1_555
C3 C4 1_555 1_555
C4 H7 1_555 1_555
C5 B1 1_555 1_555
C6 B2 1_555 1_555
C7 N1 1_555 1_555
C8 N1 1_555 1_555
C9 N2 1_555 1_555
C10 N2 1_555 1_555
C11 N3 1_555 1_555
C12 N3 1_555 1_555
C13 N4 1_555 1_555
C14 N4 1_555 1_555
C15 C20 1_555 1_555
C16 C17 1_555 1_555
C17 C18 1_555 1_555
C18 C19 1_555 1_555
C19 C20 1_555 1_555
C20 C21 1_555 1_555
C21 C22 1_555 1_555
C22 C15 1_555 1_555
C23 C18 1_555 1_555
C24 C23 1_555 1_555
C25 C30 1_555 1_555
C26 C27 1_555 1_555
C27 C28 1_555 1_555
C28 C29 1_555 1_555
C29 C30 1_555 1_555
C30 C31 1_555 1_555
C31 C32 1_555 1_555
C32 C25 1_555 1_555
C33 C28 1_555 1_555
C34 C33 1_555 1_555
C35 C15 1_555 1_555
C36 C15 1_555 1_555
C37 C17 1_555 1_555
C38 C25 1_555 1_555
C39 C25 1_555 1_555
C40 C27 1_555 1_555
B1 C16 1_555 1_555
B2 C26 1_555 1_555
Li1 N1 1_555 1_555
Li2 N3 1_555 1_555
H1 C1 1_555 1_555
H2 C1 1_555 1_555
H4 C2 1_555 1_555
H5 C3 1_555 1_555
H6 C3 1_555 1_555
H8 C4 1_555 1_555
H9 C5 1_555 1_555
H10 C5 1_555 1_555
H11 C5 1_555 1_555
H12 C6 1_555 1_555
H13 C6 1_555 1_555
H14 C6 1_555 1_555
H15 C7 1_555 1_555
H16 C7 1_555 1_555
H17 C7 1_555 1_555
H18 C8 1_555 1_555
H19 C8 1_555 1_555
H20 C8 1_555 1_555
H21 C9 1_555 1_555
H22 C9 1_555 1_555
H23 C9 1_555 1_555
H24 C10 1_555 1_555
H25 C10 1_555 1_555
H26 C10 1_555 1_555
H27 C11 1_555 1_555
H28 C11 1_555 1_555
H29 C11 1_555 1_555
H30 C12 1_555 1_555
H31 C12 1_555 1_555
H32 C12 1_555 1_555
H33 C13 1_555 1_555
H34 C13 1_555 1_555
H35 C13 1_555 1_555
H36 C14 1_555 1_555
H37 C14 1_555 1_555
H38 C14 1_555 1_555
H39 C16 1_555 1_555
H40 C19 1_555 1_555
H41 C19 1_555 1_555
H42 C20 1_555 1_555
H43 C21 1_555 1_555
H44 C21 1_555 1_555
H45 C22 1_555 1_555
H46 C24 1_555 1_555
H47 C26 1_555 1_555
H48 C29 1_555 1_555
H49 C29 1_555 1_555
H50 C30 1_555 1_555
H51 C31 1_555 1_555
H52 C31 1_555 1_555
H53 C32 1_555 1_555
H54 C34 1_555 1_555
H55 C35 1_555 1_555
H56 C35 1_555 1_555
H57 C35 1_555 1_555
H58 C36 1_555 1_555
H59 C36 1_555 1_555
H60 C36 1_555 1_555
H61 C37 1_555 1_555
H62 C37 1_555 1_555
H63 C37 1_555 1_555
H64 C38 1_555 1_555
H65 C38 1_555 1_555
H66 C38 1_555 1_555
H67 C39 1_555 1_555
H68 C39 1_555 1_555
H69 C39 1_555 1_555
H70 C40 1_555 1_555
H71 C40 1_555 1_555
H72 C40 1_555 1_555
N2 Li1 1_555 1_555
N4 Li2 1_555 1_555
C16 Li1 1_555 1_555
C17 Li1 1_555 1_555
C18 Li1 1_555 1_555
C22 C23 1_555 1_555
C23 Li1 1_555 1_555
C24 B1 1_555 1_555
C24 Li1 1_555 1_555
C26 Li2 1_555 1_555
C27 Li2 1_555 1_555
C28 Li2 1_555 1_555
C32 C33 1_555 1_555
C33 Li2 1_555 1_555
C34 B2 1_555 1_555
C34 Li2 1_555 1_555
B1 Li1 1_555 1_555
B2 Li2 1_555 1_555

#END
