
#######################################################################
#
#                 Cambridge Crystallographic Data Centre
#                                CCDC 
#
#######################################################################
#
# If this CIF has been generated from an entry in the Cambridge 
# Structural Database, then it will include bibliographic, chemical, 
# crystal, experimental, refinement or atomic coordinate data resulting 
# from the CCDC's data processing and validation procedures.
#
#######################################################################

data_GUDNEZ
_chemical_formula_moiety         'C10 H14 N2 Se1'
_chemical_name_systematic        1-Methyl-1-phenylethylselenourea
_symmetry_cell_setting           orthorhombic
_symmetry_space_group_name_H-M   'P c a 21'
_symmetry_Int_Tables_number      29
_space_group_name_Hall           'P 2c -2ac'
loop_
_symmetry_equiv_pos_site_id
_symmetry_equiv_pos_as_xyz
1 x,y,z
2 -x,-y,1/2+z
3 1/2-x,y,1/2+z
4 1/2+x,-y,z
_cell_length_a                   12.067(2)
_cell_length_b                   5.9432(13)
_cell_length_c                   29.023(6)
_cell_angle_alpha                90
_cell_angle_beta                 90
_cell_angle_gamma                90
_cell_volume                     2081.43
_exptl_crystal_colour            colorless
_exptl_crystal_description       prism
_chemical_melting_point          167-169deg.C
_cell_formula_units_Z            8
loop_
_atom_site_label
_atom_site_type_symbol
_atom_site_fract_x
_atom_site_fract_y
_atom_site_fract_z
Se1 Se 0.03858(5) 0.87276(9) 0.96529(3)
N2 N -0.0534(4) 1.2581(8) 1.00916(17)
C5 C 0.0668(5) 1.2164(11) 1.0772(2)
H5 H 0.0002 1.2581 1.0953
H6 H 0.0695 1.0501 1.0753
C7 C 0.1698(5) 1.5068(13) 1.1240(2)
H8 H 0.1064 1.6012 1.1219
C8 C 0.1685(5) 1.2997(12) 1.1019(2)
C11 C 0.3550(5) 1.2371(12) 1.1294(2)
H12 H 0.4193 1.1452 1.1313
C14 C 0.0566(5) 1.3134(11) 1.0287(2)
H16 H 0.0662 1.4787 1.0297
H17 H 0.1155 1.2500 1.0088
C16 C 0.2607(6) 1.5794(11) 1.1488(2)
H19 H 0.2592 1.7209 1.1641
N4 N -0.1771(4) 1.0284(10) 0.97281(18)
C17 C 0.2634(6) 1.1620(11) 1.1048(2)
H20 H 0.2647 1.0194 1.0900
C18 C 0.3538(5) 1.4450(12) 1.1514(2)
H21 H 0.4169 1.4944 1.1681
C19 C -0.0719(5) 1.0739(12) 0.9847(2)
C20 C -0.1438(6) 1.4101(11) 1.0213(3)
H22 H -0.1825 1.4575 0.9932
H23 H -0.1137 1.5426 1.0370
H24 H -0.1958 1.3324 1.0417
H27 H -0.233(4) 1.142(8) 0.980(3)
H28 H -0.176(6) 0.908(8) 0.9497(17)
Se2 Se 0.21005(6) 0.39071(9) 0.90379(2)
C1 C 0.3891(5) 0.9344(12) 0.8487(2)
H1 H 0.4303 0.9775 0.8765
H2 H 0.3588 1.0694 0.8340
H3 H 0.4391 0.8577 0.8272
C2 C 0.3185(5) 0.5976(10) 0.8856(2)
N1 N 0.4243(4) 0.5562(10) 0.8983(2)
C3 C -0.1174(5) 0.8775(10) 0.7192(2)
H4 H -0.1838 0.9094 0.7029
C4 C 0.0801(4) 0.7842(11) 0.7666(2)
C6 C -0.0078(6) 0.6272(10) 0.7657(3)
H7 H -0.0008 0.4881 0.7816
N3 N 0.2987(4) 0.7834(10) 0.86136(17)
C9 C -0.0335(5) 1.0336(12) 0.7206(2)
H9 H -0.0428 1.1737 0.7053
C10 C 0.1862(5) 0.7309(11) 0.7915(2)
H10 H 0.2491 0.7918 0.7735
H11 H 0.1951 0.5655 0.7930
C12 C 0.0658(5) 0.9901(12) 0.7442(2)
H13 H 0.1229 1.1000 0.7448
C13 C 0.1912(5) 0.8270(11) 0.8405(2)
H14 H 0.1778 0.9913 0.8396
H15 H 0.1324 0.7575 0.8596
C15 C -0.1050(5) 0.6762(12) 0.7414(2)
H18 H -0.1631 0.5684 0.7404
H25 H 0.482(4) 0.664(9) 0.890(3)
H26 H 0.447(5) 0.405(5) 0.908(3)
loop_
_geom_bond_atom_site_label_1
_geom_bond_atom_site_label_2
_geom_bond_site_symmetry_1
_geom_bond_site_symmetry_2
Se1 C19 1_555 1_555
Se2 C2 1_555 1_555
C1 H1 1_555 1_555
H2 C1 1_555 1_555
H3 C1 1_555 1_555
C2 N1 1_555 1_555
N1 H25 1_555 1_555
N2 C14 1_555 1_555
C3 H4 1_555 1_555
C4 C6 1_555 1_555
C5 H5 1_555 1_555
H6 C5 1_555 1_555
C6 H7 1_555 1_555
C7 H8 1_555 1_555
N3 C1 1_555 1_555
C8 C5 1_555 1_555
C9 C3 1_555 1_555
H9 C9 1_555 1_555
C10 C4 1_555 1_555
H10 C10 1_555 1_555
H11 C10 1_555 1_555
C11 H12 1_555 1_555
C12 C4 1_555 1_555
H13 C12 1_555 1_555
C13 N3 1_555 1_555
H14 C13 1_555 1_555
H15 C13 1_555 1_555
C14 C5 1_555 1_555
H16 C14 1_555 1_555
H17 C14 1_555 1_555
C15 C3 1_555 1_555
H18 C15 1_555 1_555
C16 C7 1_555 1_555
H19 C16 1_555 1_555
N4 C19 1_555 1_555
C17 C8 1_555 1_555
H20 C17 1_555 1_555
C18 C11 1_555 1_555
H21 C18 1_555 1_555
C19 N2 1_555 1_555
C20 N2 1_555 1_555
H22 C20 1_555 1_555
H23 C20 1_555 1_555
H24 C20 1_555 1_555
H26 N1 1_555 1_555
H27 N4 1_555 1_555
H28 N4 1_555 1_555
C2 N3 1_555 1_555
C6 C15 1_555 1_555
C7 C8 1_555 1_555
C9 C12 1_555 1_555
C10 C13 1_555 1_555
C11 C17 1_555 1_555
C16 C18 1_555 1_555

#END
