
#######################################################################
#
#                 Cambridge Crystallographic Data Centre
#                                CCDC 
#
#######################################################################
#
# If this CIF has been generated from an entry in the Cambridge 
# Structural Database, then it will include bibliographic, chemical, 
# crystal, experimental, refinement or atomic coordinate data resulting 
# from the CCDC's data processing and validation procedures.
#
#######################################################################

data_GUDPUS
_chemical_formula_moiety         'C14 H15 Cl1 O4'
_chemical_name_systematic        
'Methyl 4-(1-chloroethyl)-2-oxo-3-phenyltetrahydrofuran-3-carboxylate'
_symmetry_cell_setting           triclinic
_symmetry_space_group_name_H-M   'P -1'
_symmetry_Int_Tables_number      2
_space_group_name_Hall           '-P 1'
loop_
_symmetry_equiv_pos_site_id
_symmetry_equiv_pos_as_xyz
1 x,y,z
2 -x,-y,-z
_cell_length_a                   6.5828(5)
_cell_length_b                   9.4751(7)
_cell_length_c                   11.2389(8)
_cell_angle_alpha                100.453(5)
_cell_angle_beta                 92.328(5)
_cell_angle_gamma                91.953(5)
_cell_volume                     688.185
_exptl_crystal_colour            colorless
_exptl_crystal_description       plate
_cell_formula_units_Z            2
loop_
_atom_site_label
_atom_site_type_symbol
_atom_site_fract_x
_atom_site_fract_y
_atom_site_fract_z
Cl1 Cl 0.7128(3) 0.59118(19) 0.91821(15)
O1 O 0.3375(6) 0.3735(5) 0.6692(4)
O2 O 0.5297(6) 0.5611(4) 0.6432(4)
O3 O 0.8787(7) 0.2969(5) 0.4745(4)
O4 O 0.5854(7) 0.1834(5) 0.4970(4)
C1 C 0.7100(8) 0.3573(5) 0.6646(4)
C2 C 0.5026(8) 0.4234(6) 0.6623(5)
C3 C 0.7440(9) 0.5983(6) 0.6405(5)
H1 H 0.7750 0.6935 0.6876
H2 H 0.7815 0.5977 0.5578
C4 C 0.8598(8) 0.4875(5) 0.6939(5)
H3 H 0.9811 0.4655 0.6474
C5 C 0.9268(9) 0.5339(6) 0.8260(5)
H4 H 0.973(8) 0.443(6) 0.859(5)
C6 C 1.0912(10) 0.6528(7) 0.8482(6)
H5 H 1.2031 0.6249 0.7981
H6 H 1.1377 0.6698 0.9318
H7 H 1.0371 0.7391 0.8286
C7 C 0.7389(8) 0.2779(6) 0.5335(5)
C8 C 0.5957(14) 0.0956(8) 0.3776(6)
H8 H 0.7102 0.0353 0.3766
H9 H 0.6109 0.1565 0.3187
H10 H 0.4729 0.0368 0.3585
C9 C 0.7316(8) 0.2444(5) 0.7470(5)
C10 C 0.5860(9) 0.2193(6) 0.8263(5)
H11 H 0.4691 0.2720 0.8323
C11 C 0.6146(12) 0.1147(7) 0.8973(6)
H12 H 0.503(13) 0.104(9) 0.941(8)
C12 C 0.7857(11) 0.0363(7) 0.8889(6)
H13 H 0.8024 -0.0350 0.9351
C13 C 0.9316(12) 0.0633(8) 0.8124(7)
H14 H 1.056(11) 0.023(8) 0.808(7)
C14 C 0.9063(9) 0.1671(7) 0.7414(6)
H15 H 1.0072 0.1848 0.6898
loop_
_geom_bond_atom_site_label_1
_geom_bond_atom_site_label_2
_geom_bond_site_symmetry_1
_geom_bond_site_symmetry_2
Cl1 C5 1_555 1_555
O1 C2 1_555 1_555
O2 C2 1_555 1_555
O3 C7 1_555 1_555
O4 C7 1_555 1_555
C1 C2 1_555 1_555
C3 O2 1_555 1_555
H1 C3 1_555 1_555
H2 C3 1_555 1_555
C4 C1 1_555 1_555
H3 C4 1_555 1_555
C5 C4 1_555 1_555
H4 C5 1_555 1_555
C6 C5 1_555 1_555
H5 C6 1_555 1_555
H6 C6 1_555 1_555
H7 C6 1_555 1_555
C7 C1 1_555 1_555
C8 O4 1_555 1_555
H8 C8 1_555 1_555
H9 C8 1_555 1_555
H10 C8 1_555 1_555
C9 C1 1_555 1_555
C10 C9 1_555 1_555
H11 C10 1_555 1_555
C11 C10 1_555 1_555
H12 C11 1_555 1_555
C12 C11 1_555 1_555
H13 C12 1_555 1_555
C13 C12 1_555 1_555
H14 C13 1_555 1_555
C14 C9 1_555 1_555
H15 C14 1_555 1_555
C3 C4 1_555 1_555
C13 C14 1_555 1_555

#END
