
#######################################################################
#
#                 Cambridge Crystallographic Data Centre
#                                CCDC 
#
#######################################################################
#
# If this CIF has been generated from an entry in the Cambridge 
# Structural Database, then it will include bibliographic, chemical, 
# crystal, experimental, refinement or atomic coordinate data resulting 
# from the CCDC's data processing and validation procedures.
#
#######################################################################

data_GUDPAY
_chemical_formula_moiety         'C28 H19 N1 O3 S2'
_chemical_name_systematic        
'7-Cyano-2,6-diphenyl-1-benzothiophen-4-yl 4-methylbenzenesulfonate'
_symmetry_cell_setting           triclinic
_symmetry_space_group_name_H-M   'P -1'
_symmetry_Int_Tables_number      2
_space_group_name_Hall           '-P 1'
loop_
_symmetry_equiv_pos_site_id
_symmetry_equiv_pos_as_xyz
1 x,y,z
2 -x,-y,-z
_cell_length_a                   10.4430(11)
_cell_length_b                   11.2280(11)
_cell_length_c                   11.7950(11)
_cell_angle_alpha                70.186(2)
_cell_angle_beta                 87.728(2)
_cell_angle_gamma                65.484(2)
_cell_volume                     1175.56
_exptl_crystal_colour            colorless
_exptl_crystal_description       block
_cell_formula_units_Z            2
loop_
_atom_site_label
_atom_site_type_symbol
_atom_site_fract_x
_atom_site_fract_y
_atom_site_fract_z
S1 S 0.72222(11) 0.41162(11) 0.62003(9)
S2 S 0.80012(12) 0.84229(11) 0.17273(9)
O1 O 0.7554(3) 0.9487(3) 0.2229(2)
O2 O 0.8896(3) 0.6939(3) 0.2797(2)
C1 C 0.8939(4) 0.7300(4) 0.4690(3)
H1 H 0.9307 0.7946 0.4330
C2 C 0.8245(4) 0.5981(4) 0.6440(3)
O3 O 0.8903(3) 0.8421(4) 0.0798(2)
C3 C 0.8040(4) 0.5713(4) 0.4486(3)
C4 C 0.8766(4) 0.6968(4) 0.5936(3)
C5 C 0.7889(4) 0.5351(4) 0.5741(3)
C6 C 0.7580(4) 0.4980(4) 0.3946(3)
H2 H 0.7602 0.5096 0.3128
C7 C 0.6534(4) 0.8229(4) 0.1315(3)
C8 C 0.9156(4) 0.7668(4) 0.6642(3)
C9 C 0.6535(4) 0.3201(4) 0.4486(4)
C10 C 0.8582(4) 0.6698(4) 0.3998(3)
C11 C 0.7105(4) 0.4097(4) 0.4732(3)
C12 C 0.9866(4) 0.6940(4) 0.7798(3)
H3 H 1.0112 0.5985 0.8146
C13 C 0.8871(4) 0.9073(4) 0.6120(4)
H4 H 0.8447 0.9577 0.5322
C14 C 1.0219(4) 0.7593(5) 0.8450(4)
H5 H 1.0673 0.7087 0.9238
C15 C 0.5760(4) 0.2640(4) 0.5274(4)
H6 H 0.5621 0.2796 0.6004
C16 C 0.5232(5) 0.8914(5) 0.1653(3)
H7 H 0.5124 0.9498 0.2086
C17 C 0.7956(4) 0.5614(4) 0.7698(4)
C18 C 0.6730(5) 0.2924(5) 0.3423(4)
H8 H 0.7262 0.3278 0.2875
N1 N 0.7703(4) 0.5316(4) 0.8672(3)
C19 C 0.5183(5) 0.1851(4) 0.5009(4)
H9 H 0.4660 0.1486 0.5560
C20 C 0.9217(5) 0.9727(5) 0.6787(4)
H10 H 0.8978 1.0680 0.6444
C21 C 0.6703(5) 0.7347(4) 0.0683(4)
H11 H 0.7580 0.6890 0.0449
C22 C 0.5365(5) 0.1600(4) 0.3960(4)
H12 H 0.4965 0.1074 0.3781
C23 C 0.4235(6) 0.7847(6) 0.0716(4)
C24 C 0.5544(6) 0.7160(5) 0.0407(4)
H13 H 0.5656 0.6551 0.0000
C25 C 0.4092(5) 0.8723(5) 0.1342(4)
H14 H 0.3209 0.9195 0.1558
C26 C 0.6154(5) 0.2138(5) 0.3158(4)
H15 H 0.6297 0.1966 0.2435
C27 C 0.9897(4) 0.9000(5) 0.7931(4)
H16 H 1.0144 0.9446 0.8362
C28 C 0.2974(6) 0.7635(6) 0.0406(5)
H17 H 0.3262 0.6982 -0.0013
H18 H 0.2252 0.8514 -0.0106
H19 H 0.2609 0.7274 0.1138
loop_
_geom_bond_atom_site_label_1
_geom_bond_atom_site_label_2
_geom_bond_site_symmetry_1
_geom_bond_site_symmetry_2
S1 C5 1_555 1_555
S2 O1 1_555 1_555
O2 S2 1_555 1_555
C1 H1 1_555 1_555
C2 C4 1_555 1_555
O3 S2 1_555 1_555
C3 C5 1_555 1_555
C4 C1 1_555 1_555
C5 C2 1_555 1_555
C6 C3 1_555 1_555
H2 C6 1_555 1_555
C7 S2 1_555 1_555
C8 C4 1_555 1_555
C9 C11 1_555 1_555
C10 O2 1_555 1_555
C11 S1 1_555 1_555
C12 C8 1_555 1_555
H3 C12 1_555 1_555
C13 C8 1_555 1_555
H4 C13 1_555 1_555
C14 C12 1_555 1_555
H5 C14 1_555 1_555
C15 C9 1_555 1_555
H6 C15 1_555 1_555
C16 C7 1_555 1_555
H7 C16 1_555 1_555
C17 C2 1_555 1_555
C18 C9 1_555 1_555
H8 C18 1_555 1_555
N1 C17 1_555 1_555
C19 C15 1_555 1_555
H9 C19 1_555 1_555
C20 C13 1_555 1_555
H10 C20 1_555 1_555
C21 C7 1_555 1_555
H11 C21 1_555 1_555
C22 C19 1_555 1_555
H12 C22 1_555 1_555
C23 C24 1_555 1_555
C24 C21 1_555 1_555
H13 C24 1_555 1_555
C25 C16 1_555 1_555
H14 C25 1_555 1_555
C26 C18 1_555 1_555
H15 C26 1_555 1_555
C27 C14 1_555 1_555
H16 C27 1_555 1_555
C28 C23 1_555 1_555
H17 C28 1_555 1_555
H18 C28 1_555 1_555
H19 C28 1_555 1_555
C1 C10 1_555 1_555
C3 C10 1_555 1_555
C6 C11 1_555 1_555
C20 C27 1_555 1_555
C22 C26 1_555 1_555
C23 C25 1_555 1_555

#END
