
#######################################################################
#
#                 Cambridge Crystallographic Data Centre
#                                CCDC 
#
#######################################################################
#
# If this CIF has been generated from an entry in the Cambridge 
# Structural Database, then it will include bibliographic, chemical, 
# crystal, experimental, refinement or atomic coordinate data resulting 
# from the CCDC's data processing and validation procedures.
#
#######################################################################

data_GUDQED
_chemical_compound_source        'Carpesium abrotanoid L'
_chemical_name_common            'Dicarabrone B'
_chemical_formula_moiety         'C30 H40 O6'
_chemical_name_systematic        
5a,7a'-Dimethyl-3'-methylene-5,7'-bis(3-oxobutyl)tetradecahydro-3aH-spiro[cyclopropa[f][1]benzofuran-3,5'-indeno[5,6-b]furan]-2,2'(3'H)-dione
_symmetry_cell_setting           monoclinic
_symmetry_space_group_name_H-M   'P 21'
_symmetry_Int_Tables_number      4
_space_group_name_Hall           'P 2yb'
loop_
_symmetry_equiv_pos_site_id
_symmetry_equiv_pos_as_xyz
1 x,y,z
2 -x,1/2+y,-z
_cell_length_a                   6.31430(10)
_cell_length_b                   9.8108(2)
_cell_length_c                   21.6947(3)
_cell_angle_alpha                90
_cell_angle_beta                 96.3220(10)
_cell_angle_gamma                90
_cell_volume                     1335.78
_exptl_crystal_colour            colorless
_exptl_crystal_description       block
_chemical_melting_point          '469-470 K'
_cell_formula_units_Z            2
_chemical_properties_physical    Light-sensitive
_exptl_crystal_recrystallization_method methanol
loop_
_atom_site_label
_atom_site_type_symbol
_atom_site_fract_x
_atom_site_fract_y
_atom_site_fract_z
O1 O 0.14825(19) 0.24339(17) 0.70210(7)
O2 O 0.2016(2) 0.02994(17) 0.73360(6)
O3 O 0.9732(3) 0.6819(2) 0.47595(9)
O4 O 1.0303(2) 0.34213(18) 0.94105(7)
O5 O 1.1453(3) 0.5568(2) 0.94660(7)
O6 O 0.9325(3) -0.44374(18) 0.77061(9)
C1 C 0.4833(3) 0.4733(2) 0.55568(9)
H1 H 0.4083 0.3949 0.5333
C2 C 0.5944(4) 0.5693(3) 0.51517(9)
H2 H 0.6764 0.6379 0.5414
H3 H 0.4873 0.6178 0.4865
C3 C 0.7447(4) 0.4895(3) 0.47805(10)
H4 H 0.7996 0.4103 0.5032
H5 H 0.6608 0.4535 0.4403
C4 C 0.9314(4) 0.5668(3) 0.45859(9)
C5 C 0.5980(3) 0.4393(2) 0.61844(8)
H6 H 0.7287 0.4949 0.6307
C6 C 0.5960(3) 0.3011(2) 0.64904(8)
H7 H 0.7421 0.2634 0.6562
H8 H 0.5055 0.2368 0.6227
C7 C 0.5049(3) 0.3242(2) 0.71084(8)
H9 H 0.5893 0.3968 0.7348
C8 C 0.2709(3) 0.3698(2) 0.69850(9)
H10 H 0.2364 0.4346 0.7315
C9 C 0.2099(3) 0.4325(2) 0.63454(10)
H11 H 0.1738 0.3588 0.6040
H12 H 0.0818 0.4902 0.6358
C10 C 0.3901(3) 0.5187(2) 0.61363(9)
C11 C 0.4926(3) 0.1978(2) 0.75201(8)
C12 C 0.2708(3) 0.1440(2) 0.72955(8)
C13 C 0.6635(3) 0.0881(2) 0.74781(8)
H13 H 0.6326 0.0333 0.7096
H14 H 0.8063 0.1299 0.7480
C14 C 0.3861(4) 0.6671(3) 0.63112(11)
H15 H 0.2611 0.7109 0.6087
H16 H 0.5158 0.7117 0.6202
H17 H 0.3790 0.6754 0.6759
C15 C 1.0655(4) 0.4908(3) 0.41653(11)
H18 H 1.1984 0.5408 0.4136
H19 H 0.9869 0.4826 0.3752
H20 H 1.0983 0.3997 0.4335
C16 C 0.6517(3) 0.0002(2) 0.80539(8)
H21 H 0.5162 -0.0532 0.7986
C17 C 0.8330(3) -0.1025(2) 0.81807(8)
H22 H 0.8225 -0.1471 0.8585
H23 H 0.9710 -0.0537 0.8207
C18 C 0.8270(3) -0.2111(3) 0.76745(10)
H24 H 0.6813 -0.2496 0.7609
H25 H 0.8558 -0.1667 0.7283
C19 C 0.9827(3) -0.3262(2) 0.78082(9)
C20 C 0.4998(3) 0.2261(2) 0.82439(8)
H26 H 0.3505 0.2241 0.8357
C21 C 0.5972(3) 0.3648(2) 0.84362(8)
H27 H 0.4942 0.4378 0.8301
H28 H 0.7268 0.3794 0.8226
C22 C 0.6555(3) 0.3737(2) 0.91404(8)
H29 H 0.5268 0.3607 0.9364
C23 C 0.8268(3) 0.2677(2) 0.93456(8)
H30 H 0.8001 0.2282 0.9755
C24 C 0.8444(3) 0.1539(2) 0.88791(9)
H31 H 0.9218 0.0762 0.9090
H32 H 0.9287 0.1866 0.8550
C25 C 0.6252(3) 0.1042(2) 0.85790(8)
C26 C 0.7653(3) 0.5055(2) 0.93237(8)
C27 C 0.9989(3) 0.4777(2) 0.94066(9)
C28 C 0.6855(4) 0.6272(2) 0.94189(9)
H33 H 0.7779 0.7009 0.9545
H34 H 0.5357 0.6411 0.9361
C29 C 0.5004(4) 0.0407(2) 0.90744(9)
H35 H 0.4762 0.1097 0.9386
H36 H 0.5821 -0.0352 0.9275
H37 H 0.3630 0.0070 0.8879
C30 C 1.2053(4) -0.2882(3) 0.80664(12)
H38 H 1.3009 -0.3655 0.8023
H39 H 1.2074 -0.2647 0.8506
H40 H 1.2528 -0.2097 0.7839
loop_
_geom_bond_atom_site_label_1
_geom_bond_atom_site_label_2
_geom_bond_site_symmetry_1
_geom_bond_site_symmetry_2
O1 C8 1_555 1_555
O2 C12 1_555 1_555
O3 C4 1_555 1_555
O4 C23 1_555 1_555
O5 C27 1_555 1_555
O6 C19 1_555 1_555
C1 H1 1_555 1_555
C2 C1 1_555 1_555
H2 C2 1_555 1_555
H3 C2 1_555 1_555
C3 C2 1_555 1_555
H4 C3 1_555 1_555
H5 C3 1_555 1_555
C4 C3 1_555 1_555
C5 C1 1_555 1_555
H6 C5 1_555 1_555
C6 C5 1_555 1_555
H7 C6 1_555 1_555
H8 C6 1_555 1_555
C7 C6 1_555 1_555
H9 C7 1_555 1_555
C8 C7 1_555 1_555
H10 C8 1_555 1_555
C9 C8 1_555 1_555
H11 C9 1_555 1_555
H12 C9 1_555 1_555
C10 C1 1_555 1_555
C11 C7 1_555 1_555
C12 O1 1_555 1_555
C13 C11 1_555 1_555
H13 C13 1_555 1_555
H14 C13 1_555 1_555
C14 C10 1_555 1_555
H15 C14 1_555 1_555
H16 C14 1_555 1_555
H17 C14 1_555 1_555
C15 C4 1_555 1_555
H18 C15 1_555 1_555
H19 C15 1_555 1_555
H20 C15 1_555 1_555
C16 C13 1_555 1_555
H21 C16 1_555 1_555
C17 C16 1_555 1_555
H22 C17 1_555 1_555
H23 C17 1_555 1_555
C18 C17 1_555 1_555
H24 C18 1_555 1_555
H25 C18 1_555 1_555
C19 C18 1_555 1_555
C20 C11 1_555 1_555
H26 C20 1_555 1_555
C21 C20 1_555 1_555
H27 C21 1_555 1_555
H28 C21 1_555 1_555
C22 C21 1_555 1_555
H29 C22 1_555 1_555
C23 C22 1_555 1_555
H30 C23 1_555 1_555
C24 C23 1_555 1_555
H31 C24 1_555 1_555
H32 C24 1_555 1_555
C25 C16 1_555 1_555
C26 C22 1_555 1_555
C27 O4 1_555 1_555
C28 C26 1_555 1_555
H33 C28 1_555 1_555
H34 C28 1_555 1_555
C29 C25 1_555 1_555
H35 C29 1_555 1_555
H36 C29 1_555 1_555
H37 C29 1_555 1_555
C30 C19 1_555 1_555
H38 C30 1_555 1_555
H39 C30 1_555 1_555
H40 C30 1_555 1_555
C5 C10 1_555 1_555
C9 C10 1_555 1_555
C11 C12 1_555 1_555
C20 C25 1_555 1_555
C24 C25 1_555 1_555
C26 C27 1_555 1_555

#END
