
#######################################################################
#
#                 Cambridge Crystallographic Data Centre
#                                CCDC 
#
#######################################################################
#
# If this CIF has been generated from an entry in the Cambridge 
# Structural Database, then it will include bibliographic, chemical, 
# crystal, experimental, refinement or atomic coordinate data resulting 
# from the CCDC's data processing and validation procedures.
#
#######################################################################

data_GUDRIG01
_chemical_compound_source        'roots of Iris tenuifolia'
_chemical_name_common            
5,2',3'-trihydroxy-6,7-methylenedioxyflavanone
_chemical_formula_moiety         'C16 H12 O7'
_chemical_name_systematic        
6-(2,3-Dihydroxyphenyl)-9-hydroxy-6,7-dihydro-8H-[1,3]dioxolo[4,5-g]chromen-8-one
_symmetry_cell_setting           orthorhombic
_symmetry_space_group_name_H-M   'P 21 21 21'
_symmetry_Int_Tables_number      19
_space_group_name_Hall           'P 2ac 2ab'
loop_
_symmetry_equiv_pos_site_id
_symmetry_equiv_pos_as_xyz
1 x,y,z
2 1/2-x,-y,1/2+z
3 -x,1/2+y,1/2-z
4 1/2+x,1/2-y,-z
_cell_length_a                   8.4551(2)
_cell_length_b                   8.8884(2)
_cell_length_c                   17.5686(5)
_cell_angle_alpha                90
_cell_angle_beta                 90
_cell_angle_gamma                90
_cell_volume                     1320.32
_exptl_crystal_colour            yellow
_cell_formula_units_Z            4
loop_
_atom_site_label
_atom_site_type_symbol
_atom_site_fract_x
_atom_site_fract_y
_atom_site_fract_z
O1 O -0.09069(17) 0.94657(19) 0.29437(9)
C1 C -0.1279(3) 0.9700(3) 0.37359(14)
H1 H -0.0931 1.0689 0.3898
H2 H -0.2410 0.9623 0.3818
O2 O -0.04670(19) 0.8557(2) 0.41508(9)
C2 C 0.0747(2) 0.8130(2) 0.36737(12)
O3 O 0.51099(19) 0.60142(17) 0.40479(9)
C3 C 0.0479(2) 0.8670(2) 0.29528(12)
O4 O 0.38976(17) 0.75168(17) 0.19229(7)
C4 C 0.1467(2) 0.8435(2) 0.23487(11)
H3 H 0.1231 0.8778 0.1862
C5 C 0.2851(2) 0.7647(2) 0.25119(11)
O5 O 0.22800(19) 0.67722(19) 0.45502(9)
H4 H 0.3198(18) 0.637(3) 0.4572(19)
C6 C 0.3182(2) 0.7080(2) 0.32439(11)
O6 O 0.49583(18) 0.45569(16) 0.07270(8)
H5 H 0.502(3) 0.414(2) 0.0286(8)
C7 C 0.2061(2) 0.7298(2) 0.38422(11)
O7 O 0.68631(19) 0.48020(18) -0.04896(9)
H6 H 0.7770(19) 0.451(3) -0.0644(16)
C8 C 0.5157(2) 0.6414(2) 0.20180(11)
H7 H 0.4690 0.5406 0.2000
C9 C 0.5931(2) 0.6627(2) 0.27897(12)
H8 H 0.6741 0.5868 0.2861
H9 H 0.6436 0.7607 0.2809
C10 C 0.4746(3) 0.6512(2) 0.34127(11)
C11 C 0.6251(2) 0.6587(2) 0.13480(11)
C12 C 0.7411(3) 0.7700(2) 0.13306(14)
H10 H 0.7520 0.8351 0.1742
C13 C 0.8398(3) 0.7850(3) 0.07096(13)
H11 H 0.9162 0.8602 0.0705
C14 C 0.8259(3) 0.6886(3) 0.00923(13)
H12 H 0.8929 0.6987 -0.0325
C15 C 0.7118(3) 0.5776(2) 0.01029(12)
C16 C 0.6108(2) 0.5643(2) 0.07235(11)
loop_
_geom_bond_atom_site_label_1
_geom_bond_atom_site_label_2
_geom_bond_site_symmetry_1
_geom_bond_site_symmetry_2
O1 C1 1_555 1_555
C1 H1 1_555 1_555
H2 C1 1_555 1_555
O2 C1 1_555 1_555
C2 O2 1_555 1_555
O3 C10 1_555 1_555
C3 O1 1_555 1_555
O4 C5 1_555 1_555
C4 C3 1_555 1_555
H3 C4 1_555 1_555
C5 C4 1_555 1_555
O5 H4 1_555 1_555
C6 C5 1_555 1_555
O6 H5 1_555 1_555
C7 C2 1_555 1_555
O7 H6 1_555 1_555
C8 O4 1_555 1_555
H7 C8 1_555 1_555
C9 C8 1_555 1_555
H8 C9 1_555 1_555
H9 C9 1_555 1_555
C10 C6 1_555 1_555
C11 C8 1_555 1_555
C12 C11 1_555 1_555
H10 C12 1_555 1_555
C13 C12 1_555 1_555
H11 C13 1_555 1_555
C14 C13 1_555 1_555
H12 C14 1_555 1_555
C15 O7 1_555 1_555
C16 O6 1_555 1_555
C2 C3 1_555 1_555
O5 C7 1_555 1_555
C6 C7 1_555 1_555
C9 C10 1_555 1_555
C11 C16 1_555 1_555
C14 C15 1_555 1_555
C15 C16 1_555 1_555

#END
