
#######################################################################
#
#                 Cambridge Crystallographic Data Centre
#                                CCDC 
#
#######################################################################
#
# If this CIF has been generated from an entry in the Cambridge 
# Structural Database, then it will include bibliographic, chemical, 
# crystal, experimental, refinement or atomic coordinate data resulting 
# from the CCDC's data processing and validation procedures.
#
#######################################################################

data_GUDSAB
_chemical_formula_moiety         'C15 H13 F1 O2 S1'
_chemical_name_systematic        
1-Fluoro-4-(2-((4-methylphenyl)sulfonyl)vinyl)benzene
_symmetry_cell_setting           orthorhombic
_symmetry_space_group_name_H-M   'P 21 21 21'
_symmetry_Int_Tables_number      19
_space_group_name_Hall           'P 2ac 2ab'
loop_
_symmetry_equiv_pos_site_id
_symmetry_equiv_pos_as_xyz
1 x,y,z
2 1/2-x,-y,1/2+z
3 -x,1/2+y,1/2-z
4 1/2+x,1/2-y,-z
_cell_length_a                   5.9536(18)
_cell_length_b                   7.269(2)
_cell_length_c                   31.978(11)
_cell_angle_alpha                90
_cell_angle_beta                 90
_cell_angle_gamma                90
_cell_volume                     1383.9
_exptl_crystal_colour            colorless
_exptl_crystal_description       block
_cell_formula_units_Z            4
loop_
_atom_site_label
_atom_site_type_symbol
_atom_site_fract_x
_atom_site_fract_y
_atom_site_fract_z
S1 S 0.9187(2) 1.1139(2) 0.14608(4)
F1 F 0.1505(8) 0.3912(6) 0.01350(14)
O1 O 1.1571(6) 1.0803(6) 0.14336(13)
O2 O 0.8329(7) 1.2834(6) 0.13001(12)
C1 C 0.6575(11) 1.0980(8) 0.32952(17)
H1 H 0.6837 1.2191 0.3404
H2 H 0.7482 1.0108 0.3445
H3 H 0.5018 1.0668 0.3328
C2 C 0.7186(9) 1.0934(7) 0.28359(16)
C3 C 0.5713(9) 1.1572(6) 0.25355(18)
H4 H 0.4314 1.2008 0.2618
C4 C 0.6260(8) 1.1582(7) 0.21133(17)
H5 H 0.5227 1.1994 0.1916
C5 C 0.8371(8) 1.0969(7) 0.19877(14)
C6 C 0.9855(8) 1.0292(7) 0.22819(18)
H6 H 1.1248 0.9841 0.2199
C7 C 0.9256(10) 1.0289(6) 0.27015(17)
H7 H 1.0271 0.9842 0.2898
C8 C 0.7979(12) 0.9235(10) 0.1204(2)
H8 H 0.8638 0.8090 0.1247
C9 C 0.6370(11) 0.9299(10) 0.09774(17)
H9 H 0.5762 1.0467 0.0941
C10 C 0.5190(10) 0.7791(9) 0.07446(16)
C11 C 0.3159(10) 0.8233(8) 0.05666(16)
H10 H 0.2621 0.9432 0.0584
C12 C 0.1912(10) 0.6909(10) 0.03621(18)
H11 H 0.0530 0.7200 0.0244
C13 C 0.2740(13) 0.5183(11) 0.0337(2)
C14 C 0.4769(13) 0.4677(10) 0.0503(2)
H12 H 0.5303 0.3481 0.0476
C15 C 0.5991(10) 0.5997(10) 0.07101(15)
H13 H 0.7367 0.5689 0.0829
loop_
_geom_bond_atom_site_label_1
_geom_bond_atom_site_label_2
_geom_bond_site_symmetry_1
_geom_bond_site_symmetry_2
S1 O1 1_555 1_555
F1 C13 1_555 1_555
O2 S1 1_555 1_555
C1 H1 1_555 1_555
H2 C1 1_555 1_555
H3 C1 1_555 1_555
C2 C1 1_555 1_555
C3 C2 1_555 1_555
H4 C3 1_555 1_555
C4 C3 1_555 1_555
H5 C4 1_555 1_555
C5 S1 1_555 1_555
C6 C5 1_555 1_555
H6 C6 1_555 1_555
C7 C2 1_555 1_555
H7 C7 1_555 1_555
C8 S1 1_555 1_555
H8 C8 1_555 1_555
C9 C8 1_555 1_555
H9 C9 1_555 1_555
C10 C9 1_555 1_555
C11 C10 1_555 1_555
H10 C11 1_555 1_555
C12 C11 1_555 1_555
H11 C12 1_555 1_555
C13 C12 1_555 1_555
C14 C13 1_555 1_555
H12 C14 1_555 1_555
C15 C10 1_555 1_555
H13 C15 1_555 1_555
C4 C5 1_555 1_555
C6 C7 1_555 1_555
C14 C15 1_555 1_555

#END
