
#######################################################################
#
#                 Cambridge Crystallographic Data Centre
#                                CCDC 
#
#######################################################################
#
# If this CIF has been generated from an entry in the Cambridge 
# Structural Database, then it will include bibliographic, chemical, 
# crystal, experimental, refinement or atomic coordinate data resulting 
# from the CCDC's data processing and validation procedures.
#
#######################################################################

data_GUFHIA
_chemical_name_common            'Melamine toluene solvate'
_chemical_formula_moiety         'C3 H6 N6,0.5(C7 H8)'
_chemical_name_systematic        '1,3,5-triazine-2,4,6-triamine toluene'
_symmetry_cell_setting           tetragonal
_symmetry_space_group_name_H-M   'I 41'
_symmetry_Int_Tables_number      80
_space_group_name_Hall           'I 4bw'
loop_
_symmetry_equiv_pos_site_id
_symmetry_equiv_pos_as_xyz
1 x,y,z
2 1/2-x,1/2-y,1/2+z
3 -y,1/2+x,1/4+z
4 1/2+y,-x,3/4+z
5 1/2+x,1/2+y,1/2+z
6 -x,-y,z
7 1/2-y,x,3/4+z
8 y,1/2-x,1/4+z
_cell_length_a                   12.2365(8)
_cell_length_b                   12.2365(8)
_cell_length_c                   24.574(3)
_cell_angle_alpha                90
_cell_angle_beta                 90
_cell_angle_gamma                90
_cell_volume                     3679.51
_exptl_crystal_colour            colorless
_exptl_crystal_description       platelet
_cell_formula_units_Z            16
loop_
_atom_site_label
_atom_site_type_symbol
_atom_site_fract_x
_atom_site_fract_y
_atom_site_fract_z
N1 N 0.244(2) 0.142(2) 0.0126(10)
N2 N 0.440(2) 0.138(2) 0.0164(12)
N3 N 0.3453(19) 0.1392(17) -0.0721(9)
N4 N 0.334(2) 0.1414(18) 0.0964(10)
C1 C 0.433(2) 0.139(2) -0.0368(11)
N5 N 0.155(2) 0.135(2) -0.0695(11)
C2 C 0.335(3) 0.142(2) 0.0411(12)
N6 N 0.531(2) 0.138(3) -0.0614(11)
C3 C 0.249(3) 0.139(2) -0.0394(12)
H1 H 0.27104 0.14044 0.11463
H2 H 0.39614 0.13787 0.11134
H3 H 0.15115 0.135(3) -0.10660
H4 H 0.08260 0.135(3) -0.05682
H5 H 0.54465 0.138(3) -0.09756
H6 H 0.59835 0.138(3) -0.04557
C4 C 0.362(2) -0.161(2) -0.2848(12)
N7 N 0.3557(17) -0.2563(17) -0.2596(8)
N8 N 0.3646(16) -0.0622(16) -0.2627(9)
N9 N 0.3512(19) -0.158(2) -0.3389(10)
N10 N 0.3571(15) -0.1600(18) -0.1790(9)
C5 C 0.359(2) -0.064(2) -0.2069(12)
C6 C 0.358(2) -0.250(3) -0.2042(11)
N11 N 0.3539(19) -0.3458(19) -0.1772(11)
N12 N 0.3545(18) 0.0328(17) -0.1776(9)
H7 H 0.40447 -0.16470 -0.36432
H8 H 0.28896 -0.14881 -0.35641
H9 H 0.3539(19) -0.4108(19) -0.1942(11)
H10 H 0.3539(19) -0.3458(19) -0.14126
H11 H 0.29421 0.06626 -0.16801
H12 H 0.41119 0.07080 -0.16575
C7 C 0.8719(19) 0.1240(19) 0.5145(10)
C8 C 0.9892(2) 0.1240(19) 0.5165(10)
C9 C 1.0590(19) 0.1246(19) 0.4709(10)
C10 C 1.1719(18) 0.1248(19) 0.4710(10)
C11 C 1.2419(18) 0.1248(19) 0.5160(10)
C12 C 1.1721(18) 0.1242(18) 0.5616(10)
C13 C 1.0592(19) 0.1240(19) 0.5615(10)
H13 H 0.84009 0.03919 0.52531
H14 H 0.84377 0.14680 0.47179
H15 H 0.83874 0.18613 0.54493
H16 H 1.02110 0.12504 0.44016
H17 H 1.20863 0.12504 0.44016
H18 H 1.33427 0.12529 0.50977
H19 H 1.20806 0.12385 0.60441
H20 H 1.02394 0.12386 0.60448
loop_
_geom_bond_atom_site_label_1
_geom_bond_atom_site_label_2
_geom_bond_site_symmetry_1
_geom_bond_site_symmetry_2
N1 C2 1_555 1_555
N2 C1 1_555 1_555
N3 C1 1_555 1_555
N4 C2 1_555 1_555
C1 N6 1_555 1_555
N5 C3 1_555 1_555
C2 N2 1_555 1_555
N6 H5 1_555 1_555
C3 N1 1_555 1_555
H1 N4 1_555 1_555
H2 N4 1_555 1_555
H3 N5 1_555 1_555
H4 N5 1_555 1_555
H6 N6 1_555 1_555
C4 N7 1_555 1_555
N7 C6 1_555 1_555
N8 C4 1_555 1_555
N9 C4 1_555 1_555
N10 C5 1_555 1_555
C5 N8 1_555 1_555
C6 N10 1_555 1_555
N11 C6 1_555 1_555
N12 C5 1_555 1_555
H7 N9 1_555 1_555
H8 N9 1_555 1_555
H9 N11 1_555 1_555
H10 N11 1_555 1_555
H11 N12 1_555 1_555
H12 N12 1_555 1_555
C7 C8 1_555 1_555
C8 C9 1_555 1_555
C9 C10 1_555 1_555
C10 C11 1_555 1_555
C11 C12 1_555 1_555
C12 C13 1_555 1_555
C13 C8 1_555 1_555
H13 C7 1_555 1_555
H14 C7 1_555 1_555
H15 C7 1_555 1_555
H16 C9 1_555 1_555
H17 C10 1_555 1_555
H18 C11 1_555 1_555
H19 C12 1_555 1_555
H20 C13 1_555 1_555
N3 C3 1_555 1_555

#END
