
#######################################################################
#
#                 Cambridge Crystallographic Data Centre
#                                CCDC 
#
#######################################################################
#
# If this CIF has been generated from an entry in the Cambridge 
# Structural Database, then it will include bibliographic, chemical, 
# crystal, experimental, refinement or atomic coordinate data resulting 
# from the CCDC's data processing and validation procedures.
#
#######################################################################

data_GUFHEW
_chemical_name_common            
'Melamine N,N-dimethylformamide unknown solvate'
_chemical_formula_moiety         'C3 H6 N6,C3 H7 N1 O1'
_chemical_name_systematic        
'1,3,5-triazine-2,4,6-triamine N,N-dimethylformamide unknown solvate'
_symmetry_cell_setting           tetragonal
_symmetry_space_group_name_H-M   'I 41/a'
_symmetry_Int_Tables_number      88
_space_group_name_Hall           '-I 4ad'
loop_
_symmetry_equiv_pos_site_id
_symmetry_equiv_pos_as_xyz
1 x,y,z
2 3/4-y,1/4+x,1/4+z
3 1/2-x,-y,1/2+z
4 3/4+y,3/4-x,3/4+z
5 1/2+x,1/2+y,1/2+z
6 1/4-y,3/4+x,3/4+z
7 -x,1/2-y,z
8 1/4+y,1/4-x,1/4+z
9 -x,-y,-z
10 1/4+y,3/4-x,3/4-z
11 1/2+x,y,1/2-z
12 1/4-y,1/4+x,1/4-z
13 1/2-x,1/2-y,1/2-z
14 3/4+y,1/4-x,1/4-z
15 x,1/2+y,-z
16 3/4-y,3/4+x,3/4-z
_cell_length_a                   12.150(2)
_cell_length_b                   12.150(2)
_cell_length_c                   24.405(2)
_cell_angle_alpha                90
_cell_angle_beta                 90
_cell_angle_gamma                90
_cell_volume                     3602.73
_exptl_crystal_colour            colorless
_exptl_crystal_description       platelet
_cell_formula_units_Z            16
loop_
_atom_site_label
_atom_site_type_symbol
_atom_site_fract_x
_atom_site_fract_y
_atom_site_fract_z
N1 N 0.24086(15) 0.60929(16) 0.26190(9)
N2 N 0.34293(15) 0.61013(16) 0.17738(9)
N3 N 0.43708(16) 0.61278(17) 0.26383(9)
N4 N 0.15363(17) 0.6107(2) 0.17886(11)
N5 N 0.53036(17) 0.6074(2) 0.18192(11)
N6 N 0.33601(19) 0.6063(2) 0.34276(10)
C1 C 0.24821(18) 0.61110(18) 0.20685(11)
C2 C 0.43409(18) 0.61154(19) 0.20887(10)
C3 C 0.33839(19) 0.61086(19) 0.28792(10)
H1 H 0.275(3) 0.605(2) 0.3644(12)
H2 H 0.588(3) 0.612(2) 0.1997(12)
H3 H 0.542(2) 0.611(2) 0.1444(13)
H4 H 0.161(2) 0.628(2) 0.1426(12)
H5 H 0.085(2) 0.611(2) 0.1968(12)
H6 H 0.383(3) 0.616(2) 0.3656(12)
N7 N 0.37404(19) 0.4892(2) 0.51154(10)
C4 C 0.36665(19) 0.52900(19) 0.47097(10)
C5 C 0.37404(19) 0.37190(19) 0.50454(10)
C6 C 0.37404(19) 0.55420(19) 0.56154(10)
O1 O 0.35685(19) 0.63196(18) 0.46503(10)
H7 H 0.36999(17) 0.4971(28) 0.42613(10)
H8 H 0.28850 0.33796 0.51364
H9 H 0.43632 0.33273 0.53353
H10 H 0.39730 0.35198 0.46039
H11 H 0.42821 0.63081 0.56151
H12 H 0.40752 0.49227 0.59242
H13 H 0.28639 0.57789 0.57332
loop_
_geom_bond_atom_site_label_1
_geom_bond_atom_site_label_2
_geom_bond_site_symmetry_1
_geom_bond_site_symmetry_2
N1 C1 1_555 1_555
N2 C1 1_555 1_555
N3 C2 1_555 1_555
N4 C1 1_555 1_555
N5 C2 1_555 1_555
N6 C3 1_555 1_555
C2 N2 1_555 1_555
C3 N1 1_555 1_555
H1 N6 1_555 1_555
H2 N5 1_555 1_555
H3 N5 1_555 1_555
H4 N4 1_555 1_555
H5 N4 1_555 1_555
H6 N6 1_555 1_555
N7 C4 1_555 1_555
C4 O1 1_555 1_555
C5 N7 1_555 1_555
C6 N7 1_555 1_555
H7 C4 1_555 1_555
H8 C5 1_555 1_555
H9 C5 1_555 1_555
H10 C5 1_555 1_555
H11 C6 1_555 1_555
H12 C6 1_555 1_555
H13 C6 1_555 1_555
N3 C3 1_555 1_555

#END
