
#######################################################################
#
#                 Cambridge Crystallographic Data Centre
#                                CCDC 
#
#######################################################################
#
# If this CIF has been generated from an entry in the Cambridge 
# Structural Database, then it will include bibliographic, chemical, 
# crystal, experimental, refinement or atomic coordinate data resulting 
# from the CCDC's data processing and validation procedures.
#
#######################################################################

data_GUGCAN
_chemical_formula_moiety         'C17 H17 I1 O3'
_chemical_name_systematic        
5-Iodo-2,2-dimethyl-10-propyl-2H,8H-pyrano[2,3-f]chromen-8-one
_symmetry_cell_setting           monoclinic
_symmetry_space_group_name_H-M   'P 21/n'
_symmetry_Int_Tables_number      14
_space_group_name_Hall           '-P 2yn'
loop_
_symmetry_equiv_pos_site_id
_symmetry_equiv_pos_as_xyz
1 x,y,z
2 1/2-x,1/2+y,1/2-z
3 -x,-y,-z
4 1/2+x,1/2-y,1/2+z
_cell_length_a                   10.5578(2)
_cell_length_b                   8.0401(2)
_cell_length_c                   18.6439(3)
_cell_angle_alpha                90
_cell_angle_beta                 96.3720(10)
_cell_angle_gamma                90
_cell_volume                     1572.82
_exptl_crystal_colour            colorless
_exptl_crystal_description       block
_chemical_melting_point          '174-175 deg.C'
_cell_formula_units_Z            4
_exptl_crystal_recrystallization_method 'ethyl acetate/ethanol'
loop_
_atom_site_label
_atom_site_type_symbol
_atom_site_fract_x
_atom_site_fract_y
_atom_site_fract_z
I1 I 0.922462(19) 0.33370(3) 0.571920(13)
O1 O 0.4251(2) 0.3678(3) 0.58828(12)
O2 O 0.2282(2) 0.3886(4) 0.61529(15)
O3 O 0.5437(2) 0.0857(3) 0.37941(11)
C1 C 0.7322(3) 0.2892(4) 0.52958(17)
C2 C 0.6377(3) 0.3449(4) 0.56905(17)
H1 H 0.6581 0.4045 0.6115
C3 C 0.5129(3) 0.3107(4) 0.54449(16)
C4 C 0.2973(3) 0.3399(4) 0.57206(19)
C5 C 0.2584(3) 0.2561(4) 0.50542(19)
H2 H 0.1718 0.2384 0.4929
C6 C 0.3395(3) 0.2017(4) 0.45991(18)
C7 C 0.2866(4) 0.1212(6) 0.3899(2)
C8 C 0.2514(8) 0.2242(10) 0.3344(4)
C9 C 0.1865(14) 0.1340(17) 0.2657(6)
C10 C 0.4750(3) 0.2265(4) 0.47997(15)
C11 C 0.5753(3) 0.1757(3) 0.44059(16)
C12 C 0.6274(3) 0.0962(4) 0.32176(17)
C13 C 0.5865(4) -0.0487(5) 0.27280(18)
H3 H 0.6058 -0.1512 0.2981
H4 H 0.6313 -0.0447 0.2308
H5 H 0.4965 -0.0421 0.2585
C14 C 0.6037(4) 0.2619(5) 0.2827(2)
H6 H 0.5156 0.2697 0.2638
H7 H 0.6559 0.2687 0.2438
H8 H 0.6248 0.3515 0.3159
C15 C 0.7629(3) 0.0823(5) 0.3543(2)
H9 H 0.8235 0.0359 0.3276
C16 C 0.7971(3) 0.1355(5) 0.4207(2)
H10 H 0.8822 0.1292 0.4396
C17 C 0.7041(3) 0.2038(4) 0.46459(17)
C18? C 0.1524(7) 0.1524(9) 0.3603(5)
C19? C 0.1224(10) 0.0883(15) 0.2816(6)
loop_
_geom_bond_atom_site_label_1
_geom_bond_atom_site_label_2
_geom_bond_site_symmetry_1
_geom_bond_site_symmetry_2
I1 C1 1_555 1_555
O1 C3 1_555 1_555
O2 C4 1_555 1_555
O3 C11 1_555 1_555
C1 C2 1_555 1_555
C2 H1 1_555 1_555
C3 C2 1_555 1_555
C4 O1 1_555 1_555
C5 C4 1_555 1_555
H2 C5 1_555 1_555
C6 C5 1_555 1_555
C7 C6 1_555 1_555
C8 C7 1_555 1_555
C9 C8 1_555 1_555
C10 C3 1_555 1_555
C11 C10 1_555 1_555
C12 O3 1_555 1_555
C13 C12 1_555 1_555
H3 C13 1_555 1_555
H4 C13 1_555 1_555
H5 C13 1_555 1_555
C14 C12 1_555 1_555
H6 C14 1_555 1_555
H7 C14 1_555 1_555
H8 C14 1_555 1_555
C15 C12 1_555 1_555
H9 C15 1_555 1_555
C16 C15 1_555 1_555
H10 C16 1_555 1_555
C17 C1 1_555 1_555
C6 C10 1_555 1_555
C11 C17 1_555 1_555
C16 C17 1_555 1_555

#END
