
#######################################################################
#
#                 Cambridge Crystallographic Data Centre
#                                CCDC 
#
#######################################################################
#
# If this CIF has been generated from an entry in the Cambridge 
# Structural Database, then it will include bibliographic, chemical, 
# crystal, experimental, refinement or atomic coordinate data resulting 
# from the CCDC's data processing and validation procedures.
#
#######################################################################

data_GUGFIZ
_chemical_formula_moiety         'C18 H19 N1 O5'
_chemical_name_systematic        
2-(2-(dimethylamino)ethyl)-4-hydroxy-3,4-dihydro-6H-[1,3]benzodioxolo[5,6-c]chromen-6-one
_symmetry_cell_setting           orthorhombic
_symmetry_space_group_name_H-M   'P 21 21 21'
_symmetry_Int_Tables_number      19
_space_group_name_Hall           'P 2ac 2ab'
loop_
_symmetry_equiv_pos_site_id
_symmetry_equiv_pos_as_xyz
1 x,y,z
2 1/2+x,1/2-y,-z
3 -x,1/2+y,1/2-z
4 1/2-x,-y,1/2+z
_cell_length_a                   7.9212(7)
_cell_length_b                   8.8428(8)
_cell_length_c                   22.4138(19)
_cell_angle_alpha                90
_cell_angle_beta                 90
_cell_angle_gamma                90
_cell_volume                     1569.99
_exptl_crystal_colour            'pale yellow'
_exptl_crystal_description       plate
_cell_formula_units_Z            4
loop_
_atom_site_label
_atom_site_type_symbol
_atom_site_fract_x
_atom_site_fract_y
_atom_site_fract_z
O1 O 0.4706(5) 0.3304(5) 0.32447(16)
O2 O 0.5949(4) 0.3922(4) 0.44612(15)
O3 O 0.7707(5) 0.5271(5) 0.49969(16)
O4 O 0.3676(5) 0.8264(5) 0.64049(18)
O5 O 0.0963(5) 0.7518(5) 0.61555(17)
N1 N -0.2372(6) 0.2282(6) 0.27369(19)
C1 C -0.0760(7) 0.2675(8) 0.3024(2)
C2 C -0.0564(7) 0.2109(7) 0.3660(2)
C3 C 0.1121(6) 0.2545(7) 0.3917(2)
C4 C 0.2639(7) 0.1660(7) 0.3720(2)
C5 C 0.4328(7) 0.2456(7) 0.3777(2)
C6 C 0.4314(7) 0.3507(8) 0.4299(2)
C7 C 0.6234(7) 0.4975(7) 0.4898(2)
C8 C 0.4785(7) 0.5605(7) 0.5201(2)
C9 C 0.5090(7) 0.6673(7) 0.5659(2)
C10 C 0.3715(7) 0.7229(7) 0.5953(2)
C11 C 0.1933(8) 0.8387(9) 0.6575(3)
C12 C 0.2105(7) 0.6770(7) 0.5802(2)
C13 C 0.1754(7) 0.5760(7) 0.5361(2)
C14 C 0.3143(7) 0.5158(7) 0.5044(2)
C15 C 0.2943(7) 0.4066(7) 0.4561(2)
C16 C 0.1281(7) 0.3633(7) 0.4322(2)
C17 C -0.2517(8) 0.3098(11) 0.2166(3)
C18 C -0.2495(10) 0.0667(9) 0.2634(3)
H1 H 0.5629 0.2958 0.3123
H2 H -0.0672 0.3776 0.3034
H3 H 0.0169 0.2274 0.2782
H4 H -0.1471 0.2538 0.3897
H5 H -0.0677 0.1008 0.3660
H6 H 0.2674 0.0735 0.3957
H7 H 0.2507 0.1377 0.3301
H8 H 0.5251 0.1711 0.3830
H9 H 0.6190 0.6986 0.5750
H10 H 0.1770 0.7979 0.6977
H11 H 0.1582 0.9445 0.6563
H12 H 0.0646 0.5470 0.5262
H13 H 0.0329 0.4133 0.4458
H14 H -0.3577 0.2846 0.1982
H15 H -0.2458 0.4162 0.2236
H16 H -0.1609 0.2785 0.1913
H17 H -0.3509 0.0463 0.2416
H18 H -0.2542 0.0142 0.3007
H19 H -0.1544 0.0330 0.2405
loop_
_geom_bond_atom_site_label_1
_geom_bond_atom_site_label_2
_geom_bond_site_symmetry_1
_geom_bond_site_symmetry_2
O1 C5 1_555 1_555
O2 C6 1_555 1_555
O3 C7 1_555 1_555
O4 C10 1_555 1_555
O5 C11 1_555 1_555
N1 C1 1_555 1_555
C1 C2 1_555 1_555
C2 C3 1_555 1_555
C3 C4 1_555 1_555
C4 C5 1_555 1_555
C5 C6 1_555 1_555
C6 C15 1_555 1_555
C7 O2 1_555 1_555
C8 C7 1_555 1_555
C9 C8 1_555 1_555
C10 C9 1_555 1_555
C11 O4 1_555 1_555
C12 O5 1_555 1_555
C13 C12 1_555 1_555
C14 C8 1_555 1_555
C15 C14 1_555 1_555
C16 C3 1_555 1_555
C17 N1 1_555 1_555
C18 N1 1_555 1_555
H1 O1 1_555 1_555
H2 C1 1_555 1_555
H3 C1 1_555 1_555
H4 C2 1_555 1_555
H5 C2 1_555 1_555
H6 C4 1_555 1_555
H7 C4 1_555 1_555
H8 C5 1_555 1_555
H9 C9 1_555 1_555
H10 C11 1_555 1_555
H11 C11 1_555 1_555
H12 C13 1_555 1_555
H13 C16 1_555 1_555
H14 C17 1_555 1_555
H15 C17 1_555 1_555
H16 C17 1_555 1_555
H17 C18 1_555 1_555
H18 C18 1_555 1_555
H19 C18 1_555 1_555
C10 C12 1_555 1_555
C13 C14 1_555 1_555
C15 C16 1_555 1_555

#END
