
#######################################################################
#
#                 Cambridge Crystallographic Data Centre
#                                CCDC 
#
#######################################################################
#
# If this CIF has been generated from an entry in the Cambridge 
# Structural Database, then it will include bibliographic, chemical, 
# crystal, experimental, refinement or atomic coordinate data resulting 
# from the CCDC's data processing and validation procedures.
#
#######################################################################

data_GUGGAR
_chemical_name_common            
trans-1,1-Difluoro-9b-hydroxy-2-methyl-2,3-dihydro-1H-pyrrolo[2,1-a]isoindol-5(9bH)-one
_chemical_formula_moiety         'C12 H11 F2 N1 O2'
_chemical_name_systematic        
trans-1,1-Difluoro-9b-hydroxy-2-methyl-1,2,3,9b-tetrahydro-5H-pyrrolo[2,1-a]isoindol-5-one
_symmetry_cell_setting           orthorhombic
_symmetry_space_group_name_H-M   'P b c a'
_symmetry_Int_Tables_number      61
_space_group_name_Hall           '-P 2ac 2ab'
loop_
_symmetry_equiv_pos_site_id
_symmetry_equiv_pos_as_xyz
1 x,y,z
2 1/2-x,-y,1/2+z
3 1/2+x,1/2-y,-z
4 -x,1/2+y,1/2-z
5 -x,-y,-z
6 1/2+x,y,1/2-z
7 1/2-x,1/2+y,z
8 x,1/2-y,1/2+z
_cell_length_a                   10.2395(3)
_cell_length_b                   8.8488(2)
_cell_length_c                   25.3299(7)
_cell_angle_alpha                90
_cell_angle_beta                 90
_cell_angle_gamma                90
_cell_volume                     2295.07
_exptl_crystal_colour            colorless
_exptl_crystal_description       needle
_chemical_melting_point          '122-125 deg.C'
_cell_formula_units_Z            8
loop_
_atom_site_label
_atom_site_type_symbol
_atom_site_fract_x
_atom_site_fract_y
_atom_site_fract_z
F1 F 0.48185(11) 0.56075(11) 0.10141(4)
N1 N 0.62631(12) 0.72434(15) 0.17835(5)
C1 C 0.74922(16) 0.69724(18) 0.16006(6)
F2 F 0.32506(10) 0.72270(13) 0.11115(4)
C2 C 0.43621(17) 0.6725(2) 0.13398(6)
O1 O 0.47927(11) 0.92454(12) 0.15635(5)
C3 C 0.54248(16) 0.79418(18) 0.13846(6)
O2 O 0.83213(12) 0.62401(16) 0.18380(5)
C4 C 0.55469(17) 0.6200(2) 0.21294(6)
C5 C 0.41698(16) 0.6133(2) 0.18966(6)
C6 C 0.75807(16) 0.76739(18) 0.10709(6)
C7 C 0.86378(19) 0.7806(2) 0.07330(7)
C8 C 0.63543(16) 0.81936(18) 0.09327(6)
C9 C 0.8421(2) 0.8485(2) 0.02482(8)
C10 C 0.6146(2) 0.8874(2) 0.04492(7)
C11 C 0.7199(3) 0.9003(3) 0.01116(8)
C12 C 0.3520(2) 0.4601(2) 0.19318(9)
H1 H 0.5326 1.0004 0.1603
H2 H 0.5957 0.5225 0.2121
H3 H 0.5551 0.6580 0.2484
H4 H 0.3613 0.6803 0.2092
H5 H 0.9474 0.7434 0.0845
H6 H 0.9122 0.8585 -0.0001
H7 H 0.5295 0.9246 0.0356
H8 H 0.7062 0.9475 -0.0225
H9 H 0.3433 0.4306 0.2295
H10 H 0.4044 0.3871 0.1748
H11 H 0.2672 0.4654 0.1772
loop_
_geom_bond_atom_site_label_1
_geom_bond_atom_site_label_2
_geom_bond_site_symmetry_1
_geom_bond_site_symmetry_2
F1 C2 1_555 1_555
N1 C1 1_555 1_555
C1 O2 1_555 1_555
F2 C2 1_555 1_555
C2 C3 1_555 1_555
O1 C3 1_555 1_555
C3 N1 1_555 1_555
C4 N1 1_555 1_555
C5 C2 1_555 1_555
C6 C1 1_555 1_555
C7 C6 1_555 1_555
C8 C3 1_555 1_555
C9 C7 1_555 1_555
C10 C8 1_555 1_555
C11 C9 1_555 1_555
C12 C5 1_555 1_555
H1 O1 1_555 1_555
H2 C4 1_555 1_555
H3 C4 1_555 1_555
H4 C5 1_555 1_555
H5 C7 1_555 1_555
H6 C9 1_555 1_555
H7 C10 1_555 1_555
H8 C11 1_555 1_555
H9 C12 1_555 1_555
H10 C12 1_555 1_555
H11 C12 1_555 1_555
C4 C5 1_555 1_555
C6 C8 1_555 1_555
C10 C11 1_555 1_555

#END
