
#######################################################################
#
#                 Cambridge Crystallographic Data Centre
#                                CCDC 
#
#######################################################################
#
# If this CIF has been generated from an entry in the Cambridge 
# Structural Database, then it will include bibliographic, chemical, 
# crystal, experimental, refinement or atomic coordinate data resulting 
# from the CCDC's data processing and validation procedures.
#
#######################################################################

data_GUGHIA
_chemical_formula_moiety         'C11 H16 O7'
_chemical_name_systematic        
'8-Hydroxy-2,2-dimethyl-10-oxo-1,3,6-trioxaspiro[4.5]dec-9-yl acetate'
_symmetry_cell_setting           orthorhombic
_symmetry_space_group_name_H-M   'P 21 21 21'
_symmetry_Int_Tables_number      19
_space_group_name_Hall           'P 2ac 2ab'
loop_
_symmetry_equiv_pos_site_id
_symmetry_equiv_pos_as_xyz
1 x,y,z
2 1/2-x,-y,1/2+z
3 -x,1/2+y,1/2-z
4 1/2+x,1/2-y,-z
_cell_length_a                   8.3781(11)
_cell_length_b                   8.9255(12)
_cell_length_c                   16.616(2)
_cell_angle_alpha                90
_cell_angle_beta                 90
_cell_angle_gamma                90
_cell_volume                     1242.52
_exptl_crystal_description       rod
_cell_formula_units_Z            4
loop_
_atom_site_label
_atom_site_type_symbol
_atom_site_fract_x
_atom_site_fract_y
_atom_site_fract_z
O1 O 1.6671(3) 0.0113(5) 0.8917(2)
O2 O 1.4302(2) -0.0269(2) 0.83197(12)
O3 O 1.3016(3) 0.2707(2) 0.92258(15)
O4 O 0.9959(2) 0.2065(2) 0.89081(11)
O5 O 1.0389(3) 0.0074(3) 1.01622(13)
H1 H 0.9662 0.0688 1.0181
O6 O 1.3399(3) -0.0975(2) 0.96064(14)
O7 O 0.9979(3) 0.2514(3) 0.75904(14)
C1 C 1.5599(4) 0.0654(4) 0.9443(2)
H2 H 1.5674 0.1737 0.9476
H3 H 1.5773 0.0235 0.9974
C2 C 1.3989(4) 0.0189(3) 0.91194(17)
C3 C 1.2725(4) 0.1429(4) 0.90675(17)
C4 C 1.1089(4) 0.0882(3) 0.88268(17)
H4 H 1.1116 0.0549 0.8265
C5 C 1.0597(4) -0.0415(4) 0.9357(2)
H5 H 0.9600 -0.0850 0.9157
C6 C 1.1897(4) -0.1585(4) 0.9347(2)
H6 H 1.1600 -0.2406 0.9699
H7 H 1.2009 -0.1980 0.8806
C7 C 1.5994(4) -0.0607(4) 0.8258(2)
C8 C 1.6617(6) 0.0079(5) 0.7506(3)
H8 H 1.6394 0.1134 0.7508
H9 H 1.6110 -0.0378 0.7050
H10 H 1.7749 -0.0076 0.7474
C9 C 1.6288(5) -0.2235(4) 0.8305(3)
H11 H 1.5863 -0.2617 0.8800
H12 H 1.7415 -0.2422 0.8284
H13 H 1.5776 -0.2724 0.7860
C10 C 0.9495(3) 0.2818(3) 0.8243(2)
C11 C 0.8372(5) 0.4048(4) 0.8439(2)
H14 H 0.8069 0.4556 0.7953
H15 H 0.8880 0.4743 0.8797
H16 H 0.7439 0.3641 0.8693
loop_
_geom_bond_atom_site_label_1
_geom_bond_atom_site_label_2
_geom_bond_site_symmetry_1
_geom_bond_site_symmetry_2
O1 C1 1_555 1_555
O2 C2 1_555 1_555
O3 C3 1_555 1_555
O4 C4 1_555 1_555
O5 H1 1_555 1_555
O6 C2 1_555 1_555
O7 C10 1_555 1_555
C1 H2 1_555 1_555
H3 C1 1_555 1_555
C2 C1 1_555 1_555
C3 C2 1_555 1_555
C4 C3 1_555 1_555
H4 C4 1_555 1_555
C5 O5 1_555 1_555
H5 C5 1_555 1_555
C6 O6 1_555 1_555
H6 C6 1_555 1_555
H7 C6 1_555 1_555
C7 O1 1_555 1_555
C8 C7 1_555 1_555
H8 C8 1_555 1_555
H9 C8 1_555 1_555
H10 C8 1_555 1_555
C9 C7 1_555 1_555
H11 C9 1_555 1_555
H12 C9 1_555 1_555
H13 C9 1_555 1_555
C10 O4 1_555 1_555
C11 C10 1_555 1_555
H14 C11 1_555 1_555
H15 C11 1_555 1_555
H16 C11 1_555 1_555
O2 C7 1_555 1_555
C4 C5 1_555 1_555
C5 C6 1_555 1_555

#END
