
#######################################################################
#
#                 Cambridge Crystallographic Data Centre
#                                CCDC 
#
#######################################################################
#
# If this CIF has been generated from an entry in the Cambridge 
# Structural Database, then it will include bibliographic, chemical, 
# crystal, experimental, refinement or atomic coordinate data resulting 
# from the CCDC's data processing and validation procedures.
#
#######################################################################

data_GUGJAU
_chemical_formula_moiety         'C21 H16 Cl2 O2 S1'
_chemical_name_systematic        
(E)-1,8-bis(4-Chlorophenyl)-4-(methylsulfanyl)octa-1,4,7-triene-3,6-dione
_symmetry_cell_setting           monoclinic
_symmetry_space_group_name_H-M   'P 21/c'
_symmetry_Int_Tables_number      14
_space_group_name_Hall           '-P 2ybc'
loop_
_symmetry_equiv_pos_site_id
_symmetry_equiv_pos_as_xyz
1 x,y,z
2 -x,1/2+y,1/2-z
3 -x,-y,-z
4 x,1/2-y,1/2+z
_cell_length_a                   14.9253(10)
_cell_length_b                   13.5170(10)
_cell_length_c                   9.9867(7)
_cell_angle_alpha                90
_cell_angle_beta                 104.2030(10)
_cell_angle_gamma                90
_cell_volume                     1953.18
_exptl_crystal_colour            yellow
_exptl_crystal_description       block
_cell_formula_units_Z            4
loop_
_atom_site_label
_atom_site_type_symbol
_atom_site_fract_x
_atom_site_fract_y
_atom_site_fract_z
C1 C 0.48040(15) 0.58137(18) 0.2704(2)
C2 C 0.49597(17) 0.48364(19) 0.3036(3)
H1 H 0.4650 0.4525 0.3621
C3 C 0.55874(16) 0.43187(18) 0.2485(2)
H2 H 0.5703 0.3657 0.2719
C4 C 0.60450(13) 0.47624(15) 0.1598(2)
C5 C 0.58463(15) 0.57493(16) 0.1250(2)
H3 H 0.6133 0.6060 0.0635
C6 C 0.52339(16) 0.62699(17) 0.1802(3)
H4 H 0.5110 0.6930 0.1567
C7 C 0.67383(13) 0.42012(15) 0.1101(2)
H5 H 0.6869 0.3571 0.1470
C8 C 0.72026(14) 0.44798(14) 0.0191(2)
H6 H 0.7062 0.5092 -0.0234
C9 C 0.79232(14) 0.38852(13) -0.01868(19)
C10 C 0.81860(13) 0.28930(13) 0.05374(19)
C11 C 0.88068(13) 0.27908(13) 0.1736(2)
H7 H 0.8947 0.2160 0.2100
C12 C 0.92809(14) 0.36544(14) 0.2507(2)
C13 C 0.99610(15) 0.34918(14) 0.3812(2)
H8 H 1.0258 0.4053 0.4246
C14 C 1.02051(14) 0.26365(15) 0.4453(2)
H9 H 0.9901 0.2075 0.4033
C15 C 1.08999(13) 0.24852(14) 0.5747(2)
C16 C 1.12655(16) 0.15403(15) 0.6096(2)
H10 H 1.1041 0.1013 0.5511
C17 C 1.19431(16) 0.13696(15) 0.7271(2)
H11 H 1.2185 0.0738 0.7476
C18 C 1.22620(14) 0.21505(15) 0.8149(2)
C19 C 1.19081(16) 0.30916(15) 0.7870(2)
H12 H 1.2121 0.3608 0.8481
C20 C 1.12354(15) 0.32568(15) 0.6673(2)
H13 H 1.1000 0.3892 0.6475
Cl1 Cl 0.40462(5) 0.64765(6) 0.34404(9)
Cl2 Cl 1.31118(5) 0.19271(5) 0.96649(7)
O1 O 0.82791(11) 0.41205(11) -0.11054(15)
O2 O 0.91167(11) 0.44957(10) 0.20664(16)
S1 S 0.75860(4) 0.19530(4) -0.04941(5)
C21 C 0.80416(19) 0.08400(15) 0.0397(3)
H14 H 0.8699 0.0820 0.0508
H15 H 0.7763 0.0277 -0.0129
H16 H 0.7907 0.0828 0.1288
loop_
_geom_bond_atom_site_label_1
_geom_bond_atom_site_label_2
_geom_bond_site_symmetry_1
_geom_bond_site_symmetry_2
C1 C2 1_555 1_555
C2 H1 1_555 1_555
C3 C2 1_555 1_555
H2 C3 1_555 1_555
C4 C3 1_555 1_555
C5 C4 1_555 1_555
H3 C5 1_555 1_555
C6 C1 1_555 1_555
H4 C6 1_555 1_555
C7 C4 1_555 1_555
H5 C7 1_555 1_555
C8 C7 1_555 1_555
H6 C8 1_555 1_555
C9 C8 1_555 1_555
C10 C9 1_555 1_555
C11 C10 1_555 1_555
H7 C11 1_555 1_555
C12 C11 1_555 1_555
C13 C12 1_555 1_555
H8 C13 1_555 1_555
C14 C13 1_555 1_555
H9 C14 1_555 1_555
C15 C14 1_555 1_555
C16 C15 1_555 1_555
H10 C16 1_555 1_555
C17 C16 1_555 1_555
H11 C17 1_555 1_555
C18 C17 1_555 1_555
C19 C18 1_555 1_555
H12 C19 1_555 1_555
C20 C15 1_555 1_555
H13 C20 1_555 1_555
Cl1 C1 1_555 1_555
Cl2 C18 1_555 1_555
O1 C9 1_555 1_555
O2 C12 1_555 1_555
S1 C10 1_555 1_555
C21 S1 1_555 1_555
H14 C21 1_555 1_555
H15 C21 1_555 1_555
H16 C21 1_555 1_555
C5 C6 1_555 1_555
C19 C20 1_555 1_555

#END
