
#######################################################################
#
#                 Cambridge Crystallographic Data Centre
#                                CCDC 
#
#######################################################################
#
# If this CIF has been generated from an entry in the Cambridge 
# Structural Database, then it will include bibliographic, chemical, 
# crystal, experimental, refinement or atomic coordinate data resulting 
# from the CCDC's data processing and validation procedures.
#
#######################################################################

data_GUGLOL
_chemical_formula_moiety         'C11 H10 F3 N1 O1'
_chemical_name_systematic        
3-Amino-1-(3-(trifluoromethyl)phenyl)but-2-en-1-one
_symmetry_cell_setting           monoclinic
_symmetry_space_group_name_H-M   'P 21/c'
_symmetry_Int_Tables_number      14
_space_group_name_Hall           '-P 2ybc'
loop_
_symmetry_equiv_pos_site_id
_symmetry_equiv_pos_as_xyz
1 x,y,z
2 -x,1/2+y,1/2-z
3 -x,-y,-z
4 x,1/2-y,1/2+z
_cell_length_a                   12.8117(5)
_cell_length_b                   10.5100(4)
_cell_length_c                   7.7540(3)
_cell_angle_alpha                90
_cell_angle_beta                 100.323(3)
_cell_angle_gamma                90
_cell_volume                     1027.18
_exptl_crystal_colour            colorless
_exptl_crystal_description       prism
_cell_formula_units_Z            4
loop_
_atom_site_label
_atom_site_type_symbol
_atom_site_fract_x
_atom_site_fract_y
_atom_site_fract_z
O1 O 0.55937(14) -0.08330(18) 0.2139(3)
N1 N 0.53439(19) -0.3394(3) 0.2199(3)
H1 H 0.516(3) -0.269(4) 0.244(5)
H2 H 0.504(3) -0.406(4) 0.244(5)
C1 C 0.8284(2) -0.0051(2) 0.2007(3)
H3 H 0.8602 -0.0792 0.2573
C2 C 0.8912(2) 0.0981(3) 0.1711(3)
C3 C 0.8460(2) 0.2062(3) 0.0859(4)
H4 H 0.8894 0.2758 0.0655
C4 C 0.7368(2) 0.2119(3) 0.0306(4)
H5 H 0.7055 0.2852 -0.0293
C5 C 0.6734(2) 0.1111(3) 0.0627(3)
H6 H 0.5986 0.1165 0.0274
C6 C 0.7186(2) 0.0011(2) 0.1468(3)
C7 C 0.64808(19) -0.1083(2) 0.1742(3)
C8 C 0.68512(19) -0.2322(2) 0.1502(3)
H7 H 0.7528 -0.2413 0.1177
C9 C 0.6281(2) -0.3415(2) 0.1715(3)
C10 C 0.6724(2) -0.4698(3) 0.1407(4)
H8 H 0.7229 -0.4959 0.2450
H9 H 0.7087 -0.4656 0.0399
H10 H 0.6145 -0.5319 0.1172
C11 C 1.0086(2) 0.0914(3) 0.2316(4)
F1 F 1.0640 0.1715 0.1545
F2 F 1.0359 0.1103 0.4070
F3 F 1.0473 -0.0261 0.2032
F4? F 1.0413 0.1594 0.3774
F5? F 1.0468 -0.0258 0.2596
F6? F 1.0617 0.1411 0.1077
loop_
_geom_bond_atom_site_label_1
_geom_bond_atom_site_label_2
_geom_bond_site_symmetry_1
_geom_bond_site_symmetry_2
O1 C7 1_555 1_555
N1 H1 1_555 1_555
H2 N1 1_555 1_555
C1 H3 1_555 1_555
C2 C1 1_555 1_555
C3 C2 1_555 1_555
H4 C3 1_555 1_555
C4 C3 1_555 1_555
H5 C4 1_555 1_555
C5 C4 1_555 1_555
H6 C5 1_555 1_555
C6 C1 1_555 1_555
C7 C6 1_555 1_555
C8 C7 1_555 1_555
H7 C8 1_555 1_555
C9 N1 1_555 1_555
C10 C9 1_555 1_555
H8 C10 1_555 1_555
H9 C10 1_555 1_555
H10 C10 1_555 1_555
C11 C2 1_555 1_555
F1 C11 1_555 1_555
F2 C11 1_555 1_555
F3 C11 1_555 1_555
C5 C6 1_555 1_555
C8 C9 1_555 1_555

#END
