
#######################################################################
#
#                 Cambridge Crystallographic Data Centre
#                                CCDC 
#
#######################################################################
#
# If this CIF has been generated from an entry in the Cambridge 
# Structural Database, then it will include bibliographic, chemical, 
# crystal, experimental, refinement or atomic coordinate data resulting 
# from the CCDC's data processing and validation procedures.
#
#######################################################################

data_GUGLAW
_chemical_formula_moiety         'C23 H22 N2 O2'
_chemical_name_systematic        
'Ethyl 2-(3-ethyl-1H-indol-2-yl)-3-(1H-indol-3-yl)acrylate'
_chemical_properties_biological  'anticancer activity'
_symmetry_cell_setting           triclinic
_symmetry_space_group_name_H-M   'P -1'
_symmetry_Int_Tables_number      2
_space_group_name_Hall           '-P 1'
loop_
_symmetry_equiv_pos_site_id
_symmetry_equiv_pos_as_xyz
1 x,y,z
2 -x,-y,-z
_cell_length_a                   8.988(3)
_cell_length_b                   10.338(2)
_cell_length_c                   11.918(3)
_cell_angle_alpha                104.100(10)
_cell_angle_beta                 108.34(2)
_cell_angle_gamma                102.750(10)
_cell_volume                     964.835
_exptl_crystal_colour            'bright yellow'
_exptl_crystal_description       block
_chemical_melting_point          '85-87 deg.C'
_cell_formula_units_Z            2
loop_
_atom_site_label
_atom_site_type_symbol
_atom_site_fract_x
_atom_site_fract_y
_atom_site_fract_z
C1 C -0.6223(3) 0.3476(3) -0.4171(2)
H1 H -0.5867 0.4455 -0.3917
C2 C -0.7669(3) 0.2703(4) -0.5176(3)
H2 H -0.8303 0.3165 -0.5600
C3 C -0.8215(4) 0.1243(4) -0.5580(3)
H3 H -0.9203 0.0749 -0.6274
C4 C -0.7335(3) 0.0508(3) -0.4982(2)
H4 H -0.7705 -0.0472 -0.5257
C5 C -0.5871(3) 0.1289(3) -0.3952(2)
C6 C -0.5283(3) 0.2776(3) -0.3529(2)
C7 C -0.3467(3) 0.2037(3) -0.2261(2)
C8 C -0.3751(3) 0.3225(3) -0.2459(2)
C9 C -0.2642(4) 0.4712(3) -0.1740(3)
H5 H -0.1797 0.4733 -0.0984
H6 H -0.3288 0.5274 -0.1485
C10 C -0.1808(4) 0.5369(4) -0.2483(3)
H7 H -0.1114 0.6318 -0.1976
H8 H -0.2636 0.5373 -0.3223
H9 H -0.1146 0.4830 -0.2723
C11 C -0.2139(3) 0.1878(3) -0.1255(2)
C12 C -0.0530(3) 0.1936(3) -0.1372(2)
C13 C 0.1164(4) 0.2581(4) -0.2472(3)
H10 H 0.0969 0.2469 -0.3344
H11 H 0.1638 0.1871 -0.2265
C14 C 0.2352(5) 0.3993(4) -0.1666(4)
H12 H 0.3369 0.4098 -0.1793
H13 H 0.2564 0.4101 -0.0802
H14 H 0.1896 0.4698 -0.1880
C15 C -0.2269(3) 0.1744(3) -0.0197(2)
H15 H -0.1364 0.1607 0.0347
C16 C -0.3602(3) 0.1779(3) 0.0221(2)
C17 C -0.5213(3) 0.1646(3) -0.0448(3)
H16 H -0.5666 0.1477 -0.1307
C18 C -0.5000(3) 0.2056(3) 0.1527(2)
C19 C -0.3448(3) 0.2035(3) 0.1507(2)
C20 C -0.2146(3) 0.2307(3) 0.2636(2)
H17 H -0.1109 0.2297 0.2649
C21 C -0.2413(4) 0.2591(3) 0.3729(3)
H18 H -0.1543 0.2782 0.4485
C22 C -0.3966(4) 0.2600(3) 0.3728(3)
H19 H -0.4110 0.2799 0.4484
C23 C -0.5280(4) 0.2320(3) 0.2633(3)
H20 H -0.6320 0.2306 0.2628
N1 N -0.4756(2) 0.0865(2) -0.31608(19)
H21 H -0.4842 0.0005 -0.3215
N2 N -0.6046(3) 0.1794(2) 0.0313(2)
H22 H -0.7075 0.1733 0.0075
O1 O 0.0566(2) 0.1661(3) -0.0677(2)
O2 O -0.0405(2) 0.2362(2) -0.23187(17)
loop_
_geom_bond_atom_site_label_1
_geom_bond_atom_site_label_2
_geom_bond_site_symmetry_1
_geom_bond_site_symmetry_2
C1 H1 1_555 1_555
C2 C1 1_555 1_555
H2 C2 1_555 1_555
C3 C2 1_555 1_555
H3 C3 1_555 1_555
C4 C3 1_555 1_555
H4 C4 1_555 1_555
C5 C4 1_555 1_555
C6 C1 1_555 1_555
C7 C8 1_555 1_555
C8 C6 1_555 1_555
C9 C8 1_555 1_555
H5 C9 1_555 1_555
H6 C9 1_555 1_555
C10 C9 1_555 1_555
H7 C10 1_555 1_555
H8 C10 1_555 1_555
H9 C10 1_555 1_555
C11 C7 1_555 1_555
C12 C11 1_555 1_555
C13 H10 1_555 1_555
H11 C13 1_555 1_555
C14 C13 1_555 1_555
H12 C14 1_555 1_555
H13 C14 1_555 1_555
H14 C14 1_555 1_555
C15 C11 1_555 1_555
H15 C15 1_555 1_555
C16 C15 1_555 1_555
C17 C16 1_555 1_555
H16 C17 1_555 1_555
C18 C19 1_555 1_555
C19 C16 1_555 1_555
C20 C19 1_555 1_555
H17 C20 1_555 1_555
C21 C20 1_555 1_555
H18 C21 1_555 1_555
C22 C21 1_555 1_555
H19 C22 1_555 1_555
C23 C18 1_555 1_555
H20 C23 1_555 1_555
N1 C5 1_555 1_555
H21 N1 1_555 1_555
N2 C17 1_555 1_555
H22 N2 1_555 1_555
O1 C12 1_555 1_555
O2 C12 1_555 1_555
C5 C6 1_555 1_555
C7 N1 1_555 1_555
C13 O2 1_555 1_555
C18 N2 1_555 1_555
C22 C23 1_555 1_555

#END
