
#######################################################################
#
#                 Cambridge Crystallographic Data Centre
#                                CCDC 
#
#######################################################################
#
# If this CIF has been generated from an entry in the Cambridge 
# Structural Database, then it will include bibliographic, chemical, 
# crystal, experimental, refinement or atomic coordinate data resulting 
# from the CCDC's data processing and validation procedures.
#
#######################################################################

data_GUGMEC
_chemical_formula_moiety         'C8 H9 N1 O1 S1'
_chemical_name_systematic        3-Amino-1-(3-thienyl)but-2-en-1-one
_symmetry_cell_setting           tetragonal
_symmetry_space_group_name_H-M   'P 41'
_symmetry_Int_Tables_number      76
_space_group_name_Hall           'P 4w'
loop_
_symmetry_equiv_pos_site_id
_symmetry_equiv_pos_as_xyz
1 x,y,z
2 -x,-y,1/2+z
3 -y,x,1/4+z
4 y,-x,3/4+z
_cell_length_a                   8.2883(3)
_cell_length_b                   8.2883(3)
_cell_length_c                   12.6091(6)
_cell_angle_alpha                90
_cell_angle_beta                 90
_cell_angle_gamma                90
_cell_volume                     866.194
_exptl_crystal_colour            colorless
_exptl_crystal_description       platelet
_cell_formula_units_Z            4
loop_
_atom_site_label
_atom_site_type_symbol
_atom_site_fract_x
_atom_site_fract_y
_atom_site_fract_z
S1 S 0.8987(2) 0.1771(2) 0.68565(14)
C1 C 0.7807(3) 0.0937(2) 0.59504(16)
H1 H 0.7411 -0.0113 0.5930
O1 O 0.8845(3) 0.6531(3) 0.52170(18)
N1 N 0.7603(4) 0.8215(4) 0.3631(3)
H2 H 0.815(4) 0.811(5) 0.424(2)
H3 H 0.729(5) 0.908(3) 0.329(3)
C2 C 0.7512(4) 0.2336(4) 0.5132(3)
H4 H 0.6874 0.2218 0.4530
C3 C 0.8294(4) 0.3761(4) 0.5391(2)
C4 C 0.9154(5) 0.3584(4) 0.6331(3)
H5 H 0.9763 0.4407 0.6634
C5 C 0.8213(3) 0.5304(4) 0.4796(2)
C6 C 0.7419(4) 0.5370(4) 0.3811(2)
H6 H 0.7091 0.4407 0.3500
C7 C 0.7101(4) 0.6795(4) 0.3283(3)
C8 C 0.6150(6) 0.6828(5) 0.2282(3)
H7 H 0.6211 0.5793 0.1942
H8 H 0.6581 0.7638 0.1817
H9 H 0.5044 0.7074 0.2440
S2? S 0.7807(3) 0.0937(2) 0.59504(16)
C9? C 0.8987(2) 0.1771(2) 0.68565(14)
H10? H 0.9423 0.1345 0.7476
loop_
_geom_bond_atom_site_label_1
_geom_bond_atom_site_label_2
_geom_bond_site_symmetry_1
_geom_bond_site_symmetry_2
S1 C1 1_555 1_555
C1 H1 1_555 1_555
O1 C5 1_555 1_555
N1 H2 1_555 1_555
H3 N1 1_555 1_555
C2 C1 1_555 1_555
H4 C2 1_555 1_555
C3 C2 1_555 1_555
C4 S1 1_555 1_555
H5 C4 1_555 1_555
C5 C3 1_555 1_555
C6 C5 1_555 1_555
H6 C6 1_555 1_555
C7 N1 1_555 1_555
C8 C7 1_555 1_555
H7 C8 1_555 1_555
H8 C8 1_555 1_555
H9 C8 1_555 1_555
C3 C4 1_555 1_555
C6 C7 1_555 1_555

#END
