
#######################################################################
#
#                 Cambridge Crystallographic Data Centre
#                                CCDC 
#
#######################################################################
#
# If this CIF has been generated from an entry in the Cambridge 
# Structural Database, then it will include bibliographic, chemical, 
# crystal, experimental, refinement or atomic coordinate data resulting 
# from the CCDC's data processing and validation procedures.
#
#######################################################################

data_GUGMUS
_chemical_formula_moiety         'C16 H18 F3 N3'
_chemical_name_systematic        
N,N,N',N'-Tetramethyl-6-(3-(trifluoromethyl)phenyl)pyridine-2,4-diamine
_symmetry_cell_setting           triclinic
_symmetry_space_group_name_H-M   'P -1'
_symmetry_Int_Tables_number      2
_space_group_name_Hall           '-P 1'
loop_
_symmetry_equiv_pos_site_id
_symmetry_equiv_pos_as_xyz
1 x,y,z
2 -x,-y,-z
_cell_length_a                   5.4406(2)
_cell_length_b                   12.2175(7)
_cell_length_c                   12.7096(7)
_cell_angle_alpha                104.016(5)
_cell_angle_beta                 101.955(4)
_cell_angle_gamma                94.097(4)
_cell_volume                     795.275
_exptl_crystal_colour            colorless
_exptl_crystal_description       prism
_cell_formula_units_Z            2
loop_
_atom_site_label
_atom_site_type_symbol
_atom_site_fract_x
_atom_site_fract_y
_atom_site_fract_z
N1 N 0.1803(8) 0.6387(3) 0.2700(4)
N2 N -0.1603(8) 0.2652(4) 0.0329(3)
N3 N 0.2165(6) 0.2919(3) 0.1673(3)
C1 C 1.0228(7) 0.3196(4) 0.4199(3)
H1 H 1.1733 0.3632 0.4629
C2 C 0.9925(8) 0.2044(4) 0.4062(3)
H2 H 1.1212 0.1694 0.4400
C3 C 0.7706(8) 0.1417(3) 0.3424(3)
C4 C 0.5771(8) 0.1917(3) 0.2915(3)
H3 H 0.4280 0.1471 0.2481
C5 C 0.8313(7) 0.3710(3) 0.3701(3)
H4 H 0.8543 0.4493 0.3804
C6 C 0.6046(6) 0.3085(3) 0.3049(3)
C7 C 0.3963(6) 0.3630(3) 0.2505(3)
C8 C 0.3897(6) 0.4764(3) 0.2850(3)
H5 H 0.5178 0.5216 0.3427
C9 C 0.1923(7) 0.5245(3) 0.2344(3)
C10 C 0.0070(7) 0.4541(4) 0.1476(3)
H6 H -0.1254 0.4846 0.1102
C11 C 0.0207(7) 0.3384(4) 0.1170(3)
C12 C 0.3627(11) 0.7115(4) 0.3650(5)
H7 H 0.3747 0.6795 0.4275
H8 H 0.3093 0.7856 0.3833
H9 H 0.5253 0.7178 0.3471
C13 C -0.0323(11) 0.6891(5) 0.2204(5)
H10 H -0.0504 0.6713 0.1411
H11 H -0.0030 0.7702 0.2507
H12 H -0.1843 0.6593 0.2365
C14 C -0.3814(9) 0.3051(6) -0.0233(4)
H13 H -0.4795 0.3348 0.0293
H14 H -0.4824 0.2431 -0.0813
H15 H -0.3291 0.3640 -0.0552
C15 C -0.1549(15) 0.1440(5) 0.0135(6)
H16 H -0.0424 0.1203 -0.0343
H17 H -0.3222 0.1050 -0.0213
H18 H -0.0964 0.1263 0.0834
C16 C 0.7304(15) 0.0194(5) 0.3293(6)
F1 F 0.4856(19) -0.0314(6) 0.2955(9)
F2 F 0.856(2) -0.0306(6) 0.3928(8)
F3 F 0.787(2) -0.0359(6) 0.2240(7)
F4? F 0.655(2) -0.0025(6) 0.4241(9)
F5? F 0.963(2) -0.0239(7) 0.3407(10)
F6? F 0.585(3) -0.0465(7) 0.2404(10)
loop_
_geom_bond_atom_site_label_1
_geom_bond_atom_site_label_2
_geom_bond_site_symmetry_1
_geom_bond_site_symmetry_2
N1 C9 1_555 1_555
N2 C11 1_555 1_555
N3 C7 1_555 1_555
C1 H1 1_555 1_555
C2 C1 1_555 1_555
H2 C2 1_555 1_555
C3 C2 1_555 1_555
C4 C3 1_555 1_555
H3 C4 1_555 1_555
C5 C1 1_555 1_555
H4 C5 1_555 1_555
C6 C4 1_555 1_555
C7 C6 1_555 1_555
C8 C7 1_555 1_555
H5 C8 1_555 1_555
C9 C8 1_555 1_555
C10 C9 1_555 1_555
H6 C10 1_555 1_555
C11 N3 1_555 1_555
C12 N1 1_555 1_555
H7 C12 1_555 1_555
H8 C12 1_555 1_555
H9 C12 1_555 1_555
C13 N1 1_555 1_555
H10 C13 1_555 1_555
H11 C13 1_555 1_555
H12 C13 1_555 1_555
C14 N2 1_555 1_555
H13 C14 1_555 1_555
H14 C14 1_555 1_555
H15 C14 1_555 1_555
C15 N2 1_555 1_555
H16 C15 1_555 1_555
H17 C15 1_555 1_555
H18 C15 1_555 1_555
C16 C3 1_555 1_555
F1 C16 1_555 1_555
F2 C16 1_555 1_555
F3 C16 1_555 1_555
C5 C6 1_555 1_555
C10 C11 1_555 1_555

#END
