
#######################################################################
#
#                 Cambridge Crystallographic Data Centre
#                                CCDC 
#
#######################################################################
#
# If this CIF has been generated from an entry in the Cambridge 
# Structural Database, then it will include bibliographic, chemical, 
# crystal, experimental, refinement or atomic coordinate data resulting 
# from the CCDC's data processing and validation procedures.
#
#######################################################################

data_GUGNIH
_chemical_formula_moiety         'C13 H17 N5'
_chemical_name_systematic        
N,N,N',N'-Tetramethyl-6-(pyridazin-3-yl)pyridine-2,4-diamine
_symmetry_cell_setting           orthorhombic
_symmetry_space_group_name_H-M   'C m c m'
_symmetry_Int_Tables_number      63
_space_group_name_Hall           '-C 2n 2'
loop_
_symmetry_equiv_pos_site_id
_symmetry_equiv_pos_as_xyz
1 x,y,z
2 -x,-y,1/2+z
3 x,-y,-z
4 -x,y,1/2-z
5 1/2+x,1/2+y,z
6 1/2-x,1/2-y,1/2+z
7 1/2+x,1/2-y,-z
8 1/2-x,1/2+y,1/2-z
9 -x,-y,-z
10 x,y,1/2-z
11 -x,y,z
12 x,-y,1/2+z
13 1/2-x,1/2-y,-z
14 1/2+x,1/2+y,1/2-z
15 1/2-x,1/2+y,z
16 1/2+x,1/2-y,1/2+z
_cell_length_a                   6.7919(4)
_cell_length_b                   11.1592(4)
_cell_length_c                   16.7932(8)
_cell_angle_alpha                90
_cell_angle_beta                 90
_cell_angle_gamma                90
_cell_volume                     1272.79
_exptl_crystal_colour            yellow
_exptl_crystal_description       platelet
_cell_formula_units_Z            4
loop_
_atom_site_label
_atom_site_type_symbol
_atom_site_fract_x
_atom_site_fract_y
_atom_site_fract_z
C1 C 0.5000 1.3637(3) 0.7500
H1 H 0.5000 1.4470 0.7500
C2 C 0.5000 1.1265(2) 0.7500
C3 C 0.5000 0.9931(2) 0.7500
C4 C 0.5000 0.81323(19) 0.67814(13)
C5 C 0.5000 0.7505(2) 0.7500
H2 H 0.5000 0.6672 0.7500
N1 N 0.5000 0.75504(18) 0.60659(11)
C6 C 0.5000 0.8219(3) 0.53353(15)
C7 C 0.5000 0.6257(2) 0.60252(15)
H3 H 0.5000 1.3486 0.6311
H4 H 0.5000 1.1444 0.6319
N2 N 0.5000 0.93698(16) 0.67863(11)
N3 N 0.5000 1.30618(19) 0.67875(15)
N4 N 0.5000 1.18674(17) 0.67966(11)
C4C C 0.5000 0.81323(19) 0.82186(13)
N1C N 0.5000 0.75504(18) 0.89341(11)
C6C C 0.5000 0.8219(3) 0.96647(15)
C7C C 0.5000 0.6257(2) 0.89748(15)
H3C H 0.5000 1.3486 0.8689
H4C H 0.5000 1.1444 0.8681
N2C N 0.5000 0.93698(16) 0.82137(11)
N3C N 0.5000 1.30618(19) 0.82125(15)
N4C N 0.5000 1.18674(17) 0.82034(11)
H5? H 0.6293 0.8537 0.5241
H6? H 0.4634 0.7702 0.4903
H7? H 0.4073 0.8866 0.5374
H8? H 0.5205 0.6008 0.5484
H9? H 0.3757 0.5957 0.6210
H10? H 0.6038 0.5946 0.6354
C8? C 0.5000 0.93698(16) 0.67863(11)
H11? H 0.5000 0.9804 0.6314
C9? C 0.5000 1.30618(19) 0.67875(15)
C10? C 0.5000 1.18674(17) 0.67966(11)
loop_
_geom_bond_atom_site_label_1
_geom_bond_atom_site_label_2
_geom_bond_site_symmetry_1
_geom_bond_site_symmetry_2
C1 H1 1_555 1_555
C2 C3 1_555 1_555
C3 N2 1_555 1_555
C4 C5 1_555 1_555
C5 H2 1_555 1_555
N1 C4 1_555 1_555
C6 N1 1_555 1_555
C7 N1 1_555 1_555
H3 N3 1_555 1_555
H4 N4 1_555 1_555
N2 C4 1_555 1_555
N3 C1 1_555 1_555
N4 C2 1_555 1_555
C4C C5 1_555 1_555
N1C C4C 1_555 1_555
C6C N1C 1_555 1_555
C7C N1C 1_555 1_555
H3C N3C 1_555 1_555
H4C N4C 1_555 1_555
N2C C3 1_555 1_555
N3C C1 1_555 1_555
N4C C2 1_555 1_555
N3 N4 1_555 1_555
C4C N2C 1_555 1_555
N3C N4C 1_555 1_555

#END
