
#######################################################################
#
#                 Cambridge Crystallographic Data Centre
#                                CCDC 
#
#######################################################################
#
# If this CIF has been generated from an entry in the Cambridge 
# Structural Database, then it will include bibliographic, chemical, 
# crystal, experimental, refinement or atomic coordinate data resulting 
# from the CCDC's data processing and validation procedures.
#
#######################################################################

data_GUGTEI
_chemical_formula_moiety         'C23 H22 Br1 N1 O1 S1'
_chemical_name_systematic        2-Bromo-N-(2-(tritylsulfanyl)ethyl)acetamide
_symmetry_cell_setting           monoclinic
_symmetry_space_group_name_H-M   'P 21/n'
_symmetry_Int_Tables_number      14
_space_group_name_Hall           '-P 2yn'
loop_
_symmetry_equiv_pos_site_id
_symmetry_equiv_pos_as_xyz
1 x,y,z
2 1/2-x,1/2+y,1/2-z
3 -x,-y,-z
4 1/2+x,1/2-y,1/2+z
_cell_length_a                   7.1365(14)
_cell_length_b                   33.713(7)
_cell_length_c                   9.1192(18)
_cell_angle_alpha                90
_cell_angle_beta                 112.68(3)
_cell_angle_gamma                90
_cell_volume                     2024.36
_exptl_crystal_colour            colorless
_exptl_crystal_description       plate
_cell_formula_units_Z            4
_exptl_crystal_recrystallization_method acetone/water
loop_
_atom_site_label
_atom_site_type_symbol
_atom_site_fract_x
_atom_site_fract_y
_atom_site_fract_z
Br1 Br 0.24413(8) 0.236438(14) 0.14880(7)
C1 C 0.0004(6) 0.22133(12) 0.1804(6)
H1 H -0.1128 0.2173 0.0764
H2 H 0.0236 0.1962 0.2410
C2 C -0.0525(6) 0.25394(11) 0.2709(5)
O1 O 0.0378(4) 0.25728(8) 0.4161(3)
N1 N -0.1969(4) 0.27870(9) 0.1841(4)
H3 H -0.2533 0.2749 0.0808
C3 C -0.2665(5) 0.31187(10) 0.2513(5)
H4 H -0.2346 0.3065 0.3652
H5 H -0.4159 0.3140 0.1972
C4 C -0.1715(5) 0.35121(11) 0.2363(5)
H6 H -0.2424 0.3732 0.2653
H7 H -0.1854 0.3552 0.1250
S1 S 0.09628(13) 0.35123(3) 0.36760(11)
C5 C 0.1977(5) 0.39527(10) 0.3002(4)
C6 C 0.2455(5) 0.38619(10) 0.1518(4)
C7 C 0.3664(5) 0.41283(11) 0.1108(4)
H8 H 0.4190 0.4355 0.1753
C8 C 0.4115(6) 0.40680(12) -0.0233(5)
H9 H 0.4939 0.4254 -0.0494
C9 C 0.3367(6) 0.37396(13) -0.1179(5)
H10 H 0.3651 0.3701 -0.2105
C10 C 0.2200(6) 0.34674(13) -0.0774(5)
H11 H 0.1697 0.3239 -0.1414
C11 C 0.1757(5) 0.35271(11) 0.0577(4)
H12 H 0.0970 0.3336 0.0854
C12 C 0.3987(5) 0.40326(10) 0.4420(4)
C13 C 0.4458(6) 0.43879(11) 0.5237(4)
H13 H 0.3510 0.4600 0.4926
C14 C 0.6311(6) 0.44382(12) 0.6514(5)
H14 H 0.6608 0.4683 0.7071
C15 C 0.7717(6) 0.41346(13) 0.6973(5)
H15 H 0.8981 0.4170 0.7840
C16 C 0.7273(6) 0.37776(12) 0.6162(4)
H16 H 0.8229 0.3567 0.6471
C17 C 0.5432(5) 0.37294(11) 0.4898(4)
H17 H 0.5144 0.3484 0.4341
C18 C 0.0446(5) 0.42949(10) 0.2701(4)
C19 C -0.0268(5) 0.45106(11) 0.1299(4)
H18 H 0.0176 0.4444 0.0473
C20 C -0.1624(6) 0.48229(12) 0.1079(5)
H19 H -0.2085 0.4968 0.0111
C21 C -0.2303(6) 0.49236(11) 0.2256(5)
H20 H -0.3218 0.5139 0.2113
C22 C -0.1627(6) 0.47056(11) 0.3650(5)
H21 H -0.2099 0.4769 0.4463
C23 C -0.0277(5) 0.43974(10) 0.3870(5)
H22 H 0.0170 0.4252 0.4837
loop_
_geom_bond_atom_site_label_1
_geom_bond_atom_site_label_2
_geom_bond_site_symmetry_1
_geom_bond_site_symmetry_2
Br1 C1 1_555 1_555
C1 H1 1_555 1_555
H2 C1 1_555 1_555
C2 C1 1_555 1_555
O1 C2 1_555 1_555
N1 C2 1_555 1_555
H3 N1 1_555 1_555
C3 N1 1_555 1_555
H4 C3 1_555 1_555
H5 C3 1_555 1_555
C4 C3 1_555 1_555
H6 C4 1_555 1_555
H7 C4 1_555 1_555
S1 C4 1_555 1_555
C5 S1 1_555 1_555
C6 C5 1_555 1_555
C7 C6 1_555 1_555
H8 C7 1_555 1_555
C8 C7 1_555 1_555
H9 C8 1_555 1_555
C9 C8 1_555 1_555
H10 C9 1_555 1_555
C10 C9 1_555 1_555
H11 C10 1_555 1_555
C11 C6 1_555 1_555
H12 C11 1_555 1_555
C12 C5 1_555 1_555
C13 C12 1_555 1_555
H13 C13 1_555 1_555
C14 C13 1_555 1_555
H14 C14 1_555 1_555
C15 C14 1_555 1_555
H15 C15 1_555 1_555
C16 C15 1_555 1_555
H16 C16 1_555 1_555
C17 C12 1_555 1_555
H17 C17 1_555 1_555
C18 C5 1_555 1_555
C19 C18 1_555 1_555
H18 C19 1_555 1_555
C20 C19 1_555 1_555
H19 C20 1_555 1_555
C21 C20 1_555 1_555
H20 C21 1_555 1_555
C22 C21 1_555 1_555
H21 C22 1_555 1_555
C23 C18 1_555 1_555
H22 C23 1_555 1_555
C10 C11 1_555 1_555
C16 C17 1_555 1_555
C22 C23 1_555 1_555

#END
