
#######################################################################
#
#                 Cambridge Crystallographic Data Centre
#                                CCDC 
#
#######################################################################
#
# If this CIF has been generated from an entry in the Cambridge 
# Structural Database, then it will include bibliographic, chemical, 
# crystal, experimental, refinement or atomic coordinate data resulting 
# from the CCDC's data processing and validation procedures.
#
#######################################################################

data_GUGXEM
_chemical_formula_moiety         'C19 H19 N1 O6'
_chemical_name_systematic        
'Diethyl 10-formyl-6-oxo-7,8-dihydropyrido[1,2-a]indole-9,9(6H)-dicarboxylate'
_symmetry_cell_setting           monoclinic
_symmetry_space_group_name_H-M   'P 21/c'
_symmetry_Int_Tables_number      14
_space_group_name_Hall           '-P 2ybc'
loop_
_symmetry_equiv_pos_site_id
_symmetry_equiv_pos_as_xyz
1 x,y,z
2 -x,1/2+y,1/2-z
3 -x,-y,-z
4 x,1/2-y,1/2+z
_cell_length_a                   17.928(4)
_cell_length_b                   10.085(2)
_cell_length_c                   38.581(8)
_cell_angle_alpha                90
_cell_angle_beta                 92.05(3)
_cell_angle_gamma                90
_cell_volume                     6971.13
_exptl_crystal_colour            white
_chemical_melting_point          '84-86 deg.C'
_cell_formula_units_Z            16
loop_
_atom_site_label
_atom_site_type_symbol
_atom_site_fract_x
_atom_site_fract_y
_atom_site_fract_z
O1 O 0.45877(12) 0.2704(2) 0.45098(5)
O2 O 0.22780(11) 0.7375(2) 0.39735(6)
O3 O 0.33700(11) 0.78600(18) 0.42499(5)
O4 O 0.21033(10) 0.42050(19) 0.39127(5)
O5 O 0.18251(9) 0.50125(17) 0.44352(4)
O6 O 0.23681(12) 0.7341(2) 0.52415(5)
N1 N 0.38577(11) 0.44351(19) 0.46652(5)
C1 C 0.40264(13) 0.4411(2) 0.50267(6)
C2 C 0.45347(15) 0.3626(3) 0.52168(7)
H1 H 0.4827 0.2993 0.5110
C3 C 0.45831(16) 0.3833(3) 0.55697(7)
H2 H 0.4912 0.3326 0.5706
C4 C 0.41468(17) 0.4792(3) 0.57259(7)
H3 H 0.4197 0.4913 0.5965
C5 C 0.36453(16) 0.5563(3) 0.55385(6)
H4 H 0.3357 0.6197 0.5647
C6 C 0.35833(14) 0.5363(2) 0.51797(6)
C7 C 0.31314(13) 0.5982(2) 0.49064(6)
C8 C 0.33133(13) 0.5403(2) 0.45961(6)
C9 C 0.30080(13) 0.5596(2) 0.42285(6)
C10 C 0.35813(14) 0.5115(3) 0.39696(6)
H5 H 0.3359 0.5133 0.3737
H6 H 0.4008 0.5706 0.3976
C11 C 0.38368(15) 0.3715(3) 0.40567(6)
H7 H 0.3418 0.3116 0.4021
H8 H 0.4218 0.3458 0.3898
C12 C 0.41434(14) 0.3554(3) 0.44213(7)
C13 C 0.22618(14) 0.4840(2) 0.41687(6)
C14 C 0.10952(14) 0.4371(3) 0.44226(7)
H9 H 0.1140 0.3449 0.4354
H10 H 0.0759 0.4816 0.4258
C15 C 0.08146(16) 0.4473(3) 0.47806(7)
H11 H 0.0334 0.4057 0.4789
H12 H 0.0772 0.5390 0.4844
H13 H 0.1157 0.4037 0.4940
C16 C 0.28289(15) 0.7047(3) 0.41386(7)
C17 C 0.3254(2) 0.9264(3) 0.41667(12)
H14 H 0.2739 0.9459 0.4216
H15 H 0.3560 0.9761 0.4334
C18 C 0.3371(3) 0.9771(6) 0.38698(15)
H16 H 0.3256 1.0700 0.3874
H17 H 0.3059 0.9340 0.3696
H18 H 0.3885 0.9652 0.3816
C19 C 0.25489(15) 0.6968(3) 0.49557(7)
H19 H 0.2305 0.7329 0.4761
O7 O 0.69753(11) 0.97791(19) 0.30078(5)
O8 O 0.49784(10) 0.50136(18) 0.21309(4)
O9 O 0.58888(10) 0.44618(16) 0.31592(4)
O10 O 0.47608(10) 0.48309(18) 0.33768(5)
O11 O 0.45033(10) 0.78752(19) 0.34882(4)
O12 O 0.42682(9) 0.72482(16) 0.29354(4)
N2 N 0.63367(11) 0.79675(18) 0.28060(5)
C20 C 0.65627(13) 0.8016(2) 0.24589(6)
C21 C 0.71013(14) 0.8802(3) 0.23075(7)
H20 H 0.7369 0.9437 0.2435
C22 C 0.72200(15) 0.8597(3) 0.19586(7)
H21 H 0.7571 0.9110 0.1848
C23 C 0.68252(15) 0.7639(3) 0.17717(7)
H22 H 0.6925 0.7515 0.1539
C24 C 0.62864(14) 0.6859(3) 0.19206(6)
H23 H 0.6023 0.6225 0.1791
C25 C 0.61515(13) 0.7057(2) 0.22715(6)
C26 C 0.56600(13) 0.6417(2) 0.25137(6)
C27 C 0.57925(13) 0.6983(2) 0.28328(6)
C28 C 0.54656(13) 0.6711(2) 0.31816(6)
C29 C 0.60057(14) 0.7211(2) 0.34730(6)
H24 H 0.5768 0.7139 0.3694
H25 H 0.6449 0.6660 0.3483
C30 C 0.62269(15) 0.8639(2) 0.34127(6)
H26 H 0.5790 0.9197 0.3433
H27 H 0.6588 0.8903 0.3593
C31 C 0.65537(14) 0.8875(2) 0.30681(7)
C32 C 0.53177(14) 0.5231(2) 0.32473(6)
C33 C 0.57851(17) 0.3030(2) 0.32122(7)
H28 H 0.6108 0.2547 0.3060
H29 H 0.5273 0.2795 0.3150
C34 C 0.59556(19) 0.2627(3) 0.35770(7)
H30 H 0.5880 0.1690 0.3600
H31 H 0.5631 0.3092 0.3728
H32 H 0.6465 0.2840 0.3638
C35 C 0.46917(14) 0.7375(2) 0.32227(6)
C36 C 0.34970(14) 0.7711(3) 0.29575(7)
H33 H 0.3487 0.8615 0.3043
H34 H 0.3225 0.7152 0.3114
C37 C 0.31554(15) 0.7639(3) 0.25991(7)
H35 H 0.2647 0.7939 0.2601
H36 H 0.3167 0.6739 0.2518
H37 H 0.3432 0.8193 0.2447
C38 C 0.51078(14) 0.5405(2) 0.24245(6)
H38 H 0.4839 0.5037 0.2602
O13 O 0.78094(10) 0.48737(17) 0.20949(5)
O14 O 1.02291(11) 0.94421(19) 0.27992(5)
O15 O 0.91397(10) 0.97573(16) 0.18001(4)
O16 O 1.01626(11) 0.91970(19) 0.15112(5)
O17 O 1.03319(9) 0.59456(17) 0.15426(4)
O18 O 1.07203(9) 0.70236(17) 0.20285(4)
N3 N 0.86127(10) 0.65448(18) 0.22428(5)
C39 C 0.84666(13) 0.6618(2) 0.25996(6)
C40 C 0.79435(14) 0.5945(2) 0.27920(7)
H39 H 0.7613 0.5339 0.2689
C41 C 0.79400(16) 0.6220(3) 0.31434(7)
H40 H 0.7605 0.5775 0.3281
C42 C 0.84239(16) 0.7145(3) 0.32972(7)
H41 H 0.8399 0.7317 0.3533
C43 C 0.89421(15) 0.7814(3) 0.31049(6)
H42 H 0.9266 0.8428 0.3209
C44 C 0.89659(13) 0.7542(2) 0.27498(6)
C45 C 0.94236(13) 0.8030(2) 0.24747(6)
C46 C 0.92002(13) 0.7417(2) 0.21729(6)
C47 C 0.94891(13) 0.7500(2) 0.18097(6)
C48 C 0.88970(13) 0.6985(2) 0.15447(6)
H43 H 0.8488 0.7614 0.1526
H44 H 0.9115 0.6913 0.1319
C49 C 0.85999(14) 0.5644(2) 0.16505(6)
H45 H 0.8211 0.5374 0.1484
H46 H 0.9000 0.4998 0.1642
C50 C 0.82912(13) 0.5634(2) 0.20056(6)
C51 C 0.96595(14) 0.8921(2) 0.16951(6)
C52 C 0.91750(17) 1.1116(3) 0.16686(8)
H47 H 0.9081 1.1131 0.1419
H48 H 0.9663 1.1497 0.1720
C53 C 0.8587(2) 1.1877(3) 0.18476(11)
H49 H 0.8584 1.2779 0.1768
H50 H 0.8689 1.1859 0.2093
H51 H 0.8108 1.1483 0.1797
C54 C 1.02227(13) 0.6711(2) 0.17756(6)
C55 C 1.14742(13) 0.6471(3) 0.20016(7)
H52 H 1.1443 0.5595 0.1898
H53 H 1.1707 0.6385 0.2231
C56 C 1.19419(15) 0.7355(3) 0.17833(8)
H54 H 1.2432 0.6981 0.1767
H55 H 1.1979 0.8217 0.1888
H56 H 1.1714 0.7432 0.1555
C57 C 1.00242(14) 0.8994(3) 0.25169(7)
H57 H 1.0263 0.9282 0.2321
O19 O 0.04237(11) 0.72739(19) 0.04359(5)
O20 O 0.25797(11) 0.27877(18) -0.04030(5)
O21 O 0.30149(10) 0.58355(18) 0.09291(4)
O22 O 0.32650(9) 0.50072(17) 0.04065(4)
O23 O 0.28274(10) 0.26314(18) 0.08689(5)
O24 O 0.16920(9) 0.22033(16) 0.06292(5)
N4 N 0.11504(11) 0.55964(18) 0.02429(5)
C58 C 0.09256(13) 0.5668(2) -0.01117(6)
C59 C 0.03957(14) 0.6478(2) -0.02788(6)
H58 H 0.0111 0.7077 -0.0157
C60 C 0.03149(15) 0.6347(3) -0.06337(6)
H59 H -0.0031 0.6877 -0.0754
C61 C 0.07368(15) 0.5440(3) -0.08178(7)
H60 H 0.0665 0.5378 -0.1057
C62 C 0.12593(15) 0.4635(3) -0.06509(6)
H61 H 0.1534 0.4025 -0.0774
C63 C 0.13656(13) 0.4761(2) -0.02898(6)
C64 C 0.18660(13) 0.4125(2) -0.00385(6)
C65 C 0.17219(13) 0.4657(2) 0.02820(6)
C66 C 0.20869(13) 0.4447(2) 0.06377(6)
C67 C 0.15653(14) 0.4928(2) 0.09225(6)
H62 H 0.1142 0.4332 0.0934
H63 H 0.1833 0.4911 0.1146
C68 C 0.12895(14) 0.6318(2) 0.08481(6)
H64 H 0.0947 0.6574 0.1025
H65 H 0.1711 0.6922 0.0862
C69 C 0.09056(14) 0.6459(2) 0.05020(6)
C70 C 0.28385(13) 0.5191(2) 0.06780(6)
C71 C 0.40110(14) 0.5608(3) 0.04337(7)
H66 H 0.4327 0.5135 0.0601
H67 H 0.3979 0.6529 0.0505
C72 C 0.4317(3) 0.5505(6) 0.00770(14)
H68 H 0.4808 0.5888 0.0078
H69 H 0.3996 0.5971 -0.0086
H70 H 0.4344 0.4589 0.0011
C73 C 0.22626(14) 0.2989(2) 0.07200(6)
C74 C 0.17521(16) 0.0797(3) 0.07177(8)
H71 H 0.2085 0.0677 0.0919
H72 H 0.1950 0.0303 0.0526
C75 C 0.09941(18) 0.0321(3) 0.07926(8)
H73 H 0.1015 -0.0602 0.0853
H74 H 0.0671 0.0439 0.0591
H75 H 0.0804 0.0818 0.0983
C76 C 0.24373(14) 0.3153(2) -0.01101(6)
H76 H 0.2710 0.2789 0.0076
C77? C 0.3254(2) 0.9264(3) 0.41667(12)
C78? C 0.4075(4) 0.9820(7) 0.4203(2)
C79? C 0.40110(14) 0.5608(3) 0.04337(7)
C80? C 0.4550(3) 0.4813(5) 0.06687(14)
H77? H 0.2930 0.9686 0.4330
H78? H 0.3046 0.9378 0.3933
H79? H 0.4071 1.0756 0.4157
H80? H 0.4382 0.9381 0.4039
H81? H 0.4271 0.9664 0.4434
H82? H 0.3970 0.6501 0.0525
H83? H 0.4212 0.5669 0.0204
H84? H 0.5027 0.5245 0.0680
H85? H 0.4603 0.3936 0.0576
H86? H 0.4357 0.4761 0.0897
loop_
_geom_bond_atom_site_label_1
_geom_bond_atom_site_label_2
_geom_bond_site_symmetry_1
_geom_bond_site_symmetry_2
O1 C12 1_555 1_555
O2 C16 1_555 1_555
O3 C16 1_555 1_555
O4 C13 1_555 1_555
O5 C13 1_555 1_555
O6 C19 1_555 1_555
O7 C31 1_555 1_555
O8 C38 1_555 1_555
O9 C32 1_555 1_555
O10 C32 1_555 1_555
O11 C35 1_555 1_555
O12 C35 1_555 1_555
O13 C50 1_555 1_555
O14 C57 1_555 1_555
O15 C51 1_555 1_555
O16 C51 1_555 1_555
O17 C54 1_555 1_555
O18 C54 1_555 1_555
O19 C69 1_555 1_555
O20 C76 1_555 1_555
O21 C70 1_555 1_555
O22 C70 1_555 1_555
O23 C73 1_555 1_555
O24 C73 1_555 1_555
N1 C1 1_555 1_555
N2 C20 1_555 1_555
N3 C39 1_555 1_555
N4 C58 1_555 1_555
C1 C2 1_555 1_555
C2 H1 1_555 1_555
C3 C2 1_555 1_555
H2 C3 1_555 1_555
C4 C3 1_555 1_555
H3 C4 1_555 1_555
C5 C4 1_555 1_555
H4 C5 1_555 1_555
C6 C1 1_555 1_555
C7 C6 1_555 1_555
C8 N1 1_555 1_555
C9 C8 1_555 1_555
C10 C9 1_555 1_555
H5 C10 1_555 1_555
H6 C10 1_555 1_555
C11 C10 1_555 1_555
H7 C11 1_555 1_555
H8 C11 1_555 1_555
C12 N1 1_555 1_555
C13 C9 1_555 1_555
C14 O5 1_555 1_555
H9 C14 1_555 1_555
H10 C14 1_555 1_555
C15 C14 1_555 1_555
H11 C15 1_555 1_555
H12 C15 1_555 1_555
H13 C15 1_555 1_555
C16 C9 1_555 1_555
C17 O3 1_555 1_555
H14 C17 1_555 1_555
H15 C17 1_555 1_555
C18 C17 1_555 1_555
H16 C18 1_555 1_555
H17 C18 1_555 1_555
H18 C18 1_555 1_555
C19 C7 1_555 1_555
H19 C19 1_555 1_555
C20 C21 1_555 1_555
C21 H20 1_555 1_555
C22 C21 1_555 1_555
H21 C22 1_555 1_555
C23 C22 1_555 1_555
H22 C23 1_555 1_555
C24 C23 1_555 1_555
H23 C24 1_555 1_555
C25 C20 1_555 1_555
C26 C25 1_555 1_555
C27 N2 1_555 1_555
C28 C27 1_555 1_555
C29 C28 1_555 1_555
H24 C29 1_555 1_555
H25 C29 1_555 1_555
C30 C29 1_555 1_555
H26 C30 1_555 1_555
H27 C30 1_555 1_555
C31 N2 1_555 1_555
C32 C28 1_555 1_555
C33 O9 1_555 1_555
H28 C33 1_555 1_555
H29 C33 1_555 1_555
C34 C33 1_555 1_555
H30 C34 1_555 1_555
H31 C34 1_555 1_555
H32 C34 1_555 1_555
C35 C28 1_555 1_555
C36 O12 1_555 1_555
H33 C36 1_555 1_555
H34 C36 1_555 1_555
C37 C36 1_555 1_555
H35 C37 1_555 1_555
H36 C37 1_555 1_555
H37 C37 1_555 1_555
C38 C26 1_555 1_555
H38 C38 1_555 1_555
C39 C40 1_555 1_555
C40 H39 1_555 1_555
C41 C40 1_555 1_555
H40 C41 1_555 1_555
C42 C41 1_555 1_555
H41 C42 1_555 1_555
C43 C42 1_555 1_555
H42 C43 1_555 1_555
C44 C39 1_555 1_555
C45 C44 1_555 1_555
C46 N3 1_555 1_555
C47 C46 1_555 1_555
C48 C47 1_555 1_555
H43 C48 1_555 1_555
H44 C48 1_555 1_555
C49 C48 1_555 1_555
H45 C49 1_555 1_555
H46 C49 1_555 1_555
C50 N3 1_555 1_555
C51 C47 1_555 1_555
C52 O15 1_555 1_555
H47 C52 1_555 1_555
H48 C52 1_555 1_555
C53 C52 1_555 1_555
H49 C53 1_555 1_555
H50 C53 1_555 1_555
H51 C53 1_555 1_555
C54 C47 1_555 1_555
C55 O18 1_555 1_555
H52 C55 1_555 1_555
H53 C55 1_555 1_555
C56 C55 1_555 1_555
H54 C56 1_555 1_555
H55 C56 1_555 1_555
H56 C56 1_555 1_555
C57 C45 1_555 1_555
H57 C57 1_555 1_555
C58 C59 1_555 1_555
C59 H58 1_555 1_555
C60 C59 1_555 1_555
H59 C60 1_555 1_555
C61 C60 1_555 1_555
H60 C61 1_555 1_555
C62 C61 1_555 1_555
H61 C62 1_555 1_555
C63 C58 1_555 1_555
C64 C63 1_555 1_555
C65 N4 1_555 1_555
C66 C65 1_555 1_555
C67 C66 1_555 1_555
H62 C67 1_555 1_555
H63 C67 1_555 1_555
C68 C67 1_555 1_555
H64 C68 1_555 1_555
H65 C68 1_555 1_555
C69 N4 1_555 1_555
C70 C66 1_555 1_555
C71 O22 1_555 1_555
H66 C71 1_555 1_555
H67 C71 1_555 1_555
C72 C71 1_555 1_555
H68 C72 1_555 1_555
H69 C72 1_555 1_555
H70 C72 1_555 1_555
C73 C66 1_555 1_555
C74 O24 1_555 1_555
H71 C74 1_555 1_555
H72 C74 1_555 1_555
C75 C74 1_555 1_555
H73 C75 1_555 1_555
H74 C75 1_555 1_555
H75 C75 1_555 1_555
C76 C64 1_555 1_555
H76 C76 1_555 1_555
C5 C6 1_555 1_555
C7 C8 1_555 1_555
C11 C12 1_555 1_555
C24 C25 1_555 1_555
C26 C27 1_555 1_555
C30 C31 1_555 1_555
C43 C44 1_555 1_555
C45 C46 1_555 1_555
C49 C50 1_555 1_555
C62 C63 1_555 1_555
C64 C65 1_555 1_555
C68 C69 1_555 1_555

#END
