
#######################################################################
#
#                 Cambridge Crystallographic Data Centre
#                                CCDC 
#
#######################################################################
#
# If this CIF has been generated from an entry in the Cambridge 
# Structural Database, then it will include bibliographic, chemical, 
# crystal, experimental, refinement or atomic coordinate data resulting 
# from the CCDC's data processing and validation procedures.
#
#######################################################################

data_GUGXIQ
_chemical_formula_moiety         'C17 H24 N2 O6'
_chemical_name_systematic        
"3-t-Butyl 2-methyl 5,10-dioxooctahydro-1H,5H-dipyrrolo[1,2-a:1',2'-d]pyrazine-2,3-dicarboxylate"
_symmetry_cell_setting           monoclinic
_symmetry_space_group_name_H-M   'C 2'
_symmetry_Int_Tables_number      5
_space_group_name_Hall           'C 2y'
loop_
_symmetry_equiv_pos_site_id
_symmetry_equiv_pos_as_xyz
1 x,y,z
2 -x,y,-z
3 1/2+x,1/2+y,z
4 1/2-x,1/2+y,-z
_cell_length_a                   23.982(4)
_cell_length_b                   6.0546(7)
_cell_length_c                   12.621(2)
_cell_angle_alpha                90
_cell_angle_beta                 92.222(19)
_cell_angle_gamma                90
_cell_volume                     1831.21
_exptl_crystal_colour            colorless
_exptl_crystal_description       'needle shaped'
_cell_formula_units_Z            4
loop_
_atom_site_label
_atom_site_type_symbol
_atom_site_fract_x
_atom_site_fract_y
_atom_site_fract_z
C1 C 0.23786(13) 0.6797(6) 0.1525(3)
H1 H 0.2326 0.8419 0.1506
H2 H 0.2153 0.6121 0.0937
C2 C 0.29946(12) 0.6184(6) 0.1460(3)
H3 H 0.3218 0.7193 0.1939
C3 C 0.30301(11) 0.3824(6) 0.1925(2)
H4 H 0.2952 0.2698 0.1359
C4 C 0.24873(12) 0.2218(6) 0.3366(2)
C5 C 0.19789(13) 0.2602(7) 0.4034(3)
H5 H 0.2089 0.3547 0.4658
C6 C 0.16943(18) 0.0536(10) 0.4416(5)
H6 H 0.1803 -0.0753 0.3988
H7 H 0.1803 0.0246 0.5168
C7 C 0.1111(2) 0.0894(13) 0.4303(6)
H8 H 0.0958 0.1146 0.5010
H9 H 0.0929 -0.0440 0.3994
C8 C 0.09820(15) 0.2785(9) 0.3625(3)
H10 H 0.0751 0.3877 0.3995
H11 H 0.0781 0.2321 0.2962
C9 C 0.16153(13) 0.5266(6) 0.2691(3)
C10 C 0.22257(12) 0.5854(6) 0.2582(3)
H12 H 0.2340 0.6921 0.3155
C11 C 0.32211(12) 0.6335(6) 0.0362(3)
C12 C 0.40146(17) 0.5737(10) -0.0652(3)
H13 H 0.3823 0.4720 -0.1148
H14 H 0.4406 0.5290 -0.0551
H15 H 0.3997 0.7240 -0.0941
C13 C 0.35963(12) 0.3398(6) 0.2483(3)
C14 C 0.44534(12) 0.1267(6) 0.2373(3)
C15 C 0.48291(15) 0.3287(8) 0.2373(4)
H16 H 0.4750 0.4148 0.1727
H17 H 0.5220 0.2816 0.2395
H18 H 0.4759 0.4198 0.2995
C16 C 0.46287(18) -0.0320(9) 0.1533(5)
H19 H 0.4399 -0.1657 0.1556
H20 H 0.5022 -0.0712 0.1659
H21 H 0.4579 0.0375 0.0834
C17 C 0.44216(17) 0.0178(10) 0.3441(4)
H22 H 0.4318 0.1278 0.3969
H23 H 0.4786 -0.0458 0.3647
H24 H 0.4140 -0.0995 0.3404
N1 N 0.25819(10) 0.3858(5) 0.2681(2)
N2 N 0.15277(10) 0.3697(6) 0.3406(2)
O1 O 0.27826(9) 0.0569(4) 0.3458(2)
O2 O 0.12382(10) 0.6175(6) 0.2168(3)
O3 O 0.29628(11) 0.6989(5) -0.0424(2)
O4 O 0.37458(9) 0.5682(5) 0.03595(19)
O5 O 0.37564(9) 0.4430(5) 0.3260(2)
O6 O 0.38804(8) 0.1871(4) 0.19915(17)
loop_
_geom_bond_atom_site_label_1
_geom_bond_atom_site_label_2
_geom_bond_site_symmetry_1
_geom_bond_site_symmetry_2
C1 H1 1_555 1_555
H2 C1 1_555 1_555
C2 C1 1_555 1_555
H3 C2 1_555 1_555
C3 C2 1_555 1_555
H4 C3 1_555 1_555
C4 C5 1_555 1_555
C5 H5 1_555 1_555
C6 C5 1_555 1_555
H6 C6 1_555 1_555
H7 C6 1_555 1_555
C7 C6 1_555 1_555
H8 C7 1_555 1_555
H9 C7 1_555 1_555
C8 C7 1_555 1_555
H10 C8 1_555 1_555
H11 C8 1_555 1_555
C9 C10 1_555 1_555
C10 C1 1_555 1_555
H12 C10 1_555 1_555
C11 C2 1_555 1_555
C12 H13 1_555 1_555
H14 C12 1_555 1_555
H15 C12 1_555 1_555
C13 C3 1_555 1_555
C14 C15 1_555 1_555
C15 H16 1_555 1_555
H17 C15 1_555 1_555
H18 C15 1_555 1_555
C16 C14 1_555 1_555
H19 C16 1_555 1_555
H20 C16 1_555 1_555
H21 C16 1_555 1_555
C17 C14 1_555 1_555
H22 C17 1_555 1_555
H23 C17 1_555 1_555
H24 C17 1_555 1_555
N1 C3 1_555 1_555
N2 C5 1_555 1_555
O1 C4 1_555 1_555
O2 C9 1_555 1_555
O3 C11 1_555 1_555
O4 C11 1_555 1_555
O5 C13 1_555 1_555
O6 C13 1_555 1_555
C4 N1 1_555 1_555
C8 N2 1_555 1_555
C9 N2 1_555 1_555
C10 N1 1_555 1_555
C12 O4 1_555 1_555
C14 O6 1_555 1_555

#END
