
#######################################################################
#
#                 Cambridge Crystallographic Data Centre
#                                CCDC 
#
#######################################################################
#
# If this CIF has been generated from an entry in the Cambridge 
# Structural Database, then it will include bibliographic, chemical, 
# crystal, experimental, refinement or atomic coordinate data resulting 
# from the CCDC's data processing and validation procedures.
#
#######################################################################

data_GUGZEO
_chemical_formula_moiety         'C14 H20 O4'
_chemical_name_systematic        
3-(Adamantan-1-yl)-3,4-dihydroxydihydrofuran-2(3H)-one
_symmetry_cell_setting           triclinic
_symmetry_space_group_name_H-M   'P -1'
_symmetry_Int_Tables_number      2
_space_group_name_Hall           '-P 1'
loop_
_symmetry_equiv_pos_site_id
_symmetry_equiv_pos_as_xyz
1 x,y,z
2 -x,-y,-z
_cell_length_a                   6.374(3)
_cell_length_b                   6.410(3)
_cell_length_c                   16.590(4)
_cell_angle_alpha                91.781(4)
_cell_angle_beta                 96.664(5)
_cell_angle_gamma                118.379(11)
_cell_volume                     589.444
_exptl_crystal_colour            colorless
_exptl_crystal_description       block
_cell_formula_units_Z            2
loop_
_atom_site_label
_atom_site_type_symbol
_atom_site_fract_x
_atom_site_fract_y
_atom_site_fract_z
O1 O 0.50841(17) 0.11061(16) 0.41518(6)
O2 O 0.49675(17) 0.44538(17) 0.39525(6)
O3 O 1.00084(17) 0.63285(16) 0.37827(5)
H1 H 1.0021 0.6563 0.4285
O4 O 1.06704(17) 0.30646(19) 0.45966(5)
H2 H 1.2052 0.3625 0.4461
C1 C 0.5955(2) 0.3256(2) 0.38845(7)
C2 C 0.8289(2) 0.3946(2) 0.35210(7)
C3 C 0.9016(2) 0.2098(2) 0.38632(7)
H3 H 0.9688 0.1520 0.3447
C4 C 0.6665(3) 0.0084(2) 0.40548(8)
H4 H 0.5929 -0.1215 0.3604
H5 H 0.6955 -0.0572 0.4563
C5 C 0.7826(2) 0.3759(2) 0.25714(7)
C6 C 0.5998(2) 0.1209(2) 0.21923(7)
H6 H 0.6594 0.0095 0.2363
H7 H 0.4436 0.0703 0.2391
C7 C 0.5635(2) 0.1118(2) 0.12571(7)
H8 H 0.4454 -0.0545 0.1020
C8 C 0.8048(2) 0.1878(2) 0.09481(8)
H9 H 0.8675 0.0782 0.1112
H10 H 0.7814 0.1800 0.0345
C9 C 0.9861(2) 0.4428(2) 0.13092(7)
H11 H 1.1434 0.4921 0.1108
C10 C 1.0237(2) 0.4525(2) 0.22428(7)
H12 H 1.1424 0.6167 0.2477
H13 H 1.0889 0.3453 0.2412
C11 C 0.6863(2) 0.5461(2) 0.22862(8)
H14 H 0.5315 0.5008 0.2488
H15 H 0.8027 0.7111 0.2518
C12 C 0.6483(2) 0.5355(2) 0.13536(8)
H16 H 0.5849 0.6458 0.1183
C13 C 0.4665(2) 0.2804(2) 0.09894(8)
H17 H 0.3095 0.2311 0.1180
H18 H 0.4416 0.2734 0.0387
C14 C 0.8890(2) 0.6117(2) 0.10407(8)
H19 H 1.0062 0.7773 0.1264
H20 H 0.8654 0.6058 0.0438
loop_
_geom_bond_atom_site_label_1
_geom_bond_atom_site_label_2
_geom_bond_site_symmetry_1
_geom_bond_site_symmetry_2
O1 C1 1_555 1_555
O2 C1 1_555 1_555
O3 H1 1_555 1_555
O4 H2 1_555 1_555
C1 C2 1_555 1_555
C2 O3 1_555 1_555
C3 O4 1_555 1_555
H3 C3 1_555 1_555
C4 O1 1_555 1_555
H4 C4 1_555 1_555
H5 C4 1_555 1_555
C5 C2 1_555 1_555
C6 C5 1_555 1_555
H6 C6 1_555 1_555
H7 C6 1_555 1_555
C7 C6 1_555 1_555
H8 C7 1_555 1_555
C8 C7 1_555 1_555
H9 C8 1_555 1_555
H10 C8 1_555 1_555
C9 C8 1_555 1_555
H11 C9 1_555 1_555
C10 C5 1_555 1_555
H12 C10 1_555 1_555
H13 C10 1_555 1_555
C11 C5 1_555 1_555
H14 C11 1_555 1_555
H15 C11 1_555 1_555
C12 C11 1_555 1_555
H16 C12 1_555 1_555
C13 C7 1_555 1_555
H17 C13 1_555 1_555
H18 C13 1_555 1_555
C14 C9 1_555 1_555
H19 C14 1_555 1_555
H20 C14 1_555 1_555
C2 C3 1_555 1_555
C3 C4 1_555 1_555
C9 C10 1_555 1_555
C12 C13 1_555 1_555
C12 C14 1_555 1_555

#END
