
#######################################################################
#
#                 Cambridge Crystallographic Data Centre
#                                CCDC 
#
#######################################################################
#
# If this CIF has been generated from an entry in the Cambridge 
# Structural Database, then it will include bibliographic, chemical, 
# crystal, experimental, refinement or atomic coordinate data resulting 
# from the CCDC's data processing and validation procedures.
#
#######################################################################

data_GUGZOY
_chemical_compound_source        'aerial parts of Andrographis paniculata'
_chemical_name_common            
3-(2-(2,4,8-Trimethyl-6,7-dihydro-5H-benzo[7]annulen-3-yl)ethyl)furan-2(5H)-one
_chemical_formula_moiety         'C20 H24 O2'
_chemical_name_systematic        Andrographolactone
_chemical_properties_biological  'tested for cytotoxic activity'
_symmetry_cell_setting           triclinic
_symmetry_space_group_name_H-M   'P -1'
_symmetry_Int_Tables_number      2
_space_group_name_Hall           '-P 1'
loop_
_symmetry_equiv_pos_site_id
_symmetry_equiv_pos_as_xyz
1 x,y,z
2 -x,-y,-z
_cell_length_a                   6.3213(7)
_cell_length_b                   10.2760(12)
_cell_length_c                   12.5886(15)
_cell_angle_alpha                77.654(2)
_cell_angle_beta                 85.326(2)
_cell_angle_gamma                81.066(2)
_cell_volume                     788.136
_exptl_crystal_colour            colorless
_exptl_crystal_description       bar
_chemical_melting_point          '96-98 deg.C'
_cell_formula_units_Z            2
loop_
_atom_site_label
_atom_site_type_symbol
_atom_site_fract_x
_atom_site_fract_y
_atom_site_fract_z
C1 C 0.6351(3) 0.5264(2) 0.82403(15)
C2 C 0.7659(3) 0.5519(2) 0.91135(17)
H1 H 0.9107 0.4999 0.9066
H2 H 0.6986 0.5160 0.9833
C3 C 0.7908(3) 0.6978(2) 0.90685(17)
H3 H 0.9221 0.6995 0.9441
H4 H 0.8121 0.7425 0.8297
C4 C 0.3975(3) 0.8016(2) 0.90246(16)
C5 C 0.3427(3) 0.7310(2) 0.83381(16)
H5 H 0.2063 0.7662 0.8052
C6 C 0.4443(3) 0.61118(19) 0.79184(15)
C7 C 0.3277(3) 0.57798(19) 0.71392(15)
H6 H 0.1971 0.6337 0.6932
C8 C 0.3922(3) 0.46859(19) 0.66546(15)
C9 C 0.5875(3) 0.38680(18) 0.69488(15)
C10 C 0.7054(3) 0.41479(19) 0.77549(15)
C11 C 0.6626(3) 0.26863(19) 0.64010(16)
H7 H 0.8204 0.2597 0.6277
H8 H 0.5990 0.2870 0.5682
C12 C 0.6011(3) 0.13474(19) 0.70762(16)
H9 H 0.6537 0.1203 0.7818
H10 H 0.4429 0.1409 0.7144
C13 C 0.6911(3) 0.01724(19) 0.65844(15)
C14 C 0.5944(3) -0.07120(19) 0.62366(15)
H11 H 0.4437 -0.0703 0.6253
C15 C 0.7564(3) -0.1711(2) 0.58217(18)
H12 H 0.7437 -0.2633 0.6234
H13 H 0.7390 -0.1674 0.5041
O1 O 0.9602(2) -0.13342(13) 0.59793(11)
C16 C 0.9245(3) -0.0214(2) 0.64247(16)
O2 O 1.0713(2) 0.02892(14) 0.66433(12)
C17 C 0.2509(3) 0.4411(2) 0.58405(16)
H14 H 0.1182 0.5051 0.5801
H15 H 0.2166 0.3492 0.6069
H16 H 0.3264 0.4513 0.5122
C18 C 0.2453(4) 0.9209(2) 0.92624(17)
H17 H 0.1082 0.9244 0.8939
H18 H 0.3065 1.0036 0.8951
H19 H 0.2221 0.9125 1.0052
C19 C 0.6053(4) 0.7786(2) 0.9575(2)
H20 H 0.5814 0.7321 1.0340
H21 H 0.6465 0.8673 0.9588
C20 C 0.9084(3) 0.3220(2) 0.81325(16)
H22 H 0.9325 0.2473 0.7746
H23 H 0.8930 0.2864 0.8917
H24 H 1.0307 0.3724 0.7978
loop_
_geom_bond_atom_site_label_1
_geom_bond_atom_site_label_2
_geom_bond_site_symmetry_1
_geom_bond_site_symmetry_2
C1 C2 1_555 1_555
C2 H1 1_555 1_555
H2 C2 1_555 1_555
C3 C2 1_555 1_555
H3 C3 1_555 1_555
H4 C3 1_555 1_555
C4 C5 1_555 1_555
C5 H5 1_555 1_555
C6 C1 1_555 1_555
C7 C6 1_555 1_555
H6 C7 1_555 1_555
C8 C7 1_555 1_555
C9 C8 1_555 1_555
C10 C1 1_555 1_555
C11 C9 1_555 1_555
H7 C11 1_555 1_555
H8 C11 1_555 1_555
C12 C11 1_555 1_555
H9 C12 1_555 1_555
H10 C12 1_555 1_555
C13 C12 1_555 1_555
C14 C13 1_555 1_555
H11 C14 1_555 1_555
C15 C14 1_555 1_555
H12 C15 1_555 1_555
H13 C15 1_555 1_555
O1 C15 1_555 1_555
C16 C13 1_555 1_555
O2 C16 1_555 1_555
C17 C8 1_555 1_555
H14 C17 1_555 1_555
H15 C17 1_555 1_555
H16 C17 1_555 1_555
C18 C4 1_555 1_555
H17 C18 1_555 1_555
H18 C18 1_555 1_555
H19 C18 1_555 1_555
C19 C3 1_555 1_555
H20 C19 1_555 1_555
H21 C19 1_555 1_555
C20 C10 1_555 1_555
H22 C20 1_555 1_555
H23 C20 1_555 1_555
H24 C20 1_555 1_555
C4 C19 1_555 1_555
C5 C6 1_555 1_555
C9 C10 1_555 1_555
O1 C16 1_555 1_555

#END
