
#######################################################################
#
#                 Cambridge Crystallographic Data Centre
#                                CCDC 
#
#######################################################################
#
# If this CIF has been generated from an entry in the Cambridge 
# Structural Database, then it will include bibliographic, chemical, 
# crystal, experimental, refinement or atomic coordinate data resulting 
# from the CCDC's data processing and validation procedures.
#
#######################################################################

data_GUGZAL
_chemical_formula_moiety         'C25 H25 N2 O1 P1'
_chemical_name_systematic        
5-(Diphenylphosphoryl)-4-methyl-2-phenyl-1-propyl-1H-imidazole
_symmetry_cell_setting           monoclinic
_symmetry_space_group_name_H-M   'P 21'
_symmetry_Int_Tables_number      4
_space_group_name_Hall           'P 2yb'
loop_
_symmetry_equiv_pos_site_id
_symmetry_equiv_pos_as_xyz
1 x,y,z
2 -x,1/2+y,-z
_cell_length_a                   11.324(2)
_cell_length_b                   8.6176(18)
_cell_length_c                   11.838(3)
_cell_angle_alpha                90
_cell_angle_beta                 105.763(4)
_cell_angle_gamma                90
_cell_volume                     1111.78
_exptl_crystal_colour            colorless
_exptl_crystal_description       block
_cell_formula_units_Z            2
loop_
_atom_site_label
_atom_site_type_symbol
_atom_site_fract_x
_atom_site_fract_y
_atom_site_fract_z
P1 P 0.28153(4) 0.03514(7) 0.22126(4)
C1 C 0.4910(2) -0.1343(3) 0.2260(2)
H1 H 0.4705 -0.1934 0.2837
C2 C 0.11218(19) -0.0584(3) 0.39470(19)
H2 H 0.0864 -0.1133 0.4555
H3 H 0.1096 -0.1311 0.3315
C3 C 0.6198(2) -0.0893(4) 0.1004(2)
H4 H 0.6873 -0.1169 0.0743
C4 C 0.3189(2) -0.0937(3) 0.75706(19)
H5 H 0.3970 -0.1281 0.7578
O1 O 0.18201(14) -0.0761(2) 0.16650(12)
C5 C 0.5508(2) 0.0372(4) 0.0531(2)
H6 H 0.5701 0.0936 -0.0064
C6 C 0.5534(2) 0.1195(3) 0.4516(2)
H7 H 0.5818 0.2065 0.5023
H8 H 0.5459 0.1490 0.3718
H9 H 0.6109 0.0356 0.4732
C7 C 0.1596(3) -0.0700(4) 0.8540(2)
H10 H 0.1296 -0.0896 0.9183
N1 N 0.41506(14) 0.0532(3) 0.57360(13)
C8 C 0.4526(2) 0.0809(3) 0.09411(19)
H11 H 0.4071 0.1683 0.0632
C9 C 0.3001(2) 0.3617(3) 0.2366(2)
H12 H 0.3639 0.3472 0.3043
N2 N 0.23904(14) -0.0046(2) 0.44298(13)
C10 C 0.24681(19) -0.0200(3) 0.65834(18)
C11 C 0.2665(2) 0.5105(3) 0.1966(2)
H13 H 0.3081 0.5953 0.2374
C12 C 0.2759(3) -0.1167(3) 0.8545(2)
H14 H 0.3261 -0.1642 0.9209
C13 C 0.29967(18) 0.0102(3) 0.55838(16)
C14 C 0.43089(17) 0.0684(3) 0.46332(17)
C15 C 0.42130(19) -0.0049(2) 0.18125(16)
C16 C 0.23977(18) 0.2345(3) 0.17679(18)
C17 C 0.1116(2) 0.4084(3) 0.0362(2)
H15 H 0.0483 0.4241 -0.0317
C18 C 0.14425(19) 0.2586(3) 0.07557(19)
H16 H 0.1024 0.1742 0.0344
C19 C 0.1310(2) 0.0307(5) 0.6599(2)
H17 H 0.0815 0.0817 0.5949
C20 C 0.5897(2) -0.1768(3) 0.1869(3)
H18 H 0.6360 -0.2635 0.2181
C21 C 0.32363(16) 0.0322(3) 0.37928(15)
C22 C -0.1087(2) 0.0127(6) 0.3204(4)
H19 H -0.1220 -0.0622 0.2582
H20 H -0.1645 0.0979 0.2963
H21 H -0.1225 -0.0350 0.3890
C23 C 0.0886(3) 0.0057(5) 0.7577(2)
H22 H 0.0110 0.0407 0.7579
C24 C 0.1724(2) 0.5337(4) 0.0972(2)
H23 H 0.1497 0.6339 0.0711
C25 C 0.0229(2) 0.0722(4) 0.3485(2)
H24 H 0.0385 0.1152 0.2782
H25 H 0.0346 0.1540 0.4068
loop_
_geom_bond_atom_site_label_1
_geom_bond_atom_site_label_2
_geom_bond_site_symmetry_1
_geom_bond_site_symmetry_2
P1 O1 1_555 1_555
C1 H1 1_555 1_555
C2 H2 1_555 1_555
H3 C2 1_555 1_555
C3 H4 1_555 1_555
C4 H5 1_555 1_555
C5 C3 1_555 1_555
H6 C5 1_555 1_555
C6 H7 1_555 1_555
H8 C6 1_555 1_555
H9 C6 1_555 1_555
C7 H10 1_555 1_555
N1 C13 1_555 1_555
C8 C5 1_555 1_555
H11 C8 1_555 1_555
C9 H12 1_555 1_555
N2 C2 1_555 1_555
C10 C4 1_555 1_555
C11 C9 1_555 1_555
H13 C11 1_555 1_555
C12 C4 1_555 1_555
H14 C12 1_555 1_555
C13 N2 1_555 1_555
C14 C6 1_555 1_555
C15 P1 1_555 1_555
C16 P1 1_555 1_555
C17 H15 1_555 1_555
C18 C16 1_555 1_555
H16 C18 1_555 1_555
C19 C10 1_555 1_555
H17 C19 1_555 1_555
C20 C1 1_555 1_555
H18 C20 1_555 1_555
C21 P1 1_555 1_555
C22 H19 1_555 1_555
H20 C22 1_555 1_555
H21 C22 1_555 1_555
C23 C7 1_555 1_555
H22 C23 1_555 1_555
C24 C11 1_555 1_555
H23 C24 1_555 1_555
C25 C2 1_555 1_555
H24 C25 1_555 1_555
H25 C25 1_555 1_555
C1 C15 1_555 1_555
C3 C20 1_555 1_555
C7 C12 1_555 1_555
N1 C14 1_555 1_555
C8 C15 1_555 1_555
C9 C16 1_555 1_555
N2 C21 1_555 1_555
C10 C13 1_555 1_555
C14 C21 1_555 1_555
C17 C18 1_555 1_555
C17 C24 1_555 1_555
C19 C23 1_555 1_555
C22 C25 1_555 1_555

#END
