
#######################################################################
#
#                 Cambridge Crystallographic Data Centre
#                                CCDC 
#
#######################################################################
#
# If this CIF has been generated from an entry in the Cambridge 
# Structural Database, then it will include bibliographic, chemical, 
# crystal, experimental, refinement or atomic coordinate data resulting 
# from the CCDC's data processing and validation procedures.
#
#######################################################################

data_GUHCUH
_chemical_formula_moiety         'C22 H17 N1 O2'
_chemical_name_systematic        
(Z)-N-(p-Anisyl)-3-(benzylidene)isoindolin-1-one
_chemical_properties_biological  'potential biological activity'
_symmetry_cell_setting           monoclinic
_symmetry_space_group_name_H-M   'P 21/n'
_symmetry_Int_Tables_number      14
_space_group_name_Hall           '-P 2yn'
loop_
_symmetry_equiv_pos_site_id
_symmetry_equiv_pos_as_xyz
1 x,y,z
2 1/2+x,1/2-y,1/2+z
3 -x,-y,-z
4 1/2-x,1/2+y,1/2-z
_cell_length_a                   8.577(6)
_cell_length_b                   10.542(4)
_cell_length_c                   18.272(4)
_cell_angle_alpha                90
_cell_angle_beta                 98.34(4)
_cell_angle_gamma                90
_cell_volume                     1634.66
_exptl_crystal_colour            colorless
_exptl_crystal_description       prism
_chemical_melting_point          441K
_cell_formula_units_Z            4
_exptl_crystal_recrystallization_method ethanol
loop_
_atom_site_label
_atom_site_type_symbol
_atom_site_fract_x
_atom_site_fract_y
_atom_site_fract_z
N1 N 0.9504(2) 0.2242(2) 0.54014(9)
O1 O 0.7774(2) 0.3255(2) 0.44993(9)
O2 O 0.5438(2) -0.0217(2) 0.70398(9)
C1 C 0.8210(2) 0.2044(2) 0.65002(12)
H1 H 0.8797 0.2728 0.6711
C2 C 0.7220(3) 0.1408(2) 0.69022(12)
H2 H 0.7145 0.1657 0.7384
C3 C 0.6331(2) 0.0391(2) 0.65864(12)
C4 C 0.6393(2) 0.0057(2) 0.58609(12)
H3 H 0.5763 -0.0596 0.5640
C5 C 0.7407(2) 0.0703(2) 0.54633(11)
H4 H 0.7455 0.0479 0.4975
C6 C 0.8341(2) 0.1675(2) 0.57860(11)
C7 C 0.9109(3) 0.3039(2) 0.47895(12)
C8 C 1.0624(3) 0.3493(2) 0.45941(12)
C9 C 1.0921(3) 0.4276(2) 0.40179(12)
H5 H 1.0102 0.4630 0.3693
C10 C 1.2477(3) 0.4510(2) 0.39463(14)
H6 H 1.2711 0.5028 0.3565
C11 C 1.3690(3) 0.3987(2) 0.44318(14)
H7 H 1.4726 0.4154 0.4368
C12 C 1.3396(3) 0.3217(2) 0.50124(13)
H8 H 1.4218 0.2875 0.5341
C13 C 1.1837(2) 0.2972(2) 0.50879(11)
C14 C 1.1156(2) 0.2166(2) 0.56185(11)
C15 C 1.1975(2) 0.1509(2) 0.61738(12)
H9 H 1.3058 0.1637 0.6230
C16 C 1.1453(2) 0.0618(2) 0.67117(11)
C17 C 1.1953(2) 0.0786(2) 0.74638(12)
H10 H 1.2626 0.1455 0.7620
C18 C 1.1469(3) -0.0019(2) 0.79830(12)
H11 H 1.1802 0.0117 0.8484
C19 C 1.0487(3) -0.1028(2) 0.77537(13)
H12 H 1.0140 -0.1564 0.8101
C20 C 1.0025(3) -0.1236(2) 0.70116(13)
H13 H 0.9377 -0.1922 0.6858
C21 C 1.0514(2) -0.0433(2) 0.64907(12)
H14 H 1.0215 -0.0595 0.5990
C22 C 0.4659(3) -0.1354(3) 0.6773(2)
H15 H 0.4083 -0.1689 0.7143
H16 H 0.5424 -0.1965 0.6667
H17 H 0.3943 -0.1174 0.6331
loop_
_geom_bond_atom_site_label_1
_geom_bond_atom_site_label_2
_geom_bond_site_symmetry_1
_geom_bond_site_symmetry_2
N1 C6 1_555 1_555
O1 C7 1_555 1_555
O2 C3 1_555 1_555
C1 H1 1_555 1_555
C2 C1 1_555 1_555
H2 C2 1_555 1_555
C3 C2 1_555 1_555
C4 C3 1_555 1_555
H3 C4 1_555 1_555
C5 C4 1_555 1_555
H4 C5 1_555 1_555
C6 C1 1_555 1_555
C7 N1 1_555 1_555
C8 C7 1_555 1_555
C9 C8 1_555 1_555
H5 C9 1_555 1_555
C10 C9 1_555 1_555
H6 C10 1_555 1_555
C11 C10 1_555 1_555
H7 C11 1_555 1_555
C12 C11 1_555 1_555
H8 C12 1_555 1_555
C13 C8 1_555 1_555
C14 N1 1_555 1_555
C15 C14 1_555 1_555
H9 C15 1_555 1_555
C16 C15 1_555 1_555
C17 C16 1_555 1_555
H10 C17 1_555 1_555
C18 C17 1_555 1_555
H11 C18 1_555 1_555
C19 C18 1_555 1_555
H12 C19 1_555 1_555
C20 C19 1_555 1_555
H13 C20 1_555 1_555
C21 C16 1_555 1_555
H14 C21 1_555 1_555
C22 O2 1_555 1_555
H15 C22 1_555 1_555
H16 C22 1_555 1_555
H17 C22 1_555 1_555
C5 C6 1_555 1_555
C12 C13 1_555 1_555
C13 C14 1_555 1_555
C20 C21 1_555 1_555

#END
