
#######################################################################
#
#                 Cambridge Crystallographic Data Centre
#                                CCDC 
#
#######################################################################
#
# If this CIF has been generated from an entry in the Cambridge 
# Structural Database, then it will include bibliographic, chemical, 
# crystal, experimental, refinement or atomic coordinate data resulting 
# from the CCDC's data processing and validation procedures.
#
#######################################################################

data_GUHKOJ
_chemical_formula_moiety         'C32 H26 N4 O4 S2,C3 H6 O1'
_chemical_name_systematic        
'(1R,2R)-1,2-Diphenyl-1,2-bis(8-quinolinesulfonylamino)ethylenediamine acetone solvate'
_symmetry_cell_setting           monoclinic
_symmetry_space_group_name_H-M   'P 21'
_symmetry_Int_Tables_number      4
_space_group_name_Hall           'P 2yb'
loop_
_symmetry_equiv_pos_site_id
_symmetry_equiv_pos_as_xyz
1 x,y,z
2 -x,1/2+y,-z
_cell_length_a                   9.717(2)
_cell_length_b                   9.4950(10)
_cell_length_c                   17.542(3)
_cell_angle_alpha                90
_cell_angle_beta                 97.130(10)
_cell_angle_gamma                90
_cell_volume                     1605.96
_exptl_crystal_colour            colorless
_exptl_crystal_description       flake
_cell_formula_units_Z            2
loop_
_atom_site_label
_atom_site_type_symbol
_atom_site_fract_x
_atom_site_fract_y
_atom_site_fract_z
S1 S 0.77133(6) 0.13569(7) 0.29480(3)
S2 S 0.46361(7) 0.59288(7) 0.24829(3)
O1 O 0.81699(18) 0.1436(2) 0.37498(9)
O2 O 0.63801(16) 0.0750(2) 0.26972(10)
O3 O 0.32708(19) 0.5603(3) 0.26519(11)
O4 O 0.4834(2) 0.7064(2) 0.19724(11)
N1 N 0.7677(2) 0.2949(3) 0.26177(12)
N2 N 1.0766(2) 0.1945(3) 0.29681(12)
N3 N 0.5276(2) 0.4517(3) 0.21404(13)
N4 N 0.5346(2) 0.3919(2) 0.37985(12)
C1 C 0.8464(3) 0.2347(4) 0.06880(16)
H1 H 0.7695 0.1781 0.0541
C2 C 0.9575(4) 0.2344(4) 0.02586(19)
H2 H 0.9554 0.1766 -0.0171
C3 C 1.0703(4) 0.3193(4) 0.0468(2)
H3 H 1.1431 0.3210 0.0170
C4 C 1.0758(3) 0.4011(4) 0.11105(18)
H4 H 1.1536 0.4563 0.1259
C5 C 0.9655(3) 0.4021(3) 0.15418(15)
H5 H 0.9691 0.4591 0.1975
C6 C 0.8503(3) 0.3192(3) 0.13343(13)
C7 C 0.7269(2) 0.3202(3) 0.17945(13)
H6 H 0.6639 0.2444 0.1598
C8 C 0.8923(2) 0.0335(3) 0.25102(13)
C9 C 0.8478(3) -0.0844(3) 0.21041(16)
H7 H 0.7542 -0.1077 0.2045
C10 C 0.9418(4) -0.1705(4) 0.17759(18)
H8 H 0.9100 -0.2489 0.1489
C11 C 1.0787(3) -0.1398(4) 0.18756(18)
H9 H 1.1406 -0.2005 0.1679
C12 C 1.1292(3) -0.0186(4) 0.22689(15)
C13 C 1.0358(2) 0.0723(3) 0.25941(13)
C14 C 1.2098(3) 0.2253(4) 0.30157(15)
H10 H 1.2395 0.3096 0.3251
C15 C 1.3095(3) 0.1395(5) 0.27354(17)
H11 H 1.4024 0.1659 0.2803
C16 C 1.2710(3) 0.0198(4) 0.23711(17)
H12 H 1.3368 -0.0379 0.2186
C17 C 0.6778(3) 0.5524(3) 0.03745(14)
H13 H 0.7598 0.5949 0.0589
C18 C 0.6392(3) 0.5595(4) -0.04114(15)
H14 H 0.6952 0.6067 -0.0720
C19 C 0.5200(3) 0.4979(4) -0.07322(14)
H15 H 0.4942 0.5027 -0.1260
C20 C 0.4380(3) 0.4288(5) -0.02752(16)
H16 H 0.3564 0.3863 -0.0495
C21 C 0.4749(3) 0.4211(4) 0.05077(14)
H17 H 0.4179 0.3740 0.0812
C22 C 0.5961(2) 0.4832(3) 0.08436(13)
C23 C 0.6458(2) 0.4613(3) 0.16909(12)
H18 H 0.7064 0.5393 0.1883
C24 C 0.5654(3) 0.6295(3) 0.33742(13)
C25 C 0.6184(3) 0.7616(3) 0.34956(17)
H19 H 0.6031 0.8294 0.3111
C26 C 0.6964(4) 0.7955(4) 0.42025(18)
H20 H 0.7331 0.8855 0.4283
C27 C 0.7181(3) 0.6976(4) 0.47662(18)
H21 H 0.7695 0.7213 0.5231
C28 C 0.6639(3) 0.5600(3) 0.46587(15)
C29 C 0.5862(3) 0.5236(3) 0.39472(14)
C30 C 0.5557(3) 0.2990(3) 0.43453(15)
H22 H 0.5220 0.2084 0.4243
C31 C 0.6259(3) 0.3262(4) 0.50787(17)
H23 H 0.6346 0.2562 0.5452
C32 C 0.6800(3) 0.4539(4) 0.52334(15)
H24 H 0.7280 0.4732 0.5714
H31 H 0.834(3) 0.341(3) 0.2766(15)
H32 H 0.535(3) 0.390(3) 0.2437(15)
O5 O 0.9053(2) 0.5499(3) 0.32269(12)
C33 C 0.9916(3) 0.5811(4) 0.37568(17)
C34 C 1.0509(4) 0.7258(5) 0.3805(2)
H25 H 1.1350 0.7273 0.3570
H26 H 1.0707 0.7530 0.4335
H27 H 0.9854 0.7904 0.3543
C35 C 1.0382(5) 0.4750(6) 0.4339(2)
H28 H 0.9856 0.3901 0.4234
H29 H 1.0247 0.5098 0.4838
H30 H 1.1348 0.4555 0.4325
loop_
_geom_bond_atom_site_label_1
_geom_bond_atom_site_label_2
_geom_bond_site_symmetry_1
_geom_bond_site_symmetry_2
S1 O1 1_555 1_555
S2 O3 1_555 1_555
O2 S1 1_555 1_555
O4 S2 1_555 1_555
N1 S1 1_555 1_555
N2 C13 1_555 1_555
N3 S2 1_555 1_555
N4 C29 1_555 1_555
C1 H1 1_555 1_555
C2 C1 1_555 1_555
H2 C2 1_555 1_555
C3 C2 1_555 1_555
H3 C3 1_555 1_555
C4 C3 1_555 1_555
H4 C4 1_555 1_555
C5 C4 1_555 1_555
H5 C5 1_555 1_555
C6 C1 1_555 1_555
C7 N1 1_555 1_555
H6 C7 1_555 1_555
C8 S1 1_555 1_555
C9 C8 1_555 1_555
H7 C9 1_555 1_555
C10 C9 1_555 1_555
H8 C10 1_555 1_555
C11 C10 1_555 1_555
H9 C11 1_555 1_555
C12 C11 1_555 1_555
C13 C8 1_555 1_555
C14 N2 1_555 1_555
H10 C14 1_555 1_555
C15 C14 1_555 1_555
H11 C15 1_555 1_555
C16 C12 1_555 1_555
H12 C16 1_555 1_555
C17 H13 1_555 1_555
C18 C17 1_555 1_555
H14 C18 1_555 1_555
C19 C18 1_555 1_555
H15 C19 1_555 1_555
C20 C19 1_555 1_555
H16 C20 1_555 1_555
C21 C20 1_555 1_555
H17 C21 1_555 1_555
C22 C17 1_555 1_555
C23 N3 1_555 1_555
H18 C23 1_555 1_555
C24 S2 1_555 1_555
C25 C24 1_555 1_555
H19 C25 1_555 1_555
C26 C25 1_555 1_555
H20 C26 1_555 1_555
C27 C26 1_555 1_555
H21 C27 1_555 1_555
C28 C27 1_555 1_555
C29 C24 1_555 1_555
C30 N4 1_555 1_555
H22 C30 1_555 1_555
C31 C30 1_555 1_555
H23 C31 1_555 1_555
C32 C28 1_555 1_555
H24 C32 1_555 1_555
O5 C33 1_555 1_555
C33 C34 1_555 1_555
C34 H25 1_555 1_555
H26 C34 1_555 1_555
H27 C34 1_555 1_555
C35 C33 1_555 1_555
H28 C35 1_555 1_555
H29 C35 1_555 1_555
H30 C35 1_555 1_555
H31 N1 1_555 1_555
H32 N3 1_555 1_555
C5 C6 1_555 1_555
C6 C7 1_555 1_555
C7 C23 1_555 1_555
C12 C13 1_555 1_555
C15 C16 1_555 1_555
C21 C22 1_555 1_555
C22 C23 1_555 1_555
C28 C29 1_555 1_555
C31 C32 1_555 1_555

#END
