
#######################################################################
#
#                 Cambridge Crystallographic Data Centre
#                                CCDC 
#
#######################################################################
#
# If this CIF has been generated from an entry in the Cambridge 
# Structural Database, then it will include bibliographic, chemical, 
# crystal, experimental, refinement or atomic coordinate data resulting 
# from the CCDC's data processing and validation procedures.
#
#######################################################################

data_GUHLUR
_chemical_formula_moiety         
'C40 H44 N24 O12,C5 H10 N1 O4 1+,Cl1 1-,13(H2 O1)'
_chemical_name_systematic        
"\a,\a',\f,\f'-Tetramethylcucurbit(6)uril L-glutamic acid clathrate chloride tridecahydrate"
_symmetry_cell_setting           monoclinic
_symmetry_space_group_name_H-M   'P 21'
_symmetry_Int_Tables_number      4
_space_group_name_Hall           'P 2yb'
loop_
_symmetry_equiv_pos_site_id
_symmetry_equiv_pos_as_xyz
1 x,y,z
2 -x,1/2+y,-z
_cell_length_a                   13.311(3)
_cell_length_b                   16.961(4)
_cell_length_c                   14.964(4)
_cell_angle_alpha                90
_cell_angle_beta                 108.798(4)
_cell_angle_gamma                90
_cell_volume                     3198.19
_cell_formula_units_Z            2
loop_
_atom_site_label
_atom_site_type_symbol
_atom_site_fract_x
_atom_site_fract_y
_atom_site_fract_z
O1 O 0.4560(4) 0.0114(4) -0.0308(4)
O2 O 0.2838(4) 0.4576(4) -0.4563(4)
O3 O 0.3601(6) 0.2450(5) -0.6652(5)
O4 O 0.6314(5) 0.0625(4) 0.3075(4)
O5 O 1.1503(5) 0.1912(6) 0.2695(5)
O6 O 0.1547(5) -0.1073(5) -0.6245(6)
O7 O 0.1882(5) -0.1612(5) -0.4378(6)
O8 O 0.2547(10) 0.0384(6) -0.6752(7)
O9 O 0.7555(6) 0.1740(5) -0.5664(5)
O10 O -0.0039(6) -0.0017(7) -0.6302(6)
O11 O 0.4211(8) 0.1036(9) 0.2538(6)
O12 O -0.0639(5) -0.0338(6) -0.4732(5)
O13 O -0.0783(7) 0.1517(6) -0.6454(6)
Cl1 Cl 0.99510(18) -0.17881(16) -0.33355(16)
C1 C 0.3272(5) -0.0319(4) -0.2950(5)
C2 C 0.4634(4) -0.1125(4) -0.3270(5)
H1 H 0.4476 -0.1450 -0.3831
H2 H 0.4514 -0.1441 -0.2774
C3 C 0.6434(5) -0.1175(4) -0.2147(5)
C4 C 0.8379(5) -0.1267(4) -0.1399(5)
H3 H 0.8868 -0.1514 -0.1673
H4 H 0.8163 -0.1663 -0.1030
C5 C 0.8632(5) -0.0407(4) 0.0001(5)
C6 C 0.9104(5) 0.0537(5) 0.1282(5)
H5 H 0.9808 0.0656 0.1710
H6 H 0.8801 0.0129 0.1571
C7 C 0.7494(5) 0.1240(5) 0.1332(4)
C8 C 0.6246(5) 0.2260(5) 0.1558(5)
H7 H 0.6023 0.1825 0.1870
H8 H 0.6439 0.2696 0.2000
C9 C 0.4426(5) 0.2085(4) 0.0453(4)
C10 C 0.2573(4) 0.2342(4) -0.0517(5)
H9 H 0.2182 0.2806 -0.0440
H10 H 0.2454 0.1933 -0.0109
C11 C 0.2133(5) 0.1301(5) -0.1733(5)
C12 C 0.1637(5) 0.0468(5) -0.3132(5)
H11 H 0.1535 0.0073 -0.2699
H12 H 0.1010 0.0464 -0.3689
C13 C 0.3846(5) 0.1288(5) -0.4632(4)
C14 C 0.5252(5) 0.0388(5) -0.4741(4)
H13 H 0.5447 0.0858 -0.5015
H14 H 0.5078 -0.0020 -0.5222
C15 C 0.7104(4) 0.0511(5) -0.3686(4)
C16 C 0.8971(4) 0.0242(4) -0.2707(4)
H15 H 0.9391 -0.0202 -0.2792
H16 H 0.9119 0.0685 -0.3055
C17 C 0.9430(4) 0.1215(5) -0.1423(4)
C18 C 0.9973(5) 0.1979(4) 0.0035(5)
H17 H 1.0144 0.2377 -0.0360
H18 H 1.0580 0.1934 0.0604
C19 C 0.8352(4) 0.2811(4) -0.0234(5)
C20 C 0.6938(4) 0.3634(4) 0.0022(5)
H19 H 0.7091 0.3937 -0.0469
H20 H 0.7076 0.3970 0.0573
C21 C 0.5169(4) 0.3641(4) -0.1182(5)
C22 C 0.3209(5) 0.3736(4) -0.1979(5)
H21 H 0.3426 0.4076 -0.2404
H22 H 0.2719 0.4030 -0.1747
C23 C 0.2825(4) 0.2817(4) -0.3318(4)
C24 C 0.2158(5) 0.1875(5) -0.4607(4)
H23 H 0.1442 0.1711 -0.4960
H24 H 0.2362 0.2281 -0.4972
C25 C 0.2598(5) 0.0423(4) -0.4354(4)
H25 H 0.1956 0.0247 -0.4849
C26 C 0.3591(5) -0.0063(4) -0.4364(4)
H26 H 0.3417 -0.0435 -0.4893
C27 C 0.6273(4) -0.0682(4) -0.3653(4)
H27 H 0.6082 -0.1039 -0.4197
C28 C 0.7472(4) -0.0752(4) -0.3066(4)
H28 H 0.7841 -0.1131 -0.3344
C29 C 0.9722(4) -0.0105(5) -0.0916(4)
C30 C 1.0009(5) 0.0455(4) -0.0032(5)
C31 C 0.8881(4) 0.2034(4) 0.1155(4)
H29 H 0.9505 0.2122 0.1711
C32 C 0.7940(4) 0.2561(4) 0.1170(4)
H30 H 0.8163 0.2941 0.1690
C33 C 0.5259(4) 0.3278(4) 0.0367(4)
H31 H 0.5427 0.3676 0.0867
C34 C 0.4077(4) 0.3332(4) -0.0278(4)
H32 H 0.3681 0.3727 -0.0049
C35 C 0.1795(4) 0.2606(4) -0.2307(4)
C36 C 0.1466(4) 0.1986(4) -0.3166(4)
C37 C 0.0287(5) 0.2015(5) -0.3784(5)
H33 H 0.0135 0.2517 -0.4096
H34 H -0.0153 0.1943 -0.3394
H35 H 0.0147 0.1603 -0.4248
C38 C 0.0927(5) 0.3155(5) -0.2254(5)
H36 H 0.0723 0.3491 -0.2799
H37 H 0.1179 0.3472 -0.1694
H38 H 0.0324 0.2853 -0.2234
C39 C 1.1115(5) 0.0380(5) 0.0663(5)
H39 H 1.1210 -0.0140 0.0931
H40 H 1.1213 0.0762 0.1156
H41 H 1.1625 0.0469 0.0344
C40 C 1.0629(5) -0.0573(5) -0.1050(5)
H42 H 1.1146 -0.0218 -0.1146
H43 H 1.0365 -0.0910 -0.1590
H44 H 1.0953 -0.0887 -0.0498
N1 N 0.2545(4) 0.0247(4) -0.3407(4)
N2 N 0.3927(4) -0.0470(4) -0.3461(4)
N3 N 0.5741(4) -0.0896(4) -0.2984(4)
N4 N 0.7453(4) -0.1004(4) -0.2152(4)
N5 N 0.8930(4) -0.0635(4) -0.0771(4)
N6 N 0.9196(4) 0.0242(4) 0.0408(4)
N7 N 0.8449(4) 0.1241(4) 0.1152(4)
N8 N 0.7178(4) 0.2020(4) 0.1310(4)
N9 N 0.5363(4) 0.2499(4) 0.0744(4)
N10 N 0.3690(4) 0.2530(4) -0.0214(4)
N11 N 0.2150(4) 0.2075(4) -0.1495(4)
N12 N 0.1724(4) 0.1241(4) -0.2683(4)
N13 N 0.2861(4) 0.1211(4) -0.4509(4)
N14 N 0.4323(4) 0.0554(3) -0.4465(4)
N15 N 0.6156(4) 0.0130(3) -0.3947(3)
N16 N 0.7854(4) 0.0042(4) -0.3092(4)
N17 N 0.9288(4) 0.0442(4) -0.1716(4)
N18 N 0.9835(4) 0.1237(4) -0.0457(4)
N19 N 0.9075(4) 0.2258(3) 0.0298(4)
N20 N 0.7642(4) 0.2966(3) 0.0259(4)
N21 N 0.5827(3) 0.3420(4) -0.0299(4)
N22 N 0.4135(4) 0.3528(4) -0.1188(4)
N23 N 0.2658(4) 0.3044(4) -0.2506(4)
N24 N 0.2159(4) 0.2210(4) -0.3716(4)
O14 O 0.3304(3) -0.0618(3) -0.2205(3)
O15 O 0.6206(3) -0.1511(3) -0.1527(3)
O16 O 0.7989(3) -0.0765(3) 0.0285(3)
O17 O 0.7043(3) 0.0663(3) 0.1505(3)
O18 O 0.4266(4) 0.1441(3) 0.0750(3)
O19 O 0.2395(4) 0.0761(3) -0.1168(3)
O20 O 0.4222(3) 0.1864(3) -0.4860(3)
O21 O 0.7254(3) 0.1196(3) -0.3926(3)
O22 O 0.9222(3) 0.1789(3) -0.1956(3)
O23 O 0.8369(3) 0.3117(3) -0.0950(3)
O24 O 0.5450(3) 0.3892(3) -0.1816(3)
O25 O 0.3449(3) 0.3130(3) -0.3661(3)
C41 C 0.5571(6) 0.1254(5) -0.1620(5)
C42 C 0.6349(5) 0.1798(5) -0.1870(5)
H45 H 0.6598 0.2193 -0.1379
H46 H 0.6958 0.1493 -0.1889
C43 C 0.5877(5) 0.2202(5) -0.2795(5)
H47 H 0.5168 0.2379 -0.2844
H48 H 0.5811 0.1824 -0.3298
C44 C 0.6520(5) 0.2911(6) -0.2944(6)
H49 H 0.6602 0.3296 -0.2437
C45 C 0.5978(6) 0.3305(7) -0.3905(10)
N25 N 0.7570(4) 0.2664(3) -0.2963(4)
H50 H 0.7975 0.2534 -0.2383
H51 H 0.7871 0.3059 -0.3175
H52 H 0.7500 0.2250 -0.3343
O26 O 0.6050(4) 0.0756(4) -0.0940(5)
H53 H 0.5606 0.0474 -0.0826
O27 O 0.4630(4) 0.1297(5) -0.1979(5)
O28 O 0.5185(7) 0.3776(10) -0.3873(12)
H54 H 0.5135 0.3766 -0.3341
O29 O 0.6271(7) 0.3262(7) -0.4543(5)
loop_
_geom_bond_atom_site_label_1
_geom_bond_atom_site_label_2
_geom_bond_site_symmetry_1
_geom_bond_site_symmetry_2
C1 N1 1_555 1_555
C2 H1 1_555 1_555
H2 C2 1_555 1_555
C3 N3 1_555 1_555
C4 H3 1_555 1_555
H4 C4 1_555 1_555
C5 N5 1_555 1_555
C6 H5 1_555 1_555
H6 C6 1_555 1_555
C7 N7 1_555 1_555
C8 H7 1_555 1_555
H8 C8 1_555 1_555
C9 N9 1_555 1_555
C10 H9 1_555 1_555
H10 C10 1_555 1_555
C11 N11 1_555 1_555
C12 H11 1_555 1_555
H12 C12 1_555 1_555
C13 N13 1_555 1_555
C14 H13 1_555 1_555
H14 C14 1_555 1_555
C15 N15 1_555 1_555
C16 H15 1_555 1_555
H16 C16 1_555 1_555
C17 N17 1_555 1_555
C18 H17 1_555 1_555
H18 C18 1_555 1_555
C19 N19 1_555 1_555
C20 H19 1_555 1_555
H20 C20 1_555 1_555
C21 N21 1_555 1_555
C22 H21 1_555 1_555
H22 C22 1_555 1_555
C23 N23 1_555 1_555
C24 H23 1_555 1_555
H24 C24 1_555 1_555
C25 H25 1_555 1_555
C26 C25 1_555 1_555
H26 C26 1_555 1_555
C27 H27 1_555 1_555
C28 C27 1_555 1_555
H28 C28 1_555 1_555
C29 C30 1_555 1_555
C30 C39 1_555 1_555
C31 H29 1_555 1_555
C32 C31 1_555 1_555
H30 C32 1_555 1_555
C33 H31 1_555 1_555
C34 C33 1_555 1_555
H32 C34 1_555 1_555
C35 C36 1_555 1_555
C36 C37 1_555 1_555
C37 H33 1_555 1_555
H34 C37 1_555 1_555
H35 C37 1_555 1_555
C38 C35 1_555 1_555
H36 C38 1_555 1_555
H37 C38 1_555 1_555
H38 C38 1_555 1_555
C39 H39 1_555 1_555
H40 C39 1_555 1_555
H41 C39 1_555 1_555
C40 C29 1_555 1_555
H42 C40 1_555 1_555
H43 C40 1_555 1_555
H44 C40 1_555 1_555
N1 C12 1_555 1_555
N2 C1 1_555 1_555
N3 C2 1_555 1_555
N4 C3 1_555 1_555
N5 C4 1_555 1_555
N6 C5 1_555 1_555
N7 C6 1_555 1_555
N8 C7 1_555 1_555
N9 C8 1_555 1_555
N10 C9 1_555 1_555
N11 C10 1_555 1_555
N12 C11 1_555 1_555
N13 C24 1_555 1_555
N14 C13 1_555 1_555
N15 C14 1_555 1_555
N16 C15 1_555 1_555
N17 C16 1_555 1_555
N18 C17 1_555 1_555
N19 C18 1_555 1_555
N20 C19 1_555 1_555
N21 C20 1_555 1_555
N22 C21 1_555 1_555
N23 C22 1_555 1_555
N24 C23 1_555 1_555
O14 C1 1_555 1_555
O15 C3 1_555 1_555
O16 C5 1_555 1_555
O17 C7 1_555 1_555
O18 C9 1_555 1_555
O19 C11 1_555 1_555
O20 C13 1_555 1_555
O21 C15 1_555 1_555
O22 C17 1_555 1_555
O23 C19 1_555 1_555
O24 C21 1_555 1_555
O25 C23 1_555 1_555
C41 C42 1_555 1_555
C42 H45 1_555 1_555
H46 C42 1_555 1_555
C43 C42 1_555 1_555
H47 C43 1_555 1_555
H48 C43 1_555 1_555
C44 C43 1_555 1_555
H49 C44 1_555 1_555
C45 C44 1_555 1_555
N25 C44 1_555 1_555
H50 N25 1_555 1_555
H51 N25 1_555 1_555
H52 N25 1_555 1_555
O26 C41 1_555 1_555
H53 O26 1_555 1_555
O27 C41 1_555 1_555
O28 C45 1_555 1_555
H54 O28 1_555 1_555
O29 C45 1_555 1_555
C2 N2 1_555 1_555
C4 N4 1_555 1_555
C6 N6 1_555 1_555
C8 N8 1_555 1_555
C10 N10 1_555 1_555
C12 N12 1_555 1_555
C14 N14 1_555 1_555
C16 N16 1_555 1_555
C18 N18 1_555 1_555
C20 N20 1_555 1_555
C22 N22 1_555 1_555
C24 N24 1_555 1_555
C25 N1 1_555 1_555
C25 N13 1_555 1_555
C26 N2 1_555 1_555
C26 N14 1_555 1_555
C27 N3 1_555 1_555
C27 N15 1_555 1_555
C28 N4 1_555 1_555
C28 N16 1_555 1_555
C29 N5 1_555 1_555
C29 N17 1_555 1_555
C30 N6 1_555 1_555
C30 N18 1_555 1_555
C31 N7 1_555 1_555
C31 N19 1_555 1_555
C32 N8 1_555 1_555
C32 N20 1_555 1_555
C33 N9 1_555 1_555
C33 N21 1_555 1_555
C34 N10 1_555 1_555
C34 N22 1_555 1_555
C35 N11 1_555 1_555
C35 N23 1_555 1_555
C36 N12 1_555 1_555
C36 N24 1_555 1_555

#END
