
#######################################################################
#
#                 Cambridge Crystallographic Data Centre
#                                CCDC 
#
#######################################################################
#
# If this CIF has been generated from an entry in the Cambridge 
# Structural Database, then it will include bibliographic, chemical, 
# crystal, experimental, refinement or atomic coordinate data resulting 
# from the CCDC's data processing and validation procedures.
#
#######################################################################

data_GUHSAE
_chemical_formula_moiety         'C25 H27 N1 O5 S1'
_chemical_name_systematic        
'Ethyl 2,2-dimethyl-5-(p-tosyl)-4-phenyl-2a,5,5a,5b-tetrahydro-1-oxa-5-azacyclopropa[cd]indene-2b(2H)-carboxylate'
_symmetry_cell_setting           monoclinic
_symmetry_space_group_name_H-M   'P 21'
_symmetry_Int_Tables_number      4
_space_group_name_Hall           'P 2yb'
loop_
_symmetry_equiv_pos_site_id
_symmetry_equiv_pos_as_xyz
1 x,y,z
2 -x,1/2+y,-z
_cell_length_a                   10.600(2)
_cell_length_b                   11.071(2)
_cell_length_c                   10.732(2)
_cell_angle_alpha                90
_cell_angle_beta                 112.15(3)
_cell_angle_gamma                90
_cell_volume                     1166.48
_cell_formula_units_Z            2
loop_
_atom_site_label
_atom_site_type_symbol
_atom_site_fract_x
_atom_site_fract_y
_atom_site_fract_z
S1 S -0.51357(8) 0.63649(7) 0.55527(8)
O1 O -0.5359(2) 0.7564(2) 0.5924(3)
O2 O -0.6269(2) 0.5561(2) 0.4954(3)
O3 O -0.3449(2) 0.3900(2) 0.8099(2)
O4 O 0.0002(3) 0.4649(3) 0.6070(3)
N1 N -0.4110(3) 0.5693(2) 0.6947(3)
C1 C -0.4204(3) 0.6446(3) 0.4509(3)
C2 C -0.3239(4) 0.7367(3) 0.4722(4)
H1 H -0.3162 0.7978 0.5342
C3 C -0.2408(4) 0.7353(3) 0.3999(4)
H2 H -0.1766 0.7963 0.4135
C4 C -0.2509(4) 0.6448(4) 0.3069(3)
C5 C -0.3516(4) 0.5576(3) 0.2833(4)
H3 H -0.3622 0.4989 0.2182
C6 C -0.4363(4) 0.5563(3) 0.3545(4)
H4 H -0.5029 0.4972 0.3380
C7 C -0.1545(4) 0.6416(5) 0.2337(4)
H5 H -0.0934 0.7092 0.2612
H6 H -0.2055 0.6459 0.1385
H7 H -0.1032 0.5678 0.2547
C8 C -0.2993(3) 0.6393(3) 0.7867(3)
C9 C -0.3356(3) 0.7306(3) 0.8695(3)
C10 C -0.4385(4) 0.7077(3) 0.9167(4)
H8 H -0.4919 0.6389 0.8880
C11 C -0.4627(4) 0.7859(4) 1.0061(4)
H9 H -0.5320 0.7699 1.0371
C12 C -0.3830(5) 0.8878(4) 1.0486(4)
H10 H -0.3968 0.9396 1.1105
C13 C -0.2839(5) 0.9129(3) 1.0003(4)
H11 H -0.2317 0.9825 1.0284
C14 C -0.2604(4) 0.8362(3) 0.9102(4)
H12 H -0.1938 0.8552 0.8765
C15 C -0.1720(3) 0.6085(3) 0.8083(3)
H13 H -0.1021 0.6508 0.8732
C16 C -0.1352(4) 0.5103(3) 0.7346(4)
C17 C -0.2496(4) 0.4288(3) 0.6470(4)
H14 H -0.2574 0.4062 0.5561
C18 C -0.1418(4) 0.3753(3) 0.7680(4)
H15 H -0.0761 0.3205 0.7534
C19 C -0.2092(4) 0.3343(3) 0.8626(4)
C20 C -0.3744(3) 0.4411(3) 0.6814(3)
H16 H -0.4517 0.3993 0.6143
C21 C -0.2264(4) 0.1967(4) 0.8523(5)
H17 H -0.2701 0.1739 0.7595
H18 H -0.2814 0.1712 0.9010
H19 H -0.1386 0.1588 0.8899
C22 C -0.1410(4) 0.3751(4) 1.0068(4)
H20 H -0.1320 0.4615 1.0096
H21 H -0.0525 0.3388 1.0459
H22 H -0.1953 0.3511 1.0567
C23 C -0.0246(4) 0.5306(4) 0.6832(4)
O5 O 0.0574(4) 0.6253(4) 0.7530(5)
C24 C 0.1751(5) 0.6530(5) 0.7209(7)
H23 H 0.2045 0.5812 0.6875
H24 H 0.2496 0.6802 0.8010
C25 C 0.1374(9) 0.7501(8) 0.6158(8)
H25 H 0.0652 0.7218 0.5361
H26 H 0.2153 0.7701 0.5948
H27 H 0.1076 0.8205 0.6492
C26? C 0.1264(13) 0.6553(11) 0.6305(15)
C27? C 0.188(2) 0.7765(13) 0.680(2)
H28? H 0.0862 0.6529 0.5330
H29? H 0.1934 0.5914 0.6629
H30? H 0.1168 0.8361 0.6585
H31? H 0.2502 0.7976 0.6383
H32? H 0.2355 0.7735 0.7761
O6? O 0.0215(10) 0.6460(8) 0.6893(11)
loop_
_geom_bond_atom_site_label_1
_geom_bond_atom_site_label_2
_geom_bond_site_symmetry_1
_geom_bond_site_symmetry_2
S1 O1 1_555 1_555
O2 S1 1_555 1_555
O3 C19 1_555 1_555
O4 C23 1_555 1_555
N1 S1 1_555 1_555
C1 S1 1_555 1_555
C2 C1 1_555 1_555
H1 C2 1_555 1_555
C3 C2 1_555 1_555
H2 C3 1_555 1_555
C4 C3 1_555 1_555
C5 C4 1_555 1_555
H3 C5 1_555 1_555
C6 C1 1_555 1_555
H4 C6 1_555 1_555
C7 C4 1_555 1_555
H5 C7 1_555 1_555
H6 C7 1_555 1_555
H7 C7 1_555 1_555
C8 N1 1_555 1_555
C9 C8 1_555 1_555
C10 C9 1_555 1_555
H8 C10 1_555 1_555
C11 C10 1_555 1_555
H9 C11 1_555 1_555
C12 C11 1_555 1_555
H10 C12 1_555 1_555
C13 C12 1_555 1_555
H11 C13 1_555 1_555
C14 C9 1_555 1_555
H12 C14 1_555 1_555
C15 C8 1_555 1_555
H13 C15 1_555 1_555
C16 C15 1_555 1_555
C17 C16 1_555 1_555
H14 C17 1_555 1_555
C18 C16 1_555 1_555
H15 C18 1_555 1_555
C19 C18 1_555 1_555
C20 O3 1_555 1_555
H16 C20 1_555 1_555
C21 C19 1_555 1_555
H17 C21 1_555 1_555
H18 C21 1_555 1_555
H19 C21 1_555 1_555
C22 C19 1_555 1_555
H20 C22 1_555 1_555
H21 C22 1_555 1_555
H22 C22 1_555 1_555
C23 C16 1_555 1_555
O5 C23 1_555 1_555
C24 O5 1_555 1_555
H23 C24 1_555 1_555
H24 C24 1_555 1_555
C25 C24 1_555 1_555
H25 C25 1_555 1_555
H26 C25 1_555 1_555
H27 C25 1_555 1_555
N1 C20 1_555 1_555
C5 C6 1_555 1_555
C13 C14 1_555 1_555
C17 C18 1_555 1_555
C17 C20 1_555 1_555

#END
