
#######################################################################
#
#                 Cambridge Crystallographic Data Centre
#                                CCDC 
#
#######################################################################
#
# If this CIF has been generated from an entry in the Cambridge 
# Structural Database, then it will include bibliographic, chemical, 
# crystal, experimental, refinement or atomic coordinate data resulting 
# from the CCDC's data processing and validation procedures.
#
#######################################################################

data_GUHXIR
_chemical_formula_moiety         'C23 H23 N3 O3'
_chemical_name_systematic        
2-n-Butyl-5-(3-hydroxyphenyl)-5,6,11,11a-tetrahydro-1H-imidazo[1',5':1,6]pyrido[3,4-b]indole-1,3(2H)-dione
_chemical_properties_biological  
'tested for inhibitory activity against Toxoplasma gondii cell invasion'
_symmetry_cell_setting           orthorhombic
_symmetry_space_group_name_H-M   'P 21 21 21'
_symmetry_Int_Tables_number      19
_space_group_name_Hall           'P 2ac 2ab'
loop_
_symmetry_equiv_pos_site_id
_symmetry_equiv_pos_as_xyz
1 x,y,z
2 1/2-x,-y,1/2+z
3 -x,1/2+y,1/2-z
4 1/2+x,1/2-y,-z
_cell_length_a                   7.9563(12)
_cell_length_b                   8.4315(12)
_cell_length_c                   28.798(4)
_cell_angle_alpha                90
_cell_angle_beta                 90
_cell_angle_gamma                90
_cell_volume                     1931.87
_exptl_crystal_colour            colorless
_exptl_crystal_description       platelet
_cell_formula_units_Z            4
loop_
_atom_site_label
_atom_site_type_symbol
_atom_site_fract_x
_atom_site_fract_y
_atom_site_fract_z
N1 N 0.3467(7) 0.4641(7) 0.03079(18)
H1 H 0.2345 0.4488 0.0441
C1 C 0.4958(8) 0.4150(8) 0.0506(2)
C2 C 0.5044(8) 0.3463(8) 0.0986(2)
H2 H 0.4304 0.2506 0.1002
N2 N 0.6817(7) 0.2971(6) 0.10453(17)
C3 C 0.7362(9) 0.1905(8) 0.1358(2)
O1 O 0.6526(6) 0.1014(5) 0.15985(15)
N3 N 0.9139(7) 0.1977(7) 0.13622(19)
C4 C 0.9694(9) 0.3095(8) 0.1054(2)
O2 O 1.1156(6) 0.3325(6) 0.09539(17)
C5 C 0.8157(8) 0.3955(8) 0.0863(2)
H3 H 0.8086 0.5022 0.1014
C6 C 0.8060(8) 0.4172(8) 0.0345(2)
H4 H 0.8803 0.5051 0.0245
H5 H 0.8421 0.3191 0.0184
C7 C 0.6283(9) 0.4541(8) 0.0229(2)
C8 C 0.5599(9) 0.5355(9) -0.0170(2)
C9 C 0.6289(10) 0.6129(9) -0.0552(2)
H6 H 0.7473 0.6168 -0.0593
C10 C 0.5233(10) 0.6844(9) -0.0873(2)
H7 H 0.5694 0.7376 -0.1135
C11 C 0.3499(11) 0.6784(8) -0.0813(2)
H8 H 0.2792 0.7260 -0.1039
C12 C 0.2780(10) 0.6052(9) -0.0434(2)
H9 H 0.1593 0.6015 -0.0401
C13 C 0.3813(9) 0.5375(8) -0.0105(2)
C14 C 0.4539(8) 0.4625(8) 0.1366(2)
C15 C 0.4102(9) 0.4040(9) 0.1802(2)
H10 H 0.4014 0.2927 0.1848
C16 C 0.3797(8) 0.5053(8) 0.2168(2)
O3 O 0.3363(7) 0.4375(6) 0.25824(16)
H11 H 0.3499 0.5152 0.2833
C17 C 0.3891(9) 0.6678(9) 0.2097(2)
H12 H 0.3684 0.7384 0.2348
C18 C 0.4282(9) 0.7273(9) 0.1665(2)
H13 H 0.4328 0.8387 0.1618
C19 C 0.4604(9) 0.6260(8) 0.1303(2)
H14 H 0.4875 0.6680 0.1006
C20 C 1.0191(9) 0.0995(9) 0.1659(2)
H15 H 1.1324 0.0915 0.1519
H16 H 0.9709 -0.0087 0.1672
C21 C 1.0356(10) 0.1616(9) 0.2140(2)
H17 H 0.9229 0.1672 0.2285
H18 H 1.0821 0.2705 0.2130
C22 C 1.1500(10) 0.0568(9) 0.2437(2)
H19 H 1.1189 -0.0556 0.2387
H20 H 1.2675 0.0707 0.2332
C23 C 1.1403(11) 0.0929(11) 0.2951(2)
H21 H 1.2155 0.0215 0.3121
H22 H 1.0247 0.0777 0.3060
H23 H 1.1744 0.2031 0.3005
loop_
_geom_bond_atom_site_label_1
_geom_bond_atom_site_label_2
_geom_bond_site_symmetry_1
_geom_bond_site_symmetry_2
N1 H1 1_555 1_555
C1 N1 1_555 1_555
C2 C1 1_555 1_555
H2 C2 1_555 1_555
N2 C2 1_555 1_555
C3 N2 1_555 1_555
O1 C3 1_555 1_555
N3 C3 1_555 1_555
C4 N3 1_555 1_555
O2 C4 1_555 1_555
C5 N2 1_555 1_555
H3 C5 1_555 1_555
C6 C5 1_555 1_555
H4 C6 1_555 1_555
H5 C6 1_555 1_555
C7 C1 1_555 1_555
C8 C7 1_555 1_555
C9 C8 1_555 1_555
H6 C9 1_555 1_555
C10 C9 1_555 1_555
H7 C10 1_555 1_555
C11 C10 1_555 1_555
H8 C11 1_555 1_555
C12 C11 1_555 1_555
H9 C12 1_555 1_555
C13 N1 1_555 1_555
C14 C2 1_555 1_555
C15 C14 1_555 1_555
H10 C15 1_555 1_555
C16 C15 1_555 1_555
O3 C16 1_555 1_555
H11 O3 1_555 1_555
C17 C16 1_555 1_555
H12 C17 1_555 1_555
C18 C17 1_555 1_555
H13 C18 1_555 1_555
C19 C14 1_555 1_555
H14 C19 1_555 1_555
C20 N3 1_555 1_555
H15 C20 1_555 1_555
H16 C20 1_555 1_555
C21 C20 1_555 1_555
H17 C21 1_555 1_555
H18 C21 1_555 1_555
C22 C21 1_555 1_555
H19 C22 1_555 1_555
H20 C22 1_555 1_555
C23 C22 1_555 1_555
H21 C23 1_555 1_555
H22 C23 1_555 1_555
H23 C23 1_555 1_555
C4 C5 1_555 1_555
C6 C7 1_555 1_555
C8 C13 1_555 1_555
C12 C13 1_555 1_555
C18 C19 1_555 1_555

#END
