
#######################################################################
#
#                 Cambridge Crystallographic Data Centre
#                                CCDC 
#
#######################################################################
#
# If this CIF has been generated from an entry in the Cambridge 
# Structural Database, then it will include bibliographic, chemical, 
# crystal, experimental, refinement or atomic coordinate data resulting 
# from the CCDC's data processing and validation procedures.
#
#######################################################################

data_GUJBOE
_chemical_formula_moiety         'C20 H19 N1 O2'
_chemical_name_systematic        
8-methoxy-2-methyl-4-phenyl-3a,4,5,9b-tetrahydro-3H-cyclopenta[c]quinolin-3-one
_symmetry_cell_setting           monoclinic
_symmetry_space_group_name_H-M   'P 21/n'
_symmetry_Int_Tables_number      14
_space_group_name_Hall           '-P 2yn'
loop_
_symmetry_equiv_pos_site_id
_symmetry_equiv_pos_as_xyz
1 x,y,z
2 1/2-x,1/2+y,1/2-z
3 -x,-y,-z
4 1/2+x,1/2-y,1/2+z
_cell_length_a                   8.3067(3)
_cell_length_b                   8.0232(3)
_cell_length_c                   23.4518(9)
_cell_angle_alpha                90
_cell_angle_beta                 99.909(2)
_cell_angle_gamma                90
_cell_volume                     1539.66
_exptl_crystal_colour            colorless
_exptl_crystal_description       block
_cell_formula_units_Z            4
loop_
_atom_site_label
_atom_site_type_symbol
_atom_site_fract_x
_atom_site_fract_y
_atom_site_fract_z
C1 C 0.7513(2) 0.6349(2) 0.18725(8)
H1 H 0.7222 0.6588 0.2261
C2 C 0.9134(2) 0.7249(2) 0.18538(7)
H2 H 0.8885 0.8451 0.1768
C3 C 1.0302(2) 0.7147(2) 0.24326(8)
C4 C 1.1937(2) 0.6707(2) 0.23225(8)
C5 C 1.3384(2) 0.6574(3) 0.27929(9)
H3 H 1.4370 0.6407 0.2623
H4 H 1.3240 0.5625 0.3043
H5 H 1.3493 0.7601 0.3022
C6 C 1.1850(2) 0.6468(2) 0.17558(8)
H6 H 1.2784 0.6237 0.1585
C7 C 1.0145(2) 0.6595(2) 0.14059(7)
H7 H 1.0120 0.7411 0.1082
C8 C 0.9657(2) 0.4873(2) 0.11710(7)
C9 C 0.8521(2) 0.3927(2) 0.14032(7)
C10 C 0.8202(2) 0.2293(2) 0.12005(8)
H8 H 0.7394 0.1652 0.1342
C11 C 0.9037(2) 0.1604(2) 0.08005(8)
H9 H 0.8824 0.0487 0.0676
C12 C 1.0198(2) 0.2543(2) 0.05770(8)
C13 C 1.2404(2) 0.2549(2) 0.00474(9)
H10 H 1.2085 0.3582 -0.0165
H11 H 1.2945 0.1806 -0.0192
H12 H 1.3157 0.2809 0.0406
C14 C 1.0479(2) 0.4178(2) 0.07555(8)
H13 H 1.1239 0.4835 0.0594
C15 C 0.6113(2) 0.7028(2) 0.14223(8)
C16 C 0.5394(2) 0.6136(2) 0.09381(8)
H14 H 0.5765 0.5042 0.0876
C17 C 0.4126(2) 0.6837(3) 0.05418(8)
H15 H 0.3656 0.6227 0.0207
C18 C 0.3551(2) 0.8417(3) 0.06347(9)
H16 H 0.2685 0.8889 0.0366
C19 C 0.4247(2) 0.9306(3) 0.11214(9)
H17 H 0.3855 1.0388 0.1189
C20 C 0.5518(2) 0.8613(2) 0.15109(8)
H18 H 0.5991 0.9231 0.1843
N1 N 0.77801(18) 0.45588(19) 0.18494(6)
H19 H 0.695(3) 0.394(3) 0.1921(10)
O1 O 0.99337(16) 0.74177(17) 0.29049(6)
O2 O 1.09875(17) 0.17511(18) 0.01836(6)
loop_
_geom_bond_atom_site_label_1
_geom_bond_atom_site_label_2
_geom_bond_site_symmetry_1
_geom_bond_site_symmetry_2
C1 H1 1_555 1_555
C2 C1 1_555 1_555
H2 C2 1_555 1_555
C3 C2 1_555 1_555
C4 C3 1_555 1_555
C5 C4 1_555 1_555
H3 C5 1_555 1_555
H4 C5 1_555 1_555
H5 C5 1_555 1_555
C6 C4 1_555 1_555
H6 C6 1_555 1_555
C7 C2 1_555 1_555
H7 C7 1_555 1_555
C8 C7 1_555 1_555
C9 C8 1_555 1_555
C10 C9 1_555 1_555
H8 C10 1_555 1_555
C11 C10 1_555 1_555
H9 C11 1_555 1_555
C12 C11 1_555 1_555
C13 H10 1_555 1_555
H11 C13 1_555 1_555
H12 C13 1_555 1_555
C14 C8 1_555 1_555
H13 C14 1_555 1_555
C15 C1 1_555 1_555
C16 C15 1_555 1_555
H14 C16 1_555 1_555
C17 C16 1_555 1_555
H15 C17 1_555 1_555
C18 C17 1_555 1_555
H16 C18 1_555 1_555
C19 C18 1_555 1_555
H17 C19 1_555 1_555
C20 C15 1_555 1_555
H18 C20 1_555 1_555
N1 C1 1_555 1_555
H19 N1 1_555 1_555
O1 C3 1_555 1_555
O2 C12 1_555 1_555
C6 C7 1_555 1_555
C9 N1 1_555 1_555
C12 C14 1_555 1_555
C13 O2 1_555 1_555
C19 C20 1_555 1_555

#END
