
#######################################################################
#
#                 Cambridge Crystallographic Data Centre
#                                CCDC 
#
#######################################################################
#
# If this CIF has been generated from an entry in the Cambridge 
# Structural Database, then it will include bibliographic, chemical, 
# crystal, experimental, refinement or atomic coordinate data resulting 
# from the CCDC's data processing and validation procedures.
#
#######################################################################

data_GUJGEZ
_chemical_name_common            '(+-)-Steenkrotin A'
_chemical_formula_moiety         'C20 H26 O4'
_chemical_name_systematic        
14-hydroxy-2,2,5,9,13-pentamethyl-16-oxapentacyclo[11.2.1.0^1,3^.0^7,11^.0^7,15^]hexadec-11-ene-6,10-dione
_symmetry_cell_setting           monoclinic
_symmetry_space_group_name_H-M   'P 21/n'
_symmetry_Int_Tables_number      14
_space_group_name_Hall           '-P 2yn'
loop_
_symmetry_equiv_pos_site_id
_symmetry_equiv_pos_as_xyz
1 x,y,z
2 1/2-x,1/2+y,1/2-z
3 -x,-y,-z
4 1/2+x,1/2-y,1/2+z
_cell_length_a                   9.791(2)
_cell_length_b                   10.007(2)
_cell_length_c                   18.192(4)
_cell_angle_alpha                90
_cell_angle_beta                 93.72(3)
_cell_angle_gamma                90
_cell_volume                     1778.67
_exptl_crystal_colour            colorless
_exptl_crystal_description       block
_cell_formula_units_Z            4
loop_
_atom_site_label
_atom_site_type_symbol
_atom_site_fract_x
_atom_site_fract_y
_atom_site_fract_z
O1 O 0.9829(3) 0.1570(3) 0.08749(15)
O2 O 1.2468(3) 0.0924(3) 0.27559(16)
O3 O 0.8249(3) 0.4065(3) 0.19846(15)
H1 H 0.7581 0.4450 0.1789
O4 O 0.9072(3) 0.0486(3) 0.36317(16)
C1 C 1.0543(4) 0.3355(4) 0.1653(2)
H2 H 1.0995 0.4230 0.1656
C2 C 1.3421(4) 0.2759(4) 0.2121(2)
H3 H 1.3156 0.3702 0.2083
C3 C 1.0788(4) 0.3485(4) 0.3106(2)
H4 H 1.1656 0.3933 0.3214
H5 H 1.0070 0.4153 0.3048
C4 C 1.2260(4) 0.1985(4) 0.2435(2)
C5 C 0.9736(4) 0.1590(4) 0.2525(2)
C6 C 1.0834(4) 0.2611(4) 0.2394(2)
C7 C 1.0935(4) 0.2512(4) 0.1010(2)
C8 C 1.2312(4) 0.1972(4) 0.0852(2)
H6 H 1.2270 0.1073 0.0638
C9 C 1.0491(4) 0.2491(4) 0.3720(2)
H7 H 1.1366 0.2131 0.3924
C10 C 1.3617(4) 0.2224(4) 0.1338(2)
H8 H 1.4125 0.1393 0.1383
H9 H 1.4176 0.2858 0.1088
C11 C 0.8728(4) 0.1284(4) 0.2022(2)
H10 H 0.8065 0.0657 0.2126
C12 C 1.4743(5) 0.2656(5) 0.2604(2)
H11 H 1.4600 0.3005 0.3085
H12 H 1.5447 0.3162 0.2388
H13 H 1.5017 0.1737 0.2646
C13 C 0.8685(4) 0.1979(5) 0.1280(2)
C14 C 0.9738(5) 0.3087(5) 0.4349(2)
H14 H 0.9571 0.2400 0.4701
H15 H 0.8881 0.3456 0.4159
H16 H 1.0286 0.3779 0.4585
C15 C 0.9011(4) 0.3474(4) 0.1437(2)
H17 H 0.8878 0.3987 0.0979
C16 C 0.9704(4) 0.1368(4) 0.3323(2)
C17 C 1.1596(4) 0.3030(5) 0.0352(2)
C18 C 1.2168(5) 0.4430(5) 0.0380(3)
H18 H 1.1617 0.4995 0.0054
H19 H 1.3091 0.4418 0.0231
H20 H 1.2161 0.4767 0.0874
C19 C 1.1021(5) 0.2600(5) -0.0405(3)
H21 H 1.0596 0.3351 -0.0656
H22 H 1.0354 0.1908 -0.0355
H23 H 1.1748 0.2268 -0.0684
C20 C 0.7389(5) 0.1718(5) 0.0819(3)
H24 H 0.7273 0.0773 0.0750
H25 H 0.7436 0.2144 0.0349
H26 H 0.6626 0.2070 0.1063
loop_
_geom_bond_atom_site_label_1
_geom_bond_atom_site_label_2
_geom_bond_site_symmetry_1
_geom_bond_site_symmetry_2
O1 C7 1_555 1_555
O2 C4 1_555 1_555
O3 H1 1_555 1_555
O4 C16 1_555 1_555
C1 H2 1_555 1_555
C2 H3 1_555 1_555
C3 H4 1_555 1_555
H5 C3 1_555 1_555
C4 C2 1_555 1_555
C5 C6 1_555 1_555
C6 C1 1_555 1_555
C7 C1 1_555 1_555
C8 C7 1_555 1_555
H6 C8 1_555 1_555
C9 C3 1_555 1_555
H7 C9 1_555 1_555
C10 C2 1_555 1_555
H8 C10 1_555 1_555
H9 C10 1_555 1_555
C11 C5 1_555 1_555
H10 C11 1_555 1_555
C12 C2 1_555 1_555
H11 C12 1_555 1_555
H12 C12 1_555 1_555
H13 C12 1_555 1_555
C13 O1 1_555 1_555
C14 C9 1_555 1_555
H14 C14 1_555 1_555
H15 C14 1_555 1_555
H16 C14 1_555 1_555
C15 O3 1_555 1_555
H17 C15 1_555 1_555
C16 C5 1_555 1_555
C17 C7 1_555 1_555
C18 C17 1_555 1_555
H18 C18 1_555 1_555
H19 C18 1_555 1_555
H20 C18 1_555 1_555
C19 C17 1_555 1_555
H21 C19 1_555 1_555
H22 C19 1_555 1_555
H23 C19 1_555 1_555
C20 C13 1_555 1_555
H24 C20 1_555 1_555
H25 C20 1_555 1_555
H26 C20 1_555 1_555
C1 C15 1_555 1_555
C3 C6 1_555 1_555
C4 C6 1_555 1_555
C8 C10 1_555 1_555
C8 C17 1_555 1_555
C9 C16 1_555 1_555
C11 C13 1_555 1_555
C13 C15 1_555 1_555

#END
