
#######################################################################
#
#                 Cambridge Crystallographic Data Centre
#                                CCDC 
#
#######################################################################
#
# If this CIF has been generated from an entry in the Cambridge 
# Structural Database, then it will include bibliographic, chemical, 
# crystal, experimental, refinement or atomic coordinate data resulting 
# from the CCDC's data processing and validation procedures.
#
#######################################################################

data_GUJKOM
_chemical_formula_moiety         'C12 H18 N2 O2 S1'
_chemical_name_systematic        1-Methyl-4-p-tosylpiperazine
_symmetry_cell_setting           orthorhombic
_symmetry_space_group_name_H-M   'P 21 21 21'
_symmetry_Int_Tables_number      19
_space_group_name_Hall           'P 2ac 2ab'
loop_
_symmetry_equiv_pos_site_id
_symmetry_equiv_pos_as_xyz
1 x,y,z
2 1/2-x,-y,1/2+z
3 -x,1/2+y,1/2-z
4 1/2+x,1/2-y,-z
_cell_length_a                   6.17450(10)
_cell_length_b                   8.4077(2)
_cell_length_c                   25.6227(6)
_cell_angle_alpha                90
_cell_angle_beta                 90
_cell_angle_gamma                90
_cell_volume                     1330.16
_exptl_crystal_colour            colorless
_exptl_crystal_description       plate
_chemical_melting_point          '102-103 deg.C'
_cell_formula_units_Z            4
loop_
_atom_site_label
_atom_site_type_symbol
_atom_site_fract_x
_atom_site_fract_y
_atom_site_fract_z
S1 S 0.41311(10) 0.47490(7) 0.12910(3)
O1 O 0.3073(4) 0.6138(2) 0.10950(8)
O2 O 0.6446(3) 0.4667(2) 0.12902(8)
N1 N 0.3354(3) 0.4529(2) 0.19026(8)
N2 N 0.1642(4) 0.3552(3) 0.28751(8)
C1 C 0.4386(4) 0.3286(3) 0.22030(10)
H1 H 0.5937 0.3320 0.2145
H2 H 0.3861 0.2258 0.2086
C2 C 0.3929(5) 0.3475(3) 0.27695(10)
H3 H 0.4550 0.2585 0.2958
H4 H 0.4616 0.4440 0.2895
C3 C 0.0647(4) 0.4802(3) 0.25766(10)
H5 H 0.1204 0.5818 0.2696
H6 H -0.0901 0.4791 0.2640
C4 C 0.1043(4) 0.4654(3) 0.20068(10)
H7 H 0.0308 0.3717 0.1874
H8 H 0.0460 0.5577 0.1828
C5 C 0.1183(6) 0.3677(4) 0.34349(11)
H9 H -0.0348 0.3584 0.3492
H10 H 0.1677 0.4688 0.3562
H11 H 0.1920 0.2840 0.3618
C6 C 0.3160(4) 0.3098(3) 0.09439(9)
C7 C 0.1104(4) 0.3139(3) 0.07252(10)
H12 H 0.0238 0.4039 0.0757
C8 C 0.0372(4) 0.1811(3) 0.04577(10)
H13 H -0.0928 0.1873 0.0276
C9 C 0.1506(5) 0.0408(3) 0.04531(11)
C10 C 0.3550(5) 0.0387(3) 0.06744(11)
H14 H 0.4400 -0.0522 0.0647
C11 C 0.4348(5) 0.1713(3) 0.09378(10)
H15 H 0.5675 0.1662 0.1109
C12 C 0.0672(7) -0.1032(4) 0.01696(13)
H16 H 0.1076 -0.1974 0.0357
H17 H 0.1284 -0.1066 -0.0175
H18 H -0.0878 -0.0975 0.0145
loop_
_geom_bond_atom_site_label_1
_geom_bond_atom_site_label_2
_geom_bond_site_symmetry_1
_geom_bond_site_symmetry_2
S1 O1 1_555 1_555
O2 S1 1_555 1_555
N1 S1 1_555 1_555
N2 C2 1_555 1_555
C1 N1 1_555 1_555
H1 C1 1_555 1_555
H2 C1 1_555 1_555
C2 C1 1_555 1_555
H3 C2 1_555 1_555
H4 C2 1_555 1_555
C3 N2 1_555 1_555
H5 C3 1_555 1_555
H6 C3 1_555 1_555
C4 N1 1_555 1_555
H7 C4 1_555 1_555
H8 C4 1_555 1_555
C5 N2 1_555 1_555
H9 C5 1_555 1_555
H10 C5 1_555 1_555
H11 C5 1_555 1_555
C6 S1 1_555 1_555
C7 C6 1_555 1_555
H12 C7 1_555 1_555
C8 C7 1_555 1_555
H13 C8 1_555 1_555
C9 C8 1_555 1_555
C10 C9 1_555 1_555
H14 C10 1_555 1_555
C11 C6 1_555 1_555
H15 C11 1_555 1_555
C12 C9 1_555 1_555
H16 C12 1_555 1_555
H17 C12 1_555 1_555
H18 C12 1_555 1_555
C3 C4 1_555 1_555
C10 C11 1_555 1_555

#END
