
#######################################################################
#
#                 Cambridge Crystallographic Data Centre
#                                CCDC 
#
#######################################################################
#
# If this CIF has been generated from an entry in the Cambridge 
# Structural Database, then it will include bibliographic, chemical, 
# crystal, experimental, refinement or atomic coordinate data resulting 
# from the CCDC's data processing and validation procedures.
#
#######################################################################

data_GUJKOL
_chemical_formula_moiety         'C15 H18 N2 O5'
_chemical_name_systematic        
5-Phenyl-3-((2'R,3'S)-3'-hydroxy-2'-(dimethoxymethyl)tetrahydrofuran-3'-yl)-1,2,4-oxadiazole
_symmetry_cell_setting           monoclinic
_symmetry_space_group_name_H-M   'P 21'
_symmetry_Int_Tables_number      4
_space_group_name_Hall           'P 2yb'
loop_
_symmetry_equiv_pos_site_id
_symmetry_equiv_pos_as_xyz
1 x,y,z
2 -x,1/2+y,-z
_cell_length_a                   10.586(1)
_cell_length_b                   6.751(1)
_cell_length_c                   11.358(1)
_cell_angle_alpha                90
_cell_angle_beta                 109.37(1)
_cell_angle_gamma                90
_cell_volume                     765.766
_exptl_crystal_colour            colorless
_exptl_crystal_description       needles
_chemical_melting_point          101-102deg.C
_cell_formula_units_Z            2
_exptl_crystal_recrystallization_method 'ethyl acetate/cyclohexane'
loop_
_atom_site_label
_atom_site_type_symbol
_atom_site_fract_x
_atom_site_fract_y
_atom_site_fract_z
O1 O 0.6933(3) 0.2569(5) 0.7102(5)
N1 N 0.6011(3) 0.4128(6) 0.7110(3)
C1 C 0.5625(3) 0.3634(6) 0.8042(3)
N2 N 0.6197(3) 0.1934(5) 0.8670(3)
C2 C 0.6975(3) 0.1348(6) 0.8053(3)
C3 C 0.7826(3) -0.0397(7) 0.8244(3)
C4 C 0.7942(4) -0.1628(8) 0.9253(4)
C5 C 0.8759(5) -0.3316(8) 0.9430(4)
C6 C 0.9440(4) -0.3719(9) 0.8595(5)
C7 C 0.9304(4) -0.2516(9) 0.7596(4)
C8 C 0.8503(4) -0.0829(8) 0.7400(4)
C9 C 0.4567(3) 0.4782(6) 0.8352(3)
C10 C 0.3162(3) 0.3867(6) 0.7792(3)
O2 O 0.2311(3) 0.5426 0.7932(3)
C11 C 0.2880(4) 0.7310(7) 0.7747(4)
C12 C 0.4338(4) 0.6895(6) 0.7843(3)
C13 C 0.2842(3) 0.3294(6) 0.6413(3)
O3 O 0.1465(3) 0.3405(5) 0.5689(3)
C14 C 0.0588(4) 0.2227(9) 0.6135(5)
O4 O 0.3363(3) 0.1361(4) 0.6458(2)
C15 C 0.3491(5) 0.0747(9) 0.5288(4)
O5 O 0.4961(3) 0.4747(5) 0.9691(2)
H1 H 0.741 -0.128 0.989
H2 H 0.884 -0.434 1.021
H3 H 1.010 -0.502 0.872
H4 H 0.986 -0.283 0.696
H5 H 0.839 0.011 0.659
H6 H 0.307 0.256 0.833
H7 H 0.231 0.792 0.684
H8 H 0.284 0.836 0.847
H9 H 0.504 0.792 0.846
H10 H 0.447 0.699 0.693
H11 H 0.340 0.430 0.601
H12 H 0.025 0.302 0.681
H13 H 0.111 0.088 0.661
H14 H -0.024 0.180 0.534
H15 H 0.252 0.038 0.465
H16 H 0.413 -0.056 0.546
H17 H 0.395 0.198 0.495
H18 H 0.446 0.563 1.006
loop_
_geom_bond_atom_site_label_1
_geom_bond_atom_site_label_2
_geom_bond_site_symmetry_1
_geom_bond_site_symmetry_2
O1 N1 1_555 1_555
N1 C1 1_555 1_555
C1 N2 1_555 1_555
N2 C2 1_555 1_555
C2 O1 1_555 1_555
C3 C2 1_555 1_555
C4 C3 1_555 1_555
C5 C4 1_555 1_555
C6 C5 1_555 1_555
C7 C6 1_555 1_555
C8 C3 1_555 1_555
C9 C1 1_555 1_555
C10 C9 1_555 1_555
O2 C10 1_555 1_555
C11 O2 1_555 1_555
C12 C9 1_555 1_555
C13 C10 1_555 1_555
O3 C13 1_555 1_555
C14 O3 1_555 1_555
O4 C13 1_555 1_555
C15 O4 1_555 1_555
O5 C9 1_555 1_555
H1 C4 1_555 1_555
H2 C5 1_555 1_555
H3 C6 1_555 1_555
H4 C7 1_555 1_555
H5 C8 1_555 1_555
H6 C10 1_555 1_555
H7 C11 1_555 1_555
H8 C11 1_555 1_555
H9 C12 1_555 1_555
H10 C12 1_555 1_555
H11 C13 1_555 1_555
H12 C14 1_555 1_555
H13 C14 1_555 1_555
H14 C14 1_555 1_555
H15 C15 1_555 1_555
H16 C15 1_555 1_555
H17 C15 1_555 1_555
H18 O5 1_555 1_555
C7 C8 1_555 1_555
C11 C12 1_555 1_555

#END
