
#######################################################################
#
#                 Cambridge Crystallographic Data Centre
#                                CCDC 
#
#######################################################################
#
# If this CIF has been generated from an entry in the Cambridge 
# Structural Database, then it will include bibliographic, chemical, 
# crystal, experimental, refinement or atomic coordinate data resulting 
# from the CCDC's data processing and validation procedures.
#
#######################################################################

data_GUJLAA
_chemical_formula_moiety         'C25 H25 F3 N2 O4 S1'
_chemical_name_systematic        
'methyl \b-(benzylamino)-N-((4-methylphenyl)sulfonyl)-3-(trifluoromethyl)phenylalaninate'
_symmetry_cell_setting           monoclinic
_symmetry_space_group_name_H-M   'P 21/c'
_symmetry_Int_Tables_number      14
_space_group_name_Hall           '-P 2ybc'
loop_
_symmetry_equiv_pos_site_id
_symmetry_equiv_pos_as_xyz
1 x,y,z
2 -x,1/2+y,1/2-z
3 -x,-y,-z
4 x,1/2-y,1/2+z
_cell_length_a                   23.883(2)
_cell_length_b                   9.5441(17)
_cell_length_c                   10.887(2)
_cell_angle_alpha                90
_cell_angle_beta                 93.392(3)
_cell_angle_gamma                90
_cell_volume                     2477.25
_cell_formula_units_Z            4
loop_
_atom_site_label
_atom_site_type_symbol
_atom_site_fract_x
_atom_site_fract_y
_atom_site_fract_z
C1 C 0.69248(6) 1.04589(16) 0.99944(13)
H1 H 0.6917 0.9816 0.9351
C2 C 0.64475(7) 1.12334(17) 1.02069(15)
C3 C 0.64555(8) 1.21837(19) 1.11689(17)
H2 H 0.6136 1.2697 1.1318
C4 C 0.69464(7) 1.23686(17) 1.19144(16)
H3 H 0.6954 1.3010 1.2558
C5 C 0.74210(7) 1.16010(17) 1.16988(15)
H4 H 0.7746 1.1729 1.2199
C6 C 0.74154(6) 1.06373(14) 1.07376(12)
C7 C 0.79645(6) 0.98872(14) 1.04489(12)
H5 H 0.8221 0.9971 1.1181
C8 C 0.78825(6) 0.83210(14) 1.01918(12)
H6 H 0.7587 0.8204 0.9537
C9 C 0.84324(6) 0.77091(14) 0.97535(13)
C10 C 0.93899(7) 0.7156(2) 1.0335(2)
H7 H 0.9354 0.6180 1.0134
H8 H 0.9651 0.7267 1.1033
H9 H 0.9523 0.7657 0.9646
C11 C 0.84055(7) 1.19550(15) 0.95978(15)
H10 H 0.8583 1.2070 1.0416
H11 H 0.8069 1.2528 0.9544
C12 C 0.88059(6) 1.24589(15) 0.86444(13)
C13 C 0.88819(6) 1.38951(16) 0.85195(14)
H12 H 0.8680 1.4516 0.8982
C14 C 0.92610(8) 1.4406(2) 0.76991(16)
H13 H 0.9312 1.5367 0.7617
C15 C 0.95600(8) 1.3489(2) 0.70102(17)
H14 H 0.9809 1.3833 0.6459
C16 C 0.94893(8) 1.2055(2) 0.71383(16)
H15 H 0.9695 1.1439 0.6679
C17 C 0.91147(7) 1.15366(18) 0.79466(15)
H16 H 0.9068 1.0574 0.8027
C18 C 0.68739(6) 0.61286(15) 1.03555(13)
C19 C 0.68342(7) 0.56761(16) 0.91281(14)
H17 H 0.7152 0.5360 0.8760
C20 C 0.63222(7) 0.56986(17) 0.84642(15)
H18 H 0.6296 0.5390 0.7652
C21 C 0.58442(7) 0.61842(19) 0.90126(17)
C22 C 0.58844(7) 0.66400(19) 1.02349(17)
H19 H 0.5568 0.6965 1.0603
C23 C 0.63972(7) 0.66049(17) 1.08930(16)
H20 H 0.6423 0.6905 1.1707
C24 C 0.52783(8) 0.6209(2) 0.8305(2)
H21 H 0.5280 0.6911 0.7674
H22 H 0.4991 0.6422 0.8857
H23 H 0.5205 0.5309 0.7936
C25 C 0.59391(7) 1.1023(2) 0.94443(18)
F1 F 0.59585(4) 1.13838(11) 0.83295(9)
F2 F 0.57590(4) 0.97617(11) 0.94700(10)
F3 F 0.55271(4) 1.17960(10) 0.97826(10)
N1 N 0.82504(5) 1.04908(12) 0.94124(11)
H24 H 0.8022 1.0420 0.8727
N2 N 0.76993(5) 0.76469(12) 1.13297(10)
H25 H 0.7986 0.7691 1.1905
O1 O 0.88364(4) 0.77193(11) 1.06344(10)
O2 O 0.84900(5) 0.73256(11) 0.86970(9)
O3 O 0.78752(5) 0.52057(11) 1.05279(11)
O4 O 0.73998(4) 0.56382(10) 1.24532(8)
S1 S 0.749910(17) 0.60221(4) 1.12010(3)
loop_
_geom_bond_atom_site_label_1
_geom_bond_atom_site_label_2
_geom_bond_site_symmetry_1
_geom_bond_site_symmetry_2
C1 H1 1_555 1_555
C2 C1 1_555 1_555
C3 C2 1_555 1_555
H2 C3 1_555 1_555
C4 C3 1_555 1_555
H3 C4 1_555 1_555
C5 C4 1_555 1_555
H4 C5 1_555 1_555
C6 C1 1_555 1_555
C7 C6 1_555 1_555
H5 C7 1_555 1_555
C8 C7 1_555 1_555
H6 C8 1_555 1_555
C9 C8 1_555 1_555
C10 H7 1_555 1_555
H8 C10 1_555 1_555
H9 C10 1_555 1_555
C11 H10 1_555 1_555
H11 C11 1_555 1_555
C12 C11 1_555 1_555
C13 C12 1_555 1_555
H12 C13 1_555 1_555
C14 C13 1_555 1_555
H13 C14 1_555 1_555
C15 C14 1_555 1_555
H14 C15 1_555 1_555
C16 C15 1_555 1_555
H15 C16 1_555 1_555
C17 C12 1_555 1_555
H16 C17 1_555 1_555
C18 C19 1_555 1_555
C19 H17 1_555 1_555
C20 C19 1_555 1_555
H18 C20 1_555 1_555
C21 C20 1_555 1_555
C22 C21 1_555 1_555
H19 C22 1_555 1_555
C23 C18 1_555 1_555
H20 C23 1_555 1_555
C24 C21 1_555 1_555
H21 C24 1_555 1_555
H22 C24 1_555 1_555
H23 C24 1_555 1_555
C25 C2 1_555 1_555
F1 C25 1_555 1_555
F2 C25 1_555 1_555
F3 C25 1_555 1_555
N1 C7 1_555 1_555
H24 N1 1_555 1_555
N2 C8 1_555 1_555
H25 N2 1_555 1_555
O1 C9 1_555 1_555
O2 C9 1_555 1_555
O3 S1 1_555 1_555
O4 S1 1_555 1_555
S1 C18 1_555 1_555
C5 C6 1_555 1_555
C10 O1 1_555 1_555
C11 N1 1_555 1_555
C16 C17 1_555 1_555
C22 C23 1_555 1_555
N2 S1 1_555 1_555

#END
