
#######################################################################
#
#                 Cambridge Crystallographic Data Centre
#                                CCDC 
#
#######################################################################
#
# If this CIF has been generated from an entry in the Cambridge 
# Structural Database, then it will include bibliographic, chemical, 
# crystal, experimental, refinement or atomic coordinate data resulting 
# from the CCDC's data processing and validation procedures.
#
#######################################################################

data_GUJRAE
_chemical_name_common            
"5,5':11,11',17,17',23,23'-tetrakis(3-p-Tosyl-3-azapentane-1,5-dioxy)-bis(2,8,14,20-tetra-n-pentyl-6,10:12,16:18,22:24,4-O,O'-tetrakis(methylene)calix(4)resorcinarene) 4-methoxytoluene clathrate 4-methoxytoluene solvate"
_chemical_formula_moiety         'C148 H180 N4 O32 S4,8(C8 H10 O1)'
_chemical_name_systematic        
"5,5':11,11',17,17',23,23'-tetrakis(3-p-Tosyl-3-azapentane-1,5-dioxy)-bis(2,8,14,20-tetra-n-pentyl-6,10:12,16:18,22:24,4-tetrakis(methylenedioxy)calix(4)arene) 4-methoxytoluene clathrate 4-methoxytoluene solvate"
_symmetry_cell_setting           triclinic
_symmetry_space_group_name_H-M   'P -1'
_symmetry_Int_Tables_number      2
_space_group_name_Hall           '-P 1'
loop_
_symmetry_equiv_pos_site_id
_symmetry_equiv_pos_as_xyz
1 x,y,z
2 -x,-y,-z
_cell_length_a                   13.038(5)
_cell_length_b                   18.544(7)
_cell_length_c                   22.716(9)
_cell_angle_alpha                113.665(8)
_cell_angle_beta                 91.147(9)
_cell_angle_gamma                104.578(8)
_cell_volume                     4822.8
_exptl_crystal_colour            colorless
_exptl_crystal_description       parallelepiped
_cell_formula_units_Z            1
loop_
_atom_site_label
_atom_site_type_symbol
_atom_site_fract_x
_atom_site_fract_y
_atom_site_fract_z
O3 O -0.3125(4) 0.6536(3) 0.1692(2)
C17 C -0.2814(6) 0.5838(4) 0.1655(3)
H21 H -0.3408 0.5348 0.1434
H22 H -0.2225 0.5783 0.1402
O4 O -0.2498(4) 0.5898(3) 0.2274(2)
C18 C -0.1413(5) 0.6241(4) 0.2513(3)
C19 C -0.0983(5) 0.7089(4) 0.2850(3)
C20 C 0.0101(5) 0.7379(4) 0.3098(3)
H23 H 0.0408 0.7943 0.3316
C21 C 0.0744(5) 0.6866(4) 0.3035(3)
C22 C 0.0275(5) 0.6030(4) 0.2698(3)
C23 C -0.0807(5) 0.5713(4) 0.2436(3)
O5 O -0.1232(4) 0.4889(3) 0.2062(2)
C24 C -0.1517(6) 0.4406(4) 0.2435(3)
H24 H -0.2130 0.4516 0.2651
H25 H -0.0923 0.4537 0.2760
C25 C -0.1777(6) 0.3526(4) 0.1959(3)
H26 H -0.2004 0.3181 0.2186
H27 H -0.2372 0.3411 0.1641
N1 N -0.0874(4) 0.3304(3) 0.1615(3)
S1 S -0.0081(2) 0.29875(12) 0.19430(10)
O6 O 0.0099(4) 0.3463(3) 0.2630(3)
O7 O 0.0818(4) 0.2951(3) 0.1588(3)
C26 C -0.0819(4) 0.1983(2) 0.1805(2)
C27 C -0.1304(4) 0.1852(3) 0.2311(2)
H28 H -0.1198 0.2281 0.2721
C28 C -0.1949(4) 0.1073(3) 0.2193(2)
H29 H -0.2282 0.0985 0.2527
C29 C -0.2100(4) 0.0427(2) 0.1586(2)
C30 C -0.1554(4) 0.0566(2) 0.1104(2)
H30 H -0.1617 0.0128 0.0703
C31 C -0.0919(4) 0.1340(3) 0.1203(2)
H31 H -0.0570 0.1424 0.0874
C32 C -0.2843(8) -0.0414(6) 0.1447(5)
H32 H -0.2848 -0.0782 0.1005
H33 H -0.3553 -0.0372 0.1516
H34 H -0.2596 -0.0620 0.1732
C33 C -0.0646(6) 0.3483(5) 0.1053(3)
H35 H 0.0016 0.3359 0.0921
H36 H -0.0534 0.4066 0.1181
C34 C -0.1508(6) 0.3015(4) 0.0479(3)
H37 H -0.2187 0.3100 0.0611
H38 H -0.1344 0.3216 0.0148
O8 O -0.1589(4) 0.2156(3) 0.0217(2)
O9 O 0.0850(4) 0.5470(3) 0.2633(2)
C35 C 0.1499(6) 0.5323(4) 0.2128(3)
H39 H 0.1506 0.4753 0.1956
H40 H 0.1190 0.5412 0.1781
O10 O 0.2564(4) 0.5835(3) 0.2341(2)
C36 C 0.2778(5) 0.6572(4) 0.2279(3)
C37 C 0.2552(5) 0.7253(4) 0.2733(3)
C38 C 0.2816(5) 0.7976(4) 0.2639(3)
H41 H 0.2656 0.8437 0.2939
C39 C 0.3311(5) 0.8031(4) 0.2112(3)
C40 C 0.3527(5) 0.7331(4) 0.1674(3)
C41 C 0.3272(5) 0.6596(4) 0.1742(3)
O11 O 0.3359(4) 0.5893(3) 0.1245(2)
C42 C 0.4103(6) 0.5496(4) 0.1351(3)
H42 H 0.4224 0.5612 0.1807
H43 H 0.4783 0.5683 0.1216
C43 C 0.3602(6) 0.4576(4) 0.0944(4)
H44 H 0.3176 0.4343 0.1204
H45 H 0.3126 0.4498 0.0576
N2 N 0.4400(4) 0.4138(3) 0.0708(3)
S2 S 0.48868(15) 0.37439(11) 0.11328(9)
O12 O 0.4872(4) 0.4265(3) 0.1798(2)
O13 O 0.5868(4) 0.3620(3) 0.0901(2)
C44 C 0.4013(3) 0.2763(2) 0.0970(2)
C45 C 0.3168(4) 0.2710(2) 0.1324(2)
H46 H 0.3046 0.3183 0.1632
C46 C 0.2499(3) 0.1932(3) 0.1212(2)
H47 H 0.1932 0.1886 0.1449
C47 C 0.2681(4) 0.1236(2) 0.0749(2)
C48 C 0.3505(4) 0.1306(2) 0.0386(2)
H48 H 0.3604 0.0834 0.0065
C49 C 0.4190(3) 0.2068(3) 0.0492(2)
H49 H 0.4751 0.2111 0.0250
C50 C 0.1994(8) 0.0400(6) 0.0662(5)
H50 H 0.2217 -0.0019 0.0325
H51 H 0.1259 0.0348 0.0546
H52 H 0.2072 0.0342 0.1061
C51 C 0.4643(6) 0.3964(4) 0.0044(3)
H53 H 0.5378 0.3940 0.0031
H54 H 0.4599 0.4421 -0.0050
C52 C 0.3934(5) 0.3177(4) -0.0494(3)
H55 H 0.4234 0.3068 -0.0897
H56 H 0.3884 0.2717 -0.0383
O14 O 0.2899(4) 0.3283(3) -0.0564(2)
O15 O 0.4049(4) 0.7345(3) 0.1144(2)
C53 C 0.3381(6) 0.7229(4) 0.0596(3)
H57 H 0.3645 0.6914 0.0206
H58 H 0.2665 0.6912 0.0594
O16 O 0.3330(4) 0.7974(3) 0.0579(2)
C54 C 0.2522(5) 0.8299(4) 0.0868(3)
C55 C 0.2588(5) 0.8719(4) 0.1540(3)
C56 C 0.1755(5) 0.9048(4) 0.1775(3)
H59 H 0.1777 0.9314 0.2222
C57 C 0.0894(5) 0.9002(4) 0.1382(3)
C58 C 0.0864(5) 0.8593(4) 0.0713(3)
C59 C -0.1660(5) 0.1764(4) -0.0451(3)
O17 O 0.0064(4) 0.8564(3) 0.0284(2)
C60 C -0.0897(5) 0.7912(4) 0.0130(3)
H60 H -0.1219 0.7755 -0.0308
H61 H -0.0725 0.7439 0.0145
O18 O -0.1639(4) 0.8138(3) 0.0565(2)
C61 C -0.1567(5) 0.8015(4) 0.1128(3)
C62 C -0.0876(5) 0.8588(4) 0.1684(3)
C63 C -0.0932(5) 0.8453(4) 0.2241(3)
H62 H -0.0464 0.8831 0.2613
C64 C -0.1659(5) 0.7777(4) 0.2271(3)
C65 C -0.2326(5) 0.7198(4) 0.1698(3)
C66 C 0.2275(5) 0.2691(4) -0.1130(3)
C67 C -0.0040(5) 0.9321(4) 0.1655(3)
H63 H -0.0353 0.9471 0.1340
C68 C 0.0242(5) 1.0070(4) 0.2306(3)
H64 H 0.0584 0.9938 0.2617
H65 H -0.0415 1.0183 0.2456
C69 C 0.0978(6) 1.0847(4) 0.2295(3)
H66 H 0.1647 1.0745 0.2156
H67 H 0.0646 1.0984 0.1983
C70 C 0.1209(7) 1.1569(5) 0.2959(4)
H68 H 0.1513 1.1418 0.3270
H69 H 0.0537 1.1673 0.3090
C71 C 0.1967(7) 1.2362(5) 0.2989(4)
H70 H 0.1750 1.2475 0.2632
H71 H 0.2691 1.2316 0.2963
C72 C 0.1910(17) 1.3061(10) 0.3651(7)
H74 H 0.2378 1.3573 0.3689
H75 H 0.2127 1.2942 0.4000
H76 H 0.1190 1.3100 0.3670
C74 C 0.3541(5) 0.8794(4) 0.1984(3)
H80 H 0.4155 0.8795 0.1742
C75 C 0.3844(6) 0.9606(4) 0.2603(3)
H81 H 0.3220 0.9662 0.2822
H82 H 0.4385 0.9591 0.2894
C76 C 0.4266(6) 1.0341(4) 0.2450(4)
H83 H 0.3840 1.0257 0.2061
H84 H 0.4995 1.0369 0.2356
C77 C 0.4259(8) 1.1162(6) 0.2991(4)
H85 H 0.4554 1.1595 0.2853
H86 H 0.3523 1.1154 0.3053
C78 C 0.4868(8) 1.1369(7) 0.3626(5)
H87 H 0.4567 1.0941 0.3768
H88 H 0.4776 1.1878 0.3943
C79 C 0.6056(10) 1.1461(8) 0.3611(6)
H89 H 0.6394 1.1593 0.4036
H90 H 0.6368 1.1892 0.3482
H91 H 0.6159 1.0955 0.3307
C80 C 0.1945(5) 0.7190(4) 0.3284(3)
H92 H 0.2137 0.6770 0.3384
C81 C 0.2223(6) 0.7979(4) 0.3918(3)
H93 H 0.2994 0.8178 0.4037
H94 H 0.1989 0.8397 0.3846
C82 C 0.1706(6) 0.7847(4) 0.4477(3)
H95 H 0.0956 0.7550 0.4326
H96 H 0.2039 0.7505 0.4598
C83 C 0.1788(7) 0.8624(5) 0.5070(4)
H97 H 0.1495 0.8982 0.4945
H98 H 0.2537 0.8904 0.5238
C84 C 0.1205(8) 0.8484(6) 0.5608(4)
H99 H 0.0467 0.8169 0.5432
H100 H 0.1534 0.8162 0.5757
C85 C 0.1226(9) 0.9265(7) 0.6172(5)
H101 H 0.0850 0.9141 0.6495
H102 H 0.0887 0.9581 0.6030
H103 H 0.1954 0.9574 0.6355
C86 C -0.1691(6) 0.7634(4) 0.2890(3)
H104 H -0.2424 0.7317 0.2874
C87 C -0.1448(6) 0.8424(4) 0.3515(3)
H105 H -0.0698 0.8721 0.3575
H106 H -0.1867 0.8769 0.3472
C88 C -0.1693(6) 0.8263(4) 0.4112(3)
H107 H -0.2412 0.7898 0.4024
H108 H -0.1202 0.7985 0.4188
C89 C -0.1610(6) 0.9032(5) 0.4722(3)
H109 H -0.2052 0.9334 0.4631
H110 H -0.0875 0.9375 0.4828
C90 C -0.1939(7) 0.8886(5) 0.5309(4)
H111 H -0.2661 0.8521 0.5199
H112 H -0.1471 0.8613 0.5418
C91 C -0.1902(8) 0.9664(6) 0.5899(4)
H113 H -0.2118 0.9530 0.6253
H114 H -0.2377 0.9932 0.5800
H115 H -0.1186 1.0024 0.6019
C54A C -0.2522(5) 0.1701(4) -0.0868(3)
O16A O -0.3330(4) 0.2026(3) -0.0579(2)
C53A C -0.3381(6) 0.2771(4) -0.0596(3)
O15A O -0.4049(4) 0.2655(3) -0.1144(2)
C40A C -0.3527(5) 0.2669(4) -0.1674(3)
C39A C -0.3311(5) 0.1969(4) -0.2112(3)
C38A C -0.2816(5) 0.2024(4) -0.2639(3)
C37A C -0.2552(5) 0.2747(4) -0.2733(3)
C36A C -0.2778(5) 0.3428(4) -0.2279(3)
O10A O -0.2564(4) 0.4165(3) -0.2341(2)
C35A C -0.1499(6) 0.4677(4) -0.2128(3)
O9A O -0.0850(4) 0.4530(3) -0.2633(2)
C22A C -0.0275(5) 0.3970(4) -0.2698(3)
C21A C -0.0744(5) 0.3134(4) -0.3035(3)
C20A C -0.0101(5) 0.2621(4) -0.3098(3)
C19A C 0.0983(5) 0.2911(4) -0.2850(3)
C18A C 0.1413(5) 0.3759(4) -0.2513(3)
O4A O 0.2498(4) 0.4102(3) -0.2274(2)
C17A C 0.2814(6) 0.4162(4) -0.1655(3)
O3A O 0.3125(4) 0.3464(3) -0.1692(2)
C65A C 0.2326(5) 0.2802(4) -0.1698(3)
C64A C 0.1659(5) 0.2223(4) -0.2271(3)
C63A C 0.0932(5) 0.1547(4) -0.2241(3)
C62A C 0.0876(5) 0.1412(4) -0.1684(3)
C61A C 0.1567(5) 0.1985(4) -0.1128(3)
O18A O 0.1639(4) 0.1862(3) -0.0565(2)
C60A C 0.0897(5) 0.2088(4) -0.0130(3)
O17A O -0.0064(4) 0.1436(3) -0.0284(2)
C58A C -0.0864(5) 0.1407(4) -0.0713(3)
C57A C -0.0894(5) 0.0998(4) -0.1382(3)
C56A C -0.1755(5) 0.0952(4) -0.1775(3)
C55A C -0.2588(5) 0.1281(4) -0.1540(3)
C74A C -0.3541(5) 0.1206(4) -0.1984(3)
H80A H -0.4155 0.1205 -0.1742
C75A C -0.3844(6) 0.0394(4) -0.2603(3)
H81A H -0.3220 0.0338 -0.2822
H82A H -0.4385 0.0409 -0.2894
C76A C -0.4266(6) -0.0341(4) -0.2450(4)
H83A H -0.3840 -0.0257 -0.2061
H84A H -0.4995 -0.0369 -0.2356
C77A C -0.4259(8) -0.1162(6) -0.2991(4)
H85A H -0.4554 -0.1595 -0.2853
H86A H -0.3523 -0.1154 -0.3053
C78A C -0.4868(8) -0.1369(7) -0.3626(5)
H87A H -0.4567 -0.0941 -0.3768
H88A H -0.4776 -0.1878 -0.3943
C79A C -0.6056(10) -0.1461(8) -0.3611(6)
H89A H -0.6394 -0.1593 -0.4036
H90A H -0.6368 -0.1892 -0.3482
H91A H -0.6159 -0.0955 -0.3307
H59A H -0.1777 0.0686 -0.2222
C67A C 0.0040(5) 0.0679(4) -0.1655(3)
H63A H 0.0353 0.0529 -0.1340
C68A C -0.0242(5) -0.0070(4) -0.2306(3)
H64A H -0.0584 0.0062 -0.2617
H65A H 0.0415 -0.0183 -0.2456
C69A C -0.0978(6) -0.0847(4) -0.2295(3)
H66A H -0.1647 -0.0745 -0.2156
H67A H -0.0646 -0.0984 -0.1983
C70A C -0.1209(7) -0.1569(5) -0.2959(4)
H68A H -0.1513 -0.1418 -0.3270
H69A H -0.0537 -0.1673 -0.3090
C71A C -0.1967(7) -0.2362(5) -0.2989(4)
H70A H -0.1750 -0.2475 -0.2632
H71A H -0.2691 -0.2316 -0.2963
C72A C -0.1910(17) -0.3061(10) -0.3651(7)
H74A H -0.2378 -0.3573 -0.3689
H75A H -0.2127 -0.2942 -0.4000
H76A H -0.1190 -0.3100 -0.3670
H60A H 0.1219 0.2245 0.0308
H61A H 0.0725 0.2561 -0.0145
C59A C 0.1660(5) 0.8236(4) 0.0451(3)
O8A O 0.1589(4) 0.7844(3) -0.0217(2)
C34A C 0.1508(6) 0.6985(4) -0.0479(3)
C33A C 0.0646(6) 0.6517(5) -0.1053(3)
N1A N 0.0874(4) 0.6696(3) -0.1615(3)
C25A C 0.1777(6) 0.6474(4) -0.1959(3)
C24A C 0.1517(6) 0.5594(4) -0.2435(3)
O5A O 0.1232(4) 0.5111(3) -0.2062(2)
C23A C 0.0807(5) 0.4287(4) -0.2436(3)
H24A H 0.2130 0.5484 -0.2651
H25A H 0.0923 0.5463 -0.2760
H26A H 0.2004 0.6819 -0.2186
H27A H 0.2372 0.6589 -0.1641
S1A S 0.0081(2) 0.70125(12) -0.19430(10)
O6A O -0.0099(4) 0.6537(3) -0.2630(3)
O7A O -0.0818(4) 0.7049(3) -0.1588(3)
C26A C 0.0819(4) 0.8017(2) -0.1805(2)
C27A C 0.1304(4) 0.8148(3) -0.2311(2)
H28A H 0.1198 0.7719 -0.2721
C28A C 0.1949(4) 0.8927(3) -0.2193(2)
H29A H 0.2282 0.9015 -0.2527
C29A C 0.2100(4) 0.9573(2) -0.1586(2)
C30A C 0.1554(4) 0.9434(2) -0.1104(2)
H30A H 0.1617 0.9872 -0.0703
C31A C 0.0919(4) 0.8660(3) -0.1203(2)
H31A H 0.0570 0.8576 -0.0874
C32A C 0.2843(8) 1.0414(6) -0.1447(5)
H32A H 0.2848 1.0782 -0.1005
H33A H 0.3553 1.0372 -0.1516
H34A H 0.2596 1.0620 -0.1732
H35A H -0.0016 0.6641 -0.0921
H36A H 0.0534 0.5934 -0.1181
H37A H 0.2187 0.6900 -0.0611
H38A H 0.1344 0.6784 -0.0148
C66A C -0.2275(5) 0.7309(4) 0.1130(3)
O14A O -0.2899(4) 0.6717(3) 0.0564(2)
C52A C -0.3934(5) 0.6823(4) 0.0494(3)
C51A C -0.4643(6) 0.6036(4) -0.0044(3)
N2A N -0.4400(4) 0.5862(3) -0.0708(3)
C43A C -0.3602(6) 0.5424(4) -0.0944(4)
C42A C -0.4103(6) 0.4504(4) -0.1351(3)
O11A O -0.3359(4) 0.4107(3) -0.1245(2)
C41A C -0.3272(5) 0.3404(4) -0.1742(3)
H42A H -0.4224 0.4388 -0.1807
H43A H -0.4783 0.4317 -0.1216
H44A H -0.3176 0.5657 -0.1204
H45A H -0.3126 0.5502 -0.0576
S2A S -0.48868(15) 0.62561(11) -0.11328(9)
O12A O -0.4872(4) 0.5735(3) -0.1798(2)
O13A O -0.5868(4) 0.6380(3) -0.0901(2)
C44A C -0.4013(3) 0.7237(2) -0.0970(2)
C45A C -0.3168(4) 0.7290(2) -0.1324(2)
H46A H -0.3046 0.6817 -0.1632
C46A C -0.2499(3) 0.8068(3) -0.1212(2)
H47A H -0.1932 0.8114 -0.1449
C47A C -0.2681(4) 0.8764(2) -0.0749(2)
C48A C -0.3505(4) 0.8694(2) -0.0386(2)
H48A H -0.3604 0.9166 -0.0065
C49A C -0.4190(3) 0.7932(3) -0.0492(2)
H49A H -0.4751 0.7889 -0.0250
C50A C -0.1994(8) 0.9600(6) -0.0662(5)
H50A H -0.2217 1.0019 -0.0325
H51A H -0.1259 0.9652 -0.0546
H52A H -0.2072 0.9658 -0.1061
H53A H -0.5378 0.6060 -0.0031
H54A H -0.4599 0.5579 0.0050
H55A H -0.4234 0.6932 0.0897
H56A H -0.3884 0.7283 0.0383
H62A H 0.0464 0.1169 -0.2613
C86A C 0.1691(6) 0.2366(4) -0.2890(3)
H104A H 0.2424 0.2683 -0.2874
C87A C 0.1448(6) 0.1576(4) -0.3515(3)
H105A H 0.0698 0.1279 -0.3575
H106A H 0.1867 0.1231 -0.3472
C88A C 0.1693(6) 0.1737(4) -0.4112(3)
H107A H 0.2412 0.2102 -0.4024
H108A H 0.1202 0.2015 -0.4188
C89A C 0.1610(6) 0.0968(5) -0.4722(3)
H109A H 0.2052 0.0666 -0.4631
H110A H 0.0875 0.0625 -0.4828
C90A C 0.1939(7) 0.1114(5) -0.5309(4)
H111A H 0.2661 0.1479 -0.5199
H112A H 0.1471 0.1387 -0.5418
C91A C 0.1902(8) 0.0336(6) -0.5899(4)
H113A H 0.2118 0.0470 -0.6253
H114A H 0.2377 0.0068 -0.5800
H115A H 0.1186 -0.0024 -0.6019
H21A H 0.3408 0.4652 -0.1434
H22A H 0.2225 0.4217 -0.1402
H23A H -0.0408 0.2057 -0.3316
C80A C -0.1945(5) 0.2810(4) -0.3284(3)
H92A H -0.2137 0.3230 -0.3384
C81A C -0.2223(6) 0.2021(4) -0.3918(3)
H93A H -0.2994 0.1822 -0.4037
H94A H -0.1989 0.1603 -0.3846
C82A C -0.1706(6) 0.2153(4) -0.4477(3)
H95A H -0.0956 0.2450 -0.4326
H96A H -0.2039 0.2495 -0.4598
C83A C -0.1788(7) 0.1376(5) -0.5070(4)
H97A H -0.1495 0.1018 -0.4945
H98A H -0.2537 0.1096 -0.5238
C84A C -0.1205(8) 0.1516(6) -0.5608(4)
H99A H -0.0467 0.1831 -0.5432
H100A H -0.1534 0.1838 -0.5757
C85A C -0.1226(9) 0.0735(7) -0.6172(5)
H101A H -0.0850 0.0859 -0.6495
H102A H -0.0887 0.0419 -0.6030
H103A H -0.1954 0.0426 -0.6355
H39A H -0.1506 0.5247 -0.1956
H40A H -0.1190 0.4588 -0.1781
H41A H -0.2656 0.1563 -0.2939
H57A H -0.3645 0.3086 -0.0206
H58A H -0.2665 0.3088 -0.0594
C92 C 0.4447(9) 0.7220(7) 0.4598(6)
H116 H 0.4201 0.7195 0.4987
H117 H 0.5045 0.6997 0.4509
H118 H 0.3879 0.6906 0.4242
O19 O 0.4766(5) 0.8055(4) 0.4683(3)
C93 C 0.5138(7) 0.8181(5) 0.4159(4)
C94 C 0.5440(7) 0.8997(6) 0.4249(4)
H119 H 0.5405 0.9410 0.4646
C95 C 0.5790(7) 0.9192(6) 0.3749(4)
H120 H 0.5996 0.9739 0.3814
C96 C 0.5841(7) 0.8586(5) 0.3149(4)
C97 C 0.5545(7) 0.7791(5) 0.3079(4)
H121 H 0.5573 0.7377 0.2681
C98 C 0.5206(7) 0.7580(6) 0.3571(4)
H122 H 0.5024 0.7033 0.3507
C99 C 0.6234(8) 0.8798(6) 0.2603(4)
H123 H 0.6404 0.9382 0.2740
H124 H 0.5687 0.8527 0.2234
H125 H 0.6863 0.8622 0.2486
C100 C 0.3171(9) 0.4676(7) 0.3011(5)
H126 H 0.2411 0.4464 0.2983
H127 H 0.3449 0.4255 0.2716
H128 H 0.3325 0.5136 0.2900
O20 O 0.3665(6) 0.4933(4) 0.3663(3)
C101 C 0.4742(7) 0.5250(5) 0.3791(4)
C102 C 0.5439(7) 0.5419(5) 0.3378(4)
H129 H 0.5173 0.5307 0.2958
C103 C 0.6490(8) 0.5741(6) 0.3582(5)
H130 H 0.6927 0.5860 0.3295
C104 C 0.6967(8) 0.5910(6) 0.4184(5)
C105 C 0.6252(8) 0.5755(6) 0.4612(5)
H131 H 0.6527 0.5871 0.5032
C106 C 0.5175(8) 0.5440(6) 0.4423(5)
H132 H 0.4726 0.5351 0.4715
C107 C 0.8157(9) 0.6234(7) 0.4398(6)
H133 H 0.8305 0.6305 0.4836
H134 H 0.8421 0.6753 0.4375
H135 H 0.8504 0.5852 0.4119
C108 C -0.3881(9) 0.3458(7) 0.3128(6)
H136 H -0.4087 0.3241 0.2669
H137 H -0.3889 0.4021 0.3327
H138 H -0.4375 0.3145 0.3305
O21 O -0.2842(6) 0.3409(4) 0.3252(3)
C109 C -0.2395(8) 0.3694(6) 0.3894(5)
C110 C -0.1386(9) 0.3701(7) 0.3992(6)
H139 H -0.1014 0.3535 0.3639
C111 C -0.0879(10) 0.3952(7) 0.4609(6)
H140 H -0.0173 0.3949 0.4670
C112 C -0.1433(9) 0.4215(7) 0.5151(5)
C113 C -0.2428(10) 0.4222(7) 0.5029(6)
H141 H -0.2793 0.4416 0.5381
C114 C -0.2967(9) 0.3958(6) 0.4406(5)
H142 H -0.3673 0.3960 0.4341
C115 C -0.0877(10) 0.4491(8) 0.5823(6)
H143 H -0.0165 0.4434 0.5798
H144 H -0.1268 0.4160 0.6024
H145 H -0.0842 0.5056 0.6077
C1? C -0.0304(23) 0.3208(17) -0.1253(14)
H1? H -0.0683 0.2747 -0.1643
H2? H -0.0151 0.3019 -0.0934
H3? H 0.0354 0.3489 -0.1345
O1? O -0.0926(9) 0.3740(7) -0.1017(5)
C2? C -0.0522(8) 0.4445(5) -0.0455(4)
C3? C 0.0476(7) 0.4670(6) -0.0100(5)
H4? H 0.0922 0.4330 -0.0235
C4? C 0.0808(6) 0.5402(6) 0.0456(4)
H5? H 0.1475 0.5552 0.0694
C5? C 0.0141(8) 0.5909(4) 0.0658(4)
C6? C -0.0857(7) 0.5685(5) 0.0303(5)
H6? H -0.1303 0.6025 0.0437
C7? C -0.1188(6) 0.4953(6) -0.0254(4)
H7? H -0.1856 0.4803 -0.0491
C8? C 0.0458(20) 0.6731(13) 0.1308(11)
H8? H 0.1162 0.6814 0.1504
H9? H -0.0046 0.6688 0.1603
H10? H 0.0450 0.7188 0.1211
C9? C 0.3704(16) -0.1708(12) -0.1419(9)
H11? H 0.3532 -0.1978 -0.1883
H12? H 0.3061 -0.1661 -0.1227
H13? H 0.4035 -0.2023 -0.1270
O2? O 0.4400(11) -0.0933(9) -0.1242(7)
C10? C 0.4731(10) -0.0452(7) -0.0575(5)
C11? C 0.4315(10) -0.0636(7) -0.0076(6)
H14? H 0.3785 -0.1124 -0.0173
C12? C 0.4692(11) -0.0090(8) 0.0567(6)
H15? H 0.4414 -0.0212 0.0900
C13? C 0.5484(11) 0.0640(7) 0.0711(5)
C14? C 0.5900(10) 0.0824(7) 0.0213(6)
H16? H 0.6430 0.1312 0.0309
C15? C 0.5523(10) 0.0278(7) -0.0430(6)
H17? H 0.5801 0.0401 -0.0764
C16? C 0.5828(22) 0.1298(17) 0.1382(12)
H18? H 0.6381 0.1747 0.1376
H19? H 0.6096 0.1084 0.1655
H20? H 0.5229 0.1488 0.1549
H72? H 0.1581 1.2599 0.2781
H73? H 0.2543 1.2227 0.2742
C73? C 0.2456(16) 1.3008(11) 0.3673(6)
H77? H 0.2920 1.3484 0.3648
H78? H 0.2859 1.2787 0.3881
H79? H 0.1895 1.3160 0.3920
loop_
_geom_bond_atom_site_label_1
_geom_bond_atom_site_label_2
_geom_bond_site_symmetry_1
_geom_bond_site_symmetry_2
O3 C17 1_555 1_555
C17 H21 1_555 1_555
H22 C17 1_555 1_555
O4 C17 1_555 1_555
C18 O4 1_555 1_555
C19 C18 1_555 1_555
C20 C19 1_555 1_555
H23 C20 1_555 1_555
C21 C20 1_555 1_555
C22 C21 1_555 1_555
C23 C18 1_555 1_555
O5 C23 1_555 1_555
C24 O5 1_555 1_555
H24 C24 1_555 1_555
H25 C24 1_555 1_555
C25 C24 1_555 1_555
H26 C25 1_555 1_555
H27 C25 1_555 1_555
N1 C25 1_555 1_555
S1 N1 1_555 1_555
O6 S1 1_555 1_555
O7 S1 1_555 1_555
C26 S1 1_555 1_555
C27 C26 1_555 1_555
H28 C27 1_555 1_555
C28 C27 1_555 1_555
H29 C28 1_555 1_555
C29 C28 1_555 1_555
C30 C29 1_555 1_555
H30 C30 1_555 1_555
C31 C26 1_555 1_555
H31 C31 1_555 1_555
C32 C29 1_555 1_555
H32 C32 1_555 1_555
H33 C32 1_555 1_555
H34 C32 1_555 1_555
C33 N1 1_555 1_555
H35 C33 1_555 1_555
H36 C33 1_555 1_555
C34 C33 1_555 1_555
H37 C34 1_555 1_555
H38 C34 1_555 1_555
O8 C34 1_555 1_555
O9 C22 1_555 1_555
C35 O9 1_555 1_555
H39 C35 1_555 1_555
H40 C35 1_555 1_555
O10 C35 1_555 1_555
C36 O10 1_555 1_555
C37 C36 1_555 1_555
C38 C37 1_555 1_555
H41 C38 1_555 1_555
C39 C38 1_555 1_555
C40 C39 1_555 1_555
C41 C36 1_555 1_555
O11 C41 1_555 1_555
C42 O11 1_555 1_555
H42 C42 1_555 1_555
H43 C42 1_555 1_555
C43 C42 1_555 1_555
H44 C43 1_555 1_555
H45 C43 1_555 1_555
N2 C43 1_555 1_555
S2 N2 1_555 1_555
O12 S2 1_555 1_555
O13 S2 1_555 1_555
C44 S2 1_555 1_555
C45 C44 1_555 1_555
H46 C45 1_555 1_555
C46 C45 1_555 1_555
H47 C46 1_555 1_555
C47 C46 1_555 1_555
C48 C47 1_555 1_555
H48 C48 1_555 1_555
C49 C44 1_555 1_555
H49 C49 1_555 1_555
C50 C47 1_555 1_555
H50 C50 1_555 1_555
H51 C50 1_555 1_555
H52 C50 1_555 1_555
C51 N2 1_555 1_555
H53 C51 1_555 1_555
H54 C51 1_555 1_555
C52 C51 1_555 1_555
H55 C52 1_555 1_555
H56 C52 1_555 1_555
O14 C52 1_555 1_555
O15 C40 1_555 1_555
C53 O15 1_555 1_555
H57 C53 1_555 1_555
H58 C53 1_555 1_555
O16 C53 1_555 1_555
C54 O16 1_555 1_555
C55 C54 1_555 1_555
C56 C55 1_555 1_555
H59 C56 1_555 1_555
C57 C56 1_555 1_555
C58 C57 1_555 1_555
C59 O8 1_555 1_555
O17 C58 1_555 1_555
C60 O17 1_555 1_555
H60 C60 1_555 1_555
H61 C60 1_555 1_555
O18 C60 1_555 1_555
C61 O18 1_555 1_555
C62 C61 1_555 1_555
C63 C62 1_555 1_555
H62 C63 1_555 1_555
C64 C63 1_555 1_555
C65 O3 1_555 1_555
C66 O14 1_555 1_555
C67 C57 1_555 1_555
H63 C67 1_555 1_555
C68 C67 1_555 1_555
H64 C68 1_555 1_555
H65 C68 1_555 1_555
C69 C68 1_555 1_555
H66 C69 1_555 1_555
H67 C69 1_555 1_555
C70 C69 1_555 1_555
H68 C70 1_555 1_555
H69 C70 1_555 1_555
C71 C70 1_555 1_555
H70 C71 1_555 1_555
H71 C71 1_555 1_555
C72 C71 1_555 1_555
H74 C72 1_555 1_555
H75 C72 1_555 1_555
H76 C72 1_555 1_555
C74 C39 1_555 1_555
H80 C74 1_555 1_555
C75 C74 1_555 1_555
H81 C75 1_555 1_555
H82 C75 1_555 1_555
C76 C75 1_555 1_555
H83 C76 1_555 1_555
H84 C76 1_555 1_555
C77 C76 1_555 1_555
H85 C77 1_555 1_555
H86 C77 1_555 1_555
C78 C77 1_555 1_555
H87 C78 1_555 1_555
H88 C78 1_555 1_555
C79 C78 1_555 1_555
H89 C79 1_555 1_555
H90 C79 1_555 1_555
H91 C79 1_555 1_555
C80 C21 1_555 1_555
H92 C80 1_555 1_555
C81 C80 1_555 1_555
H93 C81 1_555 1_555
H94 C81 1_555 1_555
C82 C81 1_555 1_555
H95 C82 1_555 1_555
H96 C82 1_555 1_555
C83 C82 1_555 1_555
H97 C83 1_555 1_555
H98 C83 1_555 1_555
C84 C83 1_555 1_555
H99 C84 1_555 1_555
H100 C84 1_555 1_555
C85 C84 1_555 1_555
H101 C85 1_555 1_555
H102 C85 1_555 1_555
H103 C85 1_555 1_555
C86 C19 1_555 1_555
H104 C86 1_555 1_555
C87 C86 1_555 1_555
H105 C87 1_555 1_555
H106 C87 1_555 1_555
C88 C87 1_555 1_555
H107 C88 1_555 1_555
H108 C88 1_555 1_555
C89 C88 1_555 1_555
H109 C89 1_555 1_555
H110 C89 1_555 1_555
C90 C89 1_555 1_555
H111 C90 1_555 1_555
H112 C90 1_555 1_555
C91 C90 1_555 1_555
H113 C91 1_555 1_555
H114 C91 1_555 1_555
H115 C91 1_555 1_555
C92 H116 1_555 1_555
H117 C92 1_555 1_555
H118 C92 1_555 1_555
O19 C92 1_555 1_555
C93 O19 1_555 1_555
C94 C93 1_555 1_555
H119 C94 1_555 1_555
C95 C94 1_555 1_555
H120 C95 1_555 1_555
C96 C95 1_555 1_555
C97 C96 1_555 1_555
H121 C97 1_555 1_555
C98 C93 1_555 1_555
H122 C98 1_555 1_555
C99 C96 1_555 1_555
H123 C99 1_555 1_555
H124 C99 1_555 1_555
H125 C99 1_555 1_555
C100 H126 1_555 1_555
H127 C100 1_555 1_555
H128 C100 1_555 1_555
O20 C100 1_555 1_555
C101 O20 1_555 1_555
C102 C101 1_555 1_555
H129 C102 1_555 1_555
C103 C102 1_555 1_555
H130 C103 1_555 1_555
C104 C103 1_555 1_555
C105 C104 1_555 1_555
H131 C105 1_555 1_555
C106 C101 1_555 1_555
H132 C106 1_555 1_555
C107 C104 1_555 1_555
H133 C107 1_555 1_555
H134 C107 1_555 1_555
H135 C107 1_555 1_555
C108 H136 1_555 1_555
H137 C108 1_555 1_555
H138 C108 1_555 1_555
O21 C108 1_555 1_555
C109 O21 1_555 1_555
C110 C109 1_555 1_555
H139 C110 1_555 1_555
C111 C110 1_555 1_555
H140 C111 1_555 1_555
C112 C111 1_555 1_555
C113 C112 1_555 1_555
H141 C113 1_555 1_555
C114 C109 1_555 1_555
H142 C114 1_555 1_555
C115 C112 1_555 1_555
H143 C115 1_555 1_555
H144 C115 1_555 1_555
H145 C115 1_555 1_555
C54A C59 1_555 1_555
O16A C54A 1_555 1_555
C53A O16A 1_555 1_555
O15A C53A 1_555 1_555
C40A O15A 1_555 1_555
C39A C40A 1_555 1_555
C38A C39A 1_555 1_555
C37A C38A 1_555 1_555
C36A C37A 1_555 1_555
O10A C36A 1_555 1_555
C35A O10A 1_555 1_555
O9A C35A 1_555 1_555
C22A O9A 1_555 1_555
C21A C22A 1_555 1_555
C20A C21A 1_555 1_555
C19A C20A 1_555 1_555
C18A C19A 1_555 1_555
O4A C18A 1_555 1_555
C17A O4A 1_555 1_555
O3A C17A 1_555 1_555
C65A C66 1_555 1_555
C64A C65A 1_555 1_555
C63A C64A 1_555 1_555
C62A C63A 1_555 1_555
C61A C66 1_555 1_555
O18A C61A 1_555 1_555
C60A O18A 1_555 1_555
O17A C60A 1_555 1_555
C58A C59 1_555 1_555
C57A C58A 1_555 1_555
C56A C57A 1_555 1_555
C55A C54A 1_555 1_555
C74A C39A 1_555 1_555
H80A C74A 1_555 1_555
C75A C74A 1_555 1_555
H81A C75A 1_555 1_555
H82A C75A 1_555 1_555
C76A C75A 1_555 1_555
H83A C76A 1_555 1_555
H84A C76A 1_555 1_555
C77A C76A 1_555 1_555
H85A C77A 1_555 1_555
H86A C77A 1_555 1_555
C78A C77A 1_555 1_555
H87A C78A 1_555 1_555
H88A C78A 1_555 1_555
C79A C78A 1_555 1_555
H89A C79A 1_555 1_555
H90A C79A 1_555 1_555
H91A C79A 1_555 1_555
H59A C56A 1_555 1_555
C67A C62A 1_555 1_555
H63A C67A 1_555 1_555
C68A C67A 1_555 1_555
H64A C68A 1_555 1_555
H65A C68A 1_555 1_555
C69A C68A 1_555 1_555
H66A C69A 1_555 1_555
H67A C69A 1_555 1_555
C70A C69A 1_555 1_555
H68A C70A 1_555 1_555
H69A C70A 1_555 1_555
C71A C70A 1_555 1_555
H70A C71A 1_555 1_555
H71A C71A 1_555 1_555
C72A C71A 1_555 1_555
H74A C72A 1_555 1_555
H75A C72A 1_555 1_555
H76A C72A 1_555 1_555
H60A C60A 1_555 1_555
H61A C60A 1_555 1_555
C59A C54 1_555 1_555
O8A C59A 1_555 1_555
C34A O8A 1_555 1_555
C33A C34A 1_555 1_555
N1A C33A 1_555 1_555
C25A N1A 1_555 1_555
C24A C25A 1_555 1_555
O5A C24A 1_555 1_555
C23A C22A 1_555 1_555
H24A C24A 1_555 1_555
H25A C24A 1_555 1_555
H26A C25A 1_555 1_555
H27A C25A 1_555 1_555
S1A N1A 1_555 1_555
O6A S1A 1_555 1_555
O7A S1A 1_555 1_555
C26A S1A 1_555 1_555
C27A C26A 1_555 1_555
H28A C27A 1_555 1_555
C28A C27A 1_555 1_555
H29A C28A 1_555 1_555
C29A C28A 1_555 1_555
C30A C29A 1_555 1_555
H30A C30A 1_555 1_555
C31A C26A 1_555 1_555
H31A C31A 1_555 1_555
C32A C29A 1_555 1_555
H32A C32A 1_555 1_555
H33A C32A 1_555 1_555
H34A C32A 1_555 1_555
H35A C33A 1_555 1_555
H36A C33A 1_555 1_555
H37A C34A 1_555 1_555
H38A C34A 1_555 1_555
C66A C61 1_555 1_555
O14A C66A 1_555 1_555
C52A O14A 1_555 1_555
C51A C52A 1_555 1_555
N2A C51A 1_555 1_555
C43A N2A 1_555 1_555
C42A C43A 1_555 1_555
O11A C42A 1_555 1_555
C41A C40A 1_555 1_555
H42A C42A 1_555 1_555
H43A C42A 1_555 1_555
H44A C43A 1_555 1_555
H45A C43A 1_555 1_555
S2A N2A 1_555 1_555
O12A S2A 1_555 1_555
O13A S2A 1_555 1_555
C44A S2A 1_555 1_555
C45A C44A 1_555 1_555
H46A C45A 1_555 1_555
C46A C45A 1_555 1_555
H47A C46A 1_555 1_555
C47A C46A 1_555 1_555
C48A C47A 1_555 1_555
H48A C48A 1_555 1_555
C49A C44A 1_555 1_555
H49A C49A 1_555 1_555
C50A C47A 1_555 1_555
H50A C50A 1_555 1_555
H51A C50A 1_555 1_555
H52A C50A 1_555 1_555
H53A C51A 1_555 1_555
H54A C51A 1_555 1_555
H55A C52A 1_555 1_555
H56A C52A 1_555 1_555
H62A C63A 1_555 1_555
C86A C19A 1_555 1_555
H104A C86A 1_555 1_555
C87A C86A 1_555 1_555
H105A C87A 1_555 1_555
H106A C87A 1_555 1_555
C88A C87A 1_555 1_555
H107A C88A 1_555 1_555
H108A C88A 1_555 1_555
C89A C88A 1_555 1_555
H109A C89A 1_555 1_555
H110A C89A 1_555 1_555
C90A C89A 1_555 1_555
H111A C90A 1_555 1_555
H112A C90A 1_555 1_555
C91A C90A 1_555 1_555
H113A C91A 1_555 1_555
H114A C91A 1_555 1_555
H115A C91A 1_555 1_555
H21A C17A 1_555 1_555
H22A C17A 1_555 1_555
H23A C20A 1_555 1_555
C80A C37A 1_555 1_555
H92A C80A 1_555 1_555
C81A C80A 1_555 1_555
H93A C81A 1_555 1_555
H94A C81A 1_555 1_555
C82A C81A 1_555 1_555
H95A C82A 1_555 1_555
H96A C82A 1_555 1_555
C83A C82A 1_555 1_555
H97A C83A 1_555 1_555
H98A C83A 1_555 1_555
C84A C83A 1_555 1_555
H99A C84A 1_555 1_555
H100A C84A 1_555 1_555
C85A C84A 1_555 1_555
H101A C85A 1_555 1_555
H102A C85A 1_555 1_555
H103A C85A 1_555 1_555
H39A C35A 1_555 1_555
H40A C35A 1_555 1_555
H41A C38A 1_555 1_555
H57A C53A 1_555 1_555
H58A C53A 1_555 1_555
C22 C23 1_555 1_555
C30 C31 1_555 1_555
C37 C80 1_555 1_555
C40 C41 1_555 1_555
C48 C49 1_555 1_555
C55 C74 1_555 1_555
C58 C59A 1_555 1_555
C62 C67 1_555 1_555
C64 C65 1_555 1_555
C64 C86 1_555 1_555
C65 C66A 1_555 1_555
C97 C98 1_555 1_555
C105 C106 1_555 1_555
C113 C114 1_555 1_555
C36A C41A 1_555 1_555
C21A C80A 1_555 1_555
C18A C23A 1_555 1_555
O3A C65A 1_555 1_555
C64A C86A 1_555 1_555
C62A C61A 1_555 1_555
O17A C58A 1_555 1_555
C57A C67A 1_555 1_555
C56A C55A 1_555 1_555
C55A C74A 1_555 1_555
O5A C23A 1_555 1_555
C30A C31A 1_555 1_555
O11A C41A 1_555 1_555
C48A C49A 1_555 1_555

#END
