
#######################################################################
#
#                 Cambridge Crystallographic Data Centre
#                                CCDC 
#
#######################################################################
#
# If this CIF has been generated from an entry in the Cambridge 
# Structural Database, then it will include bibliographic, chemical, 
# crystal, experimental, refinement or atomic coordinate data resulting 
# from the CCDC's data processing and validation procedures.
#
#######################################################################

data_GUJWEP
_chemical_formula_moiety         'C8 H15 N1 O2'
_chemical_name_systematic        3-Ethyl-3-(hydroxymethyl)piperidin-2-one
_symmetry_cell_setting           triclinic
_symmetry_space_group_name_H-M   'P -1'
_symmetry_Int_Tables_number      2
_space_group_name_Hall           '-P 1'
loop_
_symmetry_equiv_pos_site_id
_symmetry_equiv_pos_as_xyz
1 x,y,z
2 -x,-y,-z
_cell_length_a                   6.0486(5)
_cell_length_b                   11.6947(9)
_cell_length_c                   11.8938(9)
_cell_angle_alpha                89.349(5)
_cell_angle_beta                 88.952(5)
_cell_angle_gamma                84.996(5)
_cell_volume                     837.939
_exptl_crystal_colour            colorless
_exptl_crystal_description       Block
_cell_formula_units_Z            4
loop_
_atom_site_label
_atom_site_type_symbol
_atom_site_fract_x
_atom_site_fract_y
_atom_site_fract_z
N1 N 0.5794(3) 0.61680(15) 0.57275(15)
H1 H 0.687(4) 0.605(3) 0.524(2)
C1 C 0.5529(3) 0.54113(15) 0.65631(16)
O1 O 0.6927(2) 0.45788(13) 0.67205(13)
C2 C 0.3485(3) 0.55614(15) 0.73522(15)
C3 C 0.1921(3) 0.66339(16) 0.70840(17)
H2 H 0.0395 0.6497 0.7333
H3 H 0.2382 0.7289 0.7516
C4 C 0.2270(3) 0.44590(16) 0.72882(17)
H4 H 0.3338 0.3788 0.7444
H5 H 0.1096 0.4481 0.7881
O2 O 0.1294(2) 0.43121(13) 0.62326(13)
H6 H -0.005(3) 0.445(3) 0.630(3)
C5 C 0.4304(3) 0.55998(17) 0.85706(16)
H7 H 0.3002 0.5752 0.9081
H8 H 0.5034 0.4837 0.8773
C6 C 0.5917(4) 0.6501(2) 0.8764(2)
H9 H 0.7266 0.6324 0.8307
H10 H 0.6301 0.6502 0.9561
H11 H 0.5225 0.7259 0.8549
C7 C 0.1908(3) 0.69498(17) 0.58341(18)
H12 H 0.1357 0.6320 0.5398
H13 H 0.0903 0.7652 0.5709
C8 C 0.4248(4) 0.71534(17) 0.54399(18)
H14 H 0.4271 0.7279 0.4615
H15 H 0.4714 0.7851 0.5800
N2 N 1.1065(3) 0.10816(14) 0.92369(14)
H16 H 1.213(4) 0.091(3) 0.972(2)
C9 C 1.0787(3) 0.03253(15) 0.84430(15)
O3 O 1.2055(2) -0.05755(12) 0.83529(13)
C10 C 0.8897(3) 0.05403(15) 0.76168(15)
C11 C 0.7567(3) 0.17128(16) 0.77722(17)
H17 H 0.8287 0.2297 0.7320
H18 H 0.6055 0.1670 0.7480
C12 C 0.7405(3) -0.04570(16) 0.77673(16)
H19 H 0.6274 -0.0400 0.7173
H20 H 0.8323 -0.1193 0.7668
O4 O 0.6312(2) -0.04642(13) 0.88399(13)
H21 H 0.503(3) -0.058(3) 0.869(3)
C13 C 0.9890(3) 0.04475(16) 0.64099(16)
H22 H 1.0420 -0.0365 0.6274
H23 H 0.8687 0.0659 0.5873
C14 C 1.1805(3) 0.11873(19) 0.61474(18)
H24 H 1.1282 0.2000 0.6225
H25 H 1.2348 0.1044 0.5376
H26 H 1.3012 0.0991 0.6673
C15 C 0.7387(4) 0.20972(17) 0.89914(18)
H27 H 0.6554 0.2863 0.9038
H28 H 0.6574 0.1549 0.9444
C16 C 0.9683(4) 0.21511(16) 0.94480(17)
H29 H 1.0384 0.2800 0.9088
H30 H 0.9577 0.2290 1.0268
loop_
_geom_bond_atom_site_label_1
_geom_bond_atom_site_label_2
_geom_bond_site_symmetry_1
_geom_bond_site_symmetry_2
N1 H1 1_555 1_555
C1 N1 1_555 1_555
O1 C1 1_555 1_555
C2 C1 1_555 1_555
C3 C2 1_555 1_555
H2 C3 1_555 1_555
H3 C3 1_555 1_555
C4 C2 1_555 1_555
H4 C4 1_555 1_555
H5 C4 1_555 1_555
O2 C4 1_555 1_555
H6 O2 1_555 1_555
C5 C2 1_555 1_555
H7 C5 1_555 1_555
H8 C5 1_555 1_555
C6 C5 1_555 1_555
H9 C6 1_555 1_555
H10 C6 1_555 1_555
H11 C6 1_555 1_555
C7 C3 1_555 1_555
H12 C7 1_555 1_555
H13 C7 1_555 1_555
C8 N1 1_555 1_555
H14 C8 1_555 1_555
H15 C8 1_555 1_555
N2 H16 1_555 1_555
C9 N2 1_555 1_555
O3 C9 1_555 1_555
C10 C9 1_555 1_555
C11 C10 1_555 1_555
H17 C11 1_555 1_555
H18 C11 1_555 1_555
C12 C10 1_555 1_555
H19 C12 1_555 1_555
H20 C12 1_555 1_555
O4 C12 1_555 1_555
H21 O4 1_555 1_555
C13 C10 1_555 1_555
H22 C13 1_555 1_555
H23 C13 1_555 1_555
C14 C13 1_555 1_555
H24 C14 1_555 1_555
H25 C14 1_555 1_555
H26 C14 1_555 1_555
C15 C11 1_555 1_555
H27 C15 1_555 1_555
H28 C15 1_555 1_555
C16 N2 1_555 1_555
H29 C16 1_555 1_555
H30 C16 1_555 1_555
C7 C8 1_555 1_555
C15 C16 1_555 1_555

#END
