
#######################################################################
#
#                 Cambridge Crystallographic Data Centre
#                                CCDC 
#
#######################################################################
#
# If this CIF has been generated from an entry in the Cambridge 
# Structural Database, then it will include bibliographic, chemical, 
# crystal, experimental, refinement or atomic coordinate data resulting 
# from the CCDC's data processing and validation procedures.
#
#######################################################################

data_GUJZUH
_chemical_formula_moiety         'C34 H26 N8 O4,1.5(H2 O1)'
_chemical_name_systematic        
"14b,14c-Diphenyl-14b,14c-dihydro-8H,16H-4b,5a,6a,7a,12b,13a,14a,15a-octaazabenzo[a]benzo[2',3']azuleno[5',6',7':3,4]pentaleno[1,6-fg]azulene-6,8,14,16-tetrone sesquihydrate"
_symmetry_cell_setting           monoclinic
_symmetry_space_group_name_H-M   'C 2/c'
_symmetry_Int_Tables_number      15
_space_group_name_Hall           '-C 2yn'
loop_
_symmetry_equiv_pos_site_id
_symmetry_equiv_pos_as_xyz
1 x,y,z
2 -x,y,1/2-z
3 1/2+x,1/2+y,z
4 1/2-x,1/2+y,1/2-z
5 -x,-y,-z
6 x,-y,1/2+z
7 1/2-x,1/2-y,-z
8 1/2+x,1/2-y,1/2+z
_cell_length_a                   11.2685(10)
_cell_length_b                   24.869(2)
_cell_length_c                   21.381(2)
_cell_angle_alpha                90
_cell_angle_beta                 100.407(2)
_cell_angle_gamma                90
_cell_volume                     5893.17
_exptl_crystal_colour            colorless
_exptl_crystal_description       block
_chemical_melting_point          'above 300 deg.C(dec.)'
_cell_formula_units_Z            8
loop_
_atom_site_label
_atom_site_type_symbol
_atom_site_fract_x
_atom_site_fract_y
_atom_site_fract_z
C1 C 0.5581(3) 0.02209(12) 0.09914(13)
C2 C 0.4953(3) 0.00894(15) 0.14836(14)
H1 H 0.4970 -0.0259 0.1644
C3 C 0.4322(3) 0.04831(17) 0.17195(15)
H2 H 0.3896 0.0402 0.2042
C4 C 0.4304(3) 0.10045(17) 0.14855(16)
H3 H 0.3864 0.1265 0.1657
C5 C 0.4913(3) 0.11494(14) 0.10089(15)
H4 H 0.4892 0.1500 0.0855
C6 C 0.5558(3) 0.07487(12) 0.07702(13)
C7 C 0.6309(3) -0.00961(12) 0.06345(13)
C8 C 0.7540(3) 0.01637(10) -0.01920(12)
H5 H 0.7970 -0.0167 -0.0061
H6 H 0.7124 0.0117 -0.0627
C9 C 0.6102(3) 0.11521(11) -0.02236(14)
H7 H 0.5771 0.0955 -0.0607
H8 H 0.5522 0.1426 -0.0159
C10 C 0.9458(3) 0.05963(10) 0.02537(11)
C11 C 0.7714(2) 0.17932(10) 0.01340(11)
C12 C 0.8149(2) 0.10919(9) -0.05281(11)
C13 C 0.7849(2) 0.09925(10) -0.12440(12)
C14 C 0.6974(3) 0.12877(12) -0.16343(13)
H9 H 0.6539 0.1549 -0.1462
C15 C 0.6746(3) 0.11919(14) -0.22856(15)
H10 H 0.6154 0.1389 -0.2547
C16 C 0.7384(4) 0.08100(14) -0.25459(15)
H11 H 0.7222 0.0746 -0.2982
C17 C 0.8259(4) 0.05243(13) -0.21619(14)
H12 H 0.8700 0.0268 -0.2339
C18 C 0.8498(3) 0.06102(11) -0.15134(13)
H13 H 0.9096 0.0412 -0.1257
C19 C 0.9349(2) 0.14268(10) -0.02755(11)
C20 C 0.9986(3) 0.16685(11) -0.07773(12)
C21 C 0.9503(3) 0.21204(11) -0.11106(13)
H14 H 0.8791 0.2270 -0.1028
C22 C 1.0075(4) 0.23485(14) -0.15642(15)
H15 H 0.9737 0.2648 -0.1790
C23 C 1.1133(5) 0.2140(2) -0.1686(2)
H16 H 1.1521 0.2300 -0.1987
C24 C 1.1612(5) 0.1696(2) -0.1362(2)
H17 H 1.2336 0.1555 -0.1440
C25 C 1.1034(4) 0.14499(15) -0.09154(18)
H18 H 1.1353 0.1138 -0.0710
C26 C 1.1042(3) 0.12277(12) 0.06362(13)
H19 H 1.1576 0.1468 0.0461
H20 H 1.1513 0.0923 0.0823
C27 C 0.9644(3) 0.22574(10) 0.04303(12)
H21 H 0.9138 0.2552 0.0521
H22 H 1.0176 0.2394 0.0157
C28 C 1.0667(2) 0.23698(12) 0.15601(13)
C29 C 1.1208(2) 0.19845(12) 0.20478(13)
C30 C 1.1128(2) 0.14784(12) 0.17724(12)
C31 C 1.1524(3) 0.10232(13) 0.21130(14)
H23 H 1.1453 0.0685 0.1925
C32 C 1.2030(3) 0.10907(16) 0.27443(16)
H24 H 1.2318 0.0792 0.2987
C33 C 1.2120(3) 0.15973(17) 0.30273(15)
H25 H 1.2469 0.1630 0.3454
C34 C 1.1705(3) 0.20439(15) 0.26907(14)
H26 H 1.1752 0.2380 0.2884
N1 N 0.6657(2) 0.02586(8) 0.02126(11)
N2 N 0.6294(2) 0.07850(9) 0.03184(11)
N3 N 0.83935(19) 0.05925(8) -0.01712(9)
N4 N 0.72205(19) 0.14069(8) -0.03024(10)
N5 N 1.0102(2) 0.10424(8) 0.01330(10)
N6 N 0.88994(19) 0.18451(8) 0.01017(9)
N7 N 1.0539(2) 0.15116(9) 0.11329(10)
N8 N 1.0365(2) 0.20692(9) 0.10207(10)
O1 O 0.6590(2) -0.05747(9) 0.06732(11)
O2 O 0.97909(19) 0.02548(7) 0.06532(9)
O3 O 0.71584(17) 0.20530(7) 0.04682(8)
O4 O 1.0478(2) 0.28541(8) 0.15842(10)
O5 O 0.3646(8) 0.1710(4) 0.9576(6)
O6 O 0.2500 0.2500 0.0000
loop_
_geom_bond_atom_site_label_1
_geom_bond_atom_site_label_2
_geom_bond_site_symmetry_1
_geom_bond_site_symmetry_2
C1 C2 1_555 1_555
C2 H1 1_555 1_555
C3 C2 1_555 1_555
H2 C3 1_555 1_555
C4 C3 1_555 1_555
H3 C4 1_555 1_555
C5 C4 1_555 1_555
H4 C5 1_555 1_555
C6 C1 1_555 1_555
C7 C1 1_555 1_555
C8 H5 1_555 1_555
H6 C8 1_555 1_555
C9 H7 1_555 1_555
H8 C9 1_555 1_555
C10 N3 1_555 1_555
C11 N4 1_555 1_555
C12 C13 1_555 1_555
C13 C14 1_555 1_555
C14 H9 1_555 1_555
C15 C14 1_555 1_555
H10 C15 1_555 1_555
C16 C15 1_555 1_555
H11 C16 1_555 1_555
C17 C16 1_555 1_555
H12 C17 1_555 1_555
C18 C13 1_555 1_555
H13 C18 1_555 1_555
C19 C12 1_555 1_555
C20 C19 1_555 1_555
C21 C20 1_555 1_555
H14 C21 1_555 1_555
C22 C21 1_555 1_555
H15 C22 1_555 1_555
C23 C22 1_555 1_555
H16 C23 1_555 1_555
C24 C23 1_555 1_555
H17 C24 1_555 1_555
C25 C20 1_555 1_555
H18 C25 1_555 1_555
C26 H19 1_555 1_555
H20 C26 1_555 1_555
C27 H21 1_555 1_555
H22 C27 1_555 1_555
C28 C29 1_555 1_555
C29 C30 1_555 1_555
C30 C31 1_555 1_555
C31 H23 1_555 1_555
C32 C31 1_555 1_555
H24 C32 1_555 1_555
C33 C32 1_555 1_555
H25 C33 1_555 1_555
C34 C29 1_555 1_555
H26 C34 1_555 1_555
N1 C7 1_555 1_555
N2 C6 1_555 1_555
N3 C8 1_555 1_555
N4 C9 1_555 1_555
N5 C10 1_555 1_555
N6 C11 1_555 1_555
N7 C26 1_555 1_555
N8 C27 1_555 1_555
O1 C7 1_555 1_555
O2 C10 1_555 1_555
O3 C11 1_555 1_555
O4 C28 1_555 1_555
C5 C6 1_555 1_555
C8 N1 1_555 1_555
C9 N2 1_555 1_555
C12 N3 1_555 1_555
C12 N4 1_555 1_555
C17 C18 1_555 1_555
C19 N5 1_555 1_555
C19 N6 1_555 1_555
C24 C25 1_555 1_555
C26 N5 1_555 1_555
C27 N6 1_555 1_555
C28 N8 1_555 1_555
C30 N7 1_555 1_555
C33 C34 1_555 1_555
N1 N2 1_555 1_555
N7 N8 1_555 1_555

#END
