
#######################################################################
#
#                 Cambridge Crystallographic Data Centre
#                                CCDC 
#
#######################################################################
#
# If this CIF has been generated from an entry in the Cambridge 
# Structural Database, then it will include bibliographic, chemical, 
# crystal, experimental, refinement or atomic coordinate data resulting 
# from the CCDC's data processing and validation procedures.
#
#######################################################################

data_GUKBIZ
_chemical_formula_moiety         'C28 H26 Cl1 P1 S1'
_chemical_name_systematic        
(2'-(t-Butylsulfanyl)-6'-chlorobiphenyl-2-yl)(diphenyl)phosphine
_symmetry_cell_setting           orthorhombic
_symmetry_space_group_name_H-M   'P 21 21 21'
_symmetry_Int_Tables_number      19
_space_group_name_Hall           'P 2ac 2ab'
loop_
_symmetry_equiv_pos_site_id
_symmetry_equiv_pos_as_xyz
1 x,y,z
2 1/2+x,1/2-y,-z
3 -x,1/2+y,1/2-z
4 1/2-x,-y,1/2+z
_cell_length_a                   9.4309(3)
_cell_length_b                   13.5255(4)
_cell_length_c                   19.3191(6)
_cell_angle_alpha                90
_cell_angle_beta                 90
_cell_angle_gamma                90
_cell_volume                     2464.3
_exptl_crystal_colour            colorless
_exptl_crystal_description       prism
_cell_formula_units_Z            4
loop_
_atom_site_label
_atom_site_type_symbol
_atom_site_fract_x
_atom_site_fract_y
_atom_site_fract_z
C1 C 0.2765(4) -0.0677(3) 0.0693(2)
C2 C 0.3117(4) -0.1025(3) 0.0032(2)
H1 H 0.3858 -0.0717 -0.0223
C3 C 0.2394(5) -0.1807(4) -0.0249(2)
H2 H 0.2643 -0.2035 -0.0698
C4 C 0.1328(5) -0.2265(3) 0.0102(3)
H3 H 0.0847 -0.2811 -0.0099
C5 C 0.0952(5) -0.1929(4) 0.0752(3)
H4 H 0.0203 -0.2239 0.0998
C6 C 0.1672(5) -0.1136(3) 0.1045(2)
H5 H 0.1410 -0.0907 0.1492
C7 C 0.2809(4) 0.0674(3) 0.18246(19)
C8 C 0.1610(5) 0.1234(3) 0.1760(2)
H6 H 0.1347 0.1488 0.1319
C9 C 0.0778(5) 0.1431(4) 0.2332(3)
H7 H -0.0073 0.1800 0.2278
C10 C 0.1164(5) 0.1102(3) 0.2973(3)
H8 H 0.0581 0.1236 0.3363
C11 C 0.2394(6) 0.0579(3) 0.3051(2)
H9 H 0.2669 0.0361 0.3498
C12 C 0.3248(5) 0.0360(3) 0.2483(2)
H10 H 0.4110 0.0006 0.2540
C13 C 0.5378(4) -0.0262(3) 0.13507(19)
C14 C 0.5316(4) -0.1241(3) 0.1605(2)
H11 H 0.4442 -0.1590 0.1590
C15 C 0.6494(5) -0.1696(3) 0.1872(2)
H12 H 0.6431 -0.2357 0.2037
C16 C 0.7759(5) -0.1203(3) 0.1901(2)
H13 H 0.8573 -0.1514 0.2091
C17 C 0.7842(4) -0.0234(3) 0.1649(2)
H14 H 0.8725 0.0104 0.1664
C18 C 0.6672(4) 0.0240(3) 0.13808(19)
C19 C 0.6862(4) 0.1282(3) 0.1144(2)
C20 C 0.7086(5) 0.2041(3) 0.1623(2)
C21 C 0.7485(5) 0.2981(3) 0.1438(3)
H15 H 0.7662 0.3468 0.1782
C22 C 0.7623(6) 0.3203(4) 0.0749(3)
H16 H 0.7944 0.3840 0.0614
C23 C 0.7302(6) 0.2516(4) 0.0253(3)
H17 H 0.7315 0.2699 -0.0221
C24 C 0.6961(4) 0.1558(3) 0.0438(2)
C25 C 0.8338(5) 0.0447(4) -0.0634(2)
C26 C 0.9485(8) 0.0312(6) -0.0096(4)
H18 H 0.9172 -0.0171 0.0250
H19 H 0.9674 0.0947 0.0131
H20 H 1.0352 0.0074 -0.0320
C27 C 0.8708(8) 0.1295(6) -0.1133(4)
H21 H 0.9006 0.1876 -0.0867
H22 H 0.7872 0.1462 -0.1411
H23 H 0.9481 0.1087 -0.1439
C28 C 0.8093(8) -0.0490(6) -0.1041(4)
H24 H 0.8871 -0.0584 -0.1371
H25 H 0.7195 -0.0439 -0.1294
H26 H 0.8054 -0.1054 -0.0724
P1 P 0.38032(10) 0.03814(7) 0.10217(5)
S1 S 0.65857(12) 0.06626(10) -0.02142(6)
Cl1 Cl 0.68711(12) 0.17984(8) 0.25017(5)
loop_
_geom_bond_atom_site_label_1
_geom_bond_atom_site_label_2
_geom_bond_site_symmetry_1
_geom_bond_site_symmetry_2
C1 C2 1_555 1_555
C2 H1 1_555 1_555
C3 C2 1_555 1_555
H2 C3 1_555 1_555
C4 C3 1_555 1_555
H3 C4 1_555 1_555
C5 C4 1_555 1_555
H4 C5 1_555 1_555
C6 C1 1_555 1_555
H5 C6 1_555 1_555
C7 C8 1_555 1_555
C8 H6 1_555 1_555
C9 C8 1_555 1_555
H7 C9 1_555 1_555
C10 C9 1_555 1_555
H8 C10 1_555 1_555
C11 C10 1_555 1_555
H9 C11 1_555 1_555
C12 C7 1_555 1_555
H10 C12 1_555 1_555
C13 C14 1_555 1_555
C14 H11 1_555 1_555
C15 C14 1_555 1_555
H12 C15 1_555 1_555
C16 C15 1_555 1_555
H13 C16 1_555 1_555
C17 C16 1_555 1_555
H14 C17 1_555 1_555
C18 C13 1_555 1_555
C19 C18 1_555 1_555
C20 C19 1_555 1_555
C21 C20 1_555 1_555
H15 C21 1_555 1_555
C22 C21 1_555 1_555
H16 C22 1_555 1_555
C23 C22 1_555 1_555
H17 C23 1_555 1_555
C24 C19 1_555 1_555
C25 C26 1_555 1_555
C26 H18 1_555 1_555
H19 C26 1_555 1_555
H20 C26 1_555 1_555
C27 C25 1_555 1_555
H21 C27 1_555 1_555
H22 C27 1_555 1_555
H23 C27 1_555 1_555
C28 C25 1_555 1_555
H24 C28 1_555 1_555
H25 C28 1_555 1_555
H26 C28 1_555 1_555
P1 C1 1_555 1_555
S1 C24 1_555 1_555
Cl1 C20 1_555 1_555
C5 C6 1_555 1_555
C7 P1 1_555 1_555
C11 C12 1_555 1_555
C13 P1 1_555 1_555
C17 C18 1_555 1_555
C23 C24 1_555 1_555
C25 S1 1_555 1_555

#END
