
#######################################################################
#
#                 Cambridge Crystallographic Data Centre
#                                CCDC 
#
#######################################################################
#
# If this CIF has been generated from an entry in the Cambridge 
# Structural Database, then it will include bibliographic, chemical, 
# crystal, experimental, refinement or atomic coordinate data resulting 
# from the CCDC's data processing and validation procedures.
#
#######################################################################

data_GUKBEV
_chemical_formula_moiety         'C16 H16 Cl1 I1 O1 S1'
_chemical_name_systematic        
"t-Butyl 6-chloro-2'-iodobiphenyl-2-yl sulfoxide"
_symmetry_cell_setting           orthorhombic
_symmetry_space_group_name_H-M   'P 21 21 21'
_symmetry_Int_Tables_number      19
_space_group_name_Hall           'P 2ac 2ab'
loop_
_symmetry_equiv_pos_site_id
_symmetry_equiv_pos_as_xyz
1 x,y,z
2 1/2+x,1/2-y,-z
3 -x,1/2+y,1/2-z
4 1/2-x,-y,1/2+z
_cell_length_a                   7.6495(6)
_cell_length_b                   12.8030(13)
_cell_length_c                   16.9343(13)
_cell_angle_alpha                90
_cell_angle_beta                 90
_cell_angle_gamma                90
_cell_volume                     1658.49
_exptl_crystal_colour            colorless
_exptl_crystal_description       block
_cell_formula_units_Z            4
_exptl_crystal_recrystallization_method 'ethyl acetate'
loop_
_atom_site_label
_atom_site_type_symbol
_atom_site_fract_x
_atom_site_fract_y
_atom_site_fract_z
C1 C 0.7167(3) 0.96685(19) 0.84695(14)
C2 C 0.5844(3) 1.0000(2) 0.79679(15)
H1 H 0.5466 0.9560 0.7550
C3 C 0.5077(3) 1.0961(2) 0.80732(17)
H2 H 0.4183 1.1189 0.7724
C4 C 0.5610(3) 1.1594(2) 0.86875(15)
H3 H 0.5100 1.2263 0.8759
C5 C 0.6900(3) 1.1243(2) 0.92013(15)
C6 C 0.7704(3) 1.02669(18) 0.91147(14)
C7 C 0.9022(3) 0.99094(17) 0.97070(14)
C8 C 0.8647(3) 0.91623(17) 1.02838(14)
C9 C 0.9868(4) 0.8893(2) 1.08560(15)
H4 H 0.9588 0.8389 1.1247
C10 C 1.1490(4) 0.9364(2) 1.08514(18)
H5 H 1.2334 0.9175 1.1237
C11 C 1.1897(3) 1.0110(2) 1.0290(2)
H6 H 1.3014 1.0435 1.0290
C12 C 1.0674(3) 1.0378(2) 0.97338(17)
H7 H 1.0957 1.0898 0.9355
C13 C 0.9709(3) 0.8626(2) 0.75334(15)
C14 C 0.8921(5) 0.9195(3) 0.68339(17)
H8 H 0.8674 0.9921 0.6981
H9 H 0.7833 0.8849 0.6676
H10 H 0.9748 0.9184 0.6392
C15 C 1.0270(5) 0.7521(3) 0.7301(2)
H11 H 1.1186 0.7559 0.6898
H12 H 0.9261 0.7141 0.7090
H13 H 1.0720 0.7156 0.7767
C16 C 1.1202(4) 0.9227(3) 0.7905(2)
H14 H 1.2190 0.9251 0.7537
H15 H 1.1565 0.8880 0.8394
H16 H 1.0819 0.9940 0.8024
O1 O 0.6602(3) 0.77882(15) 0.78964(12)
S1 S 0.80350(7) 0.83727(5) 0.83088(3)
Cl1 Cl 0.74989(11) 1.20588(6) 0.99742(5)
I1 I 0.62193(2) 0.840493(15) 1.031693(10)
loop_
_geom_bond_atom_site_label_1
_geom_bond_atom_site_label_2
_geom_bond_site_symmetry_1
_geom_bond_site_symmetry_2
C1 C2 1_555 1_555
C2 H1 1_555 1_555
C3 C2 1_555 1_555
H2 C3 1_555 1_555
C4 C3 1_555 1_555
H3 C4 1_555 1_555
C5 C4 1_555 1_555
C6 C1 1_555 1_555
C7 C6 1_555 1_555
C8 C7 1_555 1_555
C9 C8 1_555 1_555
H4 C9 1_555 1_555
C10 C9 1_555 1_555
H5 C10 1_555 1_555
C11 C10 1_555 1_555
H6 C11 1_555 1_555
C12 C7 1_555 1_555
H7 C12 1_555 1_555
C13 C14 1_555 1_555
C14 H8 1_555 1_555
H9 C14 1_555 1_555
H10 C14 1_555 1_555
C15 C13 1_555 1_555
H11 C15 1_555 1_555
H12 C15 1_555 1_555
H13 C15 1_555 1_555
C16 C13 1_555 1_555
H14 C16 1_555 1_555
H15 C16 1_555 1_555
H16 C16 1_555 1_555
O1 S1 1_555 1_555
S1 C1 1_555 1_555
Cl1 C5 1_555 1_555
I1 C8 1_555 1_555
C5 C6 1_555 1_555
C11 C12 1_555 1_555
C13 S1 1_555 1_555

#END
