
#######################################################################
#
#                 Cambridge Crystallographic Data Centre
#                                CCDC 
#
#######################################################################
#
# If this CIF has been generated from an entry in the Cambridge 
# Structural Database, then it will include bibliographic, chemical, 
# crystal, experimental, refinement or atomic coordinate data resulting 
# from the CCDC's data processing and validation procedures.
#
#######################################################################

data_GUKRUA
_chemical_formula_moiety         'C2 H10 N2 2+,C2 H7 N1 O6 P2 2-,3(H2 O1)'
_chemical_name_systematic        
'Ethylenediammonium hydrogen 1-ammonioethylidenediphosphonate trihydrate'
_symmetry_cell_setting           triclinic
_symmetry_space_group_name_H-M   'P -1'
_symmetry_Int_Tables_number      2
_space_group_name_Hall           '-P 1'
loop_
_symmetry_equiv_pos_site_id
_symmetry_equiv_pos_as_xyz
1 x,y,z
2 -x,-y,-z
_cell_length_a                   5.6469(16)
_cell_length_b                   9.008(3)
_cell_length_c                   13.229(4)
_cell_angle_alpha                97.626(4)
_cell_angle_beta                 99.857(5)
_cell_angle_gamma                101.154(4)
_cell_volume                     640.824
_exptl_crystal_colour            colorless
_exptl_crystal_description       block
_cell_formula_units_Z            2
loop_
_atom_site_label
_atom_site_type_symbol
_atom_site_fract_x
_atom_site_fract_y
_atom_site_fract_z
C1 C 0.3543(3) 0.45225(16) 0.28987(11)
C2 C 0.2494(3) 0.45447(19) 0.17589(12)
H1 H 0.1287 0.3611 0.1470
H2 H 0.3800 0.4631 0.1377
H3 H 0.1734 0.5406 0.1714
H8 H 0.536(6) 0.307(4) 0.452(2)
N1 N 0.1406(2) 0.44337(14) 0.34633(10)
H15 H 0.0755 0.5251 0.3405
H16 H 0.1946 0.4415 0.4133
H17 H 0.0263 0.3584 0.3182
O1 O 0.6491(2) 0.63603(14) 0.46436(9)
O2 O 0.4554(2) 0.76128(12) 0.32298(9)
O3 O 0.8040(2) 0.63241(13) 0.29661(9)
O4 O 0.6445(2) 0.25851(13) 0.22688(9)
O5 O 0.2353(2) 0.14905(13) 0.27576(10)
O6 O 0.6119(3) 0.28901(15) 0.41193(10)
P1 P 0.58302(7) 0.63345(4) 0.34771(3)
P2 P 0.46735(7) 0.27381(4) 0.29820(3)
C3 C 0.1061(3) 0.96042(19) 0.49874(13)
H4 H 0.2572 1.0285 0.5387
H5 H 0.0767 0.8689 0.5301
N2 N 0.1329(2) 0.91772(15) 0.38992(11)
H18 H -0.0016 0.8499 0.3545
H19 H 0.2638 0.8764 0.3895
H20 H 0.1527 1.0012 0.3603
C3A C -0.1061(3) 1.03958(19) 0.50126(13)
H4A H -0.2572 0.9715 0.4613
H5A H -0.0767 1.1311 0.4699
N2A N -0.1329(2) 1.08228(15) 0.61008(11)
H18A H 0.0016 1.1501 0.6455
H19A H -0.2638 1.1236 0.6105
H20A H -0.1527 0.9988 0.6397
C4 C 0.1243(3) 0.9805(2) 0.00874(14)
H6 H 0.1352 0.9074 -0.0502
H7 H 0.2514 1.0725 0.0147
N3 N 0.1636(3) 0.91395(17) 0.10476(11)
H21 H 0.1610 0.9829 0.1591
H22 H 0.3090 0.8879 0.1133
H23 H 0.0446 0.8309 0.0997
C4A C -0.1243(3) 1.0195(2) -0.00874(14)
H6A H -0.1352 1.0926 0.0502
H7A H -0.2514 0.9275 -0.0147
N3A N -0.1636(3) 1.08605(17) -0.10476(11)
H21A H -0.1610 1.0171 -0.1591
H22A H -0.3090 1.1121 -0.1133
H23A H -0.0446 1.1691 -0.0997
H9 H 0.695(5) 1.0352(11) 0.2184(19)
H10 H 0.612(4) 0.895(2) 0.2398(16)
O7 O 0.6833(3) 0.94076(15) 0.19754(11)
H11 H 0.784(4) 0.643(3) 0.1529(9)
H12 H 0.666(4) 0.668(4) 0.0619(19)
O8 O 0.7968(2) 0.64484(15) 0.09012(10)
H13 H 0.721(7) 0.4086(17) 0.031(2)
H14 H 0.645(5) 0.299(3) 0.0863(11)
O9 O 0.6496(3) 0.31690(16) 0.02598(10)
loop_
_geom_bond_atom_site_label_1
_geom_bond_atom_site_label_2
_geom_bond_site_symmetry_1
_geom_bond_site_symmetry_2
C1 C2 1_555 1_555
C2 H1 1_555 1_555
H2 C2 1_555 1_555
H3 C2 1_555 1_555
C3 H4 1_555 1_555
H5 C3 1_555 1_555
C4 H6 1_555 1_555
H7 C4 1_555 1_555
H8 O6 1_555 1_555
H9 O7 1_555 1_555
H10 O7 1_555 1_555
H11 O8 1_555 1_555
H12 O8 1_555 1_555
H13 O9 1_555 1_555
H14 O9 1_555 1_555
N1 C1 1_555 1_555
H15 N1 1_555 1_555
H16 N1 1_555 1_555
H17 N1 1_555 1_555
N2 C3 1_555 1_555
H18 N2 1_555 1_555
H19 N2 1_555 1_555
H20 N2 1_555 1_555
N3 C4 1_555 1_555
H21 N3 1_555 1_555
H22 N3 1_555 1_555
H23 N3 1_555 1_555
O1 P1 1_555 1_555
O2 P1 1_555 1_555
O3 P1 1_555 1_555
O4 P2 1_555 1_555
O5 P2 1_555 1_555
O6 P2 1_555 1_555
P1 C1 1_555 1_555
P2 C1 1_555 1_555
C3A C3 1_555 1_555
H4A C3A 1_555 1_555
H5A C3A 1_555 1_555
C4A C4 1_555 1_555
H6A C4A 1_555 1_555
H7A C4A 1_555 1_555
N2A C3A 1_555 1_555
H18A N2A 1_555 1_555
H19A N2A 1_555 1_555
H20A N2A 1_555 1_555
N3A C4A 1_555 1_555
H21A N3A 1_555 1_555
H22A N3A 1_555 1_555
H23A N3A 1_555 1_555

#END
