
#######################################################################
#
#                 Cambridge Crystallographic Data Centre
#                                CCDC 
#
#######################################################################
#
# If this CIF has been generated from an entry in the Cambridge 
# Structural Database, then it will include bibliographic, chemical, 
# crystal, experimental, refinement or atomic coordinate data resulting 
# from the CCDC's data processing and validation procedures.
#
#######################################################################

data_GUKTIP
_chemical_formula_moiety         'C14 H10 N2 O2,2(H2 O1)'
_chemical_name_systematic        
'4-(1H-Benzimidazol-3-ium-2-yl)benzoate dihydrate'
_symmetry_cell_setting           monoclinic
_symmetry_space_group_name_H-M   'C c'
_symmetry_Int_Tables_number      9
_space_group_name_Hall           'C -2yc'
loop_
_symmetry_equiv_pos_site_id
_symmetry_equiv_pos_as_xyz
1 x,y,z
2 x,-y,1/2+z
3 1/2+x,1/2+y,z
4 1/2+x,1/2-y,1/2+z
_cell_length_a                   4.5541(2)
_cell_length_b                   16.3140(8)
_cell_length_c                   17.5245(9)
_cell_angle_alpha                90
_cell_angle_beta                 96.234(2)
_cell_angle_gamma                90
_cell_volume                     1294.29
_exptl_crystal_colour            colorless
_exptl_crystal_description       'rectangular slab'
_cell_formula_units_Z            4
loop_
_atom_site_label
_atom_site_type_symbol
_atom_site_fract_x
_atom_site_fract_y
_atom_site_fract_z
N1 N 0.5276(5) 0.26258(17) 0.14519(15)
O1 O 1.4317(6) 0.49797(19) -0.07722(16)
O2 O 1.4672(6) 0.59464(18) 0.01262(17)
N2 N 0.6511(5) 0.34087(18) 0.24503(15)
C1 C 0.3826(6) 0.2317(2) 0.20484(18)
C2 C 0.1938(8) 0.1653(2) 0.2078(2)
H1 H 0.1420 0.1320 0.1653
C3 C 0.0862(8) 0.1516(3) 0.2783(2)
H2 H -0.0405 0.1077 0.2833
C4 C 0.1644(8) 0.2021(3) 0.3412(2)
H3 H 0.0875 0.1906 0.3871
C5 C 0.3507(8) 0.2683(3) 0.3385(2)
H4 H 0.4005 0.3019 0.3808
C6 C 0.4598(7) 0.2815(2) 0.26800(18)
C7 C 0.6851(6) 0.3278(2) 0.17099(18)
C8 C 0.8679(6) 0.3777(2) 0.12518(16)
C9 C 0.9271(8) 0.3509(2) 0.05292(19)
H5 H 0.8532 0.3009 0.0340
C10 C 1.0959(8) 0.3988(2) 0.00925(19)
H6 H 1.1345 0.3805 -0.0389
C11 C 1.2077(6) 0.4733(2) 0.03591(19)
C12 C 1.1456(8) 0.4997(2) 0.10781(19)
H7 H 1.2178 0.5501 0.1263
C13 C 0.9798(8) 0.4529(2) 0.15210(19)
H8 H 0.9420 0.4716 0.2002
C14 C 1.3868(7) 0.5255(2) -0.0130(2)
H9 H 0.503(10) 0.237(3) 0.093(3)
H10 H 0.730(12) 0.386(3) 0.279(3)
O3 O 0.9502(6) 0.69114(18) 0.00665(16)
H11 H 1.105(14) 0.656(4) 0.005(5)
H12 H 0.804(8) 0.656(2) 0.007(2)
O4 O 1.8698(7) 0.5413(2) -0.15967(16)
H13 H 2.032(11) 0.519(4) -0.145(4)
H14 H 1.739(10) 0.527(3) -0.128(3)
loop_
_geom_bond_atom_site_label_1
_geom_bond_atom_site_label_2
_geom_bond_site_symmetry_1
_geom_bond_site_symmetry_2
N1 C1 1_555 1_555
O1 C14 1_555 1_555
O2 C14 1_555 1_555
O3 H11 1_555 1_555
O4 H13 1_555 1_555
N2 C6 1_555 1_555
C1 C2 1_555 1_555
C2 H1 1_555 1_555
C3 C2 1_555 1_555
H2 C3 1_555 1_555
C4 C3 1_555 1_555
H3 C4 1_555 1_555
C5 C4 1_555 1_555
H4 C5 1_555 1_555
C6 C1 1_555 1_555
C7 N1 1_555 1_555
C8 C7 1_555 1_555
C9 C8 1_555 1_555
H5 C9 1_555 1_555
C10 C9 1_555 1_555
H6 C10 1_555 1_555
C11 C10 1_555 1_555
C12 C11 1_555 1_555
H7 C12 1_555 1_555
C13 C8 1_555 1_555
H8 C13 1_555 1_555
C14 C11 1_555 1_555
H9 N1 1_555 1_555
H10 N2 1_555 1_555
H12 O3 1_555 1_555
H14 O4 1_555 1_555
N2 C7 1_555 1_555
C5 C6 1_555 1_555
C12 C13 1_555 1_555

#END
