
#######################################################################
#
#                 Cambridge Crystallographic Data Centre
#                                CCDC 
#
#######################################################################
#
# If this CIF has been generated from an entry in the Cambridge 
# Structural Database, then it will include bibliographic, chemical, 
# crystal, experimental, refinement or atomic coordinate data resulting 
# from the CCDC's data processing and validation procedures.
#
#######################################################################

data_GUKWIS
_chemical_formula_moiety         'C18 H20 N4 O2,0.5(C7 H8)'
_chemical_name_systematic        
"N,N'-(1,2-Cyclohexanediyl)-bis(pyridine-2-carboxamide) toluene solvate"
_symmetry_cell_setting           triclinic
_symmetry_space_group_name_H-M   'P -1'
_symmetry_Int_Tables_number      2
_space_group_name_Hall           '-P 1'
loop_
_symmetry_equiv_pos_site_id
_symmetry_equiv_pos_as_xyz
1 x,y,z
2 -x,-y,-z
_cell_length_a                   9.899(2)
_cell_length_b                   10.492(2)
_cell_length_c                   10.795(2)
_cell_angle_alpha                88.52(3)
_cell_angle_beta                 64.39(3)
_cell_angle_gamma                89.70(3)
_cell_volume                     1010.67
_exptl_crystal_colour            colorless
_exptl_crystal_description       block
_cell_formula_units_Z            2
loop_
_atom_site_label
_atom_site_type_symbol
_atom_site_fract_x
_atom_site_fract_y
_atom_site_fract_z
C19 C 0.0952(3) -0.5506(3) 1.5290(3)
C20 C 0.1656(5) -0.4203(4) 1.3235(4)
C21 C 0.1998(7) -0.4994(6) 1.4153(6)
C22 C -0.0553(5) -0.5336(4) 1.5667(5)
C23 C -0.0158(6) -0.6099(6) 1.6490(6)
C22A C 0.0553(5) -0.4664(4) 1.4333(5)
C19A C -0.0952(3) -0.4494(3) 1.4710(3)
C21A C -0.1998(7) -0.5006(6) 1.5847(6)
C20A C -0.1656(5) -0.5797(4) 1.6765(4)
C23A C 0.0158(6) -0.3901(6) 1.3510(6)
C1 C 0.6317(2) 0.1930(2) 0.5341(2)
H1 H 0.7265 0.2096 0.5284
C2 C 0.6149(2) 0.1927(2) 0.4146(2)
H2 H 0.6967 0.2067 0.3301
C3 C 0.4756(2) 0.1714(3) 0.4223(2)
H3 H 0.4606 0.1708 0.3430
C4 C 0.3578(2) 0.1509(2) 0.5493(2)
H4 H 0.2615 0.1378 0.5573
C5 C 0.38430(10) 0.14990(10) 0.66400(10)
C6 C 0.25690(10) 0.12590(10) 0.80400(10)
C7 C 0.18550(10) 0.10240(10) 1.05070(10)
H5 H 0.0884 0.0808 1.0525
C8 C 0.1686(2) 0.2269(2) 1.1246(2)
H6 H 0.2661 0.2550 1.1143
H7 H 0.1302 0.2916 1.0826
C9 C 0.0642(2) 0.2129(2) 1.2753(2)
H8 H 0.0570 0.2934 1.3198
H9 H -0.0351 0.1892 1.2865
C10 C 0.1228(2) 0.1118(2) 1.3408(2)
H10 H 0.0563 0.1036 1.4380
H11 H 0.2209 0.1372 1.3316
C11 C 0.1345(2) -0.0170(2) 1.27340(10)
H12 H 0.1769 -0.0791 1.3144
H13 H 0.0350 -0.0463 1.2906
C12 C 0.23180(10) -0.00790(10) 1.11890(10)
H14 H 0.3357 0.0066 1.1033
C13 C 0.33710(10) -0.2087(2) 1.00520(10)
C14 C 0.3090(2) -0.32450(10) 0.93990(10)
C15 C 0.4148(2) -0.4191(2) 0.8960(2)
H15 H 0.5031 -0.4119 0.9060
C16 C 0.3872(2) -0.5250(2) 0.8366(2)
H16 H 0.4563 -0.5909 0.8069
C17 C 0.2575(2) -0.5313(2) 0.8222(2)
H17 H 0.2366 -0.6013 0.7822
C18 C 0.1585(2) -0.4327(2) 0.8676(2)
H18 H 0.0707 -0.4374 0.8564
N1 N 0.22550(10) -0.12650(10) 1.05450(10)
H19 H 0.1440 -0.1443 1.0481
N2 N 0.29410(10) 0.11810(10) 0.90760(10)
H20 H 0.3875 0.1226 0.8896
N3 N 0.51970(10) 0.17080(10) 0.65840(10)
N4 N 0.18080(10) -0.33020(10) 0.92720(10)
O1 O 0.45770(10) -0.19520(10) 1.01050(10)
O2 O 0.12750(10) 0.1167(2) 0.81610(10)
loop_
_geom_bond_atom_site_label_1
_geom_bond_atom_site_label_2
_geom_bond_site_symmetry_1
_geom_bond_site_symmetry_2
C1 H1 1_555 1_555
C2 C1 1_555 1_555
H2 C2 1_555 1_555
C3 C2 1_555 1_555
H3 C3 1_555 1_555
C4 C3 1_555 1_555
H4 C4 1_555 1_555
C5 C4 1_555 1_555
C6 C5 1_555 1_555
C7 H5 1_555 1_555
C8 C7 1_555 1_555
H6 C8 1_555 1_555
H7 C8 1_555 1_555
C9 C8 1_555 1_555
H8 C9 1_555 1_555
H9 C9 1_555 1_555
C10 C9 1_555 1_555
H10 C10 1_555 1_555
H11 C10 1_555 1_555
C11 C10 1_555 1_555
H12 C11 1_555 1_555
H13 C11 1_555 1_555
C12 C7 1_555 1_555
H14 C12 1_555 1_555
C13 C14 1_555 1_555
C14 C15 1_555 1_555
C15 H15 1_555 1_555
C16 C15 1_555 1_555
H16 C16 1_555 1_555
C17 C16 1_555 1_555
H17 C17 1_555 1_555
C18 C17 1_555 1_555
H18 C18 1_555 1_555
N1 C12 1_555 1_555
H19 N1 1_555 1_555
N2 C6 1_555 1_555
H20 N2 1_555 1_555
N3 C1 1_555 1_555
N4 C14 1_555 1_555
O1 C13 1_555 1_555
O2 C6 1_555 1_555
C19 C21 1_555 1_555
C20 C21 1_555 1_555
C21 C22A 1_555 1_555
C22 C19 1_555 1_555
C23 C19 1_555 1_555
C22A C19 1_555 1_555
C19A C22 1_555 1_555
C21A C22 1_555 1_555
C20A C22 1_555 1_555
C23A C20 1_555 1_555
C5 N3 1_555 1_555
C7 N2 1_555 1_555
C11 C12 1_555 1_555
C13 N1 1_555 1_555
C18 N4 1_555 1_555
C20 C22A 1_555 1_555
C22 C23 1_555 1_555
C22 C22A 1_555 1_555
C23 C20A 1_555 1_555
C22A C19A 1_555 1_555
C22A C23A 1_555 1_555
C19A C21A 1_555 1_555
C19A C23A 1_555 1_555
C21A C20A 1_555 1_555

#END
