
#######################################################################
#
#                 Cambridge Crystallographic Data Centre
#                                CCDC 
#
#######################################################################
#
# If this CIF has been generated from an entry in the Cambridge 
# Structural Database, then it will include bibliographic, chemical, 
# crystal, experimental, refinement or atomic coordinate data resulting 
# from the CCDC's data processing and validation procedures.
#
#######################################################################

data_GUKWEO
_chemical_formula_moiety         'C18 H14 N4 O2'
_chemical_name_systematic        
N,N'-(1,2-Phenylene)-bis(pyridine-2-carboxamide)
_symmetry_cell_setting           monoclinic
_symmetry_space_group_name_H-M   'P 21/c'
_symmetry_Int_Tables_number      14
_space_group_name_Hall           '-P 2ybc'
loop_
_symmetry_equiv_pos_site_id
_symmetry_equiv_pos_as_xyz
1 x,y,z
2 x,1/2-y,1/2+z
3 -x,-y,-z
4 -x,1/2+y,1/2-z
_cell_length_a                   12.346(2)
_cell_length_b                   5.5670(10)
_cell_length_c                   22.578(6)
_cell_angle_alpha                90
_cell_angle_beta                 95.200(10)
_cell_angle_gamma                90
_cell_volume                     1545.4
_exptl_crystal_colour            colorless
_exptl_crystal_description       block
_cell_formula_units_Z            4
_exptl_crystal_recrystallization_method toluene
loop_
_atom_site_label
_atom_site_type_symbol
_atom_site_fract_x
_atom_site_fract_y
_atom_site_fract_z
N1 N 0.1424(2) 0.9104(5) 0.41840(10)
N2 N 0.2666(2) 0.5723(4) 0.37461(9)
H1 H 0.2668 0.6217 0.4107
N3 N 0.3395(2) 0.2482(4) 0.46983(8)
H2 H 0.3125 0.1202 0.4839
N4 N 0.2551(2) 0.1948(4) 0.57402(9)
O1 O 0.1829(2) 0.6341(5) 0.28131(8)
O2 O 0.3731(2) 0.6428(4) 0.49015(7)
C1 C 0.0860(3) 1.0908(7) 0.4398(2)
H3 H 0.0922 1.1138 0.4808
C2 C 0.0195(3) 1.2442(7) 0.4057(2)
H4 H -0.0177 1.3673 0.4229
C3 C 0.0095(3) 1.2105(7) 0.3454(2)
H5 H -0.0347 1.3106 0.3207
C4 C 0.0660(3) 1.0265(6) 0.32220(10)
H6 H 0.0598 0.9995 0.2814
C5 C 0.1315(2) 0.8821(5) 0.35920(10)
C6 C 0.1961(2) 0.6858(6) 0.33440(10)
C7 C 0.3394(2) 0.3848(5) 0.36520(10)
C8 C 0.3767(2) 0.3474(6) 0.30950(10)
H7 H 0.3565 0.4534 0.2787
C9 C 0.4429(2) 0.1564(6) 0.29970(10)
H8 H 0.4654 0.1323 0.2619
C10 C 0.4764(2) -0.0002(5) 0.34490(10)
H9 H 0.5206 -0.1305 0.3378
C11 C 0.4431(2) 0.0398(5) 0.40100(10)
H10 H 0.4664 -0.0629 0.4321
C12 C 0.3756(2) 0.2309(5) 0.41148(9)
C13 C 0.3435(2) 0.4438(5) 0.50480(10)
C14 C 0.3034(2) 0.4023(5) 0.56530(10)
C15 C 0.3183(2) 0.5781(5) 0.60780(10)
H11 H 0.3527 0.7214 0.5997
C16 C 0.2813(3) 0.5383(6) 0.66280(10)
H12 H 0.2915 0.6528 0.6928
C17 C 0.2296(2) 0.3282(6) 0.67220(10)
H13 H 0.2024 0.2979 0.7086
C18 C 0.2181(3) 0.1619(6) 0.62750(10)
H14 H 0.1828 0.0185 0.6346
loop_
_geom_bond_atom_site_label_1
_geom_bond_atom_site_label_2
_geom_bond_site_symmetry_1
_geom_bond_site_symmetry_2
N1 C1 1_555 1_555
N2 H1 1_555 1_555
N3 H2 1_555 1_555
N4 C14 1_555 1_555
O1 C6 1_555 1_555
O2 C13 1_555 1_555
C1 H3 1_555 1_555
C2 C1 1_555 1_555
H4 C2 1_555 1_555
C3 C2 1_555 1_555
H5 C3 1_555 1_555
C4 C3 1_555 1_555
H6 C4 1_555 1_555
C5 N1 1_555 1_555
C6 N2 1_555 1_555
C7 N2 1_555 1_555
C8 C7 1_555 1_555
H7 C8 1_555 1_555
C9 C8 1_555 1_555
H8 C9 1_555 1_555
C10 C9 1_555 1_555
H9 C10 1_555 1_555
C11 C10 1_555 1_555
H10 C11 1_555 1_555
C12 N3 1_555 1_555
C13 N3 1_555 1_555
C14 C13 1_555 1_555
C15 C14 1_555 1_555
H11 C15 1_555 1_555
C16 C15 1_555 1_555
H12 C16 1_555 1_555
C17 C16 1_555 1_555
H13 C17 1_555 1_555
C18 N4 1_555 1_555
H14 C18 1_555 1_555
C4 C5 1_555 1_555
C5 C6 1_555 1_555
C7 C12 1_555 1_555
C11 C12 1_555 1_555
C17 C18 1_555 1_555

#END
