
#######################################################################
#
#                 Cambridge Crystallographic Data Centre
#                                CCDC 
#
#######################################################################
#
# If this CIF has been generated from an entry in the Cambridge 
# Structural Database, then it will include bibliographic, chemical, 
# crystal, experimental, refinement or atomic coordinate data resulting 
# from the CCDC's data processing and validation procedures.
#
#######################################################################

data_GUKYOA
_chemical_formula_moiety         'C8 H10 N2 O2'
_chemical_name_systematic        4,5-Dimethyl-2-nitroaniline
_symmetry_cell_setting           triclinic
_symmetry_space_group_name_H-M   'P -1'
_symmetry_Int_Tables_number      2
_space_group_name_Hall           '-P 1'
loop_
_symmetry_equiv_pos_site_id
_symmetry_equiv_pos_as_xyz
1 x,y,z
2 -x,-y,-z
_cell_length_a                   7.1422(14)
_cell_length_b                   7.4564(15)
_cell_length_c                   17.044(3)
_cell_angle_alpha                81.43(3)
_cell_angle_beta                 89.27(3)
_cell_angle_gamma                61.84(3)
_cell_volume                     789.577
_exptl_crystal_colour            orange
_exptl_crystal_description       plate
_cell_formula_units_Z            4
_exptl_crystal_recrystallization_method ethanol
loop_
_atom_site_label
_atom_site_type_symbol
_atom_site_fract_x
_atom_site_fract_y
_atom_site_fract_z
C1 C 0.1776(3) 0.2439(3) 0.43577(13)
N1 N 0.0998(3) 0.2384(3) 0.36530(11)
C2 C 0.3601(3) 0.2648(3) 0.44836(12)
N2 N 0.4881(3) 0.2767(3) 0.38443(11)
O1 O 0.4327(2) 0.2760(2) 0.31550(9)
O2 O 0.6506(2) 0.2893(2) 0.39840(10)
C3 C 0.4285(3) 0.2688(3) 0.52446(13)
C4 C 0.3224(3) 0.2513(3) 0.59004(13)
C5 C 0.3980(4) 0.2544(4) 0.67129(14)
C6 C 0.1386(3) 0.2287(3) 0.57891(13)
C7 C 0.0158(4) 0.2084(4) 0.64872(14)
C8 C 0.0710(3) 0.2268(3) 0.50424(13)
H1 H 0.1643 0.2484 0.3218
H2 H -0.0158 0.2249 0.3626
H3 H 0.5519 0.2841 0.5307
H4 H 0.5283 0.2673 0.6677
H5 H 0.4273 0.1261 0.7064
H6 H 0.2878 0.3719 0.6929
H7 H -0.1003 0.1858 0.6310
H8 H -0.0433 0.3349 0.6722
H9 H 0.1108 0.0912 0.6885
H10 H -0.0536 0.2132 0.4984
C9 C 0.6658(3) 0.2342(3) 0.08580(13)
N3 N 0.5849(3) 0.2189(3) 0.15665(11)
C10 C 0.8492(3) 0.2572(3) 0.07220(13)
N4 N 0.9730(3) 0.2610(3) 0.13588(11)
O3 O 0.9171(2) 0.2496(2) 0.20502(9)
O4 O 1.1372(2) 0.2745(3) 0.12186(10)
C11 C 0.9179(3) 0.2737(3) -0.00477(13)
C12 C 0.8125(3) 0.2672(3) -0.06986(13)
C13 C 0.8899(4) 0.2839(3) -0.15149(14)
C14 C 0.6289(3) 0.2425(3) -0.05741(13)
C15 C 0.5056(4) 0.2374(3) -0.12683(14)
C16 C 0.5616(3) 0.2273(3) 0.01757(13)
H11 H 0.4693 0.2050 0.1597
H12 H 0.6477 0.2229 0.2000
H13 H 1.0415 0.2898 -0.0119
H14 H 1.0158 0.3036 -0.1485
H15 H 0.7774 0.4018 -0.1863
H16 H 0.9270 0.1573 -0.1730
H17 H 0.3868 0.2154 -0.1078
H18 H 0.5992 0.1248 -0.1548
H19 H 0.4502 0.3688 -0.1633
H20 H 0.4377 0.2113 0.0240
loop_
_geom_bond_atom_site_label_1
_geom_bond_atom_site_label_2
_geom_bond_site_symmetry_1
_geom_bond_site_symmetry_2
C1 N1 1_555 1_555
N1 H1 1_555 1_555
C2 C1 1_555 1_555
N2 C2 1_555 1_555
O1 N2 1_555 1_555
O2 N2 1_555 1_555
C3 C2 1_555 1_555
C4 C3 1_555 1_555
C5 C4 1_555 1_555
C6 C4 1_555 1_555
C7 C6 1_555 1_555
C8 C1 1_555 1_555
C9 N3 1_555 1_555
N3 H11 1_555 1_555
C10 C9 1_555 1_555
N4 C10 1_555 1_555
O3 N4 1_555 1_555
O4 N4 1_555 1_555
C11 C10 1_555 1_555
C12 C11 1_555 1_555
C13 C12 1_555 1_555
C14 C12 1_555 1_555
C15 C14 1_555 1_555
C16 C9 1_555 1_555
H2 N1 1_555 1_555
H3 C3 1_555 1_555
H4 C5 1_555 1_555
H5 C5 1_555 1_555
H6 C5 1_555 1_555
H7 C7 1_555 1_555
H8 C7 1_555 1_555
H9 C7 1_555 1_555
H10 C8 1_555 1_555
H12 N3 1_555 1_555
H13 C11 1_555 1_555
H14 C13 1_555 1_555
H15 C13 1_555 1_555
H16 C13 1_555 1_555
H17 C15 1_555 1_555
H18 C15 1_555 1_555
H19 C15 1_555 1_555
H20 C16 1_555 1_555
C6 C8 1_555 1_555
C14 C16 1_555 1_555

#END
