
#######################################################################
#
#                 Cambridge Crystallographic Data Centre
#                                CCDC 
#
#######################################################################
#
# If this CIF has been generated from an entry in the Cambridge 
# Structural Database, then it will include bibliographic, chemical, 
# crystal, experimental, refinement or atomic coordinate data resulting 
# from the CCDC's data processing and validation procedures.
#
#######################################################################

data_GULFID
_chemical_formula_moiety         'C38 H38 N4 O6'
_chemical_name_systematic        
dl-2,3-bis(N-((3,4-dimethoxybenzyl)oxy)ethanimidoyl)-2,3-diphenylsuccinonitrile
_symmetry_cell_setting           monoclinic
_symmetry_space_group_name_H-M   'P 21'
_symmetry_Int_Tables_number      4
_space_group_name_Hall           'P 2yb'
loop_
_symmetry_equiv_pos_site_id
_symmetry_equiv_pos_as_xyz
1 x,y,z
2 -x,1/2+y,-z
_cell_length_a                   8.0723(11)
_cell_length_b                   26.531(4)
_cell_length_c                   16.356(2)
_cell_angle_alpha                90
_cell_angle_beta                 92.325(2)
_cell_angle_gamma                90
_cell_volume                     3500.02
_chemical_melting_point          '142-143 deg.C'
_cell_formula_units_Z            4
loop_
_atom_site_label
_atom_site_type_symbol
_atom_site_fract_x
_atom_site_fract_y
_atom_site_fract_z
O1 O 0.9391(4) 0.41463(12) 0.4992(2)
O2 O 0.8386(5) 0.39882(12) 0.20818(19)
O3 O 1.2477(7) 0.2878(2) 0.7151(3)
O4 O 1.3711(7) 0.23172(17) 0.6091(3)
O5 O 0.6559(5) 0.18405(13) 0.3100(2)
O6 O 0.8092(5) 0.20621(14) 0.4471(2)
N1 N 0.3666(5) 0.43753(18) 0.3185(2)
N2 N 0.9462(6) 0.57232(19) 0.3920(3)
N3 N 0.8708(5) 0.45047(14) 0.4432(2)
N4 N 0.7516(5) 0.43158(14) 0.2592(2)
C1 C 0.6186(5) 0.48577(16) 0.3868(2)
C2 C 0.7298(5) 0.51181(16) 0.3198(2)
C3 C 0.4794(6) 0.45771(18) 0.3446(3)
C4 C 0.8550(6) 0.54475(19) 0.3633(3)
C5 C 0.5423(5) 0.52633(17) 0.4432(2)
C6 C 0.6350(6) 0.54376(19) 0.5106(3)
H1 H 0.7414 0.5314 0.5215
C7 C 0.5693(7) 0.5795(2) 0.5616(3)
H2 H 0.6325 0.5912 0.6064
C8 C 0.4134(6) 0.59774(19) 0.5471(3)
H3 H 0.3707 0.6219 0.5817
C9 C 0.3196(6) 0.5804(2) 0.4814(3)
H4 H 0.2127 0.5927 0.4716
C10 C 0.3830(5) 0.54476(18) 0.4294(3)
H5 H 0.3184 0.5331 0.3850
C11 C 0.6232(5) 0.54704(17) 0.2627(3)
C12 C 0.6100(6) 0.59804(19) 0.2769(3)
H6 H 0.6679 0.6122 0.3215
C13 C 0.5126(8) 0.6286(2) 0.2262(4)
H7 H 0.5035 0.6628 0.2374
C14 C 0.4292(8) 0.6081(3) 0.1591(4)
H8 H 0.3645 0.6286 0.1246
C15 C 0.4411(7) 0.5575(2) 0.1432(4)
H9 H 0.3845 0.5437 0.0978
C16 C 0.5379(6) 0.5270(2) 0.1948(3)
H10 H 0.5457 0.4927 0.1839
C17 C 0.7137(5) 0.44823(17) 0.4423(2)
C18 C 0.6151(7) 0.4135(2) 0.4934(4)
H11 H 0.6339 0.3793 0.4770
H12 H 0.4993 0.4213 0.4860
H13 H 0.6488 0.4175 0.5500
C19 C 0.8231(5) 0.47400(17) 0.2687(3)
C20 C 0.9808(6) 0.4893(2) 0.2298(3)
H14 H 1.0740 0.4789 0.2640
H15 H 0.9829 0.5253 0.2235
H16 H 0.9863 0.4736 0.1771
C21 C 1.1181(6) 0.4203(2) 0.5049(4)
H17 H 1.1489 0.4480 0.5410
H18 H 1.1604 0.4270 0.4513
C22 C 1.1866(6) 0.3726(2) 0.5377(3)
C23 C 1.1832(7) 0.3573(3) 0.6182(4)
H19 H 1.1412 0.3788 0.6573
C24 C 1.2461(7) 0.3069(2) 0.6426(3)
C25 C 1.3111(7) 0.2781(2) 0.5795(4)
C26 C 1.3225(8) 0.2928(2) 0.5028(4)
H20 H 1.3716 0.2725 0.4643
C27 C 1.2581(7) 0.3400(2) 0.4818(5)
H21 H 1.2628 0.3504 0.4277
C28 C 1.2062(11) 0.3218(3) 0.7820(4)
H22 H 1.2718 0.3519 0.7792
H23 H 1.2288 0.3054 0.8335
H24 H 1.0907 0.3305 0.7770
C29 C 1.4378(15) 0.1992(4) 0.5521(5)
H25 H 1.3500 0.1853 0.5178
H26 H 1.4965 0.1725 0.5802
H27 H 1.5128 0.2175 0.5190
C30 C 0.7455(8) 0.35328(19) 0.1964(3)
H28 H 0.7808 0.3368 0.1471
H29 H 0.6291 0.3617 0.1881
C31 C 0.7645(6) 0.31705(18) 0.2668(3)
C32 C 0.6994(6) 0.26856(19) 0.2544(3)
H30 H 0.6448 0.2605 0.2049
C33 C 0.7164(6) 0.23205(18) 0.3162(3)
C34 C 0.7949(6) 0.24472(18) 0.3903(3)
C35 C 0.8555(7) 0.2929(2) 0.4028(3)
H31 H 0.9068 0.3015 0.4527
C36 C 0.8395(7) 0.32857(18) 0.3404(3)
H32 H 0.8810 0.3609 0.3493
C37 C 0.6029(9) 0.1656(2) 0.2318(4)
H33 H 0.5093 0.1848 0.2114
H34 H 0.5718 0.1308 0.2363
H35 H 0.6916 0.1686 0.1948
C38 C 0.9149(12) 0.2139(3) 0.5167(4)
H36 H 1.0253 0.2206 0.4999
H37 H 0.9155 0.1842 0.5503
H38 H 0.8759 0.2420 0.5474
O7 O 0.5956(4) 0.38773(12) 0.7046(2)
O8 O 0.5405(3) 0.40199(12) 0.99399(18)
O9 O 0.3018(7) 0.22120(16) 1.0671(3)
O10 O 0.2368(6) 0.24463(16) 1.2133(2)
O11 O 0.9339(7) 0.19004(15) 0.8163(2)
O12 O 0.8401(7) 0.21388(16) 0.9598(2)
N5 N 0.4814(6) 0.55666(18) 0.8845(3)
N6 N 1.0852(5) 0.43610(17) 0.8171(3)
N7 N 0.6908(4) 0.42152(14) 0.7543(2)
N8 N 0.5971(5) 0.43775(14) 0.9370(2)
C39 C 0.7077(5) 0.50274(16) 0.8152(2)
C40 C 0.8325(5) 0.47928(16) 0.8843(2)
C41 C 0.5795(5) 0.53225(18) 0.8569(3)
C42 C 0.9710(6) 0.45446(17) 0.8432(3)
C43 C 0.8057(5) 0.53972(17) 0.7622(2)
C44 C 0.8904(5) 0.52183(19) 0.6957(3)
H39 H 0.8808 0.4881 0.6809
C45 C 0.9896(6) 0.5539(2) 0.6510(3)
H40 H 1.0463 0.5415 0.6070
C46 C 1.0035(7) 0.6040(2) 0.6721(4)
H41 H 1.0687 0.6255 0.6421
C47 C 0.9212(7) 0.6219(2) 0.7374(4)
H42 H 0.9325 0.6556 0.7520
C48 C 0.8208(6) 0.59067(18) 0.7824(3)
H43 H 0.7637 0.6037 0.8259
C49 C 0.9054(5) 0.52148(16) 0.9409(2)
C50 C 1.0556(5) 0.54339(18) 0.9273(3)
H44 H 1.1193 0.5317 0.8851
C51 C 1.1128(6) 0.5828(2) 0.9762(3)
H45 H 1.2142 0.5977 0.9662
C52 C 1.0201(7) 0.6002(2) 1.0400(3)
H46 H 1.0575 0.6271 1.0723
C53 C 0.8704(7) 0.5769(2) 1.0547(3)
H47 H 0.8080 0.5877 1.0979
C54 C 0.8136(6) 0.53784(18) 1.0060(3)
H48 H 0.7134 0.5223 1.0165
C55 C 0.6175(5) 0.46369(16) 0.7614(2)
C56 C 0.4555(6) 0.4773(2) 0.7191(3)
H49 H 0.4485 0.4619 0.6660
H50 H 0.4483 0.5133 0.7133
H51 H 0.3660 0.4655 0.7509
C57 C 0.7546(5) 0.43941(16) 0.9392(3)
C58 C 0.8686(6) 0.4098(2) 0.9941(3)
H52 H 0.8285 0.4100 1.0485
H53 H 0.9773 0.4245 0.9945
H54 H 0.8737 0.3757 0.9747
C59 C 0.6917(7) 0.34280(19) 0.6910(3)
H55 H 0.7989 0.3528 0.6716
H56 H 0.6361 0.3232 0.6480
C60 C 0.7192(6) 0.30976(18) 0.7643(3)
C61 C 0.8086(7) 0.26484(19) 0.7548(3)
H57 H 0.8424 0.2559 0.7031
C62 C 0.8470(8) 0.23383(19) 0.8201(3)
C63 C 0.7947(8) 0.2466(2) 0.8980(3)
C64 C 0.7063(7) 0.2904(2) 0.9075(3)
H58 H 0.6727 0.2993 0.9593
C65 C 0.6664(7) 0.32135(19) 0.8414(3)
H59 H 0.6034 0.3502 0.8490
C66 C 0.9779(12) 0.1724(3) 0.7386(4)
H60 H 0.8801 0.1695 0.7036
H61 H 1.0302 0.1400 0.7444
H62 H 1.0533 0.1958 0.7151
C67 C 0.8335(12) 0.2305(3) 1.0417(4)
H63 H 0.8897 0.2623 1.0476
H64 H 0.8864 0.2061 1.0774
H65 H 0.7198 0.2344 1.0557
C68 C 0.3626(6) 0.4011(2) 0.9896(3)
H66 H 0.3216 0.3930 0.9346
H67 H 0.3180 0.4335 1.0052
C69 C 0.3145(6) 0.3606(2) 1.0489(3)
C70 C 0.3221(7) 0.3105(2) 1.0267(3)
H68 H 0.3477 0.3022 0.9735
C71 C 0.2923(7) 0.2724(2) 1.0821(3)
C72 C 0.2569(7) 0.2849(2) 1.1620(3)
C73 C 0.2461(7) 0.3345(2) 1.1839(3)
H69 H 0.2189 0.3431 1.2369
C74 C 0.2756(7) 0.3720(2) 1.1273(3)
H70 H 0.2687 0.4056 1.1430
C75 C 0.3202(13) 0.2051(3) 0.9848(4)
H71 H 0.2267 0.2163 0.9515
H72 H 0.3264 0.1690 0.9831
H73 H 0.4199 0.2192 0.9643
C76 C 0.2368(10) 0.2559(3) 1.2996(4)
H74 H 0.3311 0.2765 1.3143
H75 H 0.2425 0.2251 1.3303
H76 H 0.1370 0.2736 1.3115
loop_
_geom_bond_atom_site_label_1
_geom_bond_atom_site_label_2
_geom_bond_site_symmetry_1
_geom_bond_site_symmetry_2
O1 N3 1_555 1_555
O2 N4 1_555 1_555
O3 C24 1_555 1_555
O4 C25 1_555 1_555
O5 C33 1_555 1_555
O6 C34 1_555 1_555
N1 C3 1_555 1_555
N2 C4 1_555 1_555
N3 C17 1_555 1_555
N4 C19 1_555 1_555
C1 C2 1_555 1_555
C2 C4 1_555 1_555
C3 C1 1_555 1_555
C5 C1 1_555 1_555
C6 C5 1_555 1_555
H1 C6 1_555 1_555
C7 C6 1_555 1_555
H2 C7 1_555 1_555
C8 C7 1_555 1_555
H3 C8 1_555 1_555
C9 C8 1_555 1_555
H4 C9 1_555 1_555
C10 C5 1_555 1_555
H5 C10 1_555 1_555
C11 C2 1_555 1_555
C12 C11 1_555 1_555
H6 C12 1_555 1_555
C13 C12 1_555 1_555
H7 C13 1_555 1_555
C14 C13 1_555 1_555
H8 C14 1_555 1_555
C15 C14 1_555 1_555
H9 C15 1_555 1_555
C16 C11 1_555 1_555
H10 C16 1_555 1_555
C17 C1 1_555 1_555
C18 C17 1_555 1_555
H11 C18 1_555 1_555
H12 C18 1_555 1_555
H13 C18 1_555 1_555
C19 C2 1_555 1_555
C20 C19 1_555 1_555
H14 C20 1_555 1_555
H15 C20 1_555 1_555
H16 C20 1_555 1_555
C21 O1 1_555 1_555
H17 C21 1_555 1_555
H18 C21 1_555 1_555
C22 C21 1_555 1_555
C23 C22 1_555 1_555
H19 C23 1_555 1_555
C24 C23 1_555 1_555
C25 C24 1_555 1_555
C26 C25 1_555 1_555
H20 C26 1_555 1_555
C27 C22 1_555 1_555
H21 C27 1_555 1_555
C28 O3 1_555 1_555
H22 C28 1_555 1_555
H23 C28 1_555 1_555
H24 C28 1_555 1_555
C29 O4 1_555 1_555
H25 C29 1_555 1_555
H26 C29 1_555 1_555
H27 C29 1_555 1_555
C30 O2 1_555 1_555
H28 C30 1_555 1_555
H29 C30 1_555 1_555
C31 C30 1_555 1_555
C32 C31 1_555 1_555
H30 C32 1_555 1_555
C33 C32 1_555 1_555
C34 C33 1_555 1_555
C35 C34 1_555 1_555
H31 C35 1_555 1_555
C36 C31 1_555 1_555
H32 C36 1_555 1_555
C37 O5 1_555 1_555
H33 C37 1_555 1_555
H34 C37 1_555 1_555
H35 C37 1_555 1_555
C38 O6 1_555 1_555
H36 C38 1_555 1_555
H37 C38 1_555 1_555
H38 C38 1_555 1_555
O7 N7 1_555 1_555
O8 N8 1_555 1_555
O9 C71 1_555 1_555
O10 C72 1_555 1_555
O11 C62 1_555 1_555
O12 C63 1_555 1_555
N5 C41 1_555 1_555
N6 C42 1_555 1_555
N7 C55 1_555 1_555
N8 C57 1_555 1_555
C39 C40 1_555 1_555
C40 C42 1_555 1_555
C41 C39 1_555 1_555
C43 C39 1_555 1_555
C44 C43 1_555 1_555
H39 C44 1_555 1_555
C45 C44 1_555 1_555
H40 C45 1_555 1_555
C46 C45 1_555 1_555
H41 C46 1_555 1_555
C47 C46 1_555 1_555
H42 C47 1_555 1_555
C48 C43 1_555 1_555
H43 C48 1_555 1_555
C49 C40 1_555 1_555
C50 C49 1_555 1_555
H44 C50 1_555 1_555
C51 C50 1_555 1_555
H45 C51 1_555 1_555
C52 C51 1_555 1_555
H46 C52 1_555 1_555
C53 C52 1_555 1_555
H47 C53 1_555 1_555
C54 C49 1_555 1_555
H48 C54 1_555 1_555
C55 C39 1_555 1_555
C56 C55 1_555 1_555
H49 C56 1_555 1_555
H50 C56 1_555 1_555
H51 C56 1_555 1_555
C57 C40 1_555 1_555
C58 C57 1_555 1_555
H52 C58 1_555 1_555
H53 C58 1_555 1_555
H54 C58 1_555 1_555
C59 O7 1_555 1_555
H55 C59 1_555 1_555
H56 C59 1_555 1_555
C60 C59 1_555 1_555
C61 C60 1_555 1_555
H57 C61 1_555 1_555
C62 C61 1_555 1_555
C63 C62 1_555 1_555
C64 C63 1_555 1_555
H58 C64 1_555 1_555
C65 C60 1_555 1_555
H59 C65 1_555 1_555
C66 O11 1_555 1_555
H60 C66 1_555 1_555
H61 C66 1_555 1_555
H62 C66 1_555 1_555
C67 O12 1_555 1_555
H63 C67 1_555 1_555
H64 C67 1_555 1_555
H65 C67 1_555 1_555
C68 O8 1_555 1_555
H66 C68 1_555 1_555
H67 C68 1_555 1_555
C69 C68 1_555 1_555
C70 C69 1_555 1_555
H68 C70 1_555 1_555
C71 C70 1_555 1_555
C72 C71 1_555 1_555
C73 C72 1_555 1_555
H69 C73 1_555 1_555
C74 C69 1_555 1_555
H70 C74 1_555 1_555
C75 O9 1_555 1_555
H71 C75 1_555 1_555
H72 C75 1_555 1_555
H73 C75 1_555 1_555
C76 O10 1_555 1_555
H74 C76 1_555 1_555
H75 C76 1_555 1_555
H76 C76 1_555 1_555
C9 C10 1_555 1_555
C15 C16 1_555 1_555
C26 C27 1_555 1_555
C35 C36 1_555 1_555
C47 C48 1_555 1_555
C53 C54 1_555 1_555
C64 C65 1_555 1_555
C73 C74 1_555 1_555

#END
