
#######################################################################
#
#                 Cambridge Crystallographic Data Centre
#                                CCDC 
#
#######################################################################
#
# If this CIF has been generated from an entry in the Cambridge 
# Structural Database, then it will include bibliographic, chemical, 
# crystal, experimental, refinement or atomic coordinate data resulting 
# from the CCDC's data processing and validation procedures.
#
#######################################################################

data_GULYUI
_chemical_formula_moiety         'C28 H25 Cl2 N1 O1'
_chemical_name_systematic        
4-Benzyl-9-chloro-6-(4-chlorophenyl)-2,3,3a,4,5a,6,10b,10c-octahydronaphtho[3,2,1-cd]indol-5(1H)-one
_symmetry_cell_setting           triclinic
_symmetry_space_group_name_H-M   'P -1'
_symmetry_Int_Tables_number      2
_space_group_name_Hall           '-P 1'
loop_
_symmetry_equiv_pos_site_id
_symmetry_equiv_pos_as_xyz
1 x,y,z
2 -x,-y,-z
_cell_length_a                   11.0332(12)
_cell_length_b                   11.057(2)
_cell_length_c                   11.4123(18)
_cell_angle_alpha                64.521(2)
_cell_angle_beta                 67.143(3)
_cell_angle_gamma                70.442(2)
_cell_volume                     1134.37
_chemical_melting_point          '435 K'
_cell_formula_units_Z            2
loop_
_atom_site_label
_atom_site_type_symbol
_atom_site_fract_x
_atom_site_fract_y
_atom_site_fract_z
C1 C 0.4059(3) 0.8143(3) 0.1296(3)
H1 H 0.4209 0.7387 0.1060
C2 C 0.2774(3) 0.8966(3) 0.1519(3)
H2 H 0.2079 0.8768 0.1407
C3 C 0.2539(3) 1.0041(3) 0.1894(3)
H3 H 0.1675 1.0566 0.2061
C4 C 0.3531(3) 1.0367(3) 0.2031(3)
H4 H 0.3362 1.1120 0.2278
C5 C 0.4819(3) 0.9563(3) 0.1798(3)
H5 H 0.5501 0.9792 0.1900
C6 C 0.5117(3) 0.8453(3) 0.1426(3)
C7 C 0.6456(3) 0.7614(3) 0.1162(3)
H6 H 0.6415 0.6729 0.1214
H7 H 0.7011 0.8058 0.0269
C8 C 0.8067(3) 0.8015(3) 0.1879(3)
C9 C 0.8357(3) 0.7621(3) 0.3198(3)
H8 H 0.8988 0.6738 0.3341
C10 C 0.7031(3) 0.7395(3) 0.4236(3)
H9 H 0.6473 0.8289 0.4263
C11 C 0.6431(3) 0.6834(3) 0.3620(3)
H10 H 0.5449 0.7107 0.3879
C12 C 0.6864(3) 0.5301(3) 0.3972(3)
H11 H 0.6306 0.4981 0.3731
H12 H 0.7785 0.5084 0.3441
C13 C 0.6762(3) 0.4563(3) 0.5454(3)
H13 H 0.5835 0.4745 0.5987
H14 H 0.7042 0.3585 0.5634
C14 C 0.7626(3) 0.5016(3) 0.5864(3)
H15 H 0.8554 0.4802 0.5347
H16 H 0.7561 0.4504 0.6815
C15 C 0.7242(3) 0.6535(3) 0.5646(3)
H17 H 0.6359 0.6670 0.6299
C16 C 0.8107(3) 0.7108(3) 0.5900(3)
C17 C 0.8256(3) 0.6639(4) 0.7179(3)
H18 H 0.7759 0.6003 0.7875
C18 C 0.9108(3) 0.7072(3) 0.7478(3)
C19 C 0.9826(3) 0.8022(3) 0.6477(3)
H19 H 1.0379 0.8345 0.6669
C20 C 0.9728(3) 0.8492(3) 0.5208(3)
H20 H 1.0227 0.9137 0.4533
C21 C 0.8924(3) 0.8055(3) 0.4878(3)
C22 C 0.8916(3) 0.8601(3) 0.3382(3)
H21 H 0.9853 0.8559 0.2820
C23 C 0.8183(3) 1.0082(3) 0.2911(3)
C24 C 0.8664(3) 1.0909(3) 0.1566(3)
H22 H 0.9456 1.0561 0.1014
C25 C 0.8001(3) 1.2215(3) 0.1043(3)
H23 H 0.8339 1.2742 0.0144
C26 C 0.6827(3) 1.2749(3) 0.1853(3)
C27 C 0.6417(3) 1.1933(3) 0.3207(3)
H24 H 0.5661 1.2298 0.3781
C28 C 0.7058(3) 1.0645(3) 0.3728(3)
H25 H 0.6739 1.0138 0.4638
Cl1 Cl 0.92190(8) 0.64720(9) 0.90982(9)
Cl2 Cl 0.59571(8) 1.43880(8) 0.11738(8)
N1 N 0.6990(2) 0.7462(3) 0.2194(2)
O1 O 0.8756(2) 0.8558(2) 0.0740(2)
loop_
_geom_bond_atom_site_label_1
_geom_bond_atom_site_label_2
_geom_bond_site_symmetry_1
_geom_bond_site_symmetry_2
C1 H1 1_555 1_555
C2 C1 1_555 1_555
H2 C2 1_555 1_555
C3 C2 1_555 1_555
H3 C3 1_555 1_555
C4 C3 1_555 1_555
H4 C4 1_555 1_555
C5 C4 1_555 1_555
H5 C5 1_555 1_555
C6 C1 1_555 1_555
C7 C6 1_555 1_555
H6 C7 1_555 1_555
H7 C7 1_555 1_555
C8 C9 1_555 1_555
C9 H8 1_555 1_555
C10 C9 1_555 1_555
H9 C10 1_555 1_555
C11 C10 1_555 1_555
H10 C11 1_555 1_555
C12 C11 1_555 1_555
H11 C12 1_555 1_555
H12 C12 1_555 1_555
C13 C12 1_555 1_555
H13 C13 1_555 1_555
H14 C13 1_555 1_555
C14 C13 1_555 1_555
H15 C14 1_555 1_555
H16 C14 1_555 1_555
C15 C10 1_555 1_555
H17 C15 1_555 1_555
C16 C15 1_555 1_555
C17 C16 1_555 1_555
H18 C17 1_555 1_555
C18 C17 1_555 1_555
C19 C18 1_555 1_555
H19 C19 1_555 1_555
C20 C19 1_555 1_555
H20 C20 1_555 1_555
C21 C16 1_555 1_555
C22 C9 1_555 1_555
H21 C22 1_555 1_555
C23 C22 1_555 1_555
C24 C23 1_555 1_555
H22 C24 1_555 1_555
C25 C24 1_555 1_555
H23 C25 1_555 1_555
C26 C25 1_555 1_555
C27 C26 1_555 1_555
H24 C27 1_555 1_555
C28 C23 1_555 1_555
H25 C28 1_555 1_555
Cl1 C18 1_555 1_555
Cl2 C26 1_555 1_555
N1 C7 1_555 1_555
O1 C8 1_555 1_555
C5 C6 1_555 1_555
C8 N1 1_555 1_555
C11 N1 1_555 1_555
C14 C15 1_555 1_555
C20 C21 1_555 1_555
C21 C22 1_555 1_555
C27 C28 1_555 1_555

#END
