
#######################################################################
#
#                 Cambridge Crystallographic Data Centre
#                                CCDC 
#
#######################################################################
#
# If this CIF has been generated from an entry in the Cambridge 
# Structural Database, then it will include bibliographic, chemical, 
# crystal, experimental, refinement or atomic coordinate data resulting 
# from the CCDC's data processing and validation procedures.
#
#######################################################################

data_GULZAP
_chemical_formula_moiety         'C28 H26 Cl1 N1 O1'
_chemical_name_systematic        
4-Benzyl-8-chloro-6-phenyl-2,3,3a,4,5a,6,10b,10c-octahydronaphtho[3,2,1-cd]indol-5(1H)-one
_symmetry_cell_setting           monoclinic
_symmetry_space_group_name_H-M   'P 21/c'
_symmetry_Int_Tables_number      14
_space_group_name_Hall           '-P 2ybc'
loop_
_symmetry_equiv_pos_site_id
_symmetry_equiv_pos_as_xyz
1 x,y,z
2 -x,1/2+y,1/2-z
3 -x,-y,-z
4 x,1/2-y,1/2+z
_cell_length_a                   11.383(2)
_cell_length_b                   9.3090(19)
_cell_length_c                   21.432(4)
_cell_angle_alpha                90
_cell_angle_beta                 100.41(3)
_cell_angle_gamma                90
_cell_volume                     2233.65
_exptl_crystal_colour            colorless
_exptl_crystal_description       block
_chemical_melting_point          '427 K'
_cell_formula_units_Z            4
loop_
_atom_site_label
_atom_site_type_symbol
_atom_site_fract_x
_atom_site_fract_y
_atom_site_fract_z
C1 C 1.0847(2) 1.0771(3) 0.13151(12)
H1 H 1.1452 1.0519 0.1096
C2 C 1.0040(2) 0.9779(3) 0.14305(13)
H2 H 1.0102 0.8842 0.1289
C3 C 0.9144(2) 1.0115(3) 0.17462(12)
H3 H 0.8592 0.9420 0.1811
C4 C 0.9056(2) 1.1510(3) 0.19730(12)
C5 C 0.9876(2) 1.2511(3) 0.18589(13)
H4 H 0.9831 1.3443 0.2009
C6 C 1.0757(3) 1.2164(3) 0.15282(12)
H5 H 1.1294 1.2861 0.1447
C7 C 0.8105(2) 1.1868(3) 0.23447(12)
H6 H 0.8320 1.1474 0.2769
H7 H 0.8048 1.2903 0.2381
C8 C 0.6419(2) 1.0159(3) 0.22707(11)
C9 C 0.5311(2) 0.9814(3) 0.17865(11)
H8 H 0.4634 1.0311 0.1915
C10 C 0.5561(2) 1.0532(3) 0.11923(11)
H9 H 0.6078 0.9890 0.1001
C11 C 0.6296(2) 1.1849(3) 0.14385(11)
H10 H 0.6850 1.2092 0.1154
C12 C 0.4423(2) 1.0766(3) 0.07081(11)
H11 H 0.4656 1.0917 0.0295
C13 C 0.3739(2) 1.2100(3) 0.08557(11)
H12 H 0.3083 1.2285 0.0508
H13 H 0.3408 1.1935 0.1236
C14 C 0.4563(2) 1.3395(3) 0.09528(13)
H14 H 0.4110 1.4249 0.1015
H15 H 0.4922 1.3539 0.0580
C15 C 0.5540(2) 1.3146(3) 0.15339(13)
H16 H 0.6046 1.3990 0.1608
H17 H 0.5176 1.2997 0.1905
C16 C 0.4945(2) 0.8244(3) 0.16426(11)
H18 H 0.4688 0.7842 0.2019
C17 C 0.3868(2) 0.8267(3) 0.11057(11)
C18 C 0.3658(2) 0.9390(3) 0.06601(11)
C19 C 0.2697(2) 0.9291(3) 0.01650(11)
H19 H 0.2563 1.0029 -0.0132
C20 C 0.1932(2) 0.8130(3) 0.00981(11)
H20 H 0.1302 0.8066 -0.0244
C21 C 0.2133(2) 0.7060(3) 0.05576(12)
C22 C 0.3080(2) 0.7129(3) 0.10478(12)
H21 H 0.3196 0.6396 0.1348
C23 C 0.5972(2) 0.7308(3) 0.14913(12)
C24 C 0.6877(2) 0.6900(3) 0.19705(12)
H22 H 0.6840 0.7136 0.2388
C25 C 0.7856(2) 0.6129(3) 0.18354(12)
H23 H 0.8479 0.5882 0.2162
C26 C 0.7899(2) 0.5738(3) 0.12255(12)
H24 H 0.8553 0.5230 0.1136
C27 C 0.6982(2) 0.6093(3) 0.07466(13)
H25 H 0.6994 0.5796 0.0333
C28 C 0.6028(2) 0.6901(3) 0.08802(12)
H26 H 0.5419 0.7170 0.0551
Cl1 Cl 0.11580(6) 0.56392(7) 0.04996(3)
N1 N 0.69613(19) 1.1301(2) 0.20477(10)
O1 O 0.67547(16) 0.9589(2) 0.27876(8)
loop_
_geom_bond_atom_site_label_1
_geom_bond_atom_site_label_2
_geom_bond_site_symmetry_1
_geom_bond_site_symmetry_2
C1 H1 1_555 1_555
C2 C1 1_555 1_555
H2 C2 1_555 1_555
C3 C2 1_555 1_555
H3 C3 1_555 1_555
C4 C3 1_555 1_555
C5 C4 1_555 1_555
H4 C5 1_555 1_555
C6 C1 1_555 1_555
H5 C6 1_555 1_555
C7 C4 1_555 1_555
H6 C7 1_555 1_555
H7 C7 1_555 1_555
C8 C9 1_555 1_555
C9 H8 1_555 1_555
C10 C9 1_555 1_555
H9 C10 1_555 1_555
C11 C10 1_555 1_555
H10 C11 1_555 1_555
C12 C10 1_555 1_555
H11 C12 1_555 1_555
C13 C12 1_555 1_555
H12 C13 1_555 1_555
H13 C13 1_555 1_555
C14 C13 1_555 1_555
H14 C14 1_555 1_555
H15 C14 1_555 1_555
C15 C11 1_555 1_555
H16 C15 1_555 1_555
H17 C15 1_555 1_555
C16 C9 1_555 1_555
H18 C16 1_555 1_555
C17 C16 1_555 1_555
C18 C12 1_555 1_555
C19 C18 1_555 1_555
H19 C19 1_555 1_555
C20 C19 1_555 1_555
H20 C20 1_555 1_555
C21 C20 1_555 1_555
C22 C17 1_555 1_555
H21 C22 1_555 1_555
C23 C16 1_555 1_555
C24 C23 1_555 1_555
H22 C24 1_555 1_555
C25 C24 1_555 1_555
H23 C25 1_555 1_555
C26 C25 1_555 1_555
H24 C26 1_555 1_555
C27 C26 1_555 1_555
H25 C27 1_555 1_555
C28 C23 1_555 1_555
H26 C28 1_555 1_555
Cl1 C21 1_555 1_555
N1 C7 1_555 1_555
O1 C8 1_555 1_555
C5 C6 1_555 1_555
C8 N1 1_555 1_555
C11 N1 1_555 1_555
C14 C15 1_555 1_555
C17 C18 1_555 1_555
C21 C22 1_555 1_555
C27 C28 1_555 1_555

#END
