
#######################################################################
#
#                 Cambridge Crystallographic Data Centre
#                                CCDC 
#
#######################################################################
#
# If this CIF has been generated from an entry in the Cambridge 
# Structural Database, then it will include bibliographic, chemical, 
# crystal, experimental, refinement or atomic coordinate data resulting 
# from the CCDC's data processing and validation procedures.
#
#######################################################################

data_GULZET
_chemical_formula_moiety         'C32 H33 N1 O2'
_chemical_name_systematic        
11-Acetyl-6-benzyl-8-phenyl-2,3,4,5,5a,6,7a,8,12b,12c-decahydrobenzo[f]cycloocta[cd]isoindol-7(1H)-one
_symmetry_cell_setting           triclinic
_symmetry_space_group_name_H-M   'P -1'
_symmetry_Int_Tables_number      2
_space_group_name_Hall           '-P 1'
loop_
_symmetry_equiv_pos_site_id
_symmetry_equiv_pos_as_xyz
1 x,y,z
2 -x,-y,-z
_cell_length_a                   10.3312(15)
_cell_length_b                   11.398(2)
_cell_length_c                   11.5132(13)
_cell_angle_alpha                78.511(2)
_cell_angle_beta                 83.442(3)
_cell_angle_gamma                69.991(2)
_cell_volume                     1246.82
_chemical_melting_point          '499 K'
_cell_formula_units_Z            2
loop_
_atom_site_label
_atom_site_type_symbol
_atom_site_fract_x
_atom_site_fract_y
_atom_site_fract_z
C1 C 0.4522(2) -0.3298(2) 0.87027(19)
H1 H 0.4845 -0.3854 0.8129
H2 H 0.4013 -0.3655 0.9341
H3 H 0.5296 -0.3196 0.9009
C2 C 0.3602(2) -0.20269(19) 0.81215(18)
C3 C 0.29882(19) -0.09987(17) 0.88404(17)
C4 C 0.35081(19) -0.09905(16) 0.98912(17)
H4 H 0.4327 -0.1613 1.0140
C5 C 0.28334(19) -0.00747(16) 1.05772(16)
H5 H 0.3209 -0.0076 1.1274
C6 C 0.15877(18) 0.08552(17) 1.02302(15)
C7 C 0.10626(17) 0.08722(17) 0.91417(15)
C8 C 0.17680(18) -0.00280(15) 0.84679(15)
H6 H 0.1433 0.0001 0.7743
C9 C 0.0727(2) 0.18507(18) 1.09420(15)
H7 H -0.0159 0.1696 1.1093
C10 C 0.03791(19) 0.31754(18) 1.01174(16)
H8 H -0.0304 0.3796 1.0547
C11 C -0.0260(2) 0.31866(18) 0.89473(16)
H9 H -0.1203 0.3786 0.8934
C12 C -0.03188(18) 0.18771(17) 0.88440(16)
H10 H -0.1000 0.1690 0.9451
C13 C 0.05976(19) 0.36884(18) 0.79239(16)
H11 H 0.1074 0.3009 0.7467
C14 C -0.0252(2) 0.48447(19) 0.70803(18)
H12 H -0.0800 0.5478 0.7550
H13 H 0.0381 0.5199 0.6564
C15 C -0.12042(18) 0.46233(18) 0.63156(15)
H14 H -0.0666 0.3961 0.5872
H15 H -0.1571 0.5391 0.5746
C16 C -0.2414(2) 0.42486(19) 0.69700(18)
H16 H -0.3208 0.4656 0.6485
H17 H -0.2631 0.4598 0.7698
C17 C -0.22405(19) 0.28292(18) 0.72945(17)
H18 H -0.2513 0.2585 0.6624
H19 H -0.2892 0.2727 0.7951
C18 C -0.08136(19) 0.18747(17) 0.76385(16)
H20 H -0.0829 0.1030 0.7630
H21 H -0.0137 0.2038 0.7029
C19 C 0.11768(19) 0.17971(17) 1.21796(15)
C20 C 0.02192(19) 0.16842(18) 1.31302(16)
H22 H -0.0634 0.1645 1.2994
C21 C 0.0565(2) 0.16323(18) 1.42757(16)
H23 H -0.0064 0.1563 1.4910
C22 C 0.1832(2) 0.16830(18) 1.44797(16)
H24 H 0.2054 0.1649 1.5249
C23 C 0.2755(2) 0.17826(18) 1.35608(17)
H25 H 0.3609 0.1813 1.3707
C24 C 0.2446(2) 0.18394(18) 1.24109(16)
H26 H 0.3091 0.1906 1.1790
C25 C 0.1580(2) 0.36617(18) 0.97039(17)
C26 C 0.27445(19) 0.43631(17) 0.78501(17)
H27 H 0.3314 0.4475 0.8406
H28 H 0.2353 0.5174 0.7345
C27 C 0.36238(19) 0.34208(17) 0.71031(17)
C28 C 0.3980(2) 0.21271(19) 0.74919(18)
H29 H 0.3658 0.1824 0.8239
C29 C 0.48090(19) 0.12752(19) 0.67877(17)
H30 H 0.5027 0.0409 0.7062
C30 C 0.53043(18) 0.16953(17) 0.57030(17)
H31 H 0.5864 0.1119 0.5236
C31 C 0.49759(18) 0.29812(17) 0.52920(16)
H32 H 0.5321 0.3275 0.4551
C32 C 0.41303(19) 0.38309(18) 0.59897(16)
H33 H 0.3898 0.4696 0.5703
N1 N 0.16349(15) 0.39594(13) 0.85050(13)
O1 O 0.33052(14) -0.18795(13) 0.71066(13)
O2 O 0.23758(14) 0.38107(13) 1.03277(12)
loop_
_geom_bond_atom_site_label_1
_geom_bond_atom_site_label_2
_geom_bond_site_symmetry_1
_geom_bond_site_symmetry_2
C1 H1 1_555 1_555
H2 C1 1_555 1_555
H3 C1 1_555 1_555
C2 C1 1_555 1_555
C3 C2 1_555 1_555
C4 C3 1_555 1_555
H4 C4 1_555 1_555
C5 C4 1_555 1_555
H5 C5 1_555 1_555
C6 C5 1_555 1_555
C7 C6 1_555 1_555
C8 C3 1_555 1_555
H6 C8 1_555 1_555
C9 C6 1_555 1_555
H7 C9 1_555 1_555
C10 C9 1_555 1_555
H8 C10 1_555 1_555
C11 C10 1_555 1_555
H9 C11 1_555 1_555
C12 C7 1_555 1_555
H10 C12 1_555 1_555
C13 C11 1_555 1_555
H11 C13 1_555 1_555
C14 C13 1_555 1_555
H12 C14 1_555 1_555
H13 C14 1_555 1_555
C15 C14 1_555 1_555
H14 C15 1_555 1_555
H15 C15 1_555 1_555
C16 C15 1_555 1_555
H16 C16 1_555 1_555
H17 C16 1_555 1_555
C17 C16 1_555 1_555
H18 C17 1_555 1_555
H19 C17 1_555 1_555
C18 C12 1_555 1_555
H20 C18 1_555 1_555
H21 C18 1_555 1_555
C19 C9 1_555 1_555
C20 C19 1_555 1_555
H22 C20 1_555 1_555
C21 C20 1_555 1_555
H23 C21 1_555 1_555
C22 C21 1_555 1_555
H24 C22 1_555 1_555
C23 C22 1_555 1_555
H25 C23 1_555 1_555
C24 C19 1_555 1_555
H26 C24 1_555 1_555
C25 C10 1_555 1_555
C26 H27 1_555 1_555
H28 C26 1_555 1_555
C27 C26 1_555 1_555
C28 C27 1_555 1_555
H29 C28 1_555 1_555
C29 C28 1_555 1_555
H30 C29 1_555 1_555
C30 C29 1_555 1_555
H31 C30 1_555 1_555
C31 C30 1_555 1_555
H32 C31 1_555 1_555
C32 C27 1_555 1_555
H33 C32 1_555 1_555
N1 C13 1_555 1_555
O1 C2 1_555 1_555
O2 C25 1_555 1_555
C7 C8 1_555 1_555
C11 C12 1_555 1_555
C17 C18 1_555 1_555
C23 C24 1_555 1_555
C25 N1 1_555 1_555
C26 N1 1_555 1_555
C31 C32 1_555 1_555

#END
