
#######################################################################
#
#                 Cambridge Crystallographic Data Centre
#                                CCDC 
#
#######################################################################
#
# If this CIF has been generated from an entry in the Cambridge 
# Structural Database, then it will include bibliographic, chemical, 
# crystal, experimental, refinement or atomic coordinate data resulting 
# from the CCDC's data processing and validation procedures.
#
#######################################################################

data_GUMBUL
_chemical_formula_moiety         'C17 H26 O2'
_chemical_name_systematic        
1^5^-Hydroxy-1^2^-methoxy-1(1,3)-benzenacycloundecaphane
_symmetry_cell_setting           monoclinic
_symmetry_space_group_name_H-M   'P 21/c'
_symmetry_Int_Tables_number      14
_space_group_name_Hall           '-P 2ybc'
loop_
_symmetry_equiv_pos_site_id
_symmetry_equiv_pos_as_xyz
1 x,y,z
2 -x,1/2+y,1/2-z
3 -x,-y,-z
4 x,1/2-y,1/2+z
_cell_length_a                   12.3276(9)
_cell_length_b                   28.236(2)
_cell_length_c                   8.9241(7)
_cell_angle_alpha                90
_cell_angle_beta                 99.169(2)
_cell_angle_gamma                90
_cell_volume                     3066.63
_cell_formula_units_Z            8
loop_
_atom_site_label
_atom_site_type_symbol
_atom_site_fract_x
_atom_site_fract_y
_atom_site_fract_z
C1 C 0.3745(2) 0.05697(8) 0.6115(3)
C2 C 0.3105(2) 0.03231(9) 0.7011(3)
C3 C 0.2116(3) 0.01236(9) 0.6300(3)
C4 C 0.1775(2) 0.01870(8) 0.4755(3)
C5 C 0.2382(2) 0.04599(8) 0.3905(3)
C6 C 0.3386(2) 0.06599(8) 0.4583(3)
C7 C 0.3393(3) 0.0317(1) 0.8729(3)
C8 C 0.2533(3) 0.0589(2) 0.9504(4)
C9 C 0.2130(3) 0.1065(2) 0.8801(4)
C10 C 0.3025(3) 0.1421(1) 0.8656(4)
C11 C 0.2572(3) 0.1881(1) 0.7855(4)
C12 C 0.3373(3) 0.2158(1) 0.7093(4)
C13 C 0.3824(2) 0.1897(1) 0.5824(4)
C14 C 0.2927(2) 0.1710(1) 0.4590(3)
C15 C 0.3338(2) 0.1461(1) 0.3277(3)
C16 C 0.3999(2) 0.1001(1) 0.3721(3)
C17 C 0.5643(2) 0.0436(1) 0.6775(4)
O1 O 0.4750(1) 0.0757(1) 0.6806(2)
O2 O 0.0790(1) -0.0011(1) 0.4084(2)
H1 H 0.1676 -0.0055 0.6877
H2 H 0.2120 0.0513 0.2858
H3 H 0.4125 0.0463 0.9033
H4 H 0.3436 -0.0015 0.9087
H5 H 0.1887 0.0381 0.9501
H6 H 0.2857 0.0645 1.0577
H7 H 0.1708 0.1005 0.7779
H8 H 0.1620 0.1206 0.9428
H9 H 0.3561 0.1276 0.8075
H10 H 0.3419 0.1500 0.9681
H11 H 0.1931 0.1798 0.7082
H12 H 0.2305 0.2088 0.8614
H13 H 0.3998 0.2253 0.7874
H14 H 0.3006 0.2452 0.6668
H15 H 0.4303 0.2115 0.5357
H16 H 0.4282 0.1628 0.6268
H17 H 0.2463 0.1486 0.5061
H18 H 0.2455 0.1978 0.4180
H19 H 0.3808 0.1684 0.2812
H20 H 0.2698 0.1382 0.2498
H21 H 0.4162 0.0844 0.2790
H22 H 0.4708 0.1084 0.4355
H23 H 0.6328 0.0583 0.7271
H24 H 0.5704 0.0361 0.5720
H25 H 0.5511 0.0144 0.7313
H51 H 0.0821 -0.0076 0.3174
C18 C 0.0723(2) -0.1669(1) -0.0224(3)
C19 C 0.0315(2) -0.1330(1) -0.1311(3)
C20 C 0.0287(2) -0.0858(1) -0.0843(3)
C21 C 0.0652(2) -0.0737(1) 0.0653(3)
C22 C 0.1106(2) -0.1073(1) 0.1695(3)
C23 C 0.1168(2) -0.1546(1) 0.1254(3)
C24 C -0.0023(2) -0.1459(1) -0.2962(3)
C25 C 0.0635(3) -0.1215(1) -0.4033(3)
C26 C 0.1867(3) -0.1197(1) -0.3549(4)
C27 C 0.2421(3) -0.1669(1) -0.3036(4)
C28 C 0.3621(3) -0.1601(2) -0.2348(5)
C29 C 0.4152(3) -0.1966(2) -0.1272(5)
C30 C 0.3594(3) -0.2068(2) 0.0124(5)
C31 C 0.3583(3) -0.1658(2) 0.1124(5)
C32 C 0.3073(3) -0.1762(1) 0.2587(4)
C33 C 0.1829(3) -0.1894(1) 0.2329(3)
C34 C -0.0245(3) -0.2386(1) -0.0508(4)
O3 O 0.0746(1) -0.2143(1) -0.0666(2)
O4 O 0.0572(2) -0.0269(1) 0.1093(2)
H26 H 0.0015 -0.0620 -0.1557
H27 H 0.1377 -0.0982 0.2711
H28 H -0.0808 -0.1379 -0.3270
H29 H 0.0053 -0.1806 -0.3071
H30 H 0.0482 -0.1378 -0.5028
H31 H 0.0363 -0.0886 -0.4188
H32 H 0.2032 -0.0967 -0.2707
H33 H 0.2202 -0.1074 -0.4410
H34 H 0.2026 -0.1815 -0.2277
H35 H 0.2372 -0.1882 -0.3918
H36 H 0.4050 -0.1577 -0.3193
H37 H 0.3689 -0.1292 -0.1813
H38 H 0.4918 -0.1866 -0.0907
H39 H 0.4184 -0.2266 -0.1838
H40 H 0.2828 -0.2171 -0.0227
H41 H 0.3985 -0.2332 0.0710
H42 H 0.3162 -0.1400 0.0550
H43 H 0.4346 -0.1545 0.1430
H44 H 0.3489 -0.2025 0.3142
H45 H 0.3179 -0.1479 0.3248
H46 H 0.1732 -0.2217 0.1901
H47 H 0.1556 -0.1892 0.3314
H48 H -0.0195 -0.2717 -0.0828
H49 H -0.0868 -0.2233 -0.1144
H50 H -0.0354 -0.2377 0.0556
H52 H 0.0658 -0.0254 0.2045
loop_
_geom_bond_atom_site_label_1
_geom_bond_atom_site_label_2
_geom_bond_site_symmetry_1
_geom_bond_site_symmetry_2
C1 C2 1_555 1_555
C2 C3 1_555 1_555
C3 C4 1_555 1_555
C4 C5 1_555 1_555
C5 C6 1_555 1_555
C6 C1 1_555 1_555
C7 C2 1_555 1_555
C8 C7 1_555 1_555
C9 C8 1_555 1_555
C10 C9 1_555 1_555
C11 C10 1_555 1_555
C12 C11 1_555 1_555
C13 C12 1_555 1_555
C14 C13 1_555 1_555
C15 C14 1_555 1_555
C16 C6 1_555 1_555
C17 O1 1_555 1_555
C18 C19 1_555 1_555
C19 C20 1_555 1_555
C20 C21 1_555 1_555
C21 C22 1_555 1_555
C22 C23 1_555 1_555
C23 C18 1_555 1_555
C24 C19 1_555 1_555
C25 C24 1_555 1_555
C26 C25 1_555 1_555
C27 C26 1_555 1_555
C28 C27 1_555 1_555
C29 C28 1_555 1_555
C30 C29 1_555 1_555
C31 C30 1_555 1_555
C32 C31 1_555 1_555
C33 C23 1_555 1_555
C34 O3 1_555 1_555
O1 C1 1_555 1_555
O2 C4 1_555 1_555
O3 C18 1_555 1_555
O4 C21 1_555 1_555
H1 C3 1_555 1_555
H2 C5 1_555 1_555
H3 C7 1_555 1_555
H4 C7 1_555 1_555
H5 C8 1_555 1_555
H6 C8 1_555 1_555
H7 C9 1_555 1_555
H8 C9 1_555 1_555
H9 C10 1_555 1_555
H10 C10 1_555 1_555
H11 C11 1_555 1_555
H12 C11 1_555 1_555
H13 C12 1_555 1_555
H14 C12 1_555 1_555
H15 C13 1_555 1_555
H16 C13 1_555 1_555
H17 C14 1_555 1_555
H18 C14 1_555 1_555
H19 C15 1_555 1_555
H20 C15 1_555 1_555
H21 C16 1_555 1_555
H22 C16 1_555 1_555
H23 C17 1_555 1_555
H24 C17 1_555 1_555
H25 C17 1_555 1_555
H26 C20 1_555 1_555
H27 C22 1_555 1_555
H28 C24 1_555 1_555
H29 C24 1_555 1_555
H30 C25 1_555 1_555
H31 C25 1_555 1_555
H32 C26 1_555 1_555
H33 C26 1_555 1_555
H34 C27 1_555 1_555
H35 C27 1_555 1_555
H36 C28 1_555 1_555
H37 C28 1_555 1_555
H38 C29 1_555 1_555
H39 C29 1_555 1_555
H40 C30 1_555 1_555
H41 C30 1_555 1_555
H42 C31 1_555 1_555
H43 C31 1_555 1_555
H44 C32 1_555 1_555
H45 C32 1_555 1_555
H46 C33 1_555 1_555
H47 C33 1_555 1_555
H48 C34 1_555 1_555
H49 C34 1_555 1_555
H50 C34 1_555 1_555
H51 O2 1_555 1_555
H52 O4 1_555 1_555
C15 C16 1_555 1_555
C32 C33 1_555 1_555

#END
