
#######################################################################
#
#                 Cambridge Crystallographic Data Centre
#                                CCDC 
#
#######################################################################
#
# If this CIF has been generated from an entry in the Cambridge 
# Structural Database, then it will include bibliographic, chemical, 
# crystal, experimental, refinement or atomic coordinate data resulting 
# from the CCDC's data processing and validation procedures.
#
#######################################################################

data_GUMBOG
_chemical_formula_moiety         'C20 H17 N1'
_chemical_name_systematic        9-Ethyl-2-phenyl-9H-carbazole
_symmetry_cell_setting           monoclinic
_symmetry_space_group_name_H-M   'C 2/c'
_symmetry_Int_Tables_number      15
_space_group_name_Hall           '-C 2yn'
loop_
_symmetry_equiv_pos_site_id
_symmetry_equiv_pos_as_xyz
1 x,y,z
2 -x,y,1/2-z
3 1/2+x,1/2+y,z
4 1/2-x,1/2+y,1/2-z
5 -x,-y,-z
6 x,-y,1/2+z
7 1/2-x,1/2-y,-z
8 1/2+x,1/2-y,1/2+z
_cell_length_a                   22.4171(5)
_cell_length_b                   7.7041(2)
_cell_length_c                   17.2037(3)
_cell_angle_alpha                90
_cell_angle_beta                 104.5740(10)
_cell_angle_gamma                90
_cell_volume                     2875.54
_exptl_crystal_colour            orange
_exptl_crystal_description       block
_chemical_melting_point          '391-392 K'
_cell_formula_units_Z            8
loop_
_atom_site_label
_atom_site_type_symbol
_atom_site_fract_x
_atom_site_fract_y
_atom_site_fract_z
N1 N 0.25904(4) 0.32059(11) 0.09141(5)
C1 C 0.31327(5) 0.24358(13) 0.13404(6)
C2 C 0.37384(5) 0.28665(15) 0.13580(7)
H1 H 0.3830 0.3795 0.1044
C3 C 0.42015(6) 0.18968(17) 0.18478(7)
H2 H 0.4619 0.2164 0.1869
C4 C 0.40693(6) 0.05289(18) 0.23137(7)
H3 H 0.4398 -0.0103 0.2653
C5 C 0.34699(6) 0.00882(15) 0.22866(7)
H4 H 0.3383 -0.0853 0.2598
C6 C 0.29896(5) 0.10415(14) 0.17958(6)
C7 C 0.23279(5) 0.09893(13) 0.16377(6)
C8 C 0.20988(5) 0.23518(13) 0.10957(6)
C9 C 0.14714(5) 0.26822(14) 0.08206(6)
H5 H 0.1326 0.3601 0.0453
C10 C 0.10595(5) 0.16354(15) 0.10955(6)
C11 C 0.12896(6) 0.02721(15) 0.16375(7)
H6 H 0.1008 -0.0437 0.1823
C12 C 0.19098(6) -0.00551(14) 0.19027(6)
H7 H 0.2053 -0.0985 0.2264
C13 C 0.03876(6) 0.19667(15) 0.08288(7)
C14 C 0.01118(6) 0.25311(17) 0.00538(8)
H8 H 0.0358 0.2699 -0.0316
C15 C -0.05145(7) 0.28515(18) -0.01874(10)
H9 H -0.0696 0.3226 -0.0721
C16 C -0.08773(7) 0.26270(19) 0.03479(11)
H10 H -0.1308 0.2848 0.0184
C17 C -0.06114(7) 0.2083(2) 0.11185(11)
H11 H -0.0859 0.1939 0.1488
C18 C 0.00115(6) 0.17455(18) 0.13580(8)
H12 H 0.0188 0.1357 0.1890
C19 C 0.25503(5) 0.48488(13) 0.04858(6)
H13 H 0.2172 0.4858 0.0041
H14 H 0.2908 0.4960 0.0250
C20 C 0.25389(6) 0.63806(15) 0.10331(7)
H15 H 0.2512 0.7460 0.0725
H16 H 0.2917 0.6387 0.1469
H17 H 0.2180 0.6286 0.1259
loop_
_geom_bond_atom_site_label_1
_geom_bond_atom_site_label_2
_geom_bond_site_symmetry_1
_geom_bond_site_symmetry_2
N1 C1 1_555 1_555
C1 C2 1_555 1_555
C2 H1 1_555 1_555
C3 C2 1_555 1_555
H2 C3 1_555 1_555
C4 C3 1_555 1_555
H3 C4 1_555 1_555
C5 C4 1_555 1_555
H4 C5 1_555 1_555
C6 C1 1_555 1_555
C7 C6 1_555 1_555
C8 N1 1_555 1_555
C9 C8 1_555 1_555
H5 C9 1_555 1_555
C10 C9 1_555 1_555
C11 C10 1_555 1_555
H6 C11 1_555 1_555
C12 C7 1_555 1_555
H7 C12 1_555 1_555
C13 C10 1_555 1_555
C14 C13 1_555 1_555
H8 C14 1_555 1_555
C15 C14 1_555 1_555
H9 C15 1_555 1_555
C16 C15 1_555 1_555
H10 C16 1_555 1_555
C17 C16 1_555 1_555
H11 C17 1_555 1_555
C18 C13 1_555 1_555
H12 C18 1_555 1_555
C19 N1 1_555 1_555
H13 C19 1_555 1_555
H14 C19 1_555 1_555
C20 C19 1_555 1_555
H15 C20 1_555 1_555
H16 C20 1_555 1_555
H17 C20 1_555 1_555
C5 C6 1_555 1_555
C7 C8 1_555 1_555
C11 C12 1_555 1_555
C17 C18 1_555 1_555

#END
