
#######################################################################
#
#                 Cambridge Crystallographic Data Centre
#                                CCDC 
#
#######################################################################
#
# If this CIF has been generated from an entry in the Cambridge 
# Structural Database, then it will include bibliographic, chemical, 
# crystal, experimental, refinement or atomic coordinate data resulting 
# from the CCDC's data processing and validation procedures.
#
#######################################################################

data_GUMCIC
_chemical_formula_moiety         'C25 H21 Br1 N2 O2,C1 H2 Cl2'
_chemical_name_systematic        
"4'-acetyl-6-bromo-3',5'-diphenylspiro[indole-3,2'-pyrrolidin]-2(1H)-one dichloromethane solvate"
_symmetry_cell_setting           monoclinic
_symmetry_space_group_name_H-M   'P 21/c'
_symmetry_Int_Tables_number      14
_space_group_name_Hall           '-P 2ybc'
loop_
_symmetry_equiv_pos_site_id
_symmetry_equiv_pos_as_xyz
1 x,y,z
2 -x,1/2+y,1/2-z
3 -x,-y,-z
4 x,1/2-y,1/2+z
_cell_length_a                   10.3391(7)
_cell_length_b                   10.6015(6)
_cell_length_c                   22.2259(16)
_cell_angle_alpha                90
_cell_angle_beta                 95.575(4)
_cell_angle_gamma                90
_cell_volume                     2424.66
_cell_formula_units_Z            4
loop_
_atom_site_label
_atom_site_type_symbol
_atom_site_fract_x
_atom_site_fract_y
_atom_site_fract_z
Br1 Br 0.34936(5) 0.38119(4) 0.426424(17)
C1 C 0.2344(4) 0.8008(4) 0.39968(16)
C2 C 0.3580(4) 0.7680(4) 0.42601(16)
C3 C 0.3047(4) 0.5539(4) 0.41345(15)
C4 C 0.1460(5) 0.7086(4) 0.37999(17)
H1 H 0.0639 0.7303 0.3621
C5 C 0.3968(4) 0.6440(4) 0.43325(16)
H2 H 0.4795 0.6221 0.4503
C6 C 0.1821(5) 0.5823(4) 0.38735(17)
H3 H 0.1241 0.5182 0.3748
N1 N 0.4266(4) 0.8771(3) 0.44510(14)
C7 C 0.3517(4) 0.9827(4) 0.43578(15)
C8 C 0.2205(4) 0.9417(4) 0.40043(16)
O1 O 0.3797(3) 1.0884(3) 0.45354(12)
C9 C -0.0493(5) 1.1593(4) 0.42253(16)
C10 C 0.3068(4) 1.0022(4) 0.29858(16)
C11 C 0.4181(5) 1.0766(4) 0.31108(17)
H4 H 0.4221 1.1334 0.3431
C12 C -0.2781(5) 1.1128(5) 0.41988(19)
H5 H -0.3457 1.0546 0.4154
C13 C 0.3033(5) 0.9202(4) 0.24941(18)
H6 H 0.2301 0.8704 0.2398
C14 C -0.1516(5) 1.0742(5) 0.41502(16)
H7 H -0.1349 0.9902 0.4066
C15 C 0.4074(5) 0.9119(4) 0.21463(19)
H8 H 0.4030 0.8571 0.1818
C16 C 0.5224(5) 1.0671(5) 0.27660(18)
H9 H 0.5960 1.1165 0.2859
C17 C 0.5171(5) 0.9839(4) 0.22816(18)
H10 H 0.5872 0.9768 0.2051
C18 C -0.0767(5) 1.2837(5) 0.43528(19)
H11 H -0.0093 1.3419 0.4413
C19 C -0.3032(6) 1.2366(6) 0.43125(19)
H12 H -0.3883 1.2629 0.4337
C20 C -0.2037(6) 1.3224(6) 0.4391(2)
H13 H -0.2214 1.4064 0.4470
N2 N 0.1077(4) 0.9847(3) 0.42876(15)
C21 C 0.1373(4) 1.1354(4) 0.35136(16)
H14 H 0.2088 1.1965 0.3547
C22 C 0.0884(4) 1.1201(4) 0.41603(16)
H15 H 0.1463 1.1681 0.4451
C23 C 0.1945(4) 1.0048(4) 0.33698(16)
H16 H 0.1239 0.9570 0.3149
C24 C 0.0317(4) 1.1858(4) 0.30529(17)
C25 C -0.0571(5) 1.0956(4) 0.27040(18)
H17 H -0.1289 1.1408 0.2501
H18 H -0.0889 1.0350 0.2975
H19 H -0.0106 1.0527 0.2411
O2 O 0.0203(3) 1.2983(3) 0.29879(13)
H20 H 0.500(5) 0.877(4) 0.470(2)
H21 H 0.121(4) 0.969(3) 0.4676(17)
Cl1 Cl 0.78340(14) 0.78522(12) 0.29769(5)
C26 C 0.6647(6) 0.7518(6) 0.3460(2)
H22 H 0.6190 0.6755 0.3324
H23 H 0.6022 0.8202 0.3442
Cl2 Cl 0.73206(14) 0.73146(14) 0.42158(5)
loop_
_geom_bond_atom_site_label_1
_geom_bond_atom_site_label_2
_geom_bond_site_symmetry_1
_geom_bond_site_symmetry_2
Br1 C3 1_555 1_555
C1 C2 1_555 1_555
C2 C5 1_555 1_555
C3 C5 1_555 1_555
C4 C1 1_555 1_555
H1 C4 1_555 1_555
C5 H2 1_555 1_555
C6 C3 1_555 1_555
H3 C6 1_555 1_555
N1 C2 1_555 1_555
C7 N1 1_555 1_555
C8 C1 1_555 1_555
O1 C7 1_555 1_555
C9 C14 1_555 1_555
C10 C11 1_555 1_555
C11 H4 1_555 1_555
C12 H5 1_555 1_555
C13 C10 1_555 1_555
H6 C13 1_555 1_555
C14 C12 1_555 1_555
H7 C14 1_555 1_555
C15 C13 1_555 1_555
H8 C15 1_555 1_555
C16 C11 1_555 1_555
H9 C16 1_555 1_555
C17 C15 1_555 1_555
H10 C17 1_555 1_555
C18 C9 1_555 1_555
H11 C18 1_555 1_555
C19 C12 1_555 1_555
H12 C19 1_555 1_555
C20 C18 1_555 1_555
H13 C20 1_555 1_555
N2 C8 1_555 1_555
C21 H14 1_555 1_555
C22 C9 1_555 1_555
H15 C22 1_555 1_555
C23 C8 1_555 1_555
H16 C23 1_555 1_555
C24 C21 1_555 1_555
C25 C24 1_555 1_555
H17 C25 1_555 1_555
H18 C25 1_555 1_555
H19 C25 1_555 1_555
O2 C24 1_555 1_555
H20 N1 1_555 1_555
H21 N2 1_555 1_555
Cl1 C26 1_555 1_555
C26 H22 1_555 1_555
H23 C26 1_555 1_555
Cl2 C26 1_555 1_555
C4 C6 1_555 1_555
C7 C8 1_555 1_555
C10 C23 1_555 1_555
C16 C17 1_555 1_555
C19 C20 1_555 1_555
N2 C22 1_555 1_555
C21 C22 1_555 1_555
C21 C23 1_555 1_555

#END
