
#######################################################################
#
#                 Cambridge Crystallographic Data Centre
#                                CCDC 
#
#######################################################################
#
# If this CIF has been generated from an entry in the Cambridge 
# Structural Database, then it will include bibliographic, chemical, 
# crystal, experimental, refinement or atomic coordinate data resulting 
# from the CCDC's data processing and validation procedures.
#
#######################################################################

data_GUMDAV
_chemical_formula_moiety         'C27 H30 N4 O4'
_chemical_name_systematic        
'ethyl 1-((1-(3-ethoxy-3-oxoprop-1-en-1-yl)pyrrolidin-2-yl)(diphenyl)methyl)-1H-1,2,3-triazole-4-carboxylate'
_symmetry_cell_setting           monoclinic
_symmetry_space_group_name_H-M   'P 21'
_symmetry_Int_Tables_number      4
_space_group_name_Hall           'P 2yb'
loop_
_symmetry_equiv_pos_site_id
_symmetry_equiv_pos_as_xyz
1 x,y,z
2 -x,1/2+y,-z
_cell_length_a                   12.9190(4)
_cell_length_b                   19.4503(6)
_cell_length_c                   30.7429(11)
_cell_angle_alpha                90
_cell_angle_beta                 92.739(2)
_cell_angle_gamma                90
_cell_volume                     7716.2
_exptl_crystal_colour            silver
_exptl_crystal_description       Block
_cell_formula_units_Z            12
loop_
_atom_site_label
_atom_site_type_symbol
_atom_site_fract_x
_atom_site_fract_y
_atom_site_fract_z
O1 O 1.0980(3) 0.2946(2) 0.30271(14)
O2 O 1.0928(3) 0.2901(2) 0.37525(15)
O3 O 1.0071(3) 0.0002(2) 0.25669(16)
O4 O 1.0356(3) -0.0982(2) 0.29385(15)
N1 N 0.9139(4) 0.2188(3) 0.29359(16)
N2 N 0.8275(4) 0.1861(3) 0.29987(16)
N3 N 0.8166(4) 0.1845(2) 0.34348(15)
N4 N 0.7538(4) 0.0339(3) 0.33650(17)
C1 C 1.2349(6) 0.3391(5) 0.2634(3)
H1 H 1.3011 0.3638 0.2654
H2 H 1.1849 0.3651 0.2449
H3 H 1.2452 0.2935 0.2507
C2 C 1.1944(6) 0.3314(4) 0.3080(3)
H4 H 1.2443 0.3054 0.3271
H5 H 1.1830 0.3770 0.3211
C3 C 1.0552(5) 0.2768(3) 0.3396(2)
C4 C 0.9561(5) 0.2400(3) 0.33270(19)
C5 C 0.8948(4) 0.2184(3) 0.3644(2)
H6 H 0.9049 0.2255 0.3949
C6 C 0.7185(4) 0.1557(3) 0.3615(2)
C7 C 0.7419(4) 0.1338(3) 0.40853(19)
C8 C 0.8337(4) 0.0960(3) 0.4185(2)
H7 H 0.8829 0.0896 0.3968
C9 C 0.8523(5) 0.0683(3) 0.4598(2)
H8 H 0.9132 0.0421 0.4661
C10 C 0.7827(5) 0.0788(4) 0.4915(2)
H9 H 0.7949 0.0591 0.5195
C11 C 0.6951(5) 0.1179(4) 0.4828(2)
H10 H 0.6487 0.1267 0.5052
C12 C 0.6746(5) 0.1446(3) 0.44108(19)
H11 H 0.6132 0.1706 0.4352
C13 C 0.6408(4) 0.2161(3) 0.35700(19)
C14 C 0.6558(5) 0.2737(3) 0.38341(19)
H12 H 0.7112 0.2744 0.4049
C15 C 0.5895(5) 0.3311(3) 0.3786(2)
H13 H 0.6008 0.3703 0.3966
C16 C 0.5081(5) 0.3303(3) 0.3476(2)
H14 H 0.4632 0.3688 0.3445
C17 C 0.4925(5) 0.2734(3) 0.3215(2)
H15 H 0.4360 0.2722 0.3006
C18 C 0.5612(4) 0.2166(3) 0.32578(18)
H16 H 0.5520 0.1783 0.3068
C19 C 0.6802(4) 0.0921(3) 0.3336(2)
H17 H 0.6692 0.1063 0.3025
C20 C 0.5810(5) 0.0608(3) 0.3493(2)
H18 H 0.5369 0.0440 0.3244
H19 H 0.5415 0.0953 0.3654
C21 C 0.6143(5) 0.0004(3) 0.3796(2)
H20 H 0.6230 0.0159 0.4103
H21 H 0.5625 -0.0371 0.3778
C22 C 0.7177(5) -0.0232(3) 0.3624(2)
H22 H 0.7682 -0.0335 0.3868
H23 H 0.7081 -0.0650 0.3443
C23 C 0.8353(5) 0.0251(3) 0.31097(19)
H24 H 0.8490 0.0597 0.2902
C24 C 0.8988(5) -0.0312(3) 0.3135(2)
H25 H 0.8874 -0.0656 0.3347
C25 C 0.9811(5) -0.0392(3) 0.2852(2)
C26 C 1.1202(6) -0.1131(4) 0.2667(3)
H26 H 1.1741 -0.0770 0.2700
H27 H 1.0955 -0.1149 0.2357
C27 C 1.1636(8) -0.1813(5) 0.2808(3)
H28 H 1.2219 -0.1932 0.2630
H29 H 1.1096 -0.2166 0.2772
H30 H 1.1875 -0.1789 0.3115
O5 O 0.3607(4) 0.5661(3) 0.3532(2)
O6 O 0.4130(5) 0.4964(3) 0.2994(2)
O7 O 0.6179(3) 0.3641(2) 0.51466(16)
O8 O 0.5680(3) 0.4534(2) 0.47201(15)
N5 N 0.5629(5) 0.5872(3) 0.3827(2)
N6 N 0.6629(5) 0.5913(3) 0.38758(19)
N7 N 0.7054(4) 0.5535(3) 0.35603(16)
N8 N 0.8394(4) 0.4688(3) 0.41547(17)
C28 C 0.2153(8) 0.6096(8) 0.3124(5)
H31 H 0.1428 0.6013 0.3031
H32 H 0.2574 0.6124 0.2868
H33 H 0.2207 0.6529 0.3287
C29 C 0.2527(7) 0.5532(6) 0.3403(5)
H34 H 0.2109 0.5502 0.3664
H35 H 0.2462 0.5091 0.3243
C30 C 0.4292(7) 0.5335(5) 0.3306(3)
C31 C 0.5405(5) 0.5494(3) 0.3464(2)
C32 C 0.6287(5) 0.5274(3) 0.3299(2)
H36 H 0.6357 0.4993 0.3049
C33 C 0.8208(5) 0.5539(3) 0.3529(2)
C34 C 0.8521(5) 0.5022(4) 0.3189(2)
C35 C 0.9277(6) 0.5169(4) 0.2904(2)
H37 H 0.9554 0.5621 0.2889
C36 C 0.9634(7) 0.4648(6) 0.2638(2)
H38 H 1.0176 0.4743 0.2448
C37 C 0.9221(7) 0.4010(5) 0.2645(2)
H39 H 0.9466 0.3664 0.2457
C38 C 0.8470(6) 0.3863(4) 0.2915(2)
H40 H 0.8182 0.3413 0.2913
C39 C 0.8110(5) 0.4343(3) 0.3192(2)
H41 H 0.7587 0.4226 0.3386
C40 C 0.8452(6) 0.6291(4) 0.3395(2)
C41 C 0.9097(6) 0.6720(4) 0.3648(3)
H42 H 0.9409 0.6558 0.3915
C42 C 0.9284(7) 0.7389(5) 0.3509(4)
H43 H 0.9740 0.7678 0.3678
C43 C 0.8822(9) 0.7632(5) 0.3133(4)
H44 H 0.8973 0.8082 0.3034
C44 C 0.8137(11) 0.7224(5) 0.2899(4)
H45 H 0.7772 0.7405 0.2650
C45 C 0.7969(8) 0.6551(5) 0.3022(3)
H46 H 0.7519 0.6267 0.2847
C46 C 0.8725(5) 0.5365(3) 0.3984(2)
H47 H 0.8561 0.5735 0.4196
C47 C 0.9904(5) 0.5283(4) 0.3972(2)
H48 H 1.0249 0.5477 0.4239
H49 H 1.0167 0.5525 0.3716
C48 C 1.0119(5) 0.4505(4) 0.3941(2)
H50 H 1.0101 0.4350 0.3634
H51 H 1.0801 0.4387 0.4082
C49 C 0.9237(5) 0.4183(4) 0.4185(2)
H52 H 0.9016 0.3743 0.4048
H53 H 0.9457 0.4096 0.4493
C50 C 0.7566(5) 0.4623(3) 0.43940(19)
H54 H 0.7092 0.4997 0.4387
C51 C 0.7331(5) 0.4083(3) 0.4644(2)
H55 H 0.7806 0.3711 0.4672
C52 C 0.6383(5) 0.4051(3) 0.4871(2)
C53 C 0.4643(5) 0.4529(4) 0.4884(2)
H56 H 0.4559 0.4920 0.5085
H57 H 0.4528 0.4097 0.5045
C54 C 0.3885(6) 0.4584(4) 0.4509(2)
H58 H 0.3181 0.4585 0.4614
H59 H 0.3967 0.4192 0.4314
H60 H 0.4005 0.5013 0.4351
O9 O 1.1544(6) 0.4960(5) 0.1259(2)
O10 O 1.1055(5) 0.4140(4) 0.1725(2)
O11 O 0.8957(9) 0.2667(5) -0.0130(3)
O12 O 0.9411(5) 0.3654(4) 0.0193(2)
N9 N 0.9472(7) 0.5186(5) 0.1017(3)
N10 N 0.8445(9) 0.5212(4) 0.0975(2)
N11 N 0.8081(6) 0.4794(4) 0.1311(2)
N12 N 0.6735(6) 0.3890(4) 0.07503(19)
C55 C 1.2956(10) 0.5222(11) 0.1788(6)
H61 H 1.3690 0.5121 0.1855
H62 H 1.2546 0.5076 0.2032
H63 H 1.2868 0.5718 0.1742
C56 C 1.2592(9) 0.4838(8) 0.1378(5)
H64 H 1.3022 0.4979 0.1135
H65 H 1.2696 0.4339 0.1425
C57 C 1.0818(8) 0.4585(6) 0.1475(3)
C58 C 0.9750(7) 0.4765(5) 0.1343(3)
C59 C 0.8894(7) 0.4525(5) 0.1533(2)
H66 H 0.8878 0.4225 0.1776
C60 C 0.6900(7) 0.4755(4) 0.1367(2)
C61 C 0.6717(6) 0.4210(4) 0.1703(2)
C62 C 0.7181(5) 0.3559(4) 0.1687(2)
H67 H 0.7670 0.3467 0.1474
C63 C 0.6936(6) 0.3052(4) 0.1980(2)
H68 H 0.7253 0.2612 0.1966
C64 C 0.6210(7) 0.3190(4) 0.2299(2)
H69 H 0.6040 0.2847 0.2504
C65 C 0.5758(7) 0.3826(5) 0.2308(2)
H70 H 0.5260 0.3920 0.2518
C66 C 0.6011(7) 0.4324(4) 0.2023(2)
H71 H 0.5696 0.4763 0.2042
C67 C 0.6604(12) 0.5489(5) 0.1493(3)
C68 C 0.6994(18) 0.5734(5) 0.1882(4)
H72 H 0.7511 0.5507 0.2059
C69 C 0.653(2) 0.6385(7) 0.1996(6)
H73 H 0.6745 0.6586 0.2266
C70 C 0.5746(14) 0.6759(8) 0.1729(6)
H74 H 0.5353 0.7129 0.1837
C71 C 0.564(2) 0.6530(8) 0.1320(5)
H75 H 0.5361 0.6821 0.1096
C72 C 0.5924(14) 0.5883(7) 0.1229(4)
H76 H 0.5646 0.5681 0.0967
C73 C 0.6387(6) 0.4548(6) 0.0921(2)
H77 H 0.6536 0.4915 0.0704
C74 C 0.5232(9) 0.4461(12) 0.0930(3)
H78 H 0.4952 0.4711 0.1180
H79 H 0.4882 0.4629 0.0657
C75 C 0.5095(13) 0.3699(12) 0.0979(4)
H80 H 0.4417 0.3553 0.0846
H81 H 0.5123 0.3570 0.1291
C76 C 0.5964(10) 0.3360(7) 0.0751(3)
H82 H 0.6223 0.2950 0.0912
H83 H 0.5741 0.3224 0.0450
C77 C 0.7551(8) 0.3808(5) 0.0543(3)
H84 H 0.8039 0.4174 0.0541
C78 C 0.7756(10) 0.3238(6) 0.0328(3)
H85 H 0.7253 0.2882 0.0315
C79 C 0.8692(13) 0.3138(6) 0.0117(5)
C80 C 1.0393(10) 0.3614(11) 0.0007(4)
H86 H 1.0443 0.3953 -0.0231
H87 H 1.0510 0.3148 -0.0110
C81 C 1.1181(9) 0.3775(7) 0.0376(4)
H88 H 1.1877 0.3784 0.0264
H89 H 1.1148 0.3420 0.0602
H90 H 1.1024 0.4224 0.0502
O13 O 0.4132(4) 0.1958(3) 0.15174(17)
O14 O 0.4124(4) 0.1990(3) 0.22437(18)
O15 O 0.5544(4) -0.0775(4) 0.2835(2)
O16 O 0.5394(5) -0.1896(3) 0.2662(3)
N13 N 0.6021(4) 0.1254(3) 0.22702(17)
N14 N 0.6861(4) 0.0919(3) 0.21746(17)
N15 N 0.6891(4) 0.0912(3) 0.17338(17)
N16 N 0.7577(4) -0.0564(3) 0.1816(2)
C82 C 0.2943(10) 0.2555(9) 0.1034(6)
H91 H 0.2291 0.2810 0.0997
H92 H 0.2901 0.2136 0.0856
H93 H 0.3515 0.2842 0.0941
C83 C 0.3136(7) 0.2357(6) 0.1519(4)
H94 H 0.3211 0.2771 0.1705
H95 H 0.2565 0.2070 0.1622
C84 C 0.4529(5) 0.1823(3) 0.1918(3)
C85 C 0.5528(5) 0.1464(3) 0.1899(2)
C86 C 0.6086(5) 0.1255(3) 0.1553(2)
H96 H 0.5932 0.1336 0.1252
C87 C 0.7848(5) 0.0657(4) 0.1524(2)
C88 C 0.7518(5) 0.0423(4) 0.1059(2)
C89 C 0.6617(5) 0.0013(4) 0.0991(3)
H97 H 0.6186 -0.0074 0.1227
C90 C 0.6365(5) -0.0259(5) 0.0589(3)
H98 H 0.5737 -0.0509 0.0546
C91 C 0.7009(6) -0.0178(5) 0.0242(3)
H99 H 0.6848 -0.0386 -0.0032
C92 C 0.7892(6) 0.0216(5) 0.0312(3)
H100 H 0.8340 0.0281 0.0080
C93 C 0.8153(5) 0.0528(4) 0.0723(2)
H101 H 0.8757 0.0804 0.0761
C94 C 0.8588(5) 0.1263(3) 0.1543(2)
C95 C 0.8415(5) 0.1821(4) 0.1264(2)
H102 H 0.7859 0.1807 0.1051
C96 C 0.9047(6) 0.2393(4) 0.1296(2)
H103 H 0.8926 0.2759 0.1096
C97 C 0.9861(5) 0.2456(3) 0.1613(2)
H104 H 1.0279 0.2857 0.1638
C98 C 1.0014(5) 0.1909(4) 0.1883(2)
H105 H 1.0566 0.1930 0.2098
C99 C 0.9401(5) 0.1317(4) 0.1859(2)
H106 H 0.9536 0.0951 0.2058
C100 C 0.8286(5) 0.0033(4) 0.1789(2)
H107 H 0.8497 0.0188 0.2091
C101 C 0.9222(5) -0.0295(4) 0.1581(3)
H108 H 0.9561 0.0040 0.1392
H109 H 0.9735 -0.0454 0.1809
C102 C 0.8803(6) -0.0906(4) 0.1312(3)
H110 H 0.9340 -0.1265 0.1289
H111 H 0.8572 -0.0757 0.1015
C103 C 0.7880(6) -0.1178(4) 0.1561(3)
H112 H 0.7307 -0.1331 0.1359
H113 H 0.8092 -0.1564 0.1755
C104 C 0.6947(5) -0.0659(4) 0.2139(3)
H114 H 0.6858 -0.0279 0.2327
C105 C 0.6422(6) -0.1231(4) 0.2228(3)
H115 H 0.6479 -0.1625 0.2049
C106 C 0.5764(6) -0.1251(5) 0.2601(3)
C107 C 0.4784(9) -0.1977(6) 0.3049(4)
H116 H 0.4039 -0.1961 0.2958
H117 H 0.4931 -0.1584 0.3247
C108 C 0.499(3) -0.2628(12) 0.3295(11)
H118 H 0.4565 -0.2642 0.3550
H119 H 0.5727 -0.2647 0.3391
H120 H 0.4824 -0.3022 0.3106
O17 O 0.9005(3) 0.2224(2) 0.53525(13)
O18 O 0.9006(3) 0.2657(2) 0.46695(14)
O19 O 0.9269(4) -0.0828(3) 0.49088(17)
O20 O 0.8762(4) -0.1464(3) 0.43229(19)
N17 N 1.0591(4) 0.1313(3) 0.51710(16)
N18 N 1.1341(4) 0.0978(3) 0.49934(16)
N19 N 1.1495(4) 0.1272(3) 0.45968(16)
N20 N 1.1815(4) -0.0149(3) 0.42231(17)
C109 C 0.7683(6) 0.2393(5) 0.5843(2)
H121 H 0.7052 0.2650 0.5900
H122 H 0.8208 0.2480 0.6077
H123 H 0.7524 0.1900 0.5831
C110 C 0.8083(5) 0.2617(4) 0.5419(2)
H124 H 0.7559 0.2531 0.5179
H125 H 0.8245 0.3114 0.5427
C111 C 0.9382(5) 0.2282(3) 0.4957(2)
C112 C 1.0277(5) 0.1825(3) 0.48855(19)
C113 C 1.0865(5) 0.1801(3) 0.4531(2)
H126 H 1.0830 0.2101 0.4287
C114 C 1.2439(5) 0.1085(3) 0.43576(19)
C115 C 1.2246(5) 0.1233(3) 0.38780(19)
C116 C 1.3061(5) 0.1448(3) 0.3624(2)
H127 H 1.3716 0.1560 0.3759
C117 C 1.2903(5) 0.1498(3) 0.3170(2)
H128 H 1.3454 0.1636 0.2995
C118 C 1.1926(5) 0.1342(3) 0.2976(2)
H129 H 1.1811 0.1397 0.2670
C119 C 1.1146(5) 0.1117(3) 0.3215(2)
H130 H 1.0503 0.0992 0.3074
C120 C 1.1278(4) 0.1067(3) 0.3669(2)
H131 H 1.0718 0.0922 0.3837
C121 C 1.3305(5) 0.1495(3) 0.45904(19)
C122 C 1.3846(4) 0.1238(3) 0.49563(19)
H132 H 1.3713 0.0783 0.5052
C123 C 1.4581(5) 0.1640(3) 0.5185(2)
H133 H 1.4961 0.1455 0.5430
C124 C 1.4762(5) 0.2329(4) 0.5053(2)
H134 H 1.5253 0.2609 0.5210
C125 C 1.4218(5) 0.2581(3) 0.4695(2)
H135 H 1.4344 0.3036 0.4598
C126 C 1.3482(5) 0.2178(3) 0.4472(2)
H136 H 1.3089 0.2371 0.4233
C127 C 1.2636(4) 0.0283(3) 0.4413(2)
H137 H 1.2737 0.0173 0.4730
C128 C 1.3603(5) 0.0049(3) 0.4176(2)
H138 H 1.4071 0.0443 0.4129
H139 H 1.3990 -0.0306 0.4347
C129 C 1.3194(5) -0.0241(3) 0.3744(2)
H140 H 1.3651 -0.0612 0.3645
H141 H 1.3151 0.0123 0.3519
C130 C 1.2121(5) -0.0520(3) 0.3827(2)
H142 H 1.1629 -0.0423 0.3578
H143 H 1.2145 -0.1023 0.3879
C131 C 1.0992(5) -0.0373(3) 0.4432(2)
H144 H 1.0901 -0.0191 0.4715
C132 C 1.0290(5) -0.0829(4) 0.4281(2)
H145 H 1.0352 -0.1023 0.4000
C133 C 0.9437(5) -0.1030(3) 0.4542(3)
C134 C 0.7861(6) -0.1678(5) 0.4546(3)
H146 H 0.7448 -0.1275 0.4631
H147 H 0.8064 -0.1946 0.4810
C135 C 0.7241(11) -0.2128(9) 0.4210(5)
H148 H 0.6614 -0.2301 0.4341
H149 H 0.7670 -0.2517 0.4125
H150 H 0.7047 -0.1852 0.3953
O21 O 0.5918(4) 0.1283(3) -0.01746(16)
O22 O 0.5894(4) 0.1701(3) 0.05040(15)
O23 O 0.5711(5) -0.1720(4) 0.0096(2)
O24 O 0.6343(9) -0.2376(6) 0.0630(4)
N21 N 0.4347(5) 0.0379(3) -0.00136(19)
N22 N 0.3607(5) 0.0011(3) 0.01608(19)
N23 N 0.3486(4) 0.0263(3) 0.05685(18)
N24 N 0.3244(5) -0.1198(3) 0.0878(2)
C136 C 0.7266(11) 0.1442(7) -0.0666(4)
H151 H 0.7872 0.1721 -0.0729
H152 H 0.6749 0.1476 -0.0909
H153 H 0.7476 0.0961 -0.0627
C137 C 0.6789(7) 0.1709(5) -0.0241(3)
H154 H 0.7300 0.1674 0.0008
H155 H 0.6574 0.2195 -0.0275
C138 C 0.5550(6) 0.1336(4) 0.0225(2)
C139 C 0.4674(6) 0.0852(4) 0.0283(2)
C140 C 0.4124(5) 0.0782(4) 0.0652(2)
H156 H 0.4188 0.1049 0.0910
C141 C 0.2593(5) 0.0027(4) 0.0817(2)
C142 C 0.1692(5) 0.0462(4) 0.0626(2)
C143 C 0.1122(6) 0.0257(5) 0.0246(3)
H157 H 0.1228 -0.0189 0.0131
C144 C 0.0419(6) 0.0686(6) 0.0039(3)
H158 H 0.0062 0.0537 -0.0222
C145 C 0.0217(6) 0.1335(5) 0.0202(3)
H159 H -0.0266 0.1636 0.0058
C146 C 0.0743(6) 0.1518(5) 0.0579(3)
H160 H 0.0590 0.1949 0.0706
C147 C 0.1491(7) 0.1108(4) 0.0785(3)
H161 H 0.1865 0.1272 0.1038
C148 C 0.2835(5) 0.0137(3) 0.1300(2)
C149 C 0.2080(5) 0.0293(4) 0.1594(2)
H162 H 0.1401 0.0398 0.1482
C150 C 0.2267(6) 0.0303(4) 0.2030(3)
H163 H 0.1727 0.0412 0.2217
C151 C 0.3251(7) 0.0152(4) 0.2203(3)
H164 H 0.3385 0.0159 0.2510
C152 C 0.4038(6) -0.0006(4) 0.1931(2)
H165 H 0.4715 -0.0098 0.2051
C153 C 0.3841(6) -0.0033(4) 0.1472(2)
H166 H 0.4372 -0.0162 0.1285
C154 C 0.2413(6) -0.0754(4) 0.0720(3)
H167 H 0.2304 -0.0819 0.0398
C155 C 0.1470(7) -0.1045(5) 0.0947(3)
H168 H 0.1105 -0.1395 0.0763
H169 H 0.0977 -0.0675 0.1015
C156 C 0.1962(8) -0.1379(5) 0.1377(4)
H170 H 0.2004 -0.1040 0.1617
H171 H 0.1548 -0.1778 0.1468
C157 C 0.3029(8) -0.1603(4) 0.1258(3)
H172 H 0.3545 -0.1509 0.1499
H173 H 0.3040 -0.2100 0.1190
C158 C 0.4049(6) -0.1382(4) 0.0636(3)
H174 H 0.4080 -0.1173 0.0358
C159 C 0.4803(8) -0.1825(5) 0.0746(4)
H175 H 0.4788 -0.2061 0.1016
C160 C 0.5656(8) -0.1957(5) 0.0458(4)
C161 C 0.7386(13) -0.2451(10) 0.0446(6)
H176 H 0.7501 -0.2115 0.0211
H177 H 0.7955 -0.2420 0.0673
C162 C 0.725(2) -0.3143(15) 0.0281(8)
H178 H 0.7878 -0.3293 0.0144
H179 H 0.6663 -0.3153 0.0066
H180 H 0.7103 -0.3454 0.0522
loop_
_geom_bond_atom_site_label_1
_geom_bond_atom_site_label_2
_geom_bond_site_symmetry_1
_geom_bond_site_symmetry_2
O1 C2 1_555 1_555
O2 C3 1_555 1_555
O3 C25 1_555 1_555
O4 C25 1_555 1_555
N1 N2 1_555 1_555
N2 N3 1_555 1_555
N3 C5 1_555 1_555
N4 C19 1_555 1_555
C1 H1 1_555 1_555
H2 C1 1_555 1_555
H3 C1 1_555 1_555
C2 C1 1_555 1_555
H4 C2 1_555 1_555
H5 C2 1_555 1_555
C3 O1 1_555 1_555
C4 N1 1_555 1_555
C5 C4 1_555 1_555
H6 C5 1_555 1_555
C6 N3 1_555 1_555
C7 C6 1_555 1_555
C8 C7 1_555 1_555
H7 C8 1_555 1_555
C9 C8 1_555 1_555
H8 C9 1_555 1_555
C10 C9 1_555 1_555
H9 C10 1_555 1_555
C11 C10 1_555 1_555
H10 C11 1_555 1_555
C12 C7 1_555 1_555
H11 C12 1_555 1_555
C13 C6 1_555 1_555
C14 C13 1_555 1_555
H12 C14 1_555 1_555
C15 C14 1_555 1_555
H13 C15 1_555 1_555
C16 C15 1_555 1_555
H14 C16 1_555 1_555
C17 C16 1_555 1_555
H15 C17 1_555 1_555
C18 C13 1_555 1_555
H16 C18 1_555 1_555
C19 C6 1_555 1_555
H17 C19 1_555 1_555
C20 C19 1_555 1_555
H18 C20 1_555 1_555
H19 C20 1_555 1_555
C21 C20 1_555 1_555
H20 C21 1_555 1_555
H21 C21 1_555 1_555
C22 N4 1_555 1_555
H22 C22 1_555 1_555
H23 C22 1_555 1_555
C23 N4 1_555 1_555
H24 C23 1_555 1_555
C24 C23 1_555 1_555
H25 C24 1_555 1_555
C25 C24 1_555 1_555
C26 O4 1_555 1_555
H26 C26 1_555 1_555
H27 C26 1_555 1_555
C27 C26 1_555 1_555
H28 C27 1_555 1_555
H29 C27 1_555 1_555
H30 C27 1_555 1_555
O5 C29 1_555 1_555
O6 C30 1_555 1_555
O7 C52 1_555 1_555
O8 C52 1_555 1_555
N5 N6 1_555 1_555
N6 N7 1_555 1_555
N7 C32 1_555 1_555
N8 C46 1_555 1_555
C28 H31 1_555 1_555
H32 C28 1_555 1_555
H33 C28 1_555 1_555
C29 C28 1_555 1_555
H34 C29 1_555 1_555
H35 C29 1_555 1_555
C30 O5 1_555 1_555
C31 N5 1_555 1_555
C32 C31 1_555 1_555
H36 C32 1_555 1_555
C33 N7 1_555 1_555
C34 C33 1_555 1_555
C35 C34 1_555 1_555
H37 C35 1_555 1_555
C36 C35 1_555 1_555
H38 C36 1_555 1_555
C37 C36 1_555 1_555
H39 C37 1_555 1_555
C38 C37 1_555 1_555
H40 C38 1_555 1_555
C39 C34 1_555 1_555
H41 C39 1_555 1_555
C40 C33 1_555 1_555
C41 C40 1_555 1_555
H42 C41 1_555 1_555
C42 C41 1_555 1_555
H43 C42 1_555 1_555
C43 C42 1_555 1_555
H44 C43 1_555 1_555
C44 C43 1_555 1_555
H45 C44 1_555 1_555
C45 C40 1_555 1_555
H46 C45 1_555 1_555
C46 C33 1_555 1_555
H47 C46 1_555 1_555
C47 C46 1_555 1_555
H48 C47 1_555 1_555
H49 C47 1_555 1_555
C48 C47 1_555 1_555
H50 C48 1_555 1_555
H51 C48 1_555 1_555
C49 N8 1_555 1_555
H52 C49 1_555 1_555
H53 C49 1_555 1_555
C50 N8 1_555 1_555
H54 C50 1_555 1_555
C51 C50 1_555 1_555
H55 C51 1_555 1_555
C52 C51 1_555 1_555
C53 O8 1_555 1_555
H56 C53 1_555 1_555
H57 C53 1_555 1_555
C54 C53 1_555 1_555
H58 C54 1_555 1_555
H59 C54 1_555 1_555
H60 C54 1_555 1_555
O9 C56 1_555 1_555
O10 C57 1_555 1_555
O11 C79 1_555 1_555
O12 C79 1_555 1_555
N9 N10 1_555 1_555
N10 N11 1_555 1_555
N11 C59 1_555 1_555
N12 C73 1_555 1_555
C55 H61 1_555 1_555
H62 C55 1_555 1_555
H63 C55 1_555 1_555
C56 C55 1_555 1_555
H64 C56 1_555 1_555
H65 C56 1_555 1_555
C57 O9 1_555 1_555
C58 N9 1_555 1_555
C59 C58 1_555 1_555
H66 C59 1_555 1_555
C60 N11 1_555 1_555
C61 C60 1_555 1_555
C62 C61 1_555 1_555
H67 C62 1_555 1_555
C63 C62 1_555 1_555
H68 C63 1_555 1_555
C64 C63 1_555 1_555
H69 C64 1_555 1_555
C65 C64 1_555 1_555
H70 C65 1_555 1_555
C66 C61 1_555 1_555
H71 C66 1_555 1_555
C67 C60 1_555 1_555
C68 C67 1_555 1_555
H72 C68 1_555 1_555
C69 C68 1_555 1_555
H73 C69 1_555 1_555
C70 C69 1_555 1_555
H74 C70 1_555 1_555
C71 C70 1_555 1_555
H75 C71 1_555 1_555
C72 C67 1_555 1_555
H76 C72 1_555 1_555
C73 C60 1_555 1_555
H77 C73 1_555 1_555
C74 C73 1_555 1_555
H78 C74 1_555 1_555
H79 C74 1_555 1_555
C75 C74 1_555 1_555
H80 C75 1_555 1_555
H81 C75 1_555 1_555
C76 N12 1_555 1_555
H82 C76 1_555 1_555
H83 C76 1_555 1_555
C77 N12 1_555 1_555
H84 C77 1_555 1_555
C78 C77 1_555 1_555
H85 C78 1_555 1_555
C79 C78 1_555 1_555
C80 O12 1_555 1_555
H86 C80 1_555 1_555
H87 C80 1_555 1_555
C81 C80 1_555 1_555
H88 C81 1_555 1_555
H89 C81 1_555 1_555
H90 C81 1_555 1_555
O13 C83 1_555 1_555
O14 C84 1_555 1_555
O15 C106 1_555 1_555
O16 C106 1_555 1_555
N13 N14 1_555 1_555
N14 N15 1_555 1_555
N15 C86 1_555 1_555
N16 C100 1_555 1_555
C82 H91 1_555 1_555
H92 C82 1_555 1_555
H93 C82 1_555 1_555
C83 C82 1_555 1_555
H94 C83 1_555 1_555
H95 C83 1_555 1_555
C84 O13 1_555 1_555
C85 N13 1_555 1_555
C86 C85 1_555 1_555
H96 C86 1_555 1_555
C87 N15 1_555 1_555
C88 C87 1_555 1_555
C89 C88 1_555 1_555
H97 C89 1_555 1_555
C90 C89 1_555 1_555
H98 C90 1_555 1_555
C91 C90 1_555 1_555
H99 C91 1_555 1_555
C92 C91 1_555 1_555
H100 C92 1_555 1_555
C93 C88 1_555 1_555
H101 C93 1_555 1_555
C94 C87 1_555 1_555
C95 C94 1_555 1_555
H102 C95 1_555 1_555
C96 C95 1_555 1_555
H103 C96 1_555 1_555
C97 C96 1_555 1_555
H104 C97 1_555 1_555
C98 C97 1_555 1_555
H105 C98 1_555 1_555
C99 C94 1_555 1_555
H106 C99 1_555 1_555
C100 C87 1_555 1_555
H107 C100 1_555 1_555
C101 C100 1_555 1_555
H108 C101 1_555 1_555
H109 C101 1_555 1_555
C102 C101 1_555 1_555
H110 C102 1_555 1_555
H111 C102 1_555 1_555
C103 N16 1_555 1_555
H112 C103 1_555 1_555
H113 C103 1_555 1_555
C104 N16 1_555 1_555
H114 C104 1_555 1_555
C105 C104 1_555 1_555
H115 C105 1_555 1_555
C106 C105 1_555 1_555
C107 O16 1_555 1_555
H116 C107 1_555 1_555
H117 C107 1_555 1_555
C108 C107 1_555 1_555
H118 C108 1_555 1_555
H119 C108 1_555 1_555
H120 C108 1_555 1_555
O17 C110 1_555 1_555
O18 C111 1_555 1_555
O19 C133 1_555 1_555
O20 C133 1_555 1_555
N17 N18 1_555 1_555
N18 N19 1_555 1_555
N19 C113 1_555 1_555
N20 C127 1_555 1_555
C109 H121 1_555 1_555
H122 C109 1_555 1_555
H123 C109 1_555 1_555
C110 C109 1_555 1_555
H124 C110 1_555 1_555
H125 C110 1_555 1_555
C111 O17 1_555 1_555
C112 N17 1_555 1_555
C113 C112 1_555 1_555
H126 C113 1_555 1_555
C114 N19 1_555 1_555
C115 C114 1_555 1_555
C116 C115 1_555 1_555
H127 C116 1_555 1_555
C117 C116 1_555 1_555
H128 C117 1_555 1_555
C118 C117 1_555 1_555
H129 C118 1_555 1_555
C119 C118 1_555 1_555
H130 C119 1_555 1_555
C120 C115 1_555 1_555
H131 C120 1_555 1_555
C121 C114 1_555 1_555
C122 C121 1_555 1_555
H132 C122 1_555 1_555
C123 C122 1_555 1_555
H133 C123 1_555 1_555
C124 C123 1_555 1_555
H134 C124 1_555 1_555
C125 C124 1_555 1_555
H135 C125 1_555 1_555
C126 C121 1_555 1_555
H136 C126 1_555 1_555
C127 C114 1_555 1_555
H137 C127 1_555 1_555
C128 C127 1_555 1_555
H138 C128 1_555 1_555
H139 C128 1_555 1_555
C129 C128 1_555 1_555
H140 C129 1_555 1_555
H141 C129 1_555 1_555
C130 N20 1_555 1_555
H142 C130 1_555 1_555
H143 C130 1_555 1_555
C131 N20 1_555 1_555
H144 C131 1_555 1_555
C132 C131 1_555 1_555
H145 C132 1_555 1_555
C133 C132 1_555 1_555
C134 O20 1_555 1_555
H146 C134 1_555 1_555
H147 C134 1_555 1_555
C135 C134 1_555 1_555
H148 C135 1_555 1_555
H149 C135 1_555 1_555
H150 C135 1_555 1_555
O21 C137 1_555 1_555
O22 C138 1_555 1_555
O23 C160 1_555 1_555
O24 C160 1_555 1_555
N21 N22 1_555 1_555
N22 N23 1_555 1_555
N23 C140 1_555 1_555
N24 C154 1_555 1_555
C136 H151 1_555 1_555
H152 C136 1_555 1_555
H153 C136 1_555 1_555
C137 C136 1_555 1_555
H154 C137 1_555 1_555
H155 C137 1_555 1_555
C138 O21 1_555 1_555
C139 N21 1_555 1_555
C140 C139 1_555 1_555
H156 C140 1_555 1_555
C141 N23 1_555 1_555
C142 C141 1_555 1_555
C143 C142 1_555 1_555
H157 C143 1_555 1_555
C144 C143 1_555 1_555
H158 C144 1_555 1_555
C145 C144 1_555 1_555
H159 C145 1_555 1_555
C146 C145 1_555 1_555
H160 C146 1_555 1_555
C147 C142 1_555 1_555
H161 C147 1_555 1_555
C148 C141 1_555 1_555
C149 C148 1_555 1_555
H162 C149 1_555 1_555
C150 C149 1_555 1_555
H163 C150 1_555 1_555
C151 C150 1_555 1_555
H164 C151 1_555 1_555
C152 C151 1_555 1_555
H165 C152 1_555 1_555
C153 C148 1_555 1_555
H166 C153 1_555 1_555
C154 C141 1_555 1_555
H167 C154 1_555 1_555
C155 C154 1_555 1_555
H168 C155 1_555 1_555
H169 C155 1_555 1_555
C156 C155 1_555 1_555
H170 C156 1_555 1_555
H171 C156 1_555 1_555
C157 N24 1_555 1_555
H172 C157 1_555 1_555
H173 C157 1_555 1_555
C158 N24 1_555 1_555
H174 C158 1_555 1_555
C159 C158 1_555 1_555
H175 C159 1_555 1_555
C160 C159 1_555 1_555
C161 O24 1_555 1_555
H176 C161 1_555 1_555
H177 C161 1_555 1_555
C162 C161 1_555 1_555
H178 C162 1_555 1_555
H179 C162 1_555 1_555
H180 C162 1_555 1_555
C3 C4 1_555 1_555
C11 C12 1_555 1_555
C17 C18 1_555 1_555
C21 C22 1_555 1_555
C30 C31 1_555 1_555
C38 C39 1_555 1_555
C44 C45 1_555 1_555
C48 C49 1_555 1_555
C57 C58 1_555 1_555
C65 C66 1_555 1_555
C71 C72 1_555 1_555
C75 C76 1_555 1_555
C84 C85 1_555 1_555
C92 C93 1_555 1_555
C98 C99 1_555 1_555
C102 C103 1_555 1_555
C111 C112 1_555 1_555
C119 C120 1_555 1_555
C125 C126 1_555 1_555
C129 C130 1_555 1_555
C138 C139 1_555 1_555
C146 C147 1_555 1_555
C152 C153 1_555 1_555
C156 C157 1_555 1_555

#END
