
#######################################################################
#
#                 Cambridge Crystallographic Data Centre
#                                CCDC 
#
#######################################################################
#
# If this CIF has been generated from an entry in the Cambridge 
# Structural Database, then it will include bibliographic, chemical, 
# crystal, experimental, refinement or atomic coordinate data resulting 
# from the CCDC's data processing and validation procedures.
#
#######################################################################

data_GUMFIF
_chemical_name_common            4-(2-(4-Bromophenyl)-2-phenylvinyl)biphenyl
_chemical_formula_moiety         'C26 H19 Br1'
_chemical_name_systematic        
(E)-2-(4-biphenyl)-1-(4-bromophenyl)-1-phenylethene
_symmetry_cell_setting           triclinic
_symmetry_space_group_name_H-M   'P -1'
_symmetry_Int_Tables_number      2
_space_group_name_Hall           '-P 1'
loop_
_symmetry_equiv_pos_site_id
_symmetry_equiv_pos_as_xyz
1 x,y,z
2 -x,-y,-z
_cell_length_a                   9.3706(2)
_cell_length_b                   9.9786(2)
_cell_length_c                   11.8272(2)
_cell_angle_alpha                87.880(10)
_cell_angle_beta                 76.237(10)
_cell_angle_gamma                63.888(10)
_cell_volume                     961.61
_exptl_crystal_colour            colorless
_exptl_crystal_description       Block
_cell_formula_units_Z            2
_exptl_crystal_recrystallization_method 'ethyl acetate'
loop_
_atom_site_label
_atom_site_type_symbol
_atom_site_fract_x
_atom_site_fract_y
_atom_site_fract_z
Br1 Br 0.74057(3) 0.22455(3) 0.08184(2)
C1 C 0.7882(3) 0.2409(2) -0.08184(18)
C2 C 0.6624(3) 0.2918(3) -0.13728(19)
H1 H 0.5546 0.3222 -0.0947
C3 C 0.6984(3) 0.2971(2) -0.25683(18)
H2 H 0.6135 0.3293 -0.2943
C4 C 0.8577(3) 0.2557(2) -0.32342(18)
C5 C 0.9808(3) 0.2069(3) -0.26343(19)
H3 H 1.0886 0.1785 -0.305
C6 C 0.9469(3) 0.1996(3) -0.1438(2)
H4 H 1.031 0.167 -0.1055
C7 C 0.7759(3) 0.2371(2) -0.50809(17)
C8 C 0.7538(3) 0.1096(3) -0.49436(19)
H5 H 0.8127 0.0363 -0.4503
C9 C 0.6457(3) 0.0882(3) -0.5449(2)
H6 H 0.6336 0.0005 -0.5358
C10 C 0.5562(3) 0.1975(3) -0.6087(2)
H7 H 0.4836 0.1838 -0.643
C11 C 0.5744(3) 0.3259(3) -0.62143(19)
H8 H 0.5127 0.4004 -0.6635
C12 C 0.6839(3) 0.3460(3) -0.57231(18)
H9 H 0.6963 0.4335 -0.5824
C13 C 0.8924(3) 0.2594(2) -0.45228(18)
C14 C 1.0177(3) 0.2839(2) -0.51391(19)
H10 H 1.0736 0.3091 -0.4698
C15 C 1.0790(3) 0.2765(2) -0.64081(19)
C16 C 1.0759(3) 0.1762(2) -0.71866(19)
H11 H 1.032 0.1109 -0.6897
C17 C 1.1365(3) 0.1722(2) -0.83700(19)
H12 H 1.1345 0.103 -0.8864
C18 C 1.2009(3) 0.2699(2) -0.88465(18)
C19 C 1.2073(3) 0.3675(2) -0.80728(19)
H13 H 1.2507 0.4332 -0.8363
C20 C 1.1506(3) 0.3688(2) -0.68848(19)
H14 H 1.1603 0.4328 -0.6389
C21 C 1.2536(3) 0.2722(3) -1.01273(19)
C22 C 1.2071(3) 0.4079(3) -1.06427(19)
H15 H 1.1494 0.4971 -1.0171
C23 C 1.2449(3) 0.4126(3) -1.1838(2)
H16 H 1.2098 0.5043 -1.2166
C24 C 1.3343(3) 0.2821(3) -1.2547(2)
H17 H 1.3601 0.2852 -1.3354
C25 C 1.3856(3) 0.1466(3) -1.2058(2)
H18 H 1.4483 0.0582 -1.2536
C26 C 1.3443(3) 0.1413(3) -1.0855(2)
H19 H 1.3776 0.0491 -1.0534
loop_
_geom_bond_atom_site_label_1
_geom_bond_atom_site_label_2
_geom_bond_site_symmetry_1
_geom_bond_site_symmetry_2
Br1 C1 1_555 1_555
C1 C2 1_555 1_555
C2 H1 1_555 1_555
C3 C2 1_555 1_555
H2 C3 1_555 1_555
C4 C3 1_555 1_555
C5 C4 1_555 1_555
H3 C5 1_555 1_555
C6 C1 1_555 1_555
H4 C6 1_555 1_555
C7 C8 1_555 1_555
C8 H5 1_555 1_555
C9 C8 1_555 1_555
H6 C9 1_555 1_555
C10 C9 1_555 1_555
H7 C10 1_555 1_555
C11 C10 1_555 1_555
H8 C11 1_555 1_555
C12 C7 1_555 1_555
H9 C12 1_555 1_555
C13 C4 1_555 1_555
C14 C13 1_555 1_555
H10 C14 1_555 1_555
C15 C14 1_555 1_555
C16 C15 1_555 1_555
H11 C16 1_555 1_555
C17 C16 1_555 1_555
H12 C17 1_555 1_555
C18 C17 1_555 1_555
C19 C18 1_555 1_555
H13 C19 1_555 1_555
C20 C15 1_555 1_555
H14 C20 1_555 1_555
C21 C18 1_555 1_555
C22 C21 1_555 1_555
H15 C22 1_555 1_555
C23 C22 1_555 1_555
H16 C23 1_555 1_555
C24 C23 1_555 1_555
H17 C24 1_555 1_555
C25 C24 1_555 1_555
H18 C25 1_555 1_555
C26 C21 1_555 1_555
H19 C26 1_555 1_555
C5 C6 1_555 1_555
C7 C13 1_555 1_555
C11 C12 1_555 1_555
C19 C20 1_555 1_555
C25 C26 1_555 1_555

#END
