
#######################################################################
#
#                 Cambridge Crystallographic Data Centre
#                                CCDC 
#
#######################################################################
#
# If this CIF has been generated from an entry in the Cambridge 
# Structural Database, then it will include bibliographic, chemical, 
# crystal, experimental, refinement or atomic coordinate data resulting 
# from the CCDC's data processing and validation procedures.
#
#######################################################################

data_GUMHED
_chemical_name_common            
'(S)-2-(phenyl(tritylthio)methyl)phenyl trifluoromethanesulfonate'
_chemical_formula_moiety         'C33 H25 F3 O3 S2'
_chemical_name_systematic        
'2-(phenyl(tritylsulfanyl)methyl)phenyl trifluoromethanesulfonate'
_symmetry_cell_setting           monoclinic
_symmetry_space_group_name_H-M   'P 21'
_symmetry_Int_Tables_number      4
_space_group_name_Hall           'P 2yb'
loop_
_symmetry_equiv_pos_site_id
_symmetry_equiv_pos_as_xyz
1 x,y,z
2 -x,1/2+y,-z
_cell_length_a                   9.5544(10)
_cell_length_b                   32.384(4)
_cell_length_c                   9.5705(11)
_cell_angle_alpha                90
_cell_angle_beta                 102.759(2)
_cell_angle_gamma                90
_cell_volume                     2888.09
_exptl_crystal_colour            colorless
_exptl_crystal_description       prismatic
_cell_formula_units_Z            4
_chemical_properties_physical    'Heat-sensitive, Photo-sensitive'
_exptl_crystal_recrystallization_method 
'Re-crystallisation from solvent: hexanes'
loop_
_atom_site_label
_atom_site_type_symbol
_atom_site_fract_x
_atom_site_fract_y
_atom_site_fract_z
S1 S 0.94036(12) 0.28950(4) 0.27306(13)
S2 S 1.04280(18) 0.44197(4) 0.41630(18)
O1 O 1.0971(4) 0.39655(10) 0.4078(4)
O2 O 1.0164(6) 0.45085(15) 0.5499(5)
O3 O 0.9425(5) 0.45041(16) 0.2881(6)
F1 F 1.3154(5) 0.45756(14) 0.5016(6)
F2 F 1.1883(7) 0.50843(13) 0.4158(8)
F3 F 1.2361(8) 0.4621(2) 0.2799(7)
C1 C 1.1029(5) 0.36863(16) 0.5250(5)
C2 C 1.2121(6) 0.37304(19) 0.6438(6)
H1 H 1.2784 0.3944 0.6507
C3 C 1.2201(6) 0.34449(19) 0.7537(6)
H2 H 1.2920 0.3468 0.8364
C4 C 1.1237(6) 0.31325(18) 0.7408(6)
H3 H 1.1296 0.2943 0.8150
C5 C 1.0167(6) 0.30925(17) 0.6184(6)
H4 H 0.9517 0.2876 0.6111
C6 C 1.0043(5) 0.33722(15) 0.5050(5)
C7 C 0.8838(5) 0.33248(15) 0.3732(5)
H5 H 0.8796 0.3576 0.3153
C8 C 0.7410(5) 0.32753(17) 0.4166(5)
C9 C 0.6728(7) 0.3630(2) 0.4455(8)
H6 H 0.7109 0.3889 0.4339
C10 C 0.5430(10) 0.3590(3) 0.4934(11)
H7 H 0.4947 0.3825 0.5130
C11 C 0.4887(9) 0.3207(3) 0.5109(10)
H8 H 0.4056 0.3183 0.5457
C12 C 0.5544(7) 0.2866(3) 0.4782(8)
H9 H 0.5142 0.2608 0.4864
C13 C 0.6805(6) 0.2896(2) 0.4327(6)
H10 H 0.7260 0.2656 0.4124
C14 C 0.8469(5) 0.29855(13) 0.0837(5)
C15 C 0.8971(5) 0.33878(15) 0.0217(5)
C16 C 1.0281(6) 0.35726(16) 0.0831(6)
H11 H 1.0849 0.3462 0.1663
C17 C 1.0741(7) 0.39183(18) 0.0213(7)
H12 H 1.1623 0.4036 0.0628
C18 C 0.9920(9) 0.40896(19) -0.0996(8)
H13 H 1.0225 0.4328 -0.1380
C19 C 0.8630(8) 0.39062(19) -0.1649(8)
H14 H 0.8083 0.4013 -0.2497
C20 C 0.8160(7) 0.35577(17) -0.1019(6)
H15 H 0.7283 0.3439 -0.1442
C21 C 0.8936(5) 0.26299(14) -0.0039(5)
C22 C 1.0193(5) 0.24083(16) 0.0415(6)
H16 H 1.0772 0.2462 0.1313
C23 C 1.0603(6) 0.21089(19) -0.0443(7)
H17 H 1.1441 0.1960 -0.0104
C24 C 0.9781(7) 0.20271(17) -0.1804(7)
H18 H 1.0070 0.1829 -0.2385
C25 C 0.8533(7) 0.22449(16) -0.2271(6)
H19 H 0.7967 0.2195 -0.3178
C26 C 0.8112(6) 0.25424(16) -0.1387(6)
H20 H 0.7257 0.2685 -0.1713
C27 C 0.6856(5) 0.29741(15) 0.0805(5)
C28 C 0.6163(6) 0.26015(17) 0.0823(6)
H21 H 0.6662 0.2358 0.0765
C29 C 0.4739(6) 0.2581(2) 0.0926(7)
H22 H 0.4289 0.2327 0.0941
C30 C 0.4017(6) 0.2936(2) 0.1003(7)
H23 H 0.3056 0.2925 0.1052
C31 C 0.4676(6) 0.3310(2) 0.1010(7)
H24 H 0.4169 0.3551 0.1091
C32 C 0.6085(5) 0.33336(16) 0.0897(6)
H25 H 0.6521 0.3590 0.0883
C33 C 1.2064(9) 0.4692(2) 0.4019(9)
S3 S 0.36346(12) 0.13937(4) 0.20534(13)
O4 O 0.5477(4) 0.02890(11) 0.0053(4)
C34 C 0.2742(6) 0.11362(18) -0.1399(6)
H26 H 0.3353 0.1359 -0.1414
C35 C 0.1643(7) 0.1057(2) -0.2559(7)
H27 H 0.1513 0.1229 -0.3354
C36 C 0.0738(7) 0.0730(3) -0.2569(8)
H28 H 0.0004 0.0679 -0.3366
C37 C 0.0922(7) 0.0482(2) -0.1411(8)
H29 H 0.0311 0.0258 -0.1419
C38 C 0.2003(6) 0.05545(17) -0.0210(6)
H30 H 0.2103 0.0384 0.0588
C39 C 0.2933(5) 0.08829(15) -0.0206(6)
C40 C 0.4160(5) 0.09568(14) 0.1069(5)
H31 H 0.4254 0.0713 0.1688
C41 C 0.5566(5) 0.10149(15) 0.0593(5)
C42 C 0.6233(6) 0.13898(18) 0.0530(6)
H32 H 0.5839 0.1626 0.0841
C43 C 0.7482(6) 0.1424(2) 0.0012(7)
H33 H 0.7909 0.1681 -0.0027
C44 C 0.8073(8) 0.1080(2) -0.0437(8)
H34 H 0.8916 0.1102 -0.0765
C45 C 0.7440(7) 0.0701(2) -0.0413(7)
H35 H 0.7832 0.0466 -0.0733
C46 C 0.6206(6) 0.06796(17) 0.0101(6)
C47 C 0.6151(5) 0.12945(15) 0.3992(5)
C48 C 0.6869(5) 0.16710(17) 0.4007(6)
H36 H 0.6374 0.1916 0.4064
C49 C 0.8283(6) 0.1688(2) 0.3940(7)
H37 H 0.8739 0.1942 0.3958
C50 C 0.9040(6) 0.1327(2) 0.3845(7)
H38 H 1.0003 0.1338 0.3807
C51 C 0.8362(6) 0.0959(2) 0.3809(7)
H39 H 0.8859 0.0717 0.3720
C52 C 0.6919(5) 0.09387(17) 0.3904(6)
H40 H 0.6476 0.0683 0.3907
C53 C 0.4092(5) 0.16318(14) 0.4860(5)
C54 C 0.2849(6) 0.18577(17) 0.4413(6)
H41 H 0.2281 0.1817 0.3502
C55 C 0.2445(6) 0.21474(19) 0.5327(7)
H42 H 0.1586 0.2290 0.5032
C56 C 0.3277(7) 0.22228(18) 0.6627(7)
H43 H 0.3016 0.2425 0.7212
C57 C 0.4515(7) 0.19999(17) 0.7089(6)
H44 H 0.5083 0.2046 0.7998
C58 C 0.4914(6) 0.17094(17) 0.6208(6)
H45 H 0.5758 0.1562 0.6529
C59 C 0.4019(5) 0.08769(15) 0.4467(5)
C60 C 0.2721(6) 0.06957(17) 0.3822(6)
H46 H 0.2152 0.0817 0.3012
C61 C 0.2254(7) 0.03335(19) 0.4370(8)
H47 H 0.1388 0.0214 0.3914
C62 C 0.3075(8) 0.0152(2) 0.5586(8)
H48 H 0.2772 -0.0089 0.5953
C63 C 0.4336(8) 0.0334(2) 0.6237(7)
H49 H 0.4896 0.0214 0.7055
C64 C 0.4794(6) 0.06906(17) 0.5712(6)
H50 H 0.5646 0.0812 0.6199
C65 C 0.4538(5) 0.12832(15) 0.3949(5)
S4 S 0.6268(7) -0.0103(2) 0.0818(8)
F4 F 0.366(3) -0.0388(7) -0.022(2)
F5 F 0.5044(19) -0.0758(6) 0.1705(19)
F6 F 0.4093(14) -0.0187(4) 0.1979(17)
O5 O 0.709(2) -0.0011(4) 0.2178(14)
O6 O 0.6814(19) -0.0330(4) -0.0180(18)
C66 C 0.4659(17) -0.0385(4) 0.111(2)
S5? S 0.5982(15) -0.0047(4) 0.1159(17)
F7? F 0.373(4) -0.0399(14) 0.030(4)
F8? F 0.524(2) -0.0777(5) 0.0988(16)
F9? F 0.525(3) -0.0515(5) -0.1030(17)
O7? O 0.7422(18) -0.0152(6) 0.131(3)
O8? O 0.539(4) 0.0004(5) 0.2393(16)
C67? C 0.492(3) -0.0455(6) 0.015(3)
loop_
_geom_bond_atom_site_label_1
_geom_bond_atom_site_label_2
_geom_bond_site_symmetry_1
_geom_bond_site_symmetry_2
S1 C7 1_555 1_555
S2 O1 1_555 1_555
O1 C1 1_555 1_555
O2 S2 1_555 1_555
O3 S2 1_555 1_555
F1 C33 1_555 1_555
F2 C33 1_555 1_555
F3 C33 1_555 1_555
C1 C2 1_555 1_555
C2 H1 1_555 1_555
C3 C2 1_555 1_555
H2 C3 1_555 1_555
C4 C3 1_555 1_555
H3 C4 1_555 1_555
C5 C4 1_555 1_555
H4 C5 1_555 1_555
C6 C1 1_555 1_555
C7 C6 1_555 1_555
H5 C7 1_555 1_555
C8 C7 1_555 1_555
C9 C8 1_555 1_555
H6 C9 1_555 1_555
C10 C9 1_555 1_555
H7 C10 1_555 1_555
C11 C10 1_555 1_555
H8 C11 1_555 1_555
C12 C11 1_555 1_555
H9 C12 1_555 1_555
C13 C8 1_555 1_555
H10 C13 1_555 1_555
C14 S1 1_555 1_555
C15 C14 1_555 1_555
C16 C15 1_555 1_555
H11 C16 1_555 1_555
C17 C16 1_555 1_555
H12 C17 1_555 1_555
C18 C17 1_555 1_555
H13 C18 1_555 1_555
C19 C18 1_555 1_555
H14 C19 1_555 1_555
C20 C15 1_555 1_555
H15 C20 1_555 1_555
C21 C14 1_555 1_555
C22 C21 1_555 1_555
H16 C22 1_555 1_555
C23 C22 1_555 1_555
H17 C23 1_555 1_555
C24 C23 1_555 1_555
H18 C24 1_555 1_555
C25 C24 1_555 1_555
H19 C25 1_555 1_555
C26 C21 1_555 1_555
H20 C26 1_555 1_555
C27 C14 1_555 1_555
C28 C27 1_555 1_555
H21 C28 1_555 1_555
C29 C28 1_555 1_555
H22 C29 1_555 1_555
C30 C29 1_555 1_555
H23 C30 1_555 1_555
C31 C30 1_555 1_555
H24 C31 1_555 1_555
C32 C27 1_555 1_555
H25 C32 1_555 1_555
C33 S2 1_555 1_555
S3 C40 1_555 1_555
O4 C46 1_555 1_555
C34 H26 1_555 1_555
C35 C34 1_555 1_555
H27 C35 1_555 1_555
C36 C35 1_555 1_555
H28 C36 1_555 1_555
C37 C36 1_555 1_555
H29 C37 1_555 1_555
C38 C37 1_555 1_555
H30 C38 1_555 1_555
C39 C34 1_555 1_555
C40 C39 1_555 1_555
H31 C40 1_555 1_555
C41 C40 1_555 1_555
C42 C41 1_555 1_555
H32 C42 1_555 1_555
C43 C42 1_555 1_555
H33 C43 1_555 1_555
C44 C43 1_555 1_555
H34 C44 1_555 1_555
C45 C44 1_555 1_555
H35 C45 1_555 1_555
C46 C41 1_555 1_555
C47 C48 1_555 1_555
C48 H36 1_555 1_555
C49 C48 1_555 1_555
H37 C49 1_555 1_555
C50 C49 1_555 1_555
H38 C50 1_555 1_555
C51 C50 1_555 1_555
H39 C51 1_555 1_555
C52 C47 1_555 1_555
H40 C52 1_555 1_555
C53 C54 1_555 1_555
C54 H41 1_555 1_555
C55 C54 1_555 1_555
H42 C55 1_555 1_555
C56 C55 1_555 1_555
H43 C56 1_555 1_555
C57 C56 1_555 1_555
H44 C57 1_555 1_555
C58 C53 1_555 1_555
H45 C58 1_555 1_555
C59 C60 1_555 1_555
C60 H46 1_555 1_555
C61 C60 1_555 1_555
H47 C61 1_555 1_555
C62 C61 1_555 1_555
H48 C62 1_555 1_555
C63 C62 1_555 1_555
H49 C63 1_555 1_555
C64 C59 1_555 1_555
H50 C64 1_555 1_555
C65 S3 1_555 1_555
S4 O4 1_555 1_555
F4 C66 1_555 1_555
F5 C66 1_555 1_555
F6 C66 1_555 1_555
O5 S4 1_555 1_555
O6 S4 1_555 1_555
C66 S4 1_555 1_555
C5 C6 1_555 1_555
C12 C13 1_555 1_555
C19 C20 1_555 1_555
C25 C26 1_555 1_555
C31 C32 1_555 1_555
C38 C39 1_555 1_555
C45 C46 1_555 1_555
C47 C65 1_555 1_555
C51 C52 1_555 1_555
C53 C65 1_555 1_555
C57 C58 1_555 1_555
C59 C65 1_555 1_555
C63 C64 1_555 1_555

#END
