
#######################################################################
#
#                 Cambridge Crystallographic Data Centre
#                                CCDC 
#
#######################################################################
#
# If this CIF has been generated from an entry in the Cambridge 
# Structural Database, then it will include bibliographic, chemical, 
# crystal, experimental, refinement or atomic coordinate data resulting 
# from the CCDC's data processing and validation procedures.
#
#######################################################################

data_GUMLUX
_chemical_formula_moiety         'C16 H15 Br1 Cl1 I1 O1'
_chemical_name_systematic        
4-bromo-1-chloro-2-(1-(4-ethoxyphenyl)-2-iodoethyl)benzene
_symmetry_cell_setting           orthorhombic
_symmetry_space_group_name_H-M   'P 21 21 21'
_symmetry_Int_Tables_number      19
_space_group_name_Hall           'P 2ac 2ab'
loop_
_symmetry_equiv_pos_site_id
_symmetry_equiv_pos_as_xyz
1 x,y,z
2 1/2-x,-y,1/2+z
3 -x,1/2+y,1/2-z
4 1/2+x,1/2-y,-z
_cell_length_a                   7.2487(14)
_cell_length_b                   7.2966(15)
_cell_length_c                   31.052(6)
_cell_angle_alpha                90
_cell_angle_beta                 90
_cell_angle_gamma                90
_cell_volume                     1642.37
_exptl_crystal_colour            colorless
_exptl_crystal_description       Prism
_cell_formula_units_Z            4
loop_
_atom_site_label
_atom_site_type_symbol
_atom_site_fract_x
_atom_site_fract_y
_atom_site_fract_z
I1 I 1.45664(3) 0.98845(4) 0.411489(7)
Br1 Br 0.83886(6) 1.12001(6) 0.512373(12)
Cl1 Cl 0.98887(16) 0.44148(13) 0.38729(3)
O1 O 0.6522(4) 0.8493(3) 0.21873(7)
C1 C 0.9727(5) 0.9497(5) 0.43623(10)
H1 H 1.0165 1.0693 0.4297
C2 C 0.8731(5) 0.9205(5) 0.47325(11)
C3 C 0.8037(5) 0.7509(6) 0.48330(12)
H2 H 0.7325 0.7341 0.5087
C4 C 0.8379(5) 0.6056(6) 0.45640(12)
H3 H 0.7909 0.4875 0.4631
C5 C 0.9412(5) 0.6321(5) 0.41947(11)
C6 C 1.0103(5) 0.8050(5) 0.40802(11)
C7 C 1.1149(5) 0.8307(5) 0.36639(10)
H4 H 1.1952 0.7206 0.3624
C8 C 1.2388(4) 0.9987(6) 0.36434(10)
H5 H 1.1635 1.1100 0.3692
H6 H 1.2937 1.0077 0.3352
C9 C 0.9822(5) 0.8386(5) 0.32790(10)
C10 C 0.8371(5) 0.9592(5) 0.32670(10)
H7 H 0.8153 1.0381 0.3505
C11 C 0.7220(4) 0.9670(5) 0.29103(10)
H8 H 0.6213 1.0504 0.2906
C12 C 0.7536(5) 0.8528(5) 0.25576(10)
C13 C 0.9008(5) 0.7302(5) 0.25710(11)
H9 H 0.9232 0.6514 0.2333
C14 C 1.0137(5) 0.7222(5) 0.29256(11)
H10 H 1.1134 0.6378 0.2932
C15 C 0.5085(5) 0.9844(6) 0.21449(11)
H11 H 0.5575 1.1083 0.2206
H12 H 0.4071 0.9584 0.2349
C16 C 0.4395(5) 0.9734(5) 0.16869(11)
H13 H 0.5412 0.9992 0.1488
H14 H 0.3411 1.0636 0.1644
H15 H 0.3913 0.8502 0.1631
loop_
_geom_bond_atom_site_label_1
_geom_bond_atom_site_label_2
_geom_bond_site_symmetry_1
_geom_bond_site_symmetry_2
I1 C8 1_555 1_555
Br1 C2 1_555 1_555
Cl1 C5 1_555 1_555
O1 C12 1_555 1_555
C1 H1 1_555 1_555
C2 C1 1_555 1_555
C3 C2 1_555 1_555
H2 C3 1_555 1_555
C4 C3 1_555 1_555
H3 C4 1_555 1_555
C5 C4 1_555 1_555
C6 C1 1_555 1_555
C7 C6 1_555 1_555
H4 C7 1_555 1_555
C8 C7 1_555 1_555
H5 C8 1_555 1_555
H6 C8 1_555 1_555
C9 C7 1_555 1_555
C10 C9 1_555 1_555
H7 C10 1_555 1_555
C11 C10 1_555 1_555
H8 C11 1_555 1_555
C12 C11 1_555 1_555
C13 C12 1_555 1_555
H9 C13 1_555 1_555
C14 C9 1_555 1_555
H10 C14 1_555 1_555
C15 O1 1_555 1_555
H11 C15 1_555 1_555
H12 C15 1_555 1_555
C16 C15 1_555 1_555
H13 C16 1_555 1_555
H14 C16 1_555 1_555
H15 C16 1_555 1_555
C5 C6 1_555 1_555
C13 C14 1_555 1_555

#END
