
#######################################################################
#
#                 Cambridge Crystallographic Data Centre
#                                CCDC 
#
#######################################################################
#
# If this CIF has been generated from an entry in the Cambridge 
# Structural Database, then it will include bibliographic, chemical, 
# crystal, experimental, refinement or atomic coordinate data resulting 
# from the CCDC's data processing and validation procedures.
#
#######################################################################

data_GUMMEI
_chemical_formula_moiety         'C16 H15 Br1 Cl1 I1 O1'
_chemical_name_systematic        
4-bromo-1-chloro-2-(1-(4-ethoxyphenyl)-2-iodoethyl)benzene
_symmetry_cell_setting           orthorhombic
_symmetry_space_group_name_H-M   'P 21 21 21'
_symmetry_Int_Tables_number      19
_space_group_name_Hall           'P 2ac 2ab'
loop_
_symmetry_equiv_pos_site_id
_symmetry_equiv_pos_as_xyz
1 x,y,z
2 1/2-x,-y,1/2+z
3 -x,1/2+y,1/2-z
4 1/2+x,1/2-y,-z
_cell_length_a                   7.2566(15)
_cell_length_b                   7.2854(15)
_cell_length_c                   31.140(6)
_cell_angle_alpha                90
_cell_angle_beta                 90
_cell_angle_gamma                90
_cell_volume                     1646.29
_exptl_crystal_colour            colorless
_exptl_crystal_description       Prism
_cell_formula_units_Z            4
loop_
_atom_site_label
_atom_site_type_symbol
_atom_site_fract_x
_atom_site_fract_y
_atom_site_fract_z
I1 I 0.26158(5) 1.20638(4) 0.33852(2)
Br1 Br 0.12971(8) 0.58881(8) 0.23763(2)
Cl1 Cl 0.80878(15) 0.7386(2) 0.36270(5)
O1 O 0.4006(4) 0.4029(5) 0.53124(11)
C1 C 0.2492(7) 0.9886(6) 0.38561(15)
H1 H 0.2395 1.0429 0.4147
H2 H 0.1374 0.9138 0.3805
C2 C 0.4193(6) 0.8646(6) 0.38365(16)
H3 H 0.5299 0.9449 0.3874
C3 C 0.4446(6) 0.7604(6) 0.34203(16)
C4 C 0.2988(6) 0.7233(6) 0.31387(15)
H4 H 0.1789 0.7679 0.3203
C5 C 0.3277(6) 0.6221(7) 0.27666(16)
C6 C 0.5007(7) 0.5529(7) 0.26638(18)
H5 H 0.5185 0.4833 0.2409
C7 C 0.6458(7) 0.5869(7) 0.29369(19)
H6 H 0.7647 0.5396 0.2874
C8 C 0.6179(6) 0.6909(7) 0.33067(16)
C9 C 0.4124(6) 0.7344(6) 0.42201(15)
C10 C 0.5276(6) 0.7647(7) 0.45753(16)
H7 H 0.6116 0.8647 0.4571
C11 C 0.5208(6) 0.6518(6) 0.49299(17)
H8 H 0.6001 0.6746 0.5167
C12 C 0.3981(6) 0.5041(6) 0.49440(15)
C13 C 0.2828(6) 0.4718(6) 0.45901(16)
H9 H 0.1993 0.3713 0.4594
C14 C 0.2908(6) 0.5865(6) 0.42350(14)
H10 H 0.2118 0.5638 0.3998
C15 C 0.2664(7) 0.2585(6) 0.53536(16)
H11 H 0.2941 0.1580 0.5150
H12 H 0.1415 0.3061 0.5291
C16 C 0.2763(7) 0.1889(7) 0.58104(18)
H13 H 0.3992 0.1385 0.5865
H14 H 0.1836 0.0928 0.5853
H15 H 0.2525 0.2904 0.6009
loop_
_geom_bond_atom_site_label_1
_geom_bond_atom_site_label_2
_geom_bond_site_symmetry_1
_geom_bond_site_symmetry_2
I1 C1 1_555 1_555
Br1 C5 1_555 1_555
Cl1 C8 1_555 1_555
O1 C12 1_555 1_555
C1 H1 1_555 1_555
H2 C1 1_555 1_555
C2 C1 1_555 1_555
H3 C2 1_555 1_555
C3 C2 1_555 1_555
C4 C3 1_555 1_555
H4 C4 1_555 1_555
C5 C4 1_555 1_555
C6 C5 1_555 1_555
H5 C6 1_555 1_555
C7 C6 1_555 1_555
H6 C7 1_555 1_555
C8 C3 1_555 1_555
C9 C2 1_555 1_555
C10 C9 1_555 1_555
H7 C10 1_555 1_555
C11 C10 1_555 1_555
H8 C11 1_555 1_555
C12 C11 1_555 1_555
C13 C12 1_555 1_555
H9 C13 1_555 1_555
C14 C9 1_555 1_555
H10 C14 1_555 1_555
C15 O1 1_555 1_555
H11 C15 1_555 1_555
H12 C15 1_555 1_555
C16 C15 1_555 1_555
H13 C16 1_555 1_555
H14 C16 1_555 1_555
H15 C16 1_555 1_555
C7 C8 1_555 1_555
C13 C14 1_555 1_555

#END
