
#######################################################################
#
#                 Cambridge Crystallographic Data Centre
#                                CCDC 
#
#######################################################################
#
# If this CIF has been generated from an entry in the Cambridge 
# Structural Database, then it will include bibliographic, chemical, 
# crystal, experimental, refinement or atomic coordinate data resulting 
# from the CCDC's data processing and validation procedures.
#
#######################################################################

data_GUMQEM
_chemical_formula_moiety         'C30 H21 Br1 Cl1 N1 O4'
_chemical_name_systematic        
2-(1-(3-bromo-5-chloro-2-hydroxyphenyl)-3-oxo-3-phenylpropyl)-2,4-diphenyl-1,3-oxazol-5(2H)-one
_symmetry_cell_setting           triclinic
_symmetry_space_group_name_H-M   'P -1'
_symmetry_Int_Tables_number      2
_space_group_name_Hall           '-P 1'
loop_
_symmetry_equiv_pos_site_id
_symmetry_equiv_pos_as_xyz
1 x,y,z
2 -x,-y,-z
_cell_length_a                   9.2824(5)
_cell_length_b                   10.8659(6)
_cell_length_c                   14.2839(7)
_cell_angle_alpha                109.870(3)
_cell_angle_beta                 103.464(2)
_cell_angle_gamma                98.966(3)
_cell_volume                     1273.46
_exptl_crystal_colour            colorless
_exptl_crystal_description       block
_cell_formula_units_Z            2
loop_
_atom_site_label
_atom_site_type_symbol
_atom_site_fract_x
_atom_site_fract_y
_atom_site_fract_z
Br1 Br 0.10539(4) 0.45671(4) 0.42403(3)
Cl1 Cl 0.03746(11) 0.29948(13) 0.00555(7)
O1 O 0.5783(2) 0.62654(19) 0.14533(14)
O2 O 0.4310(3) 0.7046(2) 0.04351(17)
O3 O 0.4392(2) 0.5781(2) 0.43775(16)
O4 O 0.6168(3) 0.3415(2) 0.36098(16)
N1 N 0.5710(3) 0.7711(2) 0.30624(18)
C1 C 0.6346(3) 0.6615(3) 0.2574(2)
C2 C 0.4916(3) 0.7095(3) 0.1289(2)
C3 C 0.4925(3) 0.8013(3) 0.2354(2)
C4 C 0.4158(3) 0.9121(3) 0.2569(2)
C5 C 0.3099(4) 0.9273(3) 0.1792(3)
H1 H 0.2872 0.8683 0.1099
C6 C 0.2374(4) 1.0301(4) 0.2043(4)
H2 H 0.1653 1.0398 0.1517
C7 C 0.2708(5) 1.1174(4) 0.3056(4)
H3 H 0.2201 1.1855 0.3218
C8 C 0.3793(4) 1.1055(3) 0.3842(3)
H4 H 0.4032 1.1664 0.4531
C9 C 0.4517(4) 1.0031(3) 0.3602(3)
H5 H 0.5248 0.9946 0.4129
C10 C 0.8088(3) 0.7105(3) 0.2944(2)
C11 C 0.8938(4) 0.6759(3) 0.2257(3)
H6 H 0.8440 0.6250 0.1549
C12 C 1.0515(4) 0.7167(4) 0.2622(3)
H7 H 1.1077 0.6923 0.2158
C13 C 1.1260(4) 0.7923(4) 0.3653(4)
H8 H 1.2326 0.8181 0.3894
C14 C 1.0438(4) 0.8305(4) 0.4338(3)
H9 H 1.0949 0.8850 0.5038
C15 C 0.8841(4) 0.7882(3) 0.3991(3)
H10 H 0.8288 0.8121 0.4460
C16 C 0.5809(3) 0.5376(3) 0.2820(2)
H11 H 0.6253 0.5646 0.3575
C17 C 0.4080(3) 0.4926(3) 0.2571(2)
C18 C 0.3127(4) 0.4271(3) 0.1547(2)
H12 H 0.3534 0.4170 0.0996
C19 C 0.1576(4) 0.3769(4) 0.1341(2)
C20 C 0.0947(4) 0.3846(3) 0.2134(3)
H13 H -0.0089 0.3462 0.1989
C21 C 0.1897(3) 0.4507(3) 0.3147(2)
C22 C 0.3446(3) 0.5076(3) 0.3389(2)
C23 C 0.6442(3) 0.4202(3) 0.2286(2)
H14 H 0.5824 0.3744 0.1557
H15 H 0.7479 0.4559 0.2307
C24 C 0.6454(3) 0.3192(3) 0.2790(2)
C25 C 0.6950(3) 0.1953(3) 0.2298(2)
C26 C 0.6750(4) 0.1374(3) 0.1242(3)
H16 H 0.6287 0.1759 0.0801
C27 C 0.7238(5) 0.0213(4) 0.0833(3)
H17 H 0.7063 -0.0203 0.0116
C28 C 0.7979(5) -0.0311(4) 0.1495(3)
H18 H 0.8331 -0.1072 0.1224
C29 C 0.8206(4) 0.0263(4) 0.2538(3)
H19 H 0.8718 -0.0099 0.2980
C30 C 0.7678(4) 0.1383(3) 0.2943(3)
H20 H 0.7811 0.1761 0.3657
H21 H 0.385(5) 0.571(4) 0.478(3)
loop_
_geom_bond_atom_site_label_1
_geom_bond_atom_site_label_2
_geom_bond_site_symmetry_1
_geom_bond_site_symmetry_2
Br1 C21 1_555 1_555
Cl1 C19 1_555 1_555
O1 C1 1_555 1_555
O2 C2 1_555 1_555
O3 C22 1_555 1_555
O4 C24 1_555 1_555
N1 C1 1_555 1_555
C1 C10 1_555 1_555
C2 O1 1_555 1_555
C3 N1 1_555 1_555
C4 C3 1_555 1_555
C5 C4 1_555 1_555
H1 C5 1_555 1_555
C6 C5 1_555 1_555
H2 C6 1_555 1_555
C7 C6 1_555 1_555
H3 C7 1_555 1_555
C8 C7 1_555 1_555
H4 C8 1_555 1_555
C9 C4 1_555 1_555
H5 C9 1_555 1_555
C10 C11 1_555 1_555
C11 H6 1_555 1_555
C12 C11 1_555 1_555
H7 C12 1_555 1_555
C13 C12 1_555 1_555
H8 C13 1_555 1_555
C14 C13 1_555 1_555
H9 C14 1_555 1_555
C15 C10 1_555 1_555
H10 C15 1_555 1_555
C16 C1 1_555 1_555
H11 C16 1_555 1_555
C17 C16 1_555 1_555
C18 C17 1_555 1_555
H12 C18 1_555 1_555
C19 C18 1_555 1_555
C20 C19 1_555 1_555
H13 C20 1_555 1_555
C21 C20 1_555 1_555
C22 C17 1_555 1_555
C23 C16 1_555 1_555
H14 C23 1_555 1_555
H15 C23 1_555 1_555
C24 C23 1_555 1_555
C25 C24 1_555 1_555
C26 C25 1_555 1_555
H16 C26 1_555 1_555
C27 C26 1_555 1_555
H17 C27 1_555 1_555
C28 C27 1_555 1_555
H18 C28 1_555 1_555
C29 C28 1_555 1_555
H19 C29 1_555 1_555
C30 C25 1_555 1_555
H20 C30 1_555 1_555
H21 O3 1_555 1_555
C2 C3 1_555 1_555
C8 C9 1_555 1_555
C14 C15 1_555 1_555
C21 C22 1_555 1_555
C29 C30 1_555 1_555

#END
