
#######################################################################
#
#                 Cambridge Crystallographic Data Centre
#                                CCDC 
#
#######################################################################
#
# If this CIF has been generated from an entry in the Cambridge 
# Structural Database, then it will include bibliographic, chemical, 
# crystal, experimental, refinement or atomic coordinate data resulting 
# from the CCDC's data processing and validation procedures.
#
#######################################################################

data_GUMRIQ
_chemical_formula_moiety         'C23 H25 N1 O3 S1'
_chemical_name_systematic        
1-(3-p-Tosyl-2,2a,3,4,4a,5,9b,9c-octahydro-1H-benzo[f]cyclopenta[cd]isoindol-8-yl)ethanone
_symmetry_cell_setting           triclinic
_symmetry_space_group_name_H-M   'P -1'
_symmetry_Int_Tables_number      2
_space_group_name_Hall           '-P 1'
loop_
_symmetry_equiv_pos_site_id
_symmetry_equiv_pos_as_xyz
1 x,y,z
2 -x,-y,-z
_cell_length_a                   8.7424(8)
_cell_length_b                   9.5996(9)
_cell_length_c                   13.1574(12)
_cell_angle_alpha                103.5350(10)
_cell_angle_beta                 106.5050(10)
_cell_angle_gamma                96.5290(10)
_cell_volume                     1009.9
_exptl_crystal_colour            colorless
_chemical_melting_point          '192-193 deg.C'
_cell_formula_units_Z            2
loop_
_atom_site_label
_atom_site_type_symbol
_atom_site_fract_x
_atom_site_fract_y
_atom_site_fract_z
C1 C 0.2633(4) 0.8186(4) -0.1223(2)
H1 H 0.2970 0.9098 -0.1353
H2 H 0.1828 0.7556 -0.1881
H3 H 0.3554 0.7731 -0.1028
C2 C 0.1921(3) 0.8459(3) -0.02952(17)
C3 C 0.2596(3) 0.9643(3) 0.0620(2)
H4 H 0.3486 1.0299 0.0649
C4 C 0.1996(3) 0.9887(2) 0.14944(18)
H5 H 0.2489 1.0687 0.2109
C5 C 0.06647(19) 0.89399(17) 0.14495(13)
C6 C -0.0075(2) 0.7774(2) 0.05288(14)
H6 H -0.0997 0.7143 0.0484
C7 C 0.0567(3) 0.7552(3) -0.03283(16)
H7 H 0.0066 0.6761 -0.0948
C8 C 0.24212(18) 0.86629(16) 0.40665(12)
H8 H 0.3103 0.9106 0.3705
C9 C 0.2686(2) 0.96509(16) 0.52323(13)
H9 H 0.3586 1.0461 0.5432
H10 H 0.1717 1.0039 0.5261
C10 C 0.3062(2) 0.86938(16) 0.60255(13)
H11 H 0.2077 0.8277 0.6134
H12 H 0.3825 0.9260 0.6737
C11 C 0.38104(17) 0.74835(15) 0.54537(12)
H13 H 0.4961 0.7868 0.5593
C12 C 0.28902(17) 0.72263(15) 0.42389(12)
H14 H 0.3532 0.6849 0.3772
C13 C 0.12602(17) 0.62051(15) 0.39278(12)
H15 H 0.0782 0.6542 0.4509
C14 C 0.0278(2) 0.65748(16) 0.29106(13)
H16 H 0.0634 0.6215 0.2280
H17 H -0.0878 0.6210 0.2720
C15 C 0.1542(2) 0.46830(16) 0.39389(13)
H18 H 0.2055 0.4314 0.3394
H19 H 0.0515 0.4028 0.3765
C16 C 0.26397(18) 0.47745(15) 0.50887(12)
C17 C 0.36665(17) 0.60858(14) 0.57999(12)
C18 C 0.45848(18) 0.60960(16) 0.68536(13)
H20 H 0.5272 0.6959 0.7323
C19 C 0.45137(18) 0.48607(17) 0.72336(13)
C20 C 0.34975(19) 0.35733(16) 0.65248(14)
H21 H 0.3435 0.2733 0.6760
C21 C 0.25807(19) 0.35373(16) 0.54733(13)
H22 H 0.1905 0.2667 0.5008
C22 C 0.5547(2) 0.4968(2) 0.83760(17)
C23 C 0.5592(3) 0.3639(3) 0.8776(2)
H23 H 0.6404 0.3869 0.9488
H24 H 0.5851 0.2885 0.8265
H25 H 0.4548 0.3305 0.8831
N1 N 0.06997(16) 0.81925(14) 0.33335(10)
O1 O -0.18089(15) 0.86317(15) 0.21405(11)
O2 O 0.04979(17) 1.06778(13) 0.32242(11)
O3 O 0.6330(3) 0.6125(2) 0.89803(16)
S1 S -0.00992(5) 0.91981(4) 0.25685(3)
loop_
_geom_bond_atom_site_label_1
_geom_bond_atom_site_label_2
_geom_bond_site_symmetry_1
_geom_bond_site_symmetry_2
C1 H1 1_555 1_555
H2 C1 1_555 1_555
H3 C1 1_555 1_555
C2 C1 1_555 1_555
C3 C2 1_555 1_555
H4 C3 1_555 1_555
C4 C3 1_555 1_555
H5 C4 1_555 1_555
C5 C4 1_555 1_555
C6 C5 1_555 1_555
H6 C6 1_555 1_555
C7 C2 1_555 1_555
H7 C7 1_555 1_555
C8 H8 1_555 1_555
C9 C8 1_555 1_555
H9 C9 1_555 1_555
H10 C9 1_555 1_555
C10 C9 1_555 1_555
H11 C10 1_555 1_555
H12 C10 1_555 1_555
C11 C10 1_555 1_555
H13 C11 1_555 1_555
C12 C8 1_555 1_555
H14 C12 1_555 1_555
C13 C12 1_555 1_555
H15 C13 1_555 1_555
C14 C13 1_555 1_555
H16 C14 1_555 1_555
H17 C14 1_555 1_555
C15 C13 1_555 1_555
H18 C15 1_555 1_555
H19 C15 1_555 1_555
C16 C15 1_555 1_555
C17 C11 1_555 1_555
C18 C17 1_555 1_555
H20 C18 1_555 1_555
C19 C18 1_555 1_555
C20 C19 1_555 1_555
H21 C20 1_555 1_555
C21 C16 1_555 1_555
H22 C21 1_555 1_555
C22 C19 1_555 1_555
C23 C22 1_555 1_555
H23 C23 1_555 1_555
H24 C23 1_555 1_555
H25 C23 1_555 1_555
N1 C8 1_555 1_555
O1 S1 1_555 1_555
O2 S1 1_555 1_555
O3 C22 1_555 1_555
S1 C5 1_555 1_555
C6 C7 1_555 1_555
C11 C12 1_555 1_555
C14 N1 1_555 1_555
C16 C17 1_555 1_555
C20 C21 1_555 1_555
N1 S1 1_555 1_555

#END
