
#######################################################################
#
#                 Cambridge Crystallographic Data Centre
#                                CCDC 
#
#######################################################################
#
# If this CIF has been generated from an entry in the Cambridge 
# Structural Database, then it will include bibliographic, chemical, 
# crystal, experimental, refinement or atomic coordinate data resulting 
# from the CCDC's data processing and validation procedures.
#
#######################################################################

data_GUMRUC
_chemical_formula_moiety         'C24 H27 N1 O3 S1'
_chemical_name_systematic        
1-(4-(p-Tosyl)-1,2,3,3a,4,5,5a,6,10b,10c-decahydronaphtho[3,2,1-cd]indol-9-yl)ethanone
_symmetry_cell_setting           orthorhombic
_symmetry_space_group_name_H-M   'P 21 21 21'
_symmetry_Int_Tables_number      19
_space_group_name_Hall           'P 2ac 2ab'
loop_
_symmetry_equiv_pos_site_id
_symmetry_equiv_pos_as_xyz
1 x,y,z
2 1/2-x,-y,1/2+z
3 -x,1/2+y,1/2-z
4 1/2+x,1/2-y,-z
_cell_length_a                   6.6916(7)
_cell_length_b                   13.1211(13)
_cell_length_c                   24.345(3)
_cell_angle_alpha                90
_cell_angle_beta                 90
_cell_angle_gamma                90
_cell_volume                     2137.52
_exptl_crystal_colour            colorless
_chemical_melting_point          '210-211 deg.C'
_cell_formula_units_Z            4
loop_
_atom_site_label
_atom_site_type_symbol
_atom_site_fract_x
_atom_site_fract_y
_atom_site_fract_z
S1 S 1.07602(12) 0.61023(6) 0.14593(3)
C1 C 0.5744(4) 0.7751(2) 0.34054(11)
C2 C 0.4598(4) 0.6859(2) 0.33364(11)
C3 C 0.8437(4) 0.6964(2) 0.28369(11)
H1 H 0.8975 0.6519 0.3124
C4 C 0.2876(4) 0.6746(2) 0.36451(11)
H2 H 0.2137 0.6150 0.3607
C5 C 0.6774(4) 0.6409(2) 0.25357(11)
H3 H 0.6144 0.6893 0.2283
C6 C 0.9561(5) 0.7056(2) 0.10730(12)
C7 C 0.5170(4) 0.6024(2) 0.29311(12)
H4 H 0.3978 0.5876 0.2711
C8 C 0.5764(5) 0.5032(2) 0.32188(13)
H5 H 0.6848 0.5164 0.3474
H6 H 0.4637 0.4771 0.3426
C9 C 0.5052(4) 0.8490(2) 0.37705(12)
H7 H 0.5789 0.9085 0.3817
C10 C 0.9985(4) 0.7087(2) 0.23871(11)
H8 H 0.9699 0.7678 0.2162
H9 H 1.1317 0.7154 0.2541
C11 C 0.0329(5) 0.7299(3) 0.43251(12)
C12 C 0.7863(4) 0.5615(2) 0.21941(12)
H10 H 0.7122 0.5480 0.1854
C13 C 0.8271(5) 0.4615(2) 0.24964(13)
H11 H 0.8687 0.4100 0.2234
H12 H 0.9351 0.4714 0.2757
C14 C 0.2201(5) 0.7484(2) 0.40097(11)
C15 C 0.3321(5) 0.8367(2) 0.40621(13)
H13 H 0.2891 0.8881 0.4298
C16 C 0.7649(4) 0.7931(2) 0.30975(12)
H14 H 0.8646 0.8201 0.3347
H15 H 0.7418 0.8436 0.2813
C17 C -0.0480(5) 0.8144(3) 0.46761(14)
H16 H -0.1776 0.7957 0.4812
H17 H -0.0586 0.8755 0.4461
H18 H 0.0406 0.8259 0.4980
C18 C 0.6420(5) 0.4248(2) 0.27998(14)
H19 H 0.5348 0.4129 0.2539
H20 H 0.6709 0.3608 0.2983
C19 C 0.7615(10) 0.8615(3) 0.05226(16)
C20 C 0.7679(6) 0.6913(3) 0.08721(15)
H21 H 0.7043 0.6290 0.0924
C21 C 1.0483(6) 0.7993(3) 0.09991(15)
H22 H 1.1764 0.8105 0.1134
C22 C 0.9480(9) 0.8760(3) 0.07228(16)
H23 H 1.0100 0.9388 0.0674
C23 C 0.6703(8) 0.7683(4) 0.05918(17)
H24 H 0.5432 0.7571 0.0450
C24 C 0.6474(11) 0.9456(3) 0.0226(2)
H25 H 0.5215 0.9195 0.0100
H26 H 0.7242 0.9689 -0.0082
H27 H 0.6246 1.0013 0.0474
O1 O 1.0253(3) 0.51312(15) 0.12278(9)
O2 O 1.2817(3) 0.63888(18) 0.15146(9)
O3 O -0.0537(4) 0.64827(19) 0.42954(10)
N1 N 0.9797(3) 0.61339(18) 0.20650(9)
loop_
_geom_bond_atom_site_label_1
_geom_bond_atom_site_label_2
_geom_bond_site_symmetry_1
_geom_bond_site_symmetry_2
S1 C6 1_555 1_555
C1 C2 1_555 1_555
C2 C4 1_555 1_555
C3 H1 1_555 1_555
C4 H2 1_555 1_555
C5 C3 1_555 1_555
H3 C5 1_555 1_555
C6 C20 1_555 1_555
C7 C2 1_555 1_555
H4 C7 1_555 1_555
C8 C7 1_555 1_555
H5 C8 1_555 1_555
H6 C8 1_555 1_555
C9 C1 1_555 1_555
H7 C9 1_555 1_555
C10 C3 1_555 1_555
H8 C10 1_555 1_555
H9 C10 1_555 1_555
C11 C14 1_555 1_555
C12 C5 1_555 1_555
H10 C12 1_555 1_555
C13 C12 1_555 1_555
H11 C13 1_555 1_555
H12 C13 1_555 1_555
C14 C4 1_555 1_555
C15 C9 1_555 1_555
H13 C15 1_555 1_555
C16 C1 1_555 1_555
H14 C16 1_555 1_555
H15 C16 1_555 1_555
C17 C11 1_555 1_555
H16 C17 1_555 1_555
H17 C17 1_555 1_555
H18 C17 1_555 1_555
C18 C8 1_555 1_555
H19 C18 1_555 1_555
H20 C18 1_555 1_555
C19 C22 1_555 1_555
C20 H21 1_555 1_555
C21 C6 1_555 1_555
H22 C21 1_555 1_555
C22 C21 1_555 1_555
H23 C22 1_555 1_555
C23 C19 1_555 1_555
H24 C23 1_555 1_555
C24 C19 1_555 1_555
H25 C24 1_555 1_555
H26 C24 1_555 1_555
H27 C24 1_555 1_555
O1 S1 1_555 1_555
O2 S1 1_555 1_555
O3 C11 1_555 1_555
N1 S1 1_555 1_555
C3 C16 1_555 1_555
C5 C7 1_555 1_555
C10 N1 1_555 1_555
C12 N1 1_555 1_555
C13 C18 1_555 1_555
C14 C15 1_555 1_555
C20 C23 1_555 1_555

#END
