
#######################################################################
#
#                 Cambridge Crystallographic Data Centre
#                                CCDC 
#
#######################################################################
#
# If this CIF has been generated from an entry in the Cambridge 
# Structural Database, then it will include bibliographic, chemical, 
# crystal, experimental, refinement or atomic coordinate data resulting 
# from the CCDC's data processing and validation procedures.
#
#######################################################################

data_GUMSIR
_chemical_formula_moiety         'C26 H31 N1 O4 S1'
_chemical_name_systematic        
'Methyl 6-(p-tosyl)-1,2,3,4,5,5a,6,7,7a,8,12b,12c-dodecahydrobenzo[f]cyclo-octa[cd]isoindole-11-carboxylate'
_symmetry_cell_setting           monoclinic
_symmetry_space_group_name_H-M   'P 21/n'
_symmetry_Int_Tables_number      14
_space_group_name_Hall           '-P 2yn'
loop_
_symmetry_equiv_pos_site_id
_symmetry_equiv_pos_as_xyz
1 x,y,z
2 1/2-x,1/2+y,1/2-z
3 -x,-y,-z
4 1/2+x,1/2-y,1/2+z
_cell_length_a                   13.172(3)
_cell_length_b                   9.0130(18)
_cell_length_c                   19.569(4)
_cell_angle_alpha                90
_cell_angle_beta                 94.49(3)
_cell_angle_gamma                90
_cell_volume                     2316.09
_exptl_crystal_colour            colorless
_chemical_melting_point          '203-204 deg.C'
_cell_formula_units_Z            4
loop_
_atom_site_label
_atom_site_type_symbol
_atom_site_fract_x
_atom_site_fract_y
_atom_site_fract_z
S1 S 0.63195(7) 0.93624(11) 0.13161(4)
N1 N 0.7345(2) 0.8488(3) 0.16359(14)
O1 O 0.5507(2) 0.8870(3) 0.17011(14)
C1 C 0.5548(5) 0.7266(7) -0.1616(3)
H1 H 0.5122 0.6401 -0.1632
H2 H 0.6182 0.7032 -0.1802
H3 H 0.5212 0.8044 -0.1882
O2 O 0.6558(2) 1.0911(3) 0.13006(14)
C2 C 0.5749(4) 0.7773(7) -0.0882(2)
O3 O 0.7295(3) 0.4329(4) -0.17090(16)
C3 C 0.6343(4) 0.8984(7) -0.0723(2)
H4 H 0.6637 0.9487 -0.1073
O4 O 0.8415(2) 0.6178(3) -0.16248(13)
C4 C 0.6518(3) 0.9480(5) -0.00592(19)
H5 H 0.6932 1.0300 0.0038
C5 C 0.6072(3) 0.8748(4) 0.04617(18)
C6 C 0.5457(3) 0.7530(5) 0.0319(2)
H6 H 0.5149 0.7043 0.0667
C7 C 0.5306(4) 0.7044(6) -0.0355(3)
H7 H 0.4901 0.6215 -0.0456
C8 C 0.8360(4) 0.6301(7) -0.2362(2)
H8 H 0.8795 0.7091 -0.2490
H9 H 0.7671 0.6507 -0.2532
H10 H 0.8577 0.5385 -0.2554
C9 C 0.7849(3) 0.5131(4) -0.1365(2)
C10 C 0.7989(3) 0.5045(4) -0.06015(18)
C11 C 0.8668(3) 0.5976(4) -0.02199(16)
H11 H 0.9023 0.6700 -0.0441
C12 C 0.8816(3) 0.5826(4) 0.04863(17)
C13 C 0.8267(3) 0.4747(4) 0.08207(19)
C14 C 0.7589(3) 0.3837(4) 0.0442(2)
H12 H 0.7229 0.3119 0.0664
C15 C 0.7441(3) 0.3985(4) -0.0268(2)
H13 H 0.6977 0.3377 -0.0518
C16 C 0.9551(3) 0.6767(4) 0.09435(16)
H14 H 1.0065 0.6080 0.1149
C17 C 0.8999(3) 0.7416(4) 0.15465(16)
H15 H 0.9521 0.7713 0.1904
C18 C 0.8294(3) 0.6282(4) 0.18669(18)
H16 H 0.8448 0.6272 0.2365
C19 C 0.8409(4) 0.4700(4) 0.1588(2)
H17 H 0.9080 0.4316 0.1732
H18 H 0.7905 0.4052 0.1766
C20 C 1.0131(3) 0.7911(4) 0.05535(18)
H19 H 0.9640 0.8620 0.0352
H20 H 1.0424 0.7405 0.0178
C21 C 1.0981(3) 0.8783(5) 0.0950(2)
H21 H 1.1438 0.8066 0.1180
H22 H 1.1364 0.9287 0.0615
C22 C 1.0727(3) 0.9932(5) 0.1483(2)
H23 H 1.0692 0.9426 0.1917
H24 H 1.1290 1.0628 0.1538
C23 C 0.9755(3) 1.0817(4) 0.1344(2)
H25 H 0.9608 1.0878 0.0851
H26 H 0.9882 1.1819 0.1510
C24 C 0.8805(3) 1.0243(4) 0.1654(2)
H27 H 0.8287 1.1010 0.1604
H28 H 0.8969 1.0094 0.2141
C25 C 0.8344(2) 0.8801(4) 0.13524(16)
H29 H 0.8247 0.8886 0.0852
C26 C 0.7219(3) 0.6869(4) 0.1707(2)
H30 H 0.6913 0.6441 0.1285
H31 H 0.6794 0.6641 0.2076
loop_
_geom_bond_atom_site_label_1
_geom_bond_atom_site_label_2
_geom_bond_site_symmetry_1
_geom_bond_site_symmetry_2
S1 N1 1_555 1_555
N1 C25 1_555 1_555
O1 S1 1_555 1_555
C1 H1 1_555 1_555
H2 C1 1_555 1_555
H3 C1 1_555 1_555
O2 S1 1_555 1_555
C2 C1 1_555 1_555
O3 C9 1_555 1_555
C3 C2 1_555 1_555
H4 C3 1_555 1_555
O4 C8 1_555 1_555
C4 C3 1_555 1_555
H5 C4 1_555 1_555
C5 S1 1_555 1_555
C6 C5 1_555 1_555
H6 C6 1_555 1_555
C7 C2 1_555 1_555
H7 C7 1_555 1_555
C8 H8 1_555 1_555
H9 C8 1_555 1_555
H10 C8 1_555 1_555
C9 O4 1_555 1_555
C10 C9 1_555 1_555
C11 C10 1_555 1_555
H11 C11 1_555 1_555
C12 C11 1_555 1_555
C13 C12 1_555 1_555
C14 C13 1_555 1_555
H12 C14 1_555 1_555
C15 C10 1_555 1_555
H13 C15 1_555 1_555
C16 C12 1_555 1_555
H14 C16 1_555 1_555
C17 C16 1_555 1_555
H15 C17 1_555 1_555
C18 C17 1_555 1_555
H16 C18 1_555 1_555
C19 C13 1_555 1_555
H17 C19 1_555 1_555
H18 C19 1_555 1_555
C20 C16 1_555 1_555
H19 C20 1_555 1_555
H20 C20 1_555 1_555
C21 C20 1_555 1_555
H21 C21 1_555 1_555
H22 C21 1_555 1_555
C22 C21 1_555 1_555
H23 C22 1_555 1_555
H24 C22 1_555 1_555
C23 C22 1_555 1_555
H25 C23 1_555 1_555
H26 C23 1_555 1_555
C24 C23 1_555 1_555
H27 C24 1_555 1_555
H28 C24 1_555 1_555
C25 C17 1_555 1_555
H29 C25 1_555 1_555
C26 N1 1_555 1_555
H30 C26 1_555 1_555
H31 C26 1_555 1_555
C4 C5 1_555 1_555
C6 C7 1_555 1_555
C14 C15 1_555 1_555
C18 C19 1_555 1_555
C18 C26 1_555 1_555
C24 C25 1_555 1_555

#END
