
#######################################################################
#
#                 Cambridge Crystallographic Data Centre
#                                CCDC 
#
#######################################################################
#
# If this CIF has been generated from an entry in the Cambridge 
# Structural Database, then it will include bibliographic, chemical, 
# crystal, experimental, refinement or atomic coordinate data resulting 
# from the CCDC's data processing and validation procedures.
#
#######################################################################

data_GUMSEN
_chemical_formula_moiety         'C26 H31 N1 O3 S1'
_chemical_name_systematic        
1-(6-(p-Tosyl)-1,2,3,4,5,5a,6,7,7a,8,12b,12c-dodecahydrobenzo[f]cyclo-octa[cd]isoindol-11-yl)ethanone
_symmetry_cell_setting           triclinic
_symmetry_space_group_name_H-M   'P -1'
_symmetry_Int_Tables_number      2
_space_group_name_Hall           '-P 1'
loop_
_symmetry_equiv_pos_site_id
_symmetry_equiv_pos_as_xyz
1 x,y,z
2 -x,-y,-z
_cell_length_a                   9.0130(18)
_cell_length_b                   11.459(2)
_cell_length_c                   12.157(2)
_cell_angle_alpha                66.53(3)
_cell_angle_beta                 83.95(3)
_cell_angle_gamma                77.18(3)
_cell_volume                     1122.79
_exptl_crystal_colour            colorless
_chemical_melting_point          '163-164 deg.C'
_cell_formula_units_Z            2
loop_
_atom_site_label
_atom_site_type_symbol
_atom_site_fract_x
_atom_site_fract_y
_atom_site_fract_z
S1 S 0.43681(14) 0.76701(11) 0.48986(9)
N1 N 0.3756(4) 0.6311(3) 0.5562(3)
O1 O 0.0240(5) 0.8250(4) 1.0053(4)
O2 O 0.5991(4) 0.7378(3) 0.5011(3)
O3 O 0.3692(4) 0.8282(3) 0.3730(3)
C1 C -0.1679(6) 0.9835(5) 0.8837(5)
H1 H -0.1611 1.0267 0.9358
H2 H -0.2689 0.9674 0.8885
H3 H -0.1453 1.0373 0.8026
C2 C -0.0560(5) 0.8574(4) 0.9212(4)
C3 C -0.0469(4) 0.7711(4) 0.8539(3)
C4 C -0.1487(5) 0.7971(4) 0.7645(4)
H4 H -0.2261 0.8704 0.7441
C5 C -0.1338(5) 0.7125(4) 0.7059(4)
H5 H -0.2019 0.7294 0.6465
C6 C -0.0186(4) 0.6036(4) 0.7351(3)
C7 C 0.0844(4) 0.5763(4) 0.8242(3)
C8 C 0.0687(5) 0.6605(4) 0.8829(3)
H6 H 0.1365 0.6430 0.9427
C9 C 0.0131(5) 0.5168(5) 0.6663(4)
H7 H -0.0531 0.5525 0.5978
H8 H -0.0060 0.4313 0.7171
C10 C 0.1805(5) 0.5071(4) 0.6238(4)
H9 H 0.2042 0.4470 0.5823
C11 C 0.2937(4) 0.4604(4) 0.7284(3)
H10 H 0.3472 0.3719 0.7409
C12 C 0.2077(4) 0.4578(4) 0.8479(3)
H11 H 0.1566 0.3836 0.8759
C13 C 0.3165(5) 0.4326(4) 0.9477(3)
H12 H 0.3713 0.5034 0.9203
H13 H 0.2549 0.4375 1.0167
C14 C 0.4335(6) 0.3063(5) 0.9907(4)
H14 H 0.3793 0.2356 1.0129
H15 H 0.4771 0.2989 1.0633
C15 C 0.5650(6) 0.2841(5) 0.9067(5)
H16 H 0.6453 0.2172 0.9550
H17 H 0.5296 0.2503 0.8548
C16 C 0.6344(6) 0.4003(5) 0.8278(4)
H18 H 0.7435 0.3705 0.8230
H19 H 0.6180 0.4606 0.8677
C17 C 0.5762(5) 0.4751(5) 0.7000(4)
H20 H 0.5877 0.4140 0.6613
H21 H 0.6414 0.5365 0.6567
C18 C 0.4113(4) 0.5493(4) 0.6861(3)
H22 H 0.3950 0.6055 0.7312
C19 C 0.2133(5) 0.6401(4) 0.5383(4)
H23 H 0.1955 0.6561 0.4557
H24 H 0.1498 0.7092 0.5586
C20 C 0.3597(5) 0.8671(4) 0.5694(3)
C21 C 0.4408(5) 0.8623(4) 0.6622(4)
H25 H 0.5340 0.8054 0.6832
C22 C 0.3829(6) 0.9425(5) 0.7240(4)
H26 H 0.4363 0.9372 0.7878
C23 C 0.2479(6) 1.0294(4) 0.6917(4)
C24 C 0.1648(6) 1.0323(5) 0.5999(5)
H27 H 0.0704 1.0875 0.5799
C25 C 0.2245(6) 0.9519(4) 0.5382(4)
H28 H 0.1711 0.9563 0.4748
C26 C 0.1880(8) 1.1234(6) 0.7523(6)
H29 H 0.2574 1.1098 0.8130
H30 H 0.0902 1.1095 0.7885
H31 H 0.1785 1.2107 0.6938
loop_
_geom_bond_atom_site_label_1
_geom_bond_atom_site_label_2
_geom_bond_site_symmetry_1
_geom_bond_site_symmetry_2
S1 N1 1_555 1_555
N1 C18 1_555 1_555
O1 C2 1_555 1_555
O2 S1 1_555 1_555
O3 S1 1_555 1_555
C1 H1 1_555 1_555
H2 C1 1_555 1_555
H3 C1 1_555 1_555
C2 C1 1_555 1_555
C3 C2 1_555 1_555
C4 C3 1_555 1_555
H4 C4 1_555 1_555
C5 C4 1_555 1_555
H5 C5 1_555 1_555
C6 C5 1_555 1_555
C7 C6 1_555 1_555
C8 C3 1_555 1_555
H6 C8 1_555 1_555
C9 C6 1_555 1_555
H7 C9 1_555 1_555
H8 C9 1_555 1_555
C10 C9 1_555 1_555
H9 C10 1_555 1_555
C11 C10 1_555 1_555
H10 C11 1_555 1_555
C12 C7 1_555 1_555
H11 C12 1_555 1_555
C13 C12 1_555 1_555
H12 C13 1_555 1_555
H13 C13 1_555 1_555
C14 C13 1_555 1_555
H14 C14 1_555 1_555
H15 C14 1_555 1_555
C15 C14 1_555 1_555
H16 C15 1_555 1_555
H17 C15 1_555 1_555
C16 C15 1_555 1_555
H18 C16 1_555 1_555
H19 C16 1_555 1_555
C17 C16 1_555 1_555
H20 C17 1_555 1_555
H21 C17 1_555 1_555
C18 C11 1_555 1_555
H22 C18 1_555 1_555
C19 N1 1_555 1_555
H23 C19 1_555 1_555
H24 C19 1_555 1_555
C20 S1 1_555 1_555
C21 C20 1_555 1_555
H25 C21 1_555 1_555
C22 C21 1_555 1_555
H26 C22 1_555 1_555
C23 C22 1_555 1_555
C24 C23 1_555 1_555
H27 C24 1_555 1_555
C25 C20 1_555 1_555
H28 C25 1_555 1_555
C26 C23 1_555 1_555
H29 C26 1_555 1_555
H30 C26 1_555 1_555
H31 C26 1_555 1_555
C7 C8 1_555 1_555
C10 C19 1_555 1_555
C11 C12 1_555 1_555
C17 C18 1_555 1_555
C24 C25 1_555 1_555

#END
