
#######################################################################
#
#                 Cambridge Crystallographic Data Centre
#                                CCDC 
#
#######################################################################
#
# If this CIF has been generated from an entry in the Cambridge 
# Structural Database, then it will include bibliographic, chemical, 
# crystal, experimental, refinement or atomic coordinate data resulting 
# from the CCDC's data processing and validation procedures.
#
#######################################################################

data_GUMVAN
_chemical_formula_moiety         'C37 H39 N3 O2 S1'
_chemical_name_systematic        
2-(2-(allylsulfanyl)phenyl)-3',6'-bis(diethylamino)spiro[isoindole-1,9'-xanthen]-3(2H)-one
_symmetry_cell_setting           orthorhombic
_symmetry_space_group_name_H-M   'P 21 21 21'
_symmetry_Int_Tables_number      19
_space_group_name_Hall           'P 2ac 2ab'
loop_
_symmetry_equiv_pos_site_id
_symmetry_equiv_pos_as_xyz
1 x,y,z
2 1/2-x,-y,1/2+z
3 -x,1/2+y,1/2-z
4 1/2+x,1/2-y,-z
_cell_length_a                   9.0224(8)
_cell_length_b                   11.6701(10)
_cell_length_c                   30.389(3)
_cell_angle_alpha                90
_cell_angle_beta                 90
_cell_angle_gamma                90
_cell_volume                     3199.73
_exptl_crystal_colour            yellow
_exptl_crystal_description       block
_cell_formula_units_Z            4
loop_
_atom_site_label
_atom_site_type_symbol
_atom_site_fract_x
_atom_site_fract_y
_atom_site_fract_z
S1 S 0.12736(11) 0.78337(7) 0.21769(3)
N1 N -0.2317(4) 0.1381(3) 0.07696(11)
N2 N 0.2055(4) 0.8610(3) 0.02398(10)
N3 N 0.0979(3) 0.5328(2) 0.18749(8)
O1 O -0.0051(3) 0.50126(18) 0.06122(7)
O2 O 0.1680(3) 0.5475(2) 0.26023(7)
C1 C -0.3536(8) 0.0115(6) 0.1288(2)
H1 H -0.3659 -0.0684 0.1353
H2 H -0.4452 0.0420 0.1177
H3 H -0.3258 0.0519 0.1550
C2 C -0.2422(7) 0.0248(4) 0.09680(18)
H4 H -0.2592 -0.0307 0.0736
H5 H -0.1475 0.0067 0.1102
C3 C -0.3128(5) 0.1581(4) 0.03564(16)
H6 H -0.3463 0.2371 0.0350
H7 H -0.3999 0.1094 0.0351
C4 C -0.2223(7) 0.1350(5) -0.00456(16)
H8 H -0.1341 0.1811 -0.0038
H9 H -0.2791 0.1537 -0.0303
H10 H -0.1955 0.0555 -0.0054
C5 C -0.1368(4) 0.2208(3) 0.09326(11)
C6 C -0.1120(4) 0.3219(3) 0.07070(11)
H11 H -0.1597 0.3346 0.0440
C7 C -0.0168(4) 0.4051(2) 0.08741(10)
C8 C 0.0569(4) 0.3922(2) 0.12625(10)
C9 C 0.0303(4) 0.2908(3) 0.14907(11)
H12 H 0.0791 0.2789 0.1757
C10 C -0.0644(4) 0.2078(3) 0.13412(11)
H13 H -0.0812 0.1425 0.1510
C11 C 0.0940(4) 0.5863(3) 0.07341(10)
C12 C 0.1030(4) 0.6766(3) 0.04431(11)
H14 H 0.0451 0.6760 0.0190
C13 C 0.1969(4) 0.7683(3) 0.05219(11)
C14 C 0.2839(4) 0.7624(3) 0.09077(11)
H15 H 0.3498 0.8214 0.0972
C15 C 0.2727(4) 0.6716(3) 0.11875(10)
H16 H 0.3317 0.6708 0.1439
C16 C 0.1770(4) 0.5800(2) 0.11146(10)
C17 C 0.1051(7) 0.8693(4) -0.01424(15)
H17 H 0.0877 0.9493 -0.0212
H18 H 0.0106 0.8344 -0.0070
C18 C 0.1701(9) 0.8109(8) -0.0528(2)
H19 H 0.1080 0.8231 -0.0780
H20 H 0.1775 0.7303 -0.0469
H21 H 0.2671 0.8414 -0.0584
C19 C 0.2957(5) 0.9606(3) 0.03351(12)
H22 H 0.3233 0.9969 0.0060
H23 H 0.3861 0.9357 0.0479
C20 C 0.2197(7) 1.0476(4) 0.06230(15)
H24 H 0.1305 1.0732 0.0482
H25 H 0.2846 1.1117 0.0669
H26 H 0.1957 1.0133 0.0901
C21 C 0.1575(3) 0.4843(2) 0.14472(9)
C22 C 0.3027(4) 0.4340(2) 0.16063(11)
C23 C 0.4053(4) 0.3728(3) 0.13694(13)
H27 H 0.3942 0.3618 0.1068
C24 C 0.5273(4) 0.3275(3) 0.15953(16)
H28 H 0.5984 0.2858 0.1442
C25 C 0.5432(5) 0.3442(3) 0.20450(15)
H29 H 0.6241 0.3126 0.2191
C26 C 0.4407(4) 0.4068(3) 0.22763(13)
H30 H 0.4522 0.4196 0.2576
C27 C 0.3200(4) 0.4504(3) 0.20522(11)
C28 C 0.1914(4) 0.5159(3) 0.22244(11)
C29 C -0.0363(4) 0.5966(3) 0.18874(9)
C30 C -0.1683(4) 0.5448(3) 0.17694(10)
H31 H -0.1685 0.4673 0.1698
C31 C -0.2990(4) 0.6047(3) 0.17551(11)
H32 H -0.3865 0.5683 0.1673
C32 C -0.2994(4) 0.7188(3) 0.18630(12)
H33 H -0.3869 0.7607 0.1847
C33 C -0.1708(4) 0.7712(3) 0.19940(12)
H34 H -0.1735 0.8478 0.2078
C34 C -0.0363(4) 0.7130(3) 0.20057(9)
C35 C 0.1147(5) 0.9149(3) 0.18609(12)
H35 H 0.0882 0.8975 0.1559
H36 H 0.0386 0.9640 0.1984
C36 C 0.2600(6) 0.9743(4) 0.18734(14)
H37 H 0.3387 0.9362 0.1741
C37 C 0.2897(7) 1.0705(4) 0.20429(15)
H38 H 0.2154 1.1126 0.2180
H39 H 0.3857 1.0992 0.2030
C38? C -0.171(4) -0.0773(17) 0.0856(9)
H40? H -0.2279 -0.1410 0.0965
H41? H -0.0741 -0.0787 0.0984
H42? H -0.1632 -0.0827 0.0542
C39? C 0.118(5) 0.933(3) -0.0537(8)
H43? H 0.2148 0.9212 -0.0661
H44? H 0.1043 1.0129 -0.0475
H45? H 0.0441 0.9079 -0.0742
loop_
_geom_bond_atom_site_label_1
_geom_bond_atom_site_label_2
_geom_bond_site_symmetry_1
_geom_bond_site_symmetry_2
S1 C34 1_555 1_555
N1 C2 1_555 1_555
N2 C13 1_555 1_555
N3 C21 1_555 1_555
O1 C7 1_555 1_555
O2 C28 1_555 1_555
C1 H1 1_555 1_555
H2 C1 1_555 1_555
H3 C1 1_555 1_555
C2 C1 1_555 1_555
H4 C2 1_555 1_555
H5 C2 1_555 1_555
C3 N1 1_555 1_555
H6 C3 1_555 1_555
H7 C3 1_555 1_555
C4 C3 1_555 1_555
H8 C4 1_555 1_555
H9 C4 1_555 1_555
H10 C4 1_555 1_555
C5 N1 1_555 1_555
C6 C5 1_555 1_555
H11 C6 1_555 1_555
C7 C6 1_555 1_555
C8 C7 1_555 1_555
C9 C8 1_555 1_555
H12 C9 1_555 1_555
C10 C5 1_555 1_555
H13 C10 1_555 1_555
C11 O1 1_555 1_555
C12 C11 1_555 1_555
H14 C12 1_555 1_555
C13 C12 1_555 1_555
C14 C13 1_555 1_555
H15 C14 1_555 1_555
C15 C14 1_555 1_555
H16 C15 1_555 1_555
C16 C11 1_555 1_555
C17 N2 1_555 1_555
H17 C17 1_555 1_555
H18 C17 1_555 1_555
C18 C17 1_555 1_555
H19 C18 1_555 1_555
H20 C18 1_555 1_555
H21 C18 1_555 1_555
C19 N2 1_555 1_555
H22 C19 1_555 1_555
H23 C19 1_555 1_555
C20 C19 1_555 1_555
H24 C20 1_555 1_555
H25 C20 1_555 1_555
H26 C20 1_555 1_555
C21 C8 1_555 1_555
C22 C21 1_555 1_555
C23 C22 1_555 1_555
H27 C23 1_555 1_555
C24 C23 1_555 1_555
H28 C24 1_555 1_555
C25 C24 1_555 1_555
H29 C25 1_555 1_555
C26 C25 1_555 1_555
H30 C26 1_555 1_555
C27 C22 1_555 1_555
C28 N3 1_555 1_555
C29 N3 1_555 1_555
C30 C29 1_555 1_555
H31 C30 1_555 1_555
C31 C30 1_555 1_555
H32 C31 1_555 1_555
C32 C31 1_555 1_555
H33 C32 1_555 1_555
C33 C32 1_555 1_555
H34 C33 1_555 1_555
C34 C29 1_555 1_555
C35 S1 1_555 1_555
H35 C35 1_555 1_555
H36 C35 1_555 1_555
C36 C35 1_555 1_555
H37 C36 1_555 1_555
C37 C36 1_555 1_555
H38 C37 1_555 1_555
H39 C37 1_555 1_555
C9 C10 1_555 1_555
C15 C16 1_555 1_555
C16 C21 1_555 1_555
C26 C27 1_555 1_555
C27 C28 1_555 1_555
C33 C34 1_555 1_555

#END
