
#######################################################################
#
#                 Cambridge Crystallographic Data Centre
#                                CCDC 
#
#######################################################################
#
# If this CIF has been generated from an entry in the Cambridge 
# Structural Database, then it will include bibliographic, chemical, 
# crystal, experimental, refinement or atomic coordinate data resulting 
# from the CCDC's data processing and validation procedures.
#
#######################################################################

data_GUMXIV
_chemical_formula_moiety         'C15 H23 N1 O2 S1'
_chemical_name_systematic        
(-)-(Z)-(2S,3R)-3-Isopropyl-5-[(S)-N-methyl-S-phenylsulfonimidoyl]pent-4-en-2-ol
_symmetry_cell_setting           orthorhombic
_symmetry_space_group_name_H-M   'P 21 21 21'
_symmetry_Int_Tables_number      19
_space_group_name_Hall           'P 2ac 2ab'
loop_
_symmetry_equiv_pos_site_id
_symmetry_equiv_pos_as_xyz
1 x,y,z
2 1/2-x,-y,1/2+z
3 1/2+x,1/2-y,-z
4 -x,1/2+y,1/2-z
_cell_length_a                   9.1474(5)
_cell_length_b                   12.8943(8)
_cell_length_c                   13.7833(8)
_cell_angle_alpha                90
_cell_angle_beta                 90
_cell_angle_gamma                90
_cell_volume                     1625.73
_exptl_crystal_colour            colorless
_exptl_crystal_description       irregular
_chemical_melting_point          109deg.C
_cell_formula_units_Z            4
loop_
_atom_site_label
_atom_site_type_symbol
_atom_site_fract_x
_atom_site_fract_y
_atom_site_fract_z
S1 S 0.2959(1) 0.6115(1) 0.6316(1)
O1 O 0.2342(3) 0.5218(2) 0.6796(3)
O2 O -0.2705(4) 0.6056(4) 0.5464(3)
N1 N 0.4195(4) 0.5997(4) 0.5564(3)
C1 C 0.1549(5) 0.6857(4) 0.5802(4)
C2 C 0.0121(5) 0.6785(4) 0.5969(4)
C3 C -0.0763(5) 0.6101(5) 0.6637(3)
C4 C -0.1762(6) 0.5404(5) 0.6034(4)
C5 C -0.0902(8) 0.4698(5) 0.5378(6)
C6 C -0.1612(6) 0.6777(6) 0.7352(5)
C7 C -0.2446(8) 0.6095(8) 0.8062(6)
C8 C -0.073(1) 0.7499(8) 0.7894(6)
C9 C 0.3757(6) 0.5495(5) 0.4653(5)
C10 C 0.3713(5) 0.6969(4) 0.7197(4)
C11 C 0.3413(7) 0.6765(5) 0.8155(5)
C12 C 0.3947(9) 0.7459(8) 0.8845(5)
C13 C 0.4743(8) 0.8332(7) 0.8559(7)
C14 C 0.4980(8) 0.8473(5) 0.7615(7)
C15 C 0.4520(6) 0.7810(5) 0.6931(5)
H1 H -0.3155 0.5711 0.5357
H2 H -0.2373 0.4897 0.6461
H3 H -0.2272 0.7275 0.6961
H4 H -0.0077 0.5628 0.7041
H5 H -0.0566 0.7282 0.5561
H6 H 0.1865 0.7404 0.5299
H7 H 0.2770 0.6129 0.8400
H8 H 0.3818 0.7365 0.9563
H9 H 0.5114 0.8870 0.9077
H10 H 0.5656 0.9081 0.7431
H11 H 0.4739 0.7946 0.6237
H12 H -0.0008 0.7092 0.8292
H13 H -0.0143 0.7953 0.7429
H14 H -0.1262 0.7980 0.8341
H15 H -0.3156 0.5616 0.7701
H16 H -0.1770 0.5635 0.8447
H17 H -0.3029 0.6540 0.8517
H18 H -0.0317 0.5136 0.4921
H19 H -0.0228 0.4247 0.5763
H20 H -0.1559 0.4230 0.4976
H21 H 0.3413 0.4771 0.4798
H22 H 0.2976 0.5895 0.4334
H23 H 0.4578 0.5404 0.4142
loop_
_geom_bond_atom_site_label_1
_geom_bond_atom_site_label_2
_geom_bond_site_symmetry_1
_geom_bond_site_symmetry_2
S1 O1 1_555 1_555
O2 C4 1_555 1_555
N1 S1 1_555 1_555
C1 S1 1_555 1_555
C2 C1 1_555 1_555
C3 C2 1_555 1_555
C4 C3 1_555 1_555
C5 C4 1_555 1_555
C6 C3 1_555 1_555
C7 C6 1_555 1_555
C8 C6 1_555 1_555
C9 N1 1_555 1_555
C10 S1 1_555 1_555
C11 C10 1_555 1_555
C12 C11 1_555 1_555
C13 C12 1_555 1_555
C14 C13 1_555 1_555
C15 C10 1_555 1_555
H1 O2 1_555 1_555
H2 C4 1_555 1_555
H3 C6 1_555 1_555
H4 C3 1_555 1_555
H5 C2 1_555 1_555
H6 C1 1_555 1_555
H7 C11 1_555 1_555
H8 C12 1_555 1_555
H9 C13 1_555 1_555
H10 C14 1_555 1_555
H11 C15 1_555 1_555
H12 C8 1_555 1_555
H13 C8 1_555 1_555
H14 C8 1_555 1_555
H15 C7 1_555 1_555
H16 C7 1_555 1_555
H17 C7 1_555 1_555
H18 C5 1_555 1_555
H19 C5 1_555 1_555
H20 C5 1_555 1_555
H21 C9 1_555 1_555
H22 C9 1_555 1_555
H23 C9 1_555 1_555
C14 C15 1_555 1_555

#END
