
#######################################################################
#
#                 Cambridge Crystallographic Data Centre
#                                CCDC 
#
#######################################################################
#
# If this CIF has been generated from an entry in the Cambridge 
# Structural Database, then it will include bibliographic, chemical, 
# crystal, experimental, refinement or atomic coordinate data resulting 
# from the CCDC's data processing and validation procedures.
#
#######################################################################

data_GUMXOB
_chemical_formula_moiety         'C20 H25 N1 O2 S1'
_chemical_name_systematic        
(-)-(Z)-(1R,2R)-2-Isopropyl-4-[(S)-N-methyl-S-phenylsulfonimidoyl]-1-phenylbut-3-en-1-ol
_symmetry_cell_setting           orthorhombic
_symmetry_space_group_name_H-M   'P 21 21 21'
_symmetry_Int_Tables_number      19
_space_group_name_Hall           'P 2ac 2ab'
loop_
_symmetry_equiv_pos_site_id
_symmetry_equiv_pos_as_xyz
1 x,y,z
2 1/2-x,-y,1/2+z
3 1/2+x,1/2-y,-z
4 -x,1/2+y,1/2-z
_cell_length_a                   8.951(1)
_cell_length_b                   9.846(2)
_cell_length_c                   21.544(2)
_cell_angle_alpha                90
_cell_angle_beta                 90
_cell_angle_gamma                90
_cell_volume                     1898.71
_exptl_crystal_colour            colorless
_exptl_crystal_description       irregular
_chemical_melting_point          152deg.C
_cell_formula_units_Z            4
_exptl_crystal_recrystallization_method 'diethyl ether'
loop_
_atom_site_label
_atom_site_type_symbol
_atom_site_fract_x
_atom_site_fract_y
_atom_site_fract_z
S1 S 1.0523(1) 0.2548(1) 0.37287(7)
N1 N 1.1663(5) 0.3503(4) 0.4046(3)
O1 O 0.4648(3) 0.3514(4) 0.4246(2)
O2 O 0.9941(3) 0.2850(4) 0.3111(2)
C1 C 0.5600(5) 0.3965(5) 0.3776(2)
C2 C 0.6687(5) 0.2842(5) 0.3571(2)
C3 C 0.7551(4) 0.2408(6) 0.4155(2)
C4 C 0.9027(5) 0.2266(6) 0.4252(2)
C5 C 0.5857(6) 0.1577(6) 0.3327(3)
C6 C 0.6993(7) 0.0482(6) 0.3086(4)
C7 C 0.4798(6) 0.1945(6) 0.2793(3)
C8 C 0.6353(6) 0.5258(6) 0.3940(3)
C9 C 0.5961(8) 0.5981(7) 0.4482(3)
C10 C 0.667(1) 0.7196(8) 0.4581(4)
C11 C 0.771(1) 0.7739(8) 0.4211(5)
C12 C 0.8071(9) 0.7093(7) 0.3703(4)
C13 C 0.7430(7) 0.5822(6) 0.3528(3)
C14 C 1.1448(5) 0.0950(5) 0.3723(3)
C15 C 1.1165(6) 0.0045(7) 0.3209(3)
C16 C 1.1849(8) -0.1140(6) 0.3178(3)
C17 C 1.2826(7) -0.1551(6) 0.3651(4)
C18 C 1.3093(6) -0.0674(6) 0.4149(3)
C19 C 1.2395(6) 0.0581(5) 0.4176(2)
C20 C 1.1161(7) 0.4798(6) 0.4237(4)
H1 H 0.4926 0.4231 0.3403
H2 H 0.7360 0.3197 0.3219
H3 H 0.5262 0.1119 0.3672
H4 H 0.9311 0.1933 0.4695
H5 H 0.6884 0.2210 0.4534
H6 H 0.5218 0.5577 0.4789
H7 H 0.6342 0.7838 0.4939
H8 H 0.8320 0.8578 0.4304
H9 H 0.8811 0.7580 0.3421
H10 H 0.7733 0.5320 0.3122
H11 H 1.0405 0.0348 0.2868
H12 H 1.1647 -0.1752 0.2824
H13 H 1.3391 -0.2454 0.3595
H14 H 1.3750 -0.1004 0.4513
H15 H 1.2624 0.1234 0.4523
H16 H 1.0298 0.4687 0.4556
H17 H 1.0740 0.5329 0.3882
H18 H 1.1862 0.5469 0.4462
H19 H 0.7755 0.0233 0.3414
H20 H 0.7613 0.0896 0.2722
H21 H 0.6510 -0.0350 0.2927
H22 H 0.5383 0.2331 0.2419
H23 H 0.4037 0.2631 0.2912
H24 H 0.4242 0.1110 0.2619
H25 H 0.5299 0.3252 0.4613
loop_
_geom_bond_atom_site_label_1
_geom_bond_atom_site_label_2
_geom_bond_site_symmetry_1
_geom_bond_site_symmetry_2
S1 N1 1_555 1_555
N1 C20 1_555 1_555
O1 C1 1_555 1_555
O2 S1 1_555 1_555
C1 C2 1_555 1_555
C2 C3 1_555 1_555
C3 C4 1_555 1_555
C4 S1 1_555 1_555
C5 C2 1_555 1_555
C6 C5 1_555 1_555
C7 C5 1_555 1_555
C8 C1 1_555 1_555
C9 C8 1_555 1_555
C10 C9 1_555 1_555
C11 C10 1_555 1_555
C12 C11 1_555 1_555
C13 C8 1_555 1_555
C14 S1 1_555 1_555
C15 C14 1_555 1_555
C16 C15 1_555 1_555
C17 C16 1_555 1_555
C18 C17 1_555 1_555
C19 C14 1_555 1_555
C20 H16 1_555 1_555
H1 C1 1_555 1_555
H2 C2 1_555 1_555
H3 C5 1_555 1_555
H4 C4 1_555 1_555
H5 C3 1_555 1_555
H6 C9 1_555 1_555
H7 C10 1_555 1_555
H8 C11 1_555 1_555
H9 C12 1_555 1_555
H10 C13 1_555 1_555
H11 C15 1_555 1_555
H12 C16 1_555 1_555
H13 C17 1_555 1_555
H14 C18 1_555 1_555
H15 C19 1_555 1_555
H17 C20 1_555 1_555
H18 C20 1_555 1_555
H19 C6 1_555 1_555
H20 C6 1_555 1_555
H21 C6 1_555 1_555
H22 C7 1_555 1_555
H23 C7 1_555 1_555
H24 C7 1_555 1_555
H25 O1 1_555 1_555
C12 C13 1_555 1_555
C18 C19 1_555 1_555

#END
