
#######################################################################
#
#                 Cambridge Crystallographic Data Centre
#                                CCDC 
#
#######################################################################
#
# If this CIF has been generated from an entry in the Cambridge 
# Structural Database, then it will include bibliographic, chemical, 
# crystal, experimental, refinement or atomic coordinate data resulting 
# from the CCDC's data processing and validation procedures.
#
#######################################################################

data_GUMXAO
_chemical_formula_moiety         'C8 H7 Cl1 O3'
_chemical_name_systematic        '(2-Chlorophenyl)(hydroxy)acetic acid'
_symmetry_cell_setting           monoclinic
_symmetry_space_group_name_H-M   'P 21/c'
_symmetry_Int_Tables_number      14
_space_group_name_Hall           '-P 2ybc'
loop_
_symmetry_equiv_pos_site_id
_symmetry_equiv_pos_as_xyz
1 x,y,z
2 -x,1/2+y,1/2-z
3 -x,-y,-z
4 x,1/2-y,1/2+z
_cell_length_a                   14.1961(7)
_cell_length_b                   8.0521(4)
_cell_length_c                   14.4453(5)
_cell_angle_alpha                90
_cell_angle_beta                 99.177(3)
_cell_angle_gamma                90
_cell_volume                     1630.08
_exptl_crystal_colour            colorless
_exptl_crystal_description       plate
_cell_formula_units_Z            8
_exptl_crystal_recrystallization_method methanol
loop_
_atom_site_label
_atom_site_type_symbol
_atom_site_fract_x
_atom_site_fract_y
_atom_site_fract_z
Cl1 Cl 0.75686(6) 0.61806(11) 0.28331(5)
C1 C 0.7951(2) 0.6516(3) 0.4031(2)
C2 C 0.72941(18) 0.6766(3) 0.46199(19)
C3 C 0.7650(2) 0.7003(4) 0.5580(2)
H1 H 0.7221 0.7183 0.6012
C4 C 0.86276(19) 0.6974(4) 0.5894(2)
H2 H 0.8860 0.7106 0.6544
C5 C 0.9247(2) 0.6763(4) 0.5296(3)
H3 H 0.9913 0.6791 0.5522
C6 C 0.8924(2) 0.6502(4) 0.4344(2)
H4 H 0.9361 0.6319 0.3921
C7 C 0.62293(18) 0.6666(3) 0.43140(19)
H5 H 0.6102 0.6688 0.3613
O1 O 0.58795(13) 0.5139(2) 0.46106(13)
H6 H 0.5900 0.5154 0.5195
C8 C 0.57097(17) 0.8126(3) 0.46655(17)
O2 O 0.59219(14) 0.9530(2) 0.42920(14)
H7 H 0.5570 1.0288 0.4446
O3 O 0.51413(13) 0.7992(2) 0.52090(12)
Cl2 Cl 0.86645(5) 0.05582(11) 0.34419(5)
C9 C 0.83195(17) 0.1696(3) 0.24151(17)
C10 C 0.73742(16) 0.1751(3) 0.19954(16)
C11 C 0.71548(18) 0.2646(3) 0.11604(17)
H8 H 0.6511 0.2704 0.0856
C12 C 0.78565(19) 0.3450(4) 0.07688(18)
H9 H 0.7694 0.4047 0.0199
C13 C 0.87906(19) 0.3382(4) 0.1207(2)
H10 H 0.9273 0.3937 0.0940
C14 C 0.90279(18) 0.2512(4) 0.20306(19)
H11 H 0.9672 0.2470 0.2335
C15 C 0.65700(17) 0.0918(3) 0.24028(17)
H12 H 0.6840 0.0055 0.2869
O4 O 0.59436(13) 0.0156(2) 0.16606(13)
H13 H 0.5587 -0.0516 0.1883
C16 C 0.60583(17) 0.2251(3) 0.28917(17)
O5 O 0.65741(12) 0.2696(2) 0.36928(12)
H14 H 0.6285 0.3437 0.3946
O6 O 0.52833(13) 0.2824(3) 0.25796(13)
loop_
_geom_bond_atom_site_label_1
_geom_bond_atom_site_label_2
_geom_bond_site_symmetry_1
_geom_bond_site_symmetry_2
Cl1 C1 1_555 1_555
C1 C2 1_555 1_555
C2 C3 1_555 1_555
C3 H1 1_555 1_555
C4 C3 1_555 1_555
H2 C4 1_555 1_555
C5 C4 1_555 1_555
H3 C5 1_555 1_555
C6 C1 1_555 1_555
H4 C6 1_555 1_555
C7 C2 1_555 1_555
H5 C7 1_555 1_555
O1 C7 1_555 1_555
H6 O1 1_555 1_555
C8 C7 1_555 1_555
O2 C8 1_555 1_555
H7 O2 1_555 1_555
O3 C8 1_555 1_555
Cl2 C9 1_555 1_555
C9 C10 1_555 1_555
C10 C11 1_555 1_555
C11 H8 1_555 1_555
C12 C11 1_555 1_555
H9 C12 1_555 1_555
C13 C12 1_555 1_555
H10 C13 1_555 1_555
C14 C9 1_555 1_555
H11 C14 1_555 1_555
C15 C10 1_555 1_555
H12 C15 1_555 1_555
O4 C15 1_555 1_555
H13 O4 1_555 1_555
C16 C15 1_555 1_555
O5 C16 1_555 1_555
H14 O5 1_555 1_555
O6 C16 1_555 1_555
C5 C6 1_555 1_555
C13 C14 1_555 1_555

#END
