
#######################################################################
#
#                 Cambridge Crystallographic Data Centre
#                                CCDC 
#
#######################################################################
#
# If this CIF has been generated from an entry in the Cambridge 
# Structural Database, then it will include bibliographic, chemical, 
# crystal, experimental, refinement or atomic coordinate data resulting 
# from the CCDC's data processing and validation procedures.
#
#######################################################################

data_GUMYIW
_chemical_formula_moiety         'C21 H25 N1 O2 S1'
_chemical_name_systematic        
(-)-(Z)-(R)-1-[(R)-2-(((S)-N-Methyl-S-phenylsulfonimidoyl)methylene)cyclohexyl]-1-phenylmethanol
_symmetry_cell_setting           orthorhombic
_symmetry_space_group_name_H-M   'P 21 21 21'
_symmetry_Int_Tables_number      19
_space_group_name_Hall           'P 2ac 2ab'
loop_
_symmetry_equiv_pos_site_id
_symmetry_equiv_pos_as_xyz
1 x,y,z
2 1/2-x,-y,1/2+z
3 1/2+x,1/2-y,-z
4 -x,1/2+y,1/2-z
_cell_length_a                   5.8355(4)
_cell_length_b                   11.352(1)
_cell_length_c                   28.217(6)
_cell_angle_alpha                90
_cell_angle_beta                 90
_cell_angle_gamma                90
_cell_volume                     1869.22
_exptl_crystal_colour            colorless
_exptl_crystal_description       irregular
_chemical_melting_point          149deg.C
_cell_formula_units_Z            4
_exptl_crystal_recrystallization_method 'diethyl ether'
loop_
_atom_site_label
_atom_site_type_symbol
_atom_site_fract_x
_atom_site_fract_y
_atom_site_fract_z
S1 S 0.1288(2) 0.39416(6) 0.72429(3)
O1 O 0.3101(5) 0.3067(2) 0.72762(9)
O2 O -0.1171(5) 0.5667(2) 0.62435(8)
N1 N 0.1705(6) 0.5143(2) 0.7013(1)
C1 C -0.1079(7) 0.3365(3) 0.6946(1)
C2 C -0.1323(7) 0.3278(2) 0.6475(1)
C3 C -0.3473(7) 0.2751(3) 0.6273(1)
C4 C -0.2915(7) 0.1753(3) 0.5922(1)
C5 C -0.1307(7) 0.2204(3) 0.5533(1)
C6 C 0.0866(6) 0.2723(3) 0.5745(1)
C7 C 0.0392(6) 0.3698(2) 0.6115(1)
C8 C -0.0493(6) 0.4849(3) 0.5886(1)
C9 C 0.1280(7) 0.5390(2) 0.5561(1)
C10 C 0.0956(6) 0.5407(2) 0.5071(1)
C11 C 0.2577(7) 0.5908(3) 0.4772(1)
C12 C 0.4536(7) 0.6408(3) 0.4957(1)
C13 C 0.4917(7) 0.6388(3) 0.5446(1)
C14 C 0.3300(6) 0.5880(3) 0.5740(1)
C15 C 0.0172(6) 0.4105(3) 0.7829(1)
C16 C 0.0616(7) 0.3269(3) 0.8173(1)
C17 C -0.0411(8) 0.3375(3) 0.8612(1)
C18 C -0.1848(8) 0.4312(3) 0.8704(1)
C19 C -0.2277(8) 0.5157(3) 0.8361(1)
C20 C -0.1230(8) 0.5058(3) 0.7919(1)
C21 C 0.3673(8) 0.5831(3) 0.7196(1)
H1 H -0.0118 0.2766 0.8857
H2 H -0.2131 0.1089 0.6040
H3 H 0.3445 0.5830 0.6114
H4 H 0.1673 0.3124 0.5479
H5 H 0.1684 0.2041 0.5927
H6 H -0.1311 0.5668 0.7646
H7 H -0.1628 0.4635 0.5604
H8 H 0.3692 0.5646 0.7586
H9 H 0.5864 0.6840 0.4780
H10 H -0.2128 0.2930 0.5378
H11 H -0.3050 0.5938 0.8463
H12 H 0.2537 0.5874 0.4411
H13 H -0.4192 0.1342 0.5759
H14 H -0.4124 0.3365 0.6103
H15 H -0.0712 0.5382 0.6552
H16 H -0.0871 0.1499 0.5331
H17 H -0.2292 0.3142 0.7169
H18 H -0.4516 0.2483 0.6550
H19 H -0.0397 0.5040 0.5000
H20 H 0.5000 0.5495 0.7209
H21 H 0.3133 0.6638 0.7123
H22 H 0.1744 0.3910 0.6298
H23 H -0.2564 0.4402 0.9035
H24 H 0.1468 0.2597 0.8087
H25 H 0.6322 0.6807 0.5604
loop_
_geom_bond_atom_site_label_1
_geom_bond_atom_site_label_2
_geom_bond_site_symmetry_1
_geom_bond_site_symmetry_2
S1 O1 1_555 1_555
O2 C8 1_555 1_555
N1 S1 1_555 1_555
C1 S1 1_555 1_555
C2 C1 1_555 1_555
C3 C2 1_555 1_555
C4 C3 1_555 1_555
C5 C4 1_555 1_555
C6 C5 1_555 1_555
C7 C2 1_555 1_555
C8 C7 1_555 1_555
C9 C8 1_555 1_555
C10 C9 1_555 1_555
C11 C10 1_555 1_555
C12 C11 1_555 1_555
C13 C12 1_555 1_555
C14 C9 1_555 1_555
C15 S1 1_555 1_555
C16 C15 1_555 1_555
C17 C16 1_555 1_555
C18 C17 1_555 1_555
C19 C18 1_555 1_555
C20 C15 1_555 1_555
C21 N1 1_555 1_555
H1 C17 1_555 1_555
H2 C4 1_555 1_555
H3 C14 1_555 1_555
H4 C6 1_555 1_555
H5 C6 1_555 1_555
H6 C20 1_555 1_555
H7 C8 1_555 1_555
H8 C21 1_555 1_555
H9 C12 1_555 1_555
H10 C5 1_555 1_555
H11 C19 1_555 1_555
H12 C11 1_555 1_555
H13 C4 1_555 1_555
H14 C3 1_555 1_555
H15 O2 1_555 1_555
H16 C5 1_555 1_555
H17 C1 1_555 1_555
H18 C3 1_555 1_555
H19 C10 1_555 1_555
H20 C21 1_555 1_555
H21 C21 1_555 1_555
H22 C7 1_555 1_555
H23 C18 1_555 1_555
H24 C16 1_555 1_555
H25 C13 1_555 1_555
C6 C7 1_555 1_555
C13 C14 1_555 1_555
C19 C20 1_555 1_555

#END
