
#######################################################################
#
#                 Cambridge Crystallographic Data Centre
#                                CCDC 
#
#######################################################################
#
# If this CIF has been generated from an entry in the Cambridge 
# Structural Database, then it will include bibliographic, chemical, 
# crystal, experimental, refinement or atomic coordinate data resulting 
# from the CCDC's data processing and validation procedures.
#
#######################################################################

data_GUNCUP
_chemical_name_common            
'1-Phenyl-3-(pyren-1-yl)prop-2-en-1-one hemikis(7,7,8,8-tetracyanoquinodimethane)'
_chemical_formula_moiety         'C25 H16 O1,0.5(C12 H4 N4)'
_chemical_name_systematic        
"1-Phenyl-3-(pyren-1-yl)prop-2-en-1-one hemikis(2,2'-cyclohexa-2,5-diene-1,4-diylidenedimalononitrile)"
_symmetry_cell_setting           monoclinic
_symmetry_space_group_name_H-M   'P 21/c'
_symmetry_Int_Tables_number      14
_space_group_name_Hall           '-P 2ybc'
loop_
_symmetry_equiv_pos_site_id
_symmetry_equiv_pos_as_xyz
1 x,y,z
2 -x,1/2+y,1/2-z
3 -x,-y,-z
4 x,1/2-y,1/2+z
_cell_length_a                   12.335(3)
_cell_length_b                   10.607(2)
_cell_length_c                   17.974(4)
_cell_angle_alpha                90
_cell_angle_beta                 106.33(3)
_cell_angle_gamma                90
_cell_volume                     2256.8
_exptl_crystal_colour            black
_exptl_crystal_description       needle
_cell_formula_units_Z            4
loop_
_atom_site_label
_atom_site_type_symbol
_atom_site_fract_x
_atom_site_fract_y
_atom_site_fract_z
O1 O 0.7827(2) 0.1486(3) 0.77469(17)
C1 C 0.5671(3) 0.0786(4) 0.7767(2)
H1 H 0.6071 0.1319 0.8159
C2 C 0.4667(4) 0.0280(5) 0.7809(3)
H2 H 0.4386 0.0482 0.8223
C3 C 0.4083(4) -0.0515(5) 0.7247(3)
H3 H 0.3404 -0.0861 0.7278
C4 C 0.4494(4) -0.0809(4) 0.6634(3)
H4 H 0.4100 -0.1367 0.6255
C5 C 0.5496(3) -0.0275(4) 0.6578(2)
H5 H 0.5760 -0.0452 0.6153
C6 C 0.6099(3) 0.0519(4) 0.7154(2)
C7 C 0.7204(3) 0.1052(4) 0.7146(2)
C8 C 0.7542(3) 0.1075(3) 0.6429(2)
H6 H 0.7009 0.0871 0.5965
C9 C 0.8576(3) 0.1374(3) 0.6416(2)
H7 H 0.9079 0.1569 0.6894
C10 C 0.9033(3) 0.1439(3) 0.5756(2)
C11 C 0.8347(3) 0.1171(3) 0.5010(3)
H8 H 0.7602 0.0927 0.4947
C12 C 0.8734(4) 0.1256(3) 0.4367(2)
H9 H 0.8247 0.1081 0.3880
C13 C 0.9845(4) 0.1599(3) 0.4434(2)
C14 C 1.0585(3) 0.1855(3) 0.5185(2)
C15 C 1.0171(3) 0.1766(3) 0.5842(2)
C16 C 1.0267(4) 0.1704(4) 0.3773(2)
H10 H 0.9784 0.1550 0.3281
C17 C 1.1344(5) 0.2018(4) 0.3847(3)
H11 H 1.1597 0.2075 0.3407
C18 C 1.2113(5) 0.2270(3) 0.4594(3)
C19 C 1.1725(4) 0.2183(3) 0.5259(2)
C20 C 1.3244(5) 0.2604(4) 0.4684(3)
H12 H 1.3511 0.2667 0.4251
C21 C 1.3959(4) 0.2837(5) 0.5410(4)
H13 H 1.4706 0.3060 0.5463
C22 C 1.3582(4) 0.2744(4) 0.6054(3)
H14 H 1.4082 0.2897 0.6539
C23 C 1.2477(4) 0.2427(4) 0.6003(3)
C24 C 1.2042(3) 0.2331(4) 0.6645(2)
H15 H 1.2525 0.2479 0.7137
C25 C 1.0961(3) 0.2036(4) 0.6581(2)
H16 H 1.0717 0.2004 0.7025
N1 N 0.6268(3) 0.3646(4) 0.4729(2)
N2 N 0.8316(3) 0.4724(4) 0.7017(2)
C26 C 0.9864(3) 0.4864(3) 0.4203(2)
H17 H 0.9784 0.4773 0.3675
C27 C 0.8982(3) 0.4615(3) 0.44816(19)
H18 H 0.8299 0.4361 0.4142
C28 C 0.9072(3) 0.4734(3) 0.5292(2)
C29 C 0.8176(3) 0.4479(3) 0.5579(2)
C30 C 0.7116(4) 0.4030(4) 0.5101(2)
C31 C 0.8246(3) 0.4611(4) 0.6378(3)
N1B N 1.3732(3) 0.6354(4) 0.5271(2)
N2B N 1.1684(3) 0.5276(4) 0.2983(2)
C26B C 1.0136(3) 0.5136(3) 0.5797(2)
H17B H 1.0216 0.5227 0.6325
C27B C 1.1018(3) 0.5385(3) 0.55184(19)
H18B H 1.1701 0.5639 0.5858
C28B C 1.0928(3) 0.5266(3) 0.4708(2)
C29B C 1.1824(3) 0.5521(3) 0.4421(2)
C30B C 1.2884(4) 0.5970(4) 0.4899(2)
C31B C 1.1754(3) 0.5389(4) 0.3622(3)
loop_
_geom_bond_atom_site_label_1
_geom_bond_atom_site_label_2
_geom_bond_site_symmetry_1
_geom_bond_site_symmetry_2
O1 C7 1_555 1_555
C1 H1 1_555 1_555
C2 C1 1_555 1_555
H2 C2 1_555 1_555
C3 C2 1_555 1_555
H3 C3 1_555 1_555
C4 C3 1_555 1_555
H4 C4 1_555 1_555
C5 C4 1_555 1_555
H5 C5 1_555 1_555
C6 C1 1_555 1_555
C7 C6 1_555 1_555
C8 C7 1_555 1_555
H6 C8 1_555 1_555
C9 C8 1_555 1_555
H7 C9 1_555 1_555
C10 C9 1_555 1_555
C11 C10 1_555 1_555
H8 C11 1_555 1_555
C12 C11 1_555 1_555
H9 C12 1_555 1_555
C13 C12 1_555 1_555
C14 C13 1_555 1_555
C15 C10 1_555 1_555
C16 C13 1_555 1_555
H10 C16 1_555 1_555
C17 C16 1_555 1_555
H11 C17 1_555 1_555
C18 C17 1_555 1_555
C19 C14 1_555 1_555
C20 C18 1_555 1_555
H12 C20 1_555 1_555
C21 C20 1_555 1_555
H13 C21 1_555 1_555
C22 C21 1_555 1_555
H14 C22 1_555 1_555
C23 C19 1_555 1_555
C24 C23 1_555 1_555
H15 C24 1_555 1_555
C25 C15 1_555 1_555
H16 C25 1_555 1_555
N1 C30 1_555 1_555
N2 C31 1_555 1_555
C26 H17 1_555 1_555
C27 C26 1_555 1_555
H18 C27 1_555 1_555
C28 C27 1_555 1_555
C29 C28 1_555 1_555
C30 C29 1_555 1_555
C31 C29 1_555 1_555
N1B C30B 1_555 1_555
N2B C31B 1_555 1_555
C26B C28 1_555 1_555
H17B C26B 1_555 1_555
C27B C26B 1_555 1_555
H18B C27B 1_555 1_555
C28B C26 1_555 1_555
C29B C28B 1_555 1_555
C30B C29B 1_555 1_555
C31B C29B 1_555 1_555
C5 C6 1_555 1_555
C14 C15 1_555 1_555
C18 C19 1_555 1_555
C22 C23 1_555 1_555
C24 C25 1_555 1_555
C27B C28B 1_555 1_555

#END
