
#######################################################################
#
#                 Cambridge Crystallographic Data Centre
#                                CCDC 
#
#######################################################################
#
# If this CIF has been generated from an entry in the Cambridge 
# Structural Database, then it will include bibliographic, chemical, 
# crystal, experimental, refinement or atomic coordinate data resulting 
# from the CCDC's data processing and validation procedures.
#
#######################################################################

data_GUNDIE
_chemical_name_common            
'1-Phenyl-3-(pyren-1-yl)prop-2-en-1-one hemikis7,7,8,8-tetracyanoquinodimethane 1,4-dichlorobenzene solvate'
_chemical_formula_moiety         'C25 H16 O1,C12 H4 N4,0.5(C6 H4 Cl2)'
_chemical_name_systematic        
"1-Phenyl-3-(pyren-1-yl)prop-2-en-1-one 2,2'-cyclohexa-2,5-diene-1,4-diylidenedimalononitrile 1,4-dichlorobenzene solvate"
_symmetry_cell_setting           triclinic
_symmetry_space_group_name_H-M   'P -1'
_symmetry_Int_Tables_number      2
_space_group_name_Hall           '-P 1'
loop_
_symmetry_equiv_pos_site_id
_symmetry_equiv_pos_as_xyz
1 x,y,z
2 -x,-y,-z
_cell_length_a                   11.306(2)
_cell_length_b                   11.395(2)
_cell_length_c                   13.377(3)
_cell_angle_alpha                72.38(3)
_cell_angle_beta                 76.89(3)
_cell_angle_gamma                69.92(3)
_cell_volume                     1528.08
_exptl_crystal_colour            black
_exptl_crystal_description       needle
_cell_formula_units_Z            2
loop_
_atom_site_label
_atom_site_type_symbol
_atom_site_fract_x
_atom_site_fract_y
_atom_site_fract_z
O1 O 0.2220(10) 0.5691(9) 0.0312(8)
C1 C 0.0526(12) 0.1727(12) 0.1943(9)
C2 C -0.0639(13) 0.2730(13) 0.1926(9)
H1 H -0.0610 0.3577 0.1704
C3 C -0.1788(14) 0.2523(13) 0.2213(9)
H2 H -0.2527 0.3215 0.2198
C4 C -0.1856(14) 0.1239(13) 0.2538(9)
C5 C -0.0763(13) 0.0173(12) 0.2615(9)
C6 C 0.0421(12) 0.0442(12) 0.2284(8)
C7 C -0.3054(14) 0.0937(14) 0.2874(10)
H3 H -0.3812 0.1604 0.2854
C8 C -0.3085(16) -0.0311(17) 0.3218(10)
H4 H -0.3862 -0.0486 0.3436
C9 C -0.1974(16) -0.1309(14) 0.3243(9)
H5 H -0.2006 -0.2154 0.3462
C10 C -0.0823(14) -0.1074(15) 0.2950(10)
C11 C 0.0336(15) -0.2118(14) 0.2977(10)
H6 H 0.0303 -0.2964 0.3186
C12 C 0.1464(14) -0.1888(13) 0.2706(9)
H7 H 0.2202 -0.2581 0.2750
C13 C 0.1567(13) -0.0609(14) 0.2350(9)
C14 C 0.2715(13) -0.0311(12) 0.2017(9)
H8 H 0.3470 -0.0980 0.2000
C15 C 0.2773(12) 0.0938(12) 0.1712(9)
H9 H 0.3558 0.1096 0.1519
C16 C 0.1684(12) 0.1942(13) 0.1691(9)
C17 C 0.1779(13) 0.3255(13) 0.1331(9)
H10 H 0.1104 0.3901 0.1026
C18 C 0.2784(13) 0.3597(13) 0.1410(9)
H11 H 0.3437 0.2971 0.1760
C19 C 0.2891(17) 0.4905(15) 0.0972(12)
C20 C 0.3774(14) 0.5327(15) 0.1359(12)
C21 C 0.4217(13) 0.6339(12) 0.0710(11)
H12 H 0.3965 0.6731 0.0042
C22 C 0.5028(14) 0.6770(14) 0.1044(13)
H13 H 0.5319 0.7449 0.0605
C23 C 0.5405(13) 0.6182(17) 0.2040(15)
H14 H 0.5930 0.6475 0.2286
C24 C 0.4980(16) 0.5146(14) 0.2661(13)
H15 H 0.5229 0.4735 0.3328
C25 C 0.4214(13) 0.4737(13) 0.2304(12)
H16 H 0.3974 0.4017 0.2723
C26 C 1.000(3) 0.547(2) 0.5848(16)
H17 H 1.0070 0.5734 0.6421
C27 C 0.890(2) 0.5589(18) 0.5622(18)
H18 H 0.8130 0.5988 0.5977
C28 C 0.902(3) 0.502(2) 0.474(2)
Cl1 Cl 0.7486(9) 0.5224(7) 0.4541(7)
C26A C 1.000(3) 0.453(2) 0.4152(16)
H17A H 0.9930 0.4266 0.3579
C27A C 1.110(2) 0.4411(18) 0.4378(18)
H18A H 1.1870 0.4012 0.4023
C28A C 1.098(3) 0.498(2) 0.526(2)
Cl1A Cl 1.2514(9) 0.4776(7) 0.5459(7)
N1 N 0.4224(13) -0.2613(12) 0.4733(12)
N2 N 0.3557(12) 0.1580(12) 0.3925(10)
C29 C 0.3520(14) -0.1580(16) 0.4636(12)
C30 C 0.2605(14) -0.0372(13) 0.4570(10)
C31 C 0.3159(14) 0.0686(13) 0.4192(11)
C32 C 0.1315(11) -0.0211(13) 0.4800(9)
C33 C 0.0455(12) 0.1065(11) 0.4658(8)
H19 H 0.0774 0.1768 0.4426
C34 C -0.0797(12) 0.1261(12) 0.4853(8)
H20 H -0.1340 0.2099 0.4761
N1A N -0.4224(13) 0.2613(12) 0.5267(12)
N2A N -0.3557(12) -0.1580(12) 0.6075(10)
C29A C -0.3520(14) 0.1580(16) 0.5364(12)
C30A C -0.2605(14) 0.0372(13) 0.5430(10)
C31A C -0.3159(14) -0.0686(13) 0.5808(11)
C32A C -0.1315(11) 0.0211(13) 0.5200(9)
C33A C -0.0455(12) -0.1065(11) 0.5342(8)
H19A H -0.0774 -0.1768 0.5574
C34A C 0.0797(12) -0.1261(12) 0.5147(8)
H20A H 0.1340 -0.2099 0.5239
N3 N -0.1050(12) -0.3908(11) 0.1366(9)
N4 N -0.4152(11) -0.0286(14) 0.0968(10)
C35 C -0.1350(15) -0.2802(14) 0.1104(10)
C36 C -0.1737(13) -0.1409(13) 0.0720(9)
C37 C -0.3061(16) -0.0807(14) 0.0846(10)
C38 C -0.0914(11) -0.0719(13) 0.0387(8)
C39 C -0.1279(12) 0.0677(11) 0.0091(9)
H21 H -0.2139 0.1132 0.0153
C40 C -0.0422(11) 0.1343(12) -0.0272(8)
H22 H -0.0712 0.2239 -0.0453
N3A N 0.1050(12) 0.3908(11) -0.1366(9)
N4A N 0.4152(11) 0.0286(14) -0.0968(10)
C35A C 0.1350(15) 0.2802(14) -0.1104(10)
C36A C 0.1737(13) 0.1409(13) -0.0720(9)
C37A C 0.3061(16) 0.0807(14) -0.0846(10)
C38A C 0.0914(11) 0.0719(13) -0.0387(8)
C39A C 0.1279(12) -0.0677(11) -0.0091(9)
H21A H 0.2139 -0.1132 -0.0153
C40A C 0.0422(11) -0.1343(12) 0.0272(8)
H22A H 0.0712 -0.2239 0.0453
loop_
_geom_bond_atom_site_label_1
_geom_bond_atom_site_label_2
_geom_bond_site_symmetry_1
_geom_bond_site_symmetry_2
O1 C19 1_555 1_555
C1 C2 1_555 1_555
C2 H1 1_555 1_555
C3 C2 1_555 1_555
H2 C3 1_555 1_555
C4 C3 1_555 1_555
C5 C4 1_555 1_555
C6 C1 1_555 1_555
C7 C4 1_555 1_555
H3 C7 1_555 1_555
C8 C7 1_555 1_555
H4 C8 1_555 1_555
C9 C8 1_555 1_555
H5 C9 1_555 1_555
C10 C5 1_555 1_555
C11 C10 1_555 1_555
H6 C11 1_555 1_555
C12 C11 1_555 1_555
H7 C12 1_555 1_555
C13 C6 1_555 1_555
C14 C13 1_555 1_555
H8 C14 1_555 1_555
C15 C14 1_555 1_555
H9 C15 1_555 1_555
C16 C1 1_555 1_555
C17 C16 1_555 1_555
H10 C17 1_555 1_555
C18 C17 1_555 1_555
H11 C18 1_555 1_555
C19 C18 1_555 1_555
C20 C19 1_555 1_555
C21 C20 1_555 1_555
H12 C21 1_555 1_555
C22 C21 1_555 1_555
H13 C22 1_555 1_555
C23 C22 1_555 1_555
H14 C23 1_555 1_555
C24 C23 1_555 1_555
H15 C24 1_555 1_555
C25 C20 1_555 1_555
H16 C25 1_555 1_555
C26 H17 1_555 1_555
C27 C26 1_555 1_555
H18 C27 1_555 1_555
C28 C27 1_555 1_555
Cl1 C28 1_555 1_555
N1 C29 1_555 1_555
N2 C31 1_555 1_555
C29 C30 1_555 1_555
C30 C31 1_555 1_555
C32 C30 1_555 1_555
C33 C32 1_555 1_555
H19 C33 1_555 1_555
C34 C33 1_555 1_555
H20 C34 1_555 1_555
N3 C35 1_555 1_555
N4 C37 1_555 1_555
C35 C36 1_555 1_555
C36 C37 1_555 1_555
C38 C36 1_555 1_555
C39 C38 1_555 1_555
H21 C39 1_555 1_555
C40 C39 1_555 1_555
H22 C40 1_555 1_555
C26A C28 1_555 1_555
H17A C26A 1_555 1_555
C27A C26A 1_555 1_555
H18A C27A 1_555 1_555
C28A C26 1_555 1_555
Cl1A C28A 1_555 1_555
N1A C29A 1_555 1_555
N2A C31A 1_555 1_555
C29A C30A 1_555 1_555
C30A C31A 1_555 1_555
C32A C34 1_555 1_555
C33A C32A 1_555 1_555
H19A C33A 1_555 1_555
C34A C32 1_555 1_555
H20A C34A 1_555 1_555
N3A C35A 1_555 1_555
N4A C37A 1_555 1_555
C35A C36A 1_555 1_555
C36A C37A 1_555 1_555
C38A C40 1_555 1_555
C39A C38A 1_555 1_555
H21A C39A 1_555 1_555
C40A C38 1_555 1_555
H22A C40A 1_555 1_555
C5 C6 1_555 1_555
C9 C10 1_555 1_555
C12 C13 1_555 1_555
C15 C16 1_555 1_555
C24 C25 1_555 1_555
C27A C28A 1_555 1_555
C30A C32A 1_555 1_555
C33A C34A 1_555 1_555
C36A C38A 1_555 1_555
C39A C40A 1_555 1_555

#END
