
#######################################################################
#
#                 Cambridge Crystallographic Data Centre
#                                CCDC 
#
#######################################################################
#
# If this CIF has been generated from an entry in the Cambridge 
# Structural Database, then it will include bibliographic, chemical, 
# crystal, experimental, refinement or atomic coordinate data resulting 
# from the CCDC's data processing and validation procedures.
#
#######################################################################

data_GUNDAW
_chemical_name_common            
'1-Phenyl-3-(pyren-1-yl)prop-2-en-1-one hemikis7,7,8,8-tetracyanoquinodimethane p-xylene solvate'
_chemical_formula_moiety         'C25 H16 O1,C12 H4 N4,0.5(C8 H10)'
_chemical_name_systematic        
"1-Phenyl-3-(pyren-1-yl)prop-2-en-1-one 2,2'-cyclohexa-2,5-diene-1,4-diylidenedimalononitrile p-xylene solvate"
_symmetry_cell_setting           triclinic
_symmetry_space_group_name_H-M   'P -1'
_symmetry_Int_Tables_number      2
_space_group_name_Hall           '-P 1'
loop_
_symmetry_equiv_pos_site_id
_symmetry_equiv_pos_as_xyz
1 x,y,z
2 -x,-y,-z
_cell_length_a                   11.345(2)
_cell_length_b                   11.415(2)
_cell_length_c                   13.446(3)
_cell_angle_alpha                72.56(3)
_cell_angle_beta                 76.89(3)
_cell_angle_gamma                70.07(3)
_cell_volume                     1546.6
_exptl_crystal_colour            black
_exptl_crystal_description       needle
_cell_formula_units_Z            2
loop_
_atom_site_label
_atom_site_type_symbol
_atom_site_fract_x
_atom_site_fract_y
_atom_site_fract_z
O1 O 0.7210(4) 1.0675(4) 0.0329(3)
C1 C 0.5502(4) 0.6730(4) 0.1948(3)
C2 C 0.4312(4) 0.7734(4) 0.1930(3)
H1 H 0.4317 0.8586 0.1731
C3 C 0.3189(4) 0.7473(5) 0.2194(4)
H2 H 0.2447 0.8151 0.2118
C4 C 0.3103(4) 0.6187(5) 0.2588(4)
C5 C 0.4253(4) 0.5175(4) 0.2611(3)
C6 C 0.5438(4) 0.5436(4) 0.2303(3)
C7 C 0.1952(5) 0.5940(5) 0.2871(4)
H3 H 0.1203 0.6612 0.2832
C8 C 0.1921(6) 0.4668(6) 0.3218(4)
H4 H 0.1146 0.4492 0.3416
C9 C 0.3019(6) 0.3680(5) 0.3268(4)
H5 H 0.2972 0.2842 0.3514
C10 C 0.4200(5) 0.3878(5) 0.2969(4)
C11 C 0.5352(5) 0.2876(5) 0.2981(4)
H6 H 0.5329 0.2030 0.3195
C12 C 0.6486(5) 0.3110(4) 0.2691(3)
H7 H 0.7221 0.2422 0.2721
C13 C 0.6582(4) 0.4380(4) 0.2342(3)
C14 C 0.7717(4) 0.4674(4) 0.2035(4)
H8 H 0.8466 0.4003 0.2045
C15 C 0.7787(4) 0.5912(5) 0.1717(4)
H9 H 0.8575 0.6058 0.1526
C16 C 0.6696(4) 0.6947(4) 0.1677(3)
C17 C 0.6820(5) 0.8262(5) 0.1315(4)
H10 H 0.6173 0.8907 0.0981
C18 C 0.7789(5) 0.8588(5) 0.1432(4)
H11 H 0.8423 0.7968 0.1798
C19 C 0.7888(5) 0.9924(5) 0.0993(4)
C20 C 0.8795(4) 1.0313(4) 0.1344(4)
C21 C 0.9200(5) 0.9724(5) 0.2321(5)
H12 H 0.8938 0.9025 0.2749
C22 C 1.0009(5) 1.0181(6) 0.2670(5)
H13 H 1.0275 0.9796 0.3328
C23 C 1.0391(6) 1.1200(7) 0.2019(7)
H14 H 1.0916 1.1511 0.2245
C24 C 1.0024(6) 1.1772(6) 0.1049(6)
H15 H 1.0320 1.2448 0.0618
C25 C 0.9211(5) 1.1357(5) 0.0695(5)
H16 H 0.8947 1.1765 0.0038
N1 N 0.3913(5) 0.1138(5) 0.1368(5)
N2 N 0.0854(5) 0.4720(6) 0.0969(4)
C26 C 0.3635(5) 0.2232(6) 0.1099(5)
C27 C 0.3253(4) 0.3600(4) 0.0739(4)
C28 C 0.1906(5) 0.4226(5) 0.0866(4)
C29 C 0.4100(4) 0.4287(4) 0.0376(3)
C30 C 0.5442(4) 0.3651(4) 0.0272(3)
H17 H 0.5732 0.2759 0.0454
C31 C 0.3715(4) 0.5666(4) 0.0086(3)
H18 H 0.2855 0.6106 0.0147
N1A N 0.6087(5) 0.8862(5) -0.1368(5)
N2A N 0.9146(5) 0.5280(6) -0.0969(4)
C26A C 0.6365(5) 0.7768(6) -0.1099(5)
C27A C 0.6747(4) 0.6400(4) -0.0739(4)
C28A C 0.8094(5) 0.5774(5) -0.0866(4)
C29A C 0.5900(4) 0.5713(4) -0.0376(3)
C30A C 0.4558(4) 0.6349(4) -0.0272(3)
H17A H 0.4268 0.7241 -0.0454
C31A C 0.6285(4) 0.4334(4) -0.0086(3)
H18A H 0.7145 0.3894 -0.0147
N3 N 0.9221(5) 0.2389(5) 0.4714(5)
N4 N 0.8581(4) 0.6520(5) 0.3930(4)
C32 C 0.8506(5) 0.3391(6) 0.4662(5)
C33 C 0.7614(4) 0.4643(5) 0.4569(4)
C34 C 0.8145(4) 0.5708(5) 0.4209(4)
C35 C 0.6330(4) 0.4810(4) 0.4776(3)
C36 C 0.5436(4) 0.6071(4) 0.4676(3)
H19 H 0.5741 0.6780 0.4473
C37 C 0.4186(4) 0.6263(4) 0.4863(4)
H20 H 0.3643 0.7097 0.4760
N3A N 0.0779(5) 0.7611(5) 0.5286(5)
N4A N 0.1419(4) 0.3480(5) 0.6070(4)
C32A C 0.1494(5) 0.6609(6) 0.5338(5)
C33A C 0.2386(4) 0.5357(5) 0.5431(4)
C34A C 0.1855(4) 0.4292(5) 0.5791(4)
C35A C 0.3670(4) 0.5190(4) 0.5224(3)
C36A C 0.4564(4) 0.3929(4) 0.5324(3)
H19A H 0.4259 0.3220 0.5527
C37A C 0.5814(4) 0.3737(4) 0.5137(4)
H20A H 0.6357 0.2903 0.5240
C38 C 0.7454(7) 0.9777(6) 0.5482(6)
H21 H 0.7331 1.0143 0.6068
H22 H 0.7903 1.0229 0.4881
H23 H 0.7935 0.8888 0.5658
C39 C 0.6185(6) 0.9892(6) 0.5229(7)
C40 C 0.6046(7) 0.9437(5) 0.4411(6)
H24 H 0.6771 0.9038 0.4010
C41 C 0.4905(8) 0.9556(5) 0.4184(5)
H25 H 0.4859 0.9260 0.3625
C38A C 0.2546(7) 1.0223(6) 0.4518(6)
H21A H 0.2669 0.9857 0.3932
H22A H 0.2097 0.9771 0.5119
H23A H 0.2065 1.1112 0.4342
C39A C 0.3815(6) 1.0108(6) 0.4771(7)
C40A C 0.3954(7) 1.0563(5) 0.5589(6)
H24A H 0.3229 1.0962 0.5990
C41A C 0.5095(8) 1.0444(5) 0.5816(5)
H25A H 0.5141 1.0740 0.6375
loop_
_geom_bond_atom_site_label_1
_geom_bond_atom_site_label_2
_geom_bond_site_symmetry_1
_geom_bond_site_symmetry_2
O1 C19 1_555 1_555
C1 C2 1_555 1_555
C2 H1 1_555 1_555
C3 C2 1_555 1_555
H2 C3 1_555 1_555
C4 C3 1_555 1_555
C5 C4 1_555 1_555
C6 C1 1_555 1_555
C7 C4 1_555 1_555
H3 C7 1_555 1_555
C8 C7 1_555 1_555
H4 C8 1_555 1_555
C9 C8 1_555 1_555
H5 C9 1_555 1_555
C10 C5 1_555 1_555
C11 C10 1_555 1_555
H6 C11 1_555 1_555
C12 C11 1_555 1_555
H7 C12 1_555 1_555
C13 C6 1_555 1_555
C14 C13 1_555 1_555
H8 C14 1_555 1_555
C15 C14 1_555 1_555
H9 C15 1_555 1_555
C16 C1 1_555 1_555
C17 C16 1_555 1_555
H10 C17 1_555 1_555
C18 C17 1_555 1_555
H11 C18 1_555 1_555
C19 C18 1_555 1_555
C20 C19 1_555 1_555
C21 C20 1_555 1_555
H12 C21 1_555 1_555
C22 C21 1_555 1_555
H13 C22 1_555 1_555
C23 C22 1_555 1_555
H14 C23 1_555 1_555
C24 C23 1_555 1_555
H15 C24 1_555 1_555
C25 C20 1_555 1_555
H16 C25 1_555 1_555
N1 C26 1_555 1_555
N2 C28 1_555 1_555
C26 C27 1_555 1_555
C27 C28 1_555 1_555
C29 C27 1_555 1_555
C30 C29 1_555 1_555
H17 C30 1_555 1_555
C31 C29 1_555 1_555
H18 C31 1_555 1_555
N3 C32 1_555 1_555
N4 C34 1_555 1_555
C32 C33 1_555 1_555
C33 C34 1_555 1_555
C35 C33 1_555 1_555
C36 C35 1_555 1_555
H19 C36 1_555 1_555
C37 C36 1_555 1_555
H20 C37 1_555 1_555
C38 H21 1_555 1_555
H22 C38 1_555 1_555
H23 C38 1_555 1_555
C39 C38 1_555 1_555
C40 C39 1_555 1_555
H24 C40 1_555 1_555
C41 C40 1_555 1_555
H25 C41 1_555 1_555
N1A C26A 1_555 1_555
N2A C28A 1_555 1_555
C26A C27A 1_555 1_555
C27A C28A 1_555 1_555
C29A C27A 1_555 1_555
C30A C31 1_555 1_555
H17A C30A 1_555 1_555
C31A C30 1_555 1_555
H18A C31A 1_555 1_555
N3A C32A 1_555 1_555
N4A C34A 1_555 1_555
C32A C33A 1_555 1_555
C33A C34A 1_555 1_555
C35A C37 1_555 1_555
C36A C35A 1_555 1_555
H19A C36A 1_555 1_555
C37A C35 1_555 1_555
H20A C37A 1_555 1_555
C38A H21A 1_555 1_555
H22A C38A 1_555 1_555
H23A C38A 1_555 1_555
C39A C41 1_555 1_555
C40A C39A 1_555 1_555
H24A C40A 1_555 1_555
C41A C39 1_555 1_555
H25A C41A 1_555 1_555
C5 C6 1_555 1_555
C9 C10 1_555 1_555
C12 C13 1_555 1_555
C15 C16 1_555 1_555
C24 C25 1_555 1_555
C29A C30A 1_555 1_555
C29A C31A 1_555 1_555
C33A C35A 1_555 1_555
C36A C37A 1_555 1_555
C38A C39A 1_555 1_555
C40A C41A 1_555 1_555

#END
