
#######################################################################
#
#                 Cambridge Crystallographic Data Centre
#                                CCDC 
#
#######################################################################
#
# If this CIF has been generated from an entry in the Cambridge 
# Structural Database, then it will include bibliographic, chemical, 
# crystal, experimental, refinement or atomic coordinate data resulting 
# from the CCDC's data processing and validation procedures.
#
#######################################################################

data_GUNFOM
_chemical_formula_moiety         'C13 H14 B1 Cl1 F2 N2'
_chemical_name_systematic        
7-Chloro-2-ethyl-5,5-difluoro-1,3-dimethyl-5H-dipyrrolo[1,2-c:2',1'-f][1,3,2]diazaborinine-4-ium-5-ide
_symmetry_cell_setting           tetragonal
_symmetry_space_group_name_H-M   'I 41/a'
_symmetry_Int_Tables_number      88
_space_group_name_Hall           '-I 4ad'
loop_
_symmetry_equiv_pos_site_id
_symmetry_equiv_pos_as_xyz
1 x,y,z
2 1/2-x,-y,1/2+z
3 3/4-y,1/4+x,1/4+z
4 3/4+y,3/4-x,3/4+z
5 1/2+x,1/2+y,1/2+z
6 -x,1/2-y,z
7 1/4-y,3/4+x,3/4+z
8 1/4+y,1/4-x,1/4+z
9 -x,-y,-z
10 1/2+x,y,1/2-z
11 1/4+y,3/4-x,3/4-z
12 1/4-y,1/4+x,1/4-z
13 1/2-x,1/2-y,1/2-z
14 x,1/2+y,-z
15 3/4+y,1/4-x,1/4-z
16 3/4-y,3/4+x,3/4-z
_cell_length_a                   25.1080(17)
_cell_length_b                   25.1080(17)
_cell_length_c                   8.6289(8)
_cell_angle_alpha                90
_cell_angle_beta                 90
_cell_angle_gamma                90
_cell_volume                     5439.76
_exptl_crystal_colour            red
_exptl_crystal_description       block
_cell_formula_units_Z            16
loop_
_atom_site_label
_atom_site_type_symbol
_atom_site_fract_x
_atom_site_fract_y
_atom_site_fract_z
B1 B 0.31986(11) 0.17095(10) 0.1573(3)
C1 C 0.23349(11) 0.12738(11) 0.2628(3)
C2 C 0.19783(11) 0.13291(12) 0.3893(4)
C3 C 0.21628(11) 0.17413(12) 0.4792(3)
C4 C 0.26304(10) 0.19396(9) 0.4038(3)
C5 C 0.29632(10) 0.23510(10) 0.4409(3)
H1 H 0.2889 0.2556 0.5281
C6 C 0.34121(11) 0.24736(10) 0.3515(3)
C7 C 0.38036(13) 0.28645(12) 0.3708(5)
H2 H 0.3816 0.3116 0.4498
C8 C 0.41646(14) 0.28121(13) 0.2530(4)
H3 H 0.4466 0.3020 0.2365
C9 C 0.39911(11) 0.23873(11) 0.1630(4)
C10 C 0.22980(13) 0.08786(14) 0.1352(4)
H4 H 0.2202 0.1057 0.0408
H5 H 0.2032 0.0618 0.1601
H6 H 0.2636 0.0705 0.1223
C11 C 0.15007(15) 0.09876(18) 0.4172(5)
H7 H 0.1326 0.0917 0.3191
H8 H 0.1252 0.1179 0.4827
C12 C 0.1641(2) 0.04700(19) 0.4927(6)
H9 H 0.1887 0.0279 0.4283
H10 H 0.1324 0.0262 0.5066
H11 H 0.1801 0.0537 0.5918
C13 C 0.19340(16) 0.19508(15) 0.6260(4)
H12 H 0.1651 0.1721 0.6600
H13 H 0.1797 0.2303 0.6089
H14 H 0.2207 0.1964 0.7040
Cl1 Cl 0.42914(4) 0.21358(4) 0.00368(12)
F1 F 0.30065(7) 0.18282(7) 0.01055(16)
F2 F 0.35013(6) 0.12525(6) 0.1509(2)
N1 N 0.27258(8) 0.16341(8) 0.2710(2)
N2 N 0.35342(8) 0.21798(8) 0.2216(3)
loop_
_geom_bond_atom_site_label_1
_geom_bond_atom_site_label_2
_geom_bond_site_symmetry_1
_geom_bond_site_symmetry_2
B1 F1 1_555 1_555
C1 C2 1_555 1_555
C2 C3 1_555 1_555
C3 C4 1_555 1_555
C4 C5 1_555 1_555
C5 H1 1_555 1_555
C6 C5 1_555 1_555
C7 C6 1_555 1_555
H2 C7 1_555 1_555
C8 C7 1_555 1_555
H3 C8 1_555 1_555
C9 C8 1_555 1_555
C10 C1 1_555 1_555
H4 C10 1_555 1_555
H5 C10 1_555 1_555
H6 C10 1_555 1_555
C11 C2 1_555 1_555
H7 C11 1_555 1_555
H8 C11 1_555 1_555
C12 C11 1_555 1_555
H9 C12 1_555 1_555
H10 C12 1_555 1_555
H11 C12 1_555 1_555
C13 C3 1_555 1_555
H12 C13 1_555 1_555
H13 C13 1_555 1_555
H14 C13 1_555 1_555
Cl1 C9 1_555 1_555
F2 B1 1_555 1_555
N1 B1 1_555 1_555
N2 B1 1_555 1_555
C1 N1 1_555 1_555
C4 N1 1_555 1_555
C6 N2 1_555 1_555
C9 N2 1_555 1_555

#END
