
#######################################################################
#
#                 Cambridge Crystallographic Data Centre
#                                CCDC 
#
#######################################################################
#
# If this CIF has been generated from an entry in the Cambridge 
# Structural Database, then it will include bibliographic, chemical, 
# crystal, experimental, refinement or atomic coordinate data resulting 
# from the CCDC's data processing and validation procedures.
#
#######################################################################

data_GUNGIH
_chemical_formula_moiety         'C24 H21 N1 O4 S1'
_chemical_name_systematic        
N-Benzyl-4-methyl-N-(3-methyl-4-oxo-4H-chromen-2-yl)benzenesulfonamide
_symmetry_cell_setting           monoclinic
_symmetry_space_group_name_H-M   'P 21/n'
_symmetry_Int_Tables_number      14
_space_group_name_Hall           '-P 2yn'
loop_
_symmetry_equiv_pos_site_id
_symmetry_equiv_pos_as_xyz
1 x,y,z
2 1/2-x,1/2+y,1/2-z
3 -x,-y,-z
4 1/2+x,1/2-y,1/2+z
_cell_length_a                   8.2556(17)
_cell_length_b                   14.406(3)
_cell_length_c                   17.938(4)
_cell_angle_alpha                90
_cell_angle_beta                 93.63(3)
_cell_angle_gamma                90
_cell_volume                     2129.09
_exptl_crystal_colour            colorless
_exptl_crystal_description       Prism
_cell_formula_units_Z            4
loop_
_atom_site_label
_atom_site_type_symbol
_atom_site_fract_x
_atom_site_fract_y
_atom_site_fract_z
S1 S 0.80481(9) 0.15619(6) 0.09893(4)
O1 O 0.7117(2) -0.00066(16) 0.22723(11)
O2 O 1.1669(3) -0.0250(2) 0.32653(16)
O3 O 0.9541(3) 0.18984(18) 0.13332(15)
O4 O 0.7687(3) 0.16758(18) 0.02027(13)
N1 N 0.8042(3) 0.04000(19) 0.11350(13)
C1 C 1.0013(4) -0.0010(2) 0.21660(18)
C2 C 1.0288(4) -0.0211(3) 0.2965(2)
C3 C 0.8828(4) -0.0356(2) 0.33793(18)
C4 C 0.8896(5) -0.0612(3) 0.4138(2)
H1 H 0.9900 -0.0690 0.4396
C5 C 0.7504(7) -0.0749(3) 0.4504(2)
H2 H 0.7573 -0.0914 0.5006
C6 C 0.5987(7) -0.0641(3) 0.4126(2)
H3 H 0.5051 -0.0737 0.4378
C7 C 0.5859(5) -0.0392(3) 0.3377(2)
H4 H 0.4851 -0.0318 0.3122
C8 C 0.7293(4) -0.0257(2) 0.30159(18)
C9 C 0.8473(3) 0.0119(2) 0.18832(16)
C10 C 0.6643(4) -0.0106(2) 0.07570(17)
H5 H 0.6442 0.0135 0.0255
H6 H 0.5680 0.0004 0.1027
C11 C 0.6953(3) -0.1138(2) 0.07190(15)
C12 C 0.5838(4) -0.1765(3) 0.09761(17)
H7 H 0.4931 -0.1546 0.1203
C13 C 0.6059(5) -0.2712(3) 0.0899(2)
H8 H 0.5298 -0.3122 0.1071
C14 C 0.7399(5) -0.3047(3) 0.05686(19)
H9 H 0.7544 -0.3684 0.0518
C15 C 0.8531(4) -0.2436(2) 0.03118(18)
H10 H 0.9436 -0.2661 0.0087
C16 C 0.8316(4) -0.1490(2) 0.03895(17)
H11 H 0.9086 -0.1082 0.0221
C17 C 0.6435(3) 0.1985(2) 0.14830(16)
C18 C 0.6693(4) 0.2190(3) 0.22398(18)
H12 H 0.7738 0.2191 0.2467
C19 C 0.5376(5) 0.2391(3) 0.26490(19)
H13 H 0.5544 0.2512 0.3157
C20 C 0.3804(4) 0.2418(3) 0.23212(19)
C21 C 0.3593(4) 0.2269(2) 0.15550(18)
H14 H 0.2558 0.2316 0.1321
C22 C 0.4884(3) 0.2052(2) 0.11338(16)
H15 H 0.4720 0.1952 0.0622
C23 C 0.2363(5) 0.2585(4) 0.2782(2)
H16 H 0.1695 0.2039 0.2774
H17 H 0.1743 0.3099 0.2577
H18 H 0.2737 0.2723 0.3288
C24 C 1.1467(4) 0.0062(3) 0.1694(2)
H19 H 1.1134 -0.0062 0.1181
H20 H 1.2274 -0.0383 0.1865
H21 H 1.1916 0.0676 0.1737
loop_
_geom_bond_atom_site_label_1
_geom_bond_atom_site_label_2
_geom_bond_site_symmetry_1
_geom_bond_site_symmetry_2
S1 O3 1_555 1_555
O1 C8 1_555 1_555
O2 C2 1_555 1_555
O4 S1 1_555 1_555
N1 S1 1_555 1_555
C1 C2 1_555 1_555
C2 C3 1_555 1_555
C3 C4 1_555 1_555
C4 H1 1_555 1_555
C5 C4 1_555 1_555
H2 C5 1_555 1_555
C6 C5 1_555 1_555
H3 C6 1_555 1_555
C7 C6 1_555 1_555
H4 C7 1_555 1_555
C8 C3 1_555 1_555
C9 O1 1_555 1_555
C10 N1 1_555 1_555
H5 C10 1_555 1_555
H6 C10 1_555 1_555
C11 C10 1_555 1_555
C12 C11 1_555 1_555
H7 C12 1_555 1_555
C13 C12 1_555 1_555
H8 C13 1_555 1_555
C14 C13 1_555 1_555
H9 C14 1_555 1_555
C15 C14 1_555 1_555
H10 C15 1_555 1_555
C16 C11 1_555 1_555
H11 C16 1_555 1_555
C17 S1 1_555 1_555
C18 C17 1_555 1_555
H12 C18 1_555 1_555
C19 C18 1_555 1_555
H13 C19 1_555 1_555
C20 C19 1_555 1_555
C21 C20 1_555 1_555
H14 C21 1_555 1_555
C22 C17 1_555 1_555
H15 C22 1_555 1_555
C23 C20 1_555 1_555
H16 C23 1_555 1_555
H17 C23 1_555 1_555
H18 C23 1_555 1_555
C24 C1 1_555 1_555
H19 C24 1_555 1_555
H20 C24 1_555 1_555
H21 C24 1_555 1_555
N1 C9 1_555 1_555
C1 C9 1_555 1_555
C7 C8 1_555 1_555
C15 C16 1_555 1_555
C21 C22 1_555 1_555

#END
