
#######################################################################
#
#                 Cambridge Crystallographic Data Centre
#                                CCDC 
#
#######################################################################
#
# If this CIF has been generated from an entry in the Cambridge 
# Structural Database, then it will include bibliographic, chemical, 
# crystal, experimental, refinement or atomic coordinate data resulting 
# from the CCDC's data processing and validation procedures.
#
#######################################################################

data_GUNHUS
_chemical_formula_moiety         'C14 H19 N2 1+,C2 H12 B9 1-'
_chemical_name_systematic        
'8-Dimethylamino-1-(dimethylammonio)naphthalene 10,11-\mH-7,8-dicarba-nido-undecaborate(12)'
_symmetry_cell_setting           triclinic
_symmetry_space_group_name_H-M   'P -1'
_symmetry_Int_Tables_number      2
_space_group_name_Hall           '-P 1'
loop_
_symmetry_equiv_pos_site_id
_symmetry_equiv_pos_as_xyz
1 x,y,z
2 -x,-y,-z
_cell_length_a                   8.110(2)
_cell_length_b                   11.134(2)
_cell_length_c                   12.342(2)
_cell_angle_alpha                68.34(1)
_cell_angle_beta                 86.55(1)
_cell_angle_gamma                79.98(1)
_cell_volume                     1019.94
_exptl_crystal_colour            colorless
_exptl_crystal_description       'thin plate'
_cell_formula_units_Z            2
_exptl_crystal_recrystallization_method hexane/dichloromethane
loop_
_atom_site_label
_atom_site_type_symbol
_atom_site_fract_x
_atom_site_fract_y
_atom_site_fract_z
B1 B 0.9829(4) 1.3666(4) 0.3622(3)
H1 H 1.0442(12) 1.3969(11) 0.4313(8)
B2 B 0.7973(5) 1.4577(5) 0.2895(4)
H2 H 0.7258(14) 1.5615(11) 0.2934(11)
B3 B 0.9829(5) 1.4566(5) 0.2087(4)
H3 H 1.0393(15) 1.5549(13) 0.1523(10)
B4 B 1.1053(5) 1.2982(5) 0.2668(4)
H4 H 1.2535(12) 1.2897(16) 0.2562(11)
B5 B 0.9908(5) 1.1992(5) 0.3795(4)
H5 H 1.0529(15) 1.1113(11) 0.4627(10)
B6 B 0.7920(5) 1.3001(4) 0.3930(3)
H6 H 0.7261(12) 1.2822(12) 0.4860(9)
C1 C 0.8031(4) 1.4305(4) 0.1613(3)
H7 H 0.7559(14) 1.5117(12) 0.0811(8)
C2 C 0.9696(4) 1.3401(4) 0.1499(3)
H8 H 1.0221(12) 1.3646(13) 0.0618(9)
B7 B 0.9882(5) 1.1891(4) 0.2402(4)
H9 H 1.0604(14) 1.1000(11) 0.2144(10)
B8 B 0.7984(5) 1.1801(4) 0.3282(4)
H10 H 0.7387(15) 1.0840(12) 0.3826(10)
H11 H 0.7348(14) 1.2338(12) 0.2283(9)
B9 B 0.6806(4) 1.3501(4) 0.2590(4)
H12 H 0.5299(11) 1.3779(14) 0.2536(11)
C3 C 0.5850(4) 0.8706(3) 0.2306(3)
C4 C 0.7066(4) 0.9483(4) 0.1980(3)
H13 H 0.7428(13) 0.9937(12) 0.2552(9)
C5 C 0.7881(4) 0.9708(4) 0.0893(3)
H14 H 0.8838(12) 1.0353(11) 0.0629(10)
C6 C 0.7468(4) 0.9128(4) 0.0160(3)
H15 H 0.8108(13) 0.9242(12) -0.0661(9)
C7 C 0.6218(4) 0.8309(4) 0.0479(3)
C8 C 0.5813(4) 0.7715(4) -0.0286(3)
H16 H 0.6497(12) 0.7863(10) -0.1097(8)
C9 C 0.4593(4) 0.6931(4) 0.0012(3)
H17 H 0.4281(14) 0.6470(11) -0.0569(8)
C10 C 0.3716(4) 0.6726(4) 0.1075(3)
H18 H 0.2743(12) 0.6076(14) 0.1318(10)
C11 C 0.4075(4) 0.7297(4) 0.1833(3)
C12 C 0.5351(4) 0.8104(4) 0.1567(3)
C13 C 0.1376(4) 0.7686(4) 0.2771(3)
H19 H 0.0705(12) 0.7249(13) 0.2326(11)
H20 H 0.0833(12) 0.7615(13) 0.3600(9)
H21 H 0.1302(15) 0.8750(12) 0.2223(11)
C14 C 0.3317(4) 0.5658(4) 0.3672(3)
H22 H 0.4683(12) 0.5246(11) 0.3802(11)
H23 H 0.2736(14) 0.5571(11) 0.4529(8)
H24 H 0.2742(17) 0.5137(11) 0.3253(9)
C15 C 0.4062(4) 0.9672(4) 0.3562(3)
H25 H 0.3172(13) 1.0156(12) 0.2855(10)
H26 H 0.4863(14) 1.0353(11) 0.3535(12)
H27 H 0.3404(15) 0.9396(13) 0.4385(9)
C16 C 0.6270(4) 0.7767(4) 0.4430(3)
H28 H 0.6948(13) 0.6901(9) 0.4309(10)
H29 H 0.5556(14) 0.7467(14) 0.5264(8)
H30 H 0.7133(14) 0.8412(14) 0.4429(12)
N1 N 0.5043(3) 0.8454(2) 0.3454(2)
H31 H 0.4059(12) 0.7748(11) 0.3417(8)
N2 N 0.3168(3) 0.7067(2) 0.2940(2)
loop_
_geom_bond_atom_site_label_1
_geom_bond_atom_site_label_2
_geom_bond_site_symmetry_1
_geom_bond_site_symmetry_2
B1 H1 1_555 1_555
B2 B1 1_555 1_555
H2 B2 1_555 1_555
B3 B1 1_555 1_555
H3 B3 1_555 1_555
B4 B1 1_555 1_555
H4 B4 1_555 1_555
B5 B1 1_555 1_555
H5 B5 1_555 1_555
B6 B1 1_555 1_555
H6 B6 1_555 1_555
C1 B2 1_555 1_555
H7 C1 1_555 1_555
C2 B3 1_555 1_555
H8 C2 1_555 1_555
B7 B4 1_555 1_555
H9 B7 1_555 1_555
B8 B5 1_555 1_555
H10 B8 1_555 1_555
H11 B8 1_555 1_555
B9 B2 1_555 1_555
H12 B9 1_555 1_555
C3 C4 1_555 1_555
C4 H13 1_555 1_555
C5 C4 1_555 1_555
H14 C5 1_555 1_555
C6 C5 1_555 1_555
H15 C6 1_555 1_555
C7 C6 1_555 1_555
C8 C7 1_555 1_555
H16 C8 1_555 1_555
C9 C8 1_555 1_555
H17 C9 1_555 1_555
C10 C9 1_555 1_555
H18 C10 1_555 1_555
C11 C10 1_555 1_555
C12 C3 1_555 1_555
C13 H19 1_555 1_555
H20 C13 1_555 1_555
H21 C13 1_555 1_555
C14 H22 1_555 1_555
H23 C14 1_555 1_555
H24 C14 1_555 1_555
C15 H25 1_555 1_555
H26 C15 1_555 1_555
H27 C15 1_555 1_555
C16 H28 1_555 1_555
H29 C16 1_555 1_555
H30 C16 1_555 1_555
N1 C3 1_555 1_555
H31 N1 1_555 1_555
N2 C11 1_555 1_555
B2 B3 1_555 1_555
B2 B6 1_555 1_555
B3 C1 1_555 1_555
B3 B4 1_555 1_555
B4 C2 1_555 1_555
B4 B5 1_555 1_555
B5 B7 1_555 1_555
B5 B6 1_555 1_555
B6 B9 1_555 1_555
B6 B8 1_555 1_555
C1 B9 1_555 1_555
C1 C2 1_555 1_555
C2 B7 1_555 1_555
B7 B8 1_555 1_555
B8 B9 1_555 1_555
H11 B9 1_555 1_555
C7 C12 1_555 1_555
C11 C12 1_555 1_555
C13 N2 1_555 1_555
C14 N2 1_555 1_555
C15 N1 1_555 1_555
C16 N1 1_555 1_555

#END
