
#######################################################################
#
#                 Cambridge Crystallographic Data Centre
#                                CCDC 
#
#######################################################################
#
# If this CIF has been generated from an entry in the Cambridge 
# Structural Database, then it will include bibliographic, chemical, 
# crystal, experimental, refinement or atomic coordinate data resulting 
# from the CCDC's data processing and validation procedures.
#
#######################################################################

data_GUNJUW
_chemical_name_common            
'1,2-Diammonioethane candesartan-diide dihydrate'
_chemical_formula_moiety         'C24 H18 N6 O3 2-,C2 H10 N2 2+,2(H2 O1)'
_chemical_name_systematic        
"Ethane-1,2-diaminium 2-ethoxy-1-((2'-(tetrazol-1-id-5-yl)biphenyl-4-yl)methyl)-1H-benzimidazole-7-carboxylate dihydrate"
_chemical_properties_biological  
'Candesartan is a nonpeptide angiotensin II type 1 receptor antagonist'
_symmetry_cell_setting           monoclinic
_symmetry_space_group_name_H-M   'P 21/c'
_symmetry_Int_Tables_number      14
_space_group_name_Hall           '-P 2ybc'
loop_
_symmetry_equiv_pos_site_id
_symmetry_equiv_pos_as_xyz
1 x,y,z
2 -x,1/2+y,1/2-z
3 -x,-y,-z
4 x,1/2-y,1/2+z
_cell_length_a                   10.8994(8)
_cell_length_b                   13.9820(11)
_cell_length_c                   18.0745(15)
_cell_angle_alpha                90
_cell_angle_beta                 103.637(2)
_cell_angle_gamma                90
_cell_volume                     2676.82
_exptl_crystal_colour            colorless
_exptl_crystal_description       block
_cell_formula_units_Z            4
loop_
_atom_site_label
_atom_site_type_symbol
_atom_site_fract_x
_atom_site_fract_y
_atom_site_fract_z
N1 N 0.4122(3) 0.4224(2) 0.56855(18)
N2 N 0.4902(3) 0.5710(2) 0.59874(18)
N3 N 0.0568(3) 0.3756(3) 0.8884(2)
N4 N 0.1576(5) 0.4287(3) 0.9215(3)
N5 N 0.2585(4) 0.3914(4) 0.9055(3)
N6 N 0.2269(3) 0.3120(3) 0.8613(2)
O1 O 0.5187(2) 0.18037(17) 0.69333(17)
O2 O 0.5406(3) 0.19382(17) 0.57366(19)
O3 O 0.2897(2) 0.55045(18) 0.51533(16)
C1 C 0.3968(4) 0.5188(3) 0.5600(2)
C2 C 0.5755(3) 0.5019(3) 0.6370(2)
C3 C 0.5289(3) 0.4093(2) 0.6210(2)
C4 C 0.5917(3) 0.3281(2) 0.6551(2)
C5 C 0.7070(4) 0.3444(3) 0.7063(2)
H1 H 0.7520 0.2926 0.7314
C6 C 0.7571(3) 0.4365(3) 0.7210(2)
H2 H 0.8359 0.4441 0.7542
C7 C 0.6933(4) 0.5158(3) 0.6878(3)
H3 H 0.7269 0.5768 0.6986
C8 C 0.5456(3) 0.2262(3) 0.6388(3)
C9 C 0.3185(3) 0.3491(2) 0.5335(2)
H4 H 0.3618 0.2966 0.5154
H5 H 0.2599 0.3767 0.4899
C10 C 0.2452(3) 0.3107(3) 0.5889(2)
C11 C 0.2232(3) 0.2140(3) 0.5921(2)
H6 H 0.2550 0.1722 0.5612
C12 C 0.1533(3) 0.1785(3) 0.6417(2)
H7 H 0.1403 0.1128 0.6435
C13 C 0.1028(3) 0.2375(3) 0.6883(2)
C14 C 0.1272(3) 0.3353(3) 0.6843(2)
H8 H 0.0960 0.3777 0.7150
C15 C 0.1961(3) 0.3698(3) 0.6360(2)
H9 H 0.2103 0.4353 0.6347
C16 C 0.0207(3) 0.1979(2) 0.7360(3)
C17 C 0.0176(3) 0.2299(3) 0.8086(3)
C18 C -0.0709(4) 0.1910(3) 0.8457(3)
H10 H -0.0725 0.2128 0.8941
C19 C -0.1548(4) 0.1218(3) 0.8124(3)
H11 H -0.2130 0.0969 0.8375
C20 C -0.1512(4) 0.0896(3) 0.7408(3)
H12 H -0.2072 0.0421 0.7180
C21 C -0.0660(3) 0.1263(2) 0.7018(3)
H13 H -0.0659 0.1039 0.6534
C22 C 0.1001(4) 0.3051(3) 0.8513(2)
C23 C 0.2730(4) 0.6543(3) 0.5087(3)
H14 H 0.3389 0.6827 0.4880
H15 H 0.2766 0.6824 0.5583
C24 C 0.1455(4) 0.6714(3) 0.4562(3)
H16 H 0.1431 0.6429 0.4076
H17 H 0.1307 0.7389 0.4500
H18 H 0.0813 0.6432 0.4776
N7 N 0.4594(3) 0.25126(18) 0.82456(19)
H19 H 0.3789 0.2643 0.8230
H20 H 0.4816 0.1974 0.8505
H21 H 0.4694 0.2443 0.7774
N8 N 0.5761(3) 0.50274(19) 0.8656(2)
H22 H 0.5634 0.5038 0.9125
H23 H 0.5520 0.5583 0.8427
H24 H 0.6578 0.4934 0.8681
C25 C 0.5403(3) 0.3310(2) 0.8627(2)
H25 H 0.6278 0.3174 0.8634
H26 H 0.5329 0.3362 0.9150
C26 C 0.5025(3) 0.4250(2) 0.8222(2)
H27 H 0.5178 0.4226 0.7715
H28 H 0.4132 0.4364 0.8174
O4 O 0.1745(3) 0.9374(2) 0.5758(2)
H29 H 0.1029 0.9217 0.5832
H30 H 0.1627 0.9714 0.5358
O5 O 0.2654(8) 0.9061(6) 0.4778(5)
H31 H 0.3222 0.8835 0.4577
H32 H 0.2383 0.9581 0.4555
H33? H 0.4498 0.9280 0.4607
H34? H 0.3924 1.0165 0.4561
O6? O 0.4533(4) 0.9830(4) 0.4811(3)
loop_
_geom_bond_atom_site_label_1
_geom_bond_atom_site_label_2
_geom_bond_site_symmetry_1
_geom_bond_site_symmetry_2
N1 C1 1_555 1_555
N2 C1 1_555 1_555
N3 N4 1_555 1_555
N4 N5 1_555 1_555
N5 N6 1_555 1_555
N6 C22 1_555 1_555
O1 C8 1_555 1_555
O2 C8 1_555 1_555
O3 C1 1_555 1_555
C2 N2 1_555 1_555
C3 N1 1_555 1_555
C4 C3 1_555 1_555
C5 C4 1_555 1_555
H1 C5 1_555 1_555
C6 C5 1_555 1_555
H2 C6 1_555 1_555
C7 C2 1_555 1_555
H3 C7 1_555 1_555
C8 C4 1_555 1_555
C9 N1 1_555 1_555
H4 C9 1_555 1_555
H5 C9 1_555 1_555
C10 C9 1_555 1_555
C11 C10 1_555 1_555
H6 C11 1_555 1_555
C12 C11 1_555 1_555
H7 C12 1_555 1_555
C13 C12 1_555 1_555
C14 C13 1_555 1_555
H8 C14 1_555 1_555
C15 C10 1_555 1_555
H9 C15 1_555 1_555
C16 C13 1_555 1_555
C17 C16 1_555 1_555
C18 C17 1_555 1_555
H10 C18 1_555 1_555
C19 C18 1_555 1_555
H11 C19 1_555 1_555
C20 C19 1_555 1_555
H12 C20 1_555 1_555
C21 C16 1_555 1_555
H13 C21 1_555 1_555
C22 N3 1_555 1_555
C23 O3 1_555 1_555
H14 C23 1_555 1_555
H15 C23 1_555 1_555
C24 C23 1_555 1_555
H16 C24 1_555 1_555
H17 C24 1_555 1_555
H18 C24 1_555 1_555
N7 H19 1_555 1_555
H20 N7 1_555 1_555
H21 N7 1_555 1_555
N8 H22 1_555 1_555
H23 N8 1_555 1_555
H24 N8 1_555 1_555
C25 N7 1_555 1_555
H25 C25 1_555 1_555
H26 C25 1_555 1_555
C26 N8 1_555 1_555
H27 C26 1_555 1_555
H28 C26 1_555 1_555
O4 H29 1_555 1_555
H30 O4 1_555 1_555
O5 H31 1_555 1_555
H32 O5 1_555 1_555
C2 C3 1_555 1_555
C6 C7 1_555 1_555
C14 C15 1_555 1_555
C17 C22 1_555 1_555
C20 C21 1_555 1_555
C25 C26 1_555 1_555

#END
