
#######################################################################
#
#                 Cambridge Crystallographic Data Centre
#                                CCDC 
#
#######################################################################
#
# If this CIF has been generated from an entry in the Cambridge 
# Structural Database, then it will include bibliographic, chemical, 
# crystal, experimental, refinement or atomic coordinate data resulting 
# from the CCDC's data processing and validation procedures.
#
#######################################################################

data_GUNKAD
_chemical_name_common            
'1,3-Diammoniopropane candesartan-diide dihydrate'
_chemical_formula_moiety         'C3 H12 N2 2+,C24 H18 N6 O3 2-,2(H2 O1)'
_chemical_name_systematic        
"Propane-1,3-diaminium 2-ethoxy-1-((2'-(tetrazol-1-id-5-yl)biphenyl-4-yl)methyl)-1H-benzimidazole-7-carboxylate dihydrate"
_chemical_properties_biological  
'Candesartan is a nonpeptide angiotensin II type 1 receptor antagonist'
_symmetry_cell_setting           monoclinic
_symmetry_space_group_name_H-M   'P 21/c'
_symmetry_Int_Tables_number      14
_space_group_name_Hall           '-P 2ybc'
loop_
_symmetry_equiv_pos_site_id
_symmetry_equiv_pos_as_xyz
1 x,y,z
2 -x,1/2+y,1/2-z
3 -x,-y,-z
4 x,1/2-y,1/2+z
_cell_length_a                   10.8701(9)
_cell_length_b                   14.2382(12)
_cell_length_c                   18.8214(16)
_cell_angle_alpha                90
_cell_angle_beta                 106.714(2)
_cell_angle_gamma                90
_cell_volume                     2789.93
_exptl_crystal_colour            colorless
_exptl_crystal_description       block
_cell_formula_units_Z            4
loop_
_atom_site_label
_atom_site_type_symbol
_atom_site_fract_x
_atom_site_fract_y
_atom_site_fract_z
N1 N 0.4109(3) 0.3822(2) 0.56786(17)
N2 N 0.4829(3) 0.5300(2) 0.59469(19)
N3 N 0.0970(3) 0.3413(2) 0.8816(2)
N4 N 0.2031(4) 0.3932(2) 0.9090(2)
N5 N 0.2995(3) 0.3554(2) 0.89010(19)
N6 N 0.2574(3) 0.2773(2) 0.84946(19)
O1 O 0.2694(3) 0.50152(19) 0.52081(16)
O2 O 0.5525(3) 0.1561(2) 0.6896(2)
O3 O 0.5582(3) 0.1578(2) 0.5739(2)
C1 C 0.3872(4) 0.4753(3) 0.5607(2)
C2 C 0.5795(4) 0.4670(3) 0.6279(2)
C3 C 0.5372(4) 0.3740(3) 0.6132(2)
C4 C 0.6140(4) 0.2976(3) 0.6441(2)
C5 C 0.7360(4) 0.3188(3) 0.6901(3)
H1 H 0.7902 0.2699 0.7123
C6 C 0.7789(4) 0.4098(3) 0.7038(3)
H2 H 0.8614 0.4206 0.7346
C7 C 0.7032(4) 0.4849(3) 0.6730(3)
H3 H 0.7337 0.5461 0.6819
C8 C 0.5704(4) 0.1961(3) 0.6347(3)
C9 C 0.2475(4) 0.6015(3) 0.5104(3)
H4 H 0.3043 0.6279 0.4842
H5 H 0.2637 0.6327 0.5580
C10 C 0.1111(5) 0.6143(4) 0.4662(3)
H6 H 0.0947 0.5792 0.4209
H7 H 0.0948 0.6797 0.4549
H8 H 0.0558 0.5923 0.4943
C11 C 0.3178(4) 0.3081(3) 0.5380(2)
H9 H 0.3613 0.2565 0.5218
H10 H 0.2534 0.3321 0.4948
C12 C 0.2510(3) 0.2710(3) 0.5928(2)
C13 C 0.2010(4) 0.3309(2) 0.6351(2)
H11 H 0.2123 0.3954 0.6319
C14 C 0.1346(3) 0.2970(2) 0.6821(2)
H12 H 0.1005 0.3390 0.7092
C15 C 0.1178(3) 0.2011(3) 0.6896(2)
C16 C 0.1683(4) 0.1413(3) 0.6472(2)
H13 H 0.1583 0.0768 0.6508
C17 C 0.2337(4) 0.1759(3) 0.5993(2)
H14 H 0.2664 0.1342 0.5712
C18 C 0.0386(4) 0.1635(3) 0.7364(2)
C19 C 0.0450(4) 0.1968(3) 0.8069(2)
C20 C -0.0366(4) 0.1592(3) 0.8449(3)
H15 H -0.0329 0.1812 0.8920
C21 C -0.1223(5) 0.0898(3) 0.8130(3)
H16 H -0.1770 0.0660 0.8385
C22 C -0.1286(4) 0.0551(3) 0.7444(3)
H17 H -0.1868 0.0079 0.7233
C23 C -0.0475(4) 0.0912(3) 0.7069(3)
H18 H -0.0502 0.0666 0.6607
C24 C 0.1337(4) 0.2716(3) 0.8454(2)
N7 N 0.5201(3) 0.6991(2) 0.6861(2)
H19 H 0.6022 0.7116 0.6906
H20 H 0.4960 0.6485 0.6577
H21 H 0.5104 0.6884 0.7308
N8 N 0.4736(4) 0.9743(2) 0.5963(2)
H22 H 0.5405 0.9379 0.5970
H23 H 0.4966 1.0344 0.5965
H24 H 0.4098 0.9625 0.5555
C25 C 0.4402(4) 0.7800(3) 0.6517(3)
H25 H 0.3507 0.7670 0.6473
H26 H 0.4483 0.7906 0.6023
C26 C 0.4830(5) 0.8662(3) 0.6987(3)
H27 H 0.4588 0.8592 0.7442
H28 H 0.5760 0.8698 0.7121
C27 C 0.4297(5) 0.9546(3) 0.6632(3)
H29 H 0.4562 1.0056 0.6984
H30 H 0.3366 0.9513 0.6486
O4 O 0.2584(4) 0.9311(3) 0.4810(2)
H31 H 0.3140 0.9036 0.4645
H32 H 0.2414 0.9840 0.4594
O5 O 0.8546(7) 0.3612(7) 0.9122(5)
H33 H 0.9341 0.3630 0.9154
H34 H 0.8430 0.3863 0.9508
O6? O 0.9241(12) 0.4370(13) 0.9486(9)
H35? H 0.9694 0.3863 0.9337
H36? H 0.8660 0.4117 0.9736
loop_
_geom_bond_atom_site_label_1
_geom_bond_atom_site_label_2
_geom_bond_site_symmetry_1
_geom_bond_site_symmetry_2
N1 C1 1_555 1_555
N2 C1 1_555 1_555
N3 N4 1_555 1_555
N4 N5 1_555 1_555
N5 N6 1_555 1_555
N6 C24 1_555 1_555
O1 C1 1_555 1_555
O2 C8 1_555 1_555
O3 C8 1_555 1_555
C2 N2 1_555 1_555
C3 N1 1_555 1_555
C4 C3 1_555 1_555
C5 C4 1_555 1_555
H1 C5 1_555 1_555
C6 C5 1_555 1_555
H2 C6 1_555 1_555
C7 C2 1_555 1_555
H3 C7 1_555 1_555
C8 C4 1_555 1_555
C9 O1 1_555 1_555
H4 C9 1_555 1_555
H5 C9 1_555 1_555
C10 C9 1_555 1_555
H6 C10 1_555 1_555
H7 C10 1_555 1_555
H8 C10 1_555 1_555
C11 N1 1_555 1_555
H9 C11 1_555 1_555
H10 C11 1_555 1_555
C12 C11 1_555 1_555
C13 C12 1_555 1_555
H11 C13 1_555 1_555
C14 C13 1_555 1_555
H12 C14 1_555 1_555
C15 C14 1_555 1_555
C16 C15 1_555 1_555
H13 C16 1_555 1_555
C17 C12 1_555 1_555
H14 C17 1_555 1_555
C18 C15 1_555 1_555
C19 C18 1_555 1_555
C20 C19 1_555 1_555
H15 C20 1_555 1_555
C21 C20 1_555 1_555
H16 C21 1_555 1_555
C22 C21 1_555 1_555
H17 C22 1_555 1_555
C23 C18 1_555 1_555
H18 C23 1_555 1_555
C24 N3 1_555 1_555
N7 H19 1_555 1_555
H20 N7 1_555 1_555
H21 N7 1_555 1_555
N8 H22 1_555 1_555
H23 N8 1_555 1_555
H24 N8 1_555 1_555
C25 N7 1_555 1_555
H25 C25 1_555 1_555
H26 C25 1_555 1_555
C26 C25 1_555 1_555
H27 C26 1_555 1_555
H28 C26 1_555 1_555
C27 N8 1_555 1_555
H29 C27 1_555 1_555
H30 C27 1_555 1_555
O4 H31 1_555 1_555
H32 O4 1_555 1_555
O5 H33 1_555 1_555
H34 O5 1_555 1_555
C2 C3 1_555 1_555
C6 C7 1_555 1_555
C16 C17 1_555 1_555
C19 C24 1_555 1_555
C22 C23 1_555 1_555
C26 C27 1_555 1_555

#END
