
#######################################################################
#
#                 Cambridge Crystallographic Data Centre
#                                CCDC 
#
#######################################################################
#
# If this CIF has been generated from an entry in the Cambridge 
# Structural Database, then it will include bibliographic, chemical, 
# crystal, experimental, refinement or atomic coordinate data resulting 
# from the CCDC's data processing and validation procedures.
#
#######################################################################

data_GUNKOQ
_chemical_formula_moiety         'C37 H40 N4 O6'
_chemical_name_systematic        
(4S,5R)-((1S,2R,5S)-2-Isopropyl-5-methylcyclohexyl)5-((1E,2E)-1-(2-(2,4-dinitrophenyl)hydrazono)-3-phenylallyl)-4-phenylcyclopent-1-enecarboxylate
_symmetry_cell_setting           monoclinic
_symmetry_space_group_name_H-M   'P 21'
_symmetry_Int_Tables_number      4
_space_group_name_Hall           'P 2yb'
loop_
_symmetry_equiv_pos_site_id
_symmetry_equiv_pos_as_xyz
1 x,y,z
2 -x,1/2+y,-z
_cell_length_a                   12.648(5)
_cell_length_b                   6.033(4)
_cell_length_c                   22.647(8)
_cell_angle_alpha                90
_cell_angle_beta                 97.287(13)
_cell_angle_gamma                90
_cell_volume                     1714.13
_exptl_crystal_colour            brown
_exptl_crystal_description       needle
_cell_formula_units_Z            2
_exptl_crystal_recrystallization_method dichloromethane/n-heptane
loop_
_atom_site_label
_atom_site_type_symbol
_atom_site_fract_x
_atom_site_fract_y
_atom_site_fract_z
O1 O 0.1542(3) 0.7970(9) 0.6169(2)
O2 O 0.2060(4) 1.1077(10) 0.6681(2)
O3 O 0.4417(5) 0.7607(13) 0.9326(3)
O4 O 0.5743(5) 0.5373(12) 0.9497(3)
O5 O 0.5166(5) -0.1428(12) 0.7512(3)
O6 O 0.6046(5) -0.1168(11) 0.8384(3)
N1 N 0.2224(5) 0.7790(12) 0.7944(2)
N2 N 0.3070(5) 0.7231(11) 0.8351(2)
H1 H 0.3234 0.8041 0.8661
N3 N 0.4904(6) 0.5949(14) 0.9196(3)
N4 N 0.5382(6) -0.0495(13) 0.7989(4)
C1 C 0.0756(6) 0.8791(13) 0.7024(3)
C2 C 0.0095(6) 0.7124(16) 0.6962(3)
H2 H 0.0030 0.6193 0.6632
C3 C -0.0550(6) 0.6836(14) 0.7467(3)
H3 H -0.0310 0.5565 0.7710
H4 H -0.1302 0.6669 0.7325
C4 C -0.0328(5) 0.9045(13) 0.7818(3)
H5 H -0.0179 0.8696 0.8243
C5 C 0.0708(5) 0.9970(12) 0.7606(3)
H6 H 0.0641 1.1571 0.7538
C6 C 0.1511(6) 0.9433(15) 0.6623(3)
C7 C 0.1182(6) 0.8550(15) 0.4870(3)
H7 H 0.0616 0.8653 0.5127
C8 C 0.0703(6) 0.7412(15) 0.4295(3)
H8 H 0.0572 0.5879 0.4374
H9 H 0.1191 0.7518 0.4005
H10 H 0.0043 0.8122 0.4146
C9 C 0.1478(7) 1.0894(15) 0.4721(4)
H11 H 0.2054 1.0862 0.4483
H12 H 0.1696 1.1695 0.5083
H13 H 0.0873 1.1615 0.4504
C10 C 0.2449(5) 0.8126(15) 0.5829(3)
H14 H 0.2672 0.9675 0.5804
C11 C 0.5189(8) 0.527(3) 0.6171(4)
H15 H 0.5806 0.5294 0.5964
H16 H 0.4951 0.3770 0.6203
H17 H 0.5367 0.5887 0.6561
C12 C 0.3959(6) 0.2220(14) 0.7653(3)
H18 H 0.3792 0.1407 0.7305
C13 C 0.3653(6) 0.5403(15) 0.8266(3)
C14 C 0.4787(6) 0.1549(13) 0.8089(4)
C15 C -0.1245(5) 1.0653(15) 0.7731(3)
C16 C 0.1667(5) 0.9490(14) 0.8059(3)
C17 C 0.1466(7) 1.4135(15) 0.9224(3)
C18 C 0.1302(5) 1.2616(14) 0.8708(3)
H19 H 0.0715 1.2935 0.8431
C19 C 0.2096(5) 0.7224(14) 0.5213(3)
H20 H 0.1826 0.5722 0.5263
C20 C 0.1867(5) 1.0867(15) 0.8582(3)
H21 H 0.2448 1.0490 0.8858
C21 C 0.5075(5) 0.2740(16) 0.8581(4)
H22 H 0.5638 0.2280 0.8859
C22 C 0.4517(6) 0.4689(14) 0.8673(3)
C23 C 0.3404(5) 0.4111(14) 0.7756(3)
H23 H 0.2841 0.4545 0.7475
C24 C 0.3068(5) 0.7003(17) 0.4884(3)
H24 H 0.3329 0.8473 0.4807
H25 H 0.2853 0.6300 0.4502
C25 C -0.1814(6) 1.1017(16) 0.7181(4)
H26 H -0.1642 1.0229 0.6854
C26 C -0.1538(6) 1.1835(16) 0.8196(3)
H27 H -0.1167 1.1606 0.8573
C27 C -0.2912(6) 1.3681(17) 0.7591(5)
H28 H -0.3475 1.4684 0.7548
C28 C -0.2355(7) 1.3348(17) 0.8137(4)
H29 H -0.2525 1.4132 0.8466
C29 C 0.0758(7) 1.5829(18) 0.9253(4)
H30 H 0.0178 1.5976 0.8959
C30 C -0.2655(7) 1.2564(19) 0.7106(4)
H31 H -0.3028 1.2819 0.6732
C31 C 0.3975(6) 0.566(2) 0.5222(3)
H32 H 0.3745 0.4143 0.5263
H33 H 0.4580 0.5651 0.4998
C32 C 0.2308(7) 1.3906(19) 0.9662(4)
H34 H 0.2785 1.2743 0.9645
C33 C 0.0903(10) 1.7320(19) 0.9717(5)
H35 H 0.0414 1.8463 0.9734
C34 C 0.1739(12) 1.715(3) 1.0144(6)
H36 H 0.1844 1.8190 1.0448
C35 C 0.2454(9) 1.536(3) 1.0125(5)
H37 H 0.3020 1.5181 1.0426
C36 C 0.4306(6) 0.664(2) 0.5827(4)
H38 H 0.4574 0.8138 0.5777
C37 C 0.3332(6) 0.6782(18) 0.6166(3)
H39 H 0.3073 0.5300 0.6231
H40 H 0.3541 0.7457 0.6552
loop_
_geom_bond_atom_site_label_1
_geom_bond_atom_site_label_2
_geom_bond_site_symmetry_1
_geom_bond_site_symmetry_2
O1 C6 1_555 1_555
O2 C6 1_555 1_555
O3 N3 1_555 1_555
O4 N3 1_555 1_555
O5 N4 1_555 1_555
O6 N4 1_555 1_555
N1 N2 1_555 1_555
N2 H1 1_555 1_555
N3 C22 1_555 1_555
N4 C14 1_555 1_555
C1 C2 1_555 1_555
C2 H2 1_555 1_555
C3 C2 1_555 1_555
H3 C3 1_555 1_555
H4 C3 1_555 1_555
C4 C3 1_555 1_555
H5 C4 1_555 1_555
C5 C1 1_555 1_555
H6 C5 1_555 1_555
C6 C1 1_555 1_555
C7 H7 1_555 1_555
C8 C7 1_555 1_555
H8 C8 1_555 1_555
H9 C8 1_555 1_555
H10 C8 1_555 1_555
C9 C7 1_555 1_555
H11 C9 1_555 1_555
H12 C9 1_555 1_555
H13 C9 1_555 1_555
C10 O1 1_555 1_555
H14 C10 1_555 1_555
C11 H15 1_555 1_555
H16 C11 1_555 1_555
H17 C11 1_555 1_555
C12 H18 1_555 1_555
C13 N2 1_555 1_555
C14 C12 1_555 1_555
C15 C4 1_555 1_555
C16 N1 1_555 1_555
C17 C18 1_555 1_555
C18 H19 1_555 1_555
C19 C7 1_555 1_555
H20 C19 1_555 1_555
C20 C16 1_555 1_555
H21 C20 1_555 1_555
C21 C14 1_555 1_555
H22 C21 1_555 1_555
C22 C13 1_555 1_555
C23 C12 1_555 1_555
H23 C23 1_555 1_555
C24 C19 1_555 1_555
H24 C24 1_555 1_555
H25 C24 1_555 1_555
C25 C15 1_555 1_555
H26 C25 1_555 1_555
C26 C15 1_555 1_555
H27 C26 1_555 1_555
C27 H28 1_555 1_555
C28 C26 1_555 1_555
H29 C28 1_555 1_555
C29 C17 1_555 1_555
H30 C29 1_555 1_555
C30 C25 1_555 1_555
H31 C30 1_555 1_555
C31 C24 1_555 1_555
H32 C31 1_555 1_555
H33 C31 1_555 1_555
C32 C17 1_555 1_555
H34 C32 1_555 1_555
C33 C29 1_555 1_555
H35 C33 1_555 1_555
C34 C33 1_555 1_555
H36 C34 1_555 1_555
C35 C32 1_555 1_555
H37 C35 1_555 1_555
C36 C11 1_555 1_555
H38 C36 1_555 1_555
C37 C10 1_555 1_555
H39 C37 1_555 1_555
H40 C37 1_555 1_555
C4 C5 1_555 1_555
C5 C16 1_555 1_555
C10 C19 1_555 1_555
C13 C23 1_555 1_555
C18 C20 1_555 1_555
C21 C22 1_555 1_555
C27 C28 1_555 1_555
C27 C30 1_555 1_555
C31 C36 1_555 1_555
C34 C35 1_555 1_555
C36 C37 1_555 1_555

#END
