
#######################################################################
#
#                 Cambridge Crystallographic Data Centre
#                                CCDC 
#
#######################################################################
#
# If this CIF has been generated from an entry in the Cambridge 
# Structural Database, then it will include bibliographic, chemical, 
# crystal, experimental, refinement or atomic coordinate data resulting 
# from the CCDC's data processing and validation procedures.
#
#######################################################################

data_GUNKIK
_chemical_formula_moiety         'C29 H30 O5'
_chemical_name_systematic        
'Ethyl 3-(2-(ethoxycarbonyl)-5-phenylcyclopent-2-enecarbonyl)-4-phenylcyclopent-1-enecarboxylate'
_symmetry_cell_setting           orthorhombic
_symmetry_space_group_name_H-M   'P 21 21 21'
_symmetry_Int_Tables_number      19
_space_group_name_Hall           'P 2ac 2ab'
loop_
_symmetry_equiv_pos_site_id
_symmetry_equiv_pos_as_xyz
1 x,y,z
2 1/2-x,-y,1/2+z
3 1/2+x,1/2-y,-z
4 -x,1/2+y,1/2-z
_cell_length_a                   9.516(3)
_cell_length_b                   10.465(3)
_cell_length_c                   25.276(4)
_cell_angle_alpha                90
_cell_angle_beta                 90
_cell_angle_gamma                90
_cell_volume                     2517.11
_exptl_crystal_colour            colorless
_exptl_crystal_description       parallelepiped
_cell_formula_units_Z            4
loop_
_atom_site_label
_atom_site_type_symbol
_atom_site_fract_x
_atom_site_fract_y
_atom_site_fract_z
O1 O 0.0858(2) 0.3995(2) 0.03713(7)
O2 O -0.0085(2) 0.1170(2) 0.06024(8)
O3 O 0.1240(3) 0.0716(3) -0.01037(9)
O4 O 0.2170(2) 0.6684(2) 0.08231(9)
O5 O 0.0395(3) 0.7833(3) 0.04940(12)
C1 C 0.1040(3) 0.3861(3) 0.08440(10)
C2 C 0.1921(3) 0.2766(3) 0.10560(11)
H1 H 0.1449 0.2376 0.1360
C3 C 0.2228(3) 0.1764(3) 0.06484(12)
C4 C 0.3599(3) 0.1496(3) 0.06238(13)
H2 H 0.3989 0.0924 0.0384
C5 C 0.4428(3) 0.2207(4) 0.10196(15)
H3 H 0.5254 0.2587 0.0859
H4 H 0.4723 0.1650 0.1305
C6 C 0.3412(3) 0.3255(3) 0.12253(12)
H5 H 0.3605 0.4039 0.1026
C7 C 0.1121(3) 0.1164(3) 0.03311(12)
C8 C -0.1303(4) 0.0632(4) 0.03471(14)
H6 H -0.1029 -0.0099 0.0135
H7 H -0.1727 0.1262 0.0115
C9 C -0.2305(4) 0.0239(5) 0.07468(18)
H8 H -0.1898 -0.0418 0.0963
H9 H -0.3137 -0.0083 0.0578
H10 H -0.2545 0.0959 0.0964
C10 C 0.3555(3) 0.3564(3) 0.18071(12)
C11 C 0.3187(5) 0.2705(4) 0.21923(15)
H11 H 0.2841 0.1908 0.2096
C12 C 0.3323(6) 0.3011(6) 0.27243(18)
H12 H 0.3066 0.2419 0.2981
C13 C 0.3825(5) 0.4159(6) 0.28699(18)
H13 H 0.3930 0.4348 0.3227
C14 C 0.4183(5) 0.5050(6) 0.2498(2)
H14 H 0.4518 0.5847 0.2601
C15 C 0.4041(4) 0.4750(4) 0.19668(16)
H15 H 0.4276 0.5357 0.1713
C16 C 0.0414(3) 0.4751(3) 0.12455(10)
H16 H 0.1109 0.4943 0.1520
C17 C -0.0930(3) 0.4173(3) 0.15023(11)
H17 H -0.1012 0.3281 0.1388
C18 C -0.2161(3) 0.4940(5) 0.12544(13)
H18 H -0.2658 0.4428 0.0995
H19 H -0.2820 0.5212 0.1525
C19 C -0.1490(3) 0.6051(4) 0.10018(12)
H20 H -0.1992 0.6732 0.0859
C20 C -0.0105(3) 0.5984(3) 0.09981(11)
C21 C 0.0811(4) 0.6932(3) 0.07452(13)
C22 C 0.3154(4) 0.7563(4) 0.05759(16)
H21 H 0.2875 0.8438 0.0647
H22 H 0.3159 0.7435 0.0196
C23 C 0.4551(5) 0.7323(6) 0.0792(2)
H23 H 0.4516 0.7372 0.1171
H24 H 0.5195 0.7952 0.0659
H25 H 0.4860 0.6487 0.0687
C24 C -0.0959(3) 0.4203(3) 0.21012(12)
C25 C -0.1741(5) 0.3320(4) 0.23723(17)
H26 H -0.2237 0.2698 0.2187
C26 C -0.1800(6) 0.3346(6) 0.29212(19)
H27 H -0.2328 0.2731 0.3097
C27 C -0.1115(6) 0.4235(5) 0.32045(16)
H28 H -0.1159 0.4238 0.3572
C28 C -0.0350(5) 0.5137(5) 0.29383(16)
H29 H 0.0125 0.5768 0.3126
C29 C -0.0280(4) 0.5115(4) 0.23934(14)
H30 H 0.0243 0.5738 0.2220
loop_
_geom_bond_atom_site_label_1
_geom_bond_atom_site_label_2
_geom_bond_site_symmetry_1
_geom_bond_site_symmetry_2
O1 C1 1_555 1_555
O2 C7 1_555 1_555
O3 C7 1_555 1_555
O4 C21 1_555 1_555
O5 C21 1_555 1_555
C1 C2 1_555 1_555
C2 H1 1_555 1_555
C3 C2 1_555 1_555
C4 C3 1_555 1_555
H2 C4 1_555 1_555
C5 C4 1_555 1_555
H3 C5 1_555 1_555
H4 C5 1_555 1_555
C6 C2 1_555 1_555
H5 C6 1_555 1_555
C7 C3 1_555 1_555
C8 O2 1_555 1_555
H6 C8 1_555 1_555
H7 C8 1_555 1_555
C9 C8 1_555 1_555
H8 C9 1_555 1_555
H9 C9 1_555 1_555
H10 C9 1_555 1_555
C10 C6 1_555 1_555
C11 C10 1_555 1_555
H11 C11 1_555 1_555
C12 C11 1_555 1_555
H12 C12 1_555 1_555
C13 C12 1_555 1_555
H13 C13 1_555 1_555
C14 C13 1_555 1_555
H14 C14 1_555 1_555
C15 C10 1_555 1_555
H15 C15 1_555 1_555
C16 C1 1_555 1_555
H16 C16 1_555 1_555
C17 C16 1_555 1_555
H17 C17 1_555 1_555
C18 C17 1_555 1_555
H18 C18 1_555 1_555
H19 C18 1_555 1_555
C19 C18 1_555 1_555
H20 C19 1_555 1_555
C20 C16 1_555 1_555
C21 C20 1_555 1_555
C22 O4 1_555 1_555
H21 C22 1_555 1_555
H22 C22 1_555 1_555
C23 C22 1_555 1_555
H23 C23 1_555 1_555
H24 C23 1_555 1_555
H25 C23 1_555 1_555
C24 C17 1_555 1_555
C25 C24 1_555 1_555
H26 C25 1_555 1_555
C26 C25 1_555 1_555
H27 C26 1_555 1_555
C27 C26 1_555 1_555
H28 C27 1_555 1_555
C28 C27 1_555 1_555
H29 C28 1_555 1_555
C29 C24 1_555 1_555
H30 C29 1_555 1_555
C5 C6 1_555 1_555
C14 C15 1_555 1_555
C19 C20 1_555 1_555
C28 C29 1_555 1_555

#END
