
#######################################################################
#
#                 Cambridge Crystallographic Data Centre
#                                CCDC 
#
#######################################################################
#
# If this CIF has been generated from an entry in the Cambridge 
# Structural Database, then it will include bibliographic, chemical, 
# crystal, experimental, refinement or atomic coordinate data resulting 
# from the CCDC's data processing and validation procedures.
#
#######################################################################

data_GUNKEH
_chemical_name_common            'Ammonium candesartan-ide'
_chemical_formula_moiety         'C24 H19 N6 O3 1-,H4 N1 1+'
_chemical_name_systematic        
"Ammonium 2-ethoxy-1-((2'-(1H-tetrazol-5-yl)biphenyl-4-yl)methyl)-1H-benzimidazole-7-carboxylate"
_chemical_properties_biological  
'Candesartan is a nonpeptide angiotensin II type 1 receptor antagonist'
_symmetry_cell_setting           monoclinic
_symmetry_space_group_name_H-M   'C 2/c'
_symmetry_Int_Tables_number      15
_space_group_name_Hall           '-C 2yn'
loop_
_symmetry_equiv_pos_site_id
_symmetry_equiv_pos_as_xyz
1 x,y,z
2 -x,y,1/2-z
3 1/2+x,1/2+y,z
4 1/2-x,1/2+y,1/2-z
5 -x,-y,-z
6 x,-y,1/2+z
7 1/2-x,1/2-y,-z
8 1/2+x,1/2-y,1/2+z
_cell_length_a                   31.235(9)
_cell_length_b                   11.605(2)
_cell_length_c                   13.897(3)
_cell_angle_alpha                90
_cell_angle_beta                 115.15(3)
_cell_angle_gamma                90
_cell_volume                     4559.86
_exptl_crystal_colour            colorless
_exptl_crystal_description       block
_cell_formula_units_Z            8
loop_
_atom_site_label
_atom_site_type_symbol
_atom_site_fract_x
_atom_site_fract_y
_atom_site_fract_z
C1 C 0.00550(6) 0.24981(16) -0.12436(15)
C2 C 0.00302(6) 0.43353(16) -0.12538(14)
C3 C 0.05121(6) 0.40369(15) -0.07469(13)
C4 C 0.08680(6) 0.48681(16) -0.03284(14)
C5 C 0.07176(7) 0.60103(16) -0.04545(16)
H1 H 0.0942 0.6590 -0.0176
C6 C 0.02405(7) 0.63182(17) -0.09845(16)
H2 H 0.0157 0.7093 -0.1070
C7 C -0.01091(6) 0.54824(16) -0.13847(15)
H3 H -0.0427 0.5684 -0.1730
C8 C 0.13942(6) 0.46250(16) 0.02259(15)
C9 C 0.09224(6) 0.20454(16) -0.03654(14)
H4 H 0.1156 0.2329 -0.0595
H5 H 0.0818 0.1296 -0.0690
C10 C 0.11564(6) 0.18972(15) 0.08290(14)
C11 C 0.16097(6) 0.14222(16) 0.12941(15)
H6 H 0.1764 0.1234 0.0871
C12 C 0.18328(6) 0.12290(16) 0.23803(15)
H7 H 0.2132 0.0899 0.2674
C13 C 0.16154(6) 0.15217(15) 0.30431(15)
C14 C 0.11616(7) 0.19951(18) 0.25730(15)
H8 H 0.1009 0.2196 0.2996
C15 C 0.09345(6) 0.21703(17) 0.14813(16)
H9 H 0.0630 0.2474 0.1183
C16 C 0.18744(6) 0.14166(16) 0.42204(15)
C17 C 0.21474(6) 0.04446(16) 0.47278(14)
C18 C 0.24238(6) 0.04494(17) 0.58323(15)
H10 H 0.2611 -0.0185 0.6158
C19 C 0.24193(7) 0.13899(19) 0.64397(16)
H11 H 0.2604 0.1390 0.7170
C20 C 0.21375(7) 0.23326(18) 0.59533(16)
H12 H 0.2123 0.2954 0.6362
C21 C 0.18765(7) 0.23520(17) 0.48589(15)
H13 H 0.1698 0.3002 0.4541
C22 C 0.21311(6) -0.06333(15) 0.41565(14)
C23 C -0.05315(7) 0.10241(19) -0.17964(18)
H14 H -0.0563 0.0263 -0.2108
H15 H -0.0717 0.1557 -0.2357
C24 C -0.07191(9) 0.1007(2) -0.0963(2)
H16 H -0.0531 0.0497 -0.0399
H17 H -0.1041 0.0745 -0.1275
H18 H -0.0705 0.1770 -0.0685
H19 H 0.2842(9) -0.106(2) 0.469(2)
N1 N -0.02521(5) 0.33438(14) -0.15580(13)
N2 N 0.05186(5) 0.28286(13) -0.07550(12)
N3 N 0.17432(5) -0.11961(14) 0.35174(13)
N4 N 0.19022(6) -0.21694(14) 0.32379(14)
N5 N 0.23628(6) -0.22186(14) 0.36802(13)
N6 N 0.25103(5) -0.12487(13) 0.42594(12)
O1 O -0.00353(5) 0.13706(12) -0.13439(13)
O2 O 0.16147(5) 0.48983(14) 0.11736(11)
O3 O 0.15795(5) 0.41882(14) -0.03439(11)
H20 H 0.1440(11) 0.667(3) 0.254(2)
H21 H 0.1295(10) 0.565(3) 0.306(3)
H22 H 0.1345(9) 0.554(2) 0.201(2)
H23 H 0.0915(11) 0.625(3) 0.207(2)
N7 N 0.12472(6) 0.59979(16) 0.24208(14)
loop_
_geom_bond_atom_site_label_1
_geom_bond_atom_site_label_2
_geom_bond_site_symmetry_1
_geom_bond_site_symmetry_2
C1 N1 1_555 1_555
C2 C3 1_555 1_555
C3 C4 1_555 1_555
C4 C5 1_555 1_555
C5 H1 1_555 1_555
C6 C5 1_555 1_555
H2 C6 1_555 1_555
C7 C2 1_555 1_555
H3 C7 1_555 1_555
C8 C4 1_555 1_555
C9 H4 1_555 1_555
H5 C9 1_555 1_555
C10 C9 1_555 1_555
C11 C10 1_555 1_555
H6 C11 1_555 1_555
C12 C11 1_555 1_555
H7 C12 1_555 1_555
C13 C12 1_555 1_555
C14 C13 1_555 1_555
H8 C14 1_555 1_555
C15 C10 1_555 1_555
H9 C15 1_555 1_555
C16 C13 1_555 1_555
C17 C16 1_555 1_555
C18 C17 1_555 1_555
H10 C18 1_555 1_555
C19 C18 1_555 1_555
H11 C19 1_555 1_555
C20 C19 1_555 1_555
H12 C20 1_555 1_555
C21 C16 1_555 1_555
H13 C21 1_555 1_555
C22 C17 1_555 1_555
C23 H14 1_555 1_555
H15 C23 1_555 1_555
C24 C23 1_555 1_555
H16 C24 1_555 1_555
H17 C24 1_555 1_555
H18 C24 1_555 1_555
H19 N6 1_555 1_555
N1 C2 1_555 1_555
N2 C1 1_555 1_555
N3 C22 1_555 1_555
N4 N3 1_555 1_555
N5 N4 1_555 1_555
N6 C22 1_555 1_555
O1 C1 1_555 1_555
O2 C8 1_555 1_555
O3 C8 1_555 1_555
H20 N7 1_555 1_555
H21 N7 1_555 1_555
H22 N7 1_555 1_555
H23 N7 1_555 1_555
C3 N2 1_555 1_555
C6 C7 1_555 1_555
C9 N2 1_555 1_555
C14 C15 1_555 1_555
C20 C21 1_555 1_555
C23 O1 1_555 1_555
N5 N6 1_555 1_555

#END
