
#######################################################################
#
#                 Cambridge Crystallographic Data Centre
#                                CCDC 
#
#######################################################################
#
# If this CIF has been generated from an entry in the Cambridge 
# Structural Database, then it will include bibliographic, chemical, 
# crystal, experimental, refinement or atomic coordinate data resulting 
# from the CCDC's data processing and validation procedures.
#
#######################################################################

data_GUNZUL
_chemical_formula_moiety         'C22 H15 N1'
_chemical_name_systematic        (4-(N,N-Diphenylamino)phenyl)butadiyne
_symmetry_cell_setting           triclinic
_symmetry_space_group_name_H-M   'P -1'
_symmetry_Int_Tables_number      2
_space_group_name_Hall           '-P 1'
loop_
_symmetry_equiv_pos_site_id
_symmetry_equiv_pos_as_xyz
1 x,y,z
2 -x,-y,-z
_cell_length_a                   8.1846(8)
_cell_length_b                   10.3429(10)
_cell_length_c                   10.5085(10)
_cell_angle_alpha                64.624(8)
_cell_angle_beta                 88.993(9)
_cell_angle_gamma                89.307(8)
_cell_volume                     803.606
_exptl_crystal_colour            yellow
_exptl_crystal_description       block
_chemical_melting_point          'above 350 deg.C'
_cell_formula_units_Z            2
_exptl_crystal_recrystallization_method dichloromethane/n-hexane
loop_
_atom_site_label
_atom_site_type_symbol
_atom_site_fract_x
_atom_site_fract_y
_atom_site_fract_z
N1 N 0.41253(11) 0.15753(10) 0.27799(10)
C1 C 0.56547(13) 0.17877(12) 0.21029(11)
C2 C 0.63183(14) 0.31672(12) 0.14741(12)
H1 H 0.5709(17) 0.3956(16) 0.1514(14)
C3 C 0.78193(14) 0.34092(13) 0.07988(12)
H2 H 0.8251(17) 0.4391(16) 0.0375(15)
C4 C 0.87189(14) 0.22882(13) 0.07133(12)
C5 C 0.80675(14) 0.09036(13) 0.13593(12)
H3 H 0.8686(17) 0.0090(16) 0.1311(15)
C6 C 0.65704(14) 0.06557(12) 0.20472(12)
H4 H 0.6153(16) -0.0318(15) 0.2510(14)
C7 C 1.02662(14) 0.25547(13) 0.00014(12)
C8 C 1.15864(14) 0.28038(12) -0.05761(12)
C9 C 1.31489(15) 0.30601(13) -0.11351(12)
C10 C 1.45182(17) 0.32866(16) -0.15706(14)
H5 H 1.564(2) 0.3489(19) -0.1919(18)
C11 C 0.35594(13) 0.25814(11) 0.33000(11)
C12 C 0.43981(15) 0.27267(13) 0.43693(13)
H6 H 0.5387(17) 0.2169(15) 0.4731(15)
C13 C 0.38098(17) 0.36559(14) 0.49066(13)
H7 H 0.4405(18) 0.3733(16) 0.5689(16)
C14 C 0.24091(16) 0.44540(13) 0.43709(14)
H8 H 0.2017(17) 0.5107(16) 0.4759(15)
C15 C 0.15865(15) 0.43247(13) 0.32934(14)
H9 H 0.0563(18) 0.4885(16) 0.2903(15)
C16 C 0.21554(14) 0.33804(12) 0.27608(13)
H10 H 0.1591(18) 0.3237(16) 0.2007(16)
C17 C 0.31165(13) 0.03746(11) 0.30562(12)
C18 C 0.21883(14) -0.01941(12) 0.42984(13)
H11 H 0.2279(16) 0.0208(15) 0.4986(15)
C19 C 0.11396(15) -0.13290(13) 0.45662(14)
H12 H 0.0468(18) -0.1708(16) 0.5455(16)
C20 C 0.10094(15) -0.19150(13) 0.36123(16)
H13 H 0.0231(18) -0.2705(17) 0.3812(16)
C21 C 0.19482(15) -0.13647(13) 0.23889(15)
H14 H 0.1851(17) -0.1761(16) 0.1694(15)
C22 C 0.29911(14) -0.02205(12) 0.20961(13)
H15 H 0.3620(17) 0.0190(15) 0.1190(15)
loop_
_geom_bond_atom_site_label_1
_geom_bond_atom_site_label_2
_geom_bond_site_symmetry_1
_geom_bond_site_symmetry_2
N1 C1 1_555 1_555
C1 C2 1_555 1_555
C2 H1 1_555 1_555
C3 C2 1_555 1_555
H2 C3 1_555 1_555
C4 C3 1_555 1_555
C5 C4 1_555 1_555
H3 C5 1_555 1_555
C6 C1 1_555 1_555
H4 C6 1_555 1_555
C7 C4 1_555 1_555
C8 C7 1_555 1_555
C9 C8 1_555 1_555
C10 C9 1_555 1_555
H5 C10 1_555 1_555
C11 N1 1_555 1_555
C12 C11 1_555 1_555
H6 C12 1_555 1_555
C13 C12 1_555 1_555
H7 C13 1_555 1_555
C14 C13 1_555 1_555
H8 C14 1_555 1_555
C15 C14 1_555 1_555
H9 C15 1_555 1_555
C16 C11 1_555 1_555
H10 C16 1_555 1_555
C17 N1 1_555 1_555
C18 C17 1_555 1_555
H11 C18 1_555 1_555
C19 C18 1_555 1_555
H12 C19 1_555 1_555
C20 C19 1_555 1_555
H13 C20 1_555 1_555
C21 C20 1_555 1_555
H14 C21 1_555 1_555
C22 C17 1_555 1_555
H15 C22 1_555 1_555
C5 C6 1_555 1_555
C15 C16 1_555 1_555
C21 C22 1_555 1_555

#END
