
#######################################################################
#
#                 Cambridge Crystallographic Data Centre
#                                CCDC 
#
#######################################################################
#
# If this CIF has been generated from an entry in the Cambridge 
# Structural Database, then it will include bibliographic, chemical, 
# crystal, experimental, refinement or atomic coordinate data resulting 
# from the CCDC's data processing and validation procedures.
#
#######################################################################

data_GUNZEV
_chemical_name_common            
2-(4-t-Butylphenyl)-5-(4-[4-(N,N-diphenylamino)phenyl]hexatriynylphenyl)-1,3,4-oxadiazole
_chemical_formula_moiety         'C42 H31 N3 O1'
_chemical_name_systematic        
4-(6-(4-(5-(4-t-Butylphenyl)-1,3,4-oxadiazol-2-yl)phenyl)hexa-1,3,5-triyn-1-yl)-N,N-diphenylaniline
_symmetry_cell_setting           triclinic
_symmetry_space_group_name_H-M   'P -1'
_symmetry_Int_Tables_number      2
_space_group_name_Hall           '-P 1'
loop_
_symmetry_equiv_pos_site_id
_symmetry_equiv_pos_as_xyz
1 x,y,z
2 -x,-y,-z
_cell_length_a                   8.4696(9)
_cell_length_b                   12.9559(15)
_cell_length_c                   14.7935(18)
_cell_angle_alpha                87.621(5)
_cell_angle_beta                 87.206(6)
_cell_angle_gamma                77.005(4)
_cell_volume                     1579.08
_exptl_crystal_colour            yellow
_exptl_crystal_description       plate
_chemical_melting_point          '478.8 K'
_cell_formula_units_Z            2
_exptl_crystal_recrystallization_method dichloromethane/methanol
loop_
_atom_site_label
_atom_site_type_symbol
_atom_site_fract_x
_atom_site_fract_y
_atom_site_fract_z
O1 O 1.0479(4) 0.3937(3) 0.3822(2)
N1 N 0.9912(5) 0.5690(3) 0.3747(3)
N2 N 1.1413(5) 0.5328(3) 0.4143(3)
N3 N -1.0232(5) 0.8205(3) 0.0068(3)
C1 C 0.9411(6) 0.4862(4) 0.3578(3)
C2 C 1.1692(6) 0.4311(4) 0.4173(3)
C3 C 0.3470(6) 0.4782(4) 0.1990(3)
C4 C 0.2148(6) 0.4948(4) 0.1665(3)
C5 C 0.0640(6) 0.5202(4) 0.1327(3)
C6 C -0.0709(6) 0.5526(4) 0.1060(3)
C7 C -0.2253(5) 0.5942(4) 0.0821(3)
C8 C -0.3641(6) 0.6333(4) 0.0653(3)
C9 C 0.7892(5) 0.4799(4) 0.3172(3)
C10 C 0.7680(5) 0.3854(4) 0.2824(3)
H1 H 0.8522 0.3232 0.2856
C11 C 0.6237(6) 0.3830(4) 0.2434(3)
H2 H 0.6090 0.3190 0.2197
C12 C 0.4989(5) 0.4746(4) 0.2388(3)
C13 C 0.5232(6) 0.5685(4) 0.2735(3)
H3 H 0.4398 0.6312 0.2703
C14 C 0.6669(6) 0.5707(4) 0.3124(3)
H4 H 0.6821 0.6348 0.3358
C15 C 1.3117(5) 0.3572(4) 0.4529(3)
C16 C 1.4531(6) 0.3918(4) 0.4582(3)
H5 H 1.4571 0.4617 0.4379
C17 C 1.5905(6) 0.3251(4) 0.4932(3)
H6 H 1.6873 0.3501 0.4957
C18 C 1.5889(6) 0.2240(4) 0.5242(3)
C19 C 1.4416(6) 0.1906(4) 0.5206(3)
H7 H 1.4364 0.1216 0.5429
C20 C 1.3053(6) 0.2559(4) 0.4854(3)
H8 H 1.2076 0.2319 0.4834
C21 C 1.7380(6) 0.1495(4) 0.5634(3)
C22 C 1.7235(8) 0.1508(6) 0.6671(4)
H9 H 1.8085 0.0942 0.6923
H10 H 1.6168 0.1396 0.6880
H11 H 1.7362 0.2194 0.6875
C23 C 1.7546(7) 0.0392(4) 0.5332(4)
H12 H 1.7514 0.0395 0.4671
H13 H 1.6652 0.0101 0.5603
H14 H 1.8582 -0.0049 0.5525
C24 C 1.8933(7) 0.1863(5) 0.5353(5)
H15 H 1.8999 0.1963 0.4693
H16 H 1.9876 0.1326 0.5548
H17 H 1.8921 0.2535 0.5638
C25 C -0.5314(5) 0.6828(4) 0.0489(3)
C26 C -0.6112(6) 0.7724(4) 0.0970(3)
H18 H -0.5531 0.8017 0.1389
C27 C -0.7722(6) 0.8178(4) 0.0848(3)
H19 H -0.8248 0.8779 0.1181
C28 C -0.8585(5) 0.7751(4) 0.0228(3)
C29 C -0.7798(5) 0.6869(4) -0.0249(3)
H20 H -0.8382 0.6569 -0.0661
C30 C -0.6169(5) 0.6417(4) -0.0130(3)
H21 H -0.5639 0.5825 -0.0472
C31 C -1.0715(5) 0.8295(4) -0.0850(3)
C32 C -0.9867(6) 0.8785(4) -0.1511(3)
H22 H -0.8984 0.9069 -0.1348
C33 C -1.0312(6) 0.8854(4) -0.2398(3)
H23 H -0.9731 0.9182 -0.2847
C34 C -1.1603(6) 0.8443(4) -0.2636(4)
H24 H -1.1929 0.8513 -0.3245
C35 C -1.2410(6) 0.7944(4) -0.2005(4)
H25 H -1.3269 0.7643 -0.2179
C36 C -1.1980(6) 0.7868(4) -0.1107(4)
H26 H -1.2557 0.7525 -0.0667
C37 C -1.1351(6) 0.8665(4) 0.0758(4)
C38 C -1.1184(6) 0.8285(4) 0.1651(3)
H27 H -1.0318 0.7706 0.1797
C39 C -1.2276(7) 0.8742(5) 0.2327(4)
H28 H -1.2155 0.8478 0.2935
C40 C -1.3563(7) 0.9609(5) 0.2114(5)
H29 H -1.4299 0.9938 0.2577
C41 C -1.3741(6) 0.9964(5) 0.1222(5)
H30 H -1.4622 1.0530 0.1070
C42 C -1.2653(6) 0.9509(4) 0.0551(4)
H31 H -1.2783 0.9769 -0.0057
loop_
_geom_bond_atom_site_label_1
_geom_bond_atom_site_label_2
_geom_bond_site_symmetry_1
_geom_bond_site_symmetry_2
O1 C1 1_555 1_555
N1 N2 1_555 1_555
N2 C2 1_555 1_555
N3 C28 1_555 1_555
C1 N1 1_555 1_555
C2 O1 1_555 1_555
C3 C4 1_555 1_555
C4 C5 1_555 1_555
C5 C6 1_555 1_555
C6 C7 1_555 1_555
C7 C8 1_555 1_555
C8 C25 1_555 1_555
C9 C1 1_555 1_555
C10 C9 1_555 1_555
H1 C10 1_555 1_555
C11 C10 1_555 1_555
H2 C11 1_555 1_555
C12 C3 1_555 1_555
C13 C12 1_555 1_555
H3 C13 1_555 1_555
C14 C9 1_555 1_555
H4 C14 1_555 1_555
C15 C2 1_555 1_555
C16 C15 1_555 1_555
H5 C16 1_555 1_555
C17 C16 1_555 1_555
H6 C17 1_555 1_555
C18 C17 1_555 1_555
C19 C18 1_555 1_555
H7 C19 1_555 1_555
C20 C15 1_555 1_555
H8 C20 1_555 1_555
C21 C18 1_555 1_555
C22 C21 1_555 1_555
H9 C22 1_555 1_555
H10 C22 1_555 1_555
H11 C22 1_555 1_555
C23 C21 1_555 1_555
H12 C23 1_555 1_555
H13 C23 1_555 1_555
H14 C23 1_555 1_555
C24 C21 1_555 1_555
H15 C24 1_555 1_555
H16 C24 1_555 1_555
H17 C24 1_555 1_555
C25 C26 1_555 1_555
C26 H18 1_555 1_555
C27 C26 1_555 1_555
H19 C27 1_555 1_555
C28 C27 1_555 1_555
C29 C28 1_555 1_555
H20 C29 1_555 1_555
C30 C25 1_555 1_555
H21 C30 1_555 1_555
C31 N3 1_555 1_555
C32 C31 1_555 1_555
H22 C32 1_555 1_555
C33 C32 1_555 1_555
H23 C33 1_555 1_555
C34 C33 1_555 1_555
H24 C34 1_555 1_555
C35 C34 1_555 1_555
H25 C35 1_555 1_555
C36 C31 1_555 1_555
H26 C36 1_555 1_555
C37 N3 1_555 1_555
C38 C37 1_555 1_555
H27 C38 1_555 1_555
C39 C38 1_555 1_555
H28 C39 1_555 1_555
C40 C39 1_555 1_555
H29 C40 1_555 1_555
C41 C40 1_555 1_555
H30 C41 1_555 1_555
C42 C37 1_555 1_555
H31 C42 1_555 1_555
C11 C12 1_555 1_555
C13 C14 1_555 1_555
C19 C20 1_555 1_555
C29 C30 1_555 1_555
C35 C36 1_555 1_555
C41 C42 1_555 1_555

#END
