
#######################################################################
#
#                 Cambridge Crystallographic Data Centre
#                                CCDC 
#
#######################################################################
#
# If this CIF has been generated from an entry in the Cambridge 
# Structural Database, then it will include bibliographic, chemical, 
# crystal, experimental, refinement or atomic coordinate data resulting 
# from the CCDC's data processing and validation procedures.
#
#######################################################################

data_GUPLUY
_chemical_formula_moiety         'C26 H20 O4 S4'
_chemical_name_systematic        
9-(4,5-Dimethyl-1,3-dithiol-2-ylidene)-10-(4,5-bis(methoxycarbonyl)-1,3-dithiol-2-ylidene)-9,10-dihydroanthracene
_symmetry_cell_setting           triclinic
_symmetry_space_group_name_H-M   'P -1'
_symmetry_Int_Tables_number      2
_space_group_name_Hall           '-P 1'
loop_
_symmetry_equiv_pos_site_id
_symmetry_equiv_pos_as_xyz
1 x,y,z
2 -x,-y,-z
_cell_length_a                   9.828(1)
_cell_length_b                   10.459(1)
_cell_length_c                   12.635(1)
_cell_angle_alpha                104.70(1)
_cell_angle_beta                 91.88(1)
_cell_angle_gamma                108.47(1)
_cell_volume                     1182.44
_exptl_crystal_colour            orange
_exptl_crystal_description       plate
_chemical_melting_point          'above 250 deg.C'
_cell_formula_units_Z            2
loop_
_atom_site_label
_atom_site_type_symbol
_atom_site_fract_x
_atom_site_fract_y
_atom_site_fract_z
S1 S 0.40469(4) 0.61539(4) 0.46636(3)
S2 S 0.57020(4) 0.55301(4) 0.28081(3)
S3 S -0.18503(5) 0.34180(5) 0.09549(4)
S4 S -0.01732(5) 0.25990(5) -0.07927(3)
O1 O 0.52274(14) 0.88321(13) 0.62074(10)
O2 O 0.67485(14) 1.00079(13) 0.51976(11)
O3 O 0.87152(13) 0.84924(13) 0.38130(10)
O4 O 0.72691(15) 0.88836(16) 0.26002(12)
C1 C 0.1378(2) 0.35907(18) 0.44511(14)
H1 H 0.223(2) 0.394(2) 0.4999(18)
C2 C 0.0015(2) 0.32489(19) 0.48027(15)
H2 H -0.006(2) 0.340(2) 0.5545(18)
C3 C -0.1212(2) 0.26644(19) 0.40303(15)
H3 H -0.211(2) 0.237(2) 0.4270(17)
C4 C -0.10754(19) 0.24377(18) 0.29124(15)
H4 H -0.194(2) 0.200(2) 0.2382(17)
C5 C 0.18045(19) 0.12225(18) 0.00672(14)
H5 H 0.096(2) 0.078(2) -0.0456(17)
C6 C 0.3052(2) 0.08836(18) -0.01552(15)
H6 H 0.310(2) 0.024(2) -0.0832(16)
C7 C 0.42715(19) 0.14742(18) 0.06136(15)
H7 H 0.513(2) 0.123(2) 0.0465(16)
C8 C 0.42526(19) 0.24066(18) 0.16151(15)
H8 H 0.509(2) 0.277(2) 0.2186(16)
C9 C 0.29596(17) 0.37557(17) 0.29067(13)
C10 C 0.04831(17) 0.25752(17) 0.13536(13)
C11 C 0.15369(18) 0.33919(17) 0.33310(13)
C12 C 0.02854(18) 0.28056(17) 0.25384(13)
C13 C 0.17658(17) 0.21688(17) 0.10604(13)
C14 C 0.30232(18) 0.27753(17) 0.18497(13)
C15 C 0.40803(18) 0.49499(17) 0.34045(13)
C16 C 0.55000(18) 0.75462(18) 0.44855(14)
C17 C 0.62323(18) 0.72690(18) 0.36250(14)
C18 C 0.59011(18) 0.89392(18) 0.53144(14)
C19 C 0.74539(19) 0.83252(19) 0.32851(14)
C20 C -0.03987(17) 0.27965(17) 0.06117(14)
C21 C -0.21891(19) 0.37614(19) -0.03093(15)
C22 C -0.14212(19) 0.33870(18) -0.11071(15)
C23 C -0.3337(2) 0.4425(2) -0.03488(19)
H9 H -0.339(3) 0.468(3) -0.102(2)
H10 H -0.305(3) 0.532(3) 0.018(3)
H11 H -0.429(3) 0.383(3) -0.023(2)
C24 C -0.1494(2) 0.3536(2) -0.22583(16)
H12 H -0.218(3) 0.395(3) -0.235(2)
H13 H -0.164(3) 0.267(3) -0.280(2)
H14 H -0.063(3) 0.417(3) -0.239(2)
C25 C 0.5585(2) 1.0122(2) 0.71047(16)
H15 H 0.650(3) 1.029(2) 0.7516(19)
H16 H 0.490(3) 0.995(2) 0.760(2)
H17 H 0.558(2) 1.091(2) 0.6810(17)
C26 C 0.9958(2) 0.9543(2) 0.35737(18)
H18 H 1.002(2) 0.938(2) 0.281(2)
H19 H 1.076(2) 0.944(2) 0.3923(18)
H20 H 0.988(2) 1.046(3) 0.3844(19)
loop_
_geom_bond_atom_site_label_1
_geom_bond_atom_site_label_2
_geom_bond_site_symmetry_1
_geom_bond_site_symmetry_2
S1 C15 1_555 1_555
S2 C15 1_555 1_555
S3 C20 1_555 1_555
S4 C20 1_555 1_555
O1 C18 1_555 1_555
O2 C18 1_555 1_555
O3 C19 1_555 1_555
O4 C19 1_555 1_555
C1 H1 1_555 1_555
C2 C1 1_555 1_555
H2 C2 1_555 1_555
C3 C2 1_555 1_555
H3 C3 1_555 1_555
C4 C3 1_555 1_555
H4 C4 1_555 1_555
C5 H5 1_555 1_555
C6 C5 1_555 1_555
H6 C6 1_555 1_555
C7 C6 1_555 1_555
H7 C7 1_555 1_555
C8 C7 1_555 1_555
H8 C8 1_555 1_555
C9 C11 1_555 1_555
C10 C12 1_555 1_555
C11 C1 1_555 1_555
C12 C4 1_555 1_555
C13 C5 1_555 1_555
C14 C8 1_555 1_555
C15 C9 1_555 1_555
C16 S1 1_555 1_555
C17 S2 1_555 1_555
C18 C16 1_555 1_555
C19 C17 1_555 1_555
C20 C10 1_555 1_555
C21 S3 1_555 1_555
C22 S4 1_555 1_555
C23 C21 1_555 1_555
H9 C23 1_555 1_555
H10 C23 1_555 1_555
H11 C23 1_555 1_555
C24 C22 1_555 1_555
H12 C24 1_555 1_555
H13 C24 1_555 1_555
H14 C24 1_555 1_555
C25 O1 1_555 1_555
H15 C25 1_555 1_555
H16 C25 1_555 1_555
H17 C25 1_555 1_555
C26 O3 1_555 1_555
H18 C26 1_555 1_555
H19 C26 1_555 1_555
H20 C26 1_555 1_555
C9 C14 1_555 1_555
C10 C13 1_555 1_555
C11 C12 1_555 1_555
C13 C14 1_555 1_555
C16 C17 1_555 1_555
C21 C22 1_555 1_555

#END
