
#######################################################################
#
#                 Cambridge Crystallographic Data Centre
#                                CCDC 
#
#######################################################################
#
# If this CIF has been generated from an entry in the Cambridge 
# Structural Database, then it will include bibliographic, chemical, 
# crystal, experimental, refinement or atomic coordinate data resulting 
# from the CCDC's data processing and validation procedures.
#
#######################################################################

data_GUPNUB
_chemical_formula_moiety         'C21 H27 I1 Mg1 N2 O1'
_chemical_name_systematic        
"(N,N'-Diphenylpentane-2,4-di-iminato-N,N')-(diethyl ether)-iodo-magnesium"
_symmetry_cell_setting           triclinic
_symmetry_space_group_name_H-M   'P -1'
_symmetry_Int_Tables_number      2
_space_group_name_Hall           '-P 1'
loop_
_symmetry_equiv_pos_site_id
_symmetry_equiv_pos_as_xyz
1 x,y,z
2 -x,-y,-z
_cell_length_a                   8.3833(17)
_cell_length_b                   10.669(2)
_cell_length_c                   13.165(3)
_cell_angle_alpha                101.55(3)
_cell_angle_beta                 97.88(3)
_cell_angle_gamma                103.57(3)
_cell_volume                     1100.3
_exptl_crystal_colour            colorless
_exptl_crystal_description       block
_chemical_melting_point          '102-107 deg.C'
_cell_formula_units_Z            2
loop_
_atom_site_label
_atom_site_type_symbol
_atom_site_fract_x
_atom_site_fract_y
_atom_site_fract_z
I1 I 0.931827(14) 0.716834(10) 0.673770(8)
Mg1 Mg 0.74145(7) 0.86137(5) 0.75878(4)
O1 O 0.54047(15) 0.83896(12) 0.64815(9)
N1 N 0.83497(17) 1.05762(13) 0.82720(10)
C1 C 0.9659(2) 1.24709(17) 0.98286(13)
H1 H 1.0546 1.2714 0.9434
H2 H 1.0160 1.2531 1.0560
H3 H 0.8947 1.3079 0.9821
N2 N 0.65260(18) 0.81793(13) 0.88646(11)
C2 C 0.8613(2) 1.10613(16) 0.93202(12)
C3 C 0.8003(2) 1.03208(16) 1.00200(12)
H4 H 0.8346 1.0768 1.0747
C4 C 0.6956(2) 0.90129(16) 0.98129(12)
C5 C 0.6342(3) 0.85778(19) 1.07471(14)
H5 H 0.5231 0.8715 1.0772
H6 H 0.7120 0.9102 1.1400
H7 H 0.6277 0.7634 1.0675
C6 C 0.8749(2) 1.14369(15) 0.75906(12)
C7 C 0.9613(2) 1.10778(17) 0.67951(13)
H8 H 1.0000 1.0304 0.6751
C8 C 0.9914(2) 1.18440(19) 0.60648(14)
H9 H 1.0498 1.1585 0.5524
C9 C 0.9370(3) 1.29781(19) 0.61195(15)
H10 H 0.9599 1.3509 0.5630
C10 C 0.8487(2) 1.33315(18) 0.68968(15)
H11 H 0.8100 1.4105 0.6935
C11 C 0.8164(2) 1.25639(17) 0.76200(13)
H12 H 0.7539 1.2808 0.8140
C12 C 0.5357(2) 0.69076(16) 0.87006(12)
C13 C 0.5891(2) 0.57603(17) 0.84570(15)
H13 H 0.7043 0.5827 0.8467
C14 C 0.4738(2) 0.45173(18) 0.81992(16)
H14 H 0.5109 0.3738 0.8036
C15 C 0.3056(2) 0.44072(18) 0.81792(15)
H15 H 0.2274 0.3557 0.8004
C16 C 0.2523(2) 0.55472(19) 0.84172(15)
H16 H 0.1368 0.5477 0.8400
C17 C 0.3668(2) 0.67976(17) 0.86813(15)
H17 H 0.3293 0.7575 0.8848
C18 C 0.4167(2) 0.9056(2) 0.68111(15)
H18 H 0.4498 0.9472 0.7578
H19 H 0.3073 0.8390 0.6688
C19 C 0.3986(3) 1.0103(2) 0.62254(17)
H20 H 0.5081 1.0732 0.6306
H21 H 0.3217 1.0578 0.6514
H22 H 0.3542 0.9683 0.5475
C20 C 0.4788(2) 0.73355(19) 0.55186(14)
H23 H 0.5747 0.7163 0.5205
H24 H 0.4073 0.7629 0.5002
C21 C 0.3795(3) 0.6070(2) 0.57216(17)
H25 H 0.4507 0.5763 0.6218
H26 H 0.3396 0.5388 0.5055
H27 H 0.2836 0.6234 0.6024
loop_
_geom_bond_atom_site_label_1
_geom_bond_atom_site_label_2
_geom_bond_site_symmetry_1
_geom_bond_site_symmetry_2
I1 Mg1 1_555 1_555
Mg1 O1 1_555 1_555
O1 C18 1_555 1_555
N1 Mg1 1_555 1_555
C1 H1 1_555 1_555
H2 C1 1_555 1_555
H3 C1 1_555 1_555
N2 Mg1 1_555 1_555
C2 N1 1_555 1_555
C3 C2 1_555 1_555
H4 C3 1_555 1_555
C4 N2 1_555 1_555
C5 C4 1_555 1_555
H5 C5 1_555 1_555
H6 C5 1_555 1_555
H7 C5 1_555 1_555
C6 N1 1_555 1_555
C7 C6 1_555 1_555
H8 C7 1_555 1_555
C8 C7 1_555 1_555
H9 C8 1_555 1_555
C9 C8 1_555 1_555
H10 C9 1_555 1_555
C10 C9 1_555 1_555
H11 C10 1_555 1_555
C11 C6 1_555 1_555
H12 C11 1_555 1_555
C12 N2 1_555 1_555
C13 C12 1_555 1_555
H13 C13 1_555 1_555
C14 C13 1_555 1_555
H14 C14 1_555 1_555
C15 C14 1_555 1_555
H15 C15 1_555 1_555
C16 C15 1_555 1_555
H16 C16 1_555 1_555
C17 C12 1_555 1_555
H17 C17 1_555 1_555
C18 H18 1_555 1_555
H19 C18 1_555 1_555
C19 C18 1_555 1_555
H20 C19 1_555 1_555
H21 C19 1_555 1_555
H22 C19 1_555 1_555
C20 O1 1_555 1_555
H23 C20 1_555 1_555
H24 C20 1_555 1_555
C21 C20 1_555 1_555
H25 C21 1_555 1_555
H26 C21 1_555 1_555
H27 C21 1_555 1_555
C1 C2 1_555 1_555
C3 C4 1_555 1_555
C10 C11 1_555 1_555
C16 C17 1_555 1_555

#END
