
#######################################################################
#
#                 Cambridge Crystallographic Data Centre
#                                CCDC 
#
#######################################################################
#
# If this CIF has been generated from an entry in the Cambridge 
# Structural Database, then it will include bibliographic, chemical, 
# crystal, experimental, refinement or atomic coordinate data resulting 
# from the CCDC's data processing and validation procedures.
#
#######################################################################

data_GUPPUD
_chemical_formula_moiety         'C27 H37 I1 Mg1 N2 O1'
_chemical_name_systematic        
(N,N'-Dimesitylpentane-2,4-di-iminato-N,N')-iodo-tetrahydrofuran-magnesium
_symmetry_cell_setting           monoclinic
_symmetry_space_group_name_H-M   'P 21/n'
_symmetry_Int_Tables_number      14
_space_group_name_Hall           '-P 2yn'
loop_
_symmetry_equiv_pos_site_id
_symmetry_equiv_pos_as_xyz
1 x,y,z
2 1/2-x,1/2+y,1/2-z
3 -x,-y,-z
4 1/2+x,1/2-y,1/2+z
_cell_length_a                   12.481(3)
_cell_length_b                   12.081(2)
_cell_length_c                   17.956(4)
_cell_angle_alpha                90
_cell_angle_beta                 96.54(3)
_cell_angle_gamma                90
_cell_volume                     2689.84
_exptl_crystal_colour            colorless
_exptl_crystal_description       block
_cell_formula_units_Z            4
loop_
_atom_site_label
_atom_site_type_symbol
_atom_site_fract_x
_atom_site_fract_y
_atom_site_fract_z
I1 I 0.738165(13) 0.776148(14) 0.833605(9)
Mg1 Mg 0.58793(6) 0.73770(7) 0.71902(4)
O1 O 0.54948(13) 0.57693(14) 0.73334(9)
N1 N 0.61174(16) 0.76267(16) 0.61052(11)
C1 C 0.5376(2) 0.7341(2) 0.47805(14)
H1 H 0.5629 0.8010 0.4545
H2 H 0.4681 0.7113 0.4516
H3 H 0.5904 0.6746 0.4754
N2 N 0.44446(15) 0.81973(17) 0.70730(11)
C2 C 0.5244(2) 0.75802(19) 0.55943(13)
C3 C 0.41894(19) 0.7748(2) 0.57589(13)
H4 H 0.3637 0.7551 0.5373
C4 C 0.38359(18) 0.8168(2) 0.64177(13)
C5 C 0.2699(2) 0.8628(2) 0.63514(15)
H5 H 0.2281 0.8233 0.6698
H6 H 0.2357 0.8530 0.5837
H7 H 0.2725 0.9418 0.6477
C6 C 0.71419(19) 0.77742(19) 0.58248(12)
C7 C 0.7376(2) 0.8787(2) 0.54940(13)
C8 C 0.8346(2) 0.8893(2) 0.51852(14)
H8 H 0.8500 0.9570 0.4950
C9 C 0.9093(2) 0.8042(2) 0.52097(14)
C10 C 0.8872(2) 0.7075(2) 0.55842(14)
H9 H 0.9391 0.6496 0.5626
C11 C 0.7915(2) 0.6928(2) 0.58995(13)
C12 C 0.6609(2) 0.9758(2) 0.54648(16)
H10 H 0.6104 0.9716 0.5006
H11 H 0.7019 1.0450 0.5467
H12 H 0.6206 0.9737 0.5902
C13 C 1.0111(2) 0.8147(3) 0.48347(17)
H13 H 1.0738 0.7991 0.5200
H14 H 1.0166 0.8901 0.4642
H15 H 1.0090 0.7619 0.4419
C14 C 0.7707(2) 0.5869(2) 0.62968(15)
H16 H 0.8306 0.5355 0.6260
H17 H 0.7035 0.5536 0.6064
H18 H 0.7644 0.6026 0.6826
C15 C 0.40456(18) 0.8793(2) 0.76786(13)
C16 C 0.4258(2) 0.9930(2) 0.77562(14)
C17 C 0.3887(2) 1.0490(2) 0.83535(14)
H19 H 0.4014 1.1263 0.8403
C18 C 0.3337(2) 0.9957(2) 0.88802(14)
C19 C 0.3139(2) 0.8829(2) 0.87870(14)
H20 H 0.2757 0.8453 0.9139
C20 C 0.34816(19) 0.8235(2) 0.81963(13)
C21 C 0.4862(2) 1.0535(2) 0.72001(16)
H21 H 0.4932 1.1318 0.7341
H22 H 0.4466 1.0472 0.6698
H23 H 0.5581 1.0209 0.7199
C22 C 0.2975(3) 1.0572(3) 0.95382(16)
H24 H 0.3568 1.0600 0.9945
H25 H 0.2358 1.0188 0.9712
H26 H 0.2764 1.1326 0.9385
C23 C 0.3240(2) 0.7015(2) 0.81143(15)
H27 H 0.2860 0.6767 0.8533
H28 H 0.3917 0.6603 0.8116
H29 H 0.2786 0.6883 0.7640
C24 C 0.5966(2) 0.5002(2) 0.79119(14)
H30 H 0.6091 0.5375 0.8405
H31 H 0.6660 0.4703 0.7782
C25 C 0.5145(2) 0.4097(2) 0.79248(16)
H32 H 0.4585 0.4296 0.8250
H33 H 0.5488 0.3391 0.8103
C26 C 0.4672(2) 0.4014(2) 0.71109(16)
H34 H 0.5106 0.3511 0.6830
H35 H 0.3921 0.3737 0.7070
C27 C 0.4707(2) 0.5175(2) 0.68180(15)
H36 H 0.4929 0.5176 0.6306
H37 H 0.3989 0.5527 0.6802
loop_
_geom_bond_atom_site_label_1
_geom_bond_atom_site_label_2
_geom_bond_site_symmetry_1
_geom_bond_site_symmetry_2
I1 Mg1 1_555 1_555
Mg1 O1 1_555 1_555
O1 C24 1_555 1_555
N1 Mg1 1_555 1_555
C1 H1 1_555 1_555
H2 C1 1_555 1_555
H3 C1 1_555 1_555
N2 Mg1 1_555 1_555
C2 N1 1_555 1_555
C3 C2 1_555 1_555
H4 C3 1_555 1_555
C4 N2 1_555 1_555
C5 C4 1_555 1_555
H5 C5 1_555 1_555
H6 C5 1_555 1_555
H7 C5 1_555 1_555
C6 N1 1_555 1_555
C7 C6 1_555 1_555
C8 C7 1_555 1_555
H8 C8 1_555 1_555
C9 C8 1_555 1_555
C10 C9 1_555 1_555
H9 C10 1_555 1_555
C11 C6 1_555 1_555
C12 C7 1_555 1_555
H10 C12 1_555 1_555
H11 C12 1_555 1_555
H12 C12 1_555 1_555
C13 C9 1_555 1_555
H13 C13 1_555 1_555
H14 C13 1_555 1_555
H15 C13 1_555 1_555
C14 C11 1_555 1_555
H16 C14 1_555 1_555
H17 C14 1_555 1_555
H18 C14 1_555 1_555
C15 N2 1_555 1_555
C16 C15 1_555 1_555
C17 C16 1_555 1_555
H19 C17 1_555 1_555
C18 C17 1_555 1_555
C19 C18 1_555 1_555
H20 C19 1_555 1_555
C20 C15 1_555 1_555
C21 C16 1_555 1_555
H21 C21 1_555 1_555
H22 C21 1_555 1_555
H23 C21 1_555 1_555
C22 C18 1_555 1_555
H24 C22 1_555 1_555
H25 C22 1_555 1_555
H26 C22 1_555 1_555
C23 C20 1_555 1_555
H27 C23 1_555 1_555
H28 C23 1_555 1_555
H29 C23 1_555 1_555
C24 H30 1_555 1_555
H31 C24 1_555 1_555
C25 C24 1_555 1_555
H32 C25 1_555 1_555
H33 C25 1_555 1_555
C26 C25 1_555 1_555
H34 C26 1_555 1_555
H35 C26 1_555 1_555
C27 O1 1_555 1_555
H36 C27 1_555 1_555
H37 C27 1_555 1_555
C1 C2 1_555 1_555
C3 C4 1_555 1_555
C10 C11 1_555 1_555
C19 C20 1_555 1_555
C26 C27 1_555 1_555

#END
