
#######################################################################
#
#                 Cambridge Crystallographic Data Centre
#                                CCDC 
#
#######################################################################
#
# If this CIF has been generated from an entry in the Cambridge 
# Structural Database, then it will include bibliographic, chemical, 
# crystal, experimental, refinement or atomic coordinate data resulting 
# from the CCDC's data processing and validation procedures.
#
#######################################################################

data_GUPPEN
_chemical_formula_moiety         'C25 H44 I1 Mg1 N3 O1'
_chemical_name_systematic        
"(N-(2-(Dimethylamino)ethyl)-N'-(2,6-di-isopropylphenyl)pentane-2,4-di-iminato-N,N',N'')-(diethyl ether)-iodo-magnesium"
_symmetry_cell_setting           monoclinic
_symmetry_space_group_name_H-M   'P 21/c'
_symmetry_Int_Tables_number      14
_space_group_name_Hall           '-P 2ybc'
loop_
_symmetry_equiv_pos_site_id
_symmetry_equiv_pos_as_xyz
1 x,y,z
2 -x,1/2+y,1/2-z
3 -x,-y,-z
4 x,1/2-y,1/2+z
_cell_length_a                   11.021(2)
_cell_length_b                   15.665(3)
_cell_length_c                   15.931(3)
_cell_angle_alpha                90
_cell_angle_beta                 92.34(3)
_cell_angle_gamma                90
_cell_volume                     2748.1
_exptl_crystal_colour            colorless
_exptl_crystal_description       block
_chemical_melting_point          '145-150 deg.C'
_cell_formula_units_Z            4
loop_
_atom_site_label
_atom_site_type_symbol
_atom_site_fract_x
_atom_site_fract_y
_atom_site_fract_z
I1 I 0.075874(11) 0.632674(8) 0.163273(8)
Mg1 Mg 0.15226(5) 0.49161(4) 0.26272(4)
O1 O 0.18239(11) 0.40673(8) 0.16665(8)
N1 N 0.32252(13) 0.54307(9) 0.30319(9)
C1 C 0.52844(16) 0.54069(13) 0.37473(12)
H1 H 0.5438 0.5885 0.3370
H2 H 0.5917 0.4973 0.3692
H3 H 0.5294 0.5612 0.4329
N2 N 0.17164(14) 0.40315(10) 0.36099(9)
C2 C 0.40486(15) 0.50186(12) 0.35174(11)
N3 N -0.04406(14) 0.46711(11) 0.29337(11)
C3 C 0.38582(17) 0.42183(12) 0.38896(11)
H4 H 0.4566 0.3926 0.4094
C4 C 0.27470(19) 0.37981(11) 0.39960(11)
C5 C 0.2784(2) 0.30581(14) 0.46100(14)
H5 H 0.2250 0.3181 0.5072
H6 H 0.3618 0.2978 0.4835
H7 H 0.2509 0.2537 0.4320
C6 C 0.35058(15) 0.63076(11) 0.28416(11)
C7 C 0.41353(16) 0.65108(11) 0.21171(11)
C8 C 0.44495(17) 0.73649(12) 0.19887(12)
H8 H 0.4894 0.7513 0.1512
C9 C 0.41255(17) 0.79966(12) 0.25418(13)
H9 H 0.4375 0.8570 0.2457
C10 C 0.34331(17) 0.77910(12) 0.32242(12)
H10 H 0.3185 0.8230 0.3591
C11 C 0.31000(16) 0.69495(11) 0.33757(11)
C12 C 0.44393(18) 0.58366(13) 0.14738(12)
H11 H 0.3895 0.5337 0.1561
C13 C 0.5738(2) 0.5522(2) 0.15775(15)
H12 H 0.5892 0.5097 0.1144
H13 H 0.5866 0.5263 0.2134
H14 H 0.6296 0.6004 0.1522
C14 C 0.4201(2) 0.61499(15) 0.05665(13)
H15 H 0.3379 0.6387 0.0507
H16 H 0.4278 0.5670 0.0177
H17 H 0.4794 0.6592 0.0437
C15 C 0.22727(17) 0.67325(12) 0.40898(12)
H18 H 0.1840 0.6192 0.3928
C16 C 0.2980(2) 0.65554(16) 0.49155(13)
H19 H 0.3504 0.6056 0.4848
H20 H 0.2410 0.6443 0.5359
H21 H 0.3481 0.7053 0.5069
C17 C 0.12970(19) 0.74108(14) 0.42104(14)
H22 H 0.1681 0.7940 0.4415
H23 H 0.0725 0.7208 0.4621
H24 H 0.0860 0.7519 0.3673
C18 C 0.05999(19) 0.36094(13) 0.38624(13)
H25 H 0.0359 0.3836 0.4411
H26 H 0.0742 0.2988 0.3923
C19 C -0.04008(19) 0.37688(13) 0.32050(13)
H27 H -0.0272 0.3400 0.2712
H28 H -0.1191 0.3612 0.3436
C20 C -0.14176(19) 0.47535(17) 0.22758(17)
H29 H -0.1251 0.4372 0.1807
H30 H -0.1453 0.5344 0.2074
H31 H -0.2197 0.4599 0.2510
C21 C -0.0724(2) 0.52443(15) 0.36378(17)
H32 H -0.1496 0.5072 0.3871
H33 H -0.0788 0.5833 0.3433
H34 H -0.0075 0.5207 0.4076
C22 C 0.27907(18) 0.34438(13) 0.18005(13)
H35 H 0.3336 0.3634 0.2273
H36 H 0.3275 0.3415 0.1291
C23 C 0.2312(2) 0.25625(14) 0.19923(14)
H37 H 0.1855 0.2584 0.2507
H38 H 0.2994 0.2165 0.2070
H39 H 0.1777 0.2368 0.1524
C24 C 0.12178(18) 0.40232(14) 0.08393(12)
H40 H 0.0432 0.4329 0.0853
H41 H 0.1044 0.3419 0.0700
C25 C 0.1963(2) 0.44056(16) 0.01627(13)
H42 H 0.2117 0.5009 0.0288
H43 H 0.1518 0.4356 -0.0381
H44 H 0.2737 0.4101 0.0140
loop_
_geom_bond_atom_site_label_1
_geom_bond_atom_site_label_2
_geom_bond_site_symmetry_1
_geom_bond_site_symmetry_2
I1 Mg1 1_555 1_555
Mg1 O1 1_555 1_555
O1 C22 1_555 1_555
N1 Mg1 1_555 1_555
C1 H1 1_555 1_555
H2 C1 1_555 1_555
H3 C1 1_555 1_555
N2 Mg1 1_555 1_555
C2 N1 1_555 1_555
N3 Mg1 1_555 1_555
C3 C2 1_555 1_555
H4 C3 1_555 1_555
C4 N2 1_555 1_555
C5 C4 1_555 1_555
H5 C5 1_555 1_555
H6 C5 1_555 1_555
H7 C5 1_555 1_555
C6 N1 1_555 1_555
C7 C6 1_555 1_555
C8 C7 1_555 1_555
H8 C8 1_555 1_555
C9 C8 1_555 1_555
H9 C9 1_555 1_555
C10 C9 1_555 1_555
H10 C10 1_555 1_555
C11 C6 1_555 1_555
C12 C7 1_555 1_555
H11 C12 1_555 1_555
C13 C12 1_555 1_555
H12 C13 1_555 1_555
H13 C13 1_555 1_555
H14 C13 1_555 1_555
C14 C12 1_555 1_555
H15 C14 1_555 1_555
H16 C14 1_555 1_555
H17 C14 1_555 1_555
C15 C11 1_555 1_555
H18 C15 1_555 1_555
C16 C15 1_555 1_555
H19 C16 1_555 1_555
H20 C16 1_555 1_555
H21 C16 1_555 1_555
C17 C15 1_555 1_555
H22 C17 1_555 1_555
H23 C17 1_555 1_555
H24 C17 1_555 1_555
C18 N2 1_555 1_555
H25 C18 1_555 1_555
H26 C18 1_555 1_555
C19 N3 1_555 1_555
H27 C19 1_555 1_555
H28 C19 1_555 1_555
C20 N3 1_555 1_555
H29 C20 1_555 1_555
H30 C20 1_555 1_555
H31 C20 1_555 1_555
C21 N3 1_555 1_555
H32 C21 1_555 1_555
H33 C21 1_555 1_555
H34 C21 1_555 1_555
C22 H35 1_555 1_555
H36 C22 1_555 1_555
C23 C22 1_555 1_555
H37 C23 1_555 1_555
H38 C23 1_555 1_555
H39 C23 1_555 1_555
C24 O1 1_555 1_555
H40 C24 1_555 1_555
H41 C24 1_555 1_555
C25 C24 1_555 1_555
H42 C25 1_555 1_555
H43 C25 1_555 1_555
H44 C25 1_555 1_555
C1 C2 1_555 1_555
C3 C4 1_555 1_555
C10 C11 1_555 1_555
C18 C19 1_555 1_555

#END
