
#######################################################################
#
#                 Cambridge Crystallographic Data Centre
#                                CCDC 
#
#######################################################################
#
# If this CIF has been generated from an entry in the Cambridge 
# Structural Database, then it will include bibliographic, chemical, 
# crystal, experimental, refinement or atomic coordinate data resulting 
# from the CCDC's data processing and validation procedures.
#
#######################################################################

data_GUPRSA
_chemical_formula_moiety         'C4 H11 N3 O3 S1'
_chemical_name_systematic        '\g-Guanidino-propane-sulfonic acid'
_symmetry_cell_setting           monoclinic
_symmetry_space_group_name_H-M   'P 21/c'
_symmetry_Int_Tables_number      14
_space_group_name_Hall           '-P 2ybc'
loop_
_symmetry_equiv_pos_site_id
_symmetry_equiv_pos_as_xyz
1 x,y,z
2 -x,1/2+y,1/2-z
3 -x,-y,-z
4 x,1/2-y,1/2+z
_cell_length_a                   10.080(3)
_cell_length_b                   8.013(8)
_cell_length_c                   19.716(1)
_cell_angle_alpha                90
_cell_angle_beta                 98.17(3)
_cell_angle_gamma                90
_cell_volume                     1576.32
_cell_formula_units_Z            8
loop_
_atom_site_label
_atom_site_type_symbol
_atom_site_fract_x
_atom_site_fract_y
_atom_site_fract_z
C1 C -0.33290 0.44300 0.07710
C2 C -0.42840 0.45500 0.13120
C3 C -0.37140 0.37590 0.19930
C4 C -0.43180 0.36730 0.31700
H1 H -0.23900 0.45600 0.10300
H2 H -0.52000 0.40500 0.40500
H3 H -0.60800 0.48500 0.34800
H4 H -0.35300 0.53000 0.04300
H5 H -0.44000 0.56600 0.13900
H6 H -0.51900 0.41900 0.11300
H7 H -0.34000 0.25200 0.18700
H8 H -0.28700 0.44300 0.21200
H9 H -0.54600 0.44600 0.23600
H10 H -0.28700 0.21100 0.31200
H11 H -0.30000 0.27400 0.38000
N1 N -0.46460 0.40080 0.24900
N2 N -0.31940 0.28760 0.33870
N3 N -0.51220 0.41980 0.35910
O1 O -0.47760 0.22710 -0.00020
O2 O -0.24820 0.26950 -0.01750
O3 O -0.29570 0.12030 0.08280
S1 S -0.34090 0.24930 0.03290
C5 C 0.11720 0.28470 0.29670
C6 C 0.02640 0.40570 0.32940
C7 C 0.00230 0.34070 0.40080
C8 C 0.13910 0.29760 0.51240
H12 H 0.20700 0.25600 0.32900
H13 H 0.04200 0.17400 0.58200
H14 H -0.06100 0.22900 0.52300
H15 H 0.06700 0.51700 0.33900
H16 H -0.06300 0.42000 0.30100
H17 H -0.02500 0.22000 0.40100
H18 H -0.07900 0.42800 0.41600
H19 H 0.20900 0.43100 0.43700
H20 H 0.33800 0.32900 0.53900
H21 H 0.26600 0.29900 0.59100
N4 N 0.12610 0.35170 0.44720
N5 N 0.25710 0.31070 0.55160
N6 N 0.03570 0.22820 0.53600
O4 O 0.04570 0.41030 0.17380
O5 O 0.24790 0.24010 0.19400
O6 O 0.24690 0.51440 0.24260
S2 S 0.16500 0.36980 0.22020
loop_
_geom_bond_atom_site_label_1
_geom_bond_atom_site_label_2
_geom_bond_site_symmetry_1
_geom_bond_site_symmetry_2
C1 C2 1_555 1_555
C2 C3 1_555 1_555
C3 H7 1_555 1_555
C4 N1 1_555 1_555
H1 C1 1_555 1_555
H2 N3 1_555 1_555
H3 N3 1_555 1_555
H4 C1 1_555 1_555
H5 C2 1_555 1_555
H6 C2 1_555 1_555
H8 C3 1_555 1_555
H9 N1 1_555 1_555
H10 N2 1_555 1_555
H11 N2 1_555 1_555
N1 C3 1_555 1_555
N2 C4 1_555 1_555
N3 C4 1_555 1_555
O1 S1 1_555 1_555
O2 S1 1_555 1_555
O3 S1 1_555 1_555
S1 C1 1_555 1_555
C5 C6 1_555 1_555
C6 C7 1_555 1_555
C7 H17 1_555 1_555
C8 N4 1_555 1_555
H12 C5 1_555 1_555
H13 N6 1_555 1_555
H14 N6 1_555 1_555
H15 C6 1_555 1_555
H16 C6 1_555 1_555
H18 C7 1_555 1_555
H19 N4 1_555 1_555
H20 N5 1_555 1_555
H21 N5 1_555 1_555
N4 C7 1_555 1_555
N5 C8 1_555 1_555
N6 C8 1_555 1_555
O4 S2 1_555 1_555
O5 S2 1_555 1_555
O6 S2 1_555 1_555
S2 C5 1_555 1_555

#END
