
#######################################################################
#
#                 Cambridge Crystallographic Data Centre
#                                CCDC 
#
#######################################################################
#
# If this CIF has been generated from an entry in the Cambridge 
# Structural Database, then it will include bibliographic, chemical, 
# crystal, experimental, refinement or atomic coordinate data resulting 
# from the CCDC's data processing and validation procedures.
#
#######################################################################

data_GUPROZ
_chemical_formula_moiety         'C46 H58 Mg1 N4'
_chemical_name_systematic        
bis(N,N'-Dimesitylpentane-2,4-di-iminato)-magnesium
_symmetry_cell_setting           monoclinic
_symmetry_space_group_name_H-M   'P 21/c'
_symmetry_Int_Tables_number      14
_space_group_name_Hall           '-P 2ybc'
loop_
_symmetry_equiv_pos_site_id
_symmetry_equiv_pos_as_xyz
1 x,y,z
2 -x,1/2+y,1/2-z
3 -x,-y,-z
4 x,1/2-y,1/2+z
_cell_length_a                   10.330(2)
_cell_length_b                   13.415(3)
_cell_length_c                   29.271(6)
_cell_angle_alpha                90
_cell_angle_beta                 91.28(3)
_cell_angle_gamma                90
_cell_volume                     4055.27
_exptl_crystal_colour            colorless
_exptl_crystal_description       block
_cell_formula_units_Z            4
loop_
_atom_site_label
_atom_site_type_symbol
_atom_site_fract_x
_atom_site_fract_y
_atom_site_fract_z
Mg1 Mg 0.25625(6) 0.23579(5) 0.14679(2)
N1 N 0.15348(15) 0.34629(12) 0.11180(5)
C1 C -0.0202(2) 0.47143(15) 0.11452(8)
H1 H 0.0409 0.5246 0.1229
H2 H -0.1012 0.4813 0.1308
H3 H -0.0379 0.4732 0.0815
N2 N 0.08842(15) 0.15965(12) 0.16029(5)
C2 C 0.03767(18) 0.37130(15) 0.12756(6)
N3 N 0.40100(15) 0.16023(12) 0.11424(5)
C3 C -0.03746(18) 0.31124(15) 0.15616(7)
H4 H -0.1086 0.3434 0.1700
N4 N 0.38411(15) 0.28046(12) 0.19845(5)
C4 C -0.02084(18) 0.20985(15) 0.16694(6)
C5 C -0.13602(19) 0.15666(16) 0.18650(7)
H5 H -0.1616 0.1014 0.1663
H6 H -0.2083 0.2035 0.1890
H7 H -0.1128 0.1306 0.2169
C6 C 0.19724(18) 0.40042(15) 0.07241(6)
C7 C 0.29514(19) 0.47277(15) 0.07633(7)
C8 C 0.3385(2) 0.51881(16) 0.03675(7)
H8 H 0.4052 0.5673 0.0395
C9 C 0.2883(2) 0.49675(17) -0.00632(7)
C10 C 0.1908(2) 0.42535(16) -0.00914(7)
H9 H 0.1551 0.4086 -0.0383
C11 C 0.14355(19) 0.37767(15) 0.02925(7)
C12 C 0.3498(2) 0.50465(16) 0.12201(7)
H10 H 0.4130 0.5582 0.1178
H11 H 0.3924 0.4478 0.1370
H12 H 0.2796 0.5288 0.1411
C13 C 0.3340(2) 0.55113(19) -0.04820(8)
H13 H 0.2713 0.6031 -0.0567
H14 H 0.3419 0.5038 -0.0735
H15 H 0.4185 0.5817 -0.0415
C14 C 0.0336(2) 0.30391(18) 0.02344(7)
H16 H -0.0492 0.3386 0.0265
H17 H 0.0416 0.2521 0.0469
H18 H 0.0371 0.2732 -0.0069
C15 C 0.08552(18) 0.05282(15) 0.16433(7)
C16 C 0.11997(18) 0.00534(15) 0.20548(7)
C17 C 0.12269(19) -0.09873(16) 0.20654(8)
H19 H 0.1451 -0.1311 0.2345
C18 C 0.0940(2) -0.15646(16) 0.16853(8)
C19 C 0.0587(2) -0.10745(16) 0.12827(8)
H20 H 0.0386 -0.1458 0.1018
C20 C 0.05190(19) -0.00406(16) 0.12560(7)
C21 C 0.1530(2) 0.06454(17) 0.24792(7)
H21 H 0.2447 0.0832 0.2478
H22 H 0.1362 0.0240 0.2750
H23 H 0.0996 0.1249 0.2485
C22 C 0.0975(3) -0.26863(18) 0.17033(10)
H24 H 0.0088 -0.2946 0.1707
H25 H 0.1445 -0.2901 0.1981
H26 H 0.1414 -0.2943 0.1434
C23 C 0.0087(2) 0.04539(17) 0.08166(7)
H27 H -0.0668 0.0875 0.0872
H28 H -0.0144 -0.0057 0.0590
H29 H 0.0793 0.0866 0.0702
C24 C 0.62299(19) 0.15570(17) 0.08570(7)
H30 H 0.6502 0.0916 0.0988
H31 H 0.6973 0.2010 0.0851
H32 H 0.5894 0.1453 0.0545
C25 C 0.51792(18) 0.20079(15) 0.11460(6)
C26 C 0.55358(18) 0.28184(15) 0.14240(6)
H33 H 0.6234 0.3212 0.1320
C27 C 0.49915(18) 0.31208(14) 0.18366(6)
C28 C 0.57926(19) 0.38360(16) 0.21231(7)
H34 H 0.5218 0.4293 0.2284
H35 H 0.6362 0.4219 0.1925
H36 H 0.6318 0.3461 0.2347
C29 C 0.38127(18) 0.06663(14) 0.09142(6)
C30 C 0.39980(19) -0.02193(16) 0.11657(7)
C31 C 0.3699(2) -0.11220(16) 0.09583(7)
H37 H 0.3829 -0.1721 0.1126
C32 C 0.3214(2) -0.11792(16) 0.05125(7)
C33 C 0.3076(2) -0.03027(17) 0.02689(7)
H38 H 0.2762 -0.0333 -0.0038
C34 C 0.33808(19) 0.06290(16) 0.04577(7)
C35 C 0.4489(2) -0.01820(17) 0.16531(7)
H39 H 0.4525 -0.0859 0.1778
H40 H 0.3905 0.0226 0.1834
H41 H 0.5358 0.0111 0.1664
C36 C 0.2839(3) -0.21726(18) 0.03068(9)
H42 H 0.2191 -0.2070 0.0062
H43 H 0.2476 -0.2600 0.0543
H44 H 0.3607 -0.2493 0.0182
C37 C 0.3256(2) 0.15581(18) 0.01705(7)
H45 H 0.4047 0.1652 -0.0003
H46 H 0.3126 0.2135 0.0369
H47 H 0.2513 0.1491 -0.0042
C38 C 0.36272(18) 0.28670(15) 0.24676(6)
C39 C 0.43187(19) 0.22361(15) 0.27691(7)
C40 C 0.4020(2) 0.22451(17) 0.32310(7)
H48 H 0.4480 0.1810 0.3433
C41 C 0.3080(2) 0.28638(19) 0.34087(7)
C42 C 0.24268(19) 0.34922(17) 0.31044(7)
H49 H 0.1785 0.3928 0.3218
C43 C 0.26772(18) 0.35080(15) 0.26404(6)
C44 C 0.5366(2) 0.15483(17) 0.26086(7)
H50 H 0.6177 0.1921 0.2583
H51 H 0.5115 0.1271 0.2310
H52 H 0.5487 0.1005 0.2829
C45 C 0.2797(3) 0.2862(3) 0.39127(8)
H53 H 0.3009 0.3516 0.4043
H54 H 0.3322 0.2349 0.4067
H55 H 0.1877 0.2720 0.3955
C46 C 0.1968(2) 0.42335(17) 0.23346(7)
H56 H 0.1290 0.4567 0.2507
H57 H 0.1574 0.3876 0.2075
H58 H 0.2577 0.4732 0.2222
loop_
_geom_bond_atom_site_label_1
_geom_bond_atom_site_label_2
_geom_bond_site_symmetry_1
_geom_bond_site_symmetry_2
Mg1 N1 1_555 1_555
N1 C2 1_555 1_555
C1 H1 1_555 1_555
H2 C1 1_555 1_555
H3 C1 1_555 1_555
N2 Mg1 1_555 1_555
C2 C1 1_555 1_555
N3 Mg1 1_555 1_555
C3 C2 1_555 1_555
H4 C3 1_555 1_555
N4 Mg1 1_555 1_555
C4 N2 1_555 1_555
C5 C4 1_555 1_555
H5 C5 1_555 1_555
H6 C5 1_555 1_555
H7 C5 1_555 1_555
C6 N1 1_555 1_555
C7 C6 1_555 1_555
C8 C7 1_555 1_555
H8 C8 1_555 1_555
C9 C8 1_555 1_555
C10 C9 1_555 1_555
H9 C10 1_555 1_555
C11 C6 1_555 1_555
C12 C7 1_555 1_555
H10 C12 1_555 1_555
H11 C12 1_555 1_555
H12 C12 1_555 1_555
C13 C9 1_555 1_555
H13 C13 1_555 1_555
H14 C13 1_555 1_555
H15 C13 1_555 1_555
C14 C11 1_555 1_555
H16 C14 1_555 1_555
H17 C14 1_555 1_555
H18 C14 1_555 1_555
C15 N2 1_555 1_555
C16 C15 1_555 1_555
C17 C16 1_555 1_555
H19 C17 1_555 1_555
C18 C17 1_555 1_555
C19 C18 1_555 1_555
H20 C19 1_555 1_555
C20 C15 1_555 1_555
C21 C16 1_555 1_555
H21 C21 1_555 1_555
H22 C21 1_555 1_555
H23 C21 1_555 1_555
C22 C18 1_555 1_555
H24 C22 1_555 1_555
H25 C22 1_555 1_555
H26 C22 1_555 1_555
C23 C20 1_555 1_555
H27 C23 1_555 1_555
H28 C23 1_555 1_555
H29 C23 1_555 1_555
C24 H30 1_555 1_555
H31 C24 1_555 1_555
H32 C24 1_555 1_555
C25 N3 1_555 1_555
C26 C25 1_555 1_555
H33 C26 1_555 1_555
C27 N4 1_555 1_555
C28 C27 1_555 1_555
H34 C28 1_555 1_555
H35 C28 1_555 1_555
H36 C28 1_555 1_555
C29 N3 1_555 1_555
C30 C29 1_555 1_555
C31 C30 1_555 1_555
H37 C31 1_555 1_555
C32 C31 1_555 1_555
C33 C32 1_555 1_555
H38 C33 1_555 1_555
C34 C29 1_555 1_555
C35 C30 1_555 1_555
H39 C35 1_555 1_555
H40 C35 1_555 1_555
H41 C35 1_555 1_555
C36 C32 1_555 1_555
H42 C36 1_555 1_555
H43 C36 1_555 1_555
H44 C36 1_555 1_555
C37 C34 1_555 1_555
H45 C37 1_555 1_555
H46 C37 1_555 1_555
H47 C37 1_555 1_555
C38 N4 1_555 1_555
C39 C38 1_555 1_555
C40 C39 1_555 1_555
H48 C40 1_555 1_555
C41 C40 1_555 1_555
C42 C41 1_555 1_555
H49 C42 1_555 1_555
C43 C38 1_555 1_555
C44 C39 1_555 1_555
H50 C44 1_555 1_555
H51 C44 1_555 1_555
H52 C44 1_555 1_555
C45 C41 1_555 1_555
H53 C45 1_555 1_555
H54 C45 1_555 1_555
H55 C45 1_555 1_555
C46 C43 1_555 1_555
H56 C46 1_555 1_555
H57 C46 1_555 1_555
H58 C46 1_555 1_555
C3 C4 1_555 1_555
C10 C11 1_555 1_555
C19 C20 1_555 1_555
C24 C25 1_555 1_555
C26 C27 1_555 1_555
C33 C34 1_555 1_555
C42 C43 1_555 1_555

#END
