
#######################################################################
#
#                 Cambridge Crystallographic Data Centre
#                                CCDC 
#
#######################################################################
#
# If this CIF has been generated from an entry in the Cambridge 
# Structural Database, then it will include bibliographic, chemical, 
# crystal, experimental, refinement or atomic coordinate data resulting 
# from the CCDC's data processing and validation procedures.
#
#######################################################################

data_GUPRUF
_chemical_formula_moiety         'C46 H58 Mg1 N4,3(C6 H6)'
_chemical_name_systematic        
"bis(N,N'-Dimesitylpentane-2,4-di-iminato)-magnesium benzene solvate"
_symmetry_cell_setting           monoclinic
_symmetry_space_group_name_H-M   'C 2/c'
_symmetry_Int_Tables_number      15
_space_group_name_Hall           '-C 2yn'
loop_
_symmetry_equiv_pos_site_id
_symmetry_equiv_pos_as_xyz
1 x,y,z
2 -x,y,1/2-z
3 1/2+x,1/2+y,z
4 1/2-x,1/2+y,1/2-z
5 -x,-y,-z
6 x,-y,1/2+z
7 1/2-x,1/2-y,-z
8 1/2+x,1/2-y,1/2+z
_cell_length_a                   16.917(3)
_cell_length_b                   16.039(3)
_cell_length_c                   20.166(4)
_cell_angle_alpha                90
_cell_angle_beta                 97.20(3)
_cell_angle_gamma                90
_cell_volume                     5428.53
_exptl_crystal_colour            colorless
_exptl_crystal_description       block
_cell_formula_units_Z            4
loop_
_atom_site_label
_atom_site_type_symbol
_atom_site_fract_x
_atom_site_fract_y
_atom_site_fract_z
Mg1 Mg 0.0000 0.54278(5) 0.2500
N1 N 0.08867(8) 0.47884(9) 0.20914(7)
C1 C 0.19740(11) 0.47334(13) 0.13826(10)
H1 H 0.2362 0.4586 0.1767
H2 H 0.2220 0.5116 0.1090
H3 H 0.1801 0.4227 0.1134
N2 N -0.03225(9) 0.60830(9) 0.16195(7)
C2 C 0.12579(10) 0.51537(11) 0.16263(9)
C3 C 0.10118(11) 0.59048(12) 0.13100(9)
H4 H 0.1405 0.6190 0.1100
C4 C 0.02625(11) 0.62939(13) 0.12615(9)
C5 C 0.01356(15) 0.69968(18) 0.07534(14)
H5 H -0.0093 0.6771 0.0320
H6 H 0.0648 0.7263 0.0709
H7 H -0.0230 0.7410 0.0904
C6 C 0.11426(10) 0.39631(11) 0.22995(9)
C7 C 0.17731(11) 0.38473(12) 0.28161(9)
C8 C 0.19810(11) 0.30378(13) 0.30189(10)
H8 H 0.2410 0.2957 0.3364
C9 C 0.15832(12) 0.23471(13) 0.27335(11)
C10 C 0.09611(11) 0.24750(12) 0.22230(11)
H9 H 0.0680 0.2007 0.2024
C11 C 0.07395(11) 0.32733(12) 0.19960(10)
C12 C 0.22322(13) 0.45753(14) 0.31402(11)
H10 H 0.2434 0.4434 0.3603
H11 H 0.1881 0.5062 0.3135
H12 H 0.2681 0.4704 0.2893
C13 C 0.18354(16) 0.14765(15) 0.29526(14)
H13 H 0.2284 0.1302 0.2722
H14 H 0.1388 0.1092 0.2841
H15 H 0.1997 0.1471 0.3437
C14 C 0.00794(11) 0.33820(13) 0.14291(10)
H16 H -0.0099 0.2834 0.1256
H17 H 0.0275 0.3707 0.1072
H18 H -0.0367 0.3676 0.1590
C15 C -0.11098(11) 0.63415(12) 0.13447(9)
C16 C -0.15236(11) 0.69598(12) 0.16497(9)
C17 C -0.22868(11) 0.71881(12) 0.13587(10)
H19 H -0.2562 0.7615 0.1563
C18 C -0.26566(11) 0.68123(13) 0.07810(10)
C19 C -0.22416(12) 0.61868(13) 0.04985(10)
H20 H -0.2488 0.5914 0.0108
C20 C -0.14757(12) 0.59439(13) 0.07660(9)
C21 C -0.11565(12) 0.73919(14) 0.22772(10)
H21 H -0.1479 0.7878 0.2362
H22 H -0.0615 0.7573 0.2222
H23 H -0.1136 0.7005 0.2655
C22 C -0.34693(12) 0.70895(15) 0.04658(11)
H24 H -0.3438 0.7276 0.0007
H25 H -0.3655 0.7550 0.0726
H26 H -0.3844 0.6622 0.0460
C23 C -0.10586(15) 0.52504(17) 0.04438(12)
H27 H -0.1442 0.4958 0.0120
H28 H -0.0830 0.4858 0.0788
H29 H -0.0632 0.5484 0.0214
N1A N -0.08867(8) 0.47884(9) 0.29086(7)
C1A C -0.19740(11) 0.47334(13) 0.36174(10)
H1A H -0.2362 0.4586 0.3233
H2A H -0.2220 0.5116 0.3910
H3A H -0.1801 0.4227 0.3866
N2A N 0.03225(9) 0.60830(9) 0.33805(7)
C2A C -0.12579(10) 0.51537(11) 0.33737(9)
C3A C -0.10118(11) 0.59048(12) 0.36900(9)
H4A H -0.1405 0.6190 0.3900
C4A C -0.02625(11) 0.62939(13) 0.37385(9)
C5A C -0.01356(15) 0.69968(18) 0.42466(14)
H5A H 0.0093 0.6771 0.4680
H6A H -0.0648 0.7263 0.4291
H7A H 0.0230 0.7410 0.4096
C6A C -0.11426(10) 0.39631(11) 0.27005(9)
C7A C -0.17731(11) 0.38473(12) 0.21839(9)
C8A C -0.19810(11) 0.30378(13) 0.19811(10)
H8A H -0.2410 0.2957 0.1636
C9A C -0.15832(12) 0.23471(13) 0.22665(11)
C10A C -0.09611(11) 0.24750(12) 0.27770(11)
H9A H -0.0680 0.2007 0.2976
C11A C -0.07395(11) 0.32733(12) 0.30040(10)
C12A C -0.22322(13) 0.45753(14) 0.18598(11)
H10A H -0.2434 0.4434 0.1397
H11A H -0.1881 0.5062 0.1865
H12A H -0.2681 0.4704 0.2107
C13A C -0.18354(16) 0.14765(15) 0.20474(14)
H13A H -0.2284 0.1302 0.2278
H14A H -0.1388 0.1092 0.2159
H15A H -0.1997 0.1471 0.1563
C14A C -0.00794(11) 0.33820(13) 0.35709(10)
H16A H 0.0099 0.2834 0.3744
H17A H -0.0275 0.3707 0.3928
H18A H 0.0367 0.3676 0.3410
C15A C 0.11098(11) 0.63415(12) 0.36553(9)
C16A C 0.15236(11) 0.69598(12) 0.33503(9)
C17A C 0.22868(11) 0.71881(12) 0.36413(10)
H19A H 0.2562 0.7615 0.3437
C18A C 0.26566(11) 0.68123(13) 0.42190(10)
C19A C 0.22416(12) 0.61868(13) 0.45015(10)
H20A H 0.2488 0.5914 0.4892
C20A C 0.14757(12) 0.59439(13) 0.42340(9)
C21A C 0.11565(12) 0.73919(14) 0.27228(10)
H21A H 0.1479 0.7878 0.2638
H22A H 0.0615 0.7573 0.2778
H23A H 0.1136 0.7005 0.2345
C22A C 0.34693(12) 0.70895(15) 0.45342(11)
H24A H 0.3438 0.7276 0.4993
H25A H 0.3655 0.7550 0.4274
H26A H 0.3844 0.6622 0.4540
C23A C 0.10586(15) 0.52504(17) 0.45562(12)
H27A H 0.1442 0.4958 0.4880
H28A H 0.0830 0.4858 0.4212
H29A H 0.0632 0.5484 0.4786
C24 C 0.18711(18) 0.2990(3) 0.47351(15)
H30 H 0.1439 0.3332 0.4552
C25 C 0.26025(19) 0.3347(3) 0.49422(14)
H31 H 0.2674 0.3931 0.4903
C26 C 0.32364(18) 0.2843(3) 0.52100(15)
H32 H 0.3742 0.3083 0.5353
C24F C 0.31289(18) 0.2010(3) 0.52649(15)
H30F H 0.3561 0.1668 0.5448
C25F C 0.23975(19) 0.1653(3) 0.50578(14)
H31F H 0.2326 0.1069 0.5097
C26F C 0.17636(18) 0.2157(3) 0.47900(15)
H32F H 0.1258 0.1917 0.4647
C27 C 0.0471(4) 0.9501(5) 0.3216(4)
H33 H 0.0672 0.9267 0.2838
C28 C -0.0218(5) 0.9963(5) 0.3120(4)
H34 H -0.0441 1.0100 0.2678
C29 C -0.0060(6) 1.0203(7) 0.4294(5)
H35 H -0.0210 1.0495 0.4668
C30 C 0.0656(6) 0.9751(6) 0.4359(6)
H36 H 0.0983 0.9715 0.4777
C31 C 0.0865(10) 0.9370(9) 0.3815(7)
H37 H 0.1305 0.8998 0.3861
C32 C -0.0587(5) 1.0230(5) 0.3642(3)
H38 H -0.1125 1.0414 0.3598
C33? C 0.0783(8) 0.9312(6) 0.3845(5)
C34? C 0.0089(4) 0.8935(5) 0.3636(3)
C35? C -0.0616(4) 0.9375(4) 0.3618(4)
C36? C -0.0601(4) 1.0134(7) 0.3892(5)
C37? C 0.0096(4) 1.0583(4) 0.3984(5)
C38? C 0.0802(4) 1.0136(4) 0.4025(4)
H39? H 0.1266 0.9005 0.3869
H40? H 0.0081 0.8368 0.3500
H41? H -0.1103 0.9142 0.3414
H42? H -0.1074 1.0364 0.4025
H43? H 0.0094 1.1174 0.4018
H44? H 0.1295 1.0399 0.4177
loop_
_geom_bond_atom_site_label_1
_geom_bond_atom_site_label_2
_geom_bond_site_symmetry_1
_geom_bond_site_symmetry_2
Mg1 N1 1_555 1_555
N1 C2 1_555 1_555
C1 H1 1_555 1_555
H2 C1 1_555 1_555
H3 C1 1_555 1_555
N2 Mg1 1_555 1_555
C2 C1 1_555 1_555
C3 C2 1_555 1_555
H4 C3 1_555 1_555
C4 N2 1_555 1_555
C5 C4 1_555 1_555
H5 C5 1_555 1_555
H6 C5 1_555 1_555
H7 C5 1_555 1_555
C6 N1 1_555 1_555
C7 C6 1_555 1_555
C8 C7 1_555 1_555
H8 C8 1_555 1_555
C9 C8 1_555 1_555
C10 C9 1_555 1_555
H9 C10 1_555 1_555
C11 C6 1_555 1_555
C12 C7 1_555 1_555
H10 C12 1_555 1_555
H11 C12 1_555 1_555
H12 C12 1_555 1_555
C13 C9 1_555 1_555
H13 C13 1_555 1_555
H14 C13 1_555 1_555
H15 C13 1_555 1_555
C14 C11 1_555 1_555
H16 C14 1_555 1_555
H17 C14 1_555 1_555
H18 C14 1_555 1_555
C15 N2 1_555 1_555
C16 C15 1_555 1_555
C17 C16 1_555 1_555
H19 C17 1_555 1_555
C18 C17 1_555 1_555
C19 C18 1_555 1_555
H20 C19 1_555 1_555
C20 C15 1_555 1_555
C21 C16 1_555 1_555
H21 C21 1_555 1_555
H22 C21 1_555 1_555
H23 C21 1_555 1_555
C22 C18 1_555 1_555
H24 C22 1_555 1_555
H25 C22 1_555 1_555
H26 C22 1_555 1_555
C23 C20 1_555 1_555
H27 C23 1_555 1_555
H28 C23 1_555 1_555
H29 C23 1_555 1_555
C24 H30 1_555 1_555
C25 C24 1_555 1_555
H31 C25 1_555 1_555
C26 C25 1_555 1_555
H32 C26 1_555 1_555
C27 H33 1_555 1_555
C28 C27 1_555 1_555
H34 C28 1_555 1_555
C29 H35 1_555 1_555
C30 C29 1_555 1_555
H36 C30 1_555 1_555
C31 C27 1_555 1_555
H37 C31 1_555 1_555
C32 C28 1_555 1_555
H38 C32 1_555 1_555
N1A Mg1 1_555 1_555
C1A H1A 1_555 1_555
H2A C1A 1_555 1_555
H3A C1A 1_555 1_555
N2A Mg1 1_555 1_555
C2A N1A 1_555 1_555
C3A C2A 1_555 1_555
H4A C3A 1_555 1_555
C4A N2A 1_555 1_555
C5A C4A 1_555 1_555
H5A C5A 1_555 1_555
H6A C5A 1_555 1_555
H7A C5A 1_555 1_555
C6A N1A 1_555 1_555
C7A C6A 1_555 1_555
C8A C7A 1_555 1_555
H8A C8A 1_555 1_555
C9A C8A 1_555 1_555
C10A C9A 1_555 1_555
H9A C10A 1_555 1_555
C11A C6A 1_555 1_555
C12A C7A 1_555 1_555
H10A C12A 1_555 1_555
H11A C12A 1_555 1_555
H12A C12A 1_555 1_555
C13A C9A 1_555 1_555
H13A C13A 1_555 1_555
H14A C13A 1_555 1_555
H15A C13A 1_555 1_555
C14A C11A 1_555 1_555
H16A C14A 1_555 1_555
H17A C14A 1_555 1_555
H18A C14A 1_555 1_555
C15A N2A 1_555 1_555
C16A C15A 1_555 1_555
C17A C16A 1_555 1_555
H19A C17A 1_555 1_555
C18A C17A 1_555 1_555
C19A C18A 1_555 1_555
H20A C19A 1_555 1_555
C20A C15A 1_555 1_555
C21A C16A 1_555 1_555
H21A C21A 1_555 1_555
H22A C21A 1_555 1_555
H23A C21A 1_555 1_555
C22A C18A 1_555 1_555
H24A C22A 1_555 1_555
H25A C22A 1_555 1_555
H26A C22A 1_555 1_555
C23A C20A 1_555 1_555
H27A C23A 1_555 1_555
H28A C23A 1_555 1_555
H29A C23A 1_555 1_555
C24F C26 1_555 1_555
H30F C24F 1_555 1_555
C25F C24F 1_555 1_555
H31F C25F 1_555 1_555
C26F C24 1_555 1_555
H32F C26F 1_555 1_555
C3 C4 1_555 1_555
C10 C11 1_555 1_555
C19 C20 1_555 1_555
C29 C32 1_555 1_555
C30 C31 1_555 1_555
C1A C2A 1_555 1_555
C3A C4A 1_555 1_555
C10A C11A 1_555 1_555
C19A C20A 1_555 1_555
C25F C26F 1_555 1_555

#END
