
#######################################################################
#
#                 Cambridge Crystallographic Data Centre
#                                CCDC 
#
#######################################################################
#
# If this CIF has been generated from an entry in the Cambridge 
# Structural Database, then it will include bibliographic, chemical, 
# crystal, experimental, refinement or atomic coordinate data resulting 
# from the CCDC's data processing and validation procedures.
#
#######################################################################

data_GUPSUG
_chemical_formula_moiety         'C56 H76 Mg2 N6 O2'
_chemical_name_systematic        
(\m~2~-N,N'-Di-n-butyloxamido)-bis(N,N'-dimesitylpentane-2,4-di-iminato)-di-magnesium
_symmetry_cell_setting           triclinic
_symmetry_space_group_name_H-M   'P -1'
_symmetry_Int_Tables_number      2
_space_group_name_Hall           '-P 1'
loop_
_symmetry_equiv_pos_site_id
_symmetry_equiv_pos_as_xyz
1 x,y,z
2 -x,-y,-z
_cell_length_a                   12.293(3)
_cell_length_b                   14.075(3)
_cell_length_c                   16.776(3)
_cell_angle_alpha                77.49(3)
_cell_angle_beta                 89.09(3)
_cell_angle_gamma                73.22(3)
_cell_volume                     2709.69
_exptl_crystal_colour            colorless
_exptl_crystal_description       block
_cell_formula_units_Z            2
loop_
_atom_site_label
_atom_site_type_symbol
_atom_site_fract_x
_atom_site_fract_y
_atom_site_fract_z
Mg1 Mg 0.27775(4) 0.34612(3) 0.34069(3)
O1 O 0.29391(8) 0.08583(7) 0.26585(6)
N1 N 0.27685(9) 0.40202(8) 0.44455(7)
C1 C 0.22585(13) 0.55181(11) 0.50619(9)
H1 H 0.1746 0.5203 0.5402
H2 H 0.1879 0.6247 0.4864
H3 H 0.2952 0.5425 0.5386
Mg2 Mg 0.16281(4) 0.07560(3) 0.20780(3)
O2 O 0.08620(8) 0.20668(7) 0.23521(6)
N2 N 0.35255(10) 0.44961(9) 0.27577(7)
C2 C 0.25635(11) 0.50237(10) 0.43402(8)
N3 N 0.34637(9) 0.19777(8) 0.32966(7)
C3 C 0.26455(12) 0.56778(11) 0.35941(9)
H4 H 0.2270 0.6379 0.3556
N4 N 0.13107(9) 0.33041(8) 0.28902(7)
C4 C 0.32095(12) 0.54327(11) 0.28949(8)
N5 N 0.09343(10) -0.03982(9) 0.23569(7)
C5 C 0.34890(15) 0.62947(12) 0.22966(10)
H5 H 0.4280 0.6270 0.2399
H6 H 0.2982 0.6947 0.2368
H7 H 0.3385 0.6224 0.1737
N6 N 0.19102(10) 0.06116(9) 0.09161(7)
C6 C 0.29057(12) 0.34194(10) 0.52687(8)
C7 C 0.20147(12) 0.30508(11) 0.56104(9)
C8 C 0.21811(14) 0.24216(11) 0.63896(9)
H8 H 0.1582 0.2164 0.6614
C9 C 0.31941(14) 0.21589(12) 0.68497(9)
C10 C 0.40547(14) 0.25504(12) 0.65073(9)
H9 H 0.4750 0.2387 0.6817
C11 C 0.39334(12) 0.31755(11) 0.57254(9)
C12 C 0.08807(13) 0.33626(12) 0.51527(10)
H10 H 0.0551 0.4102 0.5060
H11 H 0.0370 0.3026 0.5474
H12 H 0.0982 0.3163 0.4626
C13 C 0.33494(18) 0.14687(14) 0.76910(10)
H13 H 0.2770 0.1776 0.8042
H14 H 0.4108 0.1375 0.7926
H15 H 0.3271 0.0807 0.7650
C14 C 0.49031(13) 0.35708(12) 0.53932(10)
H16 H 0.5405 0.3554 0.5847
H17 H 0.4601 0.4272 0.5079
H18 H 0.5334 0.3143 0.5037
C15 C 0.43619(12) 0.42662(11) 0.21634(8)
C16 C 0.40419(13) 0.41141(11) 0.14115(9)
C17 C 0.48821(15) 0.38218(12) 0.08727(9)
H19 H 0.4664 0.3732 0.0360
C18 C 0.60252(14) 0.36578(12) 0.10593(10)
C19 C 0.63238(14) 0.38076(12) 0.18051(10)
H20 H 0.7105 0.3692 0.1944
C20 C 0.55115(13) 0.41234(11) 0.23614(9)
C21 C 0.28143(15) 0.42680(14) 0.11857(10)
H21 H 0.2740 0.4227 0.0614
H22 H 0.2357 0.4939 0.1255
H23 H 0.2546 0.3739 0.1540
C22 C 0.69215(17) 0.33221(16) 0.04666(12)
H24 H 0.6871 0.3889 -0.0002
H25 H 0.6795 0.2750 0.0276
H26 H 0.7678 0.3110 0.0742
C23 C 0.58981(14) 0.42984(13) 0.31508(10)
H27 H 0.6076 0.4949 0.3045
H28 H 0.6579 0.3746 0.3383
H29 H 0.5291 0.4315 0.3538
C24 C 0.27528(11) 0.16877(10) 0.29080(8)
C25 C 0.15334(11) 0.24188(10) 0.27056(7)
C26 C 0.46607(11) 0.13189(11) 0.34748(9)
C27 C 0.52844(13) 0.13491(13) 0.26783(10)
H30 H 0.4897 0.1108 0.2292
H31 H 0.6070 0.0910 0.2791
H32 H 0.5287 0.2049 0.2441
C28 C 0.47396(13) 0.02177(11) 0.38990(10)
H33 H 0.4242 0.0217 0.4361
H34 H 0.5527 -0.0148 0.4098
H35 H 0.4501 -0.0119 0.3509
C29 C 0.51846(12) 0.17918(12) 0.40510(10)
H36 H 0.5161 0.2488 0.3777
H37 H 0.5976 0.1386 0.4198
H38 H 0.4753 0.1805 0.4547
C30 C 0.01498(12) 0.40405(11) 0.26777(9)
C31 C 0.01754(14) 0.50149(12) 0.29269(12)
H39 H 0.0379 0.4864 0.3513
H40 H -0.0577 0.5516 0.2811
H41 H 0.0740 0.5290 0.2616
C32 C -0.01467(14) 0.42816(13) 0.17570(10)
H42 H 0.0411 0.4578 0.1457
H43 H -0.0908 0.4767 0.1637
H44 H -0.0133 0.3654 0.1589
C33 C -0.07482(13) 0.36177(13) 0.31482(10)
H45 H -0.0791 0.3014 0.2964
H46 H -0.1490 0.4136 0.3047
H47 H -0.0538 0.3432 0.3735
C34 C 0.04004(14) -0.18852(12) 0.21408(9)
H48 H 0.0695 -0.2257 0.2695
H49 H 0.0591 -0.2350 0.1767
H50 H -0.0428 -0.1603 0.2138
C35 C 0.09315(12) -0.10269(11) 0.18651(9)
C36 C 0.13711(13) -0.09366(11) 0.10845(9)
H51 H 0.1395 -0.1479 0.0826
C37 C 0.17818(12) -0.01592(11) 0.06296(8)
C38 C 0.20543(15) -0.02154(12) -0.02462(9)
H52 H 0.1522 0.0358 -0.0619
H53 H 0.1984 -0.0856 -0.0346
H54 H 0.2833 -0.0184 -0.0340
C39 C 0.03564(12) -0.05133(11) 0.31065(8)
C40 C -0.07967(13) 0.00108(12) 0.31077(9)
C41 C -0.13452(13) -0.01121(13) 0.38415(10)
H55 H -0.2132 0.0234 0.3846
C42 C -0.07805(14) -0.07213(12) 0.45619(9)
C43 C 0.03787(14) -0.11870(11) 0.45508(9)
H56 H 0.0784 -0.1587 0.5045
C44 C 0.09663(13) -0.10840(10) 0.38344(9)
C45 C -0.14296(15) 0.07070(16) 0.23375(11)
H57 H -0.1577 0.0298 0.1970
H58 H -0.0969 0.1134 0.2065
H59 H -0.2153 0.1140 0.2477
C46 C -0.14145(17) -0.08668(14) 0.53364(11)
H60 H -0.1995 -0.0229 0.5357
H61 H -0.0879 -0.1065 0.5812
H62 H -0.1780 -0.1402 0.5343
C47 C 0.22354(14) -0.15449(12) 0.38476(10)
H63 H 0.2506 -0.1985 0.4387
H64 H 0.2604 -0.1002 0.3736
H65 H 0.2423 -0.1948 0.3429
C48 C 0.23142(12) 0.13692(10) 0.03863(8)
C49 C 0.15332(13) 0.22495(11) -0.00630(9)
C50 C 0.19463(14) 0.29713(12) -0.05763(9)
H66 H 0.1421 0.3564 -0.0892
C51 C 0.31043(15) 0.28513(12) -0.06406(9)
C52 C 0.38570(13) 0.19979(12) -0.01557(9)
H67 H 0.4650 0.1922 -0.0176
C53 C 0.34856(12) 0.12475(11) 0.03618(8)
C54 C 0.02735(13) 0.24117(14) 0.00149(11)
H68 H -0.0144 0.3034 -0.0375
H69 H 0.0073 0.2478 0.0572
H70 H 0.0072 0.1829 -0.0102
C55 C 0.35250(19) 0.36293(15) -0.12278(12)
H71 H 0.4356 0.3445 -0.1168
H72 H 0.3194 0.4302 -0.1107
H73 H 0.3298 0.3646 -0.1789
C56 C 0.43175(13) 0.03204(12) 0.08794(9)
H74 H 0.5090 0.0383 0.0819
H75 H 0.4277 -0.0288 0.0702
H76 H 0.4127 0.0263 0.1454
loop_
_geom_bond_atom_site_label_1
_geom_bond_atom_site_label_2
_geom_bond_site_symmetry_1
_geom_bond_site_symmetry_2
Mg1 N1 1_555 1_555
O1 Mg2 1_555 1_555
N1 C2 1_555 1_555
C1 H1 1_555 1_555
H2 C1 1_555 1_555
H3 C1 1_555 1_555
Mg2 O2 1_555 1_555
O2 C25 1_555 1_555
N2 Mg1 1_555 1_555
C2 C1 1_555 1_555
N3 Mg1 1_555 1_555
C3 C2 1_555 1_555
H4 C3 1_555 1_555
N4 Mg1 1_555 1_555
C4 N2 1_555 1_555
N5 Mg2 1_555 1_555
C5 C4 1_555 1_555
H5 C5 1_555 1_555
H6 C5 1_555 1_555
H7 C5 1_555 1_555
N6 Mg2 1_555 1_555
C6 N1 1_555 1_555
C7 C6 1_555 1_555
C8 C7 1_555 1_555
H8 C8 1_555 1_555
C9 C8 1_555 1_555
C10 C9 1_555 1_555
H9 C10 1_555 1_555
C11 C6 1_555 1_555
C12 C7 1_555 1_555
H10 C12 1_555 1_555
H11 C12 1_555 1_555
H12 C12 1_555 1_555
C13 C9 1_555 1_555
H13 C13 1_555 1_555
H14 C13 1_555 1_555
H15 C13 1_555 1_555
C14 C11 1_555 1_555
H16 C14 1_555 1_555
H17 C14 1_555 1_555
H18 C14 1_555 1_555
C15 N2 1_555 1_555
C16 C15 1_555 1_555
C17 C16 1_555 1_555
H19 C17 1_555 1_555
C18 C17 1_555 1_555
C19 C18 1_555 1_555
H20 C19 1_555 1_555
C20 C15 1_555 1_555
C21 C16 1_555 1_555
H21 C21 1_555 1_555
H22 C21 1_555 1_555
H23 C21 1_555 1_555
C22 C18 1_555 1_555
H24 C22 1_555 1_555
H25 C22 1_555 1_555
H26 C22 1_555 1_555
C23 C20 1_555 1_555
H27 C23 1_555 1_555
H28 C23 1_555 1_555
H29 C23 1_555 1_555
C24 O1 1_555 1_555
C25 N4 1_555 1_555
C26 N3 1_555 1_555
C27 C26 1_555 1_555
H30 C27 1_555 1_555
H31 C27 1_555 1_555
H32 C27 1_555 1_555
C28 C26 1_555 1_555
H33 C28 1_555 1_555
H34 C28 1_555 1_555
H35 C28 1_555 1_555
C29 C26 1_555 1_555
H36 C29 1_555 1_555
H37 C29 1_555 1_555
H38 C29 1_555 1_555
C30 N4 1_555 1_555
C31 C30 1_555 1_555
H39 C31 1_555 1_555
H40 C31 1_555 1_555
H41 C31 1_555 1_555
C32 C30 1_555 1_555
H42 C32 1_555 1_555
H43 C32 1_555 1_555
H44 C32 1_555 1_555
C33 C30 1_555 1_555
H45 C33 1_555 1_555
H46 C33 1_555 1_555
H47 C33 1_555 1_555
C34 H48 1_555 1_555
H49 C34 1_555 1_555
H50 C34 1_555 1_555
C35 N5 1_555 1_555
C36 C35 1_555 1_555
H51 C36 1_555 1_555
C37 N6 1_555 1_555
C38 C37 1_555 1_555
H52 C38 1_555 1_555
H53 C38 1_555 1_555
H54 C38 1_555 1_555
C39 N5 1_555 1_555
C40 C39 1_555 1_555
C41 C40 1_555 1_555
H55 C41 1_555 1_555
C42 C41 1_555 1_555
C43 C42 1_555 1_555
H56 C43 1_555 1_555
C44 C39 1_555 1_555
C45 C40 1_555 1_555
H57 C45 1_555 1_555
H58 C45 1_555 1_555
H59 C45 1_555 1_555
C46 C42 1_555 1_555
H60 C46 1_555 1_555
H61 C46 1_555 1_555
H62 C46 1_555 1_555
C47 C44 1_555 1_555
H63 C47 1_555 1_555
H64 C47 1_555 1_555
H65 C47 1_555 1_555
C48 N6 1_555 1_555
C49 C48 1_555 1_555
C50 C49 1_555 1_555
H66 C50 1_555 1_555
C51 C50 1_555 1_555
C52 C51 1_555 1_555
H67 C52 1_555 1_555
C53 C48 1_555 1_555
C54 C49 1_555 1_555
H68 C54 1_555 1_555
H69 C54 1_555 1_555
H70 C54 1_555 1_555
C55 C51 1_555 1_555
H71 C55 1_555 1_555
H72 C55 1_555 1_555
H73 C55 1_555 1_555
C56 C53 1_555 1_555
H74 C56 1_555 1_555
H75 C56 1_555 1_555
H76 C56 1_555 1_555
N3 C24 1_555 1_555
C3 C4 1_555 1_555
C10 C11 1_555 1_555
C19 C20 1_555 1_555
C24 C25 1_555 1_555
C34 C35 1_555 1_555
C36 C37 1_555 1_555
C43 C44 1_555 1_555
C52 C53 1_555 1_555

#END
