
#######################################################################
#
#                 Cambridge Crystallographic Data Centre
#                                CCDC 
#
#######################################################################
#
# If this CIF has been generated from an entry in the Cambridge 
# Structural Database, then it will include bibliographic, chemical, 
# crystal, experimental, refinement or atomic coordinate data resulting 
# from the CCDC's data processing and validation procedures.
#
#######################################################################

data_GUPSEQ
_chemical_formula_moiety         'C60 H78 Mg2 N8,3(C7 H8)'
_chemical_name_systematic        
"bis(N,N'-Dimesitylpentane-2,4-di-iminato)-bis(4-(dimethylamino)pyridine-N)-di-magnesium toluene solvate"
_symmetry_cell_setting           triclinic
_symmetry_space_group_name_H-M   'P -1'
_symmetry_Int_Tables_number      2
_space_group_name_Hall           '-P 1'
loop_
_symmetry_equiv_pos_site_id
_symmetry_equiv_pos_as_xyz
1 x,y,z
2 -x,-y,-z
_cell_length_a                   11.430(2)
_cell_length_b                   15.985(3)
_cell_length_c                   20.643(4)
_cell_angle_alpha                98.15(3)
_cell_angle_beta                 91.27(3)
_cell_angle_gamma                99.98(3)
_cell_volume                     3672.84
_exptl_crystal_colour            'red brown'
_exptl_crystal_description       block
_cell_formula_units_Z            2
loop_
_atom_site_label
_atom_site_type_symbol
_atom_site_fract_x
_atom_site_fract_y
_atom_site_fract_z
Mg1 Mg 0.98180(5) 0.82996(4) 0.29299(3)
N1 N 1.06384(13) 0.95853(9) 0.32734(7)
C1 C 1.07381(19) 1.11245(12) 0.36610(10)
H1 H 1.1045 1.1066 0.4096
H2 H 1.0187 1.1533 0.3705
H3 H 1.1401 1.1335 0.3399
Mg2 Mg 1.07441(5) 0.67894(4) 0.23177(3)
N2 N 0.84522(13) 0.87942(9) 0.24745(7)
C2 C 1.00914(17) 1.02587(11) 0.33241(9)
N3 N 1.18655(14) 0.61308(10) 0.28189(8)
C3 C 0.89353(17) 1.02341(12) 0.30595(9)
H4 H 0.8583 1.0720 0.3204
N4 N 1.17445(13) 0.65810(9) 0.14743(7)
C4 C 0.82344(16) 0.95871(12) 0.26104(9)
N5 N 0.88993(14) 0.80506(10) 0.38280(8)
C5 C 0.72224(18) 0.98473(13) 0.22448(10)
H5 H 0.7462 0.9943 0.1804
H6 H 0.7029 1.0378 0.2482
H7 H 0.6522 0.9390 0.2211
N6 N 0.69867(17) 0.73567(11) 0.54414(9)
C6 C 1.18875(16) 0.97277(11) 0.34517(9)
N7 N 0.93042(14) 0.56802(10) 0.20089(8)
C7 C 1.22965(18) 0.96508(12) 0.40830(9)
N8 N 0.64340(15) 0.37895(10) 0.11823(9)
C8 C 1.35212(18) 0.97614(14) 0.42145(10)
H8 H 1.3802 0.9715 0.4642
C9 C 1.43457(18) 0.99365(14) 0.37452(10)
C10 C 1.39137(18) 0.99953(12) 0.31234(9)
H9 H 1.4462 1.0110 0.2794
C11 C 1.27041(17) 0.98916(11) 0.29671(9)
C12 C 1.1439(2) 0.94424(15) 0.46061(10)
H10 H 1.1037 0.8843 0.4502
H11 H 1.0847 0.9821 0.4625
H12 H 1.1875 0.9528 0.5031
C13 C 1.5668(2) 1.00525(19) 0.39026(11)
H13 H 1.6080 0.9938 0.3497
H14 H 1.5819 0.9652 0.4199
H15 H 1.5962 1.0643 0.4113
C14 C 1.22735(18) 0.99420(13) 0.22836(9)
H16 H 1.1761 0.9399 0.2102
H17 H 1.2957 1.0049 0.2009
H18 H 1.1822 1.0411 0.2294
C15 C 0.78298(16) 0.82288(11) 0.19261(9)
C16 C 0.68062(16) 0.76358(12) 0.20062(9)
C17 C 0.63205(16) 0.70280(12) 0.14762(9)
H19 H 0.5614 0.6637 0.1529
C18 C 0.68362(17) 0.69747(12) 0.08711(9)
C19 C 0.78293(17) 0.75818(13) 0.07995(9)
H20 H 0.8182 0.7565 0.0387
C20 C 0.83299(16) 0.82179(12) 0.13123(9)
C21 C 0.62459(19) 0.76289(15) 0.26583(10)
H21 H 0.5558 0.7161 0.2622
H22 H 0.5987 0.8179 0.2791
H23 H 0.6828 0.7542 0.2987
C22 C 0.6361(2) 0.62587(15) 0.03210(10)
H24 H 0.6857 0.6312 -0.0057
H25 H 0.5541 0.6296 0.0196
H26 H 0.6376 0.5703 0.0467
C23 C 0.94124(18) 0.88597(13) 0.12096(10)
H27 H 0.9314 0.9434 0.1413
H28 H 0.9512 0.8857 0.0739
H29 H 1.0116 0.8707 0.1410
C24 C 1.3331(2) 0.52018(15) 0.29596(11)
H30 H 1.3977 0.5623 0.3199
H31 H 1.3665 0.4764 0.2678
H32 H 1.2818 0.4927 0.3272
C25 C 1.26038(18) 0.56521(12) 0.25408(10)
C26 C 1.28075(18) 0.55545(12) 0.18681(10)
H33 H 1.3228 0.5107 0.1717
C27 C 1.24822(16) 0.60205(11) 0.13843(9)
C28 C 1.30544(18) 0.58777(12) 0.07334(9)
H34 H 1.2435 0.5714 0.0380
H35 H 1.3521 0.5418 0.0734
H36 H 1.3578 0.6408 0.0664
C29 C 1.18652(18) 0.63028(12) 0.35219(9)
C30 C 1.10763(19) 0.57888(13) 0.38736(10)
C31 C 1.1040(2) 0.60318(15) 0.45503(11)
H37 H 1.0516 0.5678 0.4792
C32 C 1.1742(2) 0.67689(15) 0.48809(10)
C33 C 1.25254(19) 0.72582(14) 0.45215(10)
H38 H 1.3025 0.7761 0.4741
C34 C 1.26070(18) 0.70393(13) 0.38499(10)
C35 C 1.0266(2) 0.49970(15) 0.35336(12)
H39 H 0.9857 0.5138 0.3152
H40 H 0.9677 0.4785 0.3837
H41 H 1.0735 0.4552 0.3390
C36 C 1.1647(3) 0.70491(18) 0.56081(11)
H42 H 1.1265 0.7556 0.5673
H43 H 1.2445 0.7190 0.5823
H44 H 1.1171 0.6582 0.5798
C37 C 1.34582(19) 0.75965(15) 0.34773(11)
H45 H 1.3022 0.7950 0.3246
H46 H 1.3848 0.7233 0.3160
H47 H 1.4060 0.7970 0.3784
C38 C 1.16939(16) 0.71365(11) 0.09872(9)
C39 C 1.08145(16) 0.69459(11) 0.04790(9)
C40 C 1.08104(16) 0.75176(12) 0.00271(9)
H48 H 1.0221 0.7386 -0.0321
C41 C 1.16406(16) 0.82743(12) 0.00693(9)
C42 C 1.24836(16) 0.84563(12) 0.05876(9)
H49 H 1.3046 0.8976 0.0630
C43 C 1.25333(16) 0.79013(11) 0.10482(9)
C44 C 0.98871(18) 0.61428(12) 0.04104(10)
H50 H 0.9316 0.6200 0.0754
H51 H 1.0271 0.5649 0.0453
H52 H 0.9470 0.6055 -0.0020
C45 C 1.16300(19) 0.88727(13) -0.04322(10)
H53 H 1.1117 0.9290 -0.0293
H54 H 1.1326 0.8541 -0.0856
H55 H 1.2441 0.9176 -0.0473
C46 C 1.34678(17) 0.81173(12) 0.16023(9)
H56 H 1.3948 0.8683 0.1582
H57 H 1.3981 0.7683 0.1563
H58 H 1.3081 0.8126 0.2022
C47 C 0.80771(18) 0.84885(13) 0.40923(9)
H59 H 0.7933 0.8969 0.3900
C48 C 0.74349(18) 0.82901(13) 0.46185(9)
H60 H 0.6861 0.8624 0.4775
C49 C 0.76222(19) 0.75929(13) 0.49289(9)
C50 C 0.8523(2) 0.71602(14) 0.46717(10)
H61 H 0.8729 0.6701 0.4870
C51 C 0.90997(19) 0.73999(13) 0.41377(10)
H62 H 0.9687 0.7083 0.3972
C52 C 0.7294(2) 0.67004(15) 0.58020(11)
H63 H 0.7221 0.6155 0.5506
H64 H 0.6754 0.6629 0.6160
H65 H 0.8115 0.6875 0.5982
C53 C 0.6025(2) 0.77951(16) 0.56669(12)
H66 H 0.6354 0.8386 0.5864
H67 H 0.5591 0.7493 0.5994
H68 H 0.5481 0.7802 0.5295
C54 C 0.94639(18) 0.49286(12) 0.16603(10)
H69 H 1.0257 0.4837 0.1604
C55 C 0.85627(18) 0.42929(12) 0.13834(10)
H70 H 0.8742 0.3782 0.1143
C56 C 0.73675(18) 0.43912(12) 0.14534(9)
C57 C 0.71988(18) 0.51688(12) 0.18274(10)
H71 H 0.6417 0.5275 0.1904
C58 C 0.81631(18) 0.57689(13) 0.20789(10)
H72 H 0.8015 0.6288 0.2322
C59 C 0.6624(2) 0.29997(13) 0.07902(11)
H73 H 0.7161 0.3138 0.0442
H74 H 0.5861 0.2675 0.0595
H75 H 0.6979 0.2654 0.1069
C60 C 0.52250(18) 0.39060(14) 0.13047(11)
H76 H 0.5135 0.4028 0.1778
H77 H 0.4672 0.3381 0.1122
H78 H 0.5050 0.4388 0.1097
C61 C 0.5226(3) 0.2535(2) 0.26005(14)
C62 C 0.5694(6) 0.3351(4) 0.2917(2)
H79 H 0.5166 0.3708 0.3102
C63 C 0.6911(5) 0.3667(3) 0.29754(18)
H80 H 0.7204 0.4233 0.3191
C64 C 0.7683(3) 0.3157(3) 0.27198(18)
H81 H 0.8516 0.3365 0.2754
C65 C 0.7234(5) 0.2330(4) 0.2410(3)
H82 H 0.7766 0.1967 0.2241
C66 C 0.6034(7) 0.2031(6) 0.2345(5)
H83 H 0.5747 0.1469 0.2121
C67 C 0.3925(5) 0.2210(4) 0.2526(3)
H84 H 0.3717 0.1926 0.2075
H85 H 0.3498 0.2691 0.2622
H86 H 0.3701 0.1797 0.2830
C68 C 0.85850(17) 0.83457(13) -0.12533(10)
C69 C 0.80101(19) 0.75697(14) -0.10903(11)
H87 H 0.7532 0.7571 -0.0720
C70 C 0.8120(2) 0.67981(15) -0.14552(13)
H88 H 0.7735 0.6274 -0.1330
C71 C 0.8787(3) 0.67881(17) -0.20012(14)
H89 H 0.8861 0.6257 -0.2255
C72 C 0.9350(2) 0.75537(17) -0.21791(12)
H90 H 0.9801 0.7548 -0.2560
C73 C 0.92583(19) 0.83280(15) -0.18055(11)
H91 H 0.9659 0.8851 -0.1927
C74 C 0.8471(2) 0.91744(13) -0.08378(11)
H92 H 0.7681 0.9308 -0.0919
H93 H 0.9080 0.9637 -0.0948
H94 H 0.8579 0.9120 -0.0374
C75? C 1.4929(8) 0.9738(5) -0.0465(4)
H95? H 1.4770 0.9643 -0.0925
C76? C 1.4124(7) 1.1144(4) -0.0361(3)
H96? H 1.4685 1.1430 -0.0647
H97? H 1.3958 1.1566 0.0002
H98? H 1.3382 1.0882 -0.0613
C77? C 0.5785(7) 0.5420(5) 0.4360(4)
C78? C 0.4840(8) 0.5765(6) 0.4630(5)
H99? H 0.4554 0.6202 0.4440
C79? C 0.4309(10) 0.5475(7) 0.5177(5)
H100? H 0.3673 0.5726 0.5359
C80? C 0.4693(7) 0.4822(5) 0.5461(5)
H101? H 0.4330 0.4624 0.5834
C81? C 0.5623(10) 0.4471(7) 0.5179(5)
H102? H 0.5894 0.4021 0.5360
C82? C 0.6168(8) 0.4765(6) 0.4638(5)
H103? H 0.6808 0.4517 0.4457
C83? C 0.6343(6) 0.5726(4) 0.3770(3)
H104? H 0.7205 0.5753 0.3811
H105? H 0.6173 0.6298 0.3735
H106? H 0.6017 0.5326 0.3378
C84? C 1.4653(4) 1.0462(3) -0.0095(3)
C85? C 1.4872(7) 1.0570(5) 0.0590(3)
H107? H 1.4682 1.1056 0.0859
C86? C 1.5369(4) 0.9958(3) 0.0869(3)
H108? H 1.5502 1.0034 0.1331
C87? C 1.5671(6) 0.9252(4) 0.0500(5)
H109? H 1.6028 0.8851 0.0697
C88? C 1.5439(6) 0.9144(5) -0.0171(5)
H110? H 1.5631 0.8655 -0.0436
C89? C 0.6552(9) 0.2590(6) 0.2524(4)
C90? C 0.6234(13) 0.3308(9) 0.2900(6)
C91? C 0.5036(11) 0.3350(7) 0.2930(4)
C92? C 0.4190(10) 0.2722(8) 0.2604(6)
C93? C 0.4509(9) 0.2007(6) 0.2224(5)
C94? C 0.5691(14) 0.1940(16) 0.2197(11)
C95? C 0.7837(11) 0.2550(10) 0.2473(7)
H111? H 0.6822 0.3752 0.3128
H112? H 0.4802 0.3831 0.3186
H113? H 0.3375 0.2767 0.2634
H114? H 0.3917 0.1573 0.1989
H115? H 0.5917 0.1448 0.1953
H116? H 0.7941 0.2114 0.2105
H117? H 0.8144 0.2399 0.2880
H118? H 0.8274 0.3111 0.2401
loop_
_geom_bond_atom_site_label_1
_geom_bond_atom_site_label_2
_geom_bond_site_symmetry_1
_geom_bond_site_symmetry_2
Mg1 N1 1_555 1_555
N1 C2 1_555 1_555
C1 H1 1_555 1_555
H2 C1 1_555 1_555
H3 C1 1_555 1_555
Mg2 Mg1 1_555 1_555
N2 Mg1 1_555 1_555
C2 C1 1_555 1_555
N3 Mg2 1_555 1_555
C3 C2 1_555 1_555
H4 C3 1_555 1_555
N4 Mg2 1_555 1_555
C4 N2 1_555 1_555
N5 Mg1 1_555 1_555
C5 C4 1_555 1_555
H5 C5 1_555 1_555
H6 C5 1_555 1_555
H7 C5 1_555 1_555
N6 C49 1_555 1_555
C6 N1 1_555 1_555
N7 Mg2 1_555 1_555
C7 C6 1_555 1_555
N8 C56 1_555 1_555
C8 C7 1_555 1_555
H8 C8 1_555 1_555
C9 C8 1_555 1_555
C10 C9 1_555 1_555
H9 C10 1_555 1_555
C11 C6 1_555 1_555
C12 C7 1_555 1_555
H10 C12 1_555 1_555
H11 C12 1_555 1_555
H12 C12 1_555 1_555
C13 C9 1_555 1_555
H13 C13 1_555 1_555
H14 C13 1_555 1_555
H15 C13 1_555 1_555
C14 C11 1_555 1_555
H16 C14 1_555 1_555
H17 C14 1_555 1_555
H18 C14 1_555 1_555
C15 N2 1_555 1_555
C16 C15 1_555 1_555
C17 C16 1_555 1_555
H19 C17 1_555 1_555
C18 C17 1_555 1_555
C19 C18 1_555 1_555
H20 C19 1_555 1_555
C20 C15 1_555 1_555
C21 C16 1_555 1_555
H21 C21 1_555 1_555
H22 C21 1_555 1_555
H23 C21 1_555 1_555
C22 C18 1_555 1_555
H24 C22 1_555 1_555
H25 C22 1_555 1_555
H26 C22 1_555 1_555
C23 C20 1_555 1_555
H27 C23 1_555 1_555
H28 C23 1_555 1_555
H29 C23 1_555 1_555
C24 H30 1_555 1_555
H31 C24 1_555 1_555
H32 C24 1_555 1_555
C25 N3 1_555 1_555
C26 C25 1_555 1_555
H33 C26 1_555 1_555
C27 N4 1_555 1_555
C28 C27 1_555 1_555
H34 C28 1_555 1_555
H35 C28 1_555 1_555
H36 C28 1_555 1_555
C29 N3 1_555 1_555
C30 C29 1_555 1_555
C31 C30 1_555 1_555
H37 C31 1_555 1_555
C32 C31 1_555 1_555
C33 C32 1_555 1_555
H38 C33 1_555 1_555
C34 C29 1_555 1_555
C35 C30 1_555 1_555
H39 C35 1_555 1_555
H40 C35 1_555 1_555
H41 C35 1_555 1_555
C36 C32 1_555 1_555
H42 C36 1_555 1_555
H43 C36 1_555 1_555
H44 C36 1_555 1_555
C37 C34 1_555 1_555
H45 C37 1_555 1_555
H46 C37 1_555 1_555
H47 C37 1_555 1_555
C38 N4 1_555 1_555
C39 C38 1_555 1_555
C40 C39 1_555 1_555
H48 C40 1_555 1_555
C41 C40 1_555 1_555
C42 C41 1_555 1_555
H49 C42 1_555 1_555
C43 C38 1_555 1_555
C44 C39 1_555 1_555
H50 C44 1_555 1_555
H51 C44 1_555 1_555
H52 C44 1_555 1_555
C45 C41 1_555 1_555
H53 C45 1_555 1_555
H54 C45 1_555 1_555
H55 C45 1_555 1_555
C46 C43 1_555 1_555
H56 C46 1_555 1_555
H57 C46 1_555 1_555
H58 C46 1_555 1_555
C47 N5 1_555 1_555
H59 C47 1_555 1_555
C48 C47 1_555 1_555
H60 C48 1_555 1_555
C49 C48 1_555 1_555
C50 C49 1_555 1_555
H61 C50 1_555 1_555
C51 N5 1_555 1_555
H62 C51 1_555 1_555
C52 N6 1_555 1_555
H63 C52 1_555 1_555
H64 C52 1_555 1_555
H65 C52 1_555 1_555
C53 N6 1_555 1_555
H66 C53 1_555 1_555
H67 C53 1_555 1_555
H68 C53 1_555 1_555
C54 N7 1_555 1_555
H69 C54 1_555 1_555
C55 C54 1_555 1_555
H70 C55 1_555 1_555
C56 C55 1_555 1_555
C57 C56 1_555 1_555
H71 C57 1_555 1_555
C58 N7 1_555 1_555
H72 C58 1_555 1_555
C59 N8 1_555 1_555
H73 C59 1_555 1_555
H74 C59 1_555 1_555
H75 C59 1_555 1_555
C60 N8 1_555 1_555
H76 C60 1_555 1_555
H77 C60 1_555 1_555
H78 C60 1_555 1_555
C61 C62 1_555 1_555
C62 H79 1_555 1_555
C63 C62 1_555 1_555
H80 C63 1_555 1_555
C64 C63 1_555 1_555
H81 C64 1_555 1_555
C65 C64 1_555 1_555
H82 C65 1_555 1_555
C66 C61 1_555 1_555
H83 C66 1_555 1_555
C67 C61 1_555 1_555
H84 C67 1_555 1_555
H85 C67 1_555 1_555
H86 C67 1_555 1_555
C68 C69 1_555 1_555
C69 H87 1_555 1_555
C70 C69 1_555 1_555
H88 C70 1_555 1_555
C71 C70 1_555 1_555
H89 C71 1_555 1_555
C72 C71 1_555 1_555
H90 C72 1_555 1_555
C73 C68 1_555 1_555
H91 C73 1_555 1_555
C74 C68 1_555 1_555
H92 C74 1_555 1_555
H93 C74 1_555 1_555
H94 C74 1_555 1_555
C3 C4 1_555 1_555
C10 C11 1_555 1_555
C19 C20 1_555 1_555
C24 C25 1_555 1_555
C26 C27 1_555 1_555
C33 C34 1_555 1_555
C42 C43 1_555 1_555
C50 C51 1_555 1_555
C57 C58 1_555 1_555
C65 C66 1_555 1_555
C72 C73 1_555 1_555

#END
