
#######################################################################
#
#                 Cambridge Crystallographic Data Centre
#                                CCDC 
#
#######################################################################
#
# If this CIF has been generated from an entry in the Cambridge 
# Structural Database, then it will include bibliographic, chemical, 
# crystal, experimental, refinement or atomic coordinate data resulting 
# from the CCDC's data processing and validation procedures.
#
#######################################################################

data_GUPTAN
_chemical_formula_moiety         'C70 H108 Mg2 N4,C6 H6'
_chemical_name_systematic        
"bis(\m~2~-Hydrido)-bis(N,N'-bis(2,6-di-isopropylphenyl)-2,2,6,6-tetramethylheptane-3,5-di-iminato)-di-magnesium benzene solvate"
_symmetry_cell_setting           triclinic
_symmetry_space_group_name_H-M   'P -1'
_symmetry_Int_Tables_number      2
_space_group_name_Hall           '-P 1'
loop_
_symmetry_equiv_pos_site_id
_symmetry_equiv_pos_as_xyz
1 x,y,z
2 -x,-y,-z
_cell_length_a                   12.258(3)
_cell_length_b                   13.567(3)
_cell_length_c                   24.263(5)
_cell_angle_alpha                99.54(3)
_cell_angle_beta                 94.44(3)
_cell_angle_gamma                116.66(3)
_cell_volume                     3503.05
_exptl_crystal_colour            colorless
_exptl_crystal_description       block
_cell_formula_units_Z            2
loop_
_atom_site_label
_atom_site_type_symbol
_atom_site_fract_x
_atom_site_fract_y
_atom_site_fract_z
Mg1 Mg 0.86431(13) 0.11100(11) 0.28308(6)
N1 N 0.7585(3) 0.1015(3) 0.34554(14)
C1 C 0.5629(4) -0.0281(4) 0.38179(18)
Mg2 Mg 0.95174(13) 0.25955(11) 0.20867(6)
N2 N 0.8796(3) -0.0322(3) 0.29091(14)
C2 C 0.6845(4) -0.0008(4) 0.35557(17)
N3 N 1.1054(3) 0.4119(3) 0.21345(14)
C3 C 0.7021(4) -0.0945(4) 0.33696(18)
H1 H 0.6340 -0.1638 0.3391
N4 N 0.8592(3) 0.2550(3) 0.13413(14)
C4 C 0.7998(4) -0.1088(3) 0.31550(18)
C5 C 0.7992(4) -0.2204(4) 0.3244(2)
C6 C 0.4603(4) -0.0642(4) 0.33021(19)
H2 H 0.3818 -0.0793 0.3434
H3 H 0.4508 -0.1329 0.3049
H4 H 0.4831 -0.0033 0.3096
C7 C 0.5603(4) 0.0668(4) 0.4249(2)
H5 H 0.6240 0.0905 0.4583
H6 H 0.4786 0.0392 0.4363
H7 H 0.5766 0.1314 0.4076
C8 C 0.5269(5) -0.1274(4) 0.4117(2)
H8 H 0.5957 -0.1103 0.4414
H9 H 0.5085 -0.1964 0.3839
H10 H 0.4534 -0.1386 0.4287
C9 C 0.6802(5) -0.3223(4) 0.2893(2)
H11 H 0.6078 -0.3187 0.3019
H12 H 0.6793 -0.3927 0.2947
H13 H 0.6780 -0.3203 0.2491
C10 C 0.9097(5) -0.2387(4) 0.3111(2)
H14 H 0.9020 -0.3073 0.3224
H15 H 0.9867 -0.1734 0.3321
H16 H 0.9112 -0.2471 0.2703
C11 C 0.7984(6) -0.2213(5) 0.3880(2)
H17 H 0.7221 -0.2225 0.3983
H18 H 0.8702 -0.1532 0.4109
H19 H 0.8023 -0.2887 0.3953
C12 C 0.7803(4) 0.2045(3) 0.38351(17)
C13 C 0.8542(4) 0.2360(4) 0.43755(18)
C14 C 0.8715(4) 0.3322(4) 0.47563(19)
H20 H 0.9171 0.3511 0.5127
C15 C 0.8241(4) 0.4009(4) 0.4610(2)
H21 H 0.8352 0.4656 0.4879
C16 C 0.7604(4) 0.3749(4) 0.4070(2)
H22 H 0.7304 0.4239 0.3965
C17 C 0.7388(4) 0.2790(3) 0.36742(18)
C18 C 0.9197(4) 0.1701(4) 0.4543(2)
H23 H 0.9149 0.1170 0.4191
C19 C 1.0563(5) 0.2494(5) 0.4782(2)
H24 H 1.0643 0.2931 0.5161
H25 H 1.0921 0.3011 0.4532
H26 H 1.1003 0.2048 0.4807
C20 C 0.8621(5) 0.1001(5) 0.4970(2)
H27 H 0.8607 0.1495 0.5310
H28 H 0.9112 0.0634 0.5073
H29 H 0.7772 0.0422 0.4801
C21 C 0.6642(4) 0.2565(4) 0.30954(19)
H30 H 0.6604 0.1876 0.2851
C22 C 0.7239(5) 0.3557(4) 0.2800(2)
H31 H 0.7250 0.4233 0.3024
H32 H 0.6758 0.3359 0.2420
H33 H 0.8090 0.3709 0.2768
C23 C 0.5317(5) 0.2333(4) 0.3144(2)
H34 H 0.4926 0.1691 0.3323
H35 H 0.4843 0.2155 0.2765
H36 H 0.5332 0.3005 0.3376
C24 C 0.9776(4) -0.0427(4) 0.2659(2)
C25 C 1.0987(4) 0.0162(4) 0.2973(2)
C26 C 1.1944(5) 0.0102(4) 0.2710(3)
H37 H 1.2765 0.0476 0.2918
C27 C 1.1717(6) -0.0485(5) 0.2160(3)
H38 H 1.2374 -0.0524 0.1991
C28 C 1.0536(6) -0.1017(4) 0.1855(2)
H39 H 1.0392 -0.1405 0.1472
C29 C 0.9550(5) -0.1002(4) 0.2091(2)
C30 C 1.1289(4) 0.0862(4) 0.3563(2)
H40 H 1.0503 0.0654 0.3718
C31 C 1.1864(6) 0.2115(4) 0.3540(2)
H41 H 1.2614 0.2321 0.3369
H42 H 1.2078 0.2582 0.3925
H43 H 1.1267 0.2244 0.3310
C32 C 1.2190(5) 0.0689(5) 0.3965(2)
H44 H 1.1875 -0.0122 0.3947
H45 H 1.2262 0.1081 0.4354
H46 H 1.3007 0.0996 0.3850
C33 C 0.8265(5) -0.1626(4) 0.1721(2)
H47 H 0.7655 -0.1562 0.1956
C34 C 0.8205(6) -0.1126(5) 0.1211(2)
H48 H 0.8505 -0.0309 0.1338
H49 H 0.7346 -0.1485 0.1013
H50 H 0.8725 -0.1259 0.0952
C35 C 0.7877(6) -0.2900(4) 0.1509(2)
H51 H 0.8405 -0.2984 0.1241
H52 H 0.7010 -0.3302 0.1320
H53 H 0.7972 -0.3218 0.1833
C36 C 1.2063(4) 0.6006(4) 0.18076(19)
C37 C 1.0990(4) 0.4831(3) 0.18340(18)
C38 C 0.9874(4) 0.4565(3) 0.14794(18)
H54 H 0.9841 0.5216 0.1402
C39 C 0.8812(4) 0.3557(4) 0.12191(17)
C40 C 0.7859(4) 0.3719(4) 0.08217(19)
C41 C 1.3354(4) 0.6360(4) 0.2141(2)
H55 H 1.3314 0.6422 0.2547
H56 H 1.3952 0.7093 0.2080
H57 H 1.3614 0.5789 0.2009
C42 C 1.1703(5) 0.6945(4) 0.2020(3)
H58 H 1.0998 0.6846 0.1755
H59 H 1.2409 0.7688 0.2043
H60 H 1.1474 0.6892 0.2396
C43 C 1.2220(5) 0.5962(5) 0.1179(2)
H61 H 1.2405 0.5343 0.1039
H62 H 1.2902 0.6681 0.1147
H63 H 1.1451 0.5834 0.0952
C44 C 0.7149(6) 0.4113(5) 0.1221(2)
H64 H 0.7740 0.4774 0.1514
H65 H 0.6650 0.3500 0.1400
H66 H 0.6605 0.4316 0.1003
C45 C 0.8495(5) 0.4636(5) 0.0491(2)
H67 H 0.7865 0.4688 0.0241
H68 H 0.9024 0.4440 0.0263
H69 H 0.9002 0.5366 0.0759
C46 C 0.6875(5) 0.2692(4) 0.0381(2)
H70 H 0.6375 0.2101 0.0573
H71 H 0.7280 0.2400 0.0116
H72 H 0.6338 0.2916 0.0173
C47 C 1.2115(4) 0.4375(3) 0.25524(18)
C48 C 1.2960(4) 0.3981(4) 0.2404(2)
C49 C 1.3934(5) 0.4213(4) 0.2830(2)
H73 H 1.4527 0.3970 0.2738
C50 C 1.4065(5) 0.4778(4) 0.3376(2)
H74 H 1.4742 0.4931 0.3655
C51 C 1.3200(5) 0.5116(4) 0.3509(2)
H75 H 1.3284 0.5495 0.3888
C52 C 1.2197(4) 0.4926(4) 0.31097(19)
C53 C 1.2857(5) 0.3336(4) 0.1817(2)
H76 H 1.2247 0.3413 0.1553
C54 C 1.4089(5) 0.3779(5) 0.1597(2)
H77 H 1.4415 0.4589 0.1610
H78 H 1.3958 0.3370 0.1205
H79 H 1.4685 0.3663 0.1836
C55 C 1.2374(6) 0.2085(4) 0.1809(2)
H80 H 1.2908 0.1998 0.2098
H81 H 1.2376 0.1684 0.1434
H82 H 1.1527 0.1768 0.1890
C56 C 1.1278(5) 0.5313(4) 0.3300(2)
H83 H 1.0623 0.5108 0.2967
C57 C 1.1891(5) 0.6602(4) 0.3540(2)
H84 H 1.2484 0.6807 0.3887
H85 H 1.1253 0.6822 0.3627
H86 H 1.2326 0.6997 0.3258
C58 C 1.0663(5) 0.4726(5) 0.3759(2)
H87 H 1.0290 0.3904 0.3620
H88 H 1.0017 0.4932 0.3852
H89 H 1.1285 0.4965 0.4099
C59 C 0.7877(4) 0.1501(3) 0.09350(17)
C60 C 0.6732(4) 0.0661(4) 0.10277(19)
C61 C 0.6061(5) -0.0316(4) 0.0609(2)
H90 H 0.5272 -0.0861 0.0659
C62 C 0.6502(5) -0.0522(4) 0.0120(2)
H91 H 0.6020 -0.1197 -0.0164
C63 C 0.7661(5) 0.0270(4) 0.0047(2)
H92 H 0.7979 0.0121 -0.0284
C64 C 0.8360(5) 0.1270(4) 0.04487(18)
C65 C 0.6230(5) 0.0815(4) 0.1567(2)
H93 H 0.6843 0.1560 0.1817
C66 C 0.4990(5) 0.0830(5) 0.1459(3)
H94 H 0.5083 0.1423 0.1255
H95 H 0.4733 0.0983 0.1822
H96 H 0.4361 0.0093 0.1229
C67 C 0.6095(6) -0.0121(4) 0.1885(2)
H97 H 0.5414 -0.0848 0.1673
H98 H 0.5917 0.0066 0.2264
H99 H 0.6868 -0.0173 0.1920
C68 C 0.9659(6) 0.2083(4) 0.0374(2)
H100 H 0.9968 0.2793 0.0674
C69 C 1.0542(5) 0.1596(6) 0.0448(3)
H101 H 1.0505 0.1360 0.0810
H102 H 1.1388 0.2173 0.0447
H103 H 1.0306 0.0941 0.0136
C70 C 0.9709(7) 0.2398(7) -0.0196(3)
H104 H 1.0563 0.2933 -0.0213
H105 H 0.9173 0.2748 -0.0247
H106 H 0.9423 0.1715 -0.0498
H107 H 0.908(5) 0.263(5) 0.279(2)
H108 H 0.927(5) 0.120(5) 0.218(2)
C71 C 0.5721(5) 0.6093(5) 0.4954(2)
H109 H 0.6220 0.6847 0.4919
C72 C 0.6124(5) 0.5302(5) 0.4830(2)
H110 H 0.6907 0.5513 0.4714
C73 C 0.5396(5) 0.4198(5) 0.4871(2)
H111 H 0.5669 0.3647 0.4780
C71A C 0.4279(5) 0.3907(5) 0.5046(2)
H109A H 0.3780 0.3153 0.5081
C72A C 0.3876(5) 0.4698(5) 0.5170(2)
H110A H 0.3093 0.4487 0.5286
C73A C 0.4604(5) 0.5802(5) 0.5129(2)
H111A H 0.4331 0.6353 0.5220
C74 C 0.4193(7) 0.3865(6) -0.0065(3)
H112 H 0.3643 0.3081 -0.0114
C75 C 0.5199(7) 0.4211(6) -0.0346(3)
H113 H 0.5334 0.3660 -0.0584
C76 C 0.6011(7) 0.5349(7) -0.0285(3)
H114 H 0.6696 0.5582 -0.0480
C74A C 0.5807(7) 0.6135(6) 0.0065(3)
H112A H 0.6357 0.6919 0.0114
C75A C 0.4801(7) 0.5789(6) 0.0346(3)
H113A H 0.4666 0.6340 0.0584
C76A C 0.3989(7) 0.4651(7) 0.0285(3)
H114A H 0.3304 0.4418 0.0480
loop_
_geom_bond_atom_site_label_1
_geom_bond_atom_site_label_2
_geom_bond_site_symmetry_1
_geom_bond_site_symmetry_2
Mg1 N1 1_555 1_555
N1 C2 1_555 1_555
C1 C2 1_555 1_555
Mg2 N3 1_555 1_555
N2 Mg1 1_555 1_555
C2 C3 1_555 1_555
N3 C37 1_555 1_555
C3 H1 1_555 1_555
N4 Mg2 1_555 1_555
C4 N2 1_555 1_555
C5 C4 1_555 1_555
C6 C1 1_555 1_555
H2 C6 1_555 1_555
H3 C6 1_555 1_555
H4 C6 1_555 1_555
C7 C1 1_555 1_555
H5 C7 1_555 1_555
H6 C7 1_555 1_555
H7 C7 1_555 1_555
C8 C1 1_555 1_555
H8 C8 1_555 1_555
H9 C8 1_555 1_555
H10 C8 1_555 1_555
C9 C5 1_555 1_555
H11 C9 1_555 1_555
H12 C9 1_555 1_555
H13 C9 1_555 1_555
C10 C5 1_555 1_555
H14 C10 1_555 1_555
H15 C10 1_555 1_555
H16 C10 1_555 1_555
C11 C5 1_555 1_555
H17 C11 1_555 1_555
H18 C11 1_555 1_555
H19 C11 1_555 1_555
C12 N1 1_555 1_555
C13 C12 1_555 1_555
C14 C13 1_555 1_555
H20 C14 1_555 1_555
C15 C14 1_555 1_555
H21 C15 1_555 1_555
C16 C15 1_555 1_555
H22 C16 1_555 1_555
C17 C12 1_555 1_555
C18 C13 1_555 1_555
H23 C18 1_555 1_555
C19 C18 1_555 1_555
H24 C19 1_555 1_555
H25 C19 1_555 1_555
H26 C19 1_555 1_555
C20 C18 1_555 1_555
H27 C20 1_555 1_555
H28 C20 1_555 1_555
H29 C20 1_555 1_555
C21 C17 1_555 1_555
H30 C21 1_555 1_555
C22 C21 1_555 1_555
H31 C22 1_555 1_555
H32 C22 1_555 1_555
H33 C22 1_555 1_555
C23 C21 1_555 1_555
H34 C23 1_555 1_555
H35 C23 1_555 1_555
H36 C23 1_555 1_555
C24 N2 1_555 1_555
C25 C24 1_555 1_555
C26 C25 1_555 1_555
H37 C26 1_555 1_555
C27 C26 1_555 1_555
H38 C27 1_555 1_555
C28 C27 1_555 1_555
H39 C28 1_555 1_555
C29 C24 1_555 1_555
C30 C25 1_555 1_555
H40 C30 1_555 1_555
C31 C30 1_555 1_555
H41 C31 1_555 1_555
H42 C31 1_555 1_555
H43 C31 1_555 1_555
C32 C30 1_555 1_555
H44 C32 1_555 1_555
H45 C32 1_555 1_555
H46 C32 1_555 1_555
C33 C29 1_555 1_555
H47 C33 1_555 1_555
C34 C33 1_555 1_555
H48 C34 1_555 1_555
H49 C34 1_555 1_555
H50 C34 1_555 1_555
C35 C33 1_555 1_555
H51 C35 1_555 1_555
H52 C35 1_555 1_555
H53 C35 1_555 1_555
C36 C37 1_555 1_555
C37 C38 1_555 1_555
C38 H54 1_555 1_555
C39 N4 1_555 1_555
C40 C39 1_555 1_555
C41 C36 1_555 1_555
H55 C41 1_555 1_555
H56 C41 1_555 1_555
H57 C41 1_555 1_555
C42 C36 1_555 1_555
H58 C42 1_555 1_555
H59 C42 1_555 1_555
H60 C42 1_555 1_555
C43 C36 1_555 1_555
H61 C43 1_555 1_555
H62 C43 1_555 1_555
H63 C43 1_555 1_555
C44 C40 1_555 1_555
H64 C44 1_555 1_555
H65 C44 1_555 1_555
H66 C44 1_555 1_555
C45 C40 1_555 1_555
H67 C45 1_555 1_555
H68 C45 1_555 1_555
H69 C45 1_555 1_555
C46 C40 1_555 1_555
H70 C46 1_555 1_555
H71 C46 1_555 1_555
H72 C46 1_555 1_555
C47 N3 1_555 1_555
C48 C47 1_555 1_555
C49 C48 1_555 1_555
H73 C49 1_555 1_555
C50 C49 1_555 1_555
H74 C50 1_555 1_555
C51 C50 1_555 1_555
H75 C51 1_555 1_555
C52 C47 1_555 1_555
C53 C48 1_555 1_555
H76 C53 1_555 1_555
C54 C53 1_555 1_555
H77 C54 1_555 1_555
H78 C54 1_555 1_555
H79 C54 1_555 1_555
C55 C53 1_555 1_555
H80 C55 1_555 1_555
H81 C55 1_555 1_555
H82 C55 1_555 1_555
C56 C52 1_555 1_555
H83 C56 1_555 1_555
C57 C56 1_555 1_555
H84 C57 1_555 1_555
H85 C57 1_555 1_555
H86 C57 1_555 1_555
C58 C56 1_555 1_555
H87 C58 1_555 1_555
H88 C58 1_555 1_555
H89 C58 1_555 1_555
C59 N4 1_555 1_555
C60 C59 1_555 1_555
C61 C60 1_555 1_555
H90 C61 1_555 1_555
C62 C61 1_555 1_555
H91 C62 1_555 1_555
C63 C62 1_555 1_555
H92 C63 1_555 1_555
C64 C59 1_555 1_555
C65 C60 1_555 1_555
H93 C65 1_555 1_555
C66 C65 1_555 1_555
H94 C66 1_555 1_555
H95 C66 1_555 1_555
H96 C66 1_555 1_555
C67 C65 1_555 1_555
H97 C67 1_555 1_555
H98 C67 1_555 1_555
H99 C67 1_555 1_555
C68 C64 1_555 1_555
H100 C68 1_555 1_555
C69 C68 1_555 1_555
H101 C69 1_555 1_555
H102 C69 1_555 1_555
H103 C69 1_555 1_555
C70 C68 1_555 1_555
H104 C70 1_555 1_555
H105 C70 1_555 1_555
H106 C70 1_555 1_555
H107 Mg1 1_555 1_555
H108 Mg1 1_555 1_555
C71 H109 1_555 1_555
C72 C71 1_555 1_555
H110 C72 1_555 1_555
C73 C72 1_555 1_555
H111 C73 1_555 1_555
C74 H112 1_555 1_555
C75 C74 1_555 1_555
H113 C75 1_555 1_555
C76 C75 1_555 1_555
H114 C76 1_555 1_555
C71A C73 1_555 1_555
H109A C71A 1_555 1_555
C72A C71A 1_555 1_555
H110A C72A 1_555 1_555
C73A C71 1_555 1_555
H111A C73A 1_555 1_555
C74A C76 1_555 1_555
H112A C74A 1_555 1_555
C75A C74A 1_555 1_555
H113A C75A 1_555 1_555
C76A C74 1_555 1_555
H114A C76A 1_555 1_555
Mg2 H107 1_555 1_555
Mg2 H108 1_555 1_555
C3 C4 1_555 1_555
C16 C17 1_555 1_555
C28 C29 1_555 1_555
C38 C39 1_555 1_555
C51 C52 1_555 1_555
C63 C64 1_555 1_555
C72A C73A 1_555 1_555
C75A C76A 1_555 1_555

#END
