
#######################################################################
#
#                 Cambridge Crystallographic Data Centre
#                                CCDC 
#
#######################################################################
#
# If this CIF has been generated from an entry in the Cambridge 
# Structural Database, then it will include bibliographic, chemical, 
# crystal, experimental, refinement or atomic coordinate data resulting 
# from the CCDC's data processing and validation procedures.
#
#######################################################################

data_GUPWAR
_chemical_name_common            'Gelsepyrrodine C'
_chemical_formula_moiety         'C24 H26 N2 O5'
_chemical_name_systematic        
5'-acetyl-1,6-dimethoxy-3'-methylspiro[indole-3,9'-[11]oxa[6]azatetracyclo[8.3.1.0^2,6^.0^7,13^]tetradeca[2,4]dien]-2(1H)-one
_symmetry_cell_setting           monoclinic
_symmetry_space_group_name_H-M   'P 21'
_symmetry_Int_Tables_number      4
_space_group_name_Hall           'P 2yb'
loop_
_symmetry_equiv_pos_site_id
_symmetry_equiv_pos_as_xyz
1 x,y,z
2 -x,1/2+y,-z
_cell_length_a                   9.1606(2)
_cell_length_b                   11.7656(3)
_cell_length_c                   19.3185(4)
_cell_angle_alpha                90
_cell_angle_beta                 94.6230(10)
_cell_angle_gamma                90
_cell_volume                     2075.37
_exptl_crystal_colour            colorless
_exptl_crystal_description       polyhedral
_cell_formula_units_Z            4
loop_
_atom_site_label
_atom_site_type_symbol
_atom_site_fract_x
_atom_site_fract_y
_atom_site_fract_z
C1 C 0.7932(3) -0.0061(3) 0.33435(16)
C2 C 0.6789(3) -0.0558(3) 0.44751(17)
H1 H 0.5770 -0.0363 0.4288
C3 C 1.0082(3) -0.0687(3) 0.48445(16)
H2 H 1.0959 -0.0460 0.5155
C4 C 0.9335(4) 0.0377(3) 0.45327(16)
H3 H 1.0016 0.0732 0.4224
H4 H 0.9222 0.0917 0.4918
C5 C 0.7831(4) 0.0271(3) 0.41175(16)
C6 C 0.7173(4) 0.1467(3) 0.40501(17)
C7 C 0.6872(4) 0.2256(3) 0.45421(18)
H5 H 0.7004 0.2070 0.5022
C8 C 0.6368(4) 0.3343(3) 0.43323(18)
H6 H 0.6134 0.3888 0.4669
C9 C 0.6215(4) 0.3615(3) 0.36302(19)
C10 C 0.6512(4) 0.2828(3) 0.31181(19)
H7 H 0.6399 0.3010 0.2638
C11 C 0.6978(4) 0.1776(3) 0.33522(18)
C12 C 0.6968(4) -0.1831(3) 0.43632(17)
H8 H 0.6895 -0.1985 0.3858
H9 H 0.6149 -0.2233 0.4562
C13 C 0.8438(4) -0.2330(3) 0.46912(17)
H10 H 0.8281 -0.3094 0.4900
C14 C 0.9099(4) -0.1490(3) 0.52481(16)
H11 H 0.9748 -0.1930 0.5593
C15 C 0.7917(4) -0.0921(3) 0.56337(17)
H12 H 0.7379 -0.1512 0.5874
H13 H 0.8390 -0.0410 0.5993
C16 C 0.9390(4) -0.4058(3) 0.33441(18)
H14 H 0.9137 -0.4579 0.3712
H15 H 1.0063 -0.4437 0.3049
H16 H 0.8498 -0.3837 0.3062
C17 C 1.0107(4) -0.3026(3) 0.36624(17)
C18 C 0.9643(3) -0.2376(3) 0.42062(16)
C19 C 1.1337(4) -0.2445(3) 0.34452(17)
H17 H 1.1907 -0.2685 0.3083
C20 C 1.1587(4) -0.1468(3) 0.38425(17)
C21 C 1.2634(4) -0.0555(4) 0.38007(18)
C22 C 1.3578(4) -0.0575(5) 0.3199(2)
H18 H 1.4244 0.0078 0.3230
H19 H 1.2956 -0.0536 0.2762
H20 H 1.4150 -0.1280 0.3211
C23 C 0.6155(5) 0.0463(5) 0.1892(2)
H21 H 0.6101 -0.0354 0.1986
H22 H 0.6179 0.0586 0.1391
H23 H 0.5295 0.0842 0.2055
C24 C 0.5627(4) 0.5552(3) 0.3860(2)
H24 H 0.4849 0.5358 0.4159
H25 H 0.5371 0.6258 0.3609
H26 H 0.6551 0.5656 0.4145
N1 N 0.7379(4) 0.0847(3) 0.29560(15)
N2 N 1.0532(3) -0.1477(3) 0.43132(14)
O1 O 0.7456(3) 0.0921(2) 0.22469(12)
O2 O 0.8356(3) -0.0933(2) 0.30954(13)
O3 O 0.6889(3) -0.0275(2) 0.51955(12)
O4 O 0.5786(3) 0.4659(2) 0.33751(14)
O5 O 1.2734(3) 0.0227(3) 0.42261(15)
C25 C 0.2633(4) 0.7538(3) 0.15547(17)
C26 C -0.0131(4) 0.7806(3) 0.15787(17)
H27 H -0.0134 0.7543 0.2071
C27 C 0.0491(4) 0.8195(3) 0.00614(18)
H28 H 0.0282 0.8025 -0.0444
C28 C 0.0948(4) 0.7096(3) 0.04474(17)
H29 H 0.1897 0.6852 0.0286
H30 H 0.0220 0.6504 0.0301
C29 C 0.1111(4) 0.7113(3) 0.12537(17)
C30 C 0.1086(4) 0.5913(3) 0.15323(17)
C31 C 0.0022(4) 0.5078(3) 0.14907(19)
H31 H -0.0860 0.5194 0.1205
C32 C 0.0230(4) 0.4064(3) 0.18655(19)
H32 H -0.0509 0.3496 0.1835
C33 C 0.1511(4) 0.3890(3) 0.22793(18)
C34 C 0.2633(4) 0.4702(3) 0.23217(18)
H33 H 0.3527 0.4580 0.2596
C35 C 0.2376(4) 0.5680(3) 0.19482(17)
C36 C -0.0037(4) 0.9093(3) 0.16092(18)
H34 H 0.0912 0.9311 0.1855
H35 H -0.0824 0.9382 0.1884
C37 C -0.0175(4) 0.9672(3) 0.08866(18)
H36 H -0.0781 1.0378 0.0895
C38 C -0.0862(4) 0.8812(3) 0.03354(19)
H37 H -0.1353 0.9260 -0.0057
C39 C -0.2002(4) 0.8056(4) 0.0625(2)
H38 H -0.2844 0.8532 0.0734
H39 H -0.2359 0.7508 0.0260
C40 C 0.5831(4) 0.6799(5) 0.2010(3)
H40 H 0.6073 0.6017 0.1888
H41 H 0.6633 0.7121 0.2314
H42 H 0.5688 0.7256 0.1586
C41 C 0.0630(5) 0.2189(4) 0.2781(3)
H43 H -0.0160 0.2611 0.2978
H44 H 0.0974 0.1582 0.3102
H45 H 0.0263 0.1855 0.2336
C42 C 0.1259(4) 0.9913(3) 0.06025(18)
C43 C 0.2393(4) 1.0687(4) 0.0687(2)
C44 C 0.3440(4) 1.0324(4) 0.0247(2)
H46 H 0.4342 1.0695 0.0186
C45 C 0.2947(4) 0.9335(4) -0.00876(19)
C46 C 0.2489(6) 1.1663(4) 0.1187(3)
H47 H 0.1595 1.2120 0.1123
H48 H 0.3338 1.2135 0.1103
H49 H 0.2598 1.1371 0.1664
C47 C 0.3597(5) 0.8648(4) -0.0598(2)
C48 C 0.5049(6) 0.9067(6) -0.0838(3)
H50 H 0.5859 0.8764 -0.0530
H51 H 0.5073 0.9900 -0.0824
H52 H 0.5149 0.8808 -0.1314
N3 N 0.3291(3) 0.6635(3) 0.19086(16)
N4 N 0.1587(3) 0.9104(3) 0.01450(15)
O6 O 0.4498(3) 0.6804(2) 0.23653(14)
O7 O 0.3192(3) 0.8459(2) 0.15086(14)
O8 O -0.1502(3) 0.7434(2) 0.12340(14)
O9 O 0.1814(3) 0.2943(2) 0.26748(15)
O10 O 0.3023(5) 0.7764(4) -0.0830(2)
loop_
_geom_bond_atom_site_label_1
_geom_bond_atom_site_label_2
_geom_bond_site_symmetry_1
_geom_bond_site_symmetry_2
C1 C5 1_555 1_555
C2 H1 1_555 1_555
C3 H2 1_555 1_555
C4 C3 1_555 1_555
H3 C4 1_555 1_555
H4 C4 1_555 1_555
C5 C2 1_555 1_555
C6 C5 1_555 1_555
C7 C6 1_555 1_555
H5 C7 1_555 1_555
C8 C7 1_555 1_555
H6 C8 1_555 1_555
C9 C8 1_555 1_555
C10 C9 1_555 1_555
H7 C10 1_555 1_555
C11 C6 1_555 1_555
C12 C2 1_555 1_555
H8 C12 1_555 1_555
H9 C12 1_555 1_555
C13 C12 1_555 1_555
H10 C13 1_555 1_555
C14 C3 1_555 1_555
H11 C14 1_555 1_555
C15 C14 1_555 1_555
H12 C15 1_555 1_555
H13 C15 1_555 1_555
C16 H14 1_555 1_555
H15 C16 1_555 1_555
H16 C16 1_555 1_555
C17 C16 1_555 1_555
C18 C13 1_555 1_555
C19 C17 1_555 1_555
H17 C19 1_555 1_555
C20 C19 1_555 1_555
C21 C20 1_555 1_555
C22 C21 1_555 1_555
H18 C22 1_555 1_555
H19 C22 1_555 1_555
H20 C22 1_555 1_555
C23 H21 1_555 1_555
H22 C23 1_555 1_555
H23 C23 1_555 1_555
C24 H24 1_555 1_555
H25 C24 1_555 1_555
H26 C24 1_555 1_555
N1 C1 1_555 1_555
N2 C3 1_555 1_555
O1 C23 1_555 1_555
O2 C1 1_555 1_555
O3 C2 1_555 1_555
O4 C9 1_555 1_555
O5 C21 1_555 1_555
C25 C29 1_555 1_555
C26 H27 1_555 1_555
C27 H28 1_555 1_555
C28 C27 1_555 1_555
H29 C28 1_555 1_555
H30 C28 1_555 1_555
C29 C26 1_555 1_555
C30 C29 1_555 1_555
C31 C30 1_555 1_555
H31 C31 1_555 1_555
C32 C31 1_555 1_555
H32 C32 1_555 1_555
C33 C32 1_555 1_555
C34 C33 1_555 1_555
H33 C34 1_555 1_555
C35 C30 1_555 1_555
C36 C26 1_555 1_555
H34 C36 1_555 1_555
H35 C36 1_555 1_555
C37 C36 1_555 1_555
H36 C37 1_555 1_555
C38 C27 1_555 1_555
H37 C38 1_555 1_555
C39 C38 1_555 1_555
H38 C39 1_555 1_555
H39 C39 1_555 1_555
C40 H40 1_555 1_555
H41 C40 1_555 1_555
H42 C40 1_555 1_555
C41 H43 1_555 1_555
H44 C41 1_555 1_555
H45 C41 1_555 1_555
C42 C37 1_555 1_555
C43 C42 1_555 1_555
C44 C43 1_555 1_555
H46 C44 1_555 1_555
C45 C44 1_555 1_555
C46 C43 1_555 1_555
H47 C46 1_555 1_555
H48 C46 1_555 1_555
H49 C46 1_555 1_555
C47 C45 1_555 1_555
C48 C47 1_555 1_555
H50 C48 1_555 1_555
H51 C48 1_555 1_555
H52 C48 1_555 1_555
N3 C25 1_555 1_555
N4 C27 1_555 1_555
O6 C40 1_555 1_555
O7 C25 1_555 1_555
O8 C26 1_555 1_555
O9 C33 1_555 1_555
O10 C47 1_555 1_555
C4 C5 1_555 1_555
C10 C11 1_555 1_555
C11 N1 1_555 1_555
C13 C14 1_555 1_555
C15 O3 1_555 1_555
C17 C18 1_555 1_555
C18 N2 1_555 1_555
C20 N2 1_555 1_555
C24 O4 1_555 1_555
N1 O1 1_555 1_555
C28 C29 1_555 1_555
C34 C35 1_555 1_555
C35 N3 1_555 1_555
C37 C38 1_555 1_555
C39 O8 1_555 1_555
C41 O9 1_555 1_555
C42 N4 1_555 1_555
C45 N4 1_555 1_555
N3 O6 1_555 1_555

#END
