
#######################################################################
#
#                 Cambridge Crystallographic Data Centre
#                                CCDC 
#
#######################################################################
#
# If this CIF has been generated from an entry in the Cambridge 
# Structural Database, then it will include bibliographic, chemical, 
# crystal, experimental, refinement or atomic coordinate data resulting 
# from the CCDC's data processing and validation procedures.
#
#######################################################################

data_GUPWEV
_chemical_name_common            'Gelsepyrrodine B'
_chemical_formula_moiety         'C23 H24 N2 O4'
_chemical_name_systematic        
5'-acetyl-1-methoxy-3'-methylspiro[indole-3,9'-[11]oxa[6]azatetracyclo[8.3.1.0^2,6^.0^7,13^]tetradeca[2,4]dien]-2(1H)-one
_symmetry_cell_setting           monoclinic
_symmetry_space_group_name_H-M   'P 21'
_symmetry_Int_Tables_number      4
_space_group_name_Hall           'P 2yb'
loop_
_symmetry_equiv_pos_site_id
_symmetry_equiv_pos_as_xyz
1 x,y,z
2 -x,1/2+y,-z
_cell_length_a                   10.1912(2)
_cell_length_b                   7.8475(2)
_cell_length_c                   12.7536(3)
_cell_angle_alpha                90
_cell_angle_beta                 100.1620(10)
_cell_angle_gamma                90
_cell_volume                     1003.97
_exptl_crystal_colour            colorless
_exptl_crystal_description       block
_cell_formula_units_Z            2
loop_
_atom_site_label
_atom_site_type_symbol
_atom_site_fract_x
_atom_site_fract_y
_atom_site_fract_z
N1 N 0.7640(2) 0.2538(3) 0.51454(17)
N2 N 0.81139(18) 0.5408(2) 0.83640(14)
O1 O 0.78863(16) 0.0832(2) 0.50224(16)
O2 O 0.72986(19) 0.2423(2) 0.68624(14)
O3 O 0.55094(16) 0.7470(2) 0.57963(12)
O4 O 1.08798(17) 0.5499(3) 0.81734(15)
C1 C 0.7324(2) 0.3215(3) 0.60555(17)
C2 C 0.5628(2) 0.5673(3) 0.59562(17)
H1 H 0.5025 0.5148 0.5360
C3 C 0.8028(2) 0.6813(3) 0.76050(16)
H2 H 0.8719 0.7655 0.7865
C4 C 0.8167(2) 0.6261(3) 0.64819(16)
H3 H 0.9003 0.5648 0.6535
H4 H 0.8246 0.7284 0.6071
C5 C 0.7065(2) 0.5140(3) 0.58297(16)
C6 C 0.72184(19) 0.5265(3) 0.46625(17)
C7 C 0.7100(2) 0.6651(3) 0.39894(18)
H5 H 0.6877 0.7719 0.4222
C8 C 0.7325(3) 0.6415(4) 0.2946(2)
H6 H 0.7243 0.7334 0.2479
C9 C 0.7665(3) 0.4833(4) 0.2603(2)
H7 H 0.7808 0.4708 0.1906
C10 C 0.7801(2) 0.3416(4) 0.3277(2)
H8 H 0.8035 0.2349 0.3051
C11 C 0.7566(2) 0.3690(3) 0.42987(18)
C12 C 0.5119(2) 0.5130(3) 0.69690(17)
H9 H 0.5227 0.3907 0.7056
H10 H 0.4174 0.5381 0.6881
C13 C 0.5842(2) 0.6018(3) 0.79882(17)
H11 H 0.5202 0.6376 0.8436
C14 C 0.6642(2) 0.7563(3) 0.76906(17)
H12 H 0.6765 0.8354 0.8294
C15 C 0.5927(2) 0.8519(3) 0.67203(19)
H13 H 0.5149 0.9074 0.6905
H14 H 0.6514 0.9402 0.6539
C16 C 0.6049(4) 0.2732(6) 0.9800(3)
H15 H 0.5433 0.3550 0.9995
H16 H 0.6451 0.2104 1.0420
H17 H 0.5582 0.1962 0.9280
C17 C 0.7107(3) 0.3637(4) 0.9343(2)
C18 C 0.6925(2) 0.4958(3) 0.86133(18)
C19 C 0.8481(3) 0.3289(4) 0.9522(2)
H18 H 0.8904 0.2455 0.9979
C20 C 0.9109(2) 0.4386(3) 0.89093(17)
C21 C 1.0488(2) 0.4496(3) 0.87848(18)
C22 C 1.1465(3) 0.3341(5) 0.9482(2)
H19 H 1.2343 0.3520 0.9329
H20 H 1.1209 0.2174 0.9342
H21 H 1.1461 0.3597 1.0218
C23 C 0.9267(3) 0.0484(4) 0.5388(3)
H22 H 0.9796 0.1194 0.5012
H23 H 0.9445 -0.0692 0.5260
H24 H 0.9489 0.0715 0.6138
loop_
_geom_bond_atom_site_label_1
_geom_bond_atom_site_label_2
_geom_bond_site_symmetry_1
_geom_bond_site_symmetry_2
N1 O1 1_555 1_555
N2 C3 1_555 1_555
O1 C23 1_555 1_555
O2 C1 1_555 1_555
O3 C2 1_555 1_555
O4 C21 1_555 1_555
C1 N1 1_555 1_555
C2 H1 1_555 1_555
C3 H2 1_555 1_555
C4 C3 1_555 1_555
H3 C4 1_555 1_555
H4 C4 1_555 1_555
C5 C1 1_555 1_555
C6 C5 1_555 1_555
C7 C6 1_555 1_555
H5 C7 1_555 1_555
C8 C7 1_555 1_555
H6 C8 1_555 1_555
C9 C8 1_555 1_555
H7 C9 1_555 1_555
C10 C9 1_555 1_555
H8 C10 1_555 1_555
C11 N1 1_555 1_555
C12 C2 1_555 1_555
H9 C12 1_555 1_555
H10 C12 1_555 1_555
C13 C12 1_555 1_555
H11 C13 1_555 1_555
C14 C3 1_555 1_555
H12 C14 1_555 1_555
C15 O3 1_555 1_555
H13 C15 1_555 1_555
H14 C15 1_555 1_555
C16 H15 1_555 1_555
H16 C16 1_555 1_555
H17 C16 1_555 1_555
C17 C16 1_555 1_555
C18 N2 1_555 1_555
C19 C17 1_555 1_555
H18 C19 1_555 1_555
C20 N2 1_555 1_555
C21 C20 1_555 1_555
C22 C21 1_555 1_555
H19 C22 1_555 1_555
H20 C22 1_555 1_555
H21 C22 1_555 1_555
C23 H22 1_555 1_555
H23 C23 1_555 1_555
H24 C23 1_555 1_555
C2 C5 1_555 1_555
C4 C5 1_555 1_555
C6 C11 1_555 1_555
C10 C11 1_555 1_555
C13 C14 1_555 1_555
C13 C18 1_555 1_555
C14 C15 1_555 1_555
C17 C18 1_555 1_555
C19 C20 1_555 1_555

#END
