
#######################################################################
#
#                 Cambridge Crystallographic Data Centre
#                                CCDC 
#
#######################################################################
#
# If this CIF has been generated from an entry in the Cambridge 
# Structural Database, then it will include bibliographic, chemical, 
# crystal, experimental, refinement or atomic coordinate data resulting 
# from the CCDC's data processing and validation procedures.
#
#######################################################################

data_GUPXUM
_chemical_formula_moiety         'C23 H24 F2 P1 1+,C1 F3 O3 S1 1-'
_chemical_name_systematic        
'(2,2-difluoroethyl)(tris(2-methylphenyl))phosphonium trifluoromethanesulfonate'
_symmetry_cell_setting           monoclinic
_symmetry_space_group_name_H-M   'C 2/c'
_symmetry_Int_Tables_number      15
_space_group_name_Hall           '-C 2yn'
loop_
_symmetry_equiv_pos_site_id
_symmetry_equiv_pos_as_xyz
1 x,y,z
2 -x,y,1/2-z
3 1/2+x,1/2+y,z
4 1/2-x,1/2+y,1/2-z
5 -x,-y,-z
6 x,-y,1/2+z
7 1/2-x,1/2-y,-z
8 1/2+x,1/2-y,1/2+z
_cell_length_a                   23.402(2)
_cell_length_b                   8.2760(7)
_cell_length_c                   24.977(2)
_cell_angle_alpha                90
_cell_angle_beta                 92.7950(10)
_cell_angle_gamma                90
_cell_volume                     4831.66
_cell_formula_units_Z            8
loop_
_atom_site_label
_atom_site_type_symbol
_atom_site_fract_x
_atom_site_fract_y
_atom_site_fract_z
F1 F 0.39815(18) 0.5946(4) 0.15015(15)
F2 F 0.35197(19) 0.4765(4) 0.20418(14)
P1 P 0.37629(4) 0.19494(10) 0.13121(3)
C1 C 0.33857(14) 0.0773(4) 0.17922(13)
C2 C 0.30357(16) -0.0537(4) 0.16295(14)
C3 C 0.28053(19) -0.1457(5) 0.20270(17)
H1 H 0.2570 -0.2324 0.1929
C4 C 0.2911(2) -0.1138(6) 0.25604(19)
H2 H 0.2755 -0.1799 0.2816
C5 C 0.3247(2) 0.0151(6) 0.27211(16)
H3 H 0.3314 0.0374 0.3084
C6 C 0.34851(16) 0.1116(5) 0.23363(13)
H4 H 0.3712 0.1994 0.2441
C7 C 0.28894(18) -0.0994(5) 0.10571(15)
H5 H 0.2858 -0.0035 0.0841
H6 H 0.2532 -0.1564 0.1036
H7 H 0.3185 -0.1676 0.0928
C8 C 0.41395(14) 0.0571(4) 0.08951(13)
C9 C 0.45729(15) -0.0456(4) 0.11063(15)
C10 C 0.48019(18) -0.1558(5) 0.07499(19)
H8 H 0.5093 -0.2244 0.0875
C11 C 0.4612(2) -0.1664(5) 0.02236(19)
H9 H 0.4778 -0.2409 -0.0001
C12 C 0.41859(18) -0.0692(5) 0.00268(17)
H10 H 0.4054 -0.0782 -0.0329
C13 C 0.39488(16) 0.0429(4) 0.03573(14)
H11 H 0.3658 0.1100 0.0221
C14 C 0.47987(18) -0.0422(5) 0.16838(17)
H12 H 0.5057 0.0472 0.1736
H13 H 0.4997 -0.1412 0.1767
H14 H 0.4485 -0.0303 0.1915
C15 C 0.32757(14) 0.3195(4) 0.09061(12)
C16 C 0.34636(15) 0.4208(4) 0.04986(13)
C17 C 0.30537(18) 0.5179(4) 0.02381(15)
H15 H 0.3164 0.5844 -0.0039
C18 C 0.24912(18) 0.5199(5) 0.03721(15)
H16 H 0.2232 0.5884 0.0193
C19 C 0.23120(17) 0.4202(5) 0.07726(15)
H17 H 0.1932 0.4209 0.0865
C20 C 0.27035(15) 0.3194(4) 0.10342(13)
H18 H 0.2583 0.2503 0.1300
C21 C 0.40710(17) 0.4327(5) 0.03394(16)
H19 H 0.4079 0.4399 -0.0044
H20 H 0.4278 0.3385 0.0461
H21 H 0.4245 0.5273 0.0498
C22 C 0.42697(16) 0.3283(4) 0.16665(14)
H22 H 0.4441 0.2691 0.1968
H23 H 0.4573 0.3528 0.1428
C23 C 0.4049(2) 0.4839(5) 0.1872(2)
H24 H 0.4356 0.5428 0.2049
F4 F 0.41466(16) 0.6525(4) 0.33100(16)
F5 F 0.33394(12) 0.5411(4) 0.32132(13)
F6 F 0.36351(19) 0.6252(5) 0.39733(16)
O1 O 0.42961(15) 0.3091(5) 0.31744(14)
O2 O 0.45795(13) 0.4006(5) 0.40620(12)
O3 O 0.36613(16) 0.2698(5) 0.38941(17)
S1 S 0.41195(5) 0.36087(15) 0.36877(4)
C24 C 0.3796(2) 0.5523(6) 0.35412(18)
F3? F 0.4463(4) 0.5678(8) 0.2122(3)
H25? H 0.3758 0.4626 0.2120
H26? H 0.3890 0.5467 0.1577
loop_
_geom_bond_atom_site_label_1
_geom_bond_atom_site_label_2
_geom_bond_site_symmetry_1
_geom_bond_site_symmetry_2
F1 C23 1_555 1_555
F2 C23 1_555 1_555
P1 C1 1_555 1_555
C1 C2 1_555 1_555
C2 C3 1_555 1_555
C3 H1 1_555 1_555
C4 C3 1_555 1_555
H2 C4 1_555 1_555
C5 C4 1_555 1_555
H3 C5 1_555 1_555
C6 C1 1_555 1_555
H4 C6 1_555 1_555
C7 C2 1_555 1_555
H5 C7 1_555 1_555
H6 C7 1_555 1_555
H7 C7 1_555 1_555
C8 P1 1_555 1_555
C9 C8 1_555 1_555
C10 C9 1_555 1_555
H8 C10 1_555 1_555
C11 C10 1_555 1_555
H9 C11 1_555 1_555
C12 C11 1_555 1_555
H10 C12 1_555 1_555
C13 C8 1_555 1_555
H11 C13 1_555 1_555
C14 C9 1_555 1_555
H12 C14 1_555 1_555
H13 C14 1_555 1_555
H14 C14 1_555 1_555
C15 P1 1_555 1_555
C16 C15 1_555 1_555
C17 C16 1_555 1_555
H15 C17 1_555 1_555
C18 C17 1_555 1_555
H16 C18 1_555 1_555
C19 C18 1_555 1_555
H17 C19 1_555 1_555
C20 C15 1_555 1_555
H18 C20 1_555 1_555
C21 C16 1_555 1_555
H19 C21 1_555 1_555
H20 C21 1_555 1_555
H21 C21 1_555 1_555
C22 P1 1_555 1_555
H22 C22 1_555 1_555
H23 C22 1_555 1_555
C23 C22 1_555 1_555
H24 C23 1_555 1_555
F4 C24 1_555 1_555
F5 C24 1_555 1_555
F6 C24 1_555 1_555
O1 S1 1_555 1_555
O2 S1 1_555 1_555
O3 S1 1_555 1_555
S1 C24 1_555 1_555
C5 C6 1_555 1_555
C12 C13 1_555 1_555
C19 C20 1_555 1_555

#END
