
#######################################################################
#
#                 Cambridge Crystallographic Data Centre
#                                CCDC 
#
#######################################################################
#
# If this CIF has been generated from an entry in the Cambridge 
# Structural Database, then it will include bibliographic, chemical, 
# crystal, experimental, refinement or atomic coordinate data resulting 
# from the CCDC's data processing and validation procedures.
#
#######################################################################

data_GUPYAT
_chemical_formula_moiety         'C38 H68 P2 2+,2(C1 F3 O3 S1 1-),2(H2 O1)'
_chemical_name_systematic        
'ethene-1,2-diylbis(tricyclohexylphosphonium) bis(trifluoromethanesulfonate) dihydrate'
_symmetry_cell_setting           monoclinic
_symmetry_space_group_name_H-M   'P 21/n'
_symmetry_Int_Tables_number      14
_space_group_name_Hall           '-P 2yn'
loop_
_symmetry_equiv_pos_site_id
_symmetry_equiv_pos_as_xyz
1 x,y,z
2 1/2-x,1/2+y,1/2-z
3 -x,-y,-z
4 1/2+x,1/2-y,1/2+z
_cell_length_a                   11.8318(12)
_cell_length_b                   11.8443(12)
_cell_length_c                   17.7486(18)
_cell_angle_alpha                90
_cell_angle_beta                 96.6440(10)
_cell_angle_gamma                90
_cell_volume                     2470.57
_cell_formula_units_Z            2
loop_
_atom_site_label
_atom_site_type_symbol
_atom_site_fract_x
_atom_site_fract_y
_atom_site_fract_z
P1 P 0.48324(5) 0.36465(5) 0.58590(4)
C1 C 0.5192(2) 0.4890(2) 0.53575(14)
H1 H 0.5678 0.5413 0.5617
C2 C 0.5901(2) 0.2585(2) 0.57166(16)
H2 H 0.5732 0.1916 0.6008
C3 C 0.7100(2) 0.2979(3) 0.60198(19)
H3 H 0.7280 0.3665 0.5761
H4 H 0.7130 0.3146 0.6557
C4 C 0.7972(3) 0.2077(3) 0.5900(2)
H5 H 0.8727 0.2359 0.6074
H6 H 0.7836 0.1419 0.6202
C5 C 0.7929(3) 0.1735(3) 0.5085(2)
H7 H 0.8473 0.1134 0.5036
H8 H 0.8135 0.2372 0.4786
C6 C 0.6734(3) 0.1329(3) 0.4785(2)
H9 H 0.6712 0.1141 0.4252
H10 H 0.6557 0.0652 0.5055
C7 C 0.5847(3) 0.2227(3) 0.48832(18)
H11 H 0.5096 0.1934 0.4713
H12 H 0.5979 0.2879 0.4574
C8 C 0.4975(2) 0.4062(2) 0.68502(15)
H13 H 0.5769 0.4299 0.6967
C9 C 0.4823(4) 0.3102(3) 0.73935(18)
H14 H 0.5289 0.2466 0.7278
H15 H 0.4034 0.2861 0.7335
C10 C 0.5168(4) 0.3487(4) 0.8214(2)
H16 H 0.5025 0.2881 0.8558
H17 H 0.5976 0.3651 0.8284
C11 C 0.4519(4) 0.4519(4) 0.8404(2)
H18 H 0.3724 0.4322 0.8407
H19 H 0.4807 0.4776 0.8908
C12 C 0.4610(4) 0.5463(3) 0.7851(2)
H20 H 0.5386 0.5740 0.7903
H21 H 0.4121 0.6079 0.7970
C13 C 0.4271(3) 0.5086(3) 0.70282(18)
H22 H 0.3468 0.4895 0.6956
H23 H 0.4398 0.5699 0.6685
C14 C 0.3443(2) 0.3157(2) 0.54465(15)
H24 H 0.3492 0.3086 0.4901
C15 C 0.2465(2) 0.3984(2) 0.55210(19)
H25 H 0.2343 0.4055 0.6050
H26 H 0.2660 0.4723 0.5339
C16 C 0.1378(3) 0.3555(3) 0.5058(2)
H27 H 0.0753 0.4060 0.5129
H28 H 0.1480 0.3556 0.4524
C17 C 0.1086(3) 0.2380(3) 0.5294(2)
H29 H 0.0895 0.2398 0.5811
H30 H 0.0423 0.2116 0.4970
C18 C 0.2049(3) 0.1570(3) 0.5247(2)
H31 H 0.2184 0.1486 0.4721
H32 H 0.1842 0.0837 0.5432
C19 C 0.3139(2) 0.1980(2) 0.5714(2)
H33 H 0.3756 0.1460 0.5654
H34 H 0.3029 0.2005 0.6247
P1B P 0.51676(5) 0.63535(5) 0.41410(4)
C1B C 0.4808(2) 0.5110(2) 0.46425(14)
H1B H 0.4322 0.4587 0.4383
C2B C 0.4099(2) 0.7415(2) 0.42834(16)
H2B H 0.4268 0.8084 0.3992
C3B C 0.2900(2) 0.7021(3) 0.39802(19)
H3B H 0.2720 0.6335 0.4239
H4B H 0.2870 0.6854 0.3443
C4B C 0.2028(3) 0.7923(3) 0.4100(2)
H5B H 0.1273 0.7641 0.3926
H6B H 0.2164 0.8581 0.3798
C5B C 0.2071(3) 0.8265(3) 0.4915(2)
H7B H 0.1527 0.8866 0.4964
H8B H 0.1865 0.7628 0.5214
C6B C 0.3266(3) 0.8671(3) 0.5215(2)
H9B H 0.3288 0.8859 0.5748
H10B H 0.3443 0.9348 0.4945
C7B C 0.4153(3) 0.7773(3) 0.51168(18)
H11B H 0.4904 0.8066 0.5287
H12B H 0.4021 0.7121 0.5426
C8B C 0.5025(2) 0.5938(2) 0.31498(15)
H13B H 0.4231 0.5701 0.3033
C9B C 0.5177(4) 0.6898(3) 0.26065(18)
H14B H 0.4711 0.7534 0.2722
H15B H 0.5966 0.7139 0.2665
C10B C 0.4832(4) 0.6513(4) 0.1786(2)
H16B H 0.4975 0.7119 0.1442
H17B H 0.4024 0.6349 0.1716
C11B C 0.5481(4) 0.5481(4) 0.1596(2)
H18B H 0.6276 0.5678 0.1593
H19B H 0.5193 0.5224 0.1092
C12B C 0.5390(4) 0.4537(3) 0.2149(2)
H20B H 0.4614 0.4260 0.2097
H21B H 0.5879 0.3921 0.2030
C13B C 0.5729(3) 0.4914(3) 0.29718(18)
H22B H 0.6532 0.5105 0.3044
H23B H 0.5602 0.4301 0.3315
C14B C 0.6557(2) 0.6843(2) 0.45535(15)
H24B H 0.6508 0.6914 0.5099
C15B C 0.7535(2) 0.6016(2) 0.44790(19)
H25B H 0.7657 0.5945 0.3950
H26B H 0.7340 0.5277 0.4661
C16B C 0.8622(3) 0.6445(3) 0.4942(2)
H27B H 0.9247 0.5940 0.4871
H28B H 0.8520 0.6444 0.5476
C17B C 0.8914(3) 0.7620(3) 0.4706(2)
H29B H 0.9105 0.7602 0.4189
H30B H 0.9577 0.7884 0.5030
C18B C 0.7951(3) 0.8430(3) 0.4753(2)
H31B H 0.7816 0.8514 0.5279
H32B H 0.8158 0.9163 0.4568
C19B C 0.6861(2) 0.8020(2) 0.4286(2)
H33B H 0.6244 0.8540 0.4346
H34B H 0.6971 0.7995 0.3753
S1 S 0.40818(10) 0.03950(9) 0.29159(7)
O1 O 0.3390(12) 0.1355(7) 0.2798(4)
O2 O 0.4565(14) 0.0193(11) 0.3674(8)
O3 O 0.3549(7) -0.0613(9) 0.2598(5)
F1 F 0.5826(7) 0.1529(7) 0.2625(4)
F2 F 0.5991(7) -0.0269(8) 0.2490(6)
F3 F 0.4830(8) 0.0661(9) 0.1634(4)
C20 C 0.5253(7) 0.0581(6) 0.2362(5)
O7 O 0.6795(2) 0.6444(2) 0.65233(15)
H35 H 0.6688 0.7104 0.6687
H36 H 0.7320 0.6134 0.6821
O4? O 0.465(5) -0.028(4) 0.350(3)
O5? O 0.312(3) 0.002(4) 0.2423(13)
O6? O 0.414(4) 0.1636(18) 0.303(2)
F4? F 0.537(2) -0.0483(14) 0.1957(13)
F5? F 0.5321(18) 0.1252(18) 0.1838(13)
F6? F 0.6256(17) 0.055(2) 0.2698(11)
loop_
_geom_bond_atom_site_label_1
_geom_bond_atom_site_label_2
_geom_bond_site_symmetry_1
_geom_bond_site_symmetry_2
P1 C1 1_555 1_555
C1 H1 1_555 1_555
C2 P1 1_555 1_555
H2 C2 1_555 1_555
C3 C2 1_555 1_555
H3 C3 1_555 1_555
H4 C3 1_555 1_555
C4 C3 1_555 1_555
H5 C4 1_555 1_555
H6 C4 1_555 1_555
C5 C4 1_555 1_555
H7 C5 1_555 1_555
H8 C5 1_555 1_555
C6 C5 1_555 1_555
H9 C6 1_555 1_555
H10 C6 1_555 1_555
C7 C2 1_555 1_555
H11 C7 1_555 1_555
H12 C7 1_555 1_555
C8 P1 1_555 1_555
H13 C8 1_555 1_555
C9 C8 1_555 1_555
H14 C9 1_555 1_555
H15 C9 1_555 1_555
C10 C9 1_555 1_555
H16 C10 1_555 1_555
H17 C10 1_555 1_555
C11 C10 1_555 1_555
H18 C11 1_555 1_555
H19 C11 1_555 1_555
C12 C11 1_555 1_555
H20 C12 1_555 1_555
H21 C12 1_555 1_555
C13 C8 1_555 1_555
H22 C13 1_555 1_555
H23 C13 1_555 1_555
C14 P1 1_555 1_555
H24 C14 1_555 1_555
C15 C14 1_555 1_555
H25 C15 1_555 1_555
H26 C15 1_555 1_555
C16 C15 1_555 1_555
H27 C16 1_555 1_555
H28 C16 1_555 1_555
C17 C16 1_555 1_555
H29 C17 1_555 1_555
H30 C17 1_555 1_555
C18 C17 1_555 1_555
H31 C18 1_555 1_555
H32 C18 1_555 1_555
C19 C14 1_555 1_555
H33 C19 1_555 1_555
H34 C19 1_555 1_555
S1 O1 1_555 1_555
O2 S1 1_555 1_555
O3 S1 1_555 1_555
F1 C20 1_555 1_555
F2 C20 1_555 1_555
F3 C20 1_555 1_555
C20 S1 1_555 1_555
O7 H35 1_555 1_555
H36 O7 1_555 1_555
P1B C1B 1_555 1_555
C1B C1 1_555 1_555
H1B C1B 1_555 1_555
C2B P1B 1_555 1_555
H2B C2B 1_555 1_555
C3B C2B 1_555 1_555
H3B C3B 1_555 1_555
H4B C3B 1_555 1_555
C4B C3B 1_555 1_555
H5B C4B 1_555 1_555
H6B C4B 1_555 1_555
C5B C4B 1_555 1_555
H7B C5B 1_555 1_555
H8B C5B 1_555 1_555
C6B C5B 1_555 1_555
H9B C6B 1_555 1_555
H10B C6B 1_555 1_555
C7B C2B 1_555 1_555
H11B C7B 1_555 1_555
H12B C7B 1_555 1_555
C8B P1B 1_555 1_555
H13B C8B 1_555 1_555
C9B C8B 1_555 1_555
H14B C9B 1_555 1_555
H15B C9B 1_555 1_555
C10B C9B 1_555 1_555
H16B C10B 1_555 1_555
H17B C10B 1_555 1_555
C11B C10B 1_555 1_555
H18B C11B 1_555 1_555
H19B C11B 1_555 1_555
C12B C11B 1_555 1_555
H20B C12B 1_555 1_555
H21B C12B 1_555 1_555
C13B C8B 1_555 1_555
H22B C13B 1_555 1_555
H23B C13B 1_555 1_555
C14B P1B 1_555 1_555
H24B C14B 1_555 1_555
C15B C14B 1_555 1_555
H25B C15B 1_555 1_555
H26B C15B 1_555 1_555
C16B C15B 1_555 1_555
H27B C16B 1_555 1_555
H28B C16B 1_555 1_555
C17B C16B 1_555 1_555
H29B C17B 1_555 1_555
H30B C17B 1_555 1_555
C18B C17B 1_555 1_555
H31B C18B 1_555 1_555
H32B C18B 1_555 1_555
C19B C14B 1_555 1_555
H33B C19B 1_555 1_555
H34B C19B 1_555 1_555
C6 C7 1_555 1_555
C12 C13 1_555 1_555
C18 C19 1_555 1_555
C6B C7B 1_555 1_555
C12B C13B 1_555 1_555
C18B C19B 1_555 1_555

#END
