
#######################################################################
#
#                 Cambridge Crystallographic Data Centre
#                                CCDC 
#
#######################################################################
#
# If this CIF has been generated from an entry in the Cambridge 
# Structural Database, then it will include bibliographic, chemical, 
# crystal, experimental, refinement or atomic coordinate data resulting 
# from the CCDC's data processing and validation procedures.
#
#######################################################################

data_GUPYEX
_chemical_formula_moiety         'C38 H32 P2 2+,2(C1 F3 O3 S1 1-),C1 H2 Cl2'
_chemical_name_systematic        
'ethene-1,2-diylbis(triphenylphosphonium) bis(trifluoromethanesulfonate) dichloromethane solvate'
_symmetry_cell_setting           orthorhombic
_symmetry_space_group_name_H-M   'P b c a'
_symmetry_Int_Tables_number      61
_space_group_name_Hall           '-P 2ac 2ab'
loop_
_symmetry_equiv_pos_site_id
_symmetry_equiv_pos_as_xyz
1 x,y,z
2 1/2-x,-y,1/2+z
3 -x,1/2+y,1/2-z
4 1/2+x,1/2-y,-z
5 -x,-y,-z
6 1/2+x,y,1/2-z
7 x,1/2-y,1/2+z
8 1/2-x,1/2+y,z
_cell_length_a                   19.6445(18)
_cell_length_b                   18.3206(16)
_cell_length_c                   23.958(2)
_cell_angle_alpha                90
_cell_angle_beta                 90
_cell_angle_gamma                90
_cell_volume                     8622.46
_cell_formula_units_Z            8
loop_
_atom_site_label
_atom_site_type_symbol
_atom_site_fract_x
_atom_site_fract_y
_atom_site_fract_z
Cl1 Cl 0.09093(10) 0.19832(11) 0.85060(8)
Cl2 Cl -0.01454(11) 0.17419(10) 0.77010(9)
C1 C 0.0668(4) 0.1485(4) 0.7910(3)
H1 H 0.0989 0.1577 0.7610
H2 H 0.0675 0.0967 0.7993
F1 F 0.1448(2) 0.85365(19) 0.86618(15)
F2 F 0.0488(2) 0.9061(2) 0.85835(16)
F3 F 0.08349(17) 0.83424(19) 0.79427(15)
O1 O 0.1592(2) 1.0108(2) 0.83892(15)
O2 O 0.2009(2) 0.9274(2) 0.76864(18)
O3 O 0.0923(2) 0.9866(2) 0.75747(15)
S1 S 0.14360(9) 0.96061(8) 0.79459(6)
C2 C 0.1036(4) 0.8859(4) 0.8301(3)
F7 F 0.1975(7) 0.2511(6) 0.4446(4)
F8 F 0.2195(13) 0.3605(10) 0.4498(5)
F9 F 0.2964(10) 0.2845(13) 0.4679(9)
O4 O 0.255(8) 0.346(10) 0.574(7)
O5 O 0.2185(14) 0.2206(14) 0.5590(10)
O6 O 0.140(2) 0.3141(15) 0.5431(17)
S2 S 0.21533(18) 0.29461(14) 0.54521(11)
C3 C 0.2323(18) 0.299(2) 0.472(2)
P1 P 0.18222(6) 0.54300(7) 0.65811(5)
P2 P 0.38219(6) 0.53332(7) 0.57337(5)
C5 C 0.2595(2) 0.5130(3) 0.62623(17)
H3 H 0.2636 0.4640 0.6166
C6 C 0.3111(2) 0.5571(3) 0.61576(17)
H4 H 0.3103 0.6034 0.6315
C7 C 0.2015(2) 0.6187(3) 0.7025(2)
C8 C 0.2257(2) 0.6054(3) 0.7556(2)
H5 H 0.2312 0.5576 0.7680
C9 C 0.2416(3) 0.6622(4) 0.7899(2)
H6 H 0.2576 0.6532 0.8257
C10 C 0.2338(3) 0.7335(4) 0.7715(3)
H7 H 0.2444 0.7721 0.7952
C11 C 0.2109(3) 0.7472(3) 0.7191(3)
H8 H 0.2069 0.7951 0.7066
C12 C 0.1937(2) 0.6904(3) 0.6846(2)
H9 H 0.1767 0.6999 0.6491
C13 C 0.1447(2) 0.4707(3) 0.69763(19)
C14 C 0.1569(3) 0.3992(3) 0.6836(2)
H10 H 0.1878 0.3876 0.6556
C15 C 0.1227(3) 0.3451(3) 0.7118(3)
H11 H 0.1303 0.2965 0.7025
C16 C 0.0776(3) 0.3620(4) 0.7532(3)
H12 H 0.0545 0.3250 0.7718
C17 C 0.0665(3) 0.4324(4) 0.7670(2)
H13 H 0.0362 0.4436 0.7956
C18 C 0.0994(2) 0.4874(3) 0.7396(2)
H14 H 0.0912 0.5358 0.7491
C19 C 0.1267(3) 0.5670(3) 0.6018(2)
C20 C 0.1511(3) 0.6052(3) 0.5560(2)
H15 H 0.1968 0.6181 0.5542
C21 C 0.1076(4) 0.6241(3) 0.5130(2)
H16 H 0.1240 0.6499 0.4823
C22 C 0.0409(4) 0.6052(4) 0.5155(3)
H17 H 0.0118 0.6179 0.4864
C23 C 0.0158(3) 0.5672(4) 0.5607(3)
H18 H -0.0301 0.5551 0.5622
C24 C 0.0592(3) 0.5469(3) 0.6043(2)
H19 H 0.0427 0.5203 0.6345
C25 C 0.4531(2) 0.5881(3) 0.59428(17)
C26 C 0.5153(3) 0.5572(3) 0.60532(18)
H20 H 0.5206 0.5068 0.6030
C27 C 0.5699(3) 0.6006(3) 0.61988(19)
H21 H 0.6119 0.5793 0.6274
C28 C 0.5627(3) 0.6744(3) 0.6233(2)
H22 H 0.5997 0.7032 0.6334
C29 C 0.5012(3) 0.7064(3) 0.6120(2)
H23 H 0.4965 0.7568 0.6145
C30 C 0.4462(3) 0.6637(3) 0.5971(2)
H24 H 0.4047 0.6855 0.5888
C31 C 0.4015(2) 0.4389(2) 0.58158(19)
C32 C 0.4121(2) 0.3950(3) 0.5358(2)
H25 H 0.4073 0.4141 0.5000
C33 C 0.4299(3) 0.3225(3) 0.5427(2)
H26 H 0.4368 0.2926 0.5118
C34 C 0.4372(2) 0.2951(3) 0.5962(3)
H27 H 0.4503 0.2468 0.6012
C35 C 0.4255(2) 0.3384(3) 0.6421(2)
H28 H 0.4297 0.3190 0.6778
C36 C 0.4078(2) 0.4097(3) 0.6351(2)
H29 H 0.3998 0.4390 0.6661
C37 C 0.3581(2) 0.5519(3) 0.50318(18)
C38 C 0.3941(3) 0.5996(3) 0.4698(2)
H30 H 0.4320 0.6237 0.4837
C39 C 0.3732(3) 0.6112(3) 0.4153(2)
H31 H 0.3977 0.6429 0.3927
C40 C 0.3170(3) 0.5767(3) 0.3945(2)
H32 H 0.3036 0.5850 0.3578
C41 C 0.2803(3) 0.5298(3) 0.4274(2)
H33 H 0.2418 0.5069 0.4133
C42 C 0.3009(3) 0.5168(3) 0.4816(2)
H34 H 0.2765 0.4845 0.5038
F4? F 0.1099(8) 0.3505(13) 0.5574(11)
F5? F 0.1603(9) 0.3857(7) 0.4820(9)
F6? F 0.1152(6) 0.2807(6) 0.4846(5)
O7? O 0.248(9) 0.359(11) 0.568(8)
O8? O 0.2006(16) 0.2377(18) 0.5808(11)
O9? O 0.261(2) 0.2676(13) 0.4976(11)
C4? C 0.144(3) 0.330(3) 0.5124(14)
loop_
_geom_bond_atom_site_label_1
_geom_bond_atom_site_label_2
_geom_bond_site_symmetry_1
_geom_bond_site_symmetry_2
Cl1 C1 1_555 1_555
Cl2 C1 1_555 1_555
C1 H1 1_555 1_555
H2 C1 1_555 1_555
F1 C2 1_555 1_555
F2 C2 1_555 1_555
F3 C2 1_555 1_555
O1 S1 1_555 1_555
O2 S1 1_555 1_555
O3 S1 1_555 1_555
S1 C2 1_555 1_555
F7 C3 1_555 1_555
F8 C3 1_555 1_555
F9 C3 1_555 1_555
O4 S2 1_555 1_555
O5 S2 1_555 1_555
O6 S2 1_555 1_555
S2 C3 1_555 1_555
P1 C5 1_555 1_555
P2 C6 1_555 1_555
C5 H3 1_555 1_555
C6 C5 1_555 1_555
H4 C6 1_555 1_555
C7 P1 1_555 1_555
C8 C7 1_555 1_555
H5 C8 1_555 1_555
C9 C8 1_555 1_555
H6 C9 1_555 1_555
C10 C9 1_555 1_555
H7 C10 1_555 1_555
C11 C10 1_555 1_555
H8 C11 1_555 1_555
C12 C7 1_555 1_555
H9 C12 1_555 1_555
C13 P1 1_555 1_555
C14 C13 1_555 1_555
H10 C14 1_555 1_555
C15 C14 1_555 1_555
H11 C15 1_555 1_555
C16 C15 1_555 1_555
H12 C16 1_555 1_555
C17 C16 1_555 1_555
H13 C17 1_555 1_555
C18 C13 1_555 1_555
H14 C18 1_555 1_555
C19 P1 1_555 1_555
C20 C19 1_555 1_555
H15 C20 1_555 1_555
C21 C20 1_555 1_555
H16 C21 1_555 1_555
C22 C21 1_555 1_555
H17 C22 1_555 1_555
C23 C22 1_555 1_555
H18 C23 1_555 1_555
C24 C19 1_555 1_555
H19 C24 1_555 1_555
C25 P2 1_555 1_555
C26 C25 1_555 1_555
H20 C26 1_555 1_555
C27 C26 1_555 1_555
H21 C27 1_555 1_555
C28 C27 1_555 1_555
H22 C28 1_555 1_555
C29 C28 1_555 1_555
H23 C29 1_555 1_555
C30 C25 1_555 1_555
H24 C30 1_555 1_555
C31 P2 1_555 1_555
C32 C31 1_555 1_555
H25 C32 1_555 1_555
C33 C32 1_555 1_555
H26 C33 1_555 1_555
C34 C33 1_555 1_555
H27 C34 1_555 1_555
C35 C34 1_555 1_555
H28 C35 1_555 1_555
C36 C31 1_555 1_555
H29 C36 1_555 1_555
C37 P2 1_555 1_555
C38 C37 1_555 1_555
H30 C38 1_555 1_555
C39 C38 1_555 1_555
H31 C39 1_555 1_555
C40 C39 1_555 1_555
H32 C40 1_555 1_555
C41 C40 1_555 1_555
H33 C41 1_555 1_555
C42 C37 1_555 1_555
H34 C42 1_555 1_555
C11 C12 1_555 1_555
C17 C18 1_555 1_555
C23 C24 1_555 1_555
C29 C30 1_555 1_555
C35 C36 1_555 1_555
C41 C42 1_555 1_555

#END
