
#######################################################################
#
#                 Cambridge Crystallographic Data Centre
#                                CCDC 
#
#######################################################################
#
# If this CIF has been generated from an entry in the Cambridge 
# Structural Database, then it will include bibliographic, chemical, 
# crystal, experimental, refinement or atomic coordinate data resulting 
# from the CCDC's data processing and validation procedures.
#
#######################################################################

data_GUQJIN
_chemical_formula_moiety         'C38 H33 B1 F2 N4 O1,C1 H1 Cl3'
_chemical_name_systematic        
"2-((4-((4-(5,5-difluoro-1,3,7,9-tetramethyl-5H-dipyrrolo[1,2-c:2',1'-f][1,3,2]diazaborinin-10-yl)phenyl)(phenyl)amino)benzylidene)amino)phenol chloroform solvate"
_symmetry_cell_setting           triclinic
_symmetry_space_group_name_H-M   'P -1'
_symmetry_Int_Tables_number      2
_space_group_name_Hall           '-P 1'
loop_
_symmetry_equiv_pos_site_id
_symmetry_equiv_pos_as_xyz
1 x,y,z
2 -x,-y,-z
_cell_length_a                   10.1830(6)
_cell_length_b                   14.0676(12)
_cell_length_c                   14.0809(9)
_cell_angle_alpha                115.593(7)
_cell_angle_beta                 98.295(5)
_cell_angle_gamma                100.687(6)
_cell_volume                     1729.39
_exptl_crystal_colour            red
_exptl_crystal_description       block
_cell_formula_units_Z            2
loop_
_atom_site_label
_atom_site_type_symbol
_atom_site_fract_x
_atom_site_fract_y
_atom_site_fract_z
Cl1 Cl 0.51137(14) 0.82704(12) 0.61240(12)
Cl2 Cl 0.77934(13) 0.98507(10) 0.71758(10)
Cl3 Cl 0.73969(13) 0.76672(10) 0.69470(11)
C1 C 0.6910(5) 0.8455(4) 0.6354(4)
H1 H 0.7145 0.8206 0.5651
F1 F 0.7918(3) 1.19327(18) 1.3270(2)
F2 F 0.9431(2) 1.0910(2) 1.3092(2)
N1 N 0.7208(3) 1.0217(3) 1.3298(3)
N2 N 0.7452(3) 1.0270(2) 1.1589(3)
N3 N 0.1433(3) 0.4857(2) 0.8828(2)
N4 N -0.2099(3) 0.5413(3) 0.4987(3)
C2 C 0.5610(4) 0.8884(3) 1.1563(3)
O1 O -0.1610(3) 0.7043(3) 0.4478(3)
H2 H -0.1167 0.6909 0.4917
B1 B 0.8045(5) 1.0876(4) 1.2838(4)
C3 C -0.0853(4) 0.4161(3) 0.7578(3)
H3 H -0.1147 0.3714 0.7880
C4 C 0.0501(4) 0.4834(3) 0.7965(3)
C5 C 0.0911(4) 0.5493(3) 0.7496(3)
H4 H 0.1815 0.5937 0.7742
C6 C 0.0002(4) 0.5500(3) 0.6674(3)
H5 H 0.0295 0.5951 0.6375
C7 C -0.1362(4) 0.4831(3) 0.6287(3)
C8 C -0.1753(4) 0.4161(3) 0.6748(3)
H6 H -0.2648 0.3699 0.6489
C9 C 0.1105(4) 0.2882(3) 0.8039(3)
H7 H 0.0966 0.2819 0.7345
C10 C 0.1034(4) 0.1953(3) 0.8176(4)
H8 H 0.0831 0.1270 0.7568
C11 C 0.1258(4) 0.2027(4) 0.9188(4)
H9 H 0.1208 0.1400 0.9268
C12 C 0.1559(4) 0.3039(4) 1.0087(4)
H10 H 0.1718 0.3093 1.0778
C13 C 0.1629(4) 0.3982(3) 0.9977(3)
H11 H 0.1839 0.4661 1.0591
C14 C 0.1385(4) 0.3906(3) 0.8948(3)
C15 C 0.2463(4) 0.5862(3) 0.9574(3)
C16 C 0.3839(4) 0.5877(3) 0.9833(3)
H12 H 0.4084 0.5223 0.9552
C17 C 0.4833(4) 0.6843(3) 1.0498(3)
H13 H 0.5749 0.6842 1.0674
C18 C 0.2101(4) 0.6831(3) 1.0021(3)
H14 H 0.1178 0.6825 0.9878
C19 C 0.3110(4) 0.7812(3) 1.0681(3)
H15 H 0.2861 0.8464 1.0971
C20 C 0.4481(4) 0.7833(3) 1.0914(3)
C21 C -0.3134(4) 0.5367(3) 0.4164(3)
C22 C -0.4362(5) 0.4552(4) 0.3589(4)
H16 H -0.4585 0.3965 0.3734
C23 C -0.5273(5) 0.4619(4) 0.2784(4)
H17 H -0.6102 0.4073 0.2395
C24 C -0.4948(5) 0.5476(4) 0.2572(4)
H18 H -0.5557 0.5510 0.2036
C25 C -0.3719(5) 0.6300(4) 0.3145(4)
H19 H -0.3509 0.6890 0.3003
C26 C -0.2819(4) 0.6236(4) 0.3922(3)
C27 C 0.5519(4) 0.8990(3) 1.3422(3)
C28 C 0.6401(4) 0.9691(3) 1.4443(3)
C29 C 0.7438(4) 1.0422(3) 1.4342(3)
C30 C 0.6047(4) 0.9312(3) 1.2690(3)
C31 C 0.6292(4) 0.9358(3) 1.1018(3)
C32 C 0.6068(4) 0.9057(3) 0.9895(3)
C33 C 0.7115(4) 0.9778(3) 0.9813(3)
C34 C 0.7951(4) 1.0510(3) 1.0858(3)
C35 C 0.9206(5) 1.1412(4) 1.1167(4)
H20 H 0.9572 1.1777 1.1942
H21 H 0.8973 1.1927 1.0941
H22 H 0.9885 1.1117 1.0817
C36 C 0.4934(4) 0.8164(4) 0.8950(3)
H23 H 0.4336 0.7769 0.9207
H24 H 0.5329 0.7670 0.8436
H25 H 0.4412 0.8482 0.8604
C37 C 0.4244(4) 0.8129(3) 1.3195(3)
H26 H 0.3806 0.7754 1.2430
H27 H 0.3621 0.8464 1.3592
H28 H 0.4482 0.7614 1.3417
C38 C 0.8613(5) 1.1317(4) 1.5210(3)
H29 H 0.9147 1.1690 1.4900
H30 H 0.9185 1.1013 1.5538
H31 H 0.8266 1.1827 1.5753
C39 C -0.2364(4) 0.4806(3) 0.5432(3)
H32 H -0.334(5) 0.426(4) 0.518(4)
loop_
_geom_bond_atom_site_label_1
_geom_bond_atom_site_label_2
_geom_bond_site_symmetry_1
_geom_bond_site_symmetry_2
Cl1 C1 1_555 1_555
Cl2 C1 1_555 1_555
Cl3 C1 1_555 1_555
C1 H1 1_555 1_555
F1 B1 1_555 1_555
F2 B1 1_555 1_555
N1 B1 1_555 1_555
N2 B1 1_555 1_555
N3 C4 1_555 1_555
N4 C21 1_555 1_555
C2 C20 1_555 1_555
O1 H2 1_555 1_555
C3 H3 1_555 1_555
C4 C3 1_555 1_555
C5 C4 1_555 1_555
H4 C5 1_555 1_555
C6 C5 1_555 1_555
H5 C6 1_555 1_555
C7 C6 1_555 1_555
C8 C3 1_555 1_555
H6 C8 1_555 1_555
C9 H7 1_555 1_555
C10 C9 1_555 1_555
H8 C10 1_555 1_555
C11 C10 1_555 1_555
H9 C11 1_555 1_555
C12 C11 1_555 1_555
H10 C12 1_555 1_555
C13 C12 1_555 1_555
H11 C13 1_555 1_555
C14 N3 1_555 1_555
C15 N3 1_555 1_555
C16 C15 1_555 1_555
H12 C16 1_555 1_555
C17 C16 1_555 1_555
H13 C17 1_555 1_555
C18 C15 1_555 1_555
H14 C18 1_555 1_555
C19 C18 1_555 1_555
H15 C19 1_555 1_555
C20 C17 1_555 1_555
C21 C22 1_555 1_555
C22 H16 1_555 1_555
C23 C22 1_555 1_555
H17 C23 1_555 1_555
C24 C23 1_555 1_555
H18 C24 1_555 1_555
C25 C24 1_555 1_555
H19 C25 1_555 1_555
C26 O1 1_555 1_555
C27 C28 1_555 1_555
C28 C29 1_555 1_555
C29 N1 1_555 1_555
C30 N1 1_555 1_555
C31 N2 1_555 1_555
C32 C31 1_555 1_555
C33 C32 1_555 1_555
C34 N2 1_555 1_555
C35 C34 1_555 1_555
H20 C35 1_555 1_555
H21 C35 1_555 1_555
H22 C35 1_555 1_555
C36 C32 1_555 1_555
H23 C36 1_555 1_555
H24 C36 1_555 1_555
H25 C36 1_555 1_555
C37 C27 1_555 1_555
H26 C37 1_555 1_555
H27 C37 1_555 1_555
H28 C37 1_555 1_555
C38 C29 1_555 1_555
H29 C38 1_555 1_555
H30 C38 1_555 1_555
H31 C38 1_555 1_555
C39 N4 1_555 1_555
H32 C39 1_555 1_555
C2 C30 1_555 1_555
C2 C31 1_555 1_555
C7 C8 1_555 1_555
C7 C39 1_555 1_555
C9 C14 1_555 1_555
C13 C14 1_555 1_555
C19 C20 1_555 1_555
C21 C26 1_555 1_555
C25 C26 1_555 1_555
C27 C30 1_555 1_555
C33 C34 1_555 1_555

#END
