
#######################################################################
#
#                 Cambridge Crystallographic Data Centre
#                                CCDC 
#
#######################################################################
#
# If this CIF has been generated from an entry in the Cambridge 
# Structural Database, then it will include bibliographic, chemical, 
# crystal, experimental, refinement or atomic coordinate data resulting 
# from the CCDC's data processing and validation procedures.
#
#######################################################################

data_GUQKIN
_chemical_formula_moiety         'C20 H19 N1 O4'
_chemical_name_systematic        
(S)-2-((R)-1-(4-Nitrophenyl)-3-oxo-3-phenylpropyl)cyclopentanone
_symmetry_cell_setting           triclinic
_symmetry_space_group_name_H-M   'P 1'
_symmetry_Int_Tables_number      1
_space_group_name_Hall           'P 1'
loop_
_symmetry_equiv_pos_site_id
_symmetry_equiv_pos_as_xyz
1 x,y,z
_cell_length_a                   8.061(2)
_cell_length_b                   10.513(3)
_cell_length_c                   11.444(3)
_cell_angle_alpha                67.430(4)
_cell_angle_beta                 80.858(4)
_cell_angle_gamma                87.369(4)
_cell_volume                     884.051
_exptl_crystal_colour            colorless
_exptl_crystal_description       block
_chemical_melting_point          '131-132 deg.C'
_cell_formula_units_Z            2
_exptl_crystal_recrystallization_method 'petroleum ether/ethyl acetate'
loop_
_atom_site_label
_atom_site_type_symbol
_atom_site_fract_x
_atom_site_fract_y
_atom_site_fract_z
C1 C 0.2134(5) 0.7606(4) 0.1853(4)
C2 C 0.1443(7) 0.6611(5) 0.1549(5)
H1 H 0.0974 0.5809 0.2199
C3 C 0.1446(8) 0.6799(7) 0.0300(6)
H2 H 0.0963 0.6131 0.0107
C4 C 0.2152(10) 0.7957(9) -0.0668(6)
H3 H 0.2153 0.8076 -0.1516
C5 C 0.2859(8) 0.8945(7) -0.0384(6)
H4 H 0.3355 0.9729 -0.1043
C6 C 0.2837(7) 0.8785(5) 0.0857(5)
H5 H 0.3296 0.9470 0.1040
C7 C 0.2166(5) 0.7460(4) 0.3191(4)
C8 C 0.1676(5) 0.6087(4) 0.4255(4)
H6 H 0.2547 0.5431 0.4215
H7 H 0.0648 0.5759 0.4117
C9 C 0.1407(4) 0.6129(4) 0.5592(3)
H8 H 0.2311 0.6700 0.5626
C10 C -0.0239(4) 0.6797(4) 0.5834(4)
C11 C -0.1756(5) 0.6285(4) 0.5745(5)
H9 H -0.1756 0.5511 0.5539
C12 C -0.3251(5) 0.6897(5) 0.5955(5)
H10 H -0.4256 0.6537 0.5900
C13 C -0.3247(5) 0.8041(4) 0.6244(4)
C14 C -0.1788(4) 0.8580(4) 0.6334(4)
H11 H -0.1803 0.9360 0.6532
C15 C -0.0289(4) 0.7954(4) 0.6127(4)
H12 H 0.0708 0.8321 0.6187
C16 C 0.1525(5) 0.4690(4) 0.6623(3)
H13 H 0.0794 0.4058 0.6484
C17 C 0.3314(5) 0.4125(4) 0.6612(4)
C18 C 0.3666(7) 0.3438(7) 0.7939(5)
H14 H 0.4505 0.3956 0.8102
H15 H 0.4076 0.2515 0.8087
C19 C 0.2049(7) 0.3385(6) 0.8782(5)
H16 H 0.2237 0.3477 0.9562
H17 H 0.1457 0.2521 0.9006
C20 C 0.1054(7) 0.4582(5) 0.8014(4)
H18 H 0.1357 0.5424 0.8093
H19 H -0.0142 0.4408 0.8301
N1 N -0.4832(4) 0.8732(4) 0.6427(3)
O1 O 0.2593(5) 0.8415(3) 0.3422(3)
O2 O -0.4799(4) 0.9814(4) 0.6562(4)
O3 O -0.6121(4) 0.8192(4) 0.6414(4)
O4 O 0.4320(4) 0.4292(4) 0.5666(3)
C21 C 0.0642(4) 0.2125(3) 0.4880(4)
C22 C -0.0926(5) 0.2748(4) 0.4871(4)
H20 H -0.1250 0.3314 0.4095
C23 C -0.1996(5) 0.2536(4) 0.5990(5)
H21 H -0.3042 0.2949 0.5968
C24 C -0.1526(5) 0.1717(5) 0.7145(5)
H22 H -0.2251 0.1580 0.7902
C25 C 0.0018(5) 0.1099(4) 0.7182(4)
H23 H 0.0335 0.0544 0.7964
C26 C 0.1095(5) 0.1304(4) 0.6058(4)
H24 H 0.2138 0.0886 0.6089
C27 C 0.1720(4) 0.2355(4) 0.3632(4)
C28 C 0.3315(5) 0.1557(4) 0.3608(4)
H25 H 0.3025 0.0600 0.3824
H26 H 0.3922 0.1594 0.4262
C29 C 0.4480(5) 0.2085(4) 0.2316(3)
H27 H 0.3811 0.2097 0.1668
C30 C 0.5131(4) 0.3545(4) 0.1923(3)
C31 C 0.5408(5) 0.4083(4) 0.2811(4)
H28 H 0.5190 0.3536 0.3680
C32 C 0.6005(5) 0.5422(5) 0.2423(5)
H29 H 0.6155 0.5782 0.3026
C33 C 0.6367(6) 0.6196(4) 0.1157(5)
C34 C 0.6147(7) 0.5704(5) 0.0245(5)
H30 H 0.6422 0.6246 -0.0622
C35 C 0.5507(6) 0.4387(4) 0.0642(4)
H31 H 0.5322 0.4053 0.0028
C36 C 0.5915(5) 0.1070(4) 0.2310(3)
H32 H 0.5396 0.0148 0.2674
C37 C 0.6832(6) 0.1250(4) 0.1002(4)
C38 C 0.8652(6) 0.0953(6) 0.1084(6)
H33 H 0.9325 0.1794 0.0671
H34 H 0.9049 0.0315 0.0678
C39 C 0.8752(6) 0.0317(6) 0.2510(6)
H35 H 0.9826 0.0523 0.2684
H36 H 0.8580 -0.0673 0.2849
C40 C 0.7315(5) 0.1018(5) 0.3070(4)
H37 H 0.6968 0.0486 0.3974
H38 H 0.7646 0.1938 0.2958
N2 N 0.7010(6) 0.7628(5) 0.0754(7)
O5 O 0.1294(4) 0.3148(3) 0.2637(3)
O6 O 0.7101(8) 0.8041(5) 0.1593(7)
O7 O 0.7401(7) 0.8286(4) -0.0386(6)
O8 O 0.6179(6) 0.1588(4) 0.0057(3)
loop_
_geom_bond_atom_site_label_1
_geom_bond_atom_site_label_2
_geom_bond_site_symmetry_1
_geom_bond_site_symmetry_2
C1 C2 1_555 1_555
C2 H1 1_555 1_555
C3 C2 1_555 1_555
H2 C3 1_555 1_555
C4 C3 1_555 1_555
H3 C4 1_555 1_555
C5 C4 1_555 1_555
H4 C5 1_555 1_555
C6 C1 1_555 1_555
H5 C6 1_555 1_555
C7 C1 1_555 1_555
C8 C7 1_555 1_555
H6 C8 1_555 1_555
H7 C8 1_555 1_555
C9 C8 1_555 1_555
H8 C9 1_555 1_555
C10 C9 1_555 1_555
C11 C10 1_555 1_555
H9 C11 1_555 1_555
C12 C11 1_555 1_555
H10 C12 1_555 1_555
C13 C12 1_555 1_555
C14 C13 1_555 1_555
H11 C14 1_555 1_555
C15 C10 1_555 1_555
H12 C15 1_555 1_555
C16 C9 1_555 1_555
H13 C16 1_555 1_555
C17 C16 1_555 1_555
C18 C17 1_555 1_555
H14 C18 1_555 1_555
H15 C18 1_555 1_555
C19 C18 1_555 1_555
H16 C19 1_555 1_555
H17 C19 1_555 1_555
C20 C16 1_555 1_555
H18 C20 1_555 1_555
H19 C20 1_555 1_555
N1 C13 1_555 1_555
O1 C7 1_555 1_555
O2 N1 1_555 1_555
O3 N1 1_555 1_555
O4 C17 1_555 1_555
C21 C22 1_555 1_555
C22 H20 1_555 1_555
C23 C22 1_555 1_555
H21 C23 1_555 1_555
C24 C23 1_555 1_555
H22 C24 1_555 1_555
C25 C24 1_555 1_555
H23 C25 1_555 1_555
C26 C21 1_555 1_555
H24 C26 1_555 1_555
C27 C21 1_555 1_555
C28 C27 1_555 1_555
H25 C28 1_555 1_555
H26 C28 1_555 1_555
C29 C28 1_555 1_555
H27 C29 1_555 1_555
C30 C29 1_555 1_555
C31 C30 1_555 1_555
H28 C31 1_555 1_555
C32 C31 1_555 1_555
H29 C32 1_555 1_555
C33 C32 1_555 1_555
C34 C33 1_555 1_555
H30 C34 1_555 1_555
C35 C30 1_555 1_555
H31 C35 1_555 1_555
C36 C29 1_555 1_555
H32 C36 1_555 1_555
C37 C36 1_555 1_555
C38 C37 1_555 1_555
H33 C38 1_555 1_555
H34 C38 1_555 1_555
C39 C38 1_555 1_555
H35 C39 1_555 1_555
H36 C39 1_555 1_555
C40 C36 1_555 1_555
H37 C40 1_555 1_555
H38 C40 1_555 1_555
N2 C33 1_555 1_555
O5 C27 1_555 1_555
O6 N2 1_555 1_555
O7 N2 1_555 1_555
O8 C37 1_555 1_555
C5 C6 1_555 1_555
C14 C15 1_555 1_555
C19 C20 1_555 1_555
C25 C26 1_555 1_555
C34 C35 1_555 1_555
C39 C40 1_555 1_555

#END
