
#######################################################################
#
#                 Cambridge Crystallographic Data Centre
#                                CCDC 
#
#######################################################################
#
# If this CIF has been generated from an entry in the Cambridge 
# Structural Database, then it will include bibliographic, chemical, 
# crystal, experimental, refinement or atomic coordinate data resulting 
# from the CCDC's data processing and validation procedures.
#
#######################################################################

data_GUQMUC
_chemical_formula_moiety         'C21 H32 N3 O6 P1'
_chemical_name_systematic        
5-((benzyl(isopropyl)carbamoyl)oxy)-3,8-diisopropyl-1,6-dioxa-4,9-diaza-5-phosphaspiro[4.4]nonane-2,7-dione
_symmetry_cell_setting           monoclinic
_symmetry_space_group_name_H-M   'C 2'
_symmetry_Int_Tables_number      5
_space_group_name_Hall           'C 2y'
loop_
_symmetry_equiv_pos_site_id
_symmetry_equiv_pos_as_xyz
1 x,y,z
2 -x,y,-z
3 1/2+x,1/2+y,z
4 1/2-x,1/2+y,-z
_cell_length_a                   20.014(4)
_cell_length_b                   6.1055(12)
_cell_length_c                   20.653(4)
_cell_angle_alpha                90
_cell_angle_beta                 101.36(3)
_cell_angle_gamma                90
_cell_volume                     2474.26
_exptl_crystal_colour            colorless
_exptl_crystal_description       prism
_cell_formula_units_Z            4
loop_
_atom_site_label
_atom_site_type_symbol
_atom_site_fract_x
_atom_site_fract_y
_atom_site_fract_z
P1 P 0.27749(7) 0.1884(2) 0.22725(7)
O1 O 0.2301(2) 0.0935(7) 0.3583(2)
O2 O 0.31516(17) 0.1691(7) 0.30352(18)
O3 O 0.24595(18) -0.0761(5) 0.22609(19)
O4 O 0.1507(2) -0.2674(6) 0.2187(3)
O5 O 0.30795(19) 0.4519(5) 0.22513(19)
O6 O 0.3818(2) 0.6576(7) 0.1847(3)
N1 N 0.3342(2) -0.0710(8) 0.3878(2)
N2 N 0.1997(2) 0.2791(7) 0.2094(2)
H1 H 0.1915 0.4146 0.1996
N3 N 0.3260(2) 0.1124(7) 0.1768(2)
H2 H 0.3236 -0.0183 0.1610
C1 C 0.5619(5) 0.2966(19) 0.3673(6)
H3 H 0.5995 0.3871 0.3686
C2 C 0.5155(4) 0.3359(15) 0.4062(5)
H4 H 0.5204 0.4587 0.4334
C3 C 0.4614(3) 0.1957(14) 0.4058(4)
H5 H 0.4308 0.2248 0.4333
C4 C 0.4514(3) 0.0136(9) 0.3656(3)
C5 C 0.4963(5) -0.0186(16) 0.3264(4)
H6 H 0.4908 -0.1381 0.2979
C6 C 0.5511(6) 0.123(2) 0.3273(6)
H7 H 0.5811 0.0962 0.2991
C7 C 0.3939(3) -0.1446(10) 0.3620(3)
H8 H 0.3785 -0.1857 0.3161
H9 H 0.4115 -0.2759 0.3859
C8 C 0.3685(5) -0.1888(18) 0.5028(4)
H10 H 0.4050 -0.2812 0.4953
H11 H 0.3507 -0.2440 0.5395
H12 H 0.3852 -0.0426 0.5123
C9 C 0.3134(4) -0.1866(12) 0.4427(3)
H13 H 0.2748 -0.1062 0.4538
C10 C 0.2878(5) -0.4149(15) 0.4201(5)
H14 H 0.2563 -0.4043 0.3786
H15 H 0.2653 -0.4790 0.4525
H16 H 0.3257 -0.5051 0.4149
C11 C 0.2874(3) 0.0591(10) 0.3516(3)
C12 C 0.1790(3) -0.0951(9) 0.2197(3)
C13 C 0.1442(3) 0.1271(9) 0.2105(3)
H17 H 0.1248 0.1582 0.2496
C14 C 0.0856(4) 0.1320(13) 0.1489(4)
H18 H 0.0552 0.0111 0.1547
C15 C 0.1128(5) 0.0772(19) 0.0875(4)
H19 H 0.0763 0.0819 0.0497
H20 H 0.1324 -0.0670 0.0918
H21 H 0.1472 0.1818 0.0822
C16 C 0.0450(6) 0.324(2) 0.1430(6)
H22 H 0.0705 0.4449 0.1309
H23 H 0.0322 0.3541 0.1845
H24 H 0.0048 0.3020 0.1097
C17 C 0.3561(3) 0.4799(10) 0.1909(3)
C18 C 0.3735(3) 0.2695(8) 0.1591(3)
H25 H 0.4202 0.2256 0.1788
C19 C 0.3667(4) 0.2985(13) 0.0837(3)
H26 H 0.3989 0.4130 0.0768
C20 C 0.2958(4) 0.3755(15) 0.0511(4)
H27 H 0.2623 0.2807 0.0637
H28 H 0.2915 0.3721 0.0040
H29 H 0.2889 0.5225 0.0650
C21 C 0.3876(5) 0.0897(16) 0.0537(5)
H30 H 0.3591 -0.0286 0.0626
H31 H 0.4343 0.0571 0.0725
H32 H 0.3826 0.1079 0.0068
loop_
_geom_bond_atom_site_label_1
_geom_bond_atom_site_label_2
_geom_bond_site_symmetry_1
_geom_bond_site_symmetry_2
P1 O2 1_555 1_555
O1 C11 1_555 1_555
O2 C11 1_555 1_555
O3 P1 1_555 1_555
O4 C12 1_555 1_555
O5 P1 1_555 1_555
O6 C17 1_555 1_555
N1 C7 1_555 1_555
N2 P1 1_555 1_555
H1 N2 1_555 1_555
N3 P1 1_555 1_555
H2 N3 1_555 1_555
C1 H3 1_555 1_555
C2 C1 1_555 1_555
H4 C2 1_555 1_555
C3 C2 1_555 1_555
H5 C3 1_555 1_555
C4 C3 1_555 1_555
C5 C4 1_555 1_555
H6 C5 1_555 1_555
C6 C1 1_555 1_555
H7 C6 1_555 1_555
C7 C4 1_555 1_555
H8 C7 1_555 1_555
H9 C7 1_555 1_555
C8 H10 1_555 1_555
H11 C8 1_555 1_555
H12 C8 1_555 1_555
C9 N1 1_555 1_555
H13 C9 1_555 1_555
C10 C9 1_555 1_555
H14 C10 1_555 1_555
H15 C10 1_555 1_555
H16 C10 1_555 1_555
C11 N1 1_555 1_555
C12 O3 1_555 1_555
C13 N2 1_555 1_555
H17 C13 1_555 1_555
C14 C13 1_555 1_555
H18 C14 1_555 1_555
C15 C14 1_555 1_555
H19 C15 1_555 1_555
H20 C15 1_555 1_555
H21 C15 1_555 1_555
C16 C14 1_555 1_555
H22 C16 1_555 1_555
H23 C16 1_555 1_555
H24 C16 1_555 1_555
C17 O5 1_555 1_555
C18 N3 1_555 1_555
H25 C18 1_555 1_555
C19 C18 1_555 1_555
H26 C19 1_555 1_555
C20 C19 1_555 1_555
H27 C20 1_555 1_555
H28 C20 1_555 1_555
H29 C20 1_555 1_555
C21 C19 1_555 1_555
H30 C21 1_555 1_555
H31 C21 1_555 1_555
H32 C21 1_555 1_555
C5 C6 1_555 1_555
C8 C9 1_555 1_555
C12 C13 1_555 1_555
C17 C18 1_555 1_555

#END
