
#######################################################################
#
#                 Cambridge Crystallographic Data Centre
#                                CCDC 
#
#######################################################################
#
# If this CIF has been generated from an entry in the Cambridge 
# Structural Database, then it will include bibliographic, chemical, 
# crystal, experimental, refinement or atomic coordinate data resulting 
# from the CCDC's data processing and validation procedures.
#
#######################################################################

data_GUQPOZ
_chemical_formula_moiety         'C16 H10'
_chemical_name_systematic        pyrene
_symmetry_cell_setting           monoclinic
_symmetry_space_group_name_H-M   'P 21/c'
_symmetry_Int_Tables_number      14
_space_group_name_Hall           '-P 2ybc'
loop_
_symmetry_equiv_pos_site_id
_symmetry_equiv_pos_as_xyz
1 x,y,z
2 -x,1/2+y,1/2-z
3 -x,-y,-z
4 x,1/2-y,1/2+z
_cell_length_a                   8.3688(19)
_cell_length_b                   9.140(2)
_cell_length_c                   13.487(3)
_cell_angle_alpha                90
_cell_angle_beta                 100.234(4)
_cell_angle_gamma                90
_cell_volume                     1015.22
_cell_formula_units_Z            4
loop_
_atom_site_label
_atom_site_type_symbol
_atom_site_fract_x
_atom_site_fract_y
_atom_site_fract_z
C1 C 0.57954(19) 0.13520(18) 0.79371(12)
H1 H 0.4796 0.1806 0.7998
C2 C 0.5835(2) 0.03445(19) 0.71808(12)
H2 H 0.4859 0.0098 0.6737
C3 C 0.72764(19) -0.03107(18) 0.70603(11)
H3 H 0.7282 -0.1003 0.6535
C4 C 0.87274(19) 0.00367(16) 0.77053(10)
C5 C 1.0253(2) -0.05928(18) 0.75970(11)
H4 H 1.0292 -0.1271 0.7068
C6 C 1.16338(19) -0.02467(18) 0.82273(11)
H5 H 1.2626 -0.0683 0.8133
C7 C 1.16378(18) 0.07653(17) 0.90366(11)
C8 C 1.30504(19) 0.11521(18) 0.96990(11)
H6 H 1.4056 0.0730 0.9617
C9 C 1.3016(2) 0.21334(19) 1.04689(12)
H7 H 1.3993 0.2376 1.0913
C10 C 1.1570(2) 0.27661(18) 1.05982(11)
H8 H 1.1564 0.3442 1.1132
C11 C 1.01158(18) 0.24280(17) 0.99557(11)
C12 C 0.8593(2) 0.30652(18) 1.00590(11)
H9 H 0.8555 0.3742 1.0589
C13 C 0.72167(19) 0.27301(17) 0.94261(11)
H10 H 0.6228 0.3176 0.9518
C14 C 0.72014(18) 0.17145(17) 0.86139(11)
C15 C 0.86871(17) 0.10435(16) 0.84960(10)
C16 C 1.01460(17) 0.14068(17) 0.91679(10)
loop_
_geom_bond_atom_site_label_1
_geom_bond_atom_site_label_2
_geom_bond_site_symmetry_1
_geom_bond_site_symmetry_2
C1 H1 1_555 1_555
C2 C1 1_555 1_555
H2 C2 1_555 1_555
C3 C2 1_555 1_555
H3 C3 1_555 1_555
C4 C3 1_555 1_555
C5 C4 1_555 1_555
H4 C5 1_555 1_555
C6 C5 1_555 1_555
H5 C6 1_555 1_555
C7 C6 1_555 1_555
C8 C7 1_555 1_555
H6 C8 1_555 1_555
C9 C8 1_555 1_555
H7 C9 1_555 1_555
C10 C9 1_555 1_555
H8 C10 1_555 1_555
C11 C10 1_555 1_555
C12 C11 1_555 1_555
H9 C12 1_555 1_555
C13 C12 1_555 1_555
H10 C13 1_555 1_555
C14 C1 1_555 1_555
C15 C4 1_555 1_555
C16 C7 1_555 1_555
C11 C16 1_555 1_555
C13 C14 1_555 1_555
C14 C15 1_555 1_555
C15 C16 1_555 1_555

#END
