
#######################################################################
#
#                 Cambridge Crystallographic Data Centre
#                                CCDC 
#
#######################################################################
#
# If this CIF has been generated from an entry in the Cambridge 
# Structural Database, then it will include bibliographic, chemical, 
# crystal, experimental, refinement or atomic coordinate data resulting 
# from the CCDC's data processing and validation procedures.
#
#######################################################################

data_GUQQUG
_chemical_formula_moiety         'C16 H10,C6 Br2 F4'
_chemical_name_systematic        'pyrene 1,3-dibromo-2,4,5,6-tetrafluorobenzene'
_symmetry_cell_setting           monoclinic
_symmetry_space_group_name_H-M   'P 21/c'
_symmetry_Int_Tables_number      14
_space_group_name_Hall           '-P 2ybc'
loop_
_symmetry_equiv_pos_site_id
_symmetry_equiv_pos_as_xyz
1 x,y,z
2 -x,1/2+y,1/2-z
3 -x,-y,-z
4 x,1/2-y,1/2+z
_cell_length_a                   14.458(4)
_cell_length_b                   8.874(2)
_cell_length_c                   17.339(3)
_cell_angle_alpha                90
_cell_angle_beta                 126.716(15)
_cell_angle_gamma                90
_cell_volume                     1783.26
_cell_formula_units_Z            4
loop_
_atom_site_label
_atom_site_type_symbol
_atom_site_fract_x
_atom_site_fract_y
_atom_site_fract_z
Br1 Br 0.89381(7) 0.19448(9) 0.76798(5)
Br2 Br 0.76567(7) 0.80730(9) 0.67399(5)
C1 C 0.8113(6) 0.3630(8) 0.7639(5)
C2 C 0.8166(6) 0.4973(8) 0.7252(4)
C3 C 0.7569(6) 0.6247(8) 0.7228(5)
C4 C 0.6906(6) 0.6122(8) 0.7539(5)
C5 C 0.6849(6) 0.4765(8) 0.7928(5)
C6 C 0.7439(6) 0.3529(7) 0.7953(5)
F1 F 0.8801(4) 0.5088(4) 0.6937(3)
F2 F 0.6307(4) 0.7292(5) 0.7517(3)
F3 F 0.6178(4) 0.4651(5) 0.8216(3)
F4 F 0.7375(4) 0.2228(4) 0.8309(3)
C7 C 0.4021(6) 0.9874(8) 1.0825(5)
H1 H 0.3722 1.0075 1.1176
C8 C 0.3878(7) 0.8499(8) 1.0446(5)
H2 H 0.3477 0.7750 1.0531
C9 C 0.4321(6) 0.8134(8) 0.9911(5)
C10 C 0.4182(7) 0.6716(8) 0.9504(5)
H3 H 0.3783 0.5951 0.9581
C11 C 0.4606(7) 0.6409(8) 0.9000(5)
H4 H 0.4482 0.5440 0.8722
C12 C 0.5222(6) 0.7493(9) 0.8883(5)
H5 H 0.5525 0.7258 0.8540
C13 C 0.5380(6) 0.8946(8) 0.9288(5)
C14 C 0.4920(6) 0.9276(8) 0.9799(5)
C7B C 0.5979(6) 1.0126(8) 0.9175(5)
H1B H 0.6278 0.9925 0.8824
C8B C 0.6122(7) 1.1501(8) 0.9554(5)
H2B H 0.6523 1.2250 0.9469
C9B C 0.5679(6) 1.1866(8) 1.0089(5)
C10B C 0.5818(7) 1.3284(8) 1.0496(5)
H3B H 0.6217 1.4049 1.0419
C11B C 0.5394(7) 1.3591(8) 1.1000(5)
H4B H 0.5518 1.4560 1.1278
C12B C 0.4778(6) 1.2507(9) 1.1117(5)
H5B H 0.4475 1.2742 1.1460
C13B C 0.4620(6) 1.1054(8) 1.0712(5)
C14B C 0.5080(6) 1.0724(8) 1.0201(5)
C15 C 1.1378(6) 0.5263(8) 0.9553(5)
H6 H 1.1934 0.5112 0.9435
C16 C 1.0869(7) 0.6607(8) 0.9378(5)
H7 H 1.1074 0.7396 0.9137
C17 C 1.0034(6) 0.6895(8) 0.9540(5)
C18 C 0.9471(7) 0.8299(8) 0.9349(5)
H8 H 0.9652 0.9100 0.9096
C19 C 0.8670(7) 0.8530(8) 0.9519(5)
H9 H 0.8304 0.9485 0.9379
C20 C 0.8384(6) 0.7403(8) 0.9891(5)
H10 H 0.7842 0.7580 1.0021
C21 C 0.8918(6) 0.5973(8) 1.0074(5)
C22 C 0.9735(6) 0.5720(8) 0.9906(5)
C15B C 0.8622(6) 0.4737(8) 1.0447(5)
H6B H 0.8066 0.4888 1.0565
C16B C 0.9131(7) 0.3393(8) 1.0622(5)
H7B H 0.8926 0.2604 1.0863
C17B C 0.9966(6) 0.3105(8) 1.0460(5)
C18B C 1.0529(7) 0.1701(8) 1.0651(5)
H8B H 1.0348 0.0900 1.0904
C19B C 1.1330(7) 0.1470(8) 1.0481(5)
H9B H 1.1696 0.0515 1.0621
C20B C 1.1616(6) 0.2597(8) 1.0109(5)
H10B H 1.2158 0.2420 0.9979
C21B C 1.1082(6) 0.4027(8) 0.9926(5)
C22B C 1.0265(6) 0.4280(8) 1.0094(5)
loop_
_geom_bond_atom_site_label_1
_geom_bond_atom_site_label_2
_geom_bond_site_symmetry_1
_geom_bond_site_symmetry_2
Br1 C1 1_555 1_555
Br2 C3 1_555 1_555
C1 C2 1_555 1_555
C2 C3 1_555 1_555
C3 C4 1_555 1_555
C4 C5 1_555 1_555
C5 C6 1_555 1_555
C6 C1 1_555 1_555
F1 C2 1_555 1_555
F2 C4 1_555 1_555
F3 C5 1_555 1_555
F4 C6 1_555 1_555
C7 H1 1_555 1_555
C8 C7 1_555 1_555
H2 C8 1_555 1_555
C9 C8 1_555 1_555
C10 C9 1_555 1_555
H3 C10 1_555 1_555
C11 C10 1_555 1_555
H4 C11 1_555 1_555
C12 C11 1_555 1_555
H5 C12 1_555 1_555
C13 C12 1_555 1_555
C14 C9 1_555 1_555
C15 H6 1_555 1_555
C16 C15 1_555 1_555
H7 C16 1_555 1_555
C17 C16 1_555 1_555
C18 C17 1_555 1_555
H8 C18 1_555 1_555
C19 C18 1_555 1_555
H9 C19 1_555 1_555
C20 C19 1_555 1_555
H10 C20 1_555 1_555
C21 C20 1_555 1_555
C22 C17 1_555 1_555
C7B C13 1_555 1_555
H1B C7B 1_555 1_555
C8B C7B 1_555 1_555
H2B C8B 1_555 1_555
C9B C8B 1_555 1_555
C10B C9B 1_555 1_555
H3B C10B 1_555 1_555
C11B C10B 1_555 1_555
H4B C11B 1_555 1_555
C12B C11B 1_555 1_555
H5B C12B 1_555 1_555
C13B C7 1_555 1_555
C14B C14 1_555 1_555
C15B C21 1_555 1_555
H6B C15B 1_555 1_555
C16B C15B 1_555 1_555
H7B C16B 1_555 1_555
C17B C16B 1_555 1_555
C18B C17B 1_555 1_555
H8B C18B 1_555 1_555
C19B C18B 1_555 1_555
H9B C19B 1_555 1_555
C20B C19B 1_555 1_555
H10B C20B 1_555 1_555
C21B C15 1_555 1_555
C22B C22 1_555 1_555
C13 C14 1_555 1_555
C21 C22 1_555 1_555
C9B C14B 1_555 1_555
C12B C13B 1_555 1_555
C13B C14B 1_555 1_555
C17B C22B 1_555 1_555
C20B C21B 1_555 1_555
C21B C22B 1_555 1_555

#END
