
#######################################################################
#
#                 Cambridge Crystallographic Data Centre
#                                CCDC 
#
#######################################################################
#
# If this CIF has been generated from an entry in the Cambridge 
# Structural Database, then it will include bibliographic, chemical, 
# crystal, experimental, refinement or atomic coordinate data resulting 
# from the CCDC's data processing and validation procedures.
#
#######################################################################

data_GUQQOA
_chemical_formula_moiety         'C16 H10,C6 Br2 F4'
_chemical_name_systematic        'pyrene 1,2-dibromo-3,4,5,6-tetrafluorobenzene'
_symmetry_cell_setting           monoclinic
_symmetry_space_group_name_H-M   'P 21/c'
_symmetry_Int_Tables_number      14
_space_group_name_Hall           '-P 2ybc'
loop_
_symmetry_equiv_pos_site_id
_symmetry_equiv_pos_as_xyz
1 x,y,z
2 -x,1/2+y,1/2-z
3 -x,-y,-z
4 x,1/2-y,1/2+z
_cell_length_a                   11.9762(14)
_cell_length_b                   15.3782(17)
_cell_length_c                   9.7871(11)
_cell_angle_alpha                90
_cell_angle_beta                 99.867(2)
_cell_angle_gamma                90
_cell_volume                     1775.85
_exptl_crystal_colour            colorless
_exptl_crystal_description       prism
_cell_formula_units_Z            4
loop_
_atom_site_label
_atom_site_type_symbol
_atom_site_fract_x
_atom_site_fract_y
_atom_site_fract_z
Br1 Br 0.11113(2) 0.111365(17) 0.93884(3)
Br2 Br 0.21494(2) 0.206602(16) 0.67382(3)
C1 C 0.19647(19) 0.04990(15) 0.8277(2)
C2 C 0.2388(2) 0.08872(15) 0.7186(3)
C3 C 0.2999(2) 0.03941(16) 0.6388(2)
C4 C 0.3196(2) -0.04783(16) 0.6659(2)
C5 C 0.2783(2) -0.08630(15) 0.7741(3)
C6 C 0.2181(2) -0.03742(15) 0.8548(2)
F1 F 0.34036(13) 0.07500(10) 0.53190(15)
F2 F 0.37877(12) -0.09505(10) 0.58793(15)
F3 F 0.29660(12) -0.17100(9) 0.80145(16)
F4 F 0.17895(12) -0.07706(9) 0.95925(15)
C7 C 0.5643(2) -0.15093(16) 0.9377(3)
H1 H 0.5808 -0.2112 0.9334
C8 C 0.5940(2) -0.09638(16) 0.8411(3)
H2 H 0.6313 -0.1192 0.7707
C9 C 0.5703(2) -0.00483(15) 0.8428(2)
C10 C 0.5992(2) 0.05227(17) 0.7425(3)
H3 H 0.6354 0.0305 0.6704
C11 C 0.5752(2) 0.14011(17) 0.7479(3)
H4 H 0.5950 0.1780 0.6791
C12 C 0.5230(2) 0.17362(16) 0.8520(3)
H5 H 0.5082 0.2342 0.8545
C13 C 0.4917(2) 0.11927(15) 0.9537(3)
C14 C 0.51580(19) 0.02839(14) 0.9492(2)
C7B C 0.4357(2) 0.15093(16) 1.0623(3)
H1B H 0.4192 0.2112 1.0666
C8B C 0.4060(2) 0.09638(16) 1.1589(3)
H2B H 0.3687 0.1192 1.2293
C9B C 0.4297(2) 0.00483(15) 1.1572(2)
C10B C 0.4008(2) -0.05227(17) 1.2575(3)
H3B H 0.3646 -0.0305 1.3296
C11B C 0.4248(2) -0.14011(17) 1.2521(3)
H4B H 0.4050 -0.1780 1.3209
C12B C 0.4770(2) -0.17362(16) 1.1480(3)
H5B H 0.4918 -0.2342 1.1455
C13B C 0.5083(2) -0.11927(15) 1.0463(3)
C14B C 0.48420(19) -0.02839(14) 1.0508(2)
C15 C 1.1020(2) 0.00958(17) 0.2917(3)
H6 H 1.1443 -0.0009 0.2196
C16 C 1.0548(2) 0.08817(17) 0.3020(3)
H7 H 1.0653 0.1322 0.2372
C17 C 0.9892(2) 0.10758(15) 0.4078(3)
C18 C 0.9376(2) 0.18885(16) 0.4188(3)
H8 H 0.9460 0.2335 0.3543
C19 C 0.8749(2) 0.20452(17) 0.5222(3)
H9 H 0.8403 0.2597 0.5275
C20 C 0.8617(2) 0.14108(17) 0.6181(3)
H10 H 0.8189 0.1534 0.6890
C21 C 0.91051(19) 0.05874(15) 0.6119(3)
C22 C 0.97477(18) 0.04173(14) 0.5048(2)
C15B C 0.8980(2) -0.00958(17) 0.7083(3)
H6B H 0.8557 0.0009 0.7804
C16B C 0.9452(2) -0.08817(17) 0.6980(3)
H7B H 0.9347 -0.1322 0.7628
C17B C 1.0108(2) -0.10758(15) 0.5922(3)
C18B C 1.0624(2) -0.18885(16) 0.5812(3)
H8B H 1.0540 -0.2335 0.6457
C19B C 1.1251(2) -0.20452(17) 0.4778(3)
H9B H 1.1597 -0.2597 0.4725
C20B C 1.1383(2) -0.14108(17) 0.3819(3)
H10B H 1.1811 -0.1534 0.3110
C21B C 1.08949(19) -0.05874(15) 0.3881(3)
C22B C 1.02523(18) -0.04173(14) 0.4952(2)
loop_
_geom_bond_atom_site_label_1
_geom_bond_atom_site_label_2
_geom_bond_site_symmetry_1
_geom_bond_site_symmetry_2
Br1 C1 1_555 1_555
Br2 C2 1_555 1_555
C1 C2 1_555 1_555
C2 C3 1_555 1_555
C3 C4 1_555 1_555
C4 C5 1_555 1_555
C5 C6 1_555 1_555
C6 C1 1_555 1_555
F1 C3 1_555 1_555
F2 C4 1_555 1_555
F3 C5 1_555 1_555
F4 C6 1_555 1_555
C7 H1 1_555 1_555
C8 C7 1_555 1_555
H2 C8 1_555 1_555
C9 C8 1_555 1_555
C10 C9 1_555 1_555
H3 C10 1_555 1_555
C11 C10 1_555 1_555
H4 C11 1_555 1_555
C12 C11 1_555 1_555
H5 C12 1_555 1_555
C13 C12 1_555 1_555
C14 C9 1_555 1_555
C15 H6 1_555 1_555
C16 C15 1_555 1_555
H7 C16 1_555 1_555
C17 C16 1_555 1_555
C18 C17 1_555 1_555
H8 C18 1_555 1_555
C19 C18 1_555 1_555
H9 C19 1_555 1_555
C20 C19 1_555 1_555
H10 C20 1_555 1_555
C21 C20 1_555 1_555
C22 C17 1_555 1_555
C7B C13 1_555 1_555
H1B C7B 1_555 1_555
C8B C7B 1_555 1_555
H2B C8B 1_555 1_555
C9B C8B 1_555 1_555
C10B C9B 1_555 1_555
H3B C10B 1_555 1_555
C11B C10B 1_555 1_555
H4B C11B 1_555 1_555
C12B C11B 1_555 1_555
H5B C12B 1_555 1_555
C13B C7 1_555 1_555
C14B C14 1_555 1_555
C15B C21 1_555 1_555
H6B C15B 1_555 1_555
C16B C15B 1_555 1_555
H7B C16B 1_555 1_555
C17B C16B 1_555 1_555
C18B C17B 1_555 1_555
H8B C18B 1_555 1_555
C19B C18B 1_555 1_555
H9B C19B 1_555 1_555
C20B C19B 1_555 1_555
H10B C20B 1_555 1_555
C21B C15 1_555 1_555
C22B C22 1_555 1_555
C13 C14 1_555 1_555
C21 C22 1_555 1_555
C9B C14B 1_555 1_555
C12B C13B 1_555 1_555
C13B C14B 1_555 1_555
C17B C22B 1_555 1_555
C20B C21B 1_555 1_555
C21B C22B 1_555 1_555

#END
