
#######################################################################
#
#                 Cambridge Crystallographic Data Centre
#                                CCDC 
#
#######################################################################
#
# If this CIF has been generated from an entry in the Cambridge 
# Structural Database, then it will include bibliographic, chemical, 
# crystal, experimental, refinement or atomic coordinate data resulting 
# from the CCDC's data processing and validation procedures.
#
#######################################################################

data_GUQQAM
_chemical_formula_moiety         'C16 H10,C6 Cl1 F5'
_chemical_name_systematic        'pyrene 1-chloro-2,3,4,5,6-pentafluorobenzene'
_symmetry_cell_setting           monoclinic
_symmetry_space_group_name_H-M   'P 21/c'
_symmetry_Int_Tables_number      14
_space_group_name_Hall           '-P 2ybc'
loop_
_symmetry_equiv_pos_site_id
_symmetry_equiv_pos_as_xyz
1 x,y,z
2 -x,1/2+y,1/2-z
3 -x,-y,-z
4 x,1/2-y,1/2+z
_cell_length_a                   9.1973(12)
_cell_length_b                   13.6331(18)
_cell_length_c                   14.3279(15)
_cell_angle_alpha                90
_cell_angle_beta                 112.020(6)
_cell_angle_gamma                90
_cell_volume                     1665.49
_cell_formula_units_Z            4
loop_
_atom_site_label
_atom_site_type_symbol
_atom_site_fract_x
_atom_site_fract_y
_atom_site_fract_z
C1 C 0.4005(2) 0.66084(13) 1.04468(13)
H1 H 0.3506 0.7105 1.0684
C2 C 0.4986(2) 0.68696(12) 0.99912(13)
H2 H 0.5157 0.7546 0.9911
C3 C 0.5781(2) 0.61515(13) 0.96235(12)
C4 C 0.6800(2) 0.64052(14) 0.91403(13)
H3 H 0.6961 0.7077 0.9031
C5 C 0.7575(2) 0.56872(15) 0.88194(13)
H4 H 0.8274 0.5872 0.8503
C6 C 0.7338(2) 0.47039(15) 0.89563(14)
H5 H 0.7883 0.4222 0.8735
C7 C 0.6307(2) 0.44082(13) 0.94162(12)
C8 C 0.5522(2) 0.51420(12) 0.97605(12)
C1B C 0.5995(2) 0.33916(13) 0.95532(13)
H1B H 0.6494 0.2895 0.9316
C2B C 0.5014(2) 0.31304(12) 1.00088(13)
H2B H 0.4843 0.2454 1.0089
C3B C 0.4219(2) 0.38485(13) 1.03765(12)
C4B C 0.3200(2) 0.35948(14) 1.08597(13)
H3B H 0.3039 0.2923 1.0969
C5B C 0.2425(2) 0.43128(15) 1.11806(13)
H4B H 0.1726 0.4128 1.1497
C6B C 0.2662(2) 0.52961(15) 1.10437(14)
H5B H 0.2117 0.5778 1.1265
C7B C 0.3693(2) 0.55918(13) 1.05838(12)
C8B C 0.4478(2) 0.48580(12) 1.02395(12)
C9 C 1.1212(2) 0.85518(13) -0.05714(13)
H6 H 1.1763 0.8134 -0.0856
C10 C 1.0344(2) 0.81518(12) -0.00982(13)
H7 H 1.0302 0.7458 -0.0050
C11 C 0.9475(2) 0.87505(13) 0.03383(12)
C12 C 0.8575(2) 0.83514(13) 0.08499(13)
H8 H 0.8544 0.7661 0.0929
C13 C 0.7729(2) 0.89576(14) 0.12417(13)
H9 H 0.7118 0.8676 0.1580
C14 C 0.7765(2) 0.99657(14) 0.11463(14)
H10 H 0.7170 1.0367 0.1414
C15 C 0.8669(2) 1.04033(13) 0.06588(12)
C16 C 0.9536(2) 0.97859(12) 0.02492(12)
C9B C 0.8788(2) 1.14482(13) 0.05714(13)
H6B H 0.8237 1.1866 0.0856
C10B C 0.9656(2) 1.18482(12) 0.00982(13)
H7B H 0.9698 1.2542 0.0050
C11B C 1.0525(2) 1.12495(13) -0.03383(12)
C12B C 1.1425(2) 1.16486(13) -0.08499(13)
H8B H 1.1456 1.2339 -0.0929
C13B C 1.2271(2) 1.10424(14) -0.12417(13)
H9B H 1.2882 1.1324 -0.1580
C14B C 1.2235(2) 1.00343(14) -0.11463(14)
H10B H 1.2830 0.9633 -0.1414
C15B C 1.1331(2) 0.95967(13) -0.06588(12)
C16B C 1.0464(2) 1.02141(12) -0.02492(12)
Cl1 Cl 0.72576(6) 0.23847(3) 0.75241(3)
F1 F 0.90993(13) 0.12063(9) 0.66520(8)
F2 F 0.92935(14) -0.07744(9) 0.66530(8)
F3 F 0.76205(14) -0.18667(9) 0.74913(8)
F4 F 0.57673(13) -0.09802(8) 0.83623(8)
F5 F 0.56403(13) 0.10136(9) 0.83824(8)
C17 C 0.7365(2) 0.11464(14) 0.75151(12)
C18 C 0.8289(2) 0.06781(14) 0.70786(13)
C19 C 0.8378(2) -0.03292(15) 0.70741(13)
C20 C 0.7536(2) -0.08857(14) 0.74993(12)
C21 C 0.6608(2) -0.04309(15) 0.79394(14)
C22 C 0.6532(2) 0.05793(14) 0.79494(13)
loop_
_geom_bond_atom_site_label_1
_geom_bond_atom_site_label_2
_geom_bond_site_symmetry_1
_geom_bond_site_symmetry_2
C1 H1 1_555 1_555
C2 C1 1_555 1_555
H2 C2 1_555 1_555
C3 C2 1_555 1_555
C4 C3 1_555 1_555
H3 C4 1_555 1_555
C5 C4 1_555 1_555
H4 C5 1_555 1_555
C6 C5 1_555 1_555
H5 C6 1_555 1_555
C7 C6 1_555 1_555
C8 C3 1_555 1_555
C9 H6 1_555 1_555
C10 C9 1_555 1_555
H7 C10 1_555 1_555
C11 C10 1_555 1_555
C12 C11 1_555 1_555
H8 C12 1_555 1_555
C13 C12 1_555 1_555
H9 C13 1_555 1_555
C14 C13 1_555 1_555
H10 C14 1_555 1_555
C15 C14 1_555 1_555
C16 C11 1_555 1_555
Cl1 C17 1_555 1_555
F1 C18 1_555 1_555
F2 C19 1_555 1_555
F3 C20 1_555 1_555
F4 C21 1_555 1_555
F5 C22 1_555 1_555
C17 C18 1_555 1_555
C18 C19 1_555 1_555
C19 C20 1_555 1_555
C20 C21 1_555 1_555
C21 C22 1_555 1_555
C22 C17 1_555 1_555
C1B C7 1_555 1_555
H1B C1B 1_555 1_555
C2B C1B 1_555 1_555
H2B C2B 1_555 1_555
C3B C2B 1_555 1_555
C4B C3B 1_555 1_555
H3B C4B 1_555 1_555
C5B C4B 1_555 1_555
H4B C5B 1_555 1_555
C6B C5B 1_555 1_555
H5B C6B 1_555 1_555
C7B C1 1_555 1_555
C8B C8 1_555 1_555
C9B C15 1_555 1_555
H6B C9B 1_555 1_555
C10B C9B 1_555 1_555
H7B C10B 1_555 1_555
C11B C10B 1_555 1_555
C12B C11B 1_555 1_555
H8B C12B 1_555 1_555
C13B C12B 1_555 1_555
H9B C13B 1_555 1_555
C14B C13B 1_555 1_555
H10B C14B 1_555 1_555
C15B C9 1_555 1_555
C16B C16 1_555 1_555
C7 C8 1_555 1_555
C15 C16 1_555 1_555
C3B C8B 1_555 1_555
C6B C7B 1_555 1_555
C7B C8B 1_555 1_555
C11B C16B 1_555 1_555
C14B C15B 1_555 1_555
C15B C16B 1_555 1_555

#END
