
#######################################################################
#
#                 Cambridge Crystallographic Data Centre
#                                CCDC 
#
#######################################################################
#
# If this CIF has been generated from an entry in the Cambridge 
# Structural Database, then it will include bibliographic, chemical, 
# crystal, experimental, refinement or atomic coordinate data resulting 
# from the CCDC's data processing and validation procedures.
#
#######################################################################

data_GUQREQ
_chemical_formula_moiety         'C28 H34 N4 O1,0.5(C2 H6 O1)'
_chemical_name_systematic        
'4,6-bis(2-(4-(diethylamino)phenyl)vinyl)pyrimidin-2-ol ethanol solvate'
_symmetry_cell_setting           monoclinic
_symmetry_space_group_name_H-M   'P 21/c'
_symmetry_Int_Tables_number      14
_space_group_name_Hall           '-P 2ybc'
loop_
_symmetry_equiv_pos_site_id
_symmetry_equiv_pos_as_xyz
1 x,y,z
2 -x,1/2+y,1/2-z
3 -x,-y,-z
4 x,1/2-y,1/2+z
_cell_length_a                   11.2690(14)
_cell_length_b                   12.2153(15)
_cell_length_c                   37.978(4)
_cell_angle_alpha                90
_cell_angle_beta                 92.248(2)
_cell_angle_gamma                90
_cell_volume                     5223.81
_exptl_crystal_colour            red
_exptl_crystal_description       block
_cell_formula_units_Z            8
loop_
_atom_site_label
_atom_site_type_symbol
_atom_site_fract_x
_atom_site_fract_y
_atom_site_fract_z
C1 C 1.2474(3) 0.6666(3) 0.31075(10)
C2 C 1.1429(3) 0.7776(3) 0.34765(10)
C3 C 1.1354(3) 0.8431(3) 0.37944(10)
H1 H 1.0665 0.8840 0.3817
C4 C 1.2177(4) 0.8506(3) 0.40577(10)
H2 H 1.2864 0.8091 0.4039
C5 C 1.2086(4) 0.9183(3) 0.43721(11)
C6 C 1.2870(4) 0.9083(3) 0.46591(11)
H3 H 1.3480 0.8571 0.4651
C7 C 1.2777(4) 0.9716(3) 0.49569(11)
H4 H 1.3329 0.9622 0.5143
C8 C 1.1880(4) 1.0494(4) 0.49884(12)
C9 C 1.1095(5) 1.0598(5) 0.46925(14)
H5 H 1.0487 1.1112 0.4696
C10 C 1.1208(4) 0.9955(4) 0.43998(13)
H6 H 1.0665 1.0046 0.4211
C11 C 1.2608(5) 1.1010(4) 0.55836(13)
H7 H 1.2789 1.0242 0.5622
H8 H 1.2249 1.1284 0.5794
C12 C 1.3751(4) 1.1619(4) 0.55334(12)
H9 H 1.4143 1.1320 0.5335
H10 H 1.4257 1.1547 0.5741
H11 H 1.3581 1.2379 0.5492
C13 C 1.0805(5) 1.1960(6) 0.53051(16)
H12 H 1.0657 1.2109 0.5550
H13 H 1.0077 1.1673 0.5196
C14 C 1.1106(6) 1.3021(6) 0.51266(19)
H14 H 1.1827 1.3313 0.5232
H15 H 1.0472 1.3536 0.5154
H16 H 1.1211 1.2891 0.4881
C15 C 1.0410(3) 0.7702(3) 0.32577(10)
H17 H 0.9731 0.8093 0.3311
C16 C 1.0414(3) 0.7050(3) 0.29635(10)
C17 C 0.9369(3) 0.6930(3) 0.27392(10)
H18 H 0.8729 0.7373 0.2793
C18 C 0.9195(3) 0.6259(3) 0.24622(10)
H19 H 0.9823 0.5811 0.2403
C19 C 0.8105(3) 0.6179(3) 0.22481(10)
C20 C 0.7972(3) 0.5394(3) 0.19823(10)
H20 H 0.8597 0.4919 0.1942
C21 C 0.6941(3) 0.5306(3) 0.17782(10)
H21 H 0.6891 0.4778 0.1602
C22 C 0.5969(3) 0.5983(3) 0.18283(10)
C23 C 0.6094(3) 0.6767(3) 0.20990(10)
H22 H 0.5464 0.7233 0.2143
C24 C 0.7131(3) 0.6855(3) 0.22993(11)
H23 H 0.7185 0.7385 0.2475
C25 C 0.4855(4) 0.5163(3) 0.13261(10)
H24 H 0.4027 0.4988 0.1275
H25 H 0.5263 0.4486 0.1387
C26 C 0.5378(4) 0.5629(4) 0.09990(11)
H26 H 0.4932 0.6262 0.0923
H27 H 0.5347 0.5088 0.0816
H28 H 0.6190 0.5834 0.1050
C27 C 0.3983(3) 0.6695(3) 0.16584(11)
H29 H 0.3863 0.6831 0.1906
H30 H 0.3255 0.6381 0.1558
C28 C 0.4203(4) 0.7777(4) 0.14791(12)
H31 H 0.4891 0.8121 0.1588
H32 H 0.3525 0.8243 0.1502
H33 H 0.4334 0.7653 0.1234
N1 N 1.2447(3) 0.7268(3) 0.34075(8)
N2 N 1.1454(3) 0.6526(2) 0.28917(8)
N3 N 1.1748(4) 1.1104(3) 0.52890(11)
N4 N 0.4932(3) 0.5896(3) 0.16300(8)
O1 O 1.3410(2) 0.6219(2) 0.30158(8)
H34 H 1.3246 0.5685 0.2892
C29 C 0.7305(4) 0.9750(3) 0.27763(10)
C30 C 0.6358(3) 0.8421(3) 0.31004(9)
C31 C 0.6470(4) 0.7669(3) 0.33956(10)
H35 H 0.7221 0.7594 0.3503
C32 C 0.5610(4) 0.7083(3) 0.35249(10)
H36 H 0.4864 0.7173 0.3415
C33 C 0.5674(4) 0.6305(3) 0.38209(10)
C34 C 0.6739(4) 0.5982(3) 0.39879(11)
H37 H 0.7446 0.6291 0.3917
C35 C 0.6777(4) 0.5214(4) 0.42561(11)
H38 H 0.7506 0.5006 0.4358
C36 C 0.5743(4) 0.4750(3) 0.43746(11)
C37 C 0.4671(4) 0.5099(3) 0.42139(11)
H39 H 0.3960 0.4819 0.4292
C38 C 0.4642(4) 0.5849(3) 0.39419(11)
H40 H 0.3915 0.6052 0.3838
C39 C 0.6896(7) 0.3305(6) 0.47072(18)
H41 H 0.6695 0.2545 0.4748
H42 H 0.7398 0.3346 0.4506
C40 C 0.7477(7) 0.3760(5) 0.5009(2)
H43 H 0.7658 0.4515 0.4965
H44 H 0.8200 0.3366 0.5061
H45 H 0.6970 0.3709 0.5205
C41 C 0.4695(4) 0.3626(4) 0.48085(12)
H46 H 0.4136 0.4230 0.4811
H47 H 0.4892 0.3431 0.5051
C42 C 0.4106(5) 0.2669(4) 0.46293(13)
H48 H 0.3908 0.2853 0.4388
H49 H 0.3396 0.2485 0.4747
H50 H 0.4637 0.2054 0.4637
C43 C 0.5334(3) 0.8490(3) 0.28783(10)
H51 H 0.4680 0.8050 0.2919
C44 C 0.5307(3) 0.9213(3) 0.25999(10)
C45 C 0.4334(3) 0.9409(3) 0.23446(10)
H52 H 0.4457 0.9911 0.2166
C46 C 0.3274(3) 0.8916(3) 0.23496(10)
H53 H 0.3182 0.8398 0.2526
C47 C 0.2251(3) 0.9094(3) 0.21126(10)
C48 C 0.2205(4) 0.9843(3) 0.18381(10)
H54 H 0.2873 1.0267 0.1799
C49 C 0.1220(4) 0.9983(3) 0.16230(11)
H55 H 0.1250 1.0475 0.1437
C50 C 0.0158(4) 0.9405(3) 0.16739(10)
C51 C 0.0198(4) 0.8656(4) 0.19526(11)
H56 H -0.0476 0.8249 0.1999
C52 C 0.1207(4) 0.8510(3) 0.21587(11)
H57 H 0.1196 0.7994 0.2339
C53 C -0.0829(4) 1.0249(3) 0.11485(11)
H58 H -0.0370 1.0905 0.1200
H59 H -0.1634 1.0474 0.1084
C54 C -0.0310(5) 0.9677(4) 0.08379(12)
H60 H 0.0474 0.9421 0.0902
H61 H -0.0270 1.0180 0.0645
H62 H -0.0803 0.9067 0.0769
C55 C -0.1978(4) 0.9026(4) 0.15391(12)
H63 H -0.2635 0.9486 0.1458
H64 H -0.2033 0.8936 0.1792
C56 C -0.2100(4) 0.7925(4) 0.13658(14)
H65 H -0.2031 0.8004 0.1116
H66 H -0.2862 0.7619 0.1413
H67 H -0.1486 0.7447 0.1457
N5 N 0.7315(3) 0.9050(2) 0.30532(8)
N6 N 0.6310(3) 0.9830(2) 0.25517(8)
N7 N 0.5771(4) 0.3992(3) 0.46436(10)
N8 N -0.0855(3) 0.9583(3) 0.14672(9)
O2 O 0.8177(2) 1.0348(2) 0.27242(7)
H68 H 0.8184 1.0509 0.2515
C57 C 0.9185(4) 0.0911(4) 0.35923(13)
H69 H 0.8884 0.1208 0.3369
H70 H 1.0037 0.0819 0.3579
C58 C 0.8920(5) 0.1698(4) 0.38881(14)
H71 H 0.8076 0.1780 0.3903
H72 H 0.9270 0.2397 0.3842
H73 H 0.9245 0.1415 0.4107
O3 O 0.8648(3) -0.0113(3) 0.36536(8)
H74 H 0.8792 -0.0534 0.3493
loop_
_geom_bond_atom_site_label_1
_geom_bond_atom_site_label_2
_geom_bond_site_symmetry_1
_geom_bond_site_symmetry_2
C1 N1 1_555 1_555
C2 C3 1_555 1_555
C3 H1 1_555 1_555
C4 C3 1_555 1_555
H2 C4 1_555 1_555
C5 C4 1_555 1_555
C6 C5 1_555 1_555
H3 C6 1_555 1_555
C7 C6 1_555 1_555
H4 C7 1_555 1_555
C8 C7 1_555 1_555
C9 C8 1_555 1_555
H5 C9 1_555 1_555
C10 C5 1_555 1_555
H6 C10 1_555 1_555
C11 H7 1_555 1_555
H8 C11 1_555 1_555
C12 C11 1_555 1_555
H9 C12 1_555 1_555
H10 C12 1_555 1_555
H11 C12 1_555 1_555
C13 H12 1_555 1_555
H13 C13 1_555 1_555
C14 C13 1_555 1_555
H14 C14 1_555 1_555
H15 C14 1_555 1_555
H16 C14 1_555 1_555
C15 C2 1_555 1_555
H17 C15 1_555 1_555
C16 C15 1_555 1_555
C17 C16 1_555 1_555
H18 C17 1_555 1_555
C18 C17 1_555 1_555
H19 C18 1_555 1_555
C19 C18 1_555 1_555
C20 C19 1_555 1_555
H20 C20 1_555 1_555
C21 C20 1_555 1_555
H21 C21 1_555 1_555
C22 C21 1_555 1_555
C23 C22 1_555 1_555
H22 C23 1_555 1_555
C24 C19 1_555 1_555
H23 C24 1_555 1_555
C25 H24 1_555 1_555
H25 C25 1_555 1_555
C26 C25 1_555 1_555
H26 C26 1_555 1_555
H27 C26 1_555 1_555
H28 C26 1_555 1_555
C27 H29 1_555 1_555
H30 C27 1_555 1_555
C28 C27 1_555 1_555
H31 C28 1_555 1_555
H32 C28 1_555 1_555
H33 C28 1_555 1_555
N1 C2 1_555 1_555
N2 C1 1_555 1_555
N3 C8 1_555 1_555
N4 C22 1_555 1_555
O1 C1 1_555 1_555
H34 O1 1_555 1_555
C29 N5 1_555 1_555
C30 C31 1_555 1_555
C31 H35 1_555 1_555
C32 C31 1_555 1_555
H36 C32 1_555 1_555
C33 C32 1_555 1_555
C34 C33 1_555 1_555
H37 C34 1_555 1_555
C35 C34 1_555 1_555
H38 C35 1_555 1_555
C36 C35 1_555 1_555
C37 C36 1_555 1_555
H39 C37 1_555 1_555
C38 C33 1_555 1_555
H40 C38 1_555 1_555
C39 H41 1_555 1_555
H42 C39 1_555 1_555
C40 C39 1_555 1_555
H43 C40 1_555 1_555
H44 C40 1_555 1_555
H45 C40 1_555 1_555
C41 H46 1_555 1_555
H47 C41 1_555 1_555
C42 C41 1_555 1_555
H48 C42 1_555 1_555
H49 C42 1_555 1_555
H50 C42 1_555 1_555
C43 C30 1_555 1_555
H51 C43 1_555 1_555
C44 C43 1_555 1_555
C45 C44 1_555 1_555
H52 C45 1_555 1_555
C46 C45 1_555 1_555
H53 C46 1_555 1_555
C47 C46 1_555 1_555
C48 C47 1_555 1_555
H54 C48 1_555 1_555
C49 C48 1_555 1_555
H55 C49 1_555 1_555
C50 C49 1_555 1_555
C51 C50 1_555 1_555
H56 C51 1_555 1_555
C52 C47 1_555 1_555
H57 C52 1_555 1_555
C53 H58 1_555 1_555
H59 C53 1_555 1_555
C54 C53 1_555 1_555
H60 C54 1_555 1_555
H61 C54 1_555 1_555
H62 C54 1_555 1_555
C55 H63 1_555 1_555
H64 C55 1_555 1_555
C56 C55 1_555 1_555
H65 C56 1_555 1_555
H66 C56 1_555 1_555
H67 C56 1_555 1_555
N5 C30 1_555 1_555
N6 C29 1_555 1_555
N7 C36 1_555 1_555
N8 C50 1_555 1_555
O2 C29 1_555 1_555
H68 O2 1_555 1_555
C57 H69 1_555 1_555
H70 C57 1_555 1_555
C58 C57 1_555 1_555
H71 C58 1_555 1_555
H72 C58 1_555 1_555
H73 C58 1_555 1_555
O3 C57 1_555 1_555
H74 O3 1_555 1_555
C9 C10 1_555 1_555
C11 N3 1_555 1_555
C13 N3 1_555 1_555
C16 N2 1_555 1_555
C23 C24 1_555 1_555
C25 N4 1_555 1_555
C27 N4 1_555 1_555
C37 C38 1_555 1_555
C39 N7 1_555 1_555
C41 N7 1_555 1_555
C44 N6 1_555 1_555
C51 C52 1_555 1_555
C53 N8 1_555 1_555
C55 N8 1_555 1_555

#END
