
#######################################################################
#
#                 Cambridge Crystallographic Data Centre
#                                CCDC 
#
#######################################################################
#
# If this CIF has been generated from an entry in the Cambridge 
# Structural Database, then it will include bibliographic, chemical, 
# crystal, experimental, refinement or atomic coordinate data resulting 
# from the CCDC's data processing and validation procedures.
#
#######################################################################

data_GUQZID
_chemical_formula_moiety         'C14 H10 N2 O1'
_chemical_name_systematic        
15-nitroso-15-azatetracyclo[6.6.1.0^2,7^.0^9,14^]pentadeca-2,4,6,9,11,13-hexaene
_symmetry_cell_setting           orthorhombic
_symmetry_space_group_name_H-M   'P n m a'
_symmetry_Int_Tables_number      62
_space_group_name_Hall           '-P 2ac 2n'
loop_
_symmetry_equiv_pos_site_id
_symmetry_equiv_pos_as_xyz
1 x,y,z
2 1/2-x,-y,1/2+z
3 -x,1/2+y,-z
4 1/2+x,1/2-y,1/2-z
5 -x,-y,-z
6 1/2+x,y,1/2-z
7 x,1/2-y,z
8 1/2-x,1/2+y,1/2+z
_cell_length_a                   11.1855(7)
_cell_length_b                   15.8829(10)
_cell_length_c                   6.0465(4)
_cell_angle_alpha                90
_cell_angle_beta                 90
_cell_angle_gamma                90
_cell_volume                     1074.21
_exptl_crystal_colour            yellow
_exptl_crystal_description       Bar
_cell_formula_units_Z            4
loop_
_atom_site_label
_atom_site_type_symbol
_atom_site_fract_x
_atom_site_fract_y
_atom_site_fract_z
C1 C 0.14944(16) 0.7500 0.2309(4)
H1 H 0.0749 0.7500 0.1458
C2 C 0.23100(11) 0.67350(7) 0.2083(2)
C3 C 0.24268(13) 0.61386(8) 0.0469(3)
H2 H 0.1928 0.6137 -0.0762
C4 C 0.33143(15) 0.55358(9) 0.0725(3)
H3 H 0.3407 0.5119 -0.0342
C5 C 0.40560(14) 0.55466(9) 0.2531(3)
H4 H 0.4652 0.5141 0.2655
C6 C 0.39365(13) 0.61483(9) 0.4173(3)
H5 H 0.4439 0.6152 0.5398
C7 C 0.30500(12) 0.67389(8) 0.3931(2)
C8 C 0.26968(18) 0.7500 0.5301(4)
H6 H 0.2913 0.7500 0.6871
N1 N 0.13993(16) 0.7500 0.4730(3)
N2 N 0.0387(7) 0.7500 0.5624(9)
O1 O 0.0467(6) 0.7500 0.7657(11)
C2F C 0.23100(11) 0.82650(7) 0.2083(2)
C3F C 0.24268(13) 0.88614(8) 0.0469(3)
H2F H 0.1928 0.8863 -0.0762
C4F C 0.33143(15) 0.94642(9) 0.0725(3)
H3F H 0.3407 0.9881 -0.0342
C5F C 0.40560(14) 0.94534(9) 0.2531(3)
H4F H 0.4652 0.9859 0.2655
C6F C 0.39365(13) 0.88517(9) 0.4173(3)
H5F H 0.4439 0.8848 0.5398
C7F C 0.30500(12) 0.82611(8) 0.3931(2)
N3? N 0.0763(10) 0.7500 0.668(3)
O2? O -0.0251(12) 0.7500 0.5823(13)
loop_
_geom_bond_atom_site_label_1
_geom_bond_atom_site_label_2
_geom_bond_site_symmetry_1
_geom_bond_site_symmetry_2
C1 H1 1_555 1_555
C2 C1 1_555 1_555
C3 C2 1_555 1_555
H2 C3 1_555 1_555
C4 C3 1_555 1_555
H3 C4 1_555 1_555
C5 C4 1_555 1_555
H4 C5 1_555 1_555
C6 C5 1_555 1_555
H5 C6 1_555 1_555
C7 C2 1_555 1_555
C8 C7 1_555 1_555
H6 C8 1_555 1_555
N1 C1 1_555 1_555
N2 N1 1_555 1_555
O1 N2 1_555 1_555
C2F C1 1_555 1_555
C3F C2F 1_555 1_555
H2F C3F 1_555 1_555
C4F C3F 1_555 1_555
H3F C4F 1_555 1_555
C5F C4F 1_555 1_555
H4F C5F 1_555 1_555
C6F C5F 1_555 1_555
H5F C6F 1_555 1_555
C7F C8 1_555 1_555
C6 C7 1_555 1_555
C8 N1 1_555 1_555
C2F C7F 1_555 1_555
C6F C7F 1_555 1_555

#END
