
#######################################################################
#
#                 Cambridge Crystallographic Data Centre
#                                CCDC 
#
#######################################################################
#
# If this CIF has been generated from an entry in the Cambridge 
# Structural Database, then it will include bibliographic, chemical, 
# crystal, experimental, refinement or atomic coordinate data resulting 
# from the CCDC's data processing and validation procedures.
#
#######################################################################

data_GURCAY
_chemical_formula_moiety         'C17 H17 N3 O1 S1'
_chemical_name_systematic        
5-((4-Methylphenoxy)methyl)-4-(4-methylphenyl)-2,4-dihydro-3H-1,2,4-triazole-3-thione
_symmetry_cell_setting           triclinic
_symmetry_space_group_name_H-M   'P -1'
_symmetry_Int_Tables_number      2
_space_group_name_Hall           '-P 1'
loop_
_symmetry_equiv_pos_site_id
_symmetry_equiv_pos_as_xyz
1 x,y,z
2 -x,-y,-z
_cell_length_a                   7.4017(15)
_cell_length_b                   7.4516(15)
_cell_length_c                   16.587(3)
_cell_angle_alpha                77.08(3)
_cell_angle_beta                 88.40(3)
_cell_angle_gamma                62.17(3)
_cell_volume                     785.443
_exptl_crystal_colour            colorless
_exptl_crystal_description       block
_cell_formula_units_Z            2
loop_
_atom_site_label
_atom_site_type_symbol
_atom_site_fract_x
_atom_site_fract_y
_atom_site_fract_z
C1 C -0.4429(5) 0.7222(4) 0.03166(16)
S1 S 0.31756(7) -0.07163(6) 0.42499(3)
O1 O 0.02489(19) 0.72182(18) 0.25959(7)
N1 N 0.1728(2) 0.3336(2) 0.37174(8)
N2 N -0.0553(2) 0.2817(2) 0.46006(8)
N3 N -0.1558(2) 0.4906(2) 0.43902(8)
C2 C -0.0967(3) 0.7172(2) 0.20918(10)
C3 C 0.1428(3) 0.1810(2) 0.41995(9)
C4 C 0.3690(3) 0.3003(2) 0.32034(9)
C5 C 0.4042(3) 0.2661(3) 0.23780(10)
C6 C -0.2908(3) 0.7250(2) 0.23610(11)
H1 H -0.3287 0.7281 0.2899
C7 C 0.7560(3) 0.2195(2) 0.22314(11)
C8 C -0.0431(3) 0.7216(3) 0.34677(10)
H2 H 0.0364 0.7596 0.3784
H3 H -0.1867 0.8229 0.3444
C9 C 0.5236(3) 0.2953(3) 0.35546(11)
H4 H 0.5213 0.3152 0.4089
C10 C -0.0133(3) 0.5171(2) 0.38608(9)
C11 C 0.7157(3) 0.2550(3) 0.30608(12)
C12 C -0.4011(3) 0.7272(3) 0.17825(12)
H5 H -0.5276 0.7322 0.1878
C13 C 0.5971(3) 0.2265(3) 0.18989(10)
H6 H 0.5979 0.2074 0.1363
C14 C -0.0130(3) 0.7083(3) 0.12561(11)
H7 H 0.1144 0.7009 0.1162
C15 C -0.1263(3) 0.7114(3) 0.06884(11)
H8 H -0.0882 0.7075 0.0151
C16 C -0.3224(3) 0.7215(3) 0.09407(12)
C17 C 0.9668(3) 0.1745(3) 0.17188(13)
H9 H 0.9611 0.1197 0.1254
H10 H 1.0868 0.0752 0.2086
H11 H 0.9727 0.3029 0.1525
H12 H -0.130(4) 0.230(4) 0.4911(14)
H13 H 0.299(4) 0.265(4) 0.2152(14)
H14 H 0.821(4) 0.257(4) 0.3299(16)
H15 H -0.360(6) 0.715(6) -0.025(3)
H16 H -0.448(6) 0.617(6) 0.035(2)
H17 H -0.573(6) 0.831(6) 0.034(2)
loop_
_geom_bond_atom_site_label_1
_geom_bond_atom_site_label_2
_geom_bond_site_symmetry_1
_geom_bond_site_symmetry_2
C1 C16 1_555 1_555
S1 C3 1_555 1_555
O1 C2 1_555 1_555
N1 C3 1_555 1_555
N2 N3 1_555 1_555
N3 C10 1_555 1_555
C2 C6 1_555 1_555
C3 N2 1_555 1_555
C4 N1 1_555 1_555
C5 C4 1_555 1_555
C6 H1 1_555 1_555
C7 C11 1_555 1_555
C8 O1 1_555 1_555
H2 C8 1_555 1_555
H3 C8 1_555 1_555
C9 C4 1_555 1_555
H4 C9 1_555 1_555
C10 N1 1_555 1_555
C11 C9 1_555 1_555
C12 C6 1_555 1_555
H5 C12 1_555 1_555
C13 C5 1_555 1_555
H6 C13 1_555 1_555
C14 C2 1_555 1_555
H7 C14 1_555 1_555
C15 C14 1_555 1_555
H8 C15 1_555 1_555
C16 C12 1_555 1_555
C17 C7 1_555 1_555
H9 C17 1_555 1_555
H10 C17 1_555 1_555
H11 C17 1_555 1_555
H12 N2 1_555 1_555
H13 C5 1_555 1_555
H14 C11 1_555 1_555
H15 C1 1_555 1_555
H16 C1 1_555 1_555
H17 C1 1_555 1_555
C7 C13 1_555 1_555
C8 C10 1_555 1_555
C15 C16 1_555 1_555

#END
