
#######################################################################
#
#                 Cambridge Crystallographic Data Centre
#                                CCDC 
#
#######################################################################
#
# If this CIF has been generated from an entry in the Cambridge 
# Structural Database, then it will include bibliographic, chemical, 
# crystal, experimental, refinement or atomic coordinate data resulting 
# from the CCDC's data processing and validation procedures.
#
#######################################################################

data_GURCEC
_chemical_formula_moiety         'C26 H25 N5 O3 S1'
_chemical_name_systematic        
N'-(2-Hydroxybenzylidene)-2-((5-((4-methylphenoxy)methyl)-4-(4-methylphenyl)-4H-1,2,4-triazol-3-yl)sulfanyl)acetohydrazide
_symmetry_cell_setting           triclinic
_symmetry_space_group_name_H-M   'P -1'
_symmetry_Int_Tables_number      2
_space_group_name_Hall           '-P 1'
loop_
_symmetry_equiv_pos_site_id
_symmetry_equiv_pos_as_xyz
1 x,y,z
2 -x,-y,-z
_cell_length_a                   10.060(2)
_cell_length_b                   11.077(2)
_cell_length_c                   21.546(4)
_cell_angle_alpha                90.00(3)
_cell_angle_beta                 90.04(3)
_cell_angle_gamma                90.00(3)
_cell_volume                     2400.97
_exptl_crystal_colour            colorless
_exptl_crystal_description       block
_cell_formula_units_Z            4
loop_
_atom_site_label
_atom_site_type_symbol
_atom_site_fract_x
_atom_site_fract_y
_atom_site_fract_z
S1 S 0.41839(10) 0.50163(8) 0.16019(4)
O1 O 0.5843(2) 0.4468(2) 0.05590(10)
O2 O 0.8588(3) 0.4064(2) -0.06295(11)
N1 N 0.6680(3) 0.6340(3) 0.03774(12)
N2 N 0.2258(3) 0.5547(2) 0.24395(11)
N3 N 0.7589(3) 0.5874(2) -0.00354(12)
C1 C 0.3124(3) 0.5982(3) 0.20028(14)
C2 C 0.9439(3) 0.6097(3) -0.06931(14)
O3 O 0.0641(3) 0.5831(2) 0.36074(12)
C3 C 0.8450(4) 0.6586(3) -0.02771(15)
C4 C 0.5847(4) 0.5543(3) 0.06634(14)
N4 N 0.2967(3) 0.7142(2) 0.19234(12)
N5 N 0.1945(3) 0.7502(2) 0.23279(13)
C5 C 1.0427(4) 0.6869(3) -0.09277(16)
C6 C 1.0464(4) 0.4468(4) -0.12574(16)
C7 C 0.4938(5) 0.6151(4) 0.1125(2)
C8 C 0.2196(4) 0.4306(3) 0.26503(14)
C9 C 0.9497(4) 0.4883(3) -0.08568(14)
C10 C 1.1415(4) 0.6450(4) -0.13114(16)
C11 C 1.1432(4) 0.5251(4) -0.14788(16)
C12 C 0.1537(4) 0.6536(3) 0.26211(15)
C13 C 0.2135(5) 0.1907(3) 0.30226(17)
C14 C 0.2281(4) 0.7306(3) 0.39703(18)
H1 H 0.2064 0.7858 0.3661
C15 C 0.1307(5) 0.3530(3) 0.23973(18)
C16 C 0.1631(4) 0.6216(4) 0.40018(18)
C17 C 0.3056(4) 0.3916(3) 0.31016(17)
H2 H 0.3653 0.4447 0.3287
C18 C 0.0405(5) 0.6525(4) 0.30598(19)
C19 C 0.1270(5) 0.2325(4) 0.2581(2)
C20 C 0.1947(6) 0.5409(4) 0.4474(2)
C21 C 0.3612(5) 0.6792(4) 0.48704(19)
C22 C 0.3016(5) 0.2706(4) 0.3277(2)
C23 C 0.3268(5) 0.7581(4) 0.4403(2)
C24 C 0.2113(5) 0.0589(3) 0.32139(18)
H3 H 0.1437 0.0467 0.3522
H4 H 0.2963 0.0371 0.3383
H5 H 0.1927 0.0096 0.2858
C25 C 0.4685(5) 0.7095(4) 0.5334(2)
H6 H 0.5032 0.6363 0.5509
H7 H 0.4318 0.7587 0.5658
H8 H 0.5386 0.7527 0.5129
C26 C 0.2923(6) 0.5705(5) 0.4888(2)
H9 H 1.042(3) 0.768(3) -0.0805(13)
H10 H 1.209(3) 0.705(2) -0.1457(12)
H11 H 1.048(3) 0.364(3) -0.1381(13)
H12 H 0.849(3) 0.746(2) -0.0178(12)
H13 H 1.214(4) 0.489(3) -0.1763(14)
H14 H 0.071(4) 0.382(3) 0.2104(15)
H15 H 0.540(4) 0.670(3) 0.1354(15)
H16 H 0.016(3) 0.744(3) 0.3202(14)
H17 H 0.143(4) 0.459(4) 0.4472(18)
H18 H 0.805(4) 0.455(4) -0.0338(18)
H19 H 0.431(4) 0.658(3) 0.0946(15)
H20 H -0.035(4) 0.616(3) 0.2870(14)
H21 H 0.370(4) 0.839(3) 0.4371(14)
H22 H 0.357(4) 0.247(3) 0.3586(18)
H23 H 0.073(4) 0.175(3) 0.2379(17)
H24 H 0.319(4) 0.513(4) 0.5187(18)
H25 H 0.664(3) 0.716(3) 0.0487(14)
S2 S 0.91816(11) 0.99836(8) 0.16012(4)
O4 O 1.3589(3) 1.09363(19) -0.06301(11)
O5 O 1.0840(2) 1.05306(19) 0.05573(10)
N6 N 1.1675(3) 0.8664(3) 0.03790(12)
N7 N 1.2593(3) 0.9125(2) -0.00349(12)
N8 N 0.7253(3) 0.9455(2) 0.24399(11)
C27 C 1.4453(3) 0.8896(3) -0.06933(13)
O6 O 0.5637(3) 0.9169(2) 0.36048(12)
C28 C 1.3439(4) 0.8418(3) -0.02766(15)
C29 C 1.0853(4) 0.9452(3) 0.06649(15)
C30 C 1.5429(4) 0.8132(3) -0.09251(15)
N9 N 0.7966(3) 0.7860(2) 0.19216(12)
C31 C 0.8117(4) 0.9020(3) 0.20011(14)
C32 C 0.7189(4) 1.0689(3) 0.26520(15)
C33 C 0.9955(5) 0.8848(3) 0.11275(19)
C34 C 1.4490(4) 1.0116(3) -0.08567(14)
C35 C 1.6417(4) 0.8549(3) -0.13107(16)
N10 N 0.6946(3) 0.7500(3) 0.23290(13)
C36 C 1.5475(4) 1.0537(3) -0.12580(15)
C37 C 0.7285(5) 0.7691(4) 0.3972(2)
C38 C 0.6547(4) 0.8460(3) 0.26199(15)
C39 C 0.6632(4) 0.8785(4) 0.40017(18)
C40 C 0.7147(5) 1.3097(3) 0.30211(17)
C41 C 1.6418(4) 0.9756(3) -0.14753(16)
C42 C 0.8056(4) 1.1089(4) 0.30962(18)
H26 H 0.8662 1.0560 0.3276
C43 C 0.6284(5) 1.2673(4) 0.25858(19)
C44 C 0.6290(4) 1.1467(4) 0.23947(18)
C45 C 0.8259(5) 0.7423(4) 0.4402(2)
C46 C 0.6943(6) 0.9579(4) 0.4470(2)
C47 C 0.5396(4) 0.8471(4) 0.3061(2)
C48 C 0.8606(5) 0.8208(4) 0.4866(2)
C49 C 0.7121(5) 1.4406(3) 0.32145(18)
H27 H 0.7072 1.4908 0.2852
H28 H 0.7915 1.4593 0.3442
H29 H 0.6359 1.4550 0.3472
C50 C 0.8021(5) 1.2289(4) 0.32751(18)
H30 H 0.8612 1.2556 0.3578
C51 C 0.9689(5) 0.7912(4) 0.53321(19)
H31 H 1.0243 0.7281 0.5170
H32 H 0.9292 0.7649 0.5714
H33 H 1.0218 0.8618 0.5408
C52 C 0.7924(6) 0.9295(5) 0.4893(2)
H34 H 1.540(3) 0.729(2) -0.0832(12)
H35 H 1.710(3) 0.797(2) -0.1464(12)
H36 H 1.346(3) 0.760(2) -0.0169(12)
H37 H 1.545(3) 1.136(3) -0.1377(13)
H38 H 0.710(3) 0.715(3) 0.3654(14)
H39 H 0.575(4) 1.117(3) 0.2071(15)
H40 H 1.713(3) 1.006(3) -0.1741(13)
H41 H 1.163(4) 0.787(3) 0.0463(15)
H42 H 1.041(3) 0.824(3) 0.1379(13)
H43 H 0.464(3) 0.887(3) 0.2851(13)
H44 H 0.564(4) 1.323(3) 0.2401(15)
H45 H 0.932(4) 0.849(3) 0.0945(14)
H46 H 0.520(4) 0.759(3) 0.3140(16)
H47 H 0.650(4) 1.040(3) 0.4467(16)
H48 H 0.870(3) 0.666(3) 0.4371(13)
H49 H 1.312(4) 1.047(3) -0.0353(17)
H50 H 0.812(4) 0.982(3) 0.5214(17)
loop_
_geom_bond_atom_site_label_1
_geom_bond_atom_site_label_2
_geom_bond_site_symmetry_1
_geom_bond_site_symmetry_2
S1 C1 1_555 1_555
O1 C4 1_555 1_555
O2 C9 1_555 1_555
N1 N3 1_555 1_555
N2 C1 1_555 1_555
N3 C3 1_555 1_555
C1 N4 1_555 1_555
C2 C3 1_555 1_555
O3 C16 1_555 1_555
C3 H12 1_555 1_555
C4 N1 1_555 1_555
N4 N5 1_555 1_555
N5 C12 1_555 1_555
C5 C2 1_555 1_555
C6 C9 1_555 1_555
C7 S1 1_555 1_555
C8 N2 1_555 1_555
C9 C2 1_555 1_555
C10 C5 1_555 1_555
C11 C6 1_555 1_555
C12 N2 1_555 1_555
C13 C19 1_555 1_555
C14 H1 1_555 1_555
C15 C8 1_555 1_555
C16 C14 1_555 1_555
C17 C8 1_555 1_555
H2 C17 1_555 1_555
C18 O3 1_555 1_555
C19 C15 1_555 1_555
C20 C16 1_555 1_555
C21 C23 1_555 1_555
C22 C13 1_555 1_555
C23 C14 1_555 1_555
C24 C13 1_555 1_555
H3 C24 1_555 1_555
H4 C24 1_555 1_555
H5 C24 1_555 1_555
C25 C21 1_555 1_555
H6 C25 1_555 1_555
H7 C25 1_555 1_555
H8 C25 1_555 1_555
C26 C20 1_555 1_555
H9 C5 1_555 1_555
H10 C10 1_555 1_555
H11 C6 1_555 1_555
H13 C11 1_555 1_555
H14 C15 1_555 1_555
H15 C7 1_555 1_555
H16 C18 1_555 1_555
H17 C20 1_555 1_555
H18 O2 1_555 1_555
H19 C7 1_555 1_555
H20 C18 1_555 1_555
H21 C23 1_555 1_555
H22 C22 1_555 1_555
H23 C19 1_555 1_555
H24 C26 1_555 1_555
H25 N1 1_555 1_555
S2 C31 1_555 1_555
O4 C34 1_555 1_555
O5 C29 1_555 1_555
N6 N7 1_555 1_555
N7 C28 1_555 1_555
N8 C31 1_555 1_555
C27 C28 1_555 1_555
O6 C39 1_555 1_555
C28 H36 1_555 1_555
C29 N6 1_555 1_555
C30 C27 1_555 1_555
N9 C31 1_555 1_555
C32 N8 1_555 1_555
C33 S2 1_555 1_555
C34 C27 1_555 1_555
C35 C30 1_555 1_555
N10 N9 1_555 1_555
C36 C34 1_555 1_555
C37 C39 1_555 1_555
C38 N8 1_555 1_555
C39 C46 1_555 1_555
C40 C43 1_555 1_555
C41 C35 1_555 1_555
C42 C32 1_555 1_555
H26 C42 1_555 1_555
C43 C44 1_555 1_555
C44 C32 1_555 1_555
C45 C37 1_555 1_555
C46 C52 1_555 1_555
C47 O6 1_555 1_555
C48 C45 1_555 1_555
C49 C40 1_555 1_555
H27 C49 1_555 1_555
H28 C49 1_555 1_555
H29 C49 1_555 1_555
C50 C40 1_555 1_555
H30 C50 1_555 1_555
C51 C48 1_555 1_555
H31 C51 1_555 1_555
H32 C51 1_555 1_555
H33 C51 1_555 1_555
C52 C48 1_555 1_555
H34 C30 1_555 1_555
H35 C35 1_555 1_555
H37 C36 1_555 1_555
H38 C37 1_555 1_555
H39 C44 1_555 1_555
H40 C41 1_555 1_555
H41 N6 1_555 1_555
H42 C33 1_555 1_555
H43 C47 1_555 1_555
H44 C43 1_555 1_555
H45 C33 1_555 1_555
H46 C47 1_555 1_555
H47 C46 1_555 1_555
H48 C45 1_555 1_555
H49 O4 1_555 1_555
H50 C52 1_555 1_555
C4 C7 1_555 1_555
C10 C11 1_555 1_555
C12 C18 1_555 1_555
C17 C22 1_555 1_555
C21 C26 1_555 1_555
C29 C33 1_555 1_555
N10 C38 1_555 1_555
C36 C41 1_555 1_555
C38 C47 1_555 1_555
C42 C50 1_555 1_555

#END
