
#######################################################################
#
#                 Cambridge Crystallographic Data Centre
#                                CCDC 
#
#######################################################################
#
# If this CIF has been generated from an entry in the Cambridge 
# Structural Database, then it will include bibliographic, chemical, 
# crystal, experimental, refinement or atomic coordinate data resulting 
# from the CCDC's data processing and validation procedures.
#
#######################################################################

data_GURGEH
_chemical_formula_moiety         'C38 H33 N5 O2 S5,0.5(C1 H2 Cl2)'
_chemical_name_systematic        
"2,2'-((5-ethyl-4,6-dioxo-5,6-dihydro-1H-thieno[3,4-c]pyrrole-1,3(4H)-diylidene)bis(2-hexylthieno[3,4-b]thiene-4,6-diylidene))dimalononitrile dichloromethane solvate"
_symmetry_cell_setting           monoclinic
_symmetry_space_group_name_H-M   'C 2/c'
_symmetry_Int_Tables_number      15
_space_group_name_Hall           '-C 2yn'
loop_
_symmetry_equiv_pos_site_id
_symmetry_equiv_pos_as_xyz
1 x,y,z
2 -x,y,1/2-z
3 1/2+x,1/2+y,z
4 1/2-x,1/2+y,1/2-z
5 -x,-y,-z
6 x,-y,1/2+z
7 1/2-x,1/2-y,-z
8 1/2+x,1/2-y,1/2+z
_cell_length_a                   13.212(3)
_cell_length_b                   37.811(8)
_cell_length_c                   10.198(2)
_cell_angle_alpha                90
_cell_angle_beta                 109.57(3)
_cell_angle_gamma                90
_cell_volume                     4800.21
_exptl_crystal_colour            colorless
_exptl_crystal_description       prism
_cell_formula_units_Z            4
loop_
_atom_site_label
_atom_site_type_symbol
_atom_site_fract_x
_atom_site_fract_y
_atom_site_fract_z
C18 C 1.270(2) 0.880(3) 1.012(4)
H10 H 1.2676 0.8557 0.9857
H11 H 1.2080 0.8848 1.0384
Cl1 Cl 1.2744(8) 0.9008(3) 0.8643(10)
Cl2 Cl 1.3923(9) 0.8806(3) 1.1437(9)
S1 S 0.89768(12) 0.78338(4) 1.07093(16)
O1 O 0.9305(4) 0.84436(13) 0.9286(5)
N1 N 0.7717(5) 0.7096(2) 1.4156(7)
C1 C 0.8629(4) 0.75065(19) 1.1688(6)
S2 S 0.85241(16) 0.67483(6) 1.1668(2)
N2 N 0.8175(6) 0.8247(3) 1.3374(8)
C2 C 0.8768(5) 0.71651(18) 1.1199(7)
S3 S 1.0000 0.73004(6) 0.7500
N3 N 1.0000 0.85390(18) 0.7500
C3 C 0.9115(5) 0.71679(17) 1.0037(6)
C4 C 0.9289(5) 0.75190(17) 0.9622(6)
C5 C 0.9251(7) 0.6804(2) 0.9529(7)
C6 C 0.8910(8) 0.6560(2) 1.0334(9)
C7 C 0.8271(5) 0.7597(2) 1.2763(7)
C8 C 0.7955(5) 0.7333(2) 1.3560(8)
C9 C 0.8201(6) 0.7955(3) 1.3130(8)
C10 C 0.9660(5) 0.76162(16) 0.8536(6)
C11 C 0.9811(4) 0.79568(18) 0.8047(6)
C12 C 0.9668(5) 0.83295(16) 0.8427(7)
C13 C 0.8969(9) 0.6166(2) 1.0094(13)
H1 H 0.9451 0.6058 1.0919
H2 H 0.9258 0.6127 0.9358
C14 C 0.7861(14) 0.5986(8) 0.978(2)
H3 H 0.7585 0.6011 1.0537
H4 H 0.7956 0.5738 0.9657
C15 C 0.7027(9) 0.6140(6) 0.849(3)
H5 H 0.7380 0.6186 0.7822
H6 H 0.6761 0.6361 0.8701
C16 C 0.6090(7) 0.5883(4) 0.7817(16)
H7 H 0.6140 0.5683 0.8413
H8 H 0.6110 0.5799 0.6938
C17 C 1.0000 0.8929(3) 0.7500
H9 H 0.9331 0.9020 0.7535
S1A S 1.10232(12) 0.78338(4) 0.42907(16)
O1A O 1.0695(4) 0.84436(13) 0.5714(5)
N1A N 1.2283(5) 0.7096(2) 0.0844(7)
C1A C 1.1371(4) 0.75065(19) 0.3312(6)
S2A S 1.14759(16) 0.67483(6) 0.3332(2)
N2A N 1.1825(6) 0.8247(3) 0.1626(8)
C2A C 1.1232(5) 0.71651(18) 0.3801(7)
C3A C 1.0885(5) 0.71679(17) 0.4963(6)
C4A C 1.0711(5) 0.75190(17) 0.5378(6)
C5A C 1.0749(7) 0.6804(2) 0.5471(7)
C6A C 1.1090(8) 0.6560(2) 0.4666(9)
C7A C 1.1729(5) 0.7597(2) 0.2237(7)
C8A C 1.2045(5) 0.7333(2) 0.1440(8)
C9A C 1.1799(6) 0.7955(3) 0.1870(8)
C10A C 1.0340(5) 0.76162(16) 0.6464(6)
C11A C 1.0189(4) 0.79568(18) 0.6953(6)
C12A C 1.0332(5) 0.83295(16) 0.6573(7)
C13A C 1.1031(9) 0.6166(2) 0.4906(13)
H1A H 1.0549 0.6058 0.4081
H2A H 1.0742 0.6127 0.5642
C14A C 1.2139(14) 0.5986(8) 0.522(2)
H3A H 1.2415 0.6011 0.4463
H4A H 1.2044 0.5738 0.5343
C15A C 1.2973(9) 0.6140(6) 0.651(3)
H5A H 1.2620 0.6186 0.7178
H6A H 1.3239 0.6361 0.6299
C16A C 1.3910(7) 0.5883(4) 0.7183(16)
H7A H 1.3860 0.5683 0.6587
H8A H 1.3890 0.5799 0.8062
H9A H 1.0669 0.9020 0.7465
C19? C 0.850(2) 0.6195(3) 0.991(2)
H12? H 0.8490 0.6109 0.9018
H13? H 0.7773 0.6210 0.9909
C20? C 0.9014(19) 0.5961(5) 1.120(2)
H14? H 0.8834 0.6004 1.2020
H15? H 0.9760 0.6017 1.1400
C21? C 0.897(2) 0.5571(4) 1.076(3)
H16? H 0.8899 0.5542 0.9801
H17? H 0.8313 0.5491 1.0882
C22? C 0.997(3) 0.5376(7) 1.174(4)
H18? H 1.0142 0.5190 1.1209
H19? H 0.9792 0.5271 1.2492
C23? C 1.178(7) 0.566(4) 1.290(10)
H20? H 1.2376 0.5815 1.3261
H21? H 1.1156 0.5789 1.2366
H22? H 1.1636 0.5542 1.3661
C24? C 1.0881(12) 0.9066(7) 0.8842(17)
H23? H 1.1264 0.8856 0.9256
C25? C 1.032(3) 0.9282(11) 0.970(3)
H24? H 1.0853 0.9278 1.0610
H25? H 0.9704 0.9154 0.9725
C26? C 1.065(5) 0.9673(9) 0.974(6)
H26? H 1.0370 0.9783 1.0388
H27? H 1.1276 0.9801 0.9717
H28? H 1.0118 0.9677 0.8825
C27? C 1.1679(10) 0.9303(5) 0.845(3)
H29? H 1.1700 0.9527 0.8902
H30? H 1.1427 0.9343 0.7460
C28? C 1.2816(11) 0.9136(5) 0.8966(16)
H31? H 1.3346 0.9316 0.9348
H32? H 1.2948 0.9033 0.8179
C29? C 1.286(2) 0.8851(7) 1.006(2)
H33? H 1.3125 0.8634 0.9799
H34? H 1.2163 0.8808 1.0112
C30? C 1.370(2) 0.8946(7) 1.1470(18)
H35? H 1.3741 0.8767 1.2149
H36? H 1.4405 0.8987 1.1418
H37? H 1.3435 0.9162 1.1734
C31? C 0.4265(11) 0.5877(4) 0.8122(18)
H38? H 0.3601 0.6000 0.7985
H39? H 0.4115 0.5639 0.7789
H40? H 0.4679 0.5874 0.9096
C32? C 0.5000 0.6084(5) 0.7500
H41? H 0.4585 0.6090 0.6527
H42? H 0.5145 0.6323 0.7824
H43? H 1.0119 0.9020 0.6684
C33? C 1.098(2) 0.5527(15) 1.151(6)
H44? H 1.1130 0.5641 1.0749
H45? H 1.1607 0.5396 1.2035
loop_
_geom_bond_atom_site_label_1
_geom_bond_atom_site_label_2
_geom_bond_site_symmetry_1
_geom_bond_site_symmetry_2
S1 C1 1_555 1_555
O1 C12 1_555 1_555
N1 C8 1_555 1_555
C1 C2 1_555 1_555
S2 C2 1_555 1_555
N2 C9 1_555 1_555
C2 C3 1_555 1_555
S3 C10 1_555 1_555
N3 C12 1_555 1_555
C3 C4 1_555 1_555
C4 S1 1_555 1_555
C5 C3 1_555 1_555
C6 S2 1_555 1_555
C7 C1 1_555 1_555
C8 C7 1_555 1_555
C9 C7 1_555 1_555
C10 C4 1_555 1_555
C11 C10 1_555 1_555
C12 C11 1_555 1_555
C13 C6 1_555 1_555
H1 C13 1_555 1_555
H2 C13 1_555 1_555
C14 C13 1_555 1_555
H3 C14 1_555 1_555
H4 C14 1_555 1_555
C15 C14 1_555 1_555
H5 C15 1_555 1_555
H6 C15 1_555 1_555
C16 C15 1_555 1_555
H7 C16 1_555 1_555
H8 C16 1_555 1_555
C17 N3 1_555 1_555
H9 C17 1_555 1_555
C18 H10 1_555 1_555
H11 C18 1_555 1_555
Cl1 C18 1_555 1_555
Cl2 C18 1_555 1_555
S1A C1A 1_555 1_555
O1A C12A 1_555 1_555
N1A C8A 1_555 1_555
C1A C2A 1_555 1_555
S2A C2A 1_555 1_555
N2A C9A 1_555 1_555
C2A C3A 1_555 1_555
C3A C4A 1_555 1_555
C4A S1A 1_555 1_555
C5A C3A 1_555 1_555
C6A S2A 1_555 1_555
C7A C1A 1_555 1_555
C8A C7A 1_555 1_555
C9A C7A 1_555 1_555
C10A S3 1_555 1_555
C11A C11 1_555 1_555
C12A N3 1_555 1_555
C13A C6A 1_555 1_555
H1A C13A 1_555 1_555
H2A C13A 1_555 1_555
C14A C13A 1_555 1_555
H3A C14A 1_555 1_555
H4A C14A 1_555 1_555
C15A C14A 1_555 1_555
H5A C15A 1_555 1_555
H6A C15A 1_555 1_555
C16A C15A 1_555 1_555
H7A C16A 1_555 1_555
H8A C16A 1_555 1_555
H9A C17 1_555 1_555
C5 C6 1_555 1_555
C4A C10A 1_555 1_555
C5A C6A 1_555 1_555
C10A C11A 1_555 1_555
C11A C12A 1_555 1_555

#END
