
#######################################################################
#
#                 Cambridge Crystallographic Data Centre
#                                CCDC 
#
#######################################################################
#
# If this CIF has been generated from an entry in the Cambridge 
# Structural Database, then it will include bibliographic, chemical, 
# crystal, experimental, refinement or atomic coordinate data resulting 
# from the CCDC's data processing and validation procedures.
#
#######################################################################

data_GURJEK
_chemical_formula_moiety         'C16 H22 B10'
_chemical_name_systematic        
4-(1,2-diphenylethenyl)-1,2-dicarbadodecaborane
_symmetry_cell_setting           monoclinic
_symmetry_space_group_name_H-M   'C 2/c'
_symmetry_Int_Tables_number      15
_space_group_name_Hall           '-C 2yn'
loop_
_symmetry_equiv_pos_site_id
_symmetry_equiv_pos_as_xyz
1 x,y,z
2 -x,y,1/2-z
3 1/2+x,1/2+y,z
4 1/2-x,1/2+y,1/2-z
5 -x,-y,-z
6 x,-y,1/2+z
7 1/2-x,1/2-y,-z
8 1/2+x,1/2-y,1/2+z
_cell_length_a                   18.063(3)
_cell_length_b                   11.0258(16)
_cell_length_c                   20.374(3)
_cell_angle_alpha                90
_cell_angle_beta                 110.097(2)
_cell_angle_gamma                90
_cell_volume                     3810.6
_exptl_crystal_colour            colorless
_exptl_crystal_description       block
_cell_formula_units_Z            8
loop_
_atom_site_label
_atom_site_type_symbol
_atom_site_fract_x
_atom_site_fract_y
_atom_site_fract_z
C1 C 0.19791(13) 0.3529(2) 0.63828(11)
H1 H 0.2542 0.3389 0.6297
C2 C 0.19582(16) 0.3712(2) 0.71713(13)
H2 H 0.2504 0.3699 0.7629
C3 C 0.12459(12) 0.18998(19) 0.52492(11)
C4 C 0.15753(13) 0.0653(2) 0.54503(10)
C5 C 0.23340(15) 0.0376(2) 0.54783(13)
H3 H 0.2643 0.0975 0.5379
C6 C 0.2640(2) -0.0781(3) 0.56511(16)
H4 H 0.3151 -0.0951 0.5668
C7 C 0.2194(3) -0.1672(3) 0.57964(16)
H5 H 0.2396 -0.2451 0.5906
C8 C 0.1445(2) -0.1411(3) 0.57803(16)
H6 H 0.1142 -0.2018 0.5880
C9 C 0.11341(17) -0.0251(2) 0.56168(13)
H7 H 0.0631 -0.0081 0.5619
C10 C 0.10262(12) 0.23150(19) 0.45889(11)
H8 H 0.0845 0.3111 0.4534
C11 C 0.10212(12) 0.1730(2) 0.39340(11)
C12 C 0.10213(15) 0.0477(2) 0.38284(12)
H9 H 0.1031 -0.0048 0.4188
C13 C 0.10069(15) 0.0012(2) 0.31951(14)
H10 H 0.1005 -0.0823 0.3133
C14 C 0.09948(14) 0.0772(3) 0.26518(13)
H11 H 0.0994 0.0451 0.2230
C15 C 0.09839(14) 0.2008(2) 0.27410(12)
H12 H 0.0970 0.2527 0.2377
C16 C 0.09931(13) 0.2478(2) 0.33753(11)
H13 H 0.0980 0.3314 0.3429
B1 B 0.17922(18) 0.4938(3) 0.66400(14)
H14 H 0.2193 0.5719 0.6723
B2 B 0.12787(16) 0.4368(2) 0.57986(13)
H15 H 0.1340 0.4783 0.5329
B3 B 0.11688(14) 0.2760(2) 0.58426(12)
B4 B 0.16355(19) 0.2364(3) 0.67431(14)
H16 H 0.1934 0.1486 0.6897
B5 B 0.12302(19) 0.4669(3) 0.71811(15)
H17 H 0.1257 0.5271 0.7619
B6 B 0.07749(18) 0.5101(3) 0.62961(14)
H18 H 0.0497 0.5995 0.6151
B7 B 0.03825(17) 0.3766(3) 0.58046(14)
H19 H -0.0155 0.3794 0.5339
B8 B 0.05999(18) 0.2512(3) 0.63944(15)
H20 H 0.0207 0.1722 0.6318
B9 B 0.1128(2) 0.3091(3) 0.72434(15)
H21 H 0.1088 0.2675 0.7721
B10 B 0.03485(19) 0.3955(3) 0.66589(16)
H22 H -0.0213 0.4101 0.6747
loop_
_geom_bond_atom_site_label_1
_geom_bond_atom_site_label_2
_geom_bond_site_symmetry_1
_geom_bond_site_symmetry_2
C1 H1 1_555 1_555
C2 C1 1_555 1_555
H2 C2 1_555 1_555
C3 C4 1_555 1_555
C4 C5 1_555 1_555
C5 H3 1_555 1_555
C6 C5 1_555 1_555
H4 C6 1_555 1_555
C7 C6 1_555 1_555
H5 C7 1_555 1_555
C8 C7 1_555 1_555
H6 C8 1_555 1_555
C9 C4 1_555 1_555
H7 C9 1_555 1_555
C10 C3 1_555 1_555
H8 C10 1_555 1_555
C11 C10 1_555 1_555
C12 C11 1_555 1_555
H9 C12 1_555 1_555
C13 C12 1_555 1_555
H10 C13 1_555 1_555
C14 C13 1_555 1_555
H11 C14 1_555 1_555
C15 C14 1_555 1_555
H12 C15 1_555 1_555
C16 C11 1_555 1_555
H13 C16 1_555 1_555
B1 C1 1_555 1_555
H14 B1 1_555 1_555
B2 C1 1_555 1_555
H15 B2 1_555 1_555
B3 C1 1_555 1_555
B4 C1 1_555 1_555
H16 B4 1_555 1_555
B5 C2 1_555 1_555
H17 B5 1_555 1_555
B6 B1 1_555 1_555
H18 B6 1_555 1_555
B7 B2 1_555 1_555
H19 B7 1_555 1_555
B8 B3 1_555 1_555
H20 B8 1_555 1_555
B9 C2 1_555 1_555
H21 B9 1_555 1_555
B10 B5 1_555 1_555
H22 B10 1_555 1_555
C2 B1 1_555 1_555
C2 B4 1_555 1_555
C3 B3 1_555 1_555
C8 C9 1_555 1_555
C15 C16 1_555 1_555
B1 B2 1_555 1_555
B1 B5 1_555 1_555
B2 B3 1_555 1_555
B2 B6 1_555 1_555
B3 B4 1_555 1_555
B3 B7 1_555 1_555
B4 B8 1_555 1_555
B4 B9 1_555 1_555
B5 B6 1_555 1_555
B5 B9 1_555 1_555
B6 B7 1_555 1_555
B6 B10 1_555 1_555
B7 B8 1_555 1_555
B7 B10 1_555 1_555
B8 B9 1_555 1_555
B8 B10 1_555 1_555
B9 B10 1_555 1_555

#END
