
#######################################################################
#
#                 Cambridge Crystallographic Data Centre
#                                CCDC 
#
#######################################################################
#
# If this CIF has been generated from an entry in the Cambridge 
# Structural Database, then it will include bibliographic, chemical, 
# crystal, experimental, refinement or atomic coordinate data resulting 
# from the CCDC's data processing and validation procedures.
#
#######################################################################

data_GURMUD
_chemical_formula_moiety         'C22 H19 Br1 O2 Se1'
_chemical_name_systematic        
2-(4-bromophenyl)-3-((4-methoxyphenyl)selanyl)chromane
_symmetry_cell_setting           orthorhombic
_symmetry_space_group_name_H-M   'P 21 21 21'
_symmetry_Int_Tables_number      19
_space_group_name_Hall           'P 2ac 2ab'
loop_
_symmetry_equiv_pos_site_id
_symmetry_equiv_pos_as_xyz
1 x,y,z
2 1/2-x,-y,1/2+z
3 -x,1/2+y,1/2-z
4 1/2+x,1/2-y,-z
_cell_length_a                   5.7402(4)
_cell_length_b                   14.3570(10)
_cell_length_c                   22.6404(17)
_cell_angle_alpha                90
_cell_angle_beta                 90
_cell_angle_gamma                90
_cell_volume                     1865.84
_exptl_crystal_colour            colorless
_exptl_crystal_description       needle
_cell_formula_units_Z            4
loop_
_atom_site_label
_atom_site_type_symbol
_atom_site_fract_x
_atom_site_fract_y
_atom_site_fract_z
C1 C 0.3911(4) 0.46597(14) 0.47969(9)
H1 H 0.2569 0.4503 0.5060
C2 C 0.4844(3) 0.56195(13) 0.49640(9)
H2 H 0.6166 0.5789 0.4697
C3 C 0.5678(4) 0.56116(15) 0.56019(10)
H3 H 0.6539 0.6194 0.5686
H4 H 0.4315 0.5585 0.5869
C4 C 0.7238(4) 0.47886(14) 0.57188(9)
C5 C 0.8832(4) 0.47830(16) 0.61814(10)
H5 H 0.8967 0.5318 0.6426
C6 C 1.0227(4) 0.40147(17) 0.62942(11)
H6 H 1.1305 0.4024 0.6613
C7 C 1.0036(4) 0.32345(17) 0.59392(11)
H7 H 1.0965 0.2702 0.6019
C8 C 0.8499(4) 0.32252(15) 0.54673(10)
H8 H 0.8389 0.2693 0.5219
C9 C 0.7116(4) 0.40050(14) 0.53609(9)
C10 C 0.3161(4) 0.45545(14) 0.41620(9)
C11 C 0.4679(4) 0.48018(16) 0.37062(10)
H9 H 0.6173 0.5044 0.3801
C12 C 0.4054(4) 0.47009(15) 0.31230(10)
H10 H 0.5093 0.4878 0.2816
C13 C 0.1890(4) 0.43379(15) 0.29918(9)
C14 C 0.0353(4) 0.40706(15) 0.34286(10)
H11 H -0.1123 0.3814 0.3330
C15 C 0.1008(4) 0.41846(15) 0.40161(9)
H12 H -0.0036 0.4006 0.4321
C16 C 0.2168(4) 0.67960(13) 0.40885(9)
C17 C 0.3917(4) 0.72315(14) 0.37634(10)
H13 H 0.5290 0.7443 0.3955
C18 C 0.3653(4) 0.73563(15) 0.31599(10)
H14 H 0.4849 0.7653 0.2940
C19 C 0.1655(4) 0.70501(14) 0.28761(10)
C20 C -0.0112(4) 0.66375(15) 0.32022(10)
H15 H -0.1510 0.6444 0.3014
C21 C 0.0173(4) 0.65098(16) 0.38026(10)
H16 H -0.1032 0.6219 0.4023
C22 C -0.0476(4) 0.68729(16) 0.19795(10)
H17 H -0.1833 0.7223 0.2120
H18 H -0.0704 0.6208 0.2060
H19 H -0.0292 0.6969 0.1554
O1 O 0.5719(3) 0.39579(9) 0.48691(7)
O2 O 0.1573(3) 0.71928(10) 0.22801(7)
Se1 Se 0.24181(4) 0.658878(14) 0.492444(9)
Br1 Br 0.10010(4) 0.421181(16) 0.218612(10)
loop_
_geom_bond_atom_site_label_1
_geom_bond_atom_site_label_2
_geom_bond_site_symmetry_1
_geom_bond_site_symmetry_2
C1 H1 1_555 1_555
C2 C1 1_555 1_555
H2 C2 1_555 1_555
C3 C2 1_555 1_555
H3 C3 1_555 1_555
H4 C3 1_555 1_555
C4 C3 1_555 1_555
C5 C4 1_555 1_555
H5 C5 1_555 1_555
C6 C5 1_555 1_555
H6 C6 1_555 1_555
C7 C6 1_555 1_555
H7 C7 1_555 1_555
C8 C7 1_555 1_555
H8 C8 1_555 1_555
C9 C4 1_555 1_555
C10 C1 1_555 1_555
C11 C10 1_555 1_555
H9 C11 1_555 1_555
C12 C11 1_555 1_555
H10 C12 1_555 1_555
C13 C12 1_555 1_555
C14 C13 1_555 1_555
H11 C14 1_555 1_555
C15 C10 1_555 1_555
H12 C15 1_555 1_555
C16 C17 1_555 1_555
C17 H13 1_555 1_555
C18 C17 1_555 1_555
H14 C18 1_555 1_555
C19 C18 1_555 1_555
C20 C19 1_555 1_555
H15 C20 1_555 1_555
C21 C16 1_555 1_555
H16 C21 1_555 1_555
C22 H17 1_555 1_555
H18 C22 1_555 1_555
H19 C22 1_555 1_555
O1 C1 1_555 1_555
O2 C19 1_555 1_555
Se1 C2 1_555 1_555
Br1 C13 1_555 1_555
C8 C9 1_555 1_555
C9 O1 1_555 1_555
C14 C15 1_555 1_555
C16 Se1 1_555 1_555
C20 C21 1_555 1_555
C22 O2 1_555 1_555

#END
