
#######################################################################
#
#                 Cambridge Crystallographic Data Centre
#                                CCDC 
#
#######################################################################
#
# If this CIF has been generated from an entry in the Cambridge 
# Structural Database, then it will include bibliographic, chemical, 
# crystal, experimental, refinement or atomic coordinate data resulting 
# from the CCDC's data processing and validation procedures.
#
#######################################################################

data_GURQUH
_chemical_formula_moiety         'C20 H22 N2 O4'
_chemical_name_systematic        
't-butyl 5-(2-furyl)-7-oxo-3-phenyl-4,5,6,7-tetrahydro-1H-1,2-diazepine-1-carboxylate'
_symmetry_cell_setting           monoclinic
_symmetry_space_group_name_H-M   'P 21'
_symmetry_Int_Tables_number      4
_space_group_name_Hall           'P 2yb'
loop_
_symmetry_equiv_pos_site_id
_symmetry_equiv_pos_as_xyz
1 x,y,z
2 -x,1/2+y,-z
_cell_length_a                   5.8916(3)
_cell_length_b                   11.8596(5)
_cell_length_c                   25.8111(11)
_cell_angle_alpha                90
_cell_angle_beta                 92.489(3)
_cell_angle_gamma                90
_cell_volume                     1801.77
_exptl_crystal_colour            colorless
_exptl_crystal_description       plate
_cell_formula_units_Z            4
loop_
_atom_site_label
_atom_site_type_symbol
_atom_site_fract_x
_atom_site_fract_y
_atom_site_fract_z
N1 N 0.8091(8) 0.7270(4) 0.87285(19)
N2 N 0.8374(8) 0.8464(4) 0.86602(19)
O1 O 0.9947(7) 1.0143(3) 0.89440(16)
O2 O 0.6364(10) 0.8227(4) 0.7896(2)
O3 O 1.5900(6) 0.7293(4) 0.99130(16)
C1 C 0.9946(10) 0.6704(5) 0.8787(2)
C2 C 1.2259(10) 0.7214(5) 0.8785(2)
H1 H 1.2331 0.7747 0.8491
H2 H 1.3394 0.6613 0.8735
C3 C 1.2857(9) 0.7846(5) 0.9297(2)
H3 H 1.4076 0.8404 0.9225
C4 C 1.0769(9) 0.8513(5) 0.9465(2)
H4 H 0.9652 0.7987 0.9609
H5 H 1.124 0.9056 0.9741
C5 C 0.9683(10) 0.9136(5) 0.9014(2)
C6 C 0.6983(11) 0.8850(5) 0.8231(3)
O4 O 0.6452(8) 0.9908(4) 0.82831(17)
C7 C 0.5199(12) 1.0521(6) 0.7855(3)
C8 C 0.6438(12) 1.0466(8) 0.7370(3)
H6 H 0.6437 0.9688 0.7243
H7 H 0.5692 1.0956 0.7109
H8 H 0.8008 1.0718 0.7438
C9 C 0.515(3) 1.1688(9) 0.8065(5)
H9 H 0.4322 1.1696 0.8385
H10 H 0.6713 1.195 0.8138
H11 H 0.4397 1.2188 0.7809
C10 C 0.2844(13) 1.0052(10) 0.7782(4)
H12 H 0.2068 1.01 0.8109
H13 H 0.1998 1.0487 0.7515
H14 H 0.2929 0.9261 0.7673
C11 C 1.3733(10) 0.7105(5) 0.9726(2)
C12 C 1.2843(11) 0.6223(6) 0.9997(3)
H15 H 1.1378 0.5898 0.9941
C13 C 1.4537(11) 0.5889(6) 1.0375(3)
H16 H 1.4402 0.5317 1.063
C14 C 1.6350(11) 0.6536(5) 1.0305(2)
H17 H 1.7754 0.6479 1.0498
C15 C 0.9604(10) 0.5457(5) 0.8864(2)
C16 C 0.7619(10) 0.5077(5) 0.9097(2)
H18 H 0.654 0.5604 0.9215
C17 C 0.7258(11) 0.3934(5) 0.9153(3)
H19 H 0.5921 0.3672 0.9307
C18 C 0.8860(11) 0.3156(6) 0.8981(3)
H20 H 0.8595 0.237 0.9016
C19 C 1.0779(11) 0.3523(6) 0.8765(3)
H21 H 1.1851 0.2992 0.8649
C20 C 1.1200(11) 0.4690(5) 0.8712(3)
H22 H 1.2576 0.4944 0.8573
N3 N 0.1140(8) 0.2329(4) 0.63609(19)
N4 N 0.1225(8) 0.3523(4) 0.6384(2)
O5 O 0.0235(7) 0.5247(3) 0.60419(16)
O6 O 0.2005(8) 0.3504(4) 0.72573(17)
O7 O 0.3715(6) 0.4774(3) 0.67466(15)
O8 O -0.6012(6) 0.2021(3) 0.52189(16)
C21 C -0.0821(9) 0.1879(5) 0.6246(2)
C22 C -0.2932(9) 0.2571(5) 0.6157(2)
H23 H -0.2994 0.3154 0.6431
H24 H -0.428 0.2079 0.6183
C23 C -0.3010(9) 0.3148(5) 0.5621(2)
H25 H -0.4096 0.3795 0.5633
C24 C -0.0639(9) 0.3629(5) 0.5517(2)
H26 H 0.0392 0.3008 0.5426
H27 H -0.0756 0.4159 0.5221
C25 C 0.0316(9) 0.4231(5) 0.5989(2)
C26 C 0.2336(10) 0.3930(5) 0.6852(2)
C27 C 0.4618(10) 0.5531(5) 0.7174(2)
C28 C 0.2615(10) 0.6092(6) 0.7415(3)
H28 H 0.1617 0.6421 0.7142
H29 H 0.316 0.6688 0.7653
H30 H 0.1768 0.5531 0.7608
C29 C 0.6002(10) 0.6379(5) 0.6884(3)
H31 H 0.717 0.5983 0.6695
H32 H 0.6729 0.6908 0.7131
H33 H 0.5003 0.6793 0.6638
C30 C 0.6074(12) 0.4880(6) 0.7570(3)
H34 H 0.5114 0.4361 0.7759
H35 H 0.6819 0.5408 0.7815
H36 H 0.723 0.4451 0.7393
C31 C -0.3807(9) 0.2387(5) 0.5195(2)
C32 C -0.2858(10) 0.1921(5) 0.4782(2)
H37 H -0.1355 0.2041 0.4675
C33 C -0.4534(10) 0.1211(5) 0.4534(2)
H38 H -0.4366 0.076 0.4234
C34 C -0.6391(10) 0.1309(5) 0.4811(2)
H39 H -0.7788 0.0933 0.4734
C35 C -0.0838(10) 0.0635(5) 0.6192(2)
C36 C 0.1040(10) -0.0001(5) 0.6367(3)
H40 H 0.2363 0.0367 0.6506
C37 C 0.0979(11) -0.1162(5) 0.6340(3)
H41 H 0.2244 -0.1586 0.6471
C38 C -0.0894(10) -0.1715(5) 0.6125(2)
H42 H -0.0919 -0.2515 0.6108
C39 C -0.2727(11) -0.1098(5) 0.5934(3)
H43 H -0.4003 -0.1472 0.5776
C40 C -0.2715(10) 0.0072(5) 0.5973(2)
H44 H -0.4002 0.049 0.5849
loop_
_geom_bond_atom_site_label_1
_geom_bond_atom_site_label_2
_geom_bond_site_symmetry_1
_geom_bond_site_symmetry_2
N1 N2 1_555 1_555
N2 C5 1_555 1_555
O1 C5 1_555 1_555
O2 C6 1_555 1_555
O3 C11 1_555 1_555
C1 N1 1_555 1_555
C2 C1 1_555 1_555
H1 C2 1_555 1_555
H2 C2 1_555 1_555
C3 C2 1_555 1_555
H3 C3 1_555 1_555
C4 C3 1_555 1_555
H4 C4 1_555 1_555
H5 C4 1_555 1_555
C5 C4 1_555 1_555
C6 N2 1_555 1_555
O4 C6 1_555 1_555
C7 O4 1_555 1_555
C8 C7 1_555 1_555
H6 C8 1_555 1_555
H7 C8 1_555 1_555
H8 C8 1_555 1_555
C9 C7 1_555 1_555
H9 C9 1_555 1_555
H10 C9 1_555 1_555
H11 C9 1_555 1_555
C10 C7 1_555 1_555
H12 C10 1_555 1_555
H13 C10 1_555 1_555
H14 C10 1_555 1_555
C11 C3 1_555 1_555
C12 C11 1_555 1_555
H15 C12 1_555 1_555
C13 C12 1_555 1_555
H16 C13 1_555 1_555
C14 O3 1_555 1_555
H17 C14 1_555 1_555
C15 C1 1_555 1_555
C16 C15 1_555 1_555
H18 C16 1_555 1_555
C17 C16 1_555 1_555
H19 C17 1_555 1_555
C18 C17 1_555 1_555
H20 C18 1_555 1_555
C19 C18 1_555 1_555
H21 C19 1_555 1_555
C20 C15 1_555 1_555
H22 C20 1_555 1_555
N3 N4 1_555 1_555
N4 C25 1_555 1_555
O5 C25 1_555 1_555
O6 C26 1_555 1_555
O7 C26 1_555 1_555
O8 C31 1_555 1_555
C21 N3 1_555 1_555
C22 C21 1_555 1_555
H23 C22 1_555 1_555
H24 C22 1_555 1_555
C23 C22 1_555 1_555
H25 C23 1_555 1_555
C24 C23 1_555 1_555
H26 C24 1_555 1_555
H27 C24 1_555 1_555
C25 C24 1_555 1_555
C26 N4 1_555 1_555
C27 O7 1_555 1_555
C28 C27 1_555 1_555
H28 C28 1_555 1_555
H29 C28 1_555 1_555
H30 C28 1_555 1_555
C29 C27 1_555 1_555
H31 C29 1_555 1_555
H32 C29 1_555 1_555
H33 C29 1_555 1_555
C30 C27 1_555 1_555
H34 C30 1_555 1_555
H35 C30 1_555 1_555
H36 C30 1_555 1_555
C31 C23 1_555 1_555
C32 C31 1_555 1_555
H37 C32 1_555 1_555
C33 C32 1_555 1_555
H38 C33 1_555 1_555
C34 O8 1_555 1_555
H39 C34 1_555 1_555
C35 C21 1_555 1_555
C36 C35 1_555 1_555
H40 C36 1_555 1_555
C37 C36 1_555 1_555
H41 C37 1_555 1_555
C38 C37 1_555 1_555
H42 C38 1_555 1_555
C39 C38 1_555 1_555
H43 C39 1_555 1_555
C40 C35 1_555 1_555
H44 C40 1_555 1_555
C13 C14 1_555 1_555
C19 C20 1_555 1_555
C33 C34 1_555 1_555
C39 C40 1_555 1_555

#END
