
#######################################################################
#
#                 Cambridge Crystallographic Data Centre
#                                CCDC 
#
#######################################################################
#
# If this CIF has been generated from an entry in the Cambridge 
# Structural Database, then it will include bibliographic, chemical, 
# crystal, experimental, refinement or atomic coordinate data resulting 
# from the CCDC's data processing and validation procedures.
#
#######################################################################

data_GURRUH
_chemical_formula_moiety         'C24 H30 O3 Si1'
_chemical_name_systematic        
'Methyl 10-((t-butyl(dimethyl)silyl)oxy)-9b,10-dihydroindeno[2,1-a]indene-4b(5H)-carboxylate'
_symmetry_cell_setting           monoclinic
_symmetry_space_group_name_H-M   'P 21/n'
_symmetry_Int_Tables_number      14
_space_group_name_Hall           '-P 2yn'
loop_
_symmetry_equiv_pos_site_id
_symmetry_equiv_pos_as_xyz
1 x,y,z
2 1/2-x,1/2+y,1/2-z
3 -x,-y,-z
4 1/2+x,1/2-y,1/2+z
_cell_length_a                   10.6192(3)
_cell_length_b                   15.2211(5)
_cell_length_c                   13.7121(5)
_cell_angle_alpha                90
_cell_angle_beta                 104.556(2)
_cell_angle_gamma                90
_cell_volume                     2145.23
_exptl_crystal_colour            colorless
_exptl_crystal_description       block
_cell_formula_units_Z            4
loop_
_atom_site_label
_atom_site_type_symbol
_atom_site_fract_x
_atom_site_fract_y
_atom_site_fract_z
Si1 Si 0.37479(5) 0.21516(3) 0.53992(4)
O1 O 0.23268(12) 0.19661(9) 0.56388(10)
O2 O -0.08870(15) 0.19611(10) 0.36878(10)
O3 O -0.13987(15) 0.08990(9) 0.46433(10)
C1 C 0.06601(19) 0.45102(12) 0.61899(14)
H1 H 0.1542 0.4545 0.6215
C2 C 0.0019(2) 0.52206(13) 0.64741(15)
H2 H 0.0478 0.5734 0.6697
C3 C -0.1295(2) 0.51761(13) 0.64306(14)
H3 H -0.1714 0.5658 0.6623
C4 C -0.19913(19) 0.44148(13) 0.61017(14)
H4 H -0.2876 0.4385 0.6066
C5 C -0.13504(17) 0.36994(12) 0.58265(12)
C6 C -0.19072(17) 0.28176(12) 0.54505(13)
H5 H -0.2476 0.2864 0.4778
H6 H -0.2392 0.2569 0.5896
C7 C -0.06864(17) 0.22496(12) 0.54483(13)
C8 C -0.02095(17) 0.17306(11) 0.64178(13)
C9 C -0.08986(18) 0.11561(12) 0.68735(14)
H7 H -0.1771 0.1039 0.6579
C10 C -0.0270(2) 0.07577(13) 0.77753(14)
H8 H -0.0725 0.0370 0.8085
C11 C 0.1032(2) 0.09328(13) 0.82196(14)
H9 H 0.1442 0.0663 0.8824
C12 C 0.17212(19) 0.15082(13) 0.77654(13)
H10 H 0.2592 0.1627 0.8061
C13 C 0.10915(17) 0.19048(12) 0.68608(13)
C14 C 0.16615(17) 0.24987(12) 0.62069(13)
H11 H 0.2234 0.2945 0.6603
C15 C 0.04507(17) 0.29114(12) 0.54919(13)
H12 H 0.0593 0.2999 0.4820
C16 C -0.00321(18) 0.37452(12) 0.58673(13)
C17 C 0.5028(2) 0.16200(15) 0.63933(16)
H13 H 0.5073 0.1900 0.7028
H14 H 0.5852 0.1675 0.6230
H15 H 0.4824 0.1009 0.6437
C18 C 0.4087(2) 0.33548(14) 0.54029(17)
H16 H 0.4152 0.3588 0.6064
H17 H 0.3393 0.3644 0.4927
H18 H 0.4891 0.3451 0.5220
C19 C 0.36026(18) 0.16351(13) 0.41287(13)
C20 C 0.2584(2) 0.21346(15) 0.33283(15)
H19 H 0.2511 0.1871 0.2680
H20 H 0.2846 0.2737 0.3312
H21 H 0.1757 0.2108 0.3492
C21 C 0.3161(2) 0.06763(14) 0.41464(16)
H22 H 0.3088 0.0415 0.3497
H23 H 0.2331 0.0658 0.4305
H24 H 0.3788 0.0357 0.4648
C22 C 0.4912(2) 0.16591(16) 0.38459(16)
H25 H 0.4817 0.1393 0.3196
H26 H 0.5550 0.1341 0.4340
H27 H 0.5188 0.2258 0.3825
C23 C -0.09740(17) 0.16956(12) 0.44910(13)
C24 C -0.1752(3) 0.03398(15) 0.37603(16)
H28 H -0.2039 -0.0220 0.3945
H29 H -0.1009 0.0258 0.3490
H30 H -0.2441 0.0611 0.3262
loop_
_geom_bond_atom_site_label_1
_geom_bond_atom_site_label_2
_geom_bond_site_symmetry_1
_geom_bond_site_symmetry_2
Si1 O1 1_555 1_555
O1 C14 1_555 1_555
O2 C23 1_555 1_555
O3 C23 1_555 1_555
C1 H1 1_555 1_555
C2 C1 1_555 1_555
H2 C2 1_555 1_555
C3 C2 1_555 1_555
H3 C3 1_555 1_555
C4 C3 1_555 1_555
H4 C4 1_555 1_555
C5 C4 1_555 1_555
C6 C5 1_555 1_555
H5 C6 1_555 1_555
H6 C6 1_555 1_555
C7 C6 1_555 1_555
C8 C7 1_555 1_555
C9 C8 1_555 1_555
H7 C9 1_555 1_555
C10 C9 1_555 1_555
H8 C10 1_555 1_555
C11 C10 1_555 1_555
H9 C11 1_555 1_555
C12 C11 1_555 1_555
H10 C12 1_555 1_555
C13 C8 1_555 1_555
C14 C13 1_555 1_555
H11 C14 1_555 1_555
C15 C7 1_555 1_555
H12 C15 1_555 1_555
C16 C1 1_555 1_555
C17 Si1 1_555 1_555
H13 C17 1_555 1_555
H14 C17 1_555 1_555
H15 C17 1_555 1_555
C18 Si1 1_555 1_555
H16 C18 1_555 1_555
H17 C18 1_555 1_555
H18 C18 1_555 1_555
C19 Si1 1_555 1_555
C20 C19 1_555 1_555
H19 C20 1_555 1_555
H20 C20 1_555 1_555
H21 C20 1_555 1_555
C21 C19 1_555 1_555
H22 C21 1_555 1_555
H23 C21 1_555 1_555
H24 C21 1_555 1_555
C22 C19 1_555 1_555
H25 C22 1_555 1_555
H26 C22 1_555 1_555
H27 C22 1_555 1_555
C23 C7 1_555 1_555
C24 O3 1_555 1_555
H28 C24 1_555 1_555
H29 C24 1_555 1_555
H30 C24 1_555 1_555
C5 C16 1_555 1_555
C12 C13 1_555 1_555
C14 C15 1_555 1_555
C15 C16 1_555 1_555

#END
