
#######################################################################
#
#                 Cambridge Crystallographic Data Centre
#                                CCDC 
#
#######################################################################
#
# If this CIF has been generated from an entry in the Cambridge 
# Structural Database, then it will include bibliographic, chemical, 
# crystal, experimental, refinement or atomic coordinate data resulting 
# from the CCDC's data processing and validation procedures.
#
#######################################################################

data_GURZOK
_chemical_name_common            HOF-2
_chemical_formula_moiety         'C36 H34 N20 O2,C8 H10 O1'
_chemical_name_systematic        
"6,6',6'',6'''-(2,2'-diethoxy-1,1'-binaphthalene-4,4',6,6'-tetrayl)tetrakis(1,3,5-triazine-2,4-diamine) R-1-phenylethanol unknown solvate"
_symmetry_cell_setting           hexagonal
_symmetry_space_group_name_H-M   'P 65'
_symmetry_Int_Tables_number      170
_space_group_name_Hall           'P 65'
loop_
_symmetry_equiv_pos_site_id
_symmetry_equiv_pos_as_xyz
1 x,y,z
2 -y,x-y,2/3+z
3 -x+y,-x,1/3+z
4 -x,-y,1/2+z
5 y,-x+y,1/6+z
6 x-y,x,5/6+z
_cell_length_a                   11.9083(3)
_cell_length_b                   11.9083(3)
_cell_length_c                   71.9218(7)
_cell_angle_alpha                90
_cell_angle_beta                 90
_cell_angle_gamma                120
_cell_volume                     8832.64
_exptl_crystal_colour            yellow
_exptl_crystal_description       block
_cell_formula_units_Z            6
loop_
_atom_site_label
_atom_site_type_symbol
_atom_site_fract_x
_atom_site_fract_y
_atom_site_fract_z
N1 N 0.4136(4) 0.7534(4) 0.99606(5)
N2 N 0.5964(5) 0.9443(4) 1.00721(7)
N3 N 0.4372(5) 0.9554(5) 0.98772(8)
N4 N 0.5620(5) 0.7516(5) 1.01567(8)
H1 H 0.6323 0.7907 1.0221
H2 H 0.5176 0.6681 1.0155
N5 N 0.6207(9) 1.1466(6) 0.99703(12)
H3 H 0.5972 1.1883 0.9897
H4 H 0.6906 1.1881 1.0035
N6 N 0.0731(5) 0.4558(4) 1.03042(8)
N7 N -0.0482(7) 0.2835(6) 1.05099(9)
N8 N -0.1045(6) 0.2726(5) 1.01811(8)
N9 N 0.1302(6) 0.4666(5) 1.06128(7)
H5 H 0.1984 0.5408 1.0593
H6 H 0.1147 0.4330 1.0722
N10 N -0.2102(8) 0.1000(6) 1.03733(12)
H7 H -0.2254 0.0590 1.0477
H8 H -0.2553 0.0610 1.0276
N11 N -0.4137(4) 0.3404(4) 0.88801(7)
N12 N -0.5921(5) 0.3566(5) 0.87596(7)
N13 N -0.4386(5) 0.5149(5) 0.89604(9)
N14 N -0.5636(4) 0.1868(5) 0.86831(7)
H9 H -0.6345 0.1548 0.8620
H10 H -0.5206 0.1463 0.8688
N15 N -0.6106(6) 0.5297(7) 0.88460(11)
H11 H -0.6727 0.5069 0.8767
H12 H -0.5862 0.5979 0.8913
N16 N -0.0771(4) 0.3865(5) 0.85282(6)
N17 N 0.0526(7) 0.3358(10) 0.83344(8)
N18 N 0.1018(5) 0.3726(6) 0.86493(8)
N19 N -0.1227(5) 0.3467(6) 0.82209(7)
H13 H -0.1889 0.3576 0.8227
H14 H -0.1011 0.3275 0.8116
N20 N 0.2255(8) 0.3243(11) 0.84398(12)
H15 H 0.2458 0.3214 0.8326
H16 H 0.2731 0.3219 0.8528
C1 C 0.0469(6) 0.6566(8) 0.94971(9)
C2 C 0.1438(6) 0.6382(5) 0.97850(8)
C3 C 0.1270(5) 0.5734(5) 0.99554(6)
H17 H 0.1919 0.6104 1.0045
C4 C 0.0160(6) 0.4556(5) 0.99931(8)
C5 C -0.0730(7) 0.3971(8) 0.98501(12)
H18 H -0.1391 0.3112 0.9862
C6 C -0.0637(5) 0.4692(6) 0.96818(8)
H19 H -0.1302 0.4356 0.9594
C7 C 0.0471(6) 0.5896(6) 0.96549(9)
C8 C 0.3756(5) 0.8291(5) 0.98714(8)
C9 C 0.5439(8) 1.0091(5) 0.99849(10)
C10 C 0.5225(6) 0.8194(5) 1.00603(7)
C11 C -0.0001(6) 0.3927(5) 1.01716(10)
C12 C 0.0501(6) 0.4047(6) 1.04759(9)
C13 C -0.1222(8) 0.2169(8) 1.03632(13)
C14 C -0.2611(6) 0.5034(6) 0.90870(8)
C15 C -0.1505(6) 0.4923(6) 0.90554(7)
C16 C -0.1250(6) 0.4444(7) 0.88903(7)
H20 H -0.1882 0.4142 0.8798
C17 C -0.0180(6) 0.4390(6) 0.88567(8)
C18 C 0.0754(6) 0.4765(8) 0.90009(9)
H21 H 0.1466 0.4645 0.8987
C19 C 0.0606(6) 0.5283(9) 0.91545(9)
H22 H 0.1256 0.5579 0.9244
C20 C -0.0450(6) 0.5403(6) 0.91874(8)
C21 C -0.3709(6) 0.4545(7) 0.89652(9)
C22 C -0.5534(7) 0.4605(8) 0.88638(12)
C23 C -0.5219(5) 0.2947(6) 0.87699(7)
C24 C 0.0056(6) 0.3954(7) 0.86662(7)
C25 C -0.0529(7) 0.3596(9) 0.83756(10)
C26 C 0.1132(9) 0.3331(10) 0.84826(11)
C27 C 0.1514(10) 0.7754(8) 0.94763(11)
C28 C 0.2600(8) 0.8339(7) 0.95980(12)
H23 H 0.3303 0.9161 0.9574
C29 C 0.2568(7) 0.7655(5) 0.97483(9)
O1 O 0.1660(10) 0.8454(6) 0.93056(13)
C30 C -0.2441(16) 0.8065(17) 0.9724(2)
H24 H -0.1883 0.8950 0.9680
H25 H -0.2048 0.7814 0.9841
H26 H -0.3286 0.7926 0.9755
O2 O -0.1602(6) 0.6914(8) 0.95307(8)
C31 C -0.0611(7) 0.6039(7) 0.93618(8)
C32 C -0.1565(8) 0.6212(7) 0.93770(8)
C33 C -0.2582(7) 0.5719(8) 0.92567(11)
H27 H -0.3290 0.5824 0.9284
C34 C 0.279(2) 0.900(3) 0.9173(3)
H28 H 0.3576 0.9579 0.9241
H29 H 0.2894 0.8288 0.9126
C35 C 0.267(2) 0.971(2) 0.9013(3)
H30 H 0.3371 0.9931 0.8928
H31 H 0.2697 1.0484 0.9057
H32 H 0.1857 0.9168 0.8951
C36 C -0.271(3) 0.706(4) 0.9572(5)
H33 H -0.3426 0.6227 0.9612
H34 H -0.2976 0.7315 0.9460
O3 O 0.04052 0.92661 0.95056
C37 C 0.06590 1.05284 0.95727
C38 C 0.19834 1.15349 0.94984
C39 C 0.06511 1.04951 0.97813
C40 C 0.06454 1.15104 0.98790
C41 C 0.06438 1.15104 1.00728
C42 C 0.06438 1.04962 1.01702
C43 C 0.06438 0.94817 1.00733
C44 C 0.06482 0.94793 0.98793
H35 H 0.08511 0.92008 0.94142
H36 H 0.19482 1.16024 0.93439
H37 H 0.27258 1.12602 0.95351
H38 H 0.22771 1.25037 0.95601
H39 H -0.00955 1.07741 0.95237
H40 H 0.06419 1.23088 0.98024
H41 H 0.06409 1.23105 1.01489
H42 H 0.06422 0.86763 0.98022
H43 H 0.06416 1.04972 1.03232
H44 H 0.06400 0.87792 1.01297
loop_
_geom_bond_atom_site_label_1
_geom_bond_atom_site_label_2
_geom_bond_site_symmetry_1
_geom_bond_site_symmetry_2
N1 C8 1_555 1_555
N2 C9 1_555 1_555
N3 C8 1_555 1_555
N4 H1 1_555 1_555
H2 N4 1_555 1_555
N5 H3 1_555 1_555
H4 N5 1_555 1_555
N6 C11 1_555 1_555
N7 C12 1_555 1_555
N8 C11 1_555 1_555
N9 H5 1_555 1_555
H6 N9 1_555 1_555
N10 H7 1_555 1_555
H8 N10 1_555 1_555
N11 C21 1_555 1_555
N12 C22 1_555 1_555
N13 C21 1_555 1_555
N14 H9 1_555 1_555
H10 N14 1_555 1_555
N15 H11 1_555 1_555
H12 N15 1_555 1_555
N16 C24 1_555 1_555
N17 C25 1_555 1_555
N18 C24 1_555 1_555
N19 H13 1_555 1_555
H14 N19 1_555 1_555
N20 H15 1_555 1_555
H16 N20 1_555 1_555
C1 C7 1_555 1_555
C2 C3 1_555 1_555
C3 H17 1_555 1_555
C4 C3 1_555 1_555
C5 C4 1_555 1_555
H18 C5 1_555 1_555
C6 C5 1_555 1_555
H19 C6 1_555 1_555
C7 C2 1_555 1_555
C8 C29 1_555 1_555
C9 N3 1_555 1_555
C10 N1 1_555 1_555
C11 C4 1_555 1_555
C12 N6 1_555 1_555
C13 N7 1_555 1_555
C14 C15 1_555 1_555
C15 C16 1_555 1_555
C16 H20 1_555 1_555
C17 C16 1_555 1_555
C18 C17 1_555 1_555
H21 C18 1_555 1_555
C19 C18 1_555 1_555
H22 C19 1_555 1_555
C20 C15 1_555 1_555
C21 C14 1_555 1_555
C22 N13 1_555 1_555
C23 N11 1_555 1_555
C24 C17 1_555 1_555
C25 N16 1_555 1_555
C26 N17 1_555 1_555
C27 C1 1_555 1_555
C28 C27 1_555 1_555
H23 C28 1_555 1_555
C29 C2 1_555 1_555
O1 C27 1_555 1_555
C30 H24 1_555 1_555
H25 C30 1_555 1_555
H26 C30 1_555 1_555
O2 C32 1_555 1_555
C31 C1 1_555 1_555
C32 C31 1_555 1_555
C33 C14 1_555 1_555
H27 C33 1_555 1_555
C34 O1 1_555 1_555
H28 C34 1_555 1_555
H29 C34 1_555 1_555
C35 C34 1_555 1_555
H30 C35 1_555 1_555
H31 C35 1_555 1_555
H32 C35 1_555 1_555
C36 C30 1_555 1_555
H33 C36 1_555 1_555
H34 C36 1_555 1_555
O3 C37 1_555 1_555
C37 C38 1_555 1_555
C38 H36 1_555 1_555
C39 C37 1_555 1_555
C40 C39 1_555 1_555
C41 C40 1_555 1_555
C42 C41 1_555 1_555
C43 C42 1_555 1_555
C44 C39 1_555 1_555
H35 O3 1_555 1_555
H37 C38 1_555 1_555
H38 C38 1_555 1_555
H39 C37 1_555 1_555
H40 C40 1_555 1_555
H41 C41 1_555 1_555
H42 C44 1_555 1_555
H43 C42 1_555 1_555
H44 C43 1_555 1_555
N2 C10 1_555 1_555
N4 C10 1_555 1_555
N5 C9 1_555 1_555
N8 C13 1_555 1_555
N9 C12 1_555 1_555
N10 C13 1_555 1_555
N12 C23 1_555 1_555
N14 C23 1_555 1_555
N15 C22 1_555 1_555
N18 C26 1_555 1_555
N19 C25 1_555 1_555
N20 C26 1_555 1_555
C6 C7 1_555 1_555
C19 C20 1_555 1_555
C20 C31 1_555 1_555
C28 C29 1_555 1_555
O2 C36 1_555 1_555
C32 C33 1_555 1_555
C43 C44 1_555 1_555

#END
