
#######################################################################
#
#                 Cambridge Crystallographic Data Centre
#                                CCDC 
#
#######################################################################
#
# If this CIF has been generated from an entry in the Cambridge 
# Structural Database, then it will include bibliographic, chemical, 
# crystal, experimental, refinement or atomic coordinate data resulting 
# from the CCDC's data processing and validation procedures.
#
#######################################################################

data_GUSMAK
_chemical_formula_moiety         'C64 H78 Si2'
_chemical_name_systematic        
(tetraceno[2,1,12-qra]tetracene-8,17-diyldiethyne-2,1-diyl)bis(diisopropyl(octyl)silane)
_symmetry_cell_setting           triclinic
_symmetry_space_group_name_H-M   'P -1'
_symmetry_Int_Tables_number      2
_space_group_name_Hall           '-P 1'
loop_
_symmetry_equiv_pos_site_id
_symmetry_equiv_pos_as_xyz
1 x,y,z
2 -x,-y,-z
_cell_length_a                   11.7625(3)
_cell_length_b                   12.8916(3)
_cell_length_c                   18.7532(4)
_cell_angle_alpha                97.595(2)
_cell_angle_beta                 106.386(1)
_cell_angle_gamma                95.691(2)
_cell_volume                     2676.27
_exptl_crystal_colour            blue
_exptl_crystal_description       tablet
_cell_formula_units_Z            2
loop_
_atom_site_label
_atom_site_type_symbol
_atom_site_fract_x
_atom_site_fract_y
_atom_site_fract_z
Si1 Si 0.55390(6) 0.21699(5) 0.19950(4)
Si2 Si -0.00412(6) 0.29560(5) 0.78773(4)
C1 C 0.37282(19) 0.32465(17) 0.36924(13)
C2 C 0.38166(19) 0.43549(17) 0.39371(12)
C3 C 0.4270(2) 0.50953(18) 0.35666(13)
H1 H 0.4521 0.4850 0.3143
C4 C 0.4363(2) 0.61787(18) 0.37992(14)
C5 C 0.4815(2) 0.69347(19) 0.34179(15)
H2 H 0.5056 0.6701 0.2988
C6 C 0.4902(2) 0.7986(2) 0.36660(16)
H3 H 0.5203 0.8481 0.3408
C7 C 0.4550(2) 0.83501(19) 0.43051(16)
H4 H 0.4618 0.9089 0.4471
C8 C 0.4116(2) 0.76590(18) 0.46849(15)
H5 H 0.3890 0.7917 0.5116
C9 C 0.39985(19) 0.65446(17) 0.44394(14)
C10 C 0.35471(19) 0.58104(17) 0.48124(13)
H6 H 0.3316 0.6061 0.5243
C11 C 0.34237(19) 0.47198(17) 0.45735(13)
C12 C 0.29427(18) 0.39584(16) 0.49509(12)
C13 C 0.2537(2) 0.42767(17) 0.55857(13)
H7 H 0.2604 0.5010 0.5770
C14 C 0.2063(2) 0.35713(17) 0.59306(13)
H8 H 0.1798 0.3819 0.6348
C15 C 0.19508(19) 0.24595(17) 0.56823(12)
C16 C 0.14298(19) 0.17290(17) 0.60283(12)
C17 C 0.13530(19) 0.06195(17) 0.57883(13)
C18 C 0.0830(2) -0.01213(18) 0.61263(13)
H9 H 0.0508 0.0124 0.6518
C19 C 0.0767(2) -0.12022(19) 0.59088(14)
C20 C 0.0232(2) -0.1965(2) 0.62524(16)
H10 H -0.0099 -0.1733 0.6643
C21 C 0.0194(2) -0.3015(2) 0.60248(17)
H11 H -0.0160 -0.3514 0.6258
C22 C 0.0680(2) -0.3373(2) 0.54425(17)
H12 H 0.0656 -0.4110 0.5294
C23 C 0.1179(2) -0.26795(19) 0.50930(16)
H13 H 0.1484 -0.2936 0.4696
C24 C 0.1248(2) -0.15671(18) 0.53171(14)
C25 C 0.1744(2) -0.08332(17) 0.49671(13)
H14 H 0.2047 -0.1083 0.4567
C26 C 0.18134(19) 0.02551(16) 0.51802(12)
C27 C 0.22996(19) 0.10180(17) 0.48061(12)
C28 C 0.2698(2) 0.06988(17) 0.41685(13)
H15 H 0.2651 -0.0034 0.3992
C29 C 0.3140(2) 0.14042(17) 0.38097(13)
H16 H 0.3383 0.1156 0.3383
C30 C 0.32508(19) 0.25155(16) 0.40547(12)
C31 C 0.28542(18) 0.28704(16) 0.46900(12)
C32 C 0.23710(18) 0.21056(16) 0.50587(12)
C33 C 0.4199(2) 0.28946(17) 0.30905(13)
C34 C 0.4641(2) 0.26173(17) 0.26058(13)
C35 C 0.6402(2) 0.33845(19) 0.18381(14)
H17 H 0.6844 0.3148 0.1476
C36 C 0.7322(3) 0.3977(3) 0.25555(18)
H18 H 0.7743 0.4600 0.2443
H19 H 0.7899 0.3512 0.2758
H20 H 0.6917 0.4201 0.2928
C37 C 0.5570(3) 0.4141(2) 0.14813(19)
H21 H 0.5121 0.4387 0.1823
H22 H 0.5009 0.3771 0.1002
H23 H 0.6047 0.4749 0.1391
C38 C 0.6569(2) 0.13186(19) 0.25329(14)
H24 H 0.7154 0.1804 0.2972
C39 C 0.5950(3) 0.0488(2) 0.28594(18)
H25 H 0.5371 -0.0013 0.2448
H26 H 0.5531 0.0835 0.3187
H27 H 0.6548 0.0108 0.3154
C40 C 0.7301(3) 0.0824(3) 0.20604(18)
H28 H 0.7861 0.0420 0.2362
H29 H 0.7750 0.1383 0.1900
H30 H 0.6762 0.0351 0.1615
C41 C 0.4561(2) 0.1445(2) 0.10593(14)
H31 H 0.4224 0.1978 0.0757
H32 H 0.5079 0.1090 0.0801
C42 C 0.3530(2) 0.0627(2) 0.10362(15)
H33 H 0.2958 0.0982 0.1245
H34 H 0.3843 0.0113 0.1364
C43 C 0.2868(2) 0.0031(2) 0.02530(15)
H35 H 0.2622 0.0550 -0.0085
H36 H 0.3426 -0.0374 0.0063
C44 C 0.1773(3) -0.0722(2) 0.02080(16)
H37 H 0.1173 -0.0306 0.0336
H38 H 0.1999 -0.1182 0.0593
C45 C 0.1198(3) -0.1414(2) -0.05510(15)
H39 H 0.1039 -0.0957 -0.0943
H40 H 0.1770 -0.1880 -0.0658
C46 C 0.0046(3) -0.2089(3) -0.06094(18)
H41 H -0.0537 -0.1617 -0.0528
H42 H 0.0200 -0.2510 -0.0196
C47 C -0.0524(4) -0.2835(3) -0.1345(2)
H43 H 0.0049 -0.3322 -0.1419
H44 H -0.1238 -0.3268 -0.1303
C48 C -0.0888(3) -0.2339(3) -0.2016(2)
H45 H -0.1468 -0.1863 -0.1957
H46 H -0.1257 -0.2887 -0.2460
H47 H -0.0184 -0.1935 -0.2081
C49 C 0.0955(2) 0.21003(18) 0.66213(13)
C50 C 0.0548(2) 0.24261(19) 0.71151(14)
C51 C -0.0575(3) 0.1802(2) 0.82745(15)
H48 H -0.0831 0.2092 0.8717
C52 C 0.0430(4) 0.1166(3) 0.8558(2)
H49 H 0.0148 0.0607 0.8801
H50 H 0.1111 0.1633 0.8924
H51 H 0.0679 0.0846 0.8133
C53 C -0.1658(4) 0.1097(3) 0.77076(19)
H52 H -0.1429 0.0780 0.7273
H53 H -0.2298 0.1522 0.7538
H54 H -0.1943 0.0536 0.7947
C54 C -0.1296(2) 0.3690(2) 0.74496(15)
H55 H -0.1913 0.3173 0.7048
C55 C -0.1899(3) 0.4116(3) 0.80317(18)
H56 H -0.1315 0.4623 0.8437
H57 H -0.2198 0.3529 0.8243
H58 H -0.2568 0.4470 0.7787
C56 C -0.0878(3) 0.4578(2) 0.70702(17)
H59 H -0.1570 0.4896 0.6812
H60 H -0.0496 0.4285 0.6703
H61 H -0.0303 0.5119 0.7454
C57 C 0.1237(2) 0.3841(2) 0.86142(14)
H62 H 0.1981 0.3536 0.8627
H63 H 0.1321 0.4537 0.8450
C58 C 0.1152(3) 0.4030(2) 0.94190(16)
H64 H 0.0517 0.4476 0.9435
H65 H 0.0909 0.3343 0.9553
C59 C 0.2318(3) 0.4565(2) 1.00068(16)
H66 H 0.2256 0.4487 1.0513
H67 H 0.2978 0.4188 0.9928
C60 C 0.2641(3) 0.5717(2) 0.99959(16)
H68 H 0.2043 0.6113 1.0146
H69 H 0.2601 0.5811 0.9474
C61 C 0.3883(3) 0.6181(2) 1.05171(16)
H70 H 0.3935 0.6045 1.1032
H71 H 0.4481 0.5809 1.0348
C62 C 0.4205(3) 0.7346(2) 1.05521(19)
H72 H 0.3702 0.7726 1.0810
H73 H 0.4006 0.7499 1.0031
C63 C 0.5535(3) 0.7790(3) 1.09621(19)
H74 H 0.6038 0.7437 1.0690
H75 H 0.5661 0.8554 1.0939
C64 C 0.5938(3) 0.7649(3) 1.1760(2)
H76 H 0.5407 0.7947 1.2026
H77 H 0.6758 0.8012 1.1996
H78 H 0.5917 0.6893 1.1786
loop_
_geom_bond_atom_site_label_1
_geom_bond_atom_site_label_2
_geom_bond_site_symmetry_1
_geom_bond_site_symmetry_2
Si1 C34 1_555 1_555
Si2 C50 1_555 1_555
C1 C2 1_555 1_555
C2 C3 1_555 1_555
C3 H1 1_555 1_555
C4 C3 1_555 1_555
C5 C4 1_555 1_555
H2 C5 1_555 1_555
C6 C5 1_555 1_555
H3 C6 1_555 1_555
C7 C6 1_555 1_555
H4 C7 1_555 1_555
C8 C7 1_555 1_555
H5 C8 1_555 1_555
C9 C4 1_555 1_555
C10 C9 1_555 1_555
H6 C10 1_555 1_555
C11 C2 1_555 1_555
C12 C11 1_555 1_555
C13 C12 1_555 1_555
H7 C13 1_555 1_555
C14 C13 1_555 1_555
H8 C14 1_555 1_555
C15 C14 1_555 1_555
C16 C15 1_555 1_555
C17 C16 1_555 1_555
C18 C17 1_555 1_555
H9 C18 1_555 1_555
C19 C18 1_555 1_555
C20 C19 1_555 1_555
H10 C20 1_555 1_555
C21 C20 1_555 1_555
H11 C21 1_555 1_555
C22 C21 1_555 1_555
H12 C22 1_555 1_555
C23 C22 1_555 1_555
H13 C23 1_555 1_555
C24 C19 1_555 1_555
C25 C24 1_555 1_555
H14 C25 1_555 1_555
C26 C17 1_555 1_555
C27 C26 1_555 1_555
C28 C27 1_555 1_555
H15 C28 1_555 1_555
C29 C28 1_555 1_555
H16 C29 1_555 1_555
C30 C1 1_555 1_555
C31 C12 1_555 1_555
C32 C15 1_555 1_555
C33 C1 1_555 1_555
C34 C33 1_555 1_555
C35 Si1 1_555 1_555
H17 C35 1_555 1_555
C36 C35 1_555 1_555
H18 C36 1_555 1_555
H19 C36 1_555 1_555
H20 C36 1_555 1_555
C37 C35 1_555 1_555
H21 C37 1_555 1_555
H22 C37 1_555 1_555
H23 C37 1_555 1_555
C38 Si1 1_555 1_555
H24 C38 1_555 1_555
C39 C38 1_555 1_555
H25 C39 1_555 1_555
H26 C39 1_555 1_555
H27 C39 1_555 1_555
C40 C38 1_555 1_555
H28 C40 1_555 1_555
H29 C40 1_555 1_555
H30 C40 1_555 1_555
C41 Si1 1_555 1_555
H31 C41 1_555 1_555
H32 C41 1_555 1_555
C42 C41 1_555 1_555
H33 C42 1_555 1_555
H34 C42 1_555 1_555
C43 C42 1_555 1_555
H35 C43 1_555 1_555
H36 C43 1_555 1_555
C44 C43 1_555 1_555
H37 C44 1_555 1_555
H38 C44 1_555 1_555
C45 C44 1_555 1_555
H39 C45 1_555 1_555
H40 C45 1_555 1_555
C46 C45 1_555 1_555
H41 C46 1_555 1_555
H42 C46 1_555 1_555
C47 C46 1_555 1_555
H43 C47 1_555 1_555
H44 C47 1_555 1_555
C48 C47 1_555 1_555
H45 C48 1_555 1_555
H46 C48 1_555 1_555
H47 C48 1_555 1_555
C49 C16 1_555 1_555
C50 C49 1_555 1_555
C51 Si2 1_555 1_555
H48 C51 1_555 1_555
C52 C51 1_555 1_555
H49 C52 1_555 1_555
H50 C52 1_555 1_555
H51 C52 1_555 1_555
C53 C51 1_555 1_555
H52 C53 1_555 1_555
H53 C53 1_555 1_555
H54 C53 1_555 1_555
C54 Si2 1_555 1_555
H55 C54 1_555 1_555
C55 C54 1_555 1_555
H56 C55 1_555 1_555
H57 C55 1_555 1_555
H58 C55 1_555 1_555
C56 C54 1_555 1_555
H59 C56 1_555 1_555
H60 C56 1_555 1_555
H61 C56 1_555 1_555
C57 Si2 1_555 1_555
H62 C57 1_555 1_555
H63 C57 1_555 1_555
C58 C57 1_555 1_555
H64 C58 1_555 1_555
H65 C58 1_555 1_555
C59 C58 1_555 1_555
H66 C59 1_555 1_555
H67 C59 1_555 1_555
C60 C59 1_555 1_555
H68 C60 1_555 1_555
H69 C60 1_555 1_555
C61 C60 1_555 1_555
H70 C61 1_555 1_555
H71 C61 1_555 1_555
C62 C61 1_555 1_555
H72 C62 1_555 1_555
H73 C62 1_555 1_555
C63 C62 1_555 1_555
H74 C63 1_555 1_555
H75 C63 1_555 1_555
C64 C63 1_555 1_555
H76 C64 1_555 1_555
H77 C64 1_555 1_555
H78 C64 1_555 1_555
C8 C9 1_555 1_555
C10 C11 1_555 1_555
C23 C24 1_555 1_555
C25 C26 1_555 1_555
C27 C32 1_555 1_555
C29 C30 1_555 1_555
C30 C31 1_555 1_555
C31 C32 1_555 1_555

#END
