
#######################################################################
#
#                 Cambridge Crystallographic Data Centre
#                                CCDC 
#
#######################################################################
#
# If this CIF has been generated from an entry in the Cambridge 
# Structural Database, then it will include bibliographic, chemical, 
# crystal, experimental, refinement or atomic coordinate data resulting 
# from the CCDC's data processing and validation procedures.
#
#######################################################################

data_GUSNUF
_chemical_formula_moiety         'C46 H30 Cl1 N1 O4'
_chemical_name_systematic        
19-(2-(4-chloro-3-methylphenoxy)phenyl)-1,16-diphenyl-19-azahexacyclo[14.5.1.0^2,15^.0^3,8^.0^9,14^.0^17,21^]docosa-2(15),3,5,7,9,11,13-heptaene-18,20,22-trione
_symmetry_cell_setting           triclinic
_symmetry_space_group_name_H-M   'P -1'
_symmetry_Int_Tables_number      2
_space_group_name_Hall           '-P 1'
loop_
_symmetry_equiv_pos_site_id
_symmetry_equiv_pos_as_xyz
1 x,y,z
2 -x,-y,-z
_cell_length_a                   9.6849(9)
_cell_length_b                   11.8004(11)
_cell_length_c                   16.0900(15)
_cell_angle_alpha                80.080(2)
_cell_angle_beta                 80.090(2)
_cell_angle_gamma                80.508(2)
_cell_volume                     1766.92
_exptl_crystal_colour            colorless
_exptl_crystal_description       plate
_cell_formula_units_Z            2
loop_
_atom_site_label
_atom_site_type_symbol
_atom_site_fract_x
_atom_site_fract_y
_atom_site_fract_z
O1 O 0.32104(15) 0.47057(12) -0.02443(9)
O2 O 0.36968(16) 0.66388(13) 0.25617(9)
O3 O 0.20608(16) 0.31257(13) 0.32263(9)
O4 O 0.40397(16) 0.36838(13) 0.43876(9)
N1 N 0.27796(18) 0.49300(15) 0.30716(10)
C1 C 0.2801(2) 0.48055(17) 0.04861(13)
C2 C 0.2732(2) 0.58591(17) 0.09571(12)
C3 C 0.3720(2) 0.52176(17) 0.16201(12)
H1 H 0.4740 0.5188 0.1365
C4 C 0.3435(2) 0.57165(19) 0.24424(13)
C5 C 0.2628(2) 0.39078(19) 0.27929(13)
C6 C 0.3289(2) 0.39843(18) 0.18582(12)
H2 H 0.4134 0.3378 0.1780
C7 C 0.2208(2) 0.39226(17) 0.12427(12)
C8 C 0.0872(2) 0.47372(17) 0.15343(12)
C9 C 0.1196(2) 0.58475(17) 0.13987(12)
C10 C 0.0204(2) 0.67905(18) 0.16989(12)
C11 C 0.0582(2) 0.78956(18) 0.17050(13)
H3 H 0.1531 0.8033 0.1509
C12 C -0.0405(3) 0.87701(19) 0.19899(14)
H4 H -0.0136 0.9506 0.2000
C13 C -0.1806(3) 0.8580(2) 0.22649(14)
H5 H -0.2497 0.9201 0.2434
C14 C -0.2194(2) 0.75092(19) 0.22941(13)
H6 H -0.3150 0.7394 0.2494
C15 C -0.1201(2) 0.65710(18) 0.20323(12)
C16 C -0.1564(2) 0.53993(18) 0.21399(12)
C17 C -0.2930(2) 0.5143(2) 0.25044(13)
H7 H -0.3664 0.5763 0.2617
C18 C -0.3228(2) 0.4022(2) 0.27010(13)
H8 H -0.4153 0.3873 0.2955
C19 C -0.2171(2) 0.3104(2) 0.25283(13)
H9 H -0.2374 0.2327 0.2674
C20 C -0.0838(2) 0.33156(19) 0.21475(13)
H10 H -0.0129 0.2682 0.2026
C21 C -0.0506(2) 0.44622(18) 0.19334(12)
C22 C 0.3156(2) 0.69370(17) 0.03890(12)
C23 C 0.4261(2) 0.74850(18) 0.05068(13)
H11 H 0.4764 0.7190 0.0974
C24 C 0.4634(2) 0.84546(19) -0.00494(14)
H12 H 0.5392 0.8819 0.0037
C25 C 0.3911(2) 0.88969(19) -0.07301(14)
H13 H 0.4167 0.9565 -0.1110
C26 C 0.2808(2) 0.83598(18) -0.08550(13)
H14 H 0.2306 0.8661 -0.1321
C27 C 0.2437(2) 0.73855(18) -0.03011(13)
H15 H 0.1684 0.7019 -0.0393
C28 C 0.2087(2) 0.27536(17) 0.10389(12)
C29 C 0.1516(2) 0.26885(18) 0.03119(13)
H16 H 0.1227 0.3381 -0.0051
C30 C 0.1367(2) 0.16294(18) 0.01162(14)
H17 H 0.0977 0.1597 -0.0381
C31 C 0.1780(2) 0.06102(19) 0.06372(14)
H18 H 0.1674 -0.0119 0.0500
C32 C 0.2349(2) 0.06629(19) 0.13600(14)
H19 H 0.2635 -0.0033 0.1720
C33 C 0.2503(2) 0.17255(18) 0.15592(13)
H20 H 0.2895 0.1754 0.2056
C34 C 0.2282(2) 0.51809(19) 0.39252(13)
C35 C 0.2898(2) 0.45206(19) 0.45917(14)
C36 C 0.2423(2) 0.4750(2) 0.54169(14)
H21 H 0.2833 0.4290 0.5881
C37 C 0.1348(3) 0.5651(2) 0.55585(15)
H22 H 0.1018 0.5809 0.6124
C38 C 0.0745(3) 0.6326(2) 0.48876(15)
H23 H 0.0010 0.6949 0.4990
C39 C 0.1218(2) 0.6089(2) 0.40684(14)
H24 H 0.0812 0.6551 0.3603
Cl1 Cl 0.4802(3) -0.07148(19) 0.67648(14)
C40 C 0.4269(6) 0.2641(3) 0.4946(3)
C41 C 0.3330(5) 0.1844(4) 0.5019(3)
H25 H 0.2586 0.2004 0.4683
C42 C 0.3479(4) 0.0814(3) 0.5585(3)
H26 H 0.2837 0.0270 0.5635
C43 C 0.4568(4) 0.0581(2) 0.6077(2)
C44 C 0.5508(4) 0.1378(3) 0.6004(2)
C45 C 0.5358(4) 0.2407(3) 0.5438(3)
H27 H 0.6001 0.2952 0.5388
C46 C 0.6797(7) 0.1115(6) 0.6492(4)
H28 H 0.6467 0.0959 0.7107
H29 H 0.7315 0.1785 0.6370
H30 H 0.7423 0.0433 0.6310
Cl2? Cl 0.5257(3) -0.0387(2) 0.69178(15)
C47? C 0.4213(6) 0.2784(3) 0.5033(3)
C48? C 0.5299(5) 0.2742(3) 0.5506(3)
H31? H 0.5803 0.3386 0.5435
C49? C 0.5647(4) 0.1757(3) 0.6082(2)
H32? H 0.6389 0.1728 0.6406
C50? C 0.4909(4) 0.0814(2) 0.6186(2)
C51? C 0.3823(4) 0.0857(3) 0.5713(2)
C52? C 0.3475(5) 0.1842(4) 0.5137(3)
H33? H 0.2733 0.1871 0.4814
C53? C 0.2952(6) -0.0141(5) 0.5776(4)
H34? H 0.3590 -0.0877 0.5763
H35? H 0.2421 -0.0001 0.5293
H36? H 0.2290 -0.0182 0.6311
loop_
_geom_bond_atom_site_label_1
_geom_bond_atom_site_label_2
_geom_bond_site_symmetry_1
_geom_bond_site_symmetry_2
O1 C1 1_555 1_555
O2 C4 1_555 1_555
O3 C5 1_555 1_555
O4 C35 1_555 1_555
N1 C4 1_555 1_555
C1 C2 1_555 1_555
C2 C3 1_555 1_555
C3 H1 1_555 1_555
C4 C3 1_555 1_555
C5 N1 1_555 1_555
C6 C3 1_555 1_555
H2 C6 1_555 1_555
C7 C1 1_555 1_555
C8 C7 1_555 1_555
C9 C2 1_555 1_555
C10 C9 1_555 1_555
C11 C10 1_555 1_555
H3 C11 1_555 1_555
C12 C11 1_555 1_555
H4 C12 1_555 1_555
C13 C12 1_555 1_555
H5 C13 1_555 1_555
C14 C13 1_555 1_555
H6 C14 1_555 1_555
C15 C10 1_555 1_555
C16 C15 1_555 1_555
C17 C16 1_555 1_555
H7 C17 1_555 1_555
C18 C17 1_555 1_555
H8 C18 1_555 1_555
C19 C18 1_555 1_555
H9 C19 1_555 1_555
C20 C19 1_555 1_555
H10 C20 1_555 1_555
C21 C8 1_555 1_555
C22 C2 1_555 1_555
C23 C22 1_555 1_555
H11 C23 1_555 1_555
C24 C23 1_555 1_555
H12 C24 1_555 1_555
C25 C24 1_555 1_555
H13 C25 1_555 1_555
C26 C25 1_555 1_555
H14 C26 1_555 1_555
C27 C22 1_555 1_555
H15 C27 1_555 1_555
C28 C7 1_555 1_555
C29 C28 1_555 1_555
H16 C29 1_555 1_555
C30 C29 1_555 1_555
H17 C30 1_555 1_555
C31 C30 1_555 1_555
H18 C31 1_555 1_555
C32 C31 1_555 1_555
H19 C32 1_555 1_555
C33 C28 1_555 1_555
H20 C33 1_555 1_555
C34 N1 1_555 1_555
C35 C34 1_555 1_555
C36 C35 1_555 1_555
H21 C36 1_555 1_555
C37 C36 1_555 1_555
H22 C37 1_555 1_555
C38 C37 1_555 1_555
H23 C38 1_555 1_555
C39 C34 1_555 1_555
H24 C39 1_555 1_555
Cl1 C43 1_555 1_555
C40 O4 1_555 1_555
C41 C40 1_555 1_555
H25 C41 1_555 1_555
C42 C41 1_555 1_555
H26 C42 1_555 1_555
C43 C42 1_555 1_555
C44 C43 1_555 1_555
C45 C40 1_555 1_555
H27 C45 1_555 1_555
C46 C44 1_555 1_555
H28 C46 1_555 1_555
H29 C46 1_555 1_555
H30 C46 1_555 1_555
C5 C6 1_555 1_555
C6 C7 1_555 1_555
C8 C9 1_555 1_555
C14 C15 1_555 1_555
C16 C21 1_555 1_555
C20 C21 1_555 1_555
C26 C27 1_555 1_555
C32 C33 1_555 1_555
C38 C39 1_555 1_555
C44 C45 1_555 1_555

#END
