
#######################################################################
#
#                 Cambridge Crystallographic Data Centre
#                                CCDC 
#
#######################################################################
#
# If this CIF has been generated from an entry in the Cambridge 
# Structural Database, then it will include bibliographic, chemical, 
# crystal, experimental, refinement or atomic coordinate data resulting 
# from the CCDC's data processing and validation procedures.
#
#######################################################################

data_GUSNOZ
_chemical_formula_moiety         'C47 H33 N1 O4,1.34(C1 D1 Cl3)'
_chemical_name_systematic        
'19-(2-(3,5-dimethylphenoxy)phenyl)-1,16-diphenyl-19-azahexacyclo[14.5.1.0^2,15^.0^3,8^.0^9,14^.0^17,21^]docosa-2(15),3,5,7,9,11,13-heptaene-18,20,22-trione deuterochloroform solvate'
_symmetry_cell_setting           monoclinic
_symmetry_space_group_name_H-M   'P 21/c'
_symmetry_Int_Tables_number      14
_space_group_name_Hall           '-P 2ybc'
loop_
_symmetry_equiv_pos_site_id
_symmetry_equiv_pos_as_xyz
1 x,y,z
2 -x,1/2+y,1/2-z
3 -x,-y,-z
4 x,1/2-y,1/2+z
_cell_length_a                   16.158(3)
_cell_length_b                   15.794(3)
_cell_length_c                   16.302(3)
_cell_angle_alpha                90
_cell_angle_beta                 103.762(4)
_cell_angle_gamma                90
_cell_volume                     4040.83
_exptl_crystal_colour            colorless
_exptl_crystal_description       plate
_cell_formula_units_Z            4
loop_
_atom_site_label
_atom_site_type_symbol
_atom_site_fract_x
_atom_site_fract_y
_atom_site_fract_z
O1 O -0.03536(15) 0.38349(15) 0.41925(15)
O2 O 0.28537(15) 0.28141(16) 0.59395(15)
O3 O 0.27180(15) 0.55642(17) 0.50819(16)
O4 O 0.39718(16) 0.49668(17) 0.69270(15)
N1 N 0.29720(17) 0.41950(18) 0.55575(17)
C1 C 0.0409(2) 0.3832(2) 0.4350(2)
C2 C 0.1058(2) 0.3146(2) 0.4763(2)
C3 C 0.1591(2) 0.3706(2) 0.5501(2)
H1 H 0.1358 0.3673 0.6016
C4 C 0.2527(2) 0.3487(2) 0.5701(2)
C5 C 0.2453(2) 0.4888(2) 0.5246(2)
C6 C 0.1540(2) 0.4618(2) 0.5147(2)
H2 H 0.1237 0.5002 0.5467
C7 C 0.1029(2) 0.4524(2) 0.4201(2)
C8 C 0.1564(2) 0.3956(2) 0.3770(2)
C9 C 0.1564(2) 0.3154(2) 0.4078(2)
C10 C 0.2061(2) 0.2491(3) 0.3824(3)
C11 C 0.2110(2) 0.1667(3) 0.4169(3)
H3 H 0.1820 0.1541 0.4597
C12 C 0.2574(3) 0.1046(3) 0.3889(3)
H4 H 0.2600 0.0491 0.4120
C13 C 0.3009(3) 0.1235(4) 0.3262(3)
H5 H 0.3324 0.0805 0.3064
C14 C 0.2982(3) 0.2030(4) 0.2937(3)
H6 H 0.3287 0.2146 0.2519
C15 C 0.2515(2) 0.2687(3) 0.3203(3)
C16 C 0.2502(2) 0.3542(3) 0.2862(3)
C17 C 0.2947(3) 0.3759(4) 0.2240(3)
H7 H 0.3256 0.3333 0.2030
C18 C 0.2945(3) 0.4564(5) 0.1935(3)
H8 H 0.3233 0.4688 0.1505
C19 C 0.2522(3) 0.5196(4) 0.2255(3)
H9 H 0.2535 0.5759 0.2054
C20 C 0.2081(2) 0.5022(3) 0.2860(2)
H10 H 0.1798 0.5466 0.3078
C21 C 0.2045(2) 0.4188(3) 0.3161(2)
C22 C 0.0675(2) 0.2344(2) 0.5012(2)
C23 C 0.0984(2) 0.1958(2) 0.5796(3)
H11 H 0.1470 0.2189 0.6177
C24 C 0.0598(2) 0.1251(2) 0.6024(3)
H12 H 0.0821 0.0996 0.6559
C25 C -0.0115(3) 0.0908(3) 0.5482(3)
H13 H -0.0395 0.0430 0.5645
C26 C -0.0413(2) 0.1279(2) 0.4689(3)
H14 H -0.0891 0.1039 0.4304
C27 C -0.0028(2) 0.1985(2) 0.4454(3)
H15 H -0.0240 0.2228 0.3911
C28 C 0.0607(2) 0.5298(2) 0.3746(2)
C29 C 0.0002(2) 0.5189(3) 0.2978(2)
H16 H -0.0139 0.4634 0.2764
C30 C -0.0388(2) 0.5875(3) 0.2532(2)
H17 H -0.0795 0.5794 0.2012
C31 C -0.0190(2) 0.6685(3) 0.2839(3)
H18 H -0.0461 0.7161 0.2531
C32 C 0.0404(2) 0.6801(3) 0.3595(2)
H19 H 0.0541 0.7357 0.3807
C33 C 0.0798(2) 0.6110(2) 0.4043(2)
H20 H 0.1205 0.6195 0.4562
C34 C 0.3876(2) 0.4202(2) 0.5664(2)
C35 C 0.4379(2) 0.4624(2) 0.6351(2)
C36 C 0.5252(3) 0.4654(3) 0.6446(3)
H21 H 0.5601 0.4949 0.6909
C37 C 0.5612(3) 0.4254(3) 0.5868(3)
H22 H 0.6211 0.4280 0.5930
C38 C 0.5114(3) 0.3814(3) 0.5198(3)
H23 H 0.5371 0.3525 0.4811
C39 C 0.4241(2) 0.3794(3) 0.5093(2)
H24 H 0.3894 0.3501 0.4628
C40 C 0.4330(2) 0.5702(3) 0.7343(2)
C41 C 0.4243(2) 0.6458(3) 0.6899(3)
H25 H 0.3948 0.6470 0.6321
C42 C 0.4585(2) 0.7195(3) 0.7300(3)
C43 C 0.4993(2) 0.7155(3) 0.8155(3)
H26 H 0.5227 0.7658 0.8437
C44 C 0.5069(3) 0.6404(3) 0.8606(3)
C45 C 0.4734(3) 0.5666(3) 0.8187(2)
H27 H 0.4784 0.5142 0.8481
C46 C 0.4510(3) 0.8026(3) 0.6823(3)
H28 H 0.4513 0.7917 0.6232
H29 H 0.4993 0.8392 0.7079
H30 H 0.3977 0.8307 0.6850
C47 C 0.5519(3) 0.6384(3) 0.9532(3)
H31 H 0.6078 0.6657 0.9613
H32 H 0.5594 0.5795 0.9725
H33 H 0.5177 0.6688 0.9859
Cl1 Cl 0.22553(16) 0.71811(19) 0.61021(17)
Cl2 Cl 0.21841(16) 0.57304(17) 0.71974(18)
Cl3 Cl 0.16215(18) 0.73765(18) 0.76049(17)
C48 C 0.2308(6) 0.6812(6) 0.7130(6)
D1 D 0.2897 0.6942 0.7466
Cl4? Cl 0.2486(3) 0.7575(3) 0.5020(3)
Cl5? Cl 0.3450(3) 0.8679(3) 0.4247(3)
Cl6? Cl 0.2503(3) 0.9362(3) 0.5294(4)
C49? C 0.2458(11) 0.8574(10) 0.4487(11)
D2? D 0.1964 0.8640 0.3989
Cl7? Cl 0.1954(3) 0.6262(3) 0.7604(4)
Cl8? Cl 0.2639(3) 0.7886(3) 0.8210(4)
Cl9? Cl 0.2761(6) 0.6518(5) 0.9365(5)
C50? C 0.2754(9) 0.6804(8) 0.8356(9)
D3? D 0.3318 0.6643 0.8250
Cl10? Cl 0.2729(3) 0.7750(3) 0.8912(3)
Cl11? Cl 0.2118(4) 0.7512(4) 0.7149(4)
Cl12? Cl 0.2038(4) 0.6146(4) 0.8209(4)
C51? C 0.2630(9) 0.7000(8) 0.8067(8)
D4? D 0.3208 0.6811 0.8022
Cl13? Cl 0.2330(5) 0.7626(6) 0.5743(6)
Cl14? Cl 0.2606(14) 0.9225(11) 0.5072(14)
Cl15? Cl 0.3257(6) 0.7756(6) 0.4477(6)
C52? C 0.2387(16) 0.8181(14) 0.4806(15)
D5? D 0.1846 0.8122 0.4358
loop_
_geom_bond_atom_site_label_1
_geom_bond_atom_site_label_2
_geom_bond_site_symmetry_1
_geom_bond_site_symmetry_2
O1 C1 1_555 1_555
O2 C4 1_555 1_555
O3 C5 1_555 1_555
O4 C35 1_555 1_555
N1 C4 1_555 1_555
C1 C2 1_555 1_555
C2 C3 1_555 1_555
C3 H1 1_555 1_555
C4 C3 1_555 1_555
C5 N1 1_555 1_555
C6 C3 1_555 1_555
H2 C6 1_555 1_555
C7 C1 1_555 1_555
C8 C7 1_555 1_555
C9 C2 1_555 1_555
C10 C9 1_555 1_555
C11 C10 1_555 1_555
H3 C11 1_555 1_555
C12 C11 1_555 1_555
H4 C12 1_555 1_555
C13 C12 1_555 1_555
H5 C13 1_555 1_555
C14 C13 1_555 1_555
H6 C14 1_555 1_555
C15 C10 1_555 1_555
C16 C15 1_555 1_555
C17 C16 1_555 1_555
H7 C17 1_555 1_555
C18 C17 1_555 1_555
H8 C18 1_555 1_555
C19 C18 1_555 1_555
H9 C19 1_555 1_555
C20 C19 1_555 1_555
H10 C20 1_555 1_555
C21 C8 1_555 1_555
C22 C2 1_555 1_555
C23 C22 1_555 1_555
H11 C23 1_555 1_555
C24 C23 1_555 1_555
H12 C24 1_555 1_555
C25 C24 1_555 1_555
H13 C25 1_555 1_555
C26 C25 1_555 1_555
H14 C26 1_555 1_555
C27 C22 1_555 1_555
H15 C27 1_555 1_555
C28 C7 1_555 1_555
C29 C28 1_555 1_555
H16 C29 1_555 1_555
C30 C29 1_555 1_555
H17 C30 1_555 1_555
C31 C30 1_555 1_555
H18 C31 1_555 1_555
C32 C31 1_555 1_555
H19 C32 1_555 1_555
C33 C28 1_555 1_555
H20 C33 1_555 1_555
C34 N1 1_555 1_555
C35 C34 1_555 1_555
C36 C35 1_555 1_555
H21 C36 1_555 1_555
C37 C36 1_555 1_555
H22 C37 1_555 1_555
C38 C37 1_555 1_555
H23 C38 1_555 1_555
C39 C34 1_555 1_555
H24 C39 1_555 1_555
C40 O4 1_555 1_555
C41 C40 1_555 1_555
H25 C41 1_555 1_555
C42 C41 1_555 1_555
C43 C42 1_555 1_555
H26 C43 1_555 1_555
C44 C43 1_555 1_555
C45 C40 1_555 1_555
H27 C45 1_555 1_555
C46 C42 1_555 1_555
H28 C46 1_555 1_555
H29 C46 1_555 1_555
H30 C46 1_555 1_555
C47 C44 1_555 1_555
H31 C47 1_555 1_555
H32 C47 1_555 1_555
H33 C47 1_555 1_555
Cl1 C48 1_555 1_555
Cl2 C48 1_555 1_555
Cl3 C48 1_555 1_555
C48 D1 1_555 1_555
C5 C6 1_555 1_555
C6 C7 1_555 1_555
C8 C9 1_555 1_555
C14 C15 1_555 1_555
C16 C21 1_555 1_555
C20 C21 1_555 1_555
C26 C27 1_555 1_555
C32 C33 1_555 1_555
C38 C39 1_555 1_555
C44 C45 1_555 1_555

#END
