
#######################################################################
#
#                 Cambridge Crystallographic Data Centre
#                                CCDC 
#
#######################################################################
#
# If this CIF has been generated from an entry in the Cambridge 
# Structural Database, then it will include bibliographic, chemical, 
# crystal, experimental, refinement or atomic coordinate data resulting 
# from the CCDC's data processing and validation procedures.
#
#######################################################################

data_GUSVEV
_chemical_formula_moiety         'C18 H13 Cl1 F1 N1 O1'
_chemical_name_systematic        
(4-Chlorophenyl)(4-fluorophenyl)(4-pyridyl)methanol
_symmetry_cell_setting           monoclinic
_symmetry_space_group_name_H-M   'P 21/c'
_symmetry_Int_Tables_number      14
_space_group_name_Hall           '-P 2ybc'
loop_
_symmetry_equiv_pos_site_id
_symmetry_equiv_pos_as_xyz
1 x,y,z
2 x,1/2-y,1/2+z
3 -x,-y,-z
4 -x,1/2+y,1/2-z
_cell_length_a                   12.2718(2)
_cell_length_b                   7.6822(1)
_cell_length_c                   15.1089(3)
_cell_angle_alpha                90
_cell_angle_beta                 90.879(1)
_cell_angle_gamma                90
_cell_volume                     1424.22
_exptl_crystal_colour            colorless
_exptl_crystal_description       prism
_cell_formula_units_Z            4
loop_
_atom_site_label
_atom_site_type_symbol
_atom_site_fract_x
_atom_site_fract_y
_atom_site_fract_z
C1 C -0.32102(14) 0.1422(2) 0.38647(12)
C2 C -0.35721(14) 0.3317(2) 0.39631(12)
C3 C -0.44488(15) 0.3970(2) 0.34807(12)
H1 H -0.4876 0.3237 0.3129
C4 C -0.46808(16) 0.5738(2) 0.35295(13)
H2 H -0.5272 0.6158 0.3201
C5 C -0.32920(17) 0.6211(2) 0.45093(14)
H3 H -0.2898 0.6965 0.4873
C6 C -0.30025(16) 0.4470(2) 0.45059(14)
H4 H -0.2431 0.4075 0.4864
C7 C -0.23593(15) 0.1370(2) 0.31282(12)
C8 C -0.24842(16) 0.0214(2) 0.24292(13)
H5 H -0.3067 -0.056 0.2422
C9 C -0.17491(17) 0.0198(3) 0.17406(14)
H6 H -0.1843 -0.0571 0.1271
C10 C -0.08806(17) 0.1331(3) 0.17582(13)
C11 C -0.07203(17) 0.2464(3) 0.24572(14)
H7 H -0.0124 0.3211 0.2471
C12 C -0.14616(16) 0.2470(3) 0.31363(13)
H8 H -0.1357 0.3228 0.361
C13 C -0.27822(14) 0.0723(2) 0.47486(12)
C14 C -0.35047(16) 0.0711(2) 0.54532(13)
H9 H -0.4206 0.1145 0.5369
C15 C -0.31999(17) 0.0068(3) 0.62715(13)
H10 H -0.3688 0.0053 0.6736
C16 C -0.21555(17) -0.0550(2) 0.63839(12)
C17 C -0.14212(16) -0.0588(3) 0.57089(13)
H11 H -0.0725 -0.1037 0.58
C18 C -0.17423(15) 0.0061(2) 0.48835(13)
H12 H -0.1254 0.0049 0.4419
Cl1 Cl 0.00033(5) 0.13534(8) 0.08990(4)
F1 F -0.18554(10) -0.11955(14) 0.72487(8)
N1 N -0.41098(13) 0.6866(2) 0.40161(11)
O1 O -0.41562(11) 0.04730(17) 0.36029(10)
H13 H -0.411(2) -0.047(4) 0.3749(18)
loop_
_geom_bond_atom_site_label_1
_geom_bond_atom_site_label_2
_geom_bond_site_symmetry_1
_geom_bond_site_symmetry_2
C1 C2 1_555 1_555
C2 C3 1_555 1_555
C3 H1 1_555 1_555
C4 C3 1_555 1_555
H2 C4 1_555 1_555
C5 H3 1_555 1_555
C6 C2 1_555 1_555
H4 C6 1_555 1_555
C7 C1 1_555 1_555
C8 C7 1_555 1_555
H5 C8 1_555 1_555
C9 C8 1_555 1_555
H6 C9 1_555 1_555
C10 C9 1_555 1_555
C11 C10 1_555 1_555
H7 C11 1_555 1_555
C12 C7 1_555 1_555
H8 C12 1_555 1_555
C13 C1 1_555 1_555
C14 C13 1_555 1_555
H9 C14 1_555 1_555
C15 C14 1_555 1_555
H10 C15 1_555 1_555
C16 C15 1_555 1_555
C17 C16 1_555 1_555
H11 C17 1_555 1_555
C18 C13 1_555 1_555
H12 C18 1_555 1_555
Cl1 C10 1_555 1_555
F1 C16 1_555 1_555
N1 C4 1_555 1_555
O1 C1 1_555 1_555
H13 O1 1_555 1_555
C5 N1 1_555 1_555
C5 C6 1_555 1_555
C11 C12 1_555 1_555
C17 C18 1_555 1_555

#END
