
#######################################################################
#
#                 Cambridge Crystallographic Data Centre
#                                CCDC 
#
#######################################################################
#
# If this CIF has been generated from an entry in the Cambridge 
# Structural Database, then it will include bibliographic, chemical, 
# crystal, experimental, refinement or atomic coordinate data resulting 
# from the CCDC's data processing and validation procedures.
#
#######################################################################

data_GUSVIZ
_chemical_formula_moiety         'C18 H13 F2 N1 O1'
_chemical_name_systematic        bis(4-Fluorophenyl)(4-pyridyl)methanol
_symmetry_cell_setting           monoclinic
_symmetry_space_group_name_H-M   'P 21/c'
_symmetry_Int_Tables_number      14
_space_group_name_Hall           '-P 2ybc'
loop_
_symmetry_equiv_pos_site_id
_symmetry_equiv_pos_as_xyz
1 x,y,z
2 x,1/2-y,1/2+z
3 -x,-y,-z
4 -x,1/2+y,1/2-z
_cell_length_a                   12.0639(3)
_cell_length_b                   7.6328(2)
_cell_length_c                   14.7945(3)
_cell_angle_alpha                90
_cell_angle_beta                 95.565(1)
_cell_angle_gamma                90
_cell_volume                     1355.88
_exptl_crystal_colour            colorless
_exptl_crystal_description       prism
_cell_formula_units_Z            4
loop_
_atom_site_label
_atom_site_type_symbol
_atom_site_fract_x
_atom_site_fract_y
_atom_site_fract_z
O1 O 0.90384(6) 0.45291(10) 0.84533(6)
F1 F 0.69608(7) 0.61313(10) 1.20447(5)
C1 C 0.71740(8) 0.36038(13) 0.78991(7)
C2 C 0.82803(10) 0.49217(16) 1.11576(8)
C3 C 0.85309(9) 0.42838(15) 1.03281(7)
C4 C 0.62332(9) 0.25332(15) 0.78958(8)
C5 C 0.81058(8) 0.35591(13) 0.86874(7)
C6 C 0.84931(8) 0.16608(13) 0.88249(7)
N1 N 0.90845(8) -0.18919(12) 0.89567(7)
C7 C 0.64078(9) 0.55459(15) 1.05071(8)
C8 C 0.82335(10) -0.12481(15) 0.93710(8)
C9 C 0.66803(9) 0.49082(15) 0.96737(7)
C10 C 0.77353(8) 0.42600(13) 0.95770(7)
C11 C 0.72145(9) 0.55193(15) 1.12321(7)
C12 C 0.96723(9) -0.07441(14) 0.85177(7)
C13 C 0.94149(9) 0.10252(14) 0.84363(7)
C14 C 0.64155(10) 0.47927(16) 0.64515(8)
C15 C 0.53911(9) 0.25846(16) 0.71863(8)
C16 C 0.79199(9) 0.04944(14) 0.93274(8)
C17 C 0.72484(9) 0.47299(15) 0.71734(7)
F2 F 0.46920(7) 0.37692(12) 0.57809(5)
C18 C 0.55095(10) 0.37145(16) 0.64788(8)
H1 H 0.7301(14) 0.086(2) 0.9635(11)
H2 H 0.9279(14) 0.385(2) 1.0302(11)
H3 H 0.6150(13) 0.173(2) 0.8389(11)
H4 H 1.0343(14) -0.119(2) 0.8264(11)
H5 H 0.6130(15) 0.496(2) 0.9158(12)
H6 H 0.7886(15) 0.549(2) 0.7168(12)
H7 H 0.6455(14) 0.557(2) 0.5941(12)
H8 H 0.7839(14) -0.208(2) 0.9688(12)
H9 H 0.5701(15) 0.601(3) 1.0591(12)
H10 H 0.9868(14) 0.176(2) 0.8097(11)
H11 H 0.8817(16) 0.496(3) 1.1676(13)
H12 H 0.8978(18) 0.567(3) 0.8657(14)
H13 H 0.4725(15) 0.184(3) 0.7202(12)
loop_
_geom_bond_atom_site_label_1
_geom_bond_atom_site_label_2
_geom_bond_site_symmetry_1
_geom_bond_site_symmetry_2
O1 C5 1_555 1_555
F1 C11 1_555 1_555
C1 C4 1_555 1_555
C2 C3 1_555 1_555
C3 C10 1_555 1_555
C4 C15 1_555 1_555
C5 C1 1_555 1_555
C6 C5 1_555 1_555
N1 C8 1_555 1_555
C7 C9 1_555 1_555
C8 C16 1_555 1_555
C9 C10 1_555 1_555
C10 C5 1_555 1_555
C11 C2 1_555 1_555
C12 N1 1_555 1_555
C13 C6 1_555 1_555
C14 C17 1_555 1_555
C15 C18 1_555 1_555
C16 C6 1_555 1_555
C17 C1 1_555 1_555
F2 C18 1_555 1_555
C18 C14 1_555 1_555
H1 C16 1_555 1_555
H2 C3 1_555 1_555
H3 C4 1_555 1_555
H4 C12 1_555 1_555
H5 C9 1_555 1_555
H6 C17 1_555 1_555
H7 C14 1_555 1_555
H8 C8 1_555 1_555
H9 C7 1_555 1_555
H10 C13 1_555 1_555
H11 C2 1_555 1_555
H12 O1 1_555 1_555
H13 C15 1_555 1_555
C7 C11 1_555 1_555
C12 C13 1_555 1_555

#END
