
#######################################################################
#
#                 Cambridge Crystallographic Data Centre
#                                CCDC 
#
#######################################################################
#
# If this CIF has been generated from an entry in the Cambridge 
# Structural Database, then it will include bibliographic, chemical, 
# crystal, experimental, refinement or atomic coordinate data resulting 
# from the CCDC's data processing and validation procedures.
#
#######################################################################

data_GUSYAW
_chemical_formula_moiety         'C36 H27 B1 N2'
_chemical_name_systematic        
N,N-diphenyl-4-(2-phenyl-1,2-dihydronaphtho[2,3-e][1,2]azaborinin-10-yl)aniline
_symmetry_cell_setting           monoclinic
_symmetry_space_group_name_H-M   'C c'
_symmetry_Int_Tables_number      9
_space_group_name_Hall           'C -2yc'
loop_
_symmetry_equiv_pos_site_id
_symmetry_equiv_pos_as_xyz
1 x,y,z
2 x,-y,1/2+z
3 1/2+x,1/2+y,z
4 1/2+x,1/2-y,1/2+z
_cell_length_a                   10.982(3)
_cell_length_b                   40.431(10)
_cell_length_c                   8.0776(18)
_cell_angle_alpha                90
_cell_angle_beta                 132.593(4)
_cell_angle_gamma                90
_cell_volume                     2640.35
_exptl_crystal_colour            colorless
_exptl_crystal_description       plate
_cell_formula_units_Z            4
loop_
_atom_site_label
_atom_site_type_symbol
_atom_site_fract_x
_atom_site_fract_y
_atom_site_fract_z
N1 N 0.9917(2) 0.42097(5) 1.0096(3)
H1 H 1.026(3) 0.4038(6) 0.976(5)
N2 N 1.0758(2) 0.32333(5) 0.5283(3)
B1 B 1.0931(3) 0.43038(7) 1.2392(4)
C1 C 0.8414(3) 0.43568(6) 0.8269(4)
C2 C 0.7483(3) 0.42349(6) 0.6086(4)
C3 C 0.5915(3) 0.43800(6) 0.4283(4)
C4 C 0.4833(3) 0.42478(6) 0.2042(4)
H2 H 0.5178 0.4063 0.1721
C5 C 0.3304(3) 0.43855(6) 0.0356(4)
H3 H 0.2603 0.4293 -0.1112
C6 C 0.2758(3) 0.46626(6) 0.0776(4)
H4 H 0.1699 0.4755 -0.0408
C7 C 0.3757(3) 0.47970(6) 0.2888(4)
H5 H 0.3388 0.4985 0.3152
C8 C 0.5350(3) 0.46581(6) 0.4704(4)
C9 C 0.6356(3) 0.47835(6) 0.6916(4)
H6 H 0.6005 0.4973 0.7189
C10 C 0.7855(3) 0.46338(6) 0.8703(4)
C11 C 0.8829(3) 0.47476(6) 1.1003(4)
H7 H 0.8451 0.4934 1.1267
C12 C 1.0260(3) 0.45976(6) 1.2789(4)
H8 H 1.0843 0.4673 1.4273
C13 C 0.8176(2) 0.39613(6) 0.5683(3)
C14 C 0.8606(3) 0.40185(6) 0.4423(4)
H9 H 0.8351 0.4226 0.3695
C15 C 0.9400(3) 0.37769(6) 0.4219(4)
H10 H 0.9670 0.3820 0.3343
C16 C 0.9801(3) 0.34721(6) 0.5294(4)
C17 C 0.9323(3) 0.34070(6) 0.6486(4)
H11 H 0.9553 0.3197 0.7177
C18 C 0.8512(3) 0.36474(6) 0.6663(3)
H12 H 0.8180 0.3599 0.7459
C19 C 1.0109(3) 0.30854(6) 0.3235(4)
C20 C 0.8382(3) 0.30508(6) 0.1460(4)
H13 H 0.7658 0.3127 0.1637
C21 C 0.7740(3) 0.29040(6) -0.0555(4)
H14 H 0.6577 0.2881 -0.1746
C22 C 0.8781(3) 0.27912(6) -0.0836(4)
H15 H 0.8337 0.2688 -0.2204
C23 C 1.0493(3) 0.28300(7) 0.0911(4)
H16 H 1.1210 0.2757 0.0715
C24 C 1.1148(3) 0.29749(6) 0.2928(4)
H17 H 1.2312 0.2999 0.4107
C25 C 1.2248(3) 0.31204(6) 0.7426(4)
C26 C 1.2733(3) 0.27908(6) 0.7814(4)
H18 H 1.2116 0.2637 0.6609
C27 C 1.4130(3) 0.26853(6) 0.9978(4)
H19 H 1.4439 0.2459 1.0242
C28 C 1.5069(3) 0.29110(7) 1.1748(4)
H20 H 1.6011 0.2839 1.3217
C29 C 1.4616(3) 0.32427(7) 1.1347(4)
H21 H 1.5264 0.3398 1.2544
C30 C 1.3211(3) 0.33502(7) 0.9196(4)
H22 H 1.2910 0.3577 0.8933
C31 C 1.2566(3) 0.41046(6) 1.4247(4)
C32 C 1.2904(3) 0.37949(6) 1.3848(4)
H23 H 1.2111 0.3699 1.2395
C33 C 1.4369(3) 0.36235(7) 1.5521(4)
H24 H 1.4566 0.3414 1.5201
C34 C 1.5542(3) 0.37613(7) 1.7662(4)
H25 H 1.6537 0.3645 1.8813
C35 C 1.5251(3) 0.40676(7) 1.8107(4)
H26 H 1.6056 0.4163 1.9557
C36 C 1.3780(3) 0.42356(7) 1.6432(4)
H27 H 1.3590 0.4444 1.6771
loop_
_geom_bond_atom_site_label_1
_geom_bond_atom_site_label_2
_geom_bond_site_symmetry_1
_geom_bond_site_symmetry_2
N1 H1 1_555 1_555
N2 C16 1_555 1_555
B1 N1 1_555 1_555
C1 N1 1_555 1_555
C2 C1 1_555 1_555
C3 C2 1_555 1_555
C4 C3 1_555 1_555
H2 C4 1_555 1_555
C5 C4 1_555 1_555
H3 C5 1_555 1_555
C6 C5 1_555 1_555
H4 C6 1_555 1_555
C7 C6 1_555 1_555
H5 C7 1_555 1_555
C8 C3 1_555 1_555
C9 C8 1_555 1_555
H6 C9 1_555 1_555
C10 C1 1_555 1_555
C11 C10 1_555 1_555
H7 C11 1_555 1_555
C12 B1 1_555 1_555
H8 C12 1_555 1_555
C13 C2 1_555 1_555
C14 C13 1_555 1_555
H9 C14 1_555 1_555
C15 C14 1_555 1_555
H10 C15 1_555 1_555
C16 C15 1_555 1_555
C17 C16 1_555 1_555
H11 C17 1_555 1_555
C18 C13 1_555 1_555
H12 C18 1_555 1_555
C19 N2 1_555 1_555
C20 C19 1_555 1_555
H13 C20 1_555 1_555
C21 C20 1_555 1_555
H14 C21 1_555 1_555
C22 C21 1_555 1_555
H15 C22 1_555 1_555
C23 C22 1_555 1_555
H16 C23 1_555 1_555
C24 C19 1_555 1_555
H17 C24 1_555 1_555
C25 N2 1_555 1_555
C26 C25 1_555 1_555
H18 C26 1_555 1_555
C27 C26 1_555 1_555
H19 C27 1_555 1_555
C28 C27 1_555 1_555
H20 C28 1_555 1_555
C29 C28 1_555 1_555
H21 C29 1_555 1_555
C30 C25 1_555 1_555
H22 C30 1_555 1_555
C31 B1 1_555 1_555
C32 C31 1_555 1_555
H23 C32 1_555 1_555
C33 C32 1_555 1_555
H24 C33 1_555 1_555
C34 C33 1_555 1_555
H25 C34 1_555 1_555
C35 C34 1_555 1_555
H26 C35 1_555 1_555
C36 C31 1_555 1_555
H27 C36 1_555 1_555
C7 C8 1_555 1_555
C9 C10 1_555 1_555
C11 C12 1_555 1_555
C17 C18 1_555 1_555
C23 C24 1_555 1_555
C29 C30 1_555 1_555
C35 C36 1_555 1_555

#END
