
#######################################################################
#
#                 Cambridge Crystallographic Data Centre
#                                CCDC 
#
#######################################################################
#
# If this CIF has been generated from an entry in the Cambridge 
# Structural Database, then it will include bibliographic, chemical, 
# crystal, experimental, refinement or atomic coordinate data resulting 
# from the CCDC's data processing and validation procedures.
#
#######################################################################

data_GUTPOC
_chemical_formula_moiety         'C32 H34 N4 O5'
_chemical_name_systematic        
'9H-fluoren-9-ylmethyl (2-(1-(isobutylamino)-1-oxo-3-phenylpropan-2-yl)-3,6-dioxohexahydropyridazin-4-yl)carbamate'
_symmetry_cell_setting           orthorhombic
_symmetry_space_group_name_H-M   'P 21 21 21'
_symmetry_Int_Tables_number      19
_space_group_name_Hall           'P 2ac 2ab'
loop_
_symmetry_equiv_pos_site_id
_symmetry_equiv_pos_as_xyz
1 x,y,z
2 1/2-x,-y,1/2+z
3 -x,1/2+y,1/2-z
4 1/2+x,1/2-y,-z
_cell_length_a                   11.0349(3)
_cell_length_b                   14.8582(3)
_cell_length_c                   17.2323(4)
_cell_angle_alpha                90
_cell_angle_beta                 90
_cell_angle_gamma                90
_cell_volume                     2825.39
_exptl_crystal_colour            colorless
_exptl_crystal_description       block
_cell_formula_units_Z            4
loop_
_atom_site_label
_atom_site_type_symbol
_atom_site_fract_x
_atom_site_fract_y
_atom_site_fract_z
O1 O 0.60702(10) 0.67846(8) 0.54249(7)
O2 O 0.72125(11) 0.41091(8) 0.45721(8)
O3 O 0.27573(11) 0.83391(9) 0.59129(7)
O4 O 0.51951(11) 0.39064(8) 0.47768(8)
O5 O 0.21015(11) 0.63015(9) 0.37420(9)
N1 N 0.43007(12) 0.73096(9) 0.49531(9)
N2 N 0.59914(13) 0.52899(10) 0.45375(10)
N3 N 0.31907(13) 0.71209(10) 0.45866(9)
N4 N 0.44228(14) 0.90614(11) 0.63713(9)
C1 C 0.51361(14) 0.66554(11) 0.50604(9)
C2 C 0.60523(15) 0.43928(11) 0.46428(10)
C3 C 0.38387(16) 0.85370(11) 0.58665(10)
C4 C 0.30828(15) 0.64823(12) 0.40314(10)
C5 C 0.48704(14) 0.57716(11) 0.46355(10)
H1 H 0.4310 0.5401 0.4960
C6 C 0.96667(16) 0.34290(12) 0.50428(11)
C7 C 0.47583(17) 0.86402(12) 0.37041(11)
C8 C 0.42287(16) 0.88907(11) 0.44826(10)
H2 H 0.3335 0.8909 0.4434
H3 H 0.4505 0.9505 0.4619
C9 C 0.45608(14) 0.82522(11) 0.51509(10)
H4 H 0.5445 0.8314 0.5266
C10 C 0.73916(16) 0.31592(11) 0.47303(12)
H5 H 0.6858 0.2794 0.4393
H6 H 0.7187 0.3026 0.5278
C11 C 0.87083(16) 0.29310(12) 0.45741(11)
H7 H 0.8810 0.2276 0.4690
C12 C 1.02671(17) 0.35012(12) 0.37450(11)
C13 C 1.05905(17) 0.37315(12) 0.45527(12)
C14 C 0.42478(16) 0.59850(13) 0.38621(11)
H8 H 0.4785 0.6362 0.3536
H9 H 0.4072 0.5421 0.3578
C15 C 0.97489(19) 0.35645(13) 0.58356(12)
H10 H 0.9124 0.3361 0.6172
C16 C 0.37996(17) 0.94889(13) 0.70226(11)
H11 H 0.2914 0.9437 0.6941
H12 H 0.4006 1.0137 0.7028
C17 C 0.85856(19) 0.28281(13) 0.30578(12)
H13 H 0.7806 0.2557 0.3059
C18 C 0.91343(17) 0.30729(11) 0.37497(11)
C19 C 0.9187(2) 0.29832(14) 0.23644(12)
H14 H 0.8815 0.2819 0.1888
C20 C 1.1684(2) 0.42993(14) 0.56464(14)
H15 H 1.2372 0.4595 0.5859
C21 C 0.59130(19) 0.82906(15) 0.36217(12)
H16 H 0.6394 0.8183 0.4069
C22 C 1.0768(2) 0.40071(14) 0.61340(13)
H17 H 1.0831 0.4108 0.6677
C23 C 1.0879(2) 0.36474(13) 0.30504(13)
H18 H 1.1654 0.3925 0.3046
C24 C 1.16083(18) 0.41655(14) 0.48495(13)
H19 H 1.2237 0.4366 0.4515
C25 C 0.4115(2) 0.90865(14) 0.78084(11)
H20 H 0.3977 0.8422 0.7784
C26 C 0.6380(2) 0.80942(16) 0.28872(14)
H21 H 0.7163 0.7835 0.2841
C27 C 0.5425(2) 0.92537(14) 0.80409(14)
H22 H 0.5965 0.9023 0.7636
H23 H 0.5595 0.8944 0.8531
H24 H 0.5558 0.9901 0.8106
C28 C 1.0326(2) 0.33769(14) 0.23609(12)
H25 H 1.0737 0.3464 0.1882
C29 C 0.5714(2) 0.82738(16) 0.22317(13)
H26 H 0.6050 0.8172 0.1732
C30 C 0.4078(2) 0.87717(17) 0.30352(13)
H27 H 0.3269 0.8983 0.3078
C31 C 0.3266(3) 0.94830(18) 0.84161(13)
H28 H 0.3420 1.0130 0.8466
H29 H 0.3408 0.9188 0.8917
H30 H 0.2423 0.9386 0.8256
C32 C 0.4557(2) 0.8601(2) 0.23074(13)
H31 H 0.4082 0.8711 0.1858
H32 H 0.661(2) 0.5588(14) 0.4441(12)
H33 H 0.256(2) 0.7442(15) 0.4754(13)
H34 H 0.523(2) 0.9137(16) 0.6325(14)
loop_
_geom_bond_atom_site_label_1
_geom_bond_atom_site_label_2
_geom_bond_site_symmetry_1
_geom_bond_site_symmetry_2
O1 C1 1_555 1_555
O2 C2 1_555 1_555
O3 C3 1_555 1_555
O4 C2 1_555 1_555
O5 C4 1_555 1_555
N1 N3 1_555 1_555
N2 C2 1_555 1_555
N3 C4 1_555 1_555
N4 C3 1_555 1_555
C1 N1 1_555 1_555
C3 C9 1_555 1_555
C4 C14 1_555 1_555
C5 N2 1_555 1_555
H1 C5 1_555 1_555
C6 C11 1_555 1_555
C7 C8 1_555 1_555
C8 H2 1_555 1_555
H3 C8 1_555 1_555
C9 N1 1_555 1_555
H4 C9 1_555 1_555
C10 O2 1_555 1_555
H5 C10 1_555 1_555
H6 C10 1_555 1_555
C11 C10 1_555 1_555
H7 C11 1_555 1_555
C12 C13 1_555 1_555
C13 C6 1_555 1_555
C14 C5 1_555 1_555
H8 C14 1_555 1_555
H9 C14 1_555 1_555
C15 C6 1_555 1_555
H10 C15 1_555 1_555
C16 N4 1_555 1_555
H11 C16 1_555 1_555
H12 C16 1_555 1_555
C17 H13 1_555 1_555
C18 C11 1_555 1_555
C19 C17 1_555 1_555
H14 C19 1_555 1_555
C20 H15 1_555 1_555
C21 C7 1_555 1_555
H16 C21 1_555 1_555
C22 C15 1_555 1_555
H17 C22 1_555 1_555
C23 C12 1_555 1_555
H18 C23 1_555 1_555
C24 C13 1_555 1_555
H19 C24 1_555 1_555
C25 C16 1_555 1_555
H20 C25 1_555 1_555
C26 C21 1_555 1_555
H21 C26 1_555 1_555
C27 C25 1_555 1_555
H22 C27 1_555 1_555
H23 C27 1_555 1_555
H24 C27 1_555 1_555
C28 C19 1_555 1_555
H25 C28 1_555 1_555
C29 C26 1_555 1_555
H26 C29 1_555 1_555
C30 C7 1_555 1_555
H27 C30 1_555 1_555
C31 C25 1_555 1_555
H28 C31 1_555 1_555
H29 C31 1_555 1_555
H30 C31 1_555 1_555
C32 C29 1_555 1_555
H31 C32 1_555 1_555
H32 N2 1_555 1_555
H33 N3 1_555 1_555
H34 N4 1_555 1_555
C1 C5 1_555 1_555
C8 C9 1_555 1_555
C12 C18 1_555 1_555
C17 C18 1_555 1_555
C20 C22 1_555 1_555
C20 C24 1_555 1_555
C23 C28 1_555 1_555
C30 C32 1_555 1_555

#END
