
#######################################################################
#
#                 Cambridge Crystallographic Data Centre
#                                CCDC 
#
#######################################################################
#
# If this CIF has been generated from an entry in the Cambridge 
# Structural Database, then it will include bibliographic, chemical, 
# crystal, experimental, refinement or atomic coordinate data resulting 
# from the CCDC's data processing and validation procedures.
#
#######################################################################

data_GUTWOJ
_chemical_name_common            
1-[4-(6-bromobenzo[1,3]dioxol-5-yl)-3a,4,5,9b-tetrahydro-3H-cyclopenta-[c]quinolin-8-yl]ethanone
_chemical_formula_moiety         'C16 H10 B1 Br1 F2 N2 O2'
_chemical_name_systematic        
10-(6-bromo-1,3-benzodioxol-5-yl)-5,5-difluoro-5H-6\l^5^,5\l^5^-dipyrrolo[1,2-c:2',1'-f][1,3,2]diazaborinine
_symmetry_cell_setting           triclinic
_symmetry_space_group_name_H-M   'P -1'
_symmetry_Int_Tables_number      2
_space_group_name_Hall           '-P 1'
loop_
_symmetry_equiv_pos_site_id
_symmetry_equiv_pos_as_xyz
1 x,y,z
2 -x,-y,-z
_cell_length_a                   6.70700(10)
_cell_length_b                   9.4550(2)
_cell_length_c                   12.9340(3)
_cell_angle_alpha                110.6160(10)
_cell_angle_beta                 95.0070(10)
_cell_angle_gamma                95.5940(10)
_cell_volume                     757.487
_exptl_crystal_colour            red
_exptl_crystal_description       irregular
_cell_formula_units_Z            2
_exptl_crystal_preparation       Luminescent
loop_
_atom_site_label
_atom_site_type_symbol
_atom_site_fract_x
_atom_site_fract_y
_atom_site_fract_z
Br1 Br 0.92985(3) 0.07007(2) 0.29878(2)
O1 O 0.4891(2) -0.29021(16) -0.15369(11)
F1 F 0.6156(2) -0.53464(14) 0.40165(11)
O2 O 0.6812(2) -0.06068(15) -0.12781(10)
C1 C 0.7969(2) 0.0031(2) 0.07094(14)
H1 H 0.87 0.0971 0.0818
F2 F 0.8265(2) -0.32594(17) 0.51077(11)
N1 N 0.5551(2) -0.29297(18) 0.39119(12)
C2 C 0.6758(3) -0.1917(2) 0.14285(14)
C3 C 0.5658(3) -0.2790(2) 0.03825(15)
H2 H 0.4857 -0.3705 0.0269
N2 N 0.8448(3) -0.41894(18) 0.31383(14)
C4 C 0.6943(2) -0.0880(2) -0.03024(14)
C5 C 0.7862(2) -0.0529(2) 0.15771(13)
C6 C 0.3883(3) -0.1395(3) 0.32404(18)
H3 H 0.3492 -0.0837 0.281
C7 C 0.6829(3) -0.2585(2) 0.23195(14)
C8 C 0.8271(3) -0.3554(2) 0.23227(16)
C9 C 0.5490(3) -0.2278(2) 0.30946(15)
C10 C 0.4066(3) -0.2460(3) 0.45182(18)
H4 H 0.3776 -0.2731 0.5119
B1 B 0.7116(4) -0.3958(3) 0.40834(18)
C11 C 0.5767(3) -0.1994(2) -0.21100(15)
H5 H 0.4721 -0.1769 -0.2572
H6 H 0.6702 -0.2538 -0.2583
C12 C 0.5803(3) -0.2250(2) -0.04614(14)
C13 C 0.3005(4) -0.1507(3) 0.4129(2)
H7 H 0.1914 -0.104 0.4418
C14 C 0.9929(4) -0.5063(3) 0.2926(2)
H8 H 1.036 -0.5619 0.335
C15 C 0.9710(4) -0.4074(3) 0.1606(2)
H9 H 0.9932 -0.3823 0.0988
C16 C 1.0728(4) -0.5019(3) 0.1983(2)
H10 H 1.1764 -0.5536 0.1666
loop_
_geom_bond_atom_site_label_1
_geom_bond_atom_site_label_2
_geom_bond_site_symmetry_1
_geom_bond_site_symmetry_2
Br1 C5 1_555 1_555
O1 C11 1_555 1_555
F1 B1 1_555 1_555
O2 C4 1_555 1_555
C1 H1 1_555 1_555
F2 B1 1_555 1_555
N1 C9 1_555 1_555
C2 C3 1_555 1_555
C3 H2 1_555 1_555
N2 C8 1_555 1_555
C4 C1 1_555 1_555
C5 C1 1_555 1_555
C6 H3 1_555 1_555
C7 C2 1_555 1_555
C8 C7 1_555 1_555
C9 C6 1_555 1_555
C10 N1 1_555 1_555
H4 C10 1_555 1_555
B1 N1 1_555 1_555
C11 O2 1_555 1_555
H5 C11 1_555 1_555
H6 C11 1_555 1_555
C12 O1 1_555 1_555
C13 C6 1_555 1_555
H7 C13 1_555 1_555
C14 N2 1_555 1_555
H8 C14 1_555 1_555
C15 C8 1_555 1_555
H9 C15 1_555 1_555
C16 C14 1_555 1_555
H10 C16 1_555 1_555
C2 C5 1_555 1_555
C3 C12 1_555 1_555
N2 B1 1_555 1_555
C4 C12 1_555 1_555
C7 C9 1_555 1_555
C10 C13 1_555 1_555
C15 C16 1_555 1_555

#END
