
#######################################################################
#
#                 Cambridge Crystallographic Data Centre
#                                CCDC 
#
#######################################################################
#
# If this CIF has been generated from an entry in the Cambridge 
# Structural Database, then it will include bibliographic, chemical, 
# crystal, experimental, refinement or atomic coordinate data resulting 
# from the CCDC's data processing and validation procedures.
#
#######################################################################

data_GUVQOE
_chemical_formula_moiety         'C19 H18 N4 O5 S1'
_chemical_name_systematic        
N-(5,6-Dimethoxypyrimidin-4-yl)-4-((2-hydroxybenzylidene)amino)benzenesulfonamide
_symmetry_cell_setting           monoclinic
_symmetry_space_group_name_H-M   'P 21/c'
_symmetry_Int_Tables_number      14
_space_group_name_Hall           '-P 2ybc'
loop_
_symmetry_equiv_pos_site_id
_symmetry_equiv_pos_as_xyz
1 x,y,z
2 -x,1/2+y,1/2-z
3 -x,-y,-z
4 x,1/2-y,1/2+z
_cell_length_a                   19.0425(11)
_cell_length_b                   11.1914(6)
_cell_length_c                   9.0075(5)
_cell_angle_alpha                90
_cell_angle_beta                 93.9650(10)
_cell_angle_gamma                90
_cell_volume                     1915.01
_exptl_crystal_colour            yellow
_exptl_crystal_description       block
_chemical_melting_point          '155-159 deg.C'
_cell_formula_units_Z            4
loop_
_atom_site_label
_atom_site_type_symbol
_atom_site_fract_x
_atom_site_fract_y
_atom_site_fract_z
S1 S 0.34113(2) 0.57051(4) 0.12076(5)
O1 O 0.29771(5) 0.30807(10) 0.02687(12)
N1 N 0.39736(8) 0.49773(12) 0.02394(16)
O2 O 0.34880(6) 0.08345(10) 0.08178(14)
O3 O 0.32717(7) 0.50343(11) 0.24962(13)
N2 N 0.46369(8) 0.15086(13) 0.10324(19)
O4 O 0.36948(7) 0.68873(10) 0.13575(15)
N3 N 0.48645(7) 0.35799(12) 0.06960(18)
C1 C 0.26243(8) 0.58333(14) 0.00709(19)
C2 C 0.36838(8) 0.28744(14) 0.05172(17)
N4 N 0.07460(8) 0.63705(14) -0.25376(17)
C3 C 0.41662(8) 0.37861(14) 0.05052(18)
C4 C 0.13660(9) 0.61702(16) -0.1618(2)
C5 C 0.02647(10) 0.5577(2) -0.2658(2)
C6 C 0.26052(10) 0.65678(17) -0.1167(2)
C7 C 0.39510(9) 0.17280(14) 0.07948(19)
C8 C 0.20153(10) 0.52890(17) 0.0487(2)
C9 C -0.03841(9) 0.57474(18) -0.3579(2)
O5 O -0.00327(9) 0.76814(15) -0.4431(2)
C10 C 0.13897(10) 0.54584(18) -0.0348(2)
C11 C 0.50528(11) 0.24512(17) 0.0946(3)
C12 C 0.37678(14) -0.03576(17) 0.0955(3)
C13 C -0.05029(10) 0.67807(19) -0.4443(2)
C14 C 0.19749(10) 0.67273(18) -0.2008(2)
C15 C 0.27318(12) 0.2868(2) -0.1252(2)
C16 C -0.11196(13) 0.6879(3) -0.5352(3)
C17 C -0.16173(13) 0.5990(3) -0.5372(3)
C18 C -0.08977(12) 0.4850(2) -0.3646(2)
C19 C -0.15162(12) 0.4970(3) -0.4523(3)
H1 H 0.3034(10) 0.6964(16) -0.144(2)
H2 H 0.2009(9) 0.4848(16) 0.132(2)
H3 H 0.2248(11) 0.3037(16) -0.128(2)
H4 H 0.4314(10) 0.5422(16) 0.001(2)
H5 H 0.2950(12) 0.341(2) -0.185(3)
H6 H 0.0977(11) 0.5150(17) -0.006(2)
H7 H 0.4034(13) -0.043(2) 0.188(3)
H8 H 0.5569(11) 0.2305(18) 0.104(2)
H9 H 0.0329(10) 0.4792(17) -0.217(2)
H10 H -0.1900(12) 0.426(2) -0.453(2)
H11 H -0.0820(10) 0.409(2) -0.313(2)
H12 H 0.3366(14) -0.087(3) 0.077(3)
H13 H 0.2869(12) 0.202(2) -0.149(3)
H14 H 0.1971(10) 0.7230(19) -0.281(2)
H15 H -0.1206(12) 0.757(2) -0.597(3)
H16 H 0.4139(15) -0.056(2) 0.018(3)
H17 H -0.2057(13) 0.610(2) -0.599(3)
H18 H 0.0337(16) 0.751(3) -0.387(4)
loop_
_geom_bond_atom_site_label_1
_geom_bond_atom_site_label_2
_geom_bond_site_symmetry_1
_geom_bond_site_symmetry_2
S1 N1 1_555 1_555
O1 C2 1_555 1_555
N1 C3 1_555 1_555
O2 C7 1_555 1_555
O3 S1 1_555 1_555
N2 C7 1_555 1_555
O4 S1 1_555 1_555
N3 C3 1_555 1_555
C1 S1 1_555 1_555
C2 C3 1_555 1_555
N4 C4 1_555 1_555
C4 C10 1_555 1_555
C5 N4 1_555 1_555
C6 C1 1_555 1_555
C7 C2 1_555 1_555
C8 C1 1_555 1_555
C9 C5 1_555 1_555
O5 C13 1_555 1_555
C10 C8 1_555 1_555
C11 N2 1_555 1_555
C12 O2 1_555 1_555
C13 C9 1_555 1_555
C14 C4 1_555 1_555
C15 O1 1_555 1_555
C16 C13 1_555 1_555
C17 C16 1_555 1_555
C18 C9 1_555 1_555
C19 C17 1_555 1_555
H1 C6 1_555 1_555
H2 C8 1_555 1_555
H3 C15 1_555 1_555
H4 N1 1_555 1_555
H5 C15 1_555 1_555
H6 C10 1_555 1_555
H7 C12 1_555 1_555
H8 C11 1_555 1_555
H9 C5 1_555 1_555
H10 C19 1_555 1_555
H11 C18 1_555 1_555
H12 C12 1_555 1_555
H13 C15 1_555 1_555
H14 C14 1_555 1_555
H15 C16 1_555 1_555
H16 C12 1_555 1_555
H17 C17 1_555 1_555
H18 O5 1_555 1_555
N3 C11 1_555 1_555
C6 C14 1_555 1_555
C18 C19 1_555 1_555

#END
