
#######################################################################
#
#                 Cambridge Crystallographic Data Centre
#                                CCDC 
#
#######################################################################
#
# If this CIF has been generated from an entry in the Cambridge 
# Structural Database, then it will include bibliographic, chemical, 
# crystal, experimental, refinement or atomic coordinate data resulting 
# from the CCDC's data processing and validation procedures.
#
#######################################################################

data_GUVRIZ
_chemical_name_common            
'tetrakis(Triethylammonium) calix[4]resorcinarene-5,11,17,23-tetracarboxylate'
_chemical_formula_moiety         'C32 H20 O16 4-,4(C6 H16 N1 1+)'
_chemical_name_systematic        
'tetrakis(Triethylammonium) 4,6,10,12,16,18,22,24-octahydroxy-calix[4]arene-5,11,17,23-tetracarboxylate'
_symmetry_cell_setting           monoclinic
_symmetry_space_group_name_H-M   'P 21/n'
_symmetry_Int_Tables_number      14
_space_group_name_Hall           '-P 2yn'
loop_
_symmetry_equiv_pos_site_id
_symmetry_equiv_pos_as_xyz
1 x,y,z
2 1/2-x,1/2+y,1/2-z
3 -x,-y,-z
4 1/2+x,1/2-y,1/2+z
_cell_length_a                   8.1763(18)
_cell_length_b                   12.913(3)
_cell_length_c                   28.724(7)
_cell_angle_alpha                90
_cell_angle_beta                 97.574(4)
_cell_angle_gamma                90
_cell_volume                     3006.24
_exptl_crystal_colour            white
_exptl_crystal_description       prism
_cell_formula_units_Z            2
loop_
_atom_site_label
_atom_site_type_symbol
_atom_site_fract_x
_atom_site_fract_y
_atom_site_fract_z
O1 O 0.64122(15) 0.81465(11) 0.13925(5)
H1 H 0.6459 0.7866 0.1650
O2 O 0.76728(18) 0.74878(14) 0.21816(6)
O3 O 1.0312(2) 0.77400(17) 0.24360(6)
O4 O 1.21790(15) 0.86392(13) 0.19265(5)
H2 H 1.1917 0.8336 0.2156
O5 O 1.2280(2) 1.17335(13) 0.13393(5)
H3 H 1.2190 1.2359 0.1379
O6 O 1.2155(3) 1.36254(15) 0.11433(8)
O7 O 1.2459(3) 1.41810(12) 0.04330(7)
O8 O 1.30002(19) 1.29103(11) -0.02053(5)
H4 H 1.2867 1.3472 -0.0083
C1 C 0.9287(2) 0.83653(13) 0.16783(6)
C2 C 0.79363(19) 0.84864(12) 0.13267(6)
C3 C 0.81116(18) 0.89736(13) 0.09044(6)
C4 C 0.96644(18) 0.93538(13) 0.08473(6)
H5 H 0.9788 0.9688 0.0567
C5 C 1.10355(19) 0.92633(12) 0.11827(6)
C6 C 1.0835(2) 0.87550(13) 0.16016(6)
C7 C 0.9104(2) 0.78327(16) 0.21289(7)
C8 C 0.66469(19) 0.91084(16) 0.05309(6)
H6 H 0.5767 0.8659 0.0606
H7 H 0.6259 0.9816 0.0543
C9 C 1.2721(2) 0.96677(15) 0.11119(7)
H8 H 1.3269 0.9916 0.1411
H9 H 1.3368 0.9097 0.1014
C10 C 1.2580(2) 1.23702(14) 0.05691(7)
C11 C 1.2513(2) 1.15477(14) 0.08885(6)
C12 C 1.27153(18) 1.05285(13) 0.07558(6)
C13 C 1.29491(18) 1.03465(12) 0.02917(6)
H10 H 1.3053 0.9663 0.0197
C14 C 1.30365(17) 1.11192(13) -0.00380(6)
C15 C 1.2866(2) 1.21433(13) 0.01090(6)
C16 C 1.2385(3) 1.34574(17) 0.07291(10)
O1B O 1.35878(15) 1.18535(11) -0.13925(5)
H1B H 1.3541 1.2134 -0.1650
O2B O 1.23272(18) 1.25122(14) -0.21816(6)
O3B O 0.9688(2) 1.22600(17) -0.24360(6)
O4B O 0.78210(15) 1.13608(13) -0.19265(5)
H2B H 0.8083 1.1664 -0.2156
O5B O 0.7720(2) 0.82665(13) -0.13393(5)
H3B H 0.7810 0.7641 -0.1379
O6B O 0.7845(3) 0.63746(15) -0.11433(8)
O7B O 0.7541(3) 0.58190(12) -0.04330(7)
O8B O 0.69998(19) 0.70897(11) 0.02053(5)
H4B H 0.7133 0.6528 0.0083
C1B C 1.0713(2) 1.16347(13) -0.16783(6)
C2B C 1.20637(19) 1.15136(12) -0.13267(6)
C3B C 1.18884(18) 1.10264(13) -0.09044(6)
C4B C 1.03356(18) 1.06462(13) -0.08473(6)
H5B H 1.0212 1.0312 -0.0567
C5B C 0.89645(19) 1.07367(12) -0.11827(6)
C6B C 0.9165(2) 1.12450(13) -0.16016(6)
C7B C 1.0896(2) 1.21673(16) -0.21289(7)
C8B C 1.33531(19) 1.08916(16) -0.05309(6)
H6B H 1.4233 1.1341 -0.0606
H7B H 1.3741 1.0184 -0.0543
C9B C 0.7279(2) 1.03323(15) -0.11119(7)
H8B H 0.6731 1.0084 -0.1411
H9B H 0.6632 1.0903 -0.1014
C10B C 0.7420(2) 0.76298(14) -0.05691(7)
C11B C 0.7487(2) 0.84523(14) -0.08885(6)
C12B C 0.72847(18) 0.94715(13) -0.07558(6)
C13B C 0.70509(18) 0.96535(12) -0.02917(6)
H10B H 0.6947 1.0337 -0.0197
C14B C 0.69635(17) 0.88808(13) 0.00380(6)
C15B C 0.7134(2) 0.78567(13) -0.01090(6)
C16B C 0.7615(3) 0.65426(17) -0.07291(10)
N1 N 0.7452(2) 0.66089(16) 0.30175(7)
H11 H 0.7577 0.6867 0.2730
C17 C 0.5734(3) 0.6218(3) 0.29787(12)
H12 H 0.5674 0.5566 0.2810
H13 H 0.5470 0.6079 0.3292
C18 C 0.4474(4) 0.6921(5) 0.27408(15)
H14 H 0.3404 0.6611 0.2733
H15 H 0.4696 0.7046 0.2426
H16 H 0.4501 0.7565 0.2908
C19 C 0.8717(3) 0.5800(2) 0.31161(11)
H17 H 0.8436 0.5365 0.3369
H18 H 0.9770 0.6126 0.3221
C20 C 0.8885(5) 0.5139(3) 0.27001(14)
H19 H 0.9711 0.4619 0.2785
H20 H 0.9206 0.5561 0.2452
H21 H 0.7849 0.4811 0.2595
C21 C 0.7833(6) 0.7520(3) 0.33687(12)
H22 H 0.8936 0.7774 0.3345
H23 H 0.7067 0.8080 0.3276
C22 C 0.7728(7) 0.7262(5) 0.38546(15)
H24 H 0.7974 0.7865 0.4047
H25 H 0.8507 0.6725 0.3955
H26 H 0.6633 0.7026 0.3884
N2 N 1.2154(3) 1.60683(16) 0.08738(10)
H27 H 1.2209 1.5410 0.0763
C23 C 1.3112(12) 1.6112(8) 0.1334(3)
H28 H 1.3184 1.6834 0.1428
H29 H 1.2479 1.5762 0.1550
C24 C 1.4737(18) 1.5701(11) 0.1410(8)
H30 H 1.5211 1.5827 0.1729
H31 H 1.5400 1.6028 0.1200
H32 H 1.4699 1.4968 0.1352
C25 C 1.3019(12) 1.6800(6) 0.0549(4)
H33 H 1.2869 1.7511 0.0643
H34 H 1.4193 1.6655 0.0594
C26 C 1.243(3) 1.6702(10) 0.0073(4)
H35 H 1.3040 1.7157 -0.0105
H36 H 1.1284 1.6881 0.0021
H37 H 1.2573 1.6000 -0.0024
C27 C 1.0445(7) 1.6345(5) 0.0852(3)
H38 H 0.9990 1.6450 0.0526
H39 H 1.0361 1.6996 0.1015
C28 C 0.9445(11) 1.5553(16) 0.1060(8)
H40 H 0.8324 1.5788 0.1041
H41 H 0.9886 1.5445 0.1383
H42 H 0.9479 1.4915 0.0890
C29? C 1.3757(10) 1.6400(6) 0.1081(4)
C30? C 1.4845(18) 1.5574(15) 0.1297(10)
C31? C 1.1335(10) 1.6748(5) 0.0517(3)
C32? C 1.205(3) 1.683(2) 0.0098(6)
C33? C 1.1091(10) 1.5946(6) 0.1276(3)
C34? C 0.9465(18) 1.5623(19) 0.1155(9)
H43? H 1.3625 1.6915 0.1319
H44? H 1.4299 1.6734 0.0840
H45? H 1.5896 1.5864 0.1418
H46? H 1.4993 1.5059 0.1065
H47? H 1.4354 1.5262 0.1548
H48? H 1.0206 1.6513 0.0439
H49? H 1.1295 1.7436 0.0651
H50? H 1.1416 1.7297 -0.0113
H51? H 1.2061 1.6156 -0.0047
H52? H 1.3160 1.7078 0.0167
H53? H 1.1636 1.5453 0.1500
H54? H 1.1075 1.6606 0.1436
H55? H 0.8922 1.5600 0.1432
H56? H 0.9453 1.4945 0.1017
H57? H 0.8899 1.6100 0.0934
H58? H 1.2257 1.5435 0.0742
N3? N 1.2154(3) 1.60683(16) 0.08738(10)
loop_
_geom_bond_atom_site_label_1
_geom_bond_atom_site_label_2
_geom_bond_site_symmetry_1
_geom_bond_site_symmetry_2
O1 H1 1_555 1_555
O2 C7 1_555 1_555
O3 C7 1_555 1_555
O4 H2 1_555 1_555
O5 H3 1_555 1_555
O6 C16 1_555 1_555
O7 C16 1_555 1_555
O8 H4 1_555 1_555
C1 C2 1_555 1_555
C2 O1 1_555 1_555
C3 C2 1_555 1_555
C4 C3 1_555 1_555
H5 C4 1_555 1_555
C5 C4 1_555 1_555
C6 O4 1_555 1_555
C7 C1 1_555 1_555
C8 C3 1_555 1_555
H6 C8 1_555 1_555
H7 C8 1_555 1_555
C9 C5 1_555 1_555
H8 C9 1_555 1_555
H9 C9 1_555 1_555
C10 C11 1_555 1_555
C11 O5 1_555 1_555
C12 C9 1_555 1_555
C13 C12 1_555 1_555
H10 C13 1_555 1_555
C14 C13 1_555 1_555
C15 O8 1_555 1_555
C16 C10 1_555 1_555
N1 H11 1_555 1_555
C17 N1 1_555 1_555
H12 C17 1_555 1_555
H13 C17 1_555 1_555
C18 C17 1_555 1_555
H14 C18 1_555 1_555
H15 C18 1_555 1_555
H16 C18 1_555 1_555
C19 N1 1_555 1_555
H17 C19 1_555 1_555
H18 C19 1_555 1_555
C20 C19 1_555 1_555
H19 C20 1_555 1_555
H20 C20 1_555 1_555
H21 C20 1_555 1_555
C21 N1 1_555 1_555
H22 C21 1_555 1_555
H23 C21 1_555 1_555
C22 C21 1_555 1_555
H24 C22 1_555 1_555
H25 C22 1_555 1_555
H26 C22 1_555 1_555
N2 H27 1_555 1_555
C23 N2 1_555 1_555
H28 C23 1_555 1_555
H29 C23 1_555 1_555
C24 C23 1_555 1_555
H30 C24 1_555 1_555
H31 C24 1_555 1_555
H32 C24 1_555 1_555
C25 N2 1_555 1_555
H33 C25 1_555 1_555
H34 C25 1_555 1_555
C26 C25 1_555 1_555
H35 C26 1_555 1_555
H36 C26 1_555 1_555
H37 C26 1_555 1_555
C27 N2 1_555 1_555
H38 C27 1_555 1_555
H39 C27 1_555 1_555
C28 C27 1_555 1_555
H40 C28 1_555 1_555
H41 C28 1_555 1_555
H42 C28 1_555 1_555
O1B H1B 1_555 1_555
O2B C7B 1_555 1_555
O3B C7B 1_555 1_555
O4B H2B 1_555 1_555
O5B H3B 1_555 1_555
O6B C16B 1_555 1_555
O7B C16B 1_555 1_555
O8B H4B 1_555 1_555
C1B C2B 1_555 1_555
C2B O1B 1_555 1_555
C3B C2B 1_555 1_555
C4B C3B 1_555 1_555
H5B C4B 1_555 1_555
C5B C4B 1_555 1_555
C6B O4B 1_555 1_555
C7B C1B 1_555 1_555
C8B C14 1_555 1_555
H6B C8B 1_555 1_555
H7B C8B 1_555 1_555
C9B C5B 1_555 1_555
H8B C9B 1_555 1_555
H9B C9B 1_555 1_555
C10B C11B 1_555 1_555
C11B O5B 1_555 1_555
C12B C9B 1_555 1_555
C13B C12B 1_555 1_555
H10B C13B 1_555 1_555
C14B C8 1_555 1_555
C15B O8B 1_555 1_555
C16B C10B 1_555 1_555
C1 C6 1_555 1_555
C5 C6 1_555 1_555
C10 C15 1_555 1_555
C11 C12 1_555 1_555
C14 C15 1_555 1_555
C1B C6B 1_555 1_555
C3B C8B 1_555 1_555
C5B C6B 1_555 1_555
C10B C15B 1_555 1_555
C11B C12B 1_555 1_555
C13B C14B 1_555 1_555
C14B C15B 1_555 1_555

#END
