
#######################################################################
#
#                 Cambridge Crystallographic Data Centre
#                                CCDC 
#
#######################################################################
#
# If this CIF has been generated from an entry in the Cambridge 
# Structural Database, then it will include bibliographic, chemical, 
# crystal, experimental, refinement or atomic coordinate data resulting 
# from the CCDC's data processing and validation procedures.
#
#######################################################################

data_GUVREV
_chemical_formula_moiety         'C10 H4 O8 2-,2(C5 H6 N1 O1 1+),H2 O1'
_chemical_name_systematic        
'bis(4-Hydroxypyridinium) 1,2-dicarboxybenzene-4,5-dicarboxylate monohydrate'
_symmetry_cell_setting           monoclinic
_symmetry_space_group_name_H-M   'P n'
_symmetry_Int_Tables_number      7
_space_group_name_Hall           'P -2yac'
loop_
_symmetry_equiv_pos_site_id
_symmetry_equiv_pos_as_xyz
1 x,y,z
2 1/2+x,-y,1/2+z
_cell_length_a                   9.4672(8)
_cell_length_b                   11.1309(14)
_cell_length_c                   9.4717(9)
_cell_angle_alpha                90
_cell_angle_beta                 100.132(7)
_cell_angle_gamma                90
_cell_volume                     982.548
_exptl_crystal_colour            brown
_exptl_crystal_description       prism
_chemical_melting_point          '234-236 deg.C'
_cell_formula_units_Z            2
_exptl_crystal_recrystallization_method water
loop_
_atom_site_label
_atom_site_type_symbol
_atom_site_fract_x
_atom_site_fract_y
_atom_site_fract_z
O1 O 0.9860(3) 0.2831(4) 0.4790(4)
O2 O 1.0196(3) 0.1320(3) 0.6378(4)
H1 H 1.1045 0.1403 0.6319
O3 O 0.6543(5) 0.3629(3) 0.2665(4)
O4 O 0.7328(4) 0.1745(3) 0.2746(3)
H2 H 0.7200 0.1815 0.1871
O5 O 0.3115(4) 0.3370(3) 0.7196(4)
O6 O 0.2920(3) 0.1465(3) 0.6396(4)
O7 O 0.7264(3) 0.1852(4) 1.0102(3)
O8 O 0.4911(4) 0.1752(4) 0.9425(3)
C1 C 0.7925(4) 0.2240(4) 0.5921(4)
C2 C 0.6778(5) 0.2565(4) 0.4861(4)
C3 C 0.5406(4) 0.2653(4) 0.5196(4)
H7 H 0.4642 0.2870 0.4484
C4 C 0.5160(4) 0.2424(4) 0.6567(4)
C5 C 0.6320(4) 0.2145(4) 0.7662(5)
C6 C 0.7690(4) 0.2058(4) 0.7318(4)
H8 H 0.8464 0.1875 0.8036
C7 C 0.9431(4) 0.2175(4) 0.5629(4)
C8 C 0.6899(5) 0.2709(4) 0.3304(5)
C9 C 0.3620(5) 0.2415(4) 0.6782(4)
C10 C 0.6134(5) 0.1901(4) 0.9185(4)
O9 O 0.5841(4) 0.6479(4) 0.3279(4)
H3 H 0.6585 0.6496 0.2948
N1 N 0.6564(6) 0.5325(4) 0.7389(5)
H5 H 0.6698 0.5075 0.8261
C11 C 0.7688(7) 0.5346(5) 0.6676(6)
H9 H 0.8589 0.5090 0.7129
C12 C 0.7493(5) 0.5742(5) 0.5298(5)
H10 H 0.8262 0.5776 0.4809
C13 C 0.6123(5) 0.6096(4) 0.4622(5)
C14 C 0.4998(6) 0.6066(5) 0.5400(6)
H11 H 0.4081 0.6310 0.4976
C15 C 0.5258(7) 0.5681(5) 0.6771(6)
H12 H 0.4513 0.5664 0.7293
O10 O 0.8997(4) 0.8349(4) 0.6788(3)
H4 H 0.9360 0.8383 0.6064
N2 N 0.4932(4) 0.9624(4) 0.6073(5)
H6 H 0.4079 0.9917 0.5949
C16 C 0.5652(5) 0.9610(5) 0.4963(6)
H13 H 0.5215 0.9897 0.4070
C17 C 0.7024(5) 0.9174(4) 0.5150(5)
H14 H 0.7524 0.9163 0.4389
C18 C 0.7662(5) 0.8749(4) 0.6493(5)
C19 C 0.6853(6) 0.8745(5) 0.7611(6)
H15 H 0.7240 0.8437 0.8509
C20 C 0.5512(6) 0.9194(5) 0.7353(6)
H16 H 0.4978 0.9205 0.8089
O11 O 0.1376(6) 0.5201(4) 0.5098(4)
H17 H 0.1576 0.5689 0.5796
H18 H 0.1116 0.4524 0.5379
loop_
_geom_bond_atom_site_label_1
_geom_bond_atom_site_label_2
_geom_bond_site_symmetry_1
_geom_bond_site_symmetry_2
O1 C7 1_555 1_555
O2 H1 1_555 1_555
O3 C8 1_555 1_555
O4 H2 1_555 1_555
O5 C9 1_555 1_555
O6 C9 1_555 1_555
O7 C10 1_555 1_555
O8 C10 1_555 1_555
O9 H3 1_555 1_555
O10 H4 1_555 1_555
N1 H5 1_555 1_555
N2 H6 1_555 1_555
C1 C2 1_555 1_555
C2 C3 1_555 1_555
C3 H7 1_555 1_555
C4 C3 1_555 1_555
C5 C4 1_555 1_555
C6 C1 1_555 1_555
H8 C6 1_555 1_555
C7 O2 1_555 1_555
C8 O4 1_555 1_555
C9 C4 1_555 1_555
C10 C5 1_555 1_555
C11 N1 1_555 1_555
H9 C11 1_555 1_555
C12 C11 1_555 1_555
H10 C12 1_555 1_555
C13 O9 1_555 1_555
C14 C13 1_555 1_555
H11 C14 1_555 1_555
C15 N1 1_555 1_555
H12 C15 1_555 1_555
C16 N2 1_555 1_555
H13 C16 1_555 1_555
C17 C16 1_555 1_555
H14 C17 1_555 1_555
C18 O10 1_555 1_555
C19 C18 1_555 1_555
H15 C19 1_555 1_555
C20 N2 1_555 1_555
H16 C20 1_555 1_555
O11 H17 1_555 1_555
H18 O11 1_555 1_555
C1 C7 1_555 1_555
C2 C8 1_555 1_555
C5 C6 1_555 1_555
C12 C13 1_555 1_555
C14 C15 1_555 1_555
C17 C18 1_555 1_555
C19 C20 1_555 1_555

#END
