
#######################################################################
#
#                 Cambridge Crystallographic Data Centre
#                                CCDC 
#
#######################################################################
#
# If this CIF has been generated from an entry in the Cambridge 
# Structural Database, then it will include bibliographic, chemical, 
# crystal, experimental, refinement or atomic coordinate data resulting 
# from the CCDC's data processing and validation procedures.
#
#######################################################################

data_GUVTIA
_chemical_formula_moiety         'C34 H40 Cl1 N1 O13,C6 H12'
_chemical_name_systematic        
'3,10a-Diacetoxy-5-chloro-8-hydroxy-9-methoxy-12-(methoxyimino)-2a-(methoxymethyl)-2-oxotetradecahydro-2H-5a,11:6,8-dimethanobenzo(5,6)cyclohepta(1,2,3-cd)(2)benzofuran-7-yl 4-methoxybenzoate cyclohexane solvate'
_symmetry_cell_setting           orthorhombic
_symmetry_space_group_name_H-M   'P 21 21 21'
_symmetry_Int_Tables_number      19
_space_group_name_Hall           'P 2ac 2ab'
loop_
_symmetry_equiv_pos_site_id
_symmetry_equiv_pos_as_xyz
1 x,y,z
2 1/2-x,-y,1/2+z
3 1/2+x,1/2-y,-z
4 -x,1/2+y,1/2-z
_cell_length_a                   9.490(2)
_cell_length_b                   14.269(3)
_cell_length_c                   29.806(5)
_cell_angle_alpha                90
_cell_angle_beta                 90
_cell_angle_gamma                90
_cell_volume                     4036.11
_exptl_crystal_colour            colorless
_exptl_crystal_description       needle
_cell_formula_units_Z            4
_exptl_crystal_recrystallization_method cyclohexane/acetone
loop_
_atom_site_label
_atom_site_type_symbol
_atom_site_fract_x
_atom_site_fract_y
_atom_site_fract_z
Cl1 Cl 0.7504(2) 0.3658(1) 0.2023(1)
O1 O 0.3033(3) 0.2847(2) 0.2422(1)
O2 O 0.6987(3) 0.1789(2) 0.3214(1)
O3 O 0.9285(5) 0.1675(4) 0.3378(1)
O4 O 0.5832(4) 0.0037(2) 0.2268(1)
O5 O 0.4314(3) 0.0215(2) 0.1001(1)
O6 O 0.2746(4) -0.0719(2) 0.1349(1)
O7 O 0.2906(3) 0.3712(2) 0.0664(1)
O8 O 0.3755(3) 0.1781(2) 0.0358(1)
O9 O 0.5834(1) 0.1333(3) 0.0078(1)
O10 O 0.1261(5) -0.0648(3) -0.1179(1)
O11 O 0.1012(4) 0.2386(2) 0.0766(1)
O12 O 0.9028(4) 0.0333(3) 0.2052(1)
O13 O 0.6889(4) 0.0007(2) 0.2926(1)
N1 N 0.3015(4) 0.1950(2) 0.2225(1)
C1 C 0.5866(5) 0.3118(3) 0.2212(1)
C2 C 0.1716(6) 0.3011(4) 0.2631(2)
C3 C 0.6043(5) 0.2827(3) 0.2698(1)
C4 C 0.7243(5) 0.2137(3) 0.2770(1)
C5 C 0.8093(8) 0.1570(4) 0.3478(3)
C6 C 0.7558(8) 0.1148(4) 0.3913(2)
C7 C 0.7344(5) 0.1323(3) 0.2419(1)
C8 C 0.6626(4) 0.1505(3) 0.1957(1)
C9 C 0.5814(5) 0.0585(3) 0.1862(1)
C10 C 0.4290(5) 0.0849(3) 0.1775(1)
C11 C 0.3991(5) 0.1050(3) 0.1271(1)
C12 C 0.3584(6) -0.0582(4) 0.1057(2)
C13 C 0.3970(9) -0.1289(4) 0.0704(2)
C14 C 0.5040(5) 0.1764(3) 0.1089(1)
C15 C 0.5360(5) 0.2578(3) 0.1418(1)
C16 C 0.5530(4) 0.2291(3) 0.1916(1)
C17 C 0.4216(5) 0.3304(3) 0.1330(1)
C18 C 0.3355(5) 0.2944(3) 0.0924(1)
C19 C 0.4442(5) 0.2321(3) 0.0696(1)
C20 C 0.2436(5) 0.1321(3) 0.1191(1)
C21 C 0.2096(5) 0.2360(3) 0.1092(1)
C22 C -0.0357(6) 0.2244(5) 0.0932(2)
C23 C 0.4153(5) 0.1767(3) 0.2014(1)
C24 C 0.8901(5) 0.1105(4) 0.2355(2)
C25 C 1.0333(5) -0.0093(4) 0.2089(2)
C26 C 0.6685(5) 0.0404(3) 0.2585(2)
C27 C 0.4576(6) 0.1308(4) 0.0066(2)
C28 C 0.3705(6) 0.0773(3) -0.0259(1)
C29 C 0.4368(6) 0.0289(4) -0.0599(2)
C30 C 0.3573(6) -0.0206(4) -0.0914(2)
C31 C 0.2136(7) -0.0202(4) -0.0887(2)
C32 C 0.1475(6) 0.0290(4) -0.0553(2)
C33 C 0.2262(5) 0.0784(4) -0.0242(2)
C34 C 0.1826(8) -0.1125(5) -0.1553(2)
H1 H 0.2208 0.3563 0.0518
H2 H 0.5101 0.3577 0.2191
H3 H 0.0999 0.3072 0.2406
H4 H 0.1764 0.3577 0.2804
H5 H 0.1492 0.2495 0.2825
H6 H 0.5172 0.2546 0.2801
H7 H 0.6214 0.3382 0.2878
H8 H 0.8135 0.2483 0.2770
H9 H 0.7520 0.0478 0.3884
H10 H 0.6632 0.1385 0.3976
H11 H 0.8183 0.1314 0.4153
H12 H 0.7354 0.1592 0.1727
H13 H 0.6223 0.0240 0.1609
H14 H 0.3639 0.0380 0.1896
H15 H 0.3415 -0.1845 0.0744
H16 H 0.4951 -0.1443 0.0730
H17 H 0.3789 -0.1031 0.0412
H18 H 0.5916 0.1452 0.1000
H19 H 0.6256 0.2857 0.1323
H20 H 0.4634 0.3908 0.1263
H21 H 0.3614 0.3370 0.1591
H22 H 0.5184 0.2708 0.0561
H23 H 0.1903 0.1137 0.1454
H24 H 0.2088 0.0950 0.0942
H25 H 0.1740 0.2648 0.1368
H26 H -0.0469 0.1599 0.1017
H27 H -0.1030 0.2398 0.0703
H28 H -0.0507 0.2637 0.1189
H29 H 0.9384 0.1648 0.2233
H30 H 0.9328 0.0948 0.2641
H31 H 1.1060 0.0371 0.2059
H32 H 1.0435 -0.0552 0.1856
H33 H 1.0410 -0.0392 0.2376
H34 H 0.5346 0.0292 -0.0619
H35 H 0.4021 -0.0537 -0.1142
H36 H 0.0497 0.0293 -0.0535
H37 H 0.1808 0.1127 -0.0019
H38 H 0.2427 -0.0709 -0.1718
H39 H 0.1073 -0.1336 -0.1742
H40 H 0.2363 -0.1655 -0.1451
C35 C -0.0868(17) -0.1695(9) 0.0932(3)
C36 C -0.0840(18) -0.2200(5) 0.0475(5)
C37 C -0.1940(20) -0.1786(9) 0.0150(4)
C38 C -0.1722(19) -0.0723(9) 0.0092(3)
C39 C -0.1761(16) -0.0217(6) 0.0551(5)
C40 C -0.0665(18) -0.0628(8) 0.0875(4)
H41 H -0.0125 -0.1942 0.1122
H42 H -0.1762 -0.1814 0.1079
H43 H 0.0092 -0.2141 0.0344
H44 H -0.1030 -0.2861 0.0519
H45 H -0.2878 -0.1904 0.0266
H46 H -0.1859 -0.2092 -0.0139
H47 H -0.2456 -0.0473 -0.0100
H48 H -0.0822 -0.0609 -0.0052
H49 H -0.1574 0.0445 0.0507
H50 H -0.2693 -0.0279 0.0681
H51 H -0.0751 -0.0324 0.1164
H52 H 0.0273 -0.0505 0.0760
C41? C -0.0570(20) -0.1491(10) 0.0092(3)
C42? C -0.1978(17) -0.0909(11) 0.0939(4)
H53? H -0.1079 -0.2145 0.1167
H54? H 0.0054 -0.1430 0.0993
H55? H -0.1732 -0.2515 0.0426
H56? H -0.0100 -0.2669 0.0475
H57? H 0.0345 -0.1205 0.0130
H58? H -0.0582 -0.1816 -0.0194
H59? H -0.2634 -0.1005 0.0032
H60? H -0.1528 -0.0273 -0.0143
H61? H -0.0883 0.0118 0.0595
H62? H -0.2520 0.0238 0.0551
H63? H -0.2911 -0.1183 0.0916
H64? H -0.1921 -0.0575 0.1221
loop_
_geom_bond_atom_site_label_1
_geom_bond_atom_site_label_2
_geom_bond_site_symmetry_1
_geom_bond_site_symmetry_2
Cl1 C1 1_555 1_555
O1 N1 1_555 1_555
O2 C4 1_555 1_555
O3 C5 1_555 1_555
O4 C9 1_555 1_555
O5 C11 1_555 1_555
O6 C12 1_555 1_555
O7 C18 1_555 1_555
O8 C19 1_555 1_555
O9 C27 1_555 1_555
O10 C31 1_555 1_555
O11 C21 1_555 1_555
O12 C24 1_555 1_555
O13 C26 1_555 1_555
N1 C23 1_555 1_555
C1 C3 1_555 1_555
C2 O1 1_555 1_555
C3 C4 1_555 1_555
C4 C7 1_555 1_555
C5 O2 1_555 1_555
C6 C5 1_555 1_555
C7 C8 1_555 1_555
C8 C9 1_555 1_555
C9 C10 1_555 1_555
C10 C11 1_555 1_555
C11 C14 1_555 1_555
C12 O5 1_555 1_555
C13 C12 1_555 1_555
C14 C15 1_555 1_555
C15 C16 1_555 1_555
C16 C1 1_555 1_555
C17 C15 1_555 1_555
C18 C17 1_555 1_555
C19 C14 1_555 1_555
C20 C11 1_555 1_555
C21 C18 1_555 1_555
C22 O11 1_555 1_555
C23 C10 1_555 1_555
C24 C7 1_555 1_555
C25 O12 1_555 1_555
C26 O4 1_555 1_555
C27 O8 1_555 1_555
C28 C27 1_555 1_555
C29 C28 1_555 1_555
C30 C29 1_555 1_555
C31 C30 1_555 1_555
C32 C31 1_555 1_555
C33 C28 1_555 1_555
C34 O10 1_555 1_555
C35 C36 1_555 1_555
C36 C37 1_555 1_555
C37 C38 1_555 1_555
C38 C39 1_555 1_555
C39 C40 1_555 1_555
C40 C35 1_555 1_555
H1 O7 1_555 1_555
H2 C1 1_555 1_555
H3 C2 1_555 1_555
H4 C2 1_555 1_555
H5 C2 1_555 1_555
H6 C3 1_555 1_555
H7 C3 1_555 1_555
H8 C4 1_555 1_555
H9 C6 1_555 1_555
H10 C6 1_555 1_555
H11 C6 1_555 1_555
H12 C8 1_555 1_555
H13 C9 1_555 1_555
H14 C10 1_555 1_555
H15 C13 1_555 1_555
H16 C13 1_555 1_555
H17 C13 1_555 1_555
H18 C14 1_555 1_555
H19 C15 1_555 1_555
H20 C17 1_555 1_555
H21 C17 1_555 1_555
H22 C19 1_555 1_555
H23 C20 1_555 1_555
H24 C20 1_555 1_555
H25 C21 1_555 1_555
H26 C22 1_555 1_555
H27 C22 1_555 1_555
H28 C22 1_555 1_555
H29 C24 1_555 1_555
H30 C24 1_555 1_555
H31 C25 1_555 1_555
H32 C25 1_555 1_555
H33 C25 1_555 1_555
H34 C29 1_555 1_555
H35 C30 1_555 1_555
H36 C32 1_555 1_555
H37 C33 1_555 1_555
H38 C34 1_555 1_555
H39 C34 1_555 1_555
H40 C34 1_555 1_555
H41 C35 1_555 1_555
H42 C35 1_555 1_555
H43 C36 1_555 1_555
H44 C36 1_555 1_555
H45 C37 1_555 1_555
H46 C37 1_555 1_555
H47 C38 1_555 1_555
H48 C38 1_555 1_555
H49 C39 1_555 1_555
H50 C39 1_555 1_555
H51 C40 1_555 1_555
H52 C40 1_555 1_555
C7 C26 1_555 1_555
C8 C16 1_555 1_555
C16 C23 1_555 1_555
C18 C19 1_555 1_555
C20 C21 1_555 1_555
C32 C33 1_555 1_555

#END
