
#######################################################################
#
#                 Cambridge Crystallographic Data Centre
#                                CCDC 
#
#######################################################################
#
# If this CIF has been generated from an entry in the Cambridge 
# Structural Database, then it will include bibliographic, chemical, 
# crystal, experimental, refinement or atomic coordinate data resulting 
# from the CCDC's data processing and validation procedures.
#
#######################################################################

data_GUVTAT
_chemical_formula_moiety         'C24 H28 N2 O6 S1'
_chemical_name_systematic        
'Methyl 1-benzyl-4-(2-methoxy-2-oxoethyl)-7-(phenylsulfonyl)-1,2,3,4,5,6-hexahydro-1,4-diazocine-5-carboxylate'
_symmetry_cell_setting           triclinic
_symmetry_space_group_name_H-M   'P -1'
_symmetry_Int_Tables_number      2
_space_group_name_Hall           '-P 1'
loop_
_symmetry_equiv_pos_site_id
_symmetry_equiv_pos_as_xyz
1 x,y,z
2 -x,-y,-z
_cell_length_a                   8.1882(5)
_cell_length_b                   11.4769(8)
_cell_length_c                   14.3762(10)
_cell_angle_alpha                110.299(2)
_cell_angle_beta                 94.434(2)
_cell_angle_gamma                106.124(2)
_cell_volume                     1194.43
_exptl_crystal_colour            colorless
_exptl_crystal_description       block
_chemical_melting_point          '122.3-124.0 deg.C'
_cell_formula_units_Z            2
loop_
_atom_site_label
_atom_site_type_symbol
_atom_site_fract_x
_atom_site_fract_y
_atom_site_fract_z
C1 C 0.54086(18) 0.24331(15) 0.91841(10)
C2 C 0.53661(19) 0.32675(15) 0.87114(11)
H1 H 0.5903 0.4173 0.9123
N1 N 0.46801(17) 0.30111(13) 0.77489(9)
C3 C 0.3867(2) 0.16792(16) 0.69978(12)
H2 H 0.3151 0.1718 0.6429
H3 H 0.3078 0.1162 0.7306
C4 C 0.5123(2) 0.09496(15) 0.65734(11)
H4 H 0.4467 0.0002 0.6216
H5 H 0.5635 0.1277 0.6073
N2 N 0.65162(16) 0.11114(12) 0.73522(9)
C5 C 0.61071(19) 0.04457(14) 0.80493(11)
H6 H 0.7223 0.0631 0.8497
C6 C 0.48962(19) 0.09543(15) 0.87396(11)
H7 H 0.3699 0.0586 0.8344
H8 H 0.4904 0.0634 0.9296
S1 S 0.64758(5) 0.31816(4) 1.04354(3)
O1 O 0.55009(15) 0.25896(14) 1.10424(9)
O2 O 0.69700(16) 0.45952(12) 1.07625(8)
C7 C 0.83938(18) 0.27464(14) 1.04208(11)
C8 C 0.8671(2) 0.20014(16) 1.09604(13)
H9 H 0.7851 0.1734 1.1341
C9 C 1.0162(2) 0.16529(19) 1.09364(16)
H10 H 1.0363 0.1138 1.1299
C10 C 1.1354(2) 0.20484(19) 1.03894(17)
H11 H 1.2369 0.1801 1.0376
C11 C 1.1086(2) 0.28034(18) 0.98597(14)
H12 H 1.1922 0.3080 0.9491
C12 C 0.9592(2) 0.31561(16) 0.98682(12)
H13 H 0.9393 0.3668 0.9503
C13 C 0.5118(2) 0.40823(16) 0.73823(13)
H14 H 0.5347 0.4928 0.7958
H15 H 0.4112 0.3967 0.6891
C14 C 0.6684(2) 0.41425(15) 0.68825(11)
C15 C 0.8337(2) 0.46172(17) 0.74607(12)
H16 H 0.8484 0.4908 0.8176
C16 C 0.9776(3) 0.46723(18) 0.70098(14)
H17 H 1.0902 0.4994 0.7414
C17 C 0.9573(3) 0.42591(18) 0.59713(15)
H18 H 1.0559 0.4307 0.5661
C18 C 0.7934(3) 0.37759(18) 0.53851(13)
H19 H 0.7793 0.3484 0.4670
C19 C 0.6498(2) 0.37159(16) 0.58364(12)
H20 H 0.5374 0.3380 0.5428
C20 C 0.8164(2) 0.11339(16) 0.70409(13)
H21 H 0.9051 0.1405 0.7651
H22 H 0.8492 0.1817 0.6755
C21 C 0.8230(2) -0.01501(16) 0.62697(13)
O3 O 0.70726(16) -0.09581(11) 0.56060(8)
O4 O 0.97999(17) -0.02578(15) 0.64345(14)
C22 C 1.0050(3) -0.1433(3) 0.5738(2)
H23 H 0.9228 -0.2212 0.5776
H24 H 1.1236 -0.1417 0.5921
H25 H 0.9853 -0.1462 0.5048
C23 C 0.5347(2) -0.10385(15) 0.74925(11)
O5 O 0.38558(15) -0.16271(11) 0.70800(9)
O6 O 0.65883(15) -0.15956(10) 0.74791(8)
C24 C 0.6047(3) -0.30010(17) 0.69222(13)
H26 H 0.5053 -0.3431 0.7161
H27 H 0.7005 -0.3326 0.7028
H28 H 0.5716 -0.3199 0.6200
loop_
_geom_bond_atom_site_label_1
_geom_bond_atom_site_label_2
_geom_bond_site_symmetry_1
_geom_bond_site_symmetry_2
C1 C2 1_555 1_555
C2 H1 1_555 1_555
N1 C2 1_555 1_555
C3 N1 1_555 1_555
H2 C3 1_555 1_555
H3 C3 1_555 1_555
C4 C3 1_555 1_555
H4 C4 1_555 1_555
H5 C4 1_555 1_555
N2 C4 1_555 1_555
C5 N2 1_555 1_555
H6 C5 1_555 1_555
C6 C1 1_555 1_555
H7 C6 1_555 1_555
H8 C6 1_555 1_555
S1 C1 1_555 1_555
O1 S1 1_555 1_555
O2 S1 1_555 1_555
C7 S1 1_555 1_555
C8 C7 1_555 1_555
H9 C8 1_555 1_555
C9 C8 1_555 1_555
H10 C9 1_555 1_555
C10 C9 1_555 1_555
H11 C10 1_555 1_555
C11 C10 1_555 1_555
H12 C11 1_555 1_555
C12 C7 1_555 1_555
H13 C12 1_555 1_555
C13 N1 1_555 1_555
H14 C13 1_555 1_555
H15 C13 1_555 1_555
C14 C13 1_555 1_555
C15 C14 1_555 1_555
H16 C15 1_555 1_555
C16 C15 1_555 1_555
H17 C16 1_555 1_555
C17 C16 1_555 1_555
H18 C17 1_555 1_555
C18 C17 1_555 1_555
H19 C18 1_555 1_555
C19 C14 1_555 1_555
H20 C19 1_555 1_555
C20 N2 1_555 1_555
H21 C20 1_555 1_555
H22 C20 1_555 1_555
C21 C20 1_555 1_555
O3 C21 1_555 1_555
O4 C21 1_555 1_555
C22 O4 1_555 1_555
H23 C22 1_555 1_555
H24 C22 1_555 1_555
H25 C22 1_555 1_555
C23 C5 1_555 1_555
O5 C23 1_555 1_555
O6 C23 1_555 1_555
C24 O6 1_555 1_555
H26 C24 1_555 1_555
H27 C24 1_555 1_555
H28 C24 1_555 1_555
C5 C6 1_555 1_555
C11 C12 1_555 1_555
C18 C19 1_555 1_555

#END
