
#######################################################################
#
#                 Cambridge Crystallographic Data Centre
#                                CCDC 
#
#######################################################################
#
# If this CIF has been generated from an entry in the Cambridge 
# Structural Database, then it will include bibliographic, chemical, 
# crystal, experimental, refinement or atomic coordinate data resulting 
# from the CCDC's data processing and validation procedures.
#
#######################################################################

data_GUVWUQ
_chemical_formula_moiety         'C19 H14 N2 O1,C1 H4 O1'
_chemical_name_systematic        
'3-(furan-2-yl)-5-(biphenyl-4-yl)-1H-pyrazole methanol solvate'
_symmetry_cell_setting           triclinic
_symmetry_space_group_name_H-M   'P -1'
_symmetry_Int_Tables_number      2
_space_group_name_Hall           '-P 1'
loop_
_symmetry_equiv_pos_site_id
_symmetry_equiv_pos_as_xyz
1 x,y,z
2 -x,-y,-z
_cell_length_a                   10.3615(18)
_cell_length_b                   13.023(2)
_cell_length_c                   13.641(2)
_cell_angle_alpha                74.455(3)
_cell_angle_beta                 70.384(3)
_cell_angle_gamma                79.281(3)
_cell_volume                     1661.06
_exptl_crystal_colour            colorless
_exptl_crystal_description       block
_cell_formula_units_Z            4
loop_
_atom_site_label
_atom_site_type_symbol
_atom_site_fract_x
_atom_site_fract_y
_atom_site_fract_z
C1 C 0.7761(3) 0.4810(2) 0.50362(19)
C2 C 0.6509(3) 0.5431(2) 0.5070(2)
H1 H 0.5722 0.5223 0.5621
C3 C 0.6410(4) 0.6353(2) 0.4298(3)
H2 H 0.5559 0.6748 0.4323
C4 C 0.7570(4) 0.6687(2) 0.3494(2)
H3 H 0.7509 0.7317 0.2984
C5 C 0.8810(4) 0.6089(3) 0.3447(2)
H4 H 0.9596 0.6313 0.2904
C6 C 0.8905(3) 0.5156(2) 0.4199(2)
H5 H 0.9755 0.4748 0.4145
C7 C 0.7883(2) 0.3838(2) 0.58785(19)
C8 C 0.7068(3) 0.3771(2) 0.6933(2)
H6 H 0.6406 0.4336 0.7105
C9 C 0.7216(3) 0.2891(2) 0.7727(2)
H7 H 0.6655 0.2875 0.8424
C10 C 0.8188(2) 0.20249(19) 0.75070(19)
C11 C 0.9001(3) 0.2088(2) 0.6455(2)
H8 H 0.9662 0.1522 0.6281
C12 C 0.8849(3) 0.2969(2) 0.5664(2)
H9 H 0.9408 0.2984 0.4967
C13 C 0.8349(2) 0.10805(18) 0.83394(18)
C14 C 0.9358(3) 0.02235(19) 0.8323(2)
H10 H 1.0139 0.0123 0.7756
C15 C 0.8975(2) -0.04584(19) 0.9324(2)
C16 C 0.9673(3) -0.1477(2) 0.9720(2)
C17 C 1.0985(3) -0.1857(2) 0.9402(2)
H11 H 1.1691 -0.1502 0.8870
C18 C 1.1106(4) -0.2903(3) 1.0024(3)
H12 H 1.1911 -0.3365 1.0000
C19 C 0.9852(4) -0.3100(3) 1.0648(3)
H13 H 0.9636 -0.3739 1.1142
N1 N 0.7429(2) 0.08865(16) 0.93163(16)
H14 H 0.670(2) 0.1270(18) 0.9642(19)
N2 N 0.7793(2) -0.00476(16) 0.99324(16)
O1 O 0.8907(2) -0.22317(17) 1.04687(18)
C20 C 0.8309(2) -0.23062(19) 0.67352(19)
C21 C 0.9378(3) -0.2264(2) 0.7122(2)
H15 H 0.9863 -0.1665 0.6858
C22 C 0.9729(3) -0.3095(2) 0.7891(2)
H16 H 1.0442 -0.3048 0.8141
C23 C 0.9039(3) -0.3983(2) 0.8285(2)
H17 H 0.9274 -0.4537 0.8809
C24 C 0.7996(3) -0.4059(2) 0.7906(2)
H18 H 0.7529 -0.4667 0.8170
C25 C 0.7641(3) -0.3233(2) 0.7135(2)
H19 H 0.6942 -0.3297 0.6878
C26 C 0.7883(2) -0.13957(19) 0.59531(18)
C27 C 0.8005(3) -0.0348(2) 0.5924(2)
H20 H 0.8363 -0.0213 0.6413
C28 C 0.7613(3) 0.0500(2) 0.5197(2)
H21 H 0.7719 0.1193 0.5200
C29 C 0.7063(2) 0.03460(19) 0.44565(18)
C30 C 0.6927(3) -0.0700(2) 0.4487(2)
H22 H 0.6555 -0.0834 0.4006
C31 C 0.7329(3) -0.1547(2) 0.5214(2)
H23 H 0.7227 -0.2240 0.5209
C32 C 0.6663(2) 0.12679(19) 0.36822(19)
C33 C 0.6743(3) 0.2344(2) 0.3531(2)
H24 H 0.7055 0.2667 0.3927
C34 C 0.6263(2) 0.28512(18) 0.26626(19)
C35 C 0.6238(2) 0.39756(19) 0.2128(2)
C36 C 0.6740(3) 0.4798(2) 0.2244(2)
H25 H 0.7170 0.4781 0.2747
C37 C 0.6486(3) 0.5696(2) 0.1453(3)
H26 H 0.6718 0.6385 0.1335
C38 C 0.5856(3) 0.5368(2) 0.0914(2)
H27 H 0.5574 0.5800 0.0343
N3 N 0.6132(2) 0.11680(16) 0.29423(16)
H28 H 0.602(3) 0.0599(16) 0.280(2)
N4 N 0.5886(2) 0.21261(15) 0.23117(16)
O2 O 0.56758(19) 0.43105(14) 0.13089(15)
C39 C 0.3956(3) 0.1722(3) 1.0733(2)
H29 H 0.3937 0.1418 1.0171
H30 H 0.3229 0.2297 1.0831
H31 H 0.3829 0.1181 1.1383
O3 O 0.52290(19) 0.21171(16) 1.04617(14)
H32 H 0.538(3) 0.217(2) 1.0994(18)
C40 C 0.5128(4) -0.1160(3) 0.2237(3)
H33 H 0.4602 -0.1312 0.2978
H34 H 0.5494 -0.1821 0.2011
H35 H 0.4545 -0.0747 0.1822
O4 O 0.6208(2) -0.05824(16) 0.20914(15)
H36 H 0.672(3) -0.043(3) 0.1483(16)
loop_
_geom_bond_atom_site_label_1
_geom_bond_atom_site_label_2
_geom_bond_site_symmetry_1
_geom_bond_site_symmetry_2
C1 C2 1_555 1_555
C2 H1 1_555 1_555
C3 C2 1_555 1_555
H2 C3 1_555 1_555
C4 C3 1_555 1_555
H3 C4 1_555 1_555
C5 C4 1_555 1_555
H4 C5 1_555 1_555
C6 C1 1_555 1_555
H5 C6 1_555 1_555
C7 C1 1_555 1_555
C8 C7 1_555 1_555
H6 C8 1_555 1_555
C9 C8 1_555 1_555
H7 C9 1_555 1_555
C10 C9 1_555 1_555
C11 C10 1_555 1_555
H8 C11 1_555 1_555
C12 C7 1_555 1_555
H9 C12 1_555 1_555
C13 C10 1_555 1_555
C14 C13 1_555 1_555
H10 C14 1_555 1_555
C15 C14 1_555 1_555
C16 C15 1_555 1_555
C17 C16 1_555 1_555
H11 C17 1_555 1_555
C18 C17 1_555 1_555
H12 C18 1_555 1_555
C19 C18 1_555 1_555
H13 C19 1_555 1_555
N1 C13 1_555 1_555
H14 N1 1_555 1_555
N2 C15 1_555 1_555
O1 C16 1_555 1_555
C20 C21 1_555 1_555
C21 H15 1_555 1_555
C22 C21 1_555 1_555
H16 C22 1_555 1_555
C23 C22 1_555 1_555
H17 C23 1_555 1_555
C24 C23 1_555 1_555
H18 C24 1_555 1_555
C25 C20 1_555 1_555
H19 C25 1_555 1_555
C26 C20 1_555 1_555
C27 C26 1_555 1_555
H20 C27 1_555 1_555
C28 C27 1_555 1_555
H21 C28 1_555 1_555
C29 C28 1_555 1_555
C30 C29 1_555 1_555
H22 C30 1_555 1_555
C31 C26 1_555 1_555
H23 C31 1_555 1_555
C32 C29 1_555 1_555
C33 C32 1_555 1_555
H24 C33 1_555 1_555
C34 C33 1_555 1_555
C35 C34 1_555 1_555
C36 C35 1_555 1_555
H25 C36 1_555 1_555
C37 C36 1_555 1_555
H26 C37 1_555 1_555
C38 C37 1_555 1_555
H27 C38 1_555 1_555
N3 C32 1_555 1_555
H28 N3 1_555 1_555
N4 C34 1_555 1_555
O2 C35 1_555 1_555
C39 H29 1_555 1_555
H30 C39 1_555 1_555
H31 C39 1_555 1_555
O3 C39 1_555 1_555
H32 O3 1_555 1_555
C40 H33 1_555 1_555
H34 C40 1_555 1_555
H35 C40 1_555 1_555
O4 C40 1_555 1_555
H36 O4 1_555 1_555
C5 C6 1_555 1_555
C11 C12 1_555 1_555
C19 O1 1_555 1_555
N1 N2 1_555 1_555
C24 C25 1_555 1_555
C30 C31 1_555 1_555
C38 O2 1_555 1_555
N3 N4 1_555 1_555

#END
