
#######################################################################
#
#                 Cambridge Crystallographic Data Centre
#                                CCDC 
#
#######################################################################
#
# If this CIF has been generated from an entry in the Cambridge 
# Structural Database, then it will include bibliographic, chemical, 
# crystal, experimental, refinement or atomic coordinate data resulting 
# from the CCDC's data processing and validation procedures.
#
#######################################################################

data_GUWJOY
_chemical_formula_moiety         'C38 H28 Ba1 F2 N4 O6'
_chemical_name_systematic        
diaqua-bis(2-fluorobenzoato)-bis(1,10-phenanthroline)-barium(ii)
_symmetry_cell_setting           orthorhombic
_symmetry_space_group_name_H-M   'P b c n'
_symmetry_Int_Tables_number      60
_space_group_name_Hall           '-P 2n 2ab'
loop_
_symmetry_equiv_pos_site_id
_symmetry_equiv_pos_as_xyz
1 x,y,z
2 1/2-x,1/2-y,1/2+z
3 -x,y,1/2-z
4 1/2+x,1/2-y,-z
5 -x,-y,-z
6 1/2+x,1/2+y,1/2-z
7 x,-y,1/2+z
8 1/2-x,1/2+y,z
_cell_length_a                   23.483(5)
_cell_length_b                   10.522(2)
_cell_length_c                   13.767(3)
_cell_angle_alpha                90
_cell_angle_beta                 90
_cell_angle_gamma                90
_cell_volume                     3401.66
_exptl_crystal_colour            brown
_exptl_crystal_description       block
_cell_formula_units_Z            4
loop_
_atom_site_label
_atom_site_type_symbol
_atom_site_fract_x
_atom_site_fract_y
_atom_site_fract_z
Ba1 Ba 0.5000 0.16964(5) 0.7500
N1 N 0.4531(2) 0.3764(5) 0.6421(3)
N2 N 0.5686(2) 0.3497(4) 0.6269(3)
O1 O 0.4012(8) 0.0772(17) 0.7233(13)
O2 O 0.3652(3) -0.0077(6) 0.8476(5)
O3 O 0.4693(3) 0.0569(6) 0.9244(4)
H1 H 0.4356 0.0401 0.9149
H2 H 0.4973 0.0335 0.8937
F1 F 0.289(2) -0.177(5) 0.848(5)
C1 C 0.3970(3) 0.3913(7) 0.6466(5)
H3 H 0.3747 0.3189 0.6538
C2 C 0.3699(3) 0.5064(8) 0.6411(5)
H4 H 0.3303 0.5110 0.6438
C3 C 0.4013(3) 0.6125(8) 0.6319(5)
H5 H 0.3835 0.6915 0.6304
C4 C 0.4610(3) 0.6043(6) 0.6245(4)
C5 C 0.4970(4) 0.7106(7) 0.6140(5)
H6 H 0.4810 0.7914 0.6123
C6 C 0.4851(2) 0.4825(6) 0.6300(4)
C7 C 0.6246(3) 0.3380(7) 0.6185(4)
H7 H 0.6401 0.2568 0.6216
C8 C 0.6613(3) 0.4390(8) 0.6052(5)
H8 H 0.7003 0.4256 0.5990
C9 C 0.6394(3) 0.5580(7) 0.6015(5)
H9 H 0.6635 0.6274 0.5936
C10 C 0.5804(3) 0.5769(6) 0.6096(4)
C11 C 0.5539(4) 0.6987(6) 0.6065(5)
H10 H 0.5763 0.7710 0.5991
C12 C 0.5465(2) 0.4690(5) 0.6215(4)
C13 C 0.3247(2) -0.0761(6) 0.6977(5)
C14 C 0.3214(3) -0.0681(6) 0.5982(6)
H11 H 0.3445 -0.0109 0.5650
C15 C 0.2840(3) -0.1445(8) 0.5469(6)
H12 H 0.2813 -0.1384 0.4796
C16 C 0.2510(3) -0.2292(8) 0.5974(8)
H13 H 0.2262 -0.2820 0.5636
C17 C 0.2538(3) -0.2377(7) 0.6955(7)
H14 H 0.2313 -0.2956 0.7291
C18 C 0.2903(3) -0.1595(6) 0.7439(5)
C19 C 0.3672(3) 0.0053(7) 0.7548(8)
N1B N 0.5469(2) 0.3764(5) 0.8579(3)
N2B N 0.4314(2) 0.3497(4) 0.8731(3)
O1B O 0.5988(8) 0.0772(17) 0.7767(13)
O2B O 0.6348(3) -0.0077(6) 0.6524(5)
O3B O 0.5307(3) 0.0569(6) 0.5756(4)
H1B H 0.5644 0.0401 0.5851
H2B H 0.5027 0.0335 0.6063
F1B F 0.711(2) -0.177(5) 0.652(5)
C1B C 0.6030(3) 0.3913(7) 0.8534(5)
H3B H 0.6253 0.3189 0.8462
C2B C 0.6301(3) 0.5064(8) 0.8589(5)
H4B H 0.6697 0.5110 0.8562
C3B C 0.5987(3) 0.6125(8) 0.8681(5)
H5B H 0.6165 0.6915 0.8696
C4B C 0.5390(3) 0.6043(6) 0.8755(4)
C5B C 0.5030(4) 0.7106(7) 0.8860(5)
H6B H 0.5190 0.7914 0.8877
C6B C 0.5149(2) 0.4825(6) 0.8700(4)
C7B C 0.3754(3) 0.3380(7) 0.8815(4)
H7B H 0.3599 0.2568 0.8784
C8B C 0.3387(3) 0.4390(8) 0.8948(5)
H8B H 0.2997 0.4256 0.9010
C9B C 0.3606(3) 0.5580(7) 0.8985(5)
H9B H 0.3365 0.6274 0.9064
C10B C 0.4196(3) 0.5769(6) 0.8904(4)
C11B C 0.4461(4) 0.6987(6) 0.8935(5)
H10B H 0.4237 0.7710 0.9009
C12B C 0.4535(2) 0.4690(5) 0.8785(4)
C13B C 0.6753(2) -0.0761(6) 0.8023(5)
C14B C 0.6786(3) -0.0681(6) 0.9018(6)
H11B H 0.6555 -0.0109 0.9350
C15B C 0.7160(3) -0.1445(8) 0.9531(6)
H12B H 0.7187 -0.1384 1.0204
C16B C 0.7490(3) -0.2292(8) 0.9026(8)
H13B H 0.7738 -0.2820 0.9364
C17B C 0.7462(3) -0.2377(7) 0.8045(7)
H14B H 0.7687 -0.2956 0.7709
C18B C 0.7097(3) -0.1595(6) 0.7561(5)
C19B C 0.6328(3) 0.0053(7) 0.7452(8)
F2? F 0.301(4) -0.142(8) 0.841(8)
O4? O 0.3939(13) 0.062(3) 0.685(2)
loop_
_geom_bond_atom_site_label_1
_geom_bond_atom_site_label_2
_geom_bond_site_symmetry_1
_geom_bond_site_symmetry_2
Ba1 N1 1_555 1_555
N1 C1 1_555 1_555
N2 Ba1 1_555 1_555
O1 Ba1 1_555 1_555
O2 C19 1_555 1_555
O3 Ba1 1_555 1_555
H1 O3 1_555 1_555
H2 O3 1_555 1_555
F1 C18 1_555 1_555
C1 H3 1_555 1_555
C2 C1 1_555 1_555
H4 C2 1_555 1_555
C3 C2 1_555 1_555
H5 C3 1_555 1_555
C4 C3 1_555 1_555
C5 C4 1_555 1_555
H6 C5 1_555 1_555
C6 N1 1_555 1_555
C7 N2 1_555 1_555
H7 C7 1_555 1_555
C8 C7 1_555 1_555
H8 C8 1_555 1_555
C9 C8 1_555 1_555
H9 C9 1_555 1_555
C10 C9 1_555 1_555
C11 C5 1_555 1_555
H10 C11 1_555 1_555
C12 N2 1_555 1_555
C13 C14 1_555 1_555
C14 H11 1_555 1_555
C15 C14 1_555 1_555
H12 C15 1_555 1_555
C16 C15 1_555 1_555
H13 C16 1_555 1_555
C17 C16 1_555 1_555
H14 C17 1_555 1_555
C18 C13 1_555 1_555
C19 O1 1_555 1_555
N1B Ba1 1_555 1_555
N2B Ba1 1_555 1_555
O1B Ba1 1_555 1_555
O2B C19B 1_555 1_555
O3B Ba1 1_555 1_555
H1B O3B 1_555 1_555
H2B O3B 1_555 1_555
F1B C18B 1_555 1_555
C1B N1B 1_555 1_555
H3B C1B 1_555 1_555
C2B C1B 1_555 1_555
H4B C2B 1_555 1_555
C3B C2B 1_555 1_555
H5B C3B 1_555 1_555
C4B C3B 1_555 1_555
C5B C4B 1_555 1_555
H6B C5B 1_555 1_555
C6B N1B 1_555 1_555
C7B N2B 1_555 1_555
H7B C7B 1_555 1_555
C8B C7B 1_555 1_555
H8B C8B 1_555 1_555
C9B C8B 1_555 1_555
H9B C9B 1_555 1_555
C10B C9B 1_555 1_555
C11B C5B 1_555 1_555
H10B C11B 1_555 1_555
C12B N2B 1_555 1_555
C13B C14B 1_555 1_555
C14B H11B 1_555 1_555
C15B C14B 1_555 1_555
H12B C15B 1_555 1_555
C16B C15B 1_555 1_555
H13B C16B 1_555 1_555
C17B C16B 1_555 1_555
H14B C17B 1_555 1_555
C18B C13B 1_555 1_555
C19B O1B 1_555 1_555
C4 C6 1_555 1_555
C6 C12 1_555 1_555
C10 C11 1_555 1_555
C10 C12 1_555 1_555
C13 C19 1_555 1_555
C17 C18 1_555 1_555
C4B C6B 1_555 1_555
C6B C12B 1_555 1_555
C10B C11B 1_555 1_555
C10B C12B 1_555 1_555
C13B C19B 1_555 1_555
C17B C18B 1_555 1_555

#END
