
#######################################################################
#
#                 Cambridge Crystallographic Data Centre
#                                CCDC 
#
#######################################################################
#
# If this CIF has been generated from an entry in the Cambridge 
# Structural Database, then it will include bibliographic, chemical, 
# crystal, experimental, refinement or atomic coordinate data resulting 
# from the CCDC's data processing and validation procedures.
#
#######################################################################

data_GUWQAR
_chemical_formula_moiety         'C21 H18 N2 O3'
_chemical_name_systematic        
3-(4-Methylphenyl)-2-(2-nitrophenyl)-3,4-dihydro-2H-1,3-benzoxazine
_symmetry_cell_setting           triclinic
_symmetry_space_group_name_H-M   'P -1'
_symmetry_Int_Tables_number      2
_space_group_name_Hall           '-P 1'
loop_
_symmetry_equiv_pos_site_id
_symmetry_equiv_pos_as_xyz
1 x,y,z
2 -x,-y,-z
_cell_length_a                   9.0481(7)
_cell_length_b                   10.2521(9)
_cell_length_c                   10.7292(9)
_cell_angle_alpha                66.675(2)
_cell_angle_beta                 81.279(2)
_cell_angle_gamma                73.525(2)
_cell_volume                     875.526
_exptl_crystal_colour            colorless
_exptl_crystal_description       block
_cell_formula_units_Z            2
loop_
_atom_site_label
_atom_site_type_symbol
_atom_site_fract_x
_atom_site_fract_y
_atom_site_fract_z
C1 C -0.1736(2) 0.2577(2) 0.2541(2)
C2 C -0.3282(3) 0.2710(3) 0.2914(2)
H1 H -0.3701 0.1901 0.3211
C3 C -0.4195(3) 0.4064(3) 0.2838(3)
H2 H -0.5244 0.4181 0.3070
C4 C -0.3554(3) 0.5235(3) 0.2421(2)
H3 H -0.4170 0.6146 0.2380
C5 C -0.1995(2) 0.5078(2) 0.2059(2)
H4 H -0.1579 0.5886 0.1783
C6 C -0.1050(2) 0.3742(2) 0.21026(18)
C7 C 0.0656(2) 0.3550(2) 0.16896(18)
H5 H 0.0835 0.3226 0.0922
C8 C 0.1426(2) 0.5317(2) 0.22043(19)
C9 C 0.1618(3) 0.6729(2) 0.1782(2)
H6 H 0.1491 0.7360 0.0879
C10 C 0.1997(3) 0.7187(3) 0.2710(3)
H7 H 0.2121 0.8133 0.2433
C11 C 0.2193(3) 0.6252(3) 0.4047(3)
H8 H 0.2459 0.6560 0.4670
C12 C 0.1991(3) 0.4853(3) 0.4452(2)
H9 H 0.2110 0.4231 0.5358
C13 C 0.1617(2) 0.4355(2) 0.35450(18)
C14 C 0.1419(2) 0.2828(2) 0.39565(18)
H10 H 0.2196 0.2140 0.4593
H11 H 0.0413 0.2775 0.4410
C15 C 0.3044(2) 0.1676(2) 0.24131(19)
C16 C 0.3838(2) 0.2255(2) 0.1197(2)
H12 H 0.3442 0.3204 0.0599
C17 C 0.5221(3) 0.1421(3) 0.0871(2)
H13 H 0.5720 0.1814 0.0035
C18 C 0.5882(3) 0.0031(3) 0.1739(3)
C19 C 0.7392(3) -0.0861(3) 0.1357(4)
H14 H 0.7195 -0.1358 0.0830
H15 H 0.7894 -0.1569 0.2167
H16 H 0.8045 -0.0223 0.0832
C20 C 0.5096(3) -0.0514(3) 0.2969(3)
H17 H 0.5523 -0.1443 0.3587
C21 C 0.3705(3) 0.0277(2) 0.3305(2)
H18 H 0.3201 -0.0127 0.4136
N1 N -0.0828(2) 0.1121(2) 0.2583(2)
N2 N 0.15581(17) 0.24197(17) 0.27747(15)
O1 O -0.0044(2) 0.10369(18) 0.15773(19)
O2 O -0.0948(3) 0.0078(2) 0.3608(2)
O3 O 0.10520(15) 0.49394(14) 0.12184(13)
loop_
_geom_bond_atom_site_label_1
_geom_bond_atom_site_label_2
_geom_bond_site_symmetry_1
_geom_bond_site_symmetry_2
C1 C2 1_555 1_555
C2 H1 1_555 1_555
C3 C2 1_555 1_555
H2 C3 1_555 1_555
C4 C3 1_555 1_555
H3 C4 1_555 1_555
C5 C4 1_555 1_555
H4 C5 1_555 1_555
C6 C1 1_555 1_555
C7 C6 1_555 1_555
H5 C7 1_555 1_555
C8 C9 1_555 1_555
C9 H6 1_555 1_555
C10 C9 1_555 1_555
H7 C10 1_555 1_555
C11 C10 1_555 1_555
H8 C11 1_555 1_555
C12 C11 1_555 1_555
H9 C12 1_555 1_555
C13 C8 1_555 1_555
C14 C13 1_555 1_555
H10 C14 1_555 1_555
H11 C14 1_555 1_555
C15 C16 1_555 1_555
C16 H12 1_555 1_555
C17 C16 1_555 1_555
H13 C17 1_555 1_555
C18 C17 1_555 1_555
C19 C18 1_555 1_555
H14 C19 1_555 1_555
H15 C19 1_555 1_555
H16 C19 1_555 1_555
C20 C18 1_555 1_555
H17 C20 1_555 1_555
C21 C15 1_555 1_555
H18 C21 1_555 1_555
N1 C1 1_555 1_555
N2 C7 1_555 1_555
O1 N1 1_555 1_555
O2 N1 1_555 1_555
O3 C7 1_555 1_555
C5 C6 1_555 1_555
C8 O3 1_555 1_555
C12 C13 1_555 1_555
C14 N2 1_555 1_555
C15 N2 1_555 1_555
C20 C21 1_555 1_555

#END
