
#######################################################################
#
#                 Cambridge Crystallographic Data Centre
#                                CCDC 
#
#######################################################################
#
# If this CIF has been generated from an entry in the Cambridge 
# Structural Database, then it will include bibliographic, chemical, 
# crystal, experimental, refinement or atomic coordinate data resulting 
# from the CCDC's data processing and validation procedures.
#
#######################################################################

data_GUXMUI
_chemical_formula_moiety         'C20 H19 N1 O6,C1 H2 Cl2'
_chemical_name_systematic        
'3,5-Dimethyl 2-(3,4-dimethoxyphenyl)indole-3,5-dicarboxylate dichloromethane solvate'
_symmetry_cell_setting           monoclinic
_symmetry_space_group_name_H-M   'P 21/c'
_symmetry_Int_Tables_number      14
_space_group_name_Hall           '-P 2ybc'
loop_
_symmetry_equiv_pos_site_id
_symmetry_equiv_pos_as_xyz
1 x,y,z
2 -x,1/2+y,1/2-z
3 -x,-y,-z
4 x,1/2-y,1/2+z
_cell_length_a                   12.3962(19)
_cell_length_b                   14.120(2)
_cell_length_c                   13.920(2)
_cell_angle_alpha                90
_cell_angle_beta                 114.759(4)
_cell_angle_gamma                90
_cell_volume                     2212.51
_exptl_crystal_colour            colorless
_exptl_crystal_description       columnar
_cell_formula_units_Z            4
_exptl_crystal_preparation       luminescent
loop_
_atom_site_label
_atom_site_type_symbol
_atom_site_fract_x
_atom_site_fract_y
_atom_site_fract_z
Cl1 Cl -0.46265(16) 0.6281(2) 1.18718(16)
Cl2 Cl -0.3452(4) 0.5981(2) 1.0515(3)
C21 C -0.3813(5) 0.6701(4) 1.1223(5)
H20 H -0.4259 0.7216 1.0768
H21 H -0.3087 0.6971 1.1749
O1 O 0.4284(2) 0.71462(19) 0.40349(19)
O2 O 0.52060(19) 0.60392(17) 0.56419(19)
O3 O 0.2139(2) 0.40428(16) 0.5528(2)
O4 O 0.1451(2) 0.33249(15) 0.6589(2)
O5 O -0.0765(3) 0.35177(17) 0.8756(2)
O6 O -0.1640(2) 0.47869(18) 0.9035(2)
N1 N 0.0829(2) 0.65128(17) 0.6304(2)
H1 H 0.0787 0.7103 0.6140
C1 C 0.1670(3) 0.6757(2) 0.4591(2)
H2 H 0.0878 0.6938 0.4345
C2 C 0.2346(3) 0.7097(2) 0.4092(3)
H3 H 0.2007 0.7498 0.3511
C3 C 0.3529(3) 0.6842(2) 0.4456(3)
C4 C 0.4022(3) 0.6242(2) 0.5331(2)
C5 C 0.3341(3) 0.5896(2) 0.5816(3)
H4 H 0.3672 0.5488 0.6392
C6 C 0.2139(3) 0.6161(2) 0.5438(2)
C7 C 0.1438(3) 0.5845(2) 0.6014(2)
C8 C 0.1264(3) 0.4982(2) 0.6396(2)
C9 C 0.0560(2) 0.5142(2) 0.6971(2)
C10 C 0.0120(3) 0.4570(2) 0.7543(2)
H5 H 0.0274 0.3923 0.7603
C11 C -0.0552(3) 0.49793(19) 0.8023(2)
C12 C -0.0788(3) 0.5960(2) 0.7934(3)
H6 H -0.1233 0.6223 0.8263
C13 C -0.0373(3) 0.6532(2) 0.7371(3)
H7 H -0.0530 0.7179 0.7309
C14 C 0.0295(3) 0.6111(2) 0.6892(2)
C15 C 0.3817(4) 0.7783(4) 0.3169(4)
H8 H 0.4425 0.7943 0.2940
H9 H 0.3547 0.8348 0.3383
H10 H 0.3164 0.7490 0.2597
C16 C 0.5762(3) 0.5430(3) 0.6518(3)
H11 H 0.6581 0.5347 0.6649
H12 H 0.5369 0.4826 0.6368
H13 H 0.5715 0.5702 0.7131
C17 C 0.1624(3) 0.4037(2) 0.6203(3)
C18 C 0.2542(4) 0.3144(3) 0.5315(3)
H14 H 0.2896 0.3232 0.4826
H15 H 0.1879 0.2719 0.5014
H16 H 0.3119 0.2881 0.5962
C19 C -0.0987(3) 0.4349(2) 0.8624(2)
C20 C -0.2086(4) 0.4199(3) 0.9636(4)
H17 H -0.2544 0.4579 0.9901
H18 H -0.1432 0.3918 1.0218
H19 H -0.2580 0.3709 0.9189
loop_
_geom_bond_atom_site_label_1
_geom_bond_atom_site_label_2
_geom_bond_site_symmetry_1
_geom_bond_site_symmetry_2
Cl1 C21 1_555 1_555
Cl2 C21 1_555 1_555
O1 C3 1_555 1_555
O2 C4 1_555 1_555
O3 C17 1_555 1_555
O4 C17 1_555 1_555
O5 C19 1_555 1_555
O6 C19 1_555 1_555
N1 H1 1_555 1_555
C1 H2 1_555 1_555
C2 C1 1_555 1_555
H3 C2 1_555 1_555
C3 C2 1_555 1_555
C4 C3 1_555 1_555
C5 C4 1_555 1_555
H4 C5 1_555 1_555
C6 C1 1_555 1_555
C7 N1 1_555 1_555
C8 C7 1_555 1_555
C9 C8 1_555 1_555
C10 C9 1_555 1_555
H5 C10 1_555 1_555
C11 C10 1_555 1_555
C12 C11 1_555 1_555
H6 C12 1_555 1_555
C13 C12 1_555 1_555
H7 C13 1_555 1_555
C14 N1 1_555 1_555
C15 O1 1_555 1_555
H8 C15 1_555 1_555
H9 C15 1_555 1_555
H10 C15 1_555 1_555
C16 O2 1_555 1_555
H11 C16 1_555 1_555
H12 C16 1_555 1_555
H13 C16 1_555 1_555
C17 C8 1_555 1_555
C18 O3 1_555 1_555
H14 C18 1_555 1_555
H15 C18 1_555 1_555
H16 C18 1_555 1_555
C19 C11 1_555 1_555
C20 O6 1_555 1_555
H17 C20 1_555 1_555
H18 C20 1_555 1_555
H19 C20 1_555 1_555
C21 H20 1_555 1_555
H21 C21 1_555 1_555
C5 C6 1_555 1_555
C6 C7 1_555 1_555
C9 C14 1_555 1_555
C13 C14 1_555 1_555

#END
