
#######################################################################
#
#                 Cambridge Crystallographic Data Centre
#                                CCDC 
#
#######################################################################
#
# If this CIF has been generated from an entry in the Cambridge 
# Structural Database, then it will include bibliographic, chemical, 
# crystal, experimental, refinement or atomic coordinate data resulting 
# from the CCDC's data processing and validation procedures.
#
#######################################################################

data_GUXTAW
_chemical_formula_moiety         'C14 H14 O2'
_chemical_name_systematic        
2-benzyl-2,4-dimethylcyclopent-4-ene-1,3-dione
_symmetry_cell_setting           orthorhombic
_symmetry_space_group_name_H-M   'P 21 21 21'
_symmetry_Int_Tables_number      19
_space_group_name_Hall           'P 2ac 2ab'
loop_
_symmetry_equiv_pos_site_id
_symmetry_equiv_pos_as_xyz
1 x,y,z
2 1/2+x,1/2-y,-z
3 -x,1/2+y,1/2-z
4 1/2-x,-y,1/2+z
_cell_length_a                   7.0960(10)
_cell_length_b                   10.3820(15)
_cell_length_c                   15.619(2)
_cell_angle_alpha                90
_cell_angle_beta                 90
_cell_angle_gamma                90
_cell_volume                     1150.66
_exptl_crystal_colour            colorless
_exptl_crystal_description       block
_cell_formula_units_Z            4
loop_
_atom_site_label
_atom_site_type_symbol
_atom_site_fract_x
_atom_site_fract_y
_atom_site_fract_z
O1 O -0.0775(2) 0.17417(12) -0.62577(9)
O2 O -0.1083(2) -0.27780(13) -0.59839(9)
C1 C -0.3901(3) 0.1256(2) -0.49954(14)
H1 H -0.4836 0.0827 -0.4655
H2 H -0.4511 0.1808 -0.5403
H3 H -0.3102 0.1761 -0.4631
C2 C -0.2748(3) 0.02843(17) -0.54554(11)
C3 C -0.1182(2) 0.06484(16) -0.60509(10)
C4 C -0.0194(2) -0.05698(16) -0.63604(10)
C5 C -0.0232(2) -0.06807(17) -0.73494(10)
H4 H 0.0542 0.0000 -0.7588
H5 H 0.0331 -0.1496 -0.7512
C6 C -0.2179(2) -0.05972(16) -0.77418(10)
C7 C -0.3361(3) -0.16682(18) -0.77726(12)
H6 H -0.2952 -0.2452 -0.7553
C8 C -0.5152(3) -0.1569(2) -0.81311(13)
H7 H -0.5943 -0.2283 -0.8135
C9 C -0.5766(3) -0.0425(2) -0.84803(13)
H8 H -0.6956 -0.0371 -0.8728
C10 C -0.1371(3) -0.16246(17) -0.59245(11)
C11 C -0.2848(3) -0.10026(18) -0.54081(12)
H9 H -0.3741 -0.1448 -0.5088
C12 C 0.1855(2) -0.0605(2) -0.60353(12)
H10 H 0.1863 -0.0566 -0.5421
H11 H 0.2534 0.0119 -0.6262
H12 H 0.2447 -0.1388 -0.6220
C13 C -0.2823(3) 0.05581(18) -0.80912(11)
H13 H -0.2053 0.1283 -0.8077
C14 C -0.4604(3) 0.0640(2) -0.84606(13)
H14 H -0.5012 0.1415 -0.8695
loop_
_geom_bond_atom_site_label_1
_geom_bond_atom_site_label_2
_geom_bond_site_symmetry_1
_geom_bond_site_symmetry_2
O1 C3 1_555 1_555
O2 C10 1_555 1_555
C1 H1 1_555 1_555
H2 C1 1_555 1_555
H3 C1 1_555 1_555
C2 C1 1_555 1_555
C3 C2 1_555 1_555
C4 C3 1_555 1_555
C5 C4 1_555 1_555
H4 C5 1_555 1_555
H5 C5 1_555 1_555
C6 C5 1_555 1_555
C7 C6 1_555 1_555
H6 C7 1_555 1_555
C8 C7 1_555 1_555
H7 C8 1_555 1_555
C9 C8 1_555 1_555
H8 C9 1_555 1_555
C10 C4 1_555 1_555
C11 C2 1_555 1_555
H9 C11 1_555 1_555
C12 C4 1_555 1_555
H10 C12 1_555 1_555
H11 C12 1_555 1_555
H12 C12 1_555 1_555
C13 C6 1_555 1_555
H13 C13 1_555 1_555
C14 C9 1_555 1_555
H14 C14 1_555 1_555
C10 C11 1_555 1_555
C13 C14 1_555 1_555

#END
