
#######################################################################
#
#                 Cambridge Crystallographic Data Centre
#                                CCDC 
#
#######################################################################
#
# If this CIF has been generated from an entry in the Cambridge 
# Structural Database, then it will include bibliographic, chemical, 
# crystal, experimental, refinement or atomic coordinate data resulting 
# from the CCDC's data processing and validation procedures.
#
#######################################################################

data_GUXXII
_chemical_formula_moiety         'C10 H9 Br1 Cl1 N1 O2'
_chemical_name_systematic        
4-((4-bromophenyl)(chloro)methyl)-1,3-oxazolidin-2-one
_symmetry_cell_setting           monoclinic
_symmetry_space_group_name_H-M   'P 21'
_symmetry_Int_Tables_number      4
_space_group_name_Hall           'P 2yb'
loop_
_symmetry_equiv_pos_site_id
_symmetry_equiv_pos_as_xyz
1 x,y,z
2 -x,1/2+y,-z
_cell_length_a                   5.9280(4)
_cell_length_b                   7.6682(5)
_cell_length_c                   11.3533(8)
_cell_angle_alpha                90
_cell_angle_beta                 95.944(3)
_cell_angle_gamma                90
_cell_volume                     513.313
_exptl_crystal_colour            colorless
_exptl_crystal_description       prism
_cell_formula_units_Z            2
loop_
_atom_site_label
_atom_site_type_symbol
_atom_site_fract_x
_atom_site_fract_y
_atom_site_fract_z
Br1 Br -0.00582(5) 0.18831(6) -0.65542(3)
Cl1 Cl -0.60848(16) 0.32278(12) -0.16624(9)
C1 C -0.1668(6) 0.1554(4) -0.5206(3)
O1 O 0.0845(4) -0.1543(4) -0.0258(2)
O2 O -0.2363(4) -0.2665(3) -0.1168(2)
C2 C -0.2071(6) 0.2126(6) -0.3166(3)
H1 H -0.1511 0.2627 -0.2428
N1 N -0.2288(5) 0.0180(4) -0.0783(3)
C3 C -0.4148(6) 0.1241(5) -0.3274(3)
C4 C -0.4653(6) -0.0110(5) -0.1225(3)
H2 H -0.5626 -0.0001 -0.0560
C5 C -0.4947(6) 0.0513(5) -0.4359(3)
H3 H -0.6348 -0.0099 -0.4434
C6 C -0.4570(6) -0.2027(5) -0.1618(3)
H4 H -0.5774 -0.2710 -0.1288
H5 H -0.4785 -0.2115 -0.2492
C7 C -0.0826(6) 0.2274(4) -0.4131(3)
H6 H 0.0591 0.2863 -0.4055
C8 C -0.1098(6) -0.1317(5) -0.0689(3)
C9 C -0.5570(6) 0.1086(5) -0.2252(3)
C10 C -0.3721(6) 0.0669(5) -0.5339(3)
H7 H -0.4279 0.0179 -0.6081
H8 H -0.717(7) 0.080(6) -0.254(3)
H9 H -0.173(7) 0.121(4) -0.038(3)
loop_
_geom_bond_atom_site_label_1
_geom_bond_atom_site_label_2
_geom_bond_site_symmetry_1
_geom_bond_site_symmetry_2
Br1 C1 1_555 1_555
Cl1 C9 1_555 1_555
C1 C7 1_555 1_555
O1 C8 1_555 1_555
O2 C6 1_555 1_555
C2 H1 1_555 1_555
N1 C4 1_555 1_555
C3 C2 1_555 1_555
C4 H2 1_555 1_555
C5 C3 1_555 1_555
H3 C5 1_555 1_555
C6 C4 1_555 1_555
H4 C6 1_555 1_555
H5 C6 1_555 1_555
C7 C2 1_555 1_555
H6 C7 1_555 1_555
C8 O2 1_555 1_555
C9 C3 1_555 1_555
C10 C1 1_555 1_555
H7 C10 1_555 1_555
H8 C9 1_555 1_555
H9 N1 1_555 1_555
N1 C8 1_555 1_555
C4 C9 1_555 1_555
C5 C10 1_555 1_555

#END
