
#######################################################################
#
#                 Cambridge Crystallographic Data Centre
#                                CCDC 
#
#######################################################################
#
# If this CIF has been generated from an entry in the Cambridge 
# Structural Database, then it will include bibliographic, chemical, 
# crystal, experimental, refinement or atomic coordinate data resulting 
# from the CCDC's data processing and validation procedures.
#
#######################################################################

data_GUXZOO
_chemical_formula_moiety         'C42 H70 O35,C6 H7 N1 O1,C1 H4 O1,7.5(H2 O1)'
_chemical_name_systematic        
'\b-Cyclodextrin m-aminophenol clathrate methanol solvate hydrate'
_symmetry_cell_setting           monoclinic
_symmetry_space_group_name_H-M   'P 21'
_symmetry_Int_Tables_number      4
_space_group_name_Hall           'P 2yb'
loop_
_symmetry_equiv_pos_site_id
_symmetry_equiv_pos_as_xyz
1 x,y,z
2 -x,1/2+y,-z
_cell_length_a                   15.1220(4)
_cell_length_b                   10.3350(2)
_cell_length_c                   20.9150(3)
_cell_angle_alpha                90
_cell_angle_beta                 109.575(3)
_cell_angle_gamma                90
_cell_volume                     3079.8
_cell_formula_units_Z            2
loop_
_atom_site_label
_atom_site_type_symbol
_atom_site_fract_x
_atom_site_fract_y
_atom_site_fract_z
O1 O -0.1824(5) 0.3370(7) 0.2058(3)
C1 C -0.1415(7) 0.0720(12) 0.3599(5)
H1 H -0.1525 0.0159 0.3943
C2 C -0.2070(7) 0.0324(12) 0.2905(5)
H2 H -0.2717 0.0421 0.2902
O2 O -0.1925(5) -0.1026(8) 0.2774(4)
H3 H -0.1543 -0.1076 0.2575
C3 C -0.1938(7) 0.1216(12) 0.2376(4)
H4 H -0.13 0.1107 0.2363
O3 O -0.2600(5) 0.0914(8) 0.1717(3)
H5 H -0.3134 0.0929 0.1734
C4 C -0.2064(7) 0.2586(11) 0.2549(4)
H6 H -0.2723 0.2732 0.2503
C5 C -0.1441(7) 0.2941(11) 0.3267(4)
H7 H -0.0782 0.293 0.3292
O4 O -0.1572(4) 0.2021(8) 0.3741(3)
C6 C -0.1663(8) 0.4235(12) 0.3508(5)
H8 H -0.128 0.4372 0.3978
H9 H -0.1532 0.4923 0.3237
O5 O -0.2631(5) 0.4247(9) 0.3443(4)
H10 H -0.2739 0.4872 0.3647
O6 O -0.0475(4) 0.0538(8) 0.3608(3)
C7 C 0.2094(6) -0.0951(10) 0.4709(4)
H11 H 0.2624 -0.1331 0.507
C8 C 0.1283(7) -0.1921(10) 0.4488(5)
H12 H 0.1091 -0.212 0.488
O7 O 0.1573(5) -0.3094(8) 0.4257(3)
H13 H 0.2071 -0.2975 0.4191
C9 C 0.0460(6) -0.1344(11) 0.3943(5)
H14 H 0.0642 -0.1185 0.3542
O8 O -0.0307(5) -0.2220(8) 0.3762(4)
H15 H -0.0653 -0.2051 0.398
C10 C 0.0189(6) -0.0049(10) 0.4183(4)
H16 H -0.0099 -0.0204 0.4532
C11 C 0.1032(7) 0.0847(11) 0.4465(5)
H17 H 0.1234 0.1149 0.4091
O9 O 0.1792(4) 0.0179(7) 0.4950(3)
C12 C 0.0820(9) 0.1986(13) 0.4824(6)
H18 H 0.0264 0.2418 0.4528
H19 H 0.0686 0.1693 0.5223
O10 O 0.1582(10) 0.2885(11) 0.5025(7)
H20 H 0.1558 0.3304 0.5352
O11 O 0.2361(4) -0.0685(7) 0.4143(3)
C13 C 0.4791(7) -0.0627(11) 0.3623(4)
H21 H 0.5444 -0.0803 0.3662
C14 C 0.4248(8) -0.1926(10) 0.3557(5)
H22 H 0.4576 -0.2457 0.3954
O12 O 0.4266(6) -0.2607(7) 0.2966(3)
H23 H 0.4194 -0.2093 0.2654
C15 C 0.3269(6) -0.1699(9) 0.3558(4)
H24 H 0.2929 -0.1187 0.3156
O13 O 0.2795(5) -0.2896(8) 0.3524(4)
H25 H 0.3166 -0.3442 0.3745
C16 C 0.3299(6) -0.0945(10) 0.4181(4)
H26 H 0.3614 -0.1458 0.4588
C17 C 0.3829(6) 0.0340(10) 0.4210(4)
H27 H 0.3499 0.0854 0.3807
C18 C 0.3940(8) 0.1124(11) 0.4822(5)
H28 H 0.4357 0.1842 0.4831
H29 H 0.3334 0.1483 0.4791
O14 O 0.4297(5) 0.0439(9) 0.5435(3)
H30 H 0.4703 -0.0066 0.5412
O15 O 0.4768(4) 0.0021(8) 0.4201(3)
O16 O 0.4350(4) 0.0096(6) 0.3024(3)
C19 C 0.5121(7) 0.2216(10) 0.1600(5)
H31 H 0.5523 0.2571 0.136
C20 C 0.5070(7) 0.0752(10) 0.1515(5)
H32 H 0.571 0.0406 0.1686
O17 O 0.4677(6) 0.0442(7) 0.0814(3)
H33 H 0.432 0.1022 0.0616
C21 C 0.4508(7) 0.0159(9) 0.1929(4)
H34 H 0.3856 0.0454 0.1745
O18 O 0.4532(7) -0.1214(7) 0.1886(4)
H35 H 0.5074 -0.1467 0.2058
C22 C 0.4932(6) 0.0593(10) 0.2672(4)
H36 H 0.5567 0.024 0.2869
C23 C 0.4968(6) 0.2063(9) 0.2709(4)
H37 H 0.4329 0.2408 0.2527
C24 C 0.5440(8) 0.2600(12) 0.3410(5)
H38 H 0.5443 0.3537 0.3385
H39 H 0.5077 0.2358 0.3696
O19 O 0.6368(6) 0.2160(10) 0.3713(4)
H40 H 0.6604 0.2032 0.3419
O20 O 0.5510(4) 0.2537(7) 0.2305(3)
O21 O 0.4216(4) 0.2714(6) 0.1311(3)
C25 C 0.2749(6) 0.5708(10) 0.0148(5)
H41 H 0.258 0.6459 -0.0154
C26 C 0.2972(6) 0.4594(11) -0.0236(5)
H42 H 0.3492 0.4851 -0.0389
O22 O 0.2177(5) 0.4270(8) -0.0825(3)
H43 H 0.1751 0.4784 -0.0862
C27 C 0.3274(6) 0.3418(9) 0.0216(5)
H44 H 0.2741 0.3126 0.0346
O23 O 0.3561(5) 0.2372(7) -0.0121(3)
H45 H 0.3916 0.2648 -0.0312
C28 C 0.4071(6) 0.3798(9) 0.0859(5)
H46 H 0.4641 0.394 0.0745
C29 C 0.3876(6) 0.4990(9) 0.1203(5)
H47 H 0.3396 0.4788 0.1407
O24 O 0.3533(4) 0.6026(6) 0.0707(3)
C30 C 0.4722(7) 0.5529(10) 0.1737(5)
H48 H 0.4547 0.6299 0.1931
H49 H 0.4963 0.4899 0.2097
O25 O 0.5418(5) 0.5839(8) 0.1462(4)
H50 H 0.5229 0.6418 0.1182
O26 O 0.1973(4) 0.5371(7) 0.0337(3)
C31 C -0.0528(7) 0.6910(11) 0.0407(5)
H51 H -0.1039 0.7526 0.0358
C32 C -0.0480(7) 0.6599(12) -0.0293(5)
H52 H -0.0393 0.7413 -0.0505
O27 O -0.1334(5) 0.6041(10) -0.0704(4)
H53 H -0.1419 0.5357 -0.0534
C33 C 0.0341(6) 0.5748(11) -0.0235(4)
H54 H 0.0235 0.4896 -0.0069
O28 O 0.0446(5) 0.5602(9) -0.0893(3)
H55 H 0.0799 0.4994 -0.0883
C34 C 0.1252(7) 0.6321(10) 0.0252(5)
H56 H 0.1413 0.7116 0.006
C35 C 0.1138(8) 0.6607(12) 0.0944(6)
H57 H 0.104 0.5799 0.1156
O29 O 0.0323(5) 0.7460(8) 0.0825(4)
C36 C 0.1935(9) 0.7336(19) 0.1417(9)
H58 H 0.2477 0.6764 0.149
O30 O 0.1873(12) 0.751(2) 0.2066(7)
H59 H 0.1765 0.6807 0.221
O31 O -0.0722(5) 0.5754(7) 0.0689(3)
C37 C -0.2400(9) 0.4488(15) 0.1788(6)
H60 H -0.292 0.4506 0.1969
C38 C -0.2796(7) 0.4334(14) 0.1026(5)
H61 H -0.3274 0.5005 0.0852
O32 O -0.3252(5) 0.3108(10) 0.0850(4)
H62 H -0.2898 0.2533 0.1058
C39 C -0.2043(7) 0.4548(12) 0.0701(4)
H63 H -0.1609 0.3813 0.0826
O33 O -0.2457(6) 0.4557(12) -0.0026(4)
H64 H -0.2947 0.414 -0.014
C40 C -0.1489(7) 0.5746(12) 0.0966(5)
H65 H -0.1884 0.6513 0.0813
C41 C -0.1087(8) 0.5715(11) 0.1740(5)
H66 H -0.0701 0.4937 0.1883
C42 C -0.0536(16) 0.6841(18) 0.2057(8)
H67 H -0.0045 0.6824 0.1847
O34 O -0.0760(14) 0.8095(18) 0.2001(9)
H68 H -0.041 0.8485 0.1841
O35 O -0.1878(6) 0.5635(8) 0.1979(4)
O36 O 0.6425(8) 0.7658(12) 0.2471(6)
C43 C 0.659(3) 0.787(6) 0.183(2)
O37 O 0.4767(6) 0.7964(7) 0.0370(4)
O38 O 0.7126(7) 0.0410(12) 0.4729(5)
O39 O 0.3829(8) 0.4920(14) 0.4298(6)
O40 O 0.0818(12) 0.9558(16) 0.2134(6)
O41 O 0.2297(16) 0.254(4) 0.1774(12)
O42 O 0.6594(14) 0.6564(15) 0.3736(8)
O43 O 0.331(2) 0.483(2) 0.2714(11)
O44 O -0.001(2) 0.263(3) 0.1880(18)
O45 O 0.2753(18) 0.330(3) 0.6081(14)
C44 C 0.114(2) 0.376(3) 0.2906(12)
C45 C 0.0636(18) 0.427(3) 0.3202(16)
C46 C 0.0923(18) 0.436(3) 0.3837(16)
C47 C 0.1716(19) 0.393(3) 0.4175(11)
C48 C 0.2222(14) 0.341(2) 0.3880(12)
C49 C 0.1935(19) 0.332(2) 0.3245(13)
N1 N 0.047(2) 0.504(3) 0.4151(14)
O46 O 0.1235(12) 0.487(2) 0.2685(9)
O47? O 0.220(3) 0.838(4) 0.1281(18)
H69? H 0.2395 0.8816 0.1626
O48? O -0.0033(17) 0.661(3) 0.2697(12)
H70? H -0.0313 0.6096 0.2858
loop_
_geom_bond_atom_site_label_1
_geom_bond_atom_site_label_2
_geom_bond_site_symmetry_1
_geom_bond_site_symmetry_2
O1 C4 1_555 1_555
C1 H1 1_555 1_555
C2 C1 1_555 1_555
H2 C2 1_555 1_555
O2 C2 1_555 1_555
H3 O2 1_555 1_555
C3 C2 1_555 1_555
H4 C3 1_555 1_555
O3 C3 1_555 1_555
H5 O3 1_555 1_555
C4 C3 1_555 1_555
H6 C4 1_555 1_555
C5 C4 1_555 1_555
H7 C5 1_555 1_555
O4 C1 1_555 1_555
C6 C5 1_555 1_555
H8 C6 1_555 1_555
H9 C6 1_555 1_555
O5 C6 1_555 1_555
H10 O5 1_555 1_555
O6 C1 1_555 1_555
C7 H11 1_555 1_555
C8 C7 1_555 1_555
H12 C8 1_555 1_555
O7 C8 1_555 1_555
H13 O7 1_555 1_555
C9 C8 1_555 1_555
H14 C9 1_555 1_555
O8 C9 1_555 1_555
H15 O8 1_555 1_555
C10 O6 1_555 1_555
H16 C10 1_555 1_555
C11 C10 1_555 1_555
H17 C11 1_555 1_555
O9 C7 1_555 1_555
C12 C11 1_555 1_555
H18 C12 1_555 1_555
H19 C12 1_555 1_555
O10 C12 1_555 1_555
H20 O10 1_555 1_555
O11 C7 1_555 1_555
C13 H21 1_555 1_555
C14 C13 1_555 1_555
H22 C14 1_555 1_555
O12 C14 1_555 1_555
H23 O12 1_555 1_555
C15 C14 1_555 1_555
H24 C15 1_555 1_555
O13 C15 1_555 1_555
H25 O13 1_555 1_555
C16 O11 1_555 1_555
H26 C16 1_555 1_555
C17 C16 1_555 1_555
H27 C17 1_555 1_555
C18 C17 1_555 1_555
H28 C18 1_555 1_555
H29 C18 1_555 1_555
O14 C18 1_555 1_555
H30 O14 1_555 1_555
O15 C13 1_555 1_555
O16 C13 1_555 1_555
C19 H31 1_555 1_555
C20 C19 1_555 1_555
H32 C20 1_555 1_555
O17 C20 1_555 1_555
H33 O17 1_555 1_555
C21 C20 1_555 1_555
H34 C21 1_555 1_555
O18 C21 1_555 1_555
H35 O18 1_555 1_555
C22 O16 1_555 1_555
H36 C22 1_555 1_555
C23 C22 1_555 1_555
H37 C23 1_555 1_555
C24 C23 1_555 1_555
H38 C24 1_555 1_555
H39 C24 1_555 1_555
O19 C24 1_555 1_555
H40 O19 1_555 1_555
O20 C19 1_555 1_555
O21 C19 1_555 1_555
C25 H41 1_555 1_555
C26 C25 1_555 1_555
H42 C26 1_555 1_555
O22 C26 1_555 1_555
H43 O22 1_555 1_555
C27 C26 1_555 1_555
H44 C27 1_555 1_555
O23 C27 1_555 1_555
H45 O23 1_555 1_555
C28 O21 1_555 1_555
H46 C28 1_555 1_555
C29 C28 1_555 1_555
H47 C29 1_555 1_555
O24 C25 1_555 1_555
C30 C29 1_555 1_555
H48 C30 1_555 1_555
H49 C30 1_555 1_555
O25 C30 1_555 1_555
H50 O25 1_555 1_555
O26 C25 1_555 1_555
C31 H51 1_555 1_555
C32 C31 1_555 1_555
H52 C32 1_555 1_555
O27 C32 1_555 1_555
H53 O27 1_555 1_555
C33 C32 1_555 1_555
H54 C33 1_555 1_555
O28 C33 1_555 1_555
H55 O28 1_555 1_555
C34 O26 1_555 1_555
H56 C34 1_555 1_555
C35 C34 1_555 1_555
H57 C35 1_555 1_555
O29 C31 1_555 1_555
C36 C35 1_555 1_555
H58 C36 1_555 1_555
O30 C36 1_555 1_555
H59 O30 1_555 1_555
O31 C31 1_555 1_555
C37 O1 1_555 1_555
H60 C37 1_555 1_555
C38 C37 1_555 1_555
H61 C38 1_555 1_555
O32 C38 1_555 1_555
H62 O32 1_555 1_555
C39 C38 1_555 1_555
H63 C39 1_555 1_555
O33 C39 1_555 1_555
H64 O33 1_555 1_555
C40 O31 1_555 1_555
H65 C40 1_555 1_555
C41 C40 1_555 1_555
H66 C41 1_555 1_555
C42 C41 1_555 1_555
H67 C42 1_555 1_555
O34 C42 1_555 1_555
H68 O34 1_555 1_555
O35 C37 1_555 1_555
O36 C43 1_555 1_555
C44 C45 1_555 1_555
C45 C46 1_555 1_555
C46 C47 1_555 1_555
C47 C48 1_555 1_555
C48 C49 1_555 1_555
C49 C44 1_555 1_555
N1 C46 1_555 1_555
O46 C44 1_555 1_555
C5 O4 1_555 1_555
C9 C10 1_555 1_555
C11 O9 1_555 1_555
C15 C16 1_555 1_555
C17 O15 1_555 1_555
C21 C22 1_555 1_555
C23 O20 1_555 1_555
C27 C28 1_555 1_555
C29 O24 1_555 1_555
C33 C34 1_555 1_555
C35 O29 1_555 1_555
C39 C40 1_555 1_555
C41 O35 1_555 1_555

#END
