
#######################################################################
#
#                 Cambridge Crystallographic Data Centre
#                                CCDC 
#
#######################################################################
#
# If this CIF has been generated from an entry in the Cambridge 
# Structural Database, then it will include bibliographic, chemical, 
# crystal, experimental, refinement or atomic coordinate data resulting 
# from the CCDC's data processing and validation procedures.
#
#######################################################################

data_GUYPAS
_chemical_name_common            3,6-Diphenyl-1,2-di-(1,2)-naphthopentalene
_chemical_formula_moiety         'C36 H22'
_chemical_name_systematic        
7,14-Diphenylnaphtho[2',1':4,5]pentaleno[2,1-a]naphthalene
_symmetry_cell_setting           monoclinic
_symmetry_space_group_name_H-M   'P 21/n'
_symmetry_Int_Tables_number      14
_space_group_name_Hall           '-P 2yn'
loop_
_symmetry_equiv_pos_site_id
_symmetry_equiv_pos_as_xyz
1 x,y,z
2 1/2-x,1/2+y,1/2-z
3 -x,-y,-z
4 1/2+x,1/2-y,1/2+z
_cell_length_a                   14.880(1)
_cell_length_b                   4.9221(4)
_cell_length_c                   15.904(1)
_cell_angle_alpha                90
_cell_angle_beta                 95.316(2)
_cell_angle_gamma                90
_cell_volume                     1159.81
_exptl_crystal_colour            black
_exptl_crystal_description       block
_chemical_melting_point          '293.5-294.0 deg.C'
_cell_formula_units_Z            2
_exptl_crystal_recrystallization_method hexane/dichloromethane
loop_
_atom_site_label
_atom_site_type_symbol
_atom_site_fract_x
_atom_site_fract_y
_atom_site_fract_z
C1 C 1.00993(8) 0.0771(3) 1.03874(7)
C2 C 0.93422(8) 0.2057(3) 1.06013(7)
C3 C 0.86139(8) 0.1514(3) 0.99065(7)
C4 C 0.89529(8) -0.0265(3) 0.93200(7)
C5 C 0.84074(9) -0.1160(3) 0.86036(8)
C6 C 0.75359(9) -0.0245(3) 0.84692(8)
C7 C 0.71815(8) 0.1656(3) 0.90216(7)
C8 C 0.62901(9) 0.2675(3) 0.88572(8)
C9 C 0.5961(1) 0.4604(4) 0.93588(9)
C10 C 0.6516(1) 0.5675(3) 1.00475(9)
C11 C 0.73715(9) 0.4715(3) 1.02420(8)
C12 C 0.77331(8) 0.2628(3) 0.97497(7)
C13 C 0.92391(8) 0.3453(3) 1.14078(7)
C14 C 0.85774(9) 0.2570(3) 1.19146(8)
C15 C 0.8501(1) 0.3748(3) 1.26965(8)
C16 C 0.9069(1) 0.5847(3) 1.29779(9)
C17 C 0.9722(1) 0.6748(3) 1.24784(9)
C18 C 0.98162(9) 0.5537(3) 1.17028(8)
H1 H 0.8651(10) -0.243(3) 0.8210(9)
H2 H 0.713(1) -0.092(3) 0.7976(9)
H3 H 0.591(1) 0.192(3) 0.8376(10)
H4 H 0.532(1) 0.531(3) 0.9243(10)
H5 H 0.629(1) 0.715(3) 1.0402(10)
H6 H 0.776(1) 0.554(3) 1.0721(10)
H7 H 0.8159(10) 0.107(3) 1.1692(9)
H8 H 0.802(1) 0.307(4) 1.303(1)
H9 H 0.900(1) 0.673(4) 1.354(1)
H10 H 1.015(1) 0.825(4) 1.265(1)
H11 H 1.030(1) 0.616(3) 1.1348(9)
C1B C 0.99007(8) -0.0771(3) 0.96126(7)
C2B C 1.06578(8) -0.2057(3) 0.93987(7)
C3B C 1.13861(8) -0.1514(3) 1.00935(7)
C4B C 1.10471(8) 0.0265(3) 1.06800(7)
C5B C 1.15926(9) 0.1160(3) 1.13964(8)
C6B C 1.24641(9) 0.0245(3) 1.15308(8)
C7B C 1.28185(8) -0.1656(3) 1.09784(7)
C8B C 1.37099(9) -0.2675(3) 1.11428(8)
C9B C 1.4039(1) -0.4604(4) 1.06412(9)
C10B C 1.3484(1) -0.5675(3) 0.99525(9)
C11B C 1.26285(9) -0.4715(3) 0.97580(8)
C12B C 1.22669(8) -0.2628(3) 1.02503(7)
C13B C 1.07609(8) -0.3453(3) 0.85922(7)
C14B C 1.14226(9) -0.2570(3) 0.80854(8)
C15B C 1.1499(1) -0.3748(3) 0.73035(8)
C16B C 1.0931(1) -0.5847(3) 0.70221(9)
C17B C 1.0278(1) -0.6748(3) 0.75216(9)
C18B C 1.01838(9) -0.5537(3) 0.82972(8)
H1B H 1.1349(10) 0.243(3) 1.1790(9)
H2B H 1.287(1) 0.092(3) 1.2024(9)
H3B H 1.409(1) -0.192(3) 1.1624(10)
H4B H 1.468(1) -0.531(3) 1.0757(10)
H5B H 1.371(1) -0.715(3) 0.9598(10)
H6B H 1.224(1) -0.554(3) 0.9279(10)
H7B H 1.1841(10) -0.107(3) 0.8308(9)
H8B H 1.198(1) -0.307(4) 0.697(1)
H9B H 1.100(1) -0.673(4) 0.646(1)
H10B H 0.985(1) -0.825(4) 0.735(1)
H11B H 0.970(1) -0.616(3) 0.8652(9)
loop_
_geom_bond_atom_site_label_1
_geom_bond_atom_site_label_2
_geom_bond_site_symmetry_1
_geom_bond_site_symmetry_2
C1 C2 1_555 1_555
C2 C3 1_555 1_555
C3 C4 1_555 1_555
C4 C5 1_555 1_555
C5 C6 1_555 1_555
C6 C7 1_555 1_555
C7 C8 1_555 1_555
C8 C9 1_555 1_555
C9 C10 1_555 1_555
C10 C11 1_555 1_555
C11 C12 1_555 1_555
C12 C3 1_555 1_555
C13 C2 1_555 1_555
C14 C13 1_555 1_555
C15 C14 1_555 1_555
C16 C15 1_555 1_555
C17 C16 1_555 1_555
C18 C13 1_555 1_555
H1 C5 1_555 1_555
H2 C6 1_555 1_555
H3 C8 1_555 1_555
H4 C9 1_555 1_555
H5 C10 1_555 1_555
H6 C11 1_555 1_555
H7 C14 1_555 1_555
H8 C15 1_555 1_555
H9 C16 1_555 1_555
H10 C17 1_555 1_555
H11 C18 1_555 1_555
C1B C1 1_555 1_555
C2B C1B 1_555 1_555
C3B C2B 1_555 1_555
C4B C1 1_555 1_555
C5B C4B 1_555 1_555
C6B C5B 1_555 1_555
C7B C6B 1_555 1_555
C8B C7B 1_555 1_555
C9B C8B 1_555 1_555
C10B C9B 1_555 1_555
C11B C10B 1_555 1_555
C12B C3B 1_555 1_555
C13B C2B 1_555 1_555
C14B C13B 1_555 1_555
C15B C14B 1_555 1_555
C16B C15B 1_555 1_555
C17B C16B 1_555 1_555
C18B C13B 1_555 1_555
H1B C5B 1_555 1_555
H2B C6B 1_555 1_555
H3B C8B 1_555 1_555
H4B C9B 1_555 1_555
H5B C10B 1_555 1_555
H6B C11B 1_555 1_555
H7B C14B 1_555 1_555
H8B C15B 1_555 1_555
H9B C16B 1_555 1_555
H10B C17B 1_555 1_555
H11B C18B 1_555 1_555
C4 C1B 1_555 1_555
C7 C12 1_555 1_555
C17 C18 1_555 1_555
C3B C4B 1_555 1_555
C7B C12B 1_555 1_555
C11B C12B 1_555 1_555
C17B C18B 1_555 1_555

#END
