
#######################################################################
#
#                 Cambridge Crystallographic Data Centre
#                                CCDC 
#
#######################################################################
#
# If this CIF has been generated from an entry in the Cambridge 
# Structural Database, then it will include bibliographic, chemical, 
# crystal, experimental, refinement or atomic coordinate data resulting 
# from the CCDC's data processing and validation procedures.
#
#######################################################################

data_GUYQIB
_chemical_formula_moiety         'C48 H64 Ca1 N6'
_chemical_name_systematic        
bis(4-allyl-3,5-dimethylpyridin-1(4H)-yl)-tetrakis(3,5-dimethylpyridine)-calcium
_symmetry_cell_setting           monoclinic
_symmetry_space_group_name_H-M   'P 21/c'
_symmetry_Int_Tables_number      14
_space_group_name_Hall           '-P 2ybc'
loop_
_symmetry_equiv_pos_site_id
_symmetry_equiv_pos_as_xyz
1 x,y,z
2 -x,1/2+y,1/2-z
3 -x,-y,-z
4 x,1/2-y,1/2+z
_cell_length_a                   17.8013(16)
_cell_length_b                   15.9886(15)
_cell_length_c                   16.1399(15)
_cell_angle_alpha                90
_cell_angle_beta                 96.151(2)
_cell_angle_gamma                90
_cell_volume                     4567.26
_exptl_crystal_colour            colorless
_exptl_crystal_description       block
_cell_formula_units_Z            4
_chemical_properties_physical    'air- and moisture-sensitive; hygroscopic'
_exptl_crystal_recrystallization_method 3,5-dimethylpyridine
loop_
_atom_site_label
_atom_site_type_symbol
_atom_site_fract_x
_atom_site_fract_y
_atom_site_fract_z
Ca1 Ca 0.22568(3) 0.54293(3) 0.36065(3)
N1 N 0.19574(11) 0.41884(11) 0.27719(11)
N2 N 0.25996(11) 0.66750(12) 0.44292(13)
N3 N 0.33879(11) 0.47175(12) 0.44148(12)
N4 N 0.14542(12) 0.48791(13) 0.46667(13)
N5 N 0.11138(10) 0.61835(12) 0.28653(12)
N6 N 0.30506(11) 0.58789(12) 0.24930(12)
C1 C 0.20130(13) 0.33820(15) 0.30805(15)
H1 H 0.1991 0.3328 0.3664
C2 C 0.20936(13) 0.26654(15) 0.26682(16)
C3 C 0.21171(14) 0.26526(15) 0.17345(15)
H2 H 0.1676 0.2316 0.1485
C4 C 0.20182(13) 0.35346(15) 0.14070(14)
C5 C 0.19587(12) 0.41905(14) 0.19145(14)
H3 H 0.1912 0.4723 0.1653
C6 C 0.21703(17) 0.18348(17) 0.3110(2)
H4 H 0.2685 0.1622 0.3096
H5 H 0.1809 0.1436 0.2830
H6 H 0.2067 0.1906 0.3690
C7 C 0.19914(17) 0.36457(19) 0.04776(16)
H7 H 0.1831 0.4217 0.0328
H8 H 0.1631 0.3247 0.0197
H9 H 0.2494 0.3545 0.0304
C8 C 0.28497(14) 0.22292(16) 0.14825(16)
H10 H 0.2882 0.1653 0.1707
H11 H 0.2816 0.2191 0.0867
C9 C 0.35482(15) 0.26887(17) 0.17903(16)
H12 H 0.3560 0.3267 0.1658
C10 C 0.41498(16) 0.2383(2) 0.22238(18)
H13 H 0.4168 0.1808 0.2373
H14 H 0.4568 0.2737 0.2389
C11 C 0.32383(14) 0.70868(15) 0.42262(14)
H15 H 0.3618 0.6743 0.4031
C12 C 0.33915(13) 0.79085(15) 0.42692(15)
C13 C 0.28031(14) 0.85216(15) 0.45043(16)
H16 H 0.3054 0.8911 0.4934
C14 C 0.21964(13) 0.80472(15) 0.48960(15)
C15 C 0.21338(13) 0.72141(15) 0.48062(15)
H17 H 0.1716 0.6964 0.5031
C16 C 0.41242(15) 0.82530(17) 0.40307(18)
H18 H 0.4458 0.7790 0.3913
H19 H 0.4368 0.8590 0.4491
H20 H 0.4024 0.8604 0.3533
C17 C 0.16820(15) 0.85417(17) 0.53923(18)
H21 H 0.1331 0.8161 0.5631
H22 H 0.1396 0.8946 0.5027
H23 H 0.1984 0.8840 0.5842
C18 C 0.24621(18) 0.90553(18) 0.3751(2)
H24 H 0.2428 0.8668 0.3315
H25 H 0.1887 0.9242 0.3808
C19 C 0.2861(4) 0.9702(4) 0.3423(5)
H26 H 0.3081 1.0124 0.3786
C20 C 0.2950(6) 0.9751(7) 0.2529(8)
H27 H 0.2732 0.9334 0.2159
H28 H 0.3225 1.0200 0.2322
C21 C 0.37484(13) 0.50553(15) 0.51076(16)
H29 H 0.3627 0.5613 0.5245
C22 C 0.42890(13) 0.46350(16) 0.56342(15)
C23 C 0.44410(13) 0.38176(16) 0.54399(15)
H30 H 0.4805 0.3511 0.5791
C24 C 0.40707(14) 0.34353(16) 0.47399(16)
C25 C 0.35580(14) 0.39230(16) 0.42381(15)
H31 H 0.3315 0.3680 0.3743
C26 C 0.46903(15) 0.50521(17) 0.63900(17)
H32 H 0.4987 0.5524 0.6216
H33 H 0.5028 0.4649 0.6699
H34 H 0.4318 0.5255 0.6748
C27 C 0.4185(2) 0.25250(18) 0.45313(19)
H35 H 0.3883 0.2388 0.4005
H36 H 0.4025 0.2173 0.4977
H37 H 0.4720 0.2424 0.4477
C28 C 0.15317(18) 0.51744(17) 0.54479(16)
H38 H 0.1898 0.5598 0.5586
C29 C 0.1108(2) 0.48973(17) 0.60655(17)
C30 C 0.06086(18) 0.42581(17) 0.58613(18)
H39 H 0.0319 0.4043 0.6274
C31 C 0.05174(15) 0.39196(16) 0.50694(17)
C32 C 0.09493(14) 0.42748(16) 0.44901(16)
H40 H 0.0879 0.4072 0.3934
C33 C 0.1181(3) 0.5293(2) 0.6916(2)
H41 H 0.0710 0.5211 0.7171
H42 H 0.1279 0.5892 0.6865
H43 H 0.1600 0.5032 0.7267
C34 C -0.00056(17) 0.3200(2) 0.4835(2)
H44 H -0.0215 0.3255 0.4251
H45 H -0.0418 0.3201 0.5191
H46 H 0.0275 0.2673 0.4910
C35 C 0.09034(13) 0.69566(14) 0.30635(15)
H47 H 0.1218 0.7257 0.3474
C36 C 0.02481(13) 0.73443(14) 0.27005(15)
C37 C -0.01810(13) 0.69142(15) 0.20742(15)
H48 H -0.0626 0.7164 0.1805
C38 C 0.00312(13) 0.61226(15) 0.18344(14)
C39 C 0.06727(13) 0.57809(15) 0.22680(14)
H49 H 0.0809 0.5226 0.2134
C40 C 0.00091(16) 0.81856(16) 0.3013(2)
H50 H -0.0404 0.8108 0.3361
H51 H -0.0163 0.8544 0.2538
H52 H 0.0439 0.8450 0.3343
C41 C -0.04031(14) 0.56432(16) 0.11367(15)
H53 H -0.0321 0.5899 0.0602
H54 H -0.0943 0.5657 0.1207
H55 H -0.0228 0.5062 0.1147
C42 C 0.30928(16) 0.66828(16) 0.22625(16)
H56 H 0.2768 0.7073 0.2489
C43 C 0.35742(18) 0.69757(17) 0.17221(16)
C44 C 0.40399(18) 0.63994(19) 0.14004(17)
H57 H 0.4385 0.6582 0.1028
C45 C 0.40164(15) 0.55563(17) 0.16082(16)
C46 C 0.35107(13) 0.53367(15) 0.21634(14)
H58 H 0.3488 0.4766 0.2322
C47 C 0.3583(3) 0.78976(18) 0.1499(2)
H59 H 0.4106 0.8095 0.1531
H60 H 0.3310 0.8216 0.1891
H61 H 0.3337 0.7977 0.0932
C48 C 0.45142(18) 0.4910(2) 0.1254(2)
H62 H 0.4566 0.4423 0.1624
H63 H 0.5014 0.5152 0.1208
H64 H 0.4285 0.4737 0.0701
C49? C 0.3020(5) 0.9857(6) 0.3796(8)
C50? C 0.3268(7) 1.0013(7) 0.2999(8)
H65? H 0.3162 1.0177 0.4283
H66? H 0.3101 0.9664 0.2539
H67? H 0.3600 1.0466 0.2927
loop_
_geom_bond_atom_site_label_1
_geom_bond_atom_site_label_2
_geom_bond_site_symmetry_1
_geom_bond_site_symmetry_2
Ca1 N1 1_555 1_555
N1 C1 1_555 1_555
N2 Ca1 1_555 1_555
N3 Ca1 1_555 1_555
N4 Ca1 1_555 1_555
N5 Ca1 1_555 1_555
N6 Ca1 1_555 1_555
C1 H1 1_555 1_555
C2 C1 1_555 1_555
C3 C2 1_555 1_555
H2 C3 1_555 1_555
C4 C3 1_555 1_555
C5 N1 1_555 1_555
H3 C5 1_555 1_555
C6 C2 1_555 1_555
H4 C6 1_555 1_555
H5 C6 1_555 1_555
H6 C6 1_555 1_555
C7 C4 1_555 1_555
H7 C7 1_555 1_555
H8 C7 1_555 1_555
H9 C7 1_555 1_555
C8 C3 1_555 1_555
H10 C8 1_555 1_555
H11 C8 1_555 1_555
C9 C8 1_555 1_555
H12 C9 1_555 1_555
C10 C9 1_555 1_555
H13 C10 1_555 1_555
H14 C10 1_555 1_555
C11 N2 1_555 1_555
H15 C11 1_555 1_555
C12 C11 1_555 1_555
C13 C12 1_555 1_555
H16 C13 1_555 1_555
C14 C13 1_555 1_555
C15 N2 1_555 1_555
H17 C15 1_555 1_555
C16 C12 1_555 1_555
H18 C16 1_555 1_555
H19 C16 1_555 1_555
H20 C16 1_555 1_555
C17 C14 1_555 1_555
H21 C17 1_555 1_555
H22 C17 1_555 1_555
H23 C17 1_555 1_555
C18 C13 1_555 1_555
H24 C18 1_555 1_555
H25 C18 1_555 1_555
C19 C18 1_555 1_555
H26 C19 1_555 1_555
C20 C19 1_555 1_555
H27 C20 1_555 1_555
H28 C20 1_555 1_555
C21 N3 1_555 1_555
H29 C21 1_555 1_555
C22 C21 1_555 1_555
C23 C22 1_555 1_555
H30 C23 1_555 1_555
C24 C23 1_555 1_555
C25 N3 1_555 1_555
H31 C25 1_555 1_555
C26 C22 1_555 1_555
H32 C26 1_555 1_555
H33 C26 1_555 1_555
H34 C26 1_555 1_555
C27 C24 1_555 1_555
H35 C27 1_555 1_555
H36 C27 1_555 1_555
H37 C27 1_555 1_555
C28 N4 1_555 1_555
H38 C28 1_555 1_555
C29 C28 1_555 1_555
C30 C29 1_555 1_555
H39 C30 1_555 1_555
C31 C30 1_555 1_555
C32 N4 1_555 1_555
H40 C32 1_555 1_555
C33 C29 1_555 1_555
H41 C33 1_555 1_555
H42 C33 1_555 1_555
H43 C33 1_555 1_555
C34 C31 1_555 1_555
H44 C34 1_555 1_555
H45 C34 1_555 1_555
H46 C34 1_555 1_555
C35 N5 1_555 1_555
H47 C35 1_555 1_555
C36 C35 1_555 1_555
C37 C36 1_555 1_555
H48 C37 1_555 1_555
C38 C37 1_555 1_555
C39 N5 1_555 1_555
H49 C39 1_555 1_555
C40 C36 1_555 1_555
H50 C40 1_555 1_555
H51 C40 1_555 1_555
H52 C40 1_555 1_555
C41 C38 1_555 1_555
H53 C41 1_555 1_555
H54 C41 1_555 1_555
H55 C41 1_555 1_555
C42 N6 1_555 1_555
H56 C42 1_555 1_555
C43 C42 1_555 1_555
C44 C43 1_555 1_555
H57 C44 1_555 1_555
C45 C44 1_555 1_555
C46 N6 1_555 1_555
H58 C46 1_555 1_555
C47 C43 1_555 1_555
H59 C47 1_555 1_555
H60 C47 1_555 1_555
H61 C47 1_555 1_555
C48 C45 1_555 1_555
H62 C48 1_555 1_555
H63 C48 1_555 1_555
H64 C48 1_555 1_555
C4 C5 1_555 1_555
C14 C15 1_555 1_555
C24 C25 1_555 1_555
C31 C32 1_555 1_555
C38 C39 1_555 1_555
C45 C46 1_555 1_555

#END
