
#######################################################################
#
#                 Cambridge Crystallographic Data Centre
#                                CCDC 
#
#######################################################################
#
# If this CIF has been generated from an entry in the Cambridge 
# Structural Database, then it will include bibliographic, chemical, 
# crystal, experimental, refinement or atomic coordinate data resulting 
# from the CCDC's data processing and validation procedures.
#
#######################################################################

data_GUYQEX
_chemical_formula_moiety         'C36 H40 Ca1 N6'
_chemical_name_systematic        
bis(4-allylpyridin-1(4H)-yl)-tetrakis(pyridine)-calcium
_symmetry_cell_setting           monoclinic
_symmetry_space_group_name_H-M   'P 21/c'
_symmetry_Int_Tables_number      14
_space_group_name_Hall           '-P 2ybc'
loop_
_symmetry_equiv_pos_site_id
_symmetry_equiv_pos_as_xyz
1 x,y,z
2 -x,1/2+y,1/2-z
3 -x,-y,-z
4 x,1/2-y,1/2+z
_cell_length_a                   8.3698(4)
_cell_length_b                   20.9180(11)
_cell_length_c                   19.4840(10)
_cell_angle_alpha                90
_cell_angle_beta                 90.4450(10)
_cell_angle_gamma                90
_cell_volume                     3411.15
_cell_formula_units_Z            4
_chemical_properties_physical    'air- and moisture-sensitive; hygroscopic'
_exptl_crystal_recrystallization_method pyridine
loop_
_atom_site_label
_atom_site_type_symbol
_atom_site_fract_x
_atom_site_fract_y
_atom_site_fract_z
Ca1 Ca 0.5000 0.5000 0.5000
N1 N 0.32618(16) 0.44097(7) 0.57406(7)
C1 C 0.32990(19) 0.44840(7) 0.64440(8)
H1 H 0.4122 0.4749 0.6625
C2 C 0.2292(2) 0.42213(8) 0.69019(8)
H2 H 0.2380 0.4342 0.7371
C3 C 0.10322(19) 0.37423(8) 0.66941(8)
H3 H -0.0002 0.3865 0.6912
C4 C 0.08416(19) 0.37824(8) 0.59238(8)
H4 H -0.0078 0.3598 0.5714
C5 C 0.19304(19) 0.40710(7) 0.55237(8)
H5 H 0.1767 0.4039 0.5042
C6 C 0.1470(2) 0.30520(8) 0.69198(9)
H6 H 0.0604 0.2759 0.6773
H7 H 0.2459 0.2920 0.6683
C7 C 0.1715(2) 0.29865(9) 0.76727(9)
H8 H 0.2551 0.3231 0.7875
C8 C 0.0880(3) 0.26209(11) 0.80839(11)
H9 H 0.0032 0.2368 0.7905
H10 H 0.1124 0.2610 0.8561
N2 N 0.67477(16) 0.40341(7) 0.48256(7)
C9 C 0.6320(2) 0.34707(9) 0.50911(10)
H11 H 0.5455 0.3461 0.5403
C10 C 0.7071(2) 0.29024(9) 0.49355(11)
H12 H 0.6742 0.2514 0.5144
C11 C 0.8309(2) 0.29089(9) 0.44713(11)
H13 H 0.8826 0.2523 0.4343
C12 C 0.8781(2) 0.34877(9) 0.41965(10)
H14 H 0.9640 0.3508 0.3882
C13 C 0.7979(2) 0.40371(9) 0.43878(9)
H15 H 0.8315 0.4434 0.4201
N3 N 0.33658(16) 0.46181(7) 0.39666(7)
C14 C 0.3737(2) 0.40872(9) 0.36153(10)
H16 H 0.4652 0.3851 0.3756
C15 C 0.2861(2) 0.38650(9) 0.30594(10)
H17 H 0.3165 0.3484 0.2829
C16 C 0.1539(2) 0.42067(10) 0.28462(10)
H18 H 0.0920 0.4069 0.2463
C17 C 0.1132(2) 0.47542(10) 0.32024(11)
H19 H 0.0225 0.4999 0.3070
C18 C 0.2074(2) 0.49384(8) 0.37565(10)
H20 H 0.1783 0.5314 0.4000
N1B N 0.67382(16) 0.55903(7) 0.42594(7)
C1B C 0.67010(19) 0.55160(7) 0.35560(8)
H1B H 0.5878 0.5251 0.3375
C2B C 0.7708(2) 0.57787(8) 0.30981(8)
H2B H 0.7620 0.5658 0.2629
C3B C 0.89678(19) 0.62577(8) 0.33059(8)
H3B H 1.0002 0.6135 0.3088
C4B C 0.91584(19) 0.62176(8) 0.40762(8)
H4B H 1.0078 0.6402 0.4286
C5B C 0.80696(19) 0.59290(7) 0.44763(8)
H5B H 0.8233 0.5961 0.4958
C6B C 0.8530(2) 0.69480(8) 0.30802(9)
H6B H 0.9396 0.7241 0.3227
H7B H 0.7541 0.7080 0.3317
C7B C 0.8285(2) 0.70135(9) 0.23273(9)
H8B H 0.7449 0.6769 0.2125
C8B C 0.9120(3) 0.73791(11) 0.19161(11)
H9B H 0.9968 0.7632 0.2095
H10B H 0.8876 0.7390 0.1439
N2B N 0.32523(16) 0.59659(7) 0.51744(7)
C9B C 0.3680(2) 0.65293(9) 0.49089(10)
H11B H 0.4545 0.6539 0.4597
C10B C 0.2929(2) 0.70976(9) 0.50645(11)
H12B H 0.3258 0.7486 0.4856
C11B C 0.1691(2) 0.70911(9) 0.55287(11)
H13B H 0.1174 0.7477 0.5657
C12B C 0.1219(2) 0.65123(9) 0.58035(10)
H14B H 0.0360 0.6492 0.6118
C13B C 0.2021(2) 0.59629(9) 0.56122(9)
H15B H 0.1685 0.5566 0.5799
N3B N 0.66342(16) 0.53819(7) 0.60334(7)
C14B C 0.6263(2) 0.59128(9) 0.63847(10)
H16B H 0.5348 0.6149 0.6244
C15B C 0.7139(2) 0.61350(9) 0.69406(10)
H17B H 0.6835 0.6516 0.7171
C16B C 0.8461(2) 0.57933(10) 0.71538(10)
H18B H 0.9080 0.5931 0.7537
C17B C 0.8868(2) 0.52458(10) 0.67976(11)
H19B H 0.9775 0.5001 0.6930
C18B C 0.7926(2) 0.50616(8) 0.62435(10)
H20B H 0.8217 0.4686 0.6000
Ca2 Ca 1.0000 0.5000 0.0000
N4 N 0.81958(17) 0.45055(7) 0.07837(7)
C19 C 0.8355(2) 0.45682(8) 0.14862(9)
H21 H 0.9123 0.4870 0.1644
C20 C 0.7542(2) 0.42487(9) 0.19751(9)
H22 H 0.7717 0.4359 0.2443
C21 C 0.6375(2) 0.37261(8) 0.18083(9)
H23 H 0.5329 0.3834 0.2024
C22 C 0.6143(2) 0.37114(8) 0.10416(9)
H24 H 0.5347 0.3437 0.0855
C23 C 0.7014(2) 0.40712(8) 0.06074(9)
H25 H 0.6793 0.4021 0.0131
C24 C 0.6964(3) 0.30811(10) 0.21088(12)
H26 H 0.7987 0.2967 0.1889
H27 H 0.7178 0.3138 0.2606
C25 C 0.5839(3) 0.25468(11) 0.20178(11)
H28 H 0.4791 0.2603 0.2192
C26 C 0.6153(3) 0.19996(11) 0.17176(12)
H29 H 0.7185 0.1922 0.1536
H30 H 0.5348 0.1681 0.1682
N5 N 0.84466(18) 0.60333(7) 0.00722(8)
C27 C 0.7179(2) 0.60934(9) 0.04846(10)
H31 H 0.6819 0.5726 0.0725
C28 C 0.6373(2) 0.66623(10) 0.05776(11)
H32 H 0.5479 0.6685 0.0874
C29 C 0.6894(3) 0.71991(10) 0.02302(12)
H33 H 0.6373 0.7599 0.0288
C30 C 0.8183(3) 0.71435(9) -0.02021(11)
H34 H 0.8558 0.7503 -0.0451
C31 C 0.8921(2) 0.65561(9) -0.02673(10)
H35 H 0.9807 0.6521 -0.0567
N6 N 1.17816(17) 0.53698(7) 0.09754(8)
C32 C 1.1464(2) 0.58976(9) 0.13376(9)
H36 H 1.0498 0.6120 0.1242
C33 C 1.2465(2) 0.61351(10) 0.18427(10)
H37 H 1.2196 0.6514 0.2085
C34 C 1.3869(2) 0.58105(10) 0.19899(10)
H38 H 1.4583 0.5962 0.2335
C35 C 1.4210(2) 0.52632(10) 0.16262(11)
H39 H 1.5160 0.5028 0.1717
C36 C 1.3140(2) 0.50622(9) 0.11264(10)
H40 H 1.3384 0.4685 0.0877
N4B N 1.18042(17) 0.54945(7) -0.07837(7)
C19B C 1.1645(2) 0.54318(8) -0.14862(9)
H21B H 1.0877 0.5130 -0.1644
C20B C 1.2458(2) 0.57513(9) -0.19751(9)
H22B H 1.2283 0.5641 -0.2443
C21B C 1.3625(2) 0.62739(8) -0.18083(9)
H23B H 1.4671 0.6166 -0.2024
C22B C 1.3857(2) 0.62886(8) -0.10416(9)
H24B H 1.4653 0.6563 -0.0855
C23B C 1.2986(2) 0.59288(8) -0.06074(9)
H25B H 1.3207 0.5979 -0.0131
C24B C 1.3036(3) 0.69189(10) -0.21088(12)
H26B H 1.2013 0.7033 -0.1889
H27B H 1.2822 0.6862 -0.2606
C25B C 1.4161(3) 0.74532(11) -0.20178(11)
H28B H 1.5209 0.7397 -0.2192
C26B C 1.3847(3) 0.80004(11) -0.17176(12)
H29B H 1.2815 0.8078 -0.1536
H30B H 1.4652 0.8319 -0.1682
N5B N 1.15534(18) 0.39667(7) -0.00722(8)
C27B C 1.2821(2) 0.39066(9) -0.04846(10)
H31B H 1.3181 0.4274 -0.0725
C28B C 1.3627(2) 0.33377(10) -0.05776(11)
H32B H 1.4521 0.3315 -0.0874
C29B C 1.3106(3) 0.28009(10) -0.02302(12)
H33B H 1.3627 0.2401 -0.0288
C30B C 1.1817(3) 0.28565(9) 0.02021(11)
H34B H 1.1442 0.2497 0.0451
C31B C 1.1079(2) 0.34439(9) 0.02673(10)
H35B H 1.0193 0.3479 0.0567
N6B N 0.82184(17) 0.46302(7) -0.09754(8)
C32B C 0.8536(2) 0.41024(9) -0.13376(9)
H36B H 0.9502 0.3880 -0.1242
C33B C 0.7535(2) 0.38649(10) -0.18427(10)
H37B H 0.7804 0.3486 -0.2085
C34B C 0.6131(2) 0.41895(10) -0.19899(10)
H38B H 0.5417 0.4038 -0.2335
C35B C 0.5790(2) 0.47368(10) -0.16262(11)
H39B H 0.4840 0.4972 -0.1717
C36B C 0.6860(2) 0.49378(9) -0.11264(10)
H40B H 0.6616 0.5315 -0.0877
loop_
_geom_bond_atom_site_label_1
_geom_bond_atom_site_label_2
_geom_bond_site_symmetry_1
_geom_bond_site_symmetry_2
Ca1 N1 1_555 1_555
N1 C1 1_555 1_555
C1 H1 1_555 1_555
C2 C1 1_555 1_555
H2 C2 1_555 1_555
C3 C2 1_555 1_555
H3 C3 1_555 1_555
C4 C3 1_555 1_555
H4 C4 1_555 1_555
C5 N1 1_555 1_555
H5 C5 1_555 1_555
C6 C3 1_555 1_555
H6 C6 1_555 1_555
H7 C6 1_555 1_555
C7 C6 1_555 1_555
H8 C7 1_555 1_555
C8 C7 1_555 1_555
H9 C8 1_555 1_555
H10 C8 1_555 1_555
N2 Ca1 1_555 1_555
C9 N2 1_555 1_555
H11 C9 1_555 1_555
C10 C9 1_555 1_555
H12 C10 1_555 1_555
C11 C10 1_555 1_555
H13 C11 1_555 1_555
C12 C11 1_555 1_555
H14 C12 1_555 1_555
C13 N2 1_555 1_555
H15 C13 1_555 1_555
N3 Ca1 1_555 1_555
C14 N3 1_555 1_555
H16 C14 1_555 1_555
C15 C14 1_555 1_555
H17 C15 1_555 1_555
C16 C15 1_555 1_555
H18 C16 1_555 1_555
C17 C16 1_555 1_555
H19 C17 1_555 1_555
C18 N3 1_555 1_555
H20 C18 1_555 1_555
Ca2 N4 1_555 1_555
N4 C19 1_555 1_555
C19 H21 1_555 1_555
C20 C19 1_555 1_555
H22 C20 1_555 1_555
C21 C20 1_555 1_555
H23 C21 1_555 1_555
C22 C21 1_555 1_555
H24 C22 1_555 1_555
C23 N4 1_555 1_555
H25 C23 1_555 1_555
C24 C21 1_555 1_555
H26 C24 1_555 1_555
H27 C24 1_555 1_555
C25 C24 1_555 1_555
H28 C25 1_555 1_555
C26 C25 1_555 1_555
H29 C26 1_555 1_555
H30 C26 1_555 1_555
N5 Ca2 1_555 1_555
C27 N5 1_555 1_555
H31 C27 1_555 1_555
C28 C27 1_555 1_555
H32 C28 1_555 1_555
C29 C28 1_555 1_555
H33 C29 1_555 1_555
C30 C29 1_555 1_555
H34 C30 1_555 1_555
C31 N5 1_555 1_555
H35 C31 1_555 1_555
N6 Ca2 1_555 1_555
C32 N6 1_555 1_555
H36 C32 1_555 1_555
C33 C32 1_555 1_555
H37 C33 1_555 1_555
C34 C33 1_555 1_555
H38 C34 1_555 1_555
C35 C34 1_555 1_555
H39 C35 1_555 1_555
C36 N6 1_555 1_555
H40 C36 1_555 1_555
N1B Ca1 1_555 1_555
C1B N1B 1_555 1_555
H1B C1B 1_555 1_555
C2B C1B 1_555 1_555
H2B C2B 1_555 1_555
C3B C2B 1_555 1_555
H3B C3B 1_555 1_555
C4B C3B 1_555 1_555
H4B C4B 1_555 1_555
C5B N1B 1_555 1_555
H5B C5B 1_555 1_555
C6B C3B 1_555 1_555
H6B C6B 1_555 1_555
H7B C6B 1_555 1_555
C7B C6B 1_555 1_555
H8B C7B 1_555 1_555
C8B C7B 1_555 1_555
H9B C8B 1_555 1_555
H10B C8B 1_555 1_555
N2B Ca1 1_555 1_555
C9B N2B 1_555 1_555
H11B C9B 1_555 1_555
C10B C9B 1_555 1_555
H12B C10B 1_555 1_555
C11B C10B 1_555 1_555
H13B C11B 1_555 1_555
C12B C11B 1_555 1_555
H14B C12B 1_555 1_555
C13B N2B 1_555 1_555
H15B C13B 1_555 1_555
N3B Ca1 1_555 1_555
C14B N3B 1_555 1_555
H16B C14B 1_555 1_555
C15B C14B 1_555 1_555
H17B C15B 1_555 1_555
C16B C15B 1_555 1_555
H18B C16B 1_555 1_555
C17B C16B 1_555 1_555
H19B C17B 1_555 1_555
C18B N3B 1_555 1_555
H20B C18B 1_555 1_555
N4B Ca2 1_555 1_555
C19B N4B 1_555 1_555
H21B C19B 1_555 1_555
C20B C19B 1_555 1_555
H22B C20B 1_555 1_555
C21B C20B 1_555 1_555
H23B C21B 1_555 1_555
C22B C21B 1_555 1_555
H24B C22B 1_555 1_555
C23B N4B 1_555 1_555
H25B C23B 1_555 1_555
C24B C21B 1_555 1_555
H26B C24B 1_555 1_555
H27B C24B 1_555 1_555
C25B C24B 1_555 1_555
H28B C25B 1_555 1_555
C26B C25B 1_555 1_555
H29B C26B 1_555 1_555
H30B C26B 1_555 1_555
N5B Ca2 1_555 1_555
C27B N5B 1_555 1_555
H31B C27B 1_555 1_555
C28B C27B 1_555 1_555
H32B C28B 1_555 1_555
C29B C28B 1_555 1_555
H33B C29B 1_555 1_555
C30B C29B 1_555 1_555
H34B C30B 1_555 1_555
C31B N5B 1_555 1_555
H35B C31B 1_555 1_555
N6B Ca2 1_555 1_555
C32B N6B 1_555 1_555
H36B C32B 1_555 1_555
C33B C32B 1_555 1_555
H37B C33B 1_555 1_555
C34B C33B 1_555 1_555
H38B C34B 1_555 1_555
C35B C34B 1_555 1_555
H39B C35B 1_555 1_555
C36B N6B 1_555 1_555
H40B C36B 1_555 1_555
C4 C5 1_555 1_555
C12 C13 1_555 1_555
C17 C18 1_555 1_555
C22 C23 1_555 1_555
C30 C31 1_555 1_555
C35 C36 1_555 1_555
C4B C5B 1_555 1_555
C12B C13B 1_555 1_555
C17B C18B 1_555 1_555
C22B C23B 1_555 1_555
C30B C31B 1_555 1_555
C35B C36B 1_555 1_555

#END
