
#######################################################################
#
#                 Cambridge Crystallographic Data Centre
#                                CCDC 
#
#######################################################################
#
# If this CIF has been generated from an entry in the Cambridge 
# Structural Database, then it will include bibliographic, chemical, 
# crystal, experimental, refinement or atomic coordinate data resulting 
# from the CCDC's data processing and validation procedures.
#
#######################################################################

data_GUYROI
_chemical_formula_moiety         'C14 H23 N1 O3'
_chemical_name_systematic        
'Methyl cis-1-t-butyl-2-oxooctahydro-1H-indole-3-carboxylate'
_symmetry_cell_setting           monoclinic
_symmetry_space_group_name_H-M   'P 21/c'
_symmetry_Int_Tables_number      14
_space_group_name_Hall           '-P 2ybc'
loop_
_symmetry_equiv_pos_site_id
_symmetry_equiv_pos_as_xyz
1 x,y,z
2 -x,1/2+y,1/2-z
3 -x,-y,-z
4 x,1/2-y,1/2+z
_cell_length_a                   9.847(4)
_cell_length_b                   12.586(2)
_cell_length_c                   11.541(3)
_cell_angle_alpha                90
_cell_angle_beta                 99.81(2)
_cell_angle_gamma                90
_cell_volume                     1409.41
_exptl_crystal_colour            colorless
_exptl_crystal_description       block
_cell_formula_units_Z            4
loop_
_atom_site_label
_atom_site_type_symbol
_atom_site_fract_x
_atom_site_fract_y
_atom_site_fract_z
N1 N 0.71843(19) 0.53127(15) -0.14233(16)
O1 O 0.81106(19) 0.66418(15) -0.01527(16)
O2 O 0.63501(18) 0.54236(18) 0.18379(16)
O3 O 0.85885(16) 0.53086(15) 0.25279(14)
C1 C 0.7045(2) 0.41501(19) -0.13592(19)
H1 H 0.6210 0.3915 -0.1884
C2 C 0.8304(2) 0.3562(2) -0.1650(2)
H2 H 0.8293 0.3592 -0.2492
H3 H 0.9135 0.3915 -0.1264
C3 C 0.8335(3) 0.2408(2) -0.1261(2)
H4 H 0.7531 0.2042 -0.1678
H5 H 0.9149 0.2064 -0.1454
C4 C 0.8349(3) 0.2332(2) 0.0051(2)
H6 H 0.8375 0.1592 0.0286
H7 H 0.9168 0.2678 0.0470
C5 C 0.7080(3) 0.28563(19) 0.0366(2)
H8 H 0.7148 0.2853 0.1215
H9 H 0.6276 0.2442 0.0037
C6 C 0.6880(2) 0.39958(18) -0.00753(18)
H10 H 0.5939 0.4207 -0.0008
C7 C 0.7851(2) 0.48378(18) 0.05487(19)
H11 H 0.8795 0.4560 0.0688
C8 C 0.7735(2) 0.5727(2) -0.0366(2)
C9 C 0.7492(3) 0.52238(19) 0.1685(2)
C10 C 0.8347(3) 0.5641(2) 0.3671(2)
H12 H 0.8141 0.6387 0.3655
H13 H 0.9155 0.5507 0.4245
H14 H 0.7583 0.5252 0.3874
C11 C 0.6914(2) 0.5957(2) -0.2523(2)
C12 C 0.6200(3) 0.5275(2) -0.3546(2)
H15 H 0.6785 0.4688 -0.3664
H16 H 0.6023 0.5697 -0.4248
H17 H 0.5345 0.5011 -0.3367
C13 C 0.8276(3) 0.6374(3) -0.2808(3)
H18 H 0.8732 0.6793 -0.2162
H19 H 0.8098 0.6806 -0.3503
H20 H 0.8852 0.5787 -0.2938
C14 C 0.5945(3) 0.6861(2) -0.2347(3)
H21 H 0.5079 0.6575 -0.2219
H22 H 0.5798 0.7304 -0.3034
H23 H 0.6345 0.7276 -0.1677
loop_
_geom_bond_atom_site_label_1
_geom_bond_atom_site_label_2
_geom_bond_site_symmetry_1
_geom_bond_site_symmetry_2
N1 C1 1_555 1_555
O1 C8 1_555 1_555
O2 C9 1_555 1_555
O3 C9 1_555 1_555
C1 H1 1_555 1_555
C2 C1 1_555 1_555
H2 C2 1_555 1_555
H3 C2 1_555 1_555
C3 C2 1_555 1_555
H4 C3 1_555 1_555
H5 C3 1_555 1_555
C4 C3 1_555 1_555
H6 C4 1_555 1_555
H7 C4 1_555 1_555
C5 C4 1_555 1_555
H8 C5 1_555 1_555
H9 C5 1_555 1_555
C6 C1 1_555 1_555
H10 C6 1_555 1_555
C7 C6 1_555 1_555
H11 C7 1_555 1_555
C8 N1 1_555 1_555
C9 C7 1_555 1_555
C10 O3 1_555 1_555
H12 C10 1_555 1_555
H13 C10 1_555 1_555
H14 C10 1_555 1_555
C11 N1 1_555 1_555
C12 C11 1_555 1_555
H15 C12 1_555 1_555
H16 C12 1_555 1_555
H17 C12 1_555 1_555
C13 C11 1_555 1_555
H18 C13 1_555 1_555
H19 C13 1_555 1_555
H20 C13 1_555 1_555
C14 C11 1_555 1_555
H21 C14 1_555 1_555
H22 C14 1_555 1_555
H23 C14 1_555 1_555
C5 C6 1_555 1_555
C7 C8 1_555 1_555

#END
