
#######################################################################
#
#                 Cambridge Crystallographic Data Centre
#                                CCDC 
#
#######################################################################
#
# If this CIF has been generated from an entry in the Cambridge 
# Structural Database, then it will include bibliographic, chemical, 
# crystal, experimental, refinement or atomic coordinate data resulting 
# from the CCDC's data processing and validation procedures.
#
#######################################################################

data_GUYSAV
_chemical_formula_moiety         'C24 H12 B1 F15 O1 S1 Te1'
_chemical_name_systematic        
'5-Thiatellurocane 5-oxytris(pentafluorophenyl)boron'
_symmetry_cell_setting           monoclinic
_symmetry_space_group_name_H-M   'P 21/c'
_symmetry_Int_Tables_number      14
_space_group_name_Hall           '-P 2ybc'
loop_
_symmetry_equiv_pos_site_id
_symmetry_equiv_pos_as_xyz
1 x,y,z
2 -x,1/2+y,1/2-z
3 -x,-y,-z
4 x,1/2-y,1/2+z
_cell_length_a                   12.5426(6)
_cell_length_b                   20.8109(9)
_cell_length_c                   9.6271(4)
_cell_angle_alpha                90
_cell_angle_beta                 95.7100(10)
_cell_angle_gamma                90
_cell_volume                     2500.42
_exptl_crystal_colour            colorless
_exptl_crystal_description       plate
_cell_formula_units_Z            4
loop_
_atom_site_label
_atom_site_type_symbol
_atom_site_fract_x
_atom_site_fract_y
_atom_site_fract_z
Te1 Te 0.287229(17) 1.047304(10) 0.98225(2)
S1 S 0.28535(7) 1.16404(4) 1.15727(9)
O1 O 0.24134(18) 0.98922(11) 0.8344(2)
B1 B 0.2794(3) 0.92306(18) 0.8063(4)
C1 C 0.1327(3) 1.04694(15) 1.0552(4)
H1 H 0.0829 1.0706 0.9871
H2 H 0.1073 1.0019 1.0570
C2 C 0.1262(3) 1.07606(18) 1.1984(4)
H3 H 0.0532 1.0692 1.2263
H4 H 0.1771 1.0534 1.2667
C3 C 0.1511(3) 1.14730(18) 1.2042(4)
H5 H 0.1447 1.1634 1.2998
H6 H 0.0982 1.1705 1.1395
C4 C 0.2612(3) 1.21542(18) 1.0059(4)
H7 H 0.2168 1.2524 1.0299
H8 H 0.3306 1.2325 0.9815
C5 C 0.2054(3) 1.18147(17) 0.8796(4)
H9 H 0.1336 1.1673 0.9016
H10 H 0.1953 1.2123 0.8011
C6 C 0.2667(3) 1.12371(17) 0.8343(4)
H11 H 0.3384 1.1382 0.8128
H12 H 0.2289 1.1066 0.7469
C7 C 0.3906(3) 0.92114(17) 0.7288(3)
C8 C 0.4618(3) 0.97109(17) 0.7161(4)
F1 F 0.44856(16) 1.02877(10) 0.7802(2)
C9 C 0.5523(3) 0.96763(17) 0.6451(4)
F2 F 0.61993(17) 1.01762(11) 0.6428(2)
C10 C 0.5742(3) 0.9114(2) 0.5787(4)
F3 F 0.66236(18) 0.90582(12) 0.5105(2)
C11 C 0.5068(3) 0.86001(17) 0.5878(4)
F4 F 0.52917(18) 0.80355(11) 0.5287(2)
C12 C 0.4192(3) 0.86544(16) 0.6622(3)
F5 F 0.36011(16) 0.81192(10) 0.6734(2)
C13 C 0.1833(2) 0.89589(15) 0.6899(3)
C14 C 0.1468(3) 0.93468(16) 0.5774(3)
F6 F 0.19260(17) 0.99233(9) 0.5583(2)
C15 C 0.0637(3) 0.91827(17) 0.4791(3)
F7 F 0.03164(19) 0.95836(10) 0.3728(2)
C16 C 0.0152(3) 0.85965(18) 0.4874(4)
F8 F -0.06548(17) 0.84169(11) 0.3922(2)
C17 C 0.0514(3) 0.81835(16) 0.5923(4)
F9 F 0.00459(17) 0.75986(10) 0.5987(2)
C18 C 0.1324(3) 0.83685(16) 0.6904(3)
F10 F 0.16191(17) 0.79303(9) 0.7909(2)
C19 C 0.2915(2) 0.88245(17) 0.9566(3)
C20 C 0.2028(3) 0.87579(17) 1.0307(3)
F11 F 0.10414(15) 0.89233(10) 0.9693(2)
C21 C 0.2052(3) 0.85154(17) 1.1641(4)
F12 F 0.11489(18) 0.84710(11) 1.2267(2)
C22 C 0.3014(3) 0.83292(18) 1.2318(4)
F13 F 0.3070(2) 0.81111(12) 1.3635(2)
C23 C 0.3923(3) 0.83807(18) 1.1643(4)
F14 F 0.48762(18) 0.81988(12) 1.2288(2)
C24 C 0.3861(3) 0.86298(17) 1.0300(4)
F15 F 0.48080(15) 0.86705(11) 0.9742(2)
loop_
_geom_bond_atom_site_label_1
_geom_bond_atom_site_label_2
_geom_bond_site_symmetry_1
_geom_bond_site_symmetry_2
Te1 O1 1_555 1_555
S1 C3 1_555 1_555
O1 B1 1_555 1_555
B1 C7 1_555 1_555
C1 Te1 1_555 1_555
H1 C1 1_555 1_555
H2 C1 1_555 1_555
C2 C1 1_555 1_555
H3 C2 1_555 1_555
H4 C2 1_555 1_555
C3 C2 1_555 1_555
H5 C3 1_555 1_555
H6 C3 1_555 1_555
C4 S1 1_555 1_555
H7 C4 1_555 1_555
H8 C4 1_555 1_555
C5 C4 1_555 1_555
H9 C5 1_555 1_555
H10 C5 1_555 1_555
C6 Te1 1_555 1_555
H11 C6 1_555 1_555
H12 C6 1_555 1_555
C7 C8 1_555 1_555
C8 F1 1_555 1_555
C9 C8 1_555 1_555
F2 C9 1_555 1_555
C10 C9 1_555 1_555
F3 C10 1_555 1_555
C11 C10 1_555 1_555
F4 C11 1_555 1_555
C12 C7 1_555 1_555
F5 C12 1_555 1_555
C13 B1 1_555 1_555
C14 C13 1_555 1_555
F6 C14 1_555 1_555
C15 C14 1_555 1_555
F7 C15 1_555 1_555
C16 C15 1_555 1_555
F8 C16 1_555 1_555
C17 C16 1_555 1_555
F9 C17 1_555 1_555
C18 C13 1_555 1_555
F10 C18 1_555 1_555
C19 B1 1_555 1_555
C20 C19 1_555 1_555
F11 C20 1_555 1_555
C21 C20 1_555 1_555
F12 C21 1_555 1_555
C22 C21 1_555 1_555
F13 C22 1_555 1_555
C23 C22 1_555 1_555
F14 C23 1_555 1_555
C24 C19 1_555 1_555
F15 C24 1_555 1_555
C5 C6 1_555 1_555
C11 C12 1_555 1_555
C17 C18 1_555 1_555
C23 C24 1_555 1_555

#END
