
#######################################################################
#
#                 Cambridge Crystallographic Data Centre
#                                CCDC 
#
#######################################################################
#
# If this CIF has been generated from an entry in the Cambridge 
# Structural Database, then it will include bibliographic, chemical, 
# crystal, experimental, refinement or atomic coordinate data resulting 
# from the CCDC's data processing and validation procedures.
#
#######################################################################

data_GUYWII
_chemical_name_common            'bis(Ciprofloxacinium) fumarate trihydrate'
_chemical_formula_moiety         '2(C17 H19 F1 N3 O3 1+),C4 H2 O4 2-,3(H2 O1)'
_chemical_name_systematic        
'bis(4-(3-carboxy-1-cyclopropyl-6-fluoro-4-oxo-1,4-dihydroquinolin-7-yl)piperazin-1-ium) but-2-enedioate trihydrate'
_chemical_properties_biological  'Ciprofloxacin is an antibiotic drug'
_symmetry_cell_setting           monoclinic
_symmetry_space_group_name_H-M   'P 21/n'
_symmetry_Int_Tables_number      14
_space_group_name_Hall           '-P 2yn'
loop_
_symmetry_equiv_pos_site_id
_symmetry_equiv_pos_as_xyz
1 x,y,z
2 1/2-x,1/2+y,1/2-z
3 -x,-y,-z
4 1/2+x,1/2-y,1/2+z
_cell_length_a                   9.922(4)
_cell_length_b                   30.199(9)
_cell_length_c                   13.528(8)
_cell_angle_alpha                90
_cell_angle_beta                 109.717(13)
_cell_angle_gamma                90
_cell_volume                     3815.8
_exptl_crystal_colour            colorless
_exptl_crystal_description       Prism
_cell_formula_units_Z            4
loop_
_atom_site_label
_atom_site_type_symbol
_atom_site_fract_x
_atom_site_fract_y
_atom_site_fract_z
F1 F 0.06277(18) 0.03015(7) 0.76900(19)
N1 N 0.6455(2) 0.05550(7) 0.91567(17)
N2 N 0.1665(2) 0.11701(8) 0.80425(19)
N3 N -0.0309(2) 0.18566(8) 0.80108(19)
H1 H -0.019(4) 0.2019(12) 0.751(2)
H2 H -0.094(3) 0.1965(12) 0.827(3)
O1 O 0.9192(3) -0.05331(10) 0.9912(3)
O2 O 0.7381(3) -0.09969(8) 0.9308(2)
H3 H 0.641(5) -0.0973(16) 0.895(4)
O3 O 0.4852(2) -0.07065(6) 0.86188(17)
C1 C 0.7325(3) 0.02005(9) 0.9353(2)
H4 H 0.8308 0.0250 0.9599
C2 C 0.6853(3) -0.02282(9) 0.9212(2)
C3 C 0.5342(3) -0.03169(9) 0.87993(19)
C4 C 0.4423(3) 0.00647(9) 0.85890(19)
C5 C 0.2922(3) 0.00134(9) 0.8201(2)
H5 H 0.2522 -0.0268 0.8075
C6 C 0.2066(3) 0.03727(10) 0.8012(2)
C7 C 0.2572(3) 0.08122(9) 0.8169(2)
C8 C 0.4060(3) 0.08614(9) 0.8537(2)
H6 H 0.4453 0.1144 0.8634
C9 C 0.4968(3) 0.04942(8) 0.87611(19)
C10 C 0.7035(3) 0.10004(9) 0.9300(2)
H7 H 0.6934 0.1162 0.8651
C11 C 0.6918(3) 0.12754(10) 1.0181(3)
H8 H 0.6726 0.1589 1.0054
H9 H 0.6490 0.1141 1.0656
C12 C 0.8332(3) 0.11065(11) 1.0201(3)
H10 H 0.9002 0.1318 1.0088
H11 H 0.8767 0.0870 1.0690
C13 C 0.7912(4) -0.05929(11) 0.9503(3)
C14 C 0.0305(3) 0.12070(11) 0.7179(2)
H12 H -0.0012 0.0916 0.6894
H13 H 0.0429 0.1388 0.6624
C15 C -0.0805(3) 0.14129(10) 0.7568(2)
H14 H -0.1706 0.1440 0.6993
H15 H -0.0960 0.1226 0.8103
C16 C 0.1110(3) 0.18288(10) 0.8865(2)
H16 H 0.1011 0.1665 0.9454
H17 H 0.1443 0.2125 0.9107
C17 C 0.2196(3) 0.16009(10) 0.8477(2)
H18 H 0.2378 0.1782 0.7942
H19 H 0.3091 0.1566 0.9053
F2 F 0.93352(17) -0.06347(6) 0.73563(16)
N4 N 0.3545(2) -0.02830(7) 0.58599(17)
N5 N 0.7454(3) -0.13390(8) 0.6904(2)
N6 N 0.8751(3) -0.21502(9) 0.7765(2)
H20 H 0.935(3) -0.2291(11) 0.830(2)
H21 H 0.854(4) -0.2346(11) 0.725(2)
O4 O 0.2081(2) 0.10119(7) 0.56285(19)
O5 O 0.4272(3) 0.12816(7) 0.6044(2)
H22 H 0.513(7) 0.1198(19) 0.626(5)
O6 O 0.6403(2) 0.07508(7) 0.66058(18)
C18 C 0.3109(3) 0.01383(9) 0.5766(2)
H23 H 0.2129 0.0191 0.5510
C19 C 0.4005(3) 0.04985(9) 0.6019(2)
C20 C 0.5521(3) 0.04306(9) 0.63788(19)
C21 C 0.5996(3) -0.00223(9) 0.64732(19)
C22 C 0.7467(3) -0.01228(9) 0.6834(2)
H24 H 0.8139 0.0105 0.7002
C23 C 0.7904(3) -0.05487(10) 0.6937(2)
C24 C 0.6959(3) -0.09141(9) 0.6695(2)
C25 C 0.5492(3) -0.08135(9) 0.6317(2)
H25 H 0.4827 -0.1042 0.6126
C26 C 0.5019(3) -0.03771(9) 0.62223(19)
C27 C 0.2502(3) -0.06376(11) 0.5482(3)
H26 H 0.2445 -0.0764 0.4801
C28 C 0.2245(4) -0.09553(13) 0.6235(3)
H27 H 0.2766 -0.0912 0.6976
H28 H 0.2064 -0.1262 0.6018
C29 C 0.1133(3) -0.06182(12) 0.5683(3)
H29 H 0.0280 -0.0722 0.5135
H30 H 0.0981 -0.0372 0.6093
C30 C 0.3362(3) 0.09469(10) 0.5879(2)
C31 C 0.8649(3) -0.15152(10) 0.6607(3)
H31 H 0.9196 -0.1272 0.6464
H32 H 0.8276 -0.1692 0.5973
C32 C 0.9600(3) -0.17946(11) 0.7478(3)
H33 H 1.0343 -0.1928 0.7258
H34 H 1.0057 -0.1610 0.8086
C33 C 0.7485(3) -0.19724(11) 0.7989(3)
H35 H 0.7805 -0.1797 0.8626
H36 H 0.6918 -0.2216 0.8102
C34 C 0.6572(3) -0.16899(11) 0.7092(3)
H37 H 0.6182 -0.1869 0.6465
H38 H 0.5781 -0.1564 0.7266
O7 O 0.3596(3) 0.27285(14) 1.0048(2)
O8 O 0.5356(2) 0.26466(9) 1.15531(17)
O9 O 0.9484(2) 0.23494(9) 1.02436(17)
O10 O 0.7613(2) 0.22358(7) 0.88089(15)
C35 C 0.4855(3) 0.26345(11) 1.0572(2)
C36 C 0.5794(3) 0.24896(10) 0.9978(2)
H39 H 0.5355 0.2391 0.9293
C37 C 0.7206(3) 0.24908(10) 1.0354(2)
H40 H 0.7643 0.2587 1.1042
C38 C 0.8157(3) 0.23493(9) 0.9759(2)
O11 O 0.1701(4) 0.30257(19) 1.0970(5)
H41 H 0.208(7) 0.2988(19) 1.046(4)
H42 H 0.087(3) 0.2991(14) 1.046(3)
O13 O 0.4790(5) 0.19571(17) 0.7609(4)
H43 H 0.428(7) 0.1769(19) 0.705(4)
H44 H 0.579(3) 0.198(2) 0.801(5)
O14 O 1.304(3) -0.1979(4) 0.7053(7)
H45 H 1.254(14) -0.207(6) 0.640(3)
H46 H 1.327(6) -0.2268(13) 0.718(14)
O12? O 0.148(2) 0.3217(8) 1.0450(19)
O15? O 1.249(3) -0.2095(9) 0.7047(12)
loop_
_geom_bond_atom_site_label_1
_geom_bond_atom_site_label_2
_geom_bond_site_symmetry_1
_geom_bond_site_symmetry_2
F1 C6 1_555 1_555
N1 C1 1_555 1_555
N2 C7 1_555 1_555
N3 H1 1_555 1_555
H2 N3 1_555 1_555
O1 C13 1_555 1_555
O2 H3 1_555 1_555
O3 C3 1_555 1_555
C1 H4 1_555 1_555
C2 C1 1_555 1_555
C3 C2 1_555 1_555
C4 C3 1_555 1_555
C5 C4 1_555 1_555
H5 C5 1_555 1_555
C6 C5 1_555 1_555
C7 C6 1_555 1_555
C8 C7 1_555 1_555
H6 C8 1_555 1_555
C9 N1 1_555 1_555
C10 N1 1_555 1_555
H7 C10 1_555 1_555
C11 C10 1_555 1_555
H8 C11 1_555 1_555
H9 C11 1_555 1_555
C12 C10 1_555 1_555
H10 C12 1_555 1_555
H11 C12 1_555 1_555
C13 O2 1_555 1_555
C14 N2 1_555 1_555
H12 C14 1_555 1_555
H13 C14 1_555 1_555
C15 N3 1_555 1_555
H14 C15 1_555 1_555
H15 C15 1_555 1_555
C16 N3 1_555 1_555
H16 C16 1_555 1_555
H17 C16 1_555 1_555
C17 N2 1_555 1_555
H18 C17 1_555 1_555
H19 C17 1_555 1_555
F2 C23 1_555 1_555
N4 C18 1_555 1_555
N5 C24 1_555 1_555
N6 H20 1_555 1_555
H21 N6 1_555 1_555
O4 C30 1_555 1_555
O5 H22 1_555 1_555
O6 C20 1_555 1_555
C18 H23 1_555 1_555
C19 C18 1_555 1_555
C20 C19 1_555 1_555
C21 C20 1_555 1_555
C22 C21 1_555 1_555
H24 C22 1_555 1_555
C23 C22 1_555 1_555
C24 C23 1_555 1_555
C25 C24 1_555 1_555
H25 C25 1_555 1_555
C26 N4 1_555 1_555
C27 N4 1_555 1_555
H26 C27 1_555 1_555
C28 C27 1_555 1_555
H27 C28 1_555 1_555
H28 C28 1_555 1_555
C29 C27 1_555 1_555
H29 C29 1_555 1_555
H30 C29 1_555 1_555
C30 O5 1_555 1_555
C31 N5 1_555 1_555
H31 C31 1_555 1_555
H32 C31 1_555 1_555
C32 N6 1_555 1_555
H33 C32 1_555 1_555
H34 C32 1_555 1_555
C33 N6 1_555 1_555
H35 C33 1_555 1_555
H36 C33 1_555 1_555
C34 N5 1_555 1_555
H37 C34 1_555 1_555
H38 C34 1_555 1_555
O7 C35 1_555 1_555
O8 C35 1_555 1_555
O9 C38 1_555 1_555
O10 C38 1_555 1_555
C35 C36 1_555 1_555
C36 H39 1_555 1_555
C37 C36 1_555 1_555
H40 C37 1_555 1_555
C38 C37 1_555 1_555
O11 H41 1_555 1_555
H42 O11 1_555 1_555
O13 H43 1_555 1_555
H44 O13 1_555 1_555
O14 H45 1_555 1_555
H46 O14 1_555 1_555
C2 C13 1_555 1_555
C4 C9 1_555 1_555
C8 C9 1_555 1_555
C11 C12 1_555 1_555
C14 C15 1_555 1_555
C16 C17 1_555 1_555
C19 C30 1_555 1_555
C21 C26 1_555 1_555
C25 C26 1_555 1_555
C28 C29 1_555 1_555
C31 C32 1_555 1_555
C33 C34 1_555 1_555

#END
