
#######################################################################
#
#                 Cambridge Crystallographic Data Centre
#                                CCDC 
#
#######################################################################
#
# If this CIF has been generated from an entry in the Cambridge 
# Structural Database, then it will include bibliographic, chemical, 
# crystal, experimental, refinement or atomic coordinate data resulting 
# from the CCDC's data processing and validation procedures.
#
#######################################################################

data_GUZCUB
_chemical_formula_moiety         'C30 H20 F2'
_chemical_name_systematic        1,4-difluoro-2,3,5,6-tetrakis(phenyl)benzene
_symmetry_cell_setting           monoclinic
_symmetry_space_group_name_H-M   'P 21/c'
_symmetry_Int_Tables_number      14
_space_group_name_Hall           '-P 2ybc'
loop_
_symmetry_equiv_pos_site_id
_symmetry_equiv_pos_as_xyz
1 x,y,z
2 -x,1/2+y,1/2-z
3 -x,-y,-z
4 x,1/2-y,1/2+z
_cell_length_a                   5.8369(2)
_cell_length_b                   11.9737(3)
_cell_length_c                   15.1974(5)
_cell_angle_alpha                90
_cell_angle_beta                 94.1030(10)
_cell_angle_gamma                90
_cell_volume                     1059.41
_exptl_crystal_colour            colorless
_exptl_crystal_description       block
_cell_formula_units_Z            2
loop_
_atom_site_label
_atom_site_type_symbol
_atom_site_fract_x
_atom_site_fract_y
_atom_site_fract_z
F1 F 0.25090(11) 0.42314(5) 0.14309(4)
C1 C 0.12851(16) 0.46180(7) 0.06989(6)
C2 C 0.16681(16) 0.57207(7) 0.04462(6)
C3 C 0.02975(16) 0.61133(7) -0.02890(6)
C4 C 0.34344(16) 0.64094(8) 0.09524(6)
C5 C 0.55970(17) 0.59562(8) 0.11892(6)
H1 H 0.5950 0.5224 0.1000
C6 C 0.72374(18) 0.65601(9) 0.16962(7)
H2 H 0.8696 0.6238 0.1855
C7 C 0.67503(19) 0.76327(10) 0.19711(7)
H3 H 0.7869 0.8045 0.2321
C8 C 0.4621(2) 0.81009(9) 0.17333(7)
H4 H 0.4289 0.8839 0.1915
C9 C 0.29660(18) 0.74956(8) 0.12293(6)
H5 H 0.1510 0.7822 0.1072
C10 C 0.04749(17) 0.72700(7) -0.06496(6)
C11 C 0.23338(19) 0.75785(9) -0.11200(7)
H6 H 0.3518 0.7055 -0.1209
C12 C 0.2458(2) 0.86585(10) -0.14606(8)
H7 H 0.3717 0.8866 -0.1788
C13 C 0.0753(2) 0.94251(9) -0.13218(8)
H8 H 0.0856 1.0163 -0.1546
C14 C -0.1104(2) 0.91230(9) -0.08571(8)
H9 H -0.2273 0.9653 -0.0764
C15 C -0.12610(19) 0.80431(8) -0.05252(7)
H10 H -0.2549 0.7833 -0.0214
F1B F -0.25090(11) 0.57686(5) -0.14309(4)
C1B C -0.12851(16) 0.53820(7) -0.06989(6)
C2B C -0.16681(16) 0.42793(7) -0.04462(6)
C3B C -0.02975(16) 0.38867(7) 0.02890(6)
C4B C -0.34344(16) 0.35906(8) -0.09524(6)
C5B C -0.55970(17) 0.40438(8) -0.11892(6)
H1B H -0.5950 0.4776 -0.1000
C6B C -0.72374(18) 0.34399(9) -0.16962(7)
H2B H -0.8696 0.3762 -0.1855
C7B C -0.67503(19) 0.23673(10) -0.19711(7)
H3B H -0.7869 0.1955 -0.2321
C8B C -0.4621(2) 0.18991(9) -0.17333(7)
H4B H -0.4289 0.1161 -0.1915
C9B C -0.29660(18) 0.25044(8) -0.12293(6)
H5B H -0.1510 0.2178 -0.1072
C10B C -0.04749(17) 0.27300(7) 0.06496(6)
C11B C -0.23338(19) 0.24215(9) 0.11200(7)
H6B H -0.3518 0.2945 0.1209
C12B C -0.2458(2) 0.13415(10) 0.14606(8)
H7B H -0.3717 0.1134 0.1788
C13B C -0.0753(2) 0.05749(9) 0.13218(8)
H8B H -0.0856 -0.0163 0.1546
C14B C 0.1104(2) 0.08770(9) 0.08571(8)
H9B H 0.2273 0.0347 0.0764
C15B C 0.12610(19) 0.19569(8) 0.05252(7)
H10B H 0.2549 0.2167 0.0214
loop_
_geom_bond_atom_site_label_1
_geom_bond_atom_site_label_2
_geom_bond_site_symmetry_1
_geom_bond_site_symmetry_2
F1 C1 1_555 1_555
C1 C2 1_555 1_555
C2 C3 1_555 1_555
C3 C10 1_555 1_555
C4 C2 1_555 1_555
C5 C4 1_555 1_555
H1 C5 1_555 1_555
C6 C5 1_555 1_555
H2 C6 1_555 1_555
C7 C6 1_555 1_555
H3 C7 1_555 1_555
C8 C7 1_555 1_555
H4 C8 1_555 1_555
C9 C4 1_555 1_555
H5 C9 1_555 1_555
C10 C11 1_555 1_555
C11 H6 1_555 1_555
C12 C11 1_555 1_555
H7 C12 1_555 1_555
C13 C12 1_555 1_555
H8 C13 1_555 1_555
C14 C13 1_555 1_555
H9 C14 1_555 1_555
C15 C10 1_555 1_555
H10 C15 1_555 1_555
F1B C1B 1_555 1_555
C1B C3 1_555 1_555
C2B C1B 1_555 1_555
C3B C1 1_555 1_555
C4B C2B 1_555 1_555
C5B C4B 1_555 1_555
H1B C5B 1_555 1_555
C6B C5B 1_555 1_555
H2B C6B 1_555 1_555
C7B C6B 1_555 1_555
H3B C7B 1_555 1_555
C8B C7B 1_555 1_555
H4B C8B 1_555 1_555
C9B C4B 1_555 1_555
H5B C9B 1_555 1_555
C10B C3B 1_555 1_555
C11B C10B 1_555 1_555
H6B C11B 1_555 1_555
C12B C11B 1_555 1_555
H7B C12B 1_555 1_555
C13B C12B 1_555 1_555
H8B C13B 1_555 1_555
C14B C13B 1_555 1_555
H9B C14B 1_555 1_555
C15B C10B 1_555 1_555
H10B C15B 1_555 1_555
C8 C9 1_555 1_555
C14 C15 1_555 1_555
C2B C3B 1_555 1_555
C8B C9B 1_555 1_555
C14B C15B 1_555 1_555

#END
