
#######################################################################
#
#                 Cambridge Crystallographic Data Centre
#                                CCDC 
#
#######################################################################
#
# If this CIF has been generated from an entry in the Cambridge 
# Structural Database, then it will include bibliographic, chemical, 
# crystal, experimental, refinement or atomic coordinate data resulting 
# from the CCDC's data processing and validation procedures.
#
#######################################################################

data_GUZDUB
_chemical_formula_moiety         'C12 H16 B1 N2 1+,C1 F3 O3 S1 1-'
_chemical_name_systematic        
'1-(1-Ethyl-1,2-azaborinin-2(1H)-yl)-4-methylpyridinium trifluoromethanesulfonate'
_symmetry_cell_setting           orthorhombic
_symmetry_space_group_name_H-M   'P b c a'
_symmetry_Int_Tables_number      61
_space_group_name_Hall           '-P 2ac 2ab'
loop_
_symmetry_equiv_pos_site_id
_symmetry_equiv_pos_as_xyz
1 x,y,z
2 1/2-x,-y,1/2+z
3 -x,1/2+y,1/2-z
4 1/2+x,1/2-y,-z
5 -x,-y,-z
6 1/2+x,y,1/2-z
7 x,1/2-y,1/2+z
8 1/2-x,1/2+y,z
_cell_length_a                   13.9209(8)
_cell_length_b                   13.1486(8)
_cell_length_c                   17.8275(11)
_cell_angle_alpha                90
_cell_angle_beta                 90
_cell_angle_gamma                90
_cell_volume                     3263.15
_exptl_crystal_colour            colorless
_exptl_crystal_description       block
_cell_formula_units_Z            8
loop_
_atom_site_label
_atom_site_type_symbol
_atom_site_fract_x
_atom_site_fract_y
_atom_site_fract_z
S1 S 0.24208(5) 0.76123(5) 0.18202(4)
O1 O 0.25161(14) 0.76601(15) 0.26208(10)
O2 O 0.18993(14) 0.67620(14) 0.15389(11)
O3 O 0.32837(13) 0.78686(14) 0.14191(11)
F1 F 0.14558(12) 0.87475(12) 0.08730(9)
F2 F 0.19863(13) 0.95617(12) 0.18307(11)
F3 F 0.07716(11) 0.85656(12) 0.19391(9)
C13 C 0.16251(19) 0.8672(2) 0.16087(15)
N1 N 0.07444(14) 0.09394(15) 0.43389(11)
N2 N 0.01242(14) 0.04676(15) 0.30426(11)
B1 B 0.0679(2) 0.0211(2) 0.37563(17)
C1 C 0.12294(19) 0.0690(2) 0.49828(16)
C2 C 0.1639(2) -0.0235(2) 0.50911(16)
C3 C 0.15979(19) -0.0986(2) 0.45272(16)
C4 C 0.11367(19) -0.0803(2) 0.38636(16)
C5 C 0.02908(19) 0.1962(2) 0.43377(18)
C6 C 0.1009(2) 0.2817(2) 0.4298(2)
C7 C -0.06348(19) -0.0115(2) 0.28423(15)
C8 C -0.11304(19) 0.0056(2) 0.21906(15)
C9 C -0.08675(18) 0.0849(2) 0.17186(14)
C10 C -0.0074(2) 0.1432(2) 0.19268(15)
C11 C 0.0401(2) 0.1230(2) 0.25818(15)
C12 C -0.1414(3) 0.1076(3) 0.1016(2)
H1 H 0.1266(17) 0.1195(18) 0.5350(14)
H2 H 0.1891(17) -0.1652(18) 0.4622(13)
H3 H 0.1101(18) -0.1310(19) 0.3504(14)
H4 H 0.1955(18) -0.0372(19) 0.5552(15)
H5 H -0.0093(18) 0.2011(18) 0.4796(14)
H6 H -0.0161(18) 0.1989(17) 0.3922(14)
H7 H 0.067(2) 0.350(2) 0.4291(15)
H8 H 0.142(2) 0.277(2) 0.3859(16)
H9 H 0.145(2) 0.280(2) 0.4739(16)
H10 H -0.0791(18) -0.068(2) 0.3169(14)
H11 H -0.1663(19) -0.0362(19) 0.2059(14)
H12 H 0.0175(18) 0.1972(19) 0.1634(14)
H13 H 0.0957(18) 0.1610(18) 0.2740(13)
H14 H -0.099(3) 0.133(3) 0.062(2)
H15 H -0.188(3) 0.160(3) 0.112(2)
H16 H -0.166(3) 0.056(3) 0.085(2)
loop_
_geom_bond_atom_site_label_1
_geom_bond_atom_site_label_2
_geom_bond_site_symmetry_1
_geom_bond_site_symmetry_2
S1 O1 1_555 1_555
O2 S1 1_555 1_555
O3 S1 1_555 1_555
F1 C13 1_555 1_555
F2 C13 1_555 1_555
F3 C13 1_555 1_555
N1 B1 1_555 1_555
N2 B1 1_555 1_555
B1 C4 1_555 1_555
C1 N1 1_555 1_555
C2 C1 1_555 1_555
C3 C2 1_555 1_555
C4 C3 1_555 1_555
C5 N1 1_555 1_555
C6 C5 1_555 1_555
C7 N2 1_555 1_555
C8 C7 1_555 1_555
C9 C8 1_555 1_555
C10 C9 1_555 1_555
C11 N2 1_555 1_555
C12 C9 1_555 1_555
C13 S1 1_555 1_555
H1 C1 1_555 1_555
H2 C3 1_555 1_555
H3 C4 1_555 1_555
H4 C2 1_555 1_555
H5 C5 1_555 1_555
H6 C5 1_555 1_555
H7 C6 1_555 1_555
H8 C6 1_555 1_555
H9 C6 1_555 1_555
H10 C7 1_555 1_555
H11 C8 1_555 1_555
H12 C10 1_555 1_555
H13 C11 1_555 1_555
H14 C12 1_555 1_555
H15 C12 1_555 1_555
H16 C12 1_555 1_555
C10 C11 1_555 1_555

#END
