
#######################################################################
#
#                 Cambridge Crystallographic Data Centre
#                                CCDC 
#
#######################################################################
#
# If this CIF has been generated from an entry in the Cambridge 
# Structural Database, then it will include bibliographic, chemical, 
# crystal, experimental, refinement or atomic coordinate data resulting 
# from the CCDC's data processing and validation procedures.
#
#######################################################################

data_GUZDAI
_chemical_formula_moiety         'C41 H35 F1'
_chemical_name_systematic        
'1-fluoro-2,3,4,5,6-pentakis(4-methylphenyl)benzene unknown solvate'
_symmetry_cell_setting           triclinic
_symmetry_space_group_name_H-M   'P -1'
_symmetry_Int_Tables_number      2
_space_group_name_Hall           '-P 1'
loop_
_symmetry_equiv_pos_site_id
_symmetry_equiv_pos_as_xyz
1 x,y,z
2 -x,-y,-z
_cell_length_a                   10.9740(5)
_cell_length_b                   12.4164(7)
_cell_length_c                   13.7056(7)
_cell_angle_alpha                91.081(4)
_cell_angle_beta                 104.892(4)
_cell_angle_gamma                105.281(4)
_cell_volume                     1733.43
_exptl_crystal_colour            colorless
_exptl_crystal_description       prism
_cell_formula_units_Z            2
loop_
_atom_site_label
_atom_site_type_symbol
_atom_site_fract_x
_atom_site_fract_y
_atom_site_fract_z
C1 C 0.4661(2) 0.23707(17) 0.45686(16)
C2 C 0.4264(2) 0.16457(17) 0.52534(16)
C3 C 0.5036(2) 0.18657(17) 0.62667(16)
C4 C 0.6116(2) 0.28250(17) 0.65549(16)
C5 C 0.6451(2) 0.35551(17) 0.58354(16)
C6 C 0.5738(2) 0.33129(16) 0.48125(16)
C7 C 0.3079(2) 0.06573(17) 0.48932(16)
C8 C 0.1877(2) 0.08053(19) 0.43912(18)
H1 H 0.1806 0.1540 0.4267
C9 C 0.0778(2) -0.01020(19) 0.40670(19)
H2 H -0.0040 0.0019 0.3728
C10 C 0.0849(2) -0.11868(18) 0.42292(18)
C11 C 0.2053(2) -0.13316(18) 0.47199(18)
H3 H 0.2125 -0.2068 0.4831
C12 C 0.3157(2) -0.04306(17) 0.50529(17)
H4 H 0.3974 -0.0553 0.5392
C13 C -0.0365(3) -0.2176(2) 0.3896(2)
H5 H -0.0616 -0.2322 0.3156
H6 H -0.1086 -0.2007 0.4109
H7 H -0.0179 -0.2840 0.4206
C14 C 0.4717(2) 0.10718(17) 0.70327(16)
C15 C 0.3597(2) 0.09617(19) 0.73533(18)
H8 H 0.3022 0.1404 0.7091
C16 C 0.3304(3) 0.0212(2) 0.80552(19)
H9 H 0.2538 0.0158 0.8274
C17 C 0.4107(3) -0.0454(2) 0.84400(18)
C18 C 0.5210(3) -0.0351(2) 0.81076(19)
H10 H 0.5770 -0.0810 0.8357
C19 C 0.5527(3) 0.04025(19) 0.74199(18)
H11 H 0.6302 0.0462 0.7212
C20 C 0.3783(3) -0.1266(2) 0.9208(2)
H12 H 0.3395 -0.0933 0.9664
H13 H 0.4587 -0.1423 0.9604
H14 H 0.3157 -0.1966 0.8855
C21 C 0.6935(2) 0.30635(17) 0.76366(16)
C22 C 0.6484(3) 0.3455(2) 0.83812(18)
H15 H 0.5634 0.3569 0.8213
C23 C 0.7259(3) 0.3684(2) 0.93788(19)
H16 H 0.6933 0.3960 0.9882
C24 C 0.8493(3) 0.3520(2) 0.96523(18)
C25 C 0.8937(3) 0.3124(2) 0.8903(2)
H17 H 0.9781 0.3001 0.9073
C26 C 0.8171(3) 0.2901(2) 0.79034(19)
H18 H 0.8501 0.2635 0.7399
C27 C 0.9334(3) 0.3762(3) 1.0741(2)
H19 H 0.9293 0.3056 1.1057
H20 H 0.9007 0.4251 1.1117
H21 H 1.0245 0.4134 1.0754
C28 C 0.7566(2) 0.46048(17) 0.61610(15)
C29 C 0.7422(2) 0.55069(18) 0.66844(16)
H22 H 0.6633 0.5445 0.6872
C30 C 0.8424(2) 0.65017(18) 0.69364(17)
H23 H 0.8303 0.7117 0.7285
C31 C 0.9602(2) 0.66166(17) 0.66898(16)
C32 C 0.9753(2) 0.56927(19) 0.61960(18)
H24 H 1.0559 0.5737 0.6041
C33 C 0.8743(2) 0.47092(18) 0.59268(17)
H25 H 0.8861 0.4094 0.5575
C34 C 1.0682(2) 0.77033(19) 0.69506(19)
H26 H 1.0702 0.8094 0.6338
H27 H 1.1527 0.7546 0.7228
H28 H 1.0519 0.8177 0.7455
C35 C 0.6086(2) 0.40106(17) 0.39953(16)
C36 C 0.6193(2) 0.51552(17) 0.40472(16)
H29 H 0.6052 0.5507 0.4614
C37 C 0.6505(2) 0.57811(18) 0.32750(17)
H30 H 0.6578 0.6561 0.3324
C38 C 0.6712(2) 0.5302(2) 0.24345(18)
C39 C 0.6608(3) 0.4162(2) 0.23940(18)
H31 H 0.6758 0.3814 0.1830
C40 C 0.6293(2) 0.35230(19) 0.31511(17)
H32 H 0.6217 0.2743 0.3097
C41 C 0.7043(3) 0.5990(2) 0.1592(2)
H33 H 0.7937 0.6019 0.1570
H34 H 0.6985 0.6752 0.1717
H35 H 0.6422 0.5644 0.0943
F1 F 0.39490(13) 0.21368(10) 0.35793(9)
C42? C 0.0628(9) 0.0364(9) -0.0089(9)
C43? C 0.1287(12) 0.1325(9) 0.0717(8)
C44? C 0.2283(12) 0.1882(10) 0.0186(9)
C45? C 0.3077(15) 0.2869(11) 0.0948(11)
C46? C 0.1384(13) 0.1072(11) 0.0377(9)
C47? C 0.0581(16) 0.0737(14) -0.0603(8)
C48? C -0.0511(16) -0.0190(16) -0.0783(10)
C49? C -0.0801(15) -0.0781(14) 0.0018(13)
C50? C 0.0002(16) -0.0446(12) 0.0999(11)
C51? C 0.1094(14) 0.0481(12) 0.1178(8)
C52? C 0.2415(17) 0.2182(12) 0.0594(14)
loop_
_geom_bond_atom_site_label_1
_geom_bond_atom_site_label_2
_geom_bond_site_symmetry_1
_geom_bond_site_symmetry_2
C1 C2 1_555 1_555
C2 C3 1_555 1_555
C3 C4 1_555 1_555
C4 C5 1_555 1_555
C5 C6 1_555 1_555
C6 C1 1_555 1_555
C7 C2 1_555 1_555
C8 C7 1_555 1_555
H1 C8 1_555 1_555
C9 C8 1_555 1_555
H2 C9 1_555 1_555
C10 C9 1_555 1_555
C11 C10 1_555 1_555
H3 C11 1_555 1_555
C12 C7 1_555 1_555
H4 C12 1_555 1_555
C13 C10 1_555 1_555
H5 C13 1_555 1_555
H6 C13 1_555 1_555
H7 C13 1_555 1_555
C14 C3 1_555 1_555
C15 C14 1_555 1_555
H8 C15 1_555 1_555
C16 C15 1_555 1_555
H9 C16 1_555 1_555
C17 C16 1_555 1_555
C18 C17 1_555 1_555
H10 C18 1_555 1_555
C19 C14 1_555 1_555
H11 C19 1_555 1_555
C20 C17 1_555 1_555
H12 C20 1_555 1_555
H13 C20 1_555 1_555
H14 C20 1_555 1_555
C21 C4 1_555 1_555
C22 C21 1_555 1_555
H15 C22 1_555 1_555
C23 C22 1_555 1_555
H16 C23 1_555 1_555
C24 C23 1_555 1_555
C25 C24 1_555 1_555
H17 C25 1_555 1_555
C26 C21 1_555 1_555
H18 C26 1_555 1_555
C27 C24 1_555 1_555
H19 C27 1_555 1_555
H20 C27 1_555 1_555
H21 C27 1_555 1_555
C28 C5 1_555 1_555
C29 C28 1_555 1_555
H22 C29 1_555 1_555
C30 C29 1_555 1_555
H23 C30 1_555 1_555
C31 C30 1_555 1_555
C32 C31 1_555 1_555
H24 C32 1_555 1_555
C33 C28 1_555 1_555
H25 C33 1_555 1_555
C34 C31 1_555 1_555
H26 C34 1_555 1_555
H27 C34 1_555 1_555
H28 C34 1_555 1_555
C35 C6 1_555 1_555
C36 C35 1_555 1_555
H29 C36 1_555 1_555
C37 C36 1_555 1_555
H30 C37 1_555 1_555
C38 C37 1_555 1_555
C39 C38 1_555 1_555
H31 C39 1_555 1_555
C40 C35 1_555 1_555
H32 C40 1_555 1_555
C41 C38 1_555 1_555
H33 C41 1_555 1_555
H34 C41 1_555 1_555
H35 C41 1_555 1_555
F1 C1 1_555 1_555
C11 C12 1_555 1_555
C18 C19 1_555 1_555
C25 C26 1_555 1_555
C32 C33 1_555 1_555
C39 C40 1_555 1_555

#END
