
#######################################################################
#
#                 Cambridge Crystallographic Data Centre
#                                CCDC 
#
#######################################################################
#
# If this CIF has been generated from an entry in the Cambridge 
# Structural Database, then it will include bibliographic, chemical, 
# crystal, experimental, refinement or atomic coordinate data resulting 
# from the CCDC's data processing and validation procedures.
#
#######################################################################

data_GUZFEN
_chemical_formula_moiety         'C12 H13 B1 F3 N2 1+,C1 F3 O3 S1 1-'
_chemical_name_systematic        
'1-(1-Ethyl-1,2-azaborinin-2(1H)-yl)-4-(trifluoromethyl)pyridinium trifluoromethanesulfonate'
_symmetry_cell_setting           monoclinic
_symmetry_space_group_name_H-M   'P 21/c'
_symmetry_Int_Tables_number      14
_space_group_name_Hall           '-P 2ybc'
loop_
_symmetry_equiv_pos_site_id
_symmetry_equiv_pos_as_xyz
1 x,y,z
2 -x,1/2+y,1/2-z
3 -x,-y,-z
4 x,1/2-y,1/2+z
_cell_length_a                   7.206(2)
_cell_length_b                   16.671(5)
_cell_length_c                   13.755(4)
_cell_angle_alpha                90
_cell_angle_beta                 96.233(5)
_cell_angle_gamma                90
_cell_volume                     1642.64
_exptl_crystal_colour            colorless
_exptl_crystal_description       needle
_cell_formula_units_Z            4
loop_
_atom_site_label
_atom_site_type_symbol
_atom_site_fract_x
_atom_site_fract_y
_atom_site_fract_z
S1 S 0.19055(12) 0.72727(5) 0.23714(6)
O1 O 0.2701(4) 0.64930(16) 0.2297(2)
O2 O 0.2268(4) 0.78270(17) 0.16153(19)
O3 O 0.0033(3) 0.72879(17) 0.26434(19)
F4 F 0.2723(4) 0.84262(16) 0.3635(2)
F5 F 0.5074(3) 0.77143(15) 0.33389(18)
F6 F 0.3078(3) 0.72458(16) 0.42388(15)
C13 C 0.3248(5) 0.7684(2) 0.3435(3)
N1 N 0.2125(4) 0.43805(17) 0.41472(19)
N2 N 0.2408(4) 0.29262(16) 0.46891(19)
B1 B 0.2431(5) 0.3822(2) 0.4925(3)
F1 F 0.0765(4) 0.01868(16) 0.3705(2)
F2 F 0.2550(5) 0.00011(14) 0.49814(18)
F3 F 0.3679(4) 0.01788(15) 0.3652(2)
C1 C 0.2179(5) 0.5181(2) 0.4362(3)
C2 C 0.2473(5) 0.5451(2) 0.5297(3)
C3 C 0.2736(5) 0.4921(2) 0.6092(3)
C4 C 0.2714(5) 0.4112(2) 0.5949(3)
C5 C 0.1597(5) 0.4171(2) 0.3106(3)
C6 C 0.3116(6) 0.4371(3) 0.2468(3)
C7 C 0.3653(5) 0.2593(2) 0.4144(2)
C8 C 0.3695(5) 0.1787(2) 0.3968(3)
C9 C 0.2399(5) 0.1308(2) 0.4352(2)
C10 C 0.1137(5) 0.1642(2) 0.4913(3)
C11 C 0.1165(5) 0.2453(2) 0.5080(3)
C12 C 0.2368(5) 0.0423(2) 0.4166(3)
H1 H 0.195(4) 0.554(2) 0.381(3)
H2 H 0.251(5) 0.598(2) 0.541(3)
H3 H 0.295(5) 0.516(2) 0.674(3)
H4 H 0.293(5) 0.378(2) 0.649(3)
H5 H 0.048(5) 0.446(2) 0.288(2)
H6 H 0.131(4) 0.360(2) 0.306(2)
H7 H 0.272(5) 0.423(2) 0.182(3)
H8 H 0.424(5) 0.409(2) 0.272(3)
H9 H 0.348(5) 0.494(2) 0.247(3)
H10 H 0.443(5) 0.291(2) 0.392(2)
H11 H 0.455(6) 0.156(3) 0.361(3)
H12 H 0.030(5) 0.135(2) 0.517(2)
H13 H 0.040(5) 0.271(2) 0.548(2)
loop_
_geom_bond_atom_site_label_1
_geom_bond_atom_site_label_2
_geom_bond_site_symmetry_1
_geom_bond_site_symmetry_2
S1 O1 1_555 1_555
O2 S1 1_555 1_555
O3 S1 1_555 1_555
N1 B1 1_555 1_555
N2 B1 1_555 1_555
B1 C4 1_555 1_555
F1 C12 1_555 1_555
F2 C12 1_555 1_555
F3 C12 1_555 1_555
F4 C13 1_555 1_555
F5 C13 1_555 1_555
F6 C13 1_555 1_555
C1 N1 1_555 1_555
C2 C1 1_555 1_555
C3 C2 1_555 1_555
C4 C3 1_555 1_555
C5 N1 1_555 1_555
C6 C5 1_555 1_555
C7 N2 1_555 1_555
C8 C7 1_555 1_555
C9 C8 1_555 1_555
C10 C9 1_555 1_555
C11 N2 1_555 1_555
C12 C9 1_555 1_555
C13 S1 1_555 1_555
H1 C1 1_555 1_555
H2 C2 1_555 1_555
H3 C3 1_555 1_555
H4 C4 1_555 1_555
H5 C5 1_555 1_555
H6 C5 1_555 1_555
H7 C6 1_555 1_555
H8 C6 1_555 1_555
H9 C6 1_555 1_555
H10 C7 1_555 1_555
H11 C8 1_555 1_555
H12 C10 1_555 1_555
H13 C11 1_555 1_555
C10 C11 1_555 1_555

#END
