
#######################################################################
#
#                 Cambridge Crystallographic Data Centre
#                                CCDC 
#
#######################################################################
#
# If this CIF has been generated from an entry in the Cambridge 
# Structural Database, then it will include bibliographic, chemical, 
# crystal, experimental, refinement or atomic coordinate data resulting 
# from the CCDC's data processing and validation procedures.
#
#######################################################################

data_GUZFAJ
_chemical_formula_moiety         'C13 H19 B1 N3 1+,C1 F3 O3 S1 1-'
_chemical_name_systematic        
'1-(1-Ethyl-1,2-azaborinin-2(1H)-yl)-4-(dimethylamino)pyridinium trifluoromethanesulfonate'
_symmetry_cell_setting           triclinic
_symmetry_space_group_name_H-M   'P -1'
_symmetry_Int_Tables_number      2
_space_group_name_Hall           '-P 1'
loop_
_symmetry_equiv_pos_site_id
_symmetry_equiv_pos_as_xyz
1 x,y,z
2 -x,-y,-z
_cell_length_a                   8.9833(17)
_cell_length_b                   9.9383(19)
_cell_length_c                   10.988(2)
_cell_angle_alpha                69.556(3)
_cell_angle_beta                 73.803(3)
_cell_angle_gamma                73.958(3)
_cell_volume                     865.097
_exptl_crystal_colour            colorless
_exptl_crystal_description       block
_cell_formula_units_Z            2
loop_
_atom_site_label
_atom_site_type_symbol
_atom_site_fract_x
_atom_site_fract_y
_atom_site_fract_z
S1 S 0.75658(11) 0.64458(10) 0.21818(9)
O1 O 0.8599(3) 0.5620(3) 0.3098(3)
O2 O 0.6914(3) 0.5580(3) 0.1738(3)
O3 O 0.6481(3) 0.7694(3) 0.2509(3)
F1 F 1.0029(3) 0.6290(3) 0.0235(3)
F2 F 0.8135(3) 0.8087(3) -0.0286(2)
F3 F 0.9622(3) 0.8168(3) 0.0885(3)
C14 C 0.8902(5) 0.7286(4) 0.0687(4)
B1 B 0.5541(5) 0.2471(5) 0.2895(4)
N1 N 0.5143(3) 0.2870(3) 0.1632(3)
N2 N 0.7182(3) 0.1555(3) 0.3066(3)
N3 N 1.1666(4) -0.0971(3) 0.3380(3)
C1 C 0.3649(5) 0.3621(4) 0.1477(5)
C2 C 0.2535(5) 0.3998(4) 0.2493(5)
C3 C 0.2867(5) 0.3664(4) 0.3739(5)
C4 C 0.4323(5) 0.2902(5) 0.4000(4)
C5 C 0.6270(5) 0.2574(5) 0.0442(4)
C6 C 0.6032(6) 0.1294(5) 0.0132(5)
C7 C 0.7497(5) 0.0094(4) 0.3227(4)
C8 C 0.8934(5) -0.0781(4) 0.3371(4)
C9 C 1.0201(4) -0.0170(4) 0.3324(3)
C10 C 0.9833(4) 0.1342(4) 0.3205(4)
C11 C 0.8358(4) 0.2150(4) 0.3079(4)
C12 C 1.2005(6) -0.2552(5) 0.3577(6)
C13 C 1.2946(5) -0.0297(5) 0.3309(5)
H1 H 0.344(5) 0.382(5) 0.061(5)
H2 H 0.166(6) 0.449(5) 0.237(4)
H3 H 0.206(5) 0.389(5) 0.448(4)
H4 H 0.453(5) 0.269(5) 0.485(4)
H5 H 0.732(6) 0.234(5) 0.056(4)
H6 H 0.612(5) 0.335(5) -0.024(4)
H7 H 0.604(6) 0.044(6) 0.081(5)
H8 H 0.684(5) 0.105(5) -0.064(5)
H9 H 0.501(6) 0.154(6) -0.019(5)
H10 H 0.672(5) -0.027(4) 0.320(4)
H11 H 0.907(4) -0.175(4) 0.345(4)
H12 H 1.060(4) 0.179(4) 0.328(4)
H13 H 0.811(4) 0.332(4) 0.283(3)
H14 H 1.148(6) -0.301(6) 0.438(5)
H15 H 1.161(5) -0.283(5) 0.298(5)
H16 H 1.305(6) -0.289(5) 0.338(5)
H17 H 1.381(6) -0.089(5) 0.314(4)
H18 H 1.303(5) 0.052(6) 0.250(5)
H19 H 1.282(5) 0.014(5) 0.407(5)
loop_
_geom_bond_atom_site_label_1
_geom_bond_atom_site_label_2
_geom_bond_site_symmetry_1
_geom_bond_site_symmetry_2
S1 O1 1_555 1_555
O2 S1 1_555 1_555
O3 S1 1_555 1_555
F1 C14 1_555 1_555
F2 C14 1_555 1_555
F3 C14 1_555 1_555
B1 N1 1_555 1_555
N1 C1 1_555 1_555
N2 B1 1_555 1_555
N3 C9 1_555 1_555
C1 C2 1_555 1_555
C2 C3 1_555 1_555
C3 C4 1_555 1_555
C4 B1 1_555 1_555
C5 N1 1_555 1_555
C6 C5 1_555 1_555
C7 N2 1_555 1_555
C8 C7 1_555 1_555
C9 C8 1_555 1_555
C10 C9 1_555 1_555
C11 N2 1_555 1_555
C12 N3 1_555 1_555
C13 N3 1_555 1_555
C14 S1 1_555 1_555
H1 C1 1_555 1_555
H2 C2 1_555 1_555
H3 C3 1_555 1_555
H4 C4 1_555 1_555
H5 C5 1_555 1_555
H6 C5 1_555 1_555
H7 C6 1_555 1_555
H8 C6 1_555 1_555
H9 C6 1_555 1_555
H10 C7 1_555 1_555
H11 C8 1_555 1_555
H12 C10 1_555 1_555
H13 C11 1_555 1_555
H14 C12 1_555 1_555
H15 C12 1_555 1_555
H16 C12 1_555 1_555
H17 C13 1_555 1_555
H18 C13 1_555 1_555
H19 C13 1_555 1_555
C10 C11 1_555 1_555

#END
