
#######################################################################
#
#                 Cambridge Crystallographic Data Centre
#                                CCDC 
#
#######################################################################
#
# If this CIF has been generated from an entry in the Cambridge 
# Structural Database, then it will include bibliographic, chemical, 
# crystal, experimental, refinement or atomic coordinate data resulting 
# from the CCDC's data processing and validation procedures.
#
#######################################################################

data_GUZJAO
_chemical_formula_moiety         'C29 H21 N3 O8'
_chemical_name_systematic        
'methyl 5,6-dimethoxy-1-methyl-4,7-bis((4-nitrophenyl)ethynyl)-1H-indole-2-carboxylate'
_symmetry_cell_setting           monoclinic
_symmetry_space_group_name_H-M   'P 21/c'
_symmetry_Int_Tables_number      14
_space_group_name_Hall           '-P 2ybc'
loop_
_symmetry_equiv_pos_site_id
_symmetry_equiv_pos_as_xyz
1 x,y,z
2 -x,1/2+y,1/2-z
3 -x,-y,-z
4 x,1/2-y,1/2+z
_cell_length_a                   14.0196(3)
_cell_length_b                   13.8603(4)
_cell_length_c                   12.8511(4)
_cell_angle_alpha                90
_cell_angle_beta                 90.7780(10)
_cell_angle_gamma                90
_cell_volume                     2496.94
_exptl_crystal_colour            yellow
_exptl_crystal_description       rod
_cell_formula_units_Z            4
loop_
_atom_site_label
_atom_site_type_symbol
_atom_site_fract_x
_atom_site_fract_y
_atom_site_fract_z
O1 O -0.47803(8) -0.32327(8) 0.99943(9)
O2 O -0.55456(7) -0.19384(9) 1.04135(9)
O3 O -0.12344(6) 0.22171(7) 1.00191(7)
O4 O -0.01108(7) 0.37816(6) 0.96731(7)
O5 O 0.26016(7) -0.09496(7) 0.73426(8)
O6 O 0.31137(7) 0.03270(7) 0.64241(8)
O7 O 0.45809(8) 0.81086(8) 0.79396(9)
O8 O 0.55953(8) 0.70614(9) 0.73746(9)
N1 N -0.48217(8) -0.23590(9) 1.01375(9)
N2 N 0.10560(8) 0.03027(7) 0.80361(8)
N3 N 0.48043(9) 0.72825(9) 0.76983(9)
C1 C 0.01840(12) 0.39034(11) 1.07379(11)
H1 H -0.0072 0.3375 1.1157
H2 H -0.0057 0.4520 1.0999
H3 H 0.0882 0.3899 1.0785
C2 C 0.40864(10) 0.65164(10) 0.78224(10)
C3 C 0.31779(10) 0.67663(10) 0.81230(11)
H4 H 0.3005 0.7423 0.8214
C4 C 0.25243(10) 0.60331(9) 0.82884(11)
H5 H 0.1895 0.6187 0.8497
C5 C 0.27865(9) 0.50648(9) 0.81500(10)
C6 C 0.21286(9) 0.42983(9) 0.83591(10)
C7 C 0.16047(9) 0.36366(9) 0.85407(10)
C8 C 0.09996(9) 0.28238(9) 0.87132(10)
C9 C 0.12437(9) 0.19017(9) 0.83154(10)
C10 C 0.06342(9) 0.11005(9) 0.84737(10)
C11 C -0.02310(9) 0.11897(9) 0.90173(10)
C12 C -0.09092(9) 0.04430(9) 0.91851(10)
C13 C -0.15579(9) -0.00963(9) 0.93631(10)
C14 C -0.23683(9) -0.06879(9) 0.95772(10)
C15 C -0.23789(10) -0.16717(9) 0.93237(10)
H6 H -0.1835 -0.1958 0.9016
C16 C -0.31769(10) -0.22289(10) 0.95193(10)
H7 H -0.3187 -0.2898 0.9357
C17 C -0.39580(9) -0.17849(10) 0.99573(10)
C18 C 0.43616(10) 0.55705(11) 0.76504(11)
H8 H 0.4988 0.5425 0.7424
C19 C 0.37058(10) 0.48427(10) 0.78147(11)
H9 H 0.3880 0.4190 0.7700
C20 C 0.19093(9) 0.05972(9) 0.76093(10)
C21 C 0.20412(9) 0.15699(9) 0.77623(10)
H10 H 0.2567 0.1945 0.7539
C22 C 0.25624(9) -0.01015(9) 0.71290(10)
C23 C 0.37596(10) -0.03162(11) 0.58838(12)
H11 H 0.4119 -0.0702 0.6394
H12 H 0.4204 0.0065 0.5469
H13 H 0.3391 -0.0745 0.5425
C24 C 0.06327(10) -0.06609(9) 0.79585(11)
H14 H 0.0824 -0.1044 0.8567
H15 H 0.0854 -0.0978 0.7325
H16 H -0.0064 -0.0605 0.7932
C25 C -0.39682(10) -0.08161(10) 1.02253(11)
H17 H -0.4516 -0.0536 1.0531
C26 C -0.31672(10) -0.02664(10) 1.00388(11)
H18 H -0.3157 0.0397 1.0223
C27 C -0.04371(9) 0.21031(9) 0.94252(10)
C28 C -0.20725(11) 0.24516(13) 0.94146(13)
H19 H -0.1990 0.3084 0.9088
H20 H -0.2628 0.2469 0.9869
H21 H -0.2172 0.1961 0.8874
C29 C 0.01620(9) 0.29049(9) 0.92744(10)
loop_
_geom_bond_atom_site_label_1
_geom_bond_atom_site_label_2
_geom_bond_site_symmetry_1
_geom_bond_site_symmetry_2
O1 N1 1_555 1_555
O2 N1 1_555 1_555
O3 C27 1_555 1_555
O4 C1 1_555 1_555
O5 C22 1_555 1_555
O6 C22 1_555 1_555
O7 N3 1_555 1_555
O8 N3 1_555 1_555
N1 C17 1_555 1_555
N2 C10 1_555 1_555
N3 C2 1_555 1_555
C1 H1 1_555 1_555
H2 C1 1_555 1_555
H3 C1 1_555 1_555
C2 C3 1_555 1_555
C3 H4 1_555 1_555
C4 C3 1_555 1_555
H5 C4 1_555 1_555
C5 C4 1_555 1_555
C6 C5 1_555 1_555
C7 C6 1_555 1_555
C8 C7 1_555 1_555
C9 C8 1_555 1_555
C10 C9 1_555 1_555
C11 C10 1_555 1_555
C12 C11 1_555 1_555
C13 C12 1_555 1_555
C14 C13 1_555 1_555
C15 C14 1_555 1_555
H6 C15 1_555 1_555
C16 C15 1_555 1_555
H7 C16 1_555 1_555
C17 C16 1_555 1_555
C18 C2 1_555 1_555
H8 C18 1_555 1_555
C19 C5 1_555 1_555
H9 C19 1_555 1_555
C20 N2 1_555 1_555
C21 C9 1_555 1_555
H10 C21 1_555 1_555
C22 C20 1_555 1_555
C23 O6 1_555 1_555
H11 C23 1_555 1_555
H12 C23 1_555 1_555
H13 C23 1_555 1_555
C24 N2 1_555 1_555
H14 C24 1_555 1_555
H15 C24 1_555 1_555
H16 C24 1_555 1_555
C25 C17 1_555 1_555
H17 C25 1_555 1_555
C26 C14 1_555 1_555
H18 C26 1_555 1_555
C27 C11 1_555 1_555
C28 O3 1_555 1_555
H19 C28 1_555 1_555
H20 C28 1_555 1_555
H21 C28 1_555 1_555
C29 O4 1_555 1_555
C8 C29 1_555 1_555
C18 C19 1_555 1_555
C20 C21 1_555 1_555
C25 C26 1_555 1_555
C27 C29 1_555 1_555

#END
