
#######################################################################
#
#                 Cambridge Crystallographic Data Centre
#                                CCDC 
#
#######################################################################
#
# If this CIF has been generated from an entry in the Cambridge 
# Structural Database, then it will include bibliographic, chemical, 
# crystal, experimental, refinement or atomic coordinate data resulting 
# from the CCDC's data processing and validation procedures.
#
#######################################################################

data_GUZJES
_chemical_formula_moiety         'C29 H21 F2 N1 O4'
_chemical_name_systematic        
'methyl 4,7-bis((4-fluorophenyl)ethynyl)-5,6-dimethoxy-1-methyl-1H-indole-2-carboxylate'
_symmetry_cell_setting           orthorhombic
_symmetry_space_group_name_H-M   'P c a 21'
_symmetry_Int_Tables_number      29
_space_group_name_Hall           'P 2c -2ac'
loop_
_symmetry_equiv_pos_site_id
_symmetry_equiv_pos_as_xyz
1 x,y,z
2 -x,-y,1/2+z
3 1/2-x,y,1/2+z
4 1/2+x,-y,z
_cell_length_a                   23.809(4)
_cell_length_b                   13.756(3)
_cell_length_c                   7.2297(12)
_cell_angle_alpha                90
_cell_angle_beta                 90
_cell_angle_gamma                90
_cell_volume                     2367.85
_exptl_crystal_colour            yellow
_exptl_crystal_description       plate
_cell_formula_units_Z            4
loop_
_atom_site_label
_atom_site_type_symbol
_atom_site_fract_x
_atom_site_fract_y
_atom_site_fract_z
F1 F 0.3157(2) -0.1924(3) 0.6568(8)
F2 F -0.0467(2) 1.0394(3) 0.3449(8)
O1 O 0.0907(2) 0.2731(3) 0.4404(9)
O2 O 0.04076(18) 0.4484(3) 0.3807(8)
O3 O 0.3392(2) 0.6806(4) 0.3224(9)
O4 O 0.3841(3) 0.5383(5) 0.3736(10)
N1 N 0.2737(2) 0.4429(5) 0.3905(9)
C1 C 0.3938(3) 0.7266(7) 0.3246(17)
H1 H 0.3894 0.7970 0.3089
H2 H 0.4168 0.7007 0.2235
H3 H 0.4124 0.7134 0.4430
C2 C 0.3413(3) 0.5835(7) 0.3522(13)
C3 C 0.2843(3) 0.5419(6) 0.3615(14)
C4 C 0.2340(3) 0.5900(6) 0.3476(12)
H4 H 0.2294 0.6578 0.3281
C5 C 0.1902(3) 0.5212(5) 0.3671(11)
C6 C 0.2163(3) 0.4287(5) 0.3953(11)
C7 C 0.1827(3) 0.3427(5) 0.4175(12)
C8 C 0.1249(3) 0.3535(5) 0.4123(12)
C9 C 0.0985(3) 0.4457(5) 0.3898(12)
C10 C 0.1311(3) 0.5293(4) 0.3634(12)
C11 C 0.0634(4) 0.2389(6) 0.2745(14)
H5 H 0.0348 0.1908 0.3072
H6 H 0.0914 0.2088 0.1928
H7 H 0.0457 0.2937 0.2107
C12 C 0.0146(3) 0.4806(5) 0.5517(14)
H8 H -0.0261 0.4704 0.5442
H9 H 0.0223 0.5499 0.5704
H10 H 0.0298 0.4434 0.6556
C13 C 0.1031(3) 0.6216(5) 0.3466(12)
C14 C 0.0775(3) 0.6967(5) 0.3369(11)
C15 C 0.0450(3) 0.7856(5) 0.3349(11)
C16 C 0.0709(3) 0.8737(5) 0.3893(12)
H11 H 0.1094 0.8744 0.4248
C17 C 0.0396(4) 0.9591(5) 0.3902(12)
H12 H 0.0563 1.0192 0.4245
C18 C -0.0148(4) 0.9543(5) 0.3414(13)
C19 C -0.0420(4) 0.8701(6) 0.2900(15)
H13 H -0.0807 0.8699 0.2589
C20 C -0.0105(3) 0.7865(6) 0.2855(14)
H14 H -0.0278 0.7275 0.2472
C21 C 0.2057(3) 0.2481(5) 0.4501(12)
C22 C 0.2225(3) 0.1681(6) 0.4890(12)
C23 C 0.2468(3) 0.0735(5) 0.5250(12)
C24 C 0.3036(3) 0.0616(5) 0.5299(12)
H15 H 0.3272 0.1158 0.5062
C25 C 0.3281(4) -0.0287(6) 0.5690(12)
H16 H 0.3676 -0.0380 0.5671
C26 C 0.2914(4) -0.1034(6) 0.6106(13)
C27 C 0.2355(4) -0.0955(5) 0.6112(13)
H17 H 0.2125 -0.1499 0.6395
C28 C 0.2115(3) -0.0055(5) 0.5694(11)
H18 H 0.1719 0.0024 0.5709
C29 C 0.3168(4) 0.3681(6) 0.4101(16)
H19 H 0.3018 0.3140 0.4833
H20 H 0.3496 0.3956 0.4727
H21 H 0.3277 0.3444 0.2874
loop_
_geom_bond_atom_site_label_1
_geom_bond_atom_site_label_2
_geom_bond_site_symmetry_1
_geom_bond_site_symmetry_2
F1 C26 1_555 1_555
F2 C18 1_555 1_555
O1 C8 1_555 1_555
O2 C9 1_555 1_555
O3 C1 1_555 1_555
O4 C2 1_555 1_555
N1 C3 1_555 1_555
C1 H1 1_555 1_555
H2 C1 1_555 1_555
H3 C1 1_555 1_555
C2 O3 1_555 1_555
C3 C2 1_555 1_555
C4 C3 1_555 1_555
H4 C4 1_555 1_555
C5 C4 1_555 1_555
C6 N1 1_555 1_555
C7 C6 1_555 1_555
C8 C7 1_555 1_555
C9 C8 1_555 1_555
C10 C5 1_555 1_555
C11 O1 1_555 1_555
H5 C11 1_555 1_555
H6 C11 1_555 1_555
H7 C11 1_555 1_555
C12 O2 1_555 1_555
H8 C12 1_555 1_555
H9 C12 1_555 1_555
H10 C12 1_555 1_555
C13 C10 1_555 1_555
C14 C13 1_555 1_555
C15 C14 1_555 1_555
C16 C15 1_555 1_555
H11 C16 1_555 1_555
C17 C16 1_555 1_555
H12 C17 1_555 1_555
C18 C17 1_555 1_555
C19 C18 1_555 1_555
H13 C19 1_555 1_555
C20 C15 1_555 1_555
H14 C20 1_555 1_555
C21 C7 1_555 1_555
C22 C21 1_555 1_555
C23 C22 1_555 1_555
C24 C23 1_555 1_555
H15 C24 1_555 1_555
C25 C24 1_555 1_555
H16 C25 1_555 1_555
C26 C25 1_555 1_555
C27 C26 1_555 1_555
H17 C27 1_555 1_555
C28 C23 1_555 1_555
H18 C28 1_555 1_555
C29 N1 1_555 1_555
H19 C29 1_555 1_555
H20 C29 1_555 1_555
H21 C29 1_555 1_555
C5 C6 1_555 1_555
C9 C10 1_555 1_555
C19 C20 1_555 1_555
C27 C28 1_555 1_555

#END
