
#######################################################################
#
#                 Cambridge Crystallographic Data Centre
#                                CCDC 
#
#######################################################################
#
# If this CIF has been generated from an entry in the Cambridge 
# Structural Database, then it will include bibliographic, chemical, 
# crystal, experimental, refinement or atomic coordinate data resulting 
# from the CCDC's data processing and validation procedures.
#
#######################################################################

data_GUZMIY
_chemical_formula_moiety         'C18 H12 Br2 O2'
_chemical_name_systematic        
rac-7,7'-Dibromo-1,1',2,2'-tetrahydro-3H,3'H-1,1'-biindene-3,3'-dione
_symmetry_cell_setting           orthorhombic
_symmetry_space_group_name_H-M   'P 21 21 21'
_symmetry_Int_Tables_number      19
_space_group_name_Hall           'P 2ac 2ab'
loop_
_symmetry_equiv_pos_site_id
_symmetry_equiv_pos_as_xyz
1 x,y,z
2 1/2-x,-y,1/2+z
3 -x,1/2+y,1/2-z
4 1/2+x,1/2-y,-z
_cell_length_a                   8.3863(5)
_cell_length_b                   13.1607(8)
_cell_length_c                   14.4654(9)
_cell_angle_alpha                90
_cell_angle_beta                 90
_cell_angle_gamma                90
_cell_volume                     1596.54
_exptl_crystal_colour            colorless
_chemical_melting_point          242-244deg.C
_cell_formula_units_Z            4
_exptl_crystal_recrystallization_method dichloromethane/n-hexane
loop_
_atom_site_label
_atom_site_type_symbol
_atom_site_fract_x
_atom_site_fract_y
_atom_site_fract_z
Br1 Br 0.32922(7) 0.10708(3) 0.15047(3)
Br2 Br -0.17453(5) 0.16372(3) 0.09744(3)
O1 O 0.1652(4) 0.4398(2) 0.4545(2)
O2 O 0.0940(3) 0.61353(19) 0.1397(2)
C1 C 0.3773(4) 0.1923(3) 0.2517(3)
C2 C 0.5256(5) 0.1825(3) 0.2945(3)
H1 H 0.6007 0.1375 0.2708
C3 C 0.5612(5) 0.2395(4) 0.3723(3)
H2 H 0.6596 0.2317 0.4010
C4 C 0.4523(5) 0.3079(3) 0.4078(3)
H3 H 0.4759 0.3466 0.4598
C5 C 0.3060(4) 0.3169(3) 0.3632(3)
C6 C 0.1694(5) 0.3803(2) 0.3907(2)
C7 C 0.0331(4) 0.3555(3) 0.3265(3)
H4 H -0.0115 0.4173 0.3007
H5 H -0.0504 0.3199 0.3597
C8 C 0.1009(4) 0.2875(2) 0.2487(2)
H6 H 0.0378 0.2249 0.2448
C9 C 0.2670(4) 0.2622(2) 0.2846(2)
C10 C 0.1034(4) 0.3393(2) 0.1533(2)
H7 H 0.1514 0.2930 0.1081
C11 C -0.0626(4) 0.3678(3) 0.1212(2)
C12 C -0.1934(4) 0.3072(3) 0.1018(2)
C13 C -0.3374(5) 0.3511(3) 0.0781(3)
H8 H -0.4253 0.3100 0.0667
C14 C -0.3524(5) 0.4561(3) 0.0712(3)
H9 H -0.4499 0.4846 0.0548
C15 C -0.2243(4) 0.5178(3) 0.0882(3)
H10 H -0.2332 0.5880 0.0827
C16 C -0.0807(4) 0.4733(3) 0.1140(2)
C17 C 0.0715(4) 0.5235(3) 0.1353(3)
C18 C 0.1949(4) 0.4416(3) 0.1518(3)
H11 H 0.2489 0.4526 0.2103
H12 H 0.2738 0.4417 0.1027
loop_
_geom_bond_atom_site_label_1
_geom_bond_atom_site_label_2
_geom_bond_site_symmetry_1
_geom_bond_site_symmetry_2
Br1 C1 1_555 1_555
Br2 C12 1_555 1_555
O1 C6 1_555 1_555
O2 C17 1_555 1_555
C1 C2 1_555 1_555
C2 H1 1_555 1_555
C3 C2 1_555 1_555
H2 C3 1_555 1_555
C4 C3 1_555 1_555
H3 C4 1_555 1_555
C5 C4 1_555 1_555
C6 C5 1_555 1_555
C7 C6 1_555 1_555
H4 C7 1_555 1_555
H5 C7 1_555 1_555
C8 C7 1_555 1_555
H6 C8 1_555 1_555
C9 C1 1_555 1_555
C10 C8 1_555 1_555
H7 C10 1_555 1_555
C11 C10 1_555 1_555
C12 C11 1_555 1_555
C13 C12 1_555 1_555
H8 C13 1_555 1_555
C14 C13 1_555 1_555
H9 C14 1_555 1_555
C15 C14 1_555 1_555
H10 C15 1_555 1_555
C16 C11 1_555 1_555
C17 C16 1_555 1_555
C18 C10 1_555 1_555
H11 C18 1_555 1_555
H12 C18 1_555 1_555
C5 C9 1_555 1_555
C8 C9 1_555 1_555
C15 C16 1_555 1_555
C17 C18 1_555 1_555

#END
