
#######################################################################
#
#                 Cambridge Crystallographic Data Centre
#                                CCDC 
#
#######################################################################
#
# If this CIF has been generated from an entry in the Cambridge 
# Structural Database, then it will include bibliographic, chemical, 
# crystal, experimental, refinement or atomic coordinate data resulting 
# from the CCDC's data processing and validation procedures.
#
#######################################################################

data_GUZMUK
_chemical_formula_moiety         'C22 H14 O4'
_chemical_name_systematic        
4a,9a-Dimethyl-4a,9a,10c,10d-tetrahydrodicyclopenta-[def,mno]chrysene-4,5,9,10-tetrone
_symmetry_cell_setting           monoclinic
_symmetry_space_group_name_H-M   'P 21/c'
_symmetry_Int_Tables_number      14
_space_group_name_Hall           '-P 2ybc'
loop_
_symmetry_equiv_pos_site_id
_symmetry_equiv_pos_as_xyz
1 x,y,z
2 -x,1/2+y,1/2-z
3 -x,-y,-z
4 x,1/2-y,1/2+z
_cell_length_a                   10.4907(9)
_cell_length_b                   16.4745(14)
_cell_length_c                   9.5305(8)
_cell_angle_alpha                90
_cell_angle_beta                 92.990(2)
_cell_angle_gamma                90
_cell_volume                     1644.9
_exptl_crystal_colour            colorless
_chemical_melting_point          311deg.C(dec)
_cell_formula_units_Z            4
_exptl_crystal_recrystallization_method 'dichloromethane/diethyl ether'
loop_
_atom_site_label
_atom_site_type_symbol
_atom_site_fract_x
_atom_site_fract_y
_atom_site_fract_z
O1 O 0.97872(17) 0.15621(9) 1.11736(13)
O2 O 0.87501(12) 0.31088(7) 0.92885(12)
O3 O 0.63616(12) 0.01658(7) 0.45414(11)
O4 O 0.64482(15) -0.12929(8) 0.68945(14)
C1 C 0.87433(13) 0.03039(8) 0.75760(13)
H1 H 0.9594 0.0057 0.7637
C2 C 0.88655(13) 0.12244(8) 0.73822(13)
H2 H 0.9375 0.1335 0.6571
C3 C 0.75466(13) 0.15567(8) 0.71070(13)
C4 C 0.65854(13) 0.11839(8) 0.62842(13)
C5 C 0.68812(13) 0.03925(8) 0.56379(13)
C6 C 0.78733(13) -0.01556(8) 0.64447(13)
C7 C 0.70590(15) -0.07248(9) 0.73540(15)
C8 C 0.71759(15) -0.04301(9) 0.88294(15)
C9 C 0.80973(14) 0.01649(8) 0.89250(14)
C10 C 0.64824(17) -0.06276(11) 0.99981(17)
H3 H 0.5862 -0.1031 0.9944
C11 C 0.67437(19) -0.02073(11) 1.12345(17)
H4 H 0.6302 -0.0339 1.2025
C12 C 0.76524(18) 0.04078(11) 1.13238(15)
H5 H 0.7808 0.0684 1.2166
C13 C 0.83354(16) 0.06132(9) 1.01461(14)
C14 C 0.92295(17) 0.13059(10) 1.01149(15)
C15 C 0.94137(14) 0.17212(9) 0.86750(14)
C16 C 0.85099(14) 0.24816(9) 0.86685(14)
C17 C 0.73480(15) 0.22837(8) 0.77905(14)
C18 C 0.61698(16) 0.26768(9) 0.76290(16)
H6 H 0.6032 0.3170 0.8072
C19 C 0.52088(16) 0.23126(10) 0.67890(18)
H7 H 0.4419 0.2567 0.6673
C20 C 0.54041(15) 0.15729(9) 0.61154(15)
H8 H 0.4749 0.1340 0.5556
C21 C 1.08020(16) 0.19840(11) 0.85731(19)
H9 H 1.1339 0.1513 0.8565
H10 H 1.1051 0.2317 0.9367
H11 H 1.0888 0.2287 0.7723
C22 C 0.85869(16) -0.06599(10) 0.53919(17)
H12 H 0.7999 -0.1018 0.4896
H13 H 0.9240 -0.0973 0.5883
H14 H 0.8970 -0.0305 0.4735
loop_
_geom_bond_atom_site_label_1
_geom_bond_atom_site_label_2
_geom_bond_site_symmetry_1
_geom_bond_site_symmetry_2
O1 C14 1_555 1_555
O2 C16 1_555 1_555
O3 C5 1_555 1_555
O4 C7 1_555 1_555
C1 H1 1_555 1_555
C2 C1 1_555 1_555
H2 C2 1_555 1_555
C3 C2 1_555 1_555
C4 C3 1_555 1_555
C5 C4 1_555 1_555
C6 C1 1_555 1_555
C7 C6 1_555 1_555
C8 C7 1_555 1_555
C9 C1 1_555 1_555
C10 C8 1_555 1_555
H3 C10 1_555 1_555
C11 C10 1_555 1_555
H4 C11 1_555 1_555
C12 C11 1_555 1_555
H5 C12 1_555 1_555
C13 C9 1_555 1_555
C14 C13 1_555 1_555
C15 C2 1_555 1_555
C16 C15 1_555 1_555
C17 C3 1_555 1_555
C18 C17 1_555 1_555
H6 C18 1_555 1_555
C19 C18 1_555 1_555
H7 C19 1_555 1_555
C20 C4 1_555 1_555
H8 C20 1_555 1_555
C21 C15 1_555 1_555
H9 C21 1_555 1_555
H10 C21 1_555 1_555
H11 C21 1_555 1_555
C22 C6 1_555 1_555
H12 C22 1_555 1_555
H13 C22 1_555 1_555
H14 C22 1_555 1_555
C5 C6 1_555 1_555
C8 C9 1_555 1_555
C12 C13 1_555 1_555
C14 C15 1_555 1_555
C16 C17 1_555 1_555
C19 C20 1_555 1_555

#END
