
#######################################################################
#
#                 Cambridge Crystallographic Data Centre
#                                CCDC 
#
#######################################################################
#
# If this CIF has been generated from an entry in the Cambridge 
# Structural Database, then it will include bibliographic, chemical, 
# crystal, experimental, refinement or atomic coordinate data resulting 
# from the CCDC's data processing and validation procedures.
#
#######################################################################

data_GUZNEV
_chemical_formula_moiety         'C26 H16 Br2 O2'
_chemical_name_systematic        
5,10-bis(2-Bromoethenylidene)-4a,9a-dimethyl-4a,5,9a,10,10c,10d-hexahydrodicyclopenta[def,mno]chrysene-4,9-dione
_symmetry_cell_setting           monoclinic
_symmetry_space_group_name_H-M   'P 21/n'
_symmetry_Int_Tables_number      14
_space_group_name_Hall           '-P 2yn'
loop_
_symmetry_equiv_pos_site_id
_symmetry_equiv_pos_as_xyz
1 x,y,z
2 1/2-x,1/2+y,1/2-z
3 -x,-y,-z
4 1/2+x,1/2-y,1/2+z
_cell_length_a                   12.3579(9)
_cell_length_b                   13.0133(11)
_cell_length_c                   13.2737(11)
_cell_angle_alpha                90
_cell_angle_beta                 91.3720(10)
_cell_angle_gamma                90
_cell_volume                     2134.03
_exptl_crystal_colour            colorless
_cell_formula_units_Z            4
loop_
_atom_site_label
_atom_site_type_symbol
_atom_site_fract_x
_atom_site_fract_y
_atom_site_fract_z
Br1 Br 0.32334(6) 0.02494(6) 0.94383(4)
Br2 Br 0.04292(4) -0.09533(4) 0.11952(4)
O1 O 0.3364(2) -0.0792(2) 0.2284(2)
O2 O 0.1604(3) 0.2127(3) 0.7324(2)
C1 C 0.2812(3) 0.1825(3) 0.4898(3)
H1 H 0.2938 0.2522 0.4647
C2 C 0.2991(3) 0.1818(3) 0.6066(3)
C3 C 0.3433(3) 0.0785(3) 0.6491(3)
C4 C 0.3452(3) -0.0115(3) 0.5821(3)
C5 C 0.3432(3) -0.1132(3) 0.6150(3)
H2 H 0.3430 -0.1268 0.6838
C6 C 0.3416(3) -0.1951(3) 0.5472(3)
H3 H 0.3415 -0.2621 0.5717
C7 C 0.3402(3) -0.1784(3) 0.4438(3)
H4 H 0.3385 -0.2329 0.3984
C8 C 0.3414(3) -0.0769(3) 0.4106(3)
C9 C 0.3464(2) 0.0040(3) 0.4785(3)
C10 C 0.3484(2) 0.1069(3) 0.4293(3)
H5 H 0.4234 0.1313 0.4286
C11 C 0.3097(3) 0.0839(3) 0.3185(3)
C12 C 0.3314(3) -0.0334(3) 0.3075(3)
C13 C 0.1852(3) 0.0942(3) 0.3024(3)
C14 C 0.1160(3) 0.1218(3) 0.3867(3)
C15 C 0.0037(3) 0.1062(3) 0.3869(3)
H6 H -0.0316 0.0830 0.3285
C16 C -0.0559(3) 0.1245(4) 0.4721(4)
H7 H -0.1306 0.1159 0.4691
C17 C -0.0060(3) 0.1553(4) 0.5617(4)
H8 H -0.0458 0.1661 0.6194
C18 C 0.1054(3) 0.1696(3) 0.5624(3)
C19 C 0.1640(3) 0.1573(3) 0.4758(3)
C20 C 0.1821(3) 0.1923(3) 0.6466(3)
C21 C 0.3689(4) 0.2721(4) 0.6457(4)
H9 H 0.3725 0.2705 0.7180
H10 H 0.3371 0.3357 0.6235
H11 H 0.4405 0.2662 0.6199
C22 C 0.3767(3) 0.0722(4) 0.7440(3)
C23 C 0.4121(4) 0.0653(4) 0.8353(3)
H12 H 0.4845 0.0806 0.8492
C24 C 0.3693(3) 0.1466(4) 0.2391(3)
H13 H 0.3487 0.1225 0.1730
H14 H 0.4460 0.1386 0.2494
H15 H 0.3504 0.2178 0.2453
C25 C 0.1422(3) 0.0720(3) 0.2133(3)
C26 C 0.0946(3) 0.0421(3) 0.1308(3)
H16 H 0.0855 0.0875 0.0771
loop_
_geom_bond_atom_site_label_1
_geom_bond_atom_site_label_2
_geom_bond_site_symmetry_1
_geom_bond_site_symmetry_2
Br1 C23 1_555 1_555
Br2 C26 1_555 1_555
O1 C12 1_555 1_555
O2 C20 1_555 1_555
C1 H1 1_555 1_555
C2 C1 1_555 1_555
C3 C2 1_555 1_555
C4 C3 1_555 1_555
C5 C4 1_555 1_555
H2 C5 1_555 1_555
C6 C5 1_555 1_555
H3 C6 1_555 1_555
C7 C6 1_555 1_555
H4 C7 1_555 1_555
C8 C7 1_555 1_555
C9 C4 1_555 1_555
C10 C1 1_555 1_555
H5 C10 1_555 1_555
C11 C10 1_555 1_555
C12 C8 1_555 1_555
C13 C11 1_555 1_555
C14 C13 1_555 1_555
C15 C14 1_555 1_555
H6 C15 1_555 1_555
C16 C15 1_555 1_555
H7 C16 1_555 1_555
C17 C16 1_555 1_555
H8 C17 1_555 1_555
C18 C17 1_555 1_555
C19 C1 1_555 1_555
C20 C2 1_555 1_555
C21 C2 1_555 1_555
H9 C21 1_555 1_555
H10 C21 1_555 1_555
H11 C21 1_555 1_555
C22 C3 1_555 1_555
C23 C22 1_555 1_555
H12 C23 1_555 1_555
C24 C11 1_555 1_555
H13 C24 1_555 1_555
H14 C24 1_555 1_555
H15 C24 1_555 1_555
C25 C13 1_555 1_555
C26 C25 1_555 1_555
H16 C26 1_555 1_555
C8 C9 1_555 1_555
C9 C10 1_555 1_555
C11 C12 1_555 1_555
C14 C19 1_555 1_555
C18 C19 1_555 1_555
C18 C20 1_555 1_555

#END
