
#######################################################################
#
#                 Cambridge Crystallographic Data Centre
#                                CCDC 
#
#######################################################################
#
# If this CIF has been generated from an entry in the Cambridge 
# Structural Database, then it will include bibliographic, chemical, 
# crystal, experimental, refinement or atomic coordinate data resulting 
# from the CCDC's data processing and validation procedures.
#
#######################################################################

data_GUZQUO
_chemical_compound_source        'flowers buds of Rhododendron molle'
_chemical_name_common            'Secorhodomollolide A'
_chemical_formula_moiety         'C31 H42 O13'
_chemical_name_systematic        
'3,14,15,16-Tetraacetoxy-9-hydroxy-9,14-dimethyl-6-oxo-4-(prop-1-en-2-yl)-5-oxatetracyclo[11.2.1.0^1,10^.0^4,8^]hexadec-2-yl propionate'
_chemical_properties_biological  'tested for analgesic and sedative activity'
_symmetry_cell_setting           orthorhombic
_symmetry_space_group_name_H-M   'P 21 21 21'
_symmetry_Int_Tables_number      19
_space_group_name_Hall           'P 2ac 2ab'
loop_
_symmetry_equiv_pos_site_id
_symmetry_equiv_pos_as_xyz
1 x,y,z
2 1/2-x,-y,1/2+z
3 1/2+x,1/2-y,-z
4 -x,1/2+y,1/2-z
_cell_length_a                   11.15910(10)
_cell_length_b                   15.29610(10)
_cell_length_c                   18.7549(2)
_cell_angle_alpha                90
_cell_angle_beta                 90
_cell_angle_gamma                90
_cell_volume                     3201.29
_exptl_crystal_colour            colorless
_exptl_crystal_description       block
_cell_formula_units_Z            4
loop_
_atom_site_label
_atom_site_type_symbol
_atom_site_fract_x
_atom_site_fract_y
_atom_site_fract_z
O1 O 0.5937(3) -0.20675(14) 0.31464(14)
O2 O 0.67930(15) -0.12077(10) 0.39413(9)
O3 O 0.73425(13) -0.07325(11) 0.52490(8)
O4 O 0.8339(2) 0.0304(2) 0.58517(14)
O5 O 0.52286(14) -0.05387(11) 0.57102(8)
O6 O 0.49143(19) -0.19375(13) 0.54021(14)
O7 O 0.53433(13) 0.11118(10) 0.60100(7)
O8 O 0.57939(17) 0.25210(13) 0.61983(10)
O9 O 0.29124(13) 0.07365(10) 0.62849(8)
O10 O 0.2418(2) 0.20129(14) 0.68155(10)
O11 O 0.29015(14) -0.05218(10) 0.53640(8)
O12 O 0.2593(3) -0.10363(16) 0.42676(13)
O13 O 0.63312(15) 0.16322(10) 0.40425(9)
H1 H 0.6615 0.2000 0.3772
C1 C 0.6376(2) 0.02167(16) 0.34635(11)
H2 H 0.7000 0.0428 0.3139
C2 C 0.5721(3) -0.0497(2) 0.30519(14)
H3 H 0.4861 -0.0436 0.3109
H4 H 0.5911 -0.0463 0.2548
C3 C 0.6137(3) -0.13470(19) 0.33541(15)
C4 C 0.8420(2) -0.01803(17) 0.39950(12)
C5 C 0.70596(19) -0.02876(14) 0.40616(12)
C6 C 0.66778(18) -0.01100(14) 0.48363(11)
H5 H 0.6899 0.0486 0.4975
C7 C 0.53317(18) -0.02697(14) 0.49810(10)
H6 H 0.5049 -0.0744 0.4672
C8 C 0.45232(17) 0.05313(13) 0.48761(10)
C9 C 0.44372(19) 0.08510(15) 0.40720(10)
H7 H 0.4059 0.0363 0.3819
C10 C 0.5607(2) 0.10374(15) 0.36457(11)
C11 C 0.3499(2) 0.16071(16) 0.40315(13)
H8 H 0.3672 0.1949 0.3608
H9 H 0.2715 0.1346 0.3964
C12 C 0.3418(2) 0.22345(15) 0.46610(13)
H10 H 0.2636 0.2510 0.4657
H11 H 0.4014 0.2690 0.4600
C13 C 0.36093(19) 0.17988(14) 0.53905(12)
H12 H 0.3615 0.2235 0.5773
C14 C 0.48229(18) 0.13493(14) 0.53286(11)
H13 H 0.5380 0.1726 0.5066
C15 C 0.31726(19) 0.03201(14) 0.50692(11)
H14 H 0.2716 0.0367 0.4624
C16 C 0.27264(19) 0.10585(15) 0.55568(11)
C17 C 0.1391(2) 0.12289(17) 0.54474(15)
H15 H 0.1137 0.1693 0.5757
H16 H 0.0948 0.0708 0.5556
H17 H 0.1250 0.1393 0.4961
C18 C 0.9140(3) -0.0845(2) 0.39208(16)
H18 H 0.9963 -0.0755 0.3894
H19 H 0.8831 -0.1409 0.3895
C19 C 0.8906(2) 0.0734(2) 0.40378(18)
H20 H 0.9764 0.0718 0.3998
H21 H 0.8686 0.0989 0.4487
H22 H 0.8580 0.1078 0.3656
C20 C 0.5299(3) 0.1446(2) 0.29181(13)
H23 H 0.4820 0.1960 0.2989
H24 H 0.4859 0.1031 0.2637
H25 H 0.6025 0.1601 0.2675
C21 C 0.8180(3) -0.0449(3) 0.57052(14)
C22 C 0.8886(4) -0.1211(3) 0.5980(2)
H26 H 0.9505 -0.1005 0.6293
H27 H 0.9241 -0.1518 0.5587
H28 H 0.8364 -0.1598 0.6236
C23 C 0.5032(3) -0.1388(2) 0.58515(17)
C24 C 0.4919(6) -0.1542(4) 0.6631(3)
H29 H 0.4305 -0.1148 0.6806
H30 H 0.4617 -0.2131 0.6693
C25 C 0.5847(2) 0.17697(18) 0.63779(12)
C26 C 0.6485(3) 0.1447(3) 0.70184(16)
H31 H 0.6860 0.1929 0.7258
H32 H 0.7086 0.1032 0.6878
H33 H 0.5924 0.1170 0.7334
C27 C 0.2538(2) -0.11398(17) 0.48990(17)
C28 C 0.2098(3) -0.19347(19) 0.5276(2)
H34 H 0.1282 -0.2046 0.5141
H35 H 0.2142 -0.1844 0.5781
H36 H 0.2586 -0.2427 0.5147
C29 C 0.2722(2) 0.1257(2) 0.68487(13)
C30 C 0.2955(4) 0.0780(3) 0.75265(15)
H37 H 0.2822 0.1165 0.7923
H38 H 0.3769 0.0579 0.7533
H39 H 0.2423 0.0288 0.7561
C31 C 0.5821(13) -0.1460(14) 0.7037(4)
H40 H 0.5604 -0.1624 0.7514
H41 H 0.6086 -0.0863 0.7033
H42 H 0.6457 -0.1831 0.6871
loop_
_geom_bond_atom_site_label_1
_geom_bond_atom_site_label_2
_geom_bond_site_symmetry_1
_geom_bond_site_symmetry_2
O1 C3 1_555 1_555
O2 C3 1_555 1_555
O3 C6 1_555 1_555
O4 C21 1_555 1_555
O5 C7 1_555 1_555
O6 C23 1_555 1_555
O7 C14 1_555 1_555
O8 C25 1_555 1_555
O9 C16 1_555 1_555
O10 C29 1_555 1_555
O11 C15 1_555 1_555
O12 C27 1_555 1_555
O13 H1 1_555 1_555
C1 H2 1_555 1_555
C2 C1 1_555 1_555
H3 C2 1_555 1_555
H4 C2 1_555 1_555
C3 C2 1_555 1_555
C4 C5 1_555 1_555
C5 O2 1_555 1_555
C6 C5 1_555 1_555
H5 C6 1_555 1_555
C7 C6 1_555 1_555
H6 C7 1_555 1_555
C8 C7 1_555 1_555
C9 C8 1_555 1_555
H7 C9 1_555 1_555
C10 O13 1_555 1_555
C11 C9 1_555 1_555
H8 C11 1_555 1_555
H9 C11 1_555 1_555
C12 C11 1_555 1_555
H10 C12 1_555 1_555
H11 C12 1_555 1_555
C13 C12 1_555 1_555
H12 C13 1_555 1_555
C14 C8 1_555 1_555
H13 C14 1_555 1_555
C15 C8 1_555 1_555
H14 C15 1_555 1_555
C16 C13 1_555 1_555
C17 C16 1_555 1_555
H15 C17 1_555 1_555
H16 C17 1_555 1_555
H17 C17 1_555 1_555
C18 C4 1_555 1_555
H18 C18 1_555 1_555
H19 C18 1_555 1_555
C19 C4 1_555 1_555
H20 C19 1_555 1_555
H21 C19 1_555 1_555
H22 C19 1_555 1_555
C20 C10 1_555 1_555
H23 C20 1_555 1_555
H24 C20 1_555 1_555
H25 C20 1_555 1_555
C21 O3 1_555 1_555
C22 C21 1_555 1_555
H26 C22 1_555 1_555
H27 C22 1_555 1_555
H28 C22 1_555 1_555
C23 O5 1_555 1_555
C24 C23 1_555 1_555
H29 C24 1_555 1_555
H30 C24 1_555 1_555
C25 O7 1_555 1_555
C26 C25 1_555 1_555
H31 C26 1_555 1_555
H32 C26 1_555 1_555
H33 C26 1_555 1_555
C27 O11 1_555 1_555
C28 C27 1_555 1_555
H34 C28 1_555 1_555
H35 C28 1_555 1_555
H36 C28 1_555 1_555
C29 O9 1_555 1_555
C30 C29 1_555 1_555
H37 C30 1_555 1_555
H38 C30 1_555 1_555
H39 C30 1_555 1_555
C31 C24 1_555 1_555
H40 C31 1_555 1_555
H41 C31 1_555 1_555
H42 C31 1_555 1_555
C1 C5 1_555 1_555
C1 C10 1_555 1_555
C9 C10 1_555 1_555
C13 C14 1_555 1_555
C15 C16 1_555 1_555

#END
