
#######################################################################
#
#                 Cambridge Crystallographic Data Centre
#                                CCDC 
#
#######################################################################
#
# If this CIF has been generated from an entry in the Cambridge 
# Structural Database, then it will include bibliographic, chemical, 
# crystal, experimental, refinement or atomic coordinate data resulting 
# from the CCDC's data processing and validation procedures.
#
#######################################################################

data_GUZRUP
_chemical_compound_source        'fruiting body of Ganoderma sinense'
_chemical_name_common            'Methyl ganosinensate A'
_chemical_formula_moiety         'C28 H40 O6'
_chemical_name_systematic        
'Methyl 7,11-dihydroxy-4,4,14-trimethyl-3,15-dioxo-1,11-cyclochol-8-en-24-oate'
_symmetry_cell_setting           orthorhombic
_symmetry_space_group_name_H-M   'P 21 21 21'
_symmetry_Int_Tables_number      19
_space_group_name_Hall           'P 2ac 2ab'
loop_
_symmetry_equiv_pos_site_id
_symmetry_equiv_pos_as_xyz
1 x,y,z
2 1/2-x,-y,1/2+z
3 -x,1/2+y,1/2-z
4 1/2+x,1/2-y,-z
_cell_length_a                   7.68140(10)
_cell_length_b                   12.12840(10)
_cell_length_c                   27.7022(3)
_cell_angle_alpha                90
_cell_angle_beta                 90
_cell_angle_gamma                90
_cell_volume                     2580.82
_exptl_crystal_colour            colorless
_exptl_crystal_description       block
_chemical_melting_point          215-217deg.C
_cell_formula_units_Z            4
_exptl_crystal_recrystallization_method 'acetone/petroleum ether'
loop_
_atom_site_label
_atom_site_type_symbol
_atom_site_fract_x
_atom_site_fract_y
_atom_site_fract_z
O1 O 0.5700(4) -0.3022(2) 0.20224(10)
O2 O 1.1831(2) 0.07802(16) 0.09427(8)
H1 H 1.1732 0.1386 0.0814
O3 O 0.7198(2) 0.16049(17) 0.23814(5)
H2 H 0.6320 0.1698 0.2545
O4 O 0.9813(3) 0.26742(15) 0.04649(7)
O5 O 0.3372(3) 0.78305(16) 0.05529(7)
C1 C 0.6647(3) -0.0261(2) 0.20779(7)
H3 H 0.6590 -0.0352 0.2429
C2 C 0.5463(3) -0.1102(2) 0.18357(9)
H4 H 0.5213 -0.0872 0.1508
H5 H 0.4371 -0.1151 0.2010
C3 C 0.6356(4) -0.2228(2) 0.18308(9)
C4 C 0.8116(3) -0.2346(2) 0.15761(8)
C5 C 0.8714(3) -0.1161(2) 0.14699(7)
H6 H 0.7805 -0.0885 0.1253
C6 C 1.0384(3) -0.0880(2) 0.12009(9)
H7 H 1.0607 -0.1425 0.0952
H8 H 1.1361 -0.0877 0.1423
C7 C 1.0166(3) 0.02663(18) 0.09716(8)
H9 H 0.9750 0.0157 0.0641
C8 C 0.8840(2) 0.09901(18) 0.12299(7)
C9 C 0.8413(3) 0.07383(19) 0.16828(7)
C10 C 0.8578(3) -0.0386(2) 0.19045(7)
C11 C 0.6751(3) 0.1028(2) 0.19475(7)
C12 C 0.5454(3) 0.1685(2) 0.16419(6)
H10 H 0.4688 0.2107 0.1850
H11 H 0.4747 0.1186 0.1451
C13 C 0.6477(3) 0.24699(17) 0.13065(6)
C14 C 0.7644(3) 0.17519(17) 0.09600(6)
C15 C 0.8347(3) 0.26304(18) 0.06335(8)
C16 C 0.6923(3) 0.34632(19) 0.05575(8)
H12 H 0.6475 0.3414 0.0231
H13 H 0.7363 0.4204 0.0610
C17 C 0.5464(3) 0.31926(18) 0.09287(7)
H14 H 0.4617 0.2713 0.0767
C18 C 0.9363(5) -0.3064(3) 0.18695(12)
H15 H 0.9611 -0.2710 0.2172
H16 H 1.0426 -0.3164 0.1692
H17 H 0.8836 -0.3769 0.1929
C19 C 0.7758(4) -0.2945(2) 0.10962(10)
H18 H 0.7385 -0.3686 0.1161
H19 H 0.8804 -0.2961 0.0906
H20 H 0.6863 -0.2561 0.0922
C20 C 0.9913(4) -0.0532(3) 0.23128(9)
H21 H 1.1057 -0.0602 0.2177
H22 H 0.9638 -0.1184 0.2494
H23 H 0.9876 0.0098 0.2522
C21 C 0.7654(3) 0.3251(2) 0.16035(8)
H24 H 0.6946 0.3690 0.1815
H25 H 0.8288 0.3725 0.1389
H26 H 0.8458 0.2823 0.1791
C22 C 0.6523(3) 0.10143(18) 0.06166(7)
H27 H 0.7277 0.0590 0.0412
H28 H 0.5789 0.1474 0.0421
H29 H 0.5815 0.0525 0.0806
C23 C 0.4486(3) 0.42203(19) 0.11041(7)
H30 H 0.5330 0.4690 0.1272
C24 C 0.3813(5) 0.4864(2) 0.06737(9)
H31 H 0.2894 0.4442 0.0521
H32 H 0.4750 0.4943 0.0441
C25 C 0.3112(4) 0.6007(2) 0.07969(10)
H33 H 0.1887 0.5946 0.0878
H34 H 0.3718 0.6284 0.1079
C26 C 0.3314(4) 0.6804(2) 0.03985(9)
C27 C 0.3508(5) 0.8691(2) 0.02053(12)
H35 H 0.3536 0.9390 0.0367
H36 H 0.2522 0.8665 -0.0007
H37 H 0.4558 0.8597 0.0022
C28 C 0.3031(4) 0.3961(3) 0.14587(10)
H38 H 0.2472 0.4634 0.1555
H39 H 0.3508 0.3602 0.1738
H40 H 0.2196 0.3485 0.1307
O6 O 0.3446(6) 0.6581(2) -0.00106(8)
loop_
_geom_bond_atom_site_label_1
_geom_bond_atom_site_label_2
_geom_bond_site_symmetry_1
_geom_bond_site_symmetry_2
O1 C3 1_555 1_555
O2 H1 1_555 1_555
O3 H2 1_555 1_555
O4 C15 1_555 1_555
O5 C26 1_555 1_555
C1 H3 1_555 1_555
C2 C1 1_555 1_555
H4 C2 1_555 1_555
H5 C2 1_555 1_555
C3 C2 1_555 1_555
C4 C3 1_555 1_555
C5 C4 1_555 1_555
H6 C5 1_555 1_555
C6 C5 1_555 1_555
H7 C6 1_555 1_555
H8 C6 1_555 1_555
C7 O2 1_555 1_555
H9 C7 1_555 1_555
C8 C7 1_555 1_555
C9 C8 1_555 1_555
C10 C1 1_555 1_555
C11 O3 1_555 1_555
C12 C11 1_555 1_555
H10 C12 1_555 1_555
H11 C12 1_555 1_555
C13 C12 1_555 1_555
C14 C8 1_555 1_555
C15 C14 1_555 1_555
C16 C15 1_555 1_555
H12 C16 1_555 1_555
H13 C16 1_555 1_555
C17 C13 1_555 1_555
H14 C17 1_555 1_555
C18 C4 1_555 1_555
H15 C18 1_555 1_555
H16 C18 1_555 1_555
H17 C18 1_555 1_555
C19 C4 1_555 1_555
H18 C19 1_555 1_555
H19 C19 1_555 1_555
H20 C19 1_555 1_555
C20 C10 1_555 1_555
H21 C20 1_555 1_555
H22 C20 1_555 1_555
H23 C20 1_555 1_555
C21 C13 1_555 1_555
H24 C21 1_555 1_555
H25 C21 1_555 1_555
H26 C21 1_555 1_555
C22 C14 1_555 1_555
H27 C22 1_555 1_555
H28 C22 1_555 1_555
H29 C22 1_555 1_555
C23 C17 1_555 1_555
H30 C23 1_555 1_555
C24 C23 1_555 1_555
H31 C24 1_555 1_555
H32 C24 1_555 1_555
C25 C24 1_555 1_555
H33 C25 1_555 1_555
H34 C25 1_555 1_555
C26 C25 1_555 1_555
C27 O5 1_555 1_555
H35 C27 1_555 1_555
H36 C27 1_555 1_555
H37 C27 1_555 1_555
C28 C23 1_555 1_555
H38 C28 1_555 1_555
H39 C28 1_555 1_555
H40 C28 1_555 1_555
O6 C26 1_555 1_555
C1 C11 1_555 1_555
C5 C10 1_555 1_555
C6 C7 1_555 1_555
C9 C10 1_555 1_555
C9 C11 1_555 1_555
C13 C14 1_555 1_555
C16 C17 1_555 1_555

#END
