
#######################################################################
#
#                 Cambridge Crystallographic Data Centre
#                                CCDC 
#
#######################################################################
#
# If this CIF has been generated from an entry in the Cambridge 
# Structural Database, then it will include bibliographic, chemical, 
# crystal, experimental, refinement or atomic coordinate data resulting 
# from the CCDC's data processing and validation procedures.
#
#######################################################################

data_GUZTEB02
_chemical_compound_source        'leaves of Psidium guajava'
_chemical_name_common            
7,9-Dihydroxy-2,2,4a-trimethyl-13-methylene-10-phenyl-1,2,2a,3,4,4a,10,10a,11,12,13,13a-dodecahydrocyclobuta[6,7]cyclonona[1,2-b]chromene-6,8-dicarbaldehyde
_chemical_formula_moiety         'C30 H34 O5'
_chemical_name_systematic        'Psidial A'
_chemical_properties_biological  
'tested for inhibition of the growth of human hepatoma cells'
_symmetry_cell_setting           tetragonal
_symmetry_space_group_name_H-M   'P 41 21 2'
_symmetry_Int_Tables_number      92
_space_group_name_Hall           'P 4abw 2nw'
loop_
_symmetry_equiv_pos_site_id
_symmetry_equiv_pos_as_xyz
1 x,y,z
2 -x,-y,1/2+z
3 1/2-y,1/2+x,1/4+z
4 1/2+y,1/2-x,3/4+z
5 1/2-x,1/2+y,1/4-z
6 1/2+x,1/2-y,3/4-z
7 y,x,-z
8 -y,-x,1/2-z
_cell_length_a                   11.14980(10)
_cell_length_b                   11.14980(10)
_cell_length_c                   40.4482(8)
_cell_angle_alpha                90
_cell_angle_beta                 90
_cell_angle_gamma                90
_cell_volume                     5028.44
_exptl_crystal_colour            colorless
_exptl_crystal_description       block
_cell_formula_units_Z            8
loop_
_atom_site_label
_atom_site_type_symbol
_atom_site_fract_x
_atom_site_fract_y
_atom_site_fract_z
O1 O -0.62259(11) -0.21933(11) -0.03818(3)
O2 O -0.78057(12) -0.61218(12) -0.03842(4)
H1 H -0.7572 -0.6837 -0.0393
O3 O -0.63313(14) -0.78878(13) -0.04184(4)
O4 O -0.36077(12) -0.55205(13) -0.04687(4)
H2 H -0.3105 -0.4960 -0.0462
O5 O -0.28330(12) -0.33778(13) -0.04239(4)
C1 C -0.79174(18) -0.12647(17) 0.06229(5)
H3 H -0.7422 -0.2012 0.0615
C2 C -0.74413(18) -0.04185(17) 0.03558(5)
H4 H -0.6953 0.0207 0.0466
H5 H -0.8136 -0.0012 0.0253
C3 C -0.66756(18) -0.09818(17) 0.00764(5)
H6 H -0.6150 -0.0341 -0.0011
H7 H -0.6145 -0.1585 0.0180
C4 C -0.72770(17) -0.15894(17) -0.02222(5)
C5 C -0.82360(16) -0.25121(16) -0.01185(5)
H8 H -0.7984 -0.2810 0.0104
C6 C -0.94669(16) -0.19101(17) -0.00667(5)
H9 H -0.9345 -0.1093 0.0023
H10 H -0.9876 -0.1833 -0.0283
C7 C -1.02666(16) -0.26177(18) 0.01692(5)
H11 H -1.1044 -0.2197 0.0192
H12 H -1.0428 -0.3418 0.0073
C8 C -0.97153(16) -0.27769(18) 0.05077(5)
C9 C -0.92612(18) -0.16528(18) 0.06698(5)
H13 H -0.9796 -0.0968 0.0608
C10 C -0.9027(2) -0.1623(2) 0.10490(5)
H14 H -0.9674 -0.1229 0.1177
H15 H -0.8825 -0.2415 0.1144
C11 C -0.7919(2) -0.08087(19) 0.09885(5)
C12 C -0.6788(2) -0.1091(2) 0.11811(6)
H16 H -0.6867 -0.0786 0.1407
H17 H -0.6100 -0.0708 0.1074
H18 H -0.6667 -0.1961 0.1187
C13 C -0.8248(2) 0.0515(2) 0.10241(6)
H19 H -0.8245 0.0735 0.1259
H20 H -0.9048 0.0652 0.0931
H21 H -0.7660 0.1006 0.0905
C14 C -0.76792(19) -0.06817(17) -0.04782(5)
H22 H -0.8063 -0.1100 -0.0663
H23 H -0.6982 -0.0234 -0.0559
H24 H -0.8253 -0.0124 -0.0378
C15 C -0.96321(18) -0.38573(18) 0.06433(5)
H25 H -0.9270 -0.3950 0.0854
H26 H -0.9935 -0.4538 0.0529
C16 C -0.83136(16) -0.36418(16) -0.03432(5)
H27 H -0.8814 -0.4243 -0.0222
C17 C -0.70746(16) -0.41577(16) -0.03661(5)
C18 C -0.60952(17) -0.33992(17) -0.03786(4)
C19 C -0.48984(16) -0.38263(17) -0.04088(5)
C20 C -0.47209(17) -0.50692(18) -0.04350(5)
C21 C -0.56879(18) -0.58736(17) -0.04242(5)
C22 C -0.68575(17) -0.53917(16) -0.03906(5)
C23 C -0.88915(17) -0.34737(17) -0.06828(5)
C24 C -0.82277(18) -0.32575(18) -0.09667(5)
H28 H -0.7379 -0.3204 -0.0951
C25 C -0.8765(2) -0.3119(2) -0.12705(5)
H29 H -0.8289 -0.2969 -0.1461
C26 C -1.0003(2) -0.3197(2) -0.12988(6)
H30 H -1.0379 -0.3097 -0.1508
C27 C -1.06797(19) -0.3422(2) -0.10220(6)
H31 H -1.1527 -0.3479 -0.1040
C28 C -1.01331(18) -0.3566(2) -0.07165(5)
H32 H -1.0611 -0.3730 -0.0527
C29 C -0.38877(17) -0.30359(19) -0.04029(5)
H33 H -0.4034 -0.2200 -0.0382
C30 C -0.5508(2) -0.71490(19) -0.04347(5)
H34 H -0.4711 -0.7441 -0.0455
loop_
_geom_bond_atom_site_label_1
_geom_bond_atom_site_label_2
_geom_bond_site_symmetry_1
_geom_bond_site_symmetry_2
O1 C4 1_555 1_555
O2 H1 1_555 1_555
O3 C30 1_555 1_555
O4 H2 1_555 1_555
O5 C29 1_555 1_555
C1 H3 1_555 1_555
C2 C1 1_555 1_555
H4 C2 1_555 1_555
H5 C2 1_555 1_555
C3 C2 1_555 1_555
H6 C3 1_555 1_555
H7 C3 1_555 1_555
C4 C3 1_555 1_555
C5 C4 1_555 1_555
H8 C5 1_555 1_555
C6 C5 1_555 1_555
H9 C6 1_555 1_555
H10 C6 1_555 1_555
C7 C6 1_555 1_555
H11 C7 1_555 1_555
H12 C7 1_555 1_555
C8 C7 1_555 1_555
C9 C1 1_555 1_555
H13 C9 1_555 1_555
C10 C9 1_555 1_555
H14 C10 1_555 1_555
H15 C10 1_555 1_555
C11 C1 1_555 1_555
C12 C11 1_555 1_555
H16 C12 1_555 1_555
H17 C12 1_555 1_555
H18 C12 1_555 1_555
C13 C11 1_555 1_555
H19 C13 1_555 1_555
H20 C13 1_555 1_555
H21 C13 1_555 1_555
C14 C4 1_555 1_555
H22 C14 1_555 1_555
H23 C14 1_555 1_555
H24 C14 1_555 1_555
C15 C8 1_555 1_555
H25 C15 1_555 1_555
H26 C15 1_555 1_555
C16 C5 1_555 1_555
H27 C16 1_555 1_555
C17 C16 1_555 1_555
C18 O1 1_555 1_555
C19 C18 1_555 1_555
C20 O4 1_555 1_555
C21 C20 1_555 1_555
C22 O2 1_555 1_555
C23 C16 1_555 1_555
C24 C23 1_555 1_555
H28 C24 1_555 1_555
C25 C24 1_555 1_555
H29 C25 1_555 1_555
C26 C25 1_555 1_555
H30 C26 1_555 1_555
C27 C26 1_555 1_555
H31 C27 1_555 1_555
C28 C23 1_555 1_555
H32 C28 1_555 1_555
C29 C19 1_555 1_555
H33 C29 1_555 1_555
C30 C21 1_555 1_555
H34 C30 1_555 1_555
C8 C9 1_555 1_555
C10 C11 1_555 1_555
C17 C18 1_555 1_555
C17 C22 1_555 1_555
C19 C20 1_555 1_555
C21 C22 1_555 1_555
C27 C28 1_555 1_555

#END
