
#######################################################################
#
#                 Cambridge Crystallographic Data Centre
#                                CCDC 
#
#######################################################################
#
# If this CIF has been generated from an entry in the Cambridge 
# Structural Database, then it will include bibliographic, chemical, 
# crystal, experimental, refinement or atomic coordinate data resulting 
# from the CCDC's data processing and validation procedures.
#
#######################################################################

data_GUZYAC
_chemical_formula_moiety         'C18 H16 I1 N1 O1'
_chemical_name_systematic        3-(Diphenylamino)-2-iodocyclohex-2-en-1-one
_symmetry_cell_setting           monoclinic
_symmetry_space_group_name_H-M   'P 21/c'
_symmetry_Int_Tables_number      14
_space_group_name_Hall           '-P 2ybc'
loop_
_symmetry_equiv_pos_site_id
_symmetry_equiv_pos_as_xyz
1 x,y,z
2 -x,1/2+y,1/2-z
3 -x,-y,-z
4 x,1/2-y,1/2+z
_cell_length_a                   10.497(2)
_cell_length_b                   13.607(3)
_cell_length_c                   11.987(2)
_cell_angle_alpha                90
_cell_angle_beta                 114.36(3)
_cell_angle_gamma                90
_cell_volume                     1559.71
_exptl_crystal_colour            yellow
_chemical_melting_point          106-108deg.C
_cell_formula_units_Z            4
loop_
_atom_site_label
_atom_site_type_symbol
_atom_site_fract_x
_atom_site_fract_y
_atom_site_fract_z
I1 I 0.819294(14) 1.064712(11) 0.677984(12)
O1 O 0.98994(15) 1.12367(12) 0.95129(13)
N1 N 0.57457(19) 0.94131(12) 0.73456(17)
C1 C 0.6560(2) 1.00491(16) 0.82807(18)
C2 C 0.7722(2) 1.05155(15) 0.83105(19)
C3 C 0.8773(2) 1.09297(15) 0.94469(19)
C4 C 0.8426(2) 1.09444(18) 1.0547(2)
H1 H 0.8877 1.1505 1.1057
H2 H 0.8789 1.0354 1.1027
C5 C 0.6858(2) 1.10041(16) 1.01742(19)
H3 H 0.6663 1.0982 1.0898
H4 H 0.6502 1.1620 0.9755
C6 C 0.6141(2) 1.01533(16) 0.93376(18)
H5 H 0.6367 0.9550 0.9811
H6 H 0.5137 1.0246 0.9017
C7 C 0.6382(2) 0.86990(15) 0.68622(19)
C8 C 0.5737(2) 0.84417(16) 0.56294(19)
H7 H 0.4901 0.8739 0.5120
C9 C 0.6342(2) 0.77436(17) 0.5167(2)
H8 H 0.5894 0.7555 0.4351
C10 C 0.7612(2) 0.73217(17) 0.5910(2)
H9 H 0.8039 0.6874 0.5587
C11 C 0.8237(2) 0.75718(17) 0.7132(2)
H10 H 0.9078 0.7279 0.7638
C12 C 0.7627(2) 0.82532(16) 0.7613(2)
H11 H 0.8052 0.8412 0.8440
C13 C 0.4263(2) 0.93529(15) 0.69949(19)
C14 C 0.3475(2) 1.02067(18) 0.67544(19)
H12 H 0.3904 1.0813 0.6806
C15 C 0.2047(2) 1.01568(19) 0.6436(2)
H13 H 0.1527 1.0732 0.6301
C16 C 0.1396(3) 0.92612(18) 0.6319(2)
H14 H 0.0436 0.9230 0.6087
C17 C 0.2181(2) 0.84053(18) 0.6550(2)
H15 H 0.1744 0.7799 0.6478
C18 C 0.3611(2) 0.84479(17) 0.68860(19)
H16 H 0.4133 0.7872 0.7038
loop_
_geom_bond_atom_site_label_1
_geom_bond_atom_site_label_2
_geom_bond_site_symmetry_1
_geom_bond_site_symmetry_2
I1 C2 1_555 1_555
O1 C3 1_555 1_555
N1 C1 1_555 1_555
C1 C2 1_555 1_555
C2 C3 1_555 1_555
C3 C4 1_555 1_555
C4 H1 1_555 1_555
H2 C4 1_555 1_555
C5 C4 1_555 1_555
H3 C5 1_555 1_555
H4 C5 1_555 1_555
C6 C1 1_555 1_555
H5 C6 1_555 1_555
H6 C6 1_555 1_555
C7 N1 1_555 1_555
C8 C7 1_555 1_555
H7 C8 1_555 1_555
C9 C8 1_555 1_555
H8 C9 1_555 1_555
C10 C9 1_555 1_555
H9 C10 1_555 1_555
C11 C10 1_555 1_555
H10 C11 1_555 1_555
C12 C7 1_555 1_555
H11 C12 1_555 1_555
C13 N1 1_555 1_555
C14 C13 1_555 1_555
H12 C14 1_555 1_555
C15 C14 1_555 1_555
H13 C15 1_555 1_555
C16 C15 1_555 1_555
H14 C16 1_555 1_555
C17 C16 1_555 1_555
H15 C17 1_555 1_555
C18 C13 1_555 1_555
H16 C18 1_555 1_555
C5 C6 1_555 1_555
C11 C12 1_555 1_555
C17 C18 1_555 1_555

#END
