
#######################################################################
#
#                 Cambridge Crystallographic Data Centre
#                                CCDC 
#
#######################################################################
#
# If this CIF has been generated from an entry in the Cambridge 
# Structural Database, then it will include bibliographic, chemical, 
# crystal, experimental, refinement or atomic coordinate data resulting 
# from the CCDC's data processing and validation procedures.
#
#######################################################################

data_GUZYIK
_chemical_formula_moiety         'C19 H16 N2 O2'
_chemical_name_systematic        
5-(3-Methoxyphenyl)-3,10-dihydroazepino[3,4-b]indol-1(2H)-one
_symmetry_cell_setting           monoclinic
_symmetry_space_group_name_H-M   'P 21/c'
_symmetry_Int_Tables_number      14
_space_group_name_Hall           '-P 2ybc'
loop_
_symmetry_equiv_pos_site_id
_symmetry_equiv_pos_as_xyz
1 x,y,z
2 -x,1/2+y,1/2-z
3 -x,-y,-z
4 x,1/2-y,1/2+z
_cell_length_a                   9.3756(3)
_cell_length_b                   6.5948(2)
_cell_length_c                   25.3990(8)
_cell_angle_alpha                90
_cell_angle_beta                 100.003(2)
_cell_angle_gamma                90
_cell_volume                     1546.55
_exptl_crystal_colour            colorless
_exptl_crystal_description       prism
_cell_formula_units_Z            4
loop_
_atom_site_label
_atom_site_type_symbol
_atom_site_fract_x
_atom_site_fract_y
_atom_site_fract_z
C1 C 0.25251(12) 1.14050(18) 0.02933(5)
H1 H 0.1918 1.1409 0.0575
H2 H 0.2478 1.2776 0.0133
C2 C 0.40562(12) 1.09546(18) 0.05416(5)
H3 H 0.4794 1.1896 0.0498
C3 C 0.44157(11) 0.92647(17) 0.08234(4)
C4 C 0.33334(11) 0.77319(16) 0.08889(4)
C5 C 0.33894(11) 0.62961(17) 0.13195(4)
C6 C 0.43736(13) 0.58865(19) 0.17881(4)
H4 H 0.5241 0.6651 0.1875
C7 C 0.40678(14) 0.4366(2) 0.21200(5)
H5 H 0.4734 0.4078 0.2438
C8 C 0.27914(15) 0.3232(2) 0.19983(5)
H6 H 0.2605 0.2198 0.2238
C9 C 0.18056(13) 0.3576(2) 0.15432(5)
H7 H 0.0941 0.2800 0.1462
C10 C 0.21199(11) 0.51086(17) 0.12034(4)
C11 C 0.20674(11) 0.73175(16) 0.05349(4)
C12 C 0.15742(11) 0.80431(17) -0.00127(4)
C13 C 0.59519(11) 0.88411(17) 0.10645(4)
C14 C 0.67420(12) 1.02475(18) 0.14062(4)
H8 H 0.6295 1.1463 0.1496
C15 C 0.81905(12) 0.9866(2) 0.16164(4)
C16 C 0.88480(13) 0.8106(2) 0.14767(5)
H9 H 0.9844 0.7867 0.1610
C17 C 0.80553(13) 0.6712(2) 0.11449(5)
H10 H 0.8506 0.5502 0.1053
C18 C 0.66046(12) 0.70544(19) 0.09428(5)
H11 H 0.6058 0.6067 0.0721
C19 C 0.83917(16) 1.2802(2) 0.21758(6)
H12 H 0.7890 1.3646 0.1884
H13 H 0.9137 1.3610 0.2401
H14 H 0.7693 1.2307 0.2392
N1 N 0.13526(10) 0.57435(15) 0.07246(4)
N2 N 0.19358(10) 0.99359(15) -0.01187(4)
O1 O 0.08922(9) 0.69187(13) -0.03593(3)
O2 O 0.90524(9) 1.11237(15) 0.19600(4)
H15 H 0.0584(14) 0.515(2) 0.0535(5)
H16 H 0.1731(14) 1.031(2) -0.0455(6)
loop_
_geom_bond_atom_site_label_1
_geom_bond_atom_site_label_2
_geom_bond_site_symmetry_1
_geom_bond_site_symmetry_2
C1 H1 1_555 1_555
H2 C1 1_555 1_555
C2 C1 1_555 1_555
H3 C2 1_555 1_555
C3 C2 1_555 1_555
C4 C3 1_555 1_555
C5 C4 1_555 1_555
C6 C5 1_555 1_555
H4 C6 1_555 1_555
C7 C6 1_555 1_555
H5 C7 1_555 1_555
C8 C7 1_555 1_555
H6 C8 1_555 1_555
C9 C8 1_555 1_555
H7 C9 1_555 1_555
C10 C5 1_555 1_555
C11 C4 1_555 1_555
C12 C11 1_555 1_555
C13 C3 1_555 1_555
C14 C13 1_555 1_555
H8 C14 1_555 1_555
C15 C14 1_555 1_555
C16 C15 1_555 1_555
H9 C16 1_555 1_555
C17 C16 1_555 1_555
H10 C17 1_555 1_555
C18 C13 1_555 1_555
H11 C18 1_555 1_555
C19 H12 1_555 1_555
H13 C19 1_555 1_555
H14 C19 1_555 1_555
N1 C10 1_555 1_555
N2 C1 1_555 1_555
O1 C12 1_555 1_555
O2 C15 1_555 1_555
H15 N1 1_555 1_555
H16 N2 1_555 1_555
C9 C10 1_555 1_555
C11 N1 1_555 1_555
C12 N2 1_555 1_555
C17 C18 1_555 1_555
C19 O2 1_555 1_555

#END
