
#######################################################################
#
#                 Cambridge Crystallographic Data Centre
#                                CCDC 
#
#######################################################################
#
# If this CIF has been generated from an entry in the Cambridge 
# Structural Database, then it will include bibliographic, chemical, 
# crystal, experimental, refinement or atomic coordinate data resulting 
# from the CCDC's data processing and validation procedures.
#
#######################################################################

data_HABBES
_chemical_formula_moiety         'C31 H28 S4 2+,2(Cl1 O4 1-)'
_chemical_name_systematic        
'1,2-bis(5,10-dithianthreniumyl)cycloheptane diperchlorate'
_symmetry_cell_setting           monoclinic
_symmetry_space_group_name_H-M   'P 21/n'
_symmetry_Int_Tables_number      14
_space_group_name_Hall           '-P 2yn'
loop_
_symmetry_equiv_pos_site_id
_symmetry_equiv_pos_as_xyz
1 x,y,z
2 1/2-x,1/2+y,1/2-z
3 -x,-y,-z
4 1/2+x,1/2-y,1/2+z
_cell_length_a                   14.236(3)
_cell_length_b                   13.838(3)
_cell_length_c                   16.701(3)
_cell_angle_alpha                90
_cell_angle_beta                 107.48(3)
_cell_angle_gamma                90
_cell_volume                     3138.13
_chemical_melting_point          '142.5-143 deg.C'
_cell_formula_units_Z            4
loop_
_atom_site_label
_atom_site_type_symbol
_atom_site_fract_x
_atom_site_fract_y
_atom_site_fract_z
S1 S 0.4566(1) 0.2409(1) 0.1199(1)
S2 S 0.3953(1) 0.1618(1) -0.0762(1)
S3 S 0.1521(1) 0.3291(1) 0.0365(1)
S4 S 0.0990(1) 0.1320(1) 0.1230(1)
C1 C 0.5325(3) 0.2576(3) 0.0544(3)
C2 C 0.6218(3) 0.3050(3) 0.0887(3)
C3 C 0.6765(3) 0.3302(4) 0.0354(5)
C4 C 0.6418(4) 0.3085(4) -0.0485(4)
C5 C 0.5567(4) 0.2590(3) -0.0811(3)
C6 C 0.5011(3) 0.2312(3) -0.0294(3)
C7 C 0.3844(3) 0.0919(3) 0.0083(3)
C8 C 0.3452(3) 0.0000(3) -0.0101(4)
C9 C 0.3275(4) -0.0548(4) 0.0511(6)
C10 C 0.3519(4) -0.0242(4) 0.1320(5)
C11 C 0.3946(3) 0.0669(3) 0.1549(3)
C12 C 0.4080(3) 0.1242(3) 0.0911(3)
C13 C 0.1329(2) 0.2178(3) -0.0164(2)
C14 C 0.1418(3) 0.2155(3) -0.0975(2)
C15 C 0.1361(3) 0.1276(4) -0.1378(3)
C16 C 0.1198(3) 0.0445(4) -0.0988(3)
C17 C 0.1063(3) 0.0470(3) -0.0210(3)
C18 C 0.1126(3) 0.1347(3) 0.0218(2)
C19 C 0.0438(3) 0.2446(3) 0.1298(2)
C20 C -0.0237(3) 0.2494(3) 0.1750(3)
C21 C -0.0650(3) 0.3361(4) 0.1849(3)
C22 C -0.0425(3) 0.4192(4) 0.1495(3)
C23 C 0.0231(3) 0.4155(3) 0.1027(3)
C24 C 0.0663(2) 0.3283(3) 0.0944(2)
C25 C 0.3489(2) 0.3215(2) 0.0681(2)
C26 C 0.2742(2) 0.3115(3) 0.1178(2)
C27 C 0.2776(3) 0.3848(3) 0.1878(2)
C28 C 0.3795(3) 0.4140(3) 0.2434(3)
C29 C 0.4235(3) 0.4965(3) 0.2066(3)
C30 C 0.4603(3) 0.4692(3) 0.1337(3)
C31 C 0.3847(3) 0.4230(3) 0.0573(2)
H1 H 0.6442 0.3196 0.1456
H2 H 0.7366 0.3916 0.0567
H3 H 0.6775 0.3283 -0.0840
H4 H 0.5356 0.2437 -0.1379
H5 H 0.3309 -0.0241 -0.0644
H6 H 0.2979 -0.1150 0.0373
H7 H 0.3401 -0.0641 0.1727
H8 H 0.4131 0.0879 0.2104
H9 H 0.1515 0.2722 -0.1239
H10 H 0.1432 0.1246 -0.1913
H11 H 0.1179 -0.0146 -0.1259
H12 H 0.0930 -0.0098 0.0034
H13 H -0.0408 0.1937 0.1985
H14 H -0.1091 0.3389 0.2161
H15 H -0.0712 0.4776 0.1568
H16 H 0.0378 0.4710 0.0774
H17 H 0.3177 0.2956 0.0118
H18 H 0.2777 0.2459 0.1406
H19 H 0.2432 0.4428 0.1621
H20 H 0.2415 0.3580 0.2234
H21 H 0.4231 0.3586 0.2514
H22 H 0.3751 0.4332 0.2980
H23 H 0.3740 0.5466 0.1881
H24 H 0.4778 0.5238 0.2506
H25 H 0.5148 0.4245 0.1540
H26 H 0.4861 0.5269 0.1148
H27 H 0.3277 0.4652 0.0404
H28 H 0.4133 0.4215 0.0115
Cl1 Cl -0.1365(1) 0.3187(1) -0.1226(1)
O1 O -0.2113(2) 0.3103(3) -0.1980(2)
O2 O -0.0479(2) 0.3387(2) -0.1385(2)
O3 O -0.1278(3) 0.2330(2) -0.0777(2)
O4 O -0.1585(2) 0.3939(2) -0.0757(2)
Cl2 Cl 0.2519(1) 0.4141(1) -0.2236(1)
O5 O 0.1610(2) 0.3729(3) -0.2641(2)
O6 O 0.2507(3) 0.5114(2) -0.2453(3)
O7 O 0.2702(4) 0.4065(3) -0.1371(1)
O8 O 0.3254(3) 0.3668(3) -0.2471(3)
loop_
_geom_bond_atom_site_label_1
_geom_bond_atom_site_label_2
_geom_bond_site_symmetry_1
_geom_bond_site_symmetry_2
S1 C1 1_555 1_555
S2 C6 1_555 1_555
S3 C13 1_555 1_555
S4 C18 1_555 1_555
Cl1 O1 1_555 1_555
O2 Cl1 1_555 1_555
O3 Cl1 1_555 1_555
O4 Cl1 1_555 1_555
Cl2 O5 1_555 1_555
O6 Cl2 1_555 1_555
O7 Cl2 1_555 1_555
O8 Cl2 1_555 1_555
C1 C2 1_555 1_555
C2 C3 1_555 1_555
C3 C4 1_555 1_555
C4 C5 1_555 1_555
C5 C6 1_555 1_555
C6 C1 1_555 1_555
C7 S2 1_555 1_555
C8 C7 1_555 1_555
C9 C8 1_555 1_555
C10 C9 1_555 1_555
C11 C10 1_555 1_555
C12 S1 1_555 1_555
C13 C14 1_555 1_555
C14 C15 1_555 1_555
C15 C16 1_555 1_555
C16 C17 1_555 1_555
C17 C18 1_555 1_555
C18 C13 1_555 1_555
C19 S4 1_555 1_555
C20 C19 1_555 1_555
C21 C20 1_555 1_555
C22 C21 1_555 1_555
C23 C22 1_555 1_555
C24 S3 1_555 1_555
C25 S1 1_555 1_555
C26 S3 1_555 1_555
C27 C26 1_555 1_555
C28 C27 1_555 1_555
C29 C28 1_555 1_555
C30 C29 1_555 1_555
C31 C25 1_555 1_555
H1 C2 1_555 1_555
H2 C3 1_555 1_555
H3 C4 1_555 1_555
H4 C5 1_555 1_555
H5 C8 1_555 1_555
H6 C9 1_555 1_555
H7 C10 1_555 1_555
H8 C11 1_555 1_555
H9 C14 1_555 1_555
H10 C15 1_555 1_555
H11 C16 1_555 1_555
H12 C17 1_555 1_555
H13 C20 1_555 1_555
H14 C21 1_555 1_555
H15 C22 1_555 1_555
H16 C23 1_555 1_555
H17 C25 1_555 1_555
H18 C26 1_555 1_555
H19 C27 1_555 1_555
H20 C27 1_555 1_555
H21 C28 1_555 1_555
H22 C28 1_555 1_555
H23 C29 1_555 1_555
H24 C29 1_555 1_555
H25 C30 1_555 1_555
H26 C30 1_555 1_555
H27 C31 1_555 1_555
H28 C31 1_555 1_555
C7 C12 1_555 1_555
C11 C12 1_555 1_555
C19 C24 1_555 1_555
C23 C24 1_555 1_555
C25 C26 1_555 1_555
C30 C31 1_555 1_555

#END
