
#######################################################################
#
#                 Cambridge Crystallographic Data Centre
#                                CCDC 
#
#######################################################################
#
# If this CIF has been generated from an entry in the Cambridge 
# Structural Database, then it will include bibliographic, chemical, 
# crystal, experimental, refinement or atomic coordinate data resulting 
# from the CCDC's data processing and validation procedures.
#
#######################################################################

data_HABBUI
_chemical_formula_moiety         'C32 H28 S4 2+,2(Cl1 O4 1-),C2 H3 N1'
_chemical_name_systematic        
'5,6-bis(5,10-dithianthreniumyl)cyclo-octene diperchlorate acetonitrile solvate'
_symmetry_cell_setting           triclinic
_symmetry_space_group_name_H-M   'P -1'
_symmetry_Int_Tables_number      2
_space_group_name_Hall           '-P 1'
loop_
_symmetry_equiv_pos_site_id
_symmetry_equiv_pos_as_xyz
1 x,y,z
2 -x,-y,-z
_cell_length_a                   10.083(2)
_cell_length_b                   13.364(3)
_cell_length_c                   14.413(3)
_cell_angle_alpha                71.79(3)
_cell_angle_beta                 77.50(3)
_cell_angle_gamma                72.73(3)
_cell_volume                     1745.25
_chemical_melting_point          '115-116 deg.C(dec.)'
_cell_formula_units_Z            2
_exptl_crystal_recrystallization_method acetonitrile/ether
loop_
_atom_site_label
_atom_site_type_symbol
_atom_site_fract_x
_atom_site_fract_y
_atom_site_fract_z
S1 S 0.7933(1) 1.0586(1) 0.2812(1)
S2 S 0.4531(1) 1.1478(1) 0.2698(1)
S3 S 0.7674(1) 1.4043(1) 0.1859(1)
S4 S 0.6942(1) 1.4001(1) 0.4198(1)
C1 C 0.7044(4) 1.0016(4) 0.2265(3)
C2 C 0.7830(5) 0.9137(4) 0.1895(3)
C3 C 0.7206(5) 0.8728(4) 0.1385(4)
C4 C 0.5823(6) 0.9182(5) 0.1255(4)
C5 C 0.5017(5) 1.0022(4) 0.1649(3)
C6 C 0.5618(4) 1.0437(4) 0.2175(3)
C7 C 0.5269(4) 1.1258(4) 0.3758(3)
C8 C 0.4382(5) 1.1531(4) 0.4573(4)
C9 C 0.4909(6) 1.1423(4) 0.5410(4)
C10 C 0.6320(6) 1.1038(4) 0.5477(4)
C11 C 0.7242(5) 1.0748(4) 0.4676(3)
C12 C 0.6696(4) 1.0895(3) 0.3825(3)
C13 C 0.5939(5) 1.4218(4) 0.2480(3)
C14 C 0.4892(5) 1.4341(4) 0.1936(4)
C15 C 0.3545(5) 1.4374(5) 0.2406(5)
C16 C 0.3261(5) 1.4296(5) 0.3410(5)
C17 C 0.4292(5) 1.4208(4) 0.3941(4)
C18 C 0.5661(5) 1.4165(4) 0.3473(4)
C19 C 0.8086(5) 1.4743(4) 0.3347(4)
C20 C 0.8721(6) 1.5330(5) 0.3685(5)
C21 C 0.9659(6) 1.5895(5) 0.3003(7)
C22 C 0.9967(6) 1.5884(5) 0.2039(6)
C23 C 0.9351(5) 1.5319(4) 0.1712(4)
C24 C 0.8425(5) 1.4747(4) 0.2362(4)
C25 C 0.7783(4) 1.1991(3) 0.1965(3)
C26 C 0.8462(4) 1.2580(3) 0.2421(3)
C27 C 1.0051(4) 1.2411(4) 0.2256(4)
C28 C 1.0859(5) 1.1222(4) 0.2567(4)
C29 C 1.1015(5) 1.0492(4) 0.1931(4)
C30 C 1.0595(5) 1.0671(5) 0.1093(4)
C31 C 0.9776(5) 1.1712(4) 0.0476(4)
C32 C 0.8223(5) 1.2007(4) 0.0877(3)
H1 H 0.8764 0.8832 0.1992
H2 H 0.7718 0.8146 0.1130
H3 H 0.5419 0.8915 0.0891
H4 H 0.4078 1.0307 0.1561
H5 H 0.3422 1.1790 0.4550
H6 H 0.4297 1.1615 0.5945
H7 H 0.6657 1.0972 0.6051
H8 H 0.8196 1.0463 0.4712
H9 H 0.5100 1.4400 0.1263
H10 H 0.2832 1.4449 0.2056
H11 H 0.2354 1.4302 0.3730
H12 H 0.4074 1.4178 0.4608
H13 H 0.8532 1.5349 0.4340
H14 H 1.0085 1.6293 0.3221
H15 H 1.0597 1.6262 0.1612
H16 H 0.9543 1.5312 0.1053
H17 H 0.6780 1.2350 0.2026
H18 H 1.0292 1.2815 0.2622
H19 H 1.0348 1.2709 0.1562
H20 H 1.1794 1.1213 0.2645
H21 H 1.0411 1.0898 0.3213
H22 H 1.1504 0.9778 0.2182
H23 H 1.0831 1.0073 0.0836
H24 H 0.9866 1.1646 -0.0187
H25 H 1.0182 1.2300 0.0436
H26 H 0.7787 1.1515 0.0748
H27 H 0.7820 1.2732 0.0491
N1 N 0.3824(7) 0.7125(5) 0.2725(5)
C33 C 0.1983(9) 0.7750(6) 0.1556(6)
C34 C 0.2789(9) 0.7484(5) 0.2063(5)
H28 H 0.2136 0.7218 0.1200
H29 H 0.2054 0.8437 0.1100
H30 H 0.1066 0.7824 0.1933
Cl1 Cl 0.0172(1) 1.2151(1) 0.5383(1)
O1 O 0.1296(4) 1.1811(4) 0.5941(3)
O2 O -0.0853(5) 1.3024(5) 0.5627(4)
O3 O 0.0652(7) 1.2443(7) 0.4410(4)
O4 O -0.0442(8) 1.1324(6) 0.5531(8)
Cl2 Cl 0.3488(2) 0.3308(1) 1.0056(1)
O5 O 0.3574(5) 0.3481(4) 0.9034(3)
O6 O 0.3029(7) 0.2387(5) 1.0574(4)
O7 O 0.4799(7) 0.3136(7) 1.0327(5)
O8 O 0.2600(9) 0.4194(5) 1.0337(4)
loop_
_geom_bond_atom_site_label_1
_geom_bond_atom_site_label_2
_geom_bond_site_symmetry_1
_geom_bond_site_symmetry_2
S1 C1 1_555 1_555
S2 C6 1_555 1_555
S3 C13 1_555 1_555
S4 C18 1_555 1_555
N1 C34 1_555 1_555
C1 C2 1_555 1_555
C2 C3 1_555 1_555
C3 C4 1_555 1_555
C4 C5 1_555 1_555
C5 C6 1_555 1_555
C6 C1 1_555 1_555
C7 S2 1_555 1_555
C8 C7 1_555 1_555
C9 C8 1_555 1_555
C10 C9 1_555 1_555
C11 C10 1_555 1_555
C12 S1 1_555 1_555
C13 C14 1_555 1_555
C14 C15 1_555 1_555
C15 C16 1_555 1_555
C16 C17 1_555 1_555
C17 C18 1_555 1_555
C18 C13 1_555 1_555
C19 S4 1_555 1_555
C20 C19 1_555 1_555
C21 C20 1_555 1_555
C22 C21 1_555 1_555
C23 C22 1_555 1_555
C24 S3 1_555 1_555
C25 S1 1_555 1_555
C26 S3 1_555 1_555
C27 C26 1_555 1_555
C28 C27 1_555 1_555
C29 C28 1_555 1_555
C30 C29 1_555 1_555
C31 C30 1_555 1_555
C32 C25 1_555 1_555
C33 C34 1_555 1_555
Cl1 O1 1_555 1_555
O2 Cl1 1_555 1_555
O3 Cl1 1_555 1_555
O4 Cl1 1_555 1_555
Cl2 O5 1_555 1_555
O6 Cl2 1_555 1_555
O7 Cl2 1_555 1_555
O8 Cl2 1_555 1_555
H1 C2 1_555 1_555
H2 C3 1_555 1_555
H3 C4 1_555 1_555
H4 C5 1_555 1_555
H5 C8 1_555 1_555
H6 C9 1_555 1_555
H7 C10 1_555 1_555
H8 C11 1_555 1_555
H9 C14 1_555 1_555
H10 C15 1_555 1_555
H11 C16 1_555 1_555
H12 C17 1_555 1_555
H13 C20 1_555 1_555
H14 C21 1_555 1_555
H15 C22 1_555 1_555
H16 C23 1_555 1_555
H17 C25 1_555 1_555
H18 C27 1_555 1_555
H19 C27 1_555 1_555
H20 C28 1_555 1_555
H21 C28 1_555 1_555
H22 C29 1_555 1_555
H23 C30 1_555 1_555
H24 C31 1_555 1_555
H25 C31 1_555 1_555
H26 C32 1_555 1_555
H27 C32 1_555 1_555
H28 C33 1_555 1_555
H29 C33 1_555 1_555
H30 C33 1_555 1_555
C7 C12 1_555 1_555
C11 C12 1_555 1_555
C19 C24 1_555 1_555
C23 C24 1_555 1_555
C25 C26 1_555 1_555
C31 C32 1_555 1_555

#END
