
#######################################################################
#
#                 Cambridge Crystallographic Data Centre
#                                CCDC 
#
#######################################################################
#
# If this CIF has been generated from an entry in the Cambridge 
# Structural Database, then it will include bibliographic, chemical, 
# crystal, experimental, refinement or atomic coordinate data resulting 
# from the CCDC's data processing and validation procedures.
#
#######################################################################

data_HABBIW
_chemical_formula_moiety         'C17 H16 S2 2+,2(F6 P1 1-),C2 H3 N1'
_chemical_name_systematic        
'1,2-(5,10-dithianthreniumdiyl)cyclopentane bis(hexafluorophosphate) acetonitrile solvate'
_symmetry_cell_setting           orthorhombic
_symmetry_space_group_name_H-M   'P n m a'
_symmetry_Int_Tables_number      62
_space_group_name_Hall           '-P 2ac 2n'
loop_
_symmetry_equiv_pos_site_id
_symmetry_equiv_pos_as_xyz
1 x,y,z
2 1/2-x,-y,1/2+z
3 1/2+x,1/2-y,1/2-z
4 -x,1/2+y,-z
5 -x,-y,-z
6 1/2+x,y,1/2-z
7 1/2-x,1/2+y,1/2+z
8 x,1/2-y,z
_cell_length_a                   12.612(3)
_cell_length_b                   8.1037(16)
_cell_length_c                   23.074(5)
_cell_angle_alpha                90
_cell_angle_beta                 90
_cell_angle_gamma                90
_cell_volume                     2358.25
_chemical_melting_point          '176-177.5 deg.C(dec.)'
_cell_formula_units_Z            4
loop_
_atom_site_label
_atom_site_type_symbol
_atom_site_fract_x
_atom_site_fract_y
_atom_site_fract_z
S1 S 0.7392(1) 0.0597(2) 0.6468(1)
C1 C 0.7516(3) 0.1648(6) 0.7132(2)
C2 C 0.7708(4) 0.0772(7) 0.7635(2)
C3 C 0.7906(4) 0.1646(7) 0.8140(2)
C4 C 0.6315(4) 0.1649(6) 0.6144(2)
C5 C 0.5513(4) 0.0776(7) 0.5878(2)
C6 C 0.4709(4) 0.1653(7) 0.5614(2)
C7 C 0.8489(4) 0.1552(6) 0.6076(2)
C8 C 0.9543(4) 0.1023(7) 0.6344(3)
C9 C 0.9933(6) 0.2500 0.6686(4)
H1 H 0.7704 -0.0376 0.7635
H2 H 0.8041 0.1078 0.8482
H3 H 0.5514 -0.0372 0.5876
H4 H 0.4158 0.1088 0.5434
H5 H 0.8469 0.1169 0.5673
H6 H 0.9443 0.0079 0.6596
H7 H 1.0048 0.0730 0.6044
H8 H 1.0701 0.2500 0.6713
H9 H 0.9639 0.2500 0.7075
C1G C 0.7516(3) 0.3352(6) 0.7132(2)
S1G S 0.7392(1) 0.4403(2) 0.6468(1)
C4G C 0.6315(4) 0.3351(6) 0.6144(2)
C7G C 0.8489(4) 0.3448(6) 0.6076(2)
C8G C 0.9543(4) 0.3977(7) 0.6344(3)
H6G H 0.9443 0.4921 0.6596
H7G H 1.0048 0.4270 0.6044
H5G H 0.8469 0.3831 0.5673
C6G C 0.4709(4) 0.3347(7) 0.5614(2)
C5G C 0.5513(4) 0.4224(7) 0.5878(2)
H3G H 0.5514 0.5372 0.5876
H4G H 0.4158 0.3912 0.5434
C2G C 0.7708(4) 0.4228(7) 0.7635(2)
C3G C 0.7906(4) 0.3354(7) 0.8140(2)
H2G H 0.8041 0.3922 0.8482
H1G H 0.7704 0.5376 0.7635
N1 N 0.6549(10) 0.2500 0.4573(6)
C10 C 0.8398(17) 0.2500 0.4193(11)
C11 C 0.7334(11) 0.2500 0.4404(5)
P1 P 0.1715(2) 0.2500 0.4887(1)
F1 F 0.2581(3) 0.1151(5) 0.4750(2)
F2 F 0.2057(4) 0.2500 0.5540(2)
F3 F 0.0884(3) 0.1114(5) 0.4996(2)
F4 F 0.1380(4) 0.2500 0.4228(2)
F1G F 0.2581(3) 0.3849(5) 0.4750(2)
F3G F 0.0884(3) 0.3886(5) 0.4996(2)
P2 P 0.4815(2) 0.2500 0.2729(1)
F5 F 0.5717(5) 0.2500 0.3186(1)
F6 F 0.3953(5) 0.2500 0.2254(3)
F7 F 0.5707(5) 0.2500 0.2251(2)
F8 F 0.3972(5) 0.2500 0.3220(3)
F9 F 0.4806(3) 0.0553(4) 0.2734(2)
F9G F 0.4806(3) 0.4447(4) 0.2734(2)
H10? H 0.8410(70) 0.210(15) 0.3800(40)
H11? H 0.8830(90) 0.180(20) 0.4430(50)
H12? H 0.868(11) 0.360(16) 0.4210(60)
loop_
_geom_bond_atom_site_label_1
_geom_bond_atom_site_label_2
_geom_bond_site_symmetry_1
_geom_bond_site_symmetry_2
S1 C1 1_555 1_555
C1 C2 1_555 1_555
C2 C3 1_555 1_555
C3 H2 1_555 1_555
C4 S1 1_555 1_555
C5 C4 1_555 1_555
C6 C5 1_555 1_555
C7 S1 1_555 1_555
C8 C7 1_555 1_555
C9 C8 1_555 1_555
N1 C11 1_555 1_555
C10 C11 1_555 1_555
P1 F1 1_555 1_555
F2 P1 1_555 1_555
F3 P1 1_555 1_555
F4 P1 1_555 1_555
P2 F5 1_555 1_555
F6 P2 1_555 1_555
F7 P2 1_555 1_555
F8 P2 1_555 1_555
F9 P2 1_555 1_555
H1 C2 1_555 1_555
H3 C5 1_555 1_555
H4 C6 1_555 1_555
H5 C7 1_555 1_555
H6 C8 1_555 1_555
H7 C8 1_555 1_555
H8 C9 1_555 1_555
H9 C9 1_555 1_555
C1G C1 1_555 1_555
S1G C1G 1_555 1_555
C4G C4 1_555 1_555
C7G C7 1_555 1_555
C8G C9 1_555 1_555
H6G C8G 1_555 1_555
H7G C8G 1_555 1_555
H5G C7G 1_555 1_555
C6G C6 1_555 1_555
C5G C4G 1_555 1_555
H3G C5G 1_555 1_555
H4G C6G 1_555 1_555
C2G C1G 1_555 1_555
C3G C3 1_555 1_555
H2G C3G 1_555 1_555
H1G C2G 1_555 1_555
F1G P1 1_555 1_555
F3G P1 1_555 1_555
F9G P2 1_555 1_555
S1G C4G 1_555 1_555
S1G C7G 1_555 1_555
C7G C8G 1_555 1_555
C6G C5G 1_555 1_555
C2G C3G 1_555 1_555

#END
