
#######################################################################
#
#                 Cambridge Crystallographic Data Centre
#                                CCDC 
#
#######################################################################
#
# If this CIF has been generated from an entry in the Cambridge 
# Structural Database, then it will include bibliographic, chemical, 
# crystal, experimental, refinement or atomic coordinate data resulting 
# from the CCDC's data processing and validation procedures.
#
#######################################################################

data_HABBOC
_chemical_formula_moiety         'C31 H28 S4 2+,2(Cl1 O4 1-),C2 H3 N1'
_chemical_name_systematic        
'1,2-bis(5,10-dithianthreniumyl)-4-methylcyclohexane diperchlorate acetonitrile solvate'
_symmetry_cell_setting           orthorhombic
_symmetry_space_group_name_H-M   'P n a 21'
_symmetry_Int_Tables_number      33
_space_group_name_Hall           'P 2c -2n'
loop_
_symmetry_equiv_pos_site_id
_symmetry_equiv_pos_as_xyz
1 x,y,z
2 -x,-y,1/2+z
3 1/2-x,1/2+y,1/2+z
4 1/2+x,1/2-y,z
_cell_length_a                   20.496(4)
_cell_length_b                   10.744(2)
_cell_length_c                   15.759(3)
_cell_angle_alpha                90
_cell_angle_beta                 90
_cell_angle_gamma                90
_cell_volume                     3470.27
_chemical_melting_point          '112-113 deg.C(dec.)'
_cell_formula_units_Z            4
loop_
_atom_site_label
_atom_site_type_symbol
_atom_site_fract_x
_atom_site_fract_y
_atom_site_fract_z
S1 S 0.1279(1) 0.2904(1) 0.7381(2)
S2 S 0.1741(1) 0.0681(2) 0.8657(2)
S3 S 0.0672(1) 0.4722(1) 0.9730(1)
S4 S 0.2250(1) 0.4619(2) 1.0122(2)
C1 C 0.1145(3) 0.1333(6) 0.7140(4)
C2 C 0.0886(4) 0.1082(8) 0.6346(75)
C3 C 0.0809(5) -0.0169(8) 0.6105(6)
C4 C 0.1004(4) -0.1096(8) 0.6654(7)
C5 C 0.1274(4) -0.0835(6) 0.7423(7)
C6 C 0.1353(4) 0.0412(7) 0.7691(5)
C7 C 0.2242(3) 0.1956(6) 0.8391(5)
C8 C 0.2844(4) 0.2056(7) 0.8807(6)
C9 C 0.3241(4) 0.3041(8) 0.8608(6)
C10 C 0.3078(3) 0.3907(8) 0.7991(6)
C11 C 0.2482(3) 0.3830(7) 0.7610(5)
C12 C 0.2062(3) 0.2859(6) 0.7822(4)
C13 C 0.1712(4) 0.3470(6) 1.0456(5)
C14 C 0.1034(3) 0.3506(6) 1.0307(4)
C15 C 0.0622(4) 0.2591(7) 1.0609(5)
C16 C 0.0889(6) 0.1611(8) 1.1084(5)
C17 C 0.1543(6) 0.1552(8) 1.1193(6)
C18 C 0.1949(5) 0.2446(8) 1.0910(6)
C19 C 0.1792(4) 0.5972(7) 1.0198(4)
C20 C 0.2104(4) 0.7074(8) 1.0412(5)
C21 C 0.1778(6) 0.8178(9) 1.0448(6)
C22 C 0.1133(6) 0.8204(7) 1.0303(6)
C23 C 0.0793(4) 0.7147(7) 1.0114(5)
C24 C 0.1125(3) 0.6026(6) 1.0049(4)
C25 C 0.0766(3) 0.3235(5) 0.8314(4)
C26 C 0.0972(3) 0.4532(5) 0.8622(4)
C27 C 0.0710(3) 0.5575(6) 0.8106(4)
C28 C -0.0014(3) 0.5464(6) 0.7914(5)
C29 C -0.0181(3) 0.4214(6) 0.7509(5)
C30 C 0.0051(3) 0.3153(6) 0.8074(5)
C31 C -0.0908(4) 0.4152(8) 0.7313(6)
H1 H 0.0767 0.1724 0.5983
H2 H 0.0628 -0.0368 0.5582
H3 H 0.0950 -0.1923 0.6494
H4 H 0.1408 -0.1482 0.7775
H5 H 0.2970 0.1470 0.9209
H6 H 0.3634 0.3130 0.8896
H7 H 0.3371 0.4530 0.7840
H8 H 0.2357 0.4422 0.7211
H9 H 0.0177 0.2624 1.0501
H10 H 0.0620 0.1007 1.1322
H11 H 0.1719 0.0869 1.1475
H12 H 0.2394 0.2382 1.1018
H13 H 0.2547 0.7059 1.0535
H14 H 0.2001 0.8909 1.0572
H15 H 0.0912 0.8960 1.0332
H16 H 0.0344 0.7178 1.0029
H17 H 0.0860 0.2622 0.8759
H18 H 0.1449 0.4580 0.8623
H19 H 0.0948 0.5611 0.7574
H20 H 0.0787 0.6350 0.8405
H21 H -0.0143 0.6130 0.7533
H22 H -0.0260 0.5558 0.8436
H23 H 0.0055 0.4157 0.6970
H24 H -0.0209 0.3147 0.8588
H25 H -0.0024 0.2371 0.7782
H26 H -0.1027 0.4839 0.6956
H27 H -0.1151 0.4193 0.7833
H28 H -0.1005 0.3385 0.7028
C32 C 0.3226(5) 0.8080(9) 0.8479(9)
C33 C 0.2675(5) 0.7296(8) 0.8264(6)
N1 N 0.2243(4) 0.6700(7) 0.8155(7)
H29 H 0.3537 0.8065 0.8024
H30 H 0.3428 0.7775 0.8989
H31 H 0.3078 0.8918 0.8568
Cl1 Cl 0.1140(1) 0.5098(2) 0.5432(1)
O1 O 0.0806(3) 0.3997(4) 0.5473(5)
O2 O 0.0936(4) 0.5862(6) 0.6075(3)
O3 O 0.1019(3) 0.5660(6) 0.4668(2)
O4 O 0.1794(2) 0.4877(6) 0.5512(5)
Cl2 Cl -0.0280(1) -0.0485(2) 0.8673(1)
O5 O -0.0854(2) -0.0706(5) 0.9090(3)
O6 O -0.0411(3) -0.0055(5) 0.7873(2)
O7 O 0.0073(3) 0.0390(5) 0.9107(3)
O8 O 0.0071(3) -0.1565(4) 0.8620(4)
loop_
_geom_bond_atom_site_label_1
_geom_bond_atom_site_label_2
_geom_bond_site_symmetry_1
_geom_bond_site_symmetry_2
S1 C1 1_555 1_555
S2 C6 1_555 1_555
S3 C14 1_555 1_555
S4 C13 1_555 1_555
C1 C2 1_555 1_555
C2 C3 1_555 1_555
C3 C4 1_555 1_555
C4 C5 1_555 1_555
C5 C6 1_555 1_555
C6 C1 1_555 1_555
C7 S2 1_555 1_555
C8 C7 1_555 1_555
C9 C8 1_555 1_555
C10 C9 1_555 1_555
C11 C10 1_555 1_555
C12 S1 1_555 1_555
C13 C14 1_555 1_555
C14 C15 1_555 1_555
C15 C16 1_555 1_555
C16 C17 1_555 1_555
C17 C18 1_555 1_555
C18 C13 1_555 1_555
C19 S4 1_555 1_555
C20 C19 1_555 1_555
C21 C20 1_555 1_555
C22 C21 1_555 1_555
C23 C22 1_555 1_555
C24 S3 1_555 1_555
C25 S1 1_555 1_555
C26 S3 1_555 1_555
C27 C26 1_555 1_555
C28 C27 1_555 1_555
C29 C28 1_555 1_555
C30 C25 1_555 1_555
C31 C29 1_555 1_555
C32 C33 1_555 1_555
C33 N1 1_555 1_555
Cl1 O1 1_555 1_555
O2 Cl1 1_555 1_555
O3 Cl1 1_555 1_555
O4 Cl1 1_555 1_555
Cl2 O5 1_555 1_555
O6 Cl2 1_555 1_555
O7 Cl2 1_555 1_555
O8 Cl2 1_555 1_555
H1 C2 1_555 1_555
H2 C3 1_555 1_555
H3 C4 1_555 1_555
H4 C5 1_555 1_555
H5 C8 1_555 1_555
H6 C9 1_555 1_555
H7 C10 1_555 1_555
H8 C11 1_555 1_555
H9 C15 1_555 1_555
H10 C16 1_555 1_555
H11 C17 1_555 1_555
H12 C18 1_555 1_555
H13 C20 1_555 1_555
H14 C21 1_555 1_555
H15 C22 1_555 1_555
H16 C23 1_555 1_555
H17 C25 1_555 1_555
H18 C26 1_555 1_555
H19 C27 1_555 1_555
H20 C27 1_555 1_555
H21 C28 1_555 1_555
H22 C28 1_555 1_555
H23 C29 1_555 1_555
H24 C30 1_555 1_555
H25 C30 1_555 1_555
H26 C31 1_555 1_555
H27 C31 1_555 1_555
H28 C31 1_555 1_555
H29 C32 1_555 1_555
H30 C32 1_555 1_555
H31 C32 1_555 1_555
C7 C12 1_555 1_555
C11 C12 1_555 1_555
C19 C24 1_555 1_555
C23 C24 1_555 1_555
C25 C26 1_555 1_555
C29 C30 1_555 1_555

#END
