
#######################################################################
#
#                 Cambridge Crystallographic Data Centre
#                                CCDC 
#
#######################################################################
#
# If this CIF has been generated from an entry in the Cambridge 
# Structural Database, then it will include bibliographic, chemical, 
# crystal, experimental, refinement or atomic coordinate data resulting 
# from the CCDC's data processing and validation procedures.
#
#######################################################################

data_HABCAP
_chemical_formula_moiety         'C28 H24 S4 2+,2(Cl1 O4 1-),C2 H3 N1'
_chemical_name_systematic        
'threo-2,3-bis(5,10-dithianthreniumyl)butane diperchlorate acetonitrile solvate'
_symmetry_cell_setting           triclinic
_symmetry_space_group_name_H-M   'P -1'
_symmetry_Int_Tables_number      2
_space_group_name_Hall           '-P 1'
loop_
_symmetry_equiv_pos_site_id
_symmetry_equiv_pos_as_xyz
1 x,y,z
2 -x,-y,-z
_cell_length_a                   9.4749(19)
_cell_length_b                   13.036(3)
_cell_length_c                   13.788(3)
_cell_angle_alpha                89.93(3)
_cell_angle_beta                 73.06(3)
_cell_angle_gamma                79.78(3)
_cell_volume                     1600.97
_chemical_melting_point          '169.5-170 deg.C(dec.)'
_cell_formula_units_Z            2
_exptl_crystal_recrystallization_method acetonitrile/ether
loop_
_atom_site_label
_atom_site_type_symbol
_atom_site_fract_x
_atom_site_fract_y
_atom_site_fract_z
S1 S 0.2946(1) 0.8383(1) 0.1026(1)
C1 C 0.3199(4) 0.6260(3) 0.0746(3)
S2 S 0.2190(1) 0.6454(1) -0.0142(1)
C2 C 0.3620(5) 0.5246(3) 0.1006(4)
S3 S -0.1280(1) 0.8118(1) 0.3269(1)
C3 C 0.4375(5) 0.5055(4) 0.1719(4)
S4 S 0.0969(1) 0.6097(1) 0.3790(1)
C4 C 0.4773(5) 0.5854(4) 0.2163(4)
C5 C 0.4378(4) 0.6879(4) 0.1919(3)
C6 C 0.3567(4) 0.7070(3) 0.1226(3)
C7 C 0.3170(4) 0.8356(3) -0.0295(3)
C8 C 0.3694(4) 0.9180(4) -0.0815(3)
C9 C 0.3825(6) 0.9219(5) -0.1836(4)
C10 C 0.3429(6) 0.8431(5) -0.2311(4)
C11 C 0.2924(6) 0.7602(5) -0.1796(4)
C12 C 0.2802(4) 0.7544(3) -0.0765(3)
C13 C 0.0877(4) 0.8504(3) 0.1582(3)
C14 C 0.0080(5) 0.9433(4) 0.1163(4)
C15 C 0.0563(4) 0.8535(3) 0.2737(3)
C16 C 0.0422(6) 0.9605(4) 0.3246(4)
C17 C -0.0264(4) 0.7027(3) 0.4715(3)
C18 C -0.0193(5) 0.6914(4) 0.5710(3)
C19 C -0.1154(6) 0.7611(4) 0.6473(3)
C20 C -0.2188(6) 0.8398(4) 0.6274(3)
C21 C -0.2260(5) 0.8537(3) 0.5295(3)
C22 C -0.1263(4) 0.7854(3) 0.4521(3)
C23 C -0.0986(4) 0.6868(3) 0.2682(3)
C24 C -0.1713(5) 0.6777(4) 0.1948(3)
C25 C -0.1414(5) 0.5836(4) 0.1409(4)
C26 C -0.0439(5) 0.5004(4) 0.1593(3)
C27 C 0.0248(5) 0.5091(3) 0.2343(3)
C28 C -0.0013(4) 0.6029(3) 0.2894(3)
H1 H 0.3388 0.4692 0.0695
H2 H 0.4620 0.4374 0.1903
H3 H 0.5309 0.5710 0.2630
H4 H 0.4652 0.7424 0.2214
H5 H 0.3956 0.9703 -0.0482
H6 H 0.4177 0.9770 -0.2201
H7 H 0.3505 0.8463 -0.2998
H8 H 0.2664 0.7081 -0.2133
H9 H 0.0587 0.7873 0.1375
H10 H -0.0986 0.9494 0.1450
H11 H 0.0341 0.9336 0.0438
H12 H 0.0381 1.0057 0.1334
H13 H 0.1347 0.8038 0.2910
H14 H 0.1352 0.9850 0.2994
H15 H 0.0193 0.9547 0.3967
H16 H 0.0367 1.0088 0.3096
H17 H 0.0491 0.6377 0.5856
H18 H -0.1099 0.7546 0.7134
H19 H -0.2847 0.8842 0.6804
H20 H -0.2955 0.9071 0.5156
H21 H -0.2384 0.7338 0.1827
H22 H -0.1880 0.5765 0.0912
H23 H -0.0236 0.4378 0.1214
H24 H 0.0887 0.4517 0.2477
Cl1 Cl 0.5965(1) 0.1558(1) 0.5742(1)
O1 O 0.7116(8) 0.2077(7) 0.5682(6)
O2 O 0.5973(8) 0.0868(5) 0.6524(4)
O3 O 0.4589(5) 0.2273(5) 0.6058(5)
O4 O 0.6151(8) 0.1040(5) 0.4820(4)
Cl2 Cl 0.2447(1) 0.1993(1) 0.0540(1)
O5 O 0.3483(5) 0.1737(3) -0.0441(3)
O6 O 0.2618(5) 0.1129(3) 0.1156(3)
O7 O 0.2824(7) 0.2849(4) 0.0961(4)
O8 O 0.0976(5) 0.2234(5) 0.0512(5)
C29 C 0.3969(16) 0.3874(8) 0.4390(7)
N1 N 0.3159(17) 0.5202(10) 0.5965(7)
C30 C 0.3429(10) 0.4586(8) 0.5295(7)
H25 H 0.3174 0.3534 0.4334
H26 H 0.4799 0.3359 0.4443
H27 H 0.4288 0.4262 0.3798
loop_
_geom_bond_atom_site_label_1
_geom_bond_atom_site_label_2
_geom_bond_site_symmetry_1
_geom_bond_site_symmetry_2
S1 C6 1_555 1_555
Cl1 O1 1_555 1_555
C1 S2 1_555 1_555
Cl2 O5 1_555 1_555
S2 C12 1_555 1_555
C2 C1 1_555 1_555
S3 C15 1_555 1_555
C3 C2 1_555 1_555
S4 C17 1_555 1_555
C4 C3 1_555 1_555
C5 C4 1_555 1_555
C6 C1 1_555 1_555
C7 S1 1_555 1_555
C8 C7 1_555 1_555
C9 C8 1_555 1_555
C10 C9 1_555 1_555
C11 C10 1_555 1_555
C12 C7 1_555 1_555
O2 Cl1 1_555 1_555
C13 S1 1_555 1_555
O3 Cl1 1_555 1_555
C14 C13 1_555 1_555
O4 Cl1 1_555 1_555
C15 C13 1_555 1_555
C16 C15 1_555 1_555
C17 C18 1_555 1_555
C18 C19 1_555 1_555
C19 C20 1_555 1_555
C20 C21 1_555 1_555
C21 C22 1_555 1_555
O6 Cl2 1_555 1_555
C22 S3 1_555 1_555
C23 S3 1_555 1_555
C24 C23 1_555 1_555
C25 C24 1_555 1_555
C26 C25 1_555 1_555
C27 C26 1_555 1_555
C28 S4 1_555 1_555
O7 Cl2 1_555 1_555
O8 Cl2 1_555 1_555
C29 C30 1_555 1_555
N1 C30 1_555 1_555
H1 C2 1_555 1_555
H2 C3 1_555 1_555
H3 C4 1_555 1_555
H4 C5 1_555 1_555
H5 C8 1_555 1_555
H6 C9 1_555 1_555
H7 C10 1_555 1_555
H8 C11 1_555 1_555
H9 C13 1_555 1_555
H10 C14 1_555 1_555
H11 C14 1_555 1_555
H12 C14 1_555 1_555
H13 C15 1_555 1_555
H14 C16 1_555 1_555
H15 C16 1_555 1_555
H16 C16 1_555 1_555
H17 C18 1_555 1_555
H18 C19 1_555 1_555
H19 C20 1_555 1_555
H20 C21 1_555 1_555
H21 C24 1_555 1_555
H22 C25 1_555 1_555
H23 C26 1_555 1_555
H24 C27 1_555 1_555
H25 C29 1_555 1_555
H26 C29 1_555 1_555
H27 C29 1_555 1_555
C5 C6 1_555 1_555
C11 C12 1_555 1_555
C17 C22 1_555 1_555
C23 C28 1_555 1_555
C27 C28 1_555 1_555

#END
