
#######################################################################
#
#                 Cambridge Crystallographic Data Centre
#                                CCDC 
#
#######################################################################
#
# If this CIF has been generated from an entry in the Cambridge 
# Structural Database, then it will include bibliographic, chemical, 
# crystal, experimental, refinement or atomic coordinate data resulting 
# from the CCDC's data processing and validation procedures.
#
#######################################################################

data_HABCET
_chemical_formula_moiety         'C18 H20 S2 2+,2(Cl1 O4 1-)'
_chemical_name_systematic        
'threo-3,4-(5,10-dithianthreniumdiyl)hexane diperchlorate'
_symmetry_cell_setting           triclinic
_symmetry_space_group_name_H-M   'P -1'
_symmetry_Int_Tables_number      2
_space_group_name_Hall           '-P 1'
loop_
_symmetry_equiv_pos_site_id
_symmetry_equiv_pos_as_xyz
1 x,y,z
2 -x,-y,-z
_cell_length_a                   10.421(2)
_cell_length_b                   13.807(3)
_cell_length_c                   15.387(3)
_cell_angle_alpha                88.77(3)
_cell_angle_beta                 72.77(3)
_cell_angle_gamma                84.62(3)
_cell_volume                     2105.21
_chemical_melting_point          '153-154 deg.C(dec.)'
_cell_formula_units_Z            4
loop_
_atom_site_label
_atom_site_type_symbol
_atom_site_fract_x
_atom_site_fract_y
_atom_site_fract_z
S1 S -0.3915(1) 0.3096(1) 0.4935(1)
C1 C -0.3494(5) 0.1916(4) 0.4440(3)
C2 C -0.4345(6) 0.1509(4) 0.4043(4)
C3 C -0.3922(7) 0.0586(5) 0.3656(4)
C4 C -0.2734(7) 0.0098(4) 0.3683(4)
C5 C -0.1899(6) 0.0490(4) 0.4091(4)
C6 C -0.2290(5) 0.1403(4) 0.4482(3)
C7 C -0.1172(5) 0.3107(4) 0.4529(3)
C8 C 0.0049(6) 0.3490(4) 0.4216(4)
C9 C 0.0045(7) 0.4414(5) 0.3834(5)
C10 C -0.1079(7) 0.4874(5) 0.3727(5)
C11 C -0.2317(6) 0.4491(4) 0.4049(4)
C12 C -0.2352(5) 0.3620(4) 0.4464(3)
C13 C -0.6450(6) 0.2735(5) 0.6555(5)
C14 C -0.5088(6) 0.2210(4) 0.6538(4)
C15 C -0.3875(5) 0.2786(4) 0.6095(3)
C16 C -0.2527(5) 0.2251(4) 0.6158(3)
C17 C -0.1834(6) 0.2826(5) 0.6698(4)
C18 C -0.0591(7) 0.2267(6) 0.6871(5)
S3 S -0.1268(1) 0.1937(1) 0.5042(1)
Cl1 Cl 0.2002(1) 0.0853(1) 0.3752(1)
O1 O 0.2055(5) 0.1352(3) 0.4534(3)
O2 O 0.3320(5) 0.0684(5) 0.3132(3)
O3 O 0.1420(5) -0.0039(3) 0.4018(4)
O4 O 0.1160(4) 0.1416(3) 0.3306(3)
Cl2 Cl 0.4002(1) 0.4233(1) 0.3684(1)
O5 O 0.3109(4) 0.3694(3) 0.4372(3)
O6 O 0.3315(5) 0.4687(4) 0.3087(3)
O7 O 0.4481(4) 0.4990(3) 0.4116(3)
O8 O 0.5118(4) 0.3601(3) 0.3197(3)
S2 S 0.8737(1) 0.1940(1) 1.0041(1)
S4 S 0.6086(1) 0.3098(1) 0.9935(1)
C19 C 0.7722(5) 0.1401(4) 0.9472(3)
C20 C 0.8101(5) 0.0493(4) 0.9108(4)
C21 C 0.7264(6) 0.0079(4) 0.8691(4)
C22 C 0.6044(6) 0.0591(4) 0.8671(4)
C23 C 0.5668(5) 0.1500(4) 0.9042(4)
C24 C 0.6521(5) 0.1918(4) 0.9437(3)
C25 C 0.7644(5) 0.3604(4) 0.9469(3)
C26 C 0.7628(5) 0.4531(4) 0.9059(4)
C27 C 0.8876(6) 0.4909(4) 0.8728(4)
C28 C 1.0071(5) 0.4392(5) 0.8794(4)
C29 C 1.0051(5) 0.3499(4) 0.9214(4)
C30 C 0.8824(5) 0.3109(4) 0.9538(3)
C31 C 0.9408(8) 0.2282(6) 1.1875(5)
C32 C 0.8155(6) 0.2828(4) 1.1715(4)
C33 C 0.7496(5) 0.2261(4) 1.1149(3)
C34 C 0.6134(5) 0.2792(4) 1.1100(3)
C35 C 0.4935(5) 0.2212(4) 1.1535(4)
C36 C 0.3591(6) 0.2721(5) 1.1522(4)
Cl3 Cl 0.2007(1) 0.0853(1) 0.8751(1)
O9 O 0.3313(4) 0.0694(5) 0.8149(4)
O10 O 0.2037(5) 0.1359(3) 0.9550(3)
O11 O 0.1156(5) 0.1416(3) 0.8303(3)
O12 O 0.1427(5) -0.0041(3) 0.9010(4)
Cl4 Cl 0.3993(1) 0.4238(1) 0.8690(1)
O13 O 0.3309(5) 0.4696(4) 0.8088(3)
O14 O 0.3104(5) 0.3709(4) 0.9369(3)
O15 O 0.5125(4) 0.3598(3) 0.8194(3)
O16 O 0.4509(4) 0.4956(3) 0.9117(3)
loop_
_geom_bond_atom_site_label_1
_geom_bond_atom_site_label_2
_geom_bond_site_symmetry_1
_geom_bond_site_symmetry_2
S1 C1 1_555 1_555
C1 C2 1_555 1_555
C2 C3 1_555 1_555
C3 C4 1_555 1_555
C4 C5 1_555 1_555
C5 C6 1_555 1_555
C6 C1 1_555 1_555
C7 C8 1_555 1_555
C8 C9 1_555 1_555
C9 C10 1_555 1_555
C10 C11 1_555 1_555
C11 C12 1_555 1_555
C12 S1 1_555 1_555
C13 C14 1_555 1_555
C14 C15 1_555 1_555
C15 S1 1_555 1_555
C16 C15 1_555 1_555
C17 C16 1_555 1_555
C18 C17 1_555 1_555
Cl1 O1 1_555 1_555
O2 Cl1 1_555 1_555
O3 Cl1 1_555 1_555
O4 Cl1 1_555 1_555
Cl2 O5 1_555 1_555
O6 Cl2 1_555 1_555
O7 Cl2 1_555 1_555
O8 Cl2 1_555 1_555
S2 C19 1_555 1_555
S3 C6 1_555 1_555
S4 C24 1_555 1_555
C19 C20 1_555 1_555
C20 C21 1_555 1_555
C21 C22 1_555 1_555
C22 C23 1_555 1_555
C23 C24 1_555 1_555
C24 C19 1_555 1_555
C25 S4 1_555 1_555
C26 C25 1_555 1_555
C27 C26 1_555 1_555
C28 C27 1_555 1_555
C29 C28 1_555 1_555
C30 S2 1_555 1_555
C31 C32 1_555 1_555
C32 C33 1_555 1_555
C33 S2 1_555 1_555
C34 S4 1_555 1_555
C35 C34 1_555 1_555
C36 C35 1_555 1_555
Cl3 O9 1_555 1_555
O10 Cl3 1_555 1_555
O11 Cl3 1_555 1_555
O12 Cl3 1_555 1_555
Cl4 O13 1_555 1_555
O14 Cl4 1_555 1_555
O15 Cl4 1_555 1_555
O16 Cl4 1_555 1_555
C7 S3 1_555 1_555
C7 C12 1_555 1_555
C16 S3 1_555 1_555
C25 C30 1_555 1_555
C29 C30 1_555 1_555
C33 C34 1_555 1_555

#END
