
#######################################################################
#
#                 Cambridge Crystallographic Data Centre
#                                CCDC 
#
#######################################################################
#
# If this CIF has been generated from an entry in the Cambridge 
# Structural Database, then it will include bibliographic, chemical, 
# crystal, experimental, refinement or atomic coordinate data resulting 
# from the CCDC's data processing and validation procedures.
#
#######################################################################

data_HABFAS02
_chemical_formula_moiety         'C17 H13 N5 O2'
_chemical_name_systematic        
'bis(pyridin-2-yl)ketone 4-nitrophenylhydrazone'
_symmetry_cell_setting           monoclinic
_symmetry_space_group_name_H-M   'P 21/c'
_symmetry_Int_Tables_number      14
_space_group_name_Hall           '-P 2ybc'
loop_
_symmetry_equiv_pos_site_id
_symmetry_equiv_pos_as_xyz
1 x,y,z
2 -x,1/2+y,1/2-z
3 -x,-y,-z
4 x,1/2-y,1/2+z
_cell_length_a                   8.9739(2)
_cell_length_b                   21.8979(7)
_cell_length_c                   16.0438(5)
_cell_angle_alpha                90
_cell_angle_beta                 108.651(2)
_cell_angle_gamma                90
_cell_volume                     2987.19
_exptl_crystal_colour            orange
_exptl_crystal_description       block
_chemical_melting_point          '457-459 K'
_cell_formula_units_Z            8
_exptl_crystal_recrystallization_method acetone
loop_
_atom_site_label
_atom_site_type_symbol
_atom_site_fract_x
_atom_site_fract_y
_atom_site_fract_z
O1 O -0.5695(2) -0.66780(10) -0.02967(15)
O2 O -0.3870(3) -0.73275(11) -0.02925(16)
N1 N 0.0328(3) -0.50277(11) 0.11191(16)
H1 H 0.1553 -0.5159 0.1192
N2 N -0.0025(3) -0.44980(11) 0.14551(16)
N3 N -0.4292(3) -0.68072(13) -0.01715(17)
N4 N 0.1427(3) -0.34201(12) 0.30501(17)
N5 N 0.3308(3) -0.47085(11) 0.17318(16)
C1 C -0.0857(3) -0.54500(13) 0.07700(19)
C2 C -0.0442(3) -0.60228(14) 0.05306(19)
H2 H 0.0626 -0.6106 0.0590
C3 C -0.1560(3) -0.64665(14) 0.02109(19)
H3 H -0.1276 -0.6856 0.0047
C4 C -0.3114(3) -0.63356(14) 0.01317(19)
C5 C -0.3564(3) -0.57677(14) 0.0340(2)
H4 H -0.4637 -0.5685 0.0268
C6 C -0.2433(3) -0.53218(14) 0.0655(2)
H5 H -0.2729 -0.4928 0.0793
C7 C 0.1091(3) -0.41158(13) 0.18376(19)
C8 C 0.0530(3) -0.35826(13) 0.2233(2)
C9 C 0.0920(4) -0.29532(15) 0.3426(2)
H6 H 0.1546 -0.2831 0.3999
C10 C -0.0468(4) -0.26366(15) 0.3026(2)
H7 H -0.0789 -0.2311 0.3322
C11 C -0.1368(4) -0.28084(14) 0.2188(2)
H8 H -0.2316 -0.2599 0.1890
C12 C -0.0865(3) -0.32910(14) 0.1787(2)
H9 H -0.1471 -0.3420 0.1214
C13 C 0.2790(3) -0.41643(14) 0.19205(19)
C14 C 0.4827(3) -0.47568(15) 0.1797(2)
H10 H 0.5197 -0.5140 0.1667
C15 C 0.5889(4) -0.42815(15) 0.2042(2)
H11 H 0.6960 -0.4336 0.2082
C16 C 0.5344(3) -0.37229(15) 0.2227(2)
H12 H 0.6038 -0.3384 0.2394
C17 C 0.3792(3) -0.36636(14) 0.2167(2)
H13 H 0.3403 -0.3283 0.2293
O3 O 0.8906(3) -0.24448(11) 0.51169(16)
O4 O 1.0674(3) -0.31555(11) 0.54021(16)
N6 N 0.4511(3) -0.47232(11) 0.39874(16)
H14 H 0.3418 -0.4576 0.3835
N7 N 0.4840(3) -0.52631(11) 0.36701(16)
N8 N 0.9291(3) -0.29895(14) 0.51629(17)
N9 N 0.3417(3) -0.63022(12) 0.20449(17)
N10 N 0.1506(3) -0.50403(11) 0.33888(17)
C18 C 0.5715(3) -0.43094(14) 0.43230(19)
C19 C 0.5342(3) -0.37116(14) 0.44884(19)
H15 H 0.4280 -0.3602 0.4405
C20 C 0.6513(3) -0.32803(14) 0.47721(19)
H16 H 0.6266 -0.2872 0.4881
C21 C 0.8058(3) -0.34494(14) 0.4897(2)
C22 C 0.8460(3) -0.40433(14) 0.47719(19)
H17 H 0.9531 -0.4153 0.4887
C23 C 0.7292(3) -0.44752(14) 0.4479(2)
H18 H 0.7553 -0.4884 0.4384
C24 C 0.3710(3) -0.56419(13) 0.32863(19)
C25 C 0.4262(3) -0.61740(14) 0.2885(2)
C26 C 0.3946(4) -0.67552(15) 0.1653(2)
H19 H 0.3365 -0.6852 0.1061
C27 C 0.5288(4) -0.70911(14) 0.2059(2)
H20 H 0.5622 -0.7404 0.1749
C28 C 0.6124(4) -0.69635(14) 0.2917(2)
H21 H 0.7034 -0.7194 0.3219
C29 C 0.5621(3) -0.64928(14) 0.3336(2)
H22 H 0.6198 -0.6388 0.3926
C30 C 0.2011(4) -0.55838(14) 0.31887(19)
C31 C -0.0021(3) -0.49931(15) 0.3319(2)
H23 H -0.0392 -0.4609 0.3447
C32 C -0.1086(4) -0.54674(15) 0.3074(2)
H24 H -0.2152 -0.5415 0.3046
C33 C -0.0552(4) -0.60195(15) 0.2871(2)
H25 H -0.1255 -0.6354 0.2689
C34 C 0.1008(3) -0.60833(15) 0.2934(2)
H26 H 0.1394 -0.6464 0.2804
loop_
_geom_bond_atom_site_label_1
_geom_bond_atom_site_label_2
_geom_bond_site_symmetry_1
_geom_bond_site_symmetry_2
O1 N3 1_555 1_555
O2 N3 1_555 1_555
N1 H1 1_555 1_555
N2 N1 1_555 1_555
N3 C4 1_555 1_555
N4 C8 1_555 1_555
N5 C13 1_555 1_555
C1 N1 1_555 1_555
C2 C1 1_555 1_555
H2 C2 1_555 1_555
C3 C2 1_555 1_555
H3 C3 1_555 1_555
C4 C3 1_555 1_555
C5 C4 1_555 1_555
H4 C5 1_555 1_555
C6 C1 1_555 1_555
H5 C6 1_555 1_555
C7 N2 1_555 1_555
C8 C7 1_555 1_555
C9 N4 1_555 1_555
H6 C9 1_555 1_555
C10 C9 1_555 1_555
H7 C10 1_555 1_555
C11 C10 1_555 1_555
H8 C11 1_555 1_555
C12 C8 1_555 1_555
H9 C12 1_555 1_555
C13 C7 1_555 1_555
C14 N5 1_555 1_555
H10 C14 1_555 1_555
C15 C14 1_555 1_555
H11 C15 1_555 1_555
C16 C15 1_555 1_555
H12 C16 1_555 1_555
C17 C13 1_555 1_555
H13 C17 1_555 1_555
O3 N8 1_555 1_555
O4 N8 1_555 1_555
N6 H14 1_555 1_555
N7 N6 1_555 1_555
N8 C21 1_555 1_555
N9 C25 1_555 1_555
N10 C30 1_555 1_555
C18 N6 1_555 1_555
C19 C18 1_555 1_555
H15 C19 1_555 1_555
C20 C19 1_555 1_555
H16 C20 1_555 1_555
C21 C20 1_555 1_555
C22 C21 1_555 1_555
H17 C22 1_555 1_555
C23 C18 1_555 1_555
H18 C23 1_555 1_555
C24 N7 1_555 1_555
C25 C24 1_555 1_555
C26 N9 1_555 1_555
H19 C26 1_555 1_555
C27 C26 1_555 1_555
H20 C27 1_555 1_555
C28 C27 1_555 1_555
H21 C28 1_555 1_555
C29 C25 1_555 1_555
H22 C29 1_555 1_555
C30 C24 1_555 1_555
C31 N10 1_555 1_555
H23 C31 1_555 1_555
C32 C31 1_555 1_555
H24 C32 1_555 1_555
C33 C32 1_555 1_555
H25 C33 1_555 1_555
C34 C30 1_555 1_555
H26 C34 1_555 1_555
C5 C6 1_555 1_555
C11 C12 1_555 1_555
C16 C17 1_555 1_555
C22 C23 1_555 1_555
C28 C29 1_555 1_555
C33 C34 1_555 1_555

#END
