
#######################################################################
#
#                 Cambridge Crystallographic Data Centre
#                                CCDC 
#
#######################################################################
#
# If this CIF has been generated from an entry in the Cambridge 
# Structural Database, then it will include bibliographic, chemical, 
# crystal, experimental, refinement or atomic coordinate data resulting 
# from the CCDC's data processing and validation procedures.
#
#######################################################################

data_HABJIE02
_chemical_formula_moiety         'C5 H12 N1 1+,C6 H10 N1 O2 1-,H2 O1'
_chemical_name_systematic        
'Piperidinium 1-piperidinecarboxylate monohydrate'
_symmetry_cell_setting           triclinic
_symmetry_space_group_name_H-M   'P -1'
_symmetry_Int_Tables_number      2
_space_group_name_Hall           '-P 1'
loop_
_symmetry_equiv_pos_site_id
_symmetry_equiv_pos_as_xyz
1 x,y,z
2 -x,-y,-z
_cell_length_a                   6.486(8)
_cell_length_b                   8.092(10)
_cell_length_c                   13.571(16)
_cell_angle_alpha                96.967(16)
_cell_angle_beta                 102.506(15)
_cell_angle_gamma                104.202(15)
_cell_volume                     662.57
_exptl_crystal_colour            colorless
_exptl_crystal_description       block
_cell_formula_units_Z            2
loop_
_atom_site_label
_atom_site_type_symbol
_atom_site_fract_x
_atom_site_fract_y
_atom_site_fract_z
O1 O -0.15224(19) 0.71272(18) 0.63608(9)
O2 O 0.17949(19) 0.67658(14) 0.64523(9)
N1 N 0.0847(2) 0.75387(18) 0.79162(10)
C1 C -0.0615(3) 0.8146(2) 0.84449(13)
H3 H -0.2077 0.7845 0.7985
H4 H -0.0099 0.9399 0.8642
C2 C -0.0724(3) 0.7353(2) 0.93892(14)
H5 H -0.1463 0.6122 0.9182
H6 H -0.1587 0.7875 0.9766
C3 C 0.1535(3) 0.7608(3) 1.00849(13)
H7 H 0.2191 0.8828 1.0382
H8 H 0.1409 0.6972 1.0641
C4 C 0.2979(3) 0.6979(3) 0.94877(14)
H9 H 0.2428 0.5729 0.9274
H10 H 0.4458 0.7245 0.9926
C5 C 0.3048(3) 0.7810(3) 0.85537(13)
H11 H 0.3762 0.9044 0.8769
H12 H 0.3903 0.7316 0.8159
C6 C 0.0359(3) 0.71383(19) 0.68653(12)
N2 N 0.1891(2) 0.34787(17) 0.56897(10)
H1 H 0.1922 0.4580 0.5915
H2 H 0.1616 0.3312 0.5000
C7 C 0.0090(3) 0.2286(2) 0.59798(14)
H13 H -0.0032 0.1098 0.5691
H14 H -0.1291 0.2526 0.5700
C8 C 0.0520(3) 0.2496(2) 0.71293(14)
H15 H 0.0501 0.3650 0.7412
H16 H -0.0636 0.1664 0.7305
C9 C 0.2710(4) 0.2223(3) 0.75931(16)
H17 H 0.2670 0.1027 0.7373
H18 H 0.2998 0.2445 0.8336
C10 C 0.4533(3) 0.3410(3) 0.72754(15)
H19 H 0.5904 0.3143 0.7538
H20 H 0.4699 0.4601 0.7574
C11 C 0.4075(3) 0.3226(3) 0.61184(14)
H21 H 0.5207 0.4079 0.5942
H22 H 0.4106 0.2082 0.5822
O3 O 0.4439(2) 0.07155(19) 0.36488(15)
H23 H 0.5741 0.1350 0.3731
H24 H 0.3467 0.1252 0.3660
loop_
_geom_bond_atom_site_label_1
_geom_bond_atom_site_label_2
_geom_bond_site_symmetry_1
_geom_bond_site_symmetry_2
O1 C6 1_555 1_555
O2 C6 1_555 1_555
N1 C1 1_555 1_555
N2 H1 1_555 1_555
H2 N2 1_555 1_555
C1 H3 1_555 1_555
H4 C1 1_555 1_555
C2 C1 1_555 1_555
H5 C2 1_555 1_555
H6 C2 1_555 1_555
C3 C2 1_555 1_555
H7 C3 1_555 1_555
H8 C3 1_555 1_555
C4 C3 1_555 1_555
H9 C4 1_555 1_555
H10 C4 1_555 1_555
C5 N1 1_555 1_555
H11 C5 1_555 1_555
H12 C5 1_555 1_555
C6 N1 1_555 1_555
C7 N2 1_555 1_555
H13 C7 1_555 1_555
H14 C7 1_555 1_555
C8 C7 1_555 1_555
H15 C8 1_555 1_555
H16 C8 1_555 1_555
C9 C8 1_555 1_555
H17 C9 1_555 1_555
H18 C9 1_555 1_555
C10 C9 1_555 1_555
H19 C10 1_555 1_555
H20 C10 1_555 1_555
C11 N2 1_555 1_555
H21 C11 1_555 1_555
H22 C11 1_555 1_555
O3 H23 1_555 1_555
H24 O3 1_555 1_555
C4 C5 1_555 1_555
C10 C11 1_555 1_555

#END
