
#######################################################################
#
#                 Cambridge Crystallographic Data Centre
#                                CCDC 
#
#######################################################################
#
# If this CIF has been generated from an entry in the Cambridge 
# Structural Database, then it will include bibliographic, chemical, 
# crystal, experimental, refinement or atomic coordinate data resulting 
# from the CCDC's data processing and validation procedures.
#
#######################################################################

data_HABMII
_chemical_formula_moiety         'C74 H36 O10,C1 S2'
_chemical_name_systematic        
'15,18-bis(t-Butylperoxy)-1,2,5,9-tetrahydroxy-6,12-di-isopropoxy-C60fullerene carbon disulfide solvate'
_symmetry_cell_setting           triclinic
_symmetry_space_group_name_H-M   'P -1'
_symmetry_Int_Tables_number      2
_space_group_name_Hall           '-P 1'
loop_
_symmetry_equiv_pos_site_id
_symmetry_equiv_pos_as_xyz
1 x,y,z
2 -x,-y,-z
_cell_length_a                   13.412(3)
_cell_length_b                   14.052(3)
_cell_length_c                   14.563(3)
_cell_angle_alpha                86.59(3)
_cell_angle_beta                 84.70(3)
_cell_angle_gamma                64.58(3)
_cell_volume                     2467.7
_exptl_crystal_colour            red
_exptl_crystal_description       plate
_cell_formula_units_Z            2
_exptl_crystal_recrystallization_method 'carbon disulfide/hexane'
loop_
_atom_site_label
_atom_site_type_symbol
_atom_site_fract_x
_atom_site_fract_y
_atom_site_fract_z
O1 O 0.02163(13) 0.88755(12) 0.50158(11)
H1 H 0.0371 0.8662 0.4472
O2 O 0.08364(13) 1.02021(12) 0.65662(11)
H2 H 0.1209 1.0517 0.6705
O3 O 0.18877(13) 0.92791(12) 0.50774(11)
H3 H 0.1230 0.9728 0.5039
O4 O 0.38120(14) 0.79790(14) 0.49757(12)
H4 H 0.3346 0.8568 0.4794
O5 O 0.11678(14) 0.71967(12) 0.41913(11)
O6 O 0.24234(15) 0.99410(13) 0.74322(12)
O7 O -0.14804(12) 0.85196(12) 0.62451(11)
O8 O -0.22598(14) 0.80266(15) 0.63880(13)
O9 O -0.07215(14) 1.00589(13) 0.81726(12)
O10 O -0.15995(14) 1.02134(14) 0.75688(12)
C1 C -0.2783(3) 1.0501(3) 0.9010(3)
H5 H -0.2762 0.9797 0.8986
H6 H -0.3496 1.0983 0.9305
H7 H -0.2183 1.0466 0.9367
C2 C -0.3458(3) 1.0864(3) 0.7406(3)
H8 H -0.3324 1.1122 0.6788
H9 H -0.4214 1.1311 0.7650
H10 H -0.3368 1.0137 0.7372
C3 C -0.2693(3) 1.1995(2) 0.8052(3)
H11 H -0.2082 1.1973 0.8387
H12 H -0.3400 1.2469 0.8362
H13 H -0.2631 1.2252 0.7419
C4 C -0.2642(2) 1.0901(2) 0.80356(19)
C5 C -0.3517(3) 0.7584(3) 0.5752(3)
H14 H -0.3037 0.6840 0.5875
H15 H -0.3941 0.7642 0.5221
H16 H -0.4028 0.7879 0.6294
C6 C -0.1963(3) 0.7729(3) 0.4733(3)
H17 H -0.1468 0.8083 0.4668
H18 H -0.2342 0.7838 0.4166
H19 H -0.1529 0.6973 0.4844
C7 C -0.3513(2) 0.9345(2) 0.5377(2)
H20 H -0.4042 0.9631 0.5911
H21 H -0.3915 0.9443 0.4825
H22 H -0.3034 0.9714 0.5288
C8 C -0.2815(2) 0.8186(2) 0.5542(2)
C9 C 0.2024(3) 1.1046(3) 0.8740(2)
H23 H 0.1650 1.1677 0.8357
H24 H 0.2351 1.1223 0.9242
H25 H 0.1487 1.0783 0.9001
C10 C 0.2106(3) 0.5649(2) 0.3220(2)
H26 H 0.2493 0.6005 0.2842
H27 H 0.1966 0.5177 0.2835
H28 H 0.2565 0.5238 0.3716
C11 C 0.2925(2) 1.0207(2) 0.81574(18)
H29 H 0.3317 0.9567 0.8549
C12 C 0.33625(18) 0.65588(17) 0.54955(15)
C13 C 0.05969(17) 0.87257(16) 0.71134(15)
C14 C 0.37783(17) 0.74759(17) 0.65673(16)
C15 C 0.09906(17) 0.81070(16) 0.55764(14)
C16 C 0.25946(18) 0.62523(17) 0.52608(14)
C17 C 0.45761(18) 0.64817(18) 0.82751(16)
C18 C -0.00144(18) 0.66703(17) 0.63455(16)
C19 C 0.27305(19) 0.51878(17) 0.54862(15)
C20 C 0.03562(17) 0.82057(16) 0.65025(15)
C21 C 0.48031(18) 0.47528(18) 0.86184(17)
C22 C 0.37903(19) 0.75221(18) 0.82233(16)
C23 C -0.05197(17) 0.78001(17) 0.66831(16)
C24 C 0.45701(17) 0.63834(18) 0.66123(16)
C25 C -0.01167(19) 0.59831(19) 0.70868(17)
C26 C 0.34060(18) 0.80299(17) 0.73528(16)
C27 C 0.3658(2) 0.44545(17) 0.58982(16)
C28 C 0.3745(3) 1.0579(3) 0.7696(3)
H30 H 0.4342 0.9995 0.7362
H31 H 0.4056 1.0826 0.8163
H32 H 0.3374 1.1158 0.7261
C29 C 0.08393(18) 0.63089(17) 0.56793(15)
C30 C 0.51285(18) 0.48229(18) 0.76479(16)
C31 C 0.14494(17) 0.91096(16) 0.67512(15)
C32 C 0.13839(18) 0.69779(17) 0.51464(15)
C33 C 0.09124(19) 0.87114(18) 0.87422(15)
C34 C -0.06890(17) 0.76395(18) 0.77251(16)
C35 C 0.28739(19) 0.79173(18) 0.89137(16)
C36 C 0.00254(18) 0.89763(17) 0.80686(15)
C37 C 0.19201(17) 0.85253(16) 0.57590(15)
C38 C 0.3545(2) 0.37455(17) 0.66196(17)
C39 C 0.2775(2) 0.72503(19) 0.96229(15)
C40 C 0.49834(17) 0.58955(19) 0.74430(17)
C41 C 0.0794(2) 0.79977(19) 0.94521(15)
C42 C 0.4242(2) 0.41412(18) 0.89085(17)
C43 C -0.00370(19) 0.7675(2) 0.92134(16)
C44 C -0.05286(18) 0.6577(2) 0.79246(17)
C45 C 0.0626(2) 0.49273(19) 0.71249(18)
C46 C -0.01772(19) 0.6095(2) 0.87754(18)
C47 C 0.19283(19) 0.86834(17) 0.84752(16)
C48 C 0.1830(2) 0.6225(2) 1.01263(15)
C49 C -0.04503(18) 0.81778(19) 0.83528(16)
C50 C 0.35774(19) 0.61589(19) 0.96680(16)
C51 C 0.3989(2) 0.35734(18) 0.82437(17)
C52 C 0.43121(17) 0.58172(18) 0.59553(15)
C53 C 0.31823(18) 0.76793(17) 0.56799(15)
C54 C 0.3320(2) 0.45353(19) 0.96007(16)
C55 C 0.48815(18) 0.42757(18) 0.70111(17)
C56 C 0.44642(19) 0.57812(18) 0.90064(16)
C57 C 0.1652(2) 0.52275(17) 0.57498(16)
C58 C 0.1698(2) 0.72919(19) 0.99049(15)
C59 C 0.44791(18) 0.47803(18) 0.61372(16)
C60 C 0.2175(2) 0.37212(18) 0.78541(18)
C61 C 0.2502(2) 0.37914(17) 0.68863(18)
C62 C 0.1036(2) 0.5910(2) 0.98947(16)
C63 C 0.22980(18) 0.89748(17) 0.74993(15)
C64 C 0.0072(2) 0.6656(2) 0.94344(16)
C65 C 0.2491(2) 0.42080(19) 0.93587(17)
C66 C 0.2996(2) 0.5525(2) 0.99757(16)
C67 C 0.0620(2) 0.4994(2) 0.88090(18)
C68 C 0.1536(2) 0.45402(18) 0.64400(17)
C69 C 0.1369(2) 0.4888(2) 0.95031(17)
C70 C 0.4300(2) 0.36371(17) 0.73108(17)
C71 C 0.1018(2) 0.64608(19) 0.36339(16)
H33 H 0.0622 0.6097 0.4017
C72 C 0.2904(2) 0.36123(18) 0.85212(18)
C73 C 0.0293(2) 0.7133(2) 0.28902(18)
H34 H -0.0447 0.7572 0.3169
H35 H 0.0238 0.6676 0.2433
H36 H 0.0620 0.7586 0.2588
C74 C 0.1013(2) 0.44270(19) 0.80068(18)
S1 S 0.43978(16) 0.14431(14) 0.02348(16)
S2 S 0.31445(13) 0.2979(2) 0.17702(11)
C75 C 0.3749(4) 0.2175(4) 0.1033(3)
loop_
_geom_bond_atom_site_label_1
_geom_bond_atom_site_label_2
_geom_bond_site_symmetry_1
_geom_bond_site_symmetry_2
O1 H1 1_555 1_555
O2 H2 1_555 1_555
O3 H3 1_555 1_555
O4 H4 1_555 1_555
O5 C32 1_555 1_555
O6 C11 1_555 1_555
O7 O8 1_555 1_555
O8 C8 1_555 1_555
O9 O10 1_555 1_555
O10 C4 1_555 1_555
C1 H5 1_555 1_555
H6 C1 1_555 1_555
H7 C1 1_555 1_555
C2 H8 1_555 1_555
H9 C2 1_555 1_555
H10 C2 1_555 1_555
C3 H11 1_555 1_555
H12 C3 1_555 1_555
H13 C3 1_555 1_555
C4 C1 1_555 1_555
C5 H14 1_555 1_555
H15 C5 1_555 1_555
H16 C5 1_555 1_555
C6 H17 1_555 1_555
H18 C6 1_555 1_555
H19 C6 1_555 1_555
C7 H20 1_555 1_555
H21 C7 1_555 1_555
H22 C7 1_555 1_555
C8 C5 1_555 1_555
C9 H23 1_555 1_555
H24 C9 1_555 1_555
H25 C9 1_555 1_555
C10 H26 1_555 1_555
H27 C10 1_555 1_555
H28 C10 1_555 1_555
C11 C9 1_555 1_555
H29 C11 1_555 1_555
C12 C16 1_555 1_555
C13 C20 1_555 1_555
C14 C24 1_555 1_555
C15 O1 1_555 1_555
C16 C19 1_555 1_555
C17 C22 1_555 1_555
C18 C23 1_555 1_555
C19 C27 1_555 1_555
C20 C15 1_555 1_555
C21 C30 1_555 1_555
C22 C26 1_555 1_555
C23 O7 1_555 1_555
C24 C40 1_555 1_555
C25 C18 1_555 1_555
C26 C14 1_555 1_555
C27 C38 1_555 1_555
C28 C11 1_555 1_555
H30 C28 1_555 1_555
H31 C28 1_555 1_555
H32 C28 1_555 1_555
C29 C18 1_555 1_555
C30 C40 1_555 1_555
C31 O2 1_555 1_555
C32 C15 1_555 1_555
C33 C36 1_555 1_555
C34 C23 1_555 1_555
C35 C22 1_555 1_555
C36 O9 1_555 1_555
C37 O3 1_555 1_555
C38 C61 1_555 1_555
C39 C35 1_555 1_555
C40 C17 1_555 1_555
C41 C33 1_555 1_555
C42 C21 1_555 1_555
C43 C41 1_555 1_555
C44 C25 1_555 1_555
C45 C25 1_555 1_555
C46 C44 1_555 1_555
C47 C33 1_555 1_555
C48 C58 1_555 1_555
C49 C34 1_555 1_555
C50 C39 1_555 1_555
C51 C42 1_555 1_555
C52 C12 1_555 1_555
C53 O4 1_555 1_555
C54 C42 1_555 1_555
C55 C30 1_555 1_555
C56 C17 1_555 1_555
C57 C19 1_555 1_555
C58 C39 1_555 1_555
C59 C27 1_555 1_555
C60 C61 1_555 1_555
C61 C68 1_555 1_555
C62 C48 1_555 1_555
C63 O6 1_555 1_555
C64 C43 1_555 1_555
C65 C54 1_555 1_555
C66 C48 1_555 1_555
C67 C46 1_555 1_555
C68 C45 1_555 1_555
C69 C62 1_555 1_555
C70 C38 1_555 1_555
C71 O5 1_555 1_555
H33 C71 1_555 1_555
C72 C51 1_555 1_555
C73 C71 1_555 1_555
H34 C73 1_555 1_555
H35 C73 1_555 1_555
H36 C73 1_555 1_555
C74 C45 1_555 1_555
S1 C75 1_555 1_555
S2 C75 1_555 1_555
C2 C4 1_555 1_555
C3 C4 1_555 1_555
C6 C8 1_555 1_555
C7 C8 1_555 1_555
C10 C71 1_555 1_555
C12 C53 1_555 1_555
C13 C31 1_555 1_555
C13 C36 1_555 1_555
C14 C53 1_555 1_555
C15 C37 1_555 1_555
C16 C32 1_555 1_555
C20 C23 1_555 1_555
C21 C56 1_555 1_555
C24 C52 1_555 1_555
C26 C63 1_555 1_555
C29 C32 1_555 1_555
C29 C57 1_555 1_555
C31 C37 1_555 1_555
C31 C63 1_555 1_555
C34 C44 1_555 1_555
C35 C47 1_555 1_555
C36 C49 1_555 1_555
C37 C53 1_555 1_555
C41 C58 1_555 1_555
C43 C49 1_555 1_555
C46 C64 1_555 1_555
C47 C63 1_555 1_555
C50 C56 1_555 1_555
C50 C66 1_555 1_555
C51 C70 1_555 1_555
C52 C59 1_555 1_555
C54 C66 1_555 1_555
C55 C59 1_555 1_555
C55 C70 1_555 1_555
C57 C68 1_555 1_555
C60 C72 1_555 1_555
C60 C74 1_555 1_555
C62 C64 1_555 1_555
C65 C69 1_555 1_555
C65 C72 1_555 1_555
C67 C69 1_555 1_555
C67 C74 1_555 1_555

#END
