
#######################################################################
#
#                 Cambridge Crystallographic Data Centre
#                                CCDC 
#
#######################################################################
#
# If this CIF has been generated from an entry in the Cambridge 
# Structural Database, then it will include bibliographic, chemical, 
# crystal, experimental, refinement or atomic coordinate data resulting 
# from the CCDC's data processing and validation procedures.
#
#######################################################################

data_HABRIL
_chemical_formula_moiety         'C24 H30'
_chemical_name_systematic        1,1'-Diphenyl-1,1'-bicylohexyl
_symmetry_cell_setting           monoclinic
_symmetry_space_group_name_H-M   'C 2/c'
_symmetry_Int_Tables_number      15
_space_group_name_Hall           '-C 2yn'
loop_
_symmetry_equiv_pos_site_id
_symmetry_equiv_pos_as_xyz
1 x,y,z
2 1/2+x,1/2+y,z
3 -x,y,1/2-z
4 1/2-x,1/2+y,1/2-z
5 -x,-y,-z
6 1/2-x,1/2-y,-z
7 x,-y,1/2+z
8 1/2+x,1/2-y,1/2+z
_cell_length_a                   17.306(9)
_cell_length_b                   6.499(3)
_cell_length_c                   16.596(11)
_cell_angle_alpha                90
_cell_angle_beta                 102.29(5)
_cell_angle_gamma                90
_cell_volume                     1823.8
_exptl_crystal_colour            Colorless
_cell_formula_units_Z            4
loop_
_atom_site_label
_atom_site_type_symbol
_atom_site_fract_x
_atom_site_fract_y
_atom_site_fract_z
C1 C -0.2029(2) -0.2289(5) 0.0047(2)
C2 C -0.1805(2) -0.0126(5) 0.0407(2)
C3 C -0.0912(2) 0.0307(5) 0.0573(2)
C4 C -0.0456(2) -0.1274(6) 0.1166(2)
C5 C -0.0656(2) -0.3441(5) 0.0851(2)
C6 C -0.1549(2) -0.3816(5) 0.0676(2)
C7 C -0.1805(2) -0.2516(5) -0.0801(2)
C8 C -0.1540(2) -0.4372(5) -0.1067(2)
C9 C -0.1339(2) -0.4565(7) -0.1830(2)
C10 C -0.1399(2) -0.2898(6) -0.2346(2)
C11 C -0.1664(2) -0.1042(7) -0.2112(2)
C12 C -0.1857(2) -0.0858(5) -0.1348(2)
H1 H -0.1965 -0.0003 0.0924
H2 H -0.2088 0.0890 0.0040
H3 H -0.0805 0.1675 0.0786
H4 H -0.0744 0.0215 0.0058
H5 H -0.0599 -0.1121 0.1691
H6 H 0.0102 -0.1038 0.1240
H7 H -0.0392 -0.4431 0.1244
H8 H -0.0476 -0.3625 0.0347
H9 H -0.1664 -0.5202 0.0486
H10 H -0.1719 -0.3666 0.1187
H11 H -0.1485 -0.5532 -0.0702
H12 H -0.1168 -0.5867 -0.2002
H13 H -0.1255 -0.3021 -0.2872
H14 H -0.1713 0.0124 -0.2475
H15 H -0.2032 0.0446 -0.1182
C1E C -0.2971(2) -0.2711(5) -0.0047(2)
C2E C -0.3195(2) -0.4874(5) -0.0407(2)
C6E C -0.3451(2) -0.1184(5) -0.0676(2)
C7E C -0.3195(2) -0.2484(5) 0.0801(2)
C3E C -0.4088(2) -0.5307(5) -0.0573(2)
H1E H -0.3035 -0.4997 -0.0924
H2E H -0.2912 -0.5890 -0.0040
C5E C -0.4344(2) -0.1559(5) -0.0851(2)
H9E H -0.3336 0.0202 -0.0486
H10E H -0.3281 -0.1334 -0.1187
C8E C -0.3460(2) -0.0628(5) 0.1067(2)
C12E C -0.3143(2) -0.4142(5) 0.1348(2)
C4E C -0.4544(2) -0.3726(6) -0.1166(2)
H3E H -0.4195 -0.6675 -0.0786
H4E H -0.4256 -0.5215 -0.0058
H7E H -0.4608 -0.0569 -0.1244
H8E H -0.4524 -0.1375 -0.0347
C9E C -0.3661(2) -0.0435(7) 0.1830(2)
H11E H -0.3515 0.0532 0.0702
C11E C -0.3336(2) -0.3958(7) 0.2112(2)
H15E H -0.2968 -0.5446 0.1182
H5E H -0.4401 -0.3879 -0.1691
H6E H -0.5102 -0.3962 -0.1240
C10E C -0.3601(2) -0.2102(6) 0.2346(2)
H12E H -0.3832 0.0867 0.2002
H14E H -0.3287 -0.5124 0.2475
H13E H -0.3745 -0.1979 0.2872
loop_
_geom_bond_atom_site_label_1
_geom_bond_atom_site_label_2
_geom_bond_site_symmetry_1
_geom_bond_site_symmetry_2
C1 C2 1_555 1_555
C2 C3 1_555 1_555
C3 C4 1_555 1_555
C4 C5 1_555 1_555
C5 C6 1_555 1_555
C6 C1 1_555 1_555
C7 C1 1_555 1_555
C8 C7 1_555 1_555
C9 C8 1_555 1_555
C10 C9 1_555 1_555
C11 C10 1_555 1_555
C12 C7 1_555 1_555
H1 C2 1_555 1_555
H2 C2 1_555 1_555
H3 C3 1_555 1_555
H4 C3 1_555 1_555
H5 C4 1_555 1_555
H6 C4 1_555 1_555
H7 C5 1_555 1_555
H8 C5 1_555 1_555
H9 C6 1_555 1_555
H10 C6 1_555 1_555
H11 C8 1_555 1_555
H12 C9 1_555 1_555
H13 C10 1_555 1_555
H14 C11 1_555 1_555
H15 C12 1_555 1_555
C1E C1 1_555 1_555
C2E C1E 1_555 1_555
C6E C1E 1_555 1_555
C7E C1E 1_555 1_555
C3E C2E 1_555 1_555
H1E C2E 1_555 1_555
H2E C2E 1_555 1_555
C5E C6E 1_555 1_555
H9E C6E 1_555 1_555
H10E C6E 1_555 1_555
C8E C7E 1_555 1_555
C12E C7E 1_555 1_555
C4E C3E 1_555 1_555
H3E C3E 1_555 1_555
H4E C3E 1_555 1_555
H7E C5E 1_555 1_555
H8E C5E 1_555 1_555
C9E C8E 1_555 1_555
H11E C8E 1_555 1_555
C11E C12E 1_555 1_555
H15E C12E 1_555 1_555
H5E C4E 1_555 1_555
H6E C4E 1_555 1_555
C10E C9E 1_555 1_555
H12E C9E 1_555 1_555
H14E C11E 1_555 1_555
H13E C10E 1_555 1_555
C11 C12 1_555 1_555
C5E C4E 1_555 1_555
C11E C10E 1_555 1_555

#END
