
#######################################################################
#
#                 Cambridge Crystallographic Data Centre
#                                CCDC 
#
#######################################################################
#
# If this CIF has been generated from an entry in the Cambridge 
# Structural Database, then it will include bibliographic, chemical, 
# crystal, experimental, refinement or atomic coordinate data resulting 
# from the CCDC's data processing and validation procedures.
#
#######################################################################

data_HABREH
_chemical_formula_moiety         'C22 H26'
_chemical_name_systematic        1,1'-Diphenyl-1,1'-bicyclopentyl
_symmetry_cell_setting           tetragonal
_symmetry_space_group_name_H-M   'I 41/a'
_symmetry_Int_Tables_number      88
_space_group_name_Hall           '-I 4ad'
loop_
_symmetry_equiv_pos_site_id
_symmetry_equiv_pos_as_xyz
1 x,y,z
2 1/2+x,1/2+y,1/2+z
3 3/4-y,1/4+x,1/4+z
4 1/4-y,3/4+x,3/4+z
5 1/2-x,-y,1/2+z
6 -x,1/2-y,z
7 3/4+y,3/4-x,3/4+z
8 1/4+y,1/4-x,1/4+z
9 -x,-y,-z
10 1/2-x,1/2-y,1/2-z
11 1/4+y,3/4-x,3/4-z
12 3/4+y,1/4-x,1/4-z
13 1/2+x,y,1/2-z
14 x,1/2+y,-z
15 1/4-y,1/4+x,1/4-z
16 3/4-y,3/4+x,3/4-z
_cell_length_a                   10.2050(10)
_cell_length_b                   10.2050(10)
_cell_length_c                   32.229(10)
_cell_angle_alpha                90
_cell_angle_beta                 90
_cell_angle_gamma                90
_cell_volume                     3356.39
_exptl_crystal_colour            Colorless
_cell_formula_units_Z            8
loop_
_atom_site_label
_atom_site_type_symbol
_atom_site_fract_x
_atom_site_fract_y
_atom_site_fract_z
C1 C 0.4317(3) 0.7859(3) 0.3401(1)
C2 C 0.4101(4) 0.8782(4) 0.3025(1)
C3 C 0.2624(4) 0.8993(4) 0.3002(1)
C4 C 0.2006(4) 0.7810(4) 0.3216(1)
C5 C 0.3156(4) 0.6922(4) 0.3331(1)
C6 C 0.4168(4) 0.8637(4) 0.3807(1)
C7 C 0.4780(4) 0.9837(4) 0.3864(1)
C8 C 0.4694(5) 1.0496(5) 0.4235(2)
C9 C 0.4012(6) 1.0004(7) 0.4561(2)
C10 C 0.3408(5) 0.8823(6) 0.4513(2)
C11 C 0.3484(4) 0.8141(4) 0.4144(1)
H1 H 0.4423 0.8393 0.2774
H2 H 0.4553 0.9594 0.3072
H3 H 0.2340 0.9043 0.2718
H4 H 0.2384 0.9791 0.3140
H5 H 0.1402 0.7375 0.3034
H6 H 0.1545 0.8081 0.3461
H7 H 0.2971 0.6441 0.3580
H8 H 0.3334 0.6315 0.3111
H9 H 0.5257 1.0206 0.3636
H10 H 0.5156 1.1308 0.4268
H11 H 0.3933 1.0488 0.4815
H12 H 0.2940 0.8463 0.4745
H13 H 0.3033 0.7319 0.4118
C1E C 0.5683(3) 0.7141(3) 0.3401(1)
C2E C 0.5899(4) 0.6218(4) 0.3025(1)
C5E C 0.6844(4) 0.8078(4) 0.3331(1)
C6E C 0.5832(4) 0.6363(4) 0.3807(1)
C3E C 0.7376(4) 0.6007(4) 0.3002(1)
H1E H 0.5577 0.6607 0.2774
H2E H 0.5447 0.5406 0.3072
C4E C 0.7994(4) 0.7190(4) 0.3216(1)
H7E H 0.7029 0.8559 0.3580
H8E H 0.6666 0.8685 0.3111
C7E C 0.5220(4) 0.5163(4) 0.3864(1)
C11E C 0.6516(4) 0.6859(4) 0.4144(1)
H3E H 0.7660 0.5957 0.2718
H4E H 0.7616 0.5209 0.3140
H5E H 0.8598 0.7625 0.3034
H6E H 0.8455 0.6919 0.3461
C8E C 0.5306(5) 0.4504(5) 0.4235(2)
H9E H 0.4743 0.4794 0.3636
C10E C 0.6592(5) 0.6177(6) 0.4513(2)
H13E H 0.6967 0.7681 0.4118
C9E C 0.5988(6) 0.4996(7) 0.4561(2)
H10E H 0.4844 0.3692 0.4268
H12E H 0.7060 0.6537 0.4745
H11E H 0.6067 0.4512 0.4815
loop_
_geom_bond_atom_site_label_1
_geom_bond_atom_site_label_2
_geom_bond_site_symmetry_1
_geom_bond_site_symmetry_2
C1 C2 1_555 1_555
C2 C3 1_555 1_555
C3 C4 1_555 1_555
C4 C5 1_555 1_555
C5 C1 1_555 1_555
C6 C1 1_555 1_555
C7 C6 1_555 1_555
C8 C7 1_555 1_555
C9 C8 1_555 1_555
C10 C9 1_555 1_555
C11 C6 1_555 1_555
H1 C2 1_555 1_555
H2 C2 1_555 1_555
H3 C3 1_555 1_555
H4 C3 1_555 1_555
H5 C4 1_555 1_555
H6 C4 1_555 1_555
H7 C5 1_555 1_555
H8 C5 1_555 1_555
H9 C7 1_555 1_555
H10 C8 1_555 1_555
H11 C9 1_555 1_555
H12 C10 1_555 1_555
H13 C11 1_555 1_555
C1E C1 1_555 1_555
C2E C1E 1_555 1_555
C5E C1E 1_555 1_555
C6E C1E 1_555 1_555
C3E C2E 1_555 1_555
H1E C2E 1_555 1_555
H2E C2E 1_555 1_555
C4E C5E 1_555 1_555
H7E C5E 1_555 1_555
H8E C5E 1_555 1_555
C7E C6E 1_555 1_555
C11E C6E 1_555 1_555
H3E C3E 1_555 1_555
H4E C3E 1_555 1_555
H5E C4E 1_555 1_555
H6E C4E 1_555 1_555
C8E C7E 1_555 1_555
H9E C7E 1_555 1_555
C10E C11E 1_555 1_555
H13E C11E 1_555 1_555
C9E C8E 1_555 1_555
H10E C8E 1_555 1_555
H12E C10E 1_555 1_555
H11E C9E 1_555 1_555
C10 C11 1_555 1_555
C3E C4E 1_555 1_555
C10E C9E 1_555 1_555

#END
