
#######################################################################
#
#                 Cambridge Crystallographic Data Centre
#                                CCDC 
#
#######################################################################
#
# If this CIF has been generated from an entry in the Cambridge 
# Structural Database, then it will include bibliographic, chemical, 
# crystal, experimental, refinement or atomic coordinate data resulting 
# from the CCDC's data processing and validation procedures.
#
#######################################################################

data_HABTOV
_chemical_formula_moiety         'C18 H14 N2 S1'
_chemical_name_systematic        
3-Methyl-2,6-diphenylimidazo[2,1-b][1,3]thiazole
_symmetry_cell_setting           monoclinic
_symmetry_space_group_name_H-M   'P 21/a'
_symmetry_Int_Tables_number      14
_space_group_name_Hall           '-P 2yab'
loop_
_symmetry_equiv_pos_site_id
_symmetry_equiv_pos_as_xyz
1 x,y,z
2 1/2-x,1/2+y,-z
3 -x,-y,-z
4 1/2+x,1/2-y,z
_cell_length_a                   7.4161(11)
_cell_length_b                   13.563(2)
_cell_length_c                   29.240(4)
_cell_angle_alpha                90
_cell_angle_beta                 90.00
_cell_angle_gamma                90
_cell_volume                     2941.09
_exptl_crystal_colour            colorless
_exptl_crystal_description       block
_cell_formula_units_Z            8
loop_
_atom_site_label
_atom_site_type_symbol
_atom_site_fract_x
_atom_site_fract_y
_atom_site_fract_z
C1 C 0.7315(4) 0.1907(2) 0.50166(11)
C2 C 0.6522(4) 0.1309(2) 0.42930(12)
C3 C 0.8306(4) 0.1235(2) 0.57251(12)
C4 C 0.6992(4) 0.0465(2) 0.45474(12)
C5 C 0.7976(4) 0.0417(2) 0.54382(11)
H1 H 0.8107 -0.0247 0.5512
C6 C 0.8811(4) 0.1228(2) 0.62014(12)
C7 C 0.9942(4) 0.1963(2) 0.63545(13)
H2 H 1.0361 0.2444 0.6154
C8 C 1.0469(5) 0.1978(2) 0.68296(13)
H3 H 1.1230 0.2469 0.6939
C9 C 0.9819(4) 0.1242(2) 0.71255(14)
H4 H 1.0144 0.1256 0.7433
C10 C 0.8720(4) 0.0507(2) 0.69697(12)
H5 H 0.8328 0.0013 0.7167
C11 C 0.8197(4) 0.0507(2) 0.65165(11)
H6 H 0.7415 0.0018 0.6414
C12 C 0.7040(5) -0.0593(2) 0.44202(14)
H7 H 0.8216 -0.0757 0.4306
H8 H 0.6155 -0.0719 0.4188
H9 H 0.6780 -0.0988 0.4685
C13 C 0.5988(3) 0.12905(15) 0.37992(6)
C14 C 0.6639(3) 0.05696(13) 0.35044(8)
H10 H 0.7435 0.0093 0.3612
C15 C 0.6100(3) 0.05611(14) 0.30491(7)
H11 H 0.6535 0.0079 0.2852
C16 C 0.4911(3) 0.12737(17) 0.28886(6)
H12 H 0.4550 0.1268 0.2584
C17 C 0.4260(3) 0.19946(14) 0.31834(7)
H13 H 0.3464 0.2471 0.3076
C18 C 0.4799(3) 0.20031(13) 0.36387(7)
H14 H 0.4364 0.2485 0.3836
N1 N 0.7934(3) 0.21602(18) 0.54501(8)
N2 N 0.7386(3) 0.08299(17) 0.50011(9)
S1 S 0.67156(11) 0.25020(7) 0.45177(3)
C19 C 0.4893(4) 0.5557(2) -0.13901(10)
H15 H 0.5286 0.5053 -0.1199
C20 C 0.5413(4) 0.5579(2) -0.18395(12)
H16 H 0.6149 0.5077 -0.1950
C21 C 0.4893(4) 0.6301(2) -0.21275(11)
H17 H 0.5253 0.6298 -0.2432
C22 C 0.3801(4) 0.7054(2) -0.19562(12)
H18 H 0.3423 0.7549 -0.2154
C23 C 0.3253(4) 0.7094(2) -0.14996(11)
H19 H 0.2585 0.7624 -0.1389
C24 C 0.3735(3) 0.63216(19) -0.12172(9)
C25 C 0.3174(4) 0.63433(19) -0.07293(9)
C26 C 0.2713(4) 0.7164(2) -0.04815(10)
H20 H 0.2710 0.7820 -0.0575
C27 C 0.2486(3) 0.5745(2) -0.00729(11)
C28 C 0.1533(4) 0.6278(2) 0.06903(11)
C29 C 0.1684(4) 0.7106(2) 0.03830(11)
C30 C 0.1430(5) 0.8167(2) 0.05502(13)
H21 H 0.0303 0.8418 0.0439
H22 H 0.2398 0.8569 0.0438
H23 H 0.1429 0.8177 0.0879
C31 C 0.1094(4) 0.6265(2) 0.11688(12)
C32 C -0.0116(4) 0.5580(2) 0.13556(12)
H24 H -0.0613 0.5108 0.1162
C33 C -0.0607(5) 0.5568(2) 0.18068(13)
H25 H -0.1418 0.5100 0.1915
C34 C 0.0134(4) 0.6277(2) 0.21048(12)
H26 H -0.0192 0.6285 0.2412
C35 C 0.1337(4) 0.6952(2) 0.19393(10)
H27 H 0.1830 0.7424 0.2133
C36 C 0.1832(4) 0.6927(2) 0.14672(11)
H28 H 0.2681 0.7375 0.1360
N3 N 0.3096(3) 0.54494(16) -0.04882(9)
N4 N 0.2245(3) 0.67752(17) -0.00514(8)
S2 S 0.20075(11) 0.51125(6) 0.04297(3)
loop_
_geom_bond_atom_site_label_1
_geom_bond_atom_site_label_2
_geom_bond_site_symmetry_1
_geom_bond_site_symmetry_2
C1 N1 1_555 1_555
C2 C4 1_555 1_555
C3 C5 1_555 1_555
C4 C12 1_555 1_555
C5 H1 1_555 1_555
C6 C3 1_555 1_555
C7 C6 1_555 1_555
H2 C7 1_555 1_555
C8 C7 1_555 1_555
H3 C8 1_555 1_555
C9 C8 1_555 1_555
H4 C9 1_555 1_555
C10 C9 1_555 1_555
H5 C10 1_555 1_555
C11 C6 1_555 1_555
H6 C11 1_555 1_555
C12 H7 1_555 1_555
H8 C12 1_555 1_555
H9 C12 1_555 1_555
C13 C2 1_555 1_555
C14 C13 1_555 1_555
H10 C14 1_555 1_555
C15 C14 1_555 1_555
H11 C15 1_555 1_555
C16 C15 1_555 1_555
H12 C16 1_555 1_555
C17 C16 1_555 1_555
H13 C17 1_555 1_555
C18 C13 1_555 1_555
H14 C18 1_555 1_555
C19 H15 1_555 1_555
C20 C19 1_555 1_555
H16 C20 1_555 1_555
C21 C20 1_555 1_555
H17 C21 1_555 1_555
C22 C21 1_555 1_555
H18 C22 1_555 1_555
C23 C22 1_555 1_555
H19 C23 1_555 1_555
C24 C19 1_555 1_555
C25 C24 1_555 1_555
C26 C25 1_555 1_555
H20 C26 1_555 1_555
C27 N3 1_555 1_555
C28 C29 1_555 1_555
C29 C30 1_555 1_555
C30 H21 1_555 1_555
H22 C30 1_555 1_555
H23 C30 1_555 1_555
C31 C28 1_555 1_555
C32 C31 1_555 1_555
H24 C32 1_555 1_555
C33 C32 1_555 1_555
H25 C33 1_555 1_555
C34 C33 1_555 1_555
H26 C34 1_555 1_555
C35 C34 1_555 1_555
H27 C35 1_555 1_555
C36 C31 1_555 1_555
H28 C36 1_555 1_555
N1 C3 1_555 1_555
N2 C1 1_555 1_555
N3 C25 1_555 1_555
N4 C26 1_555 1_555
S1 C1 1_555 1_555
S2 C27 1_555 1_555
C2 S1 1_555 1_555
C4 N2 1_555 1_555
C5 N2 1_555 1_555
C10 C11 1_555 1_555
C17 C18 1_555 1_555
C23 C24 1_555 1_555
C27 N4 1_555 1_555
C28 S2 1_555 1_555
C29 N4 1_555 1_555
C35 C36 1_555 1_555

#END
