
#######################################################################
#
#                 Cambridge Crystallographic Data Centre
#                                CCDC 
#
#######################################################################
#
# If this CIF has been generated from an entry in the Cambridge 
# Structural Database, then it will include bibliographic, chemical, 
# crystal, experimental, refinement or atomic coordinate data resulting 
# from the CCDC's data processing and validation procedures.
#
#######################################################################

data_HABWIS
_chemical_formula_moiety         'C17 H22 N2 O3 S1'
_chemical_name_systematic        
'Ethyl 6-(2-methoxyphenyl)-1,4-dimethyl-2-(methylsulfanyl)-1,6-dihydropyrimidine-5-carboxylate'
_symmetry_cell_setting           triclinic
_symmetry_space_group_name_H-M   'P -1'
_symmetry_Int_Tables_number      2
_space_group_name_Hall           '-P 1'
loop_
_symmetry_equiv_pos_site_id
_symmetry_equiv_pos_as_xyz
1 x,y,z
2 -x,-y,-z
_cell_length_a                   9.263(2)
_cell_length_b                   9.297(2)
_cell_length_c                   10.493(3)
_cell_angle_alpha                96.447(4)
_cell_angle_beta                 91.136(3)
_cell_angle_gamma                103.561(3)
_cell_volume                     871.893
_cell_formula_units_Z            2
loop_
_atom_site_label
_atom_site_type_symbol
_atom_site_fract_x
_atom_site_fract_y
_atom_site_fract_z
C1 C 0.1939(2) 0.3675(2) 0.60566(16)
C2 C 0.17858(18) 0.1834(2) 0.41694(16)
H1 H 0.1970 0.0835 0.4130
C3 C 0.01293(18) 0.1681(2) 0.42618(16)
C4 C -0.03927(19) 0.2573(2) 0.51542(18)
C5 C 0.4130(2) 0.2675(3) 0.5502(2)
H2 H 0.4716 0.3275 0.4923
H3 H 0.4215 0.1663 0.5321
H4 H 0.4481 0.3051 0.6370
C6 C -0.2012(2) 0.2496(2) 0.5365(2)
H5 H -0.2276 0.3341 0.5063
H6 H -0.2183 0.2501 0.6265
H7 H -0.2608 0.1596 0.4903
C7 C -0.0829(2) 0.0574(2) 0.33058(19)
C8 C -0.0789(3) -0.1260(2) 0.1535(2)
H8 H -0.1242 -0.0747 0.0942
H9 H -0.1563 -0.2017 0.1846
C9 C 0.0337(3) -0.1953(3) 0.0882(3)
H10 H 0.1109 -0.1190 0.0598
H11 H -0.0130 -0.2637 0.0156
H12 H 0.0759 -0.2478 0.1472
C10 C 0.23942(18) 0.2506(2) 0.29716(16)
C11 C 0.3285(2) 0.1830(2) 0.21671(18)
C12 C 0.3784(2) 0.2435(3) 0.1052(2)
H13 H 0.4359 0.1972 0.0503
C13 C 0.3422(3) 0.3717(3) 0.0768(2)
H14 H 0.3754 0.4116 0.0023
C14 C 0.2577(3) 0.4421(3) 0.1568(2)
H15 H 0.2355 0.5301 0.1379
C15 C 0.2057(2) 0.3797(2) 0.26658(19)
H16 H 0.1471 0.4260 0.3203
C16 C 0.4508(3) -0.0179(4) 0.1781(3)
H17 H 0.4041 -0.0502 0.0939
H18 H 0.4638 -0.1028 0.2171
H19 H 0.5460 0.0487 0.1714
C17 C 0.1922(3) 0.5925(3) 0.7996(2)
H20 H 0.1495 0.6449 0.7408
H21 H 0.2454 0.6622 0.8689
H22 H 0.1146 0.5210 0.8331
N1 N 0.05390(17) 0.36779(17) 0.60089(15)
N2 N 0.25771(16) 0.27273(19) 0.53355(14)
O1 O -0.21512(16) 0.0368(2) 0.31109(18)
O2 O -0.00206(15) -0.02153(15) 0.25962(13)
O3 O 0.36027(18) 0.05683(19) 0.25432(15)
S1 S 0.31736(6) 0.49846(6) 0.71740(5)
loop_
_geom_bond_atom_site_label_1
_geom_bond_atom_site_label_2
_geom_bond_site_symmetry_1
_geom_bond_site_symmetry_2
C1 N1 1_555 1_555
C2 H1 1_555 1_555
C3 C2 1_555 1_555
C4 C3 1_555 1_555
C5 H2 1_555 1_555
H3 C5 1_555 1_555
H4 C5 1_555 1_555
C6 C4 1_555 1_555
H5 C6 1_555 1_555
H6 C6 1_555 1_555
H7 C6 1_555 1_555
C7 C3 1_555 1_555
C8 H8 1_555 1_555
H9 C8 1_555 1_555
C9 C8 1_555 1_555
H10 C9 1_555 1_555
H11 C9 1_555 1_555
H12 C9 1_555 1_555
C10 C2 1_555 1_555
C11 C10 1_555 1_555
C12 C11 1_555 1_555
H13 C12 1_555 1_555
C13 C12 1_555 1_555
H14 C13 1_555 1_555
C14 C13 1_555 1_555
H15 C14 1_555 1_555
C15 C10 1_555 1_555
H16 C15 1_555 1_555
C16 H17 1_555 1_555
H18 C16 1_555 1_555
H19 C16 1_555 1_555
C17 H20 1_555 1_555
H21 C17 1_555 1_555
H22 C17 1_555 1_555
N1 C4 1_555 1_555
N2 C1 1_555 1_555
O1 C7 1_555 1_555
O2 C7 1_555 1_555
O3 C11 1_555 1_555
S1 C1 1_555 1_555
C2 N2 1_555 1_555
C5 N2 1_555 1_555
C8 O2 1_555 1_555
C14 C15 1_555 1_555
C16 O3 1_555 1_555
C17 S1 1_555 1_555

#END
