
#######################################################################
#
#                 Cambridge Crystallographic Data Centre
#                                CCDC 
#
#######################################################################
#
# If this CIF has been generated from an entry in the Cambridge 
# Structural Database, then it will include bibliographic, chemical, 
# crystal, experimental, refinement or atomic coordinate data resulting 
# from the CCDC's data processing and validation procedures.
#
#######################################################################

data_HABWUE
_chemical_formula_moiety         'C15 H10 O5,H2 O1'
_chemical_name_systematic        '2-(4-Carboxybenzoyl)benzoic acid monohydrate'
_symmetry_cell_setting           triclinic
_symmetry_space_group_name_H-M   'P -1'
_symmetry_Int_Tables_number      2
_space_group_name_Hall           '-P 1'
loop_
_symmetry_equiv_pos_site_id
_symmetry_equiv_pos_as_xyz
1 x,y,z
2 -x,-y,-z
_cell_length_a                   5.404(2)
_cell_length_b                   8.354(3)
_cell_length_c                   14.409(3)
_cell_angle_alpha                88.338(3)
_cell_angle_beta                 88.666(3)
_cell_angle_gamma                83.087(2)
_cell_volume                     645.365
_cell_formula_units_Z            2
loop_
_atom_site_label
_atom_site_type_symbol
_atom_site_fract_x
_atom_site_fract_y
_atom_site_fract_z
O1 O 0.1530(6) 0.5522(4) 0.7150(2)
O2 O 0.1263(5) 0.1712(3) 0.7608(2)
O3 O 0.2508(7) 0.0170(4) 0.8806(2)
H1 H 0.1503 -0.0388 0.8605
O4 O 0.8171(5) 0.0403(4) 0.3783(2)
H2 H 0.8460 -0.0025 0.3280
O5 O 0.4690(6) 0.1387(4) 0.3100(2)
C1 C 0.3140(7) 0.4393(5) 0.7157(3)
C2 C 0.2563(8) 0.1450(5) 0.8277(3)
C3 C 0.4286(8) 0.2553(5) 0.8555(3)
C4 C 0.4524(8) 0.3941(5) 0.8030(3)
C5 C 0.6131(9) 0.4971(6) 0.8306(3)
H5 H 0.6263 0.5922 0.7967
C6 C 0.7549(10) 0.4616(7) 0.9078(3)
H6 H 0.8662 0.5315 0.9251
C7 C 0.7340(10) 0.3253(6) 0.9591(3)
H7 H 0.8304 0.3017 1.0115
C8 C 0.5720(9) 0.2237(6) 0.9338(3)
H8 H 0.5567 0.1309 0.9696
C9 C 0.6009(8) 0.1288(5) 0.3762(3)
C10 C 0.5335(7) 0.2086(5) 0.4646(3)
C11 C 0.3095(8) 0.3037(5) 0.4724(3)
H9 H 0.2039 0.3190 0.4220
C12 C 0.2422(8) 0.3757(5) 0.5544(3)
H10 H 0.0894 0.4396 0.5594
C13 C 0.3957(7) 0.3558(4) 0.6300(3)
C14 C 0.6193(7) 0.2612(5) 0.6215(3)
H11 H 0.7248 0.2457 0.6719
C15 C 0.6888(8) 0.1892(5) 0.5392(3)
H12 H 0.8426 0.1266 0.5338
O6 O 0.0490(6) 0.1773(4) 0.1815(2)
H3 H 0.0239 0.2527 0.2206
H4 H -0.0890 0.1889 0.1531
loop_
_geom_bond_atom_site_label_1
_geom_bond_atom_site_label_2
_geom_bond_site_symmetry_1
_geom_bond_site_symmetry_2
O1 C1 1_555 1_555
O2 C2 1_555 1_555
O3 H1 1_555 1_555
O4 H2 1_555 1_555
O5 C9 1_555 1_555
O6 H3 1_555 1_555
H4 O6 1_555 1_555
C1 C4 1_555 1_555
C2 O3 1_555 1_555
C3 C2 1_555 1_555
C4 C3 1_555 1_555
C5 C4 1_555 1_555
H5 C5 1_555 1_555
C6 C5 1_555 1_555
H6 C6 1_555 1_555
C7 C6 1_555 1_555
H7 C7 1_555 1_555
C8 C3 1_555 1_555
H8 C8 1_555 1_555
C9 O4 1_555 1_555
C10 C9 1_555 1_555
C11 C10 1_555 1_555
H9 C11 1_555 1_555
C12 C11 1_555 1_555
H10 C12 1_555 1_555
C13 C1 1_555 1_555
C14 C13 1_555 1_555
H11 C14 1_555 1_555
C15 C10 1_555 1_555
H12 C15 1_555 1_555
C7 C8 1_555 1_555
C12 C13 1_555 1_555
C14 C15 1_555 1_555

#END
