
#######################################################################
#
#                 Cambridge Crystallographic Data Centre
#                                CCDC 
#
#######################################################################
#
# If this CIF has been generated from an entry in the Cambridge 
# Structural Database, then it will include bibliographic, chemical, 
# crystal, experimental, refinement or atomic coordinate data resulting 
# from the CCDC's data processing and validation procedures.
#
#######################################################################

data_HABXIU
_chemical_formula_moiety         'C19 H17 O3 P1'
_chemical_name_systematic        2-(diphenylphosphoryl)-3-methoxyphenol
_symmetry_cell_setting           triclinic
_symmetry_space_group_name_H-M   'P -1'
_symmetry_Int_Tables_number      2
_space_group_name_Hall           '-P 1'
loop_
_symmetry_equiv_pos_site_id
_symmetry_equiv_pos_as_xyz
1 x,y,z
2 -x,-y,-z
_cell_length_a                   8.2388(8)
_cell_length_b                   11.1134(11)
_cell_length_c                   18.6189(18)
_cell_angle_alpha                75.716(2)
_cell_angle_beta                 84.108(2)
_cell_angle_gamma                84.374(2)
_cell_volume                     1638.65
_exptl_crystal_colour            colorless
_exptl_crystal_description       block
_cell_formula_units_Z            4
loop_
_atom_site_label
_atom_site_type_symbol
_atom_site_fract_x
_atom_site_fract_y
_atom_site_fract_z
P1 P 0.16031(10) 0.19436(8) 0.59208(5)
O1 O -0.0133(3) 0.2084(3) 0.62391(15)
O2 O 0.5008(3) 0.2522(2) 0.54077(16)
O3 O 0.0359(4) 0.3808(3) 0.68549(17)
H1 H -0.0050 0.3253 0.6712
C1 C 0.2524(4) 0.0437(3) 0.63602(17)
C2 C 0.1670(4) 0.2064(3) 0.49400(18)
C3 C 0.2706(4) 0.3138(3) 0.61095(19)
C4 C 0.3853(4) -0.0184(3) 0.60527(18)
H2 H 0.4364 0.0203 0.5583
C5 C 0.1491(4) 0.1007(3) 0.46819(19)
H3 H 0.1536 0.0208 0.5017
C6 C 0.4347(4) 0.3290(3) 0.5850(2)
C7 C 0.1814(5) -0.0149(4) 0.70553(19)
H4 H 0.0899 0.0256 0.7277
C8 C 0.1948(5) 0.3895(3) 0.6567(2)
C9 C 0.4449(5) -0.1364(3) 0.6420(2)
H5 H 0.5353 -0.1785 0.6202
C10 C 0.1584(5) 0.3223(4) 0.4441(2)
H6 H 0.1704 0.3951 0.4605
C11 C 0.3712(5) -0.1915(4) 0.7105(2)
H7 H 0.4106 -0.2725 0.7358
C12 C 0.1248(5) 0.1113(4) 0.3944(2)
H8 H 0.1137 0.0390 0.3773
C13 C 0.5235(6) 0.4168(4) 0.6035(2)
H9 H 0.6354 0.4257 0.5865
C14 C 0.2430(5) -0.1311(4) 0.7423(2)
H10 H 0.1955 -0.1692 0.7902
C15 C 0.1322(6) 0.3318(4) 0.3698(2)
H11 H 0.1250 0.4112 0.3360
C16 C 0.1168(5) 0.2267(4) 0.3458(2)
H12 H 0.1004 0.2337 0.2951
C17 C 0.6718(5) 0.2566(5) 0.5149(3)
H13 H 0.7012 0.1967 0.4840
H14 H 0.6922 0.3407 0.4854
H15 H 0.7382 0.2355 0.5576
C18 C 0.2790(7) 0.4778(4) 0.6751(3)
H16 H 0.2266 0.5291 0.7058
C19 C 0.4398(8) 0.4903(4) 0.6481(3)
H17 H 0.4963 0.5519 0.6606
P2 P 0.17866(10) 0.22779(8) 0.09131(5)
O4 O 0.0046(3) 0.2721(2) 0.10806(14)
O5 O 0.5309(3) 0.2385(3) 0.05337(17)
O6 O 0.0816(4) 0.4353(3) 0.17263(18)
H18 H 0.0316 0.3829 0.1596
C20 C 0.3374(4) 0.0576(4) 0.20312(19)
H19 H 0.3883 0.1260 0.2107
C21 C 0.2101(4) 0.2177(3) -0.00457(17)
C22 C 0.2317(4) 0.0756(3) 0.14754(17)
C23 C 0.3083(5) 0.3345(3) 0.11055(19)
C24 C 0.1260(4) 0.3044(3) -0.05677(19)
H20 H 0.0563 0.3690 -0.0421
C25 C 0.2423(6) 0.4236(3) 0.1494(2)
C26 C 0.1427(5) 0.2978(4) -0.1308(2)
H21 H 0.0840 0.3573 -0.1667
C27 C 0.3689(5) -0.0617(4) 0.2481(2)
H22 H 0.4408 -0.0735 0.2864
C28 C 0.3143(5) 0.1242(4) -0.0263(2)
H23 H 0.3745 0.0653 0.0093
C29 C 0.4772(5) 0.3311(4) 0.0878(2)
C30 C 0.1571(4) -0.0263(3) 0.1383(2)
H24 H 0.0822 -0.0151 0.1012
C31 C 0.2441(5) 0.2053(4) -0.1518(2)
H25 H 0.2559 0.2012 -0.2024
C32 C 0.2984(5) -0.1604(4) 0.2378(2)
H26 H 0.3221 -0.2413 0.2681
C33 C 0.1915(5) -0.1428(4) 0.1827(2)
H27 H 0.1415 -0.2120 0.1755
C34 C 0.5100(9) 0.4994(5) 0.1400(3)
H28 H 0.5782 0.5565 0.1500
C35 C 0.3297(6) 0.1176(4) -0.1001(2)
H29 H 0.3987 0.0531 -0.1151
C36 C 0.3499(9) 0.5055(4) 0.1644(3)
H30 H 0.3086 0.5651 0.1918
C37 C 0.5780(6) 0.4142(5) 0.1014(3)
H31 H 0.6908 0.4122 0.0845
C38 C 0.6916(5) 0.2409(6) 0.0158(3)
H32 H 0.7135 0.1689 -0.0063
H33 H 0.6987 0.3177 -0.0235
H34 H 0.7726 0.2378 0.0514
loop_
_geom_bond_atom_site_label_1
_geom_bond_atom_site_label_2
_geom_bond_site_symmetry_1
_geom_bond_site_symmetry_2
P1 O1 1_555 1_555
O2 C6 1_555 1_555
O3 H1 1_555 1_555
C1 P1 1_555 1_555
C2 P1 1_555 1_555
C3 P1 1_555 1_555
C4 C1 1_555 1_555
H2 C4 1_555 1_555
C5 C2 1_555 1_555
H3 C5 1_555 1_555
C6 C3 1_555 1_555
C7 C1 1_555 1_555
H4 C7 1_555 1_555
C8 O3 1_555 1_555
C9 C4 1_555 1_555
H5 C9 1_555 1_555
C10 C2 1_555 1_555
H6 C10 1_555 1_555
C11 C9 1_555 1_555
H7 C11 1_555 1_555
C12 C5 1_555 1_555
H8 C12 1_555 1_555
C13 C6 1_555 1_555
H9 C13 1_555 1_555
C14 C7 1_555 1_555
H10 C14 1_555 1_555
C15 C10 1_555 1_555
H11 C15 1_555 1_555
C16 C12 1_555 1_555
H12 C16 1_555 1_555
C17 O2 1_555 1_555
H13 C17 1_555 1_555
H14 C17 1_555 1_555
H15 C17 1_555 1_555
C18 C8 1_555 1_555
H16 C18 1_555 1_555
C19 C13 1_555 1_555
H17 C19 1_555 1_555
P2 O4 1_555 1_555
O5 C29 1_555 1_555
O6 H18 1_555 1_555
C20 H19 1_555 1_555
C21 P2 1_555 1_555
C22 P2 1_555 1_555
C23 P2 1_555 1_555
C24 C21 1_555 1_555
H20 C24 1_555 1_555
C25 O6 1_555 1_555
C26 C24 1_555 1_555
H21 C26 1_555 1_555
C27 C20 1_555 1_555
H22 C27 1_555 1_555
C28 C21 1_555 1_555
H23 C28 1_555 1_555
C29 C23 1_555 1_555
C30 C22 1_555 1_555
H24 C30 1_555 1_555
C31 C26 1_555 1_555
H25 C31 1_555 1_555
C32 C27 1_555 1_555
H26 C32 1_555 1_555
C33 C30 1_555 1_555
H27 C33 1_555 1_555
C34 H28 1_555 1_555
C35 C28 1_555 1_555
H29 C35 1_555 1_555
C36 C25 1_555 1_555
H30 C36 1_555 1_555
C37 C29 1_555 1_555
H31 C37 1_555 1_555
C38 O5 1_555 1_555
H32 C38 1_555 1_555
H33 C38 1_555 1_555
H34 C38 1_555 1_555
C3 C8 1_555 1_555
C11 C14 1_555 1_555
C15 C16 1_555 1_555
C18 C19 1_555 1_555
C20 C22 1_555 1_555
C23 C25 1_555 1_555
C31 C35 1_555 1_555
C32 C33 1_555 1_555
C34 C36 1_555 1_555
C34 C37 1_555 1_555

#END
