
#######################################################################
#
#                 Cambridge Crystallographic Data Centre
#                                CCDC 
#
#######################################################################
#
# If this CIF has been generated from an entry in the Cambridge 
# Structural Database, then it will include bibliographic, chemical, 
# crystal, experimental, refinement or atomic coordinate data resulting 
# from the CCDC's data processing and validation procedures.
#
#######################################################################

data_HABYOA
_chemical_formula_moiety         'C11 H11 N3 O1'
_chemical_name_systematic        N-(2-Aminophenyl)-1H-pyrrole-2-carboxamide
_symmetry_cell_setting           triclinic
_symmetry_space_group_name_H-M   'P -1'
_symmetry_Int_Tables_number      2
_space_group_name_Hall           '-P 1'
loop_
_symmetry_equiv_pos_site_id
_symmetry_equiv_pos_as_xyz
1 x,y,z
2 -x,-y,-z
_cell_length_a                   9.089(4)
_cell_length_b                   10.164(4)
_cell_length_c                   12.139(5)
_cell_angle_alpha                80.107(7)
_cell_angle_beta                 80.120(8)
_cell_angle_gamma                70.584(7)
_cell_volume                     1033.97
_chemical_melting_point          '471 K'
_cell_formula_units_Z            4
loop_
_atom_site_label
_atom_site_type_symbol
_atom_site_fract_x
_atom_site_fract_y
_atom_site_fract_z
O1 O 0.2961(3) 0.9400(3) 0.9826(2)
N1 N 0.5395(4) 0.5937(3) 0.8011(3)
N2 N 0.2678(4) 0.7459(3) 0.9316(2)
N3 N 0.2398(4) 0.8375(3) 1.2133(2)
C1 C 0.4285(4) 0.7102(3) 0.7501(3)
C2 C 0.4503(5) 0.7476(4) 0.6332(3)
H1 H 0.5401 0.6972 0.5905
C3 C 0.3399(5) 0.8583(4) 0.5812(3)
H2 H 0.3552 0.8818 0.5035
C4 C 0.2062(5) 0.9349(4) 0.6438(3)
H3 H 0.1331 1.0109 0.6084
C5 C 0.1815(5) 0.8979(4) 0.7599(3)
H4 H 0.0907 0.9477 0.8019
C6 C 0.2928(4) 0.7867(4) 0.8123(3)
C7 C 0.2616(4) 0.8295(4) 1.0096(3)
C8 C 0.2145(4) 0.7800(3) 1.1262(3)
C9 C 0.1399(4) 0.6831(4) 1.1742(3)
H5 H 0.1074 0.6282 1.1357
C10 C 0.1211(4) 0.6811(4) 1.2915(3)
H6 H 0.0744 0.6247 1.3446
C11 C 0.1837(4) 0.7770(4) 1.3134(3)
H7 H 0.1875 0.7976 1.3844
H15 H 0.635(2) 0.576(4) 0.760(2)
H16 H 0.545(4) 0.593(4) 0.8749(10)
H17 H 0.265(4) 0.6584(17) 0.955(3)
H18 H 0.293(4) 0.900(3) 1.205(3)
O2 O 0.2962(3) 0.4360(2) 0.98807(18)
N4 N 0.4006(4) 0.0532(3) 1.2032(3)
N5 N 0.2317(4) 0.2340(3) 1.0305(2)
N6 N 0.4013(3) 0.3817(3) 0.7636(2)
C12 C 0.2638(4) 0.1635(3) 1.2305(3)
C13 C 0.2058(5) 0.1826(4) 1.3432(3)
H8 H 0.2607 0.1240 1.4003
C14 C 0.0683(5) 0.2874(4) 1.3703(3)
H9 H 0.0327 0.3000 1.4454
C15 C -0.0173(5) 0.3737(4) 1.2874(3)
H10 H -0.1106 0.4435 1.3062
C16 C 0.0375(4) 0.3550(4) 1.1758(3)
H11 H -0.0197 0.4127 1.1193
C17 C 0.1772(4) 0.2508(3) 1.1470(3)
C18 C 0.2829(4) 0.3306(3) 0.9567(3)
C19 C 0.3187(4) 0.3059(3) 0.8383(3)
C20 C 0.2770(4) 0.2231(3) 0.7783(3)
H12 H 0.2208 0.1607 0.8074
C21 C 0.3360(4) 0.2510(4) 0.6640(3)
H13 H 0.3246 0.2115 0.6036
C22 C 0.4130(4) 0.3473(4) 0.6594(3)
H14 H 0.4651 0.3833 0.5947
H19 H 0.448(3) 0.074(4) 1.1342(12)
H20 H 0.466(3) 0.021(4) 1.2561(19)
H21 H 0.243(4) 0.151(2) 1.008(3)
H22 H 0.442(4) 0.442(3) 0.786(3)
loop_
_geom_bond_atom_site_label_1
_geom_bond_atom_site_label_2
_geom_bond_site_symmetry_1
_geom_bond_site_symmetry_2
O1 C7 1_555 1_555
O2 C18 1_555 1_555
N1 C1 1_555 1_555
N2 C6 1_555 1_555
N3 C8 1_555 1_555
N4 C12 1_555 1_555
N5 C17 1_555 1_555
N6 C19 1_555 1_555
C1 C2 1_555 1_555
C2 H1 1_555 1_555
C3 C2 1_555 1_555
H2 C3 1_555 1_555
C4 C3 1_555 1_555
H3 C4 1_555 1_555
C5 C4 1_555 1_555
H4 C5 1_555 1_555
C6 C1 1_555 1_555
C7 N2 1_555 1_555
C8 C7 1_555 1_555
C9 C8 1_555 1_555
H5 C9 1_555 1_555
C10 C9 1_555 1_555
H6 C10 1_555 1_555
C11 N3 1_555 1_555
H7 C11 1_555 1_555
C12 C13 1_555 1_555
C13 H8 1_555 1_555
C14 C13 1_555 1_555
H9 C14 1_555 1_555
C15 C14 1_555 1_555
H10 C15 1_555 1_555
C16 C15 1_555 1_555
H11 C16 1_555 1_555
C17 C12 1_555 1_555
C18 N5 1_555 1_555
C19 C18 1_555 1_555
C20 C19 1_555 1_555
H12 C20 1_555 1_555
C21 C20 1_555 1_555
H13 C21 1_555 1_555
C22 N6 1_555 1_555
H14 C22 1_555 1_555
H15 N1 1_555 1_555
H16 N1 1_555 1_555
H17 N2 1_555 1_555
H18 N3 1_555 1_555
H19 N4 1_555 1_555
H20 N4 1_555 1_555
H21 N5 1_555 1_555
H22 N6 1_555 1_555
C5 C6 1_555 1_555
C10 C11 1_555 1_555
C16 C17 1_555 1_555
C21 C22 1_555 1_555

#END
