
#######################################################################
#
#                 Cambridge Crystallographic Data Centre
#                                CCDC 
#
#######################################################################
#
# If this CIF has been generated from an entry in the Cambridge 
# Structural Database, then it will include bibliographic, chemical, 
# crystal, experimental, refinement or atomic coordinate data resulting 
# from the CCDC's data processing and validation procedures.
#
#######################################################################

data_HABZAO
_chemical_formula_moiety         'C14 H12 N2 O1'
_chemical_name_systematic        
1-methyl-3-phenyl-1,3-dihydro-2H-benzimidazol-2-one
_symmetry_cell_setting           monoclinic
_symmetry_space_group_name_H-M   'P 21/c'
_symmetry_Int_Tables_number      14
_space_group_name_Hall           '-P 2ybc'
loop_
_symmetry_equiv_pos_site_id
_symmetry_equiv_pos_as_xyz
1 x,y,z
2 -x,1/2+y,1/2-z
3 -x,-y,-z
4 x,1/2-y,1/2+z
_cell_length_a                   6.0068(8)
_cell_length_b                   15.6019(19)
_cell_length_c                   12.0874(16)
_cell_angle_alpha                90
_cell_angle_beta                 95.780(5)
_cell_angle_gamma                90
_cell_volume                     1127.04
_exptl_crystal_colour            colorless
_exptl_crystal_description       Block
_cell_formula_units_Z            4
loop_
_atom_site_label
_atom_site_type_symbol
_atom_site_fract_x
_atom_site_fract_y
_atom_site_fract_z
C1 C 1.1380(2) 0.59997(8) 0.24529(11)
O1 O 1.28660(16) 0.65370(6) 0.25277(9)
N1 N 1.1305(2) 0.52640(7) 0.30699(10)
N2 N 0.94168(18) 0.60127(7) 0.17432(9)
C2 C 0.9375(2) 0.48040(8) 0.27416(11)
C3 C 0.8638(3) 0.40107(9) 0.30615(13)
H1 H 0.9460 0.3687 0.3617
C4 C 0.6634(3) 0.37132(10) 0.25278(14)
H2 H 0.6105 0.3171 0.2716
C5 C 0.5393(3) 0.41959(10) 0.17243(13)
H3 H 0.4028 0.3980 0.1389
C6 C 0.6136(2) 0.49959(9) 0.14052(12)
H4 H 0.5292 0.5328 0.0866
C7 C 0.8155(2) 0.52798(8) 0.19122(11)
C8 C 1.2980(3) 0.50556(11) 0.39750(13)
H5 H 1.4295 0.5408 0.3924
H6 H 1.3385 0.4456 0.3930
H7 H 1.2382 0.5163 0.4678
C9 C 0.8857(2) 0.66500(8) 0.09126(11)
C10 C 0.6835(2) 0.70761(8) 0.08874(12)
H8 H 0.5859 0.6964 0.1431
C11 C 0.6259(2) 0.76690(9) 0.00548(12)
H9 H 0.4878 0.7955 0.0029
C12 C 0.7699(3) 0.78417(9) -0.07367(13)
H10 H 0.7303 0.8247 -0.1298
C13 C 0.9725(3) 0.74183(10) -0.07038(13)
H11 H 1.0712 0.7540 -0.1239
C14 C 1.0306(2) 0.68144(9) 0.01170(12)
H12 H 1.1673 0.6519 0.0133
loop_
_geom_bond_atom_site_label_1
_geom_bond_atom_site_label_2
_geom_bond_site_symmetry_1
_geom_bond_site_symmetry_2
C1 O1 1_555 1_555
N1 C1 1_555 1_555
N2 C1 1_555 1_555
C2 N1 1_555 1_555
C3 C2 1_555 1_555
H1 C3 1_555 1_555
C4 C3 1_555 1_555
H2 C4 1_555 1_555
C5 C4 1_555 1_555
H3 C5 1_555 1_555
C6 C5 1_555 1_555
H4 C6 1_555 1_555
C7 N2 1_555 1_555
C8 N1 1_555 1_555
H5 C8 1_555 1_555
H6 C8 1_555 1_555
H7 C8 1_555 1_555
C9 N2 1_555 1_555
C10 C9 1_555 1_555
H8 C10 1_555 1_555
C11 C10 1_555 1_555
H9 C11 1_555 1_555
C12 C11 1_555 1_555
H10 C12 1_555 1_555
C13 C12 1_555 1_555
H11 C13 1_555 1_555
C14 C9 1_555 1_555
H12 C14 1_555 1_555
C2 C7 1_555 1_555
C6 C7 1_555 1_555
C13 C14 1_555 1_555

#END
