
#######################################################################
#
#                 Cambridge Crystallographic Data Centre
#                                CCDC 
#
#######################################################################
#
# If this CIF has been generated from an entry in the Cambridge 
# Structural Database, then it will include bibliographic, chemical, 
# crystal, experimental, refinement or atomic coordinate data resulting 
# from the CCDC's data processing and validation procedures.
#
#######################################################################

data_HACFAU01
_chemical_formula_moiety         'C38 H38 N2 O4'
_chemical_name_systematic        
2,7-bis(2,6-diisopropylphenyl)benzo[lmn][3,8]phenanthroline-1,3,6,8(2H,7H)-tetrone
_symmetry_cell_setting           orthorhombic
_symmetry_space_group_name_H-M   'P c a 21'
_symmetry_Int_Tables_number      29
_space_group_name_Hall           'P 2c -2ac'
loop_
_symmetry_equiv_pos_site_id
_symmetry_equiv_pos_as_xyz
1 x,y,z
2 -x,-y,1/2+z
3 1/2+x,-y,z
4 1/2-x,y,1/2+z
_cell_length_a                   15.9987(13)
_cell_length_b                   8.560(2)
_cell_length_c                   22.951(3)
_cell_angle_alpha                90
_cell_angle_beta                 90
_cell_angle_gamma                90
_cell_volume                     3143.11
_exptl_crystal_colour            colorless
_exptl_crystal_description       prism
_cell_formula_units_Z            4
loop_
_atom_site_label
_atom_site_type_symbol
_atom_site_fract_x
_atom_site_fract_y
_atom_site_fract_z
O1 O -0.09057(16) 0.0036(3) 0.50005(14)
O2 O 0.11892(15) 0.0356(3) 0.63278(10)
O3 O 0.13901(16) 0.4806(3) 0.30735(11)
O4 O 0.34787(16) 0.5169(3) 0.44096(13)
N1 N 0.01330(16) 0.0239(3) 0.56671(13)
N2 N 0.24226(17) 0.5012(3) 0.37466(13)
C1 C -0.0234(2) 0.0588(4) 0.51296(15)
C2 C 0.02342(19) 0.1660(4) 0.47403(15)
C3 C -0.0107(2) 0.2127(4) 0.42239(15)
H1 H -0.0659 0.1814 0.4126
C4 C 0.0350(2) 0.3067(4) 0.38356(15)
H2 H 0.0108 0.3376 0.3476
C5 C 0.11502(19) 0.3544(3) 0.39758(14)
C6 C 0.16344(19) 0.4481(3) 0.35570(14)
C7 C 0.2800(2) 0.4643(4) 0.42800(15)
C8 C 0.23275(19) 0.3582(4) 0.46743(14)
C9 C 0.2674(2) 0.3101(4) 0.51908(16)
H3 H 0.3225 0.3415 0.5291
C10 C 0.2216(2) 0.2143(4) 0.55734(15)
H4 H 0.2460 0.1809 0.5929
C11 C 0.14161(19) 0.1689(3) 0.54343(14)
C12 C 0.0926(2) 0.0731(4) 0.58520(14)
C13 C 0.10467(19) 0.2143(4) 0.49000(14)
C14 C 0.15048(19) 0.3097(4) 0.45142(14)
C15 C -0.03363(19) -0.0757(4) 0.60631(14)
C16 C -0.0153(2) -0.2354(4) 0.60620(15)
C17 C -0.0608(2) -0.3277(4) 0.64493(18)
H5 H -0.0502 -0.4368 0.6465
C18 C -0.1210(2) -0.2640(4) 0.68110(16)
H6 H -0.1510 -0.3293 0.7073
C19 C -0.1377(2) -0.1061(4) 0.67923(16)
H7 H -0.1798 -0.0642 0.7039
C20 C -0.0944(2) -0.0066(4) 0.64205(16)
C21 C -0.1142(2) 0.1665(4) 0.63976(18)
H8 H -0.0682 0.2193 0.6178
C22 C -0.1180(3) 0.2383(5) 0.6997(2)
H9 H -0.1683 0.2016 0.7198
H10 H -0.1199 0.3524 0.6962
H11 H -0.0684 0.2077 0.7219
C23 C -0.1964(3) 0.1969(5) 0.6067(3)
H12 H -0.1936 0.1479 0.5681
H13 H -0.2047 0.3097 0.6022
H14 H -0.2432 0.1524 0.6286
C24 C 0.0508(2) -0.3048(4) 0.56679(18)
H15 H 0.0904 -0.2184 0.5569
C25 C 0.0129(3) -0.3612(6) 0.5094(2)
H16 H -0.0220 -0.4532 0.5167
H17 H 0.0578 -0.3888 0.4823
H18 H -0.0213 -0.2779 0.4925
C26 C 0.1022(3) -0.4323(5) 0.5957(2)
H19 H 0.0656 -0.5194 0.6064
H20 H 0.1290 -0.3904 0.6307
H21 H 0.1451 -0.4692 0.5685
C27 C 0.28894(19) 0.6031(4) 0.33543(14)
C28 C 0.2721(2) 0.7625(4) 0.33621(16)
C29 C 0.3192(2) 0.8567(4) 0.29950(17)
H22 H 0.3099 0.9663 0.2992
C30 C 0.3792(2) 0.7935(4) 0.26349(17)
H23 H 0.4114 0.8601 0.2391
C31 C 0.3930(2) 0.6345(4) 0.26247(15)
H24 H 0.4339 0.5926 0.2368
C32 C 0.3477(2) 0.5341(4) 0.29866(17)
C33 C 0.2047(3) 0.8297(4) 0.37624(18)
H25 H 0.1631 0.7444 0.3830
C34 C 0.2384(4) 0.8743(7) 0.4345(2)
H26 H 0.2717 0.7879 0.4502
H27 H 0.1920 0.8971 0.4610
H28 H 0.2737 0.9672 0.4305
C35 C 0.1569(3) 0.9658(6) 0.3493(2)
H29 H 0.1935 1.0573 0.3468
H30 H 0.1083 0.9907 0.3735
H31 H 0.1381 0.9368 0.3101
C36 C 0.3629(2) 0.3581(4) 0.29656(18)
H32 H 0.3154 0.3068 0.3174
C37 C 0.3632(3) 0.2961(5) 0.2343(2)
H33 H 0.3110 0.3259 0.2149
H34 H 0.3680 0.1820 0.2350
H35 H 0.4107 0.3406 0.2131
C38 C 0.4432(3) 0.3124(5) 0.3284(2)
H36 H 0.4914 0.3575 0.3081
H37 H 0.4484 0.1983 0.3290
H38 H 0.4413 0.3519 0.3684
loop_
_geom_bond_atom_site_label_1
_geom_bond_atom_site_label_2
_geom_bond_site_symmetry_1
_geom_bond_site_symmetry_2
O1 C1 1_555 1_555
O2 C12 1_555 1_555
O3 C6 1_555 1_555
O4 C7 1_555 1_555
N1 C1 1_555 1_555
N2 C6 1_555 1_555
C1 C2 1_555 1_555
C2 C3 1_555 1_555
C3 H1 1_555 1_555
C4 C3 1_555 1_555
H2 C4 1_555 1_555
C5 C4 1_555 1_555
C6 C5 1_555 1_555
C7 N2 1_555 1_555
C8 C7 1_555 1_555
C9 C8 1_555 1_555
H3 C9 1_555 1_555
C10 C9 1_555 1_555
H4 C10 1_555 1_555
C11 C10 1_555 1_555
C12 N1 1_555 1_555
C13 C2 1_555 1_555
C14 C5 1_555 1_555
C15 N1 1_555 1_555
C16 C15 1_555 1_555
C17 C16 1_555 1_555
H5 C17 1_555 1_555
C18 C17 1_555 1_555
H6 C18 1_555 1_555
C19 C18 1_555 1_555
H7 C19 1_555 1_555
C20 C15 1_555 1_555
C21 C20 1_555 1_555
H8 C21 1_555 1_555
C22 C21 1_555 1_555
H9 C22 1_555 1_555
H10 C22 1_555 1_555
H11 C22 1_555 1_555
C23 C21 1_555 1_555
H12 C23 1_555 1_555
H13 C23 1_555 1_555
H14 C23 1_555 1_555
C24 C16 1_555 1_555
H15 C24 1_555 1_555
C25 C24 1_555 1_555
H16 C25 1_555 1_555
H17 C25 1_555 1_555
H18 C25 1_555 1_555
C26 C24 1_555 1_555
H19 C26 1_555 1_555
H20 C26 1_555 1_555
H21 C26 1_555 1_555
C27 N2 1_555 1_555
C28 C27 1_555 1_555
C29 C28 1_555 1_555
H22 C29 1_555 1_555
C30 C29 1_555 1_555
H23 C30 1_555 1_555
C31 C30 1_555 1_555
H24 C31 1_555 1_555
C32 C27 1_555 1_555
C33 C28 1_555 1_555
H25 C33 1_555 1_555
C34 C33 1_555 1_555
H26 C34 1_555 1_555
H27 C34 1_555 1_555
H28 C34 1_555 1_555
C35 C33 1_555 1_555
H29 C35 1_555 1_555
H30 C35 1_555 1_555
H31 C35 1_555 1_555
C36 C32 1_555 1_555
H32 C36 1_555 1_555
C37 C36 1_555 1_555
H33 C37 1_555 1_555
H34 C37 1_555 1_555
H35 C37 1_555 1_555
C38 C36 1_555 1_555
H36 C38 1_555 1_555
H37 C38 1_555 1_555
H38 C38 1_555 1_555
C8 C14 1_555 1_555
C11 C12 1_555 1_555
C11 C13 1_555 1_555
C13 C14 1_555 1_555
C19 C20 1_555 1_555
C31 C32 1_555 1_555

#END
