
#######################################################################
#
#                 Cambridge Crystallographic Data Centre
#                                CCDC 
#
#######################################################################
#
# If this CIF has been generated from an entry in the Cambridge 
# Structural Database, then it will include bibliographic, chemical, 
# crystal, experimental, refinement or atomic coordinate data resulting 
# from the CCDC's data processing and validation procedures.
#
#######################################################################

data_HACGEA
_chemical_formula_moiety         'C18 H17 N1 O5'
_chemical_name_systematic        
'6a-t-butyl 1-methyl 1-cyano-6-oxo-1a,6-dihydrocyclopropa[a]indene-1,6a(1H)-dicarboxylate'
_symmetry_cell_setting           monoclinic
_symmetry_space_group_name_H-M   'C c'
_symmetry_Int_Tables_number      9
_space_group_name_Hall           'C -2yc'
loop_
_symmetry_equiv_pos_site_id
_symmetry_equiv_pos_as_xyz
1 x,y,z
2 x,-y,1/2+z
3 1/2+x,1/2+y,z
4 1/2+x,1/2-y,1/2+z
_cell_length_a                   31.831(19)
_cell_length_b                   5.639(3)
_cell_length_c                   18.637(12)
_cell_angle_alpha                90
_cell_angle_beta                 96.208(9)
_cell_angle_gamma                90
_cell_volume                     3325.63
_exptl_crystal_colour            colorless
_exptl_crystal_description       Prism
_cell_formula_units_Z            8
loop_
_atom_site_label
_atom_site_type_symbol
_atom_site_fract_x
_atom_site_fract_y
_atom_site_fract_z
O1 O 0.09598(5) 0.3825(3) 0.11846(9)
O2 O -0.01760(5) 0.7079(4) 0.28775(10)
O3 O 0.00078(5) 1.0310(3) 0.22691(10)
O4 O -0.00568(5) 0.6814(3) 0.10923(9)
O5 O 0.04422(5) 0.8889(3) 0.05753(9)
N1 N 0.07880(7) 0.3909(4) 0.33416(12)
C1 C 0.09993(7) 0.5537(4) 0.15819(12)
C2 C 0.13818(7) 0.6393(4) 0.20352(13)
C3 C 0.17848(7) 0.5394(5) 0.21291(14)
H1 H 0.1848 0.3988 0.1881
C4 C 0.20906(7) 0.6517(5) 0.25959(14)
H2 H 0.2368 0.5875 0.2670
C5 C 0.19959(8) 0.8574(5) 0.29572(14)
H3 H 0.2211 0.9318 0.3273
C6 C 0.15919(7) 0.9572(5) 0.28659(14)
H4 H 0.1528 1.0969 0.3118
C7 C 0.12874(7) 0.8453(4) 0.23956(13)
C8 C 0.08303(7) 0.9102(4) 0.22178(12)
H5 H 0.0748 1.0803 0.2145
C9 C 0.06390(7) 0.7255(4) 0.17035(12)
C10 C 0.05131(7) 0.7322(4) 0.24782(12)
C11 C 0.06601(7) 0.5417(5) 0.29679(13)
C12 C 0.00722(7) 0.8177(5) 0.25689(13)
C13 C -0.04172(8) 1.1254(6) 0.22483(17)
H6 H -0.0610 1.0287 0.1924
H7 H -0.0421 1.2892 0.2072
H8 H -0.0507 1.1220 0.2735
C14 C 0.02920(7) 0.7625(4) 0.10859(12)
C15 C 0.01550(7) 0.9748(4) -0.00649(12)
C16 C 0.04524(8) 1.1232(5) -0.04614(14)
H9 H 0.0589 1.2427 -0.0133
H10 H 0.0292 1.2022 -0.0872
H11 H 0.0668 1.0207 -0.0635
C17 C -0.00173(8) 0.7660(5) -0.05141(14)
H12 H 0.0216 0.6626 -0.0616
H13 H -0.0166 0.8234 -0.0969
H14 H -0.0214 0.6767 -0.0248
C18 C -0.01917(8) 1.1275(5) 0.02009(15)
H15 H -0.0380 1.0274 0.0453
H16 H -0.0354 1.2045 -0.0212
H17 H -0.0064 1.2487 0.0533
O6 O 0.26050(5) 0.3663(3) 0.92314(9)
O7 O 0.36963(5) 0.6861(4) 1.13930(9)
O8 O 0.35546(5) 1.0073(3) 1.06838(10)
O9 O 0.36259(5) 0.6367(3) 0.95658(9)
O10 O 0.31677(5) 0.8644(3) 0.88450(9)
N2 N 0.27147(7) 0.3881(4) 1.14425(12)
C19 C 0.25602(7) 0.5445(4) 0.95786(13)
C20 C 0.21687(7) 0.6467(4) 0.98122(13)
C21 C 0.17528(7) 0.5647(5) 0.96783(14)
H18 H 0.1689 0.4241 0.9408
C22 C 0.14368(7) 0.6946(5) 0.99517(14)
H19 H 0.1151 0.6438 0.9863
C23 C 0.15340(7) 0.9000(5) 1.03581(14)
H20 H 0.1313 0.9863 1.0542
C24 C 0.19495(7) 0.9809(5) 1.04995(13)
H21 H 0.2015 1.1189 1.0782
C25 C 0.22653(7) 0.8521(4) 1.02122(12)
C26 C 0.27290(7) 0.9036(4) 1.02677(12)
H22 H 0.2828 1.0708 1.0223
C27 C 0.29253(6) 0.7101(4) 0.98652(12)
C28 C 0.30226(7) 0.7206(4) 1.06922(12)
C29 C 0.28528(7) 0.5364(4) 1.11239(13)
C30 C 0.34663(7) 0.7998(5) 1.09701(13)
C31 C 0.39872(7) 1.0906(5) 1.08433(16)
H23 H 0.4056 1.1038 1.1367
H24 H 0.4016 1.2463 1.0620
H25 H 0.4181 0.9779 1.0650
C32 C 0.32893(7) 0.7312(4) 0.94109(12)
C33 C 0.34740(7) 0.9398(5) 0.83314(13)
C34 C 0.32013(9) 1.1034(5) 0.78291(15)
H26 H 0.2968 1.0128 0.7576
H27 H 0.3373 1.1728 0.7477
H28 H 0.3087 1.2302 0.8111
C35 C 0.36194(9) 0.7264(5) 0.79352(15)
H29 H 0.3780 0.6200 0.8279
H30 H 0.3800 0.7784 0.7571
H31 H 0.3373 0.6423 0.7698
C36 C 0.38377(8) 1.0726(5) 0.87497(16)
H32 H 0.3725 1.1932 0.9055
H33 H 0.4009 1.1493 0.8410
H34 H 0.4013 0.9607 0.9053
loop_
_geom_bond_atom_site_label_1
_geom_bond_atom_site_label_2
_geom_bond_site_symmetry_1
_geom_bond_site_symmetry_2
O1 C1 1_555 1_555
O2 C12 1_555 1_555
O3 C12 1_555 1_555
O4 C14 1_555 1_555
O5 C14 1_555 1_555
N1 C11 1_555 1_555
C1 C2 1_555 1_555
C2 C3 1_555 1_555
C3 H1 1_555 1_555
C4 C3 1_555 1_555
H2 C4 1_555 1_555
C5 C4 1_555 1_555
H3 C5 1_555 1_555
C6 C5 1_555 1_555
H4 C6 1_555 1_555
C7 C2 1_555 1_555
C8 C7 1_555 1_555
H5 C8 1_555 1_555
C9 C1 1_555 1_555
C10 C8 1_555 1_555
C11 C10 1_555 1_555
C12 C10 1_555 1_555
C13 O3 1_555 1_555
H6 C13 1_555 1_555
H7 C13 1_555 1_555
H8 C13 1_555 1_555
C14 C9 1_555 1_555
C15 O5 1_555 1_555
C16 C15 1_555 1_555
H9 C16 1_555 1_555
H10 C16 1_555 1_555
H11 C16 1_555 1_555
C17 C15 1_555 1_555
H12 C17 1_555 1_555
H13 C17 1_555 1_555
H14 C17 1_555 1_555
C18 C15 1_555 1_555
H15 C18 1_555 1_555
H16 C18 1_555 1_555
H17 C18 1_555 1_555
O6 C19 1_555 1_555
O7 C30 1_555 1_555
O8 C30 1_555 1_555
O9 C32 1_555 1_555
O10 C32 1_555 1_555
N2 C29 1_555 1_555
C19 C20 1_555 1_555
C20 C21 1_555 1_555
C21 H18 1_555 1_555
C22 C21 1_555 1_555
H19 C22 1_555 1_555
C23 C22 1_555 1_555
H20 C23 1_555 1_555
C24 C23 1_555 1_555
H21 C24 1_555 1_555
C25 C20 1_555 1_555
C26 C25 1_555 1_555
H22 C26 1_555 1_555
C27 C19 1_555 1_555
C28 C26 1_555 1_555
C29 C28 1_555 1_555
C30 C28 1_555 1_555
C31 O8 1_555 1_555
H23 C31 1_555 1_555
H24 C31 1_555 1_555
H25 C31 1_555 1_555
C32 C27 1_555 1_555
C33 O10 1_555 1_555
C34 C33 1_555 1_555
H26 C34 1_555 1_555
H27 C34 1_555 1_555
H28 C34 1_555 1_555
C35 C33 1_555 1_555
H29 C35 1_555 1_555
H30 C35 1_555 1_555
H31 C35 1_555 1_555
C36 C33 1_555 1_555
H32 C36 1_555 1_555
H33 C36 1_555 1_555
H34 C36 1_555 1_555
C6 C7 1_555 1_555
C8 C9 1_555 1_555
C9 C10 1_555 1_555
C24 C25 1_555 1_555
C26 C27 1_555 1_555
C27 C28 1_555 1_555

#END
