
#######################################################################
#
#                 Cambridge Crystallographic Data Centre
#                                CCDC 
#
#######################################################################
#
# If this CIF has been generated from an entry in the Cambridge 
# Structural Database, then it will include bibliographic, chemical, 
# crystal, experimental, refinement or atomic coordinate data resulting 
# from the CCDC's data processing and validation procedures.
#
#######################################################################

data_HACNOQ
_chemical_formula_moiety         'C19 H22 N2 O8 S1'
_chemical_name_systematic        
'3-(4-Methyl-5-oxotetrahydrofuran-2-yl)-5-oxooctahydroindolizin-8-yl 4-nitrobenzenesulfonate'
_symmetry_cell_setting           triclinic
_symmetry_space_group_name_H-M   'P -1'
_symmetry_Int_Tables_number      2
_space_group_name_Hall           '-P 1'
loop_
_symmetry_equiv_pos_site_id
_symmetry_equiv_pos_as_xyz
1 x,y,z
2 -x,-y,-z
_cell_length_a                   6.271(2)
_cell_length_b                   11.677(4)
_cell_length_c                   14.082(4)
_cell_angle_alpha                91.928(5)
_cell_angle_beta                 101.251(5)
_cell_angle_gamma                99.162(5)
_cell_volume                     996.223
_exptl_crystal_colour            colorless
_exptl_crystal_description       block
_cell_formula_units_Z            2
loop_
_atom_site_label
_atom_site_type_symbol
_atom_site_fract_x
_atom_site_fract_y
_atom_site_fract_z
S1 S -0.16157(9) -0.89217(5) -0.69685(4)
N1 N -0.3595(3) -0.70555(15) -0.41682(11)
O1 O -0.1661(2) -0.77550(13) -0.63912(9)
C1 C -0.5466(3) -0.66269(18) -0.44748(15)
O2 O 0.1032(3) -0.63259(16) -0.01726(11)
O3 O -0.6601(2) -0.63744(15) -0.39121(12)
C2 C -0.3236(3) -0.87810(17) -0.81136(14)
C3 C -0.5771(3) -0.85703(17) -0.98677(14)
N2 N -0.7152(3) -0.84917(18) -1.08302(13)
O4 O -0.1530(3) -0.68006(15) -0.15032(10)
O5 O 0.0613(3) -0.88424(16) -0.70622(12)
O6 O -0.2668(3) -0.98695(13) -0.65338(11)
C4 C -0.4430(4) -0.6618(2) -0.61438(15)
H1 H -0.5125 -0.6733 -0.6826
H2 H -0.3319 -0.5921 -0.6053
C5 C -0.3376(3) -0.76467(18) -0.58289(13)
H3 H -0.4486 -0.8356 -0.5932
C6 C -0.5479(3) -0.9202(2) -0.82835(15)
H4 H -0.6109 -0.9552 -0.7798
C7 C -0.2275(3) -0.82468(18) -0.88227(15)
H5 H -0.0770 -0.7960 -0.8699
C8 C -0.2193(3) -0.74751(17) -0.47834(13)
H6 H -0.0852 -0.6896 -0.4731
O7 O -0.6348(3) -0.7906(2) -1.14048(12)
C9 C -0.6761(3) -0.9099(2) -0.91716(15)
H7 H -0.8269 -0.9380 -0.9300
C10 C 0.0243(4) -0.6104(2) -0.09808(14)
C11 C -0.2194(4) -0.6355(2) -0.24505(14)
H8 H -0.3420 -0.5934 -0.2435
C12 C -0.2995(3) -0.74112(19) -0.31658(14)
H9 H -0.4296 -0.7874 -0.2995
O8 O -0.9026(3) -0.90175(17) -1.09970(13)
C13 C 0.0946(4) -0.5092(2) -0.15434(15)
H10 H 0.0306 -0.4431 -0.1346
C14 C -0.0200(4) -0.5506(2) -0.25790(15)
H11 H -0.0636 -0.4863 -0.2946
H12 H 0.0749 -0.5885 -0.2907
C15 C -0.3562(4) -0.81440(19) -0.97117(15)
H13 H -0.2944 -0.7791 -1.0200
C16 C -0.1587(4) -0.8542(2) -0.42951(15)
H14 H -0.0233 -0.8729 -0.4447
H15 H -0.2756 -0.9207 -0.4489
C17 C -0.6133(3) -0.6483(2) -0.55433(15)
H16 H -0.6528 -0.5717 -0.5625
H17 H -0.7448 -0.7049 -0.5802
C18 C 0.3407(4) -0.4732(2) -0.13588(19)
H18 H 0.3772 -0.4082 -0.1731
H19 H 0.4067 -0.5369 -0.1546
H20 H 0.3957 -0.4514 -0.0681
C19 C -0.1290(4) -0.8188(2) -0.32252(15)
H21 H 0.0189 -0.7769 -0.2973
H22 H -0.1541 -0.8866 -0.2857
loop_
_geom_bond_atom_site_label_1
_geom_bond_atom_site_label_2
_geom_bond_site_symmetry_1
_geom_bond_site_symmetry_2
S1 O1 1_555 1_555
N1 C1 1_555 1_555
O1 C5 1_555 1_555
C1 O3 1_555 1_555
O2 C10 1_555 1_555
C2 S1 1_555 1_555
C3 N2 1_555 1_555
N2 O7 1_555 1_555
O4 C10 1_555 1_555
O5 S1 1_555 1_555
O6 S1 1_555 1_555
C4 H1 1_555 1_555
H2 C4 1_555 1_555
C5 C4 1_555 1_555
H3 C5 1_555 1_555
C6 C2 1_555 1_555
H4 C6 1_555 1_555
C7 C2 1_555 1_555
H5 C7 1_555 1_555
C8 N1 1_555 1_555
H6 C8 1_555 1_555
C9 C3 1_555 1_555
H7 C9 1_555 1_555
C10 C13 1_555 1_555
C11 O4 1_555 1_555
H8 C11 1_555 1_555
C12 N1 1_555 1_555
H9 C12 1_555 1_555
O8 N2 1_555 1_555
C13 H10 1_555 1_555
C14 C11 1_555 1_555
H11 C14 1_555 1_555
H12 C14 1_555 1_555
C15 C3 1_555 1_555
H13 C15 1_555 1_555
C16 C8 1_555 1_555
H14 C16 1_555 1_555
H15 C16 1_555 1_555
C17 C1 1_555 1_555
H16 C17 1_555 1_555
H17 C17 1_555 1_555
C18 C13 1_555 1_555
H18 C18 1_555 1_555
H19 C18 1_555 1_555
H20 C18 1_555 1_555
C19 C12 1_555 1_555
H21 C19 1_555 1_555
H22 C19 1_555 1_555
C4 C17 1_555 1_555
C5 C8 1_555 1_555
C6 C9 1_555 1_555
C7 C15 1_555 1_555
C11 C12 1_555 1_555
C13 C14 1_555 1_555
C16 C19 1_555 1_555

#END
