
#######################################################################
#
#                 Cambridge Crystallographic Data Centre
#                                CCDC 
#
#######################################################################
#
# If this CIF has been generated from an entry in the Cambridge 
# Structural Database, then it will include bibliographic, chemical, 
# crystal, experimental, refinement or atomic coordinate data resulting 
# from the CCDC's data processing and validation procedures.
#
#######################################################################

data_HACPUY
_chemical_formula_moiety         'C8 H9 N3 O2'
_chemical_name_systematic        
N-((Methoxyimino)methyl)pyridine-2-carboxamide
_symmetry_cell_setting           triclinic
_symmetry_space_group_name_H-M   'P -1'
_symmetry_Int_Tables_number      2
_space_group_name_Hall           '-P 1'
loop_
_symmetry_equiv_pos_site_id
_symmetry_equiv_pos_as_xyz
1 x,y,z
2 -x,-y,-z
_cell_length_a                   5.1780(2)
_cell_length_b                   7.4431(3)
_cell_length_c                   22.6665(9)
_cell_angle_alpha                85.6807(19)
_cell_angle_beta                 87.5095(19)
_cell_angle_gamma                80.988(2)
_cell_volume                     859.896
_exptl_crystal_colour            colorless
_exptl_crystal_description       block
_cell_formula_units_Z            4
loop_
_atom_site_label
_atom_site_type_symbol
_atom_site_fract_x
_atom_site_fract_y
_atom_site_fract_z
O1 O 0.6754(3) 0.5288(3) 0.34530(8)
O2 O 1.2734(4) 0.3073(3) 0.50013(8)
N1 N 1.1271(4) 0.3438(3) 0.23629(9)
N2 N 1.0949(4) 0.3887(3) 0.35194(9)
H1 H 1.2363 0.3436 0.3318
N3 N 1.3049(4) 0.2953(3) 0.43822(9)
C1 C 1.1511(5) 0.3226(3) 0.17842(11)
H3 H 1.3059 0.2517 0.1638
C2 C 0.9618(5) 0.3988(3) 0.13821(11)
H4 H 0.9869 0.3803 0.0972
C3 C 0.7357(5) 0.5024(3) 0.15959(11)
H5 H 0.6035 0.5578 0.1333
C4 C 0.7056(4) 0.5239(3) 0.21979(11)
H6 H 0.5515 0.5922 0.2358
C5 C 0.9059(4) 0.4432(3) 0.25610(10)
C6 C 0.8776(4) 0.4596(3) 0.32145(11)
C7 C 1.1057(5) 0.3836(3) 0.41259(10)
H7 H 0.9652 0.4456 0.4352
C8 C 1.5191(5) 0.2460(4) 0.52641(12)
H8 H 1.5012 0.2585 0.5692
H9 H 1.6484 0.3195 0.5092
H10 H 1.5767 0.1177 0.5190
O3 O 0.6441(3) 0.9760(2) 0.15760(7)
O4 O 1.2536(4) 0.7846(3) 0.00017(8)
N4 N 1.1256(3) 0.8470(3) 0.26512(8)
N5 N 1.0802(4) 0.8756(3) 0.14718(8)
H2 H 1.2292 0.8499 0.1655
N6 N 1.2945(4) 0.7943(3) 0.06110(9)
C9 C 1.1573(4) 0.8441(3) 0.32332(11)
H11 H 1.3151 0.7790 0.3389
C10 C 0.9738(5) 0.9304(3) 0.36244(11)
H12 H 1.0059 0.9252 0.4035
C11 C 0.7423(5) 1.0244(3) 0.33996(11)
H13 H 0.6127 1.0860 0.3654
C12 C 0.7031(4) 1.0269(3) 0.28000(10)
H14 H 0.5459 1.0896 0.2634
C13 C 0.8978(4) 0.9363(3) 0.24464(10)
C14 C 0.8575(4) 0.9321(3) 0.17959(10)
C15 C 1.0826(4) 0.8570(3) 0.08732(10)
H15 H 0.9269 0.8908 0.0659
C16 C 1.5028(5) 0.7478(4) -0.02936(11)
H16 H 1.4791 0.7417 -0.0718
H17 H 1.5966 0.6310 -0.0132
H18 H 1.6041 0.8453 -0.0234
loop_
_geom_bond_atom_site_label_1
_geom_bond_atom_site_label_2
_geom_bond_site_symmetry_1
_geom_bond_site_symmetry_2
O1 C6 1_555 1_555
O2 N3 1_555 1_555
O3 C14 1_555 1_555
O4 N6 1_555 1_555
N1 C1 1_555 1_555
N2 H1 1_555 1_555
N3 C7 1_555 1_555
N4 C9 1_555 1_555
N5 H2 1_555 1_555
N6 C15 1_555 1_555
C1 H3 1_555 1_555
C2 C1 1_555 1_555
H4 C2 1_555 1_555
C3 C2 1_555 1_555
H5 C3 1_555 1_555
C4 C3 1_555 1_555
H6 C4 1_555 1_555
C5 N1 1_555 1_555
C6 N2 1_555 1_555
C7 N2 1_555 1_555
H7 C7 1_555 1_555
C8 O2 1_555 1_555
H8 C8 1_555 1_555
H9 C8 1_555 1_555
H10 C8 1_555 1_555
C9 H11 1_555 1_555
C10 C9 1_555 1_555
H12 C10 1_555 1_555
C11 C10 1_555 1_555
H13 C11 1_555 1_555
C12 C11 1_555 1_555
H14 C12 1_555 1_555
C13 N4 1_555 1_555
C14 N5 1_555 1_555
C15 N5 1_555 1_555
H15 C15 1_555 1_555
C16 O4 1_555 1_555
H16 C16 1_555 1_555
H17 C16 1_555 1_555
H18 C16 1_555 1_555
C4 C5 1_555 1_555
C5 C6 1_555 1_555
C12 C13 1_555 1_555
C13 C14 1_555 1_555

#END
