
#######################################################################
#
#                 Cambridge Crystallographic Data Centre
#                                CCDC 
#
#######################################################################
#
# If this CIF has been generated from an entry in the Cambridge 
# Structural Database, then it will include bibliographic, chemical, 
# crystal, experimental, refinement or atomic coordinate data resulting 
# from the CCDC's data processing and validation procedures.
#
#######################################################################

data_HACPAE
_chemical_formula_moiety         'C24 H29 N1 O4'
_chemical_name_systematic        
'Methyl 3-allyl-5-(allyloxy)-1-benzyl-3a-methyl-2-oxo-2,3,3a,6,7,7a-hexahydro-1H-indole-3-carboxylate'
_symmetry_cell_setting           triclinic
_symmetry_space_group_name_H-M   'P -1'
_symmetry_Int_Tables_number      2
_space_group_name_Hall           '-P 1'
loop_
_symmetry_equiv_pos_site_id
_symmetry_equiv_pos_as_xyz
1 x,y,z
2 -x,-y,-z
_cell_length_a                   7.60660(10)
_cell_length_b                   9.23910(10)
_cell_length_c                   14.9025(2)
_cell_angle_alpha                83.0578(7)
_cell_angle_beta                 87.1663(7)
_cell_angle_gamma                84.9449(6)
_cell_volume                     1034.8
_exptl_crystal_colour            colorless
_exptl_crystal_description       plate
_cell_formula_units_Z            2
loop_
_atom_site_label
_atom_site_type_symbol
_atom_site_fract_x
_atom_site_fract_y
_atom_site_fract_z
O1 O -0.06954(16) 0.62416(14) 0.31018(9)
C1 C 0.0880(2) 0.63703(17) 0.29210(11)
N1 N 0.17714(18) 0.75215(15) 0.30479(9)
C2 C 0.3674(2) 0.73017(18) 0.28437(11)
C3 C 0.4484(2) 0.87004(19) 0.24575(12)
C4 C 0.3656(2) 0.94135(18) 0.15853(12)
C5 C 0.3373(2) 0.82948(19) 0.09742(11)
O2 O 0.29972(17) 0.89702(14) 0.01230(8)
C6 C 0.2260(3) 0.8130(2) -0.04777(12)
C7 C 0.1454(3) 0.9143(2) -0.12371(12)
C8 C 0.1314(3) 1.0574(3) -0.12986(15)
C9 C 0.3470(2) 0.68580(18) 0.12172(11)
C10 C 0.3778(2) 0.61360(18) 0.21725(11)
C11 C 0.2157(2) 0.52175(17) 0.25124(11)
C12 C 0.2664(2) 0.40212(18) 0.32876(11)
O3 O 0.29665(18) 0.46036(13) 0.40397(8)
C13 C 0.3420(3) 0.3585(2) 0.48323(12)
O4 O 0.2763(2) 0.27281(14) 0.32389(9)
C14 C 0.1213(2) 0.45430(19) 0.17905(12)
C15 C 0.2323(3) 0.3491(2) 0.12582(13)
C16 C 0.2412(3) 0.3562(2) 0.03686(14)
C17 C 0.5562(2) 0.5220(2) 0.21974(13)
C18 C 0.0987(2) 0.86870(18) 0.35599(12)
C19 C 0.1611(2) 0.85338(17) 0.45175(11)
C20 C 0.2468(2) 0.96435(19) 0.48140(12)
C21 C 0.2998(2) 0.9524(2) 0.57033(13)
C22 C 0.2676(2) 0.8295(2) 0.62991(12)
C23 C 0.1821(2) 0.7184(2) 0.60055(12)
C24 C 0.1299(2) 0.72970(19) 0.51204(12)
H1 H 0.4271 0.6906 0.3400
H2 H 0.5744 0.8453 0.2337
H3 H 0.4363 0.9394 0.2909
H4 H 0.4442 1.0124 0.1265
H5 H 0.2515 0.9927 0.1727
H6 H 0.3188 0.7441 -0.0701
H7 H 0.1318 0.7559 -0.0143
H8 H 0.0979 0.8670 -0.1700
H9 H 0.0776 1.1151 -0.1798
H10 H 0.1764 1.1079 -0.0848
H11 H 0.3368 0.6248 0.0754
H12 H 0.3487 0.4182 0.5319
H13 H 0.2486 0.2896 0.4959
H14 H 0.4520 0.3006 0.4721
H15 H 0.0674 0.5355 0.1378
H16 H 0.0256 0.4006 0.2114
H17 H 0.2992 0.2716 0.1593
H18 H 0.3045 0.2828 0.0050
H19 H 0.1805 0.4376 0.0033
H20 H 0.5603 0.4524 0.1747
H21 H 0.6505 0.5879 0.2064
H22 H 0.5743 0.4682 0.2793
H23 H -0.0310 0.8636 0.3572
H24 H 0.1284 0.9626 0.3239
H25 H 0.2684 1.0474 0.4413
H26 H 0.3597 1.0312 0.5894
H27 H 0.3014 0.8231 0.6915
H28 H 0.1594 0.6348 0.6413
H29 H 0.0747 0.6501 0.4923
loop_
_geom_bond_atom_site_label_1
_geom_bond_atom_site_label_2
_geom_bond_site_symmetry_1
_geom_bond_site_symmetry_2
O1 C1 1_555 1_555
C1 N1 1_555 1_555
N1 C2 1_555 1_555
C2 C3 1_555 1_555
C3 C4 1_555 1_555
C4 C5 1_555 1_555
C5 O2 1_555 1_555
O2 C6 1_555 1_555
C6 C7 1_555 1_555
C7 C8 1_555 1_555
C8 H9 1_555 1_555
C9 C5 1_555 1_555
C10 C2 1_555 1_555
C11 C1 1_555 1_555
C12 C11 1_555 1_555
O3 C12 1_555 1_555
C13 O3 1_555 1_555
O4 C12 1_555 1_555
C14 C11 1_555 1_555
C15 C14 1_555 1_555
C16 C15 1_555 1_555
C17 C10 1_555 1_555
C18 N1 1_555 1_555
C19 C18 1_555 1_555
C20 C19 1_555 1_555
C21 C20 1_555 1_555
C22 C21 1_555 1_555
C23 C22 1_555 1_555
C24 C19 1_555 1_555
H1 C2 1_555 1_555
H2 C3 1_555 1_555
H3 C3 1_555 1_555
H4 C4 1_555 1_555
H5 C4 1_555 1_555
H6 C6 1_555 1_555
H7 C6 1_555 1_555
H8 C7 1_555 1_555
H10 C8 1_555 1_555
H11 C9 1_555 1_555
H12 C13 1_555 1_555
H13 C13 1_555 1_555
H14 C13 1_555 1_555
H15 C14 1_555 1_555
H16 C14 1_555 1_555
H17 C15 1_555 1_555
H18 C16 1_555 1_555
H19 C16 1_555 1_555
H20 C17 1_555 1_555
H21 C17 1_555 1_555
H22 C17 1_555 1_555
H23 C18 1_555 1_555
H24 C18 1_555 1_555
H25 C20 1_555 1_555
H26 C21 1_555 1_555
H27 C22 1_555 1_555
H28 C23 1_555 1_555
H29 C24 1_555 1_555
C9 C10 1_555 1_555
C10 C11 1_555 1_555
C23 C24 1_555 1_555

#END
