
#######################################################################
#
#                 Cambridge Crystallographic Data Centre
#                                CCDC 
#
#######################################################################
#
# If this CIF has been generated from an entry in the Cambridge 
# Structural Database, then it will include bibliographic, chemical, 
# crystal, experimental, refinement or atomic coordinate data resulting 
# from the CCDC's data processing and validation procedures.
#
#######################################################################

data_HACQAF
_chemical_formula_moiety         'C14 H13 N3 O2'
_chemical_name_systematic        
N-(((Benzyloxy)imino)methyl)pyridine-2-carboxamide
_symmetry_cell_setting           monoclinic
_symmetry_space_group_name_H-M   'P 21/c'
_symmetry_Int_Tables_number      14
_space_group_name_Hall           '-P 2ybc'
loop_
_symmetry_equiv_pos_site_id
_symmetry_equiv_pos_as_xyz
1 x,y,z
2 -x,1/2+y,1/2-z
3 -x,-y,-z
4 x,1/2-y,1/2+z
_cell_length_a                   11.7004(12)
_cell_length_b                   15.9776(13)
_cell_length_c                   7.1602(6)
_cell_angle_alpha                90
_cell_angle_beta                 107.250(5)
_cell_angle_gamma                90
_cell_volume                     1278.35
_exptl_crystal_colour            colorless
_exptl_crystal_description       plate
_cell_formula_units_Z            4
loop_
_atom_site_label
_atom_site_type_symbol
_atom_site_fract_x
_atom_site_fract_y
_atom_site_fract_z
N1 N 0.22365(13) 0.26662(9) -0.0395(2)
N2 N 0.37404(14) 0.14838(9) 0.1424(2)
H1 H 0.3071 0.1410 0.0472
O1 O 0.49913(11) 0.24464(8) 0.33203(19)
C1 C 0.14663(17) 0.32482(12) -0.1339(3)
H2 H 0.0768 0.3072 -0.2324
C2 C 0.16289(18) 0.40946(12) -0.0961(3)
H3 H 0.1051 0.4487 -0.1666
C3 C 0.26340(18) 0.43605(12) 0.0443(3)
H4 H 0.2764 0.4940 0.0728
C4 C 0.34591(17) 0.37723(11) 0.1441(3)
H5 H 0.4169 0.3937 0.2416
C5 C 0.32163(15) 0.29370(11) 0.0973(2)
C6 C 0.40773(16) 0.22807(11) 0.2021(3)
C7 C 0.43953(17) 0.07905(12) 0.2236(3)
H6 H 0.5117 0.0884 0.3255
N3 N 0.41195(16) 0.00332(10) 0.1742(3)
O2 O 0.30452(14) 0.00115(8) 0.0183(2)
C8 C 0.2657(2) -0.08510(13) -0.0134(3)
H7 H 0.3355 -0.1211 -0.0076
H8 H 0.2080 -0.0907 -0.1455
C9 C 0.20714(12) -0.11482(8) 0.13786(18)
C10 C 0.27697(11) -0.15219(8) 0.30688(18)
H9 H 0.3602 -0.1598 0.3265
C11 C 0.22593(12) -0.17846(8) 0.44744(19)
H10 H 0.2740 -0.2042 0.5639
C12 C 0.10505(13) -0.16737(9) 0.4190(2)
H11 H 0.0699 -0.1855 0.5158
C13 C 0.03522(12) -0.13000(9) 0.2499(3)
H12 H -0.0480 -0.1224 0.2303
C14 C 0.08626(13) -0.10373(9) 0.1094(2)
H13 H 0.0382 -0.0780 -0.0070
loop_
_geom_bond_atom_site_label_1
_geom_bond_atom_site_label_2
_geom_bond_site_symmetry_1
_geom_bond_site_symmetry_2
N1 C1 1_555 1_555
N2 H1 1_555 1_555
O1 C6 1_555 1_555
C1 H2 1_555 1_555
C2 C1 1_555 1_555
H3 C2 1_555 1_555
C3 C2 1_555 1_555
H4 C3 1_555 1_555
C4 C3 1_555 1_555
H5 C4 1_555 1_555
C5 N1 1_555 1_555
C6 N2 1_555 1_555
C7 N2 1_555 1_555
H6 C7 1_555 1_555
N3 C7 1_555 1_555
O2 N3 1_555 1_555
C8 O2 1_555 1_555
H7 C8 1_555 1_555
H8 C8 1_555 1_555
C9 C8 1_555 1_555
C10 C9 1_555 1_555
H9 C10 1_555 1_555
C11 C10 1_555 1_555
H10 C11 1_555 1_555
C12 C11 1_555 1_555
H11 C12 1_555 1_555
C13 C12 1_555 1_555
H12 C13 1_555 1_555
C14 C9 1_555 1_555
H13 C14 1_555 1_555
C4 C5 1_555 1_555
C5 C6 1_555 1_555
C13 C14 1_555 1_555

#END
