
#######################################################################
#
#                 Cambridge Crystallographic Data Centre
#                                CCDC 
#
#######################################################################
#
# If this CIF has been generated from an entry in the Cambridge 
# Structural Database, then it will include bibliographic, chemical, 
# crystal, experimental, refinement or atomic coordinate data resulting 
# from the CCDC's data processing and validation procedures.
#
#######################################################################

data_HACROT
_chemical_formula_moiety         'C14 H18 O4'
_chemical_name_systematic        
'1-(2-hydroxy-6-oxocyclohex-1-en-1-yl)-2-methylprop-1-en-1-yl cyclopropanecarboxylate'
_symmetry_cell_setting           monoclinic
_symmetry_space_group_name_H-M   'P 21/c'
_symmetry_Int_Tables_number      14
_space_group_name_Hall           '-P 2ybc'
loop_
_symmetry_equiv_pos_site_id
_symmetry_equiv_pos_as_xyz
1 x,y,z
2 -x,1/2+y,1/2-z
3 -x,-y,-z
4 x,1/2-y,1/2+z
_cell_length_a                   6.9916(5)
_cell_length_b                   18.0812(14)
_cell_length_c                   11.0753(8)
_cell_angle_alpha                90
_cell_angle_beta                 103.476(2)
_cell_angle_gamma                90
_cell_volume                     1361.55
_exptl_crystal_colour            colorless
_chemical_melting_point          348-349K
_cell_formula_units_Z            4
_exptl_crystal_recrystallization_method dichloromethane/hexane
loop_
_atom_site_label
_atom_site_type_symbol
_atom_site_fract_x
_atom_site_fract_y
_atom_site_fract_z
O1 O -0.0699(4) 0.2866(1) 0.8752(3)
O2 O 0.3500(3) 0.3866(1) 0.6431(2)
O3 O 0.2788(3) 0.5159(1) 0.7505(2)
O4 O 0.0628(2) 0.4607(1) 0.8425(1)
C1 C 0.0715(4) 0.2810(1) 0.8286(2)
C2 C 0.1299(3) 0.3409(1) 0.7577(2)
C3 C 0.2858(3) 0.3326(1) 0.7065(2)
C4 C 0.4037(4) 0.2633(2) 0.7124(3)
C5 C 0.3092(8) 0.2002(2) 0.7559(6)
C6 C 0.1907(6) 0.2106(2) 0.8425(3)
C7 C 0.0121(3) 0.4097(1) 0.7405(2)
C8 C -0.1355(3) 0.4272(1) 0.6469(2)
C9 C -0.2423(4) 0.5001(1) 0.6418(3)
C10 C -0.2042(4) 0.3758(1) 0.5392(3)
C11 C 0.1940(3) 0.5136(1) 0.8336(2)
C12 C 0.2185(4) 0.5668(1) 0.9351(2)
C13 C 0.4209(5) 0.5990(2) 0.9826(3)
C14 C 0.2667(4) 0.6452(1) 0.9061(3)
H1 H 0.3310 0.4268 0.6725
H2 H 0.4236 0.2525 0.6304
H3 H 0.5318 0.2709 0.7676
H4 H 0.2280 0.1763 0.6833
H5 H 0.4121 0.1653 0.7923
H6 H 0.2754 0.2095 0.9254
H7 H 0.1011 0.1690 0.8357
H8 H -0.1870 0.5283 0.7151
H9 H -0.3791 0.4911 0.6374
H10 H -0.2288 0.5272 0.5697
H11 H -0.1270 0.3314 0.5522
H12 H -0.1895 0.3995 0.4642
H13 H -0.3401 0.3638 0.5321
H14 H 0.1372 0.5599 0.9953
H15 H 0.4617 0.6103 1.0705
H16 H 0.5253 0.5816 0.9455
H17 H 0.2763 0.6562 0.8220
H18 H 0.2126 0.6849 0.9470
loop_
_geom_bond_atom_site_label_1
_geom_bond_atom_site_label_2
_geom_bond_site_symmetry_1
_geom_bond_site_symmetry_2
O1 C1 1_555 1_555
O2 C3 1_555 1_555
O3 C11 1_555 1_555
O4 C7 1_555 1_555
C1 C2 1_555 1_555
C2 C3 1_555 1_555
C3 C4 1_555 1_555
C4 C5 1_555 1_555
C5 C6 1_555 1_555
C6 C1 1_555 1_555
C7 C2 1_555 1_555
C8 C7 1_555 1_555
C9 C8 1_555 1_555
C10 C8 1_555 1_555
C11 O4 1_555 1_555
C12 C11 1_555 1_555
C13 C12 1_555 1_555
C14 C12 1_555 1_555
H1 O2 1_555 1_555
H2 C4 1_555 1_555
H3 C4 1_555 1_555
H4 C5 1_555 1_555
H5 C5 1_555 1_555
H6 C6 1_555 1_555
H7 C6 1_555 1_555
H8 C9 1_555 1_555
H9 C9 1_555 1_555
H10 C9 1_555 1_555
H11 C10 1_555 1_555
H12 C10 1_555 1_555
H13 C10 1_555 1_555
H14 C12 1_555 1_555
H15 C13 1_555 1_555
H16 C13 1_555 1_555
H17 C14 1_555 1_555
H18 C14 1_555 1_555
C13 C14 1_555 1_555

#END
