
#######################################################################
#
#                 Cambridge Crystallographic Data Centre
#                                CCDC 
#
#######################################################################
#
# If this CIF has been generated from an entry in the Cambridge 
# Structural Database, then it will include bibliographic, chemical, 
# crystal, experimental, refinement or atomic coordinate data resulting 
# from the CCDC's data processing and validation procedures.
#
#######################################################################

data_HACSOV
_chemical_formula_moiety         'C29 H24 N2 O3'
_chemical_name_systematic        
trans-(3S,4R)-N-(4-Anilino-3-benzyl-2-oxo-3,4-dihydro-2H-chromen-3-yl)benzamide
_symmetry_cell_setting           orthorhombic
_symmetry_space_group_name_H-M   'P 21 21 21'
_symmetry_Int_Tables_number      19
_space_group_name_Hall           'P 2ac 2ab'
loop_
_symmetry_equiv_pos_site_id
_symmetry_equiv_pos_as_xyz
1 x,y,z
2 1/2-x,-y,1/2+z
3 -x,1/2+y,1/2-z
4 1/2+x,1/2-y,-z
_cell_length_a                   11.190(2)
_cell_length_b                   13.078(3)
_cell_length_c                   16.013(3)
_cell_angle_alpha                90
_cell_angle_beta                 90
_cell_angle_gamma                90
_cell_volume                     2343.39
_exptl_crystal_colour            colorless
_exptl_crystal_description       block
_cell_formula_units_Z            4
loop_
_atom_site_label
_atom_site_type_symbol
_atom_site_fract_x
_atom_site_fract_y
_atom_site_fract_z
O1 O 0.61064(11) 0.10470(9) 0.31924(8)
O2 O 0.56813(11) 0.01703(8) 0.20662(8)
O3 O 0.30800(11) 0.01859(9) 0.21921(7)
N1 N 0.32996(12) 0.31220(10) 0.26820(9)
H1 H 0.3623 0.3741 0.2732
N2 N 0.39676(12) 0.14946(10) 0.15051(9)
H2 H 0.4005 0.1778 0.1000
C1 C 0.58568(15) 0.18667(14) 0.37358(11)
C2 C 0.66644(18) 0.19956(17) 0.43818(13)
H3 H 0.7364 0.1586 0.4416
C3 C 0.6427(2) 0.27343(18) 0.49759(14)
H4 H 0.6966 0.2835 0.5427
C4 C 0.5414(2) 0.33242(17) 0.49157(13)
H5 H 0.5248 0.3820 0.5333
C5 C 0.46317(18) 0.32008(14) 0.42499(12)
H6 H 0.3947 0.3627 0.4208
C6 C 0.48412(15) 0.24595(13) 0.36438(11)
C7 C 0.40059(14) 0.22522(12) 0.29185(11)
H7 H 0.3442 0.1700 0.3097
C8 C 0.47446(14) 0.18321(12) 0.21691(10)
C9 C 0.55129(14) 0.09341(12) 0.24573(11)
C10 C 0.20614(14) 0.31382(12) 0.26305(10)
C11 C 0.13442(15) 0.22660(13) 0.26883(11)
H8 H 0.1701 0.1616 0.2776
C12 C 0.01095(17) 0.23474(15) 0.26183(14)
H9 H -0.0369 0.1750 0.2668
C13 C -0.04340(16) 0.32782(15) 0.24782(14)
H10 H -0.1278 0.3325 0.2429
C14 C 0.02728(17) 0.41439(14) 0.24106(13)
H11 H -0.0090 0.4789 0.2309
C15 C 0.14984(15) 0.40800(13) 0.24885(11)
H12 H 0.1968 0.4683 0.2445
C16 C 0.32455(14) 0.06627(12) 0.15433(10)
C17 C 0.26361(14) 0.04061(12) 0.07390(11)
C18 C 0.15282(16) -0.00788(14) 0.07812(13)
H13 H 0.1196 -0.0253 0.1308
C19 C 0.09103(17) -0.03069(14) 0.00545(14)
H14 H 0.0153 -0.0633 0.0085
C20 C 0.13902(17) -0.00633(13) -0.07095(13)
H15 H 0.0956 -0.0206 -0.1206
C21 C 0.25055(17) 0.03895(13) -0.07574(11)
H16 H 0.2846 0.0535 -0.1288
C22 C 0.31264(15) 0.06319(12) -0.00381(11)
H17 H 0.3887 0.0952 -0.0074
C23 C 0.56037(15) 0.26597(12) 0.18068(11)
H18 H 0.5126 0.3250 0.1610
H19 H 0.6140 0.2904 0.2256
C24 C 0.63518(15) 0.22610(12) 0.10915(11)
C25 C 0.59760(16) 0.23788(14) 0.02681(11)
H20 H 0.5271 0.2758 0.0154
C26 C 0.6610(2) 0.19539(17) -0.03868(13)
H21 H 0.6333 0.2033 -0.0944
C27 C 0.7644(2) 0.14150(18) -0.02281(15)
H22 H 0.8076 0.1114 -0.0676
C28 C 0.80488(19) 0.13132(17) 0.05793(16)
H23 H 0.8768 0.0950 0.0687
C29 C 0.74111(16) 0.17389(15) 0.12377(13)
H24 H 0.7703 0.1672 0.1792
loop_
_geom_bond_atom_site_label_1
_geom_bond_atom_site_label_2
_geom_bond_site_symmetry_1
_geom_bond_site_symmetry_2
O1 C1 1_555 1_555
O2 C9 1_555 1_555
O3 C16 1_555 1_555
N1 H1 1_555 1_555
N2 H2 1_555 1_555
C1 C2 1_555 1_555
C2 H3 1_555 1_555
C3 C2 1_555 1_555
H4 C3 1_555 1_555
C4 C3 1_555 1_555
H5 C4 1_555 1_555
C5 C4 1_555 1_555
H6 C5 1_555 1_555
C6 C1 1_555 1_555
C7 N1 1_555 1_555
H7 C7 1_555 1_555
C8 N2 1_555 1_555
C9 O1 1_555 1_555
C10 N1 1_555 1_555
C11 C10 1_555 1_555
H8 C11 1_555 1_555
C12 C11 1_555 1_555
H9 C12 1_555 1_555
C13 C12 1_555 1_555
H10 C13 1_555 1_555
C14 C13 1_555 1_555
H11 C14 1_555 1_555
C15 C10 1_555 1_555
H12 C15 1_555 1_555
C16 N2 1_555 1_555
C17 C16 1_555 1_555
C18 C17 1_555 1_555
H13 C18 1_555 1_555
C19 C18 1_555 1_555
H14 C19 1_555 1_555
C20 C19 1_555 1_555
H15 C20 1_555 1_555
C21 C20 1_555 1_555
H16 C21 1_555 1_555
C22 C17 1_555 1_555
H17 C22 1_555 1_555
C23 C8 1_555 1_555
H18 C23 1_555 1_555
H19 C23 1_555 1_555
C24 C23 1_555 1_555
C25 C24 1_555 1_555
H20 C25 1_555 1_555
C26 C25 1_555 1_555
H21 C26 1_555 1_555
C27 C26 1_555 1_555
H22 C27 1_555 1_555
C28 C27 1_555 1_555
H23 C28 1_555 1_555
C29 C24 1_555 1_555
H24 C29 1_555 1_555
C5 C6 1_555 1_555
C6 C7 1_555 1_555
C7 C8 1_555 1_555
C8 C9 1_555 1_555
C14 C15 1_555 1_555
C21 C22 1_555 1_555
C28 C29 1_555 1_555

#END
