
#######################################################################
#
#                 Cambridge Crystallographic Data Centre
#                                CCDC 
#
#######################################################################
#
# If this CIF has been generated from an entry in the Cambridge 
# Structural Database, then it will include bibliographic, chemical, 
# crystal, experimental, refinement or atomic coordinate data resulting 
# from the CCDC's data processing and validation procedures.
#
#######################################################################

data_HACVAK
_chemical_formula_moiety         'C14 H17 N1 O4'
_chemical_name_systematic        
4-Phenyl-1,7-dioxa-4-azacycloundecane-8,11-dione
_symmetry_cell_setting           monoclinic
_symmetry_space_group_name_H-M   'P 21/c'
_symmetry_Int_Tables_number      14
_space_group_name_Hall           '-P 2ybc'
loop_
_symmetry_equiv_pos_site_id
_symmetry_equiv_pos_as_xyz
1 x,y,z
2 -x,1/2+y,1/2-z
3 -x,-y,-z
4 x,1/2-y,1/2+z
_cell_length_a                   7.7929(19)
_cell_length_b                   8.954(2)
_cell_length_c                   18.472(4)
_cell_angle_alpha                90
_cell_angle_beta                 91.159(3)
_cell_angle_gamma                90
_cell_volume                     1288.67
_exptl_crystal_colour            colorless
_exptl_crystal_description       block
_chemical_melting_point          '356.15 K'
_cell_formula_units_Z            4
loop_
_atom_site_label
_atom_site_type_symbol
_atom_site_fract_x
_atom_site_fract_y
_atom_site_fract_z
N1 N 0.12784(16) 0.15534(15) 0.12126(7)
O1 O 0.35920(14) 0.40684(12) 0.17797(6)
O2 O 0.20196(17) 0.19074(15) 0.27521(6)
O3 O 0.57451(19) 0.24700(16) 0.20157(7)
O4 O 0.2396(2) 0.05959(19) 0.37666(8)
C1 C 0.2610(2) 0.0273(2) 0.02080(8)
H1 H 0.3098 0.1168 0.0062
C2 C 0.2900(2) -0.1006(2) -0.01880(9)
H2 H 0.3558 -0.0949 -0.0602
C3 C 0.2241(2) -0.2357(2) 0.00149(10)
H3 H 0.2443 -0.3215 -0.0254
C4 C 0.1268(2) -0.2405(2) 0.06291(10)
H4 H 0.0817 -0.3313 0.0778
C5 C 0.0948(2) -0.11351(19) 0.10279(9)
H5 H 0.0288 -0.1204 0.1440
C6 C 0.16006(19) 0.02526(18) 0.08230(8)
C7 C 0.1660(2) 0.29972(19) 0.08866(9)
H6 H 0.0847 0.3726 0.1063
H7 H 0.1483 0.2917 0.0367
C8 C 0.3451(2) 0.3574(2) 0.10351(9)
H8 H 0.4280 0.2788 0.0949
H9 H 0.3693 0.4398 0.0712
C9 C 0.4725(2) 0.3374(2) 0.22178(10)
C10 C 0.4558(2) 0.3855(2) 0.29902(10)
H10 H 0.3552 0.4483 0.3034
H11 H 0.5556 0.4441 0.3133
C11 C 0.4405(3) 0.2525(2) 0.34914(10)
H12 H 0.5419 0.1908 0.3441
H13 H 0.4401 0.2887 0.3986
C12 C 0.2851(2) 0.1562(2) 0.33702(10)
C13 C 0.0665(2) 0.0931(2) 0.25015(10)
H14 H -0.0257 0.0915 0.2847
H15 H 0.1096 -0.0078 0.2447
C14 C 0.0019(2) 0.1521(2) 0.17836(9)
H16 H -0.0943 0.0911 0.1622
H17 H -0.0406 0.2528 0.1854
loop_
_geom_bond_atom_site_label_1
_geom_bond_atom_site_label_2
_geom_bond_site_symmetry_1
_geom_bond_site_symmetry_2
N1 C6 1_555 1_555
O1 C8 1_555 1_555
O2 C12 1_555 1_555
O3 C9 1_555 1_555
O4 C12 1_555 1_555
C1 H1 1_555 1_555
C2 C1 1_555 1_555
H2 C2 1_555 1_555
C3 C2 1_555 1_555
H3 C3 1_555 1_555
C4 C3 1_555 1_555
H4 C4 1_555 1_555
C5 C4 1_555 1_555
H5 C5 1_555 1_555
C6 C1 1_555 1_555
C7 N1 1_555 1_555
H6 C7 1_555 1_555
H7 C7 1_555 1_555
C8 C7 1_555 1_555
H8 C8 1_555 1_555
H9 C8 1_555 1_555
C9 O1 1_555 1_555
C10 C9 1_555 1_555
H10 C10 1_555 1_555
H11 C10 1_555 1_555
C11 C10 1_555 1_555
H12 C11 1_555 1_555
H13 C11 1_555 1_555
C12 C11 1_555 1_555
C13 O2 1_555 1_555
H14 C13 1_555 1_555
H15 C13 1_555 1_555
C14 N1 1_555 1_555
H16 C14 1_555 1_555
H17 C14 1_555 1_555
C5 C6 1_555 1_555
C13 C14 1_555 1_555

#END
