
#######################################################################
#
#                 Cambridge Crystallographic Data Centre
#                                CCDC 
#
#######################################################################
#
# If this CIF has been generated from an entry in the Cambridge 
# Structural Database, then it will include bibliographic, chemical, 
# crystal, experimental, refinement or atomic coordinate data resulting 
# from the CCDC's data processing and validation procedures.
#
#######################################################################

data_HACWIT
_chemical_formula_moiety         'C16 H24 B10 S2'
_chemical_name_systematic        
1,2-bis(Benzylthiolato)-1,2-diocarbadodecaborane
_symmetry_cell_setting           monoclinic
_symmetry_space_group_name_H-M   'C 2/m'
_symmetry_Int_Tables_number      12
_space_group_name_Hall           '-C 2y'
loop_
_symmetry_equiv_pos_site_id
_symmetry_equiv_pos_as_xyz
1 x,y,z
2 -x,y,-z
3 1/2+x,1/2+y,z
4 1/2-x,1/2+y,-z
5 -x,-y,-z
6 x,-y,z
7 1/2-x,1/2-y,-z
8 1/2+x,1/2-y,z
_cell_length_a                   16.0038(12)
_cell_length_b                   14.0964(12)
_cell_length_c                   10.6831(9)
_cell_angle_alpha                90
_cell_angle_beta                 114.797(10)
_cell_angle_gamma                90
_cell_volume                     2187.85
_exptl_crystal_colour            colorless
_exptl_crystal_description       block
_cell_formula_units_Z            4
loop_
_atom_site_label
_atom_site_type_symbol
_atom_site_fract_x
_atom_site_fract_y
_atom_site_fract_z
S1 S 0.38966(5) 0.12036(7) 0.33549(9)
C1 C 0.32025(19) 0.0641(2) 0.1783(3)
C2 C 0.3616(2) 0.2143(3) 0.5312(4)
B1 B 0.2241(3) 0.0000 0.1600(5)
H1 H 0.1969 0.0000 0.2390
B2 B 0.3852(4) 0.0000 0.1137(5)
H2 H 0.4609 0.0000 0.1637
B3 B 0.3205(3) 0.1025(3) 0.0287(4)
H3 H 0.3541 0.1683 0.0184
B4 B 0.1545(4) 0.0000 -0.0193(6)
H4 H 0.0789 0.0000 -0.0603
B5 B 0.2191(3) 0.1029(3) 0.0585(4)
H5 H 0.1860 0.1692 0.0679
C3 C 0.3789(3) 0.1698(3) 0.6551(4)
H6 H 0.3577 0.1082 0.6544
C4 C 0.4590(3) 0.3013(4) 0.7804(4)
H7 H 0.4925 0.3306 0.8647
C5 C 0.3948(3) 0.3034(3) 0.5344(4)
H8 H 0.3848 0.3347 0.4527
B6 B 0.3185(5) 0.0000 -0.0684(6)
H9 H 0.3505 0.0000 -0.1416
C6 C 0.3084(7) 0.1484(9) 0.4109(12)
H10 H 0.2541 0.1796 0.3440
H11 H 0.2897 0.0912 0.4429
B7 B 0.2144(3) 0.0629(4) -0.1008(4)
H12 H 0.1778 0.1035 -0.1963
C7 C 0.4261(3) 0.2138(4) 0.7775(4)
H13 H 0.4355 0.1832 0.8595
C8 C 0.4444(3) 0.3478(3) 0.6623(5)
H14 H 0.4670 0.4090 0.6656
S1E S 0.38966(5) -0.12036(7) 0.33549(9)
C1E C 0.32025(19) -0.0641(2) 0.1783(3)
C2E C 0.3616(2) -0.2143(3) 0.5312(4)
B3E B 0.3205(3) -0.1025(3) 0.0287(4)
H3E H 0.3541 -0.1683 0.0184
B5E B 0.2191(3) -0.1029(3) 0.0585(4)
H5E H 0.1860 -0.1692 0.0679
C3E C 0.3789(3) -0.1698(3) 0.6551(4)
H6E H 0.3577 -0.1082 0.6544
C4E C 0.4590(3) -0.3013(4) 0.7804(4)
H7E H 0.4925 -0.3306 0.8647
C5E C 0.3948(3) -0.3034(3) 0.5344(4)
H8E H 0.3848 -0.3347 0.4527
C6E C 0.3084(7) -0.1484(9) 0.4109(12)
H10E H 0.2541 -0.1796 0.3440
H11E H 0.2897 -0.0912 0.4429
B7E B 0.2144(3) -0.0629(4) -0.1008(4)
H12E H 0.1778 -0.1035 -0.1963
C7E C 0.4261(3) -0.2138(4) 0.7775(4)
H13E H 0.4355 -0.1832 0.8595
C8E C 0.4444(3) -0.3478(3) 0.6623(5)
H14E H 0.4670 -0.4090 0.6656
C9? C 0.3107(11) 0.1847(12) 0.3795(17)
H15? H 0.2580 0.1454 0.3670
H16? H 0.2891 0.2404 0.3213
loop_
_geom_bond_atom_site_label_1
_geom_bond_atom_site_label_2
_geom_bond_site_symmetry_1
_geom_bond_site_symmetry_2
S1 C1 1_555 1_555
C1 B1 1_555 1_555
C2 C3 1_555 1_555
B1 H1 1_555 1_555
B2 C1 1_555 1_555
H2 B2 1_555 1_555
B3 C1 1_555 1_555
H3 B3 1_555 1_555
B4 B1 1_555 1_555
H4 B4 1_555 1_555
B5 C1 1_555 1_555
H5 B5 1_555 1_555
C3 H6 1_555 1_555
C4 H7 1_555 1_555
C5 C2 1_555 1_555
H8 C5 1_555 1_555
B6 B2 1_555 1_555
H9 B6 1_555 1_555
C6 S1 1_555 1_555
H10 C6 1_555 1_555
H11 C6 1_555 1_555
B7 B3 1_555 1_555
H12 B7 1_555 1_555
C7 C3 1_555 1_555
H13 C7 1_555 1_555
C8 C4 1_555 1_555
H14 C8 1_555 1_555
S1E C1E 1_555 1_555
C1E C1 1_555 1_555
C2E C3E 1_555 1_555
B3E B2 1_555 1_555
H3E B3E 1_555 1_555
B5E B1 1_555 1_555
H5E B5E 1_555 1_555
C3E H6E 1_555 1_555
C4E H7E 1_555 1_555
C5E C2E 1_555 1_555
H8E C5E 1_555 1_555
C6E S1E 1_555 1_555
H10E C6E 1_555 1_555
H11E C6E 1_555 1_555
B7E B4 1_555 1_555
H12E B7E 1_555 1_555
C7E C3E 1_555 1_555
H13E C7E 1_555 1_555
C8E C4E 1_555 1_555
H14E C8E 1_555 1_555
C2 C6 1_555 1_555
B1 B5 1_555 1_555
B1 C1E 1_555 1_555
B2 B3 1_555 1_555
B2 C1E 1_555 1_555
B3 B5 1_555 1_555
B3 B6 1_555 1_555
B4 B5 1_555 1_555
B4 B7 1_555 1_555
B4 B5E 1_555 1_555
B5 B7 1_555 1_555
C4 C7 1_555 1_555
C5 C8 1_555 1_555
B6 B7 1_555 1_555
B6 B3E 1_555 1_555
B6 B7E 1_555 1_555
B7 B7E 1_555 1_555
C1E B3E 1_555 1_555
C1E B5E 1_555 1_555
C2E C6E 1_555 1_555
B3E B5E 1_555 1_555
B3E B7E 1_555 1_555
B5E B7E 1_555 1_555
C4E C7E 1_555 1_555
C5E C8E 1_555 1_555

#END
