
#######################################################################
#
#                 Cambridge Crystallographic Data Centre
#                                CCDC 
#
#######################################################################
#
# If this CIF has been generated from an entry in the Cambridge 
# Structural Database, then it will include bibliographic, chemical, 
# crystal, experimental, refinement or atomic coordinate data resulting 
# from the CCDC's data processing and validation procedures.
#
#######################################################################

data_HACYIW
_chemical_formula_moiety         'C31 H28 N2 O1'
_chemical_name_systematic        
4-benzyl-5-methyl-2-(4-methylphenyl)-4-(3-(2-naphthyl)prop-2-en-1-yl)-2,4-dihydro-3H-pyrazol-3-one
_symmetry_cell_setting           monoclinic
_symmetry_space_group_name_H-M   'P 21'
_symmetry_Int_Tables_number      4
_space_group_name_Hall           'P 2yb'
loop_
_symmetry_equiv_pos_site_id
_symmetry_equiv_pos_as_xyz
1 x,y,z
2 -x,1/2+y,-z
_cell_length_a                   9.8305(13)
_cell_length_b                   7.1725(9)
_cell_length_c                   18.792(3)
_cell_angle_alpha                90
_cell_angle_beta                 91.454(10)
_cell_angle_gamma                90
_cell_volume                     1324.58
_exptl_crystal_colour            colorless
_exptl_crystal_description       prism
_cell_formula_units_Z            2
loop_
_atom_site_label
_atom_site_type_symbol
_atom_site_fract_x
_atom_site_fract_y
_atom_site_fract_z
O1 O -0.5719(4) -0.7738(6) -0.2387(3)
N1 N -0.3862(4) -0.9720(6) -0.2239(3)
N2 N -0.3515(4) -1.1520(6) -0.2477(3)
C1 C -0.5146(5) -0.9214(7) -0.2469(3)
C2 C -0.5708(5) -1.0880(7) -0.2880(3)
C3 C -0.4533(5) -1.2189(7) -0.2824(3)
C4 C -0.4477(7) -1.4026(8) -0.3186(3)
H1 H -0.5221 -1.4787 -0.3036
H2 H -0.3632 -1.4631 -0.3064
H3 H -0.4543 -1.3847 -0.3692
C5 C -0.2874(7) -0.8657(9) -0.1857(3)
C6 C -0.3141(9) -0.6827(11) -0.1675(4)
H4 H -0.3978 -0.6281 -0.1786
C7 C -0.2102(11) -0.5817(15) -0.1317(4)
H5 H -0.2245 -0.4560 -0.1222
C8 C -0.0939(11) -0.658(2) -0.1110(5)
C9 C -0.0691(11) -0.847(2) -0.1288(7)
H6 H 0.0129 -0.9030 -0.1155
C10 C -0.1670(7) -0.9461(16) -0.1655(5)
H7 H -0.1509 -1.0702 -0.1769
C11 C 0.0199(14) -0.543(3) -0.0701(9)
H8 H 0.0341 -0.5944 -0.0233
H9 H -0.0080 -0.4153 -0.0663
H10 H 0.1031 -0.5498 -0.0956
C12 C -0.6055(6) -1.0333(9) -0.3652(3)
H11 H -0.6343 -1.1433 -0.3916
H12 H -0.6806 -0.9456 -0.3659
C13 C -0.4848(6) -0.9461(8) -0.4011(3)
H13 H -0.4507 -0.8348 -0.3825
C14 C -0.4256(6) -1.0164(8) -0.4561(3)
H14 H -0.4624 -1.1269 -0.4739
C15 C -0.3067(6) -0.9422(9) -0.4938(3)
C16 C -0.2630(6) -1.0297(9) -0.5512(3)
H15 H -0.3071 -1.1384 -0.5658
C17 C -0.1526(7) -0.9651(11) -0.5910(4)
C18 C -0.1080(9) -1.0548(17) -0.6520(5)
H16 H -0.1506 -1.1646 -0.6667
C19 C -0.0071(11) -0.989(2) -0.6897(7)
H17 H 0.0213 -1.0520 -0.7299
C20 C 0.0547(10) -0.828(3) -0.6695(7)
H18 H 0.1230 -0.7802 -0.6976
C21 C 0.0217(9) -0.733(2) -0.6104(7)
H19 H 0.0702 -0.6270 -0.5969
C22 C -0.0878(7) -0.7972(13) -0.5689(4)
C23 C -0.1334(8) -0.7089(13) -0.5076(5)
H20 H -0.0889 -0.6020 -0.4915
C24 C -0.2412(7) -0.7746(11) -0.4707(4)
H21 H -0.2716 -0.7109 -0.4311
C25 C -0.6990(5) -1.1591(8) -0.2509(3)
H22 H -0.7691 -1.0643 -0.2553
H23 H -0.7319 -1.2691 -0.2759
C26 C -0.6801(5) -1.2062(8) -0.1750(3)
C27 C -0.6884(8) -1.0727(13) -0.1221(4)
H24 H -0.7103 -0.9508 -0.1348
C28 C -0.6655(11) -1.1144(17) -0.0516(5)
H25 H -0.6710 -1.0216 -0.0172
C29 C -0.6342(9) -1.2944(19) -0.0321(4)
H26 H -0.6210 -1.3251 0.0157
C30 C -0.6230(9) -1.4247(15) -0.0822(5)
H27 H -0.5984 -1.5452 -0.0690
C31 C -0.6466(8) -1.3857(10) -0.1525(4)
H28 H -0.6404 -1.4807 -0.1860
loop_
_geom_bond_atom_site_label_1
_geom_bond_atom_site_label_2
_geom_bond_site_symmetry_1
_geom_bond_site_symmetry_2
O1 C1 1_555 1_555
N1 N2 1_555 1_555
N2 C3 1_555 1_555
C1 N1 1_555 1_555
C2 C1 1_555 1_555
C3 C2 1_555 1_555
C4 C3 1_555 1_555
H1 C4 1_555 1_555
H2 C4 1_555 1_555
H3 C4 1_555 1_555
C5 N1 1_555 1_555
C6 C5 1_555 1_555
H4 C6 1_555 1_555
C7 C6 1_555 1_555
H5 C7 1_555 1_555
C8 C7 1_555 1_555
C9 C8 1_555 1_555
H6 C9 1_555 1_555
C10 C5 1_555 1_555
H7 C10 1_555 1_555
C11 C8 1_555 1_555
H8 C11 1_555 1_555
H9 C11 1_555 1_555
H10 C11 1_555 1_555
C12 C2 1_555 1_555
H11 C12 1_555 1_555
H12 C12 1_555 1_555
C13 C12 1_555 1_555
H13 C13 1_555 1_555
C14 C13 1_555 1_555
H14 C14 1_555 1_555
C15 C14 1_555 1_555
C16 C15 1_555 1_555
H15 C16 1_555 1_555
C17 C16 1_555 1_555
C18 C17 1_555 1_555
H16 C18 1_555 1_555
C19 C18 1_555 1_555
H17 C19 1_555 1_555
C20 C19 1_555 1_555
H18 C20 1_555 1_555
C21 C20 1_555 1_555
H19 C21 1_555 1_555
C22 C17 1_555 1_555
C23 C22 1_555 1_555
H20 C23 1_555 1_555
C24 C15 1_555 1_555
H21 C24 1_555 1_555
C25 C2 1_555 1_555
H22 C25 1_555 1_555
H23 C25 1_555 1_555
C26 C25 1_555 1_555
C27 C26 1_555 1_555
H24 C27 1_555 1_555
C28 C27 1_555 1_555
H25 C28 1_555 1_555
C29 C28 1_555 1_555
H26 C29 1_555 1_555
C30 C29 1_555 1_555
H27 C30 1_555 1_555
C31 C26 1_555 1_555
H28 C31 1_555 1_555
C9 C10 1_555 1_555
C21 C22 1_555 1_555
C23 C24 1_555 1_555
C30 C31 1_555 1_555

#END
