
#######################################################################
#
#                 Cambridge Crystallographic Data Centre
#                                CCDC 
#
#######################################################################
#
# If this CIF has been generated from an entry in the Cambridge 
# Structural Database, then it will include bibliographic, chemical, 
# crystal, experimental, refinement or atomic coordinate data resulting 
# from the CCDC's data processing and validation procedures.
#
#######################################################################

data_HADBAP
_chemical_formula_moiety         'C27 H30 N1 O2 1+,Br1 1-'
_chemical_name_systematic        
'N-Benzyl-N-methyl-4-(diphenylacetoxy)piperidinium bromide'
_chemical_properties_biological  
'agent that blocks muscarine-sensitive acetylcholine receptors in the ileum'
_symmetry_cell_setting           orthorhombic
_symmetry_space_group_name_H-M   'P 21 21 21'
_symmetry_Int_Tables_number      19
_space_group_name_Hall           'P 2ac 2ab'
loop_
_symmetry_equiv_pos_site_id
_symmetry_equiv_pos_as_xyz
1 x,y,z
2 1/2+x,1/2-y,-z
3 -x,1/2+y,1/2-z
4 1/2-x,-y,1/2+z
_cell_length_a                   8.906(3)
_cell_length_b                   9.826(3)
_cell_length_c                   28.039(8)
_cell_angle_alpha                90
_cell_angle_beta                 90
_cell_angle_gamma                90
_cell_volume                     2453.7
_exptl_crystal_colour            Colorless
_cell_formula_units_Z            4
loop_
_atom_site_label
_atom_site_type_symbol
_atom_site_fract_x
_atom_site_fract_y
_atom_site_fract_z
Br1 Br 0.6764(2) 0.6417(2) 0.9252(1)
N1 N 0.1146(13) 0.5824(12) 0.9591(4)
O1 O 0.3513(11) 0.3353(10) 0.9115(3)
O2 O 0.5499(13) 0.2290(13) 0.9410(4)
C1 C 0.0210(16) 0.5745(15) 1.0034(5)
C2 C 0.0852(16) 0.7222(15) 0.9377(5)
C3 C 0.2793(15) 0.5721(15) 0.9717(5)
C4 C 0.3213(18) 0.4331(16) 0.9897(5)
C5 C 0.2732(16) 0.3183(17) 0.9570(5)
C6 C 0.1108(17) 0.3329(14) 0.9428(5)
C7 C 0.0705(15) 0.4740(13) 0.9246(5)
C8 C 0.4884(21) 0.2861(16) 0.9082(6)
C9 C 0.1524(12) 0.7484(10) 0.8882(3)
C10 C 0.0686 0.7221 0.8472
C11 C 0.1309 0.7457 0.8023
C12 C 0.2771 0.7955 0.7984
C13 C 0.3609 0.8217 0.8394
C14 C 0.2986 0.7981 0.8843
C15 C 0.4643(9) 0.3133(11) 0.8201(3)
C16 C 0.4288 0.1881 0.7995
C17 C 0.3407 0.1832 0.7584
C18 C 0.2882 0.3035 0.7379
C19 C 0.3237 0.4287 0.7585
C20 C 0.4118 0.4336 0.7996
C21 C 0.5686(14) 0.3217(12) 0.8623(4)
C22 C 0.7148(9) 0.2464(11) 0.8549(3)
C23 C 0.8342 0.3186 0.8349
C24 C 0.9700 0.2529 0.8257
C25 C 0.9864 0.1151 0.8365
C26 C 0.8671 0.0430 0.8565
C27 C 0.7313 0.1087 0.8657
H1 H 0.0331 0.4883 1.0193
H2 H 0.0480 0.6462 1.0258
H3 H -0.0857 0.5859 0.9962
H4 H 0.5969 0.4192 0.8649
H5 H 0.1205 0.7939 0.9589
H6 H -0.0246 0.7386 0.9353
H7 H 0.2922 0.6477 0.9969
H8 H 0.3444 0.5954 0.9434
H9 H 0.4332 0.4270 0.9950
H10 H 0.2803 0.4207 1.0218
H11 H 0.2932 0.2324 0.9712
H12 H 0.0714 0.2543 0.9193
H13 H 0.0515 0.3194 0.9728
H14 H 0.1347 0.4913 0.8978
H15 H -0.0377 0.4815 0.9154
H16 H -0.0319 0.6858 0.8501
H17 H 0.0719 0.7255 0.7741
H18 H 0.3182 0.8104 0.7671
H19 H 0.4607 0.8556 0.8361
H20 H 0.3568 0.8159 0.9121
H21 H 0.4650 0.1050 0.8127
H22 H 0.3165 0.0979 0.7432
H23 H 0.2280 0.3015 0.7090
H24 H 0.2879 0.5122 0.7442
H25 H 0.4363 0.5193 0.8137
H26 H 0.8224 0.4122 0.8277
H27 H 1.0522 0.3027 0.8117
H28 H 1.0815 0.0699 0.8293
H29 H 0.8811 -0.0534 0.8630
H30 H 0.6513 0.0560 0.8790
loop_
_geom_bond_atom_site_label_1
_geom_bond_atom_site_label_2
_geom_bond_site_symmetry_1
_geom_bond_site_symmetry_2
N1 C1 1_555 1_555
O1 C5 1_555 1_555
O2 C8 1_555 1_555
C1 H1 1_555 1_555
C2 N1 1_555 1_555
C3 N1 1_555 1_555
C4 C3 1_555 1_555
C5 C4 1_555 1_555
C6 C5 1_555 1_555
C7 N1 1_555 1_555
C8 O1 1_555 1_555
C9 C2 1_555 1_555
C10 C9 1_555 1_555
C11 C10 1_555 1_555
C12 C11 1_555 1_555
C13 C12 1_555 1_555
C14 C9 1_555 1_555
C15 C16 1_555 1_555
C16 C17 1_555 1_555
C17 C18 1_555 1_555
C18 C19 1_555 1_555
C19 C20 1_555 1_555
C20 C15 1_555 1_555
C21 C8 1_555 1_555
C22 C21 1_555 1_555
C23 C22 1_555 1_555
C24 C23 1_555 1_555
C25 C24 1_555 1_555
C26 C25 1_555 1_555
C27 C22 1_555 1_555
H2 C1 1_555 1_555
H3 C1 1_555 1_555
H4 C21 1_555 1_555
H5 C2 1_555 1_555
H6 C2 1_555 1_555
H7 C3 1_555 1_555
H8 C3 1_555 1_555
H9 C4 1_555 1_555
H10 C4 1_555 1_555
H11 C5 1_555 1_555
H12 C6 1_555 1_555
H13 C6 1_555 1_555
H14 C7 1_555 1_555
H15 C7 1_555 1_555
H16 C10 1_555 1_555
H17 C11 1_555 1_555
H18 C12 1_555 1_555
H19 C13 1_555 1_555
H20 C14 1_555 1_555
H21 C16 1_555 1_555
H22 C17 1_555 1_555
H23 C18 1_555 1_555
H24 C19 1_555 1_555
H25 C20 1_555 1_555
H26 C23 1_555 1_555
H27 C24 1_555 1_555
H28 C25 1_555 1_555
H29 C26 1_555 1_555
H30 C27 1_555 1_555
C6 C7 1_555 1_555
C13 C14 1_555 1_555
C15 C21 1_555 1_555
C26 C27 1_555 1_555

#END
