
#######################################################################
#
#                 Cambridge Crystallographic Data Centre
#                                CCDC 
#
#######################################################################
#
# If this CIF has been generated from an entry in the Cambridge 
# Structural Database, then it will include bibliographic, chemical, 
# crystal, experimental, refinement or atomic coordinate data resulting 
# from the CCDC's data processing and validation procedures.
#
#######################################################################

data_HADFUQ
_chemical_formula_moiety         'C22 H18'
_chemical_name_systematic        4-(4-phenylbuta-2,3-dien-2-yl)biphenyl
_symmetry_cell_setting           monoclinic
_symmetry_space_group_name_H-M   'P 21'
_symmetry_Int_Tables_number      4
_space_group_name_Hall           'P 2yb'
loop_
_symmetry_equiv_pos_site_id
_symmetry_equiv_pos_as_xyz
1 x,y,z
2 -x,1/2+y,-z
_cell_length_a                   8.28575(9)
_cell_length_b                   5.58198(5)
_cell_length_c                   17.4221(2)
_cell_angle_alpha                90
_cell_angle_beta                 103.1833(12)
_cell_angle_gamma                90
_cell_volume                     784.551
_cell_formula_units_Z            2
loop_
_atom_site_label
_atom_site_type_symbol
_atom_site_fract_x
_atom_site_fract_y
_atom_site_fract_z
C1 C -0.7531(2) -0.3966(4) -0.50563(11)
C2 C -0.6916(3) -0.2158(4) -0.45092(13)
H1 H -0.6320 -0.0865 -0.4667
C3 C -0.7143(2) -0.2188(4) -0.37539(13)
H2 H -0.6705 -0.0921 -0.3404
C4 C -0.8009(2) -0.4050(4) -0.34886(11)
C5 C -0.8659(2) -0.5830(4) -0.40315(12)
H3 H -0.9279 -0.7100 -0.3876
C6 C -0.8421(2) -0.5789(4) -0.47902(12)
H4 H -0.8878 -0.7041 -0.5143
C7 C -0.7253(2) -0.3944(4) -0.58674(12)
C8 C -0.6316(2) -0.2159(4) -0.61184(13)
H5 H -0.5853 -0.0920 -0.5762
C9 C -0.6045(3) -0.2143(5) -0.68712(14)
H6 H -0.5397 -0.0901 -0.7022
C10 C -0.6698(3) -0.3902(4) -0.74071(13)
H7 H -0.6521 -0.3879 -0.7927
C11 C -0.7619(4) -0.5700(5) -0.71664(16)
H8 H -0.8063 -0.6949 -0.7523
C12 C -0.7901(3) -0.5706(4) -0.64168(15)
H9 H -0.8556 -0.6947 -0.6271
C13 C -0.8200(2) -0.4144(4) -0.26637(11)
C14 C -0.7394(2) -0.2662(4) -0.21226(12)
C15 C -0.6561(2) -0.1278(4) -0.15675(11)
H10 H -0.7059 0.0192 -0.1473
C16 C -0.9336(3) -0.6030(5) -0.24448(13)
H11 H -0.8915 -0.7628 -0.2526
H12 H -1.0454 -0.5839 -0.2777
H13 H -0.9372 -0.5840 -0.1890
C17 C -0.4901(2) -0.1825(4) -0.10758(10)
C18 C -0.4054(2) -0.3912(4) -0.11862(11)
H14 H -0.4548 -0.5014 -0.1587
C19 C -0.2503(2) -0.4389(4) -0.07165(13)
H15 H -0.1932 -0.5808 -0.0799
C20 C -0.1775(2) -0.2802(4) -0.01244(13)
H16 H -0.0714 -0.3140 0.0201
C21 C -0.2601(2) -0.0727(4) -0.00097(12)
H17 H -0.2108 0.0364 0.0395
C22 C -0.4156(2) -0.0239(4) -0.04868(11)
H18 H -0.4714 0.1196 -0.0409
loop_
_geom_bond_atom_site_label_1
_geom_bond_atom_site_label_2
_geom_bond_site_symmetry_1
_geom_bond_site_symmetry_2
C1 C2 1_555 1_555
C2 H1 1_555 1_555
C3 C2 1_555 1_555
H2 C3 1_555 1_555
C4 C3 1_555 1_555
C5 C4 1_555 1_555
H3 C5 1_555 1_555
C6 C1 1_555 1_555
H4 C6 1_555 1_555
C7 C1 1_555 1_555
C8 C7 1_555 1_555
H5 C8 1_555 1_555
C9 C8 1_555 1_555
H6 C9 1_555 1_555
C10 C9 1_555 1_555
H7 C10 1_555 1_555
C11 C10 1_555 1_555
H8 C11 1_555 1_555
C12 C7 1_555 1_555
H9 C12 1_555 1_555
C13 C4 1_555 1_555
C14 C13 1_555 1_555
C15 C14 1_555 1_555
H10 C15 1_555 1_555
C16 C13 1_555 1_555
H11 C16 1_555 1_555
H12 C16 1_555 1_555
H13 C16 1_555 1_555
C17 C15 1_555 1_555
C18 C17 1_555 1_555
H14 C18 1_555 1_555
C19 C18 1_555 1_555
H15 C19 1_555 1_555
C20 C19 1_555 1_555
H16 C20 1_555 1_555
C21 C20 1_555 1_555
H17 C21 1_555 1_555
C22 C17 1_555 1_555
H18 C22 1_555 1_555
C5 C6 1_555 1_555
C11 C12 1_555 1_555
C21 C22 1_555 1_555

#END
