
#######################################################################
#
#                 Cambridge Crystallographic Data Centre
#                                CCDC 
#
#######################################################################
#
# If this CIF has been generated from an entry in the Cambridge 
# Structural Database, then it will include bibliographic, chemical, 
# crystal, experimental, refinement or atomic coordinate data resulting 
# from the CCDC's data processing and validation procedures.
#
#######################################################################

data_HADHID
_chemical_formula_moiety         'C12 F27 O1 P1'
_chemical_name_systematic        'tris(Nonafluoroisobutyl)phosphine oxide'
_symmetry_cell_setting           monoclinic
_symmetry_space_group_name_H-M   'P 21/n'
_symmetry_Int_Tables_number      14
_space_group_name_Hall           '-P 2yn'
loop_
_symmetry_equiv_pos_site_id
_symmetry_equiv_pos_as_xyz
1 x,y,z
2 1/2-x,1/2+y,1/2-z
3 -x,-y,-z
4 1/2+x,1/2-y,1/2+z
_cell_length_a                   6.8294(9)
_cell_length_b                   19.627(3)
_cell_length_c                   15.702(3)
_cell_angle_alpha                90
_cell_angle_beta                 98.300(14)
_cell_angle_gamma                90
_cell_volume                     2082.66
_exptl_crystal_colour            Colorless
_cell_formula_units_Z            4
loop_
_atom_site_label
_atom_site_type_symbol
_atom_site_fract_x
_atom_site_fract_y
_atom_site_fract_z
P1 P 0.22671(8) 0.20391(3) 0.55302(3)
F1 F 0.5948(2) 0.16785(6) 0.53815(8)
F2 F 0.4813(2) 0.24749(6) 0.44845(8)
F3 F 0.2564(2) 0.08810(6) 0.44209(8)
F4 F 0.3828(3) 0.19615(8) 0.28198(9)
F5 F 0.1596(3) 0.11968(8) 0.28327(10)
F6 F 0.1347(2) 0.21429(7) 0.34832(9)
F7 F 0.6250(3) 0.05350(8) 0.45387(10)
F8 F 0.5103(3) 0.05796(8) 0.32017(9)
F9 F 0.7026(2) 0.13725(8) 0.37703(10)
F10 F 0.4982(2) 0.29501(6) 0.61294(8)
F11 F 0.2476(2) 0.29383(6) 0.68326(7)
F12 F 0.1815(2) 0.33323(6) 0.46521(7)
F13 F 0.4011(3) 0.42873(7) 0.64053(11)
F14 F 0.4925(3) 0.40540(8) 0.51864(12)
F15 F 0.2422(3) 0.46892(7) 0.52386(12)
F16 F -0.1049(2) 0.40258(8) 0.50560(10)
F17 F -0.1052(2) 0.31356(8) 0.58434(11)
F18 F 0.0054(3) 0.40752(8) 0.64048(10)
F19 F 0.3700(2) 0.08508(6) 0.62047(8)
F20 F 0.4541(2) 0.17359(6) 0.69977(8)
F21 F 0.0058(2) 0.18283(7) 0.69408(9)
F22 F 0.3568(3) 0.07530(9) 0.80895(10)
F23 F 0.2628(3) 0.17734(9) 0.83297(10)
F24 F 0.0641(3) 0.09364(10) 0.83757(12)
F25 F -0.0196(3) 0.06577(8) 0.57802(10)
F26 F 0.0934(3) 0.00798(7) 0.69008(11)
F27 F -0.1703(3) 0.06753(9) 0.68807(14)
O1 O 0.0256(2) 0.19728(7) 0.50993(9)
C1 C 0.4335(3) 0.18852(10) 0.48464(13)
C2 C 0.3772(3) 0.13521(10) 0.41179(13)
C3 C 0.2606(4) 0.16724(12) 0.32981(14)
C4 C 0.5603(4) 0.09549(12) 0.3906(2)
C5 C 0.2994(3) 0.29063(10) 0.60364(13)
C6 C 0.2047(3) 0.35182(10) 0.55021(13)
C7 C 0.3388(4) 0.41538(12) 0.5592(2)
C8 C -0.0059(4) 0.36907(12) 0.5707(2)
C9 C 0.3021(3) 0.14426(10) 0.64856(13)
C10 C 0.1299(4) 0.12763(11) 0.7001(2)
C11 C 0.2065(5) 0.1181(2) 0.7973(2)
C12 C 0.0060(4) 0.06599(13) 0.6633(2)
loop_
_geom_bond_atom_site_label_1
_geom_bond_atom_site_label_2
_geom_bond_site_symmetry_1
_geom_bond_site_symmetry_2
P1 O1 1_555 1_555
F1 C1 1_555 1_555
F2 C1 1_555 1_555
F3 C2 1_555 1_555
F4 C3 1_555 1_555
F5 C3 1_555 1_555
F6 C3 1_555 1_555
F7 C4 1_555 1_555
F8 C4 1_555 1_555
F9 C4 1_555 1_555
F10 C5 1_555 1_555
F11 C5 1_555 1_555
F12 C6 1_555 1_555
F13 C7 1_555 1_555
F14 C7 1_555 1_555
F15 C7 1_555 1_555
F16 C8 1_555 1_555
F17 C8 1_555 1_555
F18 C8 1_555 1_555
F19 C9 1_555 1_555
F20 C9 1_555 1_555
F21 C10 1_555 1_555
F22 C11 1_555 1_555
F23 C11 1_555 1_555
F24 C11 1_555 1_555
F25 C12 1_555 1_555
F26 C12 1_555 1_555
F27 C12 1_555 1_555
C1 P1 1_555 1_555
C2 C1 1_555 1_555
C3 C2 1_555 1_555
C4 C2 1_555 1_555
C5 P1 1_555 1_555
C6 C5 1_555 1_555
C7 C6 1_555 1_555
C8 C6 1_555 1_555
C9 P1 1_555 1_555
C10 C9 1_555 1_555
C11 C10 1_555 1_555
C12 C10 1_555 1_555

#END
