
#######################################################################
#
#                 Cambridge Crystallographic Data Centre
#                                CCDC 
#
#######################################################################
#
# If this CIF has been generated from an entry in the Cambridge 
# Structural Database, then it will include bibliographic, chemical, 
# crystal, experimental, refinement or atomic coordinate data resulting 
# from the CCDC's data processing and validation procedures.
#
#######################################################################

data_HADJAY
_chemical_compound_source        
'seeds of Pseudolarix kaempferi Gord. (Pinaceae)'
_chemical_name_common            'Pseudolarolide O monohydrate'
_chemical_formula_moiety         'C30 H42 O5,H2 O1'
_chemical_name_systematic        
'(16R,23S,25R)-16,23-Epoxy-3,4:9,10-disecocycloartan-1(10),9(11)-diene-3(4),26(23)-diolide monohydrate'
_chemical_properties_biological  'no bioactivity found'
_symmetry_cell_setting           orthorhombic
_symmetry_space_group_name_H-M   'P 21 21 21'
_symmetry_Int_Tables_number      19
_space_group_name_Hall           'P 2ac 2ab'
loop_
_symmetry_equiv_pos_site_id
_symmetry_equiv_pos_as_xyz
1 x,y,z
2 1/2-x,-y,1/2+z
3 1/2+x,1/2-y,-z
4 -x,1/2+y,1/2-z
_cell_length_a                   12.680(4)
_cell_length_b                   20.688(4)
_cell_length_c                   10.799(2)
_cell_angle_alpha                90
_cell_angle_beta                 90
_cell_angle_gamma                90
_cell_volume                     2832.84
_exptl_crystal_colour            colorless
_exptl_crystal_description       prismatic
_chemical_melting_point          '239-240 deg.C'
_cell_formula_units_Z            4
_exptl_crystal_recrystallization_method acetone
loop_
_atom_site_label
_atom_site_type_symbol
_atom_site_fract_x
_atom_site_fract_y
_atom_site_fract_z
O1 O 1.2392(4) -0.0041(3) -0.3397(6)
O2 O 1.1671(3) 0.0538(2) -0.4845(4)
O3 O 0.9040(3) 0.3012(1) 0.1547(3)
O4 O 0.9738(3) 0.2671(2) 0.3428(3)
O5 O 1.1158(3) 0.3027(2) 0.4428(3)
C1 C 0.9593(5) 0.0017(3) -0.3670(6)
C2 C 1.0648(6) -0.0319(3) -0.3809(7)
C3 C 1.1619(5) 0.0075(3) -0.3992(6)
C4 C 1.0811(4) 0.0766(2) -0.5636(5)
C5 C 0.9911(4) 0.1063(2) -0.4851(4)
C6 C 1.0281(4) 0.1614(2) -0.4004(4)
C7 C 0.9420(5) 0.1967(2) -0.3272(4)
C8 C 0.8952(4) 0.1584(2) -0.2179(4)
C9 C 0.8080(4) 0.1114(3) -0.2543(5)
C10 C 0.9257(4) 0.0589(2) -0.4128(4)
C11 C 0.7309(4) 0.0955(3) -0.1788(5)
C12 C 0.7117(5) 0.1225(3) -0.0506(5)
C13 C 0.8130(4) 0.1557(2) -0.0049(4)
C14 C 0.8553(4) 0.2013(2) -0.1112(4)
C15 C 0.9397(4) 0.2429(2) -0.0442(4)
C16 C 0.9098(4) 0.2385(2) 0.0944(4)
C17 C 0.8044(4) 0.2038(2) 0.1019(4)
C18 C 0.8916(5) 0.1025(2) 0.0287(4)
C19 C 0.8166(4) 0.0807(3) -0.3811(5)
C20 C 0.7872(4) 0.1862(3) 0.2359(4)
C21 C 0.6835(6) 0.1506(4) 0.2597(6)
C22 C 0.7879(5) 0.2501(3) 0.3067(5)
C23 C 0.8803(4) 0.2940(3) 0.2808(4)
C24 C 0.8690(4) 0.3615(3) 0.3370(5)
C25 C 0.9814(5) 0.3793(2) 0.3713(5)
C26 C 1.0341(4) 0.3140(2) 0.3908(4)
C27 C 0.9947(6) 0.4234(3) 0.4813(7)
C28 C 0.7708(5) 0.2468(3) -0.1626(5)
C29 C 1.0420(4) 0.0231(3) -0.6495(5)
C30 C 1.1384(4) 0.1272(3) -0.6422(5)
H1 H 0.9028 -0.0292 -0.3312
H2 H 1.0750 -0.0565 -0.3087
H3 H 1.0589 -0.0592 -0.4510
H4 H 0.9443 0.1254 -0.5437
H5 H 1.0632 0.1927 -0.4506
H6 H 1.0767 0.1440 -0.3426
H7 H 0.9707 0.2359 -0.2954
H8 H 0.8857 0.2070 -0.3825
H9 H 0.9521 0.1330 -0.1860
H10 H 0.6819 0.0639 -0.2090
H11 H 0.6566 0.1525 -0.0520
H12 H 0.6954 0.0879 0.0049
H13 H 1.0082 0.2263 -0.0584
H14 H 0.9362 0.2866 -0.0719
H15 H 0.9617 0.2128 0.1353
H16 H 0.7516 0.2346 0.0798
H17 H 0.8975 0.0733 -0.0391
H18 H 0.9575 0.1208 0.0468
H19 H 0.8656 0.0796 0.0990
H20 H 0.7710 0.0443 -0.3851
H21 H 0.7953 0.1116 -0.4414
H22 H 0.8443 0.1602 0.2636
H23 H 0.6865 0.1088 0.2243
H24 H 0.6270 0.1743 0.2218
H25 H 0.6710 0.1477 0.3457
H26 H 0.7256 0.2726 0.2852
H27 H 0.7882 0.2404 0.3919
H28 H 0.8415 0.3910 0.2773
H29 H 0.8241 0.3607 0.4071
H30 H 1.0135 0.3990 0.3025
H31 H 1.0672 0.4335 0.4900
H32 H 0.9677 0.4042 0.5520
H33 H 0.9570 0.4629 0.4635
H34 H 0.7897 0.2599 -0.2434
H35 H 0.7649 0.2836 -0.1102
H36 H 0.7048 0.2248 -0.1647
H37 H 0.9940 0.0406 -0.7081
H38 H 1.0997 0.0041 -0.6902
H39 H 1.0060 -0.0089 -0.6013
H40 H 1.0881 0.1520 -0.6884
H41 H 1.1846 0.1063 -0.6988
H42 H 1.1774 0.1552 -0.5903
O6 O 1.182(1) 0.1015(6) -0.056(1)
H43 H 1.1333 0.0780 -0.1295
H44 H 1.1440 0.1030 0.0304
loop_
_geom_bond_atom_site_label_1
_geom_bond_atom_site_label_2
_geom_bond_site_symmetry_1
_geom_bond_site_symmetry_2
O1 C3 1_555 1_555
O2 C3 1_555 1_555
O3 C16 1_555 1_555
O4 C23 1_555 1_555
O5 C26 1_555 1_555
O6 H43 1_555 1_555
C1 C2 1_555 1_555
C2 C3 1_555 1_555
C4 O2 1_555 1_555
C5 C4 1_555 1_555
C6 C5 1_555 1_555
C7 C6 1_555 1_555
C8 C7 1_555 1_555
C9 C8 1_555 1_555
C10 C1 1_555 1_555
C11 C9 1_555 1_555
C12 C11 1_555 1_555
C13 C12 1_555 1_555
C14 C8 1_555 1_555
C15 C14 1_555 1_555
C16 C15 1_555 1_555
C17 C13 1_555 1_555
C18 C13 1_555 1_555
C19 C9 1_555 1_555
C20 C17 1_555 1_555
C21 C20 1_555 1_555
C22 C20 1_555 1_555
C23 O3 1_555 1_555
C24 C23 1_555 1_555
C25 C24 1_555 1_555
C26 O4 1_555 1_555
C27 C25 1_555 1_555
C28 C14 1_555 1_555
C29 C4 1_555 1_555
C30 C4 1_555 1_555
H1 C1 1_555 1_555
H2 C2 1_555 1_555
H3 C2 1_555 1_555
H4 C5 1_555 1_555
H5 C6 1_555 1_555
H6 C6 1_555 1_555
H7 C7 1_555 1_555
H8 C7 1_555 1_555
H9 C8 1_555 1_555
H10 C11 1_555 1_555
H11 C12 1_555 1_555
H12 C12 1_555 1_555
H13 C15 1_555 1_555
H14 C15 1_555 1_555
H15 C16 1_555 1_555
H16 C17 1_555 1_555
H17 C18 1_555 1_555
H18 C18 1_555 1_555
H19 C18 1_555 1_555
H20 C19 1_555 1_555
H21 C19 1_555 1_555
H22 C20 1_555 1_555
H23 C21 1_555 1_555
H24 C21 1_555 1_555
H25 C21 1_555 1_555
H26 C22 1_555 1_555
H27 C22 1_555 1_555
H28 C24 1_555 1_555
H29 C24 1_555 1_555
H30 C25 1_555 1_555
H31 C27 1_555 1_555
H32 C27 1_555 1_555
H33 C27 1_555 1_555
H34 C28 1_555 1_555
H35 C28 1_555 1_555
H36 C28 1_555 1_555
H37 C29 1_555 1_555
H38 C29 1_555 1_555
H39 C29 1_555 1_555
H40 C30 1_555 1_555
H41 C30 1_555 1_555
H42 C30 1_555 1_555
H44 O6 1_555 1_555
C5 C10 1_555 1_555
C10 C19 1_555 1_555
C13 C14 1_555 1_555
C16 C17 1_555 1_555
C22 C23 1_555 1_555
C25 C26 1_555 1_555

#END
