
#######################################################################
#
#                 Cambridge Crystallographic Data Centre
#                                CCDC 
#
#######################################################################
#
# If this CIF has been generated from an entry in the Cambridge 
# Structural Database, then it will include bibliographic, chemical, 
# crystal, experimental, refinement or atomic coordinate data resulting 
# from the CCDC's data processing and validation procedures.
#
#######################################################################

data_HADLOO
_chemical_formula_moiety         'C24 H21 N1 O1'
_chemical_name_systematic        
Phenyl-(6-endo-phenyl-6-exo-(pyrid-2-yl)bicyclo(2.1.1)hex-5-yl)methanone
_symmetry_cell_setting           triclinic
_symmetry_space_group_name_H-M   'P -1'
_symmetry_Int_Tables_number      2
_space_group_name_Hall           '-P 1'
loop_
_symmetry_equiv_pos_site_id
_symmetry_equiv_pos_as_xyz
1 x,y,z
2 -x,-y,-z
_cell_length_a                   8.636(2)
_cell_length_b                   9.938(2)
_cell_length_c                   10.676(3)
_cell_angle_alpha                90.444(4)
_cell_angle_beta                 102.233(4)
_cell_angle_gamma                103.842(4)
_cell_volume                     867.803
_exptl_crystal_colour            colorless
_exptl_crystal_description       prism
_chemical_melting_point          '240 deg.C'
_cell_formula_units_Z            2
_exptl_crystal_recrystallization_method dichloromethane
loop_
_atom_site_label
_atom_site_type_symbol
_atom_site_fract_x
_atom_site_fract_y
_atom_site_fract_z
O1 O 0.11104(12) -0.15144(10) 0.03916(9)
N1 N 0.69458(13) 0.26422(11) 0.41631(10)
C1 C 0.64284(15) 0.24327(12) 0.28859(12)
C2 C 0.39050(15) 0.08987(13) 0.12100(12)
C3 C 0.40137(15) 0.33687(13) 0.21675(12)
C4 C 0.85713(17) 0.30789(14) 0.46302(13)
C5 C -0.04412(16) -0.04189(14) 0.30048(13)
C6 C 0.34892(15) 0.09226(13) 0.30388(12)
C7 C 0.39397(16) 0.41478(13) 0.32357(13)
C8 C -0.01230(15) -0.13117(13) 0.21347(12)
C9 C 0.36036(17) 0.38625(14) 0.09594(13)
C10 C 0.22896(16) 0.05901(13) 0.16888(12)
C11 C 0.91629(17) 0.31129(13) 0.25527(14)
C12 C 0.10964(16) -0.08132(13) 0.13313(12)
C13 C -0.16388(16) -0.08941(15) 0.36936(13)
C14 C 0.97098(17) 0.33407(14) 0.38702(14)
C15 C 0.74978(16) 0.26376(13) 0.20523(13)
C16 C 0.34229(16) 0.53713(14) 0.30994(14)
C17 C 0.45931(15) 0.20325(13) 0.23536(11)
C18 C -0.21912(17) -0.31821(15) 0.26745(14)
C19 C -0.09983(17) -0.27054(14) 0.19851(13)
C20 C 0.29644(17) 0.58260(14) 0.18835(15)
C21 C 0.46717(16) -0.02882(13) 0.17460(12)
C22 C 0.30693(19) 0.50801(14) 0.08215(14)
C23 C 0.43176(16) -0.02895(13) 0.31203(12)
C24 C -0.25213(17) -0.22756(15) 0.35180(13)
H1 H 0.991(2) 0.3269(17) 0.1980(16)
H2 H 0.5304(19) -0.0101(14) 0.3813(14)
H3 H 0.4272(18) 0.3839(15) 0.4101(15)
H4 H 0.3906(18) 0.1114(15) 0.0301(14)
H5 H 0.4163(19) -0.1178(16) 0.1219(14)
H6 H 0.3594(19) -0.1161(16) 0.3302(13)
H7 H 0.892(2) 0.3215(16) 0.5582(16)
H8 H 0.013(2) 0.0544(17) 0.3096(14)
H9 H 0.275(2) 0.5391(17) -0.0042(17)
H10 H -0.0765(19) -0.3326(16) 0.1387(15)
H11 H 0.3406(19) 0.5925(16) 0.3856(15)
H12 H 0.7096(19) 0.2463(15) 0.1139(15)
H13 H 0.3152(17) 0.1206(14) 0.3828(14)
H14 H -0.1853(19) -0.0261(16) 0.4317(14)
H15 H 0.586(2) -0.0073(15) 0.1768(14)
H16 H 0.3647(19) 0.3340(16) 0.0209(15)
H17 H 0.258(2) 0.6681(19) 0.1806(16)
H18 H 1.085(2) 0.3643(16) 0.4269(15)
H19 H -0.281(2) -0.4145(18) 0.2567(15)
H20 H -0.341(2) -0.2632(17) 0.4003(15)
H21 H 0.1713(19) 0.1309(16) 0.1498(14)
loop_
_geom_bond_atom_site_label_1
_geom_bond_atom_site_label_2
_geom_bond_site_symmetry_1
_geom_bond_site_symmetry_2
O1 C12 1_555 1_555
N1 C1 1_555 1_555
C1 C15 1_555 1_555
C2 C10 1_555 1_555
C3 C7 1_555 1_555
C4 N1 1_555 1_555
C5 C8 1_555 1_555
C6 C10 1_555 1_555
C7 C16 1_555 1_555
C8 C12 1_555 1_555
C9 C3 1_555 1_555
C10 C12 1_555 1_555
C11 C14 1_555 1_555
C13 C5 1_555 1_555
C14 C4 1_555 1_555
C15 C11 1_555 1_555
C16 C20 1_555 1_555
C17 C1 1_555 1_555
C18 C19 1_555 1_555
C19 C8 1_555 1_555
C20 C22 1_555 1_555
C21 C2 1_555 1_555
C22 C9 1_555 1_555
C23 C6 1_555 1_555
C24 C13 1_555 1_555
H1 C11 1_555 1_555
H2 C23 1_555 1_555
H3 C7 1_555 1_555
H4 C2 1_555 1_555
H5 C21 1_555 1_555
H6 C23 1_555 1_555
H7 C4 1_555 1_555
H8 C5 1_555 1_555
H9 C22 1_555 1_555
H10 C19 1_555 1_555
H11 C16 1_555 1_555
H12 C15 1_555 1_555
H13 C6 1_555 1_555
H14 C13 1_555 1_555
H15 C21 1_555 1_555
H16 C9 1_555 1_555
H17 C20 1_555 1_555
H18 C14 1_555 1_555
H19 C18 1_555 1_555
H20 C24 1_555 1_555
H21 C10 1_555 1_555
C2 C17 1_555 1_555
C3 C17 1_555 1_555
C6 C17 1_555 1_555
C18 C24 1_555 1_555
C21 C23 1_555 1_555

#END
