
#######################################################################
#
#                 Cambridge Crystallographic Data Centre
#                                CCDC 
#
#######################################################################
#
# If this CIF has been generated from an entry in the Cambridge 
# Structural Database, then it will include bibliographic, chemical, 
# crystal, experimental, refinement or atomic coordinate data resulting 
# from the CCDC's data processing and validation procedures.
#
#######################################################################

data_HADNEI
_chemical_formula_moiety         'C20 H20 Br1 N1 O1'
_chemical_name_systematic        
6-(4-bromophenyl)-4-ethyl-N-phenylhex-5-ynamide
_symmetry_cell_setting           monoclinic
_symmetry_space_group_name_H-M   'P 21'
_symmetry_Int_Tables_number      4
_space_group_name_Hall           'P 2yb'
loop_
_symmetry_equiv_pos_site_id
_symmetry_equiv_pos_as_xyz
1 x,y,z
2 -x,1/2+y,-z
_cell_length_a                   9.336(6)
_cell_length_b                   5.059(3)
_cell_length_c                   19.254(12)
_cell_angle_alpha                90
_cell_angle_beta                 101.116(9)
_cell_angle_gamma                90
_cell_volume                     892.321
_exptl_crystal_colour            colorless
_exptl_crystal_description       needle
_cell_formula_units_Z            2
loop_
_atom_site_label
_atom_site_type_symbol
_atom_site_fract_x
_atom_site_fract_y
_atom_site_fract_z
Br1 Br 0.17221(6) -0.20075(19) 0.00053(3)
O1 O 0.8053(4) 0.7158(7) 0.48612(19)
N1 N 0.7479(4) 0.2895(13) 0.50798(18)
H1 H 0.7535 0.1300 0.4933
C1 C 0.9262(6) 0.4921(13) 0.2880(3)
H2 H 0.9997 0.3523 0.2990
C2 C 0.9897(7) 0.7110(14) 0.2483(3)
H3 H 0.9159 0.8460 0.2345
H4 H 1.0712 0.7919 0.2800
C3 C 1.0418(8) 0.6140(17) 0.1825(4)
H5 H 0.9597 0.5525 0.1483
H6 H 1.1100 0.4720 0.1951
H7 H 1.0884 0.7565 0.1625
C4 C 0.7946(6) 0.3760(10) 0.2428(3)
C5 C 0.6903(5) 0.2888(17) 0.2044(2)
C6 C 0.5673(6) 0.1736(10) 0.1562(3)
C7 C 0.5874(6) -0.0450(11) 0.1153(3)
H8 H 0.6801 -0.1180 0.1193
C8 C 0.4708(5) -0.1557(14) 0.0685(3)
H9 H 0.4851 -0.3000 0.0407
C9 C 0.3332(6) -0.0477(12) 0.0638(3)
C10 C 0.3093(6) 0.1675(11) 0.1040(3)
H10 H 0.2165 0.2396 0.0999
C11 C 0.4267(5) 0.2733(14) 0.1502(3)
H11 H 0.4112 0.4160 0.1783
C12 C 0.8936(6) 0.5967(12) 0.3586(3)
H12 H 0.9792 0.6873 0.3843
H13 H 0.8146 0.7240 0.3488
C13 C 0.8517(6) 0.3772(11) 0.4049(3)
H14 H 0.9354 0.2630 0.4198
H15 H 0.7747 0.2716 0.3770
C14 C 0.7995(6) 0.4807(12) 0.4703(3)
C15 C 0.6852(5) 0.3227(15) 0.5693(2)
C16 C 0.5844(6) 0.1377(12) 0.5817(3)
H16 H 0.5578 -0.0008 0.5501
C17 C 0.5226(7) 0.1597(14) 0.6419(3)
H17 H 0.4545 0.0351 0.6501
C18 C 0.5605(7) 0.3614(12) 0.6890(3)
H18 H 0.5194 0.3740 0.7292
C19 C 0.6604(7) 0.5455(13) 0.6760(3)
H19 H 0.6866 0.6835 0.7078
C20 C 0.7230(6) 0.5292(12) 0.6163(3)
H20 H 0.7897 0.6562 0.6079
loop_
_geom_bond_atom_site_label_1
_geom_bond_atom_site_label_2
_geom_bond_site_symmetry_1
_geom_bond_site_symmetry_2
Br1 C9 1_555 1_555
O1 C14 1_555 1_555
N1 H1 1_555 1_555
C1 H2 1_555 1_555
C2 C1 1_555 1_555
H3 C2 1_555 1_555
H4 C2 1_555 1_555
C3 C2 1_555 1_555
H5 C3 1_555 1_555
H6 C3 1_555 1_555
H7 C3 1_555 1_555
C4 C1 1_555 1_555
C5 C4 1_555 1_555
C6 C5 1_555 1_555
C7 C6 1_555 1_555
H8 C7 1_555 1_555
C8 C7 1_555 1_555
H9 C8 1_555 1_555
C9 C8 1_555 1_555
C10 C9 1_555 1_555
H10 C10 1_555 1_555
C11 C6 1_555 1_555
H11 C11 1_555 1_555
C12 C1 1_555 1_555
H12 C12 1_555 1_555
H13 C12 1_555 1_555
C13 C12 1_555 1_555
H14 C13 1_555 1_555
H15 C13 1_555 1_555
C14 N1 1_555 1_555
C15 N1 1_555 1_555
C16 C15 1_555 1_555
H16 C16 1_555 1_555
C17 C16 1_555 1_555
H17 C17 1_555 1_555
C18 C17 1_555 1_555
H18 C18 1_555 1_555
C19 C18 1_555 1_555
H19 C19 1_555 1_555
C20 C15 1_555 1_555
H20 C20 1_555 1_555
C10 C11 1_555 1_555
C13 C14 1_555 1_555
C19 C20 1_555 1_555

#END
