
#######################################################################
#
#                 Cambridge Crystallographic Data Centre
#                                CCDC 
#
#######################################################################
#
# If this CIF has been generated from an entry in the Cambridge 
# Structural Database, then it will include bibliographic, chemical, 
# crystal, experimental, refinement or atomic coordinate data resulting 
# from the CCDC's data processing and validation procedures.
#
#######################################################################

data_HADVEQ
_chemical_formula_moiety         'C24 H34 O3'
_chemical_name_systematic        
4-(3,17-dimethoxy-13-methyl-7,8,9,11,12,13,14,15,16,17-decahydro-6H-cyclopenta[a]phenanthren-17-yl)butanal
_symmetry_cell_setting           orthorhombic
_symmetry_space_group_name_H-M   'P 21 21 21'
_symmetry_Int_Tables_number      19
_space_group_name_Hall           'P 2ac 2ab'
loop_
_symmetry_equiv_pos_site_id
_symmetry_equiv_pos_as_xyz
1 x,y,z
2 1/2-x,-y,1/2+z
3 -x,1/2+y,1/2-z
4 1/2+x,1/2-y,-z
_cell_length_a                   6.8280(14)
_cell_length_b                   9.5590(19)
_cell_length_c                   31.669(6)
_cell_angle_alpha                90
_cell_angle_beta                 90
_cell_angle_gamma                90
_cell_volume                     2067
_exptl_crystal_colour            colorless
_exptl_crystal_description       block
_cell_formula_units_Z            4
loop_
_atom_site_label
_atom_site_type_symbol
_atom_site_fract_x
_atom_site_fract_y
_atom_site_fract_z
O1 O 0.5427(5) 0.3683(3) 0.06160(10)
C1 C 0.5758(7) 0.2464(5) 0.08783(12)
C2 C 0.7842(6) 0.1954(5) 0.07594(13)
H1 H 0.7763 0.1179 0.0562
H2 H 0.8576 0.2705 0.0628
O2 O 0.5702(6) -0.1598(5) 0.03353(13)
O3 O 0.8596(5) 0.2775(4) 0.39456(9)
C3 C 0.8861(6) 0.1481(5) 0.11725(11)
H3 H 0.9344 0.0531 0.1148
H4 H 0.9947 0.2095 0.1241
C4 C 0.7258(6) 0.1577(4) 0.15055(11)
H5 H 0.6476 0.0721 0.1482
C5 C 0.7905(6) 0.1690(4) 0.19627(11)
H6 H 0.8664 0.2554 0.1993
C6 C 0.9179(6) 0.0487(4) 0.21077(11)
H7 H 1.0260 0.0374 0.1912
H8 H 0.8417 -0.0369 0.2104
C7 C 0.9992(7) 0.0720(5) 0.25521(12)
H9 H 1.1208 0.1241 0.2532
H10 H 1.0285 -0.0180 0.2679
C8 C 0.8574(7) 0.1515(4) 0.28390(13)
C9 C 0.9226(7) 0.1738(4) 0.32551(12)
H11 H 1.0449 0.1414 0.3340
C10 C 0.8036(7) 0.2440(5) 0.35370(13)
C11 C 0.6187(7) 0.2852(5) 0.34183(14)
H12 H 0.5358 0.3277 0.3613
C12 C 0.5570(7) 0.2628(4) 0.30085(13)
H13 H 0.4324 0.2922 0.2929
C13 C 0.6774(6) 0.1964(4) 0.27056(13)
C14 C 0.6104(6) 0.1804(4) 0.22501(12)
H14 H 0.5410 0.0909 0.2232
C15 C 0.4661(6) 0.2945(4) 0.21029(11)
H15 H 0.3478 0.2886 0.2271
H16 H 0.5243 0.3856 0.2152
C16 C 0.4110(6) 0.2823(5) 0.16327(11)
H17 H 0.3365 0.1971 0.1588
H18 H 0.3290 0.3608 0.1553
C17 C 0.5940(6) 0.2800(4) 0.13534(12)
C18 C 0.3585(8) 0.4358(5) 0.06550(16)
H19 H 0.3536 0.5144 0.0467
H20 H 0.3414 0.4675 0.0940
H21 H 0.2560 0.3712 0.0584
C19 C 0.4229(6) 0.1336(4) 0.07719(12)
H22 H 0.4622 0.0465 0.0904
H23 H 0.2983 0.1609 0.0894
C20 C 0.3939(8) 0.1078(4) 0.02982(12)
H24 H 0.3234 0.1863 0.0178
H25 H 0.5211 0.1032 0.0163
C21 C 0.2838(7) -0.0242(5) 0.02056(13)
H26 H 0.2387 -0.0207 -0.0085
H27 H 0.1689 -0.0272 0.0385
C22 C 0.3973(9) -0.1569(6) 0.02671(15)
H28 H 0.3302 -0.2414 0.0252
C23 C 0.7049(7) 0.4227(4) 0.14000(13)
H29 H 0.8205 0.4215 0.1228
H30 H 0.7413 0.4364 0.1690
H31 H 0.6210 0.4977 0.1311
C24 C 1.0502(7) 0.2383(5) 0.40821(13)
H32 H 1.0689 0.2675 0.4369
H33 H 1.1464 0.2823 0.3906
H34 H 1.0640 0.1385 0.4064
loop_
_geom_bond_atom_site_label_1
_geom_bond_atom_site_label_2
_geom_bond_site_symmetry_1
_geom_bond_site_symmetry_2
O1 C1 1_555 1_555
C1 C2 1_555 1_555
C2 H1 1_555 1_555
H2 C2 1_555 1_555
O2 C22 1_555 1_555
O3 C10 1_555 1_555
C3 C2 1_555 1_555
H3 C3 1_555 1_555
H4 C3 1_555 1_555
C4 C3 1_555 1_555
H5 C4 1_555 1_555
C5 C4 1_555 1_555
H6 C5 1_555 1_555
C6 C5 1_555 1_555
H7 C6 1_555 1_555
H8 C6 1_555 1_555
C7 C6 1_555 1_555
H9 C7 1_555 1_555
H10 C7 1_555 1_555
C8 C7 1_555 1_555
C9 C8 1_555 1_555
H11 C9 1_555 1_555
C10 C9 1_555 1_555
C11 C10 1_555 1_555
H12 C11 1_555 1_555
C12 C11 1_555 1_555
H13 C12 1_555 1_555
C13 C8 1_555 1_555
C14 C5 1_555 1_555
H14 C14 1_555 1_555
C15 C14 1_555 1_555
H15 C15 1_555 1_555
H16 C15 1_555 1_555
C16 C15 1_555 1_555
H17 C16 1_555 1_555
H18 C16 1_555 1_555
C17 C1 1_555 1_555
C18 O1 1_555 1_555
H19 C18 1_555 1_555
H20 C18 1_555 1_555
H21 C18 1_555 1_555
C19 C1 1_555 1_555
H22 C19 1_555 1_555
H23 C19 1_555 1_555
C20 C19 1_555 1_555
H24 C20 1_555 1_555
H25 C20 1_555 1_555
C21 C20 1_555 1_555
H26 C21 1_555 1_555
H27 C21 1_555 1_555
C22 C21 1_555 1_555
H28 C22 1_555 1_555
C23 C17 1_555 1_555
H29 C23 1_555 1_555
H30 C23 1_555 1_555
H31 C23 1_555 1_555
C24 O3 1_555 1_555
H32 C24 1_555 1_555
H33 C24 1_555 1_555
H34 C24 1_555 1_555
C4 C17 1_555 1_555
C12 C13 1_555 1_555
C13 C14 1_555 1_555
C16 C17 1_555 1_555

#END
