
#######################################################################
#
#                 Cambridge Crystallographic Data Centre
#                                CCDC 
#
#######################################################################
#
# If this CIF has been generated from an entry in the Cambridge 
# Structural Database, then it will include bibliographic, chemical, 
# crystal, experimental, refinement or atomic coordinate data resulting 
# from the CCDC's data processing and validation procedures.
#
#######################################################################

data_HAFHUU
_chemical_formula_moiety         'C56 H65 N3 O6 S1 Si1'
_chemical_name_systematic        
6-(2-(diphenyl((trimethylsilyl)oxy)methyl)pyrrolidin-1-yl)-1-(hept-5-yn-1-yl)-4-(5-(pent-3-yn-1-yl)-3-furyl)-6'-(phenylsulfonyl)-1',7',8',10a'-tetrahydro-2H-spiro[piperidine-3,2'-pyrrolo[1,2-a]azocine]-2,3'-dione
_symmetry_cell_setting           orthorhombic
_symmetry_space_group_name_H-M   'P 21 21 21'
_symmetry_Int_Tables_number      19
_space_group_name_Hall           'P 2ac 2ab'
loop_
_symmetry_equiv_pos_site_id
_symmetry_equiv_pos_as_xyz
1 x,y,z
2 1/2-x,-y,1/2+z
3 -x,1/2+y,1/2-z
4 1/2+x,1/2-y,-z
_cell_length_a                   10.1881(8)
_cell_length_b                   12.8917(10)
_cell_length_c                   40.220(3)
_cell_angle_alpha                90
_cell_angle_beta                 90
_cell_angle_gamma                90
_cell_volume                     5282.57
_exptl_crystal_colour            colorless
_exptl_crystal_description       needle
_cell_formula_units_Z            4
loop_
_atom_site_label
_atom_site_type_symbol
_atom_site_fract_x
_atom_site_fract_y
_atom_site_fract_z
S1 S 0.24727(15) 0.57779(14) 0.45879(5)
O1 O 0.6309(4) 0.5604(4) 0.37994(10)
O2 O 0.8353(5) 0.3893(4) 0.43384(11)
N1 N 0.9408(4) 0.4126(3) 0.32238(10)
C1 C 1.0382(6) 0.3516(4) 0.30497(13)
H1 H 1.1016 0.3254 0.3213
C2 C 0.9605(6) 0.2587(5) 0.29100(16)
H2 H 0.9914 0.2407 0.2689
H3 H 0.9700 0.1986 0.3053
C3 C 0.8213(6) 0.2935(5) 0.28988(18)
H4 H 0.7626 0.2355 0.2938
H5 H 0.8009 0.3234 0.2684
C4 C 0.8073(6) 0.3740(5) 0.31707(15)
H6 H 0.7494 0.4296 0.3101
H7 H 0.7726 0.3430 0.3372
C5 C 1.1154(5) 0.4132(5) 0.27748(13)
C6 C 1.1903(5) 0.5041(5) 0.29324(13)
C7 C 1.1784(7) 0.6072(6) 0.28363(17)
H8 H 1.1219 0.6241 0.2663
C8 C 1.2480(9) 0.6852(6) 0.2990(2)
H9 H 1.2392 0.7536 0.2920
C9 C 1.3309(8) 0.6609(8) 0.3250(2)
H10 H 1.3755 0.7134 0.3361
C10 C 1.3476(7) 0.5598(8) 0.33451(18)
H11 H 1.4066 0.5430 0.3513
C11 C 1.2764(6) 0.4835(6) 0.31893(16)
H12 H 1.2865 0.4152 0.3260
C12 C 1.0228(6) 0.4461(5) 0.24960(14)
C13 C 1.0314(8) 0.4012(7) 0.21831(16)
H13 H 1.0980 0.3536 0.2142
C14 C 0.9451(11) 0.4248(11) 0.1932(2)
H14 H 0.9557 0.3954 0.1723
C15 C 0.8444(12) 0.4910(9) 0.1990(2)
H15 H 0.7837 0.5053 0.1824
C16 C 0.8326(8) 0.5367(7) 0.2296(2)
H16 H 0.7637 0.5823 0.2337
C17 C 0.9215(7) 0.5159(5) 0.25442(17)
H17 H 0.9135 0.5493 0.2748
O3 O 1.2079(4) 0.3388(4) 0.26539(11)
Si1 Si 1.3455(16) 0.351(2) 0.2446(6)
C18 C 1.481(3) 0.305(4) 0.2730(11)
H18 H 1.5635 0.3103 0.2617
H19 H 1.4821 0.3468 0.2926
H20 H 1.4654 0.2337 0.2790
C19 C 1.374(3) 0.484(3) 0.2272(15)
H21 H 1.4564 0.4850 0.2154
H22 H 1.3045 0.5016 0.2122
H23 H 1.3773 0.5334 0.2450
C20 C 1.339(6) 0.257(5) 0.2102(12)
H24 H 1.4178 0.2610 0.1974
H25 H 1.3298 0.1878 0.2191
H26 H 1.2646 0.2719 0.1963
O4 O 0.2250(4) 0.5413(4) 0.42574(12)
O5 O 0.1709(4) 0.6636(4) 0.47090(16)
C21 C 0.6893(5) 0.5721(4) 0.40629(13)
N2 N 0.6261(4) 0.5914(4) 0.43575(10)
N3 N 0.9226(5) 0.4057(3) 0.38297(11)
C22 C 0.4905(5) 0.5828(4) 0.43788(14)
H27 H 0.4484 0.5562 0.4192
C23 C 0.4135(5) 0.6080(5) 0.46334(15)
C24 C 0.4513(7) 0.6610(6) 0.4948(2)
H28 H 0.3756 0.6987 0.5031
H29 H 0.5191 0.7115 0.4899
C25 C 0.5006(8) 0.5906(9) 0.52211(19)
H30 H 0.5353 0.6340 0.5398
H31 H 0.4257 0.5537 0.5312
C26 C 0.6031(8) 0.5125(8) 0.51339(18)
H32 H 0.6044 0.4532 0.5266
C27 C 0.6947(7) 0.5160(6) 0.48884(15)
H33 H 0.7501 0.4589 0.4871
C28 C 0.7159(5) 0.6002(5) 0.46477(13)
H34 H 0.7015 0.6671 0.4758
C29 C 0.8522(5) 0.6005(5) 0.44812(12)
H35 H 0.8884 0.6700 0.4482
H36 H 0.9116 0.5553 0.4602
C30 C 0.8361(5) 0.5619(4) 0.41222(12)
C31 C 0.8655(6) 0.4458(5) 0.41011(14)
C32 C 0.9708(5) 0.4643(4) 0.35327(12)
H37 H 1.0665 0.4701 0.3550
C33 C 0.9139(5) 0.5736(4) 0.35340(12)
H38 H 0.9614 0.6161 0.3375
H39 H 0.8228 0.5709 0.3464
C34 C 0.9223(5) 0.6231(4) 0.38747(13)
H40 H 1.0128 0.6118 0.3949
C35 C 0.945(2) 0.2914(9) 0.3861(9)
H41 H 0.9310 0.2588 0.3647
H42 H 0.8813 0.2627 0.4016
C36 C 1.082(3) 0.2672(16) 0.3982(13)
H43 H 1.0883 0.2877 0.4214
H44 H 1.1434 0.3095 0.3858
C37 C 1.1247(19) 0.1542(16) 0.3954(5)
H45 H 1.1280 0.1345 0.3721
H46 H 1.0609 0.1102 0.4064
C38 C 1.2607(18) 0.1384(11) 0.4113(5)
H47 H 1.3258 0.1775 0.3990
H48 H 1.2595 0.1642 0.4340
C39 C 1.297(3) 0.0276(13) 0.4114(8)
C40 C 1.332(4) -0.0593(13) 0.4130(11)
C41 C 1.366(6) -0.163(2) 0.4215(17)
H49 H 1.4471 -0.1816 0.4108
H50 H 1.2979 -0.2093 0.4143
H51 H 1.3765 -0.1685 0.4452
O6 O 0.9537(17) 0.9057(17) 0.3881(8)
C42 C 1.002(3) 0.808(2) 0.3913(12)
H52 H 1.0891 0.7909 0.3953
C43 C 0.903(6) 0.7380(10) 0.388(3)
C44 C 0.787(4) 0.7976(15) 0.3824(12)
H53 H 0.7016 0.7721 0.3812
C45 C 0.8239(18) 0.8983(14) 0.3794(10)
C46 C 0.7673(18) 0.9968(16) 0.3734(8)
H54 H 0.7928 1.0427 0.3913
H55 H 0.8049 1.0243 0.3531
C47 C 0.632(2) 0.9999(15) 0.3705(9)
H56 H 0.5886 0.9553 0.3865
H57 H 0.6025 0.9821 0.3482
C48 C 0.608(3) 1.1273(12) 0.3791(9)
C49 C 0.574(4) 1.2165(18) 0.3796(19)
C50 C 0.536(3) 1.3165(17) 0.3861(13)
H58 H 0.5424 1.3571 0.3662
H59 H 0.5920 1.3456 0.4029
H60 H 0.4468 1.3169 0.3938
C51 C 0.2209(6) 0.4714(6) 0.48627(17)
C52 C 0.1245(8) 0.4785(7) 0.5097(2)
H61 H 0.0752 0.5389 0.5118
C53 C 0.1011(11) 0.3942(11) 0.5304(3)
H62 H 0.0309 0.3954 0.5452
C54 C 0.1800(14) 0.3112(11) 0.5289(3)
H63 H 0.1688 0.2584 0.5444
C55 C 0.2786(12) 0.3013(7) 0.5049(3)
H64 H 0.3301 0.2419 0.5035
C56 C 0.2958(9) 0.3836(6) 0.4835(2)
H65 H 0.3592 0.3795 0.4669
Si2? Si 1.3590(16) 0.322(2) 0.2527(6)
C57? C 1.449(3) 0.248(4) 0.2863(11)
H66? H 1.5386 0.2374 0.2796
H67? H 1.4478 0.2879 0.3066
H68? H 1.4073 0.1827 0.2899
C58? C 1.441(3) 0.447(3) 0.2407(14)
H69? H 1.5292 0.4328 0.2335
H70? H 1.3930 0.4789 0.2230
H71? H 1.4432 0.4925 0.2596
C59? C 1.352(6) 0.235(5) 0.2165(12)
H72? H 1.4395 0.2237 0.2083
H73? H 1.3137 0.1705 0.2229
H74? H 1.3000 0.2669 0.1994
C60? C 0.981(2) 0.2997(9) 0.3838(9)
H75? H 1.0011 0.2782 0.3612
H76? H 0.9175 0.2516 0.3928
C61? C 1.106(3) 0.2933(17) 0.4044(12)
H77? H 1.0933 0.3308 0.4251
H78? H 1.1771 0.3265 0.3924
C62? C 1.145(2) 0.1819(15) 0.4123(4)
H79? H 1.2056 0.1823 0.4308
H80? H 1.0668 0.1445 0.4194
C63? C 1.206(2) 0.1241(12) 0.3839(5)
H81? H 1.1413 0.1147 0.3665
H82? H 1.2773 0.1653 0.3749
C64? C 1.257(3) 0.0218(13) 0.3940(8)
C65? C 1.298(4) -0.0608(14) 0.4008(12)
C66? C 1.372(6) -0.152(2) 0.4085(18)
H83? H 1.3298 -0.2111 0.3990
H84? H 1.3776 -0.1597 0.4322
H85? H 1.4590 -0.1451 0.3994
O7? O 0.9020(17) 0.9081(17) 0.3916(8)
C67? C 0.964(3) 0.815(2) 0.3953(12)
H86? H 1.0492 0.8072 0.4033
C68? C 0.886(6) 0.7358(11) 0.386(3)
C69? C 0.767(4) 0.7871(15) 0.3748(13)
H87? H 0.6967 0.7552 0.3641
C70? C 0.7745(19) 0.8894(14) 0.3827(9)
C71? C 0.699(3) 0.9817(16) 0.3855(7)
H88? H 0.6064 0.9643 0.3847
H89? H 0.7165 1.0139 0.4069
C72? C 0.727(2) 1.0520(15) 0.3603(7)
H90? H 0.6953 1.0268 0.3390
H91? H 0.8211 1.0637 0.3586
C73? C 0.648(2) 1.1622(14) 0.3715(8)
C74? C 0.571(3) 1.2312(19) 0.376(2)
C75? C 0.496(3) 1.3193(18) 0.3769(12)
H92? H 0.4215 1.3083 0.3913
H93? H 0.4652 1.3352 0.3549
H94? H 0.5470 1.3760 0.3852
loop_
_geom_bond_atom_site_label_1
_geom_bond_atom_site_label_2
_geom_bond_site_symmetry_1
_geom_bond_site_symmetry_2
S1 O4 1_555 1_555
O1 C21 1_555 1_555
O2 C31 1_555 1_555
N1 C1 1_555 1_555
C1 H1 1_555 1_555
C2 C1 1_555 1_555
H2 C2 1_555 1_555
H3 C2 1_555 1_555
C3 C2 1_555 1_555
H4 C3 1_555 1_555
H5 C3 1_555 1_555
C4 N1 1_555 1_555
H6 C4 1_555 1_555
H7 C4 1_555 1_555
C5 C1 1_555 1_555
C6 C5 1_555 1_555
C7 C6 1_555 1_555
H8 C7 1_555 1_555
C8 C7 1_555 1_555
H9 C8 1_555 1_555
C9 C8 1_555 1_555
H10 C9 1_555 1_555
C10 C9 1_555 1_555
H11 C10 1_555 1_555
C11 C6 1_555 1_555
H12 C11 1_555 1_555
C12 C5 1_555 1_555
C13 C12 1_555 1_555
H13 C13 1_555 1_555
C14 C13 1_555 1_555
H14 C14 1_555 1_555
C15 C14 1_555 1_555
H15 C15 1_555 1_555
C16 C15 1_555 1_555
H16 C16 1_555 1_555
C17 C12 1_555 1_555
H17 C17 1_555 1_555
O3 C5 1_555 1_555
Si1 O3 1_555 1_555
C18 Si1 1_555 1_555
H18 C18 1_555 1_555
H19 C18 1_555 1_555
H20 C18 1_555 1_555
C19 Si1 1_555 1_555
H21 C19 1_555 1_555
H22 C19 1_555 1_555
H23 C19 1_555 1_555
C20 Si1 1_555 1_555
H24 C20 1_555 1_555
H25 C20 1_555 1_555
H26 C20 1_555 1_555
O5 S1 1_555 1_555
C21 N2 1_555 1_555
N2 C22 1_555 1_555
N3 C31 1_555 1_555
C22 H27 1_555 1_555
C23 S1 1_555 1_555
C24 C23 1_555 1_555
H28 C24 1_555 1_555
H29 C24 1_555 1_555
C25 C24 1_555 1_555
H30 C25 1_555 1_555
H31 C25 1_555 1_555
C26 C25 1_555 1_555
H32 C26 1_555 1_555
C27 C26 1_555 1_555
H33 C27 1_555 1_555
C28 N2 1_555 1_555
H34 C28 1_555 1_555
C29 C28 1_555 1_555
H35 C29 1_555 1_555
H36 C29 1_555 1_555
C30 C21 1_555 1_555
C31 C30 1_555 1_555
C32 N1 1_555 1_555
H37 C32 1_555 1_555
C33 C32 1_555 1_555
H38 C33 1_555 1_555
H39 C33 1_555 1_555
C34 C30 1_555 1_555
H40 C34 1_555 1_555
C35 N3 1_555 1_555
H41 C35 1_555 1_555
H42 C35 1_555 1_555
C36 C35 1_555 1_555
H43 C36 1_555 1_555
H44 C36 1_555 1_555
C37 C36 1_555 1_555
H45 C37 1_555 1_555
H46 C37 1_555 1_555
C38 C37 1_555 1_555
H47 C38 1_555 1_555
H48 C38 1_555 1_555
C39 C38 1_555 1_555
C40 C39 1_555 1_555
C41 C40 1_555 1_555
H49 C41 1_555 1_555
H50 C41 1_555 1_555
H51 C41 1_555 1_555
O6 C42 1_555 1_555
C42 H52 1_555 1_555
C43 C34 1_555 1_555
C44 C43 1_555 1_555
H53 C44 1_555 1_555
C45 O6 1_555 1_555
C46 C45 1_555 1_555
H54 C46 1_555 1_555
H55 C46 1_555 1_555
C47 C46 1_555 1_555
H56 C47 1_555 1_555
H57 C47 1_555 1_555
C48 C47 1_555 1_555
C49 C48 1_555 1_555
C50 C49 1_555 1_555
H58 C50 1_555 1_555
H59 C50 1_555 1_555
H60 C50 1_555 1_555
C51 S1 1_555 1_555
C52 C51 1_555 1_555
H61 C52 1_555 1_555
C53 C52 1_555 1_555
H62 C53 1_555 1_555
C54 C53 1_555 1_555
H63 C54 1_555 1_555
C55 C54 1_555 1_555
H64 C55 1_555 1_555
C56 C51 1_555 1_555
H65 C56 1_555 1_555
C3 C4 1_555 1_555
C10 C11 1_555 1_555
C16 C17 1_555 1_555
N3 C32 1_555 1_555
C22 C23 1_555 1_555
C27 C28 1_555 1_555
C29 C30 1_555 1_555
C33 C34 1_555 1_555
C42 C43 1_555 1_555
C44 C45 1_555 1_555
C55 C56 1_555 1_555

#END
