
#######################################################################
#
#                 Cambridge Crystallographic Data Centre
#                                CCDC 
#
#######################################################################
#
# If this CIF has been generated from an entry in the Cambridge 
# Structural Database, then it will include bibliographic, chemical, 
# crystal, experimental, refinement or atomic coordinate data resulting 
# from the CCDC's data processing and validation procedures.
#
#######################################################################

data_HAFSIS
_chemical_formula_moiety         'C12 H24 B3 N3'
_chemical_name_systematic        
Dodecahydrotris[1,2]azaborinino[1,2-a:1',2'-c:1'',2''-e][1,3,5,2,4,6]triazatriborinine
_symmetry_cell_setting           monoclinic
_symmetry_space_group_name_H-M   'C 2/c'
_symmetry_Int_Tables_number      15
_space_group_name_Hall           '-C 2yn'
loop_
_symmetry_equiv_pos_site_id
_symmetry_equiv_pos_as_xyz
1 x,y,z
2 -x,y,1/2-z
3 1/2+x,1/2+y,z
4 1/2-x,1/2+y,1/2-z
5 -x,-y,-z
6 x,-y,1/2+z
7 1/2-x,1/2-y,-z
8 1/2+x,1/2-y,1/2+z
_cell_length_a                   10.2172(15)
_cell_length_b                   17.694(3)
_cell_length_c                   15.240(2)
_cell_angle_alpha                90
_cell_angle_beta                 94.914(3)
_cell_angle_gamma                90
_cell_volume                     2745.01
_exptl_crystal_colour            colorless
_exptl_crystal_description       block
_cell_formula_units_Z            8
_exptl_crystal_recrystallization_method 'diethyl ether'
loop_
_atom_site_label
_atom_site_type_symbol
_atom_site_fract_x
_atom_site_fract_y
_atom_site_fract_z
N1 N 0.3492(2) 0.25899(12) 0.12659(13)
B1 B 0.4652(2) 0.21345(13) 0.12210(14)
N2 N 0.2142(2) 0.14269(13) 0.12721(14)
B2 B 0.3288(2) 0.09788(13) 0.12582(14)
N3 N 0.4556(2) 0.13357(13) 0.12186(14)
B3 B 0.2243(2) 0.22390(13) 0.12910(14)
C1 C 0.3616(3) 0.34505(15) 0.12905(18)
H1 H 0.4134 0.3597 0.1843
H2 H 0.4113 0.3614 0.0794
C2 C 0.2338(4) 0.3867(2) 0.1237(3)
H3 H 0.2493 0.4364 0.1527
H4 H 0.2068 0.3965 0.0608
C3 C 0.1292(4) 0.3524(2) 0.1605(4)
H5 H 0.0493 0.3828 0.1446
H6 H 0.1464 0.3543 0.2253
C4 C 0.1002(3) 0.27185(15) 0.13423(19)
H7 H 0.0490 0.2713 0.0761
H8 H 0.0452 0.2488 0.1774
C5 C 0.0786(3) 0.10561(17) 0.12797(19)
H9 H 0.0262 0.1344 0.1683
H10 H 0.0330 0.1091 0.0681
C6 C 0.0828(7) 0.0234(4) 0.1562(9)
H11 H 0.1127 0.0195 0.2196
H12 H -0.0060 0.0008 0.1469
C7 C 0.1755(8) -0.0176(5) 0.1027(8)
H13 H 0.1500 -0.0092 0.0393
H14 H 0.1709 -0.0725 0.1145
C8 C 0.3196(3) 0.01105(15) 0.12581(19)
H15 H 0.3522 -0.0082 0.1847
H16 H 0.3769 -0.0096 0.0824
C13 C 0.5769(3) 0.08441(17) 0.1161(2)
H25 H 0.5720 0.0422 0.1584
H26 H 0.5724 0.0620 0.0564
C14 C 0.7045(9) 0.1202(6) 0.1330(10)
H27 H 0.7748 0.0869 0.1143
H28 H 0.7227 0.1315 0.1965
C15 C 0.6973(10) 0.1903(7) 0.0812(12)
H29 H 0.6676 0.1781 0.0192
H30 H 0.7863 0.2125 0.0820
C16 C 0.5991(2) 0.25196(16) 0.11731(17)
H31 H 0.6334 0.2699 0.1764
H32 H 0.5905 0.2960 0.0771
B4? B 0.3492(2) 0.25899(12) 0.12659(13)
N4? N 0.4652(2) 0.21345(13) 0.12210(14)
B5? B 0.2142(2) 0.14269(13) 0.12721(14)
N5? N 0.3288(2) 0.09788(13) 0.12582(14)
B6? B 0.4556(2) 0.13357(13) 0.12186(14)
N6? N 0.2243(2) 0.22390(13) 0.12910(14)
C9? C 0.0786(3) 0.10561(17) 0.12797(19)
H17? H 0.0503 0.1075 0.1884
H18? H 0.0142 0.1345 0.0891
C10? C 0.0795(8) 0.0236(5) 0.0972(9)
H19? H 0.0943 0.0212 0.0339
H20? H -0.0057 -0.0008 0.1056
C11? C 0.1915(9) -0.0171(5) 0.1525(9)
H21? H 0.1850 -0.0071 0.2159
H22? H 0.1848 -0.0724 0.1427
C12? C 0.3196(3) 0.01105(15) 0.12581(19)
H23? H 0.3324 -0.0079 0.0660
H24? H 0.3914 -0.0096 0.1667
C17? C 0.5769(3) 0.08441(17) 0.1161(2)
H33? H 0.5538 0.0399 0.0785
H34? H 0.6079 0.0660 0.1756
C18? C 0.6899(4) 0.1302(3) 0.0765(5)
H35? H 0.7703 0.0989 0.0782
H36? H 0.6634 0.1430 0.0142
C19? C 0.7183(5) 0.2021(4) 0.1286(6)
H37? H 0.7389 0.1900 0.1917
H38? H 0.7948 0.2284 0.1071
C20? C 0.5991(2) 0.25196(16) 0.11731(17)
H39? H 0.5989 0.2775 0.0595
H40? H 0.6081 0.2917 0.1632
loop_
_geom_bond_atom_site_label_1
_geom_bond_atom_site_label_2
_geom_bond_site_symmetry_1
_geom_bond_site_symmetry_2
N1 B1 1_555 1_555
B1 N3 1_555 1_555
N2 B2 1_555 1_555
B2 N3 1_555 1_555
N3 C13 1_555 1_555
B3 N1 1_555 1_555
C1 N1 1_555 1_555
H1 C1 1_555 1_555
H2 C1 1_555 1_555
C2 C1 1_555 1_555
H3 C2 1_555 1_555
H4 C2 1_555 1_555
C3 C2 1_555 1_555
H5 C3 1_555 1_555
H6 C3 1_555 1_555
C4 B3 1_555 1_555
H7 C4 1_555 1_555
H8 C4 1_555 1_555
C5 N2 1_555 1_555
H9 C5 1_555 1_555
H10 C5 1_555 1_555
C6 C5 1_555 1_555
H11 C6 1_555 1_555
H12 C6 1_555 1_555
C7 C6 1_555 1_555
H13 C7 1_555 1_555
H14 C7 1_555 1_555
C8 B2 1_555 1_555
H15 C8 1_555 1_555
H16 C8 1_555 1_555
C13 H25 1_555 1_555
H26 C13 1_555 1_555
C14 C13 1_555 1_555
H27 C14 1_555 1_555
H28 C14 1_555 1_555
C15 C14 1_555 1_555
H29 C15 1_555 1_555
H30 C15 1_555 1_555
C16 B1 1_555 1_555
H31 C16 1_555 1_555
H32 C16 1_555 1_555
N2 B3 1_555 1_555
C3 C4 1_555 1_555
C7 C8 1_555 1_555
C15 C16 1_555 1_555

#END
