
#######################################################################
#
#                 Cambridge Crystallographic Data Centre
#                                CCDC 
#
#######################################################################
#
# If this CIF has been generated from an entry in the Cambridge 
# Structural Database, then it will include bibliographic, chemical, 
# crystal, experimental, refinement or atomic coordinate data resulting 
# from the CCDC's data processing and validation procedures.
#
#######################################################################

data_HAGCIB10
_chemical_formula_moiety         'C13 H23 Si1 1+,C24 B1 F20 1-,C7 H8'
_chemical_name_systematic        
'4-methyl-1-(triethylsilyl)benzenium tetrakis(pentafluorophenyl)borate toluene solvate'
_symmetry_cell_setting           triclinic
_symmetry_space_group_name_H-M   'P -1'
_symmetry_Int_Tables_number      2
_space_group_name_Hall           '-P 1'
loop_
_symmetry_equiv_pos_site_id
_symmetry_equiv_pos_as_xyz
1 x,y,z
2 -x,-y,-z
_cell_length_a                   13.168(4)
_cell_length_b                   17.593(3)
_cell_length_c                   18.177(4)
_cell_angle_alpha                86.19(2)
_cell_angle_beta                 84.21(2)
_cell_angle_gamma                82.24(2)
_cell_volume                     4145.15
_exptl_crystal_colour            colorless
_cell_formula_units_Z            4
loop_
_atom_site_label
_atom_site_type_symbol
_atom_site_fract_x
_atom_site_fract_y
_atom_site_fract_z
C1 C 0.354(1) 0.6323(6) 0.3712(6)
C2 C 0.2885(9) 0.5923(6) 0.4186(6)
C3 C 0.2199(9) 0.5497(7) 0.3914(7)
C4 C 0.2179(8) 0.5447(6) 0.3162(6)
C5 C 0.2840(9) 0.5822(7) 0.2668(6)
C6 C 0.3521(9) 0.6251(6) 0.2932(6)
C7 C 0.145(1) 0.4980(7) 0.2880(7)
H1 H 0.2904 0.5938 0.4708
H2 H 0.1741 0.5240 0.4250
H3 H 0.2827 0.5786 0.2148
H4 H 0.3982 0.6500 0.2591
H5 H 0.0767 0.5175 0.3048
H6 H 0.1533 0.5006 0.2352
H7 H 0.1598 0.4461 0.3059
H8 H 0.422(7) 0.659(5) 0.389(5)
Si1 Si 0.2643(2) 0.7464(2) 0.3808(2)
C8 C 0.271(1) 0.7620(7) 0.4802(6)
C9 C 0.379(1) 0.7487(7) 0.5065(7)
C10 C 0.346(1) 0.8062(7) 0.3177(7)
C11 C 0.319(1) 0.8913(8) 0.3361(7)
C12 C 0.1339(8) 0.7479(6) 0.3530(6)
C13 C 0.050(1) 0.7230(7) 0.4113(7)
H9 H 0.2422 0.8135 0.4890
H10 H 0.2301 0.7279 0.5089
H11 H 0.4092 0.6974 0.4982
H12 H 0.4206 0.7834 0.4795
H13 H 0.3752 0.7572 0.5580
H14 H 0.4164 0.7899 0.3241
H15 H 0.3339 0.8006 0.2677
H16 H 0.3302 0.8969 0.3863
H17 H 0.3612 0.9216 0.3042
H18 H 0.2486 0.9077 0.3291
H19 H 0.1113 0.7991 0.3361
H20 H 0.1387 0.7149 0.3129
H21 H 0.0411 0.7560 0.4515
H22 H -0.0133 0.7260 0.3893
H23 H 0.0695 0.6717 0.4291
Si2 Si 0.3950(3) -0.7675(2) 0.1460(2)
C14 C 0.520(1) -0.7354(7) 0.1150(6)
C15 C 0.608(1) -0.7969(7) 0.0861(7)
C16 C 0.402(1) -0.8474(8) 0.2187(8)
C17 C 0.441(1) -0.8219(9) 0.2880(9)
C18 C 0.289(1) -0.6888(7) 0.1663(6)
C19 C 0.297(1) -0.6110(7) 0.1272(7)
C20 C 0.362(1) -0.8257(8) 0.0507(8)
C21 C 0.367(1) -0.7661(8) -0.0003(7)
C22 C 0.283(1) -0.7226(7) -0.0257(7)
C23 C 0.186(1) -0.7422(8) 0.0019(7)
C24 C 0.179(1) -0.8025(8) 0.0512(8)
C25 C 0.261(1) -0.8468(8) 0.0773(7)
C26 C 0.091(1) -0.6947(9) -0.0240(9)
H24 H 0.5091 -0.6972 0.0759
H25 H 0.5424 -0.7132 0.1558
H26 H 0.6213 -0.8353 0.1245
H27 H 0.5876 -0.8197 0.0447
H28 H 0.6679 -0.7734 0.0715
H29 H 0.3359 -0.8626 0.2306
H30 H 0.4484 -0.8896 0.2002
H31 H 0.4457 -0.8636 0.3240
H32 H 0.5064 -0.8055 0.2759
H33 H 0.3937 -0.7806 0.3074
H34 H 0.2271 -0.7052 0.1534
H35 H 0.2831 -0.6821 0.2182
H36 H 0.3580 -0.5928 0.1392
H37 H 0.3005 -0.6154 0.0750
H38 H 0.2389 -0.5759 0.1428
H39 H 0.4336 -0.7540 -0.0194
H40 H 0.2902 -0.6806 -0.0608
H41 H 0.1123 -0.8147 0.0686
H42 H 0.2536 -0.8895 0.1113
H43 H 0.0497 -0.6732 0.0176
H44 H 0.1101 -0.6545 -0.0580
H45 H 0.0526 -0.7264 -0.0477
H46 H 0.414(6) -0.864(4) 0.068(4)
F1 F 0.9499(4) 0.1399(3) 0.1184(3)
F2 F 0.8841(5) 0.2843(3) 0.0843(3)
F3 F 0.7380(5) 0.3666(3) 0.1752(4)
F4 F 0.6643(5) 0.2992(3) 0.3063(4)
F5 F 0.7325(5) 0.1532(3) 0.3427(3)
F6 F 0.8204(4) 0.0239(3) 0.1209(3)
F7 F 0.9163(5) -0.0662(3) 0.0171(3)
F8 F 1.1043(6) -0.1456(4) 0.0356(4)
F9 F 1.1936(6) -0.1317(4) 0.1629(4)
F10 F 1.1009(5) -0.0440(3) 0.2665(3)
F11 F 1.0778(4) 0.1165(3) 0.2361(3)
F12 F 1.1840(5) 0.1690(4) 0.3331(4)
F13 F 1.1220(5) 0.1590(4) 0.4816(3)
F14 F 0.9495(5) 0.0911(3) 0.5291(3)
F15 F 0.8460(4) 0.0361(3) 0.4341(3)
F16 F 0.6577(4) 0.0711(3) 0.2371(3)
F17 F 0.5268(5) -0.0265(3) 0.2800(4)
F18 F 0.5869(5) -0.1605(3) 0.3589(3)
F19 F 0.7864(5) -0.1937(3) 0.3903(3)
F20 F 0.9205(4) -0.0945(3) 0.3481(3)
C27 C 0.8414(8) 0.1381(6) 0.2321(5)
C28 C 0.8774(8) 0.1748(6) 0.1675(6)
C29 C 0.8422(8) 0.2522(6) 0.1485(6)
C30 C 0.7723(9) 0.2927(7) 0.1944(6)
C31 C 0.7336(9) 0.2596(7) 0.2594(6)
C32 C 0.7706(8) 0.1827(6) 0.2765(6)
C33 C 0.9555(8) -0.0016(6) 0.1984(5)
C34 C 0.9140(8) -0.0132(6) 0.1340(6)
C35 C 0.9636(9) -0.0598(6) 0.0793(6)
C36 C 1.058(1) -0.0993(7) 0.0885(7)
C37 C 1.101(1) -0.0921(7) 0.1515(7)
C38 C 1.0505(8) -0.0453(6) 0.2053(6)
C39 C 0.9564(8) 0.0721(6) 0.3290(6)
C40 C 1.0416(8) 0.1069(6) 0.3084(6)
C41 C 1.0994(9) 0.1362(6) 0.3583(6)
C42 C 1.0684(8) 0.1307(6) 0.4328(6)
C43 C 0.9823(8) 0.0975(6) 0.4559(6)
C44 C 0.9301(8) 0.0679(6) 0.4050(6)
C45 C 0.7973(7) -0.0045(5) 0.2933(5)
C46 C 0.6955(8) 0.0067(6) 0.2772(6)
C47 C 0.6256(9) -0.0437(6) 0.2975(6)
C48 C 0.6546(8) -0.1110(6) 0.3373(6)
C49 C 0.7546(8) -0.1265(6) 0.3543(6)
C50 C 0.8220(8) -0.0744(6) 0.3307(6)
B1 B 0.889(1) 0.0492(7) 0.2632(7)
F21 F 0.8084(4) 0.4263(3) 0.4044(3)
F22 F 0.9318(5) 0.3018(3) 0.3647(4)
F23 F 1.0376(5) 0.2973(4) 0.2276(4)
F24 F 1.0140(5) 0.4243(4) 0.1316(4)
F25 F 0.8913(5) 0.5476(3) 0.1688(3)
F26 F 0.5778(4) 0.6718(3) 0.2502(3)
F27 F 0.5918(5) 0.8054(3) 0.1784(3)
F28 F 0.7758(5) 0.8612(3) 0.1508(3)
F29 F 0.9478(5) 0.7777(4) 0.2015(4)
F30 F 0.9360(4) 0.6427(3) 0.2760(3)
F31 F 0.6741(4) 0.5363(3) 0.1817(3)
F32 F 0.5223(5) 0.4557(3) 0.1652(3)
F33 F 0.4119(5) 0.3975(3) 0.2867(4)
F34 F 0.4587(5) 0.4234(3) 0.4241(3)
F35 F 0.6078(4) 0.5038(3) 0.4430(3)
F36 F 0.5987(4) 0.6637(3) 0.4050(3)
F37 F 0.6146(5) 0.7234(3) 0.5334(3)
F38 F 0.7901(5) 0.6916(3) 0.6034(3)
F39 F 0.9538(5) 0.6008(3) 0.5372(3)
F40 F 0.9419(4) 0.5421(3) 0.4092(3)
C51 C 0.8436(8) 0.4964(6) 0.2892(6)
C52 C 0.8580(8) 0.4299(6) 0.3360(6)
C53 C 0.9229(9) 0.3634(7) 0.3166(6)
C54 C 0.975(1) 0.3620(7) 0.2478(7)
C55 C 0.9628(9) 0.4242(6) 0.2002(6)
C56 C 0.8973(8) 0.4902(6) 0.2214(6)
C57 C 0.7570(8) 0.6477(6) 0.2657(5)
C58 C 0.6729(8) 0.6942(6) 0.2394(6)
C59 C 0.6783(9) 0.7653(6) 0.2026(6)
C60 C 0.7695(9) 0.7923(6) 0.1896(6)
C61 C 0.8551(9) 0.7510(6) 0.2135(6)
C62 C 0.8485(9) 0.6804(6) 0.2517(6)
C63 C 0.6495(7) 0.5265(5) 0.3124(5)
C64 C 0.6208(8) 0.5113(6) 0.2454(6)
C65 C 0.5432(8) 0.4684(6) 0.2353(6)
C66 C 0.4877(8) 0.4402(6) 0.2954(6)
C67 C 0.5116(8) 0.4536(6) 0.3638(6)
C68 C 0.5909(8) 0.4956(5) 0.3711(6)
C69 C 0.7684(8) 0.5964(6) 0.4011(6)
C70 C 0.6890(8) 0.6461(6) 0.4363(6)
C71 C 0.6961(8) 0.6777(6) 0.5030(6)
C72 C 0.7830(8) 0.6632(6) 0.5373(6)
C73 C 0.8639(9) 0.6163(6) 0.5055(6)
C74 C 0.8565(9) 0.5865(6) 0.4376(6)
B2 B 0.755(1) 0.5663(7) 0.3181(7)
C75 C 0.620(1) -0.5689(8) -0.0401(8)
C76 C 0.555(1) -0.609(1) -0.0734(8)
C77 C 0.593(1) -0.678(1) -0.1023(8)
C78 C 0.692(1) -0.7027(9) -0.0971(8)
C79 C 0.762(1) -0.665(1) -0.0682(9)
C80 C 0.721(1) -0.5939(8) -0.0336(7)
C81 C 0.792(1) -0.550(1) 0.0004(9)
H47 H 0.5913 -0.5210 -0.0206
H48 H 0.4852 -0.5892 -0.0763
H49 H 0.5501 -0.7171 -0.1251
H50 H 0.7172 -0.7518 -0.1154
H51 H 0.8336 -0.6847 -0.0706
H52 H 0.8581 -0.5788 -0.0004
H53 H 0.7960 -0.5024 -0.0271
H54 H 0.7658 -0.5406 0.0502
C82? C 0.441(1) 0.013(1) 0.941(1)
C83? C 0.397(1) -0.020(1) 1.001(1)
C84? C 0.537(2) 0.035(1) 0.936(1)
C85? C 0.609(3) 0.057(2) 0.902(2)
C86? C 0.416(1) -0.038(1) 0.516(1)
C87? C 0.402(1) 0.039(1) 0.483(1)
C88? C 0.505(2) -0.075(1) 0.533(1)
C89? C 0.329(2) 0.073(1) 0.460(1)
loop_
_geom_bond_atom_site_label_1
_geom_bond_atom_site_label_2
_geom_bond_site_symmetry_1
_geom_bond_site_symmetry_2
C1 C2 1_555 1_555
C2 C3 1_555 1_555
C3 C4 1_555 1_555
C4 C5 1_555 1_555
C5 C6 1_555 1_555
C6 C1 1_555 1_555
C7 C4 1_555 1_555
H1 C2 1_555 1_555
H2 C3 1_555 1_555
H3 C5 1_555 1_555
H4 C6 1_555 1_555
H5 C7 1_555 1_555
H6 C7 1_555 1_555
H7 C7 1_555 1_555
H8 C1 1_555 1_555
Si1 C1 1_555 1_555
C8 Si1 1_555 1_555
C9 C8 1_555 1_555
C10 Si1 1_555 1_555
C11 C10 1_555 1_555
C12 Si1 1_555 1_555
C13 C12 1_555 1_555
H9 C8 1_555 1_555
H10 C8 1_555 1_555
H11 C9 1_555 1_555
H12 C9 1_555 1_555
H13 C9 1_555 1_555
H14 C10 1_555 1_555
H15 C10 1_555 1_555
H16 C11 1_555 1_555
H17 C11 1_555 1_555
H18 C11 1_555 1_555
H19 C12 1_555 1_555
H20 C12 1_555 1_555
H21 C13 1_555 1_555
H22 C13 1_555 1_555
H23 C13 1_555 1_555
Si2 C14 1_555 1_555
C14 C15 1_555 1_555
C15 H26 1_555 1_555
C16 Si2 1_555 1_555
C17 C16 1_555 1_555
C18 Si2 1_555 1_555
C19 C18 1_555 1_555
C20 Si2 1_555 1_555
C21 C20 1_555 1_555
C22 C21 1_555 1_555
C23 C22 1_555 1_555
C24 C23 1_555 1_555
C25 C20 1_555 1_555
C26 C23 1_555 1_555
H24 C14 1_555 1_555
H25 C14 1_555 1_555
H27 C15 1_555 1_555
H28 C15 1_555 1_555
H29 C16 1_555 1_555
H30 C16 1_555 1_555
H31 C17 1_555 1_555
H32 C17 1_555 1_555
H33 C17 1_555 1_555
H34 C18 1_555 1_555
H35 C18 1_555 1_555
H36 C19 1_555 1_555
H37 C19 1_555 1_555
H38 C19 1_555 1_555
H39 C21 1_555 1_555
H40 C22 1_555 1_555
H41 C24 1_555 1_555
H42 C25 1_555 1_555
H43 C26 1_555 1_555
H44 C26 1_555 1_555
H45 C26 1_555 1_555
H46 C20 1_555 1_555
F1 C28 1_555 1_555
F2 C29 1_555 1_555
F3 C30 1_555 1_555
F4 C31 1_555 1_555
F5 C32 1_555 1_555
F6 C34 1_555 1_555
F7 C35 1_555 1_555
F8 C36 1_555 1_555
F9 C37 1_555 1_555
F10 C38 1_555 1_555
F11 C40 1_555 1_555
F12 C41 1_555 1_555
F13 C42 1_555 1_555
F14 C43 1_555 1_555
F15 C44 1_555 1_555
F16 C46 1_555 1_555
F17 C47 1_555 1_555
F18 C48 1_555 1_555
F19 C49 1_555 1_555
F20 C50 1_555 1_555
C27 C28 1_555 1_555
C28 C29 1_555 1_555
C29 C30 1_555 1_555
C30 C31 1_555 1_555
C31 C32 1_555 1_555
C32 C27 1_555 1_555
C33 C34 1_555 1_555
C34 C35 1_555 1_555
C35 C36 1_555 1_555
C36 C37 1_555 1_555
C37 C38 1_555 1_555
C38 C33 1_555 1_555
C39 C40 1_555 1_555
C40 C41 1_555 1_555
C41 C42 1_555 1_555
C42 C43 1_555 1_555
C43 C44 1_555 1_555
C44 C39 1_555 1_555
C45 C46 1_555 1_555
C46 C47 1_555 1_555
C47 C48 1_555 1_555
C48 C49 1_555 1_555
C49 C50 1_555 1_555
C50 C45 1_555 1_555
B1 C27 1_555 1_555
F21 C52 1_555 1_555
F22 C53 1_555 1_555
F23 C54 1_555 1_555
F24 C55 1_555 1_555
F25 C56 1_555 1_555
F26 C58 1_555 1_555
F27 C59 1_555 1_555
F28 C60 1_555 1_555
F29 C61 1_555 1_555
F30 C62 1_555 1_555
F31 C64 1_555 1_555
F32 C65 1_555 1_555
F33 C66 1_555 1_555
F34 C67 1_555 1_555
F35 C68 1_555 1_555
F36 C70 1_555 1_555
F37 C71 1_555 1_555
F38 C72 1_555 1_555
F39 C73 1_555 1_555
F40 C74 1_555 1_555
C51 C52 1_555 1_555
C52 C53 1_555 1_555
C53 C54 1_555 1_555
C54 C55 1_555 1_555
C55 C56 1_555 1_555
C56 C51 1_555 1_555
C57 C58 1_555 1_555
C58 C59 1_555 1_555
C59 C60 1_555 1_555
C60 C61 1_555 1_555
C61 C62 1_555 1_555
C62 C57 1_555 1_555
C63 C64 1_555 1_555
C64 C65 1_555 1_555
C65 C66 1_555 1_555
C66 C67 1_555 1_555
C67 C68 1_555 1_555
C68 C63 1_555 1_555
C69 C70 1_555 1_555
C70 C71 1_555 1_555
C71 C72 1_555 1_555
C72 C73 1_555 1_555
C73 C74 1_555 1_555
C74 C69 1_555 1_555
B2 C51 1_555 1_555
C75 C76 1_555 1_555
C76 C77 1_555 1_555
C77 C78 1_555 1_555
C78 C79 1_555 1_555
C79 C80 1_555 1_555
C80 C75 1_555 1_555
C81 C80 1_555 1_555
H47 C75 1_555 1_555
H48 C76 1_555 1_555
H49 C77 1_555 1_555
H50 C78 1_555 1_555
H51 C79 1_555 1_555
H52 C81 1_555 1_555
H53 C81 1_555 1_555
H54 C81 1_555 1_555
C24 C25 1_555 1_555
C33 B1 1_555 1_555
C39 B1 1_555 1_555
C45 B1 1_555 1_555
C57 B2 1_555 1_555
C63 B2 1_555 1_555
C69 B2 1_555 1_555

#END
