
#######################################################################
#
#                 Cambridge Crystallographic Data Centre
#                                CCDC 
#
#######################################################################
#
# If this CIF has been generated from an entry in the Cambridge 
# Structural Database, then it will include bibliographic, chemical, 
# crystal, experimental, refinement or atomic coordinate data resulting 
# from the CCDC's data processing and validation procedures.
#
#######################################################################

data_HAGCAW
_chemical_formula_moiety         'C19 H19 O2 P1'
_chemical_name_systematic        
'6-(3-ethylpenta-1,2-dien-1-yl)-6H-dibenzo[c,e][1,2]oxaphosphinine 6-oxide'
_symmetry_cell_setting           monoclinic
_symmetry_space_group_name_H-M   'P 21/c'
_symmetry_Int_Tables_number      14
_space_group_name_Hall           '-P 2ybc'
loop_
_symmetry_equiv_pos_site_id
_symmetry_equiv_pos_as_xyz
1 x,y,z
2 -x,1/2+y,1/2-z
3 -x,-y,-z
4 x,1/2-y,1/2+z
_cell_length_a                   9.9932(6)
_cell_length_b                   9.8674(7)
_cell_length_c                   16.4688(9)
_cell_angle_alpha                90
_cell_angle_beta                 92.8680(10)
_cell_angle_gamma                90
_cell_volume                     1621.9
_exptl_crystal_colour            colorless
_exptl_crystal_description       block
_cell_formula_units_Z            4
loop_
_atom_site_label
_atom_site_type_symbol
_atom_site_fract_x
_atom_site_fract_y
_atom_site_fract_z
P1 P 0.98515(6) 0.75901(6) 0.20468(3)
O1 O 0.93462(16) 0.61347(16) 0.17337(9)
C1 C 1.0619(2) 0.8269(2) 0.11848(12)
C2 C 1.0238(2) 0.7784(2) 0.04050(12)
C3 C 0.9210(2) 0.6712(2) 0.02922(12)
O2 O 1.07313(17) 0.74736(18) 0.27839(9)
C4 C 0.8802(2) 0.5936(2) 0.09423(13)
C5 C 1.1578(2) 0.9281(2) 0.12869(14)
H1 H 1.1824 0.9593 0.1806
C6 C 1.2169(2) 0.9829(3) 0.06177(14)
H2 H 1.2808 1.0510 0.0685
C7 C 1.0864(2) 0.8349(2) -0.02609(13)
H3 H 1.0641 0.8036 -0.0783
C8 C 0.8612(2) 0.6401(2) -0.04741(14)
H4 H 0.8851 0.6897 -0.0925
C9 C 1.1802(2) 0.9356(2) -0.01493(14)
H5 H 1.2196 0.9726 -0.0598
C10 C 0.8372(2) 0.8572(3) 0.21921(13)
C11 C 0.7881(3) 0.4894(3) 0.08473(16)
H6 H 0.7643 0.4384 0.1292
C12 C 0.7164(2) 0.8019(3) 0.21451(14)
C13 C 0.7323(3) 0.4625(3) 0.00840(17)
H7 H 0.6701 0.3929 0.0011
C14 C 0.7682(3) 0.5382(3) -0.05740(16)
H8 H 0.7293 0.5203 -0.1087
C15 C 0.6000(3) 0.7435(3) 0.21144(16)
C16 C 0.5109(3) 0.7330(3) 0.13446(18)
H9 H 0.5038 0.6384 0.1190
H10 H 0.4218 0.7639 0.1463
C17 C 0.5476(3) 0.6738(5) 0.2865(2)
H11 H 0.5289 0.5797 0.2732
H12 H 0.6178 0.6750 0.3294
C18 C 0.5574(3) 0.8123(3) 0.06317(17)
H13 H 0.5556 0.9073 0.0755
H14 H 0.4992 0.7943 0.0163
H15 H 0.6472 0.7858 0.0522
C19 C 0.4297(4) 0.7329(5) 0.3171(2)
H16 H 0.4475 0.8254 0.3321
H17 H 0.4039 0.6831 0.3639
H18 H 0.3585 0.7298 0.2758
loop_
_geom_bond_atom_site_label_1
_geom_bond_atom_site_label_2
_geom_bond_site_symmetry_1
_geom_bond_site_symmetry_2
P1 O1 1_555 1_555
O1 C4 1_555 1_555
C1 P1 1_555 1_555
C2 C1 1_555 1_555
C3 C2 1_555 1_555
O2 P1 1_555 1_555
C4 C3 1_555 1_555
C5 C1 1_555 1_555
H1 C5 1_555 1_555
C6 C5 1_555 1_555
H2 C6 1_555 1_555
C7 C2 1_555 1_555
H3 C7 1_555 1_555
C8 C3 1_555 1_555
H4 C8 1_555 1_555
C9 C6 1_555 1_555
H5 C9 1_555 1_555
C10 P1 1_555 1_555
C11 C4 1_555 1_555
H6 C11 1_555 1_555
C12 C10 1_555 1_555
C13 C11 1_555 1_555
H7 C13 1_555 1_555
C14 C8 1_555 1_555
H8 C14 1_555 1_555
C15 C12 1_555 1_555
C16 C15 1_555 1_555
H9 C16 1_555 1_555
H10 C16 1_555 1_555
C17 C15 1_555 1_555
H11 C17 1_555 1_555
H12 C17 1_555 1_555
C18 C16 1_555 1_555
H13 C18 1_555 1_555
H14 C18 1_555 1_555
H15 C18 1_555 1_555
C19 C17 1_555 1_555
H16 C19 1_555 1_555
H17 C19 1_555 1_555
H18 C19 1_555 1_555
C7 C9 1_555 1_555
C13 C14 1_555 1_555

#END
