
#######################################################################
#
#                 Cambridge Crystallographic Data Centre
#                                CCDC 
#
#######################################################################
#
# If this CIF has been generated from an entry in the Cambridge 
# Structural Database, then it will include bibliographic, chemical, 
# crystal, experimental, refinement or atomic coordinate data resulting 
# from the CCDC's data processing and validation procedures.
#
#######################################################################

data_HAGGIG
_chemical_name_common            
8-Methyl-1,6b,11-triazabenzo(a)fluorene-5,6-dione
_chemical_formula_moiety         'C15 H9 N3 O2'
_chemical_name_systematic        
9-Methyl-5H-pyrido(2',1':2,3)imidazo(4,5-h)quinoline-5,6-dione
_chemical_properties_biological  
'antitumour activity against human cell lines A549, SK-OV-3, SK-mel-2, XF498 and HCT15'
_symmetry_cell_setting           monoclinic
_symmetry_space_group_name_H-M   'P 21/n'
_symmetry_Int_Tables_number      14
_space_group_name_Hall           '-P 2yn'
loop_
_symmetry_equiv_pos_site_id
_symmetry_equiv_pos_as_xyz
1 x,y,z
2 1/2+x,1/2-y,1/2+z
3 -x,-y,-z
4 1/2-x,1/2+y,1/2-z
_cell_length_a                   13.0706(5)
_cell_length_b                   12.6820(5)
_cell_length_c                   13.9852(5)
_cell_angle_alpha                90.00
_cell_angle_beta                 90.109
_cell_angle_gamma                90.00
_cell_volume                     2318.2
_exptl_crystal_colour            red
_exptl_crystal_description       block
_cell_formula_units_Z            8
_exptl_crystal_recrystallization_method 'dichloromethane/petroleum ether'
loop_
_atom_site_label
_atom_site_type_symbol
_atom_site_fract_x
_atom_site_fract_y
_atom_site_fract_z
C1 C -0.14390(16) 0.11775(13) -0.01340(16)
H1 H -0.1404 0.1167 -0.0812
C2 C -0.23809(14) 0.11881(12) 0.03235(14)
C3 C -0.23914(15) 0.12060(11) 0.13321(14)
N1 N -0.15435(12) 0.11910(10) 0.18699(12)
C4 C -0.06500(15) 0.11773(13) 0.13943(15)
H2 H -0.0039 0.1164 0.1762
C5 C -0.05541(17) 0.11819(13) 0.04033(15)
H3 H 0.0100 0.1188 0.0107
C6 C -0.33326(17) 0.11802(13) -0.02552(13)
C7 C -0.43788(15) 0.11755(12) 0.02607(13)
C8 C -0.42981(14) 0.11987(11) 0.12732(13)
C9 C -0.33903(15) 0.12352(11) 0.18121(12)
N2 N -0.50776(12) 0.12482(10) 0.19378(12)
C10 C -0.46125(15) 0.13202(12) 0.28261(13)
N3 N -0.35763(13) 0.13138(11) 0.27510(11)
C11 C -0.61219(15) 0.12447(12) 0.18167(17)
H4 H -0.6412 0.1194 0.1196
C12 C -0.67354(17) 0.13158(14) 0.26085(16)
C13 C -0.62807(17) 0.13871(14) 0.35283(16)
H5 H -0.6707 0.1433 0.4077
C14 C -0.52415(16) 0.13909(13) 0.36388(14)
H6 H -0.4948 0.1441 0.4258
O1 O -0.33191(13) 0.11673(11) -0.11252(10)
O2 O -0.51788(12) 0.11731(10) -0.01996(10)
C15 C -0.78858(17) 0.13226(19) 0.2488(2)
H7 H -0.8057 0.1199 0.1815
H8 H -0.8158 0.2008 0.2688
H9 H -0.8188 0.0765 0.2883
C16 C 0.35958(15) 0.12999(12) -0.20248(16)
H10 H 0.3544 0.1284 -0.1288
C17 C 0.26469(14) 0.12739(11) -0.24808(13)
C18 C 0.26239(15) 0.12395(12) -0.34855(14)
N4 N 0.34759(13) 0.12047(10) -0.40290(11)
C19 C 0.43696(16) 0.12124(12) -0.35688(16)
H11 H 0.4977 0.1182 -0.3941
C20 C 0.44715(16) 0.12624(13) -0.25769(15)
H12 H 0.5129 0.1270 -0.2287
C21 C 0.16995(16) 0.12757(12) -0.18920(13)
C22 C 0.06495(15) 0.11983(12) -0.24038(13)
C23 C 0.07298(14) 0.12312(11) -0.34179(13)
C24 C 0.16226(15) 0.12555(11) -0.39568(12)
N5 N -0.00652(12) 0.12613(9) -0.40788(11)
C25 C 0.03926(14) 0.13037(12) -0.49695(12)
N6 N 0.14345(12) 0.13082(10) -0.49102(11)
C26 C -0.11070(14) 0.12686(12) -0.39500(15)
H13 H -0.1391 0.1249 -0.3325
C27 C -0.17254(16) 0.13044(12) -0.47302(14)
C28 C -0.12889(15) 0.13465(13) -0.56558(14)
H14 H -0.1724 0.1374 -0.6200
C29 C -0.02387(15) 0.13480(12) -0.57804(14)
H15 H 0.0050 0.1378 -0.6403
O3 O 0.17087(12) 0.13286(10) -0.10228(9)
O4 O -0.01422(11) 0.11279(10) -0.19452(10)
C30 C -0.28743(15) 0.12973(16) -0.46086(18)
H16 H -0.3168 0.1913 -0.4930
H17 H -0.3043 0.1322 -0.3926
H18 H -0.3156 0.0652 -0.4891
loop_
_geom_bond_atom_site_label_1
_geom_bond_atom_site_label_2
_geom_bond_site_symmetry_1
_geom_bond_site_symmetry_2
C1 H1 1_555 1_555
C2 C1 1_555 1_555
C3 C2 1_555 1_555
N1 C3 1_555 1_555
C4 N1 1_555 1_555
H2 C4 1_555 1_555
C5 C1 1_555 1_555
H3 C5 1_555 1_555
C6 C2 1_555 1_555
C7 C6 1_555 1_555
C8 C7 1_555 1_555
C9 C3 1_555 1_555
N2 C8 1_555 1_555
C10 N2 1_555 1_555
N3 C9 1_555 1_555
C11 N2 1_555 1_555
H4 C11 1_555 1_555
C12 C11 1_555 1_555
C13 C12 1_555 1_555
H5 C13 1_555 1_555
C14 C10 1_555 1_555
H6 C14 1_555 1_555
O1 C6 1_555 1_555
O2 C7 1_555 1_555
C15 C12 1_555 1_555
H7 C15 1_555 1_555
H8 C15 1_555 1_555
H9 C15 1_555 1_555
C16 H10 1_555 1_555
C17 C16 1_555 1_555
C18 C17 1_555 1_555
N4 C18 1_555 1_555
C19 N4 1_555 1_555
H11 C19 1_555 1_555
C20 C16 1_555 1_555
H12 C20 1_555 1_555
C21 C17 1_555 1_555
C22 C21 1_555 1_555
C23 C22 1_555 1_555
C24 C18 1_555 1_555
N5 C23 1_555 1_555
C25 N5 1_555 1_555
N6 C24 1_555 1_555
C26 N5 1_555 1_555
H13 C26 1_555 1_555
C27 C26 1_555 1_555
C28 C27 1_555 1_555
H14 C28 1_555 1_555
C29 C25 1_555 1_555
H15 C29 1_555 1_555
O3 C21 1_555 1_555
O4 C22 1_555 1_555
C30 C27 1_555 1_555
H16 C30 1_555 1_555
H17 C30 1_555 1_555
H18 C30 1_555 1_555
C4 C5 1_555 1_555
C8 C9 1_555 1_555
C10 N3 1_555 1_555
C13 C14 1_555 1_555
C19 C20 1_555 1_555
C23 C24 1_555 1_555
C25 N6 1_555 1_555
C28 C29 1_555 1_555

#END
