
#######################################################################
#
#                 Cambridge Crystallographic Data Centre
#                                CCDC 
#
#######################################################################
#
# If this CIF has been generated from an entry in the Cambridge 
# Structural Database, then it will include bibliographic, chemical, 
# crystal, experimental, refinement or atomic coordinate data resulting 
# from the CCDC's data processing and validation procedures.
#
#######################################################################

data_HAGMOS01
_chemical_formula_moiety         'C49 H74 O36,4(H2 O1)'
_chemical_name_systematic        
'6-O-(4-formylphenyl)-\b-D-cyclodextrin tetrahydrate'
_symmetry_cell_setting           orthorhombic
_symmetry_space_group_name_H-M   'P 21 21 21'
_symmetry_Int_Tables_number      19
_space_group_name_Hall           'P 2ac 2ab'
loop_
_symmetry_equiv_pos_site_id
_symmetry_equiv_pos_as_xyz
1 x,y,z
2 1/2-x,-y,1/2+z
3 -x,1/2+y,1/2-z
4 1/2+x,1/2-y,-z
_cell_length_a                   13.204(5)
_cell_length_b                   19.146(7)
_cell_length_c                   28.835(12)
_cell_angle_alpha                90
_cell_angle_beta                 90
_cell_angle_gamma                90
_cell_volume                     7289.6
_cell_formula_units_Z            4
loop_
_atom_site_label
_atom_site_type_symbol
_atom_site_fract_x
_atom_site_fract_y
_atom_site_fract_z
C1 C 0.2018(11) -0.6094(8) -0.0708(5)
H1 H 0.1865 -0.5927 -0.1022
C2 C 0.2077(10) -0.5658(7) 0.1105(5)
H2 H 0.1698 -0.5250 0.0995
C3 C 0.3492(13) -0.7263(7) 0.2489(4)
H3 H 0.3268 -0.6856 0.2668
C4 C 0.4845(11) -0.9812(6) 0.2281(4)
H4 H 0.4981 -0.9753 0.2613
C5 C 0.449(2) -1.1434(9) 0.0769(6)
H5 H 0.4590 -1.1795 0.1005
C6 C 0.3514(11) -1.0830(7) -0.0949(4)
H6 H 0.3641 -1.1333 -0.0973
C7 C 0.1987(10) -0.8470(7) -0.1630(5)
H7 H 0.1792 -0.8768 -0.1891
C8 C 0.2891(11) -0.5652(8) -0.0514(5)
H8 H 0.2709 -0.5156 -0.0523
O1 O 0.3762(9) -0.5788(6) -0.0832(4)
H9 H 0.3590 -0.6067 -0.1032
C9 C 0.2994(10) -0.5408(6) 0.1389(5)
H10 H 0.2750 -0.5123 0.1648
O2 O 0.3621(7) -0.4978(5) 0.1094(3)
H11 H 0.3659 -0.5156 0.0836
C10 C 0.4560(13) -0.7371(7) 0.2583(5)
H12 H 0.4645 -0.7444 0.2917
O3 O 0.5115(8) -0.6788(4) 0.2455(3)
H13 H 0.5586 -0.6734 0.2637
C11 C 0.5808(11) -1.0032(7) 0.2039(5)
H14 H 0.6078 -1.0455 0.2185
O4 O 0.6531(8) -0.9467(6) 0.2086(4)
H15 H 0.6247 -0.9123 0.2194
C12 C 0.5286(17) -1.1519(11) 0.0409(6)
H16 H 0.5258 -1.1992 0.0279
O5 O 0.6236(12) -1.1395(7) 0.0595(4)
H17 H 0.6191 -1.1101 0.0800
C13 C 0.4138(12) -1.0436(7) -0.1319(5)
H18 H 0.3999 -1.0639 -0.1624
O6 O 0.5231(7) -1.0555(5) -0.1200(3)
H19 H 0.5520 -1.0733 -0.1422
C14 C 0.2627(12) -0.7817(8) -0.1802(5)
H20 H 0.2216 -0.7545 -0.2020
O7 O 0.3525(8) -0.8077(5) -0.2045(4)
H21 H 0.3718 -0.8440 -0.1922
C15 C 0.3109(11) -0.5865(8) -0.0033(5)
H22 H 0.3310 -0.6358 -0.0028
O8 O 0.3925(8) -0.5439(6) 0.0162(3)
H23 H 0.4470 -0.5633 0.0117
C16 C 0.3532(8) -0.6035(7) 0.1580(4)
H24 H 0.3833 -0.6303 0.1325
O9 O 0.4340(6) -0.5763(4) 0.1884(3)
H25 H 0.4711 -0.5504 0.1734
C17 C 0.4895(10) -0.8038(6) 0.2329(4)
H26 H 0.4859 -0.7942 0.1995
O10 O 0.5939(8) -0.8198(5) 0.2438(4)
H27 H 0.6087 -0.8580 0.2328
C18 C 0.5601(11) -1.0170(8) 0.1531(5)
H28 H 0.5388 -0.9737 0.1378
O11 O 0.6552(8) -1.0407(6) 0.1337(4)
H29 H 0.6440 -1.0688 0.1128
C19 C 0.5053(14) -1.0965(9) 0.0018(5)
H30 H 0.5111 -1.0491 0.0143
O12 O 0.5807(9) -1.1077(7) -0.0343(4)
H31 H 0.5602 -1.0912 -0.0588
C20 C 0.3948(11) -0.9670(7) -0.1339(5)
H32 H 0.4184 -0.9455 -0.1050
O13 O 0.4444(7) -0.9358(5) -0.1711(3)
H33 H 0.4144 -0.9000 -0.1785
C21 C 0.2904(12) -0.7363(7) -0.1403(5)
H34 H 0.3356 -0.7614 -0.1191
O14 O 0.3393(8) -0.6771(6) -0.1582(4)
H35 H 0.3499 -0.6492 -0.1372
C22 C 0.2191(10) -0.5767(8) 0.0264(5)
H36 H 0.1999 -0.5274 0.0284
O15 O 0.2431(7) -0.6049(4) 0.0712(3)
C23 C 0.2818(10) -0.6500(7) 0.1857(5)
H37 H 0.2579 -0.6249 0.2132
O16 O 0.3382(6) -0.7096(4) 0.1996(3)
C24 C 0.4233(10) -0.8624(7) 0.2423(4)
H38 H 0.4351 -0.8789 0.2740
O17 O 0.4475(7) -0.9183(4) 0.2098(3)
C25 C 0.4774(12) -1.0713(7) 0.1491(5)
H39 H 0.5017 -1.1166 0.1604
O18 O 0.4554(9) -1.0750(5) 0.0996(3)
C26 C 0.4047(15) -1.1081(7) -0.0158(5)
H40 H 0.3999 -1.1553 -0.0289
O19 O 0.3824(7) -1.0583(4) -0.0504(3)
C27 C 0.2777(11) -0.9554(7) -0.1386(4)
H41 H 0.2553 -0.9683 -0.1699
O20 O 0.2621(7) -0.8841(5) -0.1313(3)
C28 C 0.1929(11) -0.7155(7) -0.1151(4)
H42 H 0.1516 -0.6846 -0.1346
O21 O 0.2272(7) -0.6791(4) -0.0737(3)
C29 C 0.1318(12) -0.6217(8) 0.0063(5)
H43 H 0.1508 -0.6712 0.0065
O22 O 0.1159(8) -0.5970(6) -0.0426(4)
C30 C 0.1929(9) -0.6710(8) 0.1562(5)
H44 H 0.2169 -0.7007 0.1308
O23 O 0.1421(6) -0.6092(5) 0.1365(3)
C31 C 0.3127(12) -0.8447(7) 0.2366(6)
H45 H 0.2994 -0.8373 0.2035
O24 O 0.2867(8) -0.7827(5) 0.2607(3)
C32 C 0.3854(11) -1.0504(7) 0.1744(5)
H46 H 0.3599 -1.0074 0.1601
O25 O 0.4101(7) -1.0348(4) 0.2220(3)
C33 C 0.3233(12) -1.0989(9) 0.0235(5)
H47 H 0.3262 -1.0513 0.0360
O26 O 0.3448(12) -1.1494(6) 0.0601(4)
C34 C 0.2193(11) -0.9974(7) -0.1027(5)
H48 H 0.2391 -0.9795 -0.0721
O27 O 0.2476(7) -1.0686(5) -0.1041(3)
C35 C 0.1332(10) -0.7783(8) -0.1003(5)
H49 H 0.1765 -0.8050 -0.0791
O28 O 0.1130(7) -0.8224(5) -0.1393(3)
C36 C 0.0337(13) -0.6117(12) 0.0310(7)
H50 H -0.0181 -0.6049 0.0076
H51 H 0.0386 -0.5683 0.0483
O29 O 0.0023(12) -0.6574(9) 0.0582(6)
H52 H 0.0321 -0.6539 0.0831
C37 C 0.1196(13) -0.7118(12) 0.1853(9)
O30 O 0.0394(15) -0.7382(12) 0.1470(8)
H53 H 0.0390 -0.7109 0.1251
C38 C 0.2405(14) -0.9008(9) 0.2542(8)
H54 H 0.2512 -0.9067 0.2872
H55 H 0.2577 -0.9447 0.2393
O32 O 0.1409(9) -0.8880(8) 0.2469(8)
H56 H 0.1071 -0.9197 0.2580
C39 C 0.3019(12) -1.1019(7) 0.1743(5)
H57 H 0.2773 -1.1081 0.1428
H58 H 0.2463 -1.0844 0.1930
O33 O 0.3336(9) -1.1647(6) 0.1915(4)
H59 H 0.3801 -1.1584 0.2098
C40 C 0.2176(17) -1.1171(11) 0.0110(6)
H60 H 0.1926 -1.0811 -0.0098
H61 H 0.1772 -1.1147 0.0390
O34 O 0.2002(17) -1.1776(11) -0.0086(6)
H62 H 0.1394 -1.1815 -0.0139
C41 C 0.1057(12) -0.9931(8) -0.1053(5)
H63 H 0.0830 -0.9456 -0.0998
H64 H 0.0749 -1.0235 -0.0824
O35 O 0.0791(7) -1.0151(5) -0.1512(3)
H65 H 0.0367 -0.9883 -0.1619
C42 C 0.0370(12) -0.7666(8) -0.0763(5)
H66 H 0.0493 -0.7502 -0.0449
H67 H -0.0011 -0.8099 -0.0745
O36 O -0.0195(7) -0.7151(5) -0.1019(3)
C43 C -0.1052(11) -0.6897(7) -0.0836(5)
C44 C -0.1506(13) -0.7121(8) -0.0409(5)
H68 H -0.1201 -0.7459 -0.0225
C45 C -0.2369(13) -0.6830(10) -0.0288(6)
H69 H -0.2705 -0.7021 -0.0034
C46 C -0.2816(11) -0.6273(9) -0.0502(6)
C47 C -0.2324(15) -0.6025(11) -0.0910(6)
H70 H -0.2578 -0.5634 -0.1062
C48 C -0.1506(13) -0.6347(8) -0.1077(5)
H71 H -0.1233 -0.6202 -0.1358
C49 C -0.3726(16) -0.5887(12) -0.0343(7)
H72 H -0.3968 -0.5514 -0.0518
O37 O -0.4178(9) -0.6060(7) 0.0028(5)
O38 O 0.562(3) -0.3324(14) 0.1328(11)
O39 O 0.6295(15) -1.1117(14) -0.1883(6)
O40 O 0.679(2) -0.2663(14) 0.0977(9)
O31? O 0.081(3) -0.669(2) 0.2199(17)
loop_
_geom_bond_atom_site_label_1
_geom_bond_atom_site_label_2
_geom_bond_site_symmetry_1
_geom_bond_site_symmetry_2
C1 H1 1_555 1_555
C2 H2 1_555 1_555
C3 H3 1_555 1_555
C4 H4 1_555 1_555
C5 H5 1_555 1_555
C6 H6 1_555 1_555
C7 H7 1_555 1_555
C8 C1 1_555 1_555
H8 C8 1_555 1_555
O1 C8 1_555 1_555
H9 O1 1_555 1_555
C9 C2 1_555 1_555
H10 C9 1_555 1_555
O2 C9 1_555 1_555
H11 O2 1_555 1_555
C10 C3 1_555 1_555
H12 C10 1_555 1_555
O3 C10 1_555 1_555
H13 O3 1_555 1_555
C11 C4 1_555 1_555
H14 C11 1_555 1_555
O4 C11 1_555 1_555
H15 O4 1_555 1_555
C12 C5 1_555 1_555
H16 C12 1_555 1_555
O5 C12 1_555 1_555
H17 O5 1_555 1_555
C13 C6 1_555 1_555
H18 C13 1_555 1_555
O6 C13 1_555 1_555
H19 O6 1_555 1_555
C14 C7 1_555 1_555
H20 C14 1_555 1_555
O7 C14 1_555 1_555
H21 O7 1_555 1_555
C15 C8 1_555 1_555
H22 C15 1_555 1_555
O8 C15 1_555 1_555
H23 O8 1_555 1_555
C16 C9 1_555 1_555
H24 C16 1_555 1_555
O9 C16 1_555 1_555
H25 O9 1_555 1_555
C17 C10 1_555 1_555
H26 C17 1_555 1_555
O10 C17 1_555 1_555
H27 O10 1_555 1_555
C18 C11 1_555 1_555
H28 C18 1_555 1_555
O11 C18 1_555 1_555
H29 O11 1_555 1_555
C19 C12 1_555 1_555
H30 C19 1_555 1_555
O12 C19 1_555 1_555
H31 O12 1_555 1_555
C20 C13 1_555 1_555
H32 C20 1_555 1_555
O13 C20 1_555 1_555
H33 O13 1_555 1_555
C21 C14 1_555 1_555
H34 C21 1_555 1_555
O14 C21 1_555 1_555
H35 O14 1_555 1_555
C22 C15 1_555 1_555
H36 C22 1_555 1_555
O15 C2 1_555 1_555
C23 C16 1_555 1_555
H37 C23 1_555 1_555
O16 C3 1_555 1_555
C24 C17 1_555 1_555
H38 C24 1_555 1_555
O17 C4 1_555 1_555
C25 C18 1_555 1_555
H39 C25 1_555 1_555
O18 C5 1_555 1_555
C26 C19 1_555 1_555
H40 C26 1_555 1_555
O19 C6 1_555 1_555
C27 C20 1_555 1_555
H41 C27 1_555 1_555
O20 C7 1_555 1_555
C28 C21 1_555 1_555
H42 C28 1_555 1_555
O21 C1 1_555 1_555
C29 C22 1_555 1_555
H43 C29 1_555 1_555
O22 C1 1_555 1_555
C30 C23 1_555 1_555
H44 C30 1_555 1_555
O23 C2 1_555 1_555
C31 C24 1_555 1_555
H45 C31 1_555 1_555
O24 C3 1_555 1_555
C32 C25 1_555 1_555
H46 C32 1_555 1_555
O25 C4 1_555 1_555
C33 C26 1_555 1_555
H47 C33 1_555 1_555
O26 C5 1_555 1_555
C34 C27 1_555 1_555
H48 C34 1_555 1_555
O27 C6 1_555 1_555
C35 C28 1_555 1_555
H49 C35 1_555 1_555
O28 C7 1_555 1_555
C36 C29 1_555 1_555
H50 C36 1_555 1_555
H51 C36 1_555 1_555
O29 C36 1_555 1_555
H52 O29 1_555 1_555
C37 C30 1_555 1_555
O30 C37 1_555 1_555
H53 O30 1_555 1_555
C38 C31 1_555 1_555
H54 C38 1_555 1_555
H55 C38 1_555 1_555
O32 C38 1_555 1_555
H56 O32 1_555 1_555
C39 C32 1_555 1_555
H57 C39 1_555 1_555
H58 C39 1_555 1_555
O33 C39 1_555 1_555
H59 O33 1_555 1_555
C40 C33 1_555 1_555
H60 C40 1_555 1_555
H61 C40 1_555 1_555
O34 C40 1_555 1_555
H62 O34 1_555 1_555
C41 C34 1_555 1_555
H63 C41 1_555 1_555
H64 C41 1_555 1_555
O35 C41 1_555 1_555
H65 O35 1_555 1_555
C42 C35 1_555 1_555
H66 C42 1_555 1_555
H67 C42 1_555 1_555
O36 C42 1_555 1_555
C43 O36 1_555 1_555
C44 C43 1_555 1_555
H68 C44 1_555 1_555
C45 C44 1_555 1_555
H69 C45 1_555 1_555
C46 C45 1_555 1_555
C47 C46 1_555 1_555
H70 C47 1_555 1_555
C48 C43 1_555 1_555
H71 C48 1_555 1_555
C49 C46 1_555 1_555
H72 C49 1_555 1_555
O37 C49 1_555 1_555
C22 O15 1_555 1_555
C23 O16 1_555 1_555
C24 O17 1_555 1_555
C25 O18 1_555 1_555
C26 O19 1_555 1_555
C27 O20 1_555 1_555
C28 O21 1_555 1_555
C29 O22 1_555 1_555
C30 O23 1_555 1_555
C31 O24 1_555 1_555
C32 O25 1_555 1_555
C33 O26 1_555 1_555
C34 O27 1_555 1_555
C35 O28 1_555 1_555
C47 C48 1_555 1_555

#END
