
#######################################################################
#
#                 Cambridge Crystallographic Data Centre
#                                CCDC 
#
#######################################################################
#
# If this CIF has been generated from an entry in the Cambridge 
# Structural Database, then it will include bibliographic, chemical, 
# crystal, experimental, refinement or atomic coordinate data resulting 
# from the CCDC's data processing and validation procedures.
#
#######################################################################

data_HAGPAG
_chemical_formula_moiety         'C17 H12 Br2 N2 O1 S1'
_chemical_name_systematic        
2-Acetylmethylidene-3-(2,4-dibromophenyl)-5-phenyl-2,3-dihydro-1,3,4-thiadiazole
_symmetry_cell_setting           triclinic
_symmetry_space_group_name_H-M   'P -1'
_symmetry_Int_Tables_number      2
_space_group_name_Hall           '-P 1'
loop_
_symmetry_equiv_pos_site_id
_symmetry_equiv_pos_as_xyz
1 x,y,z
2 -x,-y,-z
_cell_length_a                   12.937(2)
_cell_length_b                   13.429(2)
_cell_length_c                   13.489(2)
_cell_angle_alpha                60.14(1)
_cell_angle_beta                 74.59(1)
_cell_angle_gamma                58.70(1)
_cell_volume                     1736.48
_cell_formula_units_Z            4
loop_
_atom_site_label
_atom_site_type_symbol
_atom_site_fract_x
_atom_site_fract_y
_atom_site_fract_z
Br1 Br 0.10616(7) 0.07036(7) 0.43421(7)
Br2 Br 0.49743(8) -0.22301(7) 0.73461(7)
S1 S -0.0484(1) 0.5090(1) 0.3037(1)
O1 O -0.2023(4) 0.5443(4) 0.4759(4)
N1 N 0.1690(4) 0.3349(4) 0.2895(4)
N2 N 0.1352(4) 0.2973(4) 0.4044(4)
C1 C 0.0946(5) 0.5086(5) 0.1022(5)
C2 C -0.0017(6) 0.6194(6) 0.0348(6)
C3 C 0.0116(7) 0.6757(7) -0.0803(7)
C4 C 0.1220(8) 0.6190(7) -0.1329(6)
C5 C 0.2160(7) 0.5103(7) -0.0679(6)
C6 C 0.2046(6) 0.4549(6) 0.0506(6)
C7 C 0.0817(5) 0.4440(5) 0.2265(5)
C8 C 0.2187(5) 0.1760(5) 0.4830(5)
C9 C 0.2200(6) 0.0619(6) 0.5039(5)
C10 C 0.3042(6) -0.0566(6) 0.5782(5)
C11 C 0.3836(5) -0.0607(6) 0.6323(5)
C12 C 0.3812(6) 0.0523(7) 0.6130(6)
C13 C 0.2987(6) 0.1697(6) 0.5383(6)
C14 C 0.0244(5) 0.3744(5) 0.4320(5)
C15 C -0.0250(5) 0.3554(6) 0.5381(5)
C16 C -0.1380(6) 0.4438(6) 0.5569(6)
C17 C -0.1859(6) 0.4168(7) 0.6774(6)
H1 H -0.0876 0.6612 0.0742
H2 H -0.0626 0.7643 -0.1320
H3 H 0.1312 0.6623 -0.2249
H4 H 0.3002 0.4663 -0.1081
H5 H 0.2810 0.3704 0.1024
H6 H 0.3076 -0.1452 0.5935
H7 H 0.4438 0.0477 0.6564
H8 H 0.2965 0.2578 0.5228
H9 H 0.0259 0.2678 0.6106
H10 H -0.1197 0.3463 0.7441
H11 H -0.2491 0.3830 0.6861
H12 H -0.2344 0.5078 0.6833
Br3 Br 0.39394(7) 0.61055(7) 0.06589(7)
Br4 Br 0.00260(8) 1.00916(8) -0.23459(7)
S2 S 0.5488(1) 0.7643(2) 0.1959(1)
O2 O 0.7039(4) 0.8168(4) 0.0259(4)
N3 N 0.3317(4) 0.7929(5) 0.2114(4)
N4 N 0.3645(4) 0.8365(5) 0.0970(4)
C18 C 0.4063(5) 0.7056(5) 0.3967(5)
C19 C 0.5013(6) 0.6532(6) 0.4644(6)
C20 C 0.4868(8) 0.6072(7) 0.5811(7)
C21 C 0.3799(8) 0.6080(7) 0.6324(6)
C22 C 0.2846(7) 0.6611(7) 0.5651(6)
C23 C 0.2934(6) 0.7119(6) 0.4484(6)
C24 C 0.4180(5) 0.7534(5) 0.2727(5)
C25 C 0.2821(5) 0.8779(6) 0.0156(5)
C26 C 0.2790(6) 0.7878(6) -0.0049(5)
C27 C 0.1971(6) 0.8265(6) -0.0813(5)
C28 C 0.1171(6) 0.9544(6) -0.1314(5)
C29 C 0.1192(6) 1.0450(6) -0.1139(6)
C30 C 0.2004(6) 1.0070(6) -0.0408(6)
C31 C 0.4769(5) 0.8303(6) 0.0690(6)
C32 C 0.5254(6) 0.8685(6) -0.0381(6)
C33 C 0.6387(6) 0.8624(6) -0.0561(6)
C34 C 0.6848(6) 0.9093(7) -0.1785(6)
H13 H 0.5875 0.6481 0.4257
H14 H 0.5608 0.5699 0.6330
H15 H 0.3706 0.5677 0.7244
H16 H 0.2001 0.6626 0.6057
H17 H 0.2167 0.7555 0.3970
H18 H 0.1969 0.7573 -0.1003
H19 H 0.0564 1.1463 -0.1581
H20 H 0.2015 1.0786 -0.0263
H21 H 0.4743 0.9044 -0.1105
H22 H 0.6064 0.9590 -0.2303
H23 H 0.7549 0.8305 -0.1980
H24 H 0.7172 0.9765 -0.1972
loop_
_geom_bond_atom_site_label_1
_geom_bond_atom_site_label_2
_geom_bond_site_symmetry_1
_geom_bond_site_symmetry_2
Br1 C9 1_555 1_555
Br2 C11 1_555 1_555
S1 C7 1_555 1_555
O1 C16 1_555 1_555
N1 N2 1_555 1_555
N2 C8 1_555 1_555
C1 C2 1_555 1_555
C2 C3 1_555 1_555
C3 C4 1_555 1_555
C4 C5 1_555 1_555
C5 C6 1_555 1_555
C6 C1 1_555 1_555
C7 N1 1_555 1_555
C8 C9 1_555 1_555
C9 C10 1_555 1_555
C10 C11 1_555 1_555
C11 C12 1_555 1_555
C12 C13 1_555 1_555
C13 C8 1_555 1_555
C14 S1 1_555 1_555
C15 C14 1_555 1_555
C16 C15 1_555 1_555
C17 C16 1_555 1_555
H1 C2 1_555 1_555
H2 C3 1_555 1_555
H3 C4 1_555 1_555
H4 C5 1_555 1_555
H5 C6 1_555 1_555
H6 C10 1_555 1_555
H7 C12 1_555 1_555
H8 C13 1_555 1_555
H9 C15 1_555 1_555
H10 C17 1_555 1_555
H11 C17 1_555 1_555
H12 C17 1_555 1_555
Br3 C26 1_555 1_555
Br4 C28 1_555 1_555
S2 C24 1_555 1_555
O2 C33 1_555 1_555
N3 N4 1_555 1_555
N4 C25 1_555 1_555
C18 C19 1_555 1_555
C19 C20 1_555 1_555
C20 C21 1_555 1_555
C21 C22 1_555 1_555
C22 C23 1_555 1_555
C23 C18 1_555 1_555
C24 N3 1_555 1_555
C25 C26 1_555 1_555
C26 C27 1_555 1_555
C27 C28 1_555 1_555
C28 C29 1_555 1_555
C29 C30 1_555 1_555
C30 C25 1_555 1_555
C31 S2 1_555 1_555
C32 C31 1_555 1_555
C33 C32 1_555 1_555
C34 C33 1_555 1_555
H13 C19 1_555 1_555
H14 C20 1_555 1_555
H15 C21 1_555 1_555
H16 C22 1_555 1_555
H17 C23 1_555 1_555
H18 C27 1_555 1_555
H19 C29 1_555 1_555
H20 C30 1_555 1_555
H21 C32 1_555 1_555
H22 C34 1_555 1_555
H23 C34 1_555 1_555
H24 C34 1_555 1_555
N2 C14 1_555 1_555
C1 C7 1_555 1_555
N4 C31 1_555 1_555
C18 C24 1_555 1_555

#END
