
#######################################################################
#
#                 Cambridge Crystallographic Data Centre
#                                CCDC 
#
#######################################################################
#
# If this CIF has been generated from an entry in the Cambridge 
# Structural Database, then it will include bibliographic, chemical, 
# crystal, experimental, refinement or atomic coordinate data resulting 
# from the CCDC's data processing and validation procedures.
#
#######################################################################

data_HAGVUJ
_chemical_formula_moiety         'C11 H11 B1 F2 N2 S1'
_chemical_name_systematic        
(2-((ethylsulfanyl)(2H-pyrrol-2-ylidene)methyl)-1H-pyrrolato)(difluoro)boron
_symmetry_cell_setting           orthorhombic
_symmetry_space_group_name_H-M   'P c a 21'
_symmetry_Int_Tables_number      29
_space_group_name_Hall           'P 2c -2ac'
loop_
_symmetry_equiv_pos_site_id
_symmetry_equiv_pos_as_xyz
1 x,y,z
2 -x,-y,1/2+z
3 1/2+x,-y,z
4 1/2-x,y,1/2+z
_cell_length_a                   7.7827(18)
_cell_length_b                   18.960(4)
_cell_length_c                   15.678(4)
_cell_angle_alpha                90
_cell_angle_beta                 90
_cell_angle_gamma                90
_cell_volume                     2313.45
_cell_formula_units_Z            8
loop_
_atom_site_label
_atom_site_type_symbol
_atom_site_fract_x
_atom_site_fract_y
_atom_site_fract_z
S1 S 0.5163(4) 0.45981(16) 0.5500(2)
C1 C 0.5400(14) 0.5902(7) 0.5049(7)
C2 C 0.6908(16) 0.4507(7) 0.3488(9)
H1 H 0.6836 0.4045 0.3681
C3 C 0.6355(15) 0.5103(7) 0.3941(9)
C4 C 0.5680(14) 0.5217(6) 0.4757(8)
C5 C 0.5459(15) 0.3732(6) 0.5079(8)
H2 H 0.4793 0.3664 0.4562
H3 H 0.6661 0.3640 0.4957
C6 C 0.5307(19) 0.7045(8) 0.4973(14)
H4 H 0.5362 0.7504 0.4766
C7 C 0.480(2) 0.3260(6) 0.5802(10)
H5 H 0.5527 0.3316 0.6293
H6 H 0.4823 0.2776 0.5620
H7 H 0.3648 0.3392 0.5945
C8 C 0.4813(14) 0.6138(7) 0.5832(10)
H8 H 0.4497 0.5859 0.6294
C9 C 0.740(2) 0.5424(10) 0.2690(10)
H9 H 0.7728 0.5703 0.2230
C10 C 0.756(2) 0.4710(9) 0.2722(10)
H10 H 0.8031 0.4419 0.2304
C11 C 0.478(2) 0.6861(9) 0.5799(12)
H11 H 0.4476 0.7167 0.6237
N1 N 0.5708(13) 0.6481(6) 0.4532(8)
N2 N 0.6713(13) 0.5668(6) 0.3406(8)
B1 B 0.631(2) 0.6432(10) 0.3594(11)
F1 F 0.5002(11) 0.6698(5) 0.3064(5)
F2 F 0.7751(12) 0.6861(4) 0.3481(6)
S2 S 0.2393(5) 1.04061(17) 0.2573(2)
C12 C 0.2013(13) 0.9106(6) 0.3140(8)
C13 C 0.1769(15) 0.9835(6) 0.3376(9)
C14 C 0.008(2) 1.0496(8) 0.5369(11)
H12 H -0.0279 1.0819 0.5780
C15 C 0.259(3) 1.1770(6) 0.2098(10)
H13 H 0.3790 1.1710 0.1986
H14 H 0.2353 1.2258 0.2214
H15 H 0.1935 1.1622 0.1610
C16 C 0.2075(16) 1.1323(6) 0.2874(8)
H16 H 0.0882 1.1406 0.3023
H17 H 0.2786 1.1442 0.3362
C17 C 0.2585(14) 0.8806(7) 0.2378(8)
H18 H 0.2902 0.9038 0.1880
C18 C 0.1121(17) 1.0016(6) 0.4172(9)
C19 C 0.0031(19) 0.9765(9) 0.5445(11)
H19 H -0.0382 0.9520 0.5916
C20 C 0.0743(15) 1.0656(7) 0.4582(9)
H20 H 0.0912 1.1106 0.4361
C21 C 0.258(2) 0.8079(7) 0.2530(14)
H21 H 0.2936 0.7738 0.2143
C22 C 0.197(2) 0.7941(8) 0.3327(11)
H22 H 0.1810 0.7498 0.3568
N3 N 0.0672(12) 0.9465(6) 0.4735(7)
N4 N 0.1624(12) 0.8577(5) 0.3708(6)
B2 B 0.0887(19) 0.8658(9) 0.4590(11)
F3 F 0.1972(10) 0.8389(4) 0.5202(5)
F4 F -0.0710(8) 0.8328(4) 0.4670(5)
loop_
_geom_bond_atom_site_label_1
_geom_bond_atom_site_label_2
_geom_bond_site_symmetry_1
_geom_bond_site_symmetry_2
S1 C4 1_555 1_555
C1 C4 1_555 1_555
C2 H1 1_555 1_555
C3 C2 1_555 1_555
C4 C3 1_555 1_555
C5 S1 1_555 1_555
H2 C5 1_555 1_555
H3 C5 1_555 1_555
C6 H4 1_555 1_555
C7 C5 1_555 1_555
H5 C7 1_555 1_555
H6 C7 1_555 1_555
H7 C7 1_555 1_555
C8 C1 1_555 1_555
H8 C8 1_555 1_555
C9 H9 1_555 1_555
C10 C2 1_555 1_555
H10 C10 1_555 1_555
C11 C6 1_555 1_555
H11 C11 1_555 1_555
N1 C1 1_555 1_555
N2 C3 1_555 1_555
B1 N1 1_555 1_555
F1 B1 1_555 1_555
F2 B1 1_555 1_555
S2 C13 1_555 1_555
C12 C13 1_555 1_555
C13 C18 1_555 1_555
C14 H12 1_555 1_555
C15 H13 1_555 1_555
H14 C15 1_555 1_555
H15 C15 1_555 1_555
C16 S2 1_555 1_555
H16 C16 1_555 1_555
H17 C16 1_555 1_555
C17 C12 1_555 1_555
H18 C17 1_555 1_555
C18 C20 1_555 1_555
C19 C14 1_555 1_555
H19 C19 1_555 1_555
C20 C14 1_555 1_555
H20 C20 1_555 1_555
C21 C17 1_555 1_555
H21 C21 1_555 1_555
C22 C21 1_555 1_555
H22 C22 1_555 1_555
N3 C18 1_555 1_555
N4 C12 1_555 1_555
B2 N3 1_555 1_555
F3 B2 1_555 1_555
F4 B2 1_555 1_555
C6 N1 1_555 1_555
C8 C11 1_555 1_555
C9 C10 1_555 1_555
C9 N2 1_555 1_555
N2 B1 1_555 1_555
C15 C16 1_555 1_555
C19 N3 1_555 1_555
C22 N4 1_555 1_555
N4 B2 1_555 1_555

#END
