
#######################################################################
#
#                 Cambridge Crystallographic Data Centre
#                                CCDC 
#
#######################################################################
#
# If this CIF has been generated from an entry in the Cambridge 
# Structural Database, then it will include bibliographic, chemical, 
# crystal, experimental, refinement or atomic coordinate data resulting 
# from the CCDC's data processing and validation procedures.
#
#######################################################################

data_HAGWAQ
_chemical_formula_moiety         'C12 H13 B1 F2 N2 S1'
_chemical_name_systematic        
difluoro(2-((propylsulfanyl)(2H-pyrrol-2-ylidene)methyl)-1H-pyrrolato)boron
_symmetry_cell_setting           orthorhombic
_symmetry_space_group_name_H-M   'P n a 21'
_symmetry_Int_Tables_number      33
_space_group_name_Hall           'P 2c -2n'
loop_
_symmetry_equiv_pos_site_id
_symmetry_equiv_pos_as_xyz
1 x,y,z
2 -x,-y,1/2+z
3 1/2+x,1/2-y,z
4 1/2-x,1/2+y,1/2+z
_cell_length_a                   7.8029(4)
_cell_length_b                   20.2322(11)
_cell_length_c                   7.9100(5)
_cell_angle_alpha                90
_cell_angle_beta                 90
_cell_angle_gamma                90
_cell_volume                     1248.75
_cell_formula_units_Z            4
loop_
_atom_site_label
_atom_site_type_symbol
_atom_site_fract_x
_atom_site_fract_y
_atom_site_fract_z
S1 S 0.58800(17) 0.29054(5) 0.31794(14)
F1 F 0.5781(4) 0.09509(13) -0.1890(4)
F2 F 0.3081(3) 0.08763(12) -0.0909(4)
N1 N 0.5288(4) 0.11553(15) 0.1075(5)
N2 N 0.4363(4) 0.19535(17) -0.1082(4)
B1 B 0.4627(6) 0.1206(2) -0.0744(6)
C1 C 0.5638(6) 0.0595(2) 0.1947(7)
H1 H 0.5556 0.0169 0.1511
C2 C 0.6129(6) 0.0746(2) 0.3566(6)
H2 H 0.6437 0.0447 0.4404
C3 C 0.6082(5) 0.1426(2) 0.3720(6)
H3 H 0.6342 0.1670 0.4684
C4 C 0.5572(5) 0.16794(19) 0.2158(5)
C5 C 0.5347(5) 0.23450(17) 0.1623(5)
C6 C 0.4745(5) 0.24809(17) -0.0012(4)
C7 C 0.4362(6) 0.3065(2) -0.0908(6)
H4 H 0.4499 0.3494 -0.0510
C8 C 0.3756(7) 0.2890(2) -0.2455(7)
H5 H 0.3395 0.3176 -0.3304
C9 C 0.3778(6) 0.2205(2) -0.2531(6)
H6 H 0.3433 0.1956 -0.3460
C10 C 0.5554(6) 0.3741(2) 0.2464(6)
H7 H 0.6253 0.3830 0.1477
H8 H 0.4361 0.3811 0.2170
C11 C 0.6071(7) 0.4189(2) 0.3919(8)
H9 H 0.7257 0.4104 0.4216
H10 H 0.5369 0.4090 0.4899
C12 C 0.5859(8) 0.4913(2) 0.3451(9)
H11 H 0.6559 0.5013 0.2486
H12 H 0.6205 0.5185 0.4386
H13 H 0.4680 0.5000 0.3186
loop_
_geom_bond_atom_site_label_1
_geom_bond_atom_site_label_2
_geom_bond_site_symmetry_1
_geom_bond_site_symmetry_2
S1 C5 1_555 1_555
F1 B1 1_555 1_555
F2 B1 1_555 1_555
N1 B1 1_555 1_555
N2 B1 1_555 1_555
C1 N1 1_555 1_555
H1 C1 1_555 1_555
C2 C1 1_555 1_555
H2 C2 1_555 1_555
C3 C2 1_555 1_555
H3 C3 1_555 1_555
C4 N1 1_555 1_555
C5 C4 1_555 1_555
C6 N2 1_555 1_555
C7 C6 1_555 1_555
H4 C7 1_555 1_555
C8 C7 1_555 1_555
H5 C8 1_555 1_555
C9 N2 1_555 1_555
H6 C9 1_555 1_555
C10 S1 1_555 1_555
H7 C10 1_555 1_555
H8 C10 1_555 1_555
C11 C10 1_555 1_555
H9 C11 1_555 1_555
H10 C11 1_555 1_555
C12 C11 1_555 1_555
H11 C12 1_555 1_555
H12 C12 1_555 1_555
H13 C12 1_555 1_555
C3 C4 1_555 1_555
C5 C6 1_555 1_555
C8 C9 1_555 1_555

#END
