
#######################################################################
#
#                 Cambridge Crystallographic Data Centre
#                                CCDC 
#
#######################################################################
#
# If this CIF has been generated from an entry in the Cambridge 
# Structural Database, then it will include bibliographic, chemical, 
# crystal, experimental, refinement or atomic coordinate data resulting 
# from the CCDC's data processing and validation procedures.
#
#######################################################################

data_HAGWAP
_chemical_formula_moiety         'C7 H5 O3 1-,C3 H5 N2 1+'
_chemical_name_systematic        '1H-Imidazol-3-ium 4-hydroxybenzoate'
_symmetry_cell_setting           monoclinic
_symmetry_space_group_name_H-M   'P 21/c'
_symmetry_Int_Tables_number      14
_space_group_name_Hall           '-P 2ybc'
loop_
_symmetry_equiv_pos_site_id
_symmetry_equiv_pos_as_xyz
1 x,y,z
2 -x,1/2+y,1/2-z
3 -x,-y,-z
4 x,1/2-y,1/2+z
_cell_length_a                   9.6160(19)
_cell_length_b                   10.587(2)
_cell_length_c                   11.075(5)
_cell_angle_alpha                90
_cell_angle_beta                 118.93(2)
_cell_angle_gamma                90
_cell_volume                     986.788
_exptl_crystal_colour            colorless
_exptl_crystal_description       block
_cell_formula_units_Z            4
loop_
_atom_site_label
_atom_site_type_symbol
_atom_site_fract_x
_atom_site_fract_y
_atom_site_fract_z
O1 O 0.31608(13) 0.10207(10) -0.19063(11)
O2 O 0.41146(14) 0.12774(11) 0.03448(11)
O3 O -0.09377(16) -0.30551(13) -0.07298(12)
H1 H -0.1584 -0.3278 -0.1513
C1 C 0.2111(2) -0.06369(17) 0.04282(16)
H2 H 0.2833 -0.0263 0.1257
C2 C 0.1104(2) -0.15689(18) 0.04299(17)
H3 H 0.1162 -0.1820 0.1258
C3 C 0.00065(19) -0.21320(16) -0.07982(16)
C4 C -0.00731(19) -0.17401(16) -0.20289(16)
H4 H -0.0814 -0.2098 -0.2860
C5 C 0.0956(2) -0.08137(15) -0.20138(16)
H5 H 0.0901 -0.0566 -0.2841
C6 C 0.20634(18) -0.02475(14) -0.07944(15)
C7 C 0.31872(18) 0.07486(14) -0.07788(15)
N1 N 0.44486(16) -0.18793(12) -0.46843(14)
H6 H 0.4877 -0.2482 -0.4911
N2 N 0.38756(18) -0.06015(13) -0.34774(15)
H7 H 0.3876 -0.0239 -0.2782
C8 C 0.3316(2) -0.10617(17) -0.55773(18)
H8 H 0.2874 -0.1059 -0.6533
C9 C 0.2957(2) -0.02636(18) -0.48244(19)
H9 H 0.2223 0.0393 -0.5158
C10 C 0.4773(2) -0.15849(16) -0.34133(17)
H10 H 0.5502 -0.1995 -0.2612
loop_
_geom_bond_atom_site_label_1
_geom_bond_atom_site_label_2
_geom_bond_site_symmetry_1
_geom_bond_site_symmetry_2
O1 C7 1_555 1_555
O2 C7 1_555 1_555
O3 H1 1_555 1_555
C1 H2 1_555 1_555
C2 C1 1_555 1_555
H3 C2 1_555 1_555
C3 O3 1_555 1_555
C4 C3 1_555 1_555
H4 C4 1_555 1_555
C5 C4 1_555 1_555
H5 C5 1_555 1_555
C6 C1 1_555 1_555
C7 C6 1_555 1_555
N1 H6 1_555 1_555
N2 H7 1_555 1_555
C8 N1 1_555 1_555
H8 C8 1_555 1_555
C9 N2 1_555 1_555
H9 C9 1_555 1_555
C10 N1 1_555 1_555
H10 C10 1_555 1_555
C2 C3 1_555 1_555
C5 C6 1_555 1_555
N2 C10 1_555 1_555
C8 C9 1_555 1_555

#END
