
#######################################################################
#
#                 Cambridge Crystallographic Data Centre
#                                CCDC 
#
#######################################################################
#
# If this CIF has been generated from an entry in the Cambridge 
# Structural Database, then it will include bibliographic, chemical, 
# crystal, experimental, refinement or atomic coordinate data resulting 
# from the CCDC's data processing and validation procedures.
#
#######################################################################

data_HAGXET
_chemical_formula_moiety         'C10 H8 N2 S1'
_chemical_name_systematic        1-(2-Pyridyl)pyridinium-2-thiolate
_symmetry_cell_setting           monoclinic
_symmetry_space_group_name_H-M   'P 21'
_symmetry_Int_Tables_number      4
_space_group_name_Hall           'P 2yb'
loop_
_symmetry_equiv_pos_site_id
_symmetry_equiv_pos_as_xyz
1 x,y,z
2 -x,1/2+y,-z
_cell_length_a                   6.655(1)
_cell_length_b                   6.641(2)
_cell_length_c                   10.4614(7)
_cell_angle_alpha                90
_cell_angle_beta                 99.288(8)
_cell_angle_gamma                90
_cell_volume                     456.289
_exptl_crystal_colour            yellow
_exptl_crystal_description       prismatic
_cell_formula_units_Z            2
_exptl_crystal_recrystallization_method toluene
loop_
_atom_site_label
_atom_site_type_symbol
_atom_site_fract_x
_atom_site_fract_y
_atom_site_fract_z
S1 S -0.24935(4) 0.79859(8) 0.26004(3)
N1 N 0.2245(2) 0.5778(2) 0.1909(1)
N2 N 0.1482(1) 0.7874(2) 0.35554(9)
C1 C 0.1865(2) 0.7635(2) 0.2234(1)
C2 C 0.1906(3) 0.9324(3) 0.1469(2)
C3 C 0.2377(3) 0.9026(4) 0.0238(2)
C4 C 0.2783(3) 0.7107(3) -0.0136(2)
C5 C 0.2693(3) 0.5549(3) 0.0707(2)
C6 C -0.0484(2) 0.8031(2) 0.3801(1)
C7 C -0.0653(2) 0.8193(2) 0.5137(1)
C8 C 0.0999(2) 0.8204(3) 0.6086(1)
C9 C 0.2965(2) 0.8050(4) 0.5770(1)
C10 C 0.3156(2) 0.7888(4) 0.4505(1)
H1 H 0.167(3) 1.055(4) 0.183(2)
H2 H 0.229(4) 1.010(4) -0.037(2)
H3 H 0.315(4) 0.678(4) -0.099(2)
H4 H 0.286(4) 0.415(5) 0.049(3)
H5 H -0.206(3) 0.833(3) 0.536(2)
H6 H 0.088(2) 0.835(3) 0.698(2)
H7 H 0.407(3) 0.788(5) 0.641(2)
H8 H 0.441(2) 0.767(3) 0.417(2)
loop_
_geom_bond_atom_site_label_1
_geom_bond_atom_site_label_2
_geom_bond_site_symmetry_1
_geom_bond_site_symmetry_2
S1 C6 1_555 1_555
N1 C1 1_555 1_555
N2 C1 1_555 1_555
C1 C2 1_555 1_555
C2 C3 1_555 1_555
C3 C4 1_555 1_555
C4 C5 1_555 1_555
C5 N1 1_555 1_555
C6 N2 1_555 1_555
C7 C6 1_555 1_555
C8 C7 1_555 1_555
C9 C8 1_555 1_555
C10 N2 1_555 1_555
H1 C2 1_555 1_555
H2 C3 1_555 1_555
H3 C4 1_555 1_555
H4 C5 1_555 1_555
H5 C7 1_555 1_555
H6 C8 1_555 1_555
H7 C9 1_555 1_555
H8 C10 1_555 1_555
C9 C10 1_555 1_555

#END
