
#######################################################################
#
#                 Cambridge Crystallographic Data Centre
#                                CCDC 
#
#######################################################################
#
# If this CIF has been generated from an entry in the Cambridge 
# Structural Database, then it will include bibliographic, chemical, 
# crystal, experimental, refinement or atomic coordinate data resulting 
# from the CCDC's data processing and validation procedures.
#
#######################################################################

data_HAGYEW
_chemical_formula_moiety         'C2 H1 N5 O4,H2 O1'
_chemical_name_systematic        '3,5-dinitro-1H-1,2,4-triazole monohydrate'
_symmetry_cell_setting           orthorhombic
_symmetry_space_group_name_H-M   'P 21 21 21'
_symmetry_Int_Tables_number      19
_space_group_name_Hall           'P 2ac 2ab'
loop_
_symmetry_equiv_pos_site_id
_symmetry_equiv_pos_as_xyz
1 x,y,z
2 1/2-x,-y,1/2+z
3 -x,1/2+y,1/2-z
4 1/2+x,1/2-y,-z
_cell_length_a                   4.937(3)
_cell_length_b                   9.344(5)
_cell_length_c                   14.447(7)
_cell_angle_alpha                90
_cell_angle_beta                 90
_cell_angle_gamma                90
_cell_volume                     666.459
_cell_formula_units_Z            4
loop_
_atom_site_label
_atom_site_type_symbol
_atom_site_fract_x
_atom_site_fract_y
_atom_site_fract_z
N1 N 0.2935(4) 0.4389(2) 0.62635(13)
N2 N -0.0645(4) 0.3058(2) 0.57907(13)
N3 N 0.2850(4) 0.3173(3) 0.67404(13)
N4 N 0.0098(5) 0.5378(2) 0.50746(13)
N5 N 0.0101(5) 0.1044(3) 0.68472(14)
C1 C 0.0733(4) 0.2404(3) 0.64517(14)
C2 C 0.0798(4) 0.4238(3) 0.57160(14)
O1 O 0.1645(5) 0.0561(3) 0.74390(16)
O2 O -0.1912(5) 0.0409(3) 0.65760(16)
O3 O 0.1523(6) 0.6429(2) 0.50601(16)
O4 O -0.1879(5) 0.5197(3) 0.45775(14)
H1 H 0.392(15) 0.334(7) 0.709(3)
O5 O 0.8608(5) 0.7480(2) 0.30859(12)
H2 H 0.821(8) 0.669(3) 0.355(2)
H3 H 0.942(8) 0.813(4) 0.341(2)
loop_
_geom_bond_atom_site_label_1
_geom_bond_atom_site_label_2
_geom_bond_site_symmetry_1
_geom_bond_site_symmetry_2
N1 N3 1_555 1_555
N2 C1 1_555 1_555
N3 C1 1_555 1_555
N4 C2 1_555 1_555
N5 C1 1_555 1_555
C2 N1 1_555 1_555
O1 N5 1_555 1_555
O2 N5 1_555 1_555
O3 N4 1_555 1_555
O4 N4 1_555 1_555
H1 N3 1_555 1_555
O5 H2 1_555 1_555
H3 O5 1_555 1_555
N2 C2 1_555 1_555

#END
