
#######################################################################
#
#                 Cambridge Crystallographic Data Centre
#                                CCDC 
#
#######################################################################
#
# If this CIF has been generated from an entry in the Cambridge 
# Structural Database, then it will include bibliographic, chemical, 
# crystal, experimental, refinement or atomic coordinate data resulting 
# from the CCDC's data processing and validation procedures.
#
#######################################################################

data_HAGZEX
_chemical_name_common            "2',3',4'-trihydroxychalcone monohydrate"
_chemical_formula_moiety         'C15 H12 O4,H2 O1'
_chemical_name_systematic        
'3-phenyl-1-(2,3,4-trihydroxyphenyl)prop-2-en-1-one monohydrate'
_symmetry_cell_setting           monoclinic
_symmetry_space_group_name_H-M   'P 21/c'
_symmetry_Int_Tables_number      14
_space_group_name_Hall           '-P 2ybc'
loop_
_symmetry_equiv_pos_site_id
_symmetry_equiv_pos_as_xyz
1 x,y,z
2 -x,1/2+y,1/2-z
3 -x,-y,-z
4 x,1/2-y,1/2+z
_cell_length_a                   17.1976(11)
_cell_length_b                   3.9276(3)
_cell_length_c                   20.3499(13)
_cell_angle_alpha                90
_cell_angle_beta                 113.462(1)
_cell_angle_gamma                90
_cell_volume                     1260.9
_exptl_crystal_colour            orange
_exptl_crystal_description       parallelepiped
_cell_formula_units_Z            4
loop_
_atom_site_label
_atom_site_type_symbol
_atom_site_fract_x
_atom_site_fract_y
_atom_site_fract_z
O1 O 0.13530(6) 0.2614(3) 0.59407(5)
O2 O 0.05000(6) 0.2342(3) 0.45928(5)
O3 O 0.04426(6) 0.0583(3) 0.32789(5)
O4 O 0.17935(6) -0.2698(3) 0.31708(5)
C1 C 0.36222(8) 0.1532(3) 0.78322(6)
C2 C 0.36037(8) 0.2936(3) 0.84588(7)
C3 C 0.43140(8) 0.2791(3) 0.90999(7)
C4 C 0.50522(8) 0.1262(4) 0.91245(7)
C5 C 0.50802(9) -0.0119(3) 0.85067(7)
C6 C 0.43732(8) -0.0005(3) 0.78658(7)
C7 C 0.28582(8) 0.1789(3) 0.71689(7)
C8 C 0.27466(8) 0.0487(3) 0.65334(7)
C9 C 0.19613(8) 0.1058(3) 0.58893(7)
C10 C 0.19120(8) -0.0068(3) 0.51896(6)
C11 C 0.11806(7) 0.0724(3) 0.45699(7)
C12 C 0.11393(7) -0.0136(3) 0.38916(6)
C13 C 0.18096(8) -0.1824(3) 0.38194(6)
C14 C 0.25301(8) -0.2687(3) 0.44293(7)
C15 C 0.25756(8) -0.1809(3) 0.50947(7)
H1 H 0.3076(9) 0.401(4) 0.8430(8)
H2 H 0.4271(9) 0.380(4) 0.9533(8)
H3 H 0.5538(9) 0.124(4) 0.9584(8)
H4 H 0.5603(10) -0.118(4) 0.8530(8)
H5 H 0.4412(8) -0.102(4) 0.7436(8)
H6 H 0.2396(10) 0.310(4) 0.7185(8)
H7 H 0.3176(9) -0.079(4) 0.6478(8)
H8 H 0.0651(13) 0.266(6) 0.5069(13)
H9 H 0.0104(13) 0.226(5) 0.3346(11)
H10 H 0.1397(13) -0.162(6) 0.2815(12)
H11 H 0.2964(9) -0.396(4) 0.4374(7)
H12 H 0.3060(10) -0.244(4) 0.5502(8)
O5 O 0.07282(6) 0.0229(3) 0.19279(5)
H13 H 0.0935(12) 0.080(5) 0.1609(10)
H14 H 0.0444(14) 0.199(6) 0.1953(11)
loop_
_geom_bond_atom_site_label_1
_geom_bond_atom_site_label_2
_geom_bond_site_symmetry_1
_geom_bond_site_symmetry_2
O1 C9 1_555 1_555
O2 C11 1_555 1_555
O3 C12 1_555 1_555
O4 C13 1_555 1_555
C1 C2 1_555 1_555
C2 C3 1_555 1_555
C3 C4 1_555 1_555
C4 C5 1_555 1_555
C5 C6 1_555 1_555
C6 C1 1_555 1_555
C7 C1 1_555 1_555
C8 C7 1_555 1_555
C9 C8 1_555 1_555
C10 C9 1_555 1_555
C11 C10 1_555 1_555
C12 C11 1_555 1_555
C13 C12 1_555 1_555
C14 C13 1_555 1_555
C15 C10 1_555 1_555
H1 C2 1_555 1_555
H2 C3 1_555 1_555
H3 C4 1_555 1_555
H4 C5 1_555 1_555
H5 C6 1_555 1_555
H6 C7 1_555 1_555
H7 C8 1_555 1_555
H8 O2 1_555 1_555
H9 O3 1_555 1_555
H10 O4 1_555 1_555
H11 C14 1_555 1_555
H12 C15 1_555 1_555
O5 H13 1_555 1_555
H14 O5 1_555 1_555
C14 C15 1_555 1_555

#END
