
#######################################################################
#
#                 Cambridge Crystallographic Data Centre
#                                CCDC 
#
#######################################################################
#
# If this CIF has been generated from an entry in the Cambridge 
# Structural Database, then it will include bibliographic, chemical, 
# crystal, experimental, refinement or atomic coordinate data resulting 
# from the CCDC's data processing and validation procedures.
#
#######################################################################

data_HAGZAT
_chemical_formula_moiety         'C15 H12 O4,0.5(H2 O1)'
_chemical_name_systematic        
'1-(2,5-dihydroxyphenyl)-3-(2-hydroxyphenyl)prop-2-en-1-one hemihydrate'
_symmetry_cell_setting           orthorhombic
_symmetry_space_group_name_H-M   'P 21 21 2'
_symmetry_Int_Tables_number      18
_space_group_name_Hall           'P 2 2ab'
loop_
_symmetry_equiv_pos_site_id
_symmetry_equiv_pos_as_xyz
1 x,y,z
2 -x,-y,z
3 1/2-x,1/2+y,-z
4 1/2+x,1/2-y,-z
_cell_length_a                   13.5576(15)
_cell_length_b                   17.601(2)
_cell_length_c                   5.1827(6)
_cell_angle_alpha                90
_cell_angle_beta                 90
_cell_angle_gamma                90
_cell_volume                     1236.73
_exptl_crystal_colour            orange
_exptl_crystal_description       parallelepiped
_cell_formula_units_Z            4
loop_
_atom_site_label
_atom_site_type_symbol
_atom_site_fract_x
_atom_site_fract_y
_atom_site_fract_z
O1 O 0.57097(10) 0.25598(8) 0.1221(3)
O2 O 0.54486(9) 0.16676(9) -0.2572(3)
O3 O 0.94773(10) 0.14885(9) -0.3804(3)
O4 O 0.60261(10) 0.43964(8) 0.8029(3)
C1 C 0.74987(14) 0.38813(11) 0.6319(4)
C2 C 0.70290(14) 0.43560(11) 0.8117(4)
C3 C 0.75666(16) 0.47727(11) 0.9905(4)
C4 C 0.85815(15) 0.47222(12) 0.9933(4)
C5 C 0.90668(17) 0.42660(12) 0.8152(4)
C6 C 0.85351(15) 0.38533(12) 0.6382(4)
C7 C 0.69151(15) 0.34192(11) 0.4573(4)
C8 C 0.72602(15) 0.30253(11) 0.2547(4)
C9 C 0.66318(14) 0.25508(12) 0.0917(4)
C10 C 0.70643(14) 0.20654(11) -0.1088(4)
C11 C 0.64453(14) 0.16541(12) -0.2760(4)
C12 C 0.68501(15) 0.12127(12) -0.4721(4)
C13 C 0.78532(16) 0.11780(12) -0.5049(4)
C14 C 0.84791(14) 0.15757(12) -0.3391(4)
C15 C 0.80916(15) 0.20077(12) -0.1436(4)
H1 H 0.583(2) 0.4667(15) 0.951(6)
H2 H 0.7223(12) 0.5084(10) 1.108(4)
H3 H 0.8970(13) 0.4997(11) 1.120(4)
H4 H 0.9770(14) 0.4207(11) 0.810(4)
H5 H 0.8911(11) 0.3500(9) 0.506(3)
H6 H 0.6222(13) 0.3389(10) 0.495(4)
H7 H 0.7952(15) 0.3041(11) 0.213(4)
H8 H 0.5274(17) 0.2015(13) -0.120(5)
H9 H 0.6382(13) 0.0924(11) -0.585(4)
H10 H 0.8137(13) 0.0915(10) -0.628(4)
H11 H 0.9855(17) 0.1864(14) -0.289(5)
H12 H 0.8535(13) 0.2283(11) -0.024(4)
O5 O 0.5000 0.5000 0.2160(4)
H13 H 0.487(2) 0.4605(16) 0.311(6)
H13A H 0.513(2) 0.5395(16) 0.311(6)
loop_
_geom_bond_atom_site_label_1
_geom_bond_atom_site_label_2
_geom_bond_site_symmetry_1
_geom_bond_site_symmetry_2
O1 C9 1_555 1_555
O2 C11 1_555 1_555
O3 C14 1_555 1_555
O4 C2 1_555 1_555
C1 C2 1_555 1_555
C2 C3 1_555 1_555
C3 C4 1_555 1_555
C4 C5 1_555 1_555
C5 C6 1_555 1_555
C6 C1 1_555 1_555
C7 C1 1_555 1_555
C8 C7 1_555 1_555
C9 C8 1_555 1_555
C10 C9 1_555 1_555
C11 C10 1_555 1_555
C12 C11 1_555 1_555
C13 C12 1_555 1_555
C14 C13 1_555 1_555
C15 C10 1_555 1_555
H1 O4 1_555 1_555
H2 C3 1_555 1_555
H3 C4 1_555 1_555
H4 C5 1_555 1_555
H5 C6 1_555 1_555
H6 C7 1_555 1_555
H7 C8 1_555 1_555
H8 O2 1_555 1_555
H9 C12 1_555 1_555
H10 C13 1_555 1_555
H11 O3 1_555 1_555
H12 C15 1_555 1_555
O5 H13 1_555 1_555
H13A O5 1_555 1_555
C14 C15 1_555 1_555

#END
