
#######################################################################
#
#                 Cambridge Crystallographic Data Centre
#                                CCDC 
#
#######################################################################
#
# If this CIF has been generated from an entry in the Cambridge 
# Structural Database, then it will include bibliographic, chemical, 
# crystal, experimental, refinement or atomic coordinate data resulting 
# from the CCDC's data processing and validation procedures.
#
#######################################################################

data_HAHDIG
_chemical_formula_moiety         'C20 H32 O4,H2 O1'
_chemical_name_systematic        
'12,16-Dihydroxybeyeran-18-oic acid monohydrate'
_symmetry_cell_setting           orthorhombic
_symmetry_space_group_name_H-M   'P 21 21 21'
_symmetry_Int_Tables_number      19
_space_group_name_Hall           'P 2ac 2ab'
loop_
_symmetry_equiv_pos_site_id
_symmetry_equiv_pos_as_xyz
1 x,y,z
2 1/2-x,-y,1/2+z
3 -x,1/2+y,1/2-z
4 1/2+x,1/2-y,-z
_cell_length_a                   6.7137(5)
_cell_length_b                   13.6622(12)
_cell_length_c                   21.361(2)
_cell_angle_alpha                90
_cell_angle_beta                 90
_cell_angle_gamma                90
_cell_volume                     1959.31
_cell_formula_units_Z            4
loop_
_atom_site_label
_atom_site_type_symbol
_atom_site_fract_x
_atom_site_fract_y
_atom_site_fract_z
O1 O 0.8235(14) 0.9074(8) 0.5880(4)
O2 O 1.0129(10) 0.7941(5) 0.6313(3)
H1 H 1.0742 0.7984 0.5982
O3 O 1.3238(7) 1.0149(4) 0.9413(3)
H2 H 1.4408 1.0124 0.9523
O4 O 0.7090(6) 0.9919(5) 0.9785(3)
H3 H 0.6996 1.0216 1.0118
C1 C 0.6552(10) 1.0056(4) 0.7646(3)
H4 H 0.6980 1.0714 0.7752
H5 H 0.5457 0.9887 0.7922
C2 C 0.5793(12) 1.0055(6) 0.6967(4)
H6 H 0.6807 1.0331 0.6696
H7 H 0.4617 1.0465 0.6938
C3 C 0.5271(10) 0.9000(6) 0.6740(4)
H8 H 0.4150 0.8757 0.6981
H9 H 0.4869 0.9027 0.6304
C4 C 0.7015(10) 0.8286(5) 0.6806(3)
C5 C 0.7787(9) 0.8319(4) 0.7506(3)
H10 H 0.6651 0.8096 0.7756
C6 C 0.9444(12) 0.7592(4) 0.7654(3)
H11 H 1.0702 0.7838 0.7496
H12 H 0.9168 0.6972 0.7451
C7 C 0.9588(12) 0.7441(4) 0.8367(3)
H13 H 0.8375 0.7132 0.8515
H14 H 1.0689 0.7004 0.8457
C8 C 0.9895(8) 0.8401(4) 0.8717(2)
C9 C 0.8479(7) 0.9222(4) 0.8504(3)
H15 H 0.7153 0.9028 0.8651
C10 C 0.8276(8) 0.9350(4) 0.7767(3)
C11 C 0.8935(8) 1.0185(4) 0.8833(3)
H16 H 0.7896 1.0656 0.8739
H17 H 1.0187 1.0445 0.8679
C12 C 0.9068(9) 1.0033(5) 0.9541(3)
H18 H 0.9651 1.0623 0.9726
C13 C 1.0378(9) 0.9159(5) 0.9719(3)
C14 C 0.9498(11) 0.8227(5) 0.9426(3)
H19 H 0.8085 0.8169 0.9512
H20 H 1.0176 0.7645 0.9575
C15 C 1.2115(9) 0.8770(5) 0.8741(3)
H21 H 1.2341 0.9273 0.8428
H22 H 1.3030 0.8233 0.8665
C16 C 1.2413(9) 0.9196(5) 0.9420(4)
H23 H 1.3309 0.8762 0.9653
C17 C 1.0487(14) 0.9077(7) 1.0445(4)
H24 H 1.1271 0.8517 1.0558
H25 H 0.9167 0.9007 1.0612
H26 H 1.1091 0.9658 1.0613
C18 C 0.6130(15) 0.7274(7) 0.6644(4)
H27 H 0.5684 0.7274 0.6217
H28 H 0.5024 0.7140 0.6916
H29 H 0.7131 0.6780 0.6699
C19 C 0.8518(11) 0.8521(7) 0.6291(3)
C20 C 1.0133(10) 0.9782(5) 0.7456(4)
H30 H 0.9909 0.9844 0.7014
H31 H 1.1249 0.9358 0.7529
H32 H 1.0404 1.0416 0.7631
O5 O 1.2112(19) 0.8029(9) 0.5175(6)
H33 H 1.25(2) 0.860(7) 0.530(7)
H34 H 1.322(10) 0.777(11) 0.511(9)
loop_
_geom_bond_atom_site_label_1
_geom_bond_atom_site_label_2
_geom_bond_site_symmetry_1
_geom_bond_site_symmetry_2
O1 C19 1_555 1_555
O2 H1 1_555 1_555
O3 H2 1_555 1_555
O4 H3 1_555 1_555
C1 H4 1_555 1_555
H5 C1 1_555 1_555
C2 C1 1_555 1_555
H6 C2 1_555 1_555
H7 C2 1_555 1_555
C3 C2 1_555 1_555
H8 C3 1_555 1_555
H9 C3 1_555 1_555
C4 C3 1_555 1_555
C5 C4 1_555 1_555
H10 C5 1_555 1_555
C6 C5 1_555 1_555
H11 C6 1_555 1_555
H12 C6 1_555 1_555
C7 C6 1_555 1_555
H13 C7 1_555 1_555
H14 C7 1_555 1_555
C8 C7 1_555 1_555
C9 C8 1_555 1_555
H15 C9 1_555 1_555
C10 C1 1_555 1_555
C11 C9 1_555 1_555
H16 C11 1_555 1_555
H17 C11 1_555 1_555
C12 O4 1_555 1_555
H18 C12 1_555 1_555
C13 C12 1_555 1_555
C14 C8 1_555 1_555
H19 C14 1_555 1_555
H20 C14 1_555 1_555
C15 C8 1_555 1_555
H21 C15 1_555 1_555
H22 C15 1_555 1_555
C16 O3 1_555 1_555
H23 C16 1_555 1_555
C17 C13 1_555 1_555
H24 C17 1_555 1_555
H25 C17 1_555 1_555
H26 C17 1_555 1_555
C18 C4 1_555 1_555
H27 C18 1_555 1_555
H28 C18 1_555 1_555
H29 C18 1_555 1_555
C19 O2 1_555 1_555
C20 C10 1_555 1_555
H30 C20 1_555 1_555
H31 C20 1_555 1_555
H32 C20 1_555 1_555
O5 H33 1_555 1_555
H34 O5 1_555 1_555
C4 C19 1_555 1_555
C5 C10 1_555 1_555
C9 C10 1_555 1_555
C11 C12 1_555 1_555
C13 C14 1_555 1_555
C13 C16 1_555 1_555
C15 C16 1_555 1_555

#END
