
#######################################################################
#
#                 Cambridge Crystallographic Data Centre
#                                CCDC 
#
#######################################################################
#
# If this CIF has been generated from an entry in the Cambridge 
# Structural Database, then it will include bibliographic, chemical, 
# crystal, experimental, refinement or atomic coordinate data resulting 
# from the CCDC's data processing and validation procedures.
#
#######################################################################

data_HAHDEZ
_chemical_formula_moiety         'C40 H45 N5 O5,C1 H1 Cl3,5(H2 O1)'
_chemical_name_systematic        
'5,13,21,29,37-Pentamethoxy(2\m~5~)(2,6)pyridinophane chloroform pentahydrate clathrate'
_symmetry_cell_setting           triclinic
_symmetry_space_group_name_H-M   'P -1'
_symmetry_Int_Tables_number      2
_space_group_name_Hall           '-P 1'
loop_
_symmetry_equiv_pos_site_id
_symmetry_equiv_pos_as_xyz
1 x,y,z
2 -x,-y,-z
_cell_length_a                   10.648(6)
_cell_length_b                   12.745(1)
_cell_length_c                   17.515(3)
_cell_angle_alpha                74.26(1)
_cell_angle_beta                 83.87(4)
_cell_angle_gamma                75.26(2)
_cell_volume                     2210.7
_exptl_crystal_colour            colorless
_chemical_melting_point          202deg.C
_cell_formula_units_Z            2
loop_
_atom_site_label
_atom_site_type_symbol
_atom_site_fract_x
_atom_site_fract_y
_atom_site_fract_z
C1 C -0.10518(22) 0.50430(17) 0.08829(14)
C2 C -0.00077(23) 0.41328(18) 0.13379(14)
C3 C -0.02400(21) 0.29653(17) 0.15451(12)
C4 C -0.14089(21) 0.27436(17) 0.14404(13)
C5 C -0.15074(22) 0.16377(18) 0.16438(14)
C6 C -0.04357(23) 0.07991(18) 0.19408(14)
C7 C 0.06905(22) 0.10863(18) 0.20308(13)
N1 N 0.07933(17) 0.21594(14) 0.18372(10)
O1 O -0.25809(16) 0.12957(13) 0.15757(11)
C8 C -0.37500(23) 0.21192(22) 0.13443(17)
C9 C 0.18666(22) 0.02286(18) 0.23807(14)
C10 C 0.20241(22) 0.02553(19) 0.32291(13)
C11 C 0.32550(21) -0.05258(18) 0.35702(12)
C12 C 0.33023(21) -0.16583(17) 0.38970(12)
C13 C 0.44554(21) -0.23569(17) 0.41912(13)
C14 C 0.55380(22) -0.19100(18) 0.41349(13)
C15 C 0.54176(21) -0.07804(18) 0.37932(13)
N2 N 0.42858(18) -0.00839(14) 0.35188(11)
O2 O 0.46275(15) -0.34693(12) 0.45325(9)
C16 C 0.35100(22) -0.39323(19) 0.45996(14)
C17 C 0.65350(22) -0.02287(19) 0.37153(14)
C18 C 0.64768(22) 0.03815(18) 0.43686(13)
C19 C 0.72363(21) 0.12747(17) 0.41245(12)
C20 C 0.84532(21) 0.11107(17) 0.43939(13)
C21 C 0.91093(21) 0.19669(18) 0.41354(13)
C22 C 0.85195(22) 0.29520(18) 0.36104(13)
C23 C 0.72881(22) 0.30496(17) 0.33608(13)
N3 N 0.66477(17) 0.22370(14) 0.36136(10)
O3 O 1.02955(15) 0.17573(12) 0.44386(10)
C24 C 1.10010(24) 0.26211(21) 0.41736(17)
C25 C 0.65949(24) 0.41221(18) 0.28155(13)
C26 C 0.57393(22) 0.49315(18) 0.32609(13)
C27 C 0.50923(20) 0.60131(17) 0.27007(12)
C28 C 0.57449(21) 0.68715(17) 0.24345(13)
C29 C 0.51577(22) 0.78358(17) 0.18937(13)
C30 C 0.39483(22) 0.79124(18) 0.16292(13)
C31 C 0.33495(21) 0.70358(17) 0.19293(13)
N4 N 0.39124(17) 0.60876(14) 0.24648(10)
O4 O 0.56755(16) 0.87411(12) 0.15944(10)
C32 C 0.69081(24) 0.87011(21) 0.18621(15)
C33 C 0.20149(22) 0.70886(19) 0.16915(13)
C34 C 0.17801(23) 0.75556(19) 0.08047(13)
C35 C 0.04897(22) 0.74264(18) 0.06060(12)
C36 C -0.04635(23) 0.83318(18) 0.02603(13)
C37 C -0.16426(22) 0.81637(17) 0.01053(13)
C38 C -0.18302(22) 0.70876(18) 0.03195(13)
C39 C -0.08151(21) 0.62123(17) 0.06600(12)
N5 N 0.03374(18) 0.63541(14) 0.07951(10)
O5 O -0.25452(16) 0.90860(12) -0.02382(10)
C40 C -0.37553(23) 0.89038(20) -0.04066(15)
H1 H -0.1854 0.5057 0.1192
H2 H -0.1159 0.4847 0.0406
H3 H 0.0082 0.4314 0.1824
H4 H 0.0800 0.4131 0.1036
H5 H -0.2137 0.3340 0.1232
H6 H -0.0478 0.0026 0.2085
H7 H -0.4427 0.1755 0.1323
H8 H -0.4003 0.2568 0.1721
H9 H -0.3607 0.2591 0.0829
H10 H 0.2625 0.0374 0.2063
H11 H 0.1791 -0.0505 0.2378
H12 H 0.1299 0.0047 0.3556
H13 H 0.2022 0.1006 0.3237
H14 H 0.2548 -0.1947 0.3911
H15 H 0.6357 -0.2384 0.4325
H16 H 0.3744 -0.4722 0.4847
H17 H 0.2835 -0.3568 0.4915
H18 H 0.3204 -0.3814 0.4080
H19 H 0.6521 0.0304 0.3208
H20 H 0.7338 -0.0788 0.3740
H21 H 0.6814 -0.0154 0.4845
H22 H 0.5586 0.0722 0.4478
H23 H 0.8846 0.0416 0.4754
H24 H 0.8953 0.3554 0.3419
H25 H 1.1822 0.2384 0.4423
H26 H 1.1144 0.2780 0.3608
H27 H 1.0498 0.3285 0.4317
H28 H 0.6062 0.3947 0.2481
H29 H 0.7220 0.4481 0.2481
H30 H 0.6264 0.5090 0.3609
H31 H 0.5089 0.4588 0.3579
H32 H 0.6581 0.6796 0.2629
H33 H 0.3533 0.8564 0.1240
H34 H 0.7164 0.9388 0.1610
H35 H 0.6859 0.8597 0.2427
H36 H 0.7537 0.8084 0.1727
H37 H 0.1388 0.7549 0.1973
H38 H 0.1865 0.6347 0.1855
H39 H 0.2466 0.7161 0.0513
H40 H 0.1797 0.8335 0.0649
H41 H -0.0319 0.9075 0.0129
H42 H -0.2642 0.6950 0.0233
H43 H -0.4319 0.9609 -0.0649
H44 H -0.3596 0.8421 -0.0760
H45 H -0.4160 0.8559 0.0081
C41 C -0.02031(23) 0.59808(21) 0.37081(14)
Cl1 Cl -0.14108(6) 0.56056(6) 0.44295(4)
Cl2 Cl -0.06436(7) 0.60031(6) 0.27698(4)
Cl3 Cl 0.00202(8) 0.72959(6) 0.37243(5)
H46 H 0.0600 0.5431 0.3832
O6 O 0.31709(17) 0.28297(16) 0.17274(11)
H47 H 0.2477(18) 0.2595(24) 0.1813(17)
H48 H 0.3385(29) 0.2761(25) 0.2195(9)
O7 O 0.25098(18) 0.44989(15) 0.34538(13)
H49 H 0.2920(26) 0.4905(21) 0.3108(13)
H50 H 0.2887(26) 0.3854(13) 0.3398(18)
O8 O 0.31009(18) 0.48921(16) 0.07366(11)
H51 H 0.3141(30) 0.4256(14) 0.1067(14)
H52 H 0.2320(14) 0.5260(22) 0.0793(18)
O9 O 0.40697(17) 0.23057(14) 0.32649(11)
H53 H 0.4089(29) 0.1614(10) 0.3340(17)
H54 H 0.4817(15) 0.2370(25) 0.3338(17)
O10 O 0.57670(22) 0.52258(27) 0.08092(14)
H55 H 0.5958(38) 0.5409(33) 0.0315(8)
H56 H 0.4949(11) 0.5408(33) 0.0779(24)
loop_
_geom_bond_atom_site_label_1
_geom_bond_atom_site_label_2
_geom_bond_site_symmetry_1
_geom_bond_site_symmetry_2
C1 C2 1_555 1_555
C2 C3 1_555 1_555
C3 C4 1_555 1_555
C4 C5 1_555 1_555
C5 C6 1_555 1_555
C6 C7 1_555 1_555
C7 N1 1_555 1_555
N1 C3 1_555 1_555
O1 C5 1_555 1_555
C8 O1 1_555 1_555
C9 C7 1_555 1_555
C10 C9 1_555 1_555
C11 C10 1_555 1_555
C12 C11 1_555 1_555
C13 C12 1_555 1_555
C14 C13 1_555 1_555
C15 C14 1_555 1_555
N2 C11 1_555 1_555
O2 C13 1_555 1_555
C16 O2 1_555 1_555
C17 C15 1_555 1_555
C18 C17 1_555 1_555
C19 C18 1_555 1_555
C20 C19 1_555 1_555
C21 C20 1_555 1_555
C22 C21 1_555 1_555
C23 C22 1_555 1_555
N3 C19 1_555 1_555
O3 C21 1_555 1_555
C24 O3 1_555 1_555
C25 C23 1_555 1_555
C26 C25 1_555 1_555
C27 C26 1_555 1_555
C28 C27 1_555 1_555
C29 C28 1_555 1_555
C30 C29 1_555 1_555
C31 C30 1_555 1_555
N4 C27 1_555 1_555
O4 C29 1_555 1_555
C32 O4 1_555 1_555
C33 C31 1_555 1_555
C34 C33 1_555 1_555
C35 C34 1_555 1_555
C36 C35 1_555 1_555
C37 C36 1_555 1_555
C38 C37 1_555 1_555
C39 C1 1_555 1_555
N5 C35 1_555 1_555
O5 C37 1_555 1_555
C40 O5 1_555 1_555
H1 C1 1_555 1_555
H2 C1 1_555 1_555
H3 C2 1_555 1_555
H4 C2 1_555 1_555
H5 C4 1_555 1_555
H6 C6 1_555 1_555
H7 C8 1_555 1_555
H8 C8 1_555 1_555
H9 C8 1_555 1_555
H10 C9 1_555 1_555
H11 C9 1_555 1_555
H12 C10 1_555 1_555
H13 C10 1_555 1_555
H14 C12 1_555 1_555
H15 C14 1_555 1_555
H16 C16 1_555 1_555
H17 C16 1_555 1_555
H18 C16 1_555 1_555
H19 C17 1_555 1_555
H20 C17 1_555 1_555
H21 C18 1_555 1_555
H22 C18 1_555 1_555
H23 C20 1_555 1_555
H24 C22 1_555 1_555
H25 C24 1_555 1_555
H26 C24 1_555 1_555
H27 C24 1_555 1_555
H28 C25 1_555 1_555
H29 C25 1_555 1_555
H30 C26 1_555 1_555
H31 C26 1_555 1_555
H32 C28 1_555 1_555
H33 C30 1_555 1_555
H34 C32 1_555 1_555
H35 C32 1_555 1_555
H36 C32 1_555 1_555
H37 C33 1_555 1_555
H38 C33 1_555 1_555
H39 C34 1_555 1_555
H40 C34 1_555 1_555
H41 C36 1_555 1_555
H42 C38 1_555 1_555
H43 C40 1_555 1_555
H44 C40 1_555 1_555
H45 C40 1_555 1_555
C41 Cl1 1_555 1_555
Cl2 C41 1_555 1_555
Cl3 C41 1_555 1_555
H46 C41 1_555 1_555
O6 H47 1_555 1_555
H48 O6 1_555 1_555
O7 H49 1_555 1_555
H50 O7 1_555 1_555
O8 H51 1_555 1_555
H52 O8 1_555 1_555
O9 H53 1_555 1_555
H54 O9 1_555 1_555
O10 H55 1_555 1_555
H56 O10 1_555 1_555
C15 N2 1_555 1_555
C23 N3 1_555 1_555
C31 N4 1_555 1_555
C38 C39 1_555 1_555
C39 N5 1_555 1_555

#END
