
#######################################################################
#
#                 Cambridge Crystallographic Data Centre
#                                CCDC 
#
#######################################################################
#
# If this CIF has been generated from an entry in the Cambridge 
# Structural Database, then it will include bibliographic, chemical, 
# crystal, experimental, refinement or atomic coordinate data resulting 
# from the CCDC's data processing and validation procedures.
#
#######################################################################

data_HAHGEE
_chemical_formula_moiety         'C10 H10 N2 2+,2(C8 H5 O7 S1 1-),4(H2 O1)'
_chemical_name_systematic        
"4,4'-Bipyridinium bis(2-sulfonatoterephthalic acid) tetrahydrate"
_symmetry_cell_setting           triclinic
_symmetry_space_group_name_H-M   'P -1'
_symmetry_Int_Tables_number      2
_space_group_name_Hall           '-P 1'
loop_
_symmetry_equiv_pos_site_id
_symmetry_equiv_pos_as_xyz
1 x,y,z
2 -x,-y,-z
_cell_length_a                   8.4687(5)
_cell_length_b                   9.4670(5)
_cell_length_c                   10.4823(6)
_cell_angle_alpha                73.0070(10)
_cell_angle_beta                 71.5670(10)
_cell_angle_gamma                89.5820(10)
_cell_volume                     759.11
_exptl_crystal_colour            colorless
_exptl_crystal_description       prism
_cell_formula_units_Z            1
loop_
_atom_site_label
_atom_site_type_symbol
_atom_site_fract_x
_atom_site_fract_y
_atom_site_fract_z
S1 S 1.02057(6) 0.12620(5) 0.65556(5)
O1 O 1.2722(2) 0.44808(19) 0.77019(17)
H1 H 1.3344 0.5161 0.7060
O2 O 1.1559(2) 0.44957(19) 0.60789(15)
O3 O 1.20148(18) 0.14331(19) 0.60425(17)
O4 O 0.94866(16) 0.23130(15) 0.56212(13)
O5 O 0.9510(2) -0.02351(16) 0.69000(16)
O6 O 0.5592(2) -0.10611(19) 1.15650(18)
O7 O 0.5444(2) 0.06091(17) 1.26979(16)
H2 H 0.4633 0.0052 1.3277
C1 C 1.1611(2) 0.3997(2) 0.7257(2)
C2 C 1.0299(2) 0.28626(19) 0.84145(19)
C3 C 0.9545(2) 0.16907(19) 0.81853(18)
C4 C 0.8233(2) 0.07819(19) 0.92573(19)
H3 H 0.7754 -0.0009 0.9106
C5 C 0.7610(2) 0.1031(2) 1.05654(19)
C6 C 0.8382(3) 0.2162(2) 1.0808(2)
H4 H 0.7992 0.2327 1.1683
C7 C 0.9729(3) 0.3043(2) 0.9752(2)
H5 H 1.0269 0.3774 0.9937
C8 C 0.6117(2) 0.0064(2) 1.1660(2)
O8 O 0.4797(2) 0.66122(19) 0.5755(2)
H6 H 0.5717 0.6643 0.5169
H7 H 0.4278 0.7333 0.5560
O9 O 0.30604(17) 0.89830(16) 0.49417(14)
H8 H 0.2705 0.9521 0.5437
H9 H 0.2266 0.8660 0.4787
N1 N 0.1935(2) 0.42285(19) 0.32937(17)
H10 H 0.1187 0.4029 0.4115
C9 C 0.2098(3) 0.3254(3) 0.2590(2)
H11 H 0.1402 0.2373 0.2982
C10 C 0.3287(3) 0.3538(2) 0.1287(2)
H12 H 0.3394 0.2850 0.0795
C11 C 0.4334(2) 0.48443(19) 0.06955(18)
C12 C 0.4087(2) 0.58463(19) 0.14698(19)
H13 H 0.4739 0.6750 0.1099
C13 C 0.2888(2) 0.5506(2) 0.2773(2)
H14 H 0.2741 0.6169 0.3294
N1A N 0.8065(2) 0.57715(19) -0.32937(17)
H10A H 0.8813 0.5971 -0.4115
C9A C 0.7902(3) 0.6746(3) -0.2590(2)
H11A H 0.8598 0.7627 -0.2982
C10A C 0.6713(3) 0.6462(2) -0.1287(2)
H12A H 0.6606 0.7150 -0.0795
C11A C 0.5666(2) 0.51557(19) -0.06955(18)
C12A C 0.5913(2) 0.41537(19) -0.14698(19)
H13A H 0.5261 0.3250 -0.1099
C13A C 0.7112(2) 0.4494(2) -0.2773(2)
H14A H 0.7259 0.3831 -0.3294
loop_
_geom_bond_atom_site_label_1
_geom_bond_atom_site_label_2
_geom_bond_site_symmetry_1
_geom_bond_site_symmetry_2
S1 O3 1_555 1_555
O1 H1 1_555 1_555
O2 C1 1_555 1_555
O4 S1 1_555 1_555
O5 S1 1_555 1_555
O6 C8 1_555 1_555
O7 H2 1_555 1_555
C1 O1 1_555 1_555
C2 C1 1_555 1_555
C3 S1 1_555 1_555
C4 C3 1_555 1_555
H3 C4 1_555 1_555
C5 C4 1_555 1_555
C6 C5 1_555 1_555
H4 C6 1_555 1_555
C7 C2 1_555 1_555
H5 C7 1_555 1_555
C8 O7 1_555 1_555
O8 H6 1_555 1_555
H7 O8 1_555 1_555
O9 H8 1_555 1_555
H9 O9 1_555 1_555
N1 H10 1_555 1_555
C9 N1 1_555 1_555
H11 C9 1_555 1_555
C10 C9 1_555 1_555
H12 C10 1_555 1_555
C11 C10 1_555 1_555
C12 C11 1_555 1_555
H13 C12 1_555 1_555
C13 N1 1_555 1_555
H14 C13 1_555 1_555
N1A H10A 1_555 1_555
C9A N1A 1_555 1_555
H11A C9A 1_555 1_555
C10A C9A 1_555 1_555
H12A C10A 1_555 1_555
C11A C11 1_555 1_555
C12A C11A 1_555 1_555
H13A C12A 1_555 1_555
C13A N1A 1_555 1_555
H14A C13A 1_555 1_555
C2 C3 1_555 1_555
C5 C8 1_555 1_555
C6 C7 1_555 1_555
C12 C13 1_555 1_555
C10A C11A 1_555 1_555
C12A C13A 1_555 1_555

#END
