
#######################################################################
#
#                 Cambridge Crystallographic Data Centre
#                                CCDC 
#
#######################################################################
#
# If this CIF has been generated from an entry in the Cambridge 
# Structural Database, then it will include bibliographic, chemical, 
# crystal, experimental, refinement or atomic coordinate data resulting 
# from the CCDC's data processing and validation procedures.
#
#######################################################################

data_HAHHEF
_chemical_formula_moiety         'C26 H36 N2 O4'
_chemical_name_systematic        
N,N'-bis(3-Ethoxy-2-hydroxybenzylidene)octane-1,8-diamine
_symmetry_cell_setting           triclinic
_symmetry_space_group_name_H-M   'P -1'
_symmetry_Int_Tables_number      2
_space_group_name_Hall           '-P 1'
loop_
_symmetry_equiv_pos_site_id
_symmetry_equiv_pos_as_xyz
1 x,y,z
2 -x,-y,-z
_cell_length_a                   6.9046(12)
_cell_length_b                   6.9097(12)
_cell_length_c                   12.981(2)
_cell_angle_alpha                90.123(4)
_cell_angle_beta                 101.625(4)
_cell_angle_gamma                101.530(4)
_cell_volume                     593.781
_exptl_crystal_colour            yellow
_exptl_crystal_description       block
_cell_formula_units_Z            1
loop_
_atom_site_label
_atom_site_type_symbol
_atom_site_fract_x
_atom_site_fract_y
_atom_site_fract_z
O1 O 0.8686(2) 0.2066(3) 0.27558(14)
H1 H 0.891(5) 0.315(5) 0.239(3)
O2 O 0.9083(2) -0.1104(2) 0.38002(13)
N1 N 1.0187(3) 0.4985(3) 0.17339(15)
C1 C 1.2130(3) 0.2659(3) 0.25218(17)
C2 C 1.0519(3) 0.1573(3) 0.29068(17)
C3 C 1.0779(3) -0.0123(3) 0.34787(17)
C4 C 1.2636(3) -0.0671(3) 0.36711(18)
H2 H 1.2818 -0.1797 0.4069
C5 C 1.4243(4) 0.0423(3) 0.32822(19)
H3 H 1.5514 0.0040 0.3413
C6 C 1.3983(4) 0.2056(3) 0.27093(18)
H4 H 1.5075 0.2784 0.2437
C7 C 0.9198(4) -0.2918(3) 0.43249(19)
H5 H 1.0172 -0.2662 0.5007
H6 H 0.9641 -0.3849 0.3886
C8 C 0.7105(4) -0.3766(4) 0.4495(2)
H7 H 0.6702 -0.2843 0.4945
H8 H 0.7100 -0.5031 0.4836
H9 H 0.6153 -0.3977 0.3815
C9 C 1.1857(3) 0.4415(3) 0.19222(18)
H10 H 1.2966 0.5151 0.1666
C10 C 0.9961(4) 0.6763(3) 0.11432(19)
H11 H 1.0304 0.6627 0.0446
H12 H 1.0894 0.7933 0.1529
C11 C 0.7806(4) 0.7036(3) 0.1005(2)
H13 H 0.7477 0.7134 0.1709
H14 H 0.6893 0.5848 0.0625
C12 C 0.7395(3) 0.8853(3) 0.04068(18)
H15 H 0.8302 1.0046 0.0785
H16 H 0.7711 0.8757 -0.0300
C13 C 0.5229(4) 0.9082(3) 0.0286(2)
H17 H 0.4909 0.9135 0.0994
H18 H 0.4331 0.7898 -0.0105
O1A O 0.1314(2) 1.7934(3) -0.27558(14)
H1A H 0.109(5) 1.685(5) -0.239(3)
O2A O 0.0917(2) 2.1104(2) -0.38002(13)
N1A N -0.0187(3) 1.5015(3) -0.17339(15)
C1A C -0.2130(3) 1.7341(3) -0.25218(17)
C2A C -0.0519(3) 1.8427(3) -0.29068(17)
C3A C -0.0779(3) 2.0123(3) -0.34787(17)
C4A C -0.2636(3) 2.0671(3) -0.36711(18)
H2A H -0.2818 2.1797 -0.4069
C5A C -0.4243(4) 1.9577(3) -0.32822(19)
H3A H -0.5514 1.9960 -0.3413
C6A C -0.3983(4) 1.7944(3) -0.27093(18)
H4A H -0.5075 1.7216 -0.2437
C7A C 0.0802(4) 2.2918(3) -0.43249(19)
H5A H -0.0172 2.2662 -0.5007
H6A H 0.0359 2.3849 -0.3886
C8A C 0.2895(4) 2.3766(4) -0.4495(2)
H7A H 0.3298 2.2843 -0.4945
H8A H 0.2900 2.5031 -0.4836
H9A H 0.3847 2.3977 -0.3815
C9A C -0.1857(3) 1.5585(3) -0.19222(18)
H10A H -0.2966 1.4849 -0.1666
C10A C 0.0039(4) 1.3237(3) -0.11432(19)
H11A H -0.0304 1.3373 -0.0446
H12A H -0.0894 1.2067 -0.1529
C11A C 0.2194(4) 1.2964(3) -0.1005(2)
H13A H 0.2523 1.2866 -0.1709
H14A H 0.3107 1.4152 -0.0625
C12A C 0.2605(3) 1.1147(3) -0.04068(18)
H15A H 0.1698 0.9954 -0.0785
H16A H 0.2289 1.1243 0.0300
C13A C 0.4771(4) 1.0918(3) -0.0286(2)
H17A H 0.5091 1.0865 -0.0994
H18A H 0.5669 1.2102 0.0105
loop_
_geom_bond_atom_site_label_1
_geom_bond_atom_site_label_2
_geom_bond_site_symmetry_1
_geom_bond_site_symmetry_2
O1 H1 1_555 1_555
O2 C3 1_555 1_555
N1 C9 1_555 1_555
C1 C2 1_555 1_555
C2 O1 1_555 1_555
C3 C2 1_555 1_555
C4 C3 1_555 1_555
H2 C4 1_555 1_555
C5 C4 1_555 1_555
H3 C5 1_555 1_555
C6 C1 1_555 1_555
H4 C6 1_555 1_555
C7 O2 1_555 1_555
H5 C7 1_555 1_555
H6 C7 1_555 1_555
C8 C7 1_555 1_555
H7 C8 1_555 1_555
H8 C8 1_555 1_555
H9 C8 1_555 1_555
C9 C1 1_555 1_555
H10 C9 1_555 1_555
C10 N1 1_555 1_555
H11 C10 1_555 1_555
H12 C10 1_555 1_555
C11 C10 1_555 1_555
H13 C11 1_555 1_555
H14 C11 1_555 1_555
C12 C11 1_555 1_555
H15 C12 1_555 1_555
H16 C12 1_555 1_555
C13 C12 1_555 1_555
H17 C13 1_555 1_555
H18 C13 1_555 1_555
O1A H1A 1_555 1_555
O2A C3A 1_555 1_555
N1A C9A 1_555 1_555
C1A C2A 1_555 1_555
C2A O1A 1_555 1_555
C3A C2A 1_555 1_555
C4A C3A 1_555 1_555
H2A C4A 1_555 1_555
C5A C4A 1_555 1_555
H3A C5A 1_555 1_555
C6A C1A 1_555 1_555
H4A C6A 1_555 1_555
C7A O2A 1_555 1_555
H5A C7A 1_555 1_555
H6A C7A 1_555 1_555
C8A C7A 1_555 1_555
H7A C8A 1_555 1_555
H8A C8A 1_555 1_555
H9A C8A 1_555 1_555
C9A C1A 1_555 1_555
H10A C9A 1_555 1_555
C10A N1A 1_555 1_555
H11A C10A 1_555 1_555
H12A C10A 1_555 1_555
C11A C10A 1_555 1_555
H13A C11A 1_555 1_555
H14A C11A 1_555 1_555
C12A C11A 1_555 1_555
H15A C12A 1_555 1_555
H16A C12A 1_555 1_555
C13A C13 1_555 1_555
H17A C13A 1_555 1_555
H18A C13A 1_555 1_555
C5 C6 1_555 1_555
C5A C6A 1_555 1_555
C12A C13A 1_555 1_555

#END
