
#######################################################################
#
#                 Cambridge Crystallographic Data Centre
#                                CCDC 
#
#######################################################################
#
# If this CIF has been generated from an entry in the Cambridge 
# Structural Database, then it will include bibliographic, chemical, 
# crystal, experimental, refinement or atomic coordinate data resulting 
# from the CCDC's data processing and validation procedures.
#
#######################################################################

data_HAHNOW
_chemical_formula_moiety         'C26 H21 O3 P1,C1 H1 Cl3'
_chemical_name_systematic        
'3-Phenyl-9,16-dioxa-3-phosphatricyclo[15.2.2.2^5,8^]tricosa-1(19),5,7,17,20,22-hexaene-11,13-diyne 3-oxide chloroform solvate'
_symmetry_cell_setting           triclinic
_symmetry_space_group_name_H-M   'P 1'
_symmetry_Int_Tables_number      1
_space_group_name_Hall           'P 1'
loop_
_symmetry_equiv_pos_site_id
_symmetry_equiv_pos_as_xyz
1 x,y,z
_cell_length_a                   9.2370(17)
_cell_length_b                   10.369(2)
_cell_length_c                   13.642(3)
_cell_angle_alpha                88.070(2)
_cell_angle_beta                 78.415(2)
_cell_angle_gamma                88.628(3)
_cell_volume                     1279.07
_exptl_crystal_colour            colorless
_exptl_crystal_description       block
_cell_formula_units_Z            2
loop_
_atom_site_label
_atom_site_type_symbol
_atom_site_fract_x
_atom_site_fract_y
_atom_site_fract_z
C1 C 0.8662(6) 0.4656(5) -0.2726(4)
C2 C 0.7985(8) 0.4351(6) -0.3501(4)
H1 H 0.7232 0.3753 -0.3387
C3 C 0.8407(9) 0.4919(7) -0.4443(5)
H2 H 0.7917 0.4717 -0.4949
C4 C 0.9545(8) 0.5778(6) -0.4638(5)
H3 H 0.9839 0.6143 -0.5278
C5 C 1.0237(10) 0.6092(9) -0.3895(6)
H4 H 1.0999 0.6683 -0.4023
C6 C 0.9809(10) 0.5529(7) -0.2931(5)
H5 H 1.0297 0.5742 -0.2426
C7 C 0.9687(7) 0.3755(6) -0.0991(4)
H6 H 1.0425 0.3281 -0.1458
H7 H 1.0062 0.4614 -0.0956
C8 C 0.9703(6) 0.1769(6) 0.0135(4)
H8 H 0.9832 0.1265 -0.0429
C9 C 0.9545(6) 0.3101(5) 0.0031(4)
C10 C 0.9321(6) 0.3820(5) 0.0885(4)
H9 H 0.9183 0.4709 0.0830
C11 C 0.9298(6) 0.3248(5) 0.1828(4)
H10 H 0.9153 0.3746 0.2395
C12 C 0.9494(6) 0.1927(5) 0.1904(4)
C13 C 0.9671(6) 0.1184(5) 0.1065(4)
H11 H 0.9769 0.0292 0.1125
C14 C 0.9242(6) 0.1989(6) 0.3688(4)
H12 H 0.9879 0.2732 0.3605
H13 H 0.9460 0.1457 0.4240
C15 C 0.7701(7) 0.2426(5) 0.3926(4)
C16 C 0.6425(6) 0.2806(5) 0.4038(4)
C17 C 0.5059(6) 0.3345(5) 0.4042(4)
C18 C 0.3925(6) 0.3856(5) 0.3931(4)
C19 C 0.2634(6) 0.4455(6) 0.3615(4)
H14 H 0.1749 0.4263 0.4109
H15 H 0.2741 0.5385 0.3562
C20 C 0.3626(6) 0.4272(5) 0.1851(4)
C21 C 0.4618(7) 0.5248(6) 0.1822(4)
H16 H 0.4586 0.5745 0.2381
C22 C 0.3670(7) 0.3531(6) 0.1018(5)
H17 H 0.3000 0.2871 0.1037
C23 C 0.4716(7) 0.3780(6) 0.0158(5)
H18 H 0.4743 0.3278 -0.0398
C24 C 0.5735(6) 0.4766(5) 0.0106(4)
C25 C 0.5667(7) 0.5489(6) 0.0956(4)
H19 H 0.6338 0.6147 0.0945
C26 C 0.6778(7) 0.5125(5) -0.0860(4)
H20 H 0.7378 0.5826 -0.0722
H21 H 0.6185 0.5465 -0.1324
O1 O 0.7310(4) 0.2632(3) -0.1576(3)
O2 O 0.2498(4) 0.3975(4) 0.2666(3)
O3 O 0.9552(4) 0.1268(3) 0.2797(3)
P1 P 0.80272(15) 0.39010(12) -0.15043(9)
C27 C 0.1555(6) 0.9924(5) 0.4914(4)
C28 C 0.0211(6) 0.9323(6) 0.5190(4)
H22 H 0.0049 0.8559 0.4894
C29 C -0.0908(7) 0.9861(6) 0.5914(4)
H23 H -0.1819 0.9462 0.6089
C30 C -0.0665(7) 1.0984(6) 0.6372(4)
H24 H -0.1407 1.1331 0.6861
C31 C 0.0669(7) 1.1586(6) 0.6105(4)
H25 H 0.0820 1.2350 0.6406
C32 C 0.1787(6) 1.1072(5) 0.5395(4)
H26 H 0.2695 1.1476 0.5231
C33 C 0.4566(6) 0.9124(6) 0.4516(4)
H27 H 0.4889 0.9996 0.4573
H28 H 0.4270 0.8763 0.5190
C34 C 0.3206(6) 1.0459(5) 0.2973(4)
H29 H 0.2239 1.0798 0.2913
H30 H 0.3740 1.1159 0.3185
C35 C 0.4007(6) 1.0078(5) 0.1952(4)
C36 C 0.3288(7) 0.9283(7) 0.1401(4)
H31 H 0.2346 0.8993 0.1681
C37 C 0.3950(8) 0.8923(7) 0.0452(4)
H32 H 0.3468 0.8371 0.0105
C38 C 0.6038(7) 1.0216(6) 0.0528(4)
H33 H 0.6948 1.0559 0.0231
C39 C 0.5338(6) 0.9382(6) 0.0011(4)
C40 C 0.5362(7) 1.0533(6) 0.1498(4)
H34 H 0.5849 1.1075 0.1850
C41 C 0.7387(7) 0.9300(7) -0.1384(4)
H35 H 0.7507 1.0227 -0.1384
H36 H 0.7623 0.9032 -0.2074
C42 C 0.5873(6) 0.8348(5) 0.3987(4)
C43 C 0.7185(6) 0.8922(5) 0.3545(4)
H37 H 0.7247 0.9816 0.3544
C44 C 0.8412(6) 0.8203(5) 0.3104(4)
H38 H 0.9291 0.8609 0.2821
C45 C 0.8317(6) 0.6877(5) 0.3088(4)
C46 C 0.6992(6) 0.6279(5) 0.3493(4)
H39 H 0.6911 0.5390 0.3454
C47 C 0.5787(6) 0.7017(5) 0.3956(4)
H40 H 0.4912 0.6613 0.4249
C48 C 0.8404(7) 0.8660(6) -0.0823(4)
C49 C 0.9115(7) 0.8153(5) -0.0258(4)
C50 C 0.9794(6) 0.7618(5) 0.0465(4)
C51 C 1.0292(6) 0.7164(5) 0.1151(4)
C52 C 1.0720(6) 0.6570(6) 0.2045(4)
H41 H 1.1452 0.5892 0.1847
H42 H 1.1159 0.7213 0.2389
O4 O 0.5887(5) 0.8992(4) -0.0957(3)
O5 O 0.9462(4) 0.6039(3) 0.2707(3)
O6 O 0.2487(4) 0.7951(3) 0.3647(3)
P2 P 0.29505(13) 0.92181(12) 0.39550(9)
C53 C 0.4510(7) 0.1997(6) 0.7634(5)
H43 H 0.5323 0.2244 0.7949
Cl1 Cl 0.3869(3) 0.3386(2) 0.7071(2)
Cl2 Cl 0.3120(2) 0.1354(2) 0.85595(14)
Cl3 Cl 0.51951(19) 0.08566(18) 0.67229(13)
C54 C 0.3729(7) 0.7652(7) 0.7798(5)
H44 H 0.4114 0.8319 0.8164
Cl4 Cl 0.3088(2) 0.63884(18) 0.86467(13)
Cl5 Cl 0.5181(2) 0.7114(2) 0.68518(14)
Cl6 Cl 0.2289(2) 0.83457(18) 0.72806(14)
loop_
_geom_bond_atom_site_label_1
_geom_bond_atom_site_label_2
_geom_bond_site_symmetry_1
_geom_bond_site_symmetry_2
C1 C2 1_555 1_555
C2 H1 1_555 1_555
C3 C2 1_555 1_555
H2 C3 1_555 1_555
C4 C3 1_555 1_555
H3 C4 1_555 1_555
C5 C4 1_555 1_555
H4 C5 1_555 1_555
C6 C1 1_555 1_555
H5 C6 1_555 1_555
C7 H6 1_555 1_555
H7 C7 1_555 1_555
C8 H8 1_555 1_555
C9 C7 1_555 1_555
C10 C9 1_555 1_555
H9 C10 1_555 1_555
C11 C10 1_555 1_555
H10 C11 1_555 1_555
C12 C11 1_555 1_555
C13 C8 1_555 1_555
H11 C13 1_555 1_555
C14 H12 1_555 1_555
H13 C14 1_555 1_555
C15 C14 1_555 1_555
C16 C15 1_555 1_555
C17 C16 1_555 1_555
C18 C17 1_555 1_555
C19 C18 1_555 1_555
H14 C19 1_555 1_555
H15 C19 1_555 1_555
C20 C21 1_555 1_555
C21 H16 1_555 1_555
C22 C20 1_555 1_555
H17 C22 1_555 1_555
C23 C22 1_555 1_555
H18 C23 1_555 1_555
C24 C23 1_555 1_555
C25 C21 1_555 1_555
H19 C25 1_555 1_555
C26 C24 1_555 1_555
H20 C26 1_555 1_555
H21 C26 1_555 1_555
O1 P1 1_555 1_555
O2 C19 1_555 1_555
O3 C12 1_555 1_555
P1 C1 1_555 1_555
C27 C28 1_555 1_555
C28 H22 1_555 1_555
C29 C28 1_555 1_555
H23 C29 1_555 1_555
C30 C29 1_555 1_555
H24 C30 1_555 1_555
C31 C30 1_555 1_555
H25 C31 1_555 1_555
C32 C27 1_555 1_555
H26 C32 1_555 1_555
C33 H27 1_555 1_555
H28 C33 1_555 1_555
C34 H29 1_555 1_555
H30 C34 1_555 1_555
C35 C34 1_555 1_555
C36 C35 1_555 1_555
H31 C36 1_555 1_555
C37 C36 1_555 1_555
H32 C37 1_555 1_555
C38 H33 1_555 1_555
C39 C37 1_555 1_555
C40 C35 1_555 1_555
H34 C40 1_555 1_555
C41 H35 1_555 1_555
H36 C41 1_555 1_555
C42 C33 1_555 1_555
C43 C42 1_555 1_555
H37 C43 1_555 1_555
C44 C43 1_555 1_555
H38 C44 1_555 1_555
C45 C44 1_555 1_555
C46 C45 1_555 1_555
H39 C46 1_555 1_555
C47 C42 1_555 1_555
H40 C47 1_555 1_555
C48 C41 1_555 1_555
C49 C48 1_555 1_555
C50 C49 1_555 1_555
C51 C50 1_555 1_555
C52 C51 1_555 1_555
H41 C52 1_555 1_555
H42 C52 1_555 1_555
O4 C39 1_555 1_555
O5 C45 1_555 1_555
O6 P2 1_555 1_555
P2 C27 1_555 1_555
C53 H43 1_555 1_555
Cl1 C53 1_555 1_555
Cl2 C53 1_555 1_555
Cl3 C53 1_555 1_555
C54 H44 1_555 1_555
Cl4 C54 1_555 1_555
Cl5 C54 1_555 1_555
Cl6 C54 1_555 1_555
C5 C6 1_555 1_555
C7 P1 1_555 1_555
C8 C9 1_555 1_555
C12 C13 1_555 1_555
C14 O3 1_555 1_555
C20 O2 1_555 1_555
C24 C25 1_555 1_555
C26 P1 1_555 1_555
C31 C32 1_555 1_555
C33 P2 1_555 1_555
C34 P2 1_555 1_555
C38 C39 1_555 1_555
C38 C40 1_555 1_555
C41 O4 1_555 1_555
C46 C47 1_555 1_555
C52 O5 1_555 1_555

#END
