
#######################################################################
#
#                 Cambridge Crystallographic Data Centre
#                                CCDC 
#
#######################################################################
#
# If this CIF has been generated from an entry in the Cambridge 
# Structural Database, then it will include bibliographic, chemical, 
# crystal, experimental, refinement or atomic coordinate data resulting 
# from the CCDC's data processing and validation procedures.
#
#######################################################################

data_HAHVES
_chemical_formula_moiety         'C16 H26 N4,2(C42 H70 O35),23(H2 O1)'
_chemical_name_systematic        
'(3)-bis(\b-Cyclodextrin)-(1,10-bis(imidazol-1-yl)decane)-pseudorotaxane hydrate'
_symmetry_cell_setting           triclinic
_symmetry_space_group_name_H-M   'P 1'
_symmetry_Int_Tables_number      1
_space_group_name_Hall           'P 1'
loop_
_symmetry_equiv_pos_site_id
_symmetry_equiv_pos_as_xyz
1 x,y,z
_cell_length_a                   15.435(3)
_cell_length_b                   15.466(2)
_cell_length_c                   17.949(3)
_cell_angle_alpha                99.31(1)
_cell_angle_beta                 113.16(1)
_cell_angle_gamma                103.11(1)
_cell_volume                     3682.97
_exptl_crystal_colour            colorless
_cell_formula_units_Z            1
loop_
_atom_site_label
_atom_site_type_symbol
_atom_site_fract_x
_atom_site_fract_y
_atom_site_fract_z
N1 N 0.3965(3) 0.1541(3) 0.3689(3)
C1 C 0.4155(4) 0.0730(4) 0.3400(3)
H1 H 0.3994 0.0174 0.3529
C2 C 0.4626(4) 0.0904(4) 0.2889(3)
H2 H 0.4819 0.0482 0.2611
N2 N 0.4757(3) 0.1840(3) 0.2867(3)
C3 C 0.4334(4) 0.2214(4) 0.3355(3)
H3 H 0.4303 0.2814 0.3442
C4 C 0.3480(4) 0.1679(4) 0.4246(3)
H4 H 0.3096 0.1088 0.4247
H5 H 0.3039 0.2039 0.4057
C5 C 0.4312(4) 0.2190(4) 0.5118(3)
H6 H 0.4058 0.2349 0.5466
H7 H 0.4592 0.2825 0.5133
C6 C 0.5129(4) 0.1757(4) 0.5372(3)
H8 H 0.5475 0.1815 0.5024
H9 H 0.4863 0.1107 0.5322
C7 C 0.5815(4) 0.2295(4) 0.6281(3)
H10 H 0.6139 0.2925 0.6313
H11 H 0.6324 0.2014 0.6519
C8 C 0.5217(4) 0.2298(4) 0.6774(3)
H12 H 0.5150 0.2905 0.6909
H13 H 0.4563 0.2051 0.6747
C9 C 0.5746(4) 0.2051(3) 0.7575(3)
H14 H 0.6367 0.2093 0.7675
H15 H 0.5494 0.1391 0.7490
C10 C 0.5559(4) 0.2574(3) 0.8249(3)
H16 H 0.4855 0.2369 0.8100
H17 H 0.5763 0.3231 0.8299
C11 C 0.6142(4) 0.2403(3) 0.9079(3)
H18 H 0.6100 0.2799 0.9534
H19 H 0.5872 0.1764 0.9059
C12 C 0.7210(4) 0.2612(3) 0.9232(3)
H20 H 0.7471 0.3261 0.9275
H21 H 0.7485 0.2367 0.8876
C13 C 0.7891(4) 0.2415(4) 1.0009(3)
H22 H 0.7767 0.1755 0.9928
H23 H 0.8583 0.2711 1.0152
N3 N 0.7633(3) 0.2816(3) 1.0670(3)
C14 C 0.7024(4) 0.2326(4) 1.0985(3)
H24 H 0.6666 0.1697 1.0781
C15 C 0.7057(4) 0.2959(4) 1.1662(3)
H25 H 0.6734 0.2817 1.1990
N4 N 0.7662(3) 0.3846(3) 1.1761(3)
C16 C 0.8019(4) 0.3755(4) 1.1147(3)
H26 H 0.8437 0.4231 1.1070
C17 C 0.8844(2) 0.1508(2) 0.53358(18)
H27 H 0.9141 0.1020 0.5281
C18 C 0.9554(2) 0.2294(2) 0.61884(18)
H28 H 1.0194 0.2575 0.6194
C19 C 0.9056(2) 0.3011(2) 0.62689(18)
H29 H 0.8411 0.2720 0.6249
C20 C 0.8900(2) 0.3433(2) 0.55230(19)
H30 H 0.9537 0.3791 0.5565
C21 C 0.8292(2) 0.2659(2) 0.46743(19)
H31 H 0.7616 0.2378 0.4599
C22 C 0.8260(2) 0.3083(2) 0.39829(19)
H32 H 0.7963 0.3572 0.3995
H33 H 0.7862 0.2622 0.3440
C23 C 0.5959(2) -0.1479(2) 0.47343(18)
H34 H 0.5685 -0.2155 0.4555
C24 C 0.6908(2) -0.1206(2) 0.55525(18)
H35 H 0.7376 -0.1495 0.5463
C25 C 0.7376(2) -0.0123(2) 0.58279(18)
H36 H 0.6911 0.0172 0.5915
C26 C 0.7569(2) 0.0113(2) 0.50936(18)
H37 H 0.8048 -0.0160 0.5006
C27 C 0.6558(2) -0.0203(2) 0.42823(17)
H38 H 0.6086 0.0098 0.4345
C28 C 0.6804(2) -0.0034(2) 0.35398(18)
H39 H 0.6187 -0.0270 0.3021
H40 H 0.7057 0.0629 0.3634
C29 C 0.2278(2) -0.1960(2) 0.43741(18)
H41 H 0.1602 -0.2338 0.4232
C30 C 0.3071(2) -0.2088(2) 0.51643(18)
H42 H 0.3040 -0.2737 0.5026
C31 C 0.4105(2) -0.1522(2) 0.53984(18)
H43 H 0.4182 -0.0861 0.5540
C32 C 0.4297(2) -0.1787(2) 0.46580(19)
H44 H 0.4309 -0.2426 0.4563
C33 C 0.3519(2) -0.1659(2) 0.38477(18)
H45 H 0.3594 -0.1002 0.3906
C34 C 0.3577(2) -0.2085(2) 0.30751(19)
H46 H 0.3018 -0.2064 0.2587
H47 H 0.4180 -0.1717 0.3080
C35 C 0.0611(2) 0.0686(2) 0.43971(18)
H48 H 0.0021 0.0885 0.4268
C36 C 0.0742(2) 0.0192(2) 0.51306(19)
H49 H 0.0150 -0.0346 0.4937
C37 C 0.1652(2) -0.0147(2) 0.52564(19)
H50 H 0.2248 0.0391 0.5464
C38 C 0.1508(2) -0.0742(2) 0.44609(19)
H51 H 0.0950 -0.1310 0.4272
C39 C 0.1307(2) -0.0224(2) 0.37897(18)
H52 H 0.1902 0.0306 0.3969
C40 C 0.1084(2) -0.0828(2) 0.29323(19)
H53 H 0.1638 -0.1041 0.2964
H54 H 0.0940 -0.0493 0.2509
C41 C 0.2196(2) 0.4308(2) 0.49765(18)
H55 H 0.2071 0.4895 0.4981
C42 C 0.1930(2) 0.3964(2) 0.56381(18)
H56 H 0.1238 0.3918 0.5501
C43 C 0.2054(2) 0.3025(2) 0.56353(17)
H57 H 0.2737 0.3048 0.5755
C44 C 0.1296(2) 0.2359(2) 0.47434(18)
H58 H 0.0651 0.2276 0.4689
C45 C 0.1562(2) 0.2759(2) 0.40909(18)
H59 H 0.2220 0.2743 0.4162
C46 C 0.0735(2) 0.2158(2) 0.31831(18)
H60 H 0.0879 0.2384 0.2757
H61 H 0.0723 0.1519 0.3103
C47 C 0.5763(2) 0.6213(2) 0.55023(17)
H62 H 0.6253 0.6782 0.5563
C48 C 0.5486(2) 0.6396(2) 0.62081(17)
H63 H 0.5180 0.6887 0.6157
C49 C 0.4737(2) 0.5518(2) 0.61804(17)
H64 H 0.5025 0.5014 0.6231
C50 C 0.3797(2) 0.5260(2) 0.52622(17)
H65 H 0.3493 0.5743 0.5235
C51 C 0.4117(2) 0.5110(2) 0.45536(17)
H66 H 0.4351 0.4572 0.4539
C52 C 0.3301(2) 0.5011(2) 0.37136(18)
H67 H 0.3569 0.5026 0.3308
H68 H 0.2800 0.4412 0.3530
C53 C 0.8724(2) 0.4949(2) 0.55862(19)
H69 H 0.9373 0.5041 0.5586
C54 C 0.8811(2) 0.5617(2) 0.63522(18)
H70 H 0.9087 0.6250 0.6343
C55 C 0.7828(2) 0.5510(2) 0.63448(18)
H71 H 0.7538 0.4888 0.6368
C56 C 0.7172(2) 0.5692(2) 0.55862(18)
H72 H 0.7428 0.6334 0.5589
C57 C 0.7039(2) 0.5005(2) 0.47796(19)
H73 H 0.6697 0.4369 0.4738
C58 C 0.6497(2) 0.5259(2) 0.39551(19)
H74 H 0.6554 0.4884 0.3499
H75 H 0.5796 0.5110 0.3815
O1 O 0.96878(16) 0.18417(14) 0.68350(13)
H76 H 0.9224 0.1360 0.6661
O2 O 0.96557(16) 0.36969(15) 0.70318(13)
H77 H 1.0224 0.3877 0.7084
O3 O 0.83211(16) 0.40271(14) 0.56161(13)
O4 O 0.87667(16) 0.19752(15) 0.46631(13)
O5 O 0.92961(17) 0.34666(16) 0.41076(13)
H78 H 0.9581 0.3080 0.4200
O6 O 0.66982(16) -0.14805(15) 0.61894(13)
H79 H 0.7018 -0.1820 0.6372
O7 O 0.82615(16) 0.01462(15) 0.65667(13)
H80 H 0.8497 -0.0279 0.6594
O8 O 0.79305(16) 0.11457(14) 0.53084(13)
O9 O 0.61906(16) -0.12045(14) 0.40921(12)
O10 O 0.74626(16) -0.04121(14) 0.34211(13)
H81 H 0.7435 -0.0958 0.3613
O11 O 0.28180(17) -0.19452(15) 0.58433(14)
H82 H 0.3226 -0.1475 0.6213
O12 O 0.47756(16) -0.17373(15) 0.60898(13)
H83 H 0.5346 -0.1503 0.6164
O13 O 0.52597(16) -0.11442(14) 0.48349(13)
O14 O 0.25379(16) -0.21614(13) 0.37037(12)
O15 O 0.35742(16) -0.30171(15) 0.29837(13)
H84 H 0.3094 -0.3324 0.3024
O16 O 0.08678(17) 0.07699(14) 0.58485(13)
H85 H 0.0489 0.0441 0.6089
O17 O 0.17777(17) -0.06486(15) 0.58913(13)
H86 H 0.2364 -0.0612 0.6137
O18 O 0.24111(16) -0.09663(14) 0.45789(13)
O19 O 0.04929(16) 0.01134(14) 0.36879(12)
O20 O 0.01554(16) -0.16486(14) 0.27273(13)
H87 H -0.0059 -0.1536 0.3071
O21 O 0.25734(16) 0.46064(14) 0.64514(12)
H88 H 0.2309 0.4489 0.6841
O22 O 0.17752(16) 0.26779(15) 0.62256(12)
H89 H 0.1998 0.2254 0.6327
O23 O 0.14913(16) 0.15068(15) 0.47402(12)
O24 O 0.15172(16) 0.36801(14) 0.41654(13)
O25 O -0.01925(16) 0.22147(15) 0.30996(13)
H90 H -0.0156 0.2802 0.3425
O26 O 0.63168(16) 0.66730(15) 0.69928(13)
H91 H 0.6622 0.6300 0.7014
O27 O 0.44227(16) 0.56842(15) 0.67769(13)
H92 H 0.4163 0.6192 0.6725
O28 O 0.31764(16) 0.43744(14) 0.51833(12)
O29 O 0.49510(15) 0.59944(14) 0.47205(12)
O30 O 0.28440(17) 0.57001(15) 0.37117(14)
H93 H 0.3214 0.6185 0.3731
O31 O 0.95310(16) 0.54419(15) 0.70843(13)
H94 H 0.9453 0.5626 0.7501
O32 O 0.79794(17) 0.62212(15) 0.70888(14)
H95 H 0.8288 0.6093 0.7522
O33 O 0.62273(15) 0.55111(14) 0.55761(12)
O34 O 0.80235(15) 0.50917(14) 0.48363(12)
O35 O 0.68518(17) 0.61337(16) 0.40125(13)
H96 H 0.7147 0.6188 0.3634
C59 C 1.0935(2) 0.5293(2) 1.02532(19)
H97 H 1.1380 0.5928 1.0428
C60 C 1.0908(2) 0.4727(2) 0.94602(19)
H98 H 1.1579 0.4707 0.9580
C61 C 1.0187(2) 0.3709(2) 0.92021(18)
H99 H 0.9512 0.3709 0.9092
C62 C 1.0635(2) 0.3352(2) 0.99527(18)
H100 H 1.1280 0.3296 1.0022
C63 C 1.0749(2) 0.3971(2) 1.07560(19)
H101 H 1.0090 0.3938 1.0714
C64 C 1.1335(2) 0.3735(2) 1.15371(19)
H102 H 1.1469 0.4215 1.2026
H103 H 1.0936 0.3160 1.1551
C65 C 0.8297(2) 0.6998(2) 1.02269(19)
H104 H 0.8121 0.7560 1.0338
C66 C 0.8664(2) 0.7011(2) 0.95105(19)
H105 H 0.9251 0.7556 0.9708
C67 C 0.8940(2) 0.6172(2) 0.93891(19)
H106 H 0.8358 0.5626 0.9201
C68 C 0.9776(2) 0.6150(2) 1.01948(19)
H107 H 1.0383 0.6656 1.0348
C69 C 0.9446(2) 0.6279(2) 1.08879(19)
H108 H 0.8887 0.5722 1.0733
C70 C 1.0222(2) 0.6333(2) 1.1750(2)
H109 H 0.9928 0.6361 1.2138
H110 H 1.0393 0.5766 1.1712
C71 C 0.4606(2) 0.5591(2) 0.97739(18)
H111 H 0.4007 0.5690 0.9789
C72 C 0.4772(2) 0.5942(2) 0.90681(18)
H112 H 0.4834 0.6599 0.9190
C73 C 0.5681(2) 0.5874(2) 0.90580(18)
H113 H 0.5626 0.5219 0.8909
C74 C 0.6582(2) 0.6368(2) 0.99549(18)
H114 H 0.6675 0.7032 1.0092
C75 C 0.6356(2) 0.5976(2) 1.05992(19)
H115 H 0.6381 0.5342 1.0537
C76 C 0.7048(2) 0.6572(2) 1.1487(2)
H116 H 0.6872 0.6296 1.1878
H117 H 0.7722 0.6585 1.1609
C77 C 0.2451(2) 0.2101(2) 0.91814(18)
H118 H 0.1870 0.1637 0.9137
C78 C 0.2118(2) 0.2544(2) 0.84388(18)
H119 H 0.1646 0.2858 0.8480
C79 C 0.3104(2) 0.3283(2) 0.85824(18)
H120 H 0.3587 0.2985 0.8545
C80 C 0.3520(2) 0.3966(2) 0.94120(18)
H121 H 0.3060 0.4301 0.9439
C81 C 0.3798(2) 0.3479(2) 1.01240(18)
H122 H 0.4332 0.3224 1.0149
C82 C 0.4078(2) 0.4136(2) 1.09689(19)
H123 H 0.4150 0.3786 1.1380
H124 H 0.4721 0.4589 1.1150
C83 C 0.3626(2) -0.0877(2) 0.89966(19)
H125 H 0.3541 -0.1526 0.8992
C84 C 0.2787(2) -0.0831(2) 0.82326(19)
H126 H 0.2151 -0.1096 0.8240
C85 C 0.2957(2) 0.0191(2) 0.82481(19)
H127 H 0.3580 0.0466 0.8223
C86 C 0.2936(2) 0.0719(2) 0.90546(19)
H128 H 0.2291 0.0475 0.9054
C87 C 0.3780(2) 0.0603(2) 0.98050(19)
H129 H 0.4435 0.0911 0.9850
C88 C 0.3694(2) 0.0952(2) 1.06245(19)
H130 H 0.4111 0.0729 1.1062
H131 H 0.3955 0.1622 1.0806
C89 C 0.7153(2) -0.1051(2) 0.92792(18)
H132 H 0.7651 -0.1365 0.9336
C90 C 0.6176(2) -0.1554(2) 0.84205(18)
H133 H 0.5888 -0.2190 0.8414
C91 C 0.5466(2) -0.1057(2) 0.83656(18)
H134 H 0.5742 -0.0423 0.8360
C92 C 0.5170(2) -0.1047(2) 0.90513(18)
H135 H 0.4820 -0.1677 0.9016
C93 C 0.6117(2) -0.0615(2) 0.99021(18)
H136 H 0.6397 0.0051 0.9997
C94 C 0.5861(2) -0.0810(2) 1.06050(19)
H137 H 0.6456 -0.0527 1.1138
H138 H 0.5377 -0.0512 1.0621
C95 C 1.0357(2) 0.1695(2) 0.98839(18)
H139 H 1.1074 0.1905 1.0055
C96 C 0.9767(2) 0.0944(2) 0.90460(18)
H140 H 1.0031 0.0426 0.9102
C97 C 0.8643(2) 0.0567(2) 0.87771(18)
H141 H 0.8322 0.1045 0.8689
C98 C 0.8583(2) 0.0204(2) 0.94625(18)
H142 H 0.8869 -0.0301 0.9508
C99 C 0.9129(2) 0.0982(2) 1.03249(19)
H143 H 0.8833 0.1480 1.0270
C100 C 0.9052(2) 0.0628(2) 1.10168(19)
H144 H 0.9428 0.1122 1.1541
H145 H 0.8361 0.0443 1.0913
O36 O 1.05687(17) 0.51149(15) 0.87809(14)
H146 H 1.0041 0.4753 0.8404
O37 O 1.01847(16) 0.31637(14) 0.84884(13)
H147 H 1.0653 0.2835 0.8668
O38 O 0.99107(15) 0.24174(14) 0.97458(12)
O39 O 1.12636(16) 0.48555(15) 1.08826(13)
O40 O 1.22285(17) 0.36402(16) 1.15950(14)
H148 H 1.2691 0.4238 1.1721
O41 O 0.78801(16) 0.70688(15) 0.87754(13)
H149 H 0.8133 0.7223 0.8387
O42 O 0.92996(17) 0.61624(16) 0.87311(14)
H150 H 0.9225 0.5628 0.8505
O43 O 0.99434(15) 0.52830(15) 1.00345(13)
O44 O 0.91001(16) 0.70050(15) 1.09730(13)
O45 O 1.09960(16) 0.69925(15) 1.20522(14)
H151 H 1.1157 0.7079 1.1679
O46 O 0.39503(15) 0.54954(14) 0.82713(12)
H152 H 0.3867 0.5923 0.7936
O47 O 0.59149(16) 0.62817(15) 0.84908(13)
H153 H 0.5567 0.6608 0.8334
O48 O 0.74517(16) 0.62287(14) 0.99426(13)
O49 O 0.53957(16) 0.60058(14) 1.05360(12)
O50 O 0.70211(17) 0.74784(16) 1.16224(14)
H154 H 0.6458 0.7474 1.1540
O51 O 0.16873(16) 0.19013(15) 0.76690(13)
H155 H 0.1928 0.1480 0.7709
O52 O 0.28158(16) 0.37737(14) 0.79231(13)
H156 H 0.2340 0.3935 0.7907
O53 O 0.44563(16) 0.45919(14) 0.95216(13)
O54 O 0.28913(15) 0.27461(14) 0.99506(12)
O55 O 0.34142(17) 0.46019(15) 1.09804(14)
H157 H 0.2862 0.4227 1.0815
O56 O 0.27910(16) -0.13284(14) 0.74821(13)
H158 H 0.2254 -0.1431 0.7075
O57 O 0.21060(16) 0.02387(14) 0.75467(13)
H159 H 0.2275 0.0396 0.7196
O58 O 0.31500(15) 0.16416(14) 0.90817(13)
O59 O 0.36042(16) -0.03970(14) 0.97281(13)
O60 O 0.27922(17) 0.06986(15) 1.05559(14)
H160 H 0.2474 0.0190 1.0209
O61 O 0.64813(16) -0.15680(14) 0.77470(13)
H161 H 0.6327 -0.1175 0.7512
O62 O 0.45387(15) -0.15690(15) 0.75512(13)
H162 H 0.4373 -0.2121 0.7520
O63 O 0.45406(15) -0.04849(14) 0.89802(13)
O64 O 0.68525(15) -0.10849(15) 0.99311(13)
O65 O 0.54843(17) -0.17366(16) 1.05410(14)
H163 H 0.4895 -0.1864 1.0435
O66 O 0.99400(15) 0.12984(15) 0.83880(12)
H164 H 0.9448 0.0902 0.7842
O67 O 0.82007(16) -0.02179(15) 0.80212(13)
H165 H 0.7808 -0.0094 0.7622
O68 O 0.75021(15) -0.01463(14) 0.92492(12)
O69 O 1.01099(16) 0.13235(15) 1.04912(13)
O70 O 0.94118(16) -0.01401(16) 1.11097(13)
H166 H 0.8964 -0.0601 1.1204
O71 O 0.85141(18) 0.59190(17) 0.34617(15)
O72 O 0.91918(18) 0.74119(17) 0.32941(15)
O73 O 0.85967(18) 0.89466(17) 0.19335(15)
O74 O 0.96749(18) 0.94911(17) 0.61315(16)
O75 O 0.89474(18) 0.82850(17) 0.82851(16)
O76 O 0.83710(18) 0.80279(17) 0.68341(16)
O77 O 0.60829(17) 0.71516(17) 0.28091(15)
O78 O 0.40387(18) 0.64585(17) 0.17144(15)
O79 O 0.36431(18) 0.74558(17) 0.05073(15)
O80 O 0.40404(18) 0.93206(17) 0.18193(15)
O81 O 0.18043(18) 0.84785(17) 0.14309(15)
O82 O 0.07178(18) 0.93344(17) 0.05383(15)
O83 O 0.09185(18) 0.54575(18) 0.33467(15)
O84 O 0.33105(18) 0.67926(17) 0.75919(15)
O85 O 0.14870(17) 0.49738(17) 0.72699(15)
O86 O 0.22571(19) 0.63146(17) 0.88167(15)
O87 O 0.16590(18) 0.64285(17) 0.58944(15)
O88 O 0.01073(18) 0.53187(17) 0.44443(15)
O89 O 0.07353(18) 0.72583(18) 0.81303(16)
O90 O 0.08222(18) 0.76704(17) 0.66053(15)
O91 O 0.05517(19) 0.87955(17) 0.89165(15)
O92 O 0.02399(18) 0.97103(17) 0.76209(16)
O93 O 0.82995(18) 0.05694(17) 0.26142(15)
loop_
_geom_bond_atom_site_label_1
_geom_bond_atom_site_label_2
_geom_bond_site_symmetry_1
_geom_bond_site_symmetry_2
N1 C1 1_555 1_555
C1 H1 1_555 1_555
C2 C1 1_555 1_555
H2 C2 1_555 1_555
N2 C2 1_555 1_555
C3 N1 1_555 1_555
H3 C3 1_555 1_555
C4 N1 1_555 1_555
H4 C4 1_555 1_555
H5 C4 1_555 1_555
C5 C4 1_555 1_555
H6 C5 1_555 1_555
H7 C5 1_555 1_555
C6 C5 1_555 1_555
H8 C6 1_555 1_555
H9 C6 1_555 1_555
C7 C6 1_555 1_555
H10 C7 1_555 1_555
H11 C7 1_555 1_555
C8 C7 1_555 1_555
H12 C8 1_555 1_555
H13 C8 1_555 1_555
C9 C8 1_555 1_555
H14 C9 1_555 1_555
H15 C9 1_555 1_555
C10 C9 1_555 1_555
H16 C10 1_555 1_555
H17 C10 1_555 1_555
C11 C10 1_555 1_555
H18 C11 1_555 1_555
H19 C11 1_555 1_555
C12 C11 1_555 1_555
H20 C12 1_555 1_555
H21 C12 1_555 1_555
C13 C12 1_555 1_555
H22 C13 1_555 1_555
H23 C13 1_555 1_555
N3 C13 1_555 1_555
C14 N3 1_555 1_555
H24 C14 1_555 1_555
C15 C14 1_555 1_555
H25 C15 1_555 1_555
N4 C15 1_555 1_555
C16 N3 1_555 1_555
H26 C16 1_555 1_555
C17 H27 1_555 1_555
C18 C17 1_555 1_555
H28 C18 1_555 1_555
C19 C18 1_555 1_555
H29 C19 1_555 1_555
C20 C19 1_555 1_555
H30 C20 1_555 1_555
C21 C20 1_555 1_555
H31 C21 1_555 1_555
C22 C21 1_555 1_555
H32 C22 1_555 1_555
H33 C22 1_555 1_555
C23 H34 1_555 1_555
C24 C23 1_555 1_555
H35 C24 1_555 1_555
C25 C24 1_555 1_555
H36 C25 1_555 1_555
C26 C25 1_555 1_555
H37 C26 1_555 1_555
C27 C26 1_555 1_555
H38 C27 1_555 1_555
C28 C27 1_555 1_555
H39 C28 1_555 1_555
H40 C28 1_555 1_555
C29 H41 1_555 1_555
C30 C29 1_555 1_555
H42 C30 1_555 1_555
C31 C30 1_555 1_555
H43 C31 1_555 1_555
C32 C31 1_555 1_555
H44 C32 1_555 1_555
C33 C32 1_555 1_555
H45 C33 1_555 1_555
C34 C33 1_555 1_555
H46 C34 1_555 1_555
H47 C34 1_555 1_555
C35 H48 1_555 1_555
C36 C35 1_555 1_555
H49 C36 1_555 1_555
C37 C36 1_555 1_555
H50 C37 1_555 1_555
C38 C37 1_555 1_555
H51 C38 1_555 1_555
C39 C38 1_555 1_555
H52 C39 1_555 1_555
C40 C39 1_555 1_555
H53 C40 1_555 1_555
H54 C40 1_555 1_555
C41 H55 1_555 1_555
C42 C41 1_555 1_555
H56 C42 1_555 1_555
C43 C42 1_555 1_555
H57 C43 1_555 1_555
C44 C43 1_555 1_555
H58 C44 1_555 1_555
C45 C44 1_555 1_555
H59 C45 1_555 1_555
C46 C45 1_555 1_555
H60 C46 1_555 1_555
H61 C46 1_555 1_555
C47 H62 1_555 1_555
C48 C47 1_555 1_555
H63 C48 1_555 1_555
C49 C48 1_555 1_555
H64 C49 1_555 1_555
C50 C49 1_555 1_555
H65 C50 1_555 1_555
C51 C50 1_555 1_555
H66 C51 1_555 1_555
C52 C51 1_555 1_555
H67 C52 1_555 1_555
H68 C52 1_555 1_555
C53 H69 1_555 1_555
C54 C53 1_555 1_555
H70 C54 1_555 1_555
C55 C54 1_555 1_555
H71 C55 1_555 1_555
C56 C55 1_555 1_555
H72 C56 1_555 1_555
C57 C56 1_555 1_555
H73 C57 1_555 1_555
C58 C57 1_555 1_555
H74 C58 1_555 1_555
H75 C58 1_555 1_555
O1 C18 1_555 1_555
H76 O1 1_555 1_555
O2 C19 1_555 1_555
H77 O2 1_555 1_555
O3 C20 1_555 1_555
O4 C17 1_555 1_555
O5 C22 1_555 1_555
H78 O5 1_555 1_555
O6 C24 1_555 1_555
H79 O6 1_555 1_555
O7 C25 1_555 1_555
H80 O7 1_555 1_555
O8 C17 1_555 1_555
O9 C23 1_555 1_555
O10 C28 1_555 1_555
H81 O10 1_555 1_555
O11 C30 1_555 1_555
H82 O11 1_555 1_555
O12 C31 1_555 1_555
H83 O12 1_555 1_555
O13 C23 1_555 1_555
O14 C29 1_555 1_555
O15 C34 1_555 1_555
H84 O15 1_555 1_555
O16 C36 1_555 1_555
H85 O16 1_555 1_555
O17 C37 1_555 1_555
H86 O17 1_555 1_555
O18 C29 1_555 1_555
O19 C35 1_555 1_555
O20 C40 1_555 1_555
H87 O20 1_555 1_555
O21 C42 1_555 1_555
H88 O21 1_555 1_555
O22 C43 1_555 1_555
H89 O22 1_555 1_555
O23 C35 1_555 1_555
O24 C41 1_555 1_555
O25 C46 1_555 1_555
H90 O25 1_555 1_555
O26 C48 1_555 1_555
H91 O26 1_555 1_555
O27 C49 1_555 1_555
H92 O27 1_555 1_555
O28 C41 1_555 1_555
O29 C47 1_555 1_555
O30 C52 1_555 1_555
H93 O30 1_555 1_555
O31 C54 1_555 1_555
H94 O31 1_555 1_555
O32 C55 1_555 1_555
H95 O32 1_555 1_555
O33 C47 1_555 1_555
O34 C53 1_555 1_555
O35 C58 1_555 1_555
H96 O35 1_555 1_555
C59 H97 1_555 1_555
C60 C59 1_555 1_555
H98 C60 1_555 1_555
C61 C60 1_555 1_555
H99 C61 1_555 1_555
C62 C61 1_555 1_555
H100 C62 1_555 1_555
C63 C62 1_555 1_555
H101 C63 1_555 1_555
C64 C63 1_555 1_555
H102 C64 1_555 1_555
H103 C64 1_555 1_555
C65 H104 1_555 1_555
C66 C65 1_555 1_555
H105 C66 1_555 1_555
C67 C66 1_555 1_555
H106 C67 1_555 1_555
C68 C67 1_555 1_555
H107 C68 1_555 1_555
C69 C68 1_555 1_555
H108 C69 1_555 1_555
C70 C69 1_555 1_555
H109 C70 1_555 1_555
H110 C70 1_555 1_555
C71 H111 1_555 1_555
C72 C71 1_555 1_555
H112 C72 1_555 1_555
C73 C72 1_555 1_555
H113 C73 1_555 1_555
C74 C73 1_555 1_555
H114 C74 1_555 1_555
C75 C74 1_555 1_555
H115 C75 1_555 1_555
C76 C75 1_555 1_555
H116 C76 1_555 1_555
H117 C76 1_555 1_555
C77 H118 1_555 1_555
C78 C77 1_555 1_555
H119 C78 1_555 1_555
C79 C78 1_555 1_555
H120 C79 1_555 1_555
C80 C79 1_555 1_555
H121 C80 1_555 1_555
C81 C80 1_555 1_555
H122 C81 1_555 1_555
C82 C81 1_555 1_555
H123 C82 1_555 1_555
H124 C82 1_555 1_555
C83 H125 1_555 1_555
C84 C83 1_555 1_555
H126 C84 1_555 1_555
C85 C84 1_555 1_555
H127 C85 1_555 1_555
C86 C85 1_555 1_555
H128 C86 1_555 1_555
C87 C86 1_555 1_555
H129 C87 1_555 1_555
C88 C87 1_555 1_555
H130 C88 1_555 1_555
H131 C88 1_555 1_555
C89 H132 1_555 1_555
C90 C89 1_555 1_555
H133 C90 1_555 1_555
C91 C90 1_555 1_555
H134 C91 1_555 1_555
C92 C91 1_555 1_555
H135 C92 1_555 1_555
C93 C92 1_555 1_555
H136 C93 1_555 1_555
C94 C93 1_555 1_555
H137 C94 1_555 1_555
H138 C94 1_555 1_555
C95 H139 1_555 1_555
C96 C95 1_555 1_555
H140 C96 1_555 1_555
C97 C96 1_555 1_555
H141 C97 1_555 1_555
C98 C97 1_555 1_555
H142 C98 1_555 1_555
C99 C98 1_555 1_555
H143 C99 1_555 1_555
C100 C99 1_555 1_555
H144 C100 1_555 1_555
H145 C100 1_555 1_555
O36 C60 1_555 1_555
H146 O36 1_555 1_555
O37 C61 1_555 1_555
H147 O37 1_555 1_555
O38 C62 1_555 1_555
O39 C59 1_555 1_555
O40 C64 1_555 1_555
H148 O40 1_555 1_555
O41 C66 1_555 1_555
H149 O41 1_555 1_555
O42 C67 1_555 1_555
H150 O42 1_555 1_555
O43 C59 1_555 1_555
O44 C65 1_555 1_555
O45 C70 1_555 1_555
H151 O45 1_555 1_555
O46 C72 1_555 1_555
H152 O46 1_555 1_555
O47 C73 1_555 1_555
H153 O47 1_555 1_555
O48 C65 1_555 1_555
O49 C71 1_555 1_555
O50 C76 1_555 1_555
H154 O50 1_555 1_555
O51 C78 1_555 1_555
H155 O51 1_555 1_555
O52 C79 1_555 1_555
H156 O52 1_555 1_555
O53 C71 1_555 1_555
O54 C77 1_555 1_555
O55 C82 1_555 1_555
H157 O55 1_555 1_555
O56 C84 1_555 1_555
H158 O56 1_555 1_555
O57 C85 1_555 1_555
H159 O57 1_555 1_555
O58 C77 1_555 1_555
O59 C83 1_555 1_555
O60 C88 1_555 1_555
H160 O60 1_555 1_555
O61 C90 1_555 1_555
H161 O61 1_555 1_555
O62 C91 1_555 1_555
H162 O62 1_555 1_555
O63 C83 1_555 1_555
O64 C89 1_555 1_555
O65 C94 1_555 1_555
H163 O65 1_555 1_555
O66 C96 1_555 1_555
H164 O66 1_555 1_555
O67 C97 1_555 1_555
H165 O67 1_555 1_555
O68 C89 1_555 1_555
O69 C95 1_555 1_555
O70 C100 1_555 1_555
H166 O70 1_555 1_555
N2 C3 1_555 1_555
N4 C16 1_555 1_555
C21 O4 1_555 1_555
C26 O8 1_555 1_555
C27 O9 1_555 1_555
C32 O13 1_555 1_555
C33 O14 1_555 1_555
C38 O18 1_555 1_555
C39 O19 1_555 1_555
C44 O23 1_555 1_555
C45 O24 1_555 1_555
C50 O28 1_555 1_555
C51 O29 1_555 1_555
C53 O3 1_555 1_555
C56 O33 1_555 1_555
C57 O34 1_555 1_555
C63 O39 1_555 1_555
C68 O43 1_555 1_555
C69 O44 1_555 1_555
C74 O48 1_555 1_555
C75 O49 1_555 1_555
C80 O53 1_555 1_555
C81 O54 1_555 1_555
C86 O58 1_555 1_555
C87 O59 1_555 1_555
C92 O63 1_555 1_555
C93 O64 1_555 1_555
C95 O38 1_555 1_555
C98 O68 1_555 1_555
C99 O69 1_555 1_555

#END
