
#######################################################################
#
#                 Cambridge Crystallographic Data Centre
#                                CCDC 
#
#######################################################################
#
# If this CIF has been generated from an entry in the Cambridge 
# Structural Database, then it will include bibliographic, chemical, 
# crystal, experimental, refinement or atomic coordinate data resulting 
# from the CCDC's data processing and validation procedures.
#
#######################################################################

data_HAJBOK
_chemical_formula_moiety         'C13 H10 F3 N1 O4 S1'
_chemical_name_systematic        
'Methyl 2-benzenesulfonyl-2-cyano-3-trifluoromethylcyclopropane-1-carboxylate'
_symmetry_cell_setting           monoclinic
_symmetry_space_group_name_H-M   'P 21/n'
_symmetry_Int_Tables_number      14
_space_group_name_Hall           '-P 2yn'
loop_
_symmetry_equiv_pos_site_id
_symmetry_equiv_pos_as_xyz
1 x,y,z
2 1/2+x,1/2-y,1/2+z
3 -x,-y,-z
4 1/2-x,1/2+y,1/2-z
_cell_length_a                   13.173(2)
_cell_length_b                   7.3773(9)
_cell_length_c                   15.252(3)
_cell_angle_alpha                90
_cell_angle_beta                 107.59(1)
_cell_angle_gamma                90
_cell_volume                     1412.9
_exptl_crystal_colour            colorless
_exptl_crystal_description       prismatic
_cell_formula_units_Z            4
loop_
_atom_site_label
_atom_site_type_symbol
_atom_site_fract_x
_atom_site_fract_y
_atom_site_fract_z
S1 S 0.31481(6) 0.1653(1) 0.03088(6)
F1 F 0.5977(2) -0.2498(3) 0.2312(1)
F2 F 0.5770(2) 0.0263(3) 0.2628(2)
F3 F 0.4758(2) -0.1780(4) 0.2896(1)
O1 O 0.3535(2) 0.3286(3) 0.0801(2)
O2 O 0.3590(2) 0.0987(3) -0.0384(2)
O3 O 0.2274(2) -0.3052(4) -0.0411(2)
O4 O 0.4014(2) -0.3174(3) -0.0282(2)
N1 N 0.2644(2) 0.0735(4) 0.2494(2)
C1 C 0.3428(2) -0.0087(4) 0.1183(2)
C2 C 0.3536(2) -0.2085(4) 0.0977(2)
C3 C 0.4516(2) -0.0986(4) 0.1353(2)
C4 C 0.3013(2) 0.0365(4) 0.1941(2)
C5 C 0.3185(3) -0.2801(4) 0.0010(2)
C6 C 0.3756(3) -0.3959(6) -0.1189(3)
C7 C 0.5248(3) -0.1244(5) 0.2294(2)
C8 C 0.1760(2) 0.1752(4) -0.0150(2)
C9 C 0.1181(3) 0.2668(4) 0.0338(2)
C10 C 0.0092(3) 0.2731(5) -0.0022(3)
C11 C -0.0402(3) 0.1969(5) -0.0854(3)
C12 C 0.0171(3) 0.1089(5) -0.1346(3)
C13 C 0.1265(3) 0.0958(5) -0.0990(2)
H1 H 0.3358 -0.2844 0.1366
H2 H 0.4863 -0.0681 0.0912
H3 H 0.3365 -0.3118 -0.1630
H4 H 0.4394 -0.4277 -0.1320
H5 H 0.3339 -0.5026 -0.1210
H6 H 0.1587 0.3189 0.0934
H7 H -0.0293 0.3352 0.0321
H8 H -0.1134 0.2012 -0.1171
H9 H -0.0176 0.0603 -0.1932
H10 H 0.1688 0.0300 -0.1243
loop_
_geom_bond_atom_site_label_1
_geom_bond_atom_site_label_2
_geom_bond_site_symmetry_1
_geom_bond_site_symmetry_2
S1 O1 1_555 1_555
F1 C7 1_555 1_555
F2 C7 1_555 1_555
F3 C7 1_555 1_555
O2 S1 1_555 1_555
O3 C5 1_555 1_555
O4 C5 1_555 1_555
N1 C4 1_555 1_555
C1 S1 1_555 1_555
C2 C1 1_555 1_555
C3 C1 1_555 1_555
C4 C1 1_555 1_555
C5 C2 1_555 1_555
C6 O4 1_555 1_555
C7 C3 1_555 1_555
C8 S1 1_555 1_555
C9 C8 1_555 1_555
C10 C9 1_555 1_555
C11 C10 1_555 1_555
C12 C11 1_555 1_555
C13 C8 1_555 1_555
H1 C2 1_555 1_555
H2 C3 1_555 1_555
H3 C6 1_555 1_555
H4 C6 1_555 1_555
H5 C6 1_555 1_555
H6 C9 1_555 1_555
H7 C10 1_555 1_555
H8 C11 1_555 1_555
H9 C12 1_555 1_555
H10 C13 1_555 1_555
C2 C3 1_555 1_555
C12 C13 1_555 1_555

#END
