
#######################################################################
#
#                 Cambridge Crystallographic Data Centre
#                                CCDC 
#
#######################################################################
#
# If this CIF has been generated from an entry in the Cambridge 
# Structural Database, then it will include bibliographic, chemical, 
# crystal, experimental, refinement or atomic coordinate data resulting 
# from the CCDC's data processing and validation procedures.
#
#######################################################################

data_HAJFOP
_chemical_formula_moiety         'C17 H20 N4 O2,H2 O1'
_chemical_name_systematic        
"N'-(4-(Diethylamino)-2-hydroxybenzylidene)nicotinohydrazide monohydrate"
_symmetry_cell_setting           triclinic
_symmetry_space_group_name_H-M   'P -1'
_symmetry_Int_Tables_number      2
_space_group_name_Hall           '-P 1'
loop_
_symmetry_equiv_pos_site_id
_symmetry_equiv_pos_as_xyz
1 x,y,z
2 -x,-y,-z
_cell_length_a                   6.6858(3)
_cell_length_b                   7.9713(3)
_cell_length_c                   16.7515(6)
_cell_angle_alpha                86.044(2)
_cell_angle_beta                 78.555(2)
_cell_angle_gamma                74.218(2)
_cell_volume                     841.919
_exptl_crystal_colour            'pale yellow'
_exptl_crystal_description       block
_cell_formula_units_Z            2
loop_
_atom_site_label
_atom_site_type_symbol
_atom_site_fract_x
_atom_site_fract_y
_atom_site_fract_z
N1 N 0.50281(17) 0.05174(12) 0.20958(6)
N2 N 0.56571(16) 0.19162(12) 0.16949(6)
H1 H 0.6977 0.1858 0.1531
C1 C 0.54777(19) -0.55351(14) 0.33761(7)
C2 C 0.61163(19) -0.23664(14) 0.26243(7)
C3 C 0.37716(19) -0.40620(15) 0.33386(7)
H2 H 0.2408 -0.4119 0.3572
C4 C 0.40777(19) -0.25298(14) 0.29630(7)
C5 C 0.49175(18) 0.48798(13) 0.11675(7)
C6 C 0.6527(2) -0.08251(15) 0.22102(7)
H3 H 0.7922 -0.0796 0.2018
C7 C 0.41616(19) 0.33719(14) 0.15654(7)
C8 C 0.7804(2) -0.38316(16) 0.26885(8)
H4 H 0.9174 -0.3755 0.2481
O1 O 0.22643(15) 0.34790(12) 0.17572(7)
N3 N 0.51731(17) -0.70914(13) 0.37063(7)
N4 N 0.38047(19) 0.78887(13) 0.07499(8)
C9 C 0.7526(2) -0.53690(16) 0.30433(8)
H5 H 0.8695 -0.6311 0.3065
C10 C 0.3390(2) 0.64293(16) 0.10854(8)
H6 H 0.1980 0.6446 0.1278
C11 C 0.6998(2) 0.48710(15) 0.08774(8)
H7 H 0.8080 0.3868 0.0920
C12 C 0.6958(2) -0.86051(16) 0.37448(9)
H8 H 0.7968 -0.8666 0.3237
H9 H 0.6455 -0.9647 0.3790
C13 C 0.5831(2) 0.78264(16) 0.04723(8)
H10 H 0.6161 0.8827 0.0231
C14 C 0.7455(2) 0.63707(16) 0.05229(9)
H11 H 0.8848 0.6391 0.0321
C15 C 0.3106(2) -0.72420(18) 0.41221(9)
H12 H 0.3062 -0.8444 0.4100
H13 H 0.2045 -0.6531 0.3832
C16 C 0.8084(3) -0.8608(2) 0.44391(11)
H14 H 0.9238 -0.9640 0.4419
H15 H 0.7113 -0.8590 0.4947
H16 H 0.8618 -0.7596 0.4395
C17 C 0.2538(3) -0.6700(2) 0.49964(10)
H17 H 0.1153 -0.6828 0.5228
H18 H 0.2546 -0.5504 0.5026
H19 H 0.3551 -0.7422 0.5294
O2 O 0.23299(15) -0.11954(12) 0.29316(7)
H20 H 0.2683 -0.0353 0.2699
O3 O 0.03481(17) 0.10898(15) 0.12856(9)
H21 H 0.108(4) 0.175(3) 0.1450(13)
H22 H 0.131(4) 0.017(3) 0.1101(13)
loop_
_geom_bond_atom_site_label_1
_geom_bond_atom_site_label_2
_geom_bond_site_symmetry_1
_geom_bond_site_symmetry_2
N1 N2 1_555 1_555
N2 H1 1_555 1_555
C1 C3 1_555 1_555
C2 C4 1_555 1_555
C3 H2 1_555 1_555
C4 C3 1_555 1_555
C5 C7 1_555 1_555
C6 N1 1_555 1_555
H3 C6 1_555 1_555
C7 N2 1_555 1_555
C8 C2 1_555 1_555
H4 C8 1_555 1_555
O1 C7 1_555 1_555
N3 C1 1_555 1_555
N4 C10 1_555 1_555
C9 C1 1_555 1_555
H5 C9 1_555 1_555
C10 C5 1_555 1_555
H6 C10 1_555 1_555
C11 C5 1_555 1_555
H7 C11 1_555 1_555
C12 N3 1_555 1_555
H8 C12 1_555 1_555
H9 C12 1_555 1_555
C13 N4 1_555 1_555
H10 C13 1_555 1_555
C14 C11 1_555 1_555
H11 C14 1_555 1_555
C15 N3 1_555 1_555
H12 C15 1_555 1_555
H13 C15 1_555 1_555
C16 C12 1_555 1_555
H14 C16 1_555 1_555
H15 C16 1_555 1_555
H16 C16 1_555 1_555
C17 C15 1_555 1_555
H17 C17 1_555 1_555
H18 C17 1_555 1_555
H19 C17 1_555 1_555
O2 C4 1_555 1_555
H20 O2 1_555 1_555
O3 H21 1_555 1_555
H22 O3 1_555 1_555
C2 C6 1_555 1_555
C8 C9 1_555 1_555
C13 C14 1_555 1_555

#END
