
#######################################################################
#
#                 Cambridge Crystallographic Data Centre
#                                CCDC 
#
#######################################################################
#
# If this CIF has been generated from an entry in the Cambridge 
# Structural Database, then it will include bibliographic, chemical, 
# crystal, experimental, refinement or atomic coordinate data resulting 
# from the CCDC's data processing and validation procedures.
#
#######################################################################

data_HAJFEG
_chemical_formula_moiety         'C23 H25 N1 O3'
_chemical_name_systematic        
'benzyl 4-benzyl-6-oxooctahydro-2H-isoindole-2-carboxylate'
_symmetry_cell_setting           monoclinic
_symmetry_space_group_name_H-M   'P 21/c'
_symmetry_Int_Tables_number      14
_space_group_name_Hall           '-P 2ybc'
loop_
_symmetry_equiv_pos_site_id
_symmetry_equiv_pos_as_xyz
1 x,y,z
2 -x,1/2+y,1/2-z
3 -x,-y,-z
4 x,1/2-y,1/2+z
_cell_length_a                   5.8941(3)
_cell_length_b                   18.9753(10)
_cell_length_c                   16.8998(9)
_cell_angle_alpha                90
_cell_angle_beta                 93.593(3)
_cell_angle_gamma                90
_cell_volume                     1886.4
_exptl_crystal_colour            colorless
_exptl_crystal_description       needle
_cell_formula_units_Z            4
loop_
_atom_site_label
_atom_site_type_symbol
_atom_site_fract_x
_atom_site_fract_y
_atom_site_fract_z
O1 O 0.7520(2) 0.29266(7) 0.51724(8)
O2 O 0.7487(3) 0.41151(8) 0.53093(9)
O3 O -0.2916(3) 0.27801(8) 0.23640(10)
N1 N 0.4824(3) 0.35385(9) 0.45183(11)
C1 C 1.2630(4) 0.20328(12) 0.60285(13)
H1 H 1.3492 0.2409 0.6265
C2 C 1.3537(4) 0.13628(13) 0.60298(13)
H2 H 1.5011 0.1280 0.6272
C3 C 1.2313(4) 0.08106(14) 0.56810(14)
H3 H 1.2945 0.0350 0.5678
C4 C 1.0155(4) 0.09353(13) 0.53352(14)
H4 H 0.9302 0.0558 0.5097
C5 C 0.9236(4) 0.16081(12) 0.53360(13)
H5 H 0.7758 0.1689 0.5096
C6 C 1.0454(3) 0.21630(11) 0.56832(12)
C7 C 0.9503(3) 0.28969(11) 0.57119(12)
H6 H 0.9091 0.3010 0.6257
H7 H 1.0647 0.3243 0.5555
C8 C 0.6663(4) 0.35809(11) 0.50224(13)
C9 C 0.3952(4) 0.28890(11) 0.41333(13)
H8 H 0.3668 0.2519 0.4528
H9 H 0.5015 0.2705 0.3752
C10 C 0.1743(4) 0.31443(12) 0.37121(14)
H10 H 0.0590 0.3153 0.4122
C11 C 0.2207(4) 0.38938(11) 0.35187(13)
H11 H 0.3264 0.3874 0.3079
C12 C 0.3621(4) 0.41752(12) 0.42203(14)
H12 H 0.4699 0.4540 0.4058
H13 H 0.2654 0.4375 0.4623
C13 C 0.0732(4) 0.27154(11) 0.30407(14)
H14 H 0.0232 0.2254 0.3241
H15 H 0.1892 0.2628 0.2653
C14 C -0.1277(4) 0.30963(11) 0.26373(12)
C15 C -0.1014(4) 0.38851(12) 0.24979(15)
H16 H -0.2543 0.4090 0.2382
H17 H -0.0143 0.3953 0.2021
C16 C 0.0171(4) 0.42968(10) 0.31847(12)
H18 H -0.0922 0.4332 0.3612
C17 C 0.0740(4) 0.50449(12) 0.29395(16)
H19 H 0.1456 0.5294 0.3405
H20 H 0.1872 0.5023 0.2531
C18 C -0.1274(5) 0.54695(17) 0.26160(18)
C19 C -0.2766(6) 0.57624(17) 0.31264(19)
H21 H -0.2501 0.5698 0.3682
C20 C -0.4645(6) 0.61494(19) 0.2838(2)
H22 H -0.5636 0.6353 0.3198
C21 C -0.5075(6) 0.6239(2) 0.2034(2)
H23 H -0.6369 0.6498 0.1838
C22 C -0.3625(6) 0.5952(2) 0.1516(2)
H24 H -0.3916 0.6012 0.0961
C23 C -0.1739(6) 0.5574(2) 0.18048(18)
H25 H -0.0738 0.5381 0.1442
H26? H 0.0823 0.4403 0.2666
C24? C -0.028(2) 0.5050(4) 0.3385(8)
H27? H 0.1202 0.5298 0.3436
H28? H -0.0918 0.5061 0.3913
C25? C -0.1782(16) 0.3860(4) 0.2833(8)
H29? H -0.2385 0.4094 0.2340
H30? H -0.3006 0.3866 0.3208
C26? C -0.184(2) 0.5468(8) 0.2822(9)
C27? C -0.373(2) 0.5794(9) 0.3113(7)
H31? H -0.3975 0.5771 0.3663
C28? C -0.5260(19) 0.6153(9) 0.2600(10)
H32? H -0.6550 0.6376 0.2799
C29? C -0.490(3) 0.6187(9) 0.1796(9)
H33? H -0.5948 0.6432 0.1445
C30? C -0.301(3) 0.5860(10) 0.1504(6)
H34? H -0.2770 0.5883 0.0955
C31? C -0.148(2) 0.5501(9) 0.2017(9)
H35? H -0.0194 0.5278 0.1818
loop_
_geom_bond_atom_site_label_1
_geom_bond_atom_site_label_2
_geom_bond_site_symmetry_1
_geom_bond_site_symmetry_2
O1 C7 1_555 1_555
O2 C8 1_555 1_555
O3 C14 1_555 1_555
N1 C8 1_555 1_555
C1 H1 1_555 1_555
C2 C1 1_555 1_555
H2 C2 1_555 1_555
C3 C2 1_555 1_555
H3 C3 1_555 1_555
C4 C3 1_555 1_555
H4 C4 1_555 1_555
C5 C4 1_555 1_555
H5 C5 1_555 1_555
C6 C1 1_555 1_555
C7 C6 1_555 1_555
H6 C7 1_555 1_555
H7 C7 1_555 1_555
C8 O1 1_555 1_555
C9 N1 1_555 1_555
H8 C9 1_555 1_555
H9 C9 1_555 1_555
C10 C9 1_555 1_555
H10 C10 1_555 1_555
C11 C10 1_555 1_555
H11 C11 1_555 1_555
C12 N1 1_555 1_555
H12 C12 1_555 1_555
H13 C12 1_555 1_555
C13 C10 1_555 1_555
H14 C13 1_555 1_555
H15 C13 1_555 1_555
C14 C13 1_555 1_555
C15 C14 1_555 1_555
H16 C15 1_555 1_555
H17 C15 1_555 1_555
C16 C11 1_555 1_555
H18 C16 1_555 1_555
C17 C16 1_555 1_555
H19 C17 1_555 1_555
H20 C17 1_555 1_555
C18 C17 1_555 1_555
C19 C18 1_555 1_555
H21 C19 1_555 1_555
C20 C19 1_555 1_555
H22 C20 1_555 1_555
C21 C20 1_555 1_555
H23 C21 1_555 1_555
C22 C21 1_555 1_555
H24 C22 1_555 1_555
C23 C18 1_555 1_555
H25 C23 1_555 1_555
C5 C6 1_555 1_555
C11 C12 1_555 1_555
C15 C16 1_555 1_555
C22 C23 1_555 1_555

#END
