
#######################################################################
#
#                 Cambridge Crystallographic Data Centre
#                                CCDC 
#
#######################################################################
#
# If this CIF has been generated from an entry in the Cambridge 
# Structural Database, then it will include bibliographic, chemical, 
# crystal, experimental, refinement or atomic coordinate data resulting 
# from the CCDC's data processing and validation procedures.
#
#######################################################################

data_HAJFOQ
_chemical_formula_moiety         'C16 H21 N1 O3 S1'
_chemical_name_systematic        
4-methyl-2-((4-methylphenyl)sulfonyl)octahydro-5H-isoindol-5-one
_symmetry_cell_setting           monoclinic
_symmetry_space_group_name_H-M   'P 21/c'
_symmetry_Int_Tables_number      14
_space_group_name_Hall           '-P 2ybc'
loop_
_symmetry_equiv_pos_site_id
_symmetry_equiv_pos_as_xyz
1 x,y,z
2 -x,1/2+y,1/2-z
3 -x,-y,-z
4 x,1/2-y,1/2+z
_cell_length_a                   13.6580(8)
_cell_length_b                   5.6045(3)
_cell_length_c                   20.1680(13)
_cell_angle_alpha                90
_cell_angle_beta                 97.722(4)
_cell_angle_gamma                90
_cell_volume                     1529.79
_exptl_crystal_colour            colorless
_exptl_crystal_description       plate
_cell_formula_units_Z            4
loop_
_atom_site_label
_atom_site_type_symbol
_atom_site_fract_x
_atom_site_fract_y
_atom_site_fract_z
C1 C 0.16859(13) 0.8982(3) 0.43059(9)
C2 C 0.07655(14) 0.7954(3) 0.43423(11)
H1 H 0.0375 0.8480 0.4670
C3 C 0.04247(15) 0.6167(4) 0.38995(11)
H2 H -0.0204 0.5474 0.3925
C4 C 0.09831(15) 0.5364(4) 0.34172(10)
C5 C 0.18920(15) 0.6437(4) 0.33845(10)
H3 H 0.2278 0.5929 0.3053
C6 C 0.22473(14) 0.8226(4) 0.38230(10)
H4 H 0.2872 0.8932 0.3794
C7 C 0.06125(18) 0.3357(4) 0.29520(12)
H5 H 0.0850 0.1831 0.3149
H6 H 0.0859 0.3572 0.2521
H7 H -0.0112 0.3364 0.2883
C8 C 0.1962(2) 0.8364(5) 0.59578(14)
H8 H 0.1549 0.7195 0.5679
H9 H 0.1532 0.9439 0.6180
C9 C 0.27196(18) 0.7139(5) 0.64607(14)
H10 H 0.3020 0.8370 0.6785
C10 C 0.2396(3) 0.5050(7) 0.68594(18)
H11 H 0.2088 0.3802 0.6552
H12 H 0.1904 0.5588 0.7146
C11 C 0.3312(2) 0.4041(5) 0.72952(15)
H13 H 0.3533 0.5197 0.7656
H14 H 0.3126 0.2548 0.7509
C12 C 0.4158(4) 0.3529(8) 0.6913(3)
C13 C 0.44396(19) 0.5527(5) 0.64541(15)
H15 H 0.4698 0.6888 0.6747
C14 C 0.3497(3) 0.6374(7) 0.6034(2)
H16 H 0.3222 0.4990 0.5756
C15 C 0.3577(2) 0.8465(6) 0.55589(15)
H17 H 0.4138 0.9518 0.5726
H18 H 0.3660 0.7899 0.5105
C16 C 0.5243(3) 0.4800(8) 0.6061(2)
H19 H 0.5822 0.4286 0.6367
H20 H 0.5422 0.6158 0.5795
H21 H 0.5011 0.3480 0.5761
N1 N 0.2613(2) 0.9722(6) 0.55587(15)
O1 O 0.2892(8) 1.252(2) 0.4654(6)
O2 O 0.1306(5) 1.2438(14) 0.5081(3)
O3 O 0.46052(19) 0.1648(5) 0.69684(15)
S1 S 0.2129(3) 1.1116(6) 0.48882(15)
C17? C 0.3848(4) 0.8450(12) 0.5261(3)
H22? H 0.4349 0.9604 0.5149
H23? H 0.3653 0.7393 0.4872
C18? C 0.4221(4) 0.7033(10) 0.5883(3)
H24? H 0.4557 0.8169 0.6222
C19? C 0.4926(6) 0.4965(16) 0.5820(4)
H25? H 0.5550 0.5570 0.5684
H26? H 0.4626 0.3833 0.5474
C20? C 0.5134(4) 0.3702(12) 0.6495(3)
H27? H 0.5478 0.2181 0.6431
H28? H 0.5589 0.4705 0.6800
C21? C 0.4241(8) 0.318(2) 0.6822(6)
C22? C 0.3460(4) 0.5156(10) 0.6824(3)
H29? H 0.3766 0.6444 0.7126
C23? C 0.3278(6) 0.6206(17) 0.6127(5)
H30? H 0.3009 0.4887 0.5822
C24? C 0.2558(4) 0.8280(11) 0.5999(3)
H31? H 0.1884 0.7709 0.5834
H32? H 0.2539 0.9238 0.6409
C25? C 0.2559(6) 0.4360(16) 0.7098(4)
H33? H 0.2206 0.3183 0.6796
H34? H 0.2129 0.5735 0.7141
H35? H 0.2748 0.3636 0.7539
N2? N 0.2976(4) 0.9685(12) 0.5476(4)
O4? O 0.293(2) 1.229(6) 0.4537(14)
O5? O 0.1459(10) 1.210(3) 0.5250(6)
O6? O 0.4163(4) 0.1345(10) 0.7139(3)
S2? S 0.2248(7) 1.1165(14) 0.4921(4)
loop_
_geom_bond_atom_site_label_1
_geom_bond_atom_site_label_2
_geom_bond_site_symmetry_1
_geom_bond_site_symmetry_2
C1 C2 1_555 1_555
C2 H1 1_555 1_555
C3 C2 1_555 1_555
H2 C3 1_555 1_555
C4 C3 1_555 1_555
C5 C4 1_555 1_555
H3 C5 1_555 1_555
C6 C1 1_555 1_555
H4 C6 1_555 1_555
C7 C4 1_555 1_555
H5 C7 1_555 1_555
H6 C7 1_555 1_555
H7 C7 1_555 1_555
C8 H8 1_555 1_555
H9 C8 1_555 1_555
C9 C8 1_555 1_555
H10 C9 1_555 1_555
C10 C9 1_555 1_555
H11 C10 1_555 1_555
H12 C10 1_555 1_555
C11 C10 1_555 1_555
H13 C11 1_555 1_555
H14 C11 1_555 1_555
C12 C11 1_555 1_555
C13 C12 1_555 1_555
H15 C13 1_555 1_555
C14 C9 1_555 1_555
H16 C14 1_555 1_555
C15 C14 1_555 1_555
H17 C15 1_555 1_555
H18 C15 1_555 1_555
C16 C13 1_555 1_555
H19 C16 1_555 1_555
H20 C16 1_555 1_555
H21 C16 1_555 1_555
N1 C8 1_555 1_555
O1 S1 1_555 1_555
O2 S1 1_555 1_555
O3 C12 1_555 1_555
S1 C1 1_555 1_555
C5 C6 1_555 1_555
C13 C14 1_555 1_555
C15 N1 1_555 1_555
N1 S1 1_555 1_555

#END
