
#######################################################################
#
#                 Cambridge Crystallographic Data Centre
#                                CCDC 
#
#######################################################################
#
# If this CIF has been generated from an entry in the Cambridge 
# Structural Database, then it will include bibliographic, chemical, 
# crystal, experimental, refinement or atomic coordinate data resulting 
# from the CCDC's data processing and validation procedures.
#
#######################################################################

data_HAJGIL
_chemical_formula_moiety         'C18 H25 N1 O3 S1'
_chemical_name_systematic        
3-isopropyl-2-((4-methylphenyl)sulfonyl)octahydro-5H-isoindol-5-one
_symmetry_cell_setting           triclinic
_symmetry_space_group_name_H-M   'P -1'
_symmetry_Int_Tables_number      2
_space_group_name_Hall           '-P 1'
loop_
_symmetry_equiv_pos_site_id
_symmetry_equiv_pos_as_xyz
1 x,y,z
2 -x,-y,-z
_cell_length_a                   8.0648(4)
_cell_length_b                   8.3002(4)
_cell_length_c                   14.4327(8)
_cell_angle_alpha                88.447(3)
_cell_angle_beta                 74.397(3)
_cell_angle_gamma                69.748(3)
_cell_volume                     870.657
_exptl_crystal_colour            colorless
_exptl_crystal_description       block
_cell_formula_units_Z            2
loop_
_atom_site_label
_atom_site_type_symbol
_atom_site_fract_x
_atom_site_fract_y
_atom_site_fract_z
S1 S 0.16056(4) 0.28140(4) 0.80076(2)
O1 O 0.14348(13) 0.14816(12) 0.86425(7)
O2 O 0.01826(13) 0.36574(12) 0.75533(7)
O3 O 1.13570(13) 0.07100(14) 0.56413(7)
N1 N 0.34915(14) 0.19618(13) 0.71485(8)
C1 C 0.18737(16) 0.44238(15) 0.86663(9)
C2 C 0.24892(18) 0.40310(16) 0.94844(9)
H1 H 0.2724 0.2931 0.9702
C3 C 0.27497(18) 0.53029(17) 0.99738(10)
H2 H 0.3169 0.5042 1.0520
C4 C 0.23939(18) 0.69654(17) 0.96613(10)
C5 C 0.17362(18) 0.73415(16) 0.88521(10)
H3 H 0.1467 0.8450 0.8644
C6 C 0.14776(17) 0.60826(16) 0.83511(10)
H4 H 0.1044 0.6344 0.7810
C7 C 0.2695(2) 0.83364(19) 1.01914(10)
H5 H 0.2619 0.8063 1.0849
H6 H 0.1770 0.9432 1.0177
H7 H 0.3889 0.8387 0.9886
C8 C 0.52121(17) 0.08516(15) 0.73963(9)
H8 H 0.5214 0.1288 0.8020
C9 C 0.67254(17) 0.11958(16) 0.65955(9)
H9 H 0.7020 0.0416 0.6030
C10 C 0.58015(18) 0.30333(16) 0.63486(9)
H10 H 0.5625 0.3826 0.6887
C11 C 0.39326(18) 0.30177(17) 0.63338(9)
H11 H 0.3026 0.4174 0.6437
H12 H 0.3994 0.2493 0.5727
C12 C 0.52933(18) -0.10256(16) 0.74636(10)
H13 H 0.4231 -0.1027 0.7989
C13 C 0.7010(2) -0.21692(18) 0.77318(12)
H14 H 0.8073 -0.2336 0.7194
H15 H 0.6901 -0.3264 0.7895
H16 H 0.7138 -0.1628 0.8275
C14 C 0.5133(2) -0.17788(17) 0.65516(11)
H17 H 0.4078 -0.1013 0.6379
H18 H 0.5000 -0.2878 0.6668
H19 H 0.6221 -0.1919 0.6035
C15 C 0.85253(18) 0.10242(18) 0.68224(10)
H20 H 0.8264 0.1738 0.7402
H21 H 0.9149 -0.0162 0.6935
C16 C 0.97510(18) 0.15814(18) 0.59813(10)
C17 C 0.8867(2) 0.32850(19) 0.55911(10)
H22 H 0.9685 0.3382 0.4980
H23 H 0.8710 0.4216 0.6036
C18 C 0.69862(19) 0.34882(17) 0.54428(10)
H24 H 0.6381 0.4666 0.5309
H25 H 0.7156 0.2735 0.4896
loop_
_geom_bond_atom_site_label_1
_geom_bond_atom_site_label_2
_geom_bond_site_symmetry_1
_geom_bond_site_symmetry_2
S1 O1 1_555 1_555
O2 S1 1_555 1_555
O3 C16 1_555 1_555
N1 S1 1_555 1_555
C1 S1 1_555 1_555
C2 C1 1_555 1_555
H1 C2 1_555 1_555
C3 C2 1_555 1_555
H2 C3 1_555 1_555
C4 C3 1_555 1_555
C5 C4 1_555 1_555
H3 C5 1_555 1_555
C6 C1 1_555 1_555
H4 C6 1_555 1_555
C7 C4 1_555 1_555
H5 C7 1_555 1_555
H6 C7 1_555 1_555
H7 C7 1_555 1_555
C8 N1 1_555 1_555
H8 C8 1_555 1_555
C9 C8 1_555 1_555
H9 C9 1_555 1_555
C10 C9 1_555 1_555
H10 C10 1_555 1_555
C11 N1 1_555 1_555
H11 C11 1_555 1_555
H12 C11 1_555 1_555
C12 C8 1_555 1_555
H13 C12 1_555 1_555
C13 C12 1_555 1_555
H14 C13 1_555 1_555
H15 C13 1_555 1_555
H16 C13 1_555 1_555
C14 C12 1_555 1_555
H17 C14 1_555 1_555
H18 C14 1_555 1_555
H19 C14 1_555 1_555
C15 C9 1_555 1_555
H20 C15 1_555 1_555
H21 C15 1_555 1_555
C16 C15 1_555 1_555
C17 C16 1_555 1_555
H22 C17 1_555 1_555
H23 C17 1_555 1_555
C18 C10 1_555 1_555
H24 C18 1_555 1_555
H25 C18 1_555 1_555
C5 C6 1_555 1_555
C10 C11 1_555 1_555
C17 C18 1_555 1_555

#END
