
#######################################################################
#
#                 Cambridge Crystallographic Data Centre
#                                CCDC 
#
#######################################################################
#
# If this CIF has been generated from an entry in the Cambridge 
# Structural Database, then it will include bibliographic, chemical, 
# crystal, experimental, refinement or atomic coordinate data resulting 
# from the CCDC's data processing and validation procedures.
#
#######################################################################

data_HAJGEH
_chemical_formula_moiety         'C15 H19 N1 O3 S1'
_chemical_name_systematic        
2-((4-methylphenyl)sulfonyl)octahydro-5H-isoindol-5-one
_symmetry_cell_setting           monoclinic
_symmetry_space_group_name_H-M   'P 21'
_symmetry_Int_Tables_number      4
_space_group_name_Hall           'P 2yb'
loop_
_symmetry_equiv_pos_site_id
_symmetry_equiv_pos_as_xyz
1 x,y,z
2 -x,1/2+y,-z
_cell_length_a                   8.6249(17)
_cell_length_b                   14.820(3)
_cell_length_c                   10.971(2)
_cell_angle_alpha                90
_cell_angle_beta                 95.98(3)
_cell_angle_gamma                90
_cell_volume                     1394.69
_exptl_crystal_colour            colorless
_exptl_crystal_description       Plate
_cell_formula_units_Z            4
loop_
_atom_site_label
_atom_site_type_symbol
_atom_site_fract_x
_atom_site_fract_y
_atom_site_fract_z
C1 C 0.02729(17) 0.13791(10) 0.46057(13)
C2 C 0.02190(18) 0.07405(10) 0.36636(14)
H1 H -0.0674 0.0366 0.3513
C3 C 0.14399(18) 0.06419(10) 0.29437(14)
H2 H 0.1386 0.0203 0.2310
C4 C 0.27510(16) 0.11973(9) 0.31640(12)
C5 C 0.28156(18) 0.18487(10) 0.40833(14)
H3 H 0.3701 0.2230 0.4225
C6 C 0.15766(18) 0.19391(10) 0.47955(14)
H4 H 0.1621 0.2387 0.5417
C7 C 0.41936(18) 0.26951(10) 0.12545(14)
H5 H 0.5290 0.2892 0.1437
H6 H 0.3575 0.2914 0.1906
C8 C 0.3486(3) 0.30150(17) -0.0044(2)
H7 H 0.4262 0.2905 -0.0644
C9 C 0.2956(13) 0.3970(9) -0.0149(12)
H8 H 0.3879 0.4371 -0.0057
H9 H 0.2318 0.4107 0.0527
C10 C -0.10382(19) 0.14426(12) 0.54069(15)
H10 H -0.1027 0.0909 0.5935
H11 H -0.2035 0.1474 0.4891
H12 H -0.0905 0.1986 0.5915
C11 C 0.11310(19) 0.34145(10) -0.20083(14)
C12 C 0.14358(18) 0.24449(10) -0.16175(14)
H13 H 0.0444 0.2104 -0.1727
H14 H 0.2160 0.2168 -0.2153
C13 C 0.2116(3) 0.23701(17) -0.0318(2)
H15 H 0.1293 0.2529 0.0224
C14 C 0.28403(19) 0.14563(10) 0.01042(13)
H16 H 0.2050 0.1056 0.0414
H17 H 0.3295 0.1149 -0.0576
N1 N 0.40721(15) 0.16998(8) 0.11012(11)
O1 O 0.57101(14) 0.14005(9) 0.30253(11)
O2 O 0.43157(14) 0.01416(8) 0.18649(11)
O3 O 0.0161(2) 0.35807(11) -0.28550(16)
S1 S 0.43499(4) 0.10602(2) 0.22980(3)
C15 C 0.2017(2) 0.41703(12) -0.1348(2)
H18 H 0.1260 0.4650 -0.1201
H19 H 0.2734 0.4424 -0.1908
C21 C 0.74788(17) 0.21790(11) -0.04448(15)
C22 C 0.82781(19) 0.19457(10) 0.06835(16)
H36 H 0.8374 0.1328 0.0908
C23 C 0.89366(18) 0.26005(11) 0.14839(15)
H37 H 0.9488 0.2432 0.2244
C24 C 0.87775(16) 0.35111(10) 0.11566(13)
C25 C 0.79501(17) 0.37596(10) 0.00466(13)
H38 H 0.7820 0.4378 -0.0166
C26 C 0.73183(18) 0.30917(11) -0.07454(14)
H39 H 0.6767 0.3260 -0.1506
C27 C 0.6810(2) 0.14571(13) -0.13175(18)
H40 H 0.6177 0.1739 -0.2008
H41 H 0.6157 0.1049 -0.0888
H42 H 0.7661 0.1115 -0.1623
C28 C 0.69255(18) 0.48958(11) 0.29349(14)
H43 H 0.6354 0.4595 0.2218
H44 H 0.6987 0.5551 0.2772
C29 C 0.6171(4) 0.4710(2) 0.4098(3)
H45 H 0.6555 0.5146 0.4757
C30 C 0.4365(8) 0.4660(5) 0.3966(6)
H46 H 0.3923 0.5261 0.3737
H47 H 0.4002 0.4229 0.3308
C31 C 0.37939(18) 0.43519(14) 0.51858(16)
H48 H 0.3776 0.4886 0.5726
H49 H 0.2705 0.4140 0.5012
C32 C 0.47195(18) 0.36168(11) 0.58927(15)
C33 C 0.6486(10) 0.3518(6) 0.5760(9)
H50 H 0.7091 0.3935 0.6333
H51 H 0.6829 0.2894 0.5965
C34 C 0.6784(4) 0.3742(2) 0.4420(3)
H52 H 0.6259 0.3290 0.3839
C35 C 0.85046(19) 0.38208(12) 0.42401(14)
H53 H 0.9121 0.4036 0.4996
H54 H 0.8930 0.3235 0.3996
N2 N 0.85010(15) 0.44970(9) 0.32364(12)
O4 O 1.10703(13) 0.39973(9) 0.27358(12)
O5 O 0.96011(15) 0.51805(8) 0.14727(12)
O6 O 0.41176(17) 0.31537(11) 0.66234(16)
S2 S 0.96207(4) 0.43515(3) 0.21574(3)
H20? H 0.3999 0.2877 0.2093
H21? H 0.5236 0.2914 0.1090
C16? C 0.2960(4) 0.3050(2) 0.0331(3)
H22? H 0.1953 0.3067 0.0708
H23? H 0.1601 0.2082 -0.2350
H24? H 0.0498 0.2206 -0.1278
C17? C 0.2849(4) 0.2322(2) -0.0659(3)
H25? H 0.3820 0.2336 -0.1082
H26? H 0.1820 0.1353 0.0418
H27? H 0.3130 0.0920 -0.0361
H28? H 0.1236 0.4592 -0.1069
H29? H 0.2562 0.4499 -0.1964
C18? C 0.3237(18) 0.3991(13) -0.0233(17)
H30? H 0.3156 0.4464 0.0394
H31? H 0.4299 0.4015 -0.0497
C19? C 0.6264(16) 0.3401(10) 0.5604(14)
H32? H 0.6235 0.2786 0.5251
H33? H 0.6954 0.3378 0.6383
C20? C 0.4523(14) 0.4846(7) 0.4186(11)
H34? H 0.3752 0.4881 0.3453
H35? H 0.4765 0.5471 0.4463
H55? H 0.6518 0.4764 0.2076
H56? H 0.6948 0.5558 0.3058
C36? C 0.5932(7) 0.4432(5) 0.3840(6)
H57? H 0.5504 0.3903 0.3348
H58? H 0.2808 0.4080 0.4813
H59? H 0.3513 0.4807 0.5786
C37? C 0.6990(7) 0.3995(5) 0.4769(6)
H60? H 0.7291 0.4517 0.5322
H61? H 0.9405 0.3914 0.4864
H62? H 0.8541 0.3199 0.3916
loop_
_geom_bond_atom_site_label_1
_geom_bond_atom_site_label_2
_geom_bond_site_symmetry_1
_geom_bond_site_symmetry_2
C1 C2 1_555 1_555
C2 H1 1_555 1_555
C3 C2 1_555 1_555
H2 C3 1_555 1_555
C4 C3 1_555 1_555
C5 C4 1_555 1_555
H3 C5 1_555 1_555
C6 C1 1_555 1_555
H4 C6 1_555 1_555
C7 H5 1_555 1_555
H6 C7 1_555 1_555
C8 C7 1_555 1_555
H7 C8 1_555 1_555
C9 C8 1_555 1_555
H8 C9 1_555 1_555
H9 C9 1_555 1_555
C10 C1 1_555 1_555
H10 C10 1_555 1_555
H11 C10 1_555 1_555
H12 C10 1_555 1_555
C11 C12 1_555 1_555
C12 H13 1_555 1_555
H14 C12 1_555 1_555
C13 C8 1_555 1_555
H15 C13 1_555 1_555
C14 C13 1_555 1_555
H16 C14 1_555 1_555
H17 C14 1_555 1_555
N1 C7 1_555 1_555
O1 S1 1_555 1_555
O2 S1 1_555 1_555
O3 C11 1_555 1_555
S1 C4 1_555 1_555
C15 C9 1_555 1_555
H18 C15 1_555 1_555
H19 C15 1_555 1_555
C21 C22 1_555 1_555
C22 H36 1_555 1_555
C23 C22 1_555 1_555
H37 C23 1_555 1_555
C24 C23 1_555 1_555
C25 C24 1_555 1_555
H38 C25 1_555 1_555
C26 C21 1_555 1_555
H39 C26 1_555 1_555
C27 C21 1_555 1_555
H40 C27 1_555 1_555
H41 C27 1_555 1_555
H42 C27 1_555 1_555
C28 H43 1_555 1_555
H44 C28 1_555 1_555
C29 C28 1_555 1_555
H45 C29 1_555 1_555
C30 C29 1_555 1_555
H46 C30 1_555 1_555
H47 C30 1_555 1_555
C31 C30 1_555 1_555
H48 C31 1_555 1_555
H49 C31 1_555 1_555
C32 C31 1_555 1_555
C33 C32 1_555 1_555
H50 C33 1_555 1_555
H51 C33 1_555 1_555
C34 C29 1_555 1_555
H52 C34 1_555 1_555
C35 C34 1_555 1_555
H53 C35 1_555 1_555
H54 C35 1_555 1_555
N2 C28 1_555 1_555
O4 S2 1_555 1_555
O5 S2 1_555 1_555
O6 C32 1_555 1_555
S2 C24 1_555 1_555
C5 C6 1_555 1_555
C11 C15 1_555 1_555
C12 C13 1_555 1_555
C14 N1 1_555 1_555
N1 S1 1_555 1_555
C25 C26 1_555 1_555
C33 C34 1_555 1_555
C35 N2 1_555 1_555
N2 S2 1_555 1_555

#END
