
#######################################################################
#
#                 Cambridge Crystallographic Data Centre
#                                CCDC 
#
#######################################################################
#
# If this CIF has been generated from an entry in the Cambridge 
# Structural Database, then it will include bibliographic, chemical, 
# crystal, experimental, refinement or atomic coordinate data resulting 
# from the CCDC's data processing and validation procedures.
#
#######################################################################

data_HAJKAG
_chemical_formula_moiety         'C26 H21 N2 O4 1+,B1 F4 1-,2(H2 O1)'
_chemical_name_systematic        
"4-((1'-(4-Carboxybenzyl)-4,4'-bipyridinium-1-yl)methyl)benzoate tetrafluoroborate dihydrate"
_symmetry_cell_setting           monoclinic
_symmetry_space_group_name_H-M   'P 21/c'
_symmetry_Int_Tables_number      14
_space_group_name_Hall           '-P 2ybc'
loop_
_symmetry_equiv_pos_site_id
_symmetry_equiv_pos_as_xyz
1 x,y,z
2 -x,1/2+y,1/2-z
3 -x,-y,-z
4 x,1/2-y,1/2+z
_cell_length_a                   15.524(7)
_cell_length_b                   11.032(4)
_cell_length_c                   15.224(7)
_cell_angle_alpha                90
_cell_angle_beta                 111.847(4)
_cell_angle_gamma                90
_cell_volume                     2420.02
_exptl_crystal_colour            'pale yellow'
_exptl_crystal_description       block
_cell_formula_units_Z            4
loop_
_atom_site_label
_atom_site_type_symbol
_atom_site_fract_x
_atom_site_fract_y
_atom_site_fract_z
C1 C 0.3921(2) -0.3607(3) 0.3334(3)
C2 C 0.3945(2) -0.2564(3) 0.3968(2)
C3 C 0.4431(2) -0.2586(3) 0.4931(2)
H1 H 0.4780 -0.3265 0.5210
C4 C 0.4403(2) -0.1600(3) 0.5491(2)
H2 H 0.4730 -0.1632 0.6141
C5 C 0.3897(2) -0.0574(3) 0.5094(2)
C6 C 0.3437(4) -0.0558(4) 0.4133(3)
H3 H 0.3098 0.0126 0.3849
C7 C 0.3463(3) -0.1526(4) 0.3577(3)
H4 H 0.3150 -0.1480 0.2925
C8 C 0.3897(2) 0.0508(3) 0.5699(3)
H5 H 0.4178 0.0283 0.6361
H6 H 0.4269 0.1148 0.5583
C9 C 0.2444(2) 0.0512(3) 0.5972(2)
H7 H 0.2701 -0.0097 0.6414
C10 C 0.1561(2) 0.0926(3) 0.5815(2)
H8 H 0.1232 0.0621 0.6167
C11 C 0.1167(2) 0.1801(3) 0.5126(2)
C12 C 0.1684(2) 0.2254(3) 0.4639(3)
H9 H 0.1432 0.2837 0.4171
C13 C 0.2571(2) 0.1844(3) 0.4844(3)
H10 H 0.2928 0.2170 0.4528
C14 C 0.0200(2) 0.2241(3) 0.4941(2)
C15 C -0.0023(2) 0.2788(3) 0.5634(3)
H11 H 0.0429 0.2889 0.6236
C16 C -0.0914(3) 0.3189(3) 0.5448(3)
H12 H -0.1057 0.3584 0.5916
C17 C -0.1380(2) 0.2465(3) 0.3905(3)
H13 H -0.1852 0.2338 0.3320
C18 C -0.0490(2) 0.2089(3) 0.4052(3)
H14 H -0.0354 0.1738 0.3563
C19 C -0.2527(2) 0.3483(3) 0.4395(3)
H15 H -0.2618 0.3577 0.4988
H16 H -0.2976 0.2894 0.4016
C20 C -0.2707(2) 0.4687(3) 0.3879(3)
C21 C -0.3531(2) 0.5283(3) 0.3759(3)
H17 H -0.3923 0.4975 0.4041
C22 C -0.3776(2) 0.6329(3) 0.3222(3)
H18 H -0.4331 0.6715 0.3148
C23 C -0.3210(2) 0.6806(3) 0.2795(2)
C24 C -0.2377(2) 0.6225(3) 0.2930(2)
H19 H -0.1985 0.6534 0.2649
C25 C -0.2126(2) 0.5190(3) 0.3478(3)
H20 H -0.1556 0.4827 0.3578
C26 C -0.3469(2) 0.7927(3) 0.2171(2)
N1 N 0.29289(17) 0.0977(2) 0.54969(19)
N2 N -0.15708(18) 0.3010(2) 0.4594(2)
O1 O 0.43339(17) -0.4568(2) 0.37743(19)
H21 H 0.423(3) -0.514(3) 0.339(2)
O3 O 0.35428(19) -0.3528(2) 0.24745(18)
O4 O -0.41341(15) 0.8568(2) 0.22220(17)
O5 O -0.3024(2) 0.8165(2) 0.1676(2)
O2 O 0.2031(3) 0.5273(4) 0.3408(5)
H22 H 0.238(5) 0.473(6) 0.335(6)
H23 H 0.157(6) 0.474(8) 0.323(6)
B1 B 0.0391(4) 0.9476(5) 0.2777(4)
F1 F 0.0512(6) 0.9646(5) 0.3759(4)
F2 F 0.0402(6) 1.0507(7) 0.2406(6)
F3 F 0.1072(5) 0.8699(7) 0.2805(7)
F4 F -0.0413(4) 0.8810(6) 0.2454(5)
F5? F -0.0320(6) 0.9455(8) 0.3016(7)
F6? F 0.0790(8) 1.0610(8) 0.2893(8)
F7? F 0.1011(8) 0.8631(12) 0.3071(9)
F8? F 0.0031(5) 0.9448(8) 0.1732(5)
loop_
_geom_bond_atom_site_label_1
_geom_bond_atom_site_label_2
_geom_bond_site_symmetry_1
_geom_bond_site_symmetry_2
C1 C2 1_555 1_555
C2 C3 1_555 1_555
C3 H1 1_555 1_555
C4 C3 1_555 1_555
H2 C4 1_555 1_555
C5 C4 1_555 1_555
C6 C5 1_555 1_555
H3 C6 1_555 1_555
C7 C2 1_555 1_555
H4 C7 1_555 1_555
C8 C5 1_555 1_555
H5 C8 1_555 1_555
H6 C8 1_555 1_555
C9 H7 1_555 1_555
C10 C9 1_555 1_555
H8 C10 1_555 1_555
C11 C10 1_555 1_555
C12 C11 1_555 1_555
H9 C12 1_555 1_555
C13 C12 1_555 1_555
H10 C13 1_555 1_555
C14 C11 1_555 1_555
C15 C14 1_555 1_555
H11 C15 1_555 1_555
C16 C15 1_555 1_555
H12 C16 1_555 1_555
C17 H13 1_555 1_555
C18 C14 1_555 1_555
H14 C18 1_555 1_555
C19 H15 1_555 1_555
H16 C19 1_555 1_555
C20 C19 1_555 1_555
C21 C20 1_555 1_555
H17 C21 1_555 1_555
C22 C21 1_555 1_555
H18 C22 1_555 1_555
C23 C22 1_555 1_555
C24 C23 1_555 1_555
H19 C24 1_555 1_555
C25 C20 1_555 1_555
H20 C25 1_555 1_555
C26 C23 1_555 1_555
N1 C8 1_555 1_555
N2 C16 1_555 1_555
O1 C1 1_555 1_555
H21 O1 1_555 1_555
O2 H22 1_555 1_555
H23 O2 1_555 1_555
O3 C1 1_555 1_555
O4 C26 1_555 1_555
O5 C26 1_555 1_555
B1 F1 1_555 1_555
F2 B1 1_555 1_555
F3 B1 1_555 1_555
F4 B1 1_555 1_555
C6 C7 1_555 1_555
C9 N1 1_555 1_555
C13 N1 1_555 1_555
C17 C18 1_555 1_555
C17 N2 1_555 1_555
C19 N2 1_555 1_555
C24 C25 1_555 1_555

#END
