
#######################################################################
#
#                 Cambridge Crystallographic Data Centre
#                                CCDC 
#
#######################################################################
#
# If this CIF has been generated from an entry in the Cambridge 
# Structural Database, then it will include bibliographic, chemical, 
# crystal, experimental, refinement or atomic coordinate data resulting 
# from the CCDC's data processing and validation procedures.
#
#######################################################################

data_HAJNIS
_chemical_formula_moiety         'C22 H17 O1 P1 S1'
_chemical_name_systematic        'S-2-naphthyl diphenylphosphinothioate'
_symmetry_cell_setting           monoclinic
_symmetry_space_group_name_H-M   'P 21/c'
_symmetry_Int_Tables_number      14
_space_group_name_Hall           '-P 2ybc'
loop_
_symmetry_equiv_pos_site_id
_symmetry_equiv_pos_as_xyz
1 x,y,z
2 -x,1/2+y,1/2-z
3 -x,-y,-z
4 x,1/2-y,1/2+z
_cell_length_a                   10.8152(5)
_cell_length_b                   8.5569(3)
_cell_length_c                   20.0431(9)
_cell_angle_alpha                90
_cell_angle_beta                 95.275(4)
_cell_angle_gamma                90
_cell_volume                     1847.02
_exptl_crystal_colour            colorless
_exptl_crystal_description       block
_chemical_melting_point          '96.3-96.7 deg.C'
_cell_formula_units_Z            4
loop_
_atom_site_label
_atom_site_type_symbol
_atom_site_fract_x
_atom_site_fract_y
_atom_site_fract_z
P1 P 0.71268(6) 0.32909(6) 0.16343(3)
S1 S 0.56372(6) 0.38688(8) 0.21862(3)
C1 C 0.4355(2) 0.3727(2) 0.15650(11)
C2 C 0.8316(2) 0.3023(2) 0.23148(10)
C3 C 0.6758(2) 0.1431(2) 0.12522(10)
C4 C 0.3447(2) 0.2657(3) 0.16512(10)
H1 H 0.3534 0.1986 0.2018
C5 C 0.2381(2) 0.2552(2) 0.11928(10)
C6 C 0.2275(2) 0.3566(2) 0.06331(11)
C7 C 0.4245(2) 0.4730(3) 0.10082(12)
H2 H 0.4865 0.5457 0.0950
C8 C 0.3238(3) 0.4640(3) 0.05556(12)
H3 H 0.3181 0.5302 0.0186
C9 C 0.1430(2) 0.1442(3) 0.12616(13)
H4 H 0.1495 0.0758 0.1624
C10 C 0.9483(2) 0.3602(3) 0.22297(13)
H5 H 0.9619 0.4125 0.1837
C11 C 0.1209(3) 0.3458(3) 0.01724(13)
H6 H 0.1119 0.4129 -0.0194
C12 C 0.0422(3) 0.1364(3) 0.08043(14)
H7 H -0.0196 0.0630 0.0856
C13 C 0.8135(2) 0.2244(3) 0.29079(11)
H8 H 0.7356 0.1846 0.2976
C14 C 1.0447(3) 0.3410(3) 0.27217(14)
H9 H 1.1229 0.3802 0.2657
C15 C 0.6917(3) 0.1236(3) 0.05830(12)
H10 H 0.7178 0.2070 0.0334
C16 C 0.6391(2) 0.0155(3) 0.16067(12)
H11 H 0.6284 0.0267 0.2059
C17 C 0.0312(3) 0.2379(4) 0.02596(13)
H12 H -0.0384 0.2320 -0.0049
C18 C 0.6323(3) -0.1433(3) 0.06403(16)
H13 H 0.6171 -0.2394 0.0432
C19 C 0.9111(3) 0.2064(3) 0.33942(13)
H14 H 0.8988 0.1539 0.3789
C20 C 0.6178(3) -0.1269(3) 0.13068(15)
H15 H 0.5938 -0.2118 0.1554
C21 C 0.6687(3) -0.0203(4) 0.02823(14)
H16 H 0.6784 -0.0326 -0.0171
C22 C 1.0262(3) 0.2654(3) 0.33002(14)
H17 H 1.0915 0.2535 0.3632
O1 O 0.74487(16) 0.44583(18) 0.11379(8)
loop_
_geom_bond_atom_site_label_1
_geom_bond_atom_site_label_2
_geom_bond_site_symmetry_1
_geom_bond_site_symmetry_2
P1 S1 1_555 1_555
S1 C1 1_555 1_555
C1 C4 1_555 1_555
C2 P1 1_555 1_555
C3 P1 1_555 1_555
C4 H1 1_555 1_555
C5 C4 1_555 1_555
C6 C5 1_555 1_555
C7 C1 1_555 1_555
H2 C7 1_555 1_555
C8 C6 1_555 1_555
H3 C8 1_555 1_555
C9 C5 1_555 1_555
H4 C9 1_555 1_555
C10 C2 1_555 1_555
H5 C10 1_555 1_555
C11 C6 1_555 1_555
H6 C11 1_555 1_555
C12 C9 1_555 1_555
H7 C12 1_555 1_555
C13 C2 1_555 1_555
H8 C13 1_555 1_555
C14 C10 1_555 1_555
H9 C14 1_555 1_555
C15 C3 1_555 1_555
H10 C15 1_555 1_555
C16 C3 1_555 1_555
H11 C16 1_555 1_555
C17 C11 1_555 1_555
H12 C17 1_555 1_555
C18 H13 1_555 1_555
C19 C13 1_555 1_555
H14 C19 1_555 1_555
C20 C16 1_555 1_555
H15 C20 1_555 1_555
C21 C15 1_555 1_555
H16 C21 1_555 1_555
C22 C14 1_555 1_555
H17 C22 1_555 1_555
O1 P1 1_555 1_555
C7 C8 1_555 1_555
C12 C17 1_555 1_555
C18 C20 1_555 1_555
C18 C21 1_555 1_555
C19 C22 1_555 1_555

#END
