
#######################################################################
#
#                 Cambridge Crystallographic Data Centre
#                                CCDC 
#
#######################################################################
#
# If this CIF has been generated from an entry in the Cambridge 
# Structural Database, then it will include bibliographic, chemical, 
# crystal, experimental, refinement or atomic coordinate data resulting 
# from the CCDC's data processing and validation procedures.
#
#######################################################################

data_HAJNEM
_chemical_formula_moiety         'C21 H39 N8 3+,3(Cl1 O4 1-),H2 O1'
_chemical_name_systematic        
'1,4,7,10,13,16,21,24-octaazapentacyclo[8.8.8.1^4,7^.1^13,16^.1^21,24^]nonacosa-4(29),16(28),21(27)-triene-4,16,21-trium triperchlorate monohydrate'
_symmetry_cell_setting           triclinic
_symmetry_space_group_name_H-M   'P -1'
_symmetry_Int_Tables_number      2
_space_group_name_Hall           '-P 1'
loop_
_symmetry_equiv_pos_site_id
_symmetry_equiv_pos_as_xyz
1 x,y,z
2 -x,-y,-z
_cell_length_a                   10.410(2)
_cell_length_b                   17.524(4)
_cell_length_c                   18.478(4)
_cell_angle_alpha                71.761(4)
_cell_angle_beta                 88.852(4)
_cell_angle_gamma                88.393(4)
_cell_volume                     3200.01
_exptl_crystal_colour            colorless
_exptl_crystal_description       block
_cell_formula_units_Z            4
loop_
_atom_site_label
_atom_site_type_symbol
_atom_site_fract_x
_atom_site_fract_y
_atom_site_fract_z
N1 N 1.3900(4) -0.0120(3) 0.3739(2)
N2 N 1.3387(4) -0.1664(3) 0.3413(3)
N3 N 1.2193(5) -0.1590(3) 0.2443(2)
N4 N 1.0916(4) -0.0096(3) 0.1365(2)
N5 N 1.4608(5) 0.0912(3) 0.2052(2)
N6 N 1.3392(5) 0.0939(3) 0.1097(2)
N7 N 1.1101(4) 0.0484(3) 0.3618(3)
N8 N 0.9891(5) 0.0480(3) 0.2662(3)
C1 C 1.4193(6) -0.0937(3) 0.4244(3)
H1 H 1.3467 -0.1122 0.4585
H2 H 1.4927 -0.0919 0.4553
C2 C 1.4480(6) -0.1528(3) 0.3824(3)
H3 H 1.5183 -0.1333 0.3467
H4 H 1.4758 -0.2035 0.4186
C3 C 1.3256(6) -0.1402(3) 0.2688(3)
H5 H 1.3879 -0.1101 0.2363
C4 C 1.1422(6) -0.2080(3) 0.3089(3)
H6 H 1.1283 -0.2610 0.3048
H7 H 1.0598 -0.1821 0.3125
C5 C 1.2269(6) -0.2123(3) 0.3764(3)
H8 H 1.1834 -0.1885 0.4112
H9 H 1.2512 -0.2675 0.4039
C6 C 1.1847(6) -0.1476(3) 0.1658(3)
H10 H 1.1675 -0.1994 0.1599
H11 H 1.2567 -0.1249 0.1327
C7 C 1.0689(6) -0.0933(3) 0.1418(3)
H12 H 1.0413 -0.0952 0.0926
H13 H 0.9996 -0.1133 0.1782
C8 C 1.5120(6) 0.0257(3) 0.3427(3)
H14 H 1.5644 -0.0124 0.3259
H15 H 1.5578 0.0375 0.3830
C9 C 1.4958(6) 0.1028(3) 0.2764(3)
H16 H 1.4302 0.1364 0.2900
H17 H 1.5757 0.1315 0.2686
C10 C 1.3464(6) 0.0892(3) 0.1802(3)
H18 H 1.2739 0.0846 0.2113
C11 C 1.4673(6) 0.1073(3) 0.0750(3)
H19 H 1.4715 0.1593 0.0360
H20 H 1.4923 0.0656 0.0529
C12 C 1.5503(6) 0.1040(4) 0.1416(4)
H21 H 1.6131 0.0602 0.1509
H22 H 1.5950 0.1540 0.1328
C13 C 1.2229(6) 0.1070(3) 0.0657(3)
H23 H 1.2427 0.1385 0.0135
H24 H 1.1620 0.1380 0.0861
C14 C 1.1610(6) 0.0307(3) 0.0655(3)
H25 H 1.1015 0.0429 0.0234
H26 H 1.2269 -0.0058 0.0568
C15 C 1.3249(6) 0.0335(3) 0.4189(3)
H27 H 1.3365 0.0904 0.3936
H28 H 1.3652 0.0198 0.4684
C16 C 1.1836(6) 0.0179(4) 0.4304(3)
H29 H 1.1717 -0.0396 0.4512
H30 H 1.1504 0.0422 0.4676
C17 C 1.0537(6) 0.0078(3) 0.3246(3)
H31 H 1.0598 -0.0480 0.3395
C18 C 0.9944(6) 0.1334(3) 0.2585(3)
H32 H 0.9092 0.1562 0.2615
H33 H 1.0351 0.1634 0.2107
C19 C 1.0755(6) 0.1330(3) 0.3264(3)
H34 H 1.1516 0.1648 0.3098
H35 H 1.0265 0.1539 0.3615
C20 C 0.9132(5) 0.0163(3) 0.2173(3)
H36 H 0.8272 0.0398 0.2137
H37 H 0.9063 -0.0413 0.2408
C21 C 0.9685(6) 0.0324(3) 0.1385(3)
H38 H 0.9074 0.0162 0.1075
H39 H 0.9803 0.0898 0.1162
N9 N 1.1525(4) 0.4876(3) -0.1051(2)
N10 N 1.2042(4) 0.3400(2) -0.1548(2)
N11 N 1.2654(4) 0.3424(3) -0.2683(3)
N12 N 1.3160(5) 0.5020(3) -0.3896(2)
N13 N 1.3992(5) 0.5669(3) -0.1681(3)
N14 N 1.4678(5) 0.5633(3) -0.2783(3)
N15 N 0.9904(5) 0.5663(3) -0.2549(3)
N16 N 1.0564(4) 0.5841(3) -0.3715(3)
C22 C 1.1225(5) 0.4046(3) -0.0626(3)
H40 H 1.0367 0.3935 -0.0756
H41 H 1.1227 0.3980 -0.0085
C23 C 1.2157(6) 0.3450(3) -0.0786(3)
H42 H 1.3024 0.3601 -0.0718
H43 H 1.2013 0.2924 -0.0421
C24 C 1.2922(5) 0.3597(3) -0.2080(3)
H44 H 1.3680 0.3842 -0.2027
C25 C 1.1454(5) 0.3006(3) -0.2584(3)
H45 H 1.1581 0.2468 -0.2618
H46 H 1.0833 0.3297 -0.2961
C26 C 1.1023(5) 0.2984(3) -0.1786(3)
H47 H 1.0200 0.3261 -0.1795
H48 H 1.0957 0.2436 -0.1451
C27 C 1.3469(6) 0.3535(4) -0.3350(4)
H49 H 1.3467 0.3051 -0.3498
H50 H 1.4343 0.3614 -0.3221
C28 C 1.3046(6) 0.4241(4) -0.4017(3)
H51 H 1.3558 0.4240 -0.4461
H52 H 1.2157 0.4173 -0.4126
C29 C 1.2445(6) 0.5183(3) -0.0623(3)
H53 H 1.3049 0.4754 -0.0374
H54 H 1.1983 0.5341 -0.0229
C30 C 1.3186(6) 0.5895(4) -0.1116(3)
H55 H 1.2587 0.6322 -0.1377
H56 H 1.3723 0.6096 -0.0797
C31 C 1.3838(6) 0.5915(3) -0.2408(4)
H57 H 1.3175 0.6268 -0.2642
C32 C 1.5659(5) 0.5152(4) -0.2266(3)
H58 H 1.6481 0.5414 -0.2353
H59 H 1.5762 0.4621 -0.2320
C33 C 1.5093(6) 0.5112(4) -0.1489(3)
H60 H 1.4825 0.4573 -0.1211
H61 H 1.5707 0.5283 -0.1187
C34 C 1.4817(6) 0.5892(4) -0.3613(3)
H62 H 1.5687 0.6070 -0.3753
H63 H 1.4236 0.6345 -0.3831
C35 C 1.4535(6) 0.5234(4) -0.3943(3)
H64 H 1.4808 0.5400 -0.4473
H65 H 1.5040 0.4759 -0.3676
C36 C 1.0369(6) 0.5377(3) -0.1179(3)
H66 H 1.0606 0.5937 -0.1342
H67 H 0.9891 0.5272 -0.0704
C37 C 0.9514(6) 0.5233(4) -0.1773(3)
H68 H 0.9519 0.4662 -0.1709
H69 H 0.8640 0.5396 -0.1690
C38 C 1.0509(5) 0.5367(3) -0.3028(3)
H70 H 1.0872 0.4851 -0.2883
C39 C 0.9758(6) 0.6569(3) -0.3765(4)
H71 H 0.8982 0.6584 -0.4052
H72 H 1.0229 0.7057 -0.3997
C40 C 0.9454(6) 0.6461(4) -0.2939(4)
H73 H 0.9896 0.6851 -0.2767
H74 H 0.8537 0.6517 -0.2859
C41 C 1.1016(6) 0.5626(4) -0.4370(3)
H75 H 1.0625 0.5991 -0.4823
H76 H 1.0734 0.5089 -0.4320
C42 C 1.2448(6) 0.5647(4) -0.4472(3)
H77 H 1.2660 0.5599 -0.4970
H78 H 1.2736 0.6166 -0.4466
Cl1 Cl 0.19952(18) 0.57480(12) 0.33810(10)
O1 O 0.0937(4) 0.5962(2) 0.37927(19)
O2 O 0.3106(4) 0.6174(2) 0.3468(2)
O3 O 0.1633(4) 0.5964(3) 0.2608(2)
O4 O 0.2275(4) 0.4901(2) 0.3675(3)
Cl2 Cl 0.83747(19) 0.24579(12) 0.00908(11)
O5 O 0.9580(5) 0.2207(3) -0.0118(3)
O6 O 0.7474(5) 0.1916(4) -0.0001(3)
O7 O 0.8393(7) 0.2427(4) 0.0832(3)
O8 O 0.8054(5) 0.3216(3) -0.0389(4)
Cl3 Cl 1.6848(2) 0.69902(11) -0.14456(12)
O9 O 1.7319(5) 0.6206(2) -0.1142(3)
O10 O 1.7773(12) 0.7566(7) -0.1782(8)
O11 O 1.6327(15) 0.7110(8) -0.0769(5)
O12 O 1.5835(14) 0.7062(7) -0.1956(8)
Cl4 Cl 0.8397(2) -0.18099(14) 0.43315(11)
O13 O 0.9463(5) -0.1556(4) 0.4615(3)
O14 O 0.8090(10) -0.1387(6) 0.3596(4)
O15 O 0.7417(8) -0.1851(6) 0.4864(5)
O16 O 0.8850(9) -0.2610(4) 0.4351(4)
Cl5 Cl 0.6202(2) 0.87711(13) 0.14505(12)
O17 O 0.5065(5) 0.9131(3) 0.1139(3)
O18 O 0.7058(9) 0.9367(5) 0.1002(6)
O19 O 0.6364(9) 0.8102(4) 0.1166(4)
O20 O 0.6300(11) 0.8593(8) 0.2213(4)
Cl6 Cl 0.7240(2) 0.20426(12) 0.38162(10)
O21 O 0.7817(5) 0.2526(2) 0.3124(2)
O22 O 0.7673(5) 0.1250(3) 0.3979(3)
O23 O 0.5889(5) 0.2085(3) 0.3764(3)
O24 O 0.7571(6) 0.2340(3) 0.4412(2)
O25 O 0.4436(5) 0.6861(3) 0.1281(4)
O26 O 0.6831(9) -0.2511(5) 0.6270(5)
O27? O 1.5708(12) 0.7231(8) -0.1164(11)
O28? O 1.7873(15) 0.7470(10) -0.1339(12)
O29? O 1.6684(19) 0.7055(10) -0.2222(5)
O30? O 0.7589(15) -0.1069(8) 0.4208(11)
O31? O 0.7625(19) -0.2461(10) 0.4588(11)
O32? O 0.8733(19) -0.1690(13) 0.3544(6)
O33? O 0.5734(11) 0.7998(5) 0.1985(8)
O34? O 0.7434(9) 0.8610(9) 0.1268(7)
O35? O 0.6350(15) 0.9199(7) 0.2011(7)
O36? O 0.471(4) 0.657(3) 0.026(2)
loop_
_geom_bond_atom_site_label_1
_geom_bond_atom_site_label_2
_geom_bond_site_symmetry_1
_geom_bond_site_symmetry_2
N1 C1 1_555 1_555
N2 C2 1_555 1_555
N3 C3 1_555 1_555
N4 C7 1_555 1_555
N5 C9 1_555 1_555
N6 C10 1_555 1_555
N7 C16 1_555 1_555
N8 C17 1_555 1_555
C1 H1 1_555 1_555
H2 C1 1_555 1_555
C2 C1 1_555 1_555
H3 C2 1_555 1_555
H4 C2 1_555 1_555
C3 N2 1_555 1_555
H5 C3 1_555 1_555
C4 N3 1_555 1_555
H6 C4 1_555 1_555
H7 C4 1_555 1_555
C5 N2 1_555 1_555
H8 C5 1_555 1_555
H9 C5 1_555 1_555
C6 N3 1_555 1_555
H10 C6 1_555 1_555
H11 C6 1_555 1_555
C7 C6 1_555 1_555
H12 C7 1_555 1_555
H13 C7 1_555 1_555
C8 N1 1_555 1_555
H14 C8 1_555 1_555
H15 C8 1_555 1_555
C9 C8 1_555 1_555
H16 C9 1_555 1_555
H17 C9 1_555 1_555
C10 N5 1_555 1_555
H18 C10 1_555 1_555
C11 N6 1_555 1_555
H19 C11 1_555 1_555
H20 C11 1_555 1_555
C12 N5 1_555 1_555
H21 C12 1_555 1_555
H22 C12 1_555 1_555
C13 N6 1_555 1_555
H23 C13 1_555 1_555
H24 C13 1_555 1_555
C14 N4 1_555 1_555
H25 C14 1_555 1_555
H26 C14 1_555 1_555
C15 N1 1_555 1_555
H27 C15 1_555 1_555
H28 C15 1_555 1_555
C16 C15 1_555 1_555
H29 C16 1_555 1_555
H30 C16 1_555 1_555
C17 N7 1_555 1_555
H31 C17 1_555 1_555
C18 N8 1_555 1_555
H32 C18 1_555 1_555
H33 C18 1_555 1_555
C19 N7 1_555 1_555
H34 C19 1_555 1_555
H35 C19 1_555 1_555
C20 N8 1_555 1_555
H36 C20 1_555 1_555
H37 C20 1_555 1_555
C21 N4 1_555 1_555
H38 C21 1_555 1_555
H39 C21 1_555 1_555
N9 C22 1_555 1_555
N10 C23 1_555 1_555
N11 C24 1_555 1_555
N12 C28 1_555 1_555
N13 C30 1_555 1_555
N14 C31 1_555 1_555
N15 C37 1_555 1_555
N16 C38 1_555 1_555
C22 H40 1_555 1_555
H41 C22 1_555 1_555
C23 C22 1_555 1_555
H42 C23 1_555 1_555
H43 C23 1_555 1_555
C24 N10 1_555 1_555
H44 C24 1_555 1_555
C25 N11 1_555 1_555
H45 C25 1_555 1_555
H46 C25 1_555 1_555
C26 N10 1_555 1_555
H47 C26 1_555 1_555
H48 C26 1_555 1_555
C27 N11 1_555 1_555
H49 C27 1_555 1_555
H50 C27 1_555 1_555
C28 C27 1_555 1_555
H51 C28 1_555 1_555
H52 C28 1_555 1_555
C29 N9 1_555 1_555
H53 C29 1_555 1_555
H54 C29 1_555 1_555
C30 C29 1_555 1_555
H55 C30 1_555 1_555
H56 C30 1_555 1_555
C31 N13 1_555 1_555
H57 C31 1_555 1_555
C32 N14 1_555 1_555
H58 C32 1_555 1_555
H59 C32 1_555 1_555
C33 N13 1_555 1_555
H60 C33 1_555 1_555
H61 C33 1_555 1_555
C34 N14 1_555 1_555
H62 C34 1_555 1_555
H63 C34 1_555 1_555
C35 N12 1_555 1_555
H64 C35 1_555 1_555
H65 C35 1_555 1_555
C36 N9 1_555 1_555
H66 C36 1_555 1_555
H67 C36 1_555 1_555
C37 C36 1_555 1_555
H68 C37 1_555 1_555
H69 C37 1_555 1_555
C38 N15 1_555 1_555
H70 C38 1_555 1_555
C39 N16 1_555 1_555
H71 C39 1_555 1_555
H72 C39 1_555 1_555
C40 N15 1_555 1_555
H73 C40 1_555 1_555
H74 C40 1_555 1_555
C41 N16 1_555 1_555
H75 C41 1_555 1_555
H76 C41 1_555 1_555
C42 N12 1_555 1_555
H77 C42 1_555 1_555
H78 C42 1_555 1_555
Cl1 O1 1_555 1_555
O2 Cl1 1_555 1_555
O3 Cl1 1_555 1_555
O4 Cl1 1_555 1_555
Cl2 O5 1_555 1_555
O6 Cl2 1_555 1_555
O7 Cl2 1_555 1_555
O8 Cl2 1_555 1_555
Cl3 O9 1_555 1_555
O10 Cl3 1_555 1_555
O11 Cl3 1_555 1_555
O12 Cl3 1_555 1_555
Cl4 O13 1_555 1_555
O14 Cl4 1_555 1_555
O15 Cl4 1_555 1_555
O16 Cl4 1_555 1_555
Cl5 O17 1_555 1_555
O18 Cl5 1_555 1_555
O19 Cl5 1_555 1_555
O20 Cl5 1_555 1_555
Cl6 O21 1_555 1_555
O22 Cl6 1_555 1_555
O23 Cl6 1_555 1_555
O24 Cl6 1_555 1_555
C4 C5 1_555 1_555
C11 C12 1_555 1_555
C13 C14 1_555 1_555
C18 C19 1_555 1_555
C20 C21 1_555 1_555
C25 C26 1_555 1_555
C32 C33 1_555 1_555
C34 C35 1_555 1_555
C39 C40 1_555 1_555
C41 C42 1_555 1_555

#END
