
#######################################################################
#
#                 Cambridge Crystallographic Data Centre
#                                CCDC 
#
#######################################################################
#
# If this CIF has been generated from an entry in the Cambridge 
# Structural Database, then it will include bibliographic, chemical, 
# crystal, experimental, refinement or atomic coordinate data resulting 
# from the CCDC's data processing and validation procedures.
#
#######################################################################

data_HAJXUM
_chemical_formula_moiety         'C6 H18 N3 3+,3(H2 O4 P1 1-)'
_chemical_name_systematic        
'1,4,7-Triazoniacyclononane tris(dihydrogen phosphate)'
_symmetry_cell_setting           monoclinic
_symmetry_space_group_name_H-M   'C c'
_symmetry_Int_Tables_number      9
_space_group_name_Hall           'C -2yc'
loop_
_symmetry_equiv_pos_site_id
_symmetry_equiv_pos_as_xyz
1 x,y,z
2 x,-y,1/2+z
3 1/2+x,1/2+y,z
4 1/2+x,1/2-y,1/2+z
_cell_length_a                   8.1727(2)
_cell_length_b                   14.1218(6)
_cell_length_c                   14.2394(6)
_cell_angle_alpha                90
_cell_angle_beta                 90.016(9)
_cell_angle_gamma                90
_cell_volume                     1643.42
_cell_formula_units_Z            4
loop_
_atom_site_label
_atom_site_type_symbol
_atom_site_fract_x
_atom_site_fract_y
_atom_site_fract_z
P1 P 0.20212(16) 0.83234(9) 0.80005(8)
O1 O 0.0401(5) 0.8811(3) 0.8329(3)
H1 H 0.0347 0.9358 0.8102
O2 O 0.3416(5) 0.8985(3) 0.8403(3)
H6 H 0.4334 0.8766 0.8250
O3 O 0.2061(5) 0.7406(2) 0.8548(2)
O4 O 0.2090(6) 0.8247(3) 0.6968(3)
N1 N 0.3543(6) 0.7517(3) 0.4342(3)
H2 H 0.4353 0.7181 0.4042
H3 H 0.3125 0.7941 0.3914
C1 C 0.4320(6) 0.8068(4) 0.5113(4)
H4 H 0.5515 0.7958 0.5090
H5 H 0.3919 0.7816 0.5720
N2 N 0.2431(6) 0.9455(3) 0.5534(3)
H7 H 0.2110 0.9002 0.5960
H8 H 0.2633 1.0001 0.5866
C2 C 0.4020(7) 0.9134(4) 0.5099(5)
H9 H 0.4932 0.9449 0.5433
H10 H 0.4046 0.9352 0.4438
N3 N -0.0059(6) 0.8056(3) 0.4422(3)
H11 H 0.0619 0.8166 0.3918
H12 H -0.1032 0.7824 0.4192
C3 C 0.1054(6) 0.9635(4) 0.4901(5)
H13 H 0.1490 0.9651 0.4252
H14 H 0.0634 1.0278 0.5041
C4 C -0.0380(7) 0.8971(4) 0.4907(5)
H15 H -0.0689 0.8840 0.5567
H16 H -0.1322 0.9286 0.4601
C5 C 0.0719(7) 0.7305(4) 0.5044(4)
H17 H -0.0105 0.6811 0.5185
H18 H 0.1049 0.7599 0.5646
C6 C 0.2212(8) 0.6839(4) 0.4595(4)
H19 H 0.2658 0.6362 0.5036
H20 H 0.1860 0.6501 0.4021
P2 P 0.20793(16) 0.83484(10) 0.19057(8)
O5 O 0.3347(5) 0.8971(3) 0.1439(3)
O6 O 0.2014(6) 0.8405(3) 0.2969(3)
O7 O 0.2431(5) 0.7311(3) 0.1556(3)
H21 H 0.1701 0.6946 0.1759
O8 O 0.0356(5) 0.8605(3) 0.1485(3)
H22 H 0.0112 0.9163 0.1634
P3 P 0.69918(18) 1.00803(9) 0.73917(13)
O9 O 0.8834(4) 1.0018(3) 0.7304(3)
O10 O 0.6138(4) 0.9144(2) 0.7439(3)
O11 O 0.6404(5) 1.0685(3) 0.6520(3)
H23 H 0.5391 1.0778 0.6559
O12 O 0.6459(5) 1.0635(3) 0.8293(3)
H24 H 0.657(12) 1.124(2) 0.811(6)
loop_
_geom_bond_atom_site_label_1
_geom_bond_atom_site_label_2
_geom_bond_site_symmetry_1
_geom_bond_site_symmetry_2
P1 O1 1_555 1_555
O1 H1 1_555 1_555
N1 H2 1_555 1_555
H3 N1 1_555 1_555
C1 N1 1_555 1_555
H4 C1 1_555 1_555
H5 C1 1_555 1_555
P2 O5 1_555 1_555
O2 P1 1_555 1_555
H6 O2 1_555 1_555
N2 H7 1_555 1_555
H8 N2 1_555 1_555
C2 C1 1_555 1_555
H9 C2 1_555 1_555
H10 C2 1_555 1_555
P3 O9 1_555 1_555
O3 P1 1_555 1_555
N3 H11 1_555 1_555
H12 N3 1_555 1_555
C3 N2 1_555 1_555
H13 C3 1_555 1_555
H14 C3 1_555 1_555
O4 P1 1_555 1_555
C4 N3 1_555 1_555
H15 C4 1_555 1_555
H16 C4 1_555 1_555
C5 N3 1_555 1_555
H17 C5 1_555 1_555
H18 C5 1_555 1_555
O6 P2 1_555 1_555
C6 N1 1_555 1_555
H19 C6 1_555 1_555
H20 C6 1_555 1_555
O7 P2 1_555 1_555
H21 O7 1_555 1_555
O8 P2 1_555 1_555
H22 O8 1_555 1_555
O10 P3 1_555 1_555
O11 P3 1_555 1_555
H23 O11 1_555 1_555
O12 P3 1_555 1_555
H24 O12 1_555 1_555
N2 C2 1_555 1_555
C3 C4 1_555 1_555
C5 C6 1_555 1_555

#END
