
#######################################################################
#
#                 Cambridge Crystallographic Data Centre
#                                CCDC 
#
#######################################################################
#
# If this CIF has been generated from an entry in the Cambridge 
# Structural Database, then it will include bibliographic, chemical, 
# crystal, experimental, refinement or atomic coordinate data resulting 
# from the CCDC's data processing and validation procedures.
#
#######################################################################

data_HAJXIA
_chemical_formula_moiety         'C6 H18 N3 3+,H1 O4 S1 1-,2(Cl1 1-)'
_chemical_name_systematic        
'1,4,7-Triazoniacyclononane hydrogen sulfate dichloride'
_symmetry_cell_setting           monoclinic
_symmetry_space_group_name_H-M   'P 21/n'
_symmetry_Int_Tables_number      14
_space_group_name_Hall           '-P 2yn'
loop_
_symmetry_equiv_pos_site_id
_symmetry_equiv_pos_as_xyz
1 x,y,z
2 1/2+x,1/2-y,1/2+z
3 -x,-y,-z
4 1/2-x,1/2+y,1/2-z
_cell_length_a                   7.8951(2)
_cell_length_b                   13.1071(3)
_cell_length_c                   11.7647(3)
_cell_angle_alpha                90
_cell_angle_beta                 98.3830(10)
_cell_angle_gamma                90
_cell_volume                     1204.43
_cell_formula_units_Z            4
loop_
_atom_site_label
_atom_site_type_symbol
_atom_site_fract_x
_atom_site_fract_y
_atom_site_fract_z
Cl1 Cl 0.33781(6) 0.61312(4) 0.84782(4)
S1 S 0.30596(6) 0.93470(4) 0.28589(4)
O1 O 0.27834(17) 0.82443(11) 0.28762(12)
O2 O 0.39862(18) 0.96746(12) 0.19474(12)
O3 O 0.37890(18) 0.97293(12) 0.39780(11)
O4 O 0.12624(19) 0.98564(13) 0.25217(14)
H19 H 0.059(4) 0.957(2) 0.284(2)
N1 N 0.1235(2) 0.67095(15) 0.60957(15)
C1 C 0.0656(3) 0.77960(17) 0.61470(19)
H1 H 0.199(3) 0.661(2) 0.664(2)
N2 N 0.3354(2) 0.88943(14) 0.64104(16)
C2 C 0.1734(3) 0.85956(17) 0.56667(18)
H2 H 0.034(3) 0.632(2) 0.620(2)
N3 N 0.4669(2) 0.71814(15) 0.47031(15)
C3 C 0.4728(3) 0.81080(17) 0.66461(17)
H3 H 0.054(3) 0.7949(17) 0.6927(19)
C4 C 0.5618(3) 0.78216(18) 0.56431(18)
H4 H -0.046(3) 0.7837(18) 0.566(2)
C5 C 0.3724(3) 0.62564(17) 0.50206(19)
H5 H 0.107(3) 0.9205(18) 0.5585(18)
C6 C 0.1799(3) 0.63690(18) 0.49891(18)
H6 H 0.199(3) 0.8383(17) 0.4923(18)
H7 H 0.313(3) 0.910(2) 0.713(2)
H8 H 0.376(3) 0.9445(19) 0.611(2)
H9 H 0.425(3) 0.7531(19) 0.6974(19)
H10 H 0.557(3) 0.8409(18) 0.7181(19)
H11 H 0.658(3) 0.7444(17) 0.5937(19)
H12 H 0.599(3) 0.8386(19) 0.5282(19)
H13 H 0.400(3) 0.756(2) 0.424(2)
H14 H 0.550(3) 0.691(2) 0.435(2)
H15 H 0.387(3) 0.5765(19) 0.447(2)
H16 H 0.428(3) 0.6013(17) 0.574(2)
H17 H 0.126(3) 0.6856(18) 0.4401(18)
H18 H 0.134(3) 0.5737(19) 0.4875(18)
Cl2 Cl 0.75804(6) 0.60276(4) 0.39271(4)
loop_
_geom_bond_atom_site_label_1
_geom_bond_atom_site_label_2
_geom_bond_site_symmetry_1
_geom_bond_site_symmetry_2
S1 O1 1_555 1_555
N1 C1 1_555 1_555
C1 C2 1_555 1_555
H1 N1 1_555 1_555
O2 S1 1_555 1_555
N2 C2 1_555 1_555
C2 H5 1_555 1_555
H2 N1 1_555 1_555
O3 S1 1_555 1_555
N3 C4 1_555 1_555
C3 N2 1_555 1_555
H3 C1 1_555 1_555
O4 S1 1_555 1_555
C4 C3 1_555 1_555
H4 C1 1_555 1_555
C5 N3 1_555 1_555
C6 N1 1_555 1_555
H6 C2 1_555 1_555
H7 N2 1_555 1_555
H8 N2 1_555 1_555
H9 C3 1_555 1_555
H10 C3 1_555 1_555
H11 C4 1_555 1_555
H12 C4 1_555 1_555
H13 N3 1_555 1_555
H14 N3 1_555 1_555
H15 C5 1_555 1_555
H16 C5 1_555 1_555
H17 C6 1_555 1_555
H18 C6 1_555 1_555
H19 O4 1_555 1_555
C5 C6 1_555 1_555

#END
