
#######################################################################
#
#                 Cambridge Crystallographic Data Centre
#                                CCDC 
#
#######################################################################
#
# If this CIF has been generated from an entry in the Cambridge 
# Structural Database, then it will include bibliographic, chemical, 
# crystal, experimental, refinement or atomic coordinate data resulting 
# from the CCDC's data processing and validation procedures.
#
#######################################################################

data_HAJYUO
_chemical_formula_moiety         'C15 H17 N5 O1'
_chemical_name_systematic        
(Z)-2-Amino-3-((E)-(4-(dimethylamino)-2-ethoxybenzylidene)amino)but-2-enedinitrile
_symmetry_cell_setting           monoclinic
_symmetry_space_group_name_H-M   'P 21/n'
_symmetry_Int_Tables_number      14
_space_group_name_Hall           '-P 2yn'
loop_
_symmetry_equiv_pos_site_id
_symmetry_equiv_pos_as_xyz
1 x,y,z
2 1/2-x,1/2+y,1/2-z
3 -x,-y,-z
4 1/2+x,1/2-y,1/2+z
_cell_length_a                   11.4595(6)
_cell_length_b                   10.4624(5)
_cell_length_c                   14.1316(6)
_cell_angle_alpha                90
_cell_angle_beta                 114.325(2)
_cell_angle_gamma                90
_cell_volume                     1543.88
_exptl_crystal_colour            orange
_exptl_crystal_description       block
_cell_formula_units_Z            4
_exptl_crystal_recrystallization_method chloroform/n-hexane
loop_
_atom_site_label
_atom_site_type_symbol
_atom_site_fract_x
_atom_site_fract_y
_atom_site_fract_z
O1 O 0.59243(15) -0.00493(17) 0.37894(13)
N1 N 1.2866(2) -0.3640(2) 0.6340(2)
N2 N 1.1989(2) -0.1062(2) 0.73314(18)
N3 N 0.9329(2) -0.2982(2) 0.4095(2)
N4 N 0.95241(18) -0.06448(18) 0.58983(15)
N5 N 0.5199(2) 0.3359(2) 0.57830(19)
C1 C 1.2242(2) -0.2819(2) 0.6384(2)
C2 C 1.1463(2) -0.1797(2) 0.64825(19)
C3 C 1.0256(2) -0.1609(2) 0.57350(19)
C4 C 0.9776(2) -0.2392(2) 0.4837(2)
C5 C 0.8376(2) -0.0424(2) 0.52192(19)
C6 C 0.7578(2) 0.0547(2) 0.53733(19)
C7 C 0.8009(2) 0.1360(2) 0.6229(2)
C8 C 0.7251(2) 0.2282(2) 0.6379(2)
C9 C 0.5971(2) 0.2444(2) 0.5643(2)
C10 C 0.5516(2) 0.1638(2) 0.4782(2)
C11 C 0.6307(2) 0.0727(2) 0.46336(19)
C12 C 0.4723(2) 0.0210(2) 0.29267(19)
C13 C 0.4619(2) -0.0687(3) 0.2080(2)
C14 C 0.3833(2) 0.3367(3) 0.5149(2)
C15 C 0.5681(3) 0.4221(2) 0.6657(2)
H1 H 1.1514 -0.0369 0.7428
H2 H 1.2830 -0.1233 0.7836
H3 H 0.8049 -0.0911 0.4597
H4 H 0.8867 0.1272 0.6731
H5 H 0.7580 0.2818 0.6974
H6 H 0.4655 0.1713 0.4285
H7 H 0.4030 0.0089 0.3122
H8 H 0.4715 0.1066 0.2698
H9 H 0.4996 -0.0318 0.1659
H10 H 0.3745 -0.0876 0.1664
H11 H 0.5060 -0.1452 0.2386
H12 H 0.3669 0.3876 0.4551
H13 H 0.3394 0.3717 0.5531
H14 H 0.3542 0.2520 0.4942
H15 H 0.5554 0.3861 0.7225
H16 H 0.5237 0.5012 0.6468
H17 H 0.6569 0.4360 0.6853
loop_
_geom_bond_atom_site_label_1
_geom_bond_atom_site_label_2
_geom_bond_site_symmetry_1
_geom_bond_site_symmetry_2
O1 C11 1_555 1_555
N1 C1 1_555 1_555
N2 C2 1_555 1_555
N3 C4 1_555 1_555
N4 C3 1_555 1_555
N5 C9 1_555 1_555
C1 C2 1_555 1_555
C2 C3 1_555 1_555
C3 C4 1_555 1_555
C5 N4 1_555 1_555
C6 C5 1_555 1_555
C7 C6 1_555 1_555
C8 C7 1_555 1_555
C9 C8 1_555 1_555
C10 C9 1_555 1_555
C11 C6 1_555 1_555
C12 O1 1_555 1_555
C13 C12 1_555 1_555
C14 N5 1_555 1_555
C15 N5 1_555 1_555
H1 N2 1_555 1_555
H2 N2 1_555 1_555
H3 C5 1_555 1_555
H4 C7 1_555 1_555
H5 C8 1_555 1_555
H6 C10 1_555 1_555
H7 C12 1_555 1_555
H8 C12 1_555 1_555
H9 C13 1_555 1_555
H10 C13 1_555 1_555
H11 C13 1_555 1_555
H12 C14 1_555 1_555
H13 C14 1_555 1_555
H14 C14 1_555 1_555
H15 C15 1_555 1_555
H16 C15 1_555 1_555
H17 C15 1_555 1_555
C10 C11 1_555 1_555

#END
