
#######################################################################
#
#                 Cambridge Crystallographic Data Centre
#                                CCDC 
#
#######################################################################
#
# If this CIF has been generated from an entry in the Cambridge 
# Structural Database, then it will include bibliographic, chemical, 
# crystal, experimental, refinement or atomic coordinate data resulting 
# from the CCDC's data processing and validation procedures.
#
#######################################################################

data_HAKDIH
_chemical_formula_moiety         'C12 H36 N6 6+,6(H2 O4 P1 1-)'
_chemical_name_systematic        
'1,4,7,10,13,16-Hexaazoniacyclooctadecane hexakis(dihydrogen phosphate)'
_symmetry_cell_setting           triclinic
_symmetry_space_group_name_H-M   'P -1'
_symmetry_Int_Tables_number      2
_space_group_name_Hall           '-P 1'
loop_
_symmetry_equiv_pos_site_id
_symmetry_equiv_pos_as_xyz
1 x,y,z
2 -x,-y,-z
_cell_length_a                   8.48260(10)
_cell_length_b                   8.8353(2)
_cell_length_c                   11.9115(3)
_cell_angle_alpha                105.8940(10)
_cell_angle_beta                 105.4840(10)
_cell_angle_gamma                97.4440(10)
_cell_volume                     807.408
_cell_formula_units_Z            1
loop_
_atom_site_label
_atom_site_type_symbol
_atom_site_fract_x
_atom_site_fract_y
_atom_site_fract_z
P1 P -0.29401(7) -0.54985(6) 0.15532(5)
H22 H -0.088(4) -0.659(4) 0.178(3)
H23 H -0.507(4) -0.672(4) 0.163(3)
O1 O -0.31180(18) -0.54834(17) 0.02632(13)
O2 O -0.11974(18) -0.58273(18) 0.21697(14)
O3 O -0.42327(19) -0.69804(18) 0.14950(15)
O4 O -0.30911(19) -0.39603(16) 0.24153(14)
N1 N -0.5486(2) -0.1944(2) 0.19446(18)
C1 C -0.4586(3) -0.0541(3) 0.1694(2)
H1 H -0.819(3) -0.406(3) 0.431(2)
N2 N -0.7526(2) -0.2074(2) 0.38629(16)
C2 C -0.7266(3) -0.1867(3) 0.1878(2)
H2 H -0.759(3) -0.394(2) 0.2405(19)
N3 N -0.7949(2) -0.0592(2) 0.63640(17)
C3 C -0.7986(3) -0.2939(3) 0.25023(19)
H3 H -0.744(3) 0.008(3) 0.607(2)
C4 C -0.8356(3) -0.2994(3) 0.4513(2)
H4 H -0.814(3) -0.291(3) 0.628(2)
C5 C -0.7665(3) -0.2251(3) 0.5896(2)
H5 H -0.226(3) -0.113(3) 0.210(2)
C6 C -0.2706(3) -0.0174(3) 0.2254(2)
H6 H -0.500(3) 0.043(3) 0.201(2)
H7 H -0.720(3) -0.076(3) 0.226(2)
H8 H -0.557(3) -0.284(3) 0.143(2)
H9 H -0.648(3) -0.219(3) 0.616(2)
H10 H -0.216(2) 0.064(2) 0.1943(19)
H11 H -0.919(3) -0.310(3) 0.220(2)
H12 H -0.489(3) -0.080(2) 0.081(2)
H13 H -0.956(3) -0.309(3) 0.414(2)
H14 H -0.785(3) -0.107(4) 0.392(3)
H15 H -0.791(3) -0.226(3) 0.097(2)
H16 H -0.641(3) -0.188(3) 0.420(2)
H17 H -0.489(3) -0.202(3) 0.276(2)
H18 H -0.909(4) -0.067(3) 0.610(3)
N3A N -0.2051(2) 0.0592(2) 0.36360(17)
H3A H -0.256(3) -0.008(3) 0.393(2)
C5A C -0.2335(3) 0.2251(3) 0.4104(2)
C4A C -0.1644(3) 0.2994(3) 0.5487(2)
H1A H -0.181(3) 0.406(3) 0.569(2)
N2A N -0.2474(2) 0.2074(2) 0.61371(16)
C3A C -0.2014(3) 0.2939(3) 0.74977(19)
C2A C -0.2734(3) 0.1867(3) 0.8122(2)
N1A N -0.4514(2) 0.1944(2) 0.80554(18)
C1A C -0.5414(3) 0.0541(3) 0.8306(2)
C6A C -0.7294(3) 0.0174(3) 0.7746(2)
H5A H -0.774(3) 0.113(3) 0.790(2)
H10A H -0.784(2) -0.064(2) 0.8057(19)
H6A H -0.500(3) -0.043(3) 0.799(2)
H12A H -0.511(3) 0.080(2) 0.919(2)
H8A H -0.443(3) 0.284(3) 0.857(2)
H17A H -0.511(3) 0.202(3) 0.724(2)
H7A H -0.280(3) 0.076(3) 0.774(2)
H15A H -0.209(3) 0.226(3) 0.903(2)
H2A H -0.241(3) 0.394(2) 0.7595(19)
H11A H -0.081(3) 0.310(3) 0.780(2)
H14A H -0.215(3) 0.107(4) 0.608(3)
H16A H -0.359(3) 0.188(3) 0.580(2)
H13A H -0.044(3) 0.309(3) 0.586(2)
H4A H -0.186(3) 0.291(3) 0.372(2)
H9A H -0.352(3) 0.219(3) 0.384(2)
H18A H -0.091(4) 0.067(3) 0.390(3)
P2 P -0.15544(7) -0.23163(6) 0.91899(5)
H19 H -0.199(5) -0.387(5) 1.018(4)
H20 H -0.142(4) 0.014(4) 1.012(3)
O5 O 0.00951(18) -0.18462(17) 0.89738(14)
O6 O -0.29377(17) -0.34179(16) 0.80550(13)
O7 O -0.1215(2) -0.3098(2) 1.02206(16)
O8 O -0.22069(19) -0.07616(19) 0.96608(15)
P3 P -0.28288(6) -0.20462(6) 0.53117(5)
H21 H -0.328(4) -0.270(4) 0.683(3)
O9 O -0.40806(17) -0.15024(16) 0.44045(13)
O10 O -0.12631(17) -0.07153(17) 0.59837(14)
O11 O -0.37482(19) -0.23983(19) 0.62095(15)
O12 O -0.23918(19) -0.36276(17) 0.46592(14)
H24 H -0.2678 -0.3783 0.3898
loop_
_geom_bond_atom_site_label_1
_geom_bond_atom_site_label_2
_geom_bond_site_symmetry_1
_geom_bond_site_symmetry_2
P1 O1 1_555 1_555
N1 C1 1_555 1_555
C1 C6 1_555 1_555
H1 C4 1_555 1_555
P2 O5 1_555 1_555
N2 C3 1_555 1_555
C2 N1 1_555 1_555
H2 C3 1_555 1_555
P3 O9 1_555 1_555
N3 H3 1_555 1_555
C3 C2 1_555 1_555
C4 N2 1_555 1_555
H4 C5 1_555 1_555
C5 N3 1_555 1_555
H5 C6 1_555 1_555
C6 H10 1_555 1_555
H6 C1 1_555 1_555
H7 C2 1_555 1_555
H8 N1 1_555 1_555
H9 C5 1_555 1_555
H11 C3 1_555 1_555
H12 C1 1_555 1_555
H13 C4 1_555 1_555
H14 N2 1_555 1_555
H15 C2 1_555 1_555
H16 N2 1_555 1_555
H17 N1 1_555 1_555
H18 N3 1_555 1_555
H19 O7 1_555 1_555
H20 O8 1_555 1_555
H21 O11 1_555 1_555
H22 O2 1_555 1_555
H23 O3 1_555 1_555
O2 P1 1_555 1_555
O3 P1 1_555 1_555
O4 P1 1_555 1_555
O6 P2 1_555 1_555
O7 P2 1_555 1_555
O8 P2 1_555 1_555
O10 P3 1_555 1_555
O11 P3 1_555 1_555
O12 P3 1_555 1_555
H24 O12 1_555 1_555
N3A C6 1_555 1_555
H3A N3A 1_555 1_555
C5A N3A 1_555 1_555
C4A C5A 1_555 1_555
H1A C4A 1_555 1_555
N2A C4A 1_555 1_555
C3A N2A 1_555 1_555
C2A C3A 1_555 1_555
N1A C2A 1_555 1_555
C1A N1A 1_555 1_555
C6A N3 1_555 1_555
H5A C6A 1_555 1_555
H10A C6A 1_555 1_555
H6A C1A 1_555 1_555
H12A C1A 1_555 1_555
H8A N1A 1_555 1_555
H17A N1A 1_555 1_555
H7A C2A 1_555 1_555
H15A C2A 1_555 1_555
H2A C3A 1_555 1_555
H11A C3A 1_555 1_555
H14A N2A 1_555 1_555
H16A N2A 1_555 1_555
H13A C4A 1_555 1_555
H4A C5A 1_555 1_555
H9A C5A 1_555 1_555
H18A N3A 1_555 1_555
C4 C5 1_555 1_555
C1A C6A 1_555 1_555

#END
