
#######################################################################
#
#                 Cambridge Crystallographic Data Centre
#                                CCDC 
#
#######################################################################
#
# If this CIF has been generated from an entry in the Cambridge 
# Structural Database, then it will include bibliographic, chemical, 
# crystal, experimental, refinement or atomic coordinate data resulting 
# from the CCDC's data processing and validation procedures.
#
#######################################################################

data_HAKDUV
_chemical_formula_moiety         'C39 H23 Br2 N1 S1'
_chemical_name_systematic        
4-(6,11-dibromo-1,4-diphenyl-3-(thiophen-3-yl)triphenylen-2-yl)pyridine
_symmetry_cell_setting           monoclinic
_symmetry_space_group_name_H-M   'P n'
_symmetry_Int_Tables_number      7
_space_group_name_Hall           'P -2yac'
loop_
_symmetry_equiv_pos_site_id
_symmetry_equiv_pos_as_xyz
1 x,y,z
2 1/2+x,-y,1/2+z
_cell_length_a                   9.8233(3)
_cell_length_b                   24.3526(10)
_cell_length_c                   13.3575(4)
_cell_angle_alpha                90
_cell_angle_beta                 107.704(2)
_cell_angle_gamma                90
_cell_volume                     3044.09
_exptl_crystal_colour            colorless
_exptl_crystal_description       plate
_cell_formula_units_Z            4
loop_
_atom_site_label
_atom_site_type_symbol
_atom_site_fract_x
_atom_site_fract_y
_atom_site_fract_z
Br1 Br 0.58504(10) 0.31295(3) 0.25859(7)
Br2 Br 0.21362(10) 0.72626(4) 0.26041(7)
C1 C 0.4765(8) 0.5280(3) -0.0927(5)
C2 C 0.4557(8) 0.4918(3) -0.0172(5)
C3 C 0.4633(8) 0.5118(3) 0.0839(5)
C4 C 0.4843(8) 0.4760(3) 0.1783(5)
C5 C 0.5221(8) 0.4202(3) 0.1780(6)
H1 H 0.5284 0.4038 0.1150
C6 C 0.5497(9) 0.3893(3) 0.2677(6)
C7 C 0.5502(10) 0.4116(4) 0.3628(6)
H2 H 0.5737 0.3899 0.4249
C8 C 0.5158(10) 0.4659(4) 0.3648(6)
H3 H 0.5141 0.4817 0.4294
C9 C 0.4829(8) 0.4990(3) 0.2750(5)
C10 C 0.4374(8) 0.5563(3) 0.2780(5)
C11 C 0.3992(9) 0.5774(4) 0.3647(6)
H4 H 0.4144 0.5554 0.4259
C12 C 0.3417(9) 0.6279(4) 0.3627(6)
H5 H 0.3200 0.6418 0.4226
C13 C 0.3149(9) 0.6593(3) 0.2719(6)
C14 C 0.3556(9) 0.6413(3) 0.1872(6)
H6 H 0.3379 0.6637 0.1263
C15 C 0.4221(8) 0.5909(3) 0.1904(5)
C16 C 0.4629(8) 0.5698(3) 0.0999(5)
C17 C 0.4941(8) 0.6057(3) 0.0244(5)
C18 C 0.5051(8) 0.5837(3) -0.0695(5)
C19 C 0.4731(8) 0.5068(3) -0.1996(5)
C20 C 0.5937(9) 0.5068(3) -0.2326(6)
H7 H 0.6831 0.5194 -0.1879
C21 C 0.5790(11) 0.4874(5) -0.3357(7)
H8 H 0.6625 0.4853 -0.3572
N1 N 0.4610(12) 0.4728(4) -0.4008(7)
C22 C 0.3533(11) 0.4703(5) -0.3707(6)
H9 H 0.2684 0.4556 -0.4181
C23 C 0.3479(9) 0.4880(4) -0.2701(5)
H10 H 0.2614 0.4867 -0.2523
C24 C 0.4179(8) 0.4338(3) -0.0465(5)
C25 C 0.5097(9) 0.3984(4) -0.0752(6)
H11 H 0.5960 0.4120 -0.0839
C26 C 0.4764(12) 0.3433(4) -0.0912(7)
H12 H 0.5417 0.3189 -0.1081
C27 C 0.3473(12) 0.3235(4) -0.0828(8)
H13 H 0.3250 0.2855 -0.0928
C28 C 0.2534(11) 0.3587(4) -0.0601(8)
H14 H 0.1641 0.3454 -0.0564
C29 C 0.2868(9) 0.4139(3) -0.0422(7)
H15 H 0.2201 0.4383 -0.0270
C30 C 0.5259(8) 0.6650(3) 0.0492(6)
C31 C 0.6371(10) 0.6805(4) 0.1367(6)
H16 H 0.6938 0.6533 0.1811
C32 C 0.6652(12) 0.7351(4) 0.1592(7)
H17 H 0.7426 0.7450 0.2188
C33 C 0.5846(12) 0.7754(4) 0.0979(8)
H18 H 0.6029 0.8129 0.1161
C34 C 0.4749(11) 0.7603(4) 0.0081(7)
H19 H 0.4201 0.7878 -0.0368
C35 C 0.4458(10) 0.7059(3) -0.0155(6)
H20 H 0.3705 0.6959 -0.0765
S1 S 0.5386(9) 0.6690(3) -0.3160(5)
C36 C 0.697(3) 0.6692(19) -0.218(2)
H21 H 0.7835 0.6853 -0.2210
C37 C 0.6777(10) 0.6421(4) -0.1313(7)
H22 H 0.7514 0.6391 -0.0662
C38 C 0.5446(9) 0.6199(3) -0.1473(5)
C39 C 0.4514(11) 0.6309(4) -0.2468(6)
H23 H 0.3547 0.6191 -0.2723
Br3 Br 0.56212(11) -0.23664(3) 0.45628(7)
Br4 Br 0.36908(11) 0.17722(4) 0.17375(7)
C41 C 0.4374(8) 0.0017(3) 0.6881(5)
C42 C 0.4340(8) -0.0404(3) 0.6165(6)
C43 C 0.4465(8) -0.0272(3) 0.5150(5)
C44 C 0.4584(8) -0.0714(3) 0.4414(5)
C45 C 0.5044(9) -0.1250(3) 0.4761(6)
H25 H 0.5345 -0.1330 0.5491
C46 C 0.5058(10) -0.1651(3) 0.4055(6)
C47 C 0.4690(10) -0.1548(3) 0.2979(6)
H26 H 0.4665 -0.1835 0.2492
C48 C 0.4368(9) -0.1021(3) 0.2653(6)
H27 H 0.4195 -0.0938 0.1930
C49 C 0.4282(9) -0.0595(3) 0.3339(5)
C50 C 0.4037(9) -0.0028(3) 0.2984(5)
C51 C 0.3624(12) 0.0089(4) 0.1898(7)
H28 H 0.3413 -0.0209 0.1416
C52 C 0.3514(12) 0.0612(4) 0.1509(6)
H29 H 0.3239 0.0679 0.0774
C53 C 0.3814(9) 0.1036(4) 0.2218(6)
C54 C 0.4156(9) 0.0948(3) 0.3289(6)
H30 H 0.4338 0.1253 0.3754
C55 C 0.4238(8) 0.0411(3) 0.3703(5)
C56 C 0.4470(8) 0.0287(3) 0.4844(5)
C57 C 0.4542(8) 0.0702(3) 0.5614(5)
C58 C 0.4516(8) 0.0565(3) 0.6622(5)
C59 C 0.4293(9) -0.0133(3) 0.7947(5)
C60 C 0.5494(9) -0.0093(4) 0.8822(6)
H31 H 0.6350 0.0067 0.8765
C61 C 0.5422(11) -0.0293(4) 0.9795(6)
H32 H 0.6240 -0.0253 1.0394
N2 N 0.4286(11) -0.0530(4) 0.9916(6)
C62 C 0.3155(11) -0.0537(4) 0.9132(7)
H33 H 0.2306 -0.0674 0.9241
C63 C 0.3077(10) -0.0354(4) 0.8112(7)
H34 H 0.2210 -0.0382 0.7551
C64 C 0.4096(9) -0.0967(3) 0.6493(5)
C65 C 0.5131(9) -0.1242(3) 0.7287(6)
H35 H 0.6024 -0.1069 0.7609
C66 C 0.4881(12) -0.1762(4) 0.7613(7)
H36 H 0.5608 -0.1948 0.8139
C67 C 0.3571(13) -0.2010(4) 0.7172(8)
H37 H 0.3389 -0.2363 0.7406
C68 C 0.2530(11) -0.1747(4) 0.6396(7)
H38 H 0.1633 -0.1920 0.6087
C69 C 0.2791(10) -0.1227(4) 0.6061(6)
H39 H 0.2063 -0.1047 0.5527
C70 C 0.4677(8) 0.1302(3) 0.5409(5)
C71 C 0.5978(10) 0.1531(4) 0.5431(6)
H40 H 0.6817 0.1311 0.5630
C72 C 0.6065(11) 0.2074(4) 0.5167(7)
H41 H 0.6958 0.2225 0.5171
C73 C 0.4849(11) 0.2400(4) 0.4896(7)
H42 H 0.4906 0.2773 0.4702
C74 C 0.3580(12) 0.2187(4) 0.4909(7)
H43 H 0.2754 0.2413 0.4743
C75 C 0.3483(10) 0.1638(3) 0.5164(7)
H44 H 0.2589 0.1491 0.5171
S3 S 0.3694(9) 0.1585(3) 0.8689(5)
C76 C 0.541(2) 0.1683(9) 0.865(2)
H45 H 0.6079 0.1934 0.9068
C77 C 0.5643(10) 0.1337(3) 0.7897(6)
H46 H 0.6520 0.1331 0.7734
C78 C 0.4503(9) 0.0999(3) 0.7400(6)
C79 C 0.3324(9) 0.1088(3) 0.7756(6)
H47 H 0.2441 0.0897 0.7510
S2? S 0.6903(14) 0.6780(6) -0.2364(10)
C40? C 0.496(5) 0.659(2) -0.311(4)
H24? H 0.4435 0.6687 -0.3812
S4? S 0.5114(10) 0.1783(4) 0.8760(8)
C80? C 0.343(6) 0.1444(18) 0.843(4)
H48? H 0.2701 0.1526 0.8743
loop_
_geom_bond_atom_site_label_1
_geom_bond_atom_site_label_2
_geom_bond_site_symmetry_1
_geom_bond_site_symmetry_2
Br1 C6 1_555 1_555
Br2 C13 1_555 1_555
C1 C2 1_555 1_555
C2 C3 1_555 1_555
C3 C4 1_555 1_555
C4 C5 1_555 1_555
C5 H1 1_555 1_555
C6 C5 1_555 1_555
C7 C6 1_555 1_555
H2 C7 1_555 1_555
C8 C7 1_555 1_555
H3 C8 1_555 1_555
C9 C4 1_555 1_555
C10 C9 1_555 1_555
C11 C10 1_555 1_555
H4 C11 1_555 1_555
C12 C11 1_555 1_555
H5 C12 1_555 1_555
C13 C12 1_555 1_555
C14 C13 1_555 1_555
H6 C14 1_555 1_555
C15 C10 1_555 1_555
C16 C3 1_555 1_555
C17 C16 1_555 1_555
C18 C1 1_555 1_555
C19 C1 1_555 1_555
C20 C19 1_555 1_555
H7 C20 1_555 1_555
C21 C20 1_555 1_555
H8 C21 1_555 1_555
N1 C21 1_555 1_555
C22 N1 1_555 1_555
H9 C22 1_555 1_555
C23 C19 1_555 1_555
H10 C23 1_555 1_555
C24 C2 1_555 1_555
C25 C24 1_555 1_555
H11 C25 1_555 1_555
C26 C25 1_555 1_555
H12 C26 1_555 1_555
C27 C26 1_555 1_555
H13 C27 1_555 1_555
C28 C27 1_555 1_555
H14 C28 1_555 1_555
C29 C24 1_555 1_555
H15 C29 1_555 1_555
C30 C17 1_555 1_555
C31 C30 1_555 1_555
H16 C31 1_555 1_555
C32 C31 1_555 1_555
H17 C32 1_555 1_555
C33 C32 1_555 1_555
H18 C33 1_555 1_555
C34 C33 1_555 1_555
H19 C34 1_555 1_555
C35 C30 1_555 1_555
H20 C35 1_555 1_555
S1 C36 1_555 1_555
C36 H21 1_555 1_555
C37 C36 1_555 1_555
H22 C37 1_555 1_555
C38 C18 1_555 1_555
C39 S1 1_555 1_555
H23 C39 1_555 1_555
Br3 C46 1_555 1_555
Br4 C53 1_555 1_555
C41 C42 1_555 1_555
C42 C43 1_555 1_555
C43 C44 1_555 1_555
C44 C45 1_555 1_555
C45 H25 1_555 1_555
C46 C45 1_555 1_555
C47 C46 1_555 1_555
H26 C47 1_555 1_555
C48 C47 1_555 1_555
H27 C48 1_555 1_555
C49 C44 1_555 1_555
C50 C49 1_555 1_555
C51 C50 1_555 1_555
H28 C51 1_555 1_555
C52 C51 1_555 1_555
H29 C52 1_555 1_555
C53 C52 1_555 1_555
C54 C53 1_555 1_555
H30 C54 1_555 1_555
C55 C50 1_555 1_555
C56 C43 1_555 1_555
C57 C56 1_555 1_555
C58 C41 1_555 1_555
C59 C41 1_555 1_555
C60 C59 1_555 1_555
H31 C60 1_555 1_555
C61 C60 1_555 1_555
H32 C61 1_555 1_555
N2 C61 1_555 1_555
C62 N2 1_555 1_555
H33 C62 1_555 1_555
C63 C59 1_555 1_555
H34 C63 1_555 1_555
C64 C42 1_555 1_555
C65 C64 1_555 1_555
H35 C65 1_555 1_555
C66 C65 1_555 1_555
H36 C66 1_555 1_555
C67 C66 1_555 1_555
H37 C67 1_555 1_555
C68 C67 1_555 1_555
H38 C68 1_555 1_555
C69 C64 1_555 1_555
H39 C69 1_555 1_555
C70 C57 1_555 1_555
C71 C70 1_555 1_555
H40 C71 1_555 1_555
C72 C71 1_555 1_555
H41 C72 1_555 1_555
C73 C72 1_555 1_555
H42 C73 1_555 1_555
C74 C73 1_555 1_555
H43 C74 1_555 1_555
C75 C70 1_555 1_555
H44 C75 1_555 1_555
S3 C76 1_555 1_555
C76 H45 1_555 1_555
C77 C76 1_555 1_555
H46 C77 1_555 1_555
C78 C58 1_555 1_555
C79 S3 1_555 1_555
H47 C79 1_555 1_555
C8 C9 1_555 1_555
C14 C15 1_555 1_555
C15 C16 1_555 1_555
C17 C18 1_555 1_555
C22 C23 1_555 1_555
C28 C29 1_555 1_555
C34 C35 1_555 1_555
C37 C38 1_555 1_555
C38 C39 1_555 1_555
C48 C49 1_555 1_555
C54 C55 1_555 1_555
C55 C56 1_555 1_555
C57 C58 1_555 1_555
C62 C63 1_555 1_555
C68 C69 1_555 1_555
C74 C75 1_555 1_555
C77 C78 1_555 1_555
C78 C79 1_555 1_555

#END
