
#######################################################################
#
#                 Cambridge Crystallographic Data Centre
#                                CCDC 
#
#######################################################################
#
# If this CIF has been generated from an entry in the Cambridge 
# Structural Database, then it will include bibliographic, chemical, 
# crystal, experimental, refinement or atomic coordinate data resulting 
# from the CCDC's data processing and validation procedures.
#
#######################################################################

data_HAKFAB
_chemical_formula_moiety         'C12 H34 N6 4+,2(H1 O4 P1 2-),7(H2 O1)'
_chemical_name_systematic        
'1,4,10,13-Tetraazonia-7,16-diazacyclooctadecane bis(hydrogen phosphato) heptahydrate'
_symmetry_cell_setting           triclinic
_symmetry_space_group_name_H-M   'P -1'
_symmetry_Int_Tables_number      2
_space_group_name_Hall           '-P 1'
loop_
_symmetry_equiv_pos_site_id
_symmetry_equiv_pos_as_xyz
1 x,y,z
2 -x,-y,-z
_cell_length_a                   9.46870(10)
_cell_length_b                   10.3232(2)
_cell_length_c                   14.1338(3)
_cell_angle_alpha                91.4810(10)
_cell_angle_beta                 90.2980(10)
_cell_angle_gamma                106.5970(10)
_cell_volume                     1323.43
_cell_formula_units_Z            2
loop_
_atom_site_label
_atom_site_type_symbol
_atom_site_fract_x
_atom_site_fract_y
_atom_site_fract_z
P1 P 0.46967(4) 0.50914(4) 0.23343(3)
H35 H 0.246(3) 0.408(3) 0.229(2)
O1 O 0.51412(12) 0.52730(11) 0.12955(7)
O2 O 0.58026(12) 0.46477(12) 0.29274(8)
O3 O 0.32290(13) 0.38935(12) 0.23958(8)
O4 O 0.44034(12) 0.63818(11) 0.27293(8)
H1 H -0.098(2) 0.6133(18) 0.4746(13)
H2 H -0.101(2) 0.565(2) 0.5723(16)
H3 H -0.196(2) 0.3393(19) 0.5941(13)
H4 H -0.343(3) 0.340(2) 0.6285(17)
H5 H -0.077(2) 0.155(2) 0.5499(14)
N4 N -0.14889(15) 0.61177(14) 0.52731(10)
C7 C -0.13918(19) 0.75325(18) 0.55981(12)
H23 H -0.201(2) 0.7474(18) 0.6160(13)
N5 N -0.29588(15) 0.31225(14) 0.57683(9)
C8 C -0.30486(17) 0.53001(18) 0.50956(12)
H24 H -0.1819(19) 0.7931(19) 0.5102(13)
N6 N -0.10946(15) 0.17941(15) 0.49927(10)
C9 C -0.32118(19) 0.38248(18) 0.49025(11)
H25 H -0.3626(18) 0.5429(17) 0.5638(12)
C10 C -0.34700(19) 0.16129(18) 0.56694(12)
H26 H -0.340(2) 0.5656(19) 0.4553(13)
C11 C -0.26610(18) 0.11203(19) 0.48761(12)
H27 H -0.424(2) 0.3354(19) 0.4696(13)
C12 C 0.01960(19) 0.83177(18) 0.58149(12)
H28 H -0.252(2) 0.3708(19) 0.4453(13)
H29 H -0.453(2) 0.1403(19) 0.5527(13)
H30 H -0.325(2) 0.127(2) 0.6265(15)
H31 H -0.292(2) 0.016(2) 0.4928(14)
H32 H -0.297(2) 0.138(2) 0.4271(14)
H33 H 0.024(2) 0.923(2) 0.6005(13)
H34 H 0.059(2) 0.791(2) 0.6370(14)
N6A N 0.10946(15) 0.82059(15) 0.50073(10)
H5A H 0.077(2) 0.845(2) 0.4501(14)
C11A C 0.26610(18) 0.88797(19) 0.51239(12)
C10A C 0.34700(19) 0.83871(18) 0.43306(12)
N5A N 0.29588(15) 0.68775(14) 0.42317(9)
H3A H 0.196(2) 0.6607(19) 0.4059(13)
H4A H 0.343(3) 0.660(2) 0.3715(17)
C9A C 0.32118(19) 0.61752(18) 0.50975(11)
C8A C 0.30486(17) 0.46999(18) 0.49044(12)
N4A N 0.14889(15) 0.38823(14) 0.47269(10)
H1A H 0.098(2) 0.3867(18) 0.5254(13)
H2A H 0.101(2) 0.435(2) 0.4277(16)
C7A C 0.13918(19) 0.24675(18) 0.44019(12)
H23A H 0.201(2) 0.2526(18) 0.3840(13)
H24A H 0.1819(19) 0.2069(19) 0.4898(13)
C12A C -0.01960(19) 0.16823(18) 0.41851(12)
H33A H -0.024(2) 0.077(2) 0.3995(13)
H34A H -0.059(2) 0.209(2) 0.3630(14)
H25A H 0.3626(18) 0.4571(17) 0.4362(12)
H26A H 0.340(2) 0.4344(19) 0.5447(13)
H27A H 0.424(2) 0.6646(19) 0.5304(13)
H28A H 0.252(2) 0.6292(19) 0.5547(13)
H29A H 0.453(2) 0.8597(19) 0.4473(13)
H30A H 0.325(2) 0.873(2) 0.3735(15)
H31A H 0.292(2) 0.984(2) 0.5072(14)
H32A H 0.297(2) 0.862(2) 0.5729(14)
P2 P -0.02785(4) 0.49754(4) 0.26211(3)
H36 H -0.255(3) 0.429(3) 0.2608(18)
O5 O -0.01413(12) 0.63029(11) 0.21163(8)
O6 O 0.06924(12) 0.41996(12) 0.21723(8)
O7 O -0.18911(13) 0.40164(13) 0.24549(8)
O8 O 0.00290(12) 0.52617(11) 0.36824(7)
H6 H 0.703(2) 0.655(2) 0.1008(13)
H7 H 0.861(2) 0.661(2) 0.1330(14)
H8 H 0.580(2) 0.871(2) 0.0753(15)
H9 H 0.405(2) 0.6110(19) 0.0342(14)
H10 H 0.397(2) 0.571(2) -0.0645(15)
N1 N 0.80132(15) 0.68529(14) 0.08648(9)
C1 C 0.81756(19) 0.61973(17) -0.00686(11)
H11 H 0.916(2) 0.6659(19) -0.0318(12)
N2 N 0.60876(15) 0.83191(15) 0.02811(10)
C2 C 0.85167(19) 0.83639(17) 0.08629(12)
H12 H 0.7455(19) 0.6318(17) -0.0484(12)
N3 N 0.35235(15) 0.61310(14) -0.01585(10)
C3 C 0.76672(18) 0.89168(18) 0.01470(12)
H13 H 0.8343(19) 0.8672(18) 0.1533(13)
C4 C 0.51954(18) 0.83557(18) -0.05524(11)
H14 H 0.956(2) 0.8653(19) 0.0708(13)
C5 C 0.36063(18) 0.75506(17) -0.04010(12)
H15 H 0.798(2) 0.990(2) 0.0234(14)
C6 C 0.80304(17) 0.47052(17) 0.00172(12)
H16 H 0.789(2) 0.8712(19) -0.0487(13)
H17 H 0.518(2) 0.927(2) -0.0742(14)
H18 H 0.5599(19) 0.7950(18) -0.1092(13)
H19 H 0.314(2) 0.7903(19) 0.0151(13)
H20 H 0.301(2) 0.7486(18) -0.0986(13)
H21 H 0.838(2) 0.4358(19) -0.0560(13)
H22 H 0.8618(18) 0.4550(17) 0.0554(12)
N3A N 0.64765(15) 0.38690(14) 0.01585(10)
H9A H 0.595(2) 0.3890(19) -0.0342(14)
H10A H 0.603(2) 0.429(2) 0.0645(15)
C5A C 0.63937(18) 0.24494(17) 0.04010(12)
C4A C 0.48046(18) 0.16443(18) 0.05524(11)
N2A N 0.39124(15) 0.16809(15) -0.02811(10)
H8A H 0.420(2) 0.129(2) -0.0753(15)
C3A C 0.23328(18) 0.10832(18) -0.01470(12)
C2A C 0.14833(19) 0.16361(17) -0.08629(12)
N1A N 0.19868(15) 0.31471(14) -0.08648(9)
H6A H 0.297(2) 0.345(2) -0.1008(13)
H7A H 0.139(2) 0.339(2) -0.1330(14)
C1A C 0.18244(19) 0.38027(17) 0.00686(11)
H11A H 0.084(2) 0.3341(19) 0.0318(12)
H12A H 0.2545(19) 0.3682(17) 0.0484(12)
C6A C 0.19696(17) 0.52948(17) -0.00172(12)
H21A H 0.162(2) 0.5642(19) 0.0560(13)
H22A H 0.1382(18) 0.5450(17) -0.0554(12)
H13A H 0.1657(19) 0.1328(18) -0.1533(13)
H14A H 0.044(2) 0.1347(19) -0.0708(13)
H15A H 0.202(2) 0.010(2) -0.0234(14)
H16A H 0.211(2) 0.1288(19) 0.0487(13)
H17A H 0.482(2) 0.073(2) 0.0742(14)
H18A H 0.4401(19) 0.2050(18) 0.1092(13)
H19A H 0.686(2) 0.2097(19) -0.0151(13)
H20A H 0.699(2) 0.2514(18) 0.0986(13)
O9 O 0.19402(17) 0.02396(14) 0.23644(11)
H48 H 0.128(3) -0.024(3) 0.2689(18)
H49 H 0.235(3) -0.032(3) 0.2124(18)
H37 H 0.399(3) 0.146(3) 0.2947(19)
O10 O 0.48275(16) 0.17586(15) 0.31231(10)
H38 H 0.501(3) 0.265(3) 0.310(2)
O11 O -0.03558(15) 0.15377(15) 0.16582(9)
H39 H 0.034(3) 0.122(3) 0.1840(17)
H40 H -0.008(3) 0.236(3) 0.1843(16)
O12 O -0.33199(17) 0.03875(14) 0.22148(10)
H41 H -0.247(3) 0.082(3) 0.2145(18)
H50 H -0.376(3) 0.092(3) 0.2460(19)
O13 O 0.27311(16) -0.21426(14) 0.18145(9)
H42 H 0.332(3) -0.258(3) 0.2052(18)
H43 H 0.180(3) -0.268(3) 0.1863(17)
O14 O -0.03766(14) -0.15852(14) 0.32162(9)
H44 H -0.030(3) -0.232(3) 0.2915(18)
H45 H -0.145(3) -0.167(3) 0.3278(19)
O15 O -0.32100(14) -0.16427(15) 0.33944(9)
H46 H -0.325(3) -0.091(3) 0.300(2)
H47 H -0.390(3) -0.236(3) 0.3156(18)
loop_
_geom_bond_atom_site_label_1
_geom_bond_atom_site_label_2
_geom_bond_site_symmetry_1
_geom_bond_site_symmetry_2
P1 O1 1_555 1_555
H1 N4 1_555 1_555
P2 O5 1_555 1_555
H2 N4 1_555 1_555
H3 N5 1_555 1_555
H4 N5 1_555 1_555
H5 N6 1_555 1_555
H6 N1 1_555 1_555
H7 N1 1_555 1_555
H8 N2 1_555 1_555
H9 N3 1_555 1_555
H10 N3 1_555 1_555
N1 C1 1_555 1_555
C1 H11 1_555 1_555
N2 C3 1_555 1_555
C2 N1 1_555 1_555
H12 C1 1_555 1_555
N3 C5 1_555 1_555
C3 C2 1_555 1_555
H13 C2 1_555 1_555
C4 N2 1_555 1_555
H14 C2 1_555 1_555
C5 C4 1_555 1_555
H15 C3 1_555 1_555
C6 C1 1_555 1_555
H16 C3 1_555 1_555
H17 C4 1_555 1_555
H18 C4 1_555 1_555
H19 C5 1_555 1_555
H20 C5 1_555 1_555
H21 C6 1_555 1_555
H22 C6 1_555 1_555
N4 C7 1_555 1_555
C7 H23 1_555 1_555
N5 C9 1_555 1_555
C8 N4 1_555 1_555
H24 C7 1_555 1_555
N6 C11 1_555 1_555
C9 C8 1_555 1_555
H25 C8 1_555 1_555
C10 N5 1_555 1_555
H26 C8 1_555 1_555
C11 C10 1_555 1_555
H27 C9 1_555 1_555
C12 C7 1_555 1_555
H28 C9 1_555 1_555
H29 C10 1_555 1_555
H30 C10 1_555 1_555
H31 C11 1_555 1_555
H32 C11 1_555 1_555
H33 C12 1_555 1_555
H34 C12 1_555 1_555
H35 O3 1_555 1_555
H36 O7 1_555 1_555
O2 P1 1_555 1_555
O3 P1 1_555 1_555
O4 P1 1_555 1_555
O6 P2 1_555 1_555
O7 P2 1_555 1_555
O8 P2 1_555 1_555
O9 H48 1_555 1_555
H37 O10 1_555 1_555
O10 H38 1_555 1_555
O11 H39 1_555 1_555
O12 H41 1_555 1_555
H40 O11 1_555 1_555
O13 H42 1_555 1_555
O14 H44 1_555 1_555
O15 H46 1_555 1_555
H43 O13 1_555 1_555
H45 O14 1_555 1_555
H47 O15 1_555 1_555
H49 O9 1_555 1_555
H50 O12 1_555 1_555
N6A C12 1_555 1_555
H5A N6A 1_555 1_555
C11A N6A 1_555 1_555
C10A C11A 1_555 1_555
N5A C10A 1_555 1_555
H3A N5A 1_555 1_555
H4A N5A 1_555 1_555
C9A N5A 1_555 1_555
C8A C9A 1_555 1_555
N4A C8A 1_555 1_555
H1A N4A 1_555 1_555
H2A N4A 1_555 1_555
C7A N4A 1_555 1_555
H23A C7A 1_555 1_555
H24A C7A 1_555 1_555
C12A N6 1_555 1_555
H33A C12A 1_555 1_555
H34A C12A 1_555 1_555
H25A C8A 1_555 1_555
H26A C8A 1_555 1_555
H27A C9A 1_555 1_555
H28A C9A 1_555 1_555
H29A C10A 1_555 1_555
H30A C10A 1_555 1_555
H31A C11A 1_555 1_555
H32A C11A 1_555 1_555
N3A C6 1_555 1_555
H9A N3A 1_555 1_555
H10A N3A 1_555 1_555
C5A N3A 1_555 1_555
C4A C5A 1_555 1_555
N2A C4A 1_555 1_555
H8A N2A 1_555 1_555
C3A N2A 1_555 1_555
C2A C3A 1_555 1_555
N1A C2A 1_555 1_555
H6A N1A 1_555 1_555
H7A N1A 1_555 1_555
C1A N1A 1_555 1_555
H11A C1A 1_555 1_555
H12A C1A 1_555 1_555
C6A N3 1_555 1_555
H21A C6A 1_555 1_555
H22A C6A 1_555 1_555
H13A C2A 1_555 1_555
H14A C2A 1_555 1_555
H15A C3A 1_555 1_555
H16A C3A 1_555 1_555
H17A C4A 1_555 1_555
H18A C4A 1_555 1_555
H19A C5A 1_555 1_555
H20A C5A 1_555 1_555
C7A C12A 1_555 1_555
C1A C6A 1_555 1_555

#END
