
#######################################################################
#
#                 Cambridge Crystallographic Data Centre
#                                CCDC 
#
#######################################################################
#
# If this CIF has been generated from an entry in the Cambridge 
# Structural Database, then it will include bibliographic, chemical, 
# crystal, experimental, refinement or atomic coordinate data resulting 
# from the CCDC's data processing and validation procedures.
#
#######################################################################

data_HAKJIP
_chemical_formula_moiety         'C15 H22 O4'
_chemical_name_systematic        
'methyl 3,5-dihydroxy-9-methyl-7-(prop-1-en-2-yl)bicyclo[3.3.1]non-2-ene-2-carboxylate'
_symmetry_cell_setting           monoclinic
_symmetry_space_group_name_H-M   'P 21'
_symmetry_Int_Tables_number      4
_space_group_name_Hall           'P 2yb'
loop_
_symmetry_equiv_pos_site_id
_symmetry_equiv_pos_as_xyz
1 x,y,z
2 -x,1/2+y,-z
_cell_length_a                   13.783(2)
_cell_length_b                   7.2399(10)
_cell_length_c                   15.862(2)
_cell_angle_alpha                90
_cell_angle_beta                 115.438(8)
_cell_angle_gamma                90
_cell_volume                     1429.38
_exptl_crystal_colour            colorless
_exptl_crystal_description       needle
_cell_formula_units_Z            4
loop_
_atom_site_label
_atom_site_type_symbol
_atom_site_fract_x
_atom_site_fract_y
_atom_site_fract_z
O1 O 0.17913(12) 0.3274(2) 0.24476(10)
H1 H 0.223(2) 0.269(4) 0.2933(18)
O2 O 0.45838(12) 0.7416(2) 0.26855(11)
H2 H 0.511(2) 0.762(4) 0.2468(18)
O3 O 0.52146(11) 0.4392(2) 0.07514(10)
O4 O 0.57291(12) 0.6745(2) 0.17751(11)
C1 C 0.23781(16) 0.3920(3) 0.19474(14)
C2 C 0.31404(17) 0.5465(3) 0.25151(14)
H3 H 0.2714 0.6604 0.2442
H4 H 0.3452 0.5117 0.3183
C3 C 0.40393(16) 0.5894(3) 0.22581(14)
C4 C 0.42676(16) 0.4850(3) 0.16548(14)
C5 C 0.35691(15) 0.3196(3) 0.11813(14)
H5 H 0.4031 0.2226 0.1088
C6 C 0.26889(16) 0.3760(3) 0.02167(14)
H6 H 0.3030 0.4242 -0.0175
H7 H 0.2259 0.2660 -0.0098
C7 C 0.19459(16) 0.5243(3) 0.03112(14)
H8 H 0.2392 0.6369 0.0580
C8 C 0.15094(16) 0.4600(3) 0.10091(14)
H9 H 0.1118 0.5639 0.1128
H10 H 0.0987 0.3589 0.0720
C9 C 0.30628(16) 0.2389(3) 0.18007(14)
H11 H 0.3663 0.2110 0.2424
C10 C 0.24618(18) 0.0585(3) 0.14184(16)
H12 H 0.2253 0.0036 0.1881
H13 H 0.2929 -0.0274 0.1287
H14 H 0.1817 0.0833 0.0841
C11 C 0.10520(16) 0.5788(3) -0.06212(14)
C12 C 0.09395(18) 0.7523(3) -0.09168(15)
H15 H 0.0374 0.7844 -0.1503
H16 H 0.1424 0.8444 -0.0543
C13 C 0.02968(19) 0.4309(4) -0.11997(16)
H17 H -0.0293 0.4873 -0.1738
H18 H 0.0006 0.3646 -0.0820
H19 H 0.0685 0.3442 -0.1419
C14 C 0.51283(16) 0.5429(3) 0.14243(14)
C15 C 0.6042(2) 0.4973(4) 0.04726(19)
H20 H 0.5926 0.6269 0.0275
H21 H 0.6009 0.4203 -0.0047
H22 H 0.6749 0.4839 0.1001
O5 O 0.67379(13) 0.6290(2) 0.60238(11)
H23 H 0.606(2) 0.622(4) 0.587(2)
O6 O 0.53726(11) 0.0987(2) 0.40926(11)
H24 H 0.5317(19) 0.045(4) 0.3535(17)
O7 O 0.70488(11) 0.2208(2) 0.25489(10)
O8 O 0.57701(11) 0.0497(2) 0.26844(10)
C16 C 0.70033(17) 0.5000(3) 0.54574(14)
C17 C 0.61820(16) 0.3429(3) 0.51605(14)
H25 H 0.6394 0.2525 0.5677
H26 H 0.5474 0.3940 0.5058
C18 C 0.60667(15) 0.2437(3) 0.42942(14)
C19 C 0.65822(16) 0.2918(3) 0.37722(14)
C20 C 0.73408(16) 0.4556(3) 0.40565(14)
H27 H 0.7312 0.5159 0.3479
C21 C 0.85008(16) 0.3939(3) 0.46590(14)
H28 H 0.8985 0.5019 0.4793
H29 H 0.8718 0.3028 0.4307
C22 C 0.86240(16) 0.3072(3) 0.55832(14)
H30 H 0.8191 0.1908 0.5425
C23 C 0.81441(16) 0.4356(3) 0.60820(14)
H31 H 0.8140 0.3697 0.6627
H32 H 0.8613 0.5452 0.6318
C24 C 0.69561(17) 0.5959(3) 0.45802(15)
H33 H 0.6184 0.6234 0.4171
C25 C 0.75658(19) 0.7791(3) 0.47733(17)
H34 H 0.7307 0.8606 0.5127
H35 H 0.7445 0.8380 0.4180
H36 H 0.8336 0.7561 0.5137
C26 C 0.97715(17) 0.2548(3) 0.62330(15)
C27 C 0.9971(2) 0.0879(4) 0.66871(19)
H37 H 1.0682 0.0565 0.7117
H38 H 0.9398 0.0039 0.6572
C28 C 1.0626(2) 0.3830(5) 0.6399(2)
H39 H 1.1314 0.3253 0.6801
H40 H 1.0521 0.4933 0.6708
H41 H 1.0629 0.4181 0.5804
C29 C 0.64183(16) 0.1776(3) 0.29632(14)
C30 C 0.69369(18) 0.1003(3) 0.17750(14)
H42 H 0.7008 -0.0288 0.1979
H43 H 0.7498 0.1297 0.1572
H44 H 0.6229 0.1192 0.1254
loop_
_geom_bond_atom_site_label_1
_geom_bond_atom_site_label_2
_geom_bond_site_symmetry_1
_geom_bond_site_symmetry_2
O1 H1 1_555 1_555
O2 H2 1_555 1_555
O3 C14 1_555 1_555
O4 C14 1_555 1_555
C1 O1 1_555 1_555
C2 C1 1_555 1_555
H3 C2 1_555 1_555
H4 C2 1_555 1_555
C3 O2 1_555 1_555
C4 C3 1_555 1_555
C5 C4 1_555 1_555
H5 C5 1_555 1_555
C6 C5 1_555 1_555
H6 C6 1_555 1_555
H7 C6 1_555 1_555
C7 C6 1_555 1_555
H8 C7 1_555 1_555
C8 C1 1_555 1_555
H9 C8 1_555 1_555
H10 C8 1_555 1_555
C9 C1 1_555 1_555
H11 C9 1_555 1_555
C10 C9 1_555 1_555
H12 C10 1_555 1_555
H13 C10 1_555 1_555
H14 C10 1_555 1_555
C11 C7 1_555 1_555
C12 C11 1_555 1_555
H15 C12 1_555 1_555
H16 C12 1_555 1_555
C13 C11 1_555 1_555
H17 C13 1_555 1_555
H18 C13 1_555 1_555
H19 C13 1_555 1_555
C14 C4 1_555 1_555
C15 O3 1_555 1_555
H20 C15 1_555 1_555
H21 C15 1_555 1_555
H22 C15 1_555 1_555
O5 H23 1_555 1_555
O6 H24 1_555 1_555
O7 C29 1_555 1_555
O8 C29 1_555 1_555
C16 O5 1_555 1_555
C17 C16 1_555 1_555
H25 C17 1_555 1_555
H26 C17 1_555 1_555
C18 O6 1_555 1_555
C19 C18 1_555 1_555
C20 C19 1_555 1_555
H27 C20 1_555 1_555
C21 C20 1_555 1_555
H28 C21 1_555 1_555
H29 C21 1_555 1_555
C22 C21 1_555 1_555
H30 C22 1_555 1_555
C23 C16 1_555 1_555
H31 C23 1_555 1_555
H32 C23 1_555 1_555
C24 C16 1_555 1_555
H33 C24 1_555 1_555
C25 C24 1_555 1_555
H34 C25 1_555 1_555
H35 C25 1_555 1_555
H36 C25 1_555 1_555
C26 C22 1_555 1_555
C27 C26 1_555 1_555
H37 C27 1_555 1_555
H38 C27 1_555 1_555
C28 C26 1_555 1_555
H39 C28 1_555 1_555
H40 C28 1_555 1_555
H41 C28 1_555 1_555
C29 C19 1_555 1_555
C30 O7 1_555 1_555
H42 C30 1_555 1_555
H43 C30 1_555 1_555
H44 C30 1_555 1_555
C2 C3 1_555 1_555
C5 C9 1_555 1_555
C7 C8 1_555 1_555
C17 C18 1_555 1_555
C20 C24 1_555 1_555
C22 C23 1_555 1_555

#END
