
#######################################################################
#
#                 Cambridge Crystallographic Data Centre
#                                CCDC 
#
#######################################################################
#
# If this CIF has been generated from an entry in the Cambridge 
# Structural Database, then it will include bibliographic, chemical, 
# crystal, experimental, refinement or atomic coordinate data resulting 
# from the CCDC's data processing and validation procedures.
#
#######################################################################

data_HAKJOV
_chemical_formula_moiety         'C19 H38 O3 Si1'
_chemical_name_systematic        
1-((t-butyl(dimethyl)silyl)oxy)-9-(3-hydroxypropyl)-4-methylbicyclo[3.3.1]nonan-3-ol
_symmetry_cell_setting           monoclinic
_symmetry_space_group_name_H-M   'P 21/c'
_symmetry_Int_Tables_number      14
_space_group_name_Hall           '-P 2ybc'
loop_
_symmetry_equiv_pos_site_id
_symmetry_equiv_pos_as_xyz
1 x,y,z
2 -x,1/2+y,1/2-z
3 -x,-y,-z
4 x,1/2-y,1/2+z
_cell_length_a                   9.915(2)
_cell_length_b                   36.982(11)
_cell_length_c                   17.044(5)
_cell_angle_alpha                90
_cell_angle_beta                 90.656(17)
_cell_angle_gamma                90
_cell_volume                     6249.23
_exptl_crystal_colour            colorless
_exptl_crystal_description       prism
_cell_formula_units_Z            12
_exptl_crystal_recrystallization_method 'ethyl acetate'
loop_
_atom_site_label
_atom_site_type_symbol
_atom_site_fract_x
_atom_site_fract_y
_atom_site_fract_z
Si1 Si 0.31811(16) 0.85494(4) 0.89502(9)
O1 O 0.4551(4) 0.87472(10) 0.8642(2)
O2 O 0.6147(4) 0.84438(10) 0.6236(2)
H1 H 0.6641 0.8452 0.5839
O3 O 0.8323(4) 1.00234(11) 0.9643(2)
H2 H 0.9067 1.0002 0.9417
C1 C 0.5611(6) 0.86578(15) 0.8095(3)
C2 C 0.5119(6) 0.87786(15) 0.7278(3)
H3 H 0.4383 0.8614 0.7110
H4 H 0.4725 0.9023 0.7328
C3 C 0.6168(6) 0.87897(16) 0.6625(3)
H5 H 0.5852 0.8973 0.6234
C4 C 0.7571(6) 0.89115(15) 0.6920(3)
H6 H 0.7520 0.9181 0.6948
C5 C 0.7984(5) 0.87881(15) 0.7761(3)
H7 H 0.8791 0.8934 0.7921
C6 C 0.6862(6) 0.88764(15) 0.8344(3)
H8 H 0.7163 0.8777 0.8862
C7 C 0.5931(6) 0.82546(14) 0.8183(3)
H9 H 0.6052 0.8199 0.8748
H10 H 0.5147 0.8114 0.7989
C8 C 0.7185(5) 0.81289(15) 0.7749(3)
H11 H 0.6968 0.8107 0.7182
H12 H 0.7452 0.7887 0.7944
C9 C 0.8367(6) 0.83897(15) 0.7858(3)
H13 H 0.9070 0.8329 0.7471
H14 H 0.8763 0.8354 0.8388
C10 C 0.8678(6) 0.88320(16) 0.6323(3)
H15 H 0.9550 0.8913 0.6533
H16 H 0.8477 0.8960 0.5832
H17 H 0.8713 0.8571 0.6221
C11 C 0.6583(6) 0.92774(15) 0.8474(3)
H18 H 0.5749 0.9303 0.8783
H19 H 0.6420 0.9394 0.7958
C12 C 0.7733(5) 0.94767(15) 0.8899(3)
H20 H 0.8049 0.9329 0.9350
H21 H 0.8498 0.9507 0.8537
C13 C 0.7293(6) 0.98438(14) 0.9190(3)
H22 H 0.7044 0.9997 0.8734
H23 H 0.6481 0.9815 0.9517
C14 C 0.3528(6) 0.81445(15) 0.9579(3)
H24 H 0.4109 0.8214 1.0022
H25 H 0.3981 0.7959 0.9267
H26 H 0.2676 0.8048 0.9776
C15 C 0.2072(6) 0.83967(16) 0.8121(3)
H27 H 0.2534 0.8208 0.7822
H28 H 0.1870 0.8602 0.7776
H29 H 0.1229 0.8299 0.8329
C16 C 0.2340(6) 0.89149(14) 0.9543(3)
C17 C 0.2041(6) 0.92391(15) 0.9006(3)
H30 H 0.2885 0.9327 0.8781
H31 H 0.1624 0.9433 0.9312
H32 H 0.1424 0.9165 0.8583
C18 C 0.3272(6) 0.90357(16) 1.0220(3)
H33 H 0.4123 0.9125 1.0008
H34 H 0.3452 0.8830 1.0569
H35 H 0.2834 0.9229 1.0516
C19 C 0.1008(6) 0.87795(17) 0.9878(4)
H36 H 0.1180 0.8570 1.0216
H37 H 0.0401 0.8709 0.9447
H38 H 0.0590 0.8972 1.0185
Si2 Si 0.76572(16) 0.69693(4) 0.61331(9)
O4 O 0.6227(4) 0.71325(10) 0.6443(2)
O5 O 0.4739(4) 0.68281(10) 0.8894(2)
H39 H 0.4267 0.6836 0.9300
O6 O 0.3857(4) 0.82125(10) 0.5416(2)
C20 C 0.5209(5) 0.70161(15) 0.6993(3)
C21 C 0.5622(6) 0.71661(15) 0.7803(3)
H40 H 0.6417 0.7028 0.7992
H41 H 0.5916 0.7420 0.7732
C22 C 0.4562(6) 0.71597(14) 0.8451(3)
H42 H 0.4776 0.7364 0.8815
C23 C 0.3111(5) 0.72191(15) 0.8144(3)
H43 H 0.3016 0.7487 0.8087
C24 C 0.2784(6) 0.70631(14) 0.7316(3)
H44 H 0.1912 0.7174 0.7139
C25 C 0.3871(5) 0.71804(14) 0.6721(3)
H45 H 0.3631 0.7062 0.6211
C26 C 0.5092(6) 0.66016(14) 0.6951(3)
H46 H 0.5008 0.6529 0.6393
H47 H 0.5937 0.6494 0.7162
C27 C 0.3901(5) 0.64430(15) 0.7400(3)
H48 H 0.3762 0.6189 0.7235
H49 H 0.4121 0.6443 0.7968
C28 C 0.2608(6) 0.66513(15) 0.7266(3)
H50 H 0.1941 0.6575 0.7661
H51 H 0.2238 0.6589 0.6741
C29 C 0.2052(6) 0.71104(16) 0.8742(3)
H52 H 0.1149 0.7149 0.8517
H53 H 0.2162 0.7258 0.9216
H54 H 0.2165 0.6854 0.8876
C30 C 0.3917(6) 0.75911(14) 0.6563(3)
H55 H 0.3962 0.7721 0.7070
H56 H 0.4746 0.7649 0.6270
C31 C 0.2701(6) 0.77248(14) 0.6097(3)
H57 H 0.2620 0.7580 0.5611
H58 H 0.1881 0.7681 0.6409
C32 C 0.2739(6) 0.81193(14) 0.5876(3)
H59 H 0.1902 0.8180 0.5581
H60 H 0.2756 0.8267 0.6361
C33 C 0.7444(7) 0.65449(15) 0.5555(3)
H61 H 0.7106 0.6353 0.5896
H62 H 0.8316 0.6472 0.5339
H63 H 0.6799 0.6586 0.5124
C34 C 0.8845(6) 0.68754(17) 0.6973(3)
H64 H 0.8965 0.7095 0.7286
H65 H 0.9719 0.6798 0.6768
H66 H 0.8472 0.6684 0.7302
C35 C 0.8328(6) 0.73365(15) 0.5482(3)
C36 C 0.9671(6) 0.72160(16) 0.5110(4)
H67 H 1.0319 0.7153 0.5527
H68 H 1.0034 0.7414 0.4795
H69 H 0.9510 0.7005 0.4775
C37 C 0.7319(6) 0.74279(17) 0.4828(3)
H70 H 0.7127 0.7210 0.4518
H71 H 0.7701 0.7614 0.4488
H72 H 0.6482 0.7518 0.5058
C38 C 0.8601(6) 0.76836(15) 0.5962(3)
H73 H 0.9237 0.7630 0.6390
H74 H 0.7753 0.7773 0.6179
H75 H 0.8988 0.7869 0.5620
Si3 Si 0.22910(17) 0.97405(4) 0.39449(9)
O7 O 0.0929(4) 0.95567(9) 0.3580(2)
O8 O -0.0690(4) 0.98222(10) 0.1108(2)
H76 H -0.1191 0.9804 0.0709
O9 O -0.2989(4) 0.83785(11) 0.4733(2)
H77 H -0.3669 0.8323 0.4460
C39 C -0.0114(6) 0.96509(14) 0.3015(3)
C40 C 0.0329(6) 0.94997(15) 0.2220(3)
H78 H 0.0664 0.9250 0.2303
H79 H 0.1098 0.9646 0.2034
C41 C -0.0755(6) 0.94902(16) 0.1561(3)
H80 H -0.0507 0.9288 0.1199
C42 C -0.2187(6) 0.94109(16) 0.1851(3)
H81 H -0.2220 0.9142 0.1910
C43 C -0.2541(6) 0.95596(16) 0.2674(3)
H82 H -0.3375 0.9432 0.2848
C44 C -0.1406(6) 0.94658(15) 0.3270(3)
H83 H -0.1664 0.9582 0.3776
C45 C -0.0332(6) 1.00625(14) 0.3038(3)
H84 H -0.0410 1.0138 0.3593
H85 H 0.0479 1.0181 0.2824
C46 C -0.1564(6) 1.02017(15) 0.2588(3)
H86 H -0.1364 1.0205 0.2021
H87 H -0.1754 1.0453 0.2754
C47 C -0.2819(6) 0.99689(16) 0.2724(3)
H88 H -0.3516 1.0033 0.2328
H89 H -0.3184 1.0025 0.3248
C48 C -0.3280(6) 0.94979(17) 0.1238(3)
H90 H -0.4168 0.9439 0.1451
H91 H -0.3126 0.9354 0.0764
H92 H -0.3245 0.9756 0.1108
C49 C -0.1229(6) 0.90628(15) 0.3446(3)
H93 H -0.1139 0.8931 0.2943
H94 H -0.0378 0.9029 0.3746
C50 C -0.2375(6) 0.88942(15) 0.3905(3)
H95 H -0.2631 0.9058 0.4337
H96 H -0.3171 0.8864 0.3554
C51 C -0.1984(6) 0.85306(15) 0.4242(3)
H97 H -0.1806 0.8361 0.3805
H98 H -0.1137 0.8558 0.4550
C52 C 0.1972(6) 1.01626(15) 0.4515(4)
H99 H 0.1611 1.0349 0.4163
H100 H 0.2819 1.0247 0.4753
H101 H 0.1319 1.0113 0.4928
C53 C 0.3522(6) 0.98501(18) 0.3162(3)
H102 H 0.3145 1.0038 0.2819
H103 H 0.3703 0.9633 0.2852
H104 H 0.4364 0.9937 0.3402
C54 C 0.2989(6) 0.93813(16) 0.4621(3)
C55 C 0.3247(7) 0.90323(17) 0.4148(4)
H105 H 0.3891 0.9083 0.3730
H106 H 0.2396 0.8947 0.3916
H107 H 0.3617 0.8846 0.4498
C56 C 0.1966(7) 0.92947(18) 0.5265(4)
H108 H 0.1789 0.9513 0.5571
H109 H 0.2334 0.9106 0.5610
H110 H 0.1124 0.9209 0.5023
C57 C 0.4318(7) 0.95052(19) 0.4997(4)
H111 H 0.4964 0.9564 0.4586
H112 H 0.4684 0.9311 0.5328
H113 H 0.4157 0.9720 0.5319
loop_
_geom_bond_atom_site_label_1
_geom_bond_atom_site_label_2
_geom_bond_site_symmetry_1
_geom_bond_site_symmetry_2
Si1 O1 1_555 1_555
O1 C1 1_555 1_555
O2 H1 1_555 1_555
O3 H2 1_555 1_555
C1 C2 1_555 1_555
C2 H3 1_555 1_555
H4 C2 1_555 1_555
C3 O2 1_555 1_555
H5 C3 1_555 1_555
C4 C3 1_555 1_555
H6 C4 1_555 1_555
C5 C4 1_555 1_555
H7 C5 1_555 1_555
C6 C1 1_555 1_555
H8 C6 1_555 1_555
C7 C1 1_555 1_555
H9 C7 1_555 1_555
H10 C7 1_555 1_555
C8 C7 1_555 1_555
H11 C8 1_555 1_555
H12 C8 1_555 1_555
C9 C5 1_555 1_555
H13 C9 1_555 1_555
H14 C9 1_555 1_555
C10 C4 1_555 1_555
H15 C10 1_555 1_555
H16 C10 1_555 1_555
H17 C10 1_555 1_555
C11 C6 1_555 1_555
H18 C11 1_555 1_555
H19 C11 1_555 1_555
C12 C11 1_555 1_555
H20 C12 1_555 1_555
H21 C12 1_555 1_555
C13 O3 1_555 1_555
H22 C13 1_555 1_555
H23 C13 1_555 1_555
C14 Si1 1_555 1_555
H24 C14 1_555 1_555
H25 C14 1_555 1_555
H26 C14 1_555 1_555
C15 Si1 1_555 1_555
H27 C15 1_555 1_555
H28 C15 1_555 1_555
H29 C15 1_555 1_555
C16 Si1 1_555 1_555
C17 C16 1_555 1_555
H30 C17 1_555 1_555
H31 C17 1_555 1_555
H32 C17 1_555 1_555
C18 C16 1_555 1_555
H33 C18 1_555 1_555
H34 C18 1_555 1_555
H35 C18 1_555 1_555
C19 C16 1_555 1_555
H36 C19 1_555 1_555
H37 C19 1_555 1_555
H38 C19 1_555 1_555
Si2 O4 1_555 1_555
O4 C20 1_555 1_555
O5 H39 1_555 1_555
O6 C32 1_555 1_555
C20 C21 1_555 1_555
C21 H40 1_555 1_555
H41 C21 1_555 1_555
C22 O5 1_555 1_555
H42 C22 1_555 1_555
C23 C22 1_555 1_555
H43 C23 1_555 1_555
C24 C23 1_555 1_555
H44 C24 1_555 1_555
C25 C20 1_555 1_555
H45 C25 1_555 1_555
C26 C20 1_555 1_555
H46 C26 1_555 1_555
H47 C26 1_555 1_555
C27 C26 1_555 1_555
H48 C27 1_555 1_555
H49 C27 1_555 1_555
C28 C24 1_555 1_555
H50 C28 1_555 1_555
H51 C28 1_555 1_555
C29 C23 1_555 1_555
H52 C29 1_555 1_555
H53 C29 1_555 1_555
H54 C29 1_555 1_555
C30 C25 1_555 1_555
H55 C30 1_555 1_555
H56 C30 1_555 1_555
C31 C30 1_555 1_555
H57 C31 1_555 1_555
H58 C31 1_555 1_555
C32 C31 1_555 1_555
H59 C32 1_555 1_555
H60 C32 1_555 1_555
C33 Si2 1_555 1_555
H61 C33 1_555 1_555
H62 C33 1_555 1_555
H63 C33 1_555 1_555
C34 Si2 1_555 1_555
H64 C34 1_555 1_555
H65 C34 1_555 1_555
H66 C34 1_555 1_555
C35 Si2 1_555 1_555
C36 C35 1_555 1_555
H67 C36 1_555 1_555
H68 C36 1_555 1_555
H69 C36 1_555 1_555
C37 C35 1_555 1_555
H70 C37 1_555 1_555
H71 C37 1_555 1_555
H72 C37 1_555 1_555
C38 C35 1_555 1_555
H73 C38 1_555 1_555
H74 C38 1_555 1_555
H75 C38 1_555 1_555
Si3 O7 1_555 1_555
O7 C39 1_555 1_555
O8 H76 1_555 1_555
O9 H77 1_555 1_555
C39 C40 1_555 1_555
C40 H78 1_555 1_555
H79 C40 1_555 1_555
C41 O8 1_555 1_555
H80 C41 1_555 1_555
C42 C41 1_555 1_555
H81 C42 1_555 1_555
C43 C42 1_555 1_555
H82 C43 1_555 1_555
C44 C39 1_555 1_555
H83 C44 1_555 1_555
C45 C39 1_555 1_555
H84 C45 1_555 1_555
H85 C45 1_555 1_555
C46 C45 1_555 1_555
H86 C46 1_555 1_555
H87 C46 1_555 1_555
C47 C43 1_555 1_555
H88 C47 1_555 1_555
H89 C47 1_555 1_555
C48 C42 1_555 1_555
H90 C48 1_555 1_555
H91 C48 1_555 1_555
H92 C48 1_555 1_555
C49 C44 1_555 1_555
H93 C49 1_555 1_555
H94 C49 1_555 1_555
C50 C49 1_555 1_555
H95 C50 1_555 1_555
H96 C50 1_555 1_555
C51 O9 1_555 1_555
H97 C51 1_555 1_555
H98 C51 1_555 1_555
C52 Si3 1_555 1_555
H99 C52 1_555 1_555
H100 C52 1_555 1_555
H101 C52 1_555 1_555
C53 Si3 1_555 1_555
H102 C53 1_555 1_555
H103 C53 1_555 1_555
H104 C53 1_555 1_555
C54 Si3 1_555 1_555
C55 C54 1_555 1_555
H105 C55 1_555 1_555
H106 C55 1_555 1_555
H107 C55 1_555 1_555
C56 C54 1_555 1_555
H108 C56 1_555 1_555
H109 C56 1_555 1_555
H110 C56 1_555 1_555
C57 C54 1_555 1_555
H111 C57 1_555 1_555
H112 C57 1_555 1_555
H113 C57 1_555 1_555
C2 C3 1_555 1_555
C5 C6 1_555 1_555
C8 C9 1_555 1_555
C12 C13 1_555 1_555
C21 C22 1_555 1_555
C24 C25 1_555 1_555
C27 C28 1_555 1_555
C40 C41 1_555 1_555
C43 C44 1_555 1_555
C46 C47 1_555 1_555
C50 C51 1_555 1_555

#END
