
#######################################################################
#
#                 Cambridge Crystallographic Data Centre
#                                CCDC 
#
#######################################################################
#
# If this CIF has been generated from an entry in the Cambridge 
# Structural Database, then it will include bibliographic, chemical, 
# crystal, experimental, refinement or atomic coordinate data resulting 
# from the CCDC's data processing and validation procedures.
#
#######################################################################

data_HAKKAI
_chemical_formula_moiety         'C15 H22 O4'
_chemical_name_systematic        
'methyl 9-allyl-3,5-dihydroxy-6-methylbicyclo[3.3.1]non-2-ene-2-carboxylate'
_symmetry_cell_setting           monoclinic
_symmetry_space_group_name_H-M   'P 21/c'
_symmetry_Int_Tables_number      14
_space_group_name_Hall           '-P 2ybc'
loop_
_symmetry_equiv_pos_site_id
_symmetry_equiv_pos_as_xyz
1 x,y,z
2 -x,1/2+y,1/2-z
3 -x,-y,-z
4 x,1/2-y,1/2+z
_cell_length_a                   12.294(5)
_cell_length_b                   7.653(3)
_cell_length_c                   15.084(7)
_cell_angle_alpha                90
_cell_angle_beta                 103.94(2)
_cell_angle_gamma                90
_cell_volume                     1377.4
_exptl_crystal_colour            colorless
_exptl_crystal_description       prism
_cell_formula_units_Z            4
loop_
_atom_site_label
_atom_site_type_symbol
_atom_site_fract_x
_atom_site_fract_y
_atom_site_fract_z
O1 O 0.96708(15) 0.3174(2) 0.51653(14)
H1 H 0.9769 0.4207 0.5014
O2 O 0.69729(17) -0.1257(2) 0.51286(13)
H2 H 0.6431 -0.1573 0.5339
O3 O 0.54233(15) 0.1585(2) 0.68151(12)
O4 O 0.55192(16) -0.0973(2) 0.60932(13)
C1 C 0.8536(2) 0.2959(3) 0.52620(19)
C2 C 0.8245(2) 0.1020(3) 0.5068(2)
H3 H 0.8059 0.0834 0.4399
H4 H 0.8918 0.0311 0.5335
C3 C 0.7298(2) 0.0371(3) 0.54327(18)
C4 C 0.6819(2) 0.1289(3) 0.60034(17)
C5 C 0.7227(2) 0.3128(3) 0.62834(17)
H5 H 0.7171 0.3328 0.6926
C6 C 0.6495(2) 0.4489(3) 0.56675(18)
H6 H 0.5704 0.4336 0.5695
H7 H 0.6735 0.5677 0.5892
C7 C 0.6586(2) 0.4303(4) 0.46842(18)
H8 H 0.6202 0.5305 0.4326
H9 H 0.6191 0.3225 0.4422
C8 C 0.7790(2) 0.4225(3) 0.45846(18)
H10 H 0.8114 0.5420 0.4729
C9 C 0.8456(2) 0.3327(3) 0.62492(18)
H11 H 0.8889 0.2391 0.6645
C10 C 0.8973(2) 0.5099(4) 0.66256(19)
H12 H 0.9772 0.5121 0.6606
H13 H 0.8585 0.6050 0.6227
C11 C 0.8889(3) 0.5430(4) 0.7583(2)
H14 H 0.9211 0.4593 0.8036
C12 C 0.8398(3) 0.6802(4) 0.7841(2)
H15 H 0.8068 0.7664 0.7405
H16 H 0.8374 0.6933 0.8462
C13 C 0.5881(2) 0.0525(4) 0.62932(17)
C14 C 0.7789(3) 0.3857(4) 0.3590(2)
H17 H 0.8562 0.3698 0.3537
H18 H 0.7449 0.4844 0.3209
H19 H 0.7358 0.2793 0.3387
C15 C 0.4508(2) 0.0860(4) 0.7149(2)
H20 H 0.3859 0.0671 0.6635
H21 H 0.4305 0.1676 0.7584
H22 H 0.4741 -0.0256 0.7455
H23? H 1.0144 0.2833 0.5633
loop_
_geom_bond_atom_site_label_1
_geom_bond_atom_site_label_2
_geom_bond_site_symmetry_1
_geom_bond_site_symmetry_2
O1 H1 1_555 1_555
O2 H2 1_555 1_555
O3 C13 1_555 1_555
O4 C13 1_555 1_555
C1 O1 1_555 1_555
C2 C1 1_555 1_555
H3 C2 1_555 1_555
H4 C2 1_555 1_555
C3 O2 1_555 1_555
C4 C3 1_555 1_555
C5 C4 1_555 1_555
H5 C5 1_555 1_555
C6 C5 1_555 1_555
H6 C6 1_555 1_555
H7 C6 1_555 1_555
C7 C6 1_555 1_555
H8 C7 1_555 1_555
H9 C7 1_555 1_555
C8 C1 1_555 1_555
H10 C8 1_555 1_555
C9 C1 1_555 1_555
H11 C9 1_555 1_555
C10 C9 1_555 1_555
H12 C10 1_555 1_555
H13 C10 1_555 1_555
C11 C10 1_555 1_555
H14 C11 1_555 1_555
C12 C11 1_555 1_555
H15 C12 1_555 1_555
H16 C12 1_555 1_555
C13 C4 1_555 1_555
C14 C8 1_555 1_555
H17 C14 1_555 1_555
H18 C14 1_555 1_555
H19 C14 1_555 1_555
C15 O3 1_555 1_555
H20 C15 1_555 1_555
H21 C15 1_555 1_555
H22 C15 1_555 1_555
C2 C3 1_555 1_555
C5 C9 1_555 1_555
C7 C8 1_555 1_555

#END
