
#######################################################################
#
#                 Cambridge Crystallographic Data Centre
#                                CCDC 
#
#######################################################################
#
# If this CIF has been generated from an entry in the Cambridge 
# Structural Database, then it will include bibliographic, chemical, 
# crystal, experimental, refinement or atomic coordinate data resulting 
# from the CCDC's data processing and validation procedures.
#
#######################################################################

data_HAKMEM
_chemical_formula_moiety         'C25 H20 N2 Si1'
_chemical_name_systematic        
2-(Phenylethynyl)-5-(4-((trimethylsilyl)ethynyl)phenylethynyl)pyrimidine
_symmetry_cell_setting           orthorhombic
_symmetry_space_group_name_H-M   'P b c a'
_symmetry_Int_Tables_number      61
_space_group_name_Hall           '-P 2ac 2ab'
loop_
_symmetry_equiv_pos_site_id
_symmetry_equiv_pos_as_xyz
1 x,y,z
2 1/2+x,y,1/2-z
3 x,1/2-y,1/2+z
4 1/2-x,1/2+y,z
5 -x,-y,-z
6 1/2-x,-y,1/2+z
7 -x,1/2+y,1/2-z
8 1/2+x,1/2-y,-z
_cell_length_a                   9.6168(5)
_cell_length_b                   11.2035(6)
_cell_length_c                   38.984(2)
_cell_angle_alpha                90
_cell_angle_beta                 90
_cell_angle_gamma                90
_cell_volume                     4200.21
_exptl_crystal_colour            colorless
_exptl_crystal_description       plate
_cell_formula_units_Z            8
_exptl_crystal_recrystallization_method tetrahydrofuran/methanol
_exptl_crystal_preparation       photoluminescent
loop_
_atom_site_label
_atom_site_type_symbol
_atom_site_fract_x
_atom_site_fract_y
_atom_site_fract_z
Si1 Si 0.54861(12) 0.27396(11) 0.20197(3)
N1 N 1.4345(3) -0.0198(2) -0.04837(6)
N2 N 1.4339(3) -0.2119(2) -0.02177(6)
C1 C 1.8232(3) -0.1831(3) -0.13787(8)
H1 H 1.7904 -0.1055 -0.1405
C2 C 1.9203(4) -0.2278(3) -0.16045(9)
H2 H 1.9524 -0.1806 -0.1784
C3 C 1.9701(3) -0.3423(3) -0.15649(9)
H3 H 2.0351 -0.3724 -0.1719
C4 C 1.9242(3) -0.4118(3) -0.13002(9)
H4 H 1.9589 -0.4887 -0.1273
C5 C 1.8267(3) -0.3683(3) -0.10740(8)
H5 H 1.7958 -0.4161 -0.0894
C6 C 1.7743(3) -0.2537(3) -0.11124(7)
C7 C 1.6713(3) -0.2083(3) -0.08782(8)
C8 C 1.5851(3) -0.1725(3) -0.06829(8)
C9 C 1.4788(3) -0.1323(3) -0.04505(7)
C10 C 1.3357(3) 0.0138(3) -0.02665(8)
H6 H 1.3013 0.0911 -0.0285
C11 C 1.2811(3) -0.0594(3) -0.00144(7)
C12 C 1.3360(3) -0.1732(3) -0.00064(8)
H7 H 1.3021 -0.2260 0.0158
C13 C 1.1754(3) -0.0209(3) 0.02156(8)
C14 C 1.0867(3) 0.0104(3) 0.04143(8)
C15 C 0.9836(3) 0.0489(3) 0.06529(7)
C16 C 0.9345(3) 0.1656(3) 0.06471(8)
H8 H 0.9659 0.2177 0.0478
C17 C 0.8406(3) 0.2052(3) 0.08862(8)
H9 H 0.8089 0.2836 0.0877
C18 C 0.7922(3) 0.1290(3) 0.11425(7)
C19 C 0.8385(3) 0.0117(3) 0.11416(8)
H10 H 0.8049 -0.0411 0.1306
C20 C 0.9329(3) -0.0282(3) 0.09029(8)
H11 H 0.9630 -0.1070 0.0909
C21 C 0.7038(3) 0.1737(3) 0.14105(9)
C22 C 0.6365(4) 0.2138(3) 0.16451(9)
C23 C 0.4208(4) 0.3860(4) 0.18936(10)
H12 H 0.3583 0.3523 0.1728
H13 H 0.4677 0.4534 0.1795
H14 H 0.3693 0.4112 0.2092
C24 C 0.4287(12) 0.1350(13) 0.2181(4)
H18 H 0.3655 0.1127 0.2001
H19 H 0.3770 0.1585 0.2380
H20 H 0.4872 0.0683 0.2236
C25 C 0.6569(19) 0.3099(19) 0.2355(4)
H21 H 0.7146 0.3762 0.2291
H22 H 0.7144 0.2425 0.2410
H23 H 0.6022 0.3312 0.2552
H15? H 0.4549 0.4489 0.1749
H16? H 0.3780 0.4198 0.2094
H17? H 0.3536 0.3394 0.1770
C26? C 0.5105(13) 0.1614(15) 0.2305(4)
H24? H 0.5937 0.1175 0.2357
H25? H 0.4430 0.1086 0.2206
H26? H 0.4736 0.1952 0.2513
C27? C 0.6989(15) 0.3751(15) 0.2227(3)
H27? H 0.7223 0.4385 0.2072
H28? H 0.7797 0.3269 0.2268
H29? H 0.6666 0.4082 0.2440
loop_
_geom_bond_atom_site_label_1
_geom_bond_atom_site_label_2
_geom_bond_site_symmetry_1
_geom_bond_site_symmetry_2
Si1 C22 1_555 1_555
N1 C9 1_555 1_555
N2 C9 1_555 1_555
C1 H1 1_555 1_555
C2 C1 1_555 1_555
H2 C2 1_555 1_555
C3 C2 1_555 1_555
H3 C3 1_555 1_555
C4 C3 1_555 1_555
H4 C4 1_555 1_555
C5 C4 1_555 1_555
H5 C5 1_555 1_555
C6 C1 1_555 1_555
C7 C6 1_555 1_555
C8 C7 1_555 1_555
C9 C8 1_555 1_555
C10 N1 1_555 1_555
H6 C10 1_555 1_555
C11 C10 1_555 1_555
C12 N2 1_555 1_555
H7 C12 1_555 1_555
C13 C11 1_555 1_555
C14 C13 1_555 1_555
C15 C14 1_555 1_555
C16 C15 1_555 1_555
H8 C16 1_555 1_555
C17 C16 1_555 1_555
H9 C17 1_555 1_555
C18 C17 1_555 1_555
C19 C18 1_555 1_555
H10 C19 1_555 1_555
C20 C15 1_555 1_555
H11 C20 1_555 1_555
C21 C18 1_555 1_555
C22 C21 1_555 1_555
C23 Si1 1_555 1_555
H12 C23 1_555 1_555
H13 C23 1_555 1_555
H14 C23 1_555 1_555
C24 Si1 1_555 1_555
H18 C24 1_555 1_555
H19 C24 1_555 1_555
H20 C24 1_555 1_555
C25 Si1 1_555 1_555
H21 C25 1_555 1_555
H22 C25 1_555 1_555
H23 C25 1_555 1_555
C5 C6 1_555 1_555
C11 C12 1_555 1_555
C19 C20 1_555 1_555

#END
