
#######################################################################
#
#                 Cambridge Crystallographic Data Centre
#                                CCDC 
#
#######################################################################
#
# If this CIF has been generated from an entry in the Cambridge 
# Structural Database, then it will include bibliographic, chemical, 
# crystal, experimental, refinement or atomic coordinate data resulting 
# from the CCDC's data processing and validation procedures.
#
#######################################################################

data_HAKMAI
_chemical_formula_moiety         'C20 H12 N2'
_chemical_name_systematic        2,5-bis(Phenylethynyl)pyrimidine
_symmetry_cell_setting           orthorhombic
_symmetry_space_group_name_H-M   'P n n m'
_symmetry_Int_Tables_number      58
_space_group_name_Hall           '-P 2 2n'
loop_
_symmetry_equiv_pos_site_id
_symmetry_equiv_pos_as_xyz
1 x,y,z
2 x,y,-z
3 1/2+x,1/2-y,1/2+z
4 1/2-x,1/2+y,1/2+z
5 -x,-y,-z
6 -x,-y,z
7 1/2-x,1/2+y,1/2-z
8 1/2+x,1/2-y,1/2-z
_cell_length_a                   14.7183(8)
_cell_length_b                   4.8658(3)
_cell_length_c                   10.0319(5)
_cell_angle_alpha                90
_cell_angle_beta                 90
_cell_angle_gamma                90
_cell_volume                     718.448
_exptl_crystal_colour            colorless
_exptl_crystal_description       block
_cell_formula_units_Z            2
_exptl_crystal_recrystallization_method tetrahydrofuran/n-hexane
_exptl_crystal_preparation       photoluminescent
loop_
_atom_site_label
_atom_site_type_symbol
_atom_site_fract_x
_atom_site_fract_y
_atom_site_fract_z
C1 C 0.03274(8) 0.0956(2) 0.11777(12)
H1 H 0.0556 0.1625 0.1979
C2 C 0.06555(12) 0.1912(3) 0.0000
C3 C 0.13578(12) 0.3972(4) 0.0000
C4 C 0.19449(12) 0.5663(3) 0.0000
C5 C 0.26584(12) 0.7701(3) 0.0000
C6 C 0.30017(9) 0.8703(3) -0.11850(14)
H2 H 0.2780 0.8038 -0.1991
C7 C 0.36712(10) 1.0684(3) -0.11803(16)
H3 H 0.3900 1.1347 -0.1982
C8 C 0.40005(13) 1.1679(4) 0.0000
H4 H 0.4448 1.3029 0.0000
C1E C -0.03274(8) -0.0956(2) 0.11777(12)
H1E H -0.0556 -0.1625 0.1979
C2E C -0.06555(12) -0.1912(3) 0.0000
C1D C -0.03274(8) -0.0956(2) -0.11777(12)
C1A C 0.03274(8) 0.0956(2) -0.11777(12)
H1A H 0.0556 0.1625 -0.1979
C7A C 0.36712(10) 1.0684(3) 0.11803(16)
C6A C 0.30017(9) 0.8703(3) 0.11850(14)
H2A H 0.2780 0.8038 0.1991
H3A H 0.3900 1.1347 0.1982
H1D H -0.0556 -0.1625 -0.1979
C3E C -0.13578(12) -0.3972(4) 0.0000
C4E C -0.19449(12) -0.5663(3) 0.0000
C5E C -0.26584(12) -0.7701(3) 0.0000
C6E C -0.30017(9) -0.8703(3) -0.11850(14)
H2E H -0.2780 -0.8038 -0.1991
C7E C -0.36712(10) -1.0684(3) -0.11803(16)
H3E H -0.3900 -1.1347 -0.1982
C8E C -0.40005(13) -1.1679(4) 0.0000
C7D C -0.36712(10) -1.0684(3) 0.11803(16)
C6D C -0.30017(9) -0.8703(3) 0.11850(14)
H2D H -0.2780 -0.8038 0.1991
H3D H -0.3900 -1.1347 0.1982
H4E H -0.4448 -1.3029 0.0000
N1? N 0.03274(8) 0.0956(2) 0.11777(12)
loop_
_geom_bond_atom_site_label_1
_geom_bond_atom_site_label_2
_geom_bond_site_symmetry_1
_geom_bond_site_symmetry_2
C1 H1 1_555 1_555
C2 C1 1_555 1_555
C3 C2 1_555 1_555
C4 C3 1_555 1_555
C5 C4 1_555 1_555
C6 C5 1_555 1_555
H2 C6 1_555 1_555
C7 C6 1_555 1_555
H3 C7 1_555 1_555
C8 C7 1_555 1_555
H4 C8 1_555 1_555
C1E C1 1_555 1_555
H1E C1E 1_555 1_555
C2E C1E 1_555 1_555
C1D C2E 1_555 1_555
C1A C2 1_555 1_555
H1A C1A 1_555 1_555
C7A C8 1_555 1_555
C6A C5 1_555 1_555
H2A C6A 1_555 1_555
H3A C7A 1_555 1_555
H1D C1D 1_555 1_555
C3E C2E 1_555 1_555
C4E C3E 1_555 1_555
C5E C4E 1_555 1_555
C6E C5E 1_555 1_555
H2E C6E 1_555 1_555
C7E C6E 1_555 1_555
H3E C7E 1_555 1_555
C8E C7E 1_555 1_555
C7D C8E 1_555 1_555
C6D C5E 1_555 1_555
H2D C6D 1_555 1_555
H3D C7D 1_555 1_555
H4E C8E 1_555 1_555
C1D C1A 1_555 1_555
C7A C6A 1_555 1_555
C7D C6D 1_555 1_555

#END
