
#######################################################################
#
#                 Cambridge Crystallographic Data Centre
#                                CCDC 
#
#######################################################################
#
# If this CIF has been generated from an entry in the Cambridge 
# Structural Database, then it will include bibliographic, chemical, 
# crystal, experimental, refinement or atomic coordinate data resulting 
# from the CCDC's data processing and validation procedures.
#
#######################################################################

data_HAKNUE
_chemical_formula_moiety         'C23 H26 Cl1 I1 O3 S1'
_chemical_name_systematic        
cis-4-n-Butyl-2-(4-chlorophenyl)-6-(iodomethyl)-3-((4-methylphenyl)sulfonyl)-5,6-dihydro-2H-pyran
_symmetry_cell_setting           triclinic
_symmetry_space_group_name_H-M   'P -1'
_symmetry_Int_Tables_number      2
_space_group_name_Hall           '-P 1'
loop_
_symmetry_equiv_pos_site_id
_symmetry_equiv_pos_as_xyz
1 x,y,z
2 -x,-y,-z
_cell_length_a                   11.010(3)
_cell_length_b                   11.260(3)
_cell_length_c                   19.281(5)
_cell_angle_alpha                87.543(3)
_cell_angle_beta                 76.178(3)
_cell_angle_gamma                86.019(3)
_cell_volume                     2314.65
_cell_formula_units_Z            4
loop_
_atom_site_label
_atom_site_type_symbol
_atom_site_fract_x
_atom_site_fract_y
_atom_site_fract_z
C1 C 0.9530(4) 0.7025(5) -0.0342(2)
H1 H 1.0004 0.6411 -0.0641
H2 H 1.0065 0.7388 -0.0097
H3 H 0.9196 0.7616 -0.0631
C2 C 0.8470(4) 0.6488(4) 0.0197(2)
C3 C 0.8621(3) 0.6082(4) 0.0861(2)
H4 H 0.9399 0.6109 0.0968
C4 C 0.7632(3) 0.5636(3) 0.1370(2)
H5 H 0.7737 0.5370 0.1816
C5 C 0.6489(3) 0.5595(3) 0.11985(19)
C6 C 0.6324(3) 0.5967(3) 0.05311(19)
H6 H 0.5555 0.5914 0.0418
C7 C 0.7322(4) 0.6417(3) 0.00360(19)
H7 H 0.7218 0.6675 -0.0412
C8 C 0.4091(3) 0.6359(3) 0.20262(18)
C9 C 0.3038(3) 0.6504(3) 0.17830(18)
C10 C 0.2677(3) 0.5799(3) 0.1223(2)
H8 H 0.2003 0.5302 0.1455
H9 H 0.3389 0.5277 0.1000
C11 C 0.2254(3) 0.6575(3) 0.0641(2)
H10 H 0.1897 0.6075 0.0354
H11 H 0.1600 0.7153 0.0867
C12 C 0.3306(4) 0.7234(4) 0.0153(2)
H12 H 0.3682 0.7714 0.0442
H13 H 0.3946 0.6656 -0.0086
C13 C 0.2871(5) 0.8031(5) -0.0404(3)
H14 H 0.2599 0.7551 -0.0731
H15 H 0.3550 0.8486 -0.0660
H16 H 0.2187 0.8562 -0.0173
C14 C 0.2070(3) 0.7448(3) 0.21083(16)
H17 H 0.2117 0.8133 0.1782
H18 H 0.1244 0.7147 0.2176
C15 C 0.2239(3) 0.7832(3) 0.2812(2)
H19 H 0.2112 0.7165 0.3160
C16 C 0.1355(3) 0.8871(3) 0.3093(2)
H20 H 0.0502 0.8649 0.3147
H21 H 0.1497 0.9527 0.2746
C17 C 0.4395(3) 0.7187(3) 0.25636(19)
H22 H 0.4373 0.6741 0.3014
C18 C 0.5651(3) 0.7720(3) 0.2313(2)
C19 C 0.5913(3) 0.8390(3) 0.1681(2)
H23 H 0.5318 0.8502 0.1409
C20 C 0.7053(4) 0.8892(3) 0.1453(2)
H24 H 0.7232 0.9343 0.1030
C21 C 0.7931(4) 0.8715(4) 0.1864(3)
C22 C 0.7692(4) 0.8052(4) 0.2488(2)
H25 H 0.8292 0.7933 0.2756
C23 C 0.6536(4) 0.7561(4) 0.2714(2)
H26 H 0.6356 0.7120 0.3140
Cl1 Cl 0.93844(11) 0.93195(13) 0.15608(9)
I1 I 0.15620(3) 0.94605(3) 0.409723(15)
O1 O 0.5563(2) 0.4830(2) 0.24997(14)
O2 O 0.4678(2) 0.4173(2) 0.15317(16)
O3 O 0.3500(3) 0.8198(2) 0.26995(16)
S1 S 0.51857(8) 0.51060(8) 0.18433(5)
C24? C 0.5471(4) 0.2973(5) 0.5341(2)
H27? H 0.5804 0.2348 0.5610
H28? H 0.4909 0.2651 0.5096
H29? H 0.5027 0.3575 0.5659
C25? C 0.6532(4) 0.3513(4) 0.4802(2)
C26? C 0.7680(4) 0.3583(3) 0.4963(2)
H30? H 0.7786 0.3322 0.5410
C27? C 0.8673(3) 0.4037(3) 0.44677(19)
H31? H 0.9441 0.4094 0.4581
C28? C 0.8508(3) 0.4406(3) 0.37991(19)
C29? C 0.7368(3) 0.4365(3) 0.3630(2)
H32? H 0.7262 0.4631 0.3183
C30? C 0.6381(3) 0.3921(4) 0.4139(2)
H33? H 0.5602 0.3896 0.4032
C31? C 1.0910(3) 0.3638(3) 0.29713(18)
C32? C 1.1949(3) 0.3502(3) 0.32226(18)
C33? C 1.2324(3) 0.4203(3) 0.37755(19)
H34? H 1.1621 0.4734 0.3998
H35? H 1.3005 0.4690 0.3540
C34? C 1.2742(3) 0.3424(4) 0.4359(2)
H36? H 1.3397 0.2847 0.4133
H37? H 1.3099 0.3924 0.4647
C35? C 1.1696(4) 0.2764(4) 0.4848(2)
H38? H 1.1054 0.3340 0.5088
H39? H 1.1319 0.2282 0.4560
C36? C 1.2133(5) 0.1970(5) 0.5403(3)
H40? H 1.2804 0.1427 0.5171
H41? H 1.1449 0.1527 0.5667
H42? H 1.2423 0.2449 0.5723
C37? C 1.2745(3) 0.2156(3) 0.21844(18)
H43? H 1.2877 0.2827 0.1839
C38? C 1.3653(3) 0.1128(3) 0.19068(19)
H44? H 1.3525 0.0471 0.2254
H45? H 1.4502 0.1366 0.1851
C39? C 1.1509(2) 0.1824(2) 0.22984(14)
H46? H 1.1342 0.1264 0.2701
H47? H 1.1417 0.1421 0.1881
C40? C 1.0623(3) 0.2793(3) 0.24325(18)
H48? H 1.0643 0.3237 0.1982
C41? C 0.9349(3) 0.2281(3) 0.2688(2)
C42? C 0.9087(3) 0.1610(3) 0.3319(2)
H49? H 0.9683 0.1498 0.3589
C43? C 0.7946(4) 0.1108(3) 0.3549(2)
H50? H 0.7767 0.0657 0.3972
C44? C 0.7068(4) 0.1288(4) 0.3136(3)
C45? C 0.7311(4) 0.1952(4) 0.2513(3)
H51? H 0.6709 0.2075 0.2247
C46? C 0.8462(4) 0.2438(4) 0.2285(2)
H52? H 0.8643 0.2875 0.1856
Cl2? Cl 0.56165(11) 0.06809(13) 0.34386(9)
I2? I 1.34383(3) 0.05392(3) 0.090310(15)
O4? O 0.9435(3) 0.5169(2) 0.24992(14)
O5? O 1.0323(2) 0.5827(2) 0.34672(16)
O6? O 1.2956(4) 0.2534(4) 0.2903(2)
S2? S 0.98137(8) 0.48950(8) 0.31567(5)
loop_
_geom_bond_atom_site_label_1
_geom_bond_atom_site_label_2
_geom_bond_site_symmetry_1
_geom_bond_site_symmetry_2
C1 H1 1_555 1_555
H2 C1 1_555 1_555
H3 C1 1_555 1_555
C2 C1 1_555 1_555
C3 C2 1_555 1_555
H4 C3 1_555 1_555
C4 C3 1_555 1_555
H5 C4 1_555 1_555
C5 C4 1_555 1_555
C6 C5 1_555 1_555
H6 C6 1_555 1_555
C7 C2 1_555 1_555
H7 C7 1_555 1_555
C8 C9 1_555 1_555
C9 C10 1_555 1_555
C10 H8 1_555 1_555
H9 C10 1_555 1_555
C11 C10 1_555 1_555
H10 C11 1_555 1_555
H11 C11 1_555 1_555
C12 C11 1_555 1_555
H12 C12 1_555 1_555
H13 C12 1_555 1_555
C13 C12 1_555 1_555
H14 C13 1_555 1_555
H15 C13 1_555 1_555
H16 C13 1_555 1_555
C14 C9 1_555 1_555
H17 C14 1_555 1_555
H18 C14 1_555 1_555
C15 C14 1_555 1_555
H19 C15 1_555 1_555
C16 C15 1_555 1_555
H20 C16 1_555 1_555
H21 C16 1_555 1_555
C17 C8 1_555 1_555
H22 C17 1_555 1_555
C18 C17 1_555 1_555
C19 C18 1_555 1_555
H23 C19 1_555 1_555
C20 C19 1_555 1_555
H24 C20 1_555 1_555
C21 C20 1_555 1_555
C22 C21 1_555 1_555
H25 C22 1_555 1_555
C23 C18 1_555 1_555
H26 C23 1_555 1_555
Cl1 C21 1_555 1_555
I1 C16 1_555 1_555
O1 S1 1_555 1_555
O2 S1 1_555 1_555
O3 C15 1_555 1_555
S1 C5 1_555 1_555
C6 C7 1_555 1_555
C8 S1 1_555 1_555
C17 O3 1_555 1_555
C22 C23 1_555 1_555

#END
