
#######################################################################
#
#                 Cambridge Crystallographic Data Centre
#                                CCDC 
#
#######################################################################
#
# If this CIF has been generated from an entry in the Cambridge 
# Structural Database, then it will include bibliographic, chemical, 
# crystal, experimental, refinement or atomic coordinate data resulting 
# from the CCDC's data processing and validation procedures.
#
#######################################################################

data_HAKPAM
_chemical_formula_moiety         'C24 H19 N1 O3'
_chemical_name_systematic        
'Methyl 11-oxo-5-phenyl-5,6,6a,11-tetrahydroisoindolo[2,1-a]quinoline-6-carboxylate'
_symmetry_cell_setting           triclinic
_symmetry_space_group_name_H-M   'P -1'
_symmetry_Int_Tables_number      2
_space_group_name_Hall           '-P 1'
loop_
_symmetry_equiv_pos_site_id
_symmetry_equiv_pos_as_xyz
1 x,y,z
2 -x,-y,-z
_cell_length_a                   7.927(3)
_cell_length_b                   10.523(5)
_cell_length_c                   12.867(8)
_cell_angle_alpha                105.791(9)
_cell_angle_beta                 99.865(9)
_cell_angle_gamma                108.195(7)
_cell_volume                     941.812
_exptl_crystal_colour            colorless
_exptl_crystal_description       block
_cell_formula_units_Z            2
loop_
_atom_site_label
_atom_site_type_symbol
_atom_site_fract_x
_atom_site_fract_y
_atom_site_fract_z
N1 N 0.48270(16) 0.92518(13) 0.34877(10)
C1 C 0.4526(2) 1.02706(15) 0.16033(12)
H1 H 0.4611 0.9957 0.0831
C2 C 0.64697(19) 1.00349(14) 0.32940(12)
C3 C 0.30664(18) 0.92674(14) 0.29315(12)
H2 H 0.2990 1.0183 0.3310
C4 C 0.6343(2) 1.04953(15) 0.23728(12)
C5 C 0.2890(2) 0.90712(15) 0.16925(12)
H3 H 0.1737 0.9161 0.1371
C6 C 0.2842(2) 0.76338(16) 0.10176(13)
C7 C 0.1678(2) 0.81087(15) 0.31564(12)
C8 C 0.4596(2) 0.81997(16) 0.39632(13)
C9 C 0.8198(2) 1.03666(17) 0.40091(14)
H4 H 0.8281 1.0064 0.4624
O1 O 0.58079(17) 0.79258(14) 0.44532(11)
C10 C 0.7974(2) 1.12466(18) 0.21828(16)
H5 H 0.7911 1.1540 0.1562
C11 C 0.2586(2) 0.74990(16) 0.37548(13)
C12 C 0.4167(2) 1.16394(16) 0.17929(14)
C13 C -0.0226(2) 0.76551(17) 0.28711(15)
H6 H -0.0845 0.8067 0.2468
C14 C 0.9782(2) 1.11388(18) 0.38097(16)
H7 H 1.0930 1.1373 0.4300
C15 C 0.4757(2) 1.26931(17) 0.28373(15)
H8 H 0.5397 1.2572 0.3456
O2 O 0.1782(2) 0.71870(15) -0.00072(11)
C16 C 0.9679(2) 1.1568(2) 0.28873(18)
H9 H 1.0752 1.2070 0.2743
C17 C 0.1624(3) 0.63884(19) 0.40745(15)
H10 H 0.2242 0.5968 0.4468
O3 O 0.3678(3) 0.69988(17) 0.13345(13)
C18 C -0.1183(3) 0.6562(2) 0.32081(17)
H11 H -0.2465 0.6247 0.3038
C19 C 0.3489(3) 1.4130(2) 0.2080(2)
H12 H 0.3271 1.4967 0.2175
C20 C 0.3213(3) 1.1848(2) 0.08935(18)
H13 H 0.2786 1.1147 0.0184
C21 C 0.4406(3) 1.39262(18) 0.2973(2)
H14 H 0.4802 1.4623 0.3684
C22 C -0.0271(3) 0.5933(2) 0.37897(17)
H15 H -0.0949 0.5189 0.3992
C23 C 0.1738(4) 0.5882(2) -0.0785(2)
H16 H 0.2970 0.5988 -0.0826
H17 H 0.0969 0.5687 -0.1517
H18 H 0.1247 0.5106 -0.0527
C24 C 0.2889(4) 1.3096(3) 0.1041(2)
H19 H 0.2256 1.3230 0.0427
loop_
_geom_bond_atom_site_label_1
_geom_bond_atom_site_label_2
_geom_bond_site_symmetry_1
_geom_bond_site_symmetry_2
N1 C2 1_555 1_555
C1 H1 1_555 1_555
C2 C4 1_555 1_555
C3 N1 1_555 1_555
H2 C3 1_555 1_555
C4 C1 1_555 1_555
C5 C1 1_555 1_555
H3 C5 1_555 1_555
C6 C5 1_555 1_555
C7 C3 1_555 1_555
C8 N1 1_555 1_555
C9 C2 1_555 1_555
H4 C9 1_555 1_555
O1 C8 1_555 1_555
C10 C4 1_555 1_555
H5 C10 1_555 1_555
C11 C7 1_555 1_555
C12 C1 1_555 1_555
C13 C7 1_555 1_555
H6 C13 1_555 1_555
C14 C9 1_555 1_555
H7 C14 1_555 1_555
C15 C12 1_555 1_555
H8 C15 1_555 1_555
O2 C6 1_555 1_555
C16 C10 1_555 1_555
H9 C16 1_555 1_555
C17 C11 1_555 1_555
H10 C17 1_555 1_555
O3 C6 1_555 1_555
C18 C13 1_555 1_555
H11 C18 1_555 1_555
C19 H12 1_555 1_555
C20 C12 1_555 1_555
H13 C20 1_555 1_555
C21 C15 1_555 1_555
H14 C21 1_555 1_555
C22 C17 1_555 1_555
H15 C22 1_555 1_555
C23 O2 1_555 1_555
H16 C23 1_555 1_555
H17 C23 1_555 1_555
H18 C23 1_555 1_555
C24 C19 1_555 1_555
H19 C24 1_555 1_555
C3 C5 1_555 1_555
C8 C11 1_555 1_555
C14 C16 1_555 1_555
C18 C22 1_555 1_555
C19 C21 1_555 1_555
C20 C24 1_555 1_555

#END
