
#######################################################################
#
#                 Cambridge Crystallographic Data Centre
#                                CCDC 
#
#######################################################################
#
# If this CIF has been generated from an entry in the Cambridge 
# Structural Database, then it will include bibliographic, chemical, 
# crystal, experimental, refinement or atomic coordinate data resulting 
# from the CCDC's data processing and validation procedures.
#
#######################################################################

data_HAKPAL
_chemical_formula_moiety         'C30 H16 O2'
_chemical_name_systematic        2,7-bis(Phenylethynyl)-9,10-anthraquinone
_symmetry_cell_setting           monoclinic
_symmetry_space_group_name_H-M   'P 21/n'
_symmetry_Int_Tables_number      14
_space_group_name_Hall           '-P 2yn'
loop_
_symmetry_equiv_pos_site_id
_symmetry_equiv_pos_as_xyz
1 x,y,z
2 1/2+x,1/2-y,1/2+z
3 -x,-y,-z
4 1/2-x,1/2+y,1/2-z
_cell_length_a                   5.6801(19)
_cell_length_b                   7.917(3)
_cell_length_c                   44.941(16)
_cell_angle_alpha                90
_cell_angle_beta                 90.802(7)
_cell_angle_gamma                90
_cell_volume                     2020.77
_exptl_crystal_colour            yellow
_exptl_crystal_description       rod
_chemical_melting_point          '258-260 deg.C'
_cell_formula_units_Z            4
_exptl_crystal_recrystallization_method dichloromethane/benzene
_exptl_crystal_preparation       photoluminescent
loop_
_atom_site_label
_atom_site_type_symbol
_atom_site_fract_x
_atom_site_fract_y
_atom_site_fract_z
O1 O 0.4566(5) 0.8743(4) 0.11540(7)
O2 O 1.2601(5) 0.5231(4) 0.10486(7)
C1 C 0.5870(8) 0.7741(6) 0.05781(10)
H1 H 0.4454 0.8317 0.0598
C2 C 0.6645(8) 0.7310(6) 0.02960(10)
C3 C 0.8866(9) 0.6550(6) 0.02723(11)
H2 H 0.9461 0.6328 0.0085
C4 C 1.0189(8) 0.6124(6) 0.05210(11)
H3 H 1.1637 0.5593 0.0500
C5 C 1.0654(8) 0.5501(6) 0.16189(11)
H4 H 1.2081 0.4935 0.1603
C6 C 0.9621(8) 0.5648(6) 0.18948(11)
H5 H 1.0357 0.5188 0.2062
C7 C 0.7454(8) 0.6496(6) 0.19216(10)
C8 C 0.6437(8) 0.7202(6) 0.16697(10)
H6 H 0.5031 0.7795 0.1686
C9 C 0.6254(8) 0.7794(6) 0.11271(10)
C10 C 1.0678(8) 0.5934(5) 0.10710(11)
C11 C 0.7458(7) 0.7048(5) 0.13939(10)
C12 C 0.9602(8) 0.6183(5) 0.13664(10)
C13 C 0.7167(8) 0.7327(6) 0.08295(10)
C14 C 0.9357(8) 0.6489(6) 0.08034(11)
C15 C 0.5237(9) 0.7598(6) 0.00345(11)
C16 C 0.4117(9) 0.7780(6) -0.01930(11)
C17 C 0.2822(8) 0.7957(6) -0.04674(10)
C18 C 0.3781(8) 0.7322(6) -0.07293(11)
H7 H 0.5224 0.6768 -0.0723
C19 C 0.2602(9) 0.7511(6) -0.09969(11)
H8 H 0.3257 0.7101 -0.1171
C20 C 0.0446(10) 0.8311(7) -0.10058(13)
H9 H -0.0359 0.8430 -0.1186
C21 C -0.0511(9) 0.8928(6) -0.07516(14)
H10 H -0.1960 0.9474 -0.0762
C22 C 0.0620(9) 0.8761(6) -0.04796(12)
H11 H -0.0063 0.9173 -0.0307
C23 C 0.6309(9) 0.6562(6) 0.22016(11)
C24 C 0.5227(8) 0.6569(6) 0.24294(11)
C25 C 0.3923(8) 0.6500(6) 0.27011(10)
C26 C 0.1787(8) 0.7334(6) 0.27287(11)
H12 H 0.1195 0.7968 0.2570
C27 C 0.0527(9) 0.7231(6) 0.29910(11)
H13 H -0.0885 0.7815 0.3009
C28 C 0.1362(9) 0.6262(6) 0.32258(11)
H14 H 0.0505 0.6181 0.3400
C29 C 0.3496(8) 0.5410(6) 0.31999(11)
H15 H 0.4068 0.4769 0.3358
C30 C 0.4768(8) 0.5508(6) 0.29408(10)
H16 H 0.6178 0.4922 0.2924
loop_
_geom_bond_atom_site_label_1
_geom_bond_atom_site_label_2
_geom_bond_site_symmetry_1
_geom_bond_site_symmetry_2
O1 C9 1_555 1_555
O2 C10 1_555 1_555
C1 H1 1_555 1_555
C2 C1 1_555 1_555
C3 C2 1_555 1_555
H2 C3 1_555 1_555
C4 C3 1_555 1_555
H3 C4 1_555 1_555
C5 H4 1_555 1_555
C6 C5 1_555 1_555
H5 C6 1_555 1_555
C7 C6 1_555 1_555
C8 C7 1_555 1_555
H6 C8 1_555 1_555
C9 C11 1_555 1_555
C10 C12 1_555 1_555
C11 C8 1_555 1_555
C12 C5 1_555 1_555
C13 C1 1_555 1_555
C14 C4 1_555 1_555
C15 C2 1_555 1_555
C16 C15 1_555 1_555
C17 C16 1_555 1_555
C18 C17 1_555 1_555
H7 C18 1_555 1_555
C19 C18 1_555 1_555
H8 C19 1_555 1_555
C20 C19 1_555 1_555
H9 C20 1_555 1_555
C21 C20 1_555 1_555
H10 C21 1_555 1_555
C22 C17 1_555 1_555
H11 C22 1_555 1_555
C23 C7 1_555 1_555
C24 C23 1_555 1_555
C25 C24 1_555 1_555
C26 C25 1_555 1_555
H12 C26 1_555 1_555
C27 C26 1_555 1_555
H13 C27 1_555 1_555
C28 C27 1_555 1_555
H14 C28 1_555 1_555
C29 C28 1_555 1_555
H15 C29 1_555 1_555
C30 C25 1_555 1_555
H16 C30 1_555 1_555
C9 C13 1_555 1_555
C10 C14 1_555 1_555
C11 C12 1_555 1_555
C13 C14 1_555 1_555
C21 C22 1_555 1_555
C29 C30 1_555 1_555

#END
