
#######################################################################
#
#                 Cambridge Crystallographic Data Centre
#                                CCDC 
#
#######################################################################
#
# If this CIF has been generated from an entry in the Cambridge 
# Structural Database, then it will include bibliographic, chemical, 
# crystal, experimental, refinement or atomic coordinate data resulting 
# from the CCDC's data processing and validation procedures.
#
#######################################################################

data_HAKROB
_chemical_formula_moiety         'C44 H52 N4 2+,2(Cl1 1-),4(C2 H4 Cl2)'
_chemical_name_systematic        
'1,2-bis(1,3-Dimesityl-2-imidazolio)ethane dichloride 1,2-dichloroethane solvate'
_symmetry_cell_setting           triclinic
_symmetry_space_group_name_H-M   'P -1'
_symmetry_Int_Tables_number      2
_space_group_name_Hall           '-P 1'
loop_
_symmetry_equiv_pos_site_id
_symmetry_equiv_pos_as_xyz
1 x,y,z
2 -x,-y,-z
_cell_length_a                   9.266(4)
_cell_length_b                   11.294(5)
_cell_length_c                   14.482(6)
_cell_angle_alpha                100.908(7)
_cell_angle_beta                 105.297(7)
_cell_angle_gamma                94.929(6)
_cell_volume                     1420.6
_exptl_crystal_colour            colorless
_exptl_crystal_description       prism
_cell_formula_units_Z            1
loop_
_atom_site_label
_atom_site_type_symbol
_atom_site_fract_x
_atom_site_fract_y
_atom_site_fract_z
N1 N 1.3628(3) 1.2276(2) 0.5145(2)
N2 N 1.2444(3) 1.0764(2) 0.39480(19)
C1 C 1.4796(4) 1.3114(3) 0.5910(3)
C2 C 1.4725(4) 1.3290(3) 0.6864(3)
C3 C 1.5780(5) 1.4198(4) 0.7559(3)
H1 H 1.573(4) 1.432(3) 0.820(3)
C4 C 1.6864(5) 1.4890(4) 0.7322(4)
C5 C 1.6926(5) 1.4645(4) 0.6362(4)
H2 H 1.763(4) 1.511(3) 0.613(3)
C6 C 1.5906(4) 1.3781(3) 0.5628(3)
C7 C 1.3576(6) 1.2544(5) 0.7162(4)
H3 H 1.364(4) 1.266(3) 0.785(3)
H4 H 1.327(6) 1.174(5) 0.694(4)
H5 H 1.262(6) 1.272(5) 0.699(4)
C8 C 1.7949(8) 1.5909(5) 0.8078(6)
H6 H 1.886(8) 1.577(6) 0.818(5)
H7 H 1.807(7) 1.660(6) 0.764(5)
H8 H 1.754(7) 1.603(6) 0.868(5)
C9 C 1.5987(6) 1.3552(5) 0.4595(4)
H9 H 1.501(6) 1.350(4) 0.414(3)
H10 H 1.652(5) 1.419(4) 0.448(3)
H11 H 1.640(5) 1.277(4) 0.441(3)
C10 C 1.2168(4) 1.2520(3) 0.4781(3)
H12 H 1.183(5) 1.333(4) 0.504(3)
C11 C 1.1426(4) 1.1596(3) 0.4042(3)
H13 H 1.045(5) 1.145(4) 0.358(3)
C12 C 1.3772(4) 1.1188(3) 0.4629(2)
C13 C 1.5141(4) 1.0583(3) 0.4814(3)
H14 H 1.539(3) 1.034(3) 0.416(2)
H15 H 1.595(4) 1.112(3) 0.531(2)
C14 C 1.2132(4) 0.9686(3) 0.3167(2)
C15 C 1.1234(4) 0.8664(3) 0.3228(2)
C16 C 1.0886(4) 0.7672(4) 0.2433(3)
H16 H 1.033(5) 0.700(4) 0.246(3)
C17 C 1.1384(4) 0.7689(3) 0.1620(3)
C18 C 1.2282(4) 0.8723(4) 0.1599(3)
H17 H 1.266(4) 0.881(3) 0.101(3)
C19 C 1.2676(4) 0.9757(3) 0.2366(2)
C20 C 1.0624(5) 0.8653(4) 0.4084(3)
H18 H 1.133(4) 0.901(3) 0.472(3)
H19 H 1.039(4) 0.786(4) 0.408(3)
H20 H 0.980(5) 0.907(3) 0.398(3)
C21 C 1.0917(6) 0.6627(4) 0.0744(3)
H21 H 1.0286 0.5976 0.0879
H22 H 1.1820 0.6321 0.0617
H23 H 1.0341 0.6894 0.0168
C22 C 1.3570(5) 1.0888(4) 0.2293(3)
H24 H 1.350(5) 1.089(4) 0.168(3)
H25 H 1.341(5) 1.159(4) 0.278(3)
H26 H 1.470(6) 1.090(4) 0.264(4)
C13A C 1.4859(4) 0.9417(3) 0.5186(3)
C12A C 1.6228(4) 0.8812(3) 0.5371(2)
N1A N 1.6372(3) 0.7724(2) 0.4855(2)
C1A C 1.5204(4) 0.6886(3) 0.4090(3)
C2A C 1.5275(4) 0.6710(3) 0.3136(3)
C3A C 1.4220(5) 0.5802(4) 0.2441(3)
H1A H 1.427(4) 0.568(3) 0.180(3)
C4A C 1.3136(5) 0.5110(4) 0.2678(4)
C5A C 1.3074(5) 0.5355(4) 0.3638(4)
H2A H 1.237(4) 0.489(3) 0.387(3)
C6A C 1.4094(4) 0.6219(3) 0.4372(3)
C9A C 1.4013(6) 0.6448(5) 0.5405(4)
H9A H 1.499(6) 0.650(4) 0.586(3)
H10A H 1.348(5) 0.581(4) 0.552(3)
H11A H 1.360(5) 0.723(4) 0.559(3)
C8A C 1.2051(8) 0.4091(5) 0.1922(6)
H6A H 1.114(8) 0.423(6) 0.182(5)
H7A H 1.193(7) 0.340(6) 0.236(5)
H8A H 1.246(7) 0.397(6) 0.132(5)
C7A C 1.6424(6) 0.7456(5) 0.2838(4)
H3A H 1.636(4) 0.734(3) 0.215(3)
H4A H 1.673(6) 0.826(5) 0.306(4)
H5A H 1.738(6) 0.728(5) 0.301(4)
C10A C 1.7832(4) 0.7480(3) 0.5219(3)
H12A H 1.817(5) 0.667(4) 0.496(3)
C11A C 1.8574(4) 0.8404(3) 0.5958(3)
N2A N 1.7556(3) 0.9236(2) 0.60520(19)
C14A C 1.7868(4) 1.0314(3) 0.6833(2)
C15A C 1.8766(4) 1.1336(3) 0.6772(2)
C16A C 1.9114(4) 1.2328(4) 0.7567(3)
H16A H 1.967(5) 1.300(4) 0.754(3)
C17A C 1.8616(4) 1.2311(3) 0.8380(3)
C18A C 1.7718(4) 1.1277(4) 0.8401(3)
H17A H 1.734(4) 1.119(3) 0.899(3)
C19A C 1.7324(4) 1.0243(3) 0.7634(2)
C22A C 1.6430(5) 0.9112(4) 0.7707(3)
H24A H 1.650(5) 0.911(4) 0.832(3)
H25A H 1.659(5) 0.841(4) 0.722(3)
H26A H 1.530(6) 0.910(4) 0.736(4)
C21A C 1.9083(6) 1.3373(4) 0.9256(3)
H21A H 1.9714 1.4024 0.9121
H22A H 1.8180 1.3679 0.9383
H23A H 1.9659 1.3106 0.9832
C20A C 1.9376(5) 1.1347(4) 0.5916(3)
H18A H 1.867(4) 1.099(3) 0.528(3)
H19A H 1.961(4) 1.214(4) 0.592(3)
H20A H 2.020(5) 1.093(3) 0.602(3)
H13A H 1.955(5) 0.855(4) 0.642(3)
H14A H 1.461(3) 0.966(3) 0.584(2)
H15A H 1.405(4) 0.888(3) 0.469(2)
C23 C 0.3022(8) 0.0236(6) -0.0726(4)
H27 H 0.335(6) -0.019(4) -0.126(4)
H28 H 0.336(5) -0.015(4) -0.013(4)
C24 C 0.1475(7) 0.0376(6) -0.0928(4)
H29 H 0.1159 0.0747 -0.1503
H30 H 0.1278 0.0899 -0.0356
Cl1 Cl 0.4027(2) 0.18714(16) -0.02854(10)
Cl2 Cl 0.04710(14) -0.11547(11) -0.11784(9)
C25 C 0.8472(12) 0.3573(7) 0.2906(8)
C27 C 0.6950(14) 0.3582(10) 0.2130(10)
Cl3 Cl 0.90320(17) 0.49606(13) 0.35642(12)
Cl4 Cl 0.7297(13) 0.4470(10) 0.1308(7)
Cl6 Cl 1.75573(10) 1.07863(9) 0.32735(7)
C26? C 0.7292(17) 0.3734(11) 0.2636(11)
C28? C 0.7292(17) 0.3484(13) 0.1600(12)
Cl5? Cl 0.6985(12) 0.4749(9) 0.1064(6)
loop_
_geom_bond_atom_site_label_1
_geom_bond_atom_site_label_2
_geom_bond_site_symmetry_1
_geom_bond_site_symmetry_2
N1 C1 1_555 1_555
N2 C11 1_555 1_555
C1 C2 1_555 1_555
C2 C3 1_555 1_555
C3 H1 1_555 1_555
C4 C3 1_555 1_555
C5 C4 1_555 1_555
H2 C5 1_555 1_555
C6 C1 1_555 1_555
C7 C2 1_555 1_555
H3 C7 1_555 1_555
H4 C7 1_555 1_555
H5 C7 1_555 1_555
C8 C4 1_555 1_555
H6 C8 1_555 1_555
H7 C8 1_555 1_555
H8 C8 1_555 1_555
C9 C6 1_555 1_555
H9 C9 1_555 1_555
H10 C9 1_555 1_555
H11 C9 1_555 1_555
C10 N1 1_555 1_555
H12 C10 1_555 1_555
C11 C10 1_555 1_555
H13 C11 1_555 1_555
C12 N1 1_555 1_555
C13 C12 1_555 1_555
H14 C13 1_555 1_555
H15 C13 1_555 1_555
C14 N2 1_555 1_555
C15 C14 1_555 1_555
C16 C15 1_555 1_555
H16 C16 1_555 1_555
C17 C16 1_555 1_555
C18 C17 1_555 1_555
H17 C18 1_555 1_555
C19 C14 1_555 1_555
C20 C15 1_555 1_555
H18 C20 1_555 1_555
H19 C20 1_555 1_555
H20 C20 1_555 1_555
C21 C17 1_555 1_555
H21 C21 1_555 1_555
H22 C21 1_555 1_555
H23 C21 1_555 1_555
C22 C19 1_555 1_555
H24 C22 1_555 1_555
H25 C22 1_555 1_555
H26 C22 1_555 1_555
C23 H27 1_555 1_555
H28 C23 1_555 1_555
C24 C23 1_555 1_555
H29 C24 1_555 1_555
H30 C24 1_555 1_555
C25 C27 1_555 1_555
C27 Cl4 1_555 1_555
Cl1 C23 1_555 1_555
Cl2 C24 1_555 1_555
Cl3 C25 1_555 1_555
C13A C13 1_555 1_555
C12A C13A 1_555 1_555
N1A C12A 1_555 1_555
C1A N1A 1_555 1_555
C2A C1A 1_555 1_555
C3A C2A 1_555 1_555
H1A C3A 1_555 1_555
C4A C3A 1_555 1_555
C5A C4A 1_555 1_555
H2A C5A 1_555 1_555
C6A C1A 1_555 1_555
C9A C6A 1_555 1_555
H9A C9A 1_555 1_555
H10A C9A 1_555 1_555
H11A C9A 1_555 1_555
C8A C4A 1_555 1_555
H6A C8A 1_555 1_555
H7A C8A 1_555 1_555
H8A C8A 1_555 1_555
C7A C2A 1_555 1_555
H3A C7A 1_555 1_555
H4A C7A 1_555 1_555
H5A C7A 1_555 1_555
C10A N1A 1_555 1_555
H12A C10A 1_555 1_555
C11A C10A 1_555 1_555
N2A C12A 1_555 1_555
C14A N2A 1_555 1_555
C15A C14A 1_555 1_555
C16A C15A 1_555 1_555
H16A C16A 1_555 1_555
C17A C16A 1_555 1_555
C18A C17A 1_555 1_555
H17A C18A 1_555 1_555
C19A C14A 1_555 1_555
C22A C19A 1_555 1_555
H24A C22A 1_555 1_555
H25A C22A 1_555 1_555
H26A C22A 1_555 1_555
C21A C17A 1_555 1_555
H21A C21A 1_555 1_555
H22A C21A 1_555 1_555
H23A C21A 1_555 1_555
C20A C15A 1_555 1_555
H18A C20A 1_555 1_555
H19A C20A 1_555 1_555
H20A C20A 1_555 1_555
H13A C11A 1_555 1_555
H14A C13A 1_555 1_555
H15A C13A 1_555 1_555
N2 C12 1_555 1_555
C5 C6 1_555 1_555
C18 C19 1_555 1_555
C5A C6A 1_555 1_555
C11A N2A 1_555 1_555
C18A C19A 1_555 1_555

#END
