
#######################################################################
#
#                 Cambridge Crystallographic Data Centre
#                                CCDC 
#
#######################################################################
#
# If this CIF has been generated from an entry in the Cambridge 
# Structural Database, then it will include bibliographic, chemical, 
# crystal, experimental, refinement or atomic coordinate data resulting 
# from the CCDC's data processing and validation procedures.
#
#######################################################################

data_HALBUT
_chemical_formula_moiety         'C14 H13 N1 O3'
_chemical_name_systematic        
'Methyl 3-(cyclopropylcarbonyl)indolizine-1-carboxylate'
_symmetry_cell_setting           triclinic
_symmetry_space_group_name_H-M   'P -1'
_symmetry_Int_Tables_number      2
_space_group_name_Hall           '-P 1'
loop_
_symmetry_equiv_pos_site_id
_symmetry_equiv_pos_as_xyz
1 x,y,z
2 -x,-y,-z
_cell_length_a                   7.2548(6)
_cell_length_b                   8.2019(8)
_cell_length_c                   11.0324(10)
_cell_angle_alpha                89.636(7)
_cell_angle_beta                 71.956(6)
_cell_angle_gamma                70.945(6)
_cell_volume                     586.686
_cell_formula_units_Z            2
loop_
_atom_site_label
_atom_site_type_symbol
_atom_site_fract_x
_atom_site_fract_y
_atom_site_fract_z
C1 C -0.0620(2) 0.69117(18) 0.89154(13)
C2 C -0.0835(3) 0.5756(2) 0.69767(15)
H1 H -0.0202 0.5034 0.6210
C3 C 0.2354(2) 0.49051(18) 0.76250(14)
C4 C 0.0808(2) 0.75488(19) 1.06633(14)
C5 C 0.2712(2) 0.54537(18) 0.86828(14)
H2 H 0.3964 0.5051 0.8839
C6 C 0.0937(2) 0.66890(18) 0.94770(14)
C7 C -0.2735(2) 0.7907(2) 0.92685(16)
H3 H -0.3383 0.8628 1.0035
C8 C 0.3732(2) 0.3641(2) 0.65429(14)
C9 C -0.2856(3) 0.6744(2) 0.73196(16)
H4 H -0.3608 0.6716 0.6778
C10 C -0.1282(3) 0.9615(2) 1.24490(16)
H5 H -0.2656 1.0436 1.2794
H6 H -0.0307 1.0212 1.2303
H7 H -0.1037 0.8779 1.3045
C11 C 0.5832(2) 0.2720(2) 0.65665(16)
H8 H 0.6137 0.2963 0.7338
C12 C -0.3821(3) 0.7808(2) 0.84850(17)
H9 H -0.5220 0.8453 0.8724
C13 C 0.7562(3) 0.2331(2) 0.53183(19)
H10 H 0.7217 0.2724 0.4559
H11 H 0.8875 0.2371 0.5335
C14 C 0.6916(3) 0.0916(2) 0.58864(18)
H12 H 0.7829 0.0081 0.6255
H13 H 0.6171 0.0435 0.5479
N1 N 0.02728(19) 0.58287(14) 0.77732(11)
O1 O -0.10542(18) 0.87412(14) 1.12557(10)
O2 O 0.22183(19) 0.72444(17) 1.10840(12)
O3 O 0.31952(19) 0.33353(16) 0.56372(11)
loop_
_geom_bond_atom_site_label_1
_geom_bond_atom_site_label_2
_geom_bond_site_symmetry_1
_geom_bond_site_symmetry_2
C1 C6 1_555 1_555
C2 H1 1_555 1_555
C3 C5 1_555 1_555
C4 C6 1_555 1_555
C5 H2 1_555 1_555
C6 C5 1_555 1_555
C7 C1 1_555 1_555
H3 C7 1_555 1_555
C8 C3 1_555 1_555
C9 C2 1_555 1_555
H4 C9 1_555 1_555
C10 H5 1_555 1_555
H6 C10 1_555 1_555
H7 C10 1_555 1_555
C11 C8 1_555 1_555
H8 C11 1_555 1_555
C12 C7 1_555 1_555
H9 C12 1_555 1_555
C13 C11 1_555 1_555
H10 C13 1_555 1_555
H11 C13 1_555 1_555
C14 C11 1_555 1_555
H12 C14 1_555 1_555
H13 C14 1_555 1_555
N1 C1 1_555 1_555
O1 C4 1_555 1_555
O2 C4 1_555 1_555
O3 C8 1_555 1_555
C2 N1 1_555 1_555
C3 N1 1_555 1_555
C9 C12 1_555 1_555
C10 O1 1_555 1_555
C13 C14 1_555 1_555

#END
