
#######################################################################
#
#                 Cambridge Crystallographic Data Centre
#                                CCDC 
#
#######################################################################
#
# If this CIF has been generated from an entry in the Cambridge 
# Structural Database, then it will include bibliographic, chemical, 
# crystal, experimental, refinement or atomic coordinate data resulting 
# from the CCDC's data processing and validation procedures.
#
#######################################################################

data_HALBON
_chemical_formula_moiety         'C15 H15 N1 O5 S1'
_chemical_name_systematic        
'Dimethyl 5-(cyclopropylcarbonyl)-3-methylpyrrolo[2,1-b][1,3]thiazole-6,7-dicarboxylate'
_symmetry_cell_setting           orthorhombic
_symmetry_space_group_name_H-M   'I b a 2'
_symmetry_Int_Tables_number      45
_space_group_name_Hall           'I 2 -2c'
loop_
_symmetry_equiv_pos_site_id
_symmetry_equiv_pos_as_xyz
1 x,y,z
2 -x,-y,z
3 1/2+x,1/2-y,z
4 1/2-x,1/2+y,z
5 1/2+x,1/2+y,1/2+z
6 1/2-x,1/2-y,1/2+z
7 x,-y,1/2+z
8 -x,y,1/2+z
_cell_length_a                   10.9785(16)
_cell_length_b                   34.405(6)
_cell_length_c                   8.0074(13)
_cell_angle_alpha                90
_cell_angle_beta                 90
_cell_angle_gamma                90
_cell_volume                     3024.52
_cell_formula_units_Z            8
loop_
_atom_site_label
_atom_site_type_symbol
_atom_site_fract_x
_atom_site_fract_y
_atom_site_fract_z
C1 C 1.1695(3) 0.38632(8) 0.4872(4)
H1 H 1.2483 0.3944 0.5118
C2 C 1.0719(3) 0.40793(8) 0.5227(4)
C3 C 0.8394(2) 0.39378(6) 0.4812(3)
C4 C 0.7856(2) 0.36069(6) 0.4166(3)
C5 C 0.87835(18) 0.33427(6) 0.3658(3)
C6 C 0.9871(2) 0.35271(6) 0.4023(3)
C7 C 1.0698(3) 0.44643(9) 0.6083(5)
H2 H 1.1516 0.4543 0.6334
H3 H 1.0239 0.4444 0.7100
H4 H 1.0324 0.4653 0.5365
C8 C 0.7788(3) 0.43004(7) 0.5356(4)
C9 C 0.6672(3) 0.42584(8) 0.6360(4)
H5 H 0.6403 0.3994 0.6623
C10 C 0.6487(4) 0.45648(12) 0.7682(6)
H6 H 0.6129 0.4484 0.8734
H7 H 0.7096 0.4768 0.7773
C11 C 0.5706(4) 0.45652(11) 0.6207(6)
H8 H 0.5832 0.4769 0.5388
H9 H 0.4865 0.4486 0.6349
C12 C 0.6528(2) 0.35549(6) 0.3902(4)
C13 C 0.4825(3) 0.31646(10) 0.4559(5)
H10 H 0.4606 0.2956 0.5294
H11 H 0.4717 0.3084 0.3421
H12 H 0.4315 0.3385 0.4781
C14 C 0.8751(2) 0.29713(6) 0.2814(3)
C15 C 0.7555(3) 0.24995(8) 0.1456(4)
H13 H 0.6719 0.2447 0.1189
H14 H 0.7873 0.2293 0.2134
H15 H 0.8021 0.2518 0.0445
N1 N 0.96518(18) 0.38843(5) 0.4700(3)
O1 O 0.8200(2) 0.46150(5) 0.4997(4)
O2 O 0.59388(19) 0.37457(6) 0.2957(3)
O3 O 0.60880(15) 0.32693(5) 0.4831(3)
O4 O 0.96537(16) 0.27800(5) 0.2540(3)
O5 O 0.76351(14) 0.28609(4) 0.2359(2)
S1 S 1.13887(6) 0.342162(18) 0.39176(12)
loop_
_geom_bond_atom_site_label_1
_geom_bond_atom_site_label_2
_geom_bond_site_symmetry_1
_geom_bond_site_symmetry_2
C1 H1 1_555 1_555
C2 C1 1_555 1_555
C3 C4 1_555 1_555
C4 C5 1_555 1_555
C5 C6 1_555 1_555
C6 N1 1_555 1_555
C7 C2 1_555 1_555
H2 C7 1_555 1_555
H3 C7 1_555 1_555
H4 C7 1_555 1_555
C8 C3 1_555 1_555
C9 C8 1_555 1_555
H5 C9 1_555 1_555
C10 C9 1_555 1_555
H6 C10 1_555 1_555
H7 C10 1_555 1_555
C11 C9 1_555 1_555
H8 C11 1_555 1_555
H9 C11 1_555 1_555
C12 C4 1_555 1_555
C13 H10 1_555 1_555
H11 C13 1_555 1_555
H12 C13 1_555 1_555
C14 C5 1_555 1_555
C15 H13 1_555 1_555
H14 C15 1_555 1_555
H15 C15 1_555 1_555
N1 C2 1_555 1_555
O1 C8 1_555 1_555
O2 C12 1_555 1_555
O3 C12 1_555 1_555
O4 C14 1_555 1_555
O5 C14 1_555 1_555
S1 C1 1_555 1_555
C3 N1 1_555 1_555
C6 S1 1_555 1_555
C10 C11 1_555 1_555
C13 O3 1_555 1_555
C15 O5 1_555 1_555

#END
