
#######################################################################
#
#                 Cambridge Crystallographic Data Centre
#                                CCDC 
#
#######################################################################
#
# If this CIF has been generated from an entry in the Cambridge 
# Structural Database, then it will include bibliographic, chemical, 
# crystal, experimental, refinement or atomic coordinate data resulting 
# from the CCDC's data processing and validation procedures.
#
#######################################################################

data_HALKEM
_chemical_formula_moiety         '2(C9 H9 N2 S1 1+),C2 H6 O1,O4 S1 2-,H2 O1'
_chemical_name_systematic        
'bis(4-Phenyl-2-amino-1,3-thiazolium) sulfate ethanol solvate monohydrate'
_symmetry_cell_setting           monoclinic
_symmetry_space_group_name_H-M   'C 2/c'
_symmetry_Int_Tables_number      15
_space_group_name_Hall           '-C 2yn'
loop_
_symmetry_equiv_pos_site_id
_symmetry_equiv_pos_as_xyz
1 x,y,z
2 -x,y,1/2-z
3 1/2+x,1/2+y,z
4 1/2-x,1/2+y,1/2-z
5 -x,-y,-z
6 x,-y,1/2+z
7 1/2-x,1/2-y,-z
8 1/2+x,1/2-y,1/2+z
_cell_length_a                   22.329(2)
_cell_length_b                   9.6580(10)
_cell_length_c                   24.484(3)
_cell_angle_alpha                90
_cell_angle_beta                 113.528(2)
_cell_angle_gamma                90
_cell_volume                     4841.1
_exptl_crystal_colour            colorless
_exptl_crystal_description       block
_cell_formula_units_Z            8
loop_
_atom_site_label
_atom_site_type_symbol
_atom_site_fract_x
_atom_site_fract_y
_atom_site_fract_z
N1 N 0.59144(14) -0.0245(3) 0.71310(12)
H1 H 0.5834 -0.1118 0.7123
N2 N 0.70525(15) -0.0500(3) 0.74910(15)
H2 H 0.7027 -0.1387 0.7502
H3 H 0.7428 -0.0105 0.7599
S1 S 0.65122(5) 0.20342(10) 0.72711(5)
C1 C 0.65156(19) 0.0256(4) 0.73076(16)
C2 C 0.54183(17) 0.0765(4) 0.69578(15)
C3 C 0.56722(18) 0.2044(4) 0.70151(16)
H10 H 0.5422 0.2848 0.6926
C4 C 0.47279(17) 0.0362(4) 0.67260(15)
C5 C 0.4246(2) 0.1378(4) 0.65306(17)
H11 H 0.4366 0.2306 0.6558
C6 C 0.3597(2) 0.1028(5) 0.62989(19)
H12 H 0.3282 0.1721 0.6175
C7 C 0.3407(2) -0.0337(5) 0.62472(19)
H13 H 0.2966 -0.0567 0.6077
C8 C 0.3870(2) -0.1354(5) 0.64482(19)
H14 H 0.3745 -0.2278 0.6427
C9 C 0.45314(19) -0.1005(4) 0.66851(17)
H15 H 0.4844 -0.1702 0.6817
N3 N 0.63238(15) 0.5394(3) 0.57304(14)
H4 H 0.6245 0.5125 0.6030
N4 N 0.70223(16) 0.7186(4) 0.62452(15)
H5 H 0.6965 0.7008 0.6565
H6 H 0.7276 0.7851 0.6240
S2 S 0.67970(6) 0.66860(14) 0.51018(5)
C10 C 0.67235(19) 0.6440(4) 0.57645(18)
C11 C 0.60407(19) 0.4764(4) 0.51716(17)
C12 C 0.6252(2) 0.5350(5) 0.47864(18)
H16 H 0.6121 0.5069 0.4392
C13 C 0.55655(19) 0.3646(4) 0.50625(17)
C14 C 0.5231(2) 0.3145(5) 0.44935(19)
H17 H 0.5315 0.3515 0.4181
C15 C 0.4776(2) 0.2109(5) 0.4380(2)
H18 H 0.4556 0.1789 0.3993
C16 C 0.4645(2) 0.1545(4) 0.4830(2)
H19 H 0.4341 0.0835 0.4753
C17 C 0.4966(2) 0.2037(5) 0.5393(2)
H20 H 0.4875 0.1669 0.5703
C18 C 0.5423(2) 0.3074(5) 0.55090(19)
H21 H 0.5640 0.3392 0.5897
O1 O 0.57876(12) 0.6897(3) 0.71360(12)
O2 O 0.69340(12) 0.6592(3) 0.73713(12)
O3 O 0.63721(13) 0.5069(3) 0.77903(11)
O4 O 0.61622(15) 0.4945(3) 0.67583(12)
S3 S 0.63092(4) 0.58767(9) 0.72676(4)
O5 O 0.54221(15) 0.5011(3) 0.83077(12)
H7 H 0.5676 0.5103 0.8128
H8 H 0.5105 0.5571 0.8156
O6 O 0.7704(19) -0.041(4) 0.617(2)
H9 H 0.7987 -0.0268 0.6503
C19 C 0.7261(10) 0.073(2) 0.6001(9)
H22 H 0.7466 0.1518 0.6250
H23 H 0.6876 0.0489 0.6071
C20 C 0.7058(10) 0.112(2) 0.5367(10)
H24 H 0.7433 0.1430 0.5301
H25 H 0.6744 0.1859 0.5272
H26 H 0.6867 0.0339 0.5118
C21? C 0.7480(10) 0.0577(16) 0.5711(8)
C22? C 0.7073(11) 0.146(3) 0.5929(12)
H27? H 0.7216 0.0277 0.5308
H28? H 0.7838 0.1127 0.5700
H29? H 0.6680 0.0971 0.5879
H30? H 0.6964 0.2303 0.5705
H31? H 0.7313 0.1664 0.6343
H32? H 0.7880 -0.1148 0.5895
O7? O 0.7738(17) -0.060(5) 0.6072(18)
loop_
_geom_bond_atom_site_label_1
_geom_bond_atom_site_label_2
_geom_bond_site_symmetry_1
_geom_bond_site_symmetry_2
N1 H1 1_555 1_555
N2 H2 1_555 1_555
H3 N2 1_555 1_555
N3 H4 1_555 1_555
N4 H5 1_555 1_555
H6 N4 1_555 1_555
O1 S3 1_555 1_555
O2 S3 1_555 1_555
O3 S3 1_555 1_555
O4 S3 1_555 1_555
O5 H7 1_555 1_555
H8 O5 1_555 1_555
O6 H9 1_555 1_555
S1 C1 1_555 1_555
S2 C10 1_555 1_555
C1 N1 1_555 1_555
C2 N1 1_555 1_555
C3 S1 1_555 1_555
H10 C3 1_555 1_555
C4 C2 1_555 1_555
C5 C4 1_555 1_555
H11 C5 1_555 1_555
C6 C5 1_555 1_555
H12 C6 1_555 1_555
C7 C6 1_555 1_555
H13 C7 1_555 1_555
C8 C7 1_555 1_555
H14 C8 1_555 1_555
C9 C4 1_555 1_555
H15 C9 1_555 1_555
C10 N3 1_555 1_555
C11 N3 1_555 1_555
C12 S2 1_555 1_555
H16 C12 1_555 1_555
C13 C11 1_555 1_555
C14 C13 1_555 1_555
H17 C14 1_555 1_555
C15 C14 1_555 1_555
H18 C15 1_555 1_555
C16 C15 1_555 1_555
H19 C16 1_555 1_555
C17 C16 1_555 1_555
H20 C17 1_555 1_555
C18 C13 1_555 1_555
H21 C18 1_555 1_555
C19 O6 1_555 1_555
H22 C19 1_555 1_555
H23 C19 1_555 1_555
C20 C19 1_555 1_555
H24 C20 1_555 1_555
H25 C20 1_555 1_555
H26 C20 1_555 1_555
N2 C1 1_555 1_555
N4 C10 1_555 1_555
C2 C3 1_555 1_555
C8 C9 1_555 1_555
C11 C12 1_555 1_555
C17 C18 1_555 1_555

#END
