
#######################################################################
#
#                 Cambridge Crystallographic Data Centre
#                                CCDC 
#
#######################################################################
#
# If this CIF has been generated from an entry in the Cambridge 
# Structural Database, then it will include bibliographic, chemical, 
# crystal, experimental, refinement or atomic coordinate data resulting 
# from the CCDC's data processing and validation procedures.
#
#######################################################################

data_HALNAJ
_chemical_formula_moiety         'C21 H24 O2 S2'
_chemical_name_systematic        
't-Butyl 3,11-dithiatricyclo(11.3.1.1^5,9^)octadeca-1(17),5,7,9(18),13,15-hexaene-17-carboxylate'
_symmetry_cell_setting           monoclinic
_symmetry_space_group_name_H-M   'P 21/a'
_symmetry_Int_Tables_number      14
_space_group_name_Hall           '-P 2yab'
loop_
_symmetry_equiv_pos_site_id
_symmetry_equiv_pos_as_xyz
1 x,y,z
2 1/2-x,1/2+y,-z
3 -x,-y,-z
4 1/2+x,1/2-y,z
_cell_length_a                   13.317(5)
_cell_length_b                   7.624(1)
_cell_length_c                   19.965(8)
_cell_angle_alpha                90
_cell_angle_beta                 104.15(2)
_cell_angle_gamma                90
_cell_volume                     1965.52
_exptl_crystal_colour            Colorless
_cell_formula_units_Z            4
loop_
_atom_site_label
_atom_site_type_symbol
_atom_site_fract_x
_atom_site_fract_y
_atom_site_fract_z
C1 C 0.6524(4) -0.4681(7) 0.2318(3)
S1 S 0.5794(1) -0.3438(2) 0.1592(1)
C2 C 0.6584(4) -0.1493(7) 0.1610(2)
C3 C 0.6761(4) -0.0487(6) 0.2283(2)
C4 C 0.7744(4) -0.0530(7) 0.2716(3)
C5 C 0.7925(4) 0.0201(7) 0.3370(3)
C6 C 0.7127(4) 0.0931(6) 0.3594(3)
C7 C 0.6126(4) 0.1019(6) 0.3177(2)
C8 C 0.5952(3) 0.0333(6) 0.2503(2)
C9 C 0.5283(3) 0.1805(6) 0.3462(2)
S2 S 0.5085(1) 0.0654(2) 0.4219(1)
C10 C 0.4671(3) -0.1552(6) 0.3898(2)
C11 C 0.5550(3) -0.2727(6) 0.3811(2)
C12 C 0.6308(4) -0.3319(7) 0.4371(3)
C13 C 0.7123(4) -0.4343(7) 0.4261(3)
C14 C 0.7187(4) -0.4761(6) 0.3607(3)
C15 C 0.6426(4) -0.4186(6) 0.3042(3)
C16 C 0.5594(3) -0.3207(6) 0.3146(2)
C17 C 0.4878(4) 0.0446(7) 0.2042(2)
O1 O 0.4113(3) -0.0128(5) 0.2173(2)
O2 O 0.4909(2) 0.1316(4) 0.1461(2)
C18 C 0.3945(4) 0.1717(8) 0.0926(2)
C19 C 0.4365(4) 0.2628(8) 0.0379(2)
C20 C 0.3382(4) 0.0036(8) 0.0657(3)
C21 C 0.3276(4) 0.2938(8) 0.1235(3)
H1 H 0.86972(37) 0.01940(68) 0.37036(27)
H2 H 0.62692(38) -0.29912(68) 0.48907(25)
H3 H 0.49808(34) -0.28200(59) 0.27092(3)
H4 H 0.54841(34) 0.31500(62) 0.36039(22)
H5 H 0.45681(34) 0.17703(62) 0.30649(22)
H6 H 0.41240(34) -0.14243(62) 0.34029(23)
H7 H 0.42973(34) -0.21691(62) 0.42599(23)
H8 H 0.72801(37) 0.14564(61) 0.41106(25)
H9 H 0.62046(37) -0.06363(69) 0.11941(24)
H10 H 0.73281(37) -0.18865(69) 0.15334(24)
H11 H 0.83709(38) -0.11339(68) 0.25451(27)
H12 H 0.77103(40) -0.48106(74) 0.46978(28)
H13 H 0.78282(38) -0.55361(64) 0.35289(29)
H14 H 0.37310(44) 0.29965(83) -0.00478(24)
H15 H 0.48780(44) 0.17503(83) 0.01980(24)
H16 H 0.47863(44) 0.37883(83) 0.05966(24)
H17 H 0.73328(40) -0.45594(66) 0.23173(26)
H18 H 0.62890(40) -0.60344(66) 0.22327(26)
H19 H 0.25732(44) 0.32372(83) 0.08497(27)
H20 H 0.36952(44) 0.41360(83) 0.14014(27)
H21 H 0.30836(44) 0.23085(83) 0.16716(27)
H22 H 0.26843(44) 0.03457(83) 0.02696(28)
H23 H 0.31832(44) -0.06596(83) 0.10781(28)
H24 H 0.38775(44) -0.07765(83) 0.04319(28)
loop_
_geom_bond_atom_site_label_1
_geom_bond_atom_site_label_2
_geom_bond_site_symmetry_1
_geom_bond_site_symmetry_2
C1 S1 1_555 1_555
S1 C2 1_555 1_555
C2 C3 1_555 1_555
C3 C4 1_555 1_555
C4 C5 1_555 1_555
C5 C6 1_555 1_555
C6 C7 1_555 1_555
C7 C8 1_555 1_555
C8 C3 1_555 1_555
C9 C7 1_555 1_555
S2 C9 1_555 1_555
C10 S2 1_555 1_555
C11 C10 1_555 1_555
C12 C11 1_555 1_555
C13 C12 1_555 1_555
C14 C13 1_555 1_555
C15 C1 1_555 1_555
C16 C11 1_555 1_555
C17 C8 1_555 1_555
O1 C17 1_555 1_555
O2 C17 1_555 1_555
C18 O2 1_555 1_555
C19 C18 1_555 1_555
C20 C18 1_555 1_555
C21 C18 1_555 1_555
H1 C5 1_555 1_555
H2 C12 1_555 1_555
H3 C16 1_555 1_555
H4 C9 1_555 1_555
H5 C9 1_555 1_555
H6 C10 1_555 1_555
H7 C10 1_555 1_555
H8 C6 1_555 1_555
H9 C2 1_555 1_555
H10 C2 1_555 1_555
H11 C4 1_555 1_555
H12 C13 1_555 1_555
H13 C14 1_555 1_555
H14 C19 1_555 1_555
H15 C19 1_555 1_555
H16 C19 1_555 1_555
H17 C1 1_555 1_555
H18 C1 1_555 1_555
H19 C21 1_555 1_555
H20 C21 1_555 1_555
H21 C21 1_555 1_555
H22 C20 1_555 1_555
H23 C20 1_555 1_555
H24 C20 1_555 1_555
C14 C15 1_555 1_555
C15 C16 1_555 1_555

#END
