
#######################################################################
#
#                 Cambridge Crystallographic Data Centre
#                                CCDC 
#
#######################################################################
#
# If this CIF has been generated from an entry in the Cambridge 
# Structural Database, then it will include bibliographic, chemical, 
# crystal, experimental, refinement or atomic coordinate data resulting 
# from the CCDC's data processing and validation procedures.
#
#######################################################################

data_HALPOB
_chemical_formula_moiety         'C24 H43 F3 N2 O4'
_chemical_name_systematic        
't-Butyl 2-ethyl-2-((2-ethyl-2-((trifluoroacetyl)amino)heptanoyl)amino)heptanoate'
_symmetry_cell_setting           monoclinic
_symmetry_space_group_name_H-M   'P 21'
_symmetry_Int_Tables_number      4
_space_group_name_Hall           'P 2yb'
loop_
_symmetry_equiv_pos_site_id
_symmetry_equiv_pos_as_xyz
1 x,y,z
2 -x,1/2+y,-z
_cell_length_a                   8.428(2)
_cell_length_b                   16.525(3)
_cell_length_c                   10.325(2)
_cell_angle_alpha                90
_cell_angle_beta                 95.08(8)
_cell_angle_gamma                90
_cell_volume                     1432.34
_exptl_crystal_colour            colorless
_exptl_crystal_description       plate
_cell_formula_units_Z            2
loop_
_atom_site_label
_atom_site_type_symbol
_atom_site_fract_x
_atom_site_fract_y
_atom_site_fract_z
F1 F 0.3969(13) 0.0009(7) -0.5431(8)
F2 F 0.5138(10) 0.1019(3) -0.4512(8)
F3 F 0.6326(11) -0.0135(7) -0.4458(13)
C1 C 0.4927(8) 0.0226(3) -0.4400(7)
C2 C 0.4172(9) -0.0057(6) -0.3164(9)
O1 O 0.4094(9) -0.0762(4) -0.2944(7)
N1 N 0.3663(7) 0.0547(4) -0.2487(5)
H1 H 0.3741 0.1026 -0.2801
C3 C 0.2986(8) 0.0471(4) -0.1267(7)
C4 C 0.4052(10) 0.0001(5) -0.0255(8)
H2 H 0.3563 0.0004 0.0561
H3 H 0.4115 -0.0557 -0.0536
C5 C 0.5717(10) 0.0335(7) -0.0022(9)
H4 H 0.5699 0.0906 0.0192
H5 H 0.6304 0.0261 -0.0780
C6 C 0.6460(14) -0.0169(8) 0.1144(12)
H6 H 0.5909 -0.0039 0.1904
H7 H 0.6285 -0.0738 0.0954
C7 C 0.8196(14) -0.0032(10) 0.1461(12)
H8 H 0.8393 0.0542 0.1582
H9 H 0.8768 -0.0212 0.0739
C8 C 0.8816(19) -0.0483(8) 0.2684(13)
H10 H 0.9037 -0.1035 0.2469
H11 H 0.8029 -0.0471 0.3301
H12 H 0.9776 -0.0230 0.3055
C9 C 0.1367(9) 0.0026(5) -0.1455(9)
H13 H 0.1558 -0.0533 -0.1679
H14 H 0.0889 0.0028 -0.0635
C10 C 0.0188(12) 0.0390(7) -0.2496(12)
H15 H 0.0636 0.0377 -0.3319
H16 H -0.0034 0.0940 -0.2272
H17 H -0.0781 0.0082 -0.2552
C11 C 0.2693(8) 0.1349(4) -0.0845(6)
O2 O 0.2995(6) 0.1912(3) -0.1556(5)
N2 N 0.2126(7) 0.1448(4) 0.0313(5)
H18 H 0.1950 0.1014 0.0739
C12 C 0.1774(8) 0.2215(4) 0.0934(6)
C13 C 0.0504(8) 0.2689(5) 0.0138(7)
H19 H 0.0865 0.2788 -0.0714
H20 H 0.0386 0.3210 0.0551
C14 C -0.1131(9) 0.2284(6) -0.0041(9)
H21 H -0.0993 0.1773 -0.0481
H22 H -0.1434 0.2153 0.0819
C15 C -0.2552(17) 0.2711(9) -0.0767(11)
H23 H -0.3528 0.2505 -0.0459
H24 H -0.2491 0.3285 -0.0575
C16 C -0.261(2) 0.2596(10) -0.2184(10)
H25 H -0.2732 0.2024 -0.2377
H26 H -0.1605 0.2771 -0.2482
C17 C -0.3972(13) 0.3063(9) -0.2933(13)
H27 H -0.4001 0.3606 -0.2605
H28 H -0.4966 0.2799 -0.2822
H29 H -0.3803 0.3076 -0.3840
C18 C 0.3315(9) 0.2733(5) 0.1204(9)
H30 H 0.3729 0.2855 0.0379
H31 H 0.3029 0.3242 0.1588
C19 C 0.4649(9) 0.2341(7) 0.2101(10)
H32 H 0.4844 0.1803 0.1801
H33 H 0.4335 0.2317 0.2971
H34 H 0.5603 0.2657 0.2091
C20 C 0.1202(8) 0.1969(5) 0.2238(7)
O3 O 0.1229(7) 0.1288(4) 0.2630(5)
O4 O 0.0691(6) 0.2601(3) 0.2897(5)
C21 C 0.0226(10) 0.2531(5) 0.4199(7)
C22 C -0.0334(13) 0.3397(6) 0.4474(8)
H35 H -0.1205 0.3539 0.3852
H36 H 0.0530 0.3768 0.4404
H37 H -0.0677 0.3422 0.5335
C23 C -0.1187(11) 0.1944(7) 0.4261(10)
H38 H -0.0890 0.1417 0.3974
H39 H -0.2082 0.2139 0.3709
H40 H -0.1470 0.1910 0.5140
C24 C 0.1653(13) 0.2310(8) 0.5090(9)
H41 H 0.2546 0.2631 0.4884
H42 H 0.1892 0.1747 0.4985
H43 H 0.1437 0.2410 0.5973
F4? F 0.539(3) -0.0426(7) -0.5018(19)
F5? F 0.411(3) 0.0692(16) -0.527(2)
F6? F 0.623(2) 0.0631(17) -0.3965(18)
loop_
_geom_bond_atom_site_label_1
_geom_bond_atom_site_label_2
_geom_bond_site_symmetry_1
_geom_bond_site_symmetry_2
F1 C1 1_555 1_555
F2 C1 1_555 1_555
F3 C1 1_555 1_555
C1 C2 1_555 1_555
C2 O1 1_555 1_555
N1 C2 1_555 1_555
H1 N1 1_555 1_555
C3 N1 1_555 1_555
C4 C3 1_555 1_555
H2 C4 1_555 1_555
H3 C4 1_555 1_555
C5 C4 1_555 1_555
H4 C5 1_555 1_555
H5 C5 1_555 1_555
C6 C5 1_555 1_555
H6 C6 1_555 1_555
H7 C6 1_555 1_555
C7 C6 1_555 1_555
H8 C7 1_555 1_555
H9 C7 1_555 1_555
C8 C7 1_555 1_555
H10 C8 1_555 1_555
H11 C8 1_555 1_555
H12 C8 1_555 1_555
C9 C3 1_555 1_555
H13 C9 1_555 1_555
H14 C9 1_555 1_555
C10 C9 1_555 1_555
H15 C10 1_555 1_555
H16 C10 1_555 1_555
H17 C10 1_555 1_555
C11 C3 1_555 1_555
O2 C11 1_555 1_555
N2 C11 1_555 1_555
H18 N2 1_555 1_555
C12 N2 1_555 1_555
C13 C12 1_555 1_555
H19 C13 1_555 1_555
H20 C13 1_555 1_555
C14 C13 1_555 1_555
H21 C14 1_555 1_555
H22 C14 1_555 1_555
C15 C14 1_555 1_555
H23 C15 1_555 1_555
H24 C15 1_555 1_555
C16 C15 1_555 1_555
H25 C16 1_555 1_555
H26 C16 1_555 1_555
C17 C16 1_555 1_555
H27 C17 1_555 1_555
H28 C17 1_555 1_555
H29 C17 1_555 1_555
C18 C12 1_555 1_555
H30 C18 1_555 1_555
H31 C18 1_555 1_555
C19 C18 1_555 1_555
H32 C19 1_555 1_555
H33 C19 1_555 1_555
H34 C19 1_555 1_555
C20 C12 1_555 1_555
O3 C20 1_555 1_555
O4 C20 1_555 1_555
C21 O4 1_555 1_555
C22 C21 1_555 1_555
H35 C22 1_555 1_555
H36 C22 1_555 1_555
H37 C22 1_555 1_555
C23 C21 1_555 1_555
H38 C23 1_555 1_555
H39 C23 1_555 1_555
H40 C23 1_555 1_555
C24 C21 1_555 1_555
H41 C24 1_555 1_555
H42 C24 1_555 1_555
H43 C24 1_555 1_555

#END
