
#######################################################################
#
#                 Cambridge Crystallographic Data Centre
#                                CCDC 
#
#######################################################################
#
# If this CIF has been generated from an entry in the Cambridge 
# Structural Database, then it will include bibliographic, chemical, 
# crystal, experimental, refinement or atomic coordinate data resulting 
# from the CCDC's data processing and validation procedures.
#
#######################################################################

data_HALPUG
_chemical_compound_source        'Senecio tsoongianus'
_chemical_formula_moiety         'C30 H38 O4'
_chemical_name_systematic        
(4aR,4a'R,5S,5'S,9aR,9a'R)-4,4',4a,4'a,5,5',6,6',7,7',8,8'-Dodecahydro-3,3',4a,4'a,5,5'-hexamethyl-2H,2'H-9a,9'a-binaphtho(2,3-b)furan-2,2'-dione
_symmetry_cell_setting           orthorhombic
_symmetry_space_group_name_H-M   'P 21 21 21'
_symmetry_Int_Tables_number      19
_space_group_name_Hall           'P 2ac 2ab'
loop_
_symmetry_equiv_pos_site_id
_symmetry_equiv_pos_as_xyz
1 x,y,z
2 1/2-x,-y,1/2+z
3 -x,1/2+y,1/2-z
4 1/2+x,1/2-y,-z
_cell_length_a                   12.9679(9)
_cell_length_b                   13.6192(9)
_cell_length_c                   15.1702(10)
_cell_angle_alpha                90
_cell_angle_beta                 90
_cell_angle_gamma                90
_cell_volume                     2679.25
_exptl_crystal_colour            colorless
_exptl_crystal_description       block
_chemical_melting_point          167-168deg.C
_cell_formula_units_Z            4
_exptl_crystal_recrystallization_method chloroform
loop_
_atom_site_label
_atom_site_type_symbol
_atom_site_fract_x
_atom_site_fract_y
_atom_site_fract_z
O1 O 0.16191(6) 0.69820(7) 0.78232(6)
O2 O 0.34875(6) 0.89729(7) 0.76265(6)
C1 C 0.35691(11) 0.75860(11) 1.04008(9)
H1 H 0.2925 0.7903 1.0605
H2 H 0.4160 0.7994 1.0593
C2 C 0.16099(12) 0.80418(14) 0.50239(9)
H3 H 0.2249 0.7674 0.4888
H4 H 0.1592 0.8632 0.4644
O3 O 0.38926(8) 1.03917(8) 0.82872(7)
O4 O 0.11521(8) 0.56289(8) 0.70844(8)
C3 C 0.36570(13) 0.65556(12) 1.07912(9)
H5 H 0.3691 0.6600 1.1442
H6 H 0.3038 0.6169 1.0632
C4 C 0.06767(15) 0.73969(19) 0.48221(12)
H7 H 0.0719 0.6780 0.5165
H8 H 0.0667 0.7228 0.4187
C5 C 0.46145(12) 0.60424(11) 1.04473(9)
H9 H 0.4623 0.5361 1.0673
H10 H 0.5231 0.6381 1.0683
C6 C -0.03069(14) 0.7952(2) 0.50657(12)
H11 H -0.0913 0.7534 0.4939
H12 H -0.0361 0.8551 0.4698
C7 C -0.03140(11) 0.82440(12) 0.60449(10)
H13 H -0.0287 0.7619 0.6390
C8 C 0.46894(11) 0.60141(10) 0.94346(9)
H14 H 0.4106 0.5599 0.9218
C9 C 0.45527(9) 0.70553(9) 0.90152(8)
C10 C 0.06482(10) 0.88520(10) 0.63175(8)
C11 C 0.06408(9) 0.89307(9) 0.73463(8)
H15 H 0.0168 0.9462 0.7533
H16 H 0.0393 0.8307 0.7605
C12 C 0.44744(9) 0.69755(9) 0.79881(8)
H17 H 0.4707 0.7598 0.7717
H18 H 0.4931 0.6443 0.7777
C13 C 0.17022(9) 0.91428(9) 0.76639(8)
C14 C 0.33945(9) 0.67680(9) 0.77172(8)
C15 C 0.25814(9) 0.74856(9) 0.80011(8)
C16 C 0.25451(9) 0.84443(9) 0.74193(8)
C17 C 0.27027(9) 0.76845(9) 0.89629(8)
H19 H 0.2136 0.7961 0.9273
C18 C 0.24713(10) 0.82046(9) 0.64623(8)
H20 H 0.3059 0.7931 0.6180
C19 C 0.16230(10) 0.83530(10) 0.59792(9)
C20 C 0.35639(10) 0.74951(9) 0.94100(8)
C21 C 0.29586(10) 0.59897(10) 0.73416(9)
C22 C 0.21056(10) 0.99477(10) 0.80301(9)
C23 C 0.32354(10) 0.98394(10) 0.80254(9)
C24 C 0.18316(10) 0.61316(10) 0.73692(9)
C25 C 0.34225(11) 0.50763(12) 0.69653(12)
H21 H 0.4176 0.5114 0.7006
H22 H 0.3219 0.5011 0.6346
H23 H 0.3177 0.4505 0.7297
C26 C 0.15916(12) 1.08713(12) 0.83378(13)
H24 H 0.0842 1.0799 0.8289
H25 H 0.1820 1.1423 0.7972
H26 H 0.1777 1.0996 0.8954
C27 C 0.54675(10) 0.77378(11) 0.92148(9)
H27 H 0.5545 0.7808 0.9854
H28 H 0.5341 0.8384 0.8951
H29 H 0.6100 0.7457 0.8966
C28 C 0.06371(12) 0.99034(12) 0.59357(11)
H30 H 0.0643 0.9871 0.5290
H31 H 0.1248 1.0260 0.6141
H32 H 0.0014 1.0245 0.6134
C29 C 0.56856(14) 0.54959(13) 0.91717(11)
H33 H 0.5716 0.4851 0.9457
H34 H 0.6278 0.5892 0.9358
H35 H 0.5703 0.5412 0.8530
C30 C -0.13316(12) 0.87434(15) 0.62818(12)
H36 H -0.1908 0.8326 0.6096
H37 H -0.1375 0.9378 0.5980
H38 H -0.1364 0.8846 0.6921
loop_
_geom_bond_atom_site_label_1
_geom_bond_atom_site_label_2
_geom_bond_site_symmetry_1
_geom_bond_site_symmetry_2
O1 C15 1_555 1_555
O2 C16 1_555 1_555
C1 H1 1_555 1_555
H2 C1 1_555 1_555
C2 H3 1_555 1_555
H4 C2 1_555 1_555
O3 C23 1_555 1_555
O4 C24 1_555 1_555
C3 C1 1_555 1_555
H5 C3 1_555 1_555
H6 C3 1_555 1_555
C4 C2 1_555 1_555
H7 C4 1_555 1_555
H8 C4 1_555 1_555
C5 C3 1_555 1_555
H9 C5 1_555 1_555
H10 C5 1_555 1_555
C6 C4 1_555 1_555
H11 C6 1_555 1_555
H12 C6 1_555 1_555
C7 C6 1_555 1_555
H13 C7 1_555 1_555
C8 C5 1_555 1_555
H14 C8 1_555 1_555
C9 C8 1_555 1_555
C10 C7 1_555 1_555
C11 C10 1_555 1_555
H15 C11 1_555 1_555
H16 C11 1_555 1_555
C12 C9 1_555 1_555
H17 C12 1_555 1_555
H18 C12 1_555 1_555
C13 C11 1_555 1_555
C14 C12 1_555 1_555
C15 C14 1_555 1_555
C16 C13 1_555 1_555
C17 C15 1_555 1_555
H19 C17 1_555 1_555
C18 C16 1_555 1_555
H20 C18 1_555 1_555
C19 C2 1_555 1_555
C20 C1 1_555 1_555
C21 C14 1_555 1_555
C22 C13 1_555 1_555
C23 O2 1_555 1_555
C24 O1 1_555 1_555
C25 C21 1_555 1_555
H21 C25 1_555 1_555
H22 C25 1_555 1_555
H23 C25 1_555 1_555
C26 C22 1_555 1_555
H24 C26 1_555 1_555
H25 C26 1_555 1_555
H26 C26 1_555 1_555
C27 C9 1_555 1_555
H27 C27 1_555 1_555
H28 C27 1_555 1_555
H29 C27 1_555 1_555
C28 C10 1_555 1_555
H30 C28 1_555 1_555
H31 C28 1_555 1_555
H32 C28 1_555 1_555
C29 C8 1_555 1_555
H33 C29 1_555 1_555
H34 C29 1_555 1_555
H35 C29 1_555 1_555
C30 C7 1_555 1_555
H36 C30 1_555 1_555
H37 C30 1_555 1_555
H38 C30 1_555 1_555
C9 C20 1_555 1_555
C10 C19 1_555 1_555
C15 C16 1_555 1_555
C17 C20 1_555 1_555
C18 C19 1_555 1_555
C21 C24 1_555 1_555
C22 C23 1_555 1_555

#END
