
#######################################################################
#
#                 Cambridge Crystallographic Data Centre
#                                CCDC 
#
#######################################################################
#
# If this CIF has been generated from an entry in the Cambridge 
# Structural Database, then it will include bibliographic, chemical, 
# crystal, experimental, refinement or atomic coordinate data resulting 
# from the CCDC's data processing and validation procedures.
#
#######################################################################

data_HALSIY
_chemical_formula_moiety         'C9 H11 Cl1 O1 S2'
_chemical_name_systematic        3-((4-Chlorophenyl)disulfanyl)propan-1-ol
_symmetry_cell_setting           orthorhombic
_symmetry_space_group_name_H-M   'P c a 21'
_symmetry_Int_Tables_number      29
_space_group_name_Hall           'P 2c -2ac'
loop_
_symmetry_equiv_pos_site_id
_symmetry_equiv_pos_as_xyz
1 x,y,z
2 -x,-y,1/2+z
3 1/2+x,-y,z
4 1/2-x,y,1/2+z
_cell_length_a                   5.5978(3)
_cell_length_b                   7.4846(4)
_cell_length_c                   24.2508(11)
_cell_angle_alpha                90
_cell_angle_beta                 90
_cell_angle_gamma                90
_cell_volume                     1016.04
_exptl_crystal_colour            colorless
_exptl_crystal_description       parallelepiped
_cell_formula_units_Z            4
loop_
_atom_site_label
_atom_site_type_symbol
_atom_site_fract_x
_atom_site_fract_y
_atom_site_fract_z
Cl1 Cl 0.03214(11) 0.67837(10) 0.37642(2)
S1 S -0.57252(10) 0.83650(9) 0.58881(3)
S2 S -0.46674(10) 0.66953(10) 0.64980(2)
O1 O -0.0320(3) 0.9389(3) 0.79163(8)
C1 C -0.1721(4) 0.6964(3) 0.53446(11)
H1 H -0.1103 0.6602 0.5692
C2 C -0.0447(4) 0.6634(3) 0.48655(11)
H2 H 0.1040 0.6025 0.4883
C3 C -0.1334(4) 0.7189(4) 0.43636(12)
C4 C -0.3524(4) 0.8054(4) 0.43230(12)
H3 H -0.4131 0.8420 0.3975
C5 C -0.4801(4) 0.8369(3) 0.48027(11)
H4 H -0.6300 0.8960 0.4783
C6 C -0.3923(4) 0.7834(3) 0.53120(11)
C7 C -0.2272(4) 0.7867(3) 0.68643(12)
H5 H -0.0779 0.7838 0.6646
H6 H -0.2720 0.9129 0.6928
C8 C -0.1925(4) 0.6903(3) 0.74110(11)
H7 H -0.3394 0.7034 0.7635
H8 H -0.1689 0.5613 0.7338
C9 C 0.0181(4) 0.7597(4) 0.77390(11)
H9 H 0.0462 0.6823 0.8064
H10 H 0.1638 0.7584 0.7508
H11 H 0.075(4) 0.983(4) 0.7984(12)
loop_
_geom_bond_atom_site_label_1
_geom_bond_atom_site_label_2
_geom_bond_site_symmetry_1
_geom_bond_site_symmetry_2
Cl1 C3 1_555 1_555
S1 S2 1_555 1_555
S2 C7 1_555 1_555
O1 C9 1_555 1_555
C1 H1 1_555 1_555
C2 C1 1_555 1_555
H2 C2 1_555 1_555
C3 C2 1_555 1_555
C4 C3 1_555 1_555
H3 C4 1_555 1_555
C5 C4 1_555 1_555
H4 C5 1_555 1_555
C6 S1 1_555 1_555
C7 H5 1_555 1_555
H6 C7 1_555 1_555
C8 C7 1_555 1_555
H7 C8 1_555 1_555
H8 C8 1_555 1_555
C9 C8 1_555 1_555
H9 C9 1_555 1_555
H10 C9 1_555 1_555
H11 O1 1_555 1_555
C1 C6 1_555 1_555
C5 C6 1_555 1_555

#END
