
#######################################################################
#
#                 Cambridge Crystallographic Data Centre
#                                CCDC 
#
#######################################################################
#
# If this CIF has been generated from an entry in the Cambridge 
# Structural Database, then it will include bibliographic, chemical, 
# crystal, experimental, refinement or atomic coordinate data resulting 
# from the CCDC's data processing and validation procedures.
#
#######################################################################

data_HALSUK
_chemical_formula_moiety         'C19 H24 Br1 N1 O5'
_chemical_name_systematic        
'2-t-Butyl 4-methyl 1-(4-bromobenzoyl)-4-methylpyrrolidine-2,4-dicarboxylate'
_symmetry_cell_setting           orthorhombic
_symmetry_space_group_name_H-M   'P 21 21 21'
_symmetry_Int_Tables_number      19
_space_group_name_Hall           'P 2ac 2ab'
loop_
_symmetry_equiv_pos_site_id
_symmetry_equiv_pos_as_xyz
1 x,y,z
2 1/2-x,-y,1/2+z
3 -x,1/2+y,1/2-z
4 1/2+x,1/2-y,-z
_cell_length_a                   9.816(3)
_cell_length_b                   11.121(3)
_cell_length_c                   19.271(4)
_cell_angle_alpha                90
_cell_angle_beta                 90
_cell_angle_gamma                90
_cell_volume                     2103.69
_exptl_crystal_colour            colorless
_exptl_crystal_description       block
_cell_formula_units_Z            4
loop_
_atom_site_label
_atom_site_type_symbol
_atom_site_fract_x
_atom_site_fract_y
_atom_site_fract_z
Br1 Br 0.93068(8) 0.74371(10) 0.00177(5)
N1 N 0.5526(5) 0.6844(4) 0.3047(3)
C1 C 0.4541(6) 0.6572(5) 0.3597(3)
H1 H 0.4761 0.5783 0.3794
C2 C 0.4859(6) 0.7541(6) 0.4140(3)
H2 H 0.4344 0.8269 0.4051
H3 H 0.4655 0.7258 0.4605
C3 C 0.6385(6) 0.7754(6) 0.4048(3)
C4 C 0.6508(6) 0.7762(5) 0.3260(3)
H4 H 0.6272 0.8543 0.3071
H5 H 0.7424 0.7553 0.3114
C5 C 0.5561(6) 0.6177(6) 0.2474(4)
O1 O 0.4818(5) 0.5260(4) 0.2416(2)
C6 C 0.6476(7) 0.6516(6) 0.1888(3)
C7 C 0.6615(7) 0.7715(6) 0.1673(3)
H6 H 0.6156 0.8326 0.1905
C8 C 0.7449(7) 0.7980(6) 0.1110(3)
H7 H 0.7550 0.8770 0.0960
C9 C 0.8115(7) 0.7072(8) 0.0779(3)
C10 C 0.7996(8) 0.5892(7) 0.0976(3)
H8 H 0.8460 0.5287 0.0742
C11 C 0.7171(7) 0.5634(6) 0.1531(4)
H9 H 0.7078 0.4838 0.1671
C12 C 0.3068(7) 0.6563(6) 0.3362(4)
O2 O 0.2234(5) 0.5978(4) 0.3668(3)
O3 O 0.2859(4) 0.7281(4) 0.2841(2)
C13 C 0.1551(8) 0.7284(8) 0.2461(4)
C14 C 0.0475(7) 0.7828(7) 0.2918(4)
H10 H 0.0742 0.8629 0.3046
H11 H 0.0370 0.7347 0.3328
H12 H -0.0374 0.7858 0.2671
C15 C 0.1885(8) 0.8116(8) 0.1881(4)
H13 H 0.2106 0.8894 0.2065
H14 H 0.1114 0.8182 0.1577
H15 H 0.2650 0.7807 0.1627
C16 C 0.1188(8) 0.6014(7) 0.2239(4)
H16 H 0.1898 0.5699 0.1949
H17 H 0.0347 0.6026 0.1985
H18 H 0.1089 0.5515 0.2642
C17 C 0.6885(7) 0.8950(5) 0.4371(3)
H19 H 0.7847 0.9032 0.4296
H20 H 0.6701 0.8947 0.4861
H21 H 0.6416 0.9611 0.4158
O4 O 0.6856(5) 0.6374(5) 0.4955(3)
C18 C 0.7117(8) 0.6747(7) 0.4399(4)
O5 O 0.8186(5) 0.6353(4) 0.4062(2)
C19 C 0.8951(6) 0.5381(5) 0.4364(3)
H22 H 0.9705 0.5183 0.4068
H23 H 0.8373 0.4690 0.4415
H24 H 0.9287 0.5620 0.4811
loop_
_geom_bond_atom_site_label_1
_geom_bond_atom_site_label_2
_geom_bond_site_symmetry_1
_geom_bond_site_symmetry_2
Br1 C9 1_555 1_555
N1 C1 1_555 1_555
C1 H1 1_555 1_555
C2 C1 1_555 1_555
H2 C2 1_555 1_555
H3 C2 1_555 1_555
C3 C2 1_555 1_555
C4 N1 1_555 1_555
H4 C4 1_555 1_555
H5 C4 1_555 1_555
C5 N1 1_555 1_555
O1 C5 1_555 1_555
C6 C5 1_555 1_555
C7 C6 1_555 1_555
H6 C7 1_555 1_555
C8 C7 1_555 1_555
H7 C8 1_555 1_555
C9 C8 1_555 1_555
C10 C9 1_555 1_555
H8 C10 1_555 1_555
C11 C6 1_555 1_555
H9 C11 1_555 1_555
C12 C1 1_555 1_555
O2 C12 1_555 1_555
O3 C12 1_555 1_555
C13 O3 1_555 1_555
C14 C13 1_555 1_555
H10 C14 1_555 1_555
H11 C14 1_555 1_555
H12 C14 1_555 1_555
C15 C13 1_555 1_555
H13 C15 1_555 1_555
H14 C15 1_555 1_555
H15 C15 1_555 1_555
C16 C13 1_555 1_555
H16 C16 1_555 1_555
H17 C16 1_555 1_555
H18 C16 1_555 1_555
C17 C3 1_555 1_555
H19 C17 1_555 1_555
H20 C17 1_555 1_555
H21 C17 1_555 1_555
O4 C18 1_555 1_555
C18 C3 1_555 1_555
O5 C18 1_555 1_555
C19 O5 1_555 1_555
H22 C19 1_555 1_555
H23 C19 1_555 1_555
H24 C19 1_555 1_555
C3 C4 1_555 1_555
C10 C11 1_555 1_555

#END
