
#######################################################################
#
#                 Cambridge Crystallographic Data Centre
#                                CCDC 
#
#######################################################################
#
# If this CIF has been generated from an entry in the Cambridge 
# Structural Database, then it will include bibliographic, chemical, 
# crystal, experimental, refinement or atomic coordinate data resulting 
# from the CCDC's data processing and validation procedures.
#
#######################################################################

data_HALTAP01
_chemical_formula_moiety         'C8 H20 N1 1+,I3 1-,2(I2)'
_chemical_name_systematic        'Tetraethylammonium di-iodide tri-iodide'
_symmetry_cell_setting           orthorhombic
_symmetry_space_group_name_H-M   'C m c a'
_symmetry_Int_Tables_number      64
_space_group_name_Hall           '-C 2ac 2'
loop_
_symmetry_equiv_pos_site_id
_symmetry_equiv_pos_as_xyz
1 x,y,z
2 -x,1/2-y,1/2+z
3 -x,1/2+y,1/2-z
4 x,-y,-z
5 1/2+x,1/2+y,z
6 1/2-x,-y,1/2+z
7 1/2-x,y,1/2-z
8 1/2+x,1/2-y,-z
9 -x,-y,-z
10 x,1/2+y,1/2-z
11 x,1/2-y,1/2+z
12 -x,y,z
13 1/2-x,1/2-y,-z
14 1/2+x,y,1/2-z
15 1/2+x,-y,1/2+z
16 1/2-x,1/2+y,z
_cell_length_a                   12.3340(12)
_cell_length_b                   15.6188(16)
_cell_length_c                   11.4945(10)
_cell_angle_alpha                90
_cell_angle_beta                 90
_cell_angle_gamma                90
_cell_volume                     2214.33
_exptl_crystal_colour            black
_exptl_crystal_description       block
_cell_formula_units_Z            4
loop_
_atom_site_label
_atom_site_type_symbol
_atom_site_fract_x
_atom_site_fract_y
_atom_site_fract_z
I3 I 0.31979(5) 0.30669(4) 0.34211(5)
I3F I 0.18021(5) 0.30669(4) 0.15789(5)
N1 N 0.5000 0.0000 0.5000
C1 C 0.4246(11) 0.0708(8) 0.4642(13)
H1 H 0.4674 0.1145 0.4277
H2 H 0.3922 0.0955 0.5324
C2 C 0.3334(12) 0.0454(16) 0.3806(17)
H3 H 0.2903 0.0946 0.3614
H4 H 0.3647 0.0221 0.3109
H5 H 0.2885 0.0029 0.4169
C3 C 0.5578(12) -0.0309(9) 0.3953(11)
H6 H 0.5000 -0.0495 0.3393
H7 H 0.6004 -0.0798 0.4168
C4 C 0.6351(15) 0.0370(13) 0.3392(14)
H8 H 0.6694 0.0118 0.2725
H9 H 0.5930 0.0856 0.3153
H10 H 0.6895 0.0549 0.3937
C1C C 0.4246(11) -0.0708(8) 0.5358(13)
H1C H 0.4674 -0.1145 0.5723
H2C H 0.3922 -0.0955 0.4676
C2C C 0.3334(12) -0.0454(16) 0.6194(17)
H3C H 0.2903 -0.0946 0.6386
H4C H 0.3647 -0.0221 0.6891
H5C H 0.2885 -0.0029 0.5831
C3C C 0.5578(12) 0.0309(9) 0.6047(11)
H6C H 0.5000 0.0495 0.6607
H7C H 0.6004 0.0798 0.5832
C4C C 0.6351(15) -0.0370(13) 0.6608(14)
H8C H 0.6694 -0.0118 0.7275
H9C H 0.5930 -0.0856 0.6847
H10C H 0.6895 -0.0549 0.6063
C1H C 0.5754(11) -0.0708(8) 0.5358(13)
H1H H 0.5326 -0.1145 0.5723
H2H H 0.6078 -0.0955 0.4676
C2H C 0.6666(12) -0.0454(16) 0.6194(17)
H3H H 0.7097 -0.0946 0.6386
H4H H 0.6353 -0.0221 0.6891
H5H H 0.7115 -0.0029 0.5831
C3H C 0.4422(12) 0.0309(9) 0.6047(11)
H7H H 0.3996 0.0798 0.5832
C4H C 0.3649(15) -0.0370(13) 0.6608(14)
H8H H 0.3306 -0.0118 0.7275
H9H H 0.4070 -0.0856 0.6847
H10H H 0.3105 -0.0549 0.6063
C1K C 0.5754(11) 0.0708(8) 0.4642(13)
H1K H 0.5326 0.1145 0.4277
H2K H 0.6078 0.0955 0.5324
C2K C 0.6666(12) 0.0454(16) 0.3806(17)
H3K H 0.7097 0.0946 0.3614
H4K H 0.6353 0.0221 0.3109
H5K H 0.7115 0.0029 0.4169
C3K C 0.4422(12) -0.0309(9) 0.3953(11)
H7K H 0.3996 -0.0798 0.4168
C4K C 0.3649(15) 0.0370(13) 0.3392(14)
H8K H 0.3306 0.0118 0.2725
H9K H 0.4070 0.0856 0.3153
H10K H 0.3105 0.0549 0.3937
I1 I 0.5000 0.5000 0.5000
I2 I 0.5000 0.32144(5) 0.57441(8)
I2C I 0.5000 0.67856(5) 0.42559(8)
loop_
_geom_bond_atom_site_label_1
_geom_bond_atom_site_label_2
_geom_bond_site_symmetry_1
_geom_bond_site_symmetry_2
I1 I2 1_555 1_555
I3 I3F 1_555 1_555
N1 C1 1_555 1_555
C1 H1 1_555 1_555
H2 C1 1_555 1_555
C2 C1 1_555 1_555
H3 C2 1_555 1_555
H4 C2 1_555 1_555
H5 C2 1_555 1_555
C3 N1 1_555 1_555
H6 C3 1_555 1_555
H7 C3 1_555 1_555
C4 C3 1_555 1_555
H8 C4 1_555 1_555
H9 C4 1_555 1_555
H10 C4 1_555 1_555
I2C I1 1_555 1_555
C1C N1 1_555 1_555
H1C C1C 1_555 1_555
H2C C1C 1_555 1_555
C2C C1C 1_555 1_555
H3C C2C 1_555 1_555
H4C C2C 1_555 1_555
H5C C2C 1_555 1_555
C3C N1 1_555 1_555
H6C C3C 1_555 1_555
H7C C3C 1_555 1_555
C4C C3C 1_555 1_555
H8C C4C 1_555 1_555
H9C C4C 1_555 1_555
H10C C4C 1_555 1_555
C1H N1 1_555 1_555
H1H C1H 1_555 1_555
H2H C1H 1_555 1_555
C2H C3C 1_555 1_555
H3H C4C 1_555 1_555
H4H C2H 1_555 1_555
H5H C2H 1_555 1_555
C3H N1 1_555 1_555
H7H C3H 1_555 1_555
C4H C1C 1_555 1_555
H8H C2C 1_555 1_555
H9H C2C 1_555 1_555
H10H C4H 1_555 1_555
C1K N1 1_555 1_555
H1K C1K 1_555 1_555
H2K C1K 1_555 1_555
C2K C3 1_555 1_555
H3K C4 1_555 1_555
H4K C2K 1_555 1_555
H5K C2K 1_555 1_555
C3K N1 1_555 1_555
H7K C3K 1_555 1_555
C4K C1 1_555 1_555
H8K C2 1_555 1_555
H9K C2 1_555 1_555
H10K C4K 1_555 1_555
C1 C3H 1_555 1_555
C1 C3K 1_555 1_555
C2 C3K 1_555 1_555
C2 C4K 1_555 1_555
H3 C4K 1_555 1_555
C3 C1H 1_555 1_555
C3 C1K 1_555 1_555
C3 C3K 1_555 1_555
H6 C3K 1_555 1_555
C4 C1K 1_555 1_555
C4 C2K 1_555 1_555
H8 C2K 1_555 1_555
H9 C2K 1_555 1_555
C1C C3H 1_555 1_555
C1C C3K 1_555 1_555
C2C C3H 1_555 1_555
C2C C4H 1_555 1_555
H3C C4H 1_555 1_555
C3C C1H 1_555 1_555
C3C C3H 1_555 1_555
C3C C1K 1_555 1_555
H6C C3H 1_555 1_555
C4C C1H 1_555 1_555
C4C C2H 1_555 1_555
H8C C2H 1_555 1_555
H9C C2H 1_555 1_555
C1H C2H 1_555 1_555
C2H H3H 1_555 1_555
C3H C4H 1_555 1_555
C4H H8H 1_555 1_555
C4H H9H 1_555 1_555
C1K C2K 1_555 1_555
C2K H3K 1_555 1_555
C3K C4K 1_555 1_555
C4K H8K 1_555 1_555
C4K H9K 1_555 1_555

#END
