
#######################################################################
#
#                 Cambridge Crystallographic Data Centre
#                                CCDC 
#
#######################################################################
#
# If this CIF has been generated from an entry in the Cambridge 
# Structural Database, then it will include bibliographic, chemical, 
# crystal, experimental, refinement or atomic coordinate data resulting 
# from the CCDC's data processing and validation procedures.
#
#######################################################################

data_HALXID
_chemical_formula_moiety         'C82 H45 N5 O5,3(C1 H1 Cl3)'
_chemical_name_systematic        
'hydroxy-tris(pyrrolidin-1-yl)-bis(piperidin-1-yl)-epoxy-trioxa-homo-C60fullerene chloroform solvate'
_symmetry_cell_setting           triclinic
_symmetry_space_group_name_H-M   'P -1'
_symmetry_Int_Tables_number      2
_space_group_name_Hall           '-P 1'
loop_
_symmetry_equiv_pos_site_id
_symmetry_equiv_pos_as_xyz
1 x,y,z
2 -x,-y,-z
_cell_length_a                   14.322(3)
_cell_length_b                   14.915(3)
_cell_length_c                   16.408(3)
_cell_angle_alpha                101.97(3)
_cell_angle_beta                 103.21(3)
_cell_angle_gamma                102.69(3)
_cell_volume                     3204.08
_exptl_crystal_colour            red
_exptl_crystal_description       block
_cell_formula_units_Z            2
loop_
_atom_site_label
_atom_site_type_symbol
_atom_site_fract_x
_atom_site_fract_y
_atom_site_fract_z
Cl1 Cl 0.12730(17) 0.85168(15) 0.52121(17)
Cl2 Cl 0.04481(14) 0.64621(14) 0.47665(12)
Cl3 Cl 0.24595(14) 0.72891(13) 0.47987(14)
C83 C 0.1503(5) 0.7424(4) 0.5254(5)
H46 H 0.1733 0.7439 0.5869
Cl4 Cl 0.61287(19) 0.1030(2) 0.30263(18)
Cl5 Cl 0.53960(17) 0.01862(14) 0.11752(19)
Cl6 Cl 0.74663(13) 0.12040(14) 0.19971(15)
C84 C 0.6240(4) 0.1124(5) 0.2005(4)
H47 H 0.6098 0.1718 0.1923
Cl7 Cl 0.94987(14) 0.95103(12) 0.37507(11)
Cl8 Cl 0.84583(16) 0.75379(12) 0.34907(13)
Cl9 Cl 0.77409(15) 0.90220(14) 0.43173(12)
C85 C 0.8818(5) 0.8710(4) 0.4177(4)
H48 H 0.9237 0.8723 0.4744
O1 O 0.4114(2) 0.5764(2) 0.2382(2)
O2 O 0.5311(2) 0.4970(2) 0.3566(2)
O3 O 0.1969(2) 0.2852(2) -0.0612(2)
O4 O 0.2747(2) 0.5013(2) 0.0583(2)
O5 O 0.5167(2) 0.2377(3) 0.0959(2)
H1 H 0.4964 0.2191 0.0426
N1 N 0.0283(3) 0.2780(3) -0.0994(3)
N2 N 0.3514(3) 0.2549(3) -0.0615(3)
N3 N 0.6221(3) 0.4282(3) 0.2704(3)
N4 N 0.3790(3) 0.6906(3) 0.3402(3)
N5 N -0.1242(3) 0.2687(3) 0.0105(3)
C1 C 0.1310(4) 0.1275(4) 0.3468(3)
C2 C 0.1070(4) 0.2119(4) 0.3870(3)
C3 C 0.0212(4) 0.2238(4) 0.3256(3)
C4 C -0.0060(4) 0.1435(4) 0.2474(3)
C5 C 0.0607(4) 0.0858(4) 0.2607(3)
C6 C 0.0932(4) 0.0454(3) 0.1925(3)
C7 C 0.1960(4) 0.0434(3) 0.2062(3)
C8 C 0.2635(4) 0.0848(4) 0.2886(3)
C9 C 0.2298(4) 0.1280(4) 0.3591(3)
C10 C 0.3098(4) 0.2126(4) 0.4100(3)
C11 C 0.2872(4) 0.2923(4) 0.4489(3)
C12 C 0.1837(4) 0.2928(4) 0.4383(3)
C13 C 0.1778(4) 0.3866(4) 0.4331(3)
C14 C 0.0962(4) 0.3972(4) 0.3738(3)
C15 C 0.0185(4) 0.3126(4) 0.3184(3)
C16 C -0.0123(4) 0.3295(4) 0.2342(3)
C17 C -0.0422(4) 0.2550(4) 0.1599(3)
C18 C -0.0347(4) 0.1637(4) 0.1658(3)
C19 C -0.0016(4) 0.1210(3) 0.0959(3)
C20 C 0.0605(4) 0.0641(4) 0.1070(3)
C21 C 0.1412(4) 0.0736(3) 0.0705(3)
C22 C 0.2242(4) 0.0573(3) 0.1293(3)
C23 C 0.3199(4) 0.1101(4) 0.1383(3)
C24 C 0.3908(4) 0.1545(3) 0.2241(3)
C25 C 0.3626(4) 0.1424(4) 0.2972(3)
C26 C 0.3896(4) 0.2227(4) 0.3709(3)
C27 C 0.4456(4) 0.3139(4) 0.3697(3)
C28 C 0.4230(4) 0.3978(4) 0.4135(3)
C29 C 0.3419(4) 0.3846(4) 0.4514(3)
C30 C 0.2769(4) 0.4447(4) 0.4438(3)
C31 C 0.2924(4) 0.5112(3) 0.3979(3)
C32 C 0.2085(4) 0.5217(4) 0.3353(3)
C33 C 0.1147(4) 0.4648(3) 0.3240(3)
C34 C 0.0494(4) 0.4231(3) 0.2379(3)
C35 C 0.0865(4) 0.4342(3) 0.1688(3)
C36 C 0.0536(4) 0.3597(4) 0.0880(3)
C37 C -0.0308(4) 0.2688(4) 0.0707(3)
C38 C 0.0099(4) 0.1843(4) 0.0415(3)
C39 C 0.0863(4) 0.1920(4) 0.0029(3)
C40 C 0.1578(4) 0.1400(4) 0.0218(3)
C41 C 0.2588(4) 0.1839(3) 0.0256(3)
C42 C 0.3381(4) 0.1688(3) 0.0831(3)
C43 C 0.4369(4) 0.2502(4) 0.1295(3)
C44 C 0.4540(4) 0.2419(4) 0.2247(3)
C45 C 0.4834(4) 0.3222(4) 0.2957(3)
C46 C 0.5255(4) 0.4194(4) 0.2826(3)
C47 C 0.4466(4) 0.4827(4) 0.3845(3)
C48 C 0.3810(4) 0.5344(4) 0.3715(3)
C49 C 0.3582(4) 0.5886(3) 0.3016(3)
C50 C 0.2448(4) 0.5411(3) 0.2640(3)
C51 C 0.1865(4) 0.4912(3) 0.1799(3)
C52 C 0.2126(4) 0.4486(3) 0.1001(3)
C53 C 0.1238(4) 0.3670(3) 0.0464(3)
C54 C 0.1123(4) 0.2800(4) -0.0298(3)
C55 C 0.2840(4) 0.2697(3) -0.0106(3)
C56 C 0.3409(4) 0.3549(4) 0.0681(3)
C57 C 0.3178(3) 0.4420(3) 0.1050(3)
C58 C 0.3988(4) 0.4865(3) 0.1902(3)
C59 C 0.4513(4) 0.4255(3) 0.2043(3)
C60 C 0.4141(4) 0.3421(3) 0.1279(3)
C61 C 0.0002(4) 0.1952(3) -0.1769(3)
H2 H -0.0288 0.1360 -0.1649
H3 H 0.0569 0.1895 -0.1984
C62 C -0.0764(4) 0.2232(4) -0.2395(4)
H4 H -0.0861 0.1887 -0.2992
H5 H -0.1401 0.2111 -0.2266
C63 C -0.0307(5) 0.3281(4) -0.2240(4)
H6 H -0.0822 0.3600 -0.2372
H7 H 0.0133 0.3390 -0.2602
C64 C 0.0286(4) 0.3656(4) -0.1272(3)
H8 H 0.0962 0.4027 -0.1195
H9 H -0.0038 0.4047 -0.0948
C65 C 0.3131(4) 0.1710(4) -0.1376(3)
H10 H 0.2481 0.1692 -0.1730
H11 H 0.3081 0.1123 -0.1202
C66 C 0.3910(5) 0.1863(4) -0.1858(4)
H12 H 0.4430 0.1567 -0.1666
H13 H 0.3610 0.1594 -0.2479
C67 C 0.4328(6) 0.2921(5) -0.1641(5)
H14 H 0.4154 0.3143 -0.2156
H15 H 0.5050 0.3101 -0.1415
C68 C 0.3873(4) 0.3350(4) -0.0960(4)
H16 H 0.4370 0.3872 -0.0506
H17 H 0.3326 0.3582 -0.1219
C69 C 0.6629(4) 0.5161(4) 0.2478(4)
H18 H 0.6811 0.5704 0.2982
H19 H 0.6124 0.5253 0.2022
C70 C 0.7532(4) 0.5105(4) 0.2174(4)
H20 H 0.7805 0.5698 0.2047
H21 H 0.7339 0.4593 0.1642
C71 C 0.8316(4) 0.4927(4) 0.2854(4)
H22 H 0.8572 0.5476 0.3360
H23 H 0.8868 0.4837 0.2627
C72 C 0.7874(4) 0.4040(4) 0.3118(4)
H24 H 0.7702 0.3479 0.2632
H25 H 0.8369 0.3966 0.3594
C73 C 0.6959(4) 0.4115(4) 0.3394(4)
H26 H 0.6669 0.3529 0.3526
H27 H 0.7142 0.4636 0.3918
C74 C 0.3479(4) 0.7424(3) 0.2757(3)
H28 H 0.2792 0.7109 0.2414
H29 H 0.3896 0.7418 0.2366
C75 C 0.3575(4) 0.8449(4) 0.3219(4)
H30 H 0.3133 0.8456 0.3587
H31 H 0.3382 0.8789 0.2794
C76 C 0.4671(4) 0.8952(4) 0.3782(4)
H32 H 0.5109 0.8997 0.3411
H33 H 0.4725 0.9593 0.4106
C77 C 0.4973(4) 0.8371(3) 0.4405(3)
H34 H 0.5663 0.8669 0.4750
H35 H 0.4561 0.8370 0.4799
C78 C 0.4860(4) 0.7349(3) 0.3925(3)
H36 H 0.5289 0.7340 0.3545
H37 H 0.5050 0.6993 0.4337
C79 C -0.2009(4) 0.1753(4) -0.0222(4)
H38 H -0.2007 0.1422 0.0228
H39 H -0.1902 0.1353 -0.0719
C80 C -0.2984(5) 0.2014(5) -0.0480(5)
H40 H -0.3235 0.1859 -0.1108
H41 H -0.3482 0.1658 -0.0265
C81 C -0.2786(5) 0.3021(5) -0.0107(6)
H42 H -0.3220 0.3133 0.0255
H43 H -0.2914 0.3337 -0.0564
C82 C -0.1709(4) 0.3413(4) 0.0431(4)
H44 H -0.1407 0.4023 0.0346
H45 H -0.1648 0.3493 0.1045
loop_
_geom_bond_atom_site_label_1
_geom_bond_atom_site_label_2
_geom_bond_site_symmetry_1
_geom_bond_site_symmetry_2
Cl1 C83 1_555 1_555
Cl2 C83 1_555 1_555
Cl3 C83 1_555 1_555
Cl4 C84 1_555 1_555
Cl5 C84 1_555 1_555
Cl6 C84 1_555 1_555
Cl7 C85 1_555 1_555
Cl8 C85 1_555 1_555
Cl9 C85 1_555 1_555
O1 C49 1_555 1_555
O2 C46 1_555 1_555
O3 C54 1_555 1_555
O4 C52 1_555 1_555
O5 H1 1_555 1_555
N1 C54 1_555 1_555
N2 C55 1_555 1_555
N3 C46 1_555 1_555
N4 C49 1_555 1_555
N5 C37 1_555 1_555
C1 C2 1_555 1_555
C2 C3 1_555 1_555
C3 C4 1_555 1_555
C4 C5 1_555 1_555
C5 C1 1_555 1_555
C6 C5 1_555 1_555
C7 C6 1_555 1_555
C8 C7 1_555 1_555
C9 C1 1_555 1_555
C10 C9 1_555 1_555
C11 C10 1_555 1_555
C12 C2 1_555 1_555
C13 C12 1_555 1_555
C14 C13 1_555 1_555
C15 C3 1_555 1_555
C16 C15 1_555 1_555
C17 C16 1_555 1_555
C18 C4 1_555 1_555
C19 C18 1_555 1_555
C20 C6 1_555 1_555
C21 C20 1_555 1_555
C22 C7 1_555 1_555
C23 C22 1_555 1_555
C24 C23 1_555 1_555
C25 C8 1_555 1_555
C26 C10 1_555 1_555
C27 C26 1_555 1_555
C28 C27 1_555 1_555
C29 C11 1_555 1_555
C30 C13 1_555 1_555
C31 C30 1_555 1_555
C32 C31 1_555 1_555
C33 C14 1_555 1_555
C34 C16 1_555 1_555
C35 C34 1_555 1_555
C36 C35 1_555 1_555
C37 C17 1_555 1_555
C38 C19 1_555 1_555
C39 C38 1_555 1_555
C40 C21 1_555 1_555
C41 C40 1_555 1_555
C42 C23 1_555 1_555
C43 O5 1_555 1_555
C44 C24 1_555 1_555
C45 C27 1_555 1_555
C46 C45 1_555 1_555
C47 O2 1_555 1_555
C48 C31 1_555 1_555
C49 C48 1_555 1_555
C50 C32 1_555 1_555
C51 C35 1_555 1_555
C52 C51 1_555 1_555
C53 C36 1_555 1_555
C54 C39 1_555 1_555
C55 O3 1_555 1_555
C56 C55 1_555 1_555
C57 O4 1_555 1_555
C58 O1 1_555 1_555
C59 C46 1_555 1_555
C60 C43 1_555 1_555
C61 N1 1_555 1_555
H2 C61 1_555 1_555
H3 C61 1_555 1_555
C62 C61 1_555 1_555
H4 C62 1_555 1_555
H5 C62 1_555 1_555
C63 C62 1_555 1_555
H6 C63 1_555 1_555
H7 C63 1_555 1_555
C64 N1 1_555 1_555
H8 C64 1_555 1_555
H9 C64 1_555 1_555
C65 N2 1_555 1_555
H10 C65 1_555 1_555
H11 C65 1_555 1_555
C66 C65 1_555 1_555
H12 C66 1_555 1_555
H13 C66 1_555 1_555
C67 C66 1_555 1_555
H14 C67 1_555 1_555
H15 C67 1_555 1_555
C68 N2 1_555 1_555
H16 C68 1_555 1_555
H17 C68 1_555 1_555
C69 N3 1_555 1_555
H18 C69 1_555 1_555
H19 C69 1_555 1_555
C70 C69 1_555 1_555
H20 C70 1_555 1_555
H21 C70 1_555 1_555
C71 C70 1_555 1_555
H22 C71 1_555 1_555
H23 C71 1_555 1_555
C72 C71 1_555 1_555
H24 C72 1_555 1_555
H25 C72 1_555 1_555
C73 N3 1_555 1_555
H26 C73 1_555 1_555
H27 C73 1_555 1_555
C74 N4 1_555 1_555
H28 C74 1_555 1_555
H29 C74 1_555 1_555
C75 C74 1_555 1_555
H30 C75 1_555 1_555
H31 C75 1_555 1_555
C76 C75 1_555 1_555
H32 C76 1_555 1_555
H33 C76 1_555 1_555
C77 C76 1_555 1_555
H34 C77 1_555 1_555
H35 C77 1_555 1_555
C78 N4 1_555 1_555
H36 C78 1_555 1_555
H37 C78 1_555 1_555
C79 N5 1_555 1_555
H38 C79 1_555 1_555
H39 C79 1_555 1_555
C80 C79 1_555 1_555
H40 C80 1_555 1_555
H41 C80 1_555 1_555
C81 C80 1_555 1_555
H42 C81 1_555 1_555
H43 C81 1_555 1_555
C82 N5 1_555 1_555
H44 C82 1_555 1_555
H45 C82 1_555 1_555
C83 H46 1_555 1_555
C84 H47 1_555 1_555
C85 H48 1_555 1_555
C8 C9 1_555 1_555
C11 C12 1_555 1_555
C14 C15 1_555 1_555
C17 C18 1_555 1_555
C19 C20 1_555 1_555
C21 C22 1_555 1_555
C24 C25 1_555 1_555
C25 C26 1_555 1_555
C28 C29 1_555 1_555
C28 C47 1_555 1_555
C29 C30 1_555 1_555
C32 C33 1_555 1_555
C33 C34 1_555 1_555
C36 C37 1_555 1_555
C37 C38 1_555 1_555
C39 C40 1_555 1_555
C41 C42 1_555 1_555
C41 C55 1_555 1_555
C42 C43 1_555 1_555
C43 C44 1_555 1_555
C44 C45 1_555 1_555
C47 C48 1_555 1_555
C49 C50 1_555 1_555
C50 C51 1_555 1_555
C52 C53 1_555 1_555
C52 C57 1_555 1_555
C53 C54 1_555 1_555
C56 C57 1_555 1_555
C56 C60 1_555 1_555
C57 C58 1_555 1_555
C58 C59 1_555 1_555
C59 C60 1_555 1_555
C63 C64 1_555 1_555
C67 C68 1_555 1_555
C72 C73 1_555 1_555
C77 C78 1_555 1_555
C81 C82 1_555 1_555

#END
