
#######################################################################
#
#                 Cambridge Crystallographic Data Centre
#                                CCDC 
#
#######################################################################
#
# If this CIF has been generated from an entry in the Cambridge 
# Structural Database, then it will include bibliographic, chemical, 
# crystal, experimental, refinement or atomic coordinate data resulting 
# from the CCDC's data processing and validation procedures.
#
#######################################################################

data_HAMCOQ
_chemical_compound_source        
'hybrid soft coral Sinularia maxima  S. polydactyla'
_chemical_name_common            7E-polymaxenolide
_chemical_formula_moiety         'C38 H50 O8'
_chemical_name_systematic        
"methyl 19'-acetoxy-3,3,4',7b-tetramethyl-2',8'-dioxo-12'-(prop-1-en-2-yl)-1,1a,2,3,4,4a,6,7,7a,7b-decahydrospiro[cyclopropa[e]azulene-5,16'-[7,15]dioxatricyclo[12.3.1.1^6,9^]nonadeca[3,9,14(18)]triene]-18'-carboxylate"
_symmetry_cell_setting           monoclinic
_symmetry_space_group_name_H-M   'P 21'
_symmetry_Int_Tables_number      4
_space_group_name_Hall           'P 2yb'
loop_
_symmetry_equiv_pos_site_id
_symmetry_equiv_pos_as_xyz
1 x,y,z
2 -x,1/2+y,-z
_cell_length_a                   10.7005(10)
_cell_length_b                   11.2900(10)
_cell_length_c                   14.4580(15)
_cell_angle_alpha                90
_cell_angle_beta                 103.712(5)
_cell_angle_gamma                90
_cell_volume                     1696.87
_exptl_crystal_colour            colorless
_exptl_crystal_description       prism
_chemical_melting_point          '120-127 deg.C'
_cell_formula_units_Z            2
loop_
_atom_site_label
_atom_site_type_symbol
_atom_site_fract_x
_atom_site_fract_y
_atom_site_fract_z
O1 O 0.88741(11) 0.49519(10) 0.67951(8)
O2 O 0.42799(13) 0.41143(13) 0.47678(9)
O3 O 0.48622(13) 0.84879(13) 0.79660(10)
O4 O 0.67306(17) 0.94611(15) 0.81862(13)
O5 O 0.61860(12) 0.58483(12) 0.38307(9)
O6 O 0.76147(13) 0.72676(12) 0.44302(9)
O7 O 0.56243(12) 0.61535(14) 0.89956(9)
O8 O 0.49485(15) 0.43185(15) 0.84800(11)
C1 C 0.89427(17) 0.78920(16) 0.66438(12)
H1 H 0.8069 0.8111 0.6257
C2 C 0.93833(16) 0.67632(16) 0.62033(12)
H2 H 0.9536 0.6973 0.5574
H3 H 1.0217 0.6507 0.6613
C3 C 0.84733(16) 0.57293(15) 0.60724(12)
C4 C 0.74041(16) 0.55469(16) 0.53645(12)
C5 C 0.65194(17) 0.45043(17) 0.53870(12)
H4 H 0.6652 0.3905 0.4910
C6 C 0.50799(18) 0.48231(18) 0.51748(12)
C7 C 0.47812(16) 0.59659(17) 0.55769(12)
H5 H 0.5238 0.6643 0.5447
C8 C 0.39231(16) 0.61310(17) 0.61083(12)
C9 C 0.39063(17) 0.73219(18) 0.65745(12)
H6 H 0.3014 0.7628 0.6416
H7 H 0.4440 0.7879 0.6304
C10 C 0.44021(18) 0.73051(18) 0.76638(13)
H8 H 0.3692 0.7076 0.7970
C11 C 0.55640(17) 0.65020(18) 0.80171(13)
H9 H 0.5544 0.5798 0.7594
C12 C 0.66464(18) 0.73159(18) 0.79768(12)
C13 C 0.77828(18) 0.69849(18) 0.78299(12)
H10 H 0.7923 0.6156 0.7808
C14 C 0.88576(18) 0.77564(19) 0.76959(13)
H11 H 0.9679 0.7424 0.8069
H12 H 0.8753 0.8552 0.7956
C15 C 0.98727(18) 0.88776(16) 0.65360(13)
C16 C 1.10130(19) 0.90263(18) 0.71286(15)
H13 H 1.1578 0.9624 0.7008
H14 H 1.1265 0.8535 0.7674
C17 C 0.9425(2) 0.96248(17) 0.56664(14)
H15 H 1.0106 1.0182 0.5612
H16 H 0.8655 1.0066 0.5716
H17 H 0.9220 0.9116 0.5102
C18 C 0.71173(16) 0.63317(16) 0.45283(12)
C19 C 0.30324(19) 0.52173(19) 0.63376(15)
H18 H 0.3157 0.4467 0.6030
H19 H 0.2141 0.5482 0.6104
H20 H 0.3215 0.5103 0.7029
C20 C 0.6163(2) 0.8537(2) 0.80505(14)
C21 C 0.5829(2) 0.6527(2) 0.29592(14)
H21 H 0.6558 0.6558 0.2657
H22 H 0.5595 0.7333 0.3104
H23 H 0.5094 0.6150 0.2525
C22 C 0.52592(18) 0.5015(2) 0.91188(15)
C23 C 0.5316(2) 0.4763(2) 1.01450(15)
H24 H 0.6200 0.4559 1.0474
H25 H 0.4745 0.4098 1.0191
H26 H 0.5041 0.5466 1.0441
C24 C 0.99199(17) 0.24865(17) 0.77403(13)
H27 H 0.9604 0.1652 0.7725
C25 C 1.10101(19) 0.26173(18) 0.86237(14)
C26 C 1.1669(2) 0.1513(2) 0.90807(16)
H28 H 1.2596 0.1565 0.9395
H29 H 1.1393 0.0745 0.8767
C27 C 1.0733(2) 0.21585(19) 0.95366(14)
H30 H 1.1148 0.2625 1.0116
C28 C 0.9449(2) 0.16331(18) 0.95643(14)
H31 H 0.9514 0.1303 1.0208
H32 H 0.9275 0.0964 0.9109
C29 C 0.82762(19) 0.24807(17) 0.93303(13)
C30 C 0.77953(18) 0.27113(17) 0.82469(12)
H33 H 0.7543 0.1945 0.7924
H34 H 0.7016 0.3213 0.8141
C31 C 0.87728(17) 0.33097(16) 0.77830(12)
H35 H 0.9131 0.4005 0.8188
C32 C 0.82718(16) 0.37719(15) 0.67501(12)
C33 C 0.89128(17) 0.29902(16) 0.61338(13)
H36 H 0.8422 0.2249 0.5952
H37 H 0.8990 0.3412 0.5550
C34 C 1.02338(18) 0.27361(17) 0.67799(13)
H38 H 1.0812 0.3428 0.6819
H39 H 1.0640 0.2041 0.6553
C35 C 1.1811(2) 0.3727(2) 0.86827(16)
H40 H 1.2387 0.3658 0.8250
H41 H 1.2323 0.3830 0.9336
H42 H 1.1245 0.4412 0.8501
C36 C 0.8610(2) 0.36577(18) 0.98612(13)
H43 H 0.8798 0.3516 1.0549
H44 H 0.7880 0.4203 0.9680
H45 H 0.9366 0.4007 0.9694
C37 C 0.7174(2) 0.1886(2) 0.96580(15)
H46 H 0.6410 0.2393 0.9500
H47 H 0.7425 0.1761 1.0348
H48 H 0.6979 0.1120 0.9336
C38 C 0.68322(16) 0.39248(16) 0.63775(12)
H49 H 0.6492 0.4425 0.6824
H50 H 0.6407 0.3142 0.6340
loop_
_geom_bond_atom_site_label_1
_geom_bond_atom_site_label_2
_geom_bond_site_symmetry_1
_geom_bond_site_symmetry_2
O1 C3 1_555 1_555
O2 C6 1_555 1_555
O3 C10 1_555 1_555
O4 C20 1_555 1_555
O5 C18 1_555 1_555
O6 C18 1_555 1_555
O7 C11 1_555 1_555
O8 C22 1_555 1_555
C1 H1 1_555 1_555
C2 C1 1_555 1_555
H2 C2 1_555 1_555
H3 C2 1_555 1_555
C3 C2 1_555 1_555
C4 C3 1_555 1_555
C5 C4 1_555 1_555
H4 C5 1_555 1_555
C6 C5 1_555 1_555
C7 C6 1_555 1_555
H5 C7 1_555 1_555
C8 C7 1_555 1_555
C9 C8 1_555 1_555
H6 C9 1_555 1_555
H7 C9 1_555 1_555
C10 C9 1_555 1_555
H8 C10 1_555 1_555
C11 C10 1_555 1_555
H9 C11 1_555 1_555
C12 C11 1_555 1_555
C13 C12 1_555 1_555
H10 C13 1_555 1_555
C14 C1 1_555 1_555
H11 C14 1_555 1_555
H12 C14 1_555 1_555
C15 C1 1_555 1_555
C16 C15 1_555 1_555
H13 C16 1_555 1_555
H14 C16 1_555 1_555
C17 C15 1_555 1_555
H15 C17 1_555 1_555
H16 C17 1_555 1_555
H17 C17 1_555 1_555
C18 C4 1_555 1_555
C19 C8 1_555 1_555
H18 C19 1_555 1_555
H19 C19 1_555 1_555
H20 C19 1_555 1_555
C20 O3 1_555 1_555
C21 O5 1_555 1_555
H21 C21 1_555 1_555
H22 C21 1_555 1_555
H23 C21 1_555 1_555
C22 O7 1_555 1_555
C23 C22 1_555 1_555
H24 C23 1_555 1_555
H25 C23 1_555 1_555
H26 C23 1_555 1_555
C24 H27 1_555 1_555
C25 C24 1_555 1_555
C26 C25 1_555 1_555
H28 C26 1_555 1_555
H29 C26 1_555 1_555
C27 C25 1_555 1_555
H30 C27 1_555 1_555
C28 C27 1_555 1_555
H31 C28 1_555 1_555
H32 C28 1_555 1_555
C29 C28 1_555 1_555
C30 C29 1_555 1_555
H33 C30 1_555 1_555
H34 C30 1_555 1_555
C31 C24 1_555 1_555
H35 C31 1_555 1_555
C32 O1 1_555 1_555
C33 C32 1_555 1_555
H36 C33 1_555 1_555
H37 C33 1_555 1_555
C34 C24 1_555 1_555
H38 C34 1_555 1_555
H39 C34 1_555 1_555
C35 C25 1_555 1_555
H40 C35 1_555 1_555
H41 C35 1_555 1_555
H42 C35 1_555 1_555
C36 C29 1_555 1_555
H43 C36 1_555 1_555
H44 C36 1_555 1_555
H45 C36 1_555 1_555
C37 C29 1_555 1_555
H46 C37 1_555 1_555
H47 C37 1_555 1_555
H48 C37 1_555 1_555
C38 C5 1_555 1_555
H49 C38 1_555 1_555
H50 C38 1_555 1_555
C12 C20 1_555 1_555
C13 C14 1_555 1_555
C26 C27 1_555 1_555
C30 C31 1_555 1_555
C31 C32 1_555 1_555
C32 C38 1_555 1_555
C33 C34 1_555 1_555

#END
