
#######################################################################
#
#                 Cambridge Crystallographic Data Centre
#                                CCDC 
#
#######################################################################
#
# If this CIF has been generated from an entry in the Cambridge 
# Structural Database, then it will include bibliographic, chemical, 
# crystal, experimental, refinement or atomic coordinate data resulting 
# from the CCDC's data processing and validation procedures.
#
#######################################################################

data_HAMGEK
_chemical_formula_moiety         'C22 H14 Br1 N3 O4,C4 H8 O2'
_chemical_name_systematic        
'(R)-3-(5-bromo-1H-indol-3-yl)-7-nitro-3-phenyl-3,4-dihydro-2H-benzo[b][1,4]oxazin-2-one ethyl acetate solvate'
_symmetry_cell_setting           monoclinic
_symmetry_space_group_name_H-M   'P 21'
_symmetry_Int_Tables_number      4
_space_group_name_Hall           'P 2yb'
loop_
_symmetry_equiv_pos_site_id
_symmetry_equiv_pos_as_xyz
1 x,y,z
2 -x,1/2+y,-z
_cell_length_a                   10.382(3)
_cell_length_b                   8.569(2)
_cell_length_c                   13.909(4)
_cell_angle_alpha                90
_cell_angle_beta                 90.205(3)
_cell_angle_gamma                90
_cell_volume                     1237.38
_exptl_crystal_colour            yellow
_exptl_crystal_description       block
_cell_formula_units_Z            2
_exptl_crystal_recrystallization_method 'ethyl acetate / petroleum ether'
loop_
_atom_site_label
_atom_site_type_symbol
_atom_site_fract_x
_atom_site_fract_y
_atom_site_fract_z
Br1 Br 0.68529(4) 0.03895(5) 0.81563(3)
O1 O 0.2354(2) 0.3417(3) 0.94374(16)
O2 O 0.1058(2) 0.3350(3) 0.81850(16)
O3 O -0.2565(3) 0.2638(5) 0.5923(2)
O4 O -0.1912(3) 0.3551(4) 0.4568(2)
N1 N 0.2930(2) 0.4819(3) 0.71796(19)
N2 N -0.1737(3) 0.3235(4) 0.5418(2)
N3 N 0.5654(3) 0.6915(4) 0.9368(2)
C1 C 0.2749(2) 0.5349(5) 0.81727(19)
C2 C 0.2080(3) 0.3972(4) 0.8664(2)
C3 C 0.0838(3) 0.3744(4) 0.7227(2)
C4 C 0.1821(3) 0.4426(4) 0.6688(2)
C5 C 0.1636(3) 0.4623(4) 0.5702(2)
H1 H 0.2295 0.5025 0.5325
C6 C 0.0466(3) 0.4218(4) 0.5283(2)
H2 H 0.0331 0.4361 0.4627
C7 C -0.0487(3) 0.3602(4) 0.5850(2)
C8 C -0.0328(3) 0.3322(4) 0.6827(2)
H3 H -0.0977 0.2871 0.7193
C9 C 0.1866(3) 0.6790(4) 0.8243(2)
C10 C 0.0918(3) 0.6920(4) 0.8935(3)
H4 H 0.0767 0.6094 0.9353
C11 C 0.0191(3) 0.8274(5) 0.9009(3)
H5 H -0.0454 0.8348 0.9469
C12 C 0.0426(4) 0.9507(4) 0.8400(3)
H6 H -0.0047 1.0423 0.8460
C13 C 0.1358(4) 0.9390(5) 0.7704(3)
H7 H 0.1505 1.0221 0.7288
C14 C 0.2080(3) 0.8032(4) 0.7619(3)
H8 H 0.2707 0.7953 0.7146
C15 C 0.4037(3) 0.5680(4) 0.8623(2)
C16 C 0.4409(3) 0.7047(4) 0.9061(2)
H9 H 0.3892 0.7925 0.9136
C17 C 0.5120(3) 0.4645(4) 0.8664(2)
C18 C 0.5343(3) 0.3118(4) 0.8356(2)
H10 H 0.4704 0.2547 0.8044
C19 C 0.6541(3) 0.2486(4) 0.8528(2)
C20 C 0.7534(3) 0.3309(5) 0.8977(3)
H11 H 0.8335 0.2842 0.9063
C21 C 0.7331(3) 0.4810(4) 0.9293(2)
H12 H 0.7982 0.5364 0.9602
C22 C 0.6124(3) 0.5479(5) 0.9137(2)
H13 H 0.607(4) 0.764(5) 0.966(3)
H14 H 0.357(4) 0.533(8) 0.687(3)
O5 O 0.4748(3) 0.5633(6) 0.5727(2)
O6 O 0.6736(3) 0.6595(4) 0.56400(19)
C23 C 0.5639(4) 0.6204(7) 0.4180(3)
H15 H 0.5074 0.5425 0.3919
H16 H 0.6498 0.6030 0.3951
H17 H 0.5352 0.7220 0.3982
C24 C 0.5630(4) 0.6108(5) 0.5256(3)
C25 C 0.6856(5) 0.6506(6) 0.6683(3)
H18 H 0.6794 0.5430 0.6894
H19 H 0.6175 0.7101 0.6987
C26 C 0.8139(4) 0.7165(6) 0.6943(3)
H20 H 0.8801 0.6611 0.6604
H21 H 0.8277 0.7060 0.7623
H22 H 0.8167 0.8249 0.6770
loop_
_geom_bond_atom_site_label_1
_geom_bond_atom_site_label_2
_geom_bond_site_symmetry_1
_geom_bond_site_symmetry_2
Br1 C19 1_555 1_555
O1 C2 1_555 1_555
O2 C2 1_555 1_555
O3 N2 1_555 1_555
O4 N2 1_555 1_555
N1 C1 1_555 1_555
N2 C7 1_555 1_555
N3 C16 1_555 1_555
C1 C2 1_555 1_555
C3 O2 1_555 1_555
C4 N1 1_555 1_555
C5 C4 1_555 1_555
H1 C5 1_555 1_555
C6 C5 1_555 1_555
H2 C6 1_555 1_555
C7 C6 1_555 1_555
C8 C3 1_555 1_555
H3 C8 1_555 1_555
C9 C1 1_555 1_555
C10 C9 1_555 1_555
H4 C10 1_555 1_555
C11 C10 1_555 1_555
H5 C11 1_555 1_555
C12 C11 1_555 1_555
H6 C12 1_555 1_555
C13 C12 1_555 1_555
H7 C13 1_555 1_555
C14 C9 1_555 1_555
H8 C14 1_555 1_555
C15 C1 1_555 1_555
C16 C15 1_555 1_555
H9 C16 1_555 1_555
C17 C15 1_555 1_555
C18 C17 1_555 1_555
H10 C18 1_555 1_555
C19 C18 1_555 1_555
C20 C19 1_555 1_555
H11 C20 1_555 1_555
C21 C20 1_555 1_555
H12 C21 1_555 1_555
C22 N3 1_555 1_555
H13 N3 1_555 1_555
H14 N1 1_555 1_555
O5 C24 1_555 1_555
O6 C24 1_555 1_555
C23 H15 1_555 1_555
H16 C23 1_555 1_555
H17 C23 1_555 1_555
C24 C23 1_555 1_555
C25 O6 1_555 1_555
H18 C25 1_555 1_555
H19 C25 1_555 1_555
C26 C25 1_555 1_555
H20 C26 1_555 1_555
H21 C26 1_555 1_555
H22 C26 1_555 1_555
C3 C4 1_555 1_555
C7 C8 1_555 1_555
C13 C14 1_555 1_555
C17 C22 1_555 1_555
C21 C22 1_555 1_555

#END
