
#######################################################################
#
#                 Cambridge Crystallographic Data Centre
#                                CCDC 
#
#######################################################################
#
# If this CIF has been generated from an entry in the Cambridge 
# Structural Database, then it will include bibliographic, chemical, 
# crystal, experimental, refinement or atomic coordinate data resulting 
# from the CCDC's data processing and validation procedures.
#
#######################################################################

data_HAMJUB
_chemical_formula_moiety         'C17 H16 O3'
_chemical_name_systematic        
3-Methoxy-1-(4'-methoxybenzylidene)-3-hydroisobenzofuran
_symmetry_cell_setting           orthorhombic
_symmetry_space_group_name_H-M   'P c a 21'
_symmetry_Int_Tables_number      29
_space_group_name_Hall           'P 2c -2ac'
loop_
_symmetry_equiv_pos_site_id
_symmetry_equiv_pos_as_xyz
1 x,y,z
2 -x,-y,1/2+z
3 1/2+x,-y,z
4 1/2-x,y,1/2+z
_cell_length_a                   20.9353(13)
_cell_length_b                   8.6773(5)
_cell_length_c                   7.7543(5)
_cell_angle_alpha                90
_cell_angle_beta                 90
_cell_angle_gamma                90
_cell_volume                     1408.66
_exptl_crystal_colour            colorless
_exptl_crystal_description       plate
_chemical_melting_point          97-99deg.C
_cell_formula_units_Z            4
loop_
_atom_site_label
_atom_site_type_symbol
_atom_site_fract_x
_atom_site_fract_y
_atom_site_fract_z
O1 O 0.62806(13) 0.3828(3) 0.2262(4)
O2 O 0.73811(13) 0.3580(3) 0.2482(4)
O3 O 0.38709(13) -0.1023(3) 0.3657(4)
C1 C 0.69004(18) 0.4505(5) 0.1882(6)
H1 H 0.6947 0.4683 0.0641
C2 C 0.68778(18) 0.6002(4) 0.2836(5)
C3 C 0.7338(2) 0.7162(5) 0.2918(6)
H2 H 0.7733 0.7035 0.2390
C4 C 0.7197(2) 0.8489(6) 0.3788(7)
H3 H 0.7493 0.9288 0.3819
C5 C 0.6608(2) 0.8650(5) 0.4633(7)
H4 H 0.6519 0.9555 0.5230
C6 C 0.6162(2) 0.7492(5) 0.4593(6)
H5 H 0.5773 0.7601 0.5159
C7 C 0.63036(17) 0.6159(4) 0.3690(5)
C8 C 0.59372(18) 0.4746(4) 0.3390(5)
C9 C 0.53652(17) 0.4350(4) 0.4005(5)
H6 H 0.5166 0.5098 0.4675
C10 C 0.50009(16) 0.2921(4) 0.3788(5)
C11 C 0.44017(18) 0.2827(5) 0.4580(6)
H7 H 0.4245 0.3679 0.5170
C12 C 0.40434(17) 0.1525(5) 0.4510(6)
H8 H 0.3646 0.1502 0.5047
C13 C 0.42620(17) 0.0225(5) 0.3648(6)
C14 C 0.48481(18) 0.0299(5) 0.2835(6)
H9 H 0.5000 -0.0552 0.2234
C15 C 0.52102(19) 0.1628(5) 0.2909(5)
H10 H 0.5604 0.1655 0.2355
C16 C 0.7447(3) 0.2177(5) 0.1527(7)
H11 H 0.7786 0.1571 0.2014
H12 H 0.7545 0.2412 0.0346
H13 H 0.7054 0.1607 0.1579
C17 C 0.4092(2) -0.2411(5) 0.2918(9)
H14 H 0.3762 -0.3178 0.2986
H15 H 0.4462 -0.2761 0.3533
H16 H 0.4201 -0.2237 0.1731
loop_
_geom_bond_atom_site_label_1
_geom_bond_atom_site_label_2
_geom_bond_site_symmetry_1
_geom_bond_site_symmetry_2
O1 C1 1_555 1_555
O2 C1 1_555 1_555
O3 C13 1_555 1_555
C1 H1 1_555 1_555
C2 C1 1_555 1_555
C3 C2 1_555 1_555
H2 C3 1_555 1_555
C4 C3 1_555 1_555
H3 C4 1_555 1_555
C5 C4 1_555 1_555
H4 C5 1_555 1_555
C6 C5 1_555 1_555
H5 C6 1_555 1_555
C7 C2 1_555 1_555
C8 O1 1_555 1_555
C9 C8 1_555 1_555
H6 C9 1_555 1_555
C10 C9 1_555 1_555
C11 C10 1_555 1_555
H7 C11 1_555 1_555
C12 C11 1_555 1_555
H8 C12 1_555 1_555
C13 C12 1_555 1_555
C14 C13 1_555 1_555
H9 C14 1_555 1_555
C15 C10 1_555 1_555
H10 C15 1_555 1_555
C16 O2 1_555 1_555
H11 C16 1_555 1_555
H12 C16 1_555 1_555
H13 C16 1_555 1_555
C17 O3 1_555 1_555
H14 C17 1_555 1_555
H15 C17 1_555 1_555
H16 C17 1_555 1_555
C6 C7 1_555 1_555
C7 C8 1_555 1_555
C14 C15 1_555 1_555

#END
