
#######################################################################
#
#                 Cambridge Crystallographic Data Centre
#                                CCDC 
#
#######################################################################
#
# If this CIF has been generated from an entry in the Cambridge 
# Structural Database, then it will include bibliographic, chemical, 
# crystal, experimental, refinement or atomic coordinate data resulting 
# from the CCDC's data processing and validation procedures.
#
#######################################################################

data_HAMJAJ
_chemical_formula_moiety         'C21 H15 N1 O1 S1'
_chemical_name_systematic        
2-(1,3-benzothiazol-2-yl)-4-(2-phenylvinyl)phenol
_symmetry_cell_setting           monoclinic
_symmetry_space_group_name_H-M   'P 21/c'
_symmetry_Int_Tables_number      14
_space_group_name_Hall           '-P 2ybc'
loop_
_symmetry_equiv_pos_site_id
_symmetry_equiv_pos_as_xyz
1 x,y,z
2 -x,1/2+y,1/2-z
3 -x,-y,-z
4 x,1/2-y,1/2+z
_cell_length_a                   6.1957(6)
_cell_length_b                   8.0057(8)
_cell_length_c                   32.572(3)
_cell_angle_alpha                90
_cell_angle_beta                 92.7860(10)
_cell_angle_gamma                90
_cell_volume                     1613.69
_cell_formula_units_Z            4
loop_
_atom_site_label
_atom_site_type_symbol
_atom_site_fract_x
_atom_site_fract_y
_atom_site_fract_z
N1 N 0.6846(3) 0.6199(3) 0.04590(6)
O1 O 0.9258(3) 0.4431(2) 0.09686(6)
H1 H 0.8937 0.4954 0.0758
S1 S 0.30043(12) 0.72847(9) 0.05851(2)
C1 C 0.5397(4) 0.6253(3) 0.07389(7)
C2 C 0.6111(5) 0.6971(3) 0.00997(8)
C3 C 0.4054(5) 0.7655(3) 0.01082(8)
C4 C 0.3106(5) 0.8466(3) -0.02304(8)
H2 H 0.1736 0.8936 -0.0222
C5 C 0.4279(6) 0.8550(4) -0.05827(9)
H3 H 0.3673 0.9076 -0.0816
C6 C 0.6337(6) 0.7868(4) -0.05949(9)
H4 H 0.7089 0.7944 -0.0834
C7 C 0.7263(5) 0.7087(3) -0.02578(9)
H5 H 0.8644 0.6637 -0.0266
C8 C 0.5748(4) 0.5482(3) 0.11405(7)
C9 C 0.7657(4) 0.4580(3) 0.12334(8)
C10 C 0.7943(4) 0.3786(3) 0.16087(8)
H6 H 0.9179 0.3151 0.1665
C11 C 0.6427(4) 0.3925(3) 0.18989(8)
H7 H 0.6663 0.3391 0.2151
C12 C 0.4527(4) 0.4855(3) 0.18257(7)
C13 C 0.4218(4) 0.5600(3) 0.14416(7)
H8 H 0.2953 0.6197 0.1383
C14 C 0.2923(4) 0.5078(3) 0.21373(7)
H9 H 0.1748 0.5760 0.2067
C15 C 0.2978(4) 0.4407(3) 0.25103(8)
H10 H 0.4179 0.3749 0.2579
C16 C 0.1395(4) 0.4567(3) 0.28271(7)
C17 C -0.0555(4) 0.5414(3) 0.27665(8)
H11 H -0.0880 0.5934 0.2516
C18 C -0.2019(5) 0.5496(3) 0.30730(9)
H12 H -0.3320 0.6061 0.3027
C19 C -0.1552(5) 0.4742(3) 0.34464(8)
H13 H -0.2537 0.4795 0.3653
C20 C 0.0358(5) 0.3914(4) 0.35140(8)
H14 H 0.0677 0.3410 0.3767
C21 C 0.1817(5) 0.3824(3) 0.32079(8)
H15 H 0.3111 0.3254 0.3258
loop_
_geom_bond_atom_site_label_1
_geom_bond_atom_site_label_2
_geom_bond_site_symmetry_1
_geom_bond_site_symmetry_2
N1 C1 1_555 1_555
O1 H1 1_555 1_555
S1 C1 1_555 1_555
C1 C8 1_555 1_555
C2 N1 1_555 1_555
C3 S1 1_555 1_555
C4 C3 1_555 1_555
H2 C4 1_555 1_555
C5 C4 1_555 1_555
H3 C5 1_555 1_555
C6 C5 1_555 1_555
H4 C6 1_555 1_555
C7 C2 1_555 1_555
H5 C7 1_555 1_555
C8 C9 1_555 1_555
C9 O1 1_555 1_555
C10 C9 1_555 1_555
H6 C10 1_555 1_555
C11 C10 1_555 1_555
H7 C11 1_555 1_555
C12 C11 1_555 1_555
C13 C8 1_555 1_555
H8 C13 1_555 1_555
C14 C12 1_555 1_555
H9 C14 1_555 1_555
C15 C14 1_555 1_555
H10 C15 1_555 1_555
C16 C15 1_555 1_555
C17 C16 1_555 1_555
H11 C17 1_555 1_555
C18 C17 1_555 1_555
H12 C18 1_555 1_555
C19 C18 1_555 1_555
H13 C19 1_555 1_555
C20 C19 1_555 1_555
H14 C20 1_555 1_555
C21 C16 1_555 1_555
H15 C21 1_555 1_555
C2 C3 1_555 1_555
C6 C7 1_555 1_555
C12 C13 1_555 1_555
C20 C21 1_555 1_555

#END
