
#######################################################################
#
#                 Cambridge Crystallographic Data Centre
#                                CCDC 
#
#######################################################################
#
# If this CIF has been generated from an entry in the Cambridge 
# Structural Database, then it will include bibliographic, chemical, 
# crystal, experimental, refinement or atomic coordinate data resulting 
# from the CCDC's data processing and validation procedures.
#
#######################################################################

data_HAMKUD
_chemical_formula_moiety         'C22 H21 N3 O1'
_chemical_name_systematic        
5-(4-t-Butylphenyl)-N-(1-naphthyl)-1,2,4-oxadiazol-3-amine
_symmetry_cell_setting           monoclinic
_symmetry_space_group_name_H-M   'P 21/c'
_symmetry_Int_Tables_number      14
_space_group_name_Hall           '-P 2ybc'
loop_
_symmetry_equiv_pos_site_id
_symmetry_equiv_pos_as_xyz
1 x,y,z
2 -x,1/2+y,1/2-z
3 -x,-y,-z
4 x,1/2-y,1/2+z
_cell_length_a                   11.4037(3)
_cell_length_b                   20.0328(12)
_cell_length_c                   7.9932(6)
_cell_angle_alpha                90
_cell_angle_beta                 101.299(3)
_cell_angle_gamma                90
_cell_volume                     1790.64
_exptl_crystal_colour            colorless
_exptl_crystal_description       needle
_chemical_melting_point          '118-119 deg.C'
_cell_formula_units_Z            4
loop_
_atom_site_label
_atom_site_type_symbol
_atom_site_fract_x
_atom_site_fract_y
_atom_site_fract_z
O1 O 0.57875(14) 0.53421(9) 0.31667(19)
N1 N 0.6517(2) 0.58389(11) -0.0660(3)
H1 H 0.713(2) 0.5740(14) -0.088(3)
N2 N 0.73444(17) 0.52953(10) 0.1907(2)
N3 N 0.54077(18) 0.56485(10) 0.1524(2)
C1 C 0.6380(2) 0.56016(12) 0.0890(3)
C2 C 0.6926(2) 0.51500(12) 0.3266(3)
C3 C 0.5708(2) 0.61824(12) -0.1910(3)
C4 C 0.4535(2) 0.62702(12) -0.1805(3)
H2 H 0.4247 0.6100 -0.0852
C5 C 0.3755(2) 0.66123(13) -0.3106(3)
H3 H 0.2942 0.6672 -0.3019
C6 C 0.4144(2) 0.68592(13) -0.4489(3)
H4 H 0.3601 0.7084 -0.5360
C7 C 0.5353(2) 0.67829(12) -0.4635(3)
C8 C 0.5788(3) 0.70407(13) -0.6047(3)
H5 H 0.5250 0.7258 -0.6938
C9 C 0.6956(3) 0.69832(13) -0.6154(3)
H6 H 0.7227 0.7158 -0.7116
C10 C 0.7765(2) 0.66662(13) -0.4845(3)
H7 H 0.8585 0.6634 -0.4912
C11 C 0.7375(2) 0.64037(12) -0.3478(3)
H8 H 0.7932 0.6187 -0.2609
C12 C 0.6161(2) 0.64453(12) -0.3318(3)
C13 C 0.7524(2) 0.48006(12) 0.4792(3)
C14 C 0.6955(2) 0.46784(12) 0.6146(3)
H9 H 0.6175 0.4850 0.6118
C15 C 0.7512(2) 0.43099(13) 0.7529(3)
H10 H 0.7107 0.4230 0.8441
C16 C 0.8660(2) 0.40506(12) 0.7622(3)
C17 C 0.9233(2) 0.41967(13) 0.6287(3)
H11 H 1.0027 0.4042 0.6335
C18 C 0.8672(2) 0.45645(13) 0.4879(3)
H12 H 0.9081 0.4654 0.3975
C19 C 0.9236(2) 0.36176(14) 0.9145(3)
C20 C 1.0424(3) 0.33192(15) 0.8936(3)
H13 H 1.0976 0.3679 0.8783
H14 H 1.0297 0.3027 0.7934
H15 H 1.0764 0.3060 0.9955
C21 C 0.9436(3) 0.40322(19) 1.0766(3)
H16 H 1.0005 0.4391 1.0681
H17 H 0.9758 0.3747 1.1745
H18 H 0.8675 0.4225 1.0917
C22 C 0.8397(3) 0.30239(17) 0.9280(4)
H19 H 0.7636 0.3191 0.9508
H20 H 0.8771 0.2730 1.0213
H21 H 0.8252 0.2774 0.8205
loop_
_geom_bond_atom_site_label_1
_geom_bond_atom_site_label_2
_geom_bond_site_symmetry_1
_geom_bond_site_symmetry_2
O1 N3 1_555 1_555
N1 H1 1_555 1_555
N2 C1 1_555 1_555
N3 C1 1_555 1_555
C1 N1 1_555 1_555
C2 O1 1_555 1_555
C3 N1 1_555 1_555
C4 C3 1_555 1_555
H2 C4 1_555 1_555
C5 C4 1_555 1_555
H3 C5 1_555 1_555
C6 C5 1_555 1_555
H4 C6 1_555 1_555
C7 C6 1_555 1_555
C8 C7 1_555 1_555
H5 C8 1_555 1_555
C9 C8 1_555 1_555
H6 C9 1_555 1_555
C10 C9 1_555 1_555
H7 C10 1_555 1_555
C11 C10 1_555 1_555
H8 C11 1_555 1_555
C12 C3 1_555 1_555
C13 C2 1_555 1_555
C14 C13 1_555 1_555
H9 C14 1_555 1_555
C15 C14 1_555 1_555
H10 C15 1_555 1_555
C16 C15 1_555 1_555
C17 C16 1_555 1_555
H11 C17 1_555 1_555
C18 C13 1_555 1_555
H12 C18 1_555 1_555
C19 C16 1_555 1_555
C20 C19 1_555 1_555
H13 C20 1_555 1_555
H14 C20 1_555 1_555
H15 C20 1_555 1_555
C21 C19 1_555 1_555
H16 C21 1_555 1_555
H17 C21 1_555 1_555
H18 C21 1_555 1_555
C22 C19 1_555 1_555
H19 C22 1_555 1_555
H20 C22 1_555 1_555
H21 C22 1_555 1_555
N2 C2 1_555 1_555
C7 C12 1_555 1_555
C11 C12 1_555 1_555
C17 C18 1_555 1_555

#END
