
#######################################################################
#
#                 Cambridge Crystallographic Data Centre
#                                CCDC 
#
#######################################################################
#
# If this CIF has been generated from an entry in the Cambridge 
# Structural Database, then it will include bibliographic, chemical, 
# crystal, experimental, refinement or atomic coordinate data resulting 
# from the CCDC's data processing and validation procedures.
#
#######################################################################

data_HAMLOY
_chemical_formula_moiety         'C18 H15 Br1 O2'
_chemical_name_systematic        
5-(4-Bromobenzyl)-2-methyl-2-phenylfuran-3(2H)-one
_symmetry_cell_setting           monoclinic
_symmetry_space_group_name_H-M   'P 21/c'
_symmetry_Int_Tables_number      14
_space_group_name_Hall           '-P 2ybc'
loop_
_symmetry_equiv_pos_site_id
_symmetry_equiv_pos_as_xyz
1 x,y,z
2 -x,1/2+y,1/2-z
3 -x,-y,-z
4 x,1/2-y,1/2+z
_cell_length_a                   12.186(2)
_cell_length_b                   8.8313(18)
_cell_length_c                   14.355(3)
_cell_angle_alpha                90
_cell_angle_beta                 94.42(3)
_cell_angle_gamma                90
_cell_volume                     1540.27
_cell_formula_units_Z            4
loop_
_atom_site_label
_atom_site_type_symbol
_atom_site_fract_x
_atom_site_fract_y
_atom_site_fract_z
Br1 Br -0.00307(6) 0.16043(7) 0.59862(4)
C1 C 0.3478(4) 0.8406(5) 0.8469(3)
C2 C 0.2688(4) 0.8315(5) 0.6997(3)
O1 O 0.3285(3) 0.9600(4) 0.6998(2)
O2 O 0.3774(4) 0.8130(4) 0.9268(3)
C3 C 0.0604(4) 0.3573(6) 0.6023(4)
C4 C 0.0042(5) 0.4777(7) 0.6346(4)
H1 H -0.0656 0.4644 0.6553
C5 C 0.2343(5) 1.3409(6) 0.8391(4)
H2 H 0.1728 1.3942 0.8148
C6 C 0.1541(5) 0.6411(6) 0.6059(3)
C7 C 0.2743(4) 0.7594(6) 0.7810(3)
H3 H 0.2368 0.6708 0.7934
C8 C 0.2616(4) 1.2059(6) 0.7990(4)
H4 H 0.2190 1.1690 0.7474
C9 C 0.3518(4) 1.1254(5) 0.8349(3)
C10 C 0.4135(5) 1.1816(5) 0.9124(4)
H5 H 0.4743 1.1279 0.9378
C11 C 0.2086(4) 0.5187(6) 0.5735(4)
H6 H 0.2782 0.5321 0.5523
C12 C 0.3861(4) 0.9763(5) 0.7921(3)
C13 C 0.2079(5) 0.7953(6) 0.6082(4)
H7 H 0.2587 0.8001 0.5595
H8 H 0.1517 0.8716 0.5947
C14 C 0.0518(5) 0.6186(6) 0.6363(4)
H9 H 0.0137 0.7005 0.6585
C15 C 0.2964(5) 1.3974(6) 0.9142(4)
H10 H 0.2787 1.4902 0.9398
C16 C 0.1629(4) 0.3761(6) 0.5714(4)
H11 H 0.2010 0.2939 0.5494
C17 C 0.3850(6) 1.3171(6) 0.9517(4)
H12 H 0.4263 1.3540 1.0040
C18 C 0.5084(5) 0.9637(8) 0.7805(5)
H13 H 0.5233 0.8689 0.7513
H14 H 0.5485 0.9687 0.8407
H15 H 0.5308 1.0454 0.7422
loop_
_geom_bond_atom_site_label_1
_geom_bond_atom_site_label_2
_geom_bond_site_symmetry_1
_geom_bond_site_symmetry_2
Br1 C3 1_555 1_555
C1 O2 1_555 1_555
C2 O1 1_555 1_555
O1 C12 1_555 1_555
C3 C4 1_555 1_555
C4 H1 1_555 1_555
C5 H2 1_555 1_555
C6 C11 1_555 1_555
C7 C1 1_555 1_555
H3 C7 1_555 1_555
C8 C5 1_555 1_555
H4 C8 1_555 1_555
C9 C8 1_555 1_555
C10 C9 1_555 1_555
H5 C10 1_555 1_555
C11 H6 1_555 1_555
C12 C1 1_555 1_555
C13 C2 1_555 1_555
H7 C13 1_555 1_555
H8 C13 1_555 1_555
C14 C4 1_555 1_555
H9 C14 1_555 1_555
C15 C5 1_555 1_555
H10 C15 1_555 1_555
C16 C3 1_555 1_555
H11 C16 1_555 1_555
C17 C10 1_555 1_555
H12 C17 1_555 1_555
C18 C12 1_555 1_555
H13 C18 1_555 1_555
H14 C18 1_555 1_555
H15 C18 1_555 1_555
C2 C7 1_555 1_555
C6 C13 1_555 1_555
C6 C14 1_555 1_555
C9 C12 1_555 1_555
C11 C16 1_555 1_555
C15 C17 1_555 1_555

#END
