
#######################################################################
#
#                 Cambridge Crystallographic Data Centre
#                                CCDC 
#
#######################################################################
#
# If this CIF has been generated from an entry in the Cambridge 
# Structural Database, then it will include bibliographic, chemical, 
# crystal, experimental, refinement or atomic coordinate data resulting 
# from the CCDC's data processing and validation procedures.
#
#######################################################################

data_HAMLAK
_chemical_formula_moiety         
'C144 H168 O16 S4,C6 H4 I2,6(C5 H9 N1 O1),4(H2 O1)'
_chemical_name_systematic        
'Tetrathiahemicarceplex 1,4-diiodobenzene clathrate 1-methyl-2-pyrrolidinone solvate tetrahydrate'
_symmetry_cell_setting           monoclinic
_symmetry_space_group_name_H-M   'C 2/c'
_symmetry_Int_Tables_number      15
_space_group_name_Hall           '-C 2yn'
loop_
_symmetry_equiv_pos_site_id
_symmetry_equiv_pos_as_xyz
1 x,y,z
2 -x,y,1/2-z
3 1/2+x,1/2+y,z
4 1/2-x,1/2+y,1/2-z
5 -x,-y,-z
6 x,-y,1/2+z
7 1/2-x,1/2-y,-z
8 1/2+x,1/2-y,1/2+z
_cell_length_a                   26.0041(11)
_cell_length_b                   37.9383(16)
_cell_length_c                   17.0739(7)
_cell_angle_alpha                90
_cell_angle_beta                 94.366(1)
_cell_angle_gamma                90
_cell_volume                     16795.4
_exptl_crystal_description       block
_cell_formula_units_Z            4
loop_
_atom_site_label
_atom_site_type_symbol
_atom_site_fract_x
_atom_site_fract_y
_atom_site_fract_z
S1 S 0.33567(15) 0.29660(7) 0.6796(3)
S2 S 0.51100(12) 0.29357(7) 0.9809(2)
O1 O 0.3696(2) 0.13912(15) 0.9225(3)
O2 O 0.3246(2) 0.13949(14) 0.7968(3)
O3 O 0.3734(2) 0.13515(14) 0.5311(3)
O4 O 0.4541(2) 0.13652(14) 0.4761(3)
O5 O 0.4158(2) 0.36833(14) 0.4923(3)
O6 O 0.3462(2) 0.36903(14) 0.5751(3)
O7 O 0.3380(2) 0.36558(14) 0.8544(3)
O8 O 0.4001(2) 0.36382(14) 0.9639(3)
C1 C 0.3484(3) 0.13840(18) 0.6637(5)
C2 C 0.3512(3) 0.12283(19) 0.7386(5)
C3 C 0.3768(3) 0.09168(18) 0.7556(4)
C4 C 0.4037(3) 0.0757(2) 0.6973(4)
H1 H 0.4227 0.0548 0.7094
C5 C 0.4032(3) 0.08990(19) 0.6215(5)
C6 C 0.3754(3) 0.12070(19) 0.6068(4)
C7 C 0.3560(3) 0.1588(2) 0.8535(5)
H2 H 0.3879 0.1663 0.8300
H3 H 0.3373 0.1803 0.8678
C8 C 0.4178(3) 0.1226(2) 0.9260(5)
C9 C 0.4230(3) 0.09078(19) 0.8874(5)
C10 C 0.4718(3) 0.07502(19) 0.8940(4)
H4 H 0.4766 0.0535 0.8670
C11 C 0.3780(3) 0.07522(18) 0.8383(4)
H5 H 0.3459 0.0829 0.8621
C12 C 0.3783(3) 0.03508(19) 0.8383(5)
H6 H 0.4076 0.0269 0.8093
H7 H 0.3843 0.0268 0.8933
C13 C 0.3295(3) 0.0181(2) 0.8025(5)
H8 H 0.3237 0.0256 0.7469
H9 H 0.2998 0.0264 0.8306
C14 C 0.3320(4) -0.0222(2) 0.8063(6)
H10 H 0.3560 -0.0307 0.7681
H11 H 0.3462 -0.0294 0.8594
C15 C 0.2799(4) -0.0399(3) 0.7888(7)
H12 H 0.2679 -0.0355 0.7332
H13 H 0.2546 -0.0292 0.8221
C16 C 0.2814(5) -0.0796(3) 0.8033(7)
H14 H 0.2464 -0.0891 0.7903
H15 H 0.3045 -0.0903 0.7664
C17 C 0.2992(5) -0.0913(3) 0.8854(7)
H16 H 0.3359 -0.0847 0.8960
H17 H 0.2970 -0.1173 0.8878
C18 C 0.2690(5) -0.0760(3) 0.9495(8)
H18 H 0.2833 -0.0847 1.0007
H19 H 0.2328 -0.0831 0.9411
H20 H 0.2714 -0.0502 0.9485
C19 C 0.4165(4) 0.1563(2) 0.5130(5)
H21 H 0.4043 0.1758 0.4779
H22 H 0.4326 0.1667 0.5620
C20 C 0.4942(3) 0.1215(2) 0.5233(5)
C21 C 0.5135(3) 0.08948(18) 0.9385(4)
C22 C 0.4331(3) 0.07285(18) 0.5584(5)
H23 H 0.4150 0.0791 0.5064
C23 C 0.4342(3) 0.03248(19) 0.5641(5)
H24 H 0.4557 0.0231 0.5233
H25 H 0.4509 0.0257 0.6159
C24 C 0.3810(3) 0.0154(2) 0.5539(5)
H26 H 0.3578 0.0270 0.5895
H27 H 0.3663 0.0190 0.4993
C25 C 0.3830(3) -0.0237(2) 0.5713(5)
H28 H 0.3973 -0.0272 0.6262
H29 H 0.4068 -0.0351 0.5365
C26 C 0.3303(4) -0.0421(2) 0.5605(6)
H30 H 0.3058 -0.0298 0.5927
H31 H 0.3170 -0.0400 0.5048
C27 C 0.3324(4) -0.0808(2) 0.5832(7)
H32 H 0.3551 -0.0933 0.5485
H33 H 0.3482 -0.0828 0.6377
C28 C 0.2809(5) -0.0989(3) 0.5785(10)
H34 H 0.2605 -0.0892 0.6202
H35 H 0.2624 -0.0929 0.5273
C29 C 0.2823(9) -0.1355(4) 0.5859(19)
H36 H 0.2552 -0.1431 0.6190
H37 H 0.3160 -0.1427 0.6102
H38 H 0.2766 -0.1463 0.5338
C31 C 0.3179(3) 0.17022(19) 0.6427(5)
C32 C 0.2816(3) 0.1699(2) 0.5775(5)
H39 H 0.2772 0.1491 0.5469
C33 C 0.2523(4) 0.1990(2) 0.5571(6)
H40 H 0.2286 0.1983 0.5120
C34 C 0.2570(3) 0.2294(2) 0.6013(6)
H41 H 0.2365 0.2495 0.5871
C35 C 0.2925(4) 0.2305(2) 0.6673(5)
C36 C 0.3222(3) 0.2011(2) 0.6865(6)
H42 H 0.3464 0.2020 0.7310
C37 C 0.2959(4) 0.2631(2) 0.7189(7)
H43 H 0.3105 0.2565 0.7722
H44 H 0.2609 0.2726 0.7236
C38 C 0.4584(3) 0.13886(19) 0.9717(5)
C39 C 0.4510(4) 0.1733(2) 1.0111(5)
C40 C 0.4544(3) 0.2044(2) 0.9708(5)
H45 H 0.4623 0.2035 0.9174
C41 C 0.4468(4) 0.2371(2) 1.0044(6)
C42 C 0.4359(5) 0.2379(3) 1.0816(7)
H46 H 0.4327 0.2598 1.1077
C43 C 0.4298(7) 0.2073(3) 1.1208(8)
H47 H 0.4199 0.2081 1.1733
C44 C 0.4375(7) 0.1746(3) 1.0862(7)
H48 H 0.4333 0.1535 1.1150
C45 C 0.4504(5) 0.2705(2) 0.9576(7)
H49 H 0.4214 0.2863 0.9685
H50 H 0.4471 0.2647 0.9009
C46 C 0.3043(3) 0.33616(19) 0.7054(5)
H51 H 0.2766 0.3417 0.6643
H52 H 0.2881 0.3325 0.7553
C47 C 0.3409(3) 0.36714(18) 0.7146(5)
C48 C 0.3547(3) 0.38214(18) 0.7880(5)
C49 C 0.3829(3) 0.4133(2) 0.7974(5)
C50 C 0.4004(3) 0.42900(19) 0.7304(5)
H53 H 0.4208 0.4497 0.7357
C51 C 0.3881(3) 0.4145(2) 0.6547(5)
C52 C 0.3597(3) 0.38388(19) 0.6493(5)
C53 C 0.3757(3) 0.3454(2) 0.8991(5)
H54 H 0.3591 0.3239 0.9186
H55 H 0.4024 0.3377 0.8643
C54 C 0.3859(3) 0.3488(2) 0.5441(5)
H56 H 0.3702 0.3283 0.5154
H57 H 0.4091 0.3396 0.5881
C55 C 0.4082(3) 0.43182(19) 0.5824(5)
H58 H 0.3836 0.4257 0.5365
C56 C 0.4600(3) 0.4149(2) 0.5685(5)
C57 C 0.4613(3) 0.3829(2) 0.5278(4)
C58 C 0.5077(3) 0.3656(2) 0.5144(5)
C59 C 0.4466(3) 0.3811(2) 0.9525(5)
C60 C 0.4461(3) 0.41280(19) 0.9125(5)
C61 C 0.5069(3) 0.42896(19) 0.5984(5)
H59 H 0.5069 0.4504 0.6273
C62 C 0.4924(4) 0.3328(2) 1.0337(5)
H60 H 0.4575 0.3292 1.0517
H61 H 0.5166 0.3359 1.0809
C63 C 0.4109(3) 0.47164(19) 0.5869(5)
H62 H 0.4255 0.4806 0.5389
H63 H 0.4347 0.4784 0.6324
C64 C 0.3588(4) 0.4893(2) 0.5949(6)
H64 H 0.3423 0.4787 0.6396
H65 H 0.3361 0.4850 0.5466
C65 C 0.3648(5) 0.5295(3) 0.6083(9)
H66 H 0.3888 0.5336 0.6553
H67 H 0.3805 0.5400 0.5626
C66 C 0.3172(6) 0.5475(4) 0.6188(10)
H68 H 0.3009 0.5381 0.6650
H69 H 0.2929 0.5449 0.5718
C67 C 0.3335(12) 0.5884(4) 0.6324(13)
H70 H 0.3027 0.6025 0.6402
H71 H 0.3498 0.5971 0.5863
H72 H 0.3579 0.5904 0.6789
C68 C 0.3953(3) 0.42864(19) 0.8788(5)
H73 H 0.3678 0.4204 0.9125
C69 C 0.3949(3) 0.4687(2) 0.8806(5)
H74 H 0.4169 0.4777 0.8403
H75 H 0.4098 0.4768 0.9325
C70 C 0.3406(3) 0.4838(2) 0.8655(6)
H76 H 0.3256 0.4749 0.8142
H77 H 0.3191 0.4748 0.9065
C71 C 0.3378(4) 0.5234(2) 0.8648(6)
H78 H 0.3558 0.5323 0.8197
H79 H 0.3565 0.5325 0.9134
C72 C 0.2837(4) 0.5378(3) 0.8593(8)
H80 H 0.2666 0.5302 0.9064
H81 H 0.2644 0.5273 0.8128
C73 C 0.2799(6) 0.5774(3) 0.8530(9)
H82 H 0.2435 0.5844 0.8505
H83 H 0.2953 0.5853 0.8054
H84 H 0.2983 0.5882 0.8992
S1A S 0.66433(15) 0.29660(7) 0.8204(3)
S2A S 0.48900(12) 0.29357(7) 0.5191(2)
O1A O 0.6304(2) 0.13912(15) 0.5775(3)
O2A O 0.6754(2) 0.13949(14) 0.7032(3)
O3A O 0.6266(2) 0.13515(14) 0.9689(3)
O4A O 0.5459(2) 0.13652(14) 1.0239(3)
O5A O 0.5842(2) 0.36833(14) 1.0077(3)
O6A O 0.6538(2) 0.36903(14) 0.9249(3)
O7A O 0.6620(2) 0.36558(14) 0.6456(3)
O8A O 0.5999(2) 0.36382(14) 0.5361(3)
C1A C 0.6516(3) 0.13840(18) 0.8363(5)
C2A C 0.6488(3) 0.12283(19) 0.7614(5)
C3A C 0.6232(3) 0.09168(18) 0.7444(4)
C4A C 0.5963(3) 0.0757(2) 0.8027(4)
H1A H 0.5773 0.0548 0.7906
C5A C 0.5968(3) 0.08990(19) 0.8785(5)
C6A C 0.6246(3) 0.12070(19) 0.8932(4)
C7A C 0.6440(3) 0.1588(2) 0.6465(5)
H2A H 0.6121 0.1663 0.6700
H3A H 0.6627 0.1803 0.6322
C8A C 0.5822(3) 0.1226(2) 0.5740(5)
C9A C 0.5770(3) 0.09078(19) 0.6126(5)
C10A C 0.5282(3) 0.07502(19) 0.6060(4)
H4A H 0.5234 0.0535 0.6330
C11A C 0.6220(3) 0.07522(18) 0.6617(4)
H5A H 0.6541 0.0829 0.6379
C12A C 0.6217(3) 0.03508(19) 0.6617(5)
H6A H 0.5924 0.0269 0.6907
H7A H 0.6157 0.0268 0.6067
C13A C 0.6705(3) 0.0181(2) 0.6975(5)
H8A H 0.6763 0.0256 0.7531
H9A H 0.7002 0.0264 0.6694
C14A C 0.6680(4) -0.0222(2) 0.6937(6)
H10A H 0.6440 -0.0307 0.7319
H11A H 0.6538 -0.0294 0.6406
C15A C 0.7201(4) -0.0399(3) 0.7112(7)
H12A H 0.7321 -0.0355 0.7668
H13A H 0.7454 -0.0292 0.6779
C16A C 0.7186(5) -0.0796(3) 0.6967(7)
H14A H 0.7536 -0.0891 0.7097
H15A H 0.6955 -0.0903 0.7336
C17A C 0.7008(5) -0.0913(3) 0.6146(7)
H16A H 0.6641 -0.0847 0.6040
H17A H 0.7030 -0.1173 0.6122
C18A C 0.7310(5) -0.0760(3) 0.5505(8)
H18A H 0.7167 -0.0847 0.4993
H19A H 0.7672 -0.0831 0.5589
H20A H 0.7286 -0.0502 0.5515
C19A C 0.5835(4) 0.1563(2) 0.9870(5)
H21A H 0.5957 0.1758 1.0221
H22A H 0.5674 0.1667 0.9380
C20A C 0.5058(3) 0.1215(2) 0.9767(5)
C21A C 0.4865(3) 0.08948(18) 0.5615(4)
C22A C 0.5669(3) 0.07285(18) 0.9416(5)
H23A H 0.5850 0.0791 0.9936
C23A C 0.5658(3) 0.03248(19) 0.9359(5)
H24A H 0.5443 0.0231 0.9767
H25A H 0.5491 0.0257 0.8841
C24A C 0.6190(3) 0.0154(2) 0.9461(5)
H26A H 0.6422 0.0270 0.9105
H27A H 0.6337 0.0190 1.0007
C25A C 0.6170(3) -0.0237(2) 0.9287(5)
H28A H 0.6027 -0.0272 0.8738
H29A H 0.5932 -0.0351 0.9635
C26A C 0.6697(4) -0.0421(2) 0.9395(6)
H30A H 0.6942 -0.0298 0.9073
H31A H 0.6830 -0.0400 0.9952
C27A C 0.6676(4) -0.0808(2) 0.9168(7)
H32A H 0.6449 -0.0933 0.9515
H33A H 0.6518 -0.0828 0.8623
C28A C 0.7191(5) -0.0989(3) 0.9215(10)
H34A H 0.7395 -0.0892 0.8798
H35A H 0.7376 -0.0929 0.9727
C29A C 0.7177(9) -0.1355(4) 0.9141(19)
H36A H 0.7448 -0.1431 0.8810
H37A H 0.6840 -0.1427 0.8898
H38A H 0.7234 -0.1463 0.9662
C31A C 0.6821(3) 0.17022(19) 0.8573(5)
C32A C 0.7184(3) 0.1699(2) 0.9225(5)
H39A H 0.7228 0.1491 0.9531
C33A C 0.7477(4) 0.1990(2) 0.9429(6)
H40A H 0.7714 0.1983 0.9880
C34A C 0.7430(3) 0.2294(2) 0.8987(6)
H41A H 0.7635 0.2495 0.9129
C35A C 0.7075(4) 0.2305(2) 0.8327(5)
C36A C 0.6778(3) 0.2011(2) 0.8135(6)
H42A H 0.6536 0.2020 0.7690
C37A C 0.7041(4) 0.2631(2) 0.7811(7)
H43A H 0.6895 0.2565 0.7278
H44A H 0.7391 0.2726 0.7764
C38A C 0.5416(3) 0.13886(19) 0.5283(5)
C39A C 0.5490(4) 0.1733(2) 0.4889(5)
C40A C 0.5456(3) 0.2044(2) 0.5292(5)
H45A H 0.5377 0.2035 0.5826
C41A C 0.5532(4) 0.2371(2) 0.4956(6)
C42A C 0.5641(5) 0.2379(3) 0.4184(7)
H46A H 0.5673 0.2598 0.3923
C43A C 0.5702(7) 0.2073(3) 0.3792(8)
H47A H 0.5801 0.2081 0.3267
C44A C 0.5625(7) 0.1746(3) 0.4138(7)
H48A H 0.5667 0.1535 0.3850
C45A C 0.5496(5) 0.2705(2) 0.5424(7)
H49A H 0.5786 0.2863 0.5315
H50A H 0.5529 0.2647 0.5991
C46A C 0.6957(3) 0.33616(19) 0.7946(5)
H51A H 0.7234 0.3417 0.8357
H52A H 0.7119 0.3325 0.7447
C47A C 0.6591(3) 0.36714(18) 0.7854(5)
C48A C 0.6453(3) 0.38214(18) 0.7120(5)
C49A C 0.6171(3) 0.4133(2) 0.7026(5)
C50A C 0.5996(3) 0.42900(19) 0.7696(5)
H53A H 0.5792 0.4497 0.7643
C51A C 0.6119(3) 0.4145(2) 0.8453(5)
C52A C 0.6403(3) 0.38388(19) 0.8507(5)
C53A C 0.6243(3) 0.3454(2) 0.6009(5)
H54A H 0.6409 0.3239 0.5814
H55A H 0.5976 0.3377 0.6357
C54A C 0.6141(3) 0.3488(2) 0.9559(5)
H56A H 0.6298 0.3283 0.9846
H57A H 0.5909 0.3396 0.9119
C55A C 0.5918(3) 0.43182(19) 0.9176(5)
H58A H 0.6164 0.4257 0.9635
C56A C 0.5400(3) 0.4149(2) 0.9315(5)
C57A C 0.5387(3) 0.3829(2) 0.9722(4)
C58A C 0.4923(3) 0.3656(2) 0.9856(5)
C59A C 0.5534(3) 0.3811(2) 0.5475(5)
C60A C 0.5539(3) 0.41280(19) 0.5875(5)
C61A C 0.4931(3) 0.42896(19) 0.9016(5)
H59A H 0.4931 0.4504 0.8727
C62A C 0.5076(4) 0.3328(2) 0.4663(5)
H60A H 0.5425 0.3292 0.4483
H61A H 0.4834 0.3359 0.4191
C63A C 0.5891(3) 0.47164(19) 0.9131(5)
H62A H 0.5745 0.4806 0.9611
H63A H 0.5653 0.4784 0.8676
C64A C 0.6412(4) 0.4893(2) 0.9051(6)
H64A H 0.6577 0.4787 0.8604
H65A H 0.6639 0.4850 0.9534
C65A C 0.6352(5) 0.5295(3) 0.8917(9)
H66A H 0.6112 0.5336 0.8447
H67A H 0.6195 0.5400 0.9374
C66A C 0.6828(6) 0.5475(4) 0.8812(10)
H68A H 0.6991 0.5381 0.8350
H69A H 0.7071 0.5449 0.9282
C67A C 0.6665(12) 0.5884(4) 0.8676(13)
H70A H 0.6973 0.6025 0.8598
H71A H 0.6502 0.5971 0.9137
H72A H 0.6421 0.5904 0.8211
C68A C 0.6047(3) 0.42864(19) 0.6212(5)
H73A H 0.6322 0.4204 0.5875
C69A C 0.6051(3) 0.4687(2) 0.6194(5)
H74A H 0.5831 0.4777 0.6597
H75A H 0.5902 0.4768 0.5675
C70A C 0.6594(3) 0.4838(2) 0.6345(6)
H76A H 0.6744 0.4749 0.6858
H77A H 0.6809 0.4748 0.5935
C71A C 0.6622(4) 0.5234(2) 0.6352(6)
H78A H 0.6442 0.5323 0.6803
H79A H 0.6435 0.5325 0.5866
C72A C 0.7163(4) 0.5378(3) 0.6407(8)
H80A H 0.7334 0.5302 0.5936
H81A H 0.7356 0.5273 0.6872
C73A C 0.7201(6) 0.5774(3) 0.6470(9)
H82A H 0.7565 0.5844 0.6495
H83A H 0.7047 0.5853 0.6946
H84A H 0.7017 0.5882 0.6008
I1 I 0.5000 0.15406(2) 0.7500
I2 I 0.5000 0.33775(2) 0.7500
C74 C 0.5000 0.2092(3) 0.7500
C75 C 0.5375(4) 0.2273(2) 0.7940(6)
H85 H 0.5635 0.2147 0.8247
C76 C 0.5380(4) 0.2635(3) 0.7942(6)
H86 H 0.5644 0.2758 0.8245
C77 C 0.5000 0.2821(3) 0.7500
C75A C 0.4625(4) 0.2273(2) 0.7060(6)
H85A H 0.4365 0.2147 0.6753
C76A C 0.4620(4) 0.2635(3) 0.7058(6)
H86A H 0.4356 0.2758 0.6755
O9 O 0.0780(4) 0.1767(4) 0.8193(8)
N1 N 0.1507(4) 0.1681(3) 0.7529(6)
C78 C 0.1245(4) 0.1779(3) 0.8109(7)
C79 C 0.1671(6) 0.1852(4) 0.8847(7)
H87 H 0.1625 0.2086 0.9086
H88 H 0.1663 0.1667 0.9255
C80 C 0.2159(6) 0.1834(5) 0.8412(10)
H89 H 0.2304 0.2074 0.8368
H90 H 0.2419 0.1688 0.8716
C81 C 0.2057(4) 0.1682(4) 0.7618(9)
H91 H 0.2204 0.1831 0.7214
H92 H 0.2198 0.1440 0.7589
C82 C 0.1264(6) 0.1583(4) 0.6812(7)
H93 H 0.0890 0.1600 0.6836
H94 H 0.1358 0.1340 0.6692
H95 H 0.1373 0.1741 0.6400
O10 O 0.3951(10) 0.1532(5) 0.2967(12)
N2 N 0.3573(7) 0.2075(5) 0.2990(19)
C83 C 0.3903(8) 0.1845(6) 0.3079(15)
C84 C 0.4460(7) 0.2088(8) 0.3348(15)
C85 C 0.4191(13) 0.2401(10) 0.365(3)
C86 C 0.3686(10) 0.2430(6) 0.324(2)
C87 C 0.3087(8) 0.1963(8) 0.303(3)
O14 O 0.3734(5) 0.2451(3) 0.4936(12)
O15 O 0.0000 0.2120(9) 0.7500
C30? C 0.2563(10) -0.1044(8) 0.5041(15)
O11? O 1.0000 0.0017(2) 0.7500
N3? N 0.9968(9) 0.0603(3) 0.7892(10)
C88? C 1.0000 0.0337(3) 0.7500
C89? C 1.0134(5) 0.0509(3) 0.6525(7)
C90? C 1.0063(19) 0.0883(5) 0.6695(13)
C91? C 1.0000 0.0949(3) 0.7500
O12? O 0.5000 1.00492(19) 0.7500
N4? N 0.4932(8) 0.9462(3) 0.7832(8)
C92? C 0.5000 0.9731(3) 0.7500
C93? C 0.5213(5) 0.9559(3) 0.6529(6)
C94? C 0.5088(18) 0.9191(5) 0.6682(12)
C95? C 0.5000 0.9119(3) 0.7500
O13? O 0.1818(6) 0.2446(6) 1.0768(12)
N5? N 0.2500 0.2500 1.0000
C96? C 0.2797(8) 0.2636(7) 0.9547(15)
C97? C 0.2394(10) 0.2972(6) 0.9135(17)
C98? C 0.3049(10) 0.2073(8) 1.0373(18)
C99? C 0.2034(8) 0.2655(6) 1.0222(16)
C100? C 0.2699(14) 0.2249(8) 1.0535(19)
O16? O 0.3870(8) 0.2202(8) 0.3317(13)
loop_
_geom_bond_atom_site_label_1
_geom_bond_atom_site_label_2
_geom_bond_site_symmetry_1
_geom_bond_site_symmetry_2
S1 C37 1_555 1_555
S2 C45 1_555 1_555
O1 C7 1_555 1_555
O2 C2 1_555 1_555
O3 C6 1_555 1_555
O4 C19 1_555 1_555
O5 C54 1_555 1_555
O6 C52 1_555 1_555
O7 C48 1_555 1_555
O8 C53 1_555 1_555
C1 C2 1_555 1_555
C2 C3 1_555 1_555
C3 C4 1_555 1_555
C4 H1 1_555 1_555
C5 C4 1_555 1_555
C6 C1 1_555 1_555
C7 O2 1_555 1_555
H2 C7 1_555 1_555
H3 C7 1_555 1_555
C8 O1 1_555 1_555
C9 C8 1_555 1_555
C10 C9 1_555 1_555
H4 C10 1_555 1_555
C11 C3 1_555 1_555
H5 C11 1_555 1_555
C12 C11 1_555 1_555
H6 C12 1_555 1_555
H7 C12 1_555 1_555
C13 C12 1_555 1_555
H8 C13 1_555 1_555
H9 C13 1_555 1_555
C14 C13 1_555 1_555
H10 C14 1_555 1_555
H11 C14 1_555 1_555
C15 C14 1_555 1_555
H12 C15 1_555 1_555
H13 C15 1_555 1_555
C16 C15 1_555 1_555
H14 C16 1_555 1_555
H15 C16 1_555 1_555
C17 C16 1_555 1_555
H16 C17 1_555 1_555
H17 C17 1_555 1_555
C18 C17 1_555 1_555
H18 C18 1_555 1_555
H19 C18 1_555 1_555
H20 C18 1_555 1_555
C19 O3 1_555 1_555
H21 C19 1_555 1_555
H22 C19 1_555 1_555
C20 O4 1_555 1_555
C21 C10 1_555 1_555
C22 C5 1_555 1_555
H23 C22 1_555 1_555
C23 C22 1_555 1_555
H24 C23 1_555 1_555
H25 C23 1_555 1_555
C24 C23 1_555 1_555
H26 C24 1_555 1_555
H27 C24 1_555 1_555
C25 C24 1_555 1_555
H28 C25 1_555 1_555
H29 C25 1_555 1_555
C26 C25 1_555 1_555
H30 C26 1_555 1_555
H31 C26 1_555 1_555
C27 C26 1_555 1_555
H32 C27 1_555 1_555
H33 C27 1_555 1_555
C28 C27 1_555 1_555
H34 C28 1_555 1_555
H35 C28 1_555 1_555
C29 C28 1_555 1_555
H36 C29 1_555 1_555
H37 C29 1_555 1_555
H38 C29 1_555 1_555
C31 C1 1_555 1_555
C32 C31 1_555 1_555
H39 C32 1_555 1_555
C33 C32 1_555 1_555
H40 C33 1_555 1_555
C34 C33 1_555 1_555
H41 C34 1_555 1_555
C35 C34 1_555 1_555
C36 C31 1_555 1_555
H42 C36 1_555 1_555
C37 C35 1_555 1_555
H43 C37 1_555 1_555
H44 C37 1_555 1_555
C38 C8 1_555 1_555
C39 C38 1_555 1_555
C40 C39 1_555 1_555
H45 C40 1_555 1_555
C41 C40 1_555 1_555
C42 C41 1_555 1_555
H46 C42 1_555 1_555
C43 C42 1_555 1_555
H47 C43 1_555 1_555
C44 C39 1_555 1_555
H48 C44 1_555 1_555
C45 C41 1_555 1_555
H49 C45 1_555 1_555
H50 C45 1_555 1_555
C46 S1 1_555 1_555
H51 C46 1_555 1_555
H52 C46 1_555 1_555
C47 C46 1_555 1_555
C48 C47 1_555 1_555
C49 C48 1_555 1_555
C50 C49 1_555 1_555
H53 C50 1_555 1_555
C51 C50 1_555 1_555
C52 C47 1_555 1_555
C53 O7 1_555 1_555
H54 C53 1_555 1_555
H55 C53 1_555 1_555
C54 O6 1_555 1_555
H56 C54 1_555 1_555
H57 C54 1_555 1_555
C55 C51 1_555 1_555
H58 C55 1_555 1_555
C56 C55 1_555 1_555
C57 O5 1_555 1_555
C58 C57 1_555 1_555
C59 O8 1_555 1_555
C60 C59 1_555 1_555
C61 C56 1_555 1_555
H59 C61 1_555 1_555
C62 S2 1_555 1_555
H60 C62 1_555 1_555
H61 C62 1_555 1_555
C63 C55 1_555 1_555
H62 C63 1_555 1_555
H63 C63 1_555 1_555
C64 C63 1_555 1_555
H64 C64 1_555 1_555
H65 C64 1_555 1_555
C65 C64 1_555 1_555
H66 C65 1_555 1_555
H67 C65 1_555 1_555
C66 C65 1_555 1_555
H68 C66 1_555 1_555
H69 C66 1_555 1_555
C67 C66 1_555 1_555
H70 C67 1_555 1_555
H71 C67 1_555 1_555
H72 C67 1_555 1_555
C68 C49 1_555 1_555
H73 C68 1_555 1_555
C69 C68 1_555 1_555
H74 C69 1_555 1_555
H75 C69 1_555 1_555
C70 C69 1_555 1_555
H76 C70 1_555 1_555
H77 C70 1_555 1_555
C71 C70 1_555 1_555
H78 C71 1_555 1_555
H79 C71 1_555 1_555
C72 C71 1_555 1_555
H80 C72 1_555 1_555
H81 C72 1_555 1_555
C73 C72 1_555 1_555
H82 C73 1_555 1_555
H83 C73 1_555 1_555
H84 C73 1_555 1_555
I1 C74 1_555 1_555
I2 C77 1_555 1_555
C74 C75 1_555 1_555
C75 H85 1_555 1_555
C76 C75 1_555 1_555
H86 C76 1_555 1_555
C77 C76 1_555 1_555
O9 C78 1_555 1_555
N1 C78 1_555 1_555
C78 C79 1_555 1_555
C79 H87 1_555 1_555
H88 C79 1_555 1_555
C80 C79 1_555 1_555
H89 C80 1_555 1_555
H90 C80 1_555 1_555
C81 N1 1_555 1_555
H91 C81 1_555 1_555
H92 C81 1_555 1_555
C82 N1 1_555 1_555
H93 C82 1_555 1_555
H94 C82 1_555 1_555
H95 C82 1_555 1_555
O10 C83 1_555 1_555
N2 C83 1_555 1_555
C83 C84 1_555 1_555
C84 C85 1_555 1_555
C85 C86 1_555 1_555
C86 N2 1_555 1_555
C87 N2 1_555 1_555
S1A C37A 1_555 1_555
S2A C45A 1_555 1_555
O1A C7A 1_555 1_555
O2A C2A 1_555 1_555
O3A C6A 1_555 1_555
O4A C19A 1_555 1_555
O5A C54A 1_555 1_555
O6A C52A 1_555 1_555
O7A C48A 1_555 1_555
O8A C53A 1_555 1_555
C1A C2A 1_555 1_555
C2A C3A 1_555 1_555
C3A C4A 1_555 1_555
C4A H1A 1_555 1_555
C5A C4A 1_555 1_555
C6A C1A 1_555 1_555
C7A O2A 1_555 1_555
H2A C7A 1_555 1_555
H3A C7A 1_555 1_555
C8A O1A 1_555 1_555
C9A C8A 1_555 1_555
C10A C9A 1_555 1_555
H4A C10A 1_555 1_555
C11A C3A 1_555 1_555
H5A C11A 1_555 1_555
C12A C11A 1_555 1_555
H6A C12A 1_555 1_555
H7A C12A 1_555 1_555
C13A C12A 1_555 1_555
H8A C13A 1_555 1_555
H9A C13A 1_555 1_555
C14A C13A 1_555 1_555
H10A C14A 1_555 1_555
H11A C14A 1_555 1_555
C15A C14A 1_555 1_555
H12A C15A 1_555 1_555
H13A C15A 1_555 1_555
C16A C15A 1_555 1_555
H14A C16A 1_555 1_555
H15A C16A 1_555 1_555
C17A C16A 1_555 1_555
H16A C17A 1_555 1_555
H17A C17A 1_555 1_555
C18A C17A 1_555 1_555
H18A C18A 1_555 1_555
H19A C18A 1_555 1_555
H20A C18A 1_555 1_555
C19A O3A 1_555 1_555
H21A C19A 1_555 1_555
H22A C19A 1_555 1_555
C20A C21 1_555 1_555
C21A C20 1_555 1_555
C22A C21 1_555 1_555
H23A C22A 1_555 1_555
C23A C22A 1_555 1_555
H24A C23A 1_555 1_555
H25A C23A 1_555 1_555
C24A C23A 1_555 1_555
H26A C24A 1_555 1_555
H27A C24A 1_555 1_555
C25A C24A 1_555 1_555
H28A C25A 1_555 1_555
H29A C25A 1_555 1_555
C26A C25A 1_555 1_555
H30A C26A 1_555 1_555
H31A C26A 1_555 1_555
C27A C26A 1_555 1_555
H32A C27A 1_555 1_555
H33A C27A 1_555 1_555
C28A C27A 1_555 1_555
H34A C28A 1_555 1_555
H35A C28A 1_555 1_555
C29A C28A 1_555 1_555
H36A C29A 1_555 1_555
H37A C29A 1_555 1_555
H38A C29A 1_555 1_555
C31A C1A 1_555 1_555
C32A C31A 1_555 1_555
H39A C32A 1_555 1_555
C33A C32A 1_555 1_555
H40A C33A 1_555 1_555
C34A C33A 1_555 1_555
H41A C34A 1_555 1_555
C35A C34A 1_555 1_555
C36A C31A 1_555 1_555
H42A C36A 1_555 1_555
C37A C35A 1_555 1_555
H43A C37A 1_555 1_555
H44A C37A 1_555 1_555
C38A C20 1_555 1_555
C39A C38A 1_555 1_555
C40A C39A 1_555 1_555
H45A C40A 1_555 1_555
C41A C40A 1_555 1_555
C42A C41A 1_555 1_555
H46A C42A 1_555 1_555
C43A C42A 1_555 1_555
H47A C43A 1_555 1_555
C44A C39A 1_555 1_555
H48A C44A 1_555 1_555
C45A C41A 1_555 1_555
H49A C45A 1_555 1_555
H50A C45A 1_555 1_555
C46A S1A 1_555 1_555
H51A C46A 1_555 1_555
H52A C46A 1_555 1_555
C47A C46A 1_555 1_555
C48A C47A 1_555 1_555
C49A C48A 1_555 1_555
C50A C49A 1_555 1_555
H53A C50A 1_555 1_555
C51A C50A 1_555 1_555
C52A C47A 1_555 1_555
C53A O7A 1_555 1_555
H54A C53A 1_555 1_555
H55A C53A 1_555 1_555
C54A O6A 1_555 1_555
H56A C54A 1_555 1_555
H57A C54A 1_555 1_555
C55A C51A 1_555 1_555
H58A C55A 1_555 1_555
C56A C55A 1_555 1_555
C57A O5A 1_555 1_555
C58A C59 1_555 1_555
C59A C58 1_555 1_555
C60A C61 1_555 1_555
C61A C60 1_555 1_555
H59A C61A 1_555 1_555
C62A C58 1_555 1_555
H60A C62A 1_555 1_555
H61A C62A 1_555 1_555
C63A C55A 1_555 1_555
H62A C63A 1_555 1_555
H63A C63A 1_555 1_555
C64A C63A 1_555 1_555
H64A C64A 1_555 1_555
H65A C64A 1_555 1_555
C65A C64A 1_555 1_555
H66A C65A 1_555 1_555
H67A C65A 1_555 1_555
C66A C65A 1_555 1_555
H68A C66A 1_555 1_555
H69A C66A 1_555 1_555
C67A C66A 1_555 1_555
H70A C67A 1_555 1_555
H71A C67A 1_555 1_555
H72A C67A 1_555 1_555
C68A C49A 1_555 1_555
H73A C68A 1_555 1_555
C69A C68A 1_555 1_555
H74A C69A 1_555 1_555
H75A C69A 1_555 1_555
C70A C69A 1_555 1_555
H76A C70A 1_555 1_555
H77A C70A 1_555 1_555
C71A C70A 1_555 1_555
H78A C71A 1_555 1_555
H79A C71A 1_555 1_555
C72A C71A 1_555 1_555
H80A C72A 1_555 1_555
H81A C72A 1_555 1_555
C73A C72A 1_555 1_555
H82A C73A 1_555 1_555
H83A C73A 1_555 1_555
H84A C73A 1_555 1_555
C75A C74 1_555 1_555
H85A C75A 1_555 1_555
C76A C77 1_555 1_555
H86A C76A 1_555 1_555
C5 C6 1_555 1_555
C9 C11 1_555 1_555
C22 C21A 1_555 1_555
C35 C36 1_555 1_555
C38 C20A 1_555 1_555
C43 C44 1_555 1_555
C51 C52 1_555 1_555
C56 C57 1_555 1_555
C60 C68 1_555 1_555
C62 C58A 1_555 1_555
C80 C81 1_555 1_555
S2A C62A 1_555 1_555
O4A C20A 1_555 1_555
O8A C59A 1_555 1_555
C5A C6A 1_555 1_555
C5A C22A 1_555 1_555
C8A C38A 1_555 1_555
C9A C11A 1_555 1_555
C10A C21A 1_555 1_555
C35A C36A 1_555 1_555
C43A C44A 1_555 1_555
C51A C52A 1_555 1_555
C56A C57A 1_555 1_555
C56A C61A 1_555 1_555
C57A C58A 1_555 1_555
C59A C60A 1_555 1_555
C60A C68A 1_555 1_555
C75A C76A 1_555 1_555

#END
