
#######################################################################
#
#                 Cambridge Crystallographic Data Centre
#                                CCDC 
#
#######################################################################
#
# If this CIF has been generated from an entry in the Cambridge 
# Structural Database, then it will include bibliographic, chemical, 
# crystal, experimental, refinement or atomic coordinate data resulting 
# from the CCDC's data processing and validation procedures.
#
#######################################################################

data_HAMQIW
_chemical_formula_moiety         'C24 H28 N2 O7'
_chemical_name_systematic        
'Ethyl 5-(5-oxo-2,3-dihydro-5H-oxazolo(2,3-a)isoindol-9b-ylmethyl)-4-(2,5,5-trimethyl-1,3-dioxan-2-yl)isoxazole-3-carboxylate'
_symmetry_cell_setting           monoclinic
_symmetry_space_group_name_H-M   'P 21/n'
_symmetry_Int_Tables_number      14
_space_group_name_Hall           '-P 2yn'
loop_
_symmetry_equiv_pos_site_id
_symmetry_equiv_pos_as_xyz
1 x,y,z
2 1/2+x,1/2-y,1/2+z
3 -x,-y,-z
4 1/2-x,1/2+y,1/2-z
_cell_length_a                   13.302(3)
_cell_length_b                   11.707(2)
_cell_length_c                   14.412(3)
_cell_angle_alpha                90
_cell_angle_beta                 91.76(3)
_cell_angle_gamma                90
_cell_volume                     2243.27
_exptl_crystal_colour            colorless
_exptl_crystal_description       prism
_chemical_melting_point          '434-435 K'
_cell_formula_units_Z            4
_exptl_crystal_recrystallization_method hexanes
loop_
_atom_site_label
_atom_site_type_symbol
_atom_site_fract_x
_atom_site_fract_y
_atom_site_fract_z
C1 C 0.42236(13) -0.12805(14) 0.94438(13)
H1 H 0.4353 -0.1767 0.8907
H2 H 0.4603 -0.1568 0.9988
H3 H 0.4435 -0.0497 0.9312
C2 C 0.27446(13) -0.25078(13) 0.98484(12)
H4 H 0.2026 -0.2496 0.9977
H5 H 0.3122 -0.2804 1.0391
H6 H 0.2859 -0.3001 0.9312
C3 C 0.30994(12) -0.12952(13) 0.96370(11)
C4 C 0.24844(12) -0.08310(13) 0.88125(11)
H7 H 0.2634 -0.1279 0.8251
H8 H 0.1759 -0.0915 0.8931
C5 C 0.25727(11) 0.10745(13) 0.94334(11)
C6 C 0.28664(12) -0.05190(13) 1.04529(11)
H9 H 0.2149 -0.0601 1.0604
H10 H 0.3277 -0.0756 1.1004
C7 C 0.30754(12) 0.21883(13) 0.91901(12)
H11 H 0.3006 0.2732 0.9701
H12 H 0.2756 0.2503 0.8624
H13 H 0.3790 0.2052 0.9087
C8 C 0.14519(12) 0.12222(12) 0.95766(11)
C9 C 0.07099(12) 0.12675(12) 0.88443(11)
C10 C 0.08951(12) 0.12252(13) 0.78268(11)
C11 C 0.06909(14) 0.01422(15) 0.64452(12)
H14 H 0.1406 -0.0055 0.6360
H15 H 0.0538 0.0855 0.6100
C12 C 0.00249(13) -0.08065(14) 0.60968(12)
H16 H 0.0139 -0.1487 0.6482
H17 H 0.0181 -0.0982 0.5452
H18 H -0.0680 -0.0571 0.6128
C13 C 0.09111(11) 0.13580(12) 1.03517(11)
C14 C 0.11558(12) 0.14001(12) 1.13657(11)
H19 H 0.1736 0.0890 1.1501
H20 H 0.0576 0.1097 1.1702
C15 C 0.14094(12) 0.25990(13) 1.17436(11)
C16 C 0.05770(12) 0.34719(13) 1.16393(11)
C17 C -0.04117(13) 0.34283(15) 1.19049(12)
H21 H -0.0678 0.2760 1.2179
C18 C -0.10050(14) 0.43947(16) 1.17576(13)
H22 H -0.1684 0.4388 1.1943
C19 C -0.06228(15) 0.53676(16) 1.13454(14)
H23 H -0.1041 0.6020 1.1262
C20 C 0.03600(14) 0.53996(15) 1.10547(14)
H24 H 0.0621 0.6058 1.0760
C21 C 0.09507(13) 0.44366(13) 1.12088(12)
C22 C 0.20276(13) 0.42523(14) 1.10278(13)
C23 C 0.31897(13) 0.28302(14) 1.17617(12)
H25 H 0.3594 0.3520 1.1912
H26 H 0.3595 0.2299 1.1391
C24 C 0.28223(13) 0.22509(15) 1.26465(13)
H27 H 0.2933 0.1416 1.2619
H28 H 0.3187 0.2557 1.3202
N1 N -0.02030(10) 0.14061(11) 0.91393(9)
N2 N 0.22451(10) 0.31287(11) 1.12711(10)
O1 O 0.27101(8) 0.03538(9) 0.86536(7)
O2 O 0.30748(8) 0.06599(9) 1.02434(8)
O3 O 0.04988(9) 0.02951(9) 0.74327(8)
O4 O 0.13522(10) 0.19547(10) 0.74326(8)
O5 O 0.17600(8) 0.25034(10) 1.26846(8)
O6 O 0.26416(10) 0.49273(10) 1.07445(10)
O7 O -0.00808(8) 0.14704(9) 1.01126(8)
loop_
_geom_bond_atom_site_label_1
_geom_bond_atom_site_label_2
_geom_bond_site_symmetry_1
_geom_bond_site_symmetry_2
C1 H1 1_555 1_555
H2 C1 1_555 1_555
H3 C1 1_555 1_555
C2 H4 1_555 1_555
H5 C2 1_555 1_555
H6 C2 1_555 1_555
C3 C1 1_555 1_555
C4 C3 1_555 1_555
H7 C4 1_555 1_555
H8 C4 1_555 1_555
C5 C7 1_555 1_555
C6 C3 1_555 1_555
H9 C6 1_555 1_555
H10 C6 1_555 1_555
C7 H11 1_555 1_555
H12 C7 1_555 1_555
H13 C7 1_555 1_555
C8 C5 1_555 1_555
C9 C8 1_555 1_555
C10 C9 1_555 1_555
C11 H14 1_555 1_555
H15 C11 1_555 1_555
C12 C11 1_555 1_555
H16 C12 1_555 1_555
H17 C12 1_555 1_555
H18 C12 1_555 1_555
C13 C8 1_555 1_555
C14 C13 1_555 1_555
H19 C14 1_555 1_555
H20 C14 1_555 1_555
C15 C14 1_555 1_555
C16 C15 1_555 1_555
C17 C16 1_555 1_555
H21 C17 1_555 1_555
C18 C17 1_555 1_555
H22 C18 1_555 1_555
C19 C18 1_555 1_555
H23 C19 1_555 1_555
C20 C19 1_555 1_555
H24 C20 1_555 1_555
C21 C16 1_555 1_555
C22 C21 1_555 1_555
C23 H25 1_555 1_555
H26 C23 1_555 1_555
C24 C23 1_555 1_555
H27 C24 1_555 1_555
H28 C24 1_555 1_555
N1 C9 1_555 1_555
N2 C15 1_555 1_555
O1 C4 1_555 1_555
O2 C5 1_555 1_555
O3 C10 1_555 1_555
O4 C10 1_555 1_555
O5 C15 1_555 1_555
O6 C22 1_555 1_555
O7 C13 1_555 1_555
C2 C3 1_555 1_555
C5 O1 1_555 1_555
C6 O2 1_555 1_555
C11 O3 1_555 1_555
C20 C21 1_555 1_555
C22 N2 1_555 1_555
C23 N2 1_555 1_555
C24 O5 1_555 1_555
N1 O7 1_555 1_555

#END
