
#######################################################################
#
#                 Cambridge Crystallographic Data Centre
#                                CCDC 
#
#######################################################################
#
# If this CIF has been generated from an entry in the Cambridge 
# Structural Database, then it will include bibliographic, chemical, 
# crystal, experimental, refinement or atomic coordinate data resulting 
# from the CCDC's data processing and validation procedures.
#
#######################################################################

data_HAMRUJ
_chemical_formula_moiety         'C17 H20 O11'
_chemical_name_systematic        
'Prop-2-ynyl 1,2,3,4-tetra-O-acetyl-\b-D-glucopyranuronate'
_symmetry_cell_setting           orthorhombic
_symmetry_space_group_name_H-M   'P 21 21 21'
_symmetry_Int_Tables_number      19
_space_group_name_Hall           'P 2ac 2ab'
loop_
_symmetry_equiv_pos_site_id
_symmetry_equiv_pos_as_xyz
1 x,y,z
2 1/2-x,-y,1/2+z
3 -x,1/2+y,1/2-z
4 1/2+x,1/2-y,-z
_cell_length_a                   7.3827(9)
_cell_length_b                   14.1462(17)
_cell_length_c                   18.077(2)
_cell_angle_alpha                90
_cell_angle_beta                 90
_cell_angle_gamma                90
_cell_volume                     1887.91
_exptl_crystal_colour            colorless
_exptl_crystal_description       block
_chemical_melting_point          '411-414 K'
_cell_formula_units_Z            4
_exptl_crystal_recrystallization_method methanol
loop_
_atom_site_label
_atom_site_type_symbol
_atom_site_fract_x
_atom_site_fract_y
_atom_site_fract_z
C1 C 0.0064(3) 1.00963(16) 0.93421(13)
C2 C -0.1611(3) 0.94822(16) 0.92373(12)
C3 C -0.1027(3) 0.84919(15) 0.90109(12)
C4 C 0.0195(3) 0.85389(15) 0.83345(12)
C5 C 0.1796(3) 0.92061(15) 0.85013(12)
C6 C 0.0433(3) 1.15604(17) 0.99548(13)
C7 C 0.0172(4) 1.25967(18) 0.98348(14)
H1 H 0.1109 1.2833 0.9498
H2 H 0.0260 1.2928 1.0310
H3 H -0.1026 1.2709 0.9618
C8 C -0.4251(3) 0.98063(16) 0.99629(13)
C9 C -0.4906(4) 0.98225(19) 1.07479(14)
H4 H -0.6191 0.9995 1.0758
H5 H -0.4206 1.0288 1.1030
H6 H -0.4749 0.9195 1.0969
C10 C -0.3107(3) 0.72145(15) 0.92183(12)
C11 C -0.4656(3) 0.67130(18) 0.88600(13)
H7 H -0.4959 0.6147 0.9147
H8 H -0.4317 0.6529 0.8356
H9 H -0.5710 0.7134 0.8842
C12 C 0.1133(4) 0.73846(17) 0.74614(13)
C13 C 0.1709(4) 0.63751(18) 0.73854(15)
H10 H 0.2381 0.6295 0.6922
H11 H 0.0636 0.5967 0.7381
H12 H 0.2486 0.6203 0.7803
C14 C 0.2987(3) 0.93770(15) 0.78272(13)
C15 C 0.5268(4) 0.87318(19) 0.70812(15)
C16 C 0.6023(4) 0.78023(19) 0.69260(14)
C17 C 0.6639(4) 0.7059(2) 0.67766(16)
H13 H 0.078(5) 0.988(3) 0.9757(19)
H14 H -0.237(5) 0.978(2) 0.8858(18)
H15 H -0.043(5) 0.818(2) 0.9401(19)
H16 H -0.052(5) 0.876(2) 0.7931(18)
H17 H 0.246(5) 0.896(2) 0.8904(18)
H18 H 0.717(6) 0.647(3) 0.669(2)
H19 H 0.455(6) 0.893(3) 0.669(2)
H20 H 0.621(6) 0.916(3) 0.716(2)
O1 O 0.1082(2) 1.01106(10) 0.86807(9)
O2 O -0.0490(2) 1.10437(11) 0.94371(10)
O3 O 0.1332(3) 1.11985(13) 1.04263(10)
O4 O -0.2535(2) 0.94433(12) 0.99332(9)
O5 O -0.5058(2) 1.00743(13) 0.94303(10)
O6 O -0.2606(2) 0.79666(11) 0.87957(9)
O7 O -0.2381(3) 0.70042(13) 0.97888(9)
O8 O 0.0820(2) 0.75992(11) 0.81920(8)
O9 O 0.0940(3) 0.79447(14) 0.69743(10)
O10 O 0.2851(3) 1.00392(12) 0.74200(10)
O11 O 0.4191(2) 0.86743(12) 0.77535(9)
loop_
_geom_bond_atom_site_label_1
_geom_bond_atom_site_label_2
_geom_bond_site_symmetry_1
_geom_bond_site_symmetry_2
C1 C2 1_555 1_555
C2 C3 1_555 1_555
C3 C4 1_555 1_555
C4 C5 1_555 1_555
C5 C14 1_555 1_555
C6 C7 1_555 1_555
C7 H1 1_555 1_555
H2 C7 1_555 1_555
H3 C7 1_555 1_555
C8 C9 1_555 1_555
C9 H4 1_555 1_555
H5 C9 1_555 1_555
H6 C9 1_555 1_555
C10 C11 1_555 1_555
C11 H7 1_555 1_555
H8 C11 1_555 1_555
H9 C11 1_555 1_555
C12 C13 1_555 1_555
C13 H10 1_555 1_555
H11 C13 1_555 1_555
H12 C13 1_555 1_555
C14 O10 1_555 1_555
C15 C16 1_555 1_555
C16 C17 1_555 1_555
C17 H18 1_555 1_555
H13 C1 1_555 1_555
H14 C2 1_555 1_555
H15 C3 1_555 1_555
H16 C4 1_555 1_555
H17 C5 1_555 1_555
H19 C15 1_555 1_555
H20 C15 1_555 1_555
O1 C1 1_555 1_555
O2 C1 1_555 1_555
O3 C6 1_555 1_555
O4 C2 1_555 1_555
O5 C8 1_555 1_555
O6 C3 1_555 1_555
O7 C10 1_555 1_555
O8 C4 1_555 1_555
O9 C12 1_555 1_555
O11 C14 1_555 1_555
C5 O1 1_555 1_555
C6 O2 1_555 1_555
C8 O4 1_555 1_555
C10 O6 1_555 1_555
C12 O8 1_555 1_555
C15 O11 1_555 1_555

#END
