
#######################################################################
#
#                 Cambridge Crystallographic Data Centre
#                                CCDC 
#
#######################################################################
#
# If this CIF has been generated from an entry in the Cambridge 
# Structural Database, then it will include bibliographic, chemical, 
# crystal, experimental, refinement or atomic coordinate data resulting 
# from the CCDC's data processing and validation procedures.
#
#######################################################################

data_HAMRAP
_chemical_formula_moiety         'C14 H20 O4'
_chemical_name_systematic        
7b-t-Butyl-1a,2,5,6-tetrahydro-2-hydroxy-2-methyl-4H-oxireno(2,3-h)chromen-3(7bH)-one
_symmetry_cell_setting           monoclinic
_symmetry_space_group_name_H-M   'P 21/n'
_symmetry_Int_Tables_number      14
_space_group_name_Hall           '-P 2yn'
loop_
_symmetry_equiv_pos_site_id
_symmetry_equiv_pos_as_xyz
1 x,y,z
2 1/2+x,1/2-y,1/2+z
3 -x,-y,-z
4 1/2-x,1/2+y,1/2-z
_cell_length_a                   10.204(3)
_cell_length_b                   8.775(3)
_cell_length_c                   15.128(4)
_cell_angle_alpha                90
_cell_angle_beta                 99.132(5)
_cell_angle_gamma                90
_cell_volume                     1337.39
_exptl_crystal_colour            colorless
_exptl_crystal_description       prism
_cell_formula_units_Z            4
_exptl_crystal_recrystallization_method 'diethyl ether-petroleum ether'
loop_
_atom_site_label
_atom_site_type_symbol
_atom_site_fract_x
_atom_site_fract_y
_atom_site_fract_z
O1 O 0.31391(14) 0.29533(19) 0.19263(10)
O2 O 0.42617(16) 0.1675(2) 0.49609(11)
O3 O 0.68593(16) 0.1316(2) 0.48149(11)
H1 H 0.6492 0.0483 0.4804
O4 O 0.57948(14) 0.07745(17) 0.28175(9)
C1 C 0.1818(2) 0.3448(4) 0.20396(19)
H2 H 0.1228 0.3354 0.1473
H3 H 0.1849 0.4514 0.2211
C2 C 0.1290(2) 0.2561(4) 0.27148(19)
H4 H 0.1186 0.1509 0.2519
H5 H 0.0421 0.2950 0.2780
C3 C 0.2194(2) 0.2625(3) 0.36164(16)
H6 H 0.2047 0.3571 0.3917
H7 H 0.1985 0.1788 0.3989
C4 C 0.3631(2) 0.2522(2) 0.34885(14)
C5 C 0.39931(19) 0.2627(2) 0.26708(13)
C6 C 0.53703(19) 0.2292(2) 0.24843(13)
C7 C 0.6367(2) 0.2089(2) 0.32919(14)
H8 H 0.7283 0.2314 0.3214
C8 C 0.6069(2) 0.2329(3) 0.42219(14)
C9 C 0.4600(2) 0.2123(2) 0.42637(14)
C10 C 0.5784(2) 0.2706(3) 0.15786(14)
C11 C 0.5501(3) 0.4387(3) 0.13670(18)
H9 H 0.4559 0.4546 0.1237
H10 H 0.5898 0.4676 0.0857
H11 H 0.5868 0.4996 0.1874
C12 C 0.5049(3) 0.1668(3) 0.08464(16)
H12 H 0.5241 0.0622 0.1002
H13 H 0.5335 0.1892 0.0286
H14 H 0.4111 0.1841 0.0794
C13 C 0.7279(2) 0.2445(3) 0.16088(16)
H15 H 0.7767 0.3173 0.2005
H16 H 0.7499 0.2565 0.1019
H17 H 0.7506 0.1433 0.1821
C14 C 0.6464(3) 0.3939(3) 0.45258(17)
H18 H 0.6338 0.4071 0.5137
H19 H 0.5924 0.4658 0.4153
H20 H 0.7381 0.4104 0.4480
loop_
_geom_bond_atom_site_label_1
_geom_bond_atom_site_label_2
_geom_bond_site_symmetry_1
_geom_bond_site_symmetry_2
O1 C1 1_555 1_555
O2 C9 1_555 1_555
O3 H1 1_555 1_555
O4 C6 1_555 1_555
C1 H2 1_555 1_555
H3 C1 1_555 1_555
C2 C1 1_555 1_555
H4 C2 1_555 1_555
H5 C2 1_555 1_555
C3 C2 1_555 1_555
H6 C3 1_555 1_555
H7 C3 1_555 1_555
C4 C3 1_555 1_555
C5 O1 1_555 1_555
C6 C5 1_555 1_555
C7 O4 1_555 1_555
H8 C7 1_555 1_555
C8 O3 1_555 1_555
C9 C4 1_555 1_555
C10 C6 1_555 1_555
C11 C10 1_555 1_555
H9 C11 1_555 1_555
H10 C11 1_555 1_555
H11 C11 1_555 1_555
C12 C10 1_555 1_555
H12 C12 1_555 1_555
H13 C12 1_555 1_555
H14 C12 1_555 1_555
C13 C10 1_555 1_555
H15 C13 1_555 1_555
H16 C13 1_555 1_555
H17 C13 1_555 1_555
C14 C8 1_555 1_555
H18 C14 1_555 1_555
H19 C14 1_555 1_555
H20 C14 1_555 1_555
C4 C5 1_555 1_555
C6 C7 1_555 1_555
C7 C8 1_555 1_555
C8 C9 1_555 1_555

#END
