
#######################################################################
#
#                 Cambridge Crystallographic Data Centre
#                                CCDC 
#
#######################################################################
#
# If this CIF has been generated from an entry in the Cambridge 
# Structural Database, then it will include bibliographic, chemical, 
# crystal, experimental, refinement or atomic coordinate data resulting 
# from the CCDC's data processing and validation procedures.
#
#######################################################################

data_HAMSEW
_chemical_formula_moiety         'C24 H21 N4 1+,Cl1 1-'
_chemical_name_systematic        
'2-methyl-1,3-bis(quinolin-2-ylmethyl)-1H-imidazol-3-ium chloride'
_chemical_properties_biological  
'evaluated for anti-cancer properties against NSCLC to establish a SAR'
_symmetry_cell_setting           triclinic
_symmetry_space_group_name_H-M   'P -1'
_symmetry_Int_Tables_number      2
_space_group_name_Hall           '-P 1'
loop_
_symmetry_equiv_pos_site_id
_symmetry_equiv_pos_as_xyz
1 x,y,z
2 -x,-y,-z
_cell_length_a                   7.2134(12)
_cell_length_b                   11.3725(19)
_cell_length_c                   12.465(2)
_cell_angle_alpha                70.199(2)
_cell_angle_beta                 79.785(2)
_cell_angle_gamma                81.710(2)
_cell_volume                     942.936
_exptl_crystal_colour            colorless
_exptl_crystal_description       plate
_chemical_melting_point          '265-268 deg.C'
_cell_formula_units_Z            2
loop_
_atom_site_label
_atom_site_type_symbol
_atom_site_fract_x
_atom_site_fract_y
_atom_site_fract_z
Cl1 Cl 0.56810(9) 0.60422(6) 0.75256(6)
N1 N 0.0158(3) 0.3000(2) 0.09158(18)
N2 N 0.0354(3) 0.4030(2) -0.08964(18)
N3 N 0.1413(3) 0.0185(2) 0.32654(18)
N4 N 0.2219(3) 0.2386(2) -0.19762(18)
C1 C 0.1377(4) 0.3427(2) -0.0043(2)
C2 C -0.1683(4) 0.3336(3) 0.0650(2)
H1 H -0.2791 0.3155 0.1161
C3 C -0.1560(4) 0.3966(3) -0.0472(2)
H2 H -0.2564 0.4300 -0.0893
C4 C 0.0625(4) 0.2238(2) 0.2056(2)
H3 H -0.0449 0.2319 0.2625
H4 H 0.1678 0.2571 0.2209
C5 C 0.1140(4) 0.0858(2) 0.2205(2)
C6 C 0.1366(4) 0.0358(2) 0.1290(2)
H5 H 0.1119 0.0867 0.0560
C7 C 0.1953(4) -0.0884(3) 0.1498(2)
H6 H 0.2100 -0.1234 0.0910
C8 C 0.2335(4) -0.1635(2) 0.2611(2)
C9 C 0.3038(4) -0.2916(3) 0.2893(2)
H7 H 0.3252 -0.3306 0.2330
C10 C 0.3402(4) -0.3583(3) 0.3982(2)
H8 H 0.3892 -0.4418 0.4152
C11 C 0.3040(4) -0.3015(3) 0.4849(2)
H9 H 0.3286 -0.3480 0.5590
C12 C 0.2331(4) -0.1786(3) 0.4613(2)
H10 H 0.2067 -0.1426 0.5197
C13 C 0.1999(3) -0.1063(2) 0.3484(2)
C14 C 0.1069(4) 0.4519(2) -0.2116(2)
H11 H 0.2169 0.4964 -0.2212
H12 H 0.0108 0.5113 -0.2513
C15 C 0.1602(3) 0.3485(2) -0.2650(2)
C16 C 0.1476(4) 0.3752(3) -0.3829(2)
H13 H 0.1049 0.4551 -0.4271
C17 C 0.1992(4) 0.2818(3) -0.4308(2)
H14 H 0.1917 0.2974 -0.5082
C18 C 0.2640(3) 0.1614(2) -0.3621(2)
C19 C 0.3173(4) 0.0582(3) -0.4037(2)
H15 H 0.3039 0.0669 -0.4789
C20 C 0.3881(4) -0.0538(3) -0.3340(2)
H16 H 0.4238 -0.1209 -0.3622
C21 C 0.4077(4) -0.0687(3) -0.2198(2)
H17 H 0.4596 -0.1449 -0.1739
C22 C 0.3515(4) 0.0275(2) -0.1755(2)
H18 H 0.3622 0.0158 -0.0993
C23 C 0.2767(3) 0.1449(2) -0.2457(2)
C24 C 0.3448(4) 0.3292(3) -0.0117(2)
H19 H 0.3795 0.3398 0.0552
H20 H 0.3972 0.3918 -0.0795
H21 H 0.3929 0.2473 -0.0154
loop_
_geom_bond_atom_site_label_1
_geom_bond_atom_site_label_2
_geom_bond_site_symmetry_1
_geom_bond_site_symmetry_2
N1 C1 1_555 1_555
N2 C1 1_555 1_555
N3 C5 1_555 1_555
N4 C15 1_555 1_555
C1 C24 1_555 1_555
C2 N1 1_555 1_555
H1 C2 1_555 1_555
C3 N2 1_555 1_555
H2 C3 1_555 1_555
C4 N1 1_555 1_555
H3 C4 1_555 1_555
H4 C4 1_555 1_555
C5 C4 1_555 1_555
C6 C5 1_555 1_555
H5 C6 1_555 1_555
C7 C6 1_555 1_555
H6 C7 1_555 1_555
C8 C7 1_555 1_555
C9 C8 1_555 1_555
H7 C9 1_555 1_555
C10 C9 1_555 1_555
H8 C10 1_555 1_555
C11 C10 1_555 1_555
H9 C11 1_555 1_555
C12 C11 1_555 1_555
H10 C12 1_555 1_555
C13 N3 1_555 1_555
C14 N2 1_555 1_555
H11 C14 1_555 1_555
H12 C14 1_555 1_555
C15 C14 1_555 1_555
C16 C15 1_555 1_555
H13 C16 1_555 1_555
C17 C16 1_555 1_555
H14 C17 1_555 1_555
C18 C17 1_555 1_555
C19 C18 1_555 1_555
H15 C19 1_555 1_555
C20 C19 1_555 1_555
H16 C20 1_555 1_555
C21 C20 1_555 1_555
H17 C21 1_555 1_555
C22 C21 1_555 1_555
H18 C22 1_555 1_555
C23 N4 1_555 1_555
C24 H19 1_555 1_555
H20 C24 1_555 1_555
H21 C24 1_555 1_555
C2 C3 1_555 1_555
C8 C13 1_555 1_555
C12 C13 1_555 1_555
C18 C23 1_555 1_555
C22 C23 1_555 1_555

#END
