
#######################################################################
#
#                 Cambridge Crystallographic Data Centre
#                                CCDC 
#
#######################################################################
#
# If this CIF has been generated from an entry in the Cambridge 
# Structural Database, then it will include bibliographic, chemical, 
# crystal, experimental, refinement or atomic coordinate data resulting 
# from the CCDC's data processing and validation procedures.
#
#######################################################################

data_HAMTIZ
_chemical_formula_moiety         'C9 H9 N3 O5'
_chemical_name_systematic        2-Acetamido-4,5-dinitrotoluene
_symmetry_cell_setting           monoclinic
_symmetry_space_group_name_H-M   'P 21/n'
_symmetry_Int_Tables_number      14
_space_group_name_Hall           '-P 2yn'
loop_
_symmetry_equiv_pos_site_id
_symmetry_equiv_pos_as_xyz
1 x,y,z
2 1/2-x,1/2+y,1/2-z
3 -x,-y,-z
4 1/2+x,1/2-y,1/2+z
_cell_length_a                   12.5693(4)
_cell_length_b                   4.85310(10)
_cell_length_c                   17.2663(5)
_cell_angle_alpha                90
_cell_angle_beta                 99.1624(15)
_cell_angle_gamma                90
_cell_volume                     1039.81
_exptl_crystal_colour            'pale yellow'
_exptl_crystal_description       lath
_cell_formula_units_Z            4
_exptl_crystal_recrystallization_method ethanol
loop_
_atom_site_label
_atom_site_type_symbol
_atom_site_fract_x
_atom_site_fract_y
_atom_site_fract_z
C1 C -0.11506(10) 0.5271(3) 0.17555(8)
C2 C -0.07828(10) 0.4023(3) 0.11195(7)
C3 C 0.00466(11) 0.2129(3) 0.12487(8)
C4 C 0.05362(10) 0.1462(3) 0.20090(8)
C5 C 0.01694(10) 0.2778(3) 0.26388(8)
C6 C -0.06721(10) 0.4688(3) 0.25086(8)
N1 N 0.06289(9) 0.2109(3) 0.34133(6)
C7 C 0.08507(11) 0.3977(3) 0.40072(8)
O1 O 0.07499(9) 0.6455(2) 0.38929(6)
C8 C 0.12180(13) 0.2780(3) 0.48059(9)
C9 C 0.14477(11) -0.0576(3) 0.21299(9)
N2 N -0.11868(9) 0.4843(2) 0.03128(6)
O2 O -0.10806(9) 0.3212(2) -0.02157(6)
O3 O -0.15783(9) 0.7153(2) 0.02014(6)
N3 N -0.21145(9) 0.7037(2) 0.16568(6)
O4 O -0.20321(8) 0.9276(2) 0.19842(6)
O5 O -0.29429(8) 0.6111(2) 0.12828(6)
H1 H 0.0726(13) 0.038(4) 0.3533(10)
H2 H 0.0307(9) 0.134(2) 0.0806(7)
H3 H -0.0945(9) 0.553(2) 0.2935(7)
H4 H 0.1484(12) 0.093(3) 0.4774(9)
H5 H 0.0593(11) 0.272(3) 0.5080(9)
H6 H 0.1738(11) 0.394(3) 0.5115(9)
H7 H 0.1765(12) -0.086(3) 0.1679(8)
H8 H 0.2010(11) 0.004(3) 0.2535(8)
H9 H 0.1236(12) -0.233(3) 0.2305(9)
loop_
_geom_bond_atom_site_label_1
_geom_bond_atom_site_label_2
_geom_bond_site_symmetry_1
_geom_bond_site_symmetry_2
C1 C2 1_555 1_555
C2 C3 1_555 1_555
C3 C4 1_555 1_555
C4 C5 1_555 1_555
C5 C6 1_555 1_555
C6 C1 1_555 1_555
N1 C5 1_555 1_555
C7 N1 1_555 1_555
O1 C7 1_555 1_555
C8 C7 1_555 1_555
C9 C4 1_555 1_555
N2 C2 1_555 1_555
O2 N2 1_555 1_555
O3 N2 1_555 1_555
N3 C1 1_555 1_555
O4 N3 1_555 1_555
O5 N3 1_555 1_555
H1 N1 1_555 1_555
H2 C3 1_555 1_555
H3 C6 1_555 1_555
H4 C8 1_555 1_555
H5 C8 1_555 1_555
H6 C8 1_555 1_555
H7 C9 1_555 1_555
H8 C9 1_555 1_555
H9 C9 1_555 1_555

#END
