
#######################################################################
#
#                 Cambridge Crystallographic Data Centre
#                                CCDC 
#
#######################################################################
#
# If this CIF has been generated from an entry in the Cambridge 
# Structural Database, then it will include bibliographic, chemical, 
# crystal, experimental, refinement or atomic coordinate data resulting 
# from the CCDC's data processing and validation procedures.
#
#######################################################################

data_HAMWAV
_chemical_formula_moiety         'C18 H20 N4 O1 2+,2(C7 H4 N1 O5 1-)'
_chemical_name_systematic        
'1,5-bis(Benzimidazol-3-ium-1-yl)-3-oxapentane bis(2-hydroxy-5-nitrobenzoate)'
_symmetry_cell_setting           monoclinic
_symmetry_space_group_name_H-M   'C 2'
_symmetry_Int_Tables_number      5
_space_group_name_Hall           'C 2y'
loop_
_symmetry_equiv_pos_site_id
_symmetry_equiv_pos_as_xyz
1 x,y,z
2 -x,y,-z
3 1/2+x,1/2+y,z
4 1/2-x,1/2+y,-z
_cell_length_a                   29.602(3)
_cell_length_b                   6.3885(7)
_cell_length_c                   7.8276(7)
_cell_angle_alpha                90
_cell_angle_beta                 90.832(1)
_cell_angle_gamma                90
_cell_volume                     1480.14
_exptl_crystal_colour            red
_exptl_crystal_description       block
_chemical_melting_point          '206-209 deg.C'
_cell_formula_units_Z            2
loop_
_atom_site_label
_atom_site_type_symbol
_atom_site_fract_x
_atom_site_fract_y
_atom_site_fract_z
N1 N 0.07371(19) 0.4304(9) 0.7985(7)
N2 N 0.10553(18) 0.1802(10) 0.9267(7)
H1 H 0.1088 0.0624 0.9786
O1 O 0.0000 0.5658(11) 1.0000
C1 C 0.0357(2) 0.5546(13) 0.7348(9)
H3 H 0.0124 0.4613 0.6917
H4 H 0.0457 0.6405 0.6404
C2 C 0.0165(2) 0.6904(12) 0.8667(9)
H5 H 0.0396 0.7849 0.9107
H6 H -0.0078 0.7737 0.8177
C3 C 0.0672(3) 0.2506(12) 0.8756(10)
H7 H 0.0394 0.1855 0.8905
C4 C 0.1398(2) 0.3073(12) 0.8917(9)
C5 C 0.1194(2) 0.4863(11) 0.8035(8)
C6 C 0.1415(2) 0.6640(12) 0.7412(8)
H8 H 0.1256 0.7701 0.6854
C7 C 0.1881(2) 0.6757(15) 0.7660(9)
H9 H 0.2051 0.7890 0.7291
C8 C 0.2096(2) 0.4847(14) 0.8604(9)
H10 H 0.2405 0.4828 0.8840
C9 C 0.1836(3) 0.3212(15) 0.9084(9)
H11 H 0.1984 0.2076 0.9581
N1A N -0.07371(19) 0.4304(9) 1.2015(7)
N2A N -0.10553(18) 0.1802(10) 1.0733(7)
H1A H -0.1088 0.0624 1.0214
C1A C -0.0357(2) 0.5546(13) 1.2652(9)
H3A H -0.0124 0.4613 1.3083
H4A H -0.0457 0.6405 1.3596
C2A C -0.0165(2) 0.6904(12) 1.1333(9)
H5A H -0.0396 0.7849 1.0893
H6A H 0.0078 0.7737 1.1823
C3A C -0.0672(3) 0.2506(12) 1.1244(10)
H7A H -0.0394 0.1855 1.1095
C4A C -0.1398(2) 0.3073(12) 1.1083(9)
C5A C -0.1194(2) 0.4863(11) 1.1965(8)
C6A C -0.1415(2) 0.6640(12) 1.2588(8)
H8A H -0.1256 0.7701 1.3146
C7A C -0.1881(2) 0.6757(15) 1.2340(9)
H9A H -0.2051 0.7890 1.2709
C8A C -0.2096(2) 0.4847(14) 1.1396(9)
H10A H -0.2405 0.4828 1.1160
C9A C -0.1836(3) 0.3212(15) 1.0916(9)
H11A H -0.1984 0.2076 1.0419
N3 N 0.06850(17) 0.1303(9) 0.3958(7)
O2 O 0.10361(14) 0.8334(7) 0.1177(5)
O3 O 0.17753(15) 0.8740(7) 0.1573(6)
O4 O 0.22270(12) 0.6121(8) 0.3241(6)
H2 H 0.2171 0.7193 0.2704
O5 O 0.06981(15) -0.0207(9) 0.4946(6)
O6 O 0.03448(13) 0.1692(9) 0.3078(7)
C10 C 0.1413(2) 0.7745(10) 0.1756(7)
C11 C 0.14327(17) 0.5722(10) 0.2725(7)
C12 C 0.18464(19) 0.4999(10) 0.3417(7)
C13 C 0.18678(19) 0.3101(11) 0.4293(7)
H12 H 0.2143 0.2629 0.4734
C14 C 0.14885(17) 0.1935(10) 0.4505(7)
H13 H 0.1501 0.0692 0.5123
C15 C 0.10817(17) 0.2618(9) 0.3790(7)
C16 C 0.10509(18) 0.4489(9) 0.2924(7)
H14 H 0.0774 0.4928 0.2474
loop_
_geom_bond_atom_site_label_1
_geom_bond_atom_site_label_2
_geom_bond_site_symmetry_1
_geom_bond_site_symmetry_2
N1 C1 1_555 1_555
N2 H1 1_555 1_555
N3 O5 1_555 1_555
O1 C2 1_555 1_555
O2 C10 1_555 1_555
O3 C10 1_555 1_555
O4 H2 1_555 1_555
O6 N3 1_555 1_555
C1 H3 1_555 1_555
H4 C1 1_555 1_555
C2 C1 1_555 1_555
H5 C2 1_555 1_555
H6 C2 1_555 1_555
C3 N1 1_555 1_555
H7 C3 1_555 1_555
C4 N2 1_555 1_555
C5 N1 1_555 1_555
C6 C5 1_555 1_555
H8 C6 1_555 1_555
C7 C6 1_555 1_555
H9 C7 1_555 1_555
C8 C7 1_555 1_555
H10 C8 1_555 1_555
C9 C4 1_555 1_555
H11 C9 1_555 1_555
C10 C11 1_555 1_555
C11 C12 1_555 1_555
C12 O4 1_555 1_555
C13 C12 1_555 1_555
H12 C13 1_555 1_555
C14 C13 1_555 1_555
H13 C14 1_555 1_555
C15 N3 1_555 1_555
C16 C11 1_555 1_555
H14 C16 1_555 1_555
N1A C1A 1_555 1_555
N2A H1A 1_555 1_555
C1A H3A 1_555 1_555
H4A C1A 1_555 1_555
C2A O1 1_555 1_555
H5A C2A 1_555 1_555
H6A C2A 1_555 1_555
C3A N1A 1_555 1_555
H7A C3A 1_555 1_555
C4A N2A 1_555 1_555
C5A N1A 1_555 1_555
C6A C5A 1_555 1_555
H8A C6A 1_555 1_555
C7A C6A 1_555 1_555
H9A C7A 1_555 1_555
C8A C7A 1_555 1_555
H10A C8A 1_555 1_555
C9A C4A 1_555 1_555
H11A C9A 1_555 1_555
N2 C3 1_555 1_555
C4 C5 1_555 1_555
C8 C9 1_555 1_555
C14 C15 1_555 1_555
C15 C16 1_555 1_555
N2A C3A 1_555 1_555
C1A C2A 1_555 1_555
C4A C5A 1_555 1_555
C8A C9A 1_555 1_555

#END
