
#######################################################################
#
#                 Cambridge Crystallographic Data Centre
#                                CCDC 
#
#######################################################################
#
# If this CIF has been generated from an entry in the Cambridge 
# Structural Database, then it will include bibliographic, chemical, 
# crystal, experimental, refinement or atomic coordinate data resulting 
# from the CCDC's data processing and validation procedures.
#
#######################################################################

data_HAMWUP
_chemical_formula_moiety         'C25 H31 Br1 N2 O8'
_chemical_name_systematic        
7-(3-Bromophenyl)-11-(5,6-dimethoxy-5,6-dimethyl-1,4-dioxan-2-yl)-2,4-dimethyl-2,4-diazaspiro[5.5]undecane-1,3,5,9-tetrone
_symmetry_cell_setting           orthorhombic
_symmetry_space_group_name_H-M   'P 21 21 21'
_symmetry_Int_Tables_number      19
_space_group_name_Hall           'P 2ac 2ab'
loop_
_symmetry_equiv_pos_site_id
_symmetry_equiv_pos_as_xyz
1 x,y,z
2 1/2-x,-y,1/2+z
3 -x,1/2+y,1/2-z
4 1/2+x,1/2-y,-z
_cell_length_a                   10.5256(2)
_cell_length_b                   12.1392(2)
_cell_length_c                   20.3601(3)
_cell_angle_alpha                90
_cell_angle_beta                 90
_cell_angle_gamma                90
_cell_volume                     2601.46
_exptl_crystal_colour            colorless
_exptl_crystal_description       block
_cell_formula_units_Z            4
loop_
_atom_site_label
_atom_site_type_symbol
_atom_site_fract_x
_atom_site_fract_y
_atom_site_fract_z
C1 C 0.3255(3) 0.9992(3) 1.07633(18)
C2 C 0.3396(3) 0.8580(3) 0.98454(17)
H1 H 0.4029 0.8146 1.0104
C3 C 0.4095(4) 1.0780(3) 1.03885(18)
H2 H 0.4635 1.1190 1.0703
H3 H 0.3556 1.1321 1.0154
C4 C 0.2551(3) 0.9160(3) 1.03544(17)
H4 H 0.1846 0.9535 1.0123
H5 H 0.2176 0.8599 1.0649
C5 C 0.4941(3) 1.0187(3) 0.98933(17)
H6 H 0.5517 0.9704 1.0156
O1 O 0.4629(3) 0.9365(2) 0.74009(11)
O2 O 0.2488(2) 1.0620(2) 0.91720(12)
O3 O 0.5963(2) 0.8176(2) 0.93724(12)
O4 O 0.1496(2) 0.7789(2) 0.78808(12)
O5 O 0.2797(3) 0.5622(2) 0.88468(12)
O6 O 0.3100(3) 1.0059(2) 1.13512(12)
C6 C 0.4009(4) 0.5243(3) 0.9076(2)
H7 H 0.4414 0.5823 0.9337
H8 H 0.4549 0.5063 0.8699
H9 H 0.3891 0.4585 0.9348
C7 C 0.0741(4) 0.5889(3) 0.80045(19)
H10 H 0.1075 0.5756 0.7562
H11 H -0.0171 0.6046 0.7978
H12 H 0.0878 0.5234 0.8277
C8 C 0.0300(4) 0.8194(3) 0.76540(19)
H13 H -0.0246 0.8359 0.8031
H14 H -0.0108 0.7635 0.7378
H15 H 0.0433 0.8866 0.7397
C9 C 0.3680(4) 0.6547(3) 0.78780(17)
H16 H 0.4549 0.6371 0.8014
H17 H 0.3674 0.7254 0.7646
H18 H 0.3363 0.5968 0.7585
C10 C 0.2631(4) 1.0568(3) 0.78695(19)
H19 H 0.2755 1.1364 0.7918
H20 H 0.1764 1.0374 0.8000
H21 H 0.2768 1.0358 0.7410
C11 C 0.6530(4) 0.8400(4) 0.8100(2)
H22 H 0.6387 0.7603 0.8074
H23 H 0.7290 0.8546 0.8364
H24 H 0.6650 0.8696 0.7656
Br1 Br 0.96407(4) 1.10468(3) 0.90643(2)
O7 O 0.0744(2) 0.71424(19) 0.88882(11)
N1 N 0.5425(3) 0.8929(2) 0.84066(13)
O8 O 0.3343(2) 0.74788(18) 0.88703(11)
C12 C 0.3336(3) 1.0051(3) 0.89572(17)
N2 N 0.3543(3) 0.9979(2) 0.82896(14)
C13 C 0.5793(3) 1.0965(3) 0.95188(16)
C14 C 0.1299(3) 0.8044(3) 0.92402(17)
H25 H 0.0775 0.8219 0.9630
H26 H 0.1330 0.8704 0.8956
C15 C 0.7870(3) 1.1388(3) 0.90990(18)
C16 C 0.4533(4) 0.9414(3) 0.79916(16)
C17 C 0.2624(3) 0.7731(3) 0.94518(17)
H27 H 0.2564 0.7044 0.9721
C18 C 0.6145(4) 1.2555(3) 0.88249(17)
H28 H 0.5816 1.3183 0.8605
C19 C 0.7430(4) 1.2300(3) 0.87660(17)
H29 H 0.7983 1.2738 0.8506
C20 C 0.1425(4) 0.6868(3) 0.83092(17)
C21 C 0.7083(3) 1.0720(3) 0.94664(17)
H30 H 0.7420 1.0093 0.9684
C22 C 0.2837(4) 0.6620(3) 0.84766(17)
C23 C 0.5347(4) 1.1909(3) 0.91968(15)
H31 H 0.4477 1.2106 0.9236
C24 C 0.5247(3) 0.8758(3) 0.90691(16)
C25 C 0.4191(3) 0.9396(3) 0.94138(16)
loop_
_geom_bond_atom_site_label_1
_geom_bond_atom_site_label_2
_geom_bond_site_symmetry_1
_geom_bond_site_symmetry_2
C1 C3 1_555 1_555
C2 H1 1_555 1_555
C3 H2 1_555 1_555
H3 C3 1_555 1_555
C4 C1 1_555 1_555
H4 C4 1_555 1_555
H5 C4 1_555 1_555
C5 C3 1_555 1_555
H6 C5 1_555 1_555
O1 C16 1_555 1_555
O2 C12 1_555 1_555
O3 C24 1_555 1_555
O4 C8 1_555 1_555
O5 C6 1_555 1_555
O6 C1 1_555 1_555
C6 H7 1_555 1_555
H8 C6 1_555 1_555
H9 C6 1_555 1_555
C7 H10 1_555 1_555
H11 C7 1_555 1_555
H12 C7 1_555 1_555
C8 H13 1_555 1_555
H14 C8 1_555 1_555
H15 C8 1_555 1_555
C9 H16 1_555 1_555
H17 C9 1_555 1_555
H18 C9 1_555 1_555
C10 H19 1_555 1_555
H20 C10 1_555 1_555
H21 C10 1_555 1_555
C11 H22 1_555 1_555
H23 C11 1_555 1_555
H24 C11 1_555 1_555
Br1 C15 1_555 1_555
O7 C14 1_555 1_555
N1 C11 1_555 1_555
O8 C17 1_555 1_555
C12 N2 1_555 1_555
N2 C10 1_555 1_555
C13 C5 1_555 1_555
C14 H25 1_555 1_555
H26 C14 1_555 1_555
C15 C19 1_555 1_555
C16 N1 1_555 1_555
C17 C2 1_555 1_555
H27 C17 1_555 1_555
C18 H28 1_555 1_555
C19 C18 1_555 1_555
H29 C19 1_555 1_555
C20 O4 1_555 1_555
C21 C13 1_555 1_555
H30 C21 1_555 1_555
C22 O5 1_555 1_555
C23 C13 1_555 1_555
H31 C23 1_555 1_555
C24 N1 1_555 1_555
C25 C2 1_555 1_555
C2 C4 1_555 1_555
C5 C25 1_555 1_555
C7 C20 1_555 1_555
C9 C22 1_555 1_555
O7 C20 1_555 1_555
O8 C22 1_555 1_555
C12 C25 1_555 1_555
N2 C16 1_555 1_555
C14 C17 1_555 1_555
C15 C21 1_555 1_555
C18 C23 1_555 1_555
C20 C22 1_555 1_555
C24 C25 1_555 1_555

#END
