
#######################################################################
#
#                 Cambridge Crystallographic Data Centre
#                                CCDC 
#
#######################################################################
#
# If this CIF has been generated from an entry in the Cambridge 
# Structural Database, then it will include bibliographic, chemical, 
# crystal, experimental, refinement or atomic coordinate data resulting 
# from the CCDC's data processing and validation procedures.
#
#######################################################################

data_HAMWOJ
_chemical_formula_moiety         'C7 H10 N4 2+,C7 H4 O6 S1 2-'
_chemical_name_systematic        
'bis(1H-Imidazol-3-ium-1-yl)methane 2-hydroxy-5-sulfonatobenzoate'
_symmetry_cell_setting           orthorhombic
_symmetry_space_group_name_H-M   'P 21 21 21'
_symmetry_Int_Tables_number      19
_space_group_name_Hall           'P 2ac 2ab'
loop_
_symmetry_equiv_pos_site_id
_symmetry_equiv_pos_as_xyz
1 x,y,z
2 1/2-x,-y,1/2+z
3 -x,1/2+y,1/2-z
4 1/2+x,1/2-y,-z
_cell_length_a                   9.2099(11)
_cell_length_b                   10.0436(13)
_cell_length_c                   16.7967(16)
_cell_angle_alpha                90
_cell_angle_beta                 90
_cell_angle_gamma                90
_cell_volume                     1553.7
_exptl_crystal_colour            colorless
_exptl_crystal_description       block
_chemical_melting_point          '112-114 deg.C'
_cell_formula_units_Z            4
loop_
_atom_site_label
_atom_site_type_symbol
_atom_site_fract_x
_atom_site_fract_y
_atom_site_fract_z
N1 N 0.2426(3) 0.2919(2) 0.11161(13)
N2 N 0.3227(3) 0.4692(3) 0.16604(14)
H1 H 0.3805 0.5262 0.1875
N3 N 0.2407(3) 0.0557(2) 0.12885(13)
N4 N 0.3147(4) -0.1199(3) 0.18680(18)
H2 H 0.3685 -0.1862 0.2003
C1 C 0.2382(4) 0.1650(3) 0.07209(16)
H4 H 0.3209 0.1575 0.0366
H5 H 0.1506 0.1594 0.0402
C2 C 0.3609(4) 0.3521(3) 0.13886(17)
H6 H 0.4545 0.3173 0.1387
C3 C 0.1783(4) 0.4869(3) 0.15519(19)
H7 H 0.1248 0.5618 0.1692
C4 C 0.1269(4) 0.3769(3) 0.12060(19)
H8 H 0.0313 0.3609 0.1055
C5 C 0.3483(4) -0.0302(3) 0.1336(2)
H9 H 0.4336 -0.0276 0.1040
C6 C 0.1827(4) -0.0924(4) 0.2174(2)
H10 H 0.1342 -0.1412 0.2562
C7 C 0.1343(4) 0.0183(3) 0.18158(19)
H11 H 0.0463 0.0612 0.1906
O1 O 0.5161(2) 0.6721(2) 0.19933(13)
O2 O 0.6378(2) 0.5077(2) 0.14118(13)
O3 O 0.8492(3) 0.5505(2) 0.05405(13)
H3 H 0.7892 0.5079 0.0796
O4 O 0.8756(2) 1.1905(2) 0.06182(12)
O5 O 0.6197(2) 1.1528(2) 0.08130(14)
O6 O 0.7856(3) 1.14544(19) 0.19248(11)
S1 S 0.76519(9) 1.12484(8) 0.10846(4)
C8 C 0.6200(4) 0.6290(3) 0.15692(18)
C9 C 0.7222(3) 0.7257(3) 0.12020(15)
C10 C 0.8307(4) 0.6807(3) 0.06789(18)
C11 C 0.9168(4) 0.7720(4) 0.0291(2)
H12 H 0.9889 0.7421 -0.0054
C12 C 0.8982(4) 0.9060(3) 0.04022(18)
H13 H 0.9564 0.9659 0.0125
C13 C 0.7933(3) 0.9532(3) 0.09246(16)
C14 C 0.7094(3) 0.8616(3) 0.13265(15)
H14 H 0.6417 0.8921 0.1695
loop_
_geom_bond_atom_site_label_1
_geom_bond_atom_site_label_2
_geom_bond_site_symmetry_1
_geom_bond_site_symmetry_2
N1 C1 1_555 1_555
N2 H1 1_555 1_555
N3 C1 1_555 1_555
N4 H2 1_555 1_555
O1 C8 1_555 1_555
O2 C8 1_555 1_555
O3 H3 1_555 1_555
O4 S1 1_555 1_555
O5 S1 1_555 1_555
O6 S1 1_555 1_555
S1 C13 1_555 1_555
C1 H4 1_555 1_555
H5 C1 1_555 1_555
C2 N1 1_555 1_555
H6 C2 1_555 1_555
C3 N2 1_555 1_555
H7 C3 1_555 1_555
C4 N1 1_555 1_555
H8 C4 1_555 1_555
C5 N3 1_555 1_555
H9 C5 1_555 1_555
C6 N4 1_555 1_555
H10 C6 1_555 1_555
C7 N3 1_555 1_555
H11 C7 1_555 1_555
C8 C9 1_555 1_555
C9 C10 1_555 1_555
C10 O3 1_555 1_555
C11 C10 1_555 1_555
H12 C11 1_555 1_555
C12 C11 1_555 1_555
H13 C12 1_555 1_555
C13 C12 1_555 1_555
C14 C9 1_555 1_555
H14 C14 1_555 1_555
N2 C2 1_555 1_555
N4 C5 1_555 1_555
C3 C4 1_555 1_555
C6 C7 1_555 1_555
C13 C14 1_555 1_555

#END
