
#######################################################################
#
#                 Cambridge Crystallographic Data Centre
#                                CCDC 
#
#######################################################################
#
# If this CIF has been generated from an entry in the Cambridge 
# Structural Database, then it will include bibliographic, chemical, 
# crystal, experimental, refinement or atomic coordinate data resulting 
# from the CCDC's data processing and validation procedures.
#
#######################################################################

data_HAMXOJ
_chemical_formula_moiety         'C19 H10 Cl2 N2 O3,C3 H7 N1 O1'
_chemical_name_systematic        
'2-Amino-4-(3,4-dichlorophenyl)-4H-pyrano(3,2-c)coumarin-3-carbonitrile N,N-dimethylformamide solvate'
_symmetry_cell_setting           monoclinic
_symmetry_space_group_name_H-M   'C 2/c'
_symmetry_Int_Tables_number      15
_space_group_name_Hall           '-C 2yn'
loop_
_symmetry_equiv_pos_site_id
_symmetry_equiv_pos_as_xyz
1 x,y,z
2 1/2+x,1/2+y,z
3 x,-y,1/2+z
4 1/2+x,1/2-y,1/2+z
5 -x,-y,-z
6 1/2-x,1/2-y,-z
7 -x,y,1/2-z
8 1/2-x,1/2+y,1/2-z
_cell_length_a                   28.126(6)
_cell_length_b                   7.8824(13)
_cell_length_c                   22.096(5)
_cell_angle_alpha                90
_cell_angle_beta                 122.493(3)
_cell_angle_gamma                90
_cell_volume                     4131.84
_exptl_crystal_colour            colorless
_exptl_crystal_description       block
_chemical_melting_point          '520-521 K'
_cell_formula_units_Z            8
_exptl_crystal_recrystallization_method DMF-ethanol
loop_
_atom_site_label
_atom_site_type_symbol
_atom_site_fract_x
_atom_site_fract_y
_atom_site_fract_z
Cl1 Cl 0.201189(16) -0.09716(6) 0.201572(19)
Cl2 Cl 0.144301(15) -0.32666(6) 0.26267(2)
O1 O 0.42061(4) 0.25673(12) 0.43864(6)
O2 O 0.42875(5) -0.34191(14) 0.42423(7)
O3 O 0.47228(4) -0.17883(14) 0.38760(6)
N1 N 0.38713(7) 0.41091(18) 0.49122(8)
N2 N 0.32197(7) 0.09884(19) 0.55201(9)
C1 C 0.39214(6) 0.25318(18) 0.47354(7)
C2 C 0.37408(6) 0.10514(18) 0.48588(7)
C3 C 0.38129(5) -0.06768(17) 0.46095(7)
H1 H 0.4013 -0.1438 0.5038
C4 C 0.41822(5) -0.04584(18) 0.43117(7)
C5 C 0.43496(5) 0.10712(18) 0.42212(7)
C6 C 0.43859(6) -0.19806(19) 0.41517(8)
C7 C 0.48778(6) -0.0207(2) 0.37698(8)
C8 C 0.52233(7) -0.0159(2) 0.34973(8)
H2 H 0.5334 -0.1175 0.3375
C9 C 0.54018(7) 0.1405(3) 0.34089(9)
H3 H 0.5642 0.1458 0.3230
C10 C 0.52348(7) 0.2900(2) 0.35773(9)
H4 H 0.5360 0.3961 0.3510
C11 C 0.48879(6) 0.2849(2) 0.38422(8)
H5 H 0.4773 0.3870 0.3955
C12 C 0.47074(6) 0.1270(2) 0.39422(7)
C13 C 0.34544(6) 0.10701(18) 0.52264(8)
C14 C 0.32350(6) -0.14503(17) 0.40813(7)
C15 C 0.29340(6) -0.10115(18) 0.33595(7)
H6 H 0.3103 -0.0316 0.3174
C16 C 0.23851(6) -0.15905(18) 0.29081(7)
C17 C 0.21367(6) -0.26033(18) 0.31777(8)
C18 C 0.24357(6) -0.30705(18) 0.38934(8)
H7 H 0.2268 -0.3780 0.4075
C19 C 0.29853(6) -0.24895(18) 0.43439(8)
H8 H 0.3192 -0.2805 0.4836
H16 H 0.3999(8) 0.489(3) 0.4773(11)
H17 H 0.3728(9) 0.431(3) 0.5173(12)
O4 O 0.35874(6) 0.47522(16) 0.09223(7)
N3 N 0.33912(6) 0.61958(18) 0.16513(8)
C20 C 0.32566(7) 0.5477(2) 0.10384(9)
H9 H 0.2872 0.5525 0.0656
C21 C 0.29794(10) 0.7210(2) 0.16975(13)
H10 H 0.3070 0.8416 0.1712
H11 H 0.2989 0.6909 0.2135
H12 H 0.2602 0.6988 0.1277
C22 C 0.39687(10) 0.6254(4) 0.22459(12)
H13 H 0.4192 0.5432 0.2168
H14 H 0.3987 0.5974 0.2690
H15 H 0.4120 0.7397 0.2284
loop_
_geom_bond_atom_site_label_1
_geom_bond_atom_site_label_2
_geom_bond_site_symmetry_1
_geom_bond_site_symmetry_2
Cl1 C16 1_555 1_555
Cl2 C17 1_555 1_555
O1 C1 1_555 1_555
O2 C6 1_555 1_555
O3 C6 1_555 1_555
O4 C20 1_555 1_555
N1 C1 1_555 1_555
N2 C13 1_555 1_555
N3 C20 1_555 1_555
C1 C2 1_555 1_555
C2 C3 1_555 1_555
C3 H1 1_555 1_555
C4 C3 1_555 1_555
C5 O1 1_555 1_555
C6 C4 1_555 1_555
C7 O3 1_555 1_555
C8 C7 1_555 1_555
H2 C8 1_555 1_555
C9 C8 1_555 1_555
H3 C9 1_555 1_555
C10 C9 1_555 1_555
H4 C10 1_555 1_555
C11 C10 1_555 1_555
H5 C11 1_555 1_555
C12 C5 1_555 1_555
C13 C2 1_555 1_555
C14 C3 1_555 1_555
C15 C14 1_555 1_555
H6 C15 1_555 1_555
C16 C15 1_555 1_555
C17 C16 1_555 1_555
C18 C17 1_555 1_555
H7 C18 1_555 1_555
C19 C14 1_555 1_555
H8 C19 1_555 1_555
C20 H9 1_555 1_555
C21 N3 1_555 1_555
H10 C21 1_555 1_555
H11 C21 1_555 1_555
H12 C21 1_555 1_555
C22 N3 1_555 1_555
H13 C22 1_555 1_555
H14 C22 1_555 1_555
H15 C22 1_555 1_555
H16 N1 1_555 1_555
H17 N1 1_555 1_555
C4 C5 1_555 1_555
C7 C12 1_555 1_555
C11 C12 1_555 1_555
C18 C19 1_555 1_555

#END
