
#######################################################################
#
#                 Cambridge Crystallographic Data Centre
#                                CCDC 
#
#######################################################################
#
# If this CIF has been generated from an entry in the Cambridge 
# Structural Database, then it will include bibliographic, chemical, 
# crystal, experimental, refinement or atomic coordinate data resulting 
# from the CCDC's data processing and validation procedures.
#
#######################################################################

data_HAMXAW
_chemical_formula_moiety         'C22 H25 Br1 N2 O6'
_chemical_name_systematic        
7-(3-Bromophenyl)-11-(2,2-dimethyl-1,3-dioxolan-4-yl)-2,4-dimethyl-2,4-diazaspiro[5.5]undecane-1,3,5,9-tetrone
_symmetry_cell_setting           monoclinic
_symmetry_space_group_name_H-M   'P 21'
_symmetry_Int_Tables_number      4
_space_group_name_Hall           'P 2yb'
loop_
_symmetry_equiv_pos_site_id
_symmetry_equiv_pos_as_xyz
1 x,y,z
2 -x,1/2+y,-z
_cell_length_a                   7.6547(9)
_cell_length_b                   10.4150(9)
_cell_length_c                   13.3157(14)
_cell_angle_alpha                90
_cell_angle_beta                 90.10
_cell_angle_gamma                90
_cell_volume                     1061.58
_exptl_crystal_colour            colorless
_exptl_crystal_description       plate
_cell_formula_units_Z            2
loop_
_atom_site_label
_atom_site_type_symbol
_atom_site_fract_x
_atom_site_fract_y
_atom_site_fract_z
Br1 Br 0.22835(13) -0.45221(8) 0.19748(7)
C1 C 0.0476(12) 0.1136(8) 0.4800(6)
C2 C 0.2132(10) 0.1883(8) 0.4728(6)
H1 H 0.3073 0.1393 0.5065
H2 H 0.1984 0.2701 0.5096
C3 C 0.2715(11) 0.2188(7) 0.3638(6)
H3 H 0.1801 0.2784 0.3372
C4 C 0.2662(9) 0.1011(7) 0.2926(5)
C5 C 0.0769(9) 0.0353(8) 0.3019(5)
H4 H -0.0091 0.1020 0.2801
C6 C 0.0298(12) 0.0021(7) 0.4085(6)
H5 H 0.1060 -0.0688 0.4318
H6 H -0.0924 -0.0291 0.4101
C7 C 0.0598(10) -0.0747(6) 0.2265(5)
C8 C -0.0161(10) -0.0498(8) 0.1347(6)
H7 H -0.0627 0.0329 0.1207
C9 C -0.0238(13) -0.1448(8) 0.0637(7)
H8 H -0.0807 -0.1287 0.0015
C10 C 0.0516(13) -0.2669(8) 0.0818(8)
H9 H 0.0537 -0.3306 0.0307
C11 C 0.1220(10) -0.2908(8) 0.1751(6)
C12 C 0.1270(10) -0.1963(6) 0.2470(5)
H10 H 0.1765 -0.2138 0.3110
C13 C 0.2795(9) 0.1472(7) 0.1852(5)
C14 C 0.4873(10) -0.0215(7) 0.1410(6)
C15 C 0.4034(11) -0.0026(7) 0.3169(6)
C16 C 0.3880(11) 0.1282(9) 0.0136(5)
H11 H 0.2790 0.1021 -0.0192
H12 H 0.4871 0.0876 -0.0204
H13 H 0.4001 0.2217 0.0100
C17 C 0.5978(12) -0.1719(8) 0.2637(7)
H14 H 0.6497 -0.1634 0.3307
H15 H 0.6908 -0.1796 0.2136
H16 H 0.5239 -0.2487 0.2615
C18 C 0.4395(11) 0.2978(8) 0.3646(6)
H17 H 0.4164 0.3817 0.3985
C19 C 0.6064(11) 0.2357(9) 0.4118(6)
H18 H 0.6503 0.2877 0.4687
H19 H 0.5819 0.1475 0.4357
C20 C 0.6711(13) 0.3344(9) 0.2613(7)
C21 C 0.7421(12) 0.2962(10) 0.1577(8)
H20 H 0.6984 0.2108 0.1398
H21 H 0.8701 0.2946 0.1599
H22 H 0.7033 0.3588 0.1075
C22 C 0.7356(13) 0.4679(10) 0.2944(9)
H23 H 0.6990 0.5322 0.2449
H24 H 0.8634 0.4673 0.2993
H25 H 0.6856 0.4891 0.3600
N1 N 0.3850(9) 0.0875(6) 0.1199(4)
N2 N 0.4907(8) -0.0573(6) 0.2414(5)
O1 O -0.0615(9) 0.1387(7) 0.5421(5)
O2 O 0.4177(9) -0.0393(5) 0.4037(4)
O3 O 0.5622(10) -0.0788(6) 0.0776(5)
O4 O 0.4922(7) 0.3215(5) 0.2640(4)
O5 O 0.7298(9) 0.2342(7) 0.3311(5)
O6 O 0.1810(7) 0.2334(5) 0.1556(4)
loop_
_geom_bond_atom_site_label_1
_geom_bond_atom_site_label_2
_geom_bond_site_symmetry_1
_geom_bond_site_symmetry_2
Br1 C11 1_555 1_555
C1 C2 1_555 1_555
C2 H1 1_555 1_555
H2 C2 1_555 1_555
C3 C2 1_555 1_555
H3 C3 1_555 1_555
C4 C3 1_555 1_555
C5 C4 1_555 1_555
H4 C5 1_555 1_555
C6 C1 1_555 1_555
H5 C6 1_555 1_555
H6 C6 1_555 1_555
C7 C5 1_555 1_555
C8 C7 1_555 1_555
H7 C8 1_555 1_555
C9 C8 1_555 1_555
H8 C9 1_555 1_555
C10 C9 1_555 1_555
H9 C10 1_555 1_555
C11 C10 1_555 1_555
C12 C7 1_555 1_555
H10 C12 1_555 1_555
C13 C4 1_555 1_555
C14 N1 1_555 1_555
C15 C4 1_555 1_555
C16 H11 1_555 1_555
H12 C16 1_555 1_555
H13 C16 1_555 1_555
C17 H14 1_555 1_555
H15 C17 1_555 1_555
H16 C17 1_555 1_555
C18 C3 1_555 1_555
H17 C18 1_555 1_555
C19 C18 1_555 1_555
H18 C19 1_555 1_555
H19 C19 1_555 1_555
C20 C21 1_555 1_555
C21 H20 1_555 1_555
H21 C21 1_555 1_555
H22 C21 1_555 1_555
C22 C20 1_555 1_555
H23 C22 1_555 1_555
H24 C22 1_555 1_555
H25 C22 1_555 1_555
N1 C13 1_555 1_555
N2 C14 1_555 1_555
O1 C1 1_555 1_555
O2 C15 1_555 1_555
O3 C14 1_555 1_555
O4 C18 1_555 1_555
O5 C19 1_555 1_555
O6 C13 1_555 1_555
C5 C6 1_555 1_555
C11 C12 1_555 1_555
C15 N2 1_555 1_555
C16 N1 1_555 1_555
C17 N2 1_555 1_555
C20 O4 1_555 1_555
C20 O5 1_555 1_555

#END
