
#######################################################################
#
#                 Cambridge Crystallographic Data Centre
#                                CCDC 
#
#######################################################################
#
# If this CIF has been generated from an entry in the Cambridge 
# Structural Database, then it will include bibliographic, chemical, 
# crystal, experimental, refinement or atomic coordinate data resulting 
# from the CCDC's data processing and validation procedures.
#
#######################################################################

data_HAMZIH
_chemical_name_common            
(4-bromo-2-(1-iminoethyl)phenolato)-difluoro-boron
_chemical_formula_moiety         'C8 H7 B1 Br1 F2 N1 O1'
_chemical_name_systematic        
6-bromo-2,2-difluoro-4-methyl-2H-1,3,2-benzoxazaborinin-3-ium-2-ide
_symmetry_cell_setting           monoclinic
_symmetry_space_group_name_H-M   'C 2/c'
_symmetry_Int_Tables_number      15
_space_group_name_Hall           '-C 2yn'
loop_
_symmetry_equiv_pos_site_id
_symmetry_equiv_pos_as_xyz
1 x,y,z
2 -x,y,1/2-z
3 1/2+x,1/2+y,z
4 1/2-x,1/2+y,1/2-z
5 -x,-y,-z
6 x,-y,1/2+z
7 1/2-x,1/2-y,-z
8 1/2+x,1/2-y,1/2+z
_cell_length_a                   31.828(13)
_cell_length_b                   7.487(3)
_cell_length_c                   16.328(7)
_cell_angle_alpha                90
_cell_angle_beta                 100.844(7)
_cell_angle_gamma                90
_cell_volume                     3821.42
_exptl_crystal_colour            white
_exptl_crystal_description       Prism
_cell_formula_units_Z            16
loop_
_atom_site_label
_atom_site_type_symbol
_atom_site_fract_x
_atom_site_fract_y
_atom_site_fract_z
C1 C 0.17238(10) -0.0188(4) -0.01464(18)
C2 C 0.18749(12) -0.2050(4) -0.0224(2)
H1 H 0.2137 -0.2032 -0.0436
H2 H 0.1662 -0.2707 -0.0600
H3 H 0.1924 -0.2614 0.0313
C3 C 0.13336(9) 0.0187(4) 0.01601(18)
C4 C 0.10936(10) -0.1182(5) 0.0437(2)
H4 H 0.1188 -0.2359 0.0443
C5 C 0.07203(12) -0.0779(5) 0.0697(2)
C6 C 0.05710(12) 0.0960(6) 0.0677(3)
H5 H 0.0315 0.1210 0.0851
C7 C 0.07987(12) 0.2314(5) 0.0403(3)
H6 H 0.0693 0.3475 0.0382
C8 C 0.11892(10) 0.1968(4) 0.0155(2)
N1 N 0.19374(9) 0.1141(3) -0.03541(16)
H7 H 0.2161 0.0896 -0.0558
O1 O 0.14030(8) 0.3317(3) -0.01004(18)
B1 B 0.18294(13) 0.3150(5) -0.0271(2)
F1 F 0.21234(7) 0.3839(3) 0.03930(12)
F2 F 0.18629(10) 0.4028(3) -0.09872(14)
Br1 Br 0.040408(16) -0.26106(7) 0.11106(3)
C9 C 0.16755(10) 0.3208(4) 0.22470(17)
C10 C 0.16730(12) 0.5123(4) 0.2031(2)
H8 H 0.1921 0.5396 0.1798
H9 H 0.1677 0.5827 0.2524
H10 H 0.1419 0.5393 0.1630
C11 C 0.13378(10) 0.2407(4) 0.26133(18)
C12 C 0.10280(11) 0.3454(5) 0.2894(2)
H11 H 0.1039 0.4693 0.2863
C13 C 0.07080(12) 0.2645(5) 0.3216(2)
C14 C 0.06771(12) 0.0798(5) 0.3252(2)
H12 H 0.0455 0.0268 0.3463
C15 C 0.09749(12) -0.0230(5) 0.2975(2)
H13 H 0.0953 -0.1468 0.2993
C16 C 0.13132(10) 0.0545(4) 0.26647(19)
N2 N 0.19802(9) 0.2170(3) 0.21103(16)
H14 H 0.2178 0.2632 0.1883
O2 O 0.15993(8) -0.0519(3) 0.24125(16)
B2 B 0.20151(12) 0.0141(5) 0.2327(2)
F3 F 0.23030(7) -0.0057(3) 0.30815(12)
F4 F 0.21640(8) -0.0763(3) 0.17097(14)
Br2 Br 0.031668(17) 0.40818(8) 0.36686(4)
loop_
_geom_bond_atom_site_label_1
_geom_bond_atom_site_label_2
_geom_bond_site_symmetry_1
_geom_bond_site_symmetry_2
C1 C2 1_555 1_555
C2 H1 1_555 1_555
H2 C2 1_555 1_555
H3 C2 1_555 1_555
C3 C1 1_555 1_555
C4 C3 1_555 1_555
H4 C4 1_555 1_555
C5 C4 1_555 1_555
C6 C5 1_555 1_555
H5 C6 1_555 1_555
C7 C6 1_555 1_555
H6 C7 1_555 1_555
C8 C3 1_555 1_555
N1 C1 1_555 1_555
H7 N1 1_555 1_555
O1 C8 1_555 1_555
B1 N1 1_555 1_555
F1 B1 1_555 1_555
F2 B1 1_555 1_555
Br1 C5 1_555 1_555
C9 C10 1_555 1_555
C10 H8 1_555 1_555
H9 C10 1_555 1_555
H10 C10 1_555 1_555
C11 C9 1_555 1_555
C12 C11 1_555 1_555
H11 C12 1_555 1_555
C13 C12 1_555 1_555
C14 C13 1_555 1_555
H12 C14 1_555 1_555
C15 C14 1_555 1_555
H13 C15 1_555 1_555
C16 C11 1_555 1_555
N2 C9 1_555 1_555
H14 N2 1_555 1_555
O2 C16 1_555 1_555
B2 N2 1_555 1_555
F3 B2 1_555 1_555
F4 B2 1_555 1_555
Br2 C13 1_555 1_555
C7 C8 1_555 1_555
O1 B1 1_555 1_555
C15 C16 1_555 1_555
O2 B2 1_555 1_555

#END
