
#######################################################################
#
#                 Cambridge Crystallographic Data Centre
#                                CCDC 
#
#######################################################################
#
# If this CIF has been generated from an entry in the Cambridge 
# Structural Database, then it will include bibliographic, chemical, 
# crystal, experimental, refinement or atomic coordinate data resulting 
# from the CCDC's data processing and validation procedures.
#
#######################################################################

data_HAMZEB
_chemical_formula_moiety         'C19 H19 N1 O6'
_chemical_name_systematic        
'Ethyl 2-amino-4-(4-methoxyphenyl)-7-methyl-5-oxopyrano(3,2-c)pyran-3-carboxylate'
_symmetry_cell_setting           monoclinic
_symmetry_space_group_name_H-M   'P 21/c'
_symmetry_Int_Tables_number      14
_space_group_name_Hall           '-P 2ybc'
loop_
_symmetry_equiv_pos_site_id
_symmetry_equiv_pos_as_xyz
1 x,y,z
2 -x,1/2+y,1/2-z
3 -x,-y,-z
4 x,1/2-y,1/2+z
_cell_length_a                   10.720(4)
_cell_length_b                   8.934(3)
_cell_length_c                   18.167(6)
_cell_angle_alpha                90
_cell_angle_beta                 94.636(7)
_cell_angle_gamma                90
_cell_volume                     1734.21
_exptl_crystal_colour            colorless
_exptl_crystal_description       block
_chemical_melting_point          '445-447 K'
_cell_formula_units_Z            4
_exptl_crystal_recrystallization_method 'aqueous ethanol'
loop_
_atom_site_label
_atom_site_type_symbol
_atom_site_fract_x
_atom_site_fract_y
_atom_site_fract_z
O1 O 1.05143(13) 0.37011(14) 0.17071(8)
O2 O 1.02879(14) 0.89867(15) 0.14269(9)
O3 O 1.16290(12) 0.79486(14) 0.22669(8)
O4 O 0.79150(16) 0.27396(18) -0.00755(9)
O5 O 0.76468(14) 0.52090(18) -0.02776(8)
O6 O 0.45344(14) 0.85568(19) 0.17062(9)
N1 N 0.9670(2) 0.19416(19) 0.09623(12)
C1 C 0.96960(18) 0.3413(2) 0.11009(11)
C2 C 0.90380(17) 0.4511(2) 0.07134(10)
C3 C 0.91786(16) 0.61697(19) 0.09104(10)
H1 H 0.9430 0.6713 0.0464
C4 C 1.02227(16) 0.63387(19) 0.15156(10)
C5 C 1.07889(17) 0.51683(19) 0.18778(10)
C6 C 1.06648(17) 0.7822(2) 0.17081(11)
C7 C 1.21540(18) 0.6730(2) 0.26323(10)
C8 C 1.17603(18) 0.5343(2) 0.24587(11)
H2 H 1.2116 0.4498 0.2714
C9 C 0.81762(18) 0.4041(2) 0.01014(11)
C10 C 0.6638(2) 0.4798(4) -0.08306(14)
C11 C 0.6161(4) 0.6173(4) -0.1181(2)
C12 C 0.79546(17) 0.6860(2) 0.11309(10)
C13 C 0.73489(18) 0.7965(2) 0.07003(10)
H3 H 0.7728 0.8332 0.0281
C14 C 0.61962(18) 0.8553(2) 0.08662(10)
H4 H 0.5790 0.9294 0.0558
C15 C 0.56546(18) 0.8044(2) 0.14825(11)
C16 C 0.62577(18) 0.6950(2) 0.19298(11)
H5 H 0.5887 0.6602 0.2356
C17 C 0.73989(18) 0.6369(2) 0.17534(10)
H6 H 0.7804 0.5627 0.2062
C18 C 0.38029(19) 0.9528(3) 0.12169(14)
H7 H 0.4272 1.0451 0.1144
H8 H 0.3018 0.9772 0.1431
H9 H 0.3618 0.9027 0.0741
C19 C 1.3171(2) 0.7173(2) 0.31962(12)
H10 H 1.3566 0.6274 0.3418
H11 H 1.2819 0.7773 0.3581
H12 H 1.3798 0.7764 0.2961
H13 H 0.914(3) 0.169(3) 0.0590(16)
H14 H 1.010(3) 0.132(3) 0.1260(16)
C20? C 0.5482(8) 0.5342(13) -0.0517(6)
loop_
_geom_bond_atom_site_label_1
_geom_bond_atom_site_label_2
_geom_bond_site_symmetry_1
_geom_bond_site_symmetry_2
O1 C1 1_555 1_555
O2 C6 1_555 1_555
O3 C6 1_555 1_555
O4 C9 1_555 1_555
O5 C9 1_555 1_555
O6 C15 1_555 1_555
N1 C1 1_555 1_555
C1 C2 1_555 1_555
C2 C3 1_555 1_555
C3 H1 1_555 1_555
C4 C3 1_555 1_555
C5 O1 1_555 1_555
C6 C4 1_555 1_555
C7 O3 1_555 1_555
C8 C5 1_555 1_555
H2 C8 1_555 1_555
C9 C2 1_555 1_555
C10 O5 1_555 1_555
C11 C10 1_555 1_555
C12 C3 1_555 1_555
C13 C12 1_555 1_555
H3 C13 1_555 1_555
C14 C13 1_555 1_555
H4 C14 1_555 1_555
C15 C14 1_555 1_555
C16 C15 1_555 1_555
H5 C16 1_555 1_555
C17 C12 1_555 1_555
H6 C17 1_555 1_555
C18 O6 1_555 1_555
H7 C18 1_555 1_555
H8 C18 1_555 1_555
H9 C18 1_555 1_555
C19 C7 1_555 1_555
H10 C19 1_555 1_555
H11 C19 1_555 1_555
H12 C19 1_555 1_555
H13 N1 1_555 1_555
H14 N1 1_555 1_555
C4 C5 1_555 1_555
C7 C8 1_555 1_555
C16 C17 1_555 1_555

#END
