
#######################################################################
#
#                 Cambridge Crystallographic Data Centre
#                                CCDC 
#
#######################################################################
#
# If this CIF has been generated from an entry in the Cambridge 
# Structural Database, then it will include bibliographic, chemical, 
# crystal, experimental, refinement or atomic coordinate data resulting 
# from the CCDC's data processing and validation procedures.
#
#######################################################################

data_HAMZAY
_chemical_compound_source        'stem bark of Toona ciliata var. pubescens'
_chemical_formula_moiety         'C31 H50 O4'
_chemical_name_systematic        
24-Hydroxy-25-methoxy-22,23-epoxylanost-7-en-3-one
_symmetry_cell_setting           orthorhombic
_symmetry_space_group_name_H-M   'P 21 21 21'
_symmetry_Int_Tables_number      19
_space_group_name_Hall           'P 2ac 2ab'
loop_
_symmetry_equiv_pos_site_id
_symmetry_equiv_pos_as_xyz
1 x,y,z
2 1/2-x,-y,1/2+z
3 -x,1/2+y,1/2-z
4 1/2+x,1/2-y,-z
_cell_length_a                   10.2080(8)
_cell_length_b                   15.3825(12)
_cell_length_c                   17.7371(14)
_cell_angle_alpha                90
_cell_angle_beta                 90
_cell_angle_gamma                90
_cell_volume                     2785.16
_exptl_crystal_colour            colorless
_exptl_crystal_description       prismatic
_cell_formula_units_Z            4
_exptl_crystal_recrystallization_method chloroform/methanol
loop_
_atom_site_label
_atom_site_type_symbol
_atom_site_fract_x
_atom_site_fract_y
_atom_site_fract_z
O1 O -0.0272(3) 0.43168(19) 1.01676(14)
O2 O -0.1865(3) 0.48723(19) 0.27584(13)
O3 O -0.1325(3) 0.3549(2) 0.15124(15)
O4 O 0.1293(2) 0.34180(15) 0.28712(12)
C1 C 0.0223(4) 0.5168(2) 0.83633(19)
H1 H 0.0531 0.5709 0.8145
H2 H -0.0726 0.5167 0.8336
C2 C 0.0638(4) 0.5132(2) 0.9191(2)
H3 H 0.1583 0.5193 0.9224
H4 H 0.0246 0.5616 0.9460
C3 C 0.0238(4) 0.4307(2) 0.9552(2)
C4 C 0.0549(3) 0.3458(2) 0.91434(17)
C5 C 0.0300(3) 0.35560(18) 0.82767(16)
H5 H -0.0656 0.3556 0.8223
C6 C 0.0760(3) 0.2761(2) 0.78367(17)
H6 H 0.1664 0.2640 0.7967
H7 H 0.0239 0.2262 0.7987
C7 C 0.0658(3) 0.28704(19) 0.70016(17)
H8 H 0.0791 0.2382 0.6702
C8 C 0.0391(3) 0.36120(19) 0.66575(17)
C9 C 0.0088(3) 0.44240(18) 0.71111(17)
H9 H -0.0859 0.4418 0.7203
C10 C 0.0754(3) 0.44081(19) 0.78987(17)
C11 C 0.0376(5) 0.5260(2) 0.6662(2)
H10 H 0.0035 0.5751 0.6944
H11 H 0.1318 0.5331 0.6628
C12 C -0.0197(4) 0.5294(2) 0.58595(19)
H12 H -0.0983 0.5648 0.5867
H13 H 0.0431 0.5579 0.5531
C13 C -0.0535(3) 0.4404(2) 0.55248(17)
C14 C 0.0454(3) 0.3706(2) 0.58046(17)
C15 C 0.0090(4) 0.2916(2) 0.53306(17)
H14 H -0.0634 0.2601 0.5556
H15 H 0.0830 0.2525 0.5278
C16 C -0.0308(4) 0.3304(2) 0.45569(19)
H16 H 0.0339 0.3158 0.4177
H17 H -0.1149 0.3074 0.4399
C17 C -0.0390(3) 0.4296(2) 0.46577(17)
H18 H 0.0470 0.4531 0.4522
C18 C -0.1944(3) 0.4158(2) 0.57514(18)
H19 H -0.2151 0.3593 0.5554
H20 H -0.2544 0.4578 0.5550
H21 H -0.2014 0.4149 0.6291
C19 C 0.2243(3) 0.4475(2) 0.7810(2)
H22 H 0.2546 0.4019 0.7484
H23 H 0.2652 0.4420 0.8294
H24 H 0.2463 0.5029 0.7594
C20 C -0.1390(3) 0.4724(2) 0.41316(17)
H25 H -0.2225 0.4414 0.4176
C21 C -0.1621(4) 0.5685(3) 0.4288(2)
H26 H -0.0797 0.5985 0.4295
H27 H -0.2045 0.5751 0.4768
H28 H -0.2167 0.5926 0.3900
C22 C -0.0919(3) 0.4658(2) 0.33286(18)
H29 H -0.0047 0.4904 0.3242
C23 C -0.1314(3) 0.4018(2) 0.27806(18)
H30 H -0.1891 0.3555 0.2964
C24 C -0.0467(3) 0.3794(2) 0.21113(18)
H31 H 0.0004 0.4320 0.1957
C25 C 0.0536(4) 0.3080(2) 0.22559(18)
C26 C 0.1399(4) 0.2977(3) 0.1563(2)
H32 H 0.2059 0.2547 0.1660
H33 H 0.1811 0.3522 0.1448
H34 H 0.0872 0.2797 0.1142
C27 C -0.0110(5) 0.2228(3) 0.2465(3)
H35 H -0.0584 0.2297 0.2929
H36 H 0.0548 0.1788 0.2527
H37 H -0.0705 0.2058 0.2073
C28 C -0.0338(4) 0.2744(2) 0.94499(19)
H38 H -0.1231 0.2869 0.9319
H39 H -0.0255 0.2718 0.9989
H40 H -0.0087 0.2196 0.9236
C29 C 0.1973(4) 0.3238(3) 0.9368(2)
H41 H 0.2033 0.3189 0.9907
H42 H 0.2547 0.3692 0.9197
H43 H 0.2226 0.2697 0.9140
C30 C 0.1890(4) 0.3942(3) 0.5610(2)
H44 H 0.2469 0.3526 0.5839
H45 H 0.2086 0.4512 0.5799
H46 H 0.2006 0.3932 0.5073
C31 C 0.2339(4) 0.2903(3) 0.3127(3)
H47 H 0.3001 0.2872 0.2743
H48 H 0.2027 0.2328 0.3238
H49 H 0.2704 0.3156 0.3575
H50 H -0.106(5) 0.374(3) 0.1114(18)
loop_
_geom_bond_atom_site_label_1
_geom_bond_atom_site_label_2
_geom_bond_site_symmetry_1
_geom_bond_site_symmetry_2
O1 C3 1_555 1_555
O2 C22 1_555 1_555
O3 C24 1_555 1_555
O4 C25 1_555 1_555
C1 H1 1_555 1_555
H2 C1 1_555 1_555
C2 C1 1_555 1_555
H3 C2 1_555 1_555
H4 C2 1_555 1_555
C3 C2 1_555 1_555
C4 C3 1_555 1_555
C5 C4 1_555 1_555
H5 C5 1_555 1_555
C6 C5 1_555 1_555
H6 C6 1_555 1_555
H7 C6 1_555 1_555
C7 C6 1_555 1_555
H8 C7 1_555 1_555
C8 C7 1_555 1_555
C9 C8 1_555 1_555
H9 C9 1_555 1_555
C10 C1 1_555 1_555
C11 C9 1_555 1_555
H10 C11 1_555 1_555
H11 C11 1_555 1_555
C12 C11 1_555 1_555
H12 C12 1_555 1_555
H13 C12 1_555 1_555
C13 C12 1_555 1_555
C14 C8 1_555 1_555
C15 C14 1_555 1_555
H14 C15 1_555 1_555
H15 C15 1_555 1_555
C16 C15 1_555 1_555
H16 C16 1_555 1_555
H17 C16 1_555 1_555
C17 C13 1_555 1_555
H18 C17 1_555 1_555
C18 C13 1_555 1_555
H19 C18 1_555 1_555
H20 C18 1_555 1_555
H21 C18 1_555 1_555
C19 C10 1_555 1_555
H22 C19 1_555 1_555
H23 C19 1_555 1_555
H24 C19 1_555 1_555
C20 C17 1_555 1_555
H25 C20 1_555 1_555
C21 C20 1_555 1_555
H26 C21 1_555 1_555
H27 C21 1_555 1_555
H28 C21 1_555 1_555
C22 C20 1_555 1_555
H29 C22 1_555 1_555
C23 O2 1_555 1_555
H30 C23 1_555 1_555
C24 C23 1_555 1_555
H31 C24 1_555 1_555
C25 C24 1_555 1_555
C26 C25 1_555 1_555
H32 C26 1_555 1_555
H33 C26 1_555 1_555
H34 C26 1_555 1_555
C27 C25 1_555 1_555
H35 C27 1_555 1_555
H36 C27 1_555 1_555
H37 C27 1_555 1_555
C28 C4 1_555 1_555
H38 C28 1_555 1_555
H39 C28 1_555 1_555
H40 C28 1_555 1_555
C29 C4 1_555 1_555
H41 C29 1_555 1_555
H42 C29 1_555 1_555
H43 C29 1_555 1_555
C30 C14 1_555 1_555
H44 C30 1_555 1_555
H45 C30 1_555 1_555
H46 C30 1_555 1_555
C31 O4 1_555 1_555
H47 C31 1_555 1_555
H48 C31 1_555 1_555
H49 C31 1_555 1_555
H50 O3 1_555 1_555
C5 C10 1_555 1_555
C9 C10 1_555 1_555
C13 C14 1_555 1_555
C16 C17 1_555 1_555
C22 C23 1_555 1_555

#END
