
#######################################################################
#
#                 Cambridge Crystallographic Data Centre
#                                CCDC 
#
#######################################################################
#
# If this CIF has been generated from an entry in the Cambridge 
# Structural Database, then it will include bibliographic, chemical, 
# crystal, experimental, refinement or atomic coordinate data resulting 
# from the CCDC's data processing and validation procedures.
#
#######################################################################

data_HANCUV
_chemical_formula_moiety         'C18 H9 Cl2 F3 N4 O1'
_chemical_name_systematic        
N-(3-Cyano-1-(2,6-dichloro-4-(trifluoromethyl)phenyl)-1H-pyrazol-5-yl)benzamide
_symmetry_cell_setting           triclinic
_symmetry_space_group_name_H-M   'P -1'
_symmetry_Int_Tables_number      2
_space_group_name_Hall           '-P 1'
loop_
_symmetry_equiv_pos_site_id
_symmetry_equiv_pos_as_xyz
1 x,y,z
2 -x,-y,-z
_cell_length_a                   8.4613(11)
_cell_length_b                   9.8923(13)
_cell_length_c                   11.4305(15)
_cell_angle_alpha                91.463(2)
_cell_angle_beta                 96.002(2)
_cell_angle_gamma                101.119(2)
_cell_volume                     932.623
_exptl_crystal_colour            colorless
_exptl_crystal_description       block
_chemical_melting_point          '483-485 K'
_cell_formula_units_Z            2
_exptl_crystal_recrystallization_method 'ethyl acetate/cyclohexane'
loop_
_atom_site_label
_atom_site_type_symbol
_atom_site_fract_x
_atom_site_fract_y
_atom_site_fract_z
Cl1 Cl 0.36498(13) 0.56433(11) 0.08511(8)
Cl2 Cl 0.36929(14) 0.27302(12) 0.47624(10)
F1 F 0.2269(5) 0.8486(4) 0.4516(4)
F2 F -0.0016(4) 0.7305(4) 0.4026(3)
F3 F 0.1164(5) 0.6976(4) 0.5647(3)
O1 O 0.2948(4) -0.0597(3) 0.1333(3)
N1 N 0.4618(3) 0.3488(3) 0.2361(3)
N2 N 0.6220(3) 0.3997(3) 0.2333(3)
N3 N 0.9754(4) 0.3235(4) 0.1546(3)
N4 N 0.2541(3) 0.1527(3) 0.1819(3)
H1 H 0.1826 0.2010 0.1943
C1 C 0.1432(6) 0.7246(6) 0.4560(4)
C2 C 0.2171(4) 0.6185(4) 0.3972(3)
C3 C 0.2514(4) 0.6381(4) 0.2828(3)
H2 H 0.2252 0.7129 0.2427
C4 C 0.3257(4) 0.5441(4) 0.2290(3)
C5 C 0.3685(4) 0.4347(4) 0.2894(3)
C6 C 0.3269(4) 0.4146(4) 0.4019(3)
C7 C 0.2520(5) 0.5072(4) 0.4572(3)
H3 H 0.2258 0.4943 0.5337
C8 C 0.4135(4) 0.2204(4) 0.1836(3)
C9 C 0.5473(4) 0.1835(4) 0.1460(3)
H4 H 0.5548 0.1014 0.1074
C10 C 0.6708(4) 0.2977(4) 0.1788(3)
C11 C 0.8417(5) 0.3143(4) 0.1643(3)
C12 C 0.2034(5) 0.0128(4) 0.1616(4)
C13 C 0.0322(5) -0.0426(4) 0.1778(3)
C14 C -0.0491(5) 0.0141(4) 0.2602(4)
H5 H 0.0040 0.0915 0.3064
C15 C -0.2074(5) -0.0431(5) 0.2742(4)
H6 H -0.2602 -0.0043 0.3299
C16 C -0.2871(6) -0.1563(5) 0.2066(5)
H7 H -0.3947 -0.1935 0.2150
C17 C -0.2073(6) -0.2157(5) 0.1257(5)
H8 H -0.2611 -0.2936 0.0803
C18 C -0.0490(5) -0.1599(5) 0.1122(4)
H9 H 0.0043 -0.2013 0.0584
loop_
_geom_bond_atom_site_label_1
_geom_bond_atom_site_label_2
_geom_bond_site_symmetry_1
_geom_bond_site_symmetry_2
Cl1 C4 1_555 1_555
Cl2 C6 1_555 1_555
F1 C1 1_555 1_555
F2 C1 1_555 1_555
F3 C1 1_555 1_555
O1 C12 1_555 1_555
N1 N2 1_555 1_555
N2 C10 1_555 1_555
N3 C11 1_555 1_555
N4 H1 1_555 1_555
C1 C2 1_555 1_555
C2 C3 1_555 1_555
C3 H2 1_555 1_555
C4 C3 1_555 1_555
C5 N1 1_555 1_555
C6 C5 1_555 1_555
C7 C2 1_555 1_555
H3 C7 1_555 1_555
C8 N1 1_555 1_555
C9 C8 1_555 1_555
H4 C9 1_555 1_555
C10 C9 1_555 1_555
C11 C10 1_555 1_555
C12 N4 1_555 1_555
C13 C12 1_555 1_555
C14 C13 1_555 1_555
H5 C14 1_555 1_555
C15 C14 1_555 1_555
H6 C15 1_555 1_555
C16 C15 1_555 1_555
H7 C16 1_555 1_555
C17 C16 1_555 1_555
H8 C17 1_555 1_555
C18 C13 1_555 1_555
H9 C18 1_555 1_555
N4 C8 1_555 1_555
C4 C5 1_555 1_555
C6 C7 1_555 1_555
C17 C18 1_555 1_555

#END
