
#######################################################################
#
#                 Cambridge Crystallographic Data Centre
#                                CCDC 
#
#######################################################################
#
# If this CIF has been generated from an entry in the Cambridge 
# Structural Database, then it will include bibliographic, chemical, 
# crystal, experimental, refinement or atomic coordinate data resulting 
# from the CCDC's data processing and validation procedures.
#
#######################################################################

data_HANFOS04
_chemical_name_common            Imidachloprid
_chemical_formula_moiety         'C9 H10 Cl1 N5 O2'
_chemical_name_systematic        
1-((6-Chloropyridin-3-yl)methyl)-N-nitroimidazolidin-2-imine
_chemical_properties_biological  
'active agrochemical possessing insecticidal activity'
_symmetry_cell_setting           monoclinic
_symmetry_space_group_name_H-M   'P 21/n'
_symmetry_Int_Tables_number      14
_space_group_name_Hall           '-P 2yn'
loop_
_symmetry_equiv_pos_site_id
_symmetry_equiv_pos_as_xyz
1 x,y,z
2 1/2-x,1/2+y,1/2-z
3 -x,-y,-z
4 1/2+x,1/2-y,1/2+z
_cell_length_a                   12.600(3)
_cell_length_b                   9.6850(19)
_cell_length_c                   18.881(4)
_cell_angle_alpha                90
_cell_angle_beta                 102.94(3)
_cell_angle_gamma                90
_cell_volume                     2245.56
_cell_formula_units_Z            8
loop_
_atom_site_label
_atom_site_type_symbol
_atom_site_fract_x
_atom_site_fract_y
_atom_site_fract_z
Cl1 Cl 0.49575(11) 0.59738(13) 0.08816(7)
O1 O 0.2115(3) 0.3409(4) 0.45556(16)
O2 O 0.0986(3) 0.4530(3) 0.3747(2)
C1 C 0.3582(3) 0.3805(5) 0.0811(2)
H1 H 0.3472 0.3866 0.0308
N1 N 0.3117(2) 0.1432(3) 0.29922(14)
N2 N 0.3345(2) 0.1552(3) 0.41613(15)
H2 H 0.3252 0.1813 0.4579
N3 N 0.2027(2) 0.3030(3) 0.33637(15)
N4 N 0.1708(3) 0.3668(3) 0.39151(19)
C2 C 0.3062(3) 0.2817(4) 0.11300(19)
H3 H 0.2590 0.2198 0.0842
C3 C 0.4269(3) 0.4702(4) 0.1258(2)
N5 N 0.4481(3) 0.4664(3) 0.19700(17)
C4 C 0.3957(3) 0.3689(4) 0.22702(19)
H4 H 0.4088 0.3654 0.2775
C5 C 0.3241(3) 0.2740(4) 0.18818(17)
C6 C 0.2646(3) 0.1677(4) 0.22319(18)
H5 H 0.1898 0.1976 0.2182
H6 H 0.2632 0.0812 0.1971
C7 C 0.3966(3) 0.0433(4) 0.3246(2)
H7 H 0.4630 0.0680 0.3096
H8 H 0.3742 -0.0484 0.3066
C8 C 0.4122(3) 0.0508(4) 0.4065(2)
H9 H 0.3963 -0.0372 0.4264
H10 H 0.4860 0.0781 0.4295
C9 C 0.2796(3) 0.2058(3) 0.35432(17)
Cl2 Cl 0.99366(10) 0.12444(14) 0.07383(7)
O3 O 0.7209(3) 0.3534(5) 0.45809(18)
O4 O 0.6024(3) 0.2459(4) 0.3789(2)
N6 N 0.8664(3) 0.3339(4) 0.07976(15)
N7 N 0.8090(2) 0.5575(3) 0.29857(15)
N8 N 0.8401(3) 0.5419(3) 0.41577(16)
H11 H 0.8383 0.5098 0.4580
N9 N 0.7037(2) 0.3968(3) 0.33869(15)
N10 N 0.6758(3) 0.3309(3) 0.3950(2)
C10 C 0.8168(3) 0.4238(4) 0.11522(19)
H12 H 0.7742 0.4919 0.0879
C11 C 0.9263(3) 0.2383(4) 0.1198(2)
C12 C 0.9399(3) 0.2267(4) 0.1935(2)
H13 H 0.9830 0.1573 0.2192
C13 C 0.8871(3) 0.3220(4) 0.22870(19)
H14 H 0.8947 0.3171 0.2788
C14 C 0.8239(3) 0.4234(4) 0.18933(17)
C15 C 0.7617(3) 0.5289(4) 0.22251(18)
H15 H 0.7583 0.6143 0.1952
H16 H 0.6877 0.4963 0.2180
C16 C 0.8973(3) 0.6549(4) 0.3224(2)
H17 H 0.8785 0.7457 0.3017
H18 H 0.9637 0.6236 0.3096
C17 C 0.9090(3) 0.6559(4) 0.4042(2)
H19 H 0.9840 0.6409 0.4294
H20 H 0.8837 0.7425 0.4203
C18 C 0.7809(3) 0.4932(4) 0.35472(17)
loop_
_geom_bond_atom_site_label_1
_geom_bond_atom_site_label_2
_geom_bond_site_symmetry_1
_geom_bond_site_symmetry_2
Cl1 C3 1_555 1_555
O1 N4 1_555 1_555
O2 N4 1_555 1_555
C1 H1 1_555 1_555
N1 C6 1_555 1_555
N2 H2 1_555 1_555
N3 N4 1_555 1_555
C2 C1 1_555 1_555
H3 C2 1_555 1_555
C3 C1 1_555 1_555
N5 C3 1_555 1_555
C4 N5 1_555 1_555
H4 C4 1_555 1_555
C5 C2 1_555 1_555
C6 C5 1_555 1_555
H5 C6 1_555 1_555
H6 C6 1_555 1_555
C7 N1 1_555 1_555
H7 C7 1_555 1_555
H8 C7 1_555 1_555
C8 N2 1_555 1_555
H9 C8 1_555 1_555
H10 C8 1_555 1_555
C9 N1 1_555 1_555
Cl2 C11 1_555 1_555
O3 N10 1_555 1_555
O4 N10 1_555 1_555
N6 C10 1_555 1_555
N7 C15 1_555 1_555
N8 H11 1_555 1_555
N9 N10 1_555 1_555
C10 H12 1_555 1_555
C11 N6 1_555 1_555
C12 C11 1_555 1_555
H13 C12 1_555 1_555
C13 C12 1_555 1_555
H14 C13 1_555 1_555
C14 C10 1_555 1_555
C15 C14 1_555 1_555
H15 C15 1_555 1_555
H16 C15 1_555 1_555
C16 N7 1_555 1_555
H17 C16 1_555 1_555
H18 C16 1_555 1_555
C17 N8 1_555 1_555
H19 C17 1_555 1_555
H20 C17 1_555 1_555
C18 N7 1_555 1_555
N2 C9 1_555 1_555
N3 C9 1_555 1_555
C4 C5 1_555 1_555
C7 C8 1_555 1_555
N8 C18 1_555 1_555
N9 C18 1_555 1_555
C13 C14 1_555 1_555
C16 C17 1_555 1_555

#END
