
#######################################################################
#
#                 Cambridge Crystallographic Data Centre
#                                CCDC 
#
#######################################################################
#
# If this CIF has been generated from an entry in the Cambridge 
# Structural Database, then it will include bibliographic, chemical, 
# crystal, experimental, refinement or atomic coordinate data resulting 
# from the CCDC's data processing and validation procedures.
#
#######################################################################

data_HANGOV
_chemical_formula_moiety         'C14 H12 N6'
_chemical_name_systematic        
N-(pyridin-2-yl)-N'-(pyrimidin-2-yl)pyridine-2,6-diamine
_symmetry_cell_setting           monoclinic
_symmetry_space_group_name_H-M   'P 21/c'
_symmetry_Int_Tables_number      14
_space_group_name_Hall           '-P 2ybc'
loop_
_symmetry_equiv_pos_site_id
_symmetry_equiv_pos_as_xyz
1 x,y,z
2 -x,1/2+y,1/2-z
3 -x,-y,-z
4 x,1/2-y,1/2+z
_cell_length_a                   7.5667(7)
_cell_length_b                   20.6233(18)
_cell_length_c                   8.0264(7)
_cell_angle_alpha                90
_cell_angle_beta                 100.297(2)
_cell_angle_gamma                90
_cell_volume                     1232.35
_exptl_crystal_colour            colorless
_exptl_crystal_description       plate
_cell_formula_units_Z            4
loop_
_atom_site_label
_atom_site_type_symbol
_atom_site_fract_x
_atom_site_fract_y
_atom_site_fract_z
N1 N 0.7627(2) 0.15661(7) 0.19725(17)
N2 N 0.96338(19) 0.23955(7) 0.21008(17)
H1 H 0.989(3) 0.2199(10) 0.116(3)
N3 N 1.03596(17) 0.32802(6) 0.39333(16)
N4 N 1.08871(18) 0.41221(7) 0.57898(17)
H2 H 1.005(3) 0.3925(10) 0.624(2)
N5 N 1.1071(2) 0.47578(7) 0.81349(17)
N6 N 1.27192(18) 0.50487(7) 0.59656(17)
C1 C 0.6039(2) 0.13250(9) 0.2187(2)
H3 H 0.5735 0.0898 0.1793
C2 C 0.4820(2) 0.16596(9) 0.2946(2)
H4 H 0.3702 0.1471 0.3062
C3 C 0.5277(2) 0.22804(9) 0.3536(2)
H5 H 0.4475 0.2522 0.4080
C4 C 0.6896(2) 0.25459(8) 0.3330(2)
H6 H 0.7232 0.2970 0.3731
C5 C 0.8029(2) 0.21733(8) 0.25156(19)
C6 C 1.0465(2) 0.29919(8) 0.24625(19)
C7 C 1.1451(2) 0.32471(8) 0.1300(2)
H7 H 1.1512 0.3029 0.0269
C8 C 1.2328(2) 0.38240(8) 0.1701(2)
H8 H 1.3029 0.4005 0.0946
C9 C 1.2204(2) 0.41458(8) 0.3193(2)
H9 H 1.2797 0.4548 0.3471
C10 C 1.1184(2) 0.38590(7) 0.42671(19)
C11 C 1.1605(2) 0.46690(8) 0.66416(19)
C12 C 1.1706(2) 0.52876(9) 0.8993(2)
H10 H 1.1364 0.5369 1.0056
C13 C 1.2837(2) 0.57218(8) 0.8404(2)
H11 H 1.3267 0.6100 0.9023
C14 C 1.3305(2) 0.55751(8) 0.6871(2)
H12 H 1.4086 0.5863 0.6430
loop_
_geom_bond_atom_site_label_1
_geom_bond_atom_site_label_2
_geom_bond_site_symmetry_1
_geom_bond_site_symmetry_2
N1 C1 1_555 1_555
N2 H1 1_555 1_555
N3 C6 1_555 1_555
N4 H2 1_555 1_555
N5 C11 1_555 1_555
N6 C11 1_555 1_555
C1 H3 1_555 1_555
C2 C1 1_555 1_555
H4 C2 1_555 1_555
C3 C2 1_555 1_555
H5 C3 1_555 1_555
C4 C3 1_555 1_555
H6 C4 1_555 1_555
C5 N1 1_555 1_555
C6 N2 1_555 1_555
C7 C6 1_555 1_555
H7 C7 1_555 1_555
C8 C7 1_555 1_555
H8 C8 1_555 1_555
C9 C8 1_555 1_555
H9 C9 1_555 1_555
C10 N3 1_555 1_555
C11 N4 1_555 1_555
C12 N5 1_555 1_555
H10 C12 1_555 1_555
C13 C12 1_555 1_555
H11 C13 1_555 1_555
C14 N6 1_555 1_555
H12 C14 1_555 1_555
N2 C5 1_555 1_555
N4 C10 1_555 1_555
C4 C5 1_555 1_555
C9 C10 1_555 1_555
C13 C14 1_555 1_555

#END
