
#######################################################################
#
#                 Cambridge Crystallographic Data Centre
#                                CCDC 
#
#######################################################################
#
# If this CIF has been generated from an entry in the Cambridge 
# Structural Database, then it will include bibliographic, chemical, 
# crystal, experimental, refinement or atomic coordinate data resulting 
# from the CCDC's data processing and validation procedures.
#
#######################################################################

data_HANGIO
_chemical_formula_moiety         'C14 H10 O2'
_chemical_name_systematic        3-Phenyl-1-benzofuran-2(3H)-one
_symmetry_cell_setting           orthorhombic
_symmetry_space_group_name_H-M   'P 21 21 21'
_symmetry_Int_Tables_number      19
_space_group_name_Hall           'P 2ac 2ab'
loop_
_symmetry_equiv_pos_site_id
_symmetry_equiv_pos_as_xyz
1 x,y,z
2 1/2-x,-y,1/2+z
3 -x,1/2+y,1/2-z
4 1/2+x,1/2-y,-z
_cell_length_a                   8.1037(16)
_cell_length_b                   10.127(2)
_cell_length_c                   12.519(3)
_cell_angle_alpha                90
_cell_angle_beta                 90
_cell_angle_gamma                90
_cell_volume                     1027.39
_cell_formula_units_Z            4
loop_
_atom_site_label
_atom_site_type_symbol
_atom_site_fract_x
_atom_site_fract_y
_atom_site_fract_z
O1 O 0.92570(10) 0.00375(9) 0.65647(9)
O2 O 1.09763(11) 0.17638(9) 0.65484(9)
C1 C 0.79804(15) -0.04244(13) 0.59034(12)
C2 C 0.70516(16) -0.15207(14) 0.61221(13)
H1 H 0.7230 -0.2037 0.6725
C3 C 0.58203(17) -0.18115(14) 0.53812(13)
H2 H 0.5150 -0.2544 0.5493
C4 C 0.55699(17) -0.10433(14) 0.44877(13)
H3 H 0.4747 -0.1272 0.4004
C5 C 0.65325(15) 0.00704(13) 0.42987(13)
H4 H 0.6359 0.0593 0.3698
C6 C 0.77527(15) 0.03794(13) 0.50269(12)
C7 C 0.89395(15) 0.15160(13) 0.50990(11)
H5 H 0.8317 0.2336 0.5202
C8 C 0.98660(14) 0.11870(14) 0.61249(13)
C9 C 1.00945(14) 0.16807(13) 0.41611(12)
C10 C 1.01230(15) 0.28388(13) 0.35718(12)
H6 H 0.9425 0.3532 0.3754
C11 C 1.11869(16) 0.29679(15) 0.27111(12)
H7 H 1.1204 0.3748 0.2320
C12 C 1.22184(17) 0.19429(15) 0.24342(13)
H8 H 1.2935 0.2034 0.1859
C13 C 1.21896(18) 0.07791(15) 0.30098(14)
H9 H 1.2875 0.0082 0.2817
C14 C 1.11421(15) 0.06549(14) 0.38701(13)
H10 H 1.1135 -0.0126 0.4262
loop_
_geom_bond_atom_site_label_1
_geom_bond_atom_site_label_2
_geom_bond_site_symmetry_1
_geom_bond_site_symmetry_2
O1 C1 1_555 1_555
O2 C8 1_555 1_555
C1 C2 1_555 1_555
C2 H1 1_555 1_555
C3 C2 1_555 1_555
H2 C3 1_555 1_555
C4 C3 1_555 1_555
H3 C4 1_555 1_555
C5 C4 1_555 1_555
H4 C5 1_555 1_555
C6 C1 1_555 1_555
C7 C6 1_555 1_555
H5 C7 1_555 1_555
C8 O1 1_555 1_555
C9 C7 1_555 1_555
C10 C9 1_555 1_555
H6 C10 1_555 1_555
C11 C10 1_555 1_555
H7 C11 1_555 1_555
C12 C11 1_555 1_555
H8 C12 1_555 1_555
C13 C12 1_555 1_555
H9 C13 1_555 1_555
C14 C9 1_555 1_555
H10 C14 1_555 1_555
C5 C6 1_555 1_555
C7 C8 1_555 1_555
C13 C14 1_555 1_555

#END
