
#######################################################################
#
#                 Cambridge Crystallographic Data Centre
#                                CCDC 
#
#######################################################################
#
# If this CIF has been generated from an entry in the Cambridge 
# Structural Database, then it will include bibliographic, chemical, 
# crystal, experimental, refinement or atomic coordinate data resulting 
# from the CCDC's data processing and validation procedures.
#
#######################################################################

data_HANLIT
_chemical_formula_moiety         'C8 H14 N3 O4 1+,Cl1 1-'
_chemical_name_systematic        
'(5-Ethyl-1,3-dimethyl-2,4,6-trioxohexahydropyrimidin-5-yl)(hydroxy)ammonium chloride'
_symmetry_cell_setting           triclinic
_symmetry_space_group_name_H-M   'P -1'
_symmetry_Int_Tables_number      2
_space_group_name_Hall           '-P 1'
loop_
_symmetry_equiv_pos_site_id
_symmetry_equiv_pos_as_xyz
1 x,y,z
2 -x,-y,-z
_cell_length_a                   7.5765(3)
_cell_length_b                   7.6395(4)
_cell_length_c                   11.1394(3)
_cell_angle_alpha                81.909(3)
_cell_angle_beta                 81.289(3)
_cell_angle_gamma                63.606(4)
_cell_volume                     568.917
_exptl_crystal_colour            colorless
_exptl_crystal_description       lath
_cell_formula_units_Z            2
loop_
_atom_site_label
_atom_site_type_symbol
_atom_site_fract_x
_atom_site_fract_y
_atom_site_fract_z
C1 C 0.0247(2) 0.6201(2) 0.13186(14)
H1 H 0.0621 0.7132 0.1607
H2 H -0.1005 0.6921 0.0951
H3 H 0.1284 0.5439 0.0709
C2 C -0.0001(2) 0.4821(2) 0.23892(14)
H4 H -0.0538 0.3999 0.2106
H5 H -0.0988 0.5614 0.3021
C3 C 0.1928(2) 0.3460(2) 0.29751(13)
C4 C 0.3441(2) 0.2154(2) 0.20381(13)
C5 C 0.5207(2) 0.4203(2) 0.18799(13)
C6 C 0.2641(2) 0.4658(2) 0.35756(13)
C7 C 0.6363(2) 0.1513(2) 0.05772(14)
H6 H 0.6279 0.0269 0.0579
H7 H 0.7704 0.1249 0.0729
H8 H 0.6065 0.2256 -0.0217
C8 C 0.4532(2) 0.6574(2) 0.33639(15)
H9 H 0.3391 0.7428 0.3882
H10 H 0.4841 0.7365 0.2668
H11 H 0.5678 0.5898 0.3836
N1 N 0.14315(19) 0.21757(18) 0.39562(11)
H12 H 0.060(3) 0.294(3) 0.4557(16)
H13 H 0.083(3) 0.147(3) 0.3655(19)
N2 N 0.49254(18) 0.26627(17) 0.15396(11)
N3 N 0.40619(18) 0.51142(17) 0.29201(11)
O1 O 0.32021(16) 0.08598(15) 0.44640(10)
H14 H 0.276(3) 0.045(3) 0.5160(17)
O2 O 0.32350(17) 0.08045(16) 0.17275(10)
O3 O 0.63990(15) 0.47191(15) 0.13122(10)
O4 O 0.18658(16) 0.52687(15) 0.45675(9)
Cl1 Cl 0.88111(6) 0.03493(6) 0.33570(3)
loop_
_geom_bond_atom_site_label_1
_geom_bond_atom_site_label_2
_geom_bond_site_symmetry_1
_geom_bond_site_symmetry_2
C1 H1 1_555 1_555
H2 C1 1_555 1_555
H3 C1 1_555 1_555
C2 C1 1_555 1_555
H4 C2 1_555 1_555
H5 C2 1_555 1_555
C3 C2 1_555 1_555
C4 C3 1_555 1_555
C5 N2 1_555 1_555
C6 C3 1_555 1_555
C7 H6 1_555 1_555
H7 C7 1_555 1_555
H8 C7 1_555 1_555
C8 H9 1_555 1_555
H10 C8 1_555 1_555
H11 C8 1_555 1_555
N1 C3 1_555 1_555
H12 N1 1_555 1_555
H13 N1 1_555 1_555
N2 C4 1_555 1_555
N3 C5 1_555 1_555
O1 N1 1_555 1_555
H14 O1 1_555 1_555
O2 C4 1_555 1_555
O3 C5 1_555 1_555
O4 C6 1_555 1_555
C6 N3 1_555 1_555
C7 N2 1_555 1_555
C8 N3 1_555 1_555

#END
