
#######################################################################
#
#                 Cambridge Crystallographic Data Centre
#                                CCDC 
#
#######################################################################
#
# If this CIF has been generated from an entry in the Cambridge 
# Structural Database, then it will include bibliographic, chemical, 
# crystal, experimental, refinement or atomic coordinate data resulting 
# from the CCDC's data processing and validation procedures.
#
#######################################################################

data_HANLEP
_chemical_formula_moiety         'C9 H14 N2 O6'
_chemical_name_systematic        
5-(Hydroxyamino)-5-(N-methoxyethanimidoyl)-2,2-dimethyl-1,3-dioxane-4,6-dione
_symmetry_cell_setting           monoclinic
_symmetry_space_group_name_H-M   'P 21/c'
_symmetry_Int_Tables_number      14
_space_group_name_Hall           '-P 2ybc'
loop_
_symmetry_equiv_pos_site_id
_symmetry_equiv_pos_as_xyz
1 x,y,z
2 -x,1/2+y,1/2-z
3 -x,-y,-z
4 x,1/2-y,1/2+z
_cell_length_a                   11.4024(3)
_cell_length_b                   12.4341(3)
_cell_length_c                   8.0005(3)
_cell_angle_alpha                90
_cell_angle_beta                 99.510(3)
_cell_angle_gamma                90
_cell_volume                     1118.71
_exptl_crystal_colour            colorless
_exptl_crystal_description       plate
_cell_formula_units_Z            4
loop_
_atom_site_label
_atom_site_type_symbol
_atom_site_fract_x
_atom_site_fract_y
_atom_site_fract_z
C1 C 0.07081(11) 0.80772(11) 0.5254(2)
H1 H 0.0245 0.7507 0.4605
H2 H 0.0626 0.8746 0.4596
H3 H 0.0414 0.8189 0.6325
C2 C 0.30679(10) 0.63999(9) 0.66476(15)
C3 C 0.41574(11) 0.70325(10) 0.64925(17)
H4 H 0.4219 0.7117 0.5292
H5 H 0.4861 0.6653 0.7077
H6 H 0.4108 0.7743 0.7007
C4 C 0.31734(10) 0.52494(9) 0.73379(15)
C5 C 0.19399(10) 0.47066(9) 0.71237(16)
C6 C 0.23093(10) 0.40408(10) 0.43865(15)
C7 C 0.40329(10) 0.45884(9) 0.64547(15)
C8 C 0.20251(12) 0.29555(10) 0.35831(17)
H7 H 0.2536 0.2826 0.2732
H8 H 0.1190 0.2939 0.3039
H9 H 0.2165 0.2396 0.4456
C9 C 0.20859(12) 0.49472(11) 0.31273(16)
H10 H 0.2374 0.5623 0.3679
H11 H 0.1231 0.5004 0.2705
H12 H 0.2508 0.4805 0.2178
N1 N 0.19942(9) 0.67230(8) 0.62575(13)
N2 N 0.37034(9) 0.53300(8) 0.91250(13)
H13 H 0.3179(13) 0.5636(12) 0.9653(18)
O1 O 0.19405(8) 0.77682(7) 0.56015(12)
O2 O 0.37932(8) 0.42453(7) 0.97933(11)
H14 H 0.4534(14) 0.4217(13) 1.020(2)
O3 O 0.15853(7) 0.41388(7) 0.57015(11)
O4 O 0.35513(7) 0.39755(7) 0.51413(11)
O5 O 0.13282(8) 0.47376(7) 0.82003(11)
O6 O 0.50845(7) 0.45742(7) 0.69211(11)
loop_
_geom_bond_atom_site_label_1
_geom_bond_atom_site_label_2
_geom_bond_site_symmetry_1
_geom_bond_site_symmetry_2
C1 H1 1_555 1_555
H2 C1 1_555 1_555
H3 C1 1_555 1_555
C2 C3 1_555 1_555
C3 H4 1_555 1_555
H5 C3 1_555 1_555
H6 C3 1_555 1_555
C4 C2 1_555 1_555
C5 C4 1_555 1_555
C6 C8 1_555 1_555
C7 C4 1_555 1_555
C8 H7 1_555 1_555
H8 C8 1_555 1_555
H9 C8 1_555 1_555
C9 C6 1_555 1_555
H10 C9 1_555 1_555
H11 C9 1_555 1_555
H12 C9 1_555 1_555
N1 C2 1_555 1_555
N2 C4 1_555 1_555
H13 N2 1_555 1_555
O1 C1 1_555 1_555
O2 N2 1_555 1_555
H14 O2 1_555 1_555
O3 C5 1_555 1_555
O4 C6 1_555 1_555
O5 C5 1_555 1_555
O6 C7 1_555 1_555
C6 O3 1_555 1_555
C7 O4 1_555 1_555
N1 O1 1_555 1_555

#END
