
#######################################################################
#
#                 Cambridge Crystallographic Data Centre
#                                CCDC 
#
#######################################################################
#
# If this CIF has been generated from an entry in the Cambridge 
# Structural Database, then it will include bibliographic, chemical, 
# crystal, experimental, refinement or atomic coordinate data resulting 
# from the CCDC's data processing and validation procedures.
#
#######################################################################

data_HANMER
_chemical_formula_moiety         'C28 H33 N1 O1'
_chemical_name_systematic        
2,4-di-t-butyl-6-(((diphenylmethylene)amino)methyl)phenol
_symmetry_cell_setting           monoclinic
_symmetry_space_group_name_H-M   'P 21/c'
_symmetry_Int_Tables_number      14
_space_group_name_Hall           '-P 2ybc'
loop_
_symmetry_equiv_pos_site_id
_symmetry_equiv_pos_as_xyz
1 x,y,z
2 -x,1/2+y,1/2-z
3 -x,-y,-z
4 x,1/2-y,1/2+z
_cell_length_a                   19.264(5)
_cell_length_b                   5.9804(7)
_cell_length_c                   22.048(3)
_cell_angle_alpha                90
_cell_angle_beta                 111.594(15)
_cell_angle_gamma                90
_cell_volume                     2361.8
_exptl_crystal_colour            'pale yellow'
_exptl_crystal_description       plate
_cell_formula_units_Z            4
loop_
_atom_site_label
_atom_site_type_symbol
_atom_site_fract_x
_atom_site_fract_y
_atom_site_fract_z
N1 N 0.20367(9) 0.6927(3) 0.38440(10)
C1 C 0.19783(11) 0.7719(4) 0.32864(12)
C2 C 0.13226(11) 0.6961(4) 0.27074(11)
C3 C 0.10149(11) 0.4846(4) 0.27098(13)
H1 H 0.1230(6) 0.389(3) 0.3073(10)
C4 C 0.03979(11) 0.4131(5) 0.21861(12)
H2 H 0.0178(6) 0.255(4) 0.21910(12)
C5 C 0.00744(13) 0.5529(5) 0.16560(13)
H3 H -0.0362(11) 0.5038(13) 0.1292(9)
C6 C 0.03736(12) 0.7627(5) 0.16457(13)
H4 H 0.0140(6) 0.863(3) 0.1262(10)
C7 C 0.09982(11) 0.8345(4) 0.21677(12)
H5 H 0.1209(6) 0.982(4) 0.21559(12)
C8 C 0.25122(11) 0.9314(4) 0.31651(12)
C9 C 0.27784(11) 0.8893(5) 0.26688(13)
H6 H 0.2630(4) 0.755(4) 0.2414(7)
C10 C 0.32542(12) 1.0385(5) 0.25362(13)
H7 H 0.3440(6) 1.0068(11) 0.2191(11)
C11 C 0.34652(12) 1.2346(5) 0.29011(13)
H8 H 0.3805(10) 1.344(3) 0.2805(3)
C12 C 0.32062(12) 1.2768(5) 0.33923(14)
H9 H 0.3359(5) 1.416(4) 0.3652(8)
C13 C 0.27338(12) 1.1277(4) 0.35296(13)
H10 H 0.2554(5) 1.1600(10) 0.3883(10)
C14 C 0.26887(12) 0.7341(5) 0.44388(12)
H11 H 0.2602 0.8689 0.4662
H12 H 0.3133 0.7613 0.4325
C15 C 0.28284(12) 0.5343(4) 0.48916(12)
O1 O 0.15145(7) 0.4986(3) 0.46731(8)
H13 H 0.1486 0.5606 0.4323
C16 C 0.22377(11) 0.4336(4) 0.50109(11)
C17 C 0.23728(11) 0.2674(4) 0.54943(11)
C18 C 0.31237(12) 0.2020(5) 0.58092(12)
H14 H 0.3226(3) 0.092(3) 0.6124(9)
C19 C 0.37230(12) 0.2918(4) 0.56792(12)
C20 C 0.35608(12) 0.4610(4) 0.52163(12)
H15 H 0.3985(10) 0.5333(18) 0.5111(3)
C21 C 0.17403(12) 0.1658(4) 0.56725(12)
C22 C 0.20333(14) -0.0099(5) 0.62124(14)
H16 H 0.2265 -0.1327 0.6061
H17 H 0.1618 -0.0680 0.6321
H18 H 0.2404 0.0587 0.6600
C23 C 0.13629(14) 0.3513(5) 0.59249(14)
H19 H 0.1736 0.4252 0.6301
H20 H 0.0974 0.2857 0.6057
H21 H 0.1138 0.4612 0.5578
C24 C 0.11523(13) 0.0519(5) 0.50837(13)
H22 H 0.0918 0.1634 0.4744
H23 H 0.0771 -0.0172 0.5219
H24 H 0.1392 -0.0634 0.4912
C25 C 0.45229(12) 0.2081(5) 0.60469(13)
C26 C 0.45697(19) -0.0339(6) 0.5953(2)
H25 H 0.5082 -0.0849 0.6190
H26 H 0.4229 -0.1121 0.6120
H27 H 0.4429 -0.0661 0.5487
C27 C 0.51044(18) 0.3266(7) 0.5813(2)
H28 H 0.5082 0.4885 0.5871
H29 H 0.5607 0.2722 0.6070
H30 H 0.4988 0.2932 0.5351
C28 C 0.47662(19) 0.2721(7) 0.67730(19)
H31 H 0.4726 0.4345 0.6812
H32 H 0.4443 0.1970 0.6964
H33 H 0.5285 0.2257 0.7005
C29? C 0.4503(5) -0.0220(18) 0.6474(6)
H34? H 0.4175 -0.1337 0.6182
H35? H 0.5009 -0.0832 0.6673
H36? H 0.4314 0.0164 0.6817
C30? C 0.4772(5) 0.092(2) 0.5530(5)
H37? H 0.4387 -0.0142 0.5277
H38? H 0.4843 0.2052 0.5236
H39? H 0.5242 0.0124 0.5750
C31? C 0.4983(5) 0.3644(19) 0.6456(6)
H40? H 0.5481 0.3002 0.6674
H41? H 0.5017 0.4957 0.6203
H42? H 0.4778 0.4090 0.6785
loop_
_geom_bond_atom_site_label_1
_geom_bond_atom_site_label_2
_geom_bond_site_symmetry_1
_geom_bond_site_symmetry_2
N1 C1 1_555 1_555
C1 C2 1_555 1_555
C2 C3 1_555 1_555
C3 H1 1_555 1_555
C4 C3 1_555 1_555
H2 C4 1_555 1_555
C5 C4 1_555 1_555
H3 C5 1_555 1_555
C6 C5 1_555 1_555
H4 C6 1_555 1_555
C7 C2 1_555 1_555
H5 C7 1_555 1_555
C8 C1 1_555 1_555
C9 C8 1_555 1_555
H6 C9 1_555 1_555
C10 C9 1_555 1_555
H7 C10 1_555 1_555
C11 C10 1_555 1_555
H8 C11 1_555 1_555
C12 C11 1_555 1_555
H9 C12 1_555 1_555
C13 C8 1_555 1_555
H10 C13 1_555 1_555
C14 N1 1_555 1_555
H11 C14 1_555 1_555
H12 C14 1_555 1_555
C15 C14 1_555 1_555
O1 H13 1_555 1_555
C16 C15 1_555 1_555
C17 C16 1_555 1_555
C18 C17 1_555 1_555
H14 C18 1_555 1_555
C19 C18 1_555 1_555
C20 C15 1_555 1_555
H15 C20 1_555 1_555
C21 C17 1_555 1_555
C22 C21 1_555 1_555
H16 C22 1_555 1_555
H17 C22 1_555 1_555
H18 C22 1_555 1_555
C23 C21 1_555 1_555
H19 C23 1_555 1_555
H20 C23 1_555 1_555
H21 C23 1_555 1_555
C24 C21 1_555 1_555
H22 C24 1_555 1_555
H23 C24 1_555 1_555
H24 C24 1_555 1_555
C25 C19 1_555 1_555
C26 C25 1_555 1_555
H25 C26 1_555 1_555
H26 C26 1_555 1_555
H27 C26 1_555 1_555
C27 C25 1_555 1_555
H28 C27 1_555 1_555
H29 C27 1_555 1_555
H30 C27 1_555 1_555
C28 C25 1_555 1_555
H31 C28 1_555 1_555
H32 C28 1_555 1_555
H33 C28 1_555 1_555
C6 C7 1_555 1_555
C12 C13 1_555 1_555
O1 C16 1_555 1_555
C19 C20 1_555 1_555

#END
