
#######################################################################
#
#                 Cambridge Crystallographic Data Centre
#                                CCDC 
#
#######################################################################
#
# If this CIF has been generated from an entry in the Cambridge 
# Structural Database, then it will include bibliographic, chemical, 
# crystal, experimental, refinement or atomic coordinate data resulting 
# from the CCDC's data processing and validation procedures.
#
#######################################################################

data_HANMAM
_chemical_formula_moiety         'C8 H13 N3 O4'
_chemical_name_systematic        
4-Ethyl-3-hydroxy-N,1-dimethyl-2,5-dioxoimidazolidine-4-carboxamide
_symmetry_cell_setting           monoclinic
_symmetry_space_group_name_H-M   'P 21/c'
_symmetry_Int_Tables_number      14
_space_group_name_Hall           '-P 2ybc'
loop_
_symmetry_equiv_pos_site_id
_symmetry_equiv_pos_as_xyz
1 x,y,z
2 -x,1/2+y,1/2-z
3 -x,-y,-z
4 x,1/2-y,1/2+z
_cell_length_a                   11.1127(4)
_cell_length_b                   9.1165(2)
_cell_length_c                   10.0702(3)
_cell_angle_alpha                90
_cell_angle_beta                 104.117(3)
_cell_angle_gamma                90
_cell_volume                     989.391
_exptl_crystal_colour            colorless
_exptl_crystal_description       'small block'
_cell_formula_units_Z            4
loop_
_atom_site_label
_atom_site_type_symbol
_atom_site_fract_x
_atom_site_fract_y
_atom_site_fract_z
C1 C 0.2504(2) 0.03029(19) 0.32210(19)
H1 H 0.1708 -0.0034 0.2649
H2 H 0.2669 -0.0194 0.4110
H3 H 0.3168 0.0075 0.2767
C2 C 0.21776(17) 0.27836(18) 0.23718(16)
C3 C 0.21609(17) 0.44355(18) 0.26451(16)
C4 C 0.33586(17) 0.51264(17) 0.24284(18)
C5 C 0.31230(18) 0.59090(17) 0.45137(17)
C6 C 0.48810(19) 0.6975(2) 0.36672(19)
H4 H 0.5649 0.6400 0.3852
H5 H 0.4910 0.7664 0.4421
H6 H 0.4794 0.7521 0.2811
C7 C 0.10256(18) 0.51349(18) 0.16706(18)
H7 H 0.1060 0.4927 0.0716
H8 H 0.0266 0.4666 0.1821
C8 C 0.09263(19) 0.67847(19) 0.18429(19)
H9 H 0.0843 0.7000 0.2770
H10 H 0.0198 0.7156 0.1172
H11 H 0.1675 0.7261 0.1699
N1 N 0.24555(14) 0.18827(15) 0.34248(15)
H12 H 0.2521(19) 0.220(2) 0.4258(18)
N2 N 0.38257(14) 0.59924(15) 0.35456(14)
N3 N 0.22741(14) 0.47892(15) 0.40849(14)
O1 O 0.19439(13) 0.23668(12) 0.11622(11)
O2 O 0.37978(12) 0.49564(13) 0.14600(12)
O3 O 0.32710(13) 0.66260(13) 0.55467(12)
O4 O 0.11666(12) 0.48964(13) 0.45112(13)
H13 H 0.132(2) 0.422(2) 0.5157(19)
loop_
_geom_bond_atom_site_label_1
_geom_bond_atom_site_label_2
_geom_bond_site_symmetry_1
_geom_bond_site_symmetry_2
C1 H1 1_555 1_555
H2 C1 1_555 1_555
H3 C1 1_555 1_555
C2 C3 1_555 1_555
C3 C4 1_555 1_555
C4 N2 1_555 1_555
C5 N2 1_555 1_555
C6 H4 1_555 1_555
H5 C6 1_555 1_555
H6 C6 1_555 1_555
C7 C3 1_555 1_555
H7 C7 1_555 1_555
H8 C7 1_555 1_555
C8 C7 1_555 1_555
H9 C8 1_555 1_555
H10 C8 1_555 1_555
H11 C8 1_555 1_555
N1 C1 1_555 1_555
H12 N1 1_555 1_555
N2 C6 1_555 1_555
N3 C3 1_555 1_555
O1 C2 1_555 1_555
O2 C4 1_555 1_555
O3 C5 1_555 1_555
O4 N3 1_555 1_555
H13 O4 1_555 1_555
C2 N1 1_555 1_555
C5 N3 1_555 1_555

#END
