
#######################################################################
#
#                 Cambridge Crystallographic Data Centre
#                                CCDC 
#
#######################################################################
#
# If this CIF has been generated from an entry in the Cambridge 
# Structural Database, then it will include bibliographic, chemical, 
# crystal, experimental, refinement or atomic coordinate data resulting 
# from the CCDC's data processing and validation procedures.
#
#######################################################################

data_HANNUH
_chemical_formula_moiety         'C6 Cl1 N2 O1 S4,C2 H3 N1'
_chemical_name_systematic        
'8-chloro-4-oxo-3H,4H-[1,2,3]dithiazolo[4,5-f][1,2,3]benzodithiazol-3-yl radical acetonitrile solvate'
_symmetry_cell_setting           orthorhombic
_symmetry_space_group_name_H-M   'P n a 21'
_symmetry_Int_Tables_number      33
_space_group_name_Hall           'P 2c -2n'
loop_
_symmetry_equiv_pos_site_id
_symmetry_equiv_pos_as_xyz
1 x,y,z
2 -x,-y,1/2+z
3 1/2+x,1/2-y,z
4 1/2-x,1/2+y,1/2+z
_cell_length_a                   9.4913(3)
_cell_length_b                   23.5986(8)
_cell_length_c                   5.3124(2)
_cell_angle_alpha                90
_cell_angle_beta                 90
_cell_angle_gamma                90
_cell_volume                     1189.88
_exptl_crystal_colour            black
_exptl_crystal_description       needle
_cell_formula_units_Z            4
loop_
_atom_site_label
_atom_site_type_symbol
_atom_site_fract_x
_atom_site_fract_y
_atom_site_fract_z
S1 S 0.04073(7) 0.72225(3) 0.15997(15)
Cl1 Cl 0.04447(7) 0.93912(3) 0.16779(14)
S2 S 0.40177(6) 0.95019(2) 0.88476(13)
S3 S 0.26911(6) 0.97485(2) 0.58911(12)
S4 S -0.00687(7) 0.80621(3) 0.06709(13)
C1 C 0.2285(2) 0.90508(9) 0.5237(5)
C2 C 0.2993(2) 0.86487(10) 0.6774(5)
C3 C 0.1083(2) 0.83155(9) 0.2950(5)
C4 C 0.1777(2) 0.78821(10) 0.4352(4)
C5 C 0.13349(19) 0.88789(9) 0.3392(4)
N1 N 0.38486(19) 0.88198(8) 0.8568(4)
N2 N 0.1525(2) 0.73492(8) 0.3847(4)
C8 C 0.2788(2) 0.80311(9) 0.6386(5)
O1 O 0.3387(2) 0.76719(7) 0.7628(4)
C6 C 0.7644(3) 0.88192(13) 0.6851(7)
H1 H 0.7905 0.8430 0.6598
H2 H 0.7124 0.8854 0.8393
H3 H 0.8478 0.9048 0.6941
N3 N 0.6106(2) 0.91532(10) 0.3156(5)
C7 C 0.6781(3) 0.90072(10) 0.4774(5)
loop_
_geom_bond_atom_site_label_1
_geom_bond_atom_site_label_2
_geom_bond_site_symmetry_1
_geom_bond_site_symmetry_2
S1 S4 1_555 1_555
Cl1 C5 1_555 1_555
S2 S3 1_555 1_555
S3 C1 1_555 1_555
S4 C3 1_555 1_555
C1 C2 1_555 1_555
C2 N1 1_555 1_555
C3 C4 1_555 1_555
C4 N2 1_555 1_555
C5 C1 1_555 1_555
N1 S2 1_555 1_555
C6 H1 1_555 1_555
H2 C6 1_555 1_555
H3 C6 1_555 1_555
N2 S1 1_555 1_555
N3 C7 1_555 1_555
C7 C6 1_555 1_555
C8 C2 1_555 1_555
O1 C8 1_555 1_555
C3 C5 1_555 1_555
C4 C8 1_555 1_555

#END
