
#######################################################################
#
#                 Cambridge Crystallographic Data Centre
#                                CCDC 
#
#######################################################################
#
# If this CIF has been generated from an entry in the Cambridge 
# Structural Database, then it will include bibliographic, chemical, 
# crystal, experimental, refinement or atomic coordinate data resulting 
# from the CCDC's data processing and validation procedures.
#
#######################################################################

data_HANPOB
_chemical_formula_moiety         'C17 H17 Br1 N2 O6'
_chemical_name_systematic        
(2R,4S,5S)-1-(Tetrahydro-4-p-bromobenzoyloxy-5-methoxy-2-furanyl)thymine
_chemical_properties_biological  
'agent which acts as a potent inhibitor of Herpes simplex type 1 thymidine kinase'
_symmetry_cell_setting           monoclinic
_symmetry_space_group_name_H-M   'P 21'
_symmetry_Int_Tables_number      4
_space_group_name_Hall           'P 2yb'
loop_
_symmetry_equiv_pos_site_id
_symmetry_equiv_pos_as_xyz
1 x,y,z
2 -x,1/2+y,-z
_cell_length_a                   7.824(1)
_cell_length_b                   5.474(2)
_cell_length_c                   20.973(1)
_cell_angle_alpha                90
_cell_angle_beta                 95.13(1)
_cell_angle_gamma                90
_cell_volume                     894.646
_exptl_crystal_colour            colorless
_cell_formula_units_Z            2
loop_
_atom_site_label
_atom_site_type_symbol
_atom_site_fract_x
_atom_site_fract_y
_atom_site_fract_z
Br1 Br 0.30132(4) 0.0000 0.18002(1)
O1 O 0.4783(2) -0.4803(4) -0.31917(7)
O2 O 0.3853(3) -0.2103(4) -0.52263(8)
O3 O 0.0846(2) -0.1970(3) -0.26368(8)
O4 O -0.0813(2) 0.1422(4) -0.29534(9)
O5 O 0.1449(2) 0.1143(3) -0.14312(7)
O6 O 0.2831(3) 0.4713(4) -0.12281(9)
N1 N 0.4287(3) -0.3361(4) -0.42039(9)
N2 N 0.2959(3) -0.1555(4) -0.33791(9)
C1 C 0.4052(3) -0.3341(5) -0.3559(1)
C2 C 0.3546(3) -0.1796(5) -0.4666(1)
C3 C 0.2434(3) 0.0045(6) -0.44436(9)
C4 C 0.1611(4) 0.1824(6) -0.4914(1)
C5 C 0.2181(3) 0.0091(6) -0.3815(1)
C6 C 0.2589(3) -0.1429(5) -0.2695(1)
C7 C -0.2241(4) 0.021(1) -0.3281(2)
C8 C -0.0041(3) 0.0122(6) -0.24347(9)
C9 C 0.1309(3) 0.1781(5) -0.2104(1)
C10 C 0.2942(3) 0.1105(6) -0.2410(1)
C11 C 0.2274(3) 0.2792(5) -0.1041(1)
C12 C 0.2434(3) 0.2016(5) -0.0363(1)
C13 C 0.1723(3) -0.0130(6) -0.0156(1)
C14 C 0.1877(3) -0.0722(5) 0.0494(1)
C15 C 0.2777(3) 0.0815(5) 0.0919(1)
C16 C 0.3532(4) 0.2949(6) 0.0723(1)
C17 C 0.3346(3) 0.3537(5) 0.0077(1)
H1 H 0.505 -0.460 -0.435
H2 H 0.196 0.147 -0.534
H3 H 0.037 0.169 -0.492
H4 H 0.196 0.347 -0.479
H5 H 0.142 0.132 -0.366
H6 H 0.334 -0.261 -0.247
H7 H -0.092 -0.039 -0.216
H8 H -0.271 0.121 -0.363
H9 H -0.187 -0.135 -0.344
H10 H -0.311 -0.007 -0.299
H11 H 0.107 0.352 -0.214
H12 H 0.316 0.227 -0.274
H13 H 0.392 0.106 -0.209
H14 H 0.112 -0.122 -0.046
H15 H 0.136 -0.220 0.064
H16 H 0.417 0.400 0.103
H17 H 0.386 0.503 -0.007
loop_
_geom_bond_atom_site_label_1
_geom_bond_atom_site_label_2
_geom_bond_site_symmetry_1
_geom_bond_site_symmetry_2
Br1 C15 1_555 1_555
O1 C1 1_555 1_555
O2 C2 1_555 1_555
O3 C6 1_555 1_555
O4 C7 1_555 1_555
O5 C9 1_555 1_555
O6 C11 1_555 1_555
N1 C1 1_555 1_555
N2 C1 1_555 1_555
C2 N1 1_555 1_555
C3 C2 1_555 1_555
C4 C3 1_555 1_555
C5 N2 1_555 1_555
C6 N2 1_555 1_555
C7 H8 1_555 1_555
C8 O3 1_555 1_555
C9 C8 1_555 1_555
C10 C6 1_555 1_555
C11 O5 1_555 1_555
C12 C11 1_555 1_555
C13 C12 1_555 1_555
C14 C13 1_555 1_555
C15 C14 1_555 1_555
C16 C15 1_555 1_555
C17 C12 1_555 1_555
H1 N1 1_555 1_555
H2 C4 1_555 1_555
H3 C4 1_555 1_555
H4 C4 1_555 1_555
H5 C5 1_555 1_555
H6 C6 1_555 1_555
H7 C8 1_555 1_555
H9 C7 1_555 1_555
H10 C7 1_555 1_555
H11 C9 1_555 1_555
H12 C10 1_555 1_555
H13 C10 1_555 1_555
H14 C13 1_555 1_555
H15 C14 1_555 1_555
H16 C16 1_555 1_555
H17 C17 1_555 1_555
O4 C8 1_555 1_555
C3 C5 1_555 1_555
C9 C10 1_555 1_555
C16 C17 1_555 1_555

#END
