
#######################################################################
#
#                 Cambridge Crystallographic Data Centre
#                                CCDC 
#
#######################################################################
#
# If this CIF has been generated from an entry in the Cambridge 
# Structural Database, then it will include bibliographic, chemical, 
# crystal, experimental, refinement or atomic coordinate data resulting 
# from the CCDC's data processing and validation procedures.
#
#######################################################################

data_HANTUN
_chemical_formula_moiety         'C19 H20 O5'
_chemical_name_systematic        
'(3aS,4R,6aR)-Dimethyl 3a-methyl-6-oxo-4-phenyl-4,5,6,6a-tetrahydropentalene-1,1(3aH)-dicarboxylate'
_symmetry_cell_setting           orthorhombic
_symmetry_space_group_name_H-M   'P 21 21 21'
_symmetry_Int_Tables_number      19
_space_group_name_Hall           'P 2ac 2ab'
loop_
_symmetry_equiv_pos_site_id
_symmetry_equiv_pos_as_xyz
1 x,y,z
2 1/2-x,-y,1/2+z
3 1/2+x,1/2-y,-z
4 -x,1/2+y,1/2-z
_cell_length_a                   10.1287(9)
_cell_length_b                   11.8446(12)
_cell_length_c                   14.0140(14)
_cell_angle_alpha                90
_cell_angle_beta                 90
_cell_angle_gamma                90
_cell_volume                     1681.27
_exptl_crystal_colour            colorless
_exptl_crystal_description       prism
_cell_formula_units_Z            4
loop_
_atom_site_label
_atom_site_type_symbol
_atom_site_fract_x
_atom_site_fract_y
_atom_site_fract_z
C1 C 0.84513(11) 0.59143(10) 0.60821(8)
C2 C 0.94793(11) 0.56496(10) 0.52789(9)
H1 H 0.9989 0.6360 0.5164
C3 C 0.86338(13) 0.54446(11) 0.43917(9)
H2 H 0.9139 0.5609 0.3803
H3 H 0.8321 0.4653 0.4368
C4 C 0.74886(12) 0.62515(10) 0.45010(8)
C5 C 0.73009(11) 0.65237(10) 0.55615(8)
H4 H 0.7349 0.7357 0.5671
C6 C 0.60057(11) 0.60332(10) 0.59896(8)
C7 C 0.64697(12) 0.49431(10) 0.64492(9)
H5 H 0.5895 0.4371 0.6680
C8 C 0.77731(12) 0.48870(10) 0.64892(8)
H6 H 0.8237 0.4261 0.6749
C9 C 0.90647(12) 0.66152(12) 0.68872(9)
H7 H 0.8375 0.6835 0.7341
H8 H 0.9475 0.7294 0.6618
H9 H 0.9736 0.6165 0.7217
C10 C 1.04717(12) 0.47452(10) 0.55415(8)
C11 C 1.16026(12) 0.50464(11) 0.60520(9)
H10 H 1.1748 0.5817 0.6209
C12 C 1.25208(12) 0.42391(11) 0.63345(9)
H11 H 1.3269 0.4456 0.6700
C13 C 1.23428(13) 0.31188(11) 0.60819(9)
H12 H 1.2975 0.2567 0.6264
C14 C 1.12376(14) 0.28057(11) 0.55617(9)
H13 H 1.1119 0.2040 0.5378
C15 C 1.03063(13) 0.36096(11) 0.53090(9)
H14 H 0.9539 0.3382 0.4970
C16 C 0.49174(11) 0.58986(10) 0.52451(9)
C17 C 0.40389(14) 0.47753(13) 0.40307(10)
H15 H 0.3150 0.4873 0.4294
H16 H 0.4121 0.4017 0.3758
H17 H 0.4192 0.5339 0.3531
C18 C 0.54085(12) 0.68295(10) 0.67415(9)
C19 C 0.37151(14) 0.69548(11) 0.78886(10)
H18 H 0.4314 0.7352 0.8323
H19 H 0.3127 0.6463 0.8257
H20 H 0.3188 0.7507 0.7533
O1 O 0.68302(9) 0.66412(8) 0.38643(7)
O2 O 0.40884(8) 0.66035(7) 0.50964(6)
O3 O 0.50051(8) 0.49180(8) 0.47825(6)
O4 O 0.57155(9) 0.77939(7) 0.68773(7)
O5 O 0.44762(9) 0.62800(7) 0.72278(6)
loop_
_geom_bond_atom_site_label_1
_geom_bond_atom_site_label_2
_geom_bond_site_symmetry_1
_geom_bond_site_symmetry_2
C1 C2 1_555 1_555
C2 H1 1_555 1_555
C3 C2 1_555 1_555
H2 C3 1_555 1_555
H3 C3 1_555 1_555
C4 C3 1_555 1_555
C5 C1 1_555 1_555
H4 C5 1_555 1_555
C6 C5 1_555 1_555
C7 C6 1_555 1_555
H5 C7 1_555 1_555
C8 C1 1_555 1_555
H6 C8 1_555 1_555
C9 C1 1_555 1_555
H7 C9 1_555 1_555
H8 C9 1_555 1_555
H9 C9 1_555 1_555
C10 C2 1_555 1_555
C11 C10 1_555 1_555
H10 C11 1_555 1_555
C12 C11 1_555 1_555
H11 C12 1_555 1_555
C13 C12 1_555 1_555
H12 C13 1_555 1_555
C14 C13 1_555 1_555
H13 C14 1_555 1_555
C15 C10 1_555 1_555
H14 C15 1_555 1_555
C16 C6 1_555 1_555
C17 H15 1_555 1_555
H16 C17 1_555 1_555
H17 C17 1_555 1_555
C18 C6 1_555 1_555
C19 H18 1_555 1_555
H19 C19 1_555 1_555
H20 C19 1_555 1_555
O1 C4 1_555 1_555
O2 C16 1_555 1_555
O3 C16 1_555 1_555
O4 C18 1_555 1_555
O5 C18 1_555 1_555
C4 C5 1_555 1_555
C7 C8 1_555 1_555
C14 C15 1_555 1_555
C17 O3 1_555 1_555
C19 O5 1_555 1_555

#END
