
#######################################################################
#
#                 Cambridge Crystallographic Data Centre
#                                CCDC 
#
#######################################################################
#
# If this CIF has been generated from an entry in the Cambridge 
# Structural Database, then it will include bibliographic, chemical, 
# crystal, experimental, refinement or atomic coordinate data resulting 
# from the CCDC's data processing and validation procedures.
#
#######################################################################

data_HANZAZ
_chemical_formula_moiety         'C39 H32 Cl2 Se2,C1 H1 Cl3'
_chemical_name_systematic        
'1-(2,2-bis(4-Chlorophenyl)-1-(phenylselanyl)vinyl)-5-phenyl-2-((phenylselanyl)methyl)bicyclo[3.1.0]hexane chloroform solvate'
_symmetry_cell_setting           monoclinic
_symmetry_space_group_name_H-M   'P 21/c'
_symmetry_Int_Tables_number      14
_space_group_name_Hall           '-P 2ybc'
loop_
_symmetry_equiv_pos_site_id
_symmetry_equiv_pos_as_xyz
1 x,y,z
2 -x,1/2+y,1/2-z
3 -x,-y,-z
4 x,1/2-y,1/2+z
_cell_length_a                   18.9734(13)
_cell_length_b                   9.5740(6)
_cell_length_c                   21.8569(15)
_cell_angle_alpha                90
_cell_angle_beta                 103.442(1)
_cell_angle_gamma                90
_cell_volume                     3861.57
_exptl_crystal_colour            colorless
_exptl_crystal_description       prismatic
_cell_formula_units_Z            4
loop_
_atom_site_label
_atom_site_type_symbol
_atom_site_fract_x
_atom_site_fract_y
_atom_site_fract_z
Se1 Se 0.19588(3) 0.49021(6) 0.46689(3)
Se2 Se 0.48870(3) 0.71324(8) 0.54344(3)
Cl1 Cl 0.48585(13) -0.0017(3) 0.75692(12)
Cl2 Cl 0.06359(15) -0.1648(2) 0.41598(13)
C1 C 0.2970(3) 0.5265(5) 0.5846(2)
C2 C 0.3462(3) 0.6345(5) 0.5627(2)
H1 H 0.3229 0.6636 0.5198
C3 C 0.3472(3) 0.7599(6) 0.6071(3)
H2 H 0.3851 0.7490 0.6451
H3 H 0.3553 0.8463 0.5866
C4 C 0.2731(3) 0.7605(6) 0.6223(3)
H4 H 0.2389 0.8138 0.5912
H5 H 0.2759 0.8013 0.6634
C5 C 0.2499(3) 0.6073(6) 0.6214(2)
C6 C 0.3089(3) 0.5091(5) 0.6544(2)
H6 H 0.3523 0.5502 0.6807
H7 H 0.2942 0.4214 0.6699
C7 C 0.2609(2) 0.4136(5) 0.5410(2)
C8 C 0.2649(3) 0.2771(5) 0.5523(2)
C9 C 0.3212(3) 0.2124(5) 0.6039(2)
C10 C 0.2998(3) 0.1356(6) 0.6506(2)
H8 H 0.2507 0.1267 0.6494
C11 C 0.3498(3) 0.0724(6) 0.6987(2)
H9 H 0.3348 0.0236 0.7302
C12 C 0.4226(3) 0.0831(7) 0.6990(3)
C13 C 0.4439(3) 0.1542(7) 0.6532(3)
H10 H 0.4928 0.1590 0.6531
C14 C 0.3930(3) 0.2204(6) 0.6061(3)
H11 H 0.4085 0.2711 0.5754
C15 C 0.2134(3) 0.1714(6) 0.5154(2)
C16 C 0.2401(4) 0.0598(6) 0.4882(3)
H12 H 0.2896 0.0540 0.4905
C17 C 0.1938(4) -0.0459(8) 0.4570(3)
H13 H 0.2118 -0.1223 0.4393
C18 C 0.1228(4) -0.0323(7) 0.4538(3)
C19 C 0.0950(4) 0.0766(8) 0.4809(3)
H14 H 0.0455 0.0823 0.4785
C20 C 0.1411(3) 0.1768(6) 0.5115(3)
H15 H 0.1224 0.2510 0.5303
C21 C 0.2202(3) 0.3758(6) 0.4027(2)
C22 C 0.2911(3) 0.3702(7) 0.3962(3)
H16 H 0.3279 0.4171 0.4242
C23 C 0.3060(4) 0.2939(9) 0.3474(3)
H17 H 0.3534 0.2893 0.3428
C24 C 0.2533(5) 0.2255(9) 0.3062(3)
H18 H 0.2641 0.1776 0.2726
C25 C 0.1849(5) 0.2270(10) 0.3141(4)
H19 H 0.1489 0.1758 0.2873
C26 C 0.1686(4) 0.3047(8) 0.3621(3)
H20 H 0.1210 0.3080 0.3664
C27 C 0.4201(3) 0.5776(6) 0.5628(3)
H21 H 0.4146 0.5023 0.5324
H22 H 0.4406 0.5380 0.6039
C28 C 0.4328(3) 0.7681(6) 0.4625(3)
C29 C 0.4147(4) 0.9071(8) 0.4531(4)
H23 H 0.4299 0.9734 0.4844
C30 C 0.3718(6) 0.9435(12) 0.3933(6)
H24 H 0.3571 1.0359 0.3864
C31 C 0.3513(5) 0.8522(13) 0.3462(5)
H25 H 0.3243 0.8810 0.3071
C32 C 0.3710(4) 0.7151(9) 0.3572(4)
H26 H 0.3565 0.6494 0.3254
C33 C 0.4120(4) 0.6742(8) 0.4143(3)
H27 H 0.4259 0.5812 0.4207
C34 C 0.1730(3) 0.5713(6) 0.6173(2)
C35 C 0.1503(3) 0.4639(9) 0.6497(3)
H28 H 0.1852 0.4133 0.6780
C36 C 0.0796(4) 0.4275(11) 0.6429(4)
H29 H 0.0671 0.3527 0.6654
C37 C 0.0261(4) 0.5030(11) 0.6020(4)
H30 H -0.0226 0.4817 0.5981
C38 C 0.0455(4) 0.6075(9) 0.5679(4)
H31 H 0.0102 0.6566 0.5393
C39 C 0.1179(4) 0.6415(7) 0.5755(3)
H32 H 0.1302 0.7142 0.5518
Cl3 Cl 0.1779(3) 0.8410(7) 0.7733(2)
Cl4 Cl 0.0257(3) 0.8420(10) 0.7311(3)
Cl5 Cl 0.1103(3) 0.9801(6) 0.6660(3)
C40 C 0.1035(6) 0.8276(16) 0.7169(6)
H33 H 0.1055 0.7413 0.6932
loop_
_geom_bond_atom_site_label_1
_geom_bond_atom_site_label_2
_geom_bond_site_symmetry_1
_geom_bond_site_symmetry_2
Se1 C7 1_555 1_555
Se2 C27 1_555 1_555
Cl1 C12 1_555 1_555
Cl2 C18 1_555 1_555
Cl3 C40 1_555 1_555
Cl4 C40 1_555 1_555
Cl5 C40 1_555 1_555
C1 C2 1_555 1_555
C2 H1 1_555 1_555
C3 C2 1_555 1_555
H2 C3 1_555 1_555
H3 C3 1_555 1_555
C4 C3 1_555 1_555
H4 C4 1_555 1_555
H5 C4 1_555 1_555
C5 C1 1_555 1_555
C6 C1 1_555 1_555
H6 C6 1_555 1_555
H7 C6 1_555 1_555
C7 C1 1_555 1_555
C8 C7 1_555 1_555
C9 C8 1_555 1_555
C10 C9 1_555 1_555
H8 C10 1_555 1_555
C11 C10 1_555 1_555
H9 C11 1_555 1_555
C12 C11 1_555 1_555
C13 C12 1_555 1_555
H10 C13 1_555 1_555
C14 C9 1_555 1_555
H11 C14 1_555 1_555
C15 C8 1_555 1_555
C16 C15 1_555 1_555
H12 C16 1_555 1_555
C17 C16 1_555 1_555
H13 C17 1_555 1_555
C18 C17 1_555 1_555
C19 C18 1_555 1_555
H14 C19 1_555 1_555
C20 C15 1_555 1_555
H15 C20 1_555 1_555
C21 Se1 1_555 1_555
C22 C21 1_555 1_555
H16 C22 1_555 1_555
C23 C22 1_555 1_555
H17 C23 1_555 1_555
C24 C23 1_555 1_555
H18 C24 1_555 1_555
C25 C24 1_555 1_555
H19 C25 1_555 1_555
C26 C21 1_555 1_555
H20 C26 1_555 1_555
C27 C2 1_555 1_555
H21 C27 1_555 1_555
H22 C27 1_555 1_555
C28 Se2 1_555 1_555
C29 C28 1_555 1_555
H23 C29 1_555 1_555
C30 C29 1_555 1_555
H24 C30 1_555 1_555
C31 C30 1_555 1_555
H25 C31 1_555 1_555
C32 C31 1_555 1_555
H26 C32 1_555 1_555
C33 C28 1_555 1_555
H27 C33 1_555 1_555
C34 C5 1_555 1_555
C35 C34 1_555 1_555
H28 C35 1_555 1_555
C36 C35 1_555 1_555
H29 C36 1_555 1_555
C37 C36 1_555 1_555
H30 C37 1_555 1_555
C38 C37 1_555 1_555
H31 C38 1_555 1_555
C39 C34 1_555 1_555
H32 C39 1_555 1_555
C40 H33 1_555 1_555
C4 C5 1_555 1_555
C5 C6 1_555 1_555
C13 C14 1_555 1_555
C19 C20 1_555 1_555
C25 C26 1_555 1_555
C32 C33 1_555 1_555
C38 C39 1_555 1_555

#END
