
#######################################################################
#
#                 Cambridge Crystallographic Data Centre
#                                CCDC 
#
#######################################################################
#
# If this CIF has been generated from an entry in the Cambridge 
# Structural Database, then it will include bibliographic, chemical, 
# crystal, experimental, refinement or atomic coordinate data resulting 
# from the CCDC's data processing and validation procedures.
#
#######################################################################

data_HAPBUY
_chemical_formula_moiety         'C27 H19 Cl2 N1 O1'
_chemical_name_systematic        
'N-((2,6-dichlorophenyl)methylidene)-N-(2-(1,2-diphenylethenyl)phenyl)imine oxide'
_symmetry_cell_setting           triclinic
_symmetry_space_group_name_H-M   'P -1'
_symmetry_Int_Tables_number      2
_space_group_name_Hall           '-P 1'
loop_
_symmetry_equiv_pos_site_id
_symmetry_equiv_pos_as_xyz
1 x,y,z
2 -x,-y,-z
_cell_length_a                   9.7690(6)
_cell_length_b                   10.5454(9)
_cell_length_c                   11.2203(12)
_cell_angle_alpha                98.501(8)
_cell_angle_beta                 93.141(7)
_cell_angle_gamma                104.025(7)
_cell_volume                     1104.16
_exptl_crystal_colour            colorless
_exptl_crystal_description       block
_cell_formula_units_Z            2
loop_
_atom_site_label
_atom_site_type_symbol
_atom_site_fract_x
_atom_site_fract_y
_atom_site_fract_z
Cl1 Cl 0.36085(7) 0.57418(7) 0.54785(8)
Cl2 Cl 0.02334(7) 0.82632(8) 0.33592(8)
O1 O 0.10211(15) 0.87007(18) 0.62122(18)
N1 N 0.22834(18) 0.89198(19) 0.58751(19)
C1 C 0.2124(3) 0.5700(3) 0.4538(2)
C2 C 0.1287(3) 0.4492(3) 0.3966(3)
H1 H 0.1524 0.3711 0.4072
C3 C 0.0102(3) 0.4459(3) 0.3237(3)
H2 H -0.0480 0.3647 0.2860
C4 C -0.0235(3) 0.5604(3) 0.3058(3)
H3 H -0.1031 0.5572 0.2549
C5 C 0.0615(2) 0.6816(3) 0.3640(3)
C6 C 0.1814(2) 0.6896(2) 0.4418(2)
C7 C 0.2724(2) 0.8153(2) 0.5060(2)
H4 H 0.3656 0.8410 0.4874
C8 C 0.3268(2) 1.0166(2) 0.6440(2)
C9 C 0.3096(3) 1.1294(3) 0.6024(3)
H5 H 0.2357 1.1242 0.5446
C10 C 0.4036(3) 1.2498(3) 0.6479(3)
H6 H 0.3926 1.3267 0.6217
C11 C 0.5137(3) 1.2554(3) 0.7320(3)
H7 H 0.5782 1.3362 0.7613
C12 C 0.5293(3) 1.1428(2) 0.7732(2)
H8 H 0.6056 1.1485 0.8289
C13 C 0.4330(2) 1.0198(2) 0.7332(2)
C14 C 0.4419(2) 0.9041(2) 0.7929(2)
C15 C 0.3241(2) 0.8342(2) 0.8317(2)
H9 H 0.2432 0.8634 0.8170
C16 C 0.3025(2) 0.7185(2) 0.8939(2)
C17 C 0.3734(2) 0.6188(3) 0.8727(3)
H10 H 0.4424 0.6252 0.8185
C18 C 0.3423(3) 0.5105(3) 0.9316(3)
H11 H 0.3895 0.4440 0.9154
C19 C 0.2425(3) 0.5000(3) 1.0136(3)
H12 H 0.2231 0.4275 1.0538
C20 C 0.1719(3) 0.5972(3) 1.0358(3)
H13 H 0.1049 0.5909 1.0919
C21 C 0.1995(2) 0.7047(3) 0.9754(3)
H14 H 0.1486 0.7686 0.9895
C22 C 0.5874(2) 0.8869(2) 0.8201(2)
C23 C 0.6784(2) 0.8845(3) 0.7293(3)
H15 H 0.6473 0.8897 0.6507
C24 C 0.8145(3) 0.8743(3) 0.7551(4)
H16 H 0.8746 0.8719 0.6939
C25 C 0.8610(3) 0.8679(3) 0.8699(4)
H17 H 0.9529 0.8607 0.8865
C26 C 0.7738(3) 0.8719(3) 0.9617(3)
H18 H 0.8068 0.8681 1.0401
C27 C 0.6359(3) 0.8817(3) 0.9368(3)
H19 H 0.5765 0.8847 0.9987
loop_
_geom_bond_atom_site_label_1
_geom_bond_atom_site_label_2
_geom_bond_site_symmetry_1
_geom_bond_site_symmetry_2
Cl1 C1 1_555 1_555
Cl2 C5 1_555 1_555
O1 N1 1_555 1_555
N1 C7 1_555 1_555
C1 C2 1_555 1_555
C2 H1 1_555 1_555
C3 C2 1_555 1_555
H2 C3 1_555 1_555
C4 C3 1_555 1_555
H3 C4 1_555 1_555
C5 C4 1_555 1_555
C6 C1 1_555 1_555
C7 C6 1_555 1_555
H4 C7 1_555 1_555
C8 N1 1_555 1_555
C9 C8 1_555 1_555
H5 C9 1_555 1_555
C10 C9 1_555 1_555
H6 C10 1_555 1_555
C11 C10 1_555 1_555
H7 C11 1_555 1_555
C12 C11 1_555 1_555
H8 C12 1_555 1_555
C13 C8 1_555 1_555
C14 C13 1_555 1_555
C15 C14 1_555 1_555
H9 C15 1_555 1_555
C16 C15 1_555 1_555
C17 C16 1_555 1_555
H10 C17 1_555 1_555
C18 C17 1_555 1_555
H11 C18 1_555 1_555
C19 C18 1_555 1_555
H12 C19 1_555 1_555
C20 C19 1_555 1_555
H13 C20 1_555 1_555
C21 C16 1_555 1_555
H14 C21 1_555 1_555
C22 C14 1_555 1_555
C23 C22 1_555 1_555
H15 C23 1_555 1_555
C24 C23 1_555 1_555
H16 C24 1_555 1_555
C25 C24 1_555 1_555
H17 C25 1_555 1_555
C26 C25 1_555 1_555
H18 C26 1_555 1_555
C27 C22 1_555 1_555
H19 C27 1_555 1_555
C5 C6 1_555 1_555
C12 C13 1_555 1_555
C20 C21 1_555 1_555
C26 C27 1_555 1_555

#END
