
#######################################################################
#
#                 Cambridge Crystallographic Data Centre
#                                CCDC 
#
#######################################################################
#
# If this CIF has been generated from an entry in the Cambridge 
# Structural Database, then it will include bibliographic, chemical, 
# crystal, experimental, refinement or atomic coordinate data resulting 
# from the CCDC's data processing and validation procedures.
#
#######################################################################

data_HAPBOS
_chemical_formula_moiety         'C27 H17 Cl2 N1 O1'
_chemical_name_systematic        
'2-(2,6-dichlorophenyl)-3,4-diphenylquinoline N-oxide'
_symmetry_cell_setting           triclinic
_symmetry_space_group_name_H-M   'P -1'
_symmetry_Int_Tables_number      2
_space_group_name_Hall           '-P 1'
loop_
_symmetry_equiv_pos_site_id
_symmetry_equiv_pos_as_xyz
1 x,y,z
2 -x,-y,-z
_cell_length_a                   9.0926(6)
_cell_length_b                   10.1544(9)
_cell_length_c                   12.6444(10)
_cell_angle_alpha                71.474(8)
_cell_angle_beta                 89.250(6)
_cell_angle_gamma                74.435(7)
_cell_volume                     1063.03
_exptl_crystal_colour            colorless
_exptl_crystal_description       block
_cell_formula_units_Z            2
loop_
_atom_site_label
_atom_site_type_symbol
_atom_site_fract_x
_atom_site_fract_y
_atom_site_fract_z
Cl1 Cl 0.95313(6) 0.33440(7) 0.16456(5)
Cl2 Cl 0.42509(6) 0.18829(7) 0.15970(5)
O1 O 0.62128(15) 0.43188(15) 0.28042(12)
N1 N 0.67093(17) 0.29354(18) 0.33291(14)
C1 C 0.6447(2) 0.3459(2) 0.50632(18)
H1 H 0.6138 0.4465 0.4655
C2 C 0.6528(2) 0.2994(2) 0.62045(19)
H2 H 0.6239 0.3677 0.6591
C3 C 0.7037(2) 0.1514(2) 0.68100(18)
H3 H 0.7116 0.1201 0.7605
C4 C 0.7418(2) 0.0522(2) 0.62683(17)
H4 H 0.7774 -0.0477 0.6692
C5 C 0.7292(2) 0.0951(2) 0.50785(16)
C6 C 0.6820(2) 0.2445(2) 0.44991(16)
C7 C 0.7085(2) 0.1989(2) 0.27582(16)
C8 C 0.7559(2) 0.0472(2) 0.33225(17)
C9 C 0.7635(2) -0.0051(2) 0.44737(16)
C10 C 0.6891(2) 0.2644(2) 0.15233(17)
C11 C 0.7934(2) 0.3317(2) 0.09230(18)
C12 C 0.7747(3) 0.3945(3) -0.0226(2)
H5 H 0.8478 0.4393 -0.0616
C13 C 0.6483(3) 0.3912(3) -0.0800(2)
H6 H 0.6344 0.4346 -0.1591
C14 C 0.5429(3) 0.3264(3) -0.02472(19)
H7 H 0.4565 0.3241 -0.0649
C15 C 0.5636(2) 0.2641(2) 0.09054(18)
C16 C 0.7892(2) -0.0515(2) 0.26359(17)
C17 C 0.9014(2) -0.0460(2) 0.18803(18)
H8 H 0.9577 0.0229 0.1785
C18 C 0.9319(3) -0.1398(3) 0.1266(2)
H9 H 1.0090 -0.1351 0.0752
C19 C 0.8513(3) -0.2401(3) 0.1395(2)
H10 H 0.8713 -0.3032 0.0962
C20 C 0.7406(3) -0.2489(3) 0.2160(2)
H11 H 0.6868 -0.3198 0.2266
C21 C 0.7090(2) -0.1547(2) 0.27645(19)
H12 H 0.6317 -0.1599 0.3276
C22 C 0.8051(2) -0.1628(2) 0.51165(16)
C23 C 0.9511(2) -0.2529(2) 0.51448(18)
H13 H 1.0261 -0.2152 0.4718
C24 C 0.9876(2) -0.3969(2) 0.5791(2)
H14 H 1.0884 -0.4574 0.5822
C25 C 0.8785(2) -0.4536(2) 0.63934(19)
H15 H 0.9040 -0.5528 0.6836
C26 C 0.7324(2) -0.3657(2) 0.6350(2)
H16 H 0.6563 -0.4050 0.6748
C27 C 0.6965(2) -0.2210(2) 0.57320(18)
H17 H 0.5965 -0.1604 0.5726
loop_
_geom_bond_atom_site_label_1
_geom_bond_atom_site_label_2
_geom_bond_site_symmetry_1
_geom_bond_site_symmetry_2
Cl1 C11 1_555 1_555
Cl2 C15 1_555 1_555
O1 N1 1_555 1_555
N1 C6 1_555 1_555
C1 H1 1_555 1_555
C2 C1 1_555 1_555
H2 C2 1_555 1_555
C3 C2 1_555 1_555
H3 C3 1_555 1_555
C4 C3 1_555 1_555
H4 C4 1_555 1_555
C5 C4 1_555 1_555
C6 C1 1_555 1_555
C7 N1 1_555 1_555
C8 C7 1_555 1_555
C9 C5 1_555 1_555
C10 C7 1_555 1_555
C11 C10 1_555 1_555
C12 C11 1_555 1_555
H5 C12 1_555 1_555
C13 C12 1_555 1_555
H6 C13 1_555 1_555
C14 C13 1_555 1_555
H7 C14 1_555 1_555
C15 C10 1_555 1_555
C16 C8 1_555 1_555
C17 C16 1_555 1_555
H8 C17 1_555 1_555
C18 C17 1_555 1_555
H9 C18 1_555 1_555
C19 C18 1_555 1_555
H10 C19 1_555 1_555
C20 C19 1_555 1_555
H11 C20 1_555 1_555
C21 C16 1_555 1_555
H12 C21 1_555 1_555
C22 C9 1_555 1_555
C23 C22 1_555 1_555
H13 C23 1_555 1_555
C24 C23 1_555 1_555
H14 C24 1_555 1_555
C25 C24 1_555 1_555
H15 C25 1_555 1_555
C26 C25 1_555 1_555
H16 C26 1_555 1_555
C27 C22 1_555 1_555
H17 C27 1_555 1_555
C5 C6 1_555 1_555
C8 C9 1_555 1_555
C14 C15 1_555 1_555
C20 C21 1_555 1_555
C26 C27 1_555 1_555

#END
