
#######################################################################
#
#                 Cambridge Crystallographic Data Centre
#                                CCDC 
#
#######################################################################
#
# If this CIF has been generated from an entry in the Cambridge 
# Structural Database, then it will include bibliographic, chemical, 
# crystal, experimental, refinement or atomic coordinate data resulting 
# from the CCDC's data processing and validation procedures.
#
#######################################################################

data_HAPCOT
_chemical_name_common            2-oxo-2-phenyl-N-(p-tolyl)-N-tosylacetamide
_chemical_formula_moiety         'C22 H19 N1 O4 S1'
_chemical_name_systematic        
N-(4-methylphenyl)-N-((4-methylphenyl)sulfonyl)-2-oxo-2-phenylacetamide
_symmetry_cell_setting           triclinic
_symmetry_space_group_name_H-M   'P -1'
_symmetry_Int_Tables_number      2
_space_group_name_Hall           '-P 1'
loop_
_symmetry_equiv_pos_site_id
_symmetry_equiv_pos_as_xyz
1 x,y,z
2 -x,-y,-z
_cell_length_a                   8.7878(11)
_cell_length_b                   10.9283(14)
_cell_length_c                   10.9366(13)
_cell_angle_alpha                92.171(3)
_cell_angle_beta                 105.073(3)
_cell_angle_gamma                108.653(3)
_cell_volume                     952.449
_exptl_crystal_colour            colorless
_cell_formula_units_Z            2
_exptl_crystal_recrystallization_method ethanol
loop_
_atom_site_label
_atom_site_type_symbol
_atom_site_fract_x
_atom_site_fract_y
_atom_site_fract_z
C1 C 0.8011(3) 0.24911(19) 0.93062(19)
H1 H 0.8944 0.2758 1.0094
H2 H 0.8415 0.2308 0.8589
H3 H 0.7138 0.1705 0.9397
C2 C 0.5344(2) 0.74407(16) 0.57608(16)
C3 C 0.3545(2) 0.64995(16) 0.51672(15)
C4 C 0.2219(2) 0.70602(16) 0.46567(15)
C5 C 0.2514(2) 0.84003(16) 0.48359(16)
H4 H 0.3608 0.8987 0.5263
C6 C 0.1210(2) 0.88699(17) 0.43888(17)
H5 H 0.1408 0.9779 0.4512
C7 C -0.0390(2) 0.80093(18) 0.37598(18)
H6 H -0.1287 0.8331 0.3469
C8 C -0.0680(2) 0.66821(18) 0.35560(17)
H7 H -0.1769 0.6101 0.3110
C9 C 0.0615(2) 0.62031(17) 0.40006(16)
H8 H 0.0415 0.5295 0.3860
C10 C 0.8002(2) 0.81009(15) 0.74342(14)
C11 C 0.8910(2) 0.74310(16) 0.70142(15)
H9 H 0.8358 0.6589 0.6534
C12 C 1.0636(2) 0.80087(16) 0.73059(15)
H10 H 1.1266 0.7555 0.7020
C13 C 1.1467(2) 0.92453(16) 0.80122(15)
C14 C 1.0525(2) 0.98707(15) 0.84557(15)
H11 H 1.1076 1.0697 0.8965
C15 C 0.8795(2) 0.93113(15) 0.81687(15)
H12 H 0.8165 0.9752 0.8471
C16 C 1.3335(2) 0.98879(18) 0.82602(18)
H13 H 1.3569 1.0220 0.7484
H14 H 1.3891 0.9250 0.8503
H15 H 1.3757 1.0612 0.8955
C17 C 0.6015(2) 0.55696(16) 0.85304(15)
C18 C 0.5455(2) 0.44688(16) 0.76273(15)
H16 H 0.4649 0.4402 0.6834
C19 C 0.6094(2) 0.34775(16) 0.79081(16)
H17 H 0.5705 0.2718 0.7304
C20 C 0.7297(2) 0.35684(17) 0.90596(17)
C21 C 0.7822(2) 0.46766(18) 0.99535(17)
H18 H 0.8622 0.4743 1.0750
C22 C 0.7192(2) 0.56794(17) 0.96965(16)
H19 H 0.7558 0.6431 1.0308
N1 N 0.61833(17) 0.75125(13) 0.70473(12)
O1 O 0.35068(14) 0.63991(11) 0.75303(11)
O2 O 0.59419(15) 0.78276(11) 0.92633(11)
O3 O 0.60519(15) 0.80444(12) 0.50399(11)
O4 O 0.33522(15) 0.53484(11) 0.50091(11)
S1 S 0.52718(5) 0.68625(4) 0.81629(4)
loop_
_geom_bond_atom_site_label_1
_geom_bond_atom_site_label_2
_geom_bond_site_symmetry_1
_geom_bond_site_symmetry_2
C1 H1 1_555 1_555
H2 C1 1_555 1_555
H3 C1 1_555 1_555
C2 C3 1_555 1_555
C3 C4 1_555 1_555
C4 C5 1_555 1_555
C5 H4 1_555 1_555
C6 C5 1_555 1_555
H5 C6 1_555 1_555
C7 C6 1_555 1_555
H6 C7 1_555 1_555
C8 C7 1_555 1_555
H7 C8 1_555 1_555
C9 C4 1_555 1_555
H8 C9 1_555 1_555
C10 C11 1_555 1_555
C11 H9 1_555 1_555
C12 C11 1_555 1_555
H10 C12 1_555 1_555
C13 C12 1_555 1_555
C14 C13 1_555 1_555
H11 C14 1_555 1_555
C15 C10 1_555 1_555
H12 C15 1_555 1_555
C16 C13 1_555 1_555
H13 C16 1_555 1_555
H14 C16 1_555 1_555
H15 C16 1_555 1_555
C17 C18 1_555 1_555
C18 H16 1_555 1_555
C19 C18 1_555 1_555
H17 C19 1_555 1_555
C20 C1 1_555 1_555
C21 C20 1_555 1_555
H18 C21 1_555 1_555
C22 C17 1_555 1_555
H19 C22 1_555 1_555
N1 C2 1_555 1_555
O1 S1 1_555 1_555
O2 S1 1_555 1_555
O3 C2 1_555 1_555
O4 C3 1_555 1_555
S1 C17 1_555 1_555
C8 C9 1_555 1_555
C10 N1 1_555 1_555
C14 C15 1_555 1_555
C19 C20 1_555 1_555
C21 C22 1_555 1_555
N1 S1 1_555 1_555

#END
