
#######################################################################
#
#                 Cambridge Crystallographic Data Centre
#                                CCDC 
#
#######################################################################
#
# If this CIF has been generated from an entry in the Cambridge 
# Structural Database, then it will include bibliographic, chemical, 
# crystal, experimental, refinement or atomic coordinate data resulting 
# from the CCDC's data processing and validation procedures.
#
#######################################################################

data_HAPCUZ
_chemical_formula_moiety         'C20 H18 N2 O2'
_chemical_name_systematic        
2-(cyclohex-1-en-1-yl)-3-(4-nitrophenyl)-1H-indole
_symmetry_cell_setting           triclinic
_symmetry_space_group_name_H-M   'P -1'
_symmetry_Int_Tables_number      2
_space_group_name_Hall           '-P 1'
loop_
_symmetry_equiv_pos_site_id
_symmetry_equiv_pos_as_xyz
1 x,y,z
2 -x,-y,-z
_cell_length_a                   8.6737(4)
_cell_length_b                   10.5831(6)
_cell_length_c                   10.7165(6)
_cell_angle_alpha                65.229(3)
_cell_angle_beta                 69.726(3)
_cell_angle_gamma                75.174(3)
_cell_volume                     830.761
_cell_formula_units_Z            2
loop_
_atom_site_label
_atom_site_type_symbol
_atom_site_fract_x
_atom_site_fract_y
_atom_site_fract_z
O1 O 0.1915(5) 1.0574(3) -0.0056(4)
O2 O 0.3625(5) 1.1028(3) 0.0701(4)
N1 N 0.2749(5) 1.0247(3) 0.0792(3)
N2 N 0.2402(4) 0.3000(3) 0.7208(3)
H1 H 0.2339 0.2523 0.8097
C1 C 0.2647(5) 0.8876(3) 0.1920(4)
C2 C 0.1664(5) 0.8001(4) 0.1999(4)
H2 H 0.1043 0.8291 0.1349
C3 C 0.1610(5) 0.6683(4) 0.3060(4)
H3 H 0.0957 0.6078 0.3114
C4 C 0.2519(4) 0.6244(3) 0.4050(3)
C5 C 0.2472(4) 0.4826(3) 0.5143(4)
C6 C 0.2345(4) 0.4432(3) 0.6577(4)
C7 C 0.2122(5) 0.5288(4) 0.7428(4)
C8 C 0.3112(6) 0.4813(5) 0.8441(5)
H4 H 0.4273 0.4829 0.7910
H5 H 0.2962 0.3846 0.9054
C9 C 0.2706(10) 0.5669(7) 0.9376(6)
H6 H 0.1829 0.5288 1.0227
H7 H 0.3676 0.5581 0.9674
C10 C 0.2181(12) 0.7157(7) 0.8652(9)
H8 H 0.3119 0.7571 0.7892
H9 H 0.1850 0.7628 0.9328
C11 C 0.3569(5) 0.8478(4) 0.2887(4)
H10 H 0.4231 0.9085 0.2816
C12 C 0.3487(5) 0.7170(4) 0.3951(4)
H11 H 0.4086 0.6899 0.4614
C13 C 0.2618(4) 0.3562(3) 0.4898(4)
C14 C 0.2833(5) 0.3254(4) 0.3690(4)
H12 H 0.2885 0.3968 0.2801
C15 C 0.2964(6) 0.1882(5) 0.3848(5)
H13 H 0.3110 0.1672 0.3051
C16 C 0.2885(6) 0.0794(4) 0.5161(5)
H14 H 0.2955 -0.0123 0.5229
C17 C 0.2705(5) 0.1054(4) 0.6360(5)
H15 H 0.2671 0.0327 0.7239
C18 C 0.2575(5) 0.2440(3) 0.6210(4)
C19 C 0.0784(8) 0.7417(6) 0.8032(7)
H16 H -0.0242 0.7281 0.8792
H17 H 0.0686 0.8384 0.7377
C20 C 0.1030(6) 0.6466(4) 0.7259(5)
H18 H 0.0399 0.6697 0.6629
loop_
_geom_bond_atom_site_label_1
_geom_bond_atom_site_label_2
_geom_bond_site_symmetry_1
_geom_bond_site_symmetry_2
O1 N1 1_555 1_555
O2 N1 1_555 1_555
N1 C1 1_555 1_555
N2 H1 1_555 1_555
C1 C2 1_555 1_555
C2 H2 1_555 1_555
C3 C2 1_555 1_555
H3 C3 1_555 1_555
C4 C3 1_555 1_555
C5 C4 1_555 1_555
C6 N2 1_555 1_555
C7 C6 1_555 1_555
C8 C7 1_555 1_555
H4 C8 1_555 1_555
H5 C8 1_555 1_555
C9 C8 1_555 1_555
H6 C9 1_555 1_555
H7 C9 1_555 1_555
C10 C9 1_555 1_555
H8 C10 1_555 1_555
H9 C10 1_555 1_555
C11 C1 1_555 1_555
H10 C11 1_555 1_555
C12 C4 1_555 1_555
H11 C12 1_555 1_555
C13 C5 1_555 1_555
C14 C13 1_555 1_555
H12 C14 1_555 1_555
C15 C14 1_555 1_555
H13 C15 1_555 1_555
C16 C15 1_555 1_555
H14 C16 1_555 1_555
C17 C16 1_555 1_555
H15 C17 1_555 1_555
C18 N2 1_555 1_555
C19 C10 1_555 1_555
H16 C19 1_555 1_555
H17 C19 1_555 1_555
C20 C7 1_555 1_555
H18 C20 1_555 1_555
C5 C6 1_555 1_555
C11 C12 1_555 1_555
C13 C18 1_555 1_555
C17 C18 1_555 1_555
C19 C20 1_555 1_555

#END
