
#######################################################################
#
#                 Cambridge Crystallographic Data Centre
#                                CCDC 
#
#######################################################################
#
# If this CIF has been generated from an entry in the Cambridge 
# Structural Database, then it will include bibliographic, chemical, 
# crystal, experimental, refinement or atomic coordinate data resulting 
# from the CCDC's data processing and validation procedures.
#
#######################################################################

data_HAPDAG
_chemical_formula_moiety         'C23 H19 N1'
_chemical_name_systematic        3-phenyl-2-(1-phenylprop-1-en-1-yl)-1H-indole
_symmetry_cell_setting           tetragonal
_symmetry_space_group_name_H-M   'I 41/a'
_symmetry_Int_Tables_number      88
_space_group_name_Hall           '-I 4ad'
loop_
_symmetry_equiv_pos_site_id
_symmetry_equiv_pos_as_xyz
1 x,y,z
2 1/4-y,3/4+x,3/4+z
3 1/4+y,1/4-x,1/4+z
4 -x,1/2-y,z
5 1/2+x,1/2+y,1/2+z
6 3/4-y,1/4+x,1/4+z
7 3/4+y,3/4-x,3/4+z
8 1/2-x,-y,1/2+z
9 -x,-y,-z
10 3/4+y,1/4-x,1/4-z
11 3/4-y,3/4+x,3/4-z
12 x,1/2+y,-z
13 1/2-x,1/2-y,1/2-z
14 1/4+y,3/4-x,3/4-z
15 1/4-y,1/4+x,1/4-z
16 1/2+x,y,1/2-z
_cell_length_a                   26.4702(11)
_cell_length_b                   26.4702(11)
_cell_length_c                   9.7613(4)
_cell_angle_alpha                90
_cell_angle_beta                 90
_cell_angle_gamma                90
_cell_volume                     6839.46
_cell_formula_units_Z            16
loop_
_atom_site_label
_atom_site_type_symbol
_atom_site_fract_x
_atom_site_fract_y
_atom_site_fract_z
N1 N 0.88379(8) 0.27962(8) 0.0846(2)
H1 H 0.8979 0.3043 0.0417
C1 C 0.70861(12) 0.11195(13) 0.1371(3)
H2 H 0.6816 0.0895 0.1406
C2 C 0.69997(11) 0.16236(13) 0.1125(3)
H3 H 0.6672 0.1739 0.0989
C3 C 0.73979(10) 0.19584(11) 0.1080(3)
H4 H 0.7336 0.2299 0.0914
C4 C 0.78899(9) 0.17948(10) 0.1280(2)
C5 C 0.83171(9) 0.21522(9) 0.1308(3)
C6 C 0.84406(10) 0.25101(9) 0.0348(3)
C7 C 0.82245(10) 0.26315(10) -0.1006(3)
C8 C 0.80514(10) 0.31583(10) -0.1200(3)
C9 C 0.78015(11) 0.34119(10) -0.0150(3)
H5 H 0.7761 0.3255 0.0695
C10 C 0.76131(11) 0.38907(11) -0.0342(3)
H6 H 0.7443 0.4052 0.0368
C11 C 0.76746(12) 0.41315(11) -0.1576(3)
H7 H 0.7545 0.4454 -0.1709
C12 C 0.75666(12) 0.09494(12) 0.1562(3)
H8 H 0.7625 0.0608 0.1718
C13 C 0.79678(11) 0.12847(11) 0.1524(3)
H9 H 0.8294 0.1166 0.1664
C14 C 0.81166(11) 0.34134(11) -0.2435(3)
H10 H 0.8289 0.3258 -0.3150
C15 C 0.79284(13) 0.38918(11) -0.2606(3)
H11 H 0.7974 0.4056 -0.3439
C16 C 0.81773(11) 0.22876(11) -0.2008(3)
H12 H 0.8028 0.2399 -0.2816
C17 C 0.83351(13) 0.17498(11) -0.1978(4)
H13 H 0.8552 0.1693 -0.1205
H14 H 0.8514 0.1670 -0.2806
H15 H 0.8042 0.1538 -0.1903
C18 C 0.89740(10) 0.26303(10) 0.2121(3)
C19 C 0.93306(11) 0.28117(12) 0.3034(3)
H16 H 0.9544 0.3077 0.2801
C20 C 0.93581(12) 0.25856(15) 0.4291(4)
H17 H 0.9587 0.2707 0.4934
C21 C 0.90505(13) 0.21766(16) 0.4632(4)
H18 H 0.9085 0.2025 0.5487
C22 C 0.86983(11) 0.19940(13) 0.3730(3)
H19 H 0.8492 0.1723 0.3970
C23 C 0.86544(9) 0.22218(10) 0.2445(3)
loop_
_geom_bond_atom_site_label_1
_geom_bond_atom_site_label_2
_geom_bond_site_symmetry_1
_geom_bond_site_symmetry_2
N1 H1 1_555 1_555
C1 H2 1_555 1_555
C2 C1 1_555 1_555
H3 C2 1_555 1_555
C3 C2 1_555 1_555
H4 C3 1_555 1_555
C4 C3 1_555 1_555
C5 C4 1_555 1_555
C6 N1 1_555 1_555
C7 C6 1_555 1_555
C8 C7 1_555 1_555
C9 C8 1_555 1_555
H5 C9 1_555 1_555
C10 C9 1_555 1_555
H6 C10 1_555 1_555
C11 C10 1_555 1_555
H7 C11 1_555 1_555
C12 C1 1_555 1_555
H8 C12 1_555 1_555
C13 C4 1_555 1_555
H9 C13 1_555 1_555
C14 C8 1_555 1_555
H10 C14 1_555 1_555
C15 C11 1_555 1_555
H11 C15 1_555 1_555
C16 C7 1_555 1_555
H12 C16 1_555 1_555
C17 C16 1_555 1_555
H13 C17 1_555 1_555
H14 C17 1_555 1_555
H15 C17 1_555 1_555
C18 N1 1_555 1_555
C19 C18 1_555 1_555
H16 C19 1_555 1_555
C20 C19 1_555 1_555
H17 C20 1_555 1_555
C21 C20 1_555 1_555
H18 C21 1_555 1_555
C22 C21 1_555 1_555
H19 C22 1_555 1_555
C23 C5 1_555 1_555
C5 C6 1_555 1_555
C12 C13 1_555 1_555
C14 C15 1_555 1_555
C18 C23 1_555 1_555
C22 C23 1_555 1_555

#END
