
#######################################################################
#
#                 Cambridge Crystallographic Data Centre
#                                CCDC 
#
#######################################################################
#
# If this CIF has been generated from an entry in the Cambridge 
# Structural Database, then it will include bibliographic, chemical, 
# crystal, experimental, refinement or atomic coordinate data resulting 
# from the CCDC's data processing and validation procedures.
#
#######################################################################

data_HAPFOW
_chemical_formula_moiety         'C14 H17 N1 O4'
_chemical_name_systematic        
(E)-3-((E)-1-hydroxy-3-(piperidin-1-yl)prop-2-en-1-ylidene)-6-methyl-2H-pyran-2,4(3H)-dione
_chemical_properties_biological  
'potent agonist of odorant receptor 895 (Olfr895)'
_symmetry_cell_setting           triclinic
_symmetry_space_group_name_H-M   'P -1'
_symmetry_Int_Tables_number      2
_space_group_name_Hall           '-P 1'
loop_
_symmetry_equiv_pos_site_id
_symmetry_equiv_pos_as_xyz
1 x,y,z
2 -x,-y,-z
_cell_length_a                   6.4966(10)
_cell_length_b                   9.7946(15)
_cell_length_c                   11.0834(17)
_cell_angle_alpha                105.765(9)
_cell_angle_beta                 100.605(9)
_cell_angle_gamma                101.761(10)
_cell_volume                     642.666
_exptl_crystal_colour            yellow
_exptl_crystal_description       plate
_chemical_melting_point          '177-178 deg.C'
_cell_formula_units_Z            2
loop_
_atom_site_label
_atom_site_type_symbol
_atom_site_fract_x
_atom_site_fract_y
_atom_site_fract_z
O1 O -0.44005(16) 0.59636(12) 0.22438(10)
C1 C -0.5321(2) 0.45390(17) 0.14978(14)
C2 C -0.4274(2) 0.35113(16) 0.15096(14)
H1 H -0.4953 0.2542 0.0991
C3 C -0.2104(2) 0.38749(15) 0.23127(13)
C4 C -0.1123(2) 0.53605(14) 0.31044(12)
C5 C -0.2295(2) 0.64439(16) 0.30787(14)
O2 O -0.17408(19) 0.77473(12) 0.36643(13)
C6 C -0.7536(3) 0.4341(2) 0.06879(17)
H2 H -0.8120 0.3332 0.0146
H3 H -0.7444 0.4966 0.0156
H4 H -0.8469 0.4596 0.1242
O3 O -0.11142(19) 0.28701(11) 0.22761(11)
C7 C 0.1069(2) 0.57481(14) 0.39228(12)
O4 O 0.20426(17) 0.46833(12) 0.38380(10)
H5 H 0.081(4) 0.378(3) 0.316(2)
C8 C 0.2167(2) 0.71561(15) 0.47712(13)
H6 H 0.1425 0.7880 0.4902
C9 C 0.4328(2) 0.75035(15) 0.54232(12)
H7 H 0.5036 0.6764 0.5250
N1 N 0.54791(18) 0.87875(13) 0.62677(11)
C10 C 0.7861(2) 0.91499(17) 0.67169(15)
H8 H 0.8518 0.9841 0.6324
H9 H 0.8336 0.8263 0.6445
C11 C 0.8613(3) 0.9817(2) 0.81787(16)
H10 H 1.0188 1.0138 0.8442
H11 H 0.8136 0.9077 0.8572
C12 C 0.7706(3) 1.1121(2) 0.86549(17)
H12 H 0.8110 1.1479 0.9595
H13 H 0.8327 1.1913 0.8351
C13 C 0.5249(2) 1.06825(17) 0.81659(15)
H14 H 0.4621 0.9971 0.8549
H15 H 0.4711 1.1542 0.8432
C14 C 0.4549(3) 1.00229(17) 0.67067(15)
H16 H 0.2975 0.9681 0.6424
H17 H 0.5023 1.0771 0.6321
loop_
_geom_bond_atom_site_label_1
_geom_bond_atom_site_label_2
_geom_bond_site_symmetry_1
_geom_bond_site_symmetry_2
O1 C1 1_555 1_555
C1 C2 1_555 1_555
C2 H1 1_555 1_555
C3 C2 1_555 1_555
C4 C3 1_555 1_555
C5 O1 1_555 1_555
O2 C5 1_555 1_555
C6 C1 1_555 1_555
H2 C6 1_555 1_555
H3 C6 1_555 1_555
H4 C6 1_555 1_555
O3 C3 1_555 1_555
C7 C4 1_555 1_555
O4 C7 1_555 1_555
H5 O4 1_555 1_555
C8 C7 1_555 1_555
H6 C8 1_555 1_555
C9 C8 1_555 1_555
H7 C9 1_555 1_555
N1 C9 1_555 1_555
C10 N1 1_555 1_555
H8 C10 1_555 1_555
H9 C10 1_555 1_555
C11 C10 1_555 1_555
H10 C11 1_555 1_555
H11 C11 1_555 1_555
C12 C11 1_555 1_555
H12 C12 1_555 1_555
H13 C12 1_555 1_555
C13 C12 1_555 1_555
H14 C13 1_555 1_555
H15 C13 1_555 1_555
C14 N1 1_555 1_555
H16 C14 1_555 1_555
H17 C14 1_555 1_555
C4 C5 1_555 1_555
C13 C14 1_555 1_555

#END
