
#######################################################################
#
#                 Cambridge Crystallographic Data Centre
#                                CCDC 
#
#######################################################################
#
# If this CIF has been generated from an entry in the Cambridge 
# Structural Database, then it will include bibliographic, chemical, 
# crystal, experimental, refinement or atomic coordinate data resulting 
# from the CCDC's data processing and validation procedures.
#
#######################################################################

data_HAPFUZ
_chemical_formula_moiety         'C32 H76 B8 Li4 O4 Si4'
_chemical_name_systematic        
bis(closo-exo-5,6-(bis(\m~2~-Hydrido)-tetrahydrofuran-lithium)-(\m~2~-tetrahydrofuran)-2,4-bis(trimethylsilyl)-1-lithium-2,4-dicarbaheptaborane)
_symmetry_cell_setting           monoclinic
_symmetry_space_group_name_H-M   'P 21/n'
_symmetry_Int_Tables_number      14
_space_group_name_Hall           '-P 2yn'
loop_
_symmetry_equiv_pos_site_id
_symmetry_equiv_pos_as_xyz
1 x,y,z
2 1/2-x,1/2+y,1/2-z
3 -x,-y,-z
4 1/2+x,1/2-y,1/2+z
_cell_length_a                   11.353(5)
_cell_length_b                   17.490(7)
_cell_length_c                   13.273(6)
_cell_angle_alpha                90
_cell_angle_beta                 104.33(3)
_cell_angle_gamma                90
_cell_volume                     2553.54
_exptl_crystal_colour            yellow-brown
_cell_formula_units_Z            2
_chemical_properties_physical    'Extremely air- and moisture-sensitive'
loop_
_atom_site_label
_atom_site_type_symbol
_atom_site_fract_x
_atom_site_fract_y
_atom_site_fract_z
Li1 Li -0.0383(9) 0.9305(6) 0.5236(8)
Li2 Li 0.2826(10) 1.0528(7) 0.6063(9)
Si1 Si 0.0293(2) 0.9571(1) 0.8186(1)
Si2 Si 0.2221(2) 0.7840(1) 0.5133(2)
C1 C 0.0638(5) 0.9316(4) 0.6947(5)
B1 B 0.0738(6) 0.8516(5) 0.6492(6)
C2 C 0.1456(5) 0.8626(4) 0.5647(5)
B2 B 0.1722(6) 0.9482(4) 0.5491(6)
B3 B 0.1204(7) 0.9951(4) 0.6365(6)
B4 B 0.2048(7) 0.9108(5) 0.6765(6)
C3 C -0.0461(8) 0.8762(5) 0.8687(6)
C4 C -0.0753(7) 1.0407(4) 0.7974(7)
C5 C 0.1703(7) 0.9847(5) 0.9182(5)
C6 C 0.1621(20) 0.7811(11) 0.3670(6)
C7 C 0.3919(7) 0.8014(11) 0.5474(18)
C8 C 0.1899(22) 0.6896(6) 0.5705(16)
O1 O -0.2157(4) 0.8621(3) 0.4833(4)
C12 C -0.2655(8) 0.8461(6) 0.5683(8)
C13 C -0.2754(15) 0.7620(11) 0.5744(15)
C14 C -0.2156(16) 0.7345(9) 0.5030(15)
C15 C -0.2054(9) 0.7911(6) 0.4344(8)
O2 O 0.4488(4) 1.0604(4) 0.6749(5)
C16 C 0.4864(13) 1.0993(9) 0.7677(11)
C17 C 0.5527(18) 1.0507(13) 0.8395(15)
C18 C 0.5720(12) 0.9826(10) 0.8001(15)
C19 C 0.5269(9) 0.9983(7) 0.6809(10)
H1 H 0.0557 0.7962 0.6917
H2 H 0.2472 0.9718 0.5079
H3 H 0.1419 1.0607 0.6684
H4 H 0.2957 0.9054 0.7419
H5 H -0.1187 0.8617 0.8177
H6 H 0.0083 0.8333 0.8836
H7 H -0.0668 0.8921 0.9314
H8 H -0.1487 1.0287 0.7457
H9 H -0.0947 1.0532 0.8618
H10 H -0.0360 1.0836 0.7745
H11 H 0.2259 0.9423 0.9301
H12 H 0.2080 1.0279 0.8946
H13 H 0.1493 0.9975 0.9819
H14 H -0.2134 0.8671 0.6305
H15 H -0.3449 0.8685 0.5577
H16 H -0.2306 0.7448 0.6418
H17 H -0.3584 0.7457 0.5630
H18 H -0.1383 0.7116 0.5347
H19 H -0.2674 0.6955 0.4645
H20 H -0.2657 0.7875 0.3694
H21 H -0.1261 0.7878 0.4214
H22 H 0.4187 1.1179 0.7918
H23 H 0.5342 1.1415 0.7540
H24 H 0.5168 1.0449 0.8973
H25 H 0.6321 1.0723 0.8663
H26 H 0.5231 0.9453 0.8238
H27 H 0.6557 0.9669 0.8189
H28 H 0.5928 1.0103 0.6503
H29 H 0.4828 0.9552 0.6454
B3B B -0.1204(7) 1.0049(4) 0.3635(6)
O1B O 0.2157(4) 1.1379(3) 0.5167(4)
Li1B Li 0.0383(9) 1.0695(6) 0.4764(8)
Li2B Li -0.2826(10) 0.9472(7) 0.3937(9)
C1B C -0.0638(5) 1.0684(4) 0.3053(5)
B2B B -0.1722(6) 1.0518(4) 0.4509(6)
B4B B -0.2048(7) 1.0892(5) 0.3235(6)
H3B H -0.1419 0.9393 0.3316
C12B C 0.2655(8) 1.1539(6) 0.4317(8)
C15B C 0.2054(9) 1.2089(6) 0.5656(8)
B1B B -0.0738(6) 1.1484(5) 0.3508(6)
C2B C -0.1456(5) 1.1374(4) 0.4353(5)
O2B O -0.4488(4) 0.9396(4) 0.3251(5)
H2B H -0.2472 1.0282 0.4921
Si1B Si -0.0293(2) 1.0429(1) 0.1814(1)
H4B H -0.2957 1.0946 0.2581
C13B C 0.2754(15) 1.2380(11) 0.4256(15)
H14B H 0.2134 1.1329 0.3695
H15B H 0.3449 1.1315 0.4423
C14B C 0.2156(16) 1.2655(9) 0.4970(15)
H20B H 0.2657 1.2125 0.6306
H21B H 0.1261 1.2122 0.5786
H1B H -0.0557 1.2038 0.3083
Si2B Si -0.2221(2) 1.2160(1) 0.4867(2)
C16B C -0.4864(13) 0.9007(9) 0.2323(11)
C19B C -0.5269(9) 1.0017(7) 0.3191(10)
C3B C 0.0461(8) 1.1238(5) 0.1313(6)
C4B C 0.0753(7) 0.9593(4) 0.2026(7)
C5B C -0.1703(7) 1.0153(5) 0.0818(5)
H16B H 0.2306 1.2552 0.3582
H17B H 0.3584 1.2543 0.4370
H18B H 0.1383 1.2884 0.4653
H19B H 0.2674 1.3045 0.5355
C6B C -0.1621(20) 1.2189(11) 0.6330(6)
C7B C -0.3919(7) 1.1986(11) 0.4526(18)
C8B C -0.1899(22) 1.3104(6) 0.4295(16)
C17B C -0.5527(18) 0.9493(13) 0.1605(15)
H22B H -0.4187 0.8821 0.2082
H23B H -0.5342 0.8585 0.2460
C18B C -0.5720(12) 1.0174(10) 0.1999(15)
H28B H -0.5928 0.9897 0.3497
H29B H -0.4828 1.0448 0.3546
H5B H 0.1187 1.1383 0.1823
H6B H -0.0083 1.1667 0.1164
H7B H 0.0668 1.1079 0.0686
H8B H 0.1487 0.9713 0.2543
H9B H 0.0947 0.9468 0.1382
H10B H 0.0360 0.9164 0.2255
H11B H -0.2259 1.0577 0.0699
H12B H -0.2080 0.9721 0.1054
H13B H -0.1493 1.0025 0.0181
H24B H -0.5168 0.9551 0.1027
H25B H -0.6321 0.9277 0.1337
H26B H -0.5231 1.0547 0.1762
H27B H -0.6557 1.0331 0.1811
C9? C 0.1090(12) 0.7154(9) 0.4310(13)
C10? C 0.3212(14) 0.8261(8) 0.4321(13)
C11? C 0.3209(15) 0.7309(10) 0.6279(9)
loop_
_geom_bond_atom_site_label_1
_geom_bond_atom_site_label_2
_geom_bond_site_symmetry_1
_geom_bond_site_symmetry_2
Li1 C1 1_555 1_555
Li2 O2 1_555 1_555
Si1 C1 1_555 1_555
Si2 C2 1_555 1_555
C1 B1 1_555 1_555
B1 Li1 1_555 1_555
C2 Li1 1_555 1_555
B2 Li1 1_555 1_555
B3 Li1 1_555 1_555
B4 C1 1_555 1_555
C3 Si1 1_555 1_555
C4 Si1 1_555 1_555
C5 Si1 1_555 1_555
C6 Si2 1_555 1_555
C7 Si2 1_555 1_555
C8 Si2 1_555 1_555
O1 Li1 1_555 1_555
C12 O1 1_555 1_555
C13 C12 1_555 1_555
C14 C13 1_555 1_555
C15 O1 1_555 1_555
O2 C16 1_555 1_555
C16 C17 1_555 1_555
C17 C18 1_555 1_555
C18 C19 1_555 1_555
C19 O2 1_555 1_555
H1 B1 1_555 1_555
H2 Li2 1_555 1_555
H3 Li2 1_555 1_555
H4 B4 1_555 1_555
H5 C3 1_555 1_555
H6 C3 1_555 1_555
H7 C3 1_555 1_555
H8 C4 1_555 1_555
H9 C4 1_555 1_555
H10 C4 1_555 1_555
H11 C5 1_555 1_555
H12 C5 1_555 1_555
H13 C5 1_555 1_555
H14 C12 1_555 1_555
H15 C12 1_555 1_555
H16 C13 1_555 1_555
H17 C13 1_555 1_555
H18 C14 1_555 1_555
H19 C14 1_555 1_555
H20 C15 1_555 1_555
H21 C15 1_555 1_555
H22 C16 1_555 1_555
H23 C16 1_555 1_555
H24 C17 1_555 1_555
H25 C17 1_555 1_555
H26 C18 1_555 1_555
H27 C18 1_555 1_555
H28 C19 1_555 1_555
H29 C19 1_555 1_555
B3B Li1 1_555 1_555
O1B Li2 1_555 1_555
Li1B B3 1_555 1_555
Li2B O1 1_555 1_555
C1B B3B 1_555 1_555
B2B B3B 1_555 1_555
B4B B3B 1_555 1_555
H3B B3B 1_555 1_555
C12B O1B 1_555 1_555
C15B O1B 1_555 1_555
B1B Li1B 1_555 1_555
C2B Li1B 1_555 1_555
O2B Li2B 1_555 1_555
H2B Li2B 1_555 1_555
Si1B C1B 1_555 1_555
H4B B4B 1_555 1_555
C13B C12B 1_555 1_555
H14B C12B 1_555 1_555
H15B C12B 1_555 1_555
C14B C15B 1_555 1_555
H20B C15B 1_555 1_555
H21B C15B 1_555 1_555
H1B B1B 1_555 1_555
Si2B C2B 1_555 1_555
C16B O2B 1_555 1_555
C19B O2B 1_555 1_555
C3B Si1B 1_555 1_555
C4B Si1B 1_555 1_555
C5B Si1B 1_555 1_555
H16B C13B 1_555 1_555
H17B C13B 1_555 1_555
H18B C14B 1_555 1_555
H19B C14B 1_555 1_555
C6B Si2B 1_555 1_555
C7B Si2B 1_555 1_555
C8B Si2B 1_555 1_555
C17B C16B 1_555 1_555
H22B C16B 1_555 1_555
H23B C16B 1_555 1_555
C18B C19B 1_555 1_555
H28B C19B 1_555 1_555
H29B C19B 1_555 1_555
H5B C3B 1_555 1_555
H6B C3B 1_555 1_555
H7B C3B 1_555 1_555
H8B C4B 1_555 1_555
H9B C4B 1_555 1_555
H10B C4B 1_555 1_555
H11B C5B 1_555 1_555
H12B C5B 1_555 1_555
H13B C5B 1_555 1_555
H24B C17B 1_555 1_555
H25B C17B 1_555 1_555
H26B C18B 1_555 1_555
H27B C18B 1_555 1_555
C1 B3 1_555 1_555
B1 C2 1_555 1_555
B1 B4 1_555 1_555
C2 B2 1_555 1_555
C2 B4 1_555 1_555
B2 B3 1_555 1_555
B2 B4 1_555 1_555
B2 H2 1_555 1_555
B3 B4 1_555 1_555
B3 H3 1_555 1_555
C14 C15 1_555 1_555
B3B Li1B 1_555 1_555
O1B Li1B 1_555 1_555
Li1B C1B 1_555 1_555
Li1B B2B 1_555 1_555
Li2B H3B 1_555 1_555
C1B B1B 1_555 1_555
C1B B4B 1_555 1_555
B2B C2B 1_555 1_555
B2B B4B 1_555 1_555
B2B H2B 1_555 1_555
B4B B1B 1_555 1_555
B4B C2B 1_555 1_555
B1B C2B 1_555 1_555
C13B C14B 1_555 1_555
C17B C18B 1_555 1_555

#END
