
#######################################################################
#
#                 Cambridge Crystallographic Data Centre
#                                CCDC 
#
#######################################################################
#
# If this CIF has been generated from an entry in the Cambridge 
# Structural Database, then it will include bibliographic, chemical, 
# crystal, experimental, refinement or atomic coordinate data resulting 
# from the CCDC's data processing and validation procedures.
#
#######################################################################

data_HAPJUF
_chemical_formula_moiety         'C16 H12 N2 S3'
_chemical_name_systematic        
4,7-bis(4-methyl-2-thienyl)-2,1,3-benzothiadiazole
_symmetry_cell_setting           orthorhombic
_symmetry_space_group_name_H-M   'P b c a'
_symmetry_Int_Tables_number      61
_space_group_name_Hall           '-P 2ac 2ab'
loop_
_symmetry_equiv_pos_site_id
_symmetry_equiv_pos_as_xyz
1 x,y,z
2 1/2-x,-y,1/2+z
3 1/2+x,1/2-y,-z
4 -x,1/2+y,1/2-z
5 -x,-y,-z
6 1/2+x,y,1/2-z
7 1/2-x,1/2+y,z
8 x,1/2-y,1/2+z
_cell_length_a                   19.562(12)
_cell_length_b                   20.298(13)
_cell_length_c                   7.523(5)
_cell_angle_alpha                90
_cell_angle_beta                 90
_cell_angle_gamma                90
_cell_volume                     2987.15
_exptl_crystal_colour            red
_exptl_crystal_description       block
_cell_formula_units_Z            8
loop_
_atom_site_label
_atom_site_type_symbol
_atom_site_fract_x
_atom_site_fract_y
_atom_site_fract_z
S1 S 0.47638(5) 0.06754(4) 0.23241(11)
C1 C 0.55245(17) 0.05005(14) 0.1341(4)
H1 H 0.5693 0.0075 0.1202
C2 C 0.58564(15) 0.10448(14) 0.0786(3)
C3 C 0.54801(15) 0.16244(13) 0.1201(3)
H2 H 0.5636 0.2045 0.0929
C4 C 0.48761(14) 0.15110(13) 0.2028(3)
C5 C 0.43526(13) 0.19750(12) 0.2607(3)
C6 C 0.44355(13) 0.26667(13) 0.2496(3)
N1 N 0.49931(12) 0.29837(11) 0.1888(3)
S2 S 0.48356(4) 0.37538(4) 0.20234(9)
N2 N 0.40774(12) 0.37464(11) 0.2829(3)
C7 C 0.39075(13) 0.31115(12) 0.3042(3)
C8 C 0.32727(13) 0.28745(12) 0.3716(3)
C9 C 0.32245(14) 0.22030(13) 0.3827(3)
H3 H 0.2825 0.2025 0.4294
C10 C 0.37363(15) 0.17698(14) 0.3284(3)
H4 H 0.3657 0.1320 0.3385
C11 C 0.27091(13) 0.33112(14) 0.4226(3)
C12 C 0.26778(15) 0.39773(15) 0.4316(3)
H5 H 0.3049 0.4248 0.4064
C13 C 0.20300(15) 0.42231(17) 0.4828(4)
C14 C 0.15836(18) 0.37338(17) 0.5128(4)
H6 H 0.1133 0.3803 0.5476
S3 S 0.19295(4) 0.29718(5) 0.48033(12)
C15 C 0.6537(2) 0.10432(19) -0.0083(5)
H7 H 0.6879 0.1169 0.0766
H8 H 0.6537 0.1350 -0.1053
H9 H 0.6635 0.0609 -0.0523
C16 C 0.1854(2) 0.4943(2) 0.4975(6)
H10 H 0.1371 0.4991 0.5152
H11 H 0.1986 0.5165 0.3903
H12 H 0.2094 0.5132 0.5966
loop_
_geom_bond_atom_site_label_1
_geom_bond_atom_site_label_2
_geom_bond_site_symmetry_1
_geom_bond_site_symmetry_2
S1 C1 1_555 1_555
C1 H1 1_555 1_555
C2 C1 1_555 1_555
C3 C2 1_555 1_555
H2 C3 1_555 1_555
C4 S1 1_555 1_555
C5 C4 1_555 1_555
C6 C5 1_555 1_555
N1 C6 1_555 1_555
S2 N1 1_555 1_555
N2 S2 1_555 1_555
C7 C6 1_555 1_555
C8 C7 1_555 1_555
C9 C8 1_555 1_555
H3 C9 1_555 1_555
C10 C5 1_555 1_555
H4 C10 1_555 1_555
C11 C8 1_555 1_555
C12 C11 1_555 1_555
H5 C12 1_555 1_555
C13 C12 1_555 1_555
C14 C13 1_555 1_555
H6 C14 1_555 1_555
S3 C11 1_555 1_555
C15 C2 1_555 1_555
H7 C15 1_555 1_555
H8 C15 1_555 1_555
H9 C15 1_555 1_555
C16 C13 1_555 1_555
H10 C16 1_555 1_555
H11 C16 1_555 1_555
H12 C16 1_555 1_555
C3 C4 1_555 1_555
N2 C7 1_555 1_555
C9 C10 1_555 1_555
C14 S3 1_555 1_555

#END
