
#######################################################################
#
#                 Cambridge Crystallographic Data Centre
#                                CCDC 
#
#######################################################################
#
# If this CIF has been generated from an entry in the Cambridge 
# Structural Database, then it will include bibliographic, chemical, 
# crystal, experimental, refinement or atomic coordinate data resulting 
# from the CCDC's data processing and validation procedures.
#
#######################################################################

data_HAPWUS
_chemical_formula_moiety         'C13 H26 Li1 N3 S1'
_chemical_name_systematic        
(N,N,N',N'',N''-Pentamethyldiethylenetriamine)-(2-thienyl)-lithium
_symmetry_cell_setting           monoclinic
_symmetry_space_group_name_H-M   'P 21/n'
_symmetry_Int_Tables_number      14
_space_group_name_Hall           '-P 2yn'
loop_
_symmetry_equiv_pos_site_id
_symmetry_equiv_pos_as_xyz
1 x,y,z
2 1/2-x,1/2+y,1/2-z
3 -x,-y,-z
4 1/2+x,1/2-y,1/2+z
_cell_length_a                   8.466(2)
_cell_length_b                   15.573(3)
_cell_length_c                   12.226(2)
_cell_angle_alpha                90
_cell_angle_beta                 93.36(2)
_cell_angle_gamma                90
_cell_volume                     1609.12
_exptl_crystal_colour            'light red'
_exptl_crystal_description       block
_cell_formula_units_Z            4
loop_
_atom_site_label
_atom_site_type_symbol
_atom_site_fract_x
_atom_site_fract_y
_atom_site_fract_z
N1 N 0.53425(13) 0.67446(7) 0.54942(9)
N2 N 0.51322(12) 0.82572(7) 0.41299(9)
N3 N 0.83311(12) 0.84025(7) 0.51988(9)
S1 S 0.59357(6) 0.92185(4) 0.81948(4)
C1 C 0.5080(3) 0.8689(3) 0.7072(4)
C2 C 0.3527(6) 0.8925(5) 0.7064(5)
H1 H 0.2788 0.8697 0.6527
C3 C 0.3023(2) 0.95038(13) 0.78471(15)
H2 H 0.1971 0.9712 0.7875
C4 C 0.4235(3) 0.97248(12) 0.85553(15)
H3 H 0.4162 1.0102 0.9161
C5 C 0.6423(2) 0.60630(10) 0.58875(15)
H4 H 0.5936 0.5502 0.5728
H5 H 0.6640 0.6123 0.6680
H6 H 0.7416 0.6108 0.5518
C6 C 0.38510(19) 0.66696(11) 0.60395(13)
H7 H 0.3127 0.7126 0.5779
H8 H 0.4060 0.6723 0.6834
H9 H 0.3370 0.6109 0.5871
C7 C 0.50620(17) 0.66802(9) 0.42992(12)
H10 H 0.4394 0.6172 0.4122
H11 H 0.6086 0.6597 0.3962
C8 C 0.42586(17) 0.74718(8) 0.38158(11)
H12 H 0.4177 0.7422 0.3007
H13 H 0.3173 0.7510 0.4071
C9 C 0.41055(18) 0.90120(9) 0.39572(12)
H14 H 0.3678 0.9023 0.3195
H15 H 0.4721 0.9535 0.4114
H16 H 0.3233 0.8981 0.4448
C10 C 0.65667(17) 0.83575(9) 0.35137(11)
H17 H 0.6298 0.8664 0.2818
H18 H 0.6987 0.7785 0.3334
C11 C 0.78154(17) 0.88575(9) 0.41848(12)
H19 H 0.8740 0.8953 0.3741
H20 H 0.7383 0.9426 0.4373
C12 C 0.94346(18) 0.77089(11) 0.49648(16)
H21 H 0.8924 0.7311 0.4433
H22 H 0.9735 0.7400 0.5643
H23 H 1.0382 0.7953 0.4661
C13 C 0.91187(18) 0.90108(10) 0.59670(13)
H24 H 1.0025 0.9270 0.5628
H25 H 0.9486 0.8707 0.6636
H26 H 0.8371 0.9462 0.6149
Li1 Li 0.6078(2) 0.80330(13) 0.57638(18)
C14? C 0.538(2) 0.863(4) 0.705(4)
C15? C 0.599(2) 0.9149(18) 0.7871(18)
C16? C 0.498(2) 0.9646(12) 0.8508(14)
C17? C 0.3463(19) 0.9506(15) 0.8167(15)
H27? H 0.7101 0.9177 0.8018
H28? H 0.5318 1.0021 0.9088
H29? H 0.2569 0.9729 0.8507
S2? S 0.3381(14) 0.8860(11) 0.7019(12)
loop_
_geom_bond_atom_site_label_1
_geom_bond_atom_site_label_2
_geom_bond_site_symmetry_1
_geom_bond_site_symmetry_2
N1 C5 1_555 1_555
N2 C8 1_555 1_555
N3 C11 1_555 1_555
S1 C1 1_555 1_555
C1 C2 1_555 1_555
C2 H1 1_555 1_555
C3 C2 1_555 1_555
H2 C3 1_555 1_555
C4 S1 1_555 1_555
H3 C4 1_555 1_555
C5 H4 1_555 1_555
H5 C5 1_555 1_555
H6 C5 1_555 1_555
C6 N1 1_555 1_555
H7 C6 1_555 1_555
H8 C6 1_555 1_555
H9 C6 1_555 1_555
C7 N1 1_555 1_555
H10 C7 1_555 1_555
H11 C7 1_555 1_555
C8 C7 1_555 1_555
H12 C8 1_555 1_555
H13 C8 1_555 1_555
C9 N2 1_555 1_555
H14 C9 1_555 1_555
H15 C9 1_555 1_555
H16 C9 1_555 1_555
C10 N2 1_555 1_555
H17 C10 1_555 1_555
H18 C10 1_555 1_555
C11 C10 1_555 1_555
H19 C11 1_555 1_555
H20 C11 1_555 1_555
C12 N3 1_555 1_555
H21 C12 1_555 1_555
H22 C12 1_555 1_555
H23 C12 1_555 1_555
C13 N3 1_555 1_555
H24 C13 1_555 1_555
H25 C13 1_555 1_555
H26 C13 1_555 1_555
Li1 N1 1_555 1_555
N2 Li1 1_555 1_555
N3 Li1 1_555 1_555
C1 Li1 1_555 1_555
C3 C4 1_555 1_555

#END
