
#######################################################################
#
#                 Cambridge Crystallographic Data Centre
#                                CCDC 
#
#######################################################################
#
# If this CIF has been generated from an entry in the Cambridge 
# Structural Database, then it will include bibliographic, chemical, 
# crystal, experimental, refinement or atomic coordinate data resulting 
# from the CCDC's data processing and validation procedures.
#
#######################################################################

data_HAPXII
_chemical_formula_moiety         'C27 H19 F5 N1 O4 P1'
_chemical_name_systematic        
2,7,11-trimethoxy-9-[(pentafluorophenyl)amino]-9H-9\l^5^-tribenzo[b,d,f]phosphepin-9-one
_symmetry_cell_setting           triclinic
_symmetry_space_group_name_H-M   'P -1'
_symmetry_Int_Tables_number      2
_space_group_name_Hall           '-P 1'
loop_
_symmetry_equiv_pos_site_id
_symmetry_equiv_pos_as_xyz
1 x,y,z
2 -x,-y,-z
_cell_length_a                   9.8498(6)
_cell_length_b                   10.4837(7)
_cell_length_c                   13.4890(9)
_cell_angle_alpha                103.6640(10)
_cell_angle_beta                 110.7240(10)
_cell_angle_gamma                101.7210(10)
_cell_volume                     1201.25
_exptl_crystal_colour            colorless
_exptl_crystal_description       block
_cell_formula_units_Z            2
loop_
_atom_site_label
_atom_site_type_symbol
_atom_site_fract_x
_atom_site_fract_y
_atom_site_fract_z
C1 C 1.1704(8) 0.3169(7) 0.0673(7)
H1 H 1.1385 0.3979 0.0733
H2 H 1.2008 0.2998 0.0064
H3 H 1.2553 0.3310 0.1363
C2 C 0.9851(6) 0.2080(6) 0.1243(5)
C3 C 1.0375(6) 0.3152(6) 0.2231(5)
H4 H 1.1178 0.3931 0.2404
C4 C 0.9713(6) 0.3077(5) 0.2969(4)
H5 H 1.0104 0.3808 0.3643
C5 C 0.8478(5) 0.1952(5) 0.2752(4)
C6 C 0.7939(5) 0.0885(5) 0.1715(4)
C7 C 0.8628(6) 0.0925(5) 0.0985(4)
H6 H 0.8278 0.0185 0.0323
C8 C 0.7803(5) 0.1971(5) 0.3576(4)
C9 C 0.7636(7) 0.3220(6) 0.4090(5)
H7 H 0.7962 0.3989 0.3902
C10 C 0.7015(7) 0.3364(7) 0.4858(5)
H8 H 0.6940 0.4216 0.5190
C11 C 0.6497(7) 0.2217(7) 0.5137(4)
C12 C 0.6692(6) 0.0995(6) 0.4666(4)
H9 H 0.6379 0.0243 0.4876
C13 C 0.7333(5) 0.0817(5) 0.3892(4)
C14 C 0.5506(14) 0.3638(12) 0.6243(10)
H10 H 0.4919 0.3866 0.5611
H11 H 0.6441 0.4384 0.6711
H12 H 0.4926 0.3490 0.6670
C15 C 0.7473(5) -0.0571(5) 0.3482(4)
C16 C 0.8147(6) -0.1173(5) 0.4273(4)
H13 H 0.8571 -0.0661 0.5035
C17 C 0.8196(7) -0.2503(5) 0.3947(5)
H14 H 0.8659 -0.2871 0.4492
C18 C 0.7563(6) -0.3306(5) 0.2814(5)
C19 C 0.6928(5) -0.2728(5) 0.2004(4)
H15 H 0.6532 -0.3239 0.1243
C20 C 0.6890(5) -0.1364(5) 0.2345(4)
C21 C 0.6955(9) -0.5498(8) 0.1439(6)
H16 H 0.5868 -0.5678 0.1136
H17 H 0.7177 -0.6354 0.1399
H18 H 0.7363 -0.5058 0.1011
C22 C 0.3847(5) -0.0402(5) 0.1732(4)
C23 C 0.3389(6) 0.0558(6) 0.2310(4)
C24 C 0.2285(7) 0.0186(8) 0.2688(5)
C25 C 0.1590(7) -0.1165(8) 0.2490(5)
C26 C 0.2010(6) -0.2148(7) 0.1917(5)
C27 C 0.3115(6) -0.1785(6) 0.1525(4)
F1 F 0.4037(4) 0.1918(4) 0.2523(3)
F2 F 0.1920(5) 0.1187(5) 0.3286(4)
F3 F 0.0525(5) -0.1515(6) 0.2852(4)
F4 F 0.1310(5) -0.3477(5) 0.1683(5)
F5 F 0.3445(4) -0.2783(3) 0.0928(3)
N1 N 0.4954(4) 0.0031(4) 0.1363(3)
H19 H 0.4928 0.0745 0.1156
O1 O 0.5945(4) -0.1579(3) 0.0137(3)
O2 O 1.0457(5) 0.2000(4) 0.0462(4)
O3 O 0.5868(9) 0.2342(8) 0.5831(6)
O4 O 0.7635(6) -0.4614(4) 0.2581(3)
P1 P 0.63192(13) -0.06252(12) 0.12614(9)
loop_
_geom_bond_atom_site_label_1
_geom_bond_atom_site_label_2
_geom_bond_site_symmetry_1
_geom_bond_site_symmetry_2
C1 H1 1_555 1_555
H2 C1 1_555 1_555
H3 C1 1_555 1_555
C2 C3 1_555 1_555
C3 H4 1_555 1_555
C4 C3 1_555 1_555
H5 C4 1_555 1_555
C5 C4 1_555 1_555
C6 C5 1_555 1_555
C7 C2 1_555 1_555
H6 C7 1_555 1_555
C8 C5 1_555 1_555
C9 C8 1_555 1_555
H7 C9 1_555 1_555
C10 C9 1_555 1_555
H8 C10 1_555 1_555
C11 C10 1_555 1_555
C12 C11 1_555 1_555
H9 C12 1_555 1_555
C13 C8 1_555 1_555
C14 H10 1_555 1_555
H11 C14 1_555 1_555
H12 C14 1_555 1_555
C15 C13 1_555 1_555
C16 C15 1_555 1_555
H13 C16 1_555 1_555
C17 C16 1_555 1_555
H14 C17 1_555 1_555
C18 C17 1_555 1_555
C19 C18 1_555 1_555
H15 C19 1_555 1_555
C20 C15 1_555 1_555
C21 H16 1_555 1_555
H17 C21 1_555 1_555
H18 C21 1_555 1_555
C22 C23 1_555 1_555
C23 C24 1_555 1_555
C24 C25 1_555 1_555
C25 C26 1_555 1_555
C26 C27 1_555 1_555
C27 C22 1_555 1_555
F1 C23 1_555 1_555
F2 C24 1_555 1_555
F3 C25 1_555 1_555
F4 C26 1_555 1_555
F5 C27 1_555 1_555
N1 C22 1_555 1_555
H19 N1 1_555 1_555
O1 P1 1_555 1_555
O2 C1 1_555 1_555
O3 C11 1_555 1_555
O4 C18 1_555 1_555
P1 C6 1_555 1_555
C2 O2 1_555 1_555
C6 C7 1_555 1_555
C12 C13 1_555 1_555
C14 O3 1_555 1_555
C19 C20 1_555 1_555
C20 P1 1_555 1_555
C21 O4 1_555 1_555
N1 P1 1_555 1_555

#END
