
#######################################################################
#
#                 Cambridge Crystallographic Data Centre
#                                CCDC 
#
#######################################################################
#
# If this CIF has been generated from an entry in the Cambridge 
# Structural Database, then it will include bibliographic, chemical, 
# crystal, experimental, refinement or atomic coordinate data resulting 
# from the CCDC's data processing and validation procedures.
#
#######################################################################

data_HAPYAB
_chemical_name_common            PF-06747775
_chemical_formula_moiety         'C18 H22 F1 N9 O2'
_chemical_name_systematic        
N-(4-fluoro-1-{6-[(3-methoxy-1-methyl-1H-pyrazol-4-yl)amino]-9-methyl-9H-purin-2-yl}pyrrolidin-3-yl)prop-2-enamide
_chemical_properties_biological  
'Potent EGFR activity against the four common mutants (exon 19 deletion (Del), L858R, and double mutants T790M/L858R and T790M/Del).'
_symmetry_cell_setting           monoclinic
_symmetry_space_group_name_H-M   'C 2'
_symmetry_Int_Tables_number      5
_space_group_name_Hall           'C 2y'
loop_
_symmetry_equiv_pos_site_id
_symmetry_equiv_pos_as_xyz
1 x,y,z
2 -x,y,-z
3 1/2+x,1/2+y,z
4 1/2-x,1/2+y,-z
_cell_length_a                   12.8711(8)
_cell_length_b                   22.8537(11)
_cell_length_c                   14.6359(9)
_cell_angle_alpha                90
_cell_angle_beta                 108.280(3)
_cell_angle_gamma                90
_cell_volume                     4087.92
_exptl_crystal_colour            colorless
_exptl_crystal_description       plate
_cell_formula_units_Z            8
loop_
_atom_site_label
_atom_site_type_symbol
_atom_site_fract_x
_atom_site_fract_y
_atom_site_fract_z
C1 C 0.1885(5) 0.9340(4) 0.5015(5)
C2 C 0.2825(6) 0.9657(4) 0.5466(6)
C3 C 0.2139(5) 0.8781(4) 0.5343(5)
H1 H 0.1682 0.8457 0.5182
C4 C 0.3946(8) 1.0493(5) 0.5733(9)
H2 H 0.4140 1.0472 0.6422
H3 H 0.3926 1.0895 0.5539
H4 H 0.4479 1.0286 0.5524
C5 C 0.3764(6) 0.8311(4) 0.6521(7)
H5 H 0.3307 0.7970 0.6417
H6 H 0.3975 0.8419 0.7188
H7 H 0.4406 0.8228 0.6343
C6 C 0.0059(5) 0.9296(4) 0.3786(5)
C7 C -0.0725(5) 0.8432(3) 0.3091(5)
C8 C -0.1665(5) 0.9244(4) 0.2616(5)
C9 C -0.0864(6) 0.9590(4) 0.3207(5)
C10 C -0.2150(7) 1.0159(4) 0.2496(6)
H8 H -0.2574 1.0493 0.2298
C11 C -0.3561(5) 0.9453(4) 0.1490(6)
H9 H -0.3532 0.9055 0.1287
H10 H -0.3747 0.9706 0.0939
H11 H -0.4106 0.9487 0.1809
C12 C 0.0354(5) 0.7533(3) 0.3647(6)
H12 H 0.0408 0.7554 0.4322
H13 H 0.1019 0.7689 0.3561
C13 C 0.0139(6) 0.6915(3) 0.3271(6)
H14 H 0.0823 0.6699 0.3368
C14 C -0.0472(5) 0.6992(3) 0.2223(6)
H15 H -0.0889 0.6639 0.1955
C15 C -0.1231(5) 0.7500(3) 0.2234(6)
H16 H -0.1399 0.7726 0.1644
H17 H -0.1909 0.7363 0.2318
C16 C 0.0847(5) 0.6716(5) 0.1426(6)
C17 C 0.1536(6) 0.6938(4) 0.0856(7)
H18 H 0.1634 0.7340 0.0822
C18 C 0.2012(6) 0.6586(5) 0.0396(7)
H19 H 0.1922 0.6183 0.0423
H20 H 0.2438 0.6740 0.0046
F1 F -0.0540(4) 0.6634(2) 0.3711(4)
H21 H 0.079(8) 1.0018(15) 0.439(7)
H22 H 0.041(8) 0.7564(16) 0.167(7)
N1 N 0.3613(5) 0.9328(4) 0.6043(5)
N2 N 0.3164(5) 0.8791(3) 0.5937(5)
N3 N 0.0924(5) 0.9592(3) 0.4405(4)
N4 N 0.0119(4) 0.8716(3) 0.3743(4)
N5 N -0.1654(4) 0.8664(3) 0.2508(4)
N6 N -0.2503(4) 0.9619(3) 0.2148(5)
N7 N -0.1173(5) 1.0179(3) 0.3128(5)
N8 N -0.0609(4) 0.7841(3) 0.3048(4)
N9 N 0.0282(4) 0.7139(3) 0.1712(5)
O1 O 0.2917(4) 1.0241(3) 0.5320(4)
O2 O 0.0784(4) 0.6199(3) 0.1596(5)
C19 C 0.8082(5) -0.0792(3) -0.0035(5)
C20 C 0.7124(6) -0.1102(3) -0.0505(5)
C21 C 0.7814(6) -0.0228(4) -0.0351(6)
H23 H 0.8265 0.0099 -0.0181
C22 C 0.6007(7) -0.1939(4) -0.0834(7)
H24 H 0.5439 -0.1670 -0.0822
H25 H 0.5921 -0.2296 -0.0520
H26 H 0.5960 -0.2020 -0.1489
C23 C 0.6164(6) 0.0247(4) -0.1515(7)
H27 H 0.5621 0.0098 -0.2078
H28 H 0.6656 0.0499 -0.1705
H29 H 0.5811 0.0464 -0.1133
C24 C 0.9898(5) -0.0751(4) 0.1179(5)
C25 C 1.0753(6) 0.0089(4) 0.1867(5)
C26 C 1.1654(5) -0.0726(4) 0.2335(5)
C27 C 1.0818(5) -0.1056(3) 0.1741(5)
C28 C 1.2092(6) -0.1648(4) 0.2451(6)
H30 H 1.2496 -0.1988 0.2651
C29 C 1.3529(6) -0.0968(4) 0.3463(6)
H31 H 1.3870 -0.1319 0.3776
H32 H 1.3442 -0.0698 0.3936
H33 H 1.3979 -0.0794 0.3123
C30 C 1.1483(5) 0.1049(3) 0.2599(6)
H34 H 1.2178 0.1038 0.2471
H35 H 1.1592 0.0922 0.3255
C31 C 1.0987(5) 0.1649(3) 0.2428(6)
H36 H 1.1216 0.1887 0.3014
C32 C 0.9770(5) 0.1544(3) 0.2096(6)
H37 H 0.9378 0.1882 0.1735
C33 C 0.9672(5) 0.1012(3) 0.1434(6)
H38 H 0.9024 0.0784 0.1395
H39 H 0.9649 0.1131 0.0792
C34 C 0.9023(6) 0.1824(5) 0.3374(6)
C35 C 0.8553(6) 0.1607(5) 0.4107(7)
H40 H 0.8499 0.1206 0.4187
C36 C 0.8215(8) 0.1958(6) 0.4641(7)
H41 H 0.8264 0.2361 0.4569
H42 H 0.7922 0.1810 0.5099
F2 F 1.1253(3) 0.1918(2) 0.1673(4)
H43 H 0.905(7) -0.1458(14) 0.064(7)
H44 H 0.940(8) 0.101(2) 0.318(7)
N10 N 0.6332(5) -0.0791(3) -0.1059(5)
N11 N 0.6772(5) -0.0236(3) -0.0954(5)
N12 N 0.9038(4) -0.1036(2) 0.0560(4)
N13 N 0.9882(4) -0.0166(3) 0.1232(4)
N14 N 1.1669(4) -0.0139(3) 0.2435(4)
N15 N 1.2461(4) -0.1108(3) 0.2787(4)
N16 N 1.1097(5) -0.1644(3) 0.1812(5)
N17 N 1.0662(4) 0.0686(3) 0.1908(5)
N18 N 0.9374(5) 0.1407(3) 0.2899(5)
O3 O 0.7056(4) -0.1686(3) -0.0341(4)
O4 O 0.9087(5) 0.2351(3) 0.3191(5)
loop_
_geom_bond_atom_site_label_1
_geom_bond_atom_site_label_2
_geom_bond_site_symmetry_1
_geom_bond_site_symmetry_2
C1 C2 1_555 1_555
C2 N1 1_555 1_555
C3 C1 1_555 1_555
H1 C3 1_555 1_555
C4 H2 1_555 1_555
H3 C4 1_555 1_555
H4 C4 1_555 1_555
C5 H5 1_555 1_555
H6 C5 1_555 1_555
H7 C5 1_555 1_555
C6 C9 1_555 1_555
C7 N4 1_555 1_555
C8 C9 1_555 1_555
C9 N7 1_555 1_555
C10 H8 1_555 1_555
C11 H9 1_555 1_555
H10 C11 1_555 1_555
H11 C11 1_555 1_555
C12 H12 1_555 1_555
H13 C12 1_555 1_555
C13 C12 1_555 1_555
H14 C13 1_555 1_555
C14 C13 1_555 1_555
H15 C14 1_555 1_555
C15 C14 1_555 1_555
H16 C15 1_555 1_555
H17 C15 1_555 1_555
C16 C17 1_555 1_555
C17 H18 1_555 1_555
C18 C17 1_555 1_555
H19 C18 1_555 1_555
H20 C18 1_555 1_555
F1 C13 1_555 1_555
H21 N3 1_555 1_555
H22 N9 1_555 1_555
N1 N2 1_555 1_555
N2 C3 1_555 1_555
N3 C1 1_555 1_555
N4 C6 1_555 1_555
N5 C7 1_555 1_555
N6 C8 1_555 1_555
N7 C10 1_555 1_555
N8 C7 1_555 1_555
N9 C14 1_555 1_555
O1 C2 1_555 1_555
O2 C16 1_555 1_555
C19 C20 1_555 1_555
C20 N10 1_555 1_555
C21 C19 1_555 1_555
H23 C21 1_555 1_555
C22 H24 1_555 1_555
H25 C22 1_555 1_555
H26 C22 1_555 1_555
C23 H27 1_555 1_555
H28 C23 1_555 1_555
H29 C23 1_555 1_555
C24 C27 1_555 1_555
C25 N13 1_555 1_555
C26 C27 1_555 1_555
C27 N16 1_555 1_555
C28 H30 1_555 1_555
C29 H31 1_555 1_555
H32 C29 1_555 1_555
H33 C29 1_555 1_555
C30 H34 1_555 1_555
H35 C30 1_555 1_555
C31 C30 1_555 1_555
H36 C31 1_555 1_555
C32 C31 1_555 1_555
H37 C32 1_555 1_555
C33 C32 1_555 1_555
H38 C33 1_555 1_555
H39 C33 1_555 1_555
C34 C35 1_555 1_555
C35 H40 1_555 1_555
C36 C35 1_555 1_555
H41 C36 1_555 1_555
H42 C36 1_555 1_555
F2 C31 1_555 1_555
H43 N12 1_555 1_555
H44 N18 1_555 1_555
N10 N11 1_555 1_555
N11 C21 1_555 1_555
N12 C19 1_555 1_555
N13 C24 1_555 1_555
N14 C25 1_555 1_555
N15 C26 1_555 1_555
N16 C28 1_555 1_555
N17 C25 1_555 1_555
N18 C32 1_555 1_555
O3 C20 1_555 1_555
O4 C34 1_555 1_555
C4 O1 1_555 1_555
C5 N2 1_555 1_555
C6 N3 1_555 1_555
C8 N5 1_555 1_555
C10 N6 1_555 1_555
C11 N6 1_555 1_555
C12 N8 1_555 1_555
C15 N8 1_555 1_555
C16 N9 1_555 1_555
C22 O3 1_555 1_555
C23 N11 1_555 1_555
C24 N12 1_555 1_555
C26 N14 1_555 1_555
C28 N15 1_555 1_555
C29 N15 1_555 1_555
C30 N17 1_555 1_555
C33 N17 1_555 1_555
C34 N18 1_555 1_555

#END
