
#######################################################################
#
#                 Cambridge Crystallographic Data Centre
#                                CCDC 
#
#######################################################################
#
# If this CIF has been generated from an entry in the Cambridge 
# Structural Database, then it will include bibliographic, chemical, 
# crystal, experimental, refinement or atomic coordinate data resulting 
# from the CCDC's data processing and validation procedures.
#
#######################################################################

data_HAQHIQ
_chemical_formula_moiety         'C24 H28'
_chemical_name_systematic        
7,12-Dihydro-8,11-diethylbenzo(6,7)cyclonona(de)naphthalene
_symmetry_cell_setting           monoclinic
_symmetry_space_group_name_H-M   'C 2/c'
_symmetry_Int_Tables_number      15
_space_group_name_Hall           '-C 2yn'
loop_
_symmetry_equiv_pos_site_id
_symmetry_equiv_pos_as_xyz
1 x,y,z
2 -x,y,1/2-z
3 1/2+x,1/2+y,z
4 1/2-x,1/2+y,1/2-z
5 -x,-y,-z
6 x,-y,1/2+z
7 1/2-x,1/2-y,-z
8 1/2+x,1/2-y,1/2+z
_cell_length_a                   11.9798(3)
_cell_length_b                   12.8286(2)
_cell_length_c                   12.0089(2)
_cell_angle_alpha                90
_cell_angle_beta                 91.457(2)
_cell_angle_gamma                90
_cell_volume                     1844.98
_exptl_crystal_colour            colorless
_exptl_crystal_description       prismatic
_cell_formula_units_Z            4
loop_
_atom_site_label
_atom_site_type_symbol
_atom_site_fract_x
_atom_site_fract_y
_atom_site_fract_z
C1 C 0.5000 0.1906(1) 0.7500
C2 C 0.5000 0.3025(2) 0.7500
C3 C 0.5834(1) 0.3580(1) 0.6924(2)
C4 C 0.6669(1) 0.3068(1) 0.6414(2)
C5 C 0.6754(1) 0.1980(1) 0.6528(1)
C6 C 0.5968(1) 0.1391(1) 0.7070(1)
C7 C 0.6273(1) 0.02681(9) 0.73409(9)
C8 C 0.5885(1) -0.06015(9) 0.65692(9)
C9 C 0.5239(1) -0.1379(1) 0.69296(9)
C10 C 0.4957(1) -0.2352(1) 0.6267(1)
C11 C 0.5261(2) -0.3332(1) 0.6931(2)
C12 C 0.6358(1) -0.0560(1) 0.5413(1)
C13 C 0.7577(2) -0.0901(2) 0.5370(2)
H1 H 0.579(2) 0.434(2) 0.688(1)
H2 H 0.725(2) 0.343(2) 0.593(2)
H3 H 0.745(1) 0.161(1) 0.623(1)
H4 H 0.711(1) 0.027(1) 0.733(1)
H5 H 0.607(1) 0.010(1) 0.808(1)
H6 H 0.536(1) -0.236(1) 0.556(1)
H7 H 0.412(2) -0.237(1) 0.610(1)
H8 H 0.608(2) -0.335(2) 0.700(2)
H9 H 0.505(2) -0.396(2) 0.652(2)
H10 H 0.633(1) 0.020(1) 0.516(1)
H11 H 0.585(1) -0.097(1) 0.485(1)
H12 H 0.808(2) -0.045(2) 0.585(2)
H13 H 0.795(2) -0.086(2) 0.466(2)
H14 H 0.760(2) -0.154(2) 0.570(2)
C6A C 0.4032(1) 0.1391(1) 0.7930(1)
C5A C 0.3246(1) 0.1980(1) 0.8472(1)
C4A C 0.3331(1) 0.3068(1) 0.8586(2)
C3A C 0.4166(1) 0.3580(1) 0.8076(2)
H1A H 0.421(2) 0.434(2) 0.812(1)
H2A H 0.275(2) 0.343(2) 0.907(2)
H3A H 0.255(1) 0.161(1) 0.877(1)
C7A C 0.3727(1) 0.02681(9) 0.76591(9)
C8A C 0.4115(1) -0.06015(9) 0.84308(9)
C9A C 0.4761(1) -0.1379(1) 0.80704(9)
C11A C 0.4739(2) -0.3332(1) 0.8069(2)
C10A C 0.5043(1) -0.2352(1) 0.8733(1)
H6A H 0.464(1) -0.236(1) 0.944(1)
H7A H 0.588(2) -0.237(1) 0.890(1)
H8A H 0.392(2) -0.335(2) 0.800(2)
H9A H 0.495(2) -0.396(2) 0.848(2)
C12A C 0.3642(1) -0.0560(1) 0.9587(1)
C13A C 0.2423(2) -0.0901(2) 0.9630(2)
H12A H 0.192(2) -0.045(2) 0.915(2)
H13A H 0.205(2) -0.086(2) 1.034(2)
H14A H 0.240(2) -0.154(2) 0.930(2)
H10A H 0.367(1) 0.020(1) 0.984(1)
H11A H 0.415(1) -0.097(1) 1.015(1)
H4A H 0.289(1) 0.027(1) 0.767(1)
H5A H 0.393(1) 0.010(1) 0.692(1)
loop_
_geom_bond_atom_site_label_1
_geom_bond_atom_site_label_2
_geom_bond_site_symmetry_1
_geom_bond_site_symmetry_2
C1 C2 1_555 1_555
C2 C3 1_555 1_555
C3 C4 1_555 1_555
C4 C5 1_555 1_555
C5 C6 1_555 1_555
C6 C1 1_555 1_555
C7 C6 1_555 1_555
C8 C7 1_555 1_555
C9 C8 1_555 1_555
C10 C9 1_555 1_555
C11 C10 1_555 1_555
C12 C8 1_555 1_555
C13 C12 1_555 1_555
H1 C3 1_555 1_555
H2 C4 1_555 1_555
H3 C5 1_555 1_555
H4 C7 1_555 1_555
H5 C7 1_555 1_555
H6 C10 1_555 1_555
H7 C10 1_555 1_555
H8 C11 1_555 1_555
H9 C11 1_555 1_555
H10 C12 1_555 1_555
H11 C12 1_555 1_555
H12 C13 1_555 1_555
H13 C13 1_555 1_555
H14 C13 1_555 1_555
C6A C1 1_555 1_555
C5A C6A 1_555 1_555
C4A C5A 1_555 1_555
C3A C2 1_555 1_555
H1A C3A 1_555 1_555
H2A C4A 1_555 1_555
H3A C5A 1_555 1_555
C7A C6A 1_555 1_555
C8A C7A 1_555 1_555
C9A C9 1_555 1_555
C11A C11 1_555 1_555
C10A C9A 1_555 1_555
H6A C10A 1_555 1_555
H7A C10A 1_555 1_555
H8A C11A 1_555 1_555
H9A C11A 1_555 1_555
C12A C8A 1_555 1_555
C13A C12A 1_555 1_555
H12A C13A 1_555 1_555
H13A C13A 1_555 1_555
H14A C13A 1_555 1_555
H10A C12A 1_555 1_555
H11A C12A 1_555 1_555
H4A C7A 1_555 1_555
H5A C7A 1_555 1_555
C4A C3A 1_555 1_555
C8A C9A 1_555 1_555
C11A C10A 1_555 1_555

#END
