
#######################################################################
#
#                 Cambridge Crystallographic Data Centre
#                                CCDC 
#
#######################################################################
#
# If this CIF has been generated from an entry in the Cambridge 
# Structural Database, then it will include bibliographic, chemical, 
# crystal, experimental, refinement or atomic coordinate data resulting 
# from the CCDC's data processing and validation procedures.
#
#######################################################################

data_HAQNUK
_chemical_formula_moiety         'C42 H70 O35,C4 H8 O2,7(H2 O1)'
_chemical_name_systematic        
'\b-Cyclodextrin 1,4-dioxane solvate heptahydrate'
_symmetry_cell_setting           monoclinic
_symmetry_space_group_name_H-M   'P 21'
_symmetry_Int_Tables_number      4
_space_group_name_Hall           'P 2yb'
loop_
_symmetry_equiv_pos_site_id
_symmetry_equiv_pos_as_xyz
1 x,y,z
2 -x,1/2+y,-z
_cell_length_a                   15.274(12)
_cell_length_b                   10.178(8)
_cell_length_c                   20.961(16)
_cell_angle_alpha                90
_cell_angle_beta                 110.251(7)
_cell_angle_gamma                90
_cell_volume                     3057.14
_cell_formula_units_Z            2
loop_
_atom_site_label
_atom_site_type_symbol
_atom_site_fract_x
_atom_site_fract_y
_atom_site_fract_z
O1 O 0.8014(3) 1.1334(4) 0.4603(2)
O2 O 0.7848(3) 1.0246(6) 0.5798(2)
H1 H 0.8096 1.0944 0.5991
O3 O 0.6460(3) 0.8299(6) 0.5083(2)
H2 H 0.5962 0.8482 0.5149
O4 O 0.6447(3) 1.2040(4) 0.4243(2)
O5 O 0.4546(3) 1.1881(5) 0.3533(2)
H3 H 0.4805 1.2332 0.3883
O6 O 0.5768(3) 0.8667(4) 0.3653(2)
O7 O 0.5334(6) 0.6373(5) 0.4166(3)
H4 H 0.5252 0.5577 0.4237
O8 O 0.5442(8) 0.4706(5) 0.3073(3)
H5 H 0.5962 0.4417 0.3325
O9 O 0.4436(3) 0.8464(5) 0.2668(2)
O10 O 0.3572(5) 0.8015(7) 0.1238(3)
H6 H 0.3183 0.8632 0.1160
O11 O 0.5631(3) 0.6054(4) 0.1942(2)
O12 O 0.5702(4) 0.3319(5) 0.2008(2)
H7 H 0.5714 0.3866 0.2312
O13 O 0.7223(4) 0.3021(5) 0.1522(2)
H8 H 0.7271 0.2817 0.1147
O14 O 0.5235(4) 0.5989(5) 0.0761(2)
O15 O 0.5753(4) 0.6416(6) -0.0452(2)
H9 H 0.5417 0.5798 -0.0403
O16 O 0.7643(3) 0.5229(4) 0.0853(2)
O17 O 0.8379(5) 0.2713(5) 0.0773(3)
H10 H 0.8158 0.2932 0.1073
O18 O 1.0288(4) 0.3537(6) 0.1236(2)
H11 H 1.0737 0.3840 0.1561
O19 O 0.8208(3) 0.6010(4) 0.0022(2)
O20 O 0.8426(6) 0.8717(7) -0.0086(4)
H12 H 0.8446 0.9125 -0.0429
O21 O 1.0484(3) 0.6355(5) 0.1390(2)
O22 O 1.1879(3) 0.4764(5) 0.2228(2)
H13 H 1.2379 0.4332 0.2362
O23 O 1.2631(3) 0.6767(5) 0.3297(2)
H14 H 1.3141 0.6566 0.3255
O24 O 1.1576(3) 0.7842(5) 0.1252(2)
O25 O 1.2596(4) 1.0140(6) 0.1546(3)
H15 H 1.2670 1.0643 0.1251
O26 O 1.1831(3) 0.9269(5) 0.2931(2)
O27 O 1.3263(3) 0.9081(5) 0.4144(2)
H16 H 1.3703 0.9158 0.4517
O28 O 1.2452(3) 1.0515(6) 0.5012(2)
H17 H 1.3035 1.0583 0.5128
O29 O 1.1828(3) 1.1550(5) 0.2976(2)
O30 O 1.0731(5) 1.3962(6) 0.2980(3)
H18 H 1.0971 1.4187 0.2691
O31 O 1.0711(3) 1.1691(4) 0.4280(2)
O32 O 1.1338(3) 1.2003(5) 0.5677(2)
H19 H 1.1279 1.1715 0.6036
O33 O 0.9533(3) 1.1587(6) 0.5851(2)
H20 H 0.9017 1.1231 0.5801
O34 O 0.9655(3) 1.3446(5) 0.4128(2)
O35 O 0.8117(6) 1.3539(9) 0.2898(4)
H21 H 0.8682 1.3641 0.2946
C1 C 0.7251(4) 1.1702(7) 0.4807(3)
H22 H 0.7440 1.2481 0.5115
C2 C 0.7054(4) 1.0558(7) 0.5206(3)
H23 H 0.6537 1.0833 0.5366
C3 C 0.6720(4) 0.9363(6) 0.4755(3)
H24 H 0.7247 0.9061 0.4612
C4 C 0.5914(4) 0.9743(6) 0.4114(3)
H25 H 0.5339 0.9883 0.4230
C5 C 0.6101(4) 1.0966(6) 0.3760(3)
H26 H 0.6573 1.0755 0.3543
C6 C 0.5227(4) 1.1520(6) 0.3226(3)
H27 H 0.5393 1.2303 0.3011
H28 H 0.4956 1.0855 0.2867
C7 C 0.4844(4) 0.8131(7) 0.3367(3)
H29 H 0.4447 0.8484 0.3619
C8 C 0.4929(6) 0.6645(7) 0.3457(3)
H30 H 0.4287 0.6258 0.3285
C9 C 0.5481(7) 0.6089(7) 0.3037(3)
H31 H 0.6144 0.6391 0.3227
C10 C 0.5043(5) 0.6522(7) 0.2293(3)
H32 H 0.4407 0.6126 0.2089
C11 C 0.4968(5) 0.8021(6) 0.2260(3)
H33 H 0.5608 0.8414 0.2438
C12 C 0.4460(5) 0.8511(8) 0.1533(3)
H34 H 0.4424 0.9482 0.1539
H35 H 0.4833 0.8269 0.1247
C13 C 0.5221(5) 0.5298(7) 0.1349(3)
H36 H 0.4557 0.5112 0.1299
C14 C 0.5739(5) 0.4001(7) 0.1420(3)
H37 H 0.5420 0.3454 0.1009
C15 C 0.6737(4) 0.4259(6) 0.1454(3)
H38 H 0.7059 0.4819 0.1859
C16 C 0.6704(5) 0.4977(7) 0.0821(3)
H39 H 0.6373 0.4432 0.0411
C17 C 0.6191(5) 0.6280(7) 0.0785(3)
H40 H 0.6518 0.6796 0.1207
C18 C 0.6118(7) 0.7126(9) 0.0165(3)
H41 H 0.5710 0.7890 0.0150
H42 H 0.6744 0.7464 0.0211
C19 C 0.7913(5) 0.4865(6) 0.0290(3)
H43 H 0.7365 0.4467 -0.0072
C20 C 0.8694(5) 0.3858(7) 0.0521(3)
H44 H 0.8872 0.3602 0.0121
C21 C 0.9531(4) 0.4455(6) 0.1055(3)
H45 H 0.9365 0.4637 0.1468
C22 C 0.9813(4) 0.5740(7) 0.0814(3)
H46 H 1.0099 0.5559 0.0460
C23 C 0.8977(5) 0.6678(6) 0.0523(3)
H47 H 0.8774 0.7007 0.0900
C24 C 0.9200(5) 0.7835(8) 0.0148(3)
H48 H 0.9751 0.8309 0.0455
H49 H 0.9355 0.7510 -0.0245
C25 C 1.1409(4) 0.6539(7) 0.1388(3)
H50 H 1.1505 0.5958 0.1034
C26 C 1.2075(5) 0.6091(7) 0.2102(3)
H51 H 1.2733 0.6146 0.2112
C27 C 1.1954(4) 0.7051(7) 0.2640(3)
H52 H 1.1314 0.6939 0.2661
C28 C 1.2067(4) 0.8455(7) 0.2442(3)
H53 H 1.2732 0.8613 0.2487
C29 C 1.1428(5) 0.8794(7) 0.1716(3)
H54 H 1.0762 0.8751 0.1690
C30 C 1.1618(5) 1.0128(8) 0.1482(3)
H55 H 1.1216 1.0280 0.1003
H56 H 1.1491 1.0825 0.1768
C31 C 1.2387(5) 1.0429(7) 0.3184(3)
H57 H 1.2907 1.0464 0.2997
C32 C 1.2796(4) 1.0314(7) 0.3959(3)
H58 H 1.3266 1.1030 0.4135
C33 C 1.2040(4) 1.0486(7) 0.4272(3)
H59 H 1.1619 0.9704 0.4143
C34 C 1.1450(4) 1.1697(7) 0.4003(3)
H60 H 1.1837 1.2510 0.4145
C35 C 1.1040(5) 1.1594(7) 0.3205(3)
H61 H 1.0699 1.0740 0.3083
C36 C 1.0387(6) 1.2670(8) 0.2843(4)
H62 H 1.0203 1.2516 0.2348
H63 H 0.9816 1.2604 0.2962
C37 C 1.0521(4) 1.2896(6) 0.4557(3)
H64 H 1.1038 1.3535 0.4607
C38 C 1.0473(4) 1.2580(6) 0.5255(3)
H65 H 1.0393 1.3428 0.5470
C39 C 0.9643(4) 1.1708(6) 0.5206(3)
H66 H 0.9750 1.0816 0.5047
C40 C 0.8737(4) 1.2288(6) 0.4693(3)
H67 H 0.8572 1.3118 0.4880
C41 C 0.8848(4) 1.2569(7) 0.4008(3)
H68 H 0.8953 1.1729 0.3797
C42 C 0.8039(5) 1.3295(9) 0.3521(4)
H69 H 0.7464 1.2778 0.3451
H70 H 0.7969 1.4143 0.3730
O36 O 0.8240(7) 0.7638(9) 0.2190(4)
O37 O 0.8133(11) 1.0180(11) 0.2713(7)
C43 C 0.7774(11) 0.7828(12) 0.2681(7)
H71 H 0.7856 0.7034 0.2968
H72 H 0.7098 0.7955 0.2438
C44 C 0.8167(11) 0.9020(12) 0.3133(5)
H73 H 0.7799 0.9182 0.3432
H74 H 0.8821 0.8845 0.3425
C45 C 0.8668(15) 0.9961(14) 0.2263(11)
H75 H 0.9319 0.9715 0.2531
H76 H 0.8677 1.0767 0.2002
C46 C 0.8170(16) 0.8815(14) 0.1771(7)
H77 H 0.7507 0.9038 0.1527
H78 H 0.8477 0.8662 0.1432
O38 O 0.5131(3) 0.3898(5) 0.4616(2)
O39 O 0.3544(4) 0.3549(5) 0.2491(3)
O40 O 0.3159(5) 0.2571(6) 0.1173(3)
O41 O 0.6088(7) 0.0689(10) 0.0714(3)
O42 O 0.2908(6) 0.6166(8) 0.0222(4)
O43 O 0.9308(5) 0.5577(6) 0.2936(3)
O44 O 0.618(1) 0.0753(11) 0.2077(6)
O45 O 0.9245(11) 0.0360(17) 0.1048(8)
loop_
_geom_bond_atom_site_label_1
_geom_bond_atom_site_label_2
_geom_bond_site_symmetry_1
_geom_bond_site_symmetry_2
O1 C1 1_555 1_555
O2 H1 1_555 1_555
O3 H2 1_555 1_555
O4 C1 1_555 1_555
O5 H3 1_555 1_555
O6 C4 1_555 1_555
O7 H4 1_555 1_555
O8 H5 1_555 1_555
O9 C7 1_555 1_555
O10 H6 1_555 1_555
O11 C10 1_555 1_555
O12 H7 1_555 1_555
O13 H8 1_555 1_555
O14 C13 1_555 1_555
O15 H9 1_555 1_555
O16 C16 1_555 1_555
O17 H10 1_555 1_555
O18 H11 1_555 1_555
O19 C19 1_555 1_555
O20 H12 1_555 1_555
O21 C22 1_555 1_555
O22 H13 1_555 1_555
O23 H14 1_555 1_555
O24 C25 1_555 1_555
O25 H15 1_555 1_555
O26 C28 1_555 1_555
O27 H16 1_555 1_555
O28 H17 1_555 1_555
O29 C31 1_555 1_555
O30 H18 1_555 1_555
O31 C34 1_555 1_555
O32 H19 1_555 1_555
O33 H20 1_555 1_555
O34 C37 1_555 1_555
O35 H21 1_555 1_555
C1 H22 1_555 1_555
C2 O2 1_555 1_555
H23 C2 1_555 1_555
C3 O3 1_555 1_555
H24 C3 1_555 1_555
C4 C3 1_555 1_555
H25 C4 1_555 1_555
C5 O4 1_555 1_555
H26 C5 1_555 1_555
C6 O5 1_555 1_555
H27 C6 1_555 1_555
H28 C6 1_555 1_555
C7 O6 1_555 1_555
H29 C7 1_555 1_555
C8 O7 1_555 1_555
H30 C8 1_555 1_555
C9 O8 1_555 1_555
H31 C9 1_555 1_555
C10 C9 1_555 1_555
H32 C10 1_555 1_555
C11 O9 1_555 1_555
H33 C11 1_555 1_555
C12 O10 1_555 1_555
H34 C12 1_555 1_555
H35 C12 1_555 1_555
C13 O11 1_555 1_555
H36 C13 1_555 1_555
C14 O12 1_555 1_555
H37 C14 1_555 1_555
C15 O13 1_555 1_555
H38 C15 1_555 1_555
C16 C15 1_555 1_555
H39 C16 1_555 1_555
C17 O14 1_555 1_555
H40 C17 1_555 1_555
C18 O15 1_555 1_555
H41 C18 1_555 1_555
H42 C18 1_555 1_555
C19 O16 1_555 1_555
H43 C19 1_555 1_555
C20 O17 1_555 1_555
H44 C20 1_555 1_555
C21 O18 1_555 1_555
H45 C21 1_555 1_555
C22 C21 1_555 1_555
H46 C22 1_555 1_555
C23 O19 1_555 1_555
H47 C23 1_555 1_555
C24 O20 1_555 1_555
H48 C24 1_555 1_555
H49 C24 1_555 1_555
C25 O21 1_555 1_555
H50 C25 1_555 1_555
C26 O22 1_555 1_555
H51 C26 1_555 1_555
C27 O23 1_555 1_555
H52 C27 1_555 1_555
C28 C27 1_555 1_555
H53 C28 1_555 1_555
C29 O24 1_555 1_555
H54 C29 1_555 1_555
C30 O25 1_555 1_555
H55 C30 1_555 1_555
H56 C30 1_555 1_555
C31 O26 1_555 1_555
H57 C31 1_555 1_555
C32 O27 1_555 1_555
H58 C32 1_555 1_555
C33 O28 1_555 1_555
H59 C33 1_555 1_555
C34 C33 1_555 1_555
H60 C34 1_555 1_555
C35 O29 1_555 1_555
H61 C35 1_555 1_555
C36 O30 1_555 1_555
H62 C36 1_555 1_555
H63 C36 1_555 1_555
C37 O31 1_555 1_555
H64 C37 1_555 1_555
C38 O32 1_555 1_555
H65 C38 1_555 1_555
C39 O33 1_555 1_555
H66 C39 1_555 1_555
C40 O1 1_555 1_555
H67 C40 1_555 1_555
C41 O34 1_555 1_555
H68 C41 1_555 1_555
C42 O35 1_555 1_555
H69 C42 1_555 1_555
H70 C42 1_555 1_555
O36 C43 1_555 1_555
O37 C44 1_555 1_555
C43 H71 1_555 1_555
H72 C43 1_555 1_555
C44 C43 1_555 1_555
H73 C44 1_555 1_555
H74 C44 1_555 1_555
C45 O37 1_555 1_555
H75 C45 1_555 1_555
H76 C45 1_555 1_555
C46 O36 1_555 1_555
H77 C46 1_555 1_555
H78 C46 1_555 1_555
C1 C2 1_555 1_555
C2 C3 1_555 1_555
C4 C5 1_555 1_555
C5 C6 1_555 1_555
C7 C8 1_555 1_555
C8 C9 1_555 1_555
C10 C11 1_555 1_555
C11 C12 1_555 1_555
C13 C14 1_555 1_555
C14 C15 1_555 1_555
C16 C17 1_555 1_555
C17 C18 1_555 1_555
C19 C20 1_555 1_555
C20 C21 1_555 1_555
C22 C23 1_555 1_555
C23 C24 1_555 1_555
C25 C26 1_555 1_555
C26 C27 1_555 1_555
C28 C29 1_555 1_555
C29 C30 1_555 1_555
C31 C32 1_555 1_555
C32 C33 1_555 1_555
C34 C35 1_555 1_555
C35 C36 1_555 1_555
C37 C38 1_555 1_555
C38 C39 1_555 1_555
C39 C40 1_555 1_555
C40 C41 1_555 1_555
C41 C42 1_555 1_555
C45 C46 1_555 1_555

#END
