
#######################################################################
#
#                 Cambridge Crystallographic Data Centre
#                                CCDC 
#
#######################################################################
#
# If this CIF has been generated from an entry in the Cambridge 
# Structural Database, then it will include bibliographic, chemical, 
# crystal, experimental, refinement or atomic coordinate data resulting 
# from the CCDC's data processing and validation procedures.
#
#######################################################################

data_HAQXUV
_chemical_formula_moiety         'C27 H19 F5 N1 P1 S1'
_chemical_name_systematic        
'3,8-dimethyl-6-(3-methylphenyl)-5-(pentafluorophenyl)-6-sulfanylidene-5,6-dihydro-6-dibenzo[c,e][1,2]azaphosphinine unknown solvate'
_symmetry_cell_setting           monoclinic
_symmetry_space_group_name_H-M   'C 2'
_symmetry_Int_Tables_number      5
_space_group_name_Hall           'C 2y'
loop_
_symmetry_equiv_pos_site_id
_symmetry_equiv_pos_as_xyz
1 x,y,z
2 -x,y,-z
3 1/2+x,1/2+y,z
4 1/2-x,1/2+y,-z
_cell_length_a                   16.8922(4)
_cell_length_b                   14.6238(3)
_cell_length_c                   10.6886(2)
_cell_angle_alpha                90
_cell_angle_beta                 108.676(1)
_cell_angle_gamma                90
_cell_volume                     2501.35
_exptl_crystal_colour            colorless
_exptl_crystal_description       block
_cell_formula_units_Z            4
loop_
_atom_site_label
_atom_site_type_symbol
_atom_site_fract_x
_atom_site_fract_y
_atom_site_fract_z
S1 S 0.76682(6) 0.26815(5) 0.61417(8)
P1 P 0.75772(5) 0.35993(5) 0.73970(7)
F1 F 0.62115(13) 0.47236(17) 0.4898(2)
F2 F 0.61056(15) 0.51853(18) 0.2386(2)
F3 F 0.74956(17) 0.55132(17) 0.1771(2)
F4 F 0.90224(16) 0.5421(2) 0.3660(2)
F5 F 0.91307(12) 0.49644(16) 0.61644(19)
N1 N 0.77490(17) 0.46655(16) 0.6931(2)
C1 C 0.65850(18) 0.3587(2) 0.7697(3)
C2 C 0.5977(2) 0.2928(2) 0.7069(3)
H1 H 0.6075 0.2523 0.6439
C3 C 0.5236(2) 0.2866(2) 0.7368(3)
C4 C 0.5101(2) 0.3466(3) 0.8284(4)
H2 H 0.4598 0.3427 0.8498
C5 C 0.5684(2) 0.4114(3) 0.8884(4)
H3 H 0.5575 0.4525 0.9497
C6 C 0.6432(2) 0.4182(2) 0.8610(3)
H4 H 0.6835 0.4629 0.9042
C7 C 0.4600(3) 0.2147(3) 0.6736(4)
H5 H 0.4121 0.2204 0.7061
H6 H 0.4851 0.1540 0.6960
H7 H 0.4412 0.2226 0.5775
C8 C 0.76682(19) 0.4856(2) 0.5589(3)
C9 C 0.6906(2) 0.4897(2) 0.4597(3)
C10 C 0.6852(2) 0.5129(2) 0.3340(3)
C11 C 0.7561(3) 0.5302(2) 0.3022(3)
C12 C 0.8322(2) 0.5247(2) 0.3966(3)
C13 C 0.8374(2) 0.5020(2) 0.5245(3)
C14 C 0.83499(18) 0.3551(2) 0.8995(3)
C15 C 0.8603(2) 0.2688(3) 0.9535(3)
H8 H 0.8350 0.2160 0.9053
C16 C 0.9210(3) 0.2580(3) 1.0746(4)
C17 C 0.9582(2) 0.3375(3) 1.1417(3)
H9 H 1.0014 0.3321 1.2241
C18 C 0.9334(2) 0.4235(3) 1.0907(3)
H10 H 0.9599 0.4758 1.1387
C19 C 0.8695(2) 0.4352(2) 0.9684(3)
C20 C 0.84100(19) 0.5263(2) 0.9174(3)
C21 C 0.79392(19) 0.5421(2) 0.7832(3)
C22 C 0.7674(2) 0.6286(2) 0.7391(3)
H11 H 0.7369 0.6369 0.6483
C23 C 0.7832(2) 0.7040(2) 0.8210(3)
C24 C 0.8286(2) 0.6899(2) 0.9529(3)
H12 H 0.8406 0.7403 1.0121
C25 C 0.8569(2) 0.6031(2) 0.9998(3)
H13 H 0.8881 0.5957 1.0906
C26 C 0.7532(3) 0.7976(2) 0.7720(4)
H14 H 0.7711 0.8413 0.8453
H15 H 0.6921 0.7975 0.7357
H16 H 0.7768 0.8154 0.7029
C27 C 0.9460(4) 0.1641(3) 1.1321(5)
H17 H 0.9900 0.1697 1.2176
H18 H 0.9668 0.1281 1.0718
H19 H 0.8974 0.1334 1.1442
loop_
_geom_bond_atom_site_label_1
_geom_bond_atom_site_label_2
_geom_bond_site_symmetry_1
_geom_bond_site_symmetry_2
S1 P1 1_555 1_555
P1 N1 1_555 1_555
F1 C9 1_555 1_555
F2 C10 1_555 1_555
F3 C11 1_555 1_555
F4 C12 1_555 1_555
F5 C13 1_555 1_555
N1 C8 1_555 1_555
C1 P1 1_555 1_555
C2 C1 1_555 1_555
H1 C2 1_555 1_555
C3 C2 1_555 1_555
C4 C3 1_555 1_555
H2 C4 1_555 1_555
C5 C4 1_555 1_555
H3 C5 1_555 1_555
C6 C1 1_555 1_555
H4 C6 1_555 1_555
C7 C3 1_555 1_555
H5 C7 1_555 1_555
H6 C7 1_555 1_555
H7 C7 1_555 1_555
C8 C9 1_555 1_555
C9 C10 1_555 1_555
C10 C11 1_555 1_555
C11 C12 1_555 1_555
C12 C13 1_555 1_555
C13 C8 1_555 1_555
C14 P1 1_555 1_555
C15 C14 1_555 1_555
H8 C15 1_555 1_555
C16 C15 1_555 1_555
C17 C16 1_555 1_555
H9 C17 1_555 1_555
C18 C17 1_555 1_555
H10 C18 1_555 1_555
C19 C14 1_555 1_555
C20 C19 1_555 1_555
C21 N1 1_555 1_555
C22 C21 1_555 1_555
H11 C22 1_555 1_555
C23 C22 1_555 1_555
C24 C23 1_555 1_555
H12 C24 1_555 1_555
C25 C20 1_555 1_555
H13 C25 1_555 1_555
C26 C23 1_555 1_555
H14 C26 1_555 1_555
H15 C26 1_555 1_555
H16 C26 1_555 1_555
C27 C16 1_555 1_555
H17 C27 1_555 1_555
H18 C27 1_555 1_555
H19 C27 1_555 1_555
C5 C6 1_555 1_555
C18 C19 1_555 1_555
C20 C21 1_555 1_555
C24 C25 1_555 1_555

#END
