
#######################################################################
#
#                 Cambridge Crystallographic Data Centre
#                                CCDC 
#
#######################################################################
#
# If this CIF has been generated from an entry in the Cambridge 
# Structural Database, then it will include bibliographic, chemical, 
# crystal, experimental, refinement or atomic coordinate data resulting 
# from the CCDC's data processing and validation procedures.
#
#######################################################################

data_HARHIT
_chemical_formula_moiety         'C15 H15 N3 O3'
_chemical_name_systematic        
5-(3-(4-(Dimethylamino)phenyl)prop-2-en-1-ylidene)pyrimidine-2,4,6(1H,3H,5H)-trione
_symmetry_cell_setting           monoclinic
_symmetry_space_group_name_H-M   'P 21/n'
_symmetry_Int_Tables_number      14
_space_group_name_Hall           '-P 2yn'
loop_
_symmetry_equiv_pos_site_id
_symmetry_equiv_pos_as_xyz
1 x,y,z
2 1/2-x,1/2+y,1/2-z
3 -x,-y,-z
4 1/2+x,1/2-y,1/2+z
_cell_length_a                   4.5663(2)
_cell_length_b                   9.6254(5)
_cell_length_c                   30.3857(14)
_cell_angle_alpha                90
_cell_angle_beta                 91.668(5)
_cell_angle_gamma                90
_cell_volume                     1334.96
_exptl_crystal_colour            purple
_exptl_crystal_description       block
_cell_formula_units_Z            4
loop_
_atom_site_label
_atom_site_type_symbol
_atom_site_fract_x
_atom_site_fract_y
_atom_site_fract_z
C1 C -0.4751(5) 0.2454(3) 0.13760(7)
H1 H -0.5323 0.2527 0.1070
H2 H -0.3845 0.3306 0.1472
H3 H -0.6451 0.2281 0.1546
C2 C -0.1758(5) 0.0579(3) 0.10445(7)
H4 H -0.2775 0.0941 0.0788
H5 H -0.2195 -0.0392 0.1074
H6 H 0.0313 0.0698 0.1014
C3 C -0.1568(5) 0.0988(2) 0.18391(6)
C4 C -0.2387(5) 0.1735(2) 0.22205(7)
H7 H -0.3813 0.2423 0.2195
C5 C -0.1106(4) 0.1458(2) 0.26248(7)
H8 H -0.1675 0.1968 0.2868
C6 C 0.1039(5) 0.0424(2) 0.26816(7)
C7 C 0.1729(5) -0.0359(2) 0.23068(7)
H9 H 0.3080 -0.1078 0.2337
C8 C 0.0480(5) -0.0100(2) 0.18987(7)
H10 H 0.0985 -0.0645 0.1660
C9 C 0.2600(5) 0.0175(2) 0.30895(7)
H11 H 0.3856 -0.0586 0.3095
C10 C 0.2473(5) 0.0918(2) 0.34724(7)
H12 H 0.1190 0.1665 0.3488
C11 C 0.4246(5) 0.0573(2) 0.38428(7)
H13 H 0.5262 -0.0261 0.3822
C12 C 0.4695(4) 0.1286(2) 0.42292(7)
C13 C 0.6845(4) 0.0743(2) 0.45524(6)
C14 C 0.6642(4) 0.2948(2) 0.49542(6)
C15 C 0.3288(4) 0.2618(2) 0.43143(7)
N1 N -0.2700(4) 0.1324(2) 0.14353(6)
N2 N 0.7668(4) 0.16327(18) 0.48916(5)
N3 N 0.4376(4) 0.3350(2) 0.46764(5)
O1 O 0.7945(3) -0.04204(15) 0.45319(5)
O2 O 0.7647(3) 0.37171(15) 0.52415(4)
O3 O 0.1292(3) 0.31258(17) 0.40893(5)
H14 H 0.891(6) 0.133(2) 0.5051(9)
H15 H 0.352(5) 0.414(3) 0.4717(7)
loop_
_geom_bond_atom_site_label_1
_geom_bond_atom_site_label_2
_geom_bond_site_symmetry_1
_geom_bond_site_symmetry_2
C1 H1 1_555 1_555
H2 C1 1_555 1_555
H3 C1 1_555 1_555
C2 H4 1_555 1_555
H5 C2 1_555 1_555
H6 C2 1_555 1_555
C3 C4 1_555 1_555
C4 H7 1_555 1_555
C5 C4 1_555 1_555
H8 C5 1_555 1_555
C6 C5 1_555 1_555
C7 C6 1_555 1_555
H9 C7 1_555 1_555
C8 C3 1_555 1_555
H10 C8 1_555 1_555
C9 C6 1_555 1_555
H11 C9 1_555 1_555
C10 C9 1_555 1_555
H12 C10 1_555 1_555
C11 C10 1_555 1_555
H13 C11 1_555 1_555
C12 C11 1_555 1_555
C13 C12 1_555 1_555
C14 N2 1_555 1_555
C15 C12 1_555 1_555
N1 C1 1_555 1_555
N2 C13 1_555 1_555
N3 C14 1_555 1_555
O1 C13 1_555 1_555
O2 C14 1_555 1_555
O3 C15 1_555 1_555
H14 N2 1_555 1_555
H15 N3 1_555 1_555
C2 N1 1_555 1_555
C3 N1 1_555 1_555
C7 C8 1_555 1_555
C15 N3 1_555 1_555

#END
