
#######################################################################
#
#                 Cambridge Crystallographic Data Centre
#                                CCDC 
#
#######################################################################
#
# If this CIF has been generated from an entry in the Cambridge 
# Structural Database, then it will include bibliographic, chemical, 
# crystal, experimental, refinement or atomic coordinate data resulting 
# from the CCDC's data processing and validation procedures.
#
#######################################################################

data_HARMAO01
_chemical_name_common            
"N-Methylthioamidotetrathiafulvalene, 4-(N-methythiocarbamoyl)-2,2'-bi(1,3-dithiolylidene)"
_chemical_formula_moiety         'C8 H7 N1 S5'
_chemical_name_systematic        N-Methylthiocarbamoyltetrathiafulvalene
_symmetry_cell_setting           monoclinic
_symmetry_space_group_name_H-M   'P 21/c'
_symmetry_Int_Tables_number      14
_space_group_name_Hall           '-P 2ybc'
loop_
_symmetry_equiv_pos_site_id
_symmetry_equiv_pos_as_xyz
1 x,y,z
2 -x,1/2+y,1/2-z
3 -x,-y,-z
4 x,1/2-y,1/2+z
_cell_length_a                   11.947(3)
_cell_length_b                   8.300(3)
_cell_length_c                   11.031(3)
_cell_angle_alpha                90
_cell_angle_beta                 90.74(2)
_cell_angle_gamma                90
_cell_volume                     1093.74
_exptl_crystal_colour            black
_cell_formula_units_Z            4
loop_
_atom_site_label
_atom_site_type_symbol
_atom_site_fract_x
_atom_site_fract_y
_atom_site_fract_z
S1 S 0.70583(5) 0.24833(8) 0.41090(6)
S2 S 0.62551(6) -0.00325(8) 0.24133(6)
S3 S 0.45335(6) 0.27483(8) 0.52132(6)
S4 S 0.37148(6) 0.04362(9) 0.33602(6)
S5 S 0.94172(6) 0.40710(10) 0.38440(6)
N1 N 0.9344(2) 0.3074(3) 0.1569(2)
C1 C 0.5916(2) 0.1330(3) 0.3573(2)
C2 C 0.7831(2) 0.2165(3) 0.2773(2)
C3 C 0.7458(2) 0.0991(3) 0.2034(2)
C4 C 0.4865(2) 0.1485(3) 0.3988(2)
C5 C 0.3086(2) 0.2629(4) 0.4948(3)
C6 C 0.2727(2) 0.1602(4) 0.4121(3)
C7 C 0.8872(2) 0.3083(3) 0.2645(2)
C8 C 1.0431(3) 0.3780(5) 0.1334(3)
H1 H 0.9022(28) 0.2568(41) 0.1069(31)
H2 H 0.7827(23) 0.0625(36) 0.1353(27)
H3 H 0.2626(26) 0.3301(39) 0.5450(28)
H4 H 0.2074(25) 0.1432(37) 0.3919(27)
H5 H 1.0406(25) 0.4957(41) 0.1423(28)
H6 H 1.0964(30) 0.3289(45) 0.1881(34)
H7 H 1.0607(30) 0.3540(49) 0.0576(37)
loop_
_geom_bond_atom_site_label_1
_geom_bond_atom_site_label_2
_geom_bond_site_symmetry_1
_geom_bond_site_symmetry_2
S1 C1 1_555 1_555
S2 C1 1_555 1_555
S3 C4 1_555 1_555
S4 C4 1_555 1_555
S5 C7 1_555 1_555
N1 C7 1_555 1_555
C1 C4 1_555 1_555
C2 S1 1_555 1_555
C3 S2 1_555 1_555
C5 S3 1_555 1_555
C6 S4 1_555 1_555
C7 C2 1_555 1_555
C8 N1 1_555 1_555
H1 N1 1_555 1_555
H2 C3 1_555 1_555
H3 C5 1_555 1_555
H4 C6 1_555 1_555
H5 C8 1_555 1_555
H6 C8 1_555 1_555
H7 C8 1_555 1_555
C2 C3 1_555 1_555
C5 C6 1_555 1_555

#END
