
#######################################################################
#
#                 Cambridge Crystallographic Data Centre
#                                CCDC 
#
#######################################################################
#
# If this CIF has been generated from an entry in the Cambridge 
# Structural Database, then it will include bibliographic, chemical, 
# crystal, experimental, refinement or atomic coordinate data resulting 
# from the CCDC's data processing and validation procedures.
#
#######################################################################

data_HARMIZ
_chemical_formula_moiety         'C18 H16 N6 O2'
_chemical_name_systematic        1,1'-(1,4-phenylene)bis(3-pyridin-4-ylurea)
_symmetry_cell_setting           monoclinic
_symmetry_space_group_name_H-M   'P 21/c'
_symmetry_Int_Tables_number      14
_space_group_name_Hall           '-P 2ybc'
loop_
_symmetry_equiv_pos_site_id
_symmetry_equiv_pos_as_xyz
1 x,y,z
2 -x,1/2+y,1/2-z
3 -x,-y,-z
4 x,1/2-y,1/2+z
_cell_length_a                   6.9717(14)
_cell_length_b                   12.837(3)
_cell_length_c                   9.4361(19)
_cell_angle_alpha                90
_cell_angle_beta                 111.68
_cell_angle_gamma                90
_cell_volume                     784.753
_exptl_crystal_colour            brown
_exptl_crystal_description       needle
_cell_formula_units_Z            2
loop_
_atom_site_label
_atom_site_type_symbol
_atom_site_fract_x
_atom_site_fract_y
_atom_site_fract_z
O1 O 0.3154(4) 0.7828(2) 1.0196(3)
N1 N 0.2858(6) 0.8570(3) 0.7904(4)
N2 N 0.3809(5) 0.6877(2) 0.8401(3)
H1 H 0.3823 0.6888 0.7493
C1 C 0.4363(6) 0.5938(3) 0.9234(4)
C2 C 0.5918(6) 0.5927(3) 1.0700(4)
N3 N 0.1362(6) 1.1716(3) 0.8262(4)
C3 C 0.1801(8) 1.1053(4) 0.9440(6)
H2 H 0.1763 1.1316 1.0347
C4 C 0.2297(7) 1.0027(3) 0.9421(5)
H3 H 0.2599 0.9620 1.0292
C5 C 0.2344(6) 0.9601(3) 0.8090(4)
C6 C 0.3256(6) 0.7763(3) 0.8936(4)
C7 C 0.3465(6) 0.5019(3) 0.8560(4)
H4 H 0.2431 0.5033 0.7594
C8 C 0.1870(6) 1.0265(3) 0.6846(5)
H5 H 0.1870 1.0015 0.5920
C9 C 0.1401(6) 1.1291(4) 0.6982(5)
H6 H 0.1091 1.1716 0.6128
H7 H 0.660(6) 0.647(3) 1.111(5)
H8 H 0.279(7) 0.836(4) 0.690(6)
O1B O 0.6846(4) 0.2172(2) 0.9804(3)
N1B N 0.7142(6) 0.1430(3) 1.2096(4)
N2B N 0.6191(5) 0.3123(2) 1.1599(3)
H1B H 0.6177 0.3112 1.2507
C1B C 0.5637(6) 0.4062(3) 1.0766(4)
C2B C 0.4082(6) 0.4073(3) 0.9300(4)
N3B N 0.8638(6) -0.1716(3) 1.1738(4)
C3B C 0.8199(8) -0.1053(4) 1.0560(6)
H2B H 0.8237 -0.1316 0.9653
C4B C 0.7703(7) -0.0027(3) 1.0579(5)
H3B H 0.7401 0.0380 0.9708
C5B C 0.7656(6) 0.0399(3) 1.1910(4)
C6B C 0.6744(6) 0.2237(3) 1.1064(4)
C7B C 0.6535(6) 0.4981(3) 1.1440(4)
H4B H 0.7569 0.4967 1.2406
C8B C 0.8130(6) -0.0265(3) 1.3154(5)
H5B H 0.8130 -0.0015 1.4080
C9B C 0.8599(6) -0.1291(4) 1.3018(5)
H6B H 0.8909 -0.1716 1.3872
H7B H 0.340(6) 0.353(3) 0.889(5)
H8B H 0.721(7) 0.164(4) 1.310(6)
loop_
_geom_bond_atom_site_label_1
_geom_bond_atom_site_label_2
_geom_bond_site_symmetry_1
_geom_bond_site_symmetry_2
O1 C6 1_555 1_555
N1 C5 1_555 1_555
N2 H1 1_555 1_555
C1 N2 1_555 1_555
C2 C1 1_555 1_555
N3 C3 1_555 1_555
C3 H2 1_555 1_555
C4 C3 1_555 1_555
H3 C4 1_555 1_555
C5 C4 1_555 1_555
C6 N1 1_555 1_555
C7 C1 1_555 1_555
H4 C7 1_555 1_555
C8 C5 1_555 1_555
H5 C8 1_555 1_555
C9 N3 1_555 1_555
H6 C9 1_555 1_555
H7 C2 1_555 1_555
H8 N1 1_555 1_555
O1B C6B 1_555 1_555
N1B C5B 1_555 1_555
N2B H1B 1_555 1_555
C1B N2B 1_555 1_555
C2B C7 1_555 1_555
N3B C3B 1_555 1_555
C3B H2B 1_555 1_555
C4B C3B 1_555 1_555
H3B C4B 1_555 1_555
C5B C4B 1_555 1_555
C6B N1B 1_555 1_555
C7B C2 1_555 1_555
H4B C7B 1_555 1_555
C8B C5B 1_555 1_555
H5B C8B 1_555 1_555
C9B N3B 1_555 1_555
H6B C9B 1_555 1_555
H7B C2B 1_555 1_555
H8B N1B 1_555 1_555
N2 C6 1_555 1_555
C8 C9 1_555 1_555
N2B C6B 1_555 1_555
C1B C2B 1_555 1_555
C1B C7B 1_555 1_555
C8B C9B 1_555 1_555

#END
