
#######################################################################
#
#                 Cambridge Crystallographic Data Centre
#                                CCDC 
#
#######################################################################
#
# If this CIF has been generated from an entry in the Cambridge 
# Structural Database, then it will include bibliographic, chemical, 
# crystal, experimental, refinement or atomic coordinate data resulting 
# from the CCDC's data processing and validation procedures.
#
#######################################################################

data_HARPUO
_chemical_formula_moiety         'C27 H28 Cl3 N3 O5'
_chemical_name_systematic        
'14-t-butyl 5-(2,2,2-trichloroethyl) 18-(cyanomethylene)-17-oxa-5,14-diazapentacyclo[14.3.1.0^1,6^.0^7,15^.0^8,13^]icosa-7(15),8,10,12-tetraene-5,14-dicarboxylate'
_symmetry_cell_setting           monoclinic
_symmetry_space_group_name_H-M   'P 21'
_symmetry_Int_Tables_number      4
_space_group_name_Hall           'P 2yb'
loop_
_symmetry_equiv_pos_site_id
_symmetry_equiv_pos_as_xyz
1 x,y,z
2 -x,1/2+y,-z
_cell_length_a                   19.1632(9)
_cell_length_b                   11.6886(5)
_cell_length_c                   24.9403(10)
_cell_angle_alpha                90
_cell_angle_beta                 95.502(4)
_cell_angle_gamma                90
_cell_volume                     5560.66
_exptl_crystal_colour            colorless
_cell_formula_units_Z            8
loop_
_atom_site_label
_atom_site_type_symbol
_atom_site_fract_x
_atom_site_fract_y
_atom_site_fract_z
O1 O 0.4822(3) 0.5634(5) 0.4274(2)
O2 O 0.2897(3) 0.6981(6) 0.5967(2)
O3 O 0.3403(4) 0.5373(5) 0.62331(18)
O4 O 0.4373(3) 0.3750(5) 0.58453(19)
N1 N 0.4280(3) 0.4027(5) 0.3902(2)
N2 N 0.3254(3) 0.5743(5) 0.53566(19)
N3 N 0.5649(7) 0.3624(16) 0.6931(5)
C1 C 0.3852(3) 0.3770(6) 0.4345(2)
H1 H 0.3422 0.3385 0.4172
C2 C 0.3592(3) 0.4750(6) 0.4646(2)
C3 C 0.3296(3) 0.5823(6) 0.4447(2)
C4 C 0.3159(4) 0.6279(7) 0.3935(2)
H2 H 0.3287 0.5872 0.3629
C5 C 0.2836(4) 0.7324(7) 0.3874(3)
H3 H 0.2736 0.7638 0.3524
C6 C 0.2654(4) 0.7932(7) 0.4321(3)
H4 H 0.2445 0.8666 0.4272
C7 C 0.2774(3) 0.7483(6) 0.4834(3)
H5 H 0.2644 0.7891 0.5138
C8 C 0.3090(3) 0.6414(6) 0.4891(2)
C9 C 0.3548(3) 0.4697(6) 0.5183(2)
C10 C 0.3701(4) 0.3660(6) 0.5521(3)
H6 H 0.3322 0.3557 0.5765
C11 C 0.4956(4) 0.3546(6) 0.5589(3)
C12 C 0.4906(4) 0.3329(10) 0.5009(3)
H7 H 0.5280 0.2777 0.4941
H8 H 0.5015 0.4054 0.4829
C13 C 0.4214(4) 0.2869(7) 0.4729(3)
C14 C 0.4336(5) 0.1827(8) 0.4384(3)
H9 H 0.4609 0.1259 0.4611
H10 H 0.3876 0.1478 0.4267
C15 C 0.4716(5) 0.2059(9) 0.3889(4)
H11 H 0.4714 0.1359 0.3666
H12 H 0.5210 0.2262 0.4002
C16 C 0.4366(4) 0.3034(8) 0.3556(3)
H13 H 0.4658 0.3246 0.3265
H14 H 0.3903 0.2782 0.3388
C17 C 0.3711(4) 0.2631(6) 0.5152(3)
H15 H 0.3234 0.2486 0.4975
H16 H 0.3866 0.1944 0.5363
C18 C 0.4718(4) 0.4975(9) 0.3915(3)
C19 C 0.6186(4) 0.5435(7) 0.3308(3)
C20 C 0.3163(3) 0.6119(6) 0.5874(3)
C21 C 0.3361(5) 0.5528(8) 0.6820(3)
C22 C 0.5557(5) 0.3517(9) 0.5893(4)
H17 H 0.5978 0.3430 0.5724
C23 C 0.5599(7) 0.3610(14) 0.6468(6)
Cl1 Cl 0.61218(16) 0.4706(3) 0.26875(14)
Cl2 Cl 0.6831(2) 0.6560(3) 0.3301(2)
Cl3 Cl 0.64698(19) 0.4487(3) 0.38339(16)
O5 O 0.5002(3) 0.5113(6) 0.3424(2)
C24 C 0.5514(5) 0.5969(9) 0.3414(4)
H18 H 0.5568 0.6375 0.3763
H19 H 0.5370 0.6532 0.3128
C25 C 0.2633(10) 0.525(3) 0.6903(7)
H20 H 0.2347 0.5947 0.6869
H21 H 0.2615 0.4925 0.7264
H22 H 0.2449 0.4691 0.6633
C26 C 0.3620(11) 0.668(2) 0.7024(9)
H23 H 0.4095 0.6809 0.6921
H24 H 0.3629 0.6700 0.7418
H25 H 0.3307 0.7279 0.6867
C27 C 0.3909(13) 0.4632(16) 0.7078(6)
H26 H 0.3803 0.3875 0.6923
H27 H 0.3884 0.4604 0.7469
H28 H 0.4382 0.4861 0.7004
O7 O -0.1844(4) 0.6758(6) 0.0906(2)
O8 O -0.1831(3) 0.4934(5) 0.11737(17)
O9 O -0.0735(3) 0.3283(5) 0.08543(17)
N4 N -0.0699(3) 0.3420(6) -0.1083(2)
N5 N -0.1751(2) 0.5323(5) 0.03066(19)
N6 N 0.0540(6) 0.3496(10) 0.1964(4)
C32 C -0.1163(3) 0.3227(6) -0.0657(2)
H40 H -0.1594 0.2864 -0.0840
C33 C -0.1416(3) 0.4247(6) -0.0374(2)
C34 C -0.1661(3) 0.5337(6) -0.0588(2)
C35 C -0.1758(3) 0.5761(7) -0.1115(3)
H41 H -0.1632 0.5318 -0.1410
C36 C -0.2041(4) 0.6840(7) -0.1193(3)
H42 H -0.2114 0.7139 -0.1548
C37 C -0.2223(4) 0.7497(6) -0.0763(3)
H43 H -0.2416 0.8238 -0.0831
C38 C -0.2133(3) 0.7106(6) -0.0243(3)
H44 H -0.2250 0.7563 0.0050
C39 C -0.1859(3) 0.6000(6) -0.0166(2)
C40 C -0.1495(3) 0.4236(6) 0.0155(2)
C41 C -0.1386(4) 0.3213(7) 0.0505(3)
H45 H -0.1785 0.3154 0.0734
C42 C -0.0151(4) 0.3036(7) 0.0624(3)
C43 C -0.0155(4) 0.2713(11) 0.0053(3)
H46 H 0.0191 0.2090 0.0030
H47 H 0.0016 0.3378 -0.0142
C44 C -0.0846(4) 0.2320(7) -0.0251(3)
C45 C -0.0755(5) 0.1216(9) -0.0565(3)
H48 H -0.1223 0.0914 -0.0698
H49 H -0.0520 0.0638 -0.0321
C46 C -0.0322(6) 0.1399(9) -0.1046(3)
H50 H 0.0168 0.1584 -0.0912
H51 H -0.0318 0.0684 -0.1258
C47 C -0.0621(4) 0.2359(8) -0.1406(3)
H52 H -0.0306 0.2511 -0.1690
H53 H -0.1084 0.2128 -0.1583
C48 C -0.1377(4) 0.2157(7) 0.0161(3)
H54 H -0.1850 0.2022 -0.0026
H55 H -0.1247 0.1484 0.0390
C49 C -0.0209(5) 0.4245(12) -0.1035(4)
C50 C 0.1159(4) 0.5010(7) -0.1741(3)
C51 C -0.1809(3) 0.5760(7) 0.0824(3)
C52 C -0.1767(4) 0.5175(8) 0.1762(3)
C53 C -0.2342(5) 0.5953(12) 0.1901(3)
H56 H -0.2220 0.6745 0.1822
H57 H -0.2403 0.5879 0.2285
H58 H -0.2779 0.5745 0.1687
C54 C -0.1067(5) 0.5524(15) 0.1932(4)
H59 H -0.0761 0.5337 0.1652
H60 H -0.0902 0.5124 0.2266
H61 H -0.1057 0.6352 0.1997
C55 C -0.1953(6) 0.3978(11) 0.1979(3)
H62 H -0.2411 0.3737 0.1807
H63 H -0.1970 0.4018 0.2370
H64 H -0.1595 0.3424 0.1895
C56 C 0.0448(4) 0.3054(8) 0.0936(3)
H65 H 0.0870 0.2898 0.0779
C57 C 0.0487(5) 0.3301(8) 0.1510(4)
Cl7 Cl 0.0533(3) 0.6064(5) -0.1912(3)
Cl8 Cl 0.1968(4) 0.5777(6) -0.1618(3)
Cl9 Cl 0.1172(6) 0.4025(7) -0.2304(5)
O10 O -0.0214(12) 0.513(2) -0.0761(10)
O11 O 0.0365(5) 0.3810(9) -0.1337(3)
C58 C 0.1007(9) 0.4407(15) -0.1255(5)
H66 H 0.1390 0.3861 -0.1149
H67 H 0.0984 0.4964 -0.0958
Cl13 Cl 0.38171(16) -0.0044(2) 1.19537(9)
Cl14 Cl 0.38902(16) 0.2386(2) 1.20492(9)
Cl15 Cl 0.50761(13) 0.1125(3) 1.17316(10)
O14 O 0.4718(2) 0.1784(4) 1.03022(16)
O15 O 0.3994(2) 0.2411(4) 1.09087(17)
O16 O 0.7114(2) 0.2768(5) 0.89440(19)
O17 O 0.6313(2) 0.1894(4) 0.83535(16)
O18 O 0.6932(2) 0.2728(4) 1.01623(16)
N7 N 0.4603(2) 0.3695(4) 1.04862(19)
N8 N 0.5937(2) 0.2956(4) 0.90141(18)
N9 N 0.7209(4) -0.0174(7) 0.9966(4)
C60 C 0.5194(3) 0.4100(5) 1.0209(2)
H70 H 0.5072 0.4908 1.0105
C61 C 0.5331(3) 0.3534(5) 0.9700(2)
C62 C 0.4834(3) 0.3217(5) 0.9248(2)
C63 C 0.4098(3) 0.3271(5) 0.9167(3)
H71 H 0.3828 0.3485 0.9451
C64 C 0.3783(4) 0.3006(6) 0.8666(3)
H72 H 0.3287 0.3052 0.8601
C65 C 0.4169(4) 0.2672(6) 0.8251(3)
H73 H 0.3931 0.2482 0.7911
C66 C 0.4892(4) 0.2607(6) 0.8320(2)
H74 H 0.5155 0.2387 0.8032
C67 C 0.5221(3) 0.2878(5) 0.8828(2)
C68 C 0.5974(3) 0.3414(5) 0.9543(2)
C69 C 0.6629(3) 0.3750(5) 0.9886(2)
H75 H 0.6974 0.4083 0.9653
C70 C 0.6501(3) 0.2255(6) 1.0508(2)
C71 C 0.6116(3) 0.3032(6) 1.0856(2)
H76 H 0.6426 0.3187 1.1189
H77 H 0.5702 0.2614 1.0963
C72 C 0.5862(3) 0.4195(5) 1.0612(2)
C73 C 0.5702(3) 0.5006(6) 1.1057(2)
H78 H 0.5645 0.5788 1.0906
H79 H 0.6106 0.5017 1.1336
C74 C 0.5043(3) 0.4688(6) 1.1321(3)
H80 H 0.4933 0.5301 1.1573
H81 H 0.5127 0.3973 1.1530
C75 C 0.4425(3) 0.4521(6) 1.0896(2)
H82 H 0.4015 0.4240 1.1071
H83 H 0.4297 0.5263 1.0723
C76 C 0.6448(3) 0.4629(6) 1.0296(2)
H84 H 0.6300 0.5349 1.0109
H85 H 0.6868 0.4795 1.0547
C77 C 0.4474(3) 0.2552(5) 1.0542(2)
C78 C 0.3870(3) 0.1284(6) 1.1093(3)
H86 H 0.4107 0.0718 1.0877
H87 H 0.3361 0.1118 1.1054
C79 C 0.4153(4) 0.1201(7) 1.1681(3)
C80 C 0.6520(4) 0.2543(6) 0.8779(3)
C81 C 0.6837(4) 0.1367(7) 0.8025(3)
C82 C 0.6370(5) 0.0728(9) 0.7603(3)
H88 H 0.6065 0.0206 0.7781
H89 H 0.6660 0.0289 0.7374
H90 H 0.6082 0.1276 0.7382
C83 C 0.7232(5) 0.2309(8) 0.7772(3)
H91 H 0.6899 0.2808 0.7560
H92 H 0.7558 0.1974 0.7536
H93 H 0.7495 0.2759 0.8055
C84 C 0.7314(5) 0.0562(9) 0.8373(3)
H94 H 0.7596 0.1005 0.8648
H95 H 0.7625 0.0159 0.8147
H96 H 0.7028 0.0004 0.8548
C85 C 0.6506(4) 0.1121(7) 1.0550(3)
H97 H 0.6233 0.0771 1.0803
C86 C 0.6903(4) 0.0413(7) 1.0230(4)
Cl16 Cl -0.10261(15) 0.0371(2) 0.70429(9)
Cl17 Cl -0.11183(14) 0.2815(2) 0.70767(8)
Cl18 Cl 0.01517(13) 0.1734(3) 0.68138(10)
O19 O -0.0231(2) 0.2186(4) 0.53354(16)
O20 O -0.0960(2) 0.2762(4) 0.59438(16)
O21 O 0.2124(3) 0.3349(5) 0.39571(19)
O22 O 0.1352(2) 0.2349(4) 0.33934(16)
O23 O 0.1946(2) 0.3259(4) 0.51886(17)
N10 N -0.0403(2) 0.4088(4) 0.55056(18)
N11 N 0.0951(2) 0.3440(4) 0.40343(18)
N12 N 0.2226(4) 0.0368(7) 0.4967(3)
C87 C 0.0186(3) 0.4535(5) 0.5230(2)
H98 H 0.0047 0.5337 0.5129
C88 C 0.0326(3) 0.3990(5) 0.4718(2)
C89 C -0.0163(3) 0.3659(5) 0.4262(2)
C90 C -0.0889(3) 0.3664(5) 0.4178(3)
H99 H -0.1162 0.3868 0.4461
C91 C -0.1212(4) 0.3370(6) 0.3676(3)
H100 H -0.1709 0.3386 0.3614
C92 C -0.0814(4) 0.3052(6) 0.3264(3)
H101 H -0.1044 0.2845 0.2923
C93 C -0.0092(3) 0.3032(6) 0.3338(2)
H102 H 0.0177 0.2828 0.3051
C94 C 0.0235(3) 0.3319(5) 0.3843(2)
C95 C 0.0984(3) 0.3895(5) 0.4558(2)
C96 C 0.1626(3) 0.4263(5) 0.4904(2)
H103 H 0.1968 0.4611 0.4673
C97 C 0.1513(3) 0.2765(6) 0.5527(2)
C98 C 0.1126(3) 0.3519(5) 0.5882(2)
H104 H 0.1440 0.3690 0.6211
H105 H 0.0721 0.3087 0.5994
C99 C 0.0856(3) 0.4664(5) 0.5632(2)
C100 C 0.0668(3) 0.5470(6) 0.6069(2)
H106 H 0.0587 0.6243 0.5913
H107 H 0.1070 0.5522 0.6348
C101 C 0.0018(3) 0.5102(6) 0.6335(2)
H108 H -0.0104 0.5699 0.6592
H109 H 0.0120 0.4386 0.6540
C102 C -0.0606(3) 0.4909(6) 0.5911(2)
H110 H -0.1010 0.4607 0.6085
H111 H -0.0746 0.5643 0.5735
C103 C 0.1426(3) 0.5137(6) 0.5314(2)
H112 H 0.1843 0.5330 0.5563
H113 H 0.1259 0.5846 0.5126
C104 C -0.0489(3) 0.2951(6) 0.5570(2)
C105 C -0.1038(4) 0.1651(6) 0.6151(2)
H114 H -0.0767 0.1097 0.5953
H115 H -0.1538 0.1424 0.6105
C106 C -0.0776(4) 0.1648(6) 0.6739(3)
C107 C 0.1540(3) 0.3065(6) 0.3796(2)
C108 C 0.1898(4) 0.1861(7) 0.3076(3)
C109 C 0.1453(4) 0.1099(8) 0.2671(3)
H116 H 0.1184 0.0553 0.2868
H117 H 0.1761 0.0682 0.2448
H118 H 0.1129 0.1579 0.2441
C110 C 0.2253(4) 0.2812(8) 0.2799(3)
H119 H 0.1898 0.3303 0.2607
H120 H 0.2554 0.2485 0.2542
H121 H 0.2539 0.3266 0.3068
C111 C 0.2392(5) 0.1126(8) 0.3438(3)
H122 H 0.2672 0.1614 0.3696
H123 H 0.2704 0.0705 0.3219
H124 H 0.2121 0.0583 0.3634
C112 C 0.1523(3) 0.1627(6) 0.5566(3)
H125 H 0.1256 0.1268 0.5821
C113 C 0.1920(4) 0.0931(7) 0.5237(4)
Cl4? Cl 0.628(5) 0.407(7) 0.292(3)
Cl5? Cl 0.6951(11) 0.6048(14) 0.3369(10)
Cl6? Cl 0.5486(8) 0.6563(15) 0.3211(7)
O6? O 0.5376(13) 0.425(3) 0.3697(9)
C28? C 0.6039(18) 0.475(3) 0.3788(11)
H29? H 0.6399 0.4142 0.3854
H30? H 0.6058 0.5244 0.4110
C29? C 0.2682(16) 0.623(4) 0.6945(11)
H31? H 0.2781 0.7050 0.6932
H32? H 0.2554 0.6025 0.7304
H33? H 0.2293 0.6041 0.6675
C30? C 0.3960(18) 0.633(3) 0.6960(15)
H34? H 0.4401 0.5946 0.6903
H35? H 0.3966 0.6559 0.7339
H36? H 0.3904 0.7010 0.6730
C31? C 0.324(2) 0.437(2) 0.7026(9)
H37? H 0.2752 0.4145 0.6914
H38? H 0.3312 0.4377 0.7420
H39? H 0.3560 0.3833 0.6880
Cl10? Cl 0.1455(5) 0.4154(8) -0.1199(4)
Cl11? Cl 0.1659(9) 0.6166(17) -0.1845(7)
Cl12? Cl 0.1095(17) 0.4489(18) -0.2332(13)
O12? O -0.0024(13) 0.477(3) -0.0632(11)
O13? O -0.0030(7) 0.4573(12) -0.1586(4)
C59? C 0.0425(11) 0.545(2) -0.1641(8)
H68? H 0.0460 0.5920 -0.1311
H69? H 0.0241 0.5936 -0.1946
loop_
_geom_bond_atom_site_label_1
_geom_bond_atom_site_label_2
_geom_bond_site_symmetry_1
_geom_bond_site_symmetry_2
O1 C18 1_555 1_555
O2 C20 1_555 1_555
O3 C20 1_555 1_555
O4 C10 1_555 1_555
N1 C1 1_555 1_555
N2 C8 1_555 1_555
N3 C23 1_555 1_555
C1 H1 1_555 1_555
C2 C1 1_555 1_555
C3 C2 1_555 1_555
C4 C3 1_555 1_555
H2 C4 1_555 1_555
C5 C4 1_555 1_555
H3 C5 1_555 1_555
C6 C5 1_555 1_555
H4 C6 1_555 1_555
C7 C6 1_555 1_555
H5 C7 1_555 1_555
C8 C3 1_555 1_555
C9 N2 1_555 1_555
C10 C9 1_555 1_555
H6 C10 1_555 1_555
C11 O4 1_555 1_555
C12 C11 1_555 1_555
H7 C12 1_555 1_555
H8 C12 1_555 1_555
C13 C1 1_555 1_555
C14 C13 1_555 1_555
H9 C14 1_555 1_555
H10 C14 1_555 1_555
C15 C14 1_555 1_555
H11 C15 1_555 1_555
H12 C15 1_555 1_555
C16 N1 1_555 1_555
H13 C16 1_555 1_555
H14 C16 1_555 1_555
C17 C10 1_555 1_555
H15 C17 1_555 1_555
H16 C17 1_555 1_555
C18 N1 1_555 1_555
C19 Cl1 1_555 1_555
C20 N2 1_555 1_555
C21 O3 1_555 1_555
C22 C11 1_555 1_555
H17 C22 1_555 1_555
C23 C22 1_555 1_555
Cl2 C19 1_555 1_555
Cl3 C19 1_555 1_555
O5 C18 1_555 1_555
C24 C19 1_555 1_555
H18 C24 1_555 1_555
H19 C24 1_555 1_555
C25 C21 1_555 1_555
H20 C25 1_555 1_555
H21 C25 1_555 1_555
H22 C25 1_555 1_555
C26 C21 1_555 1_555
H23 C26 1_555 1_555
H24 C26 1_555 1_555
H25 C26 1_555 1_555
C27 C21 1_555 1_555
H26 C27 1_555 1_555
H27 C27 1_555 1_555
H28 C27 1_555 1_555
O7 C51 1_555 1_555
O8 C51 1_555 1_555
O9 C41 1_555 1_555
N4 C32 1_555 1_555
N5 C39 1_555 1_555
N6 C57 1_555 1_555
C32 H40 1_555 1_555
C33 C32 1_555 1_555
C34 C33 1_555 1_555
C35 C34 1_555 1_555
H41 C35 1_555 1_555
C36 C35 1_555 1_555
H42 C36 1_555 1_555
C37 C36 1_555 1_555
H43 C37 1_555 1_555
C38 C37 1_555 1_555
H44 C38 1_555 1_555
C39 C34 1_555 1_555
C40 N5 1_555 1_555
C41 C40 1_555 1_555
H45 C41 1_555 1_555
C42 O9 1_555 1_555
C43 C42 1_555 1_555
H46 C43 1_555 1_555
H47 C43 1_555 1_555
C44 C32 1_555 1_555
C45 C44 1_555 1_555
H48 C45 1_555 1_555
H49 C45 1_555 1_555
C46 C45 1_555 1_555
H50 C46 1_555 1_555
H51 C46 1_555 1_555
C47 N4 1_555 1_555
H52 C47 1_555 1_555
H53 C47 1_555 1_555
C48 C41 1_555 1_555
H54 C48 1_555 1_555
H55 C48 1_555 1_555
C49 N4 1_555 1_555
C50 Cl7 1_555 1_555
C51 N5 1_555 1_555
C52 O8 1_555 1_555
C53 C52 1_555 1_555
H56 C53 1_555 1_555
H57 C53 1_555 1_555
H58 C53 1_555 1_555
C54 C52 1_555 1_555
H59 C54 1_555 1_555
H60 C54 1_555 1_555
H61 C54 1_555 1_555
C55 C52 1_555 1_555
H62 C55 1_555 1_555
H63 C55 1_555 1_555
H64 C55 1_555 1_555
C56 C42 1_555 1_555
H65 C56 1_555 1_555
C57 C56 1_555 1_555
Cl8 C50 1_555 1_555
Cl9 C50 1_555 1_555
O10 C49 1_555 1_555
O11 C49 1_555 1_555
C58 C50 1_555 1_555
H66 C58 1_555 1_555
H67 C58 1_555 1_555
Cl13 C79 1_555 1_555
Cl14 C79 1_555 1_555
Cl15 C79 1_555 1_555
O14 C77 1_555 1_555
O15 C77 1_555 1_555
O16 C80 1_555 1_555
O17 C80 1_555 1_555
O18 C69 1_555 1_555
N7 C60 1_555 1_555
N8 C67 1_555 1_555
N9 C86 1_555 1_555
C60 H70 1_555 1_555
C61 C60 1_555 1_555
C62 C61 1_555 1_555
C63 C62 1_555 1_555
H71 C63 1_555 1_555
C64 C63 1_555 1_555
H72 C64 1_555 1_555
C65 C64 1_555 1_555
H73 C65 1_555 1_555
C66 C65 1_555 1_555
H74 C66 1_555 1_555
C67 C62 1_555 1_555
C68 N8 1_555 1_555
C69 C68 1_555 1_555
H75 C69 1_555 1_555
C70 O18 1_555 1_555
C71 C70 1_555 1_555
H76 C71 1_555 1_555
H77 C71 1_555 1_555
C72 C60 1_555 1_555
C73 C72 1_555 1_555
H78 C73 1_555 1_555
H79 C73 1_555 1_555
C74 C73 1_555 1_555
H80 C74 1_555 1_555
H81 C74 1_555 1_555
C75 N7 1_555 1_555
H82 C75 1_555 1_555
H83 C75 1_555 1_555
C76 C69 1_555 1_555
H84 C76 1_555 1_555
H85 C76 1_555 1_555
C77 N7 1_555 1_555
C78 O15 1_555 1_555
H86 C78 1_555 1_555
H87 C78 1_555 1_555
C79 C78 1_555 1_555
C80 N8 1_555 1_555
C81 O17 1_555 1_555
C82 C81 1_555 1_555
H88 C82 1_555 1_555
H89 C82 1_555 1_555
H90 C82 1_555 1_555
C83 C81 1_555 1_555
H91 C83 1_555 1_555
H92 C83 1_555 1_555
H93 C83 1_555 1_555
C84 C81 1_555 1_555
H94 C84 1_555 1_555
H95 C84 1_555 1_555
H96 C84 1_555 1_555
C85 C70 1_555 1_555
H97 C85 1_555 1_555
C86 C85 1_555 1_555
Cl16 C106 1_555 1_555
Cl17 C106 1_555 1_555
Cl18 C106 1_555 1_555
O19 C104 1_555 1_555
O20 C104 1_555 1_555
O21 C107 1_555 1_555
O22 C107 1_555 1_555
O23 C96 1_555 1_555
N10 C87 1_555 1_555
N11 C94 1_555 1_555
N12 C113 1_555 1_555
C87 H98 1_555 1_555
C88 C87 1_555 1_555
C89 C88 1_555 1_555
C90 C89 1_555 1_555
H99 C90 1_555 1_555
C91 C90 1_555 1_555
H100 C91 1_555 1_555
C92 C91 1_555 1_555
H101 C92 1_555 1_555
C93 C92 1_555 1_555
H102 C93 1_555 1_555
C94 C89 1_555 1_555
C95 N11 1_555 1_555
C96 C95 1_555 1_555
H103 C96 1_555 1_555
C97 O23 1_555 1_555
C98 C97 1_555 1_555
H104 C98 1_555 1_555
H105 C98 1_555 1_555
C99 C87 1_555 1_555
C100 C99 1_555 1_555
H106 C100 1_555 1_555
H107 C100 1_555 1_555
C101 C100 1_555 1_555
H108 C101 1_555 1_555
H109 C101 1_555 1_555
C102 N10 1_555 1_555
H110 C102 1_555 1_555
H111 C102 1_555 1_555
C103 C96 1_555 1_555
H112 C103 1_555 1_555
H113 C103 1_555 1_555
C104 N10 1_555 1_555
C105 O20 1_555 1_555
H114 C105 1_555 1_555
H115 C105 1_555 1_555
C106 C105 1_555 1_555
C107 N11 1_555 1_555
C108 O22 1_555 1_555
C109 C108 1_555 1_555
H116 C109 1_555 1_555
H117 C109 1_555 1_555
H118 C109 1_555 1_555
C110 C108 1_555 1_555
H119 C110 1_555 1_555
H120 C110 1_555 1_555
H121 C110 1_555 1_555
C111 C108 1_555 1_555
H122 C111 1_555 1_555
H123 C111 1_555 1_555
H124 C111 1_555 1_555
C112 C97 1_555 1_555
H125 C112 1_555 1_555
C113 C112 1_555 1_555
C2 C9 1_555 1_555
C7 C8 1_555 1_555
C12 C13 1_555 1_555
C13 C17 1_555 1_555
C15 C16 1_555 1_555
O5 C24 1_555 1_555
C33 C40 1_555 1_555
C38 C39 1_555 1_555
C43 C44 1_555 1_555
C44 C48 1_555 1_555
C46 C47 1_555 1_555
O11 C58 1_555 1_555
C61 C68 1_555 1_555
C66 C67 1_555 1_555
C71 C72 1_555 1_555
C72 C76 1_555 1_555
C74 C75 1_555 1_555
C88 C95 1_555 1_555
C93 C94 1_555 1_555
C98 C99 1_555 1_555
C99 C103 1_555 1_555
C101 C102 1_555 1_555

#END
