
#######################################################################
#
#                 Cambridge Crystallographic Data Centre
#                                CCDC 
#
#######################################################################
#
# If this CIF has been generated from an entry in the Cambridge 
# Structural Database, then it will include bibliographic, chemical, 
# crystal, experimental, refinement or atomic coordinate data resulting 
# from the CCDC's data processing and validation procedures.
#
#######################################################################

data_HARQUP
_chemical_formula_moiety         'C25 H30 Br1 N1 O1'
_chemical_name_systematic        
2-[2-(4-bromophenyl)-1,2,3,4-tetrahydroisoquinolin-1-yl]-4-t-butylcyclohexan-1-one
_symmetry_cell_setting           monoclinic
_symmetry_space_group_name_H-M   'P 21'
_symmetry_Int_Tables_number      4
_space_group_name_Hall           'P 2yb'
loop_
_symmetry_equiv_pos_site_id
_symmetry_equiv_pos_as_xyz
1 x,y,z
2 -x,1/2+y,-z
_cell_length_a                   11.530(5)
_cell_length_b                   6.203(2)
_cell_length_c                   15.253(6)
_cell_angle_alpha                90
_cell_angle_beta                 97.849(6)
_cell_angle_gamma                90
_cell_volume                     1080.68
_exptl_crystal_colour            colorless
_exptl_crystal_description       needle
_cell_formula_units_Z            2
loop_
_atom_site_label
_atom_site_type_symbol
_atom_site_fract_x
_atom_site_fract_y
_atom_site_fract_z
Br1 Br -0.13651(5) -0.13014(12) 0.50757(4)
O1 O 0.3932(3) 0.0138(6) 0.9014(3)
N1 N 0.1151(3) 0.4035(7) 0.8117(2)
C1 C 0.3345(3) 0.3748(9) 0.8589(3)
H1 H 0.3586 0.4961 0.8984
C2 C 0.3453(4) 0.4497(8) 0.7639(3)
H2 H 0.2920 0.5690 0.7484
H3 H 0.3225 0.3326 0.7230
C3 C 0.5548(4) 0.3342(9) 0.7813(3)
H4 H 0.6345 0.3802 0.7778
H5 H 0.5369 0.2158 0.7401
C4 C 0.5464(4) 0.2543(9) 0.8755(4)
H6 H 0.5963 0.1292 0.8885
H7 H 0.5728 0.3664 0.9179
C5 C 0.4211(4) 0.1959(9) 0.8828(3)
C6 C 0.4712(4) 0.5215(8) 0.7539(3)
H8 H 0.4917 0.6375 0.7969
C7 C 0.4823(4) 0.6155(9) 0.6616(3)
C8 C 0.6039(5) 0.7219(10) 0.6628(4)
H9 H 0.6122 0.8373 0.7052
H10 H 0.6109 0.7781 0.6051
H11 H 0.6639 0.6165 0.6789
C9 C 0.4685(5) 0.4434(9) 0.5892(3)
H12 H 0.5296 0.3381 0.6014
H13 H 0.4735 0.5096 0.5329
H14 H 0.3938 0.3742 0.5877
C10 C 0.3902(5) 0.7915(9) 0.6375(4)
H15 H 0.3141 0.7267 0.6253
H16 H 0.4075 0.8678 0.5861
H17 H 0.3914 0.8902 0.6861
C11 C 0.2091(4) 0.3093(7) 0.8751(3)
H18 H 0.2035 0.1524 0.8682
C12 C 0.1939(3) 0.3591(9) 0.9702(3)
C13 C 0.2240(4) 0.2120(8) 1.0378(3)
H19 H 0.2511 0.0762 1.0248
C14 C 0.2140(4) 0.2653(9) 1.1251(4)
H20 H 0.2357 0.1664 1.1702
C15 C 0.1718(5) 0.4665(9) 1.1445(4)
H21 H 0.1636 0.5017 1.2026
C16 C 0.1417(4) 0.6149(9) 1.0776(3)
H22 H 0.1128 0.7493 1.0909
C17 C 0.1545(4) 0.5642(8) 0.9908(3)
C18 C 0.1255(4) 0.7134(8) 0.9140(4)
H23 H 0.1972 0.7692 0.8959
H24 H 0.0804 0.8343 0.9314
C19 C 0.0559(4) 0.5965(8) 0.8374(3)
H25 H -0.0196 0.5562 0.8536
H26 H 0.0422 0.6932 0.7871
C20 C 0.0591(4) 0.2811(8) 0.7425(3)
C21 C -0.0496(4) 0.3460(10) 0.6967(3)
H27 H -0.0837 0.4732 0.7130
C22 C -0.1067(5) 0.2248(10) 0.6283(4)
H28 H -0.1783 0.2717 0.5991
C23 C -0.0592(5) 0.0357(10) 0.6027(3)
C24 C 0.0490(5) -0.0315(8) 0.6449(3)
H29 H 0.0826 -0.1576 0.6270
C25 C 0.1068(4) 0.0888(8) 0.7135(3)
H30 H 0.1791 0.0418 0.7413
loop_
_geom_bond_atom_site_label_1
_geom_bond_atom_site_label_2
_geom_bond_site_symmetry_1
_geom_bond_site_symmetry_2
Br1 C23 1_555 1_555
O1 C5 1_555 1_555
N1 C11 1_555 1_555
C1 H1 1_555 1_555
C2 C1 1_555 1_555
H2 C2 1_555 1_555
H3 C2 1_555 1_555
C3 H4 1_555 1_555
H5 C3 1_555 1_555
C4 C3 1_555 1_555
H6 C4 1_555 1_555
H7 C4 1_555 1_555
C5 C1 1_555 1_555
C6 C2 1_555 1_555
H8 C6 1_555 1_555
C7 C6 1_555 1_555
C8 C7 1_555 1_555
H9 C8 1_555 1_555
H10 C8 1_555 1_555
H11 C8 1_555 1_555
C9 C7 1_555 1_555
H12 C9 1_555 1_555
H13 C9 1_555 1_555
H14 C9 1_555 1_555
C10 C7 1_555 1_555
H15 C10 1_555 1_555
H16 C10 1_555 1_555
H17 C10 1_555 1_555
C11 C1 1_555 1_555
H18 C11 1_555 1_555
C12 C11 1_555 1_555
C13 C12 1_555 1_555
H19 C13 1_555 1_555
C14 C13 1_555 1_555
H20 C14 1_555 1_555
C15 C14 1_555 1_555
H21 C15 1_555 1_555
C16 C15 1_555 1_555
H22 C16 1_555 1_555
C17 C12 1_555 1_555
C18 C17 1_555 1_555
H23 C18 1_555 1_555
H24 C18 1_555 1_555
C19 N1 1_555 1_555
H25 C19 1_555 1_555
H26 C19 1_555 1_555
C20 N1 1_555 1_555
C21 C20 1_555 1_555
H27 C21 1_555 1_555
C22 C21 1_555 1_555
H28 C22 1_555 1_555
C23 C22 1_555 1_555
C24 C23 1_555 1_555
H29 C24 1_555 1_555
C25 C20 1_555 1_555
H30 C25 1_555 1_555
C3 C6 1_555 1_555
C4 C5 1_555 1_555
C16 C17 1_555 1_555
C18 C19 1_555 1_555
C24 C25 1_555 1_555

#END
