
#######################################################################
#
#                 Cambridge Crystallographic Data Centre
#                                CCDC 
#
#######################################################################
#
# If this CIF has been generated from an entry in the Cambridge 
# Structural Database, then it will include bibliographic, chemical, 
# crystal, experimental, refinement or atomic coordinate data resulting 
# from the CCDC's data processing and validation procedures.
#
#######################################################################

data_HARROK
_chemical_formula_moiety         'C24 H18 F1 N1 O3'
_chemical_name_systematic        
3-(2-(4-fluorophenyl)-1,2,3,4-tetrahydroisoquinolin-1-yl)-4-hydroxy-2H-chromen-2-one
_symmetry_cell_setting           monoclinic
_symmetry_space_group_name_H-M   'P 21/n'
_symmetry_Int_Tables_number      14
_space_group_name_Hall           '-P 2yn'
loop_
_symmetry_equiv_pos_site_id
_symmetry_equiv_pos_as_xyz
1 x,y,z
2 1/2-x,1/2+y,1/2-z
3 -x,-y,-z
4 1/2+x,1/2-y,1/2+z
_cell_length_a                   8.0516(4)
_cell_length_b                   17.5312(8)
_cell_length_c                   13.1231(7)
_cell_angle_alpha                90
_cell_angle_beta                 96.497(5)
_cell_angle_gamma                90
_cell_volume                     1840.48
_exptl_crystal_colour            colorless
_cell_formula_units_Z            4
loop_
_atom_site_label
_atom_site_type_symbol
_atom_site_fract_x
_atom_site_fract_y
_atom_site_fract_z
N1 N 0.81704(15) 0.77400(7) 0.77914(9)
F1 F 0.20418(14) 0.67811(7) 0.58680(10)
O1 O 0.68777(13) 1.01885(6) 0.62930(8)
C1 C 0.71405(19) 0.97432(9) 0.71686(12)
O2 O 0.65983(16) 0.99945(7) 0.79209(9)
C2 C 0.80440(17) 0.90389(8) 0.71077(11)
O3 O 0.94573(13) 0.81793(6) 0.61112(8)
H1 H 0.9384 0.7905 0.6610
C3 C 0.86132(17) 0.88289(8) 0.62158(11)
C4 C 0.82998(17) 0.92927(8) 0.53069(11)
C5 C 0.88026(19) 0.90966(9) 0.43571(12)
H2 H 0.9424 0.8656 0.4292
C6 C 0.8378(2) 0.95553(10) 0.35177(13)
H3 H 0.8709 0.9422 0.2885
C7 C 0.7464(2) 1.02127(10) 0.36099(13)
H4 H 0.7175 1.0516 0.3036
C8 C 0.6977(2) 1.04249(10) 0.45352(13)
H5 H 0.6374 1.0872 0.4596
C9 C 0.73989(18) 0.99598(8) 0.53809(11)
C10 C 0.83631(18) 0.85568(8) 0.80744(11)
H6 H 0.7535 0.8689 0.8538
C11 C 1.01140(19) 0.87063(9) 0.86206(11)
C12 C 1.0617(2) 0.94573(9) 0.87968(12)
H7 H 0.9881 0.9851 0.8588
C13 C 1.2180(2) 0.96302(11) 0.92729(14)
H8 H 1.2493 1.0136 0.9387
C14 C 1.3283(2) 0.90513(12) 0.95810(14)
H9 H 1.4352 0.9164 0.9889
C15 C 1.2791(2) 0.83078(11) 0.94287(13)
H10 H 1.3533 0.7918 0.9642
C16 C 1.1199(2) 0.81222(9) 0.89600(12)
C17 C 1.0655(2) 0.73032(10) 0.88641(15)
H11 H 1.1162 0.7065 0.8308
H12 H 1.1040 0.7034 0.9493
C18 C 0.8788(2) 0.72369(9) 0.86608(13)
H13 H 0.8479 0.6712 0.8497
H14 H 0.8282 0.7384 0.9268
C19 C 0.65347(18) 0.75182(8) 0.73247(11)
C20 C 0.6427(2) 0.68333(9) 0.67851(12)
H15 H 0.7382 0.6540 0.6754
C21 C 0.4917(2) 0.65857(10) 0.62968(13)
H16 H 0.4842 0.6128 0.5936
C22 C 0.3534(2) 0.70264(10) 0.63552(14)
C23 C 0.3587(2) 0.77013(10) 0.68701(14)
H17 H 0.2623 0.7990 0.6892
C24 C 0.5105(2) 0.79495(9) 0.73610(13)
H18 H 0.5163 0.8409 0.7717
loop_
_geom_bond_atom_site_label_1
_geom_bond_atom_site_label_2
_geom_bond_site_symmetry_1
_geom_bond_site_symmetry_2
N1 C10 1_555 1_555
F1 C22 1_555 1_555
O1 C1 1_555 1_555
C1 O2 1_555 1_555
C2 C1 1_555 1_555
O3 H1 1_555 1_555
C3 C2 1_555 1_555
C4 C3 1_555 1_555
C5 C4 1_555 1_555
H2 C5 1_555 1_555
C6 C5 1_555 1_555
H3 C6 1_555 1_555
C7 C6 1_555 1_555
H4 C7 1_555 1_555
C8 C7 1_555 1_555
H5 C8 1_555 1_555
C9 O1 1_555 1_555
C10 C2 1_555 1_555
H6 C10 1_555 1_555
C11 C10 1_555 1_555
C12 C11 1_555 1_555
H7 C12 1_555 1_555
C13 C12 1_555 1_555
H8 C13 1_555 1_555
C14 C13 1_555 1_555
H9 C14 1_555 1_555
C15 C14 1_555 1_555
H10 C15 1_555 1_555
C16 C11 1_555 1_555
C17 C16 1_555 1_555
H11 C17 1_555 1_555
H12 C17 1_555 1_555
C18 N1 1_555 1_555
H13 C18 1_555 1_555
H14 C18 1_555 1_555
C19 N1 1_555 1_555
C20 C19 1_555 1_555
H15 C20 1_555 1_555
C21 C20 1_555 1_555
H16 C21 1_555 1_555
C22 C21 1_555 1_555
C23 C22 1_555 1_555
H17 C23 1_555 1_555
C24 C19 1_555 1_555
H18 C24 1_555 1_555
O3 C3 1_555 1_555
C4 C9 1_555 1_555
C8 C9 1_555 1_555
C15 C16 1_555 1_555
C17 C18 1_555 1_555
C23 C24 1_555 1_555

#END
