
#######################################################################
#
#                 Cambridge Crystallographic Data Centre
#                                CCDC 
#
#######################################################################
#
# If this CIF has been generated from an entry in the Cambridge 
# Structural Database, then it will include bibliographic, chemical, 
# crystal, experimental, refinement or atomic coordinate data resulting 
# from the CCDC's data processing and validation procedures.
#
#######################################################################

data_HASHUH
_chemical_formula_moiety         'C21 H22 F2 O2'
_chemical_name_systematic        
2-fluoro-1-{2-[1-fluoro-2-(4-methylphenyl)-2-oxoethyl]phenyl}-3,3-dimethylbutan-1-one
_symmetry_cell_setting           tetragonal
_symmetry_space_group_name_H-M   'P 42/n'
_symmetry_Int_Tables_number      86
_space_group_name_Hall           '-P 4bc'
loop_
_symmetry_equiv_pos_site_id
_symmetry_equiv_pos_as_xyz
1 x,y,z
2 1/2-x,1/2-y,z
3 -y,1/2+x,1/2+z
4 1/2+y,-x,1/2+z
5 -x,-y,-z
6 1/2+x,1/2+y,-z
7 y,1/2-x,1/2-z
8 1/2-y,x,1/2-z
_cell_length_a                   20.8163(18)
_cell_length_b                   20.8163(18)
_cell_length_c                   8.5798(8)
_cell_angle_alpha                90
_cell_angle_beta                 90
_cell_angle_gamma                90
_cell_volume                     3717.78
_exptl_crystal_colour            white
_exptl_crystal_description       block
_cell_formula_units_Z            8
loop_
_atom_site_label
_atom_site_type_symbol
_atom_site_fract_x
_atom_site_fract_y
_atom_site_fract_z
F1 F 0.48426(11) 0.15668(12) 1.0892(3)
F2 F 0.38780(14) -0.09447(13) 0.7106(3)
O1 O 0.43707(15) 0.04943(15) 0.9949(4)
O2 O 0.30172(16) 0.01153(18) 0.8458(4)
C1 C 0.43803(19) 0.0752(2) 0.7275(5)
C2 C 0.41723(18) 0.0148(2) 0.6763(6)
C3 C 0.4132(2) 0.0024(2) 0.5194(7)
H1 H 0.3983 -0.0373 0.4855
C4 C 0.4308(2) 0.0481(3) 0.4117(6)
H2 H 0.4276 0.0391 0.3058
C5 C 0.4530(2) 0.1063(3) 0.4596(6)
H3 H 0.4660 0.1368 0.3869
C6 C 0.4561(2) 0.1197(2) 0.6155(6)
H4 H 0.4707 0.1598 0.6474
C7 C 0.44161(18) 0.0905(2) 0.8961(5)
C8 C 0.4492(2) 0.1596(2) 0.9504(5)
H5 H 0.4739 0.1836 0.8725
C9 C 0.3862(2) 0.1950(2) 0.9831(5)
C10 C 0.3478(2) 0.1976(2) 0.8333(6)
H6 H 0.3366 0.1548 0.8017
H7 H 0.3730 0.2176 0.7532
H8 H 0.3093 0.2221 0.8500
C11 C 0.3475(2) 0.1615(2) 1.1085(6)
H9 H 0.3082 0.1845 1.1257
H10 H 0.3719 0.1603 1.2034
H11 H 0.3379 0.1184 1.0759
C12 C 0.4016(2) 0.2632(2) 1.0328(6)
H12 H 0.3625 0.2874 1.0420
H13 H 0.4289 0.2830 0.9562
H14 H 0.4233 0.2625 1.1316
C13 C 0.4018(2) -0.0378(2) 0.7916(5)
H15 H 0.4388 -0.0449 0.8602
C14 C 0.3413(2) -0.0263(2) 0.8907(6)
C15 C 0.3333(2) -0.0647(2) 1.0325(6)
C16 C 0.3743(2) -0.1117(3) 1.0780(7)
H16 H 0.4104 -0.1203 1.0176
C17 C 0.3641(3) -0.1468(3) 1.2104(8)
H17 H 0.3935 -0.1785 1.2374
C18 C 0.3122(3) -0.1368(3) 1.3040(7)
C19 C 0.2716(3) -0.0887(3) 1.2600(8)
H18 H 0.2361 -0.0799 1.3221
C20 C 0.2810(3) -0.0529(3) 1.1287(8)
H19 H 0.2522 -0.0204 1.1035
C21 C 0.3007(3) -0.1751(3) 1.4524(7)
H20 H 0.3031 -0.2202 1.4295
H21 H 0.2589 -0.1652 1.4930
H22 H 0.3328 -0.1642 1.5282
loop_
_geom_bond_atom_site_label_1
_geom_bond_atom_site_label_2
_geom_bond_site_symmetry_1
_geom_bond_site_symmetry_2
F1 C8 1_555 1_555
F2 C13 1_555 1_555
O1 C7 1_555 1_555
O2 C14 1_555 1_555
C1 C2 1_555 1_555
C2 C3 1_555 1_555
C3 H1 1_555 1_555
C4 C3 1_555 1_555
H2 C4 1_555 1_555
C5 C4 1_555 1_555
H3 C5 1_555 1_555
C6 C1 1_555 1_555
H4 C6 1_555 1_555
C7 C1 1_555 1_555
C8 C7 1_555 1_555
H5 C8 1_555 1_555
C9 C8 1_555 1_555
C10 C9 1_555 1_555
H6 C10 1_555 1_555
H7 C10 1_555 1_555
H8 C10 1_555 1_555
C11 C9 1_555 1_555
H9 C11 1_555 1_555
H10 C11 1_555 1_555
H11 C11 1_555 1_555
C12 C9 1_555 1_555
H12 C12 1_555 1_555
H13 C12 1_555 1_555
H14 C12 1_555 1_555
C13 C2 1_555 1_555
H15 C13 1_555 1_555
C14 C13 1_555 1_555
C15 C14 1_555 1_555
C16 C15 1_555 1_555
H16 C16 1_555 1_555
C17 C16 1_555 1_555
H17 C17 1_555 1_555
C18 C17 1_555 1_555
C19 C18 1_555 1_555
H18 C19 1_555 1_555
C20 C15 1_555 1_555
H19 C20 1_555 1_555
C21 C18 1_555 1_555
H20 C21 1_555 1_555
H21 C21 1_555 1_555
H22 C21 1_555 1_555
C5 C6 1_555 1_555
C19 C20 1_555 1_555

#END
