
#######################################################################
#
#                 Cambridge Crystallographic Data Centre
#                                CCDC 
#
#######################################################################
#
# If this CIF has been generated from an entry in the Cambridge 
# Structural Database, then it will include bibliographic, chemical, 
# crystal, experimental, refinement or atomic coordinate data resulting 
# from the CCDC's data processing and validation procedures.
#
#######################################################################

data_HASKUJ
_chemical_formula_moiety         'C13 H12 N2 O2,4(H2 O1)'
_chemical_name_systematic        
'3-(4-(Pyridin-4-yl)pyridinium-1-yl)propanoate tetrahydrate'
_symmetry_cell_setting           monoclinic
_symmetry_space_group_name_H-M   'P 21/c'
_symmetry_Int_Tables_number      14
_space_group_name_Hall           '-P 2ybc'
loop_
_symmetry_equiv_pos_site_id
_symmetry_equiv_pos_as_xyz
1 x,y,z
2 -x,1/2+y,1/2-z
3 -x,-y,-z
4 x,1/2-y,1/2+z
_cell_length_a                   23.408(14)
_cell_length_b                   7.390(4)
_cell_length_c                   17.842(10)
_cell_angle_alpha                90
_cell_angle_beta                 96.843(7)
_cell_angle_gamma                90
_cell_volume                     3064.41
_exptl_crystal_colour            'pale yellow'
_cell_formula_units_Z            8
loop_
_atom_site_label
_atom_site_type_symbol
_atom_site_fract_x
_atom_site_fract_y
_atom_site_fract_z
O1 O -0.07933(7) 0.5572(3) 0.05580(12)
O2 O -0.06114(9) 0.2667(3) 0.07583(14)
N1 N 0.38142(9) 0.7717(3) 0.29965(15)
N2 N 0.08873(8) 0.6994(3) 0.15298(12)
C1 C 0.30725(11) 0.7082(4) 0.19819(16)
H1 H 0.2978 0.6745 0.1480
C2 C 0.36448(12) 0.7235(4) 0.22902(18)
H2 H 0.3927 0.6982 0.1980
C3 C 0.33995(11) 0.8039(4) 0.34312(16)
H3 H 0.3507 0.8367 0.3931
C4 C 0.28182(11) 0.7912(3) 0.31807(14)
H4 H 0.2546 0.8139 0.3508
C5 C 0.26475(10) 0.7441(3) 0.24359(13)
C6 C 0.20267(10) 0.7321(3) 0.21258(13)
C7 C 0.18524(11) 0.7572(3) 0.13635(15)
H5 H 0.2123 0.7865 0.1042
C8 C 0.12840(11) 0.7394(3) 0.10766(15)
H6 H 0.1175 0.7554 0.0562
C9 C 0.10378(11) 0.6776(4) 0.22764(16)
H7 H 0.0756 0.6516 0.2586
C10 C 0.16003(10) 0.6932(3) 0.25879(14)
H8 H 0.1698 0.6780 0.3105
C11 C 0.02741(10) 0.6718(3) 0.12074(16)
H9 H 0.0209 0.7262 0.0710
H10 H 0.0022 0.7306 0.1527
C12 C 0.01365(10) 0.4723(3) 0.11521(16)
H11 H 0.0192 0.4205 0.1655
H12 H 0.0407 0.4140 0.0857
C13 C -0.04718(11) 0.4302(4) 0.07960(15)
O3 O 0.58446(7) 0.4021(3) 0.44327(12)
O4 O 0.57125(8) 0.6890(3) 0.41073(13)
N3 N 0.12150(9) 0.1892(3) 0.20316(15)
N4 N 0.41215(8) 0.2796(2) 0.35584(12)
C14 C 0.19560(11) 0.2037(4) 0.30786(15)
H13 H 0.2055 0.1950 0.3598
C15 C 0.13928(11) 0.1787(4) 0.27616(18)
H14 H 0.1120 0.1526 0.3085
C16 C 0.16168(12) 0.2277(4) 0.15867(16)
H15 H 0.1504 0.2364 0.1070
C17 C 0.21927(11) 0.2555(3) 0.18447(15)
H16 H 0.2455 0.2829 0.1508
C18 C 0.23708(10) 0.2421(3) 0.26076(13)
C19 C 0.29852(10) 0.2607(3) 0.29294(13)
C20 C 0.31361(10) 0.3087(3) 0.36742(14)
H17 H 0.2848 0.3363 0.3973
C21 C 0.37006(10) 0.3168(4) 0.39842(15)
H18 H 0.3792 0.3479 0.4489
C22 C 0.39956(10) 0.2349(3) 0.28274(15)
H19 H 0.4293 0.2103 0.2540
C23 C 0.34333(10) 0.2249(3) 0.24964(14)
H20 H 0.3352 0.1945 0.1989
C24 C 0.47328(9) 0.2982(3) 0.38935(16)
H21 H 0.4974 0.2193 0.3631
H22 H 0.4771 0.2625 0.4420
C25 C 0.49235(10) 0.4910(3) 0.38292(15)
H23 H 0.4674 0.5678 0.4088
H24 H 0.4873 0.5250 0.3300
C26 C 0.55439(11) 0.5284(4) 0.41484(15)
O5 O 0.49946(9) 0.9086(3) 0.31198(14)
H25 H 0.5190(11) 0.872(5) 0.3529(12)
H26 H 0.4657(6) 0.872(5) 0.3160(18)
O6 O 0.28931(10) 0.3953(3) 0.04105(14)
H27 H 0.3176(9) 0.455(4) 0.028(2)
H28 H 0.2598(8) 0.445(4) 0.0174(19)
O7 O 0.19400(8) 0.9473(3) 0.46217(14)
H29 H 0.1949(14) 0.8325(14) 0.460(2)
H30 H 0.1585(6) 0.972(4) 0.463(2)
O8 O 0.00469(9) 0.0568(3) 0.18467(14)
H31 H 0.0399(6) 0.085(5) 0.1792(18)
H32 H -0.0126(12) 0.104(5) 0.1443(13)
O9 O 0.20732(10) 0.5759(3) 0.44898(13)
H33 H 0.2350(9) 0.543(5) 0.4814(16)
H34 H 0.1785(9) 0.517(5) 0.4605(19)
O10 O 0.29920(8) 0.0206(3) 0.05282(14)
H35 H 0.3332(7) -0.017(4) 0.051(2)
H36 H 0.3012(13) 0.1344(15) 0.046(2)
O11 O 0.60253(11) 0.0372(3) 0.48044(15)
H37 H 0.5893(16) 0.134(3) 0.460(2)
H38 H 0.5864(15) -0.047(3) 0.4535(19)
O12 O -0.10366(11) 0.9165(3) 0.02486(17)
H39 H -0.0805(14) 0.996(4) 0.046(2)
H40 H -0.0899(17) 0.818(3) 0.045(2)
loop_
_geom_bond_atom_site_label_1
_geom_bond_atom_site_label_2
_geom_bond_site_symmetry_1
_geom_bond_site_symmetry_2
O1 C13 1_555 1_555
O2 C13 1_555 1_555
N1 C2 1_555 1_555
N2 C8 1_555 1_555
C1 H1 1_555 1_555
C2 C1 1_555 1_555
H2 C2 1_555 1_555
C3 N1 1_555 1_555
H3 C3 1_555 1_555
C4 C3 1_555 1_555
H4 C4 1_555 1_555
C5 C1 1_555 1_555
C6 C5 1_555 1_555
C7 C6 1_555 1_555
H5 C7 1_555 1_555
C8 C7 1_555 1_555
H6 C8 1_555 1_555
C9 N2 1_555 1_555
H7 C9 1_555 1_555
C10 C6 1_555 1_555
H8 C10 1_555 1_555
C11 N2 1_555 1_555
H9 C11 1_555 1_555
H10 C11 1_555 1_555
C12 C11 1_555 1_555
H11 C12 1_555 1_555
H12 C12 1_555 1_555
C13 C12 1_555 1_555
O3 C26 1_555 1_555
O4 C26 1_555 1_555
N3 C15 1_555 1_555
N4 C21 1_555 1_555
C14 H13 1_555 1_555
C15 C14 1_555 1_555
H14 C15 1_555 1_555
C16 N3 1_555 1_555
H15 C16 1_555 1_555
C17 C16 1_555 1_555
H16 C17 1_555 1_555
C18 C14 1_555 1_555
C19 C18 1_555 1_555
C20 C19 1_555 1_555
H17 C20 1_555 1_555
C21 C20 1_555 1_555
H18 C21 1_555 1_555
C22 N4 1_555 1_555
H19 C22 1_555 1_555
C23 C19 1_555 1_555
H20 C23 1_555 1_555
C24 N4 1_555 1_555
H21 C24 1_555 1_555
H22 C24 1_555 1_555
C25 C24 1_555 1_555
H23 C25 1_555 1_555
H24 C25 1_555 1_555
C26 C25 1_555 1_555
O5 H25 1_555 1_555
H26 O5 1_555 1_555
O6 H27 1_555 1_555
H28 O6 1_555 1_555
O7 H29 1_555 1_555
H30 O7 1_555 1_555
O8 H31 1_555 1_555
H32 O8 1_555 1_555
O9 H33 1_555 1_555
H34 O9 1_555 1_555
O10 H35 1_555 1_555
H36 O10 1_555 1_555
O11 H37 1_555 1_555
H38 O11 1_555 1_555
O12 H39 1_555 1_555
H40 O12 1_555 1_555
C4 C5 1_555 1_555
C9 C10 1_555 1_555
C17 C18 1_555 1_555
C22 C23 1_555 1_555

#END
