
#######################################################################
#
#                 Cambridge Crystallographic Data Centre
#                                CCDC 
#
#######################################################################
#
# If this CIF has been generated from an entry in the Cambridge 
# Structural Database, then it will include bibliographic, chemical, 
# crystal, experimental, refinement or atomic coordinate data resulting 
# from the CCDC's data processing and validation procedures.
#
#######################################################################

data_HASVEF
_chemical_formula_moiety         'C72 H51 N3,C1 H1 Cl3'
_chemical_name_systematic        
"4-phenyl-3,5-bis(4'-(triphenylvinyl)biphenyl-4-yl)-4H-1,2,4-triazole chloroform unkown solvate"
_symmetry_cell_setting           monoclinic
_symmetry_space_group_name_H-M   'P 21/c'
_symmetry_Int_Tables_number      14
_space_group_name_Hall           '-P 2ybc'
loop_
_symmetry_equiv_pos_site_id
_symmetry_equiv_pos_as_xyz
1 x,y,z
2 -x,1/2+y,1/2-z
3 -x,-y,-z
4 x,1/2-y,1/2+z
_cell_length_a                   20.6186(14)
_cell_length_b                   9.6049(9)
_cell_length_c                   30.469(2)
_cell_angle_alpha                90
_cell_angle_beta                 91.418(7)
_cell_angle_gamma                90
_cell_volume                     6032.22
_exptl_crystal_colour            colorless
_exptl_crystal_description       needle
_chemical_melting_point          '473 K'
_cell_formula_units_Z            4
_exptl_crystal_recrystallization_method Hexane/chloroform
_exptl_crystal_preparation       ', Luminescent'
loop_
_atom_site_label
_atom_site_type_symbol
_atom_site_fract_x
_atom_site_fract_y
_atom_site_fract_z
N1 N 0.9112(2) 0.6783(4) 0.55614(12)
N2 N 0.86722(19) 0.6048(4) 0.58124(12)
N3 N 0.86705(18) 0.5133(4) 0.51473(11)
C1 C 1.0610(2) 1.0397(6) 0.22185(15)
C2 C 1.0070(2) 1.0694(6) 0.24494(17)
H1 H 1.0102 1.1282 0.2692
C3 C 0.9474(3) 1.0132(6) 0.2328(2)
H2 H 0.9111 1.0322 0.2492
C4 C 0.9421(3) 0.9308(7) 0.1969(2)
H3 H 0.9016 0.8955 0.1885
C5 C 0.9951(3) 0.8981(7) 0.17282(19)
H4 H 0.9912 0.8384 0.1489
C6 C 1.0540(3) 0.9550(6) 0.18463(16)
H5 H 1.0899 0.9371 0.1676
C7 C 1.1269(2) 1.1007(5) 0.23383(15)
C8 C 1.1595(2) 1.1717(6) 0.19651(14)
C9 C 1.1245(3) 1.2633(7) 0.17006(18)
H6 H 1.0812 1.2811 0.1759
C10 C 1.1533(3) 1.3292(8) 0.1346(2)
H7 H 1.1299 1.3925 0.1174
C11 C 1.2160(4) 1.2998(8) 0.12570(19)
H8 H 1.2353 1.3426 0.1020
C12 C 1.2506(3) 1.2099(7) 0.15053(19)
H9 H 1.2936 1.1917 0.1439
C13 C 1.2231(2) 1.1446(6) 0.18569(16)
H10 H 1.2474 1.0814 0.2023
C14 C 1.1525(2) 1.0942(5) 0.27431(15)
C15 C 1.2122(2) 1.1709(5) 0.28904(13)
C16 C 1.2238(2) 1.3098(6) 0.27997(15)
H11 H 1.1950 1.3576 0.2614
C17 C 1.2766(3) 1.3790(6) 0.29753(17)
H12 H 1.2828 1.4728 0.2913
C18 C 1.3200(3) 1.3097(8) 0.32415(18)
H13 H 1.3559 1.3565 0.3359
C19 C 1.3111(2) 1.1714(8) 0.33363(18)
H14 H 1.3408 1.1241 0.3516
C20 C 1.2579(2) 1.1042(6) 0.31628(16)
H15 H 1.2520 1.0106 0.3229
C21 C 1.1204(2) 1.0145(5) 0.31010(14)
C22 C 1.1115(2) 1.0794(5) 0.35076(14)
H16 H 1.1276 1.1687 0.3555
C23 C 1.0793(2) 1.0128(5) 0.38364(14)
H17 H 1.0735 1.0590 0.4101
C24 C 1.0554(2) 0.8797(5) 0.37859(13)
C25 C 1.0663(2) 0.8135(5) 0.33876(14)
H18 H 1.0514 0.7230 0.3344
C26 C 1.0986(2) 0.8790(5) 0.30581(14)
H19 H 1.1060 0.8310 0.2799
C27 C 1.01904(18) 0.8098(5) 0.41390(13)
C28 C 0.9892(2) 0.8877(5) 0.44588(14)
H20 H 0.9925 0.9843 0.4452
C29 C 0.9545(2) 0.8249(5) 0.47883(15)
H21 H 0.9356 0.8796 0.5002
C30 C 0.9478(2) 0.6802(5) 0.48028(14)
C31 C 0.9767(2) 0.6018(5) 0.44867(14)
H22 H 0.9724 0.5054 0.4489
C32 C 1.0126(2) 0.6661(5) 0.41609(14)
H23 H 1.0328 0.6112 0.3953
C33 C 0.9096(2) 0.6241(5) 0.51663(15)
C34 C 0.8417(2) 0.5086(5) 0.55602(15)
C35 C 0.8555(2) 0.4186(5) 0.47868(14)
C36 C 0.8715(2) 0.2817(6) 0.48378(18)
H24 H 0.8901 0.2498 0.5100
C37 C 0.8594(3) 0.1911(7) 0.4493(2)
H25 H 0.8700 0.0975 0.4524
C38 C 0.8320(3) 0.2373(8) 0.4108(2)
H26 H 0.8232 0.1750 0.3881
C39 C 0.8177(3) 0.3733(7) 0.40581(17)
H27 H 0.8006 0.4056 0.3792
C40 C 0.8285(2) 0.4658(6) 0.44052(15)
H28 H 0.8173 0.5591 0.4375
C41 C 0.7882(2) 0.4170(5) 0.56984(14)
C42 C 0.7854(2) 0.3760(6) 0.61373(15)
H29 H 0.8192 0.3979 0.6333
C43 C 0.7323(2) 0.3031(6) 0.62773(16)
H30 H 0.7305 0.2784 0.6572
C44 C 0.6818(2) 0.2654(6) 0.60004(15)
C45 C 0.6854(2) 0.3069(7) 0.55666(17)
H31 H 0.6521 0.2824 0.5370
C46 C 0.7369(2) 0.3834(6) 0.54170(17)
H32 H 0.7372 0.4125 0.5126
C47 C 0.6244(2) 0.1858(5) 0.61529(15)
C48 C 0.5967(2) 0.2154(6) 0.65484(16)
H33 H 0.6148 0.2846 0.6727
C49 C 0.5423(2) 0.1439(6) 0.66862(16)
H34 H 0.5243 0.1664 0.6954
C50 C 0.5143(2) 0.0388(6) 0.64280(15)
C51 C 0.5434(2) 0.0078(7) 0.60351(17)
H35 H 0.5268 -0.0637 0.5860
C52 C 0.5969(2) 0.0819(6) 0.59001(17)
H36 H 0.6148 0.0608 0.5631
C53 C 0.4535(2) -0.0362(6) 0.65492(16)
C54 C 0.4095(3) -0.0628(9) 0.61775(19)
C55 C 0.3860(3) -0.1978(10) 0.6091(2)
H37 H 0.3988 -0.2699 0.6278
C56 C 0.3448(4) -0.2271(12) 0.5741(3)
H38 H 0.3305 -0.3173 0.5684
C57 C 0.3256(4) -0.1174(12) 0.5478(2)
H39 H 0.2966 -0.1358 0.5247
C58 C 0.3466(4) 0.0195(12) 0.5536(2)
H40 H 0.3327 0.0914 0.5352
C59 C 0.3912(3) 0.0414(10) 0.5897(2)
H41 H 0.4082 0.1301 0.5942
C60 C 0.4380(2) -0.0734(5) 0.69577(16)
C61 C 0.4844(2) -0.0680(5) 0.73417(16)
C62 C 0.5448(2) -0.1325(6) 0.73238(19)
H42 H 0.5573 -0.1759 0.7066
C63 C 0.5867(3) -0.1323(7) 0.7690(2)
H43 H 0.6269 -0.1759 0.7676
C64 C 0.5695(3) -0.0701(8) 0.8060(2)
H44 H 0.5978 -0.0695 0.8303
C65 C 0.5086(3) -0.0054(7) 0.8084(2)
H45 H 0.4965 0.0380 0.8342
C66 C 0.4674(2) -0.0062(6) 0.77281(17)
H46 H 0.4270 0.0360 0.7747
C67 C 0.3717(2) -0.1251(6) 0.70632(15)
C68 C 0.3649(2) -0.2452(6) 0.72930(18)
H47 H 0.4020 -0.2930 0.7387
C69 C 0.3046(3) -0.2989(7) 0.7392(2)
H48 H 0.3011 -0.3815 0.7549
C70 C 0.2504(3) -0.2274(8) 0.7253(2)
H49 H 0.2095 -0.2630 0.7312
C71 C 0.2554(3) -0.1045(8) 0.70300(18)
H50 H 0.2183 -0.0560 0.6942
C72 C 0.3155(2) -0.0533(6) 0.69369(16)
H51 H 0.3189 0.0307 0.6787
Cl1 Cl 0.78251(19) 0.7991(5) 0.49525(10)
Cl2 Cl 0.75933(14) 0.9947(4) 0.56331(10)
Cl3 Cl 0.6777(3) 0.7560(4) 0.55348(11)
C73 C 0.7595(6) 0.8275(13) 0.5484(3)
H52 H 0.7890 0.7764 0.5682
loop_
_geom_bond_atom_site_label_1
_geom_bond_atom_site_label_2
_geom_bond_site_symmetry_1
_geom_bond_site_symmetry_2
N1 N2 1_555 1_555
N2 C34 1_555 1_555
N3 C33 1_555 1_555
C1 C2 1_555 1_555
C2 H1 1_555 1_555
C3 C2 1_555 1_555
H2 C3 1_555 1_555
C4 C3 1_555 1_555
H3 C4 1_555 1_555
C5 C4 1_555 1_555
H4 C5 1_555 1_555
C6 C1 1_555 1_555
H5 C6 1_555 1_555
C7 C1 1_555 1_555
C8 C7 1_555 1_555
C9 C8 1_555 1_555
H6 C9 1_555 1_555
C10 C9 1_555 1_555
H7 C10 1_555 1_555
C11 C10 1_555 1_555
H8 C11 1_555 1_555
C12 C11 1_555 1_555
H9 C12 1_555 1_555
C13 C8 1_555 1_555
H10 C13 1_555 1_555
C14 C7 1_555 1_555
C15 C14 1_555 1_555
C16 C15 1_555 1_555
H11 C16 1_555 1_555
C17 C16 1_555 1_555
H12 C17 1_555 1_555
C18 C17 1_555 1_555
H13 C18 1_555 1_555
C19 C18 1_555 1_555
H14 C19 1_555 1_555
C20 C15 1_555 1_555
H15 C20 1_555 1_555
C21 C14 1_555 1_555
C22 C21 1_555 1_555
H16 C22 1_555 1_555
C23 C22 1_555 1_555
H17 C23 1_555 1_555
C24 C23 1_555 1_555
C25 C24 1_555 1_555
H18 C25 1_555 1_555
C26 C21 1_555 1_555
H19 C26 1_555 1_555
C27 C24 1_555 1_555
C28 C27 1_555 1_555
H20 C28 1_555 1_555
C29 C28 1_555 1_555
H21 C29 1_555 1_555
C30 C29 1_555 1_555
C31 C30 1_555 1_555
H22 C31 1_555 1_555
C32 C27 1_555 1_555
H23 C32 1_555 1_555
C33 N1 1_555 1_555
C34 N3 1_555 1_555
C35 N3 1_555 1_555
C36 C35 1_555 1_555
H24 C36 1_555 1_555
C37 C36 1_555 1_555
H25 C37 1_555 1_555
C38 C37 1_555 1_555
H26 C38 1_555 1_555
C39 C38 1_555 1_555
H27 C39 1_555 1_555
C40 C35 1_555 1_555
H28 C40 1_555 1_555
C41 C34 1_555 1_555
C42 C41 1_555 1_555
H29 C42 1_555 1_555
C43 C42 1_555 1_555
H30 C43 1_555 1_555
C44 C43 1_555 1_555
C45 C44 1_555 1_555
H31 C45 1_555 1_555
C46 C41 1_555 1_555
H32 C46 1_555 1_555
C47 C44 1_555 1_555
C48 C47 1_555 1_555
H33 C48 1_555 1_555
C49 C48 1_555 1_555
H34 C49 1_555 1_555
C50 C49 1_555 1_555
C51 C50 1_555 1_555
H35 C51 1_555 1_555
C52 C47 1_555 1_555
H36 C52 1_555 1_555
C53 C50 1_555 1_555
C54 C53 1_555 1_555
C55 C54 1_555 1_555
H37 C55 1_555 1_555
C56 C55 1_555 1_555
H38 C56 1_555 1_555
C57 C56 1_555 1_555
H39 C57 1_555 1_555
C58 C57 1_555 1_555
H40 C58 1_555 1_555
C59 C54 1_555 1_555
H41 C59 1_555 1_555
C60 C53 1_555 1_555
C61 C60 1_555 1_555
C62 C61 1_555 1_555
H42 C62 1_555 1_555
C63 C62 1_555 1_555
H43 C63 1_555 1_555
C64 C63 1_555 1_555
H44 C64 1_555 1_555
C65 C64 1_555 1_555
H45 C65 1_555 1_555
C66 C61 1_555 1_555
H46 C66 1_555 1_555
C67 C60 1_555 1_555
C68 C67 1_555 1_555
H47 C68 1_555 1_555
C69 C68 1_555 1_555
H48 C69 1_555 1_555
C70 C69 1_555 1_555
H49 C70 1_555 1_555
C71 C70 1_555 1_555
H50 C71 1_555 1_555
C72 C67 1_555 1_555
H51 C72 1_555 1_555
Cl1 C73 1_555 1_555
Cl2 C73 1_555 1_555
Cl3 C73 1_555 1_555
C73 H52 1_555 1_555
C5 C6 1_555 1_555
C12 C13 1_555 1_555
C19 C20 1_555 1_555
C25 C26 1_555 1_555
C30 C33 1_555 1_555
C31 C32 1_555 1_555
C39 C40 1_555 1_555
C45 C46 1_555 1_555
C51 C52 1_555 1_555
C58 C59 1_555 1_555
C65 C66 1_555 1_555
C71 C72 1_555 1_555

#END
