
#######################################################################
#
#                 Cambridge Crystallographic Data Centre
#                                CCDC 
#
#######################################################################
#
# If this CIF has been generated from an entry in the Cambridge 
# Structural Database, then it will include bibliographic, chemical, 
# crystal, experimental, refinement or atomic coordinate data resulting 
# from the CCDC's data processing and validation procedures.
#
#######################################################################

data_HASYIL
_chemical_formula_moiety         'C42 H52 N6 2+,2(C1 H3 O3 S1 1-),2(C1 H1 Cl3)'
_chemical_name_systematic        
'1^3^,1^4^,2^3^,2^4^,4^3^,4^4^,5^3^,5^4^-octaethyl-1,2,4,5(2,5)-tetrapyrrola-3,6(2,6)-dipyridinacyclohexaphane-3^1^,6^1^-diium bis(methanesulfonate) chloroform solvate'
_symmetry_cell_setting           monoclinic
_symmetry_space_group_name_H-M   'P 21/c'
_symmetry_Int_Tables_number      14
_space_group_name_Hall           '-P 2ybc'
loop_
_symmetry_equiv_pos_site_id
_symmetry_equiv_pos_as_xyz
1 x,y,z
2 -x,1/2+y,1/2-z
3 -x,-y,-z
4 x,1/2-y,1/2+z
_cell_length_a                   12.6300(15)
_cell_length_b                   16.2000(19)
_cell_length_c                   12.8300(15)
_cell_angle_alpha                90
_cell_angle_beta                 105.000(3)
_cell_angle_gamma                90
_cell_volume                     2535.65
_exptl_crystal_colour            red
_exptl_crystal_description       plate
_cell_formula_units_Z            2
loop_
_atom_site_label
_atom_site_type_symbol
_atom_site_fract_x
_atom_site_fract_y
_atom_site_fract_z
C1 C 0.31363(13) -0.12663(10) 0.08516(13)
C2 C 0.21654(13) -0.12442(10) 0.11730(14)
C3 C 0.20457(14) -0.04305(10) 0.15398(14)
C4 C 0.29466(13) 0.00229(10) 0.14366(13)
C5 C 0.33031(13) 0.08645(10) 0.17092(13)
C6 C 0.30720(14) 0.13446(10) 0.25176(13)
H1 H 0.2638 0.1127 0.2957
C7 C 0.34772(14) 0.21437(10) 0.26829(14)
H2 H 0.3280 0.2481 0.3209
C8 C 0.41604(14) 0.24581(10) 0.20977(13)
H3 H 0.4450 0.3000 0.2233
C9 C 0.44169(13) 0.19708(9) 0.13092(13)
C10 C 0.51527(13) 0.21788(9) 0.06641(13)
C11 C 0.53929(13) 0.29170(10) 0.02228(13)
C12 C 0.61159(13) 0.27283(10) -0.04202(13)
C13 C 0.62957(13) 0.18741(10) -0.03533(13)
C14 C 0.13723(15) -0.19390(11) 0.11457(16)
H4 H 0.1531 -0.2387 0.0684
H5 H 0.0619 -0.1739 0.0816
C15 C 0.14259(19) -0.22869(13) 0.22646(19)
H6 H 0.2176 -0.2468 0.2606
H7 H 0.0925 -0.2758 0.2197
H8 H 0.1211 -0.1858 0.2709
C16 C 0.10894(15) -0.01139(11) 0.19157(17)
H9 H 0.1345 0.0017 0.2694
H10 H 0.0539 -0.0560 0.1834
C17 C 0.05287(16) 0.06530(12) 0.13185(19)
H11 H 0.1077 0.1085 0.1340
H12 H -0.0026 0.0854 0.1668
H13 H 0.0177 0.0510 0.0566
C18 C 0.48832(14) 0.37397(10) 0.03339(14)
H14 H 0.4134 0.3648 0.0417
H15 H 0.4815 0.4057 -0.0339
C19 C 0.55296(17) 0.42582(11) 0.12908(15)
H16 H 0.5722 0.3915 0.1941
H17 H 0.5079 0.4724 0.1407
H18 H 0.6200 0.4467 0.1134
C20 C 0.65333(15) 0.33415(10) -0.10929(14)
H19 H 0.5916 0.3692 -0.1483
H20 H 0.6812 0.3040 -0.1638
C21 C 0.74532(17) 0.39010(12) -0.04314(17)
H21 H 0.7164 0.4242 0.0062
H22 H 0.7726 0.4258 -0.0921
H23 H 0.8054 0.3558 -0.0015
N1 N 0.35863(11) -0.04887(8) 0.10045(11)
H27 H 0.4197 -0.0341 0.0847
N2 N 0.39419(11) 0.12117(8) 0.11260(11)
H28 H 0.4059 0.0923 0.0585
N3 N 0.56988(11) 0.15568(8) 0.03003(11)
H29 H 0.5669 0.1031 0.0464
C1B C 0.68637(13) 0.12663(10) -0.08516(13)
C2B C 0.78346(13) 0.12442(10) -0.11730(14)
C3B C 0.79543(14) 0.04305(10) -0.15398(14)
C4B C 0.70534(13) -0.00229(10) -0.14366(13)
C5B C 0.66969(13) -0.08645(10) -0.17092(13)
C6B C 0.69280(14) -0.13446(10) -0.25176(13)
H1B H 0.7362 -0.1127 -0.2957
C7B C 0.65228(14) -0.21437(10) -0.26829(14)
H2B H 0.6720 -0.2481 -0.3209
C8B C 0.58396(14) -0.24581(10) -0.20977(13)
H3B H 0.5550 -0.3000 -0.2233
C9B C 0.55831(13) -0.19708(9) -0.13092(13)
C10B C 0.48473(13) -0.21788(9) -0.06641(13)
C11B C 0.46071(13) -0.29170(10) -0.02228(13)
C12B C 0.38841(13) -0.27283(10) 0.04202(13)
C13B C 0.37043(13) -0.18741(10) 0.03533(13)
C14B C 0.86277(15) 0.19390(11) -0.11457(16)
H4B H 0.8469 0.2387 -0.0684
H5B H 0.9381 0.1739 -0.0816
C15B C 0.85741(19) 0.22869(13) -0.22646(19)
H6B H 0.7824 0.2468 -0.2606
H7B H 0.9075 0.2758 -0.2197
H8B H 0.8789 0.1858 -0.2709
C16B C 0.89106(15) 0.01139(11) -0.19157(17)
H9B H 0.8655 -0.0017 -0.2694
H10B H 0.9461 0.0560 -0.1834
C17B C 0.94713(16) -0.06530(12) -0.13185(19)
H11B H 0.8923 -0.1085 -0.1340
H12B H 1.0026 -0.0854 -0.1668
H13B H 0.9823 -0.0510 -0.0566
C18B C 0.51168(14) -0.37397(10) -0.03339(14)
H14B H 0.5866 -0.3648 -0.0417
H15B H 0.5185 -0.4057 0.0339
C19B C 0.44704(17) -0.42582(11) -0.12908(15)
H16B H 0.4278 -0.3915 -0.1941
H17B H 0.4921 -0.4724 -0.1407
H18B H 0.3800 -0.4467 -0.1134
C20B C 0.34667(15) -0.33415(10) 0.10929(14)
H19B H 0.4084 -0.3692 0.1483
H20B H 0.3188 -0.3040 0.1638
C21B C 0.25468(17) -0.39010(12) 0.04314(17)
H21B H 0.2836 -0.4242 -0.0062
H22B H 0.2274 -0.4258 0.0921
H23B H 0.1946 -0.3558 0.0015
N1B N 0.64137(11) 0.04887(8) -0.10045(11)
H27B H 0.5803 0.0341 -0.0847
N2B N 0.60581(11) -0.12117(8) -0.11260(11)
H28B H 0.5941 -0.0923 -0.0585
N3B N 0.43012(11) -0.15568(8) -0.03003(11)
H29B H 0.4331 -0.1031 -0.0464
C22 C 0.21028(16) -0.02104(13) -0.18552(17)
H24 H 0.2041 -0.0337 -0.1127
H25 H 0.2229 -0.0722 -0.2213
H26 H 0.1423 0.0049 -0.2271
O1 O 0.41981(11) -0.00004(9) -0.12331(13)
O2 O 0.30531(13) 0.11541(8) -0.11108(11)
O3 O 0.31949(11) 0.06971(8) -0.28626(10)
S1 S 0.32103(3) 0.04704(2) -0.17748(3)
C23 C 0.14426(17) 0.33704(13) 0.04173(17)
H30 H 0.2138 0.3623 0.0856
Cl1 Cl 0.0701(3) 0.41204(19) -0.0479(3)
Cl2 Cl 0.17617(19) 0.25374(15) -0.02997(18)
Cl3 Cl 0.06586(17) 0.30445(14) 0.12803(17)
Cl4? Cl 0.0819(13) 0.4127(5) -0.0522(8)
Cl5? Cl 0.1775(5) 0.2485(4) -0.0280(4)
Cl6? Cl 0.0656(12) 0.3148(9) 0.1334(12)
loop_
_geom_bond_atom_site_label_1
_geom_bond_atom_site_label_2
_geom_bond_site_symmetry_1
_geom_bond_site_symmetry_2
C1 C2 1_555 1_555
C2 C3 1_555 1_555
C3 C4 1_555 1_555
C4 C5 1_555 1_555
C5 C6 1_555 1_555
C6 H1 1_555 1_555
C7 C6 1_555 1_555
H2 C7 1_555 1_555
C8 C7 1_555 1_555
H3 C8 1_555 1_555
C9 C8 1_555 1_555
C10 C9 1_555 1_555
C11 C10 1_555 1_555
C12 C11 1_555 1_555
C13 C12 1_555 1_555
C14 C2 1_555 1_555
H4 C14 1_555 1_555
H5 C14 1_555 1_555
C15 C14 1_555 1_555
H6 C15 1_555 1_555
H7 C15 1_555 1_555
H8 C15 1_555 1_555
C16 C3 1_555 1_555
H9 C16 1_555 1_555
H10 C16 1_555 1_555
C17 C16 1_555 1_555
H11 C17 1_555 1_555
H12 C17 1_555 1_555
H13 C17 1_555 1_555
C18 C11 1_555 1_555
H14 C18 1_555 1_555
H15 C18 1_555 1_555
C19 C18 1_555 1_555
H16 C19 1_555 1_555
H17 C19 1_555 1_555
H18 C19 1_555 1_555
C20 C12 1_555 1_555
H19 C20 1_555 1_555
H20 C20 1_555 1_555
C21 C20 1_555 1_555
H21 C21 1_555 1_555
H22 C21 1_555 1_555
H23 C21 1_555 1_555
C22 H24 1_555 1_555
H25 C22 1_555 1_555
H26 C22 1_555 1_555
N1 C1 1_555 1_555
H27 N1 1_555 1_555
N2 C5 1_555 1_555
H28 N2 1_555 1_555
N3 C10 1_555 1_555
H29 N3 1_555 1_555
O1 S1 1_555 1_555
O2 S1 1_555 1_555
O3 S1 1_555 1_555
S1 C22 1_555 1_555
C23 H30 1_555 1_555
Cl1 C23 1_555 1_555
Cl2 C23 1_555 1_555
Cl3 C23 1_555 1_555
C1B C13 1_555 1_555
C2B C1B 1_555 1_555
C3B C2B 1_555 1_555
C4B C3B 1_555 1_555
C5B C4B 1_555 1_555
C6B C5B 1_555 1_555
H1B C6B 1_555 1_555
C7B C6B 1_555 1_555
H2B C7B 1_555 1_555
C8B C7B 1_555 1_555
H3B C8B 1_555 1_555
C9B C8B 1_555 1_555
C10B C9B 1_555 1_555
C11B C10B 1_555 1_555
C12B C11B 1_555 1_555
C13B C1 1_555 1_555
C14B C2B 1_555 1_555
H4B C14B 1_555 1_555
H5B C14B 1_555 1_555
C15B C14B 1_555 1_555
H6B C15B 1_555 1_555
H7B C15B 1_555 1_555
H8B C15B 1_555 1_555
C16B C3B 1_555 1_555
H9B C16B 1_555 1_555
H10B C16B 1_555 1_555
C17B C16B 1_555 1_555
H11B C17B 1_555 1_555
H12B C17B 1_555 1_555
H13B C17B 1_555 1_555
C18B C11B 1_555 1_555
H14B C18B 1_555 1_555
H15B C18B 1_555 1_555
C19B C18B 1_555 1_555
H16B C19B 1_555 1_555
H17B C19B 1_555 1_555
H18B C19B 1_555 1_555
C20B C12B 1_555 1_555
H19B C20B 1_555 1_555
H20B C20B 1_555 1_555
C21B C20B 1_555 1_555
H21B C21B 1_555 1_555
H22B C21B 1_555 1_555
H23B C21B 1_555 1_555
N1B C1B 1_555 1_555
H27B N1B 1_555 1_555
N2B C5B 1_555 1_555
H28B N2B 1_555 1_555
N3B C10B 1_555 1_555
H29B N3B 1_555 1_555
C4 N1 1_555 1_555
C9 N2 1_555 1_555
C13 N3 1_555 1_555
C4B N1B 1_555 1_555
C9B N2B 1_555 1_555
C12B C13B 1_555 1_555
C13B N3B 1_555 1_555

#END
