
#######################################################################
#
#                 Cambridge Crystallographic Data Centre
#                                CCDC 
#
#######################################################################
#
# If this CIF has been generated from an entry in the Cambridge 
# Structural Database, then it will include bibliographic, chemical, 
# crystal, experimental, refinement or atomic coordinate data resulting 
# from the CCDC's data processing and validation procedures.
#
#######################################################################

data_HATQIF
_chemical_formula_moiety         'C16 H16 N4 2+,2(C7 H4 N1 O5 1-),2(C7 H6 N2)'
_chemical_name_systematic        
"1,1'-(ethane-1,2-diyl)bis(1H-benzimidazol-3-ium) bis(2-hydroxy-5-nitrobenzoate) 1H-benzimidazole solvate"
_symmetry_cell_setting           triclinic
_symmetry_space_group_name_H-M   'P -1'
_symmetry_Int_Tables_number      2
_space_group_name_Hall           '-P 1'
loop_
_symmetry_equiv_pos_site_id
_symmetry_equiv_pos_as_xyz
1 x,y,z
2 -x,-y,-z
_cell_length_a                   8.8800(8)
_cell_length_b                   9.2656(8)
_cell_length_c                   12.3474(11)
_cell_angle_alpha                93.7320(10)
_cell_angle_beta                 101.566(2)
_cell_angle_gamma                90.4920(10)
_cell_volume                     992.943
_exptl_crystal_colour            colorless
_exptl_crystal_description       BLOCK
_cell_formula_units_Z            1
loop_
_atom_site_label
_atom_site_type_symbol
_atom_site_fract_x
_atom_site_fract_y
_atom_site_fract_z
N1 N 0.0625(5) 0.9223(4) 0.8749(3)
N2 N 0.2088(3) 0.8816(4) 0.7515(3)
H1 H 0.2822 0.8891 0.7160
C1 C 0.1888(5) 0.9606(5) 0.8374(4)
H2 H 0.2550 1.0366 0.8702
C2 C 0.0880(4) 0.7827(4) 0.7285(3)
C3 C -0.0041(5) 0.8057(4) 0.8051(3)
C4 C -0.1346(5) 0.7210(5) 0.8040(4)
H3 H -0.1960 0.7380 0.8561
C5 C -0.1682(5) 0.6116(5) 0.7227(4)
H4 H -0.2544 0.5525 0.7194
C6 C -0.0775(5) 0.5868(5) 0.6454(4)
H5 H -0.1035 0.5112 0.5913
C7 C 0.0505(5) 0.6714(5) 0.6468(3)
H6 H 0.1108 0.6543 0.5940
C8 C -0.0266(9) 1.0220(8) 0.9416(6)
H7 H -0.0011 1.1228 0.9358
H8 H -0.1367 1.0064 0.9169
N1A N -0.0625(5) 1.0777(4) 1.1251(3)
N2A N -0.2088(3) 1.1184(4) 1.2485(3)
H1A H -0.2822 1.1109 1.2840
C1A C -0.1888(5) 1.0394(5) 1.1626(4)
H2A H -0.2550 0.9634 1.1298
C2A C -0.0880(4) 1.2173(4) 1.2715(3)
C3A C 0.0041(5) 1.1943(4) 1.1949(3)
C4A C 0.1346(5) 1.2790(5) 1.1960(4)
H3A H 0.1960 1.2620 1.1439
C5A C 0.1682(5) 1.3884(5) 1.2773(4)
H4A H 0.2544 1.4475 1.2806
C6A C 0.0775(5) 1.4132(5) 1.3546(4)
H5A H 0.1035 1.4888 1.4087
C7A C -0.0505(5) 1.3286(5) 1.3532(3)
H6A H -0.1108 1.3457 1.4060
C8A C 0.0266(9) 0.9780(8) 1.0584(6)
H7A H 0.0011 0.8772 1.0642
H8A H 0.1367 0.9936 1.0831
N3 N 0.5905(4) 0.7749(4) 0.5273(3)
H11 H 0.6149 0.7160 0.4772
N4 N 0.4654(4) 0.8683(4) 0.6488(3)
C10 C 0.4730(5) 0.7586(5) 0.5762(3)
H12 H 0.4043 0.6801 0.5616
C11 C 0.5887(4) 0.9623(5) 0.6485(3)
C12 C 0.6678(4) 0.9026(4) 0.5700(3)
C13 C 0.7966(4) 0.9701(5) 0.5488(3)
H13 H 0.8486 0.9311 0.4959
C14 C 0.8442(5) 1.0968(5) 0.6088(4)
H14 H 0.9320 1.1439 0.5973
C15 C 0.7656(5) 1.1582(5) 0.6871(4)
H15 H 0.8020 1.2448 0.7262
C16 C 0.6350(5) 1.0925(5) 0.7073(4)
H16 H 0.5808 1.1338 0.7581
N5 N 0.5027(4) 0.7786(4) 0.9804(3)
O1 O 0.3898(4) 0.4316(3) 0.6346(2)
O2 O 0.2148(4) 0.2770(4) 0.6697(3)
O3 O 0.1065(3) 0.3098(3) 0.8388(3)
H17 H 0.1188 0.2744 0.7786
O4 O 0.4990(4) 0.8394(4) 1.0711(3)
O5 O 0.5882(3) 0.8175(3) 0.9219(3)
C17 C 0.3043(5) 0.3866(5) 0.6946(4)
C18 C 0.3054(4) 0.4666(4) 0.8057(3)
C19 C 0.2030(4) 0.4226(4) 0.8709(3)
C20 C 0.2003(5) 0.4991(5) 0.9715(3)
H18 H 0.1315 0.4715 1.0145
C21 C 0.2981(4) 0.6141(5) 1.0070(3)
H19 H 0.2973 0.6641 1.0747
C22 C 0.3981(4) 0.6563(4) 0.9426(3)
C23 C 0.4023(4) 0.5836(4) 0.8427(3)
H20 H 0.4706 0.6136 0.8001
C9? C 0.0628(13) 0.9433(12) 0.9988(6)
H9? H 0.1619 0.9794 1.0404
H10? H 0.0365 0.8539 1.0281
loop_
_geom_bond_atom_site_label_1
_geom_bond_atom_site_label_2
_geom_bond_site_symmetry_1
_geom_bond_site_symmetry_2
N1 C1 1_555 1_555
N2 H1 1_555 1_555
C1 N2 1_555 1_555
H2 C1 1_555 1_555
C2 N2 1_555 1_555
C3 N1 1_555 1_555
C4 C3 1_555 1_555
H3 C4 1_555 1_555
C5 C4 1_555 1_555
H4 C5 1_555 1_555
C6 C5 1_555 1_555
H5 C6 1_555 1_555
C7 C2 1_555 1_555
H6 C7 1_555 1_555
C8 N1 1_555 1_555
H7 C8 1_555 1_555
H8 C8 1_555 1_555
N3 H11 1_555 1_555
N4 C10 1_555 1_555
C10 N3 1_555 1_555
H12 C10 1_555 1_555
C11 N4 1_555 1_555
C12 N3 1_555 1_555
C13 C12 1_555 1_555
H13 C13 1_555 1_555
C14 C13 1_555 1_555
H14 C14 1_555 1_555
C15 C14 1_555 1_555
H15 C15 1_555 1_555
C16 C11 1_555 1_555
H16 C16 1_555 1_555
N5 O4 1_555 1_555
O1 C17 1_555 1_555
O2 C17 1_555 1_555
O3 H17 1_555 1_555
O5 N5 1_555 1_555
C17 C18 1_555 1_555
C18 C19 1_555 1_555
C19 O3 1_555 1_555
C20 C19 1_555 1_555
H18 C20 1_555 1_555
C21 C20 1_555 1_555
H19 C21 1_555 1_555
C22 N5 1_555 1_555
C23 C18 1_555 1_555
H20 C23 1_555 1_555
N1A C1A 1_555 1_555
N2A H1A 1_555 1_555
C1A N2A 1_555 1_555
H2A C1A 1_555 1_555
C2A N2A 1_555 1_555
C3A N1A 1_555 1_555
C4A C3A 1_555 1_555
H3A C4A 1_555 1_555
C5A C4A 1_555 1_555
H4A C5A 1_555 1_555
C6A C5A 1_555 1_555
H5A C6A 1_555 1_555
C7A C2A 1_555 1_555
H6A C7A 1_555 1_555
C8A C8 1_555 1_555
H7A C8A 1_555 1_555
H8A C8A 1_555 1_555
C2 C3 1_555 1_555
C6 C7 1_555 1_555
C11 C12 1_555 1_555
C15 C16 1_555 1_555
C21 C22 1_555 1_555
C22 C23 1_555 1_555
N1A C8A 1_555 1_555
C2A C3A 1_555 1_555
C6A C7A 1_555 1_555

#END
