
#######################################################################
#
#                 Cambridge Crystallographic Data Centre
#                                CCDC 
#
#######################################################################
#
# If this CIF has been generated from an entry in the Cambridge 
# Structural Database, then it will include bibliographic, chemical, 
# crystal, experimental, refinement or atomic coordinate data resulting 
# from the CCDC's data processing and validation procedures.
#
#######################################################################

data_HATTAY
_chemical_compound_source        'Fomitopsis spraguei (Polyporaceae)'
_chemical_name_common            
12beta,23-Epoxy-3alpha-carbomethoxyacetyloxy-24-methyllanosta-8,24-dien-26,33-olide
_chemical_formula_moiety         'C35 H50 O7'
_chemical_name_systematic        'Fomitopsin B methyl ester'
_symmetry_cell_setting           orthorhombic
_symmetry_space_group_name_H-M   'P 21 21 21'
_symmetry_Int_Tables_number      19
_space_group_name_Hall           'P 2ac 2ab'
loop_
_symmetry_equiv_pos_site_id
_symmetry_equiv_pos_as_xyz
1 x,y,z
2 1/2-x,-y,1/2+z
3 1/2+x,1/2-y,-z
4 -x,1/2+y,1/2-z
_cell_length_a                   7.7140(2)
_cell_length_b                   15.1050(5)
_cell_length_c                   27.7570(10)
_cell_angle_alpha                90
_cell_angle_beta                 90
_cell_angle_gamma                90
_cell_volume                     3234.24
_exptl_crystal_colour            colorless
_exptl_crystal_description       Cylindrical
_chemical_melting_point          '220-225 deg.C'
_cell_formula_units_Z            4
loop_
_atom_site_label
_atom_site_type_symbol
_atom_site_fract_x
_atom_site_fract_y
_atom_site_fract_z
O1 O -0.61459(18) -0.33380(8) -0.72648(4)
O2 O -0.46756(19) -0.28468(10) -0.79554(5)
O3 O -0.0903(2) -0.60002(11) -0.54145(6)
C1 C -0.3023(2) -0.29209(12) -0.60143(6)
C2 C -0.6288(3) -0.28246(12) -0.76875(6)
C3 C -0.4646(2) -0.31935(11) -0.69596(6)
C4 C -0.3896(2) -0.36824(12) -0.60828(6)
C5 C -0.7568(3) -0.32848(12) -0.80174(6)
C6 C -0.4134(2) -0.43653(12) -0.56764(6)
C7 C -0.4465(2) -0.22647(11) -0.67509(6)
C8 C -0.4824(3) -0.38777(12) -0.65530(6)
C9 C -0.6812(3) -0.34513(13) -0.84366(7)
C10 C -0.4038(3) -0.53192(13) -0.58810(7)
C11 C -0.2612(3) -0.42490(13) -0.53144(6)
C12 C -0.2787(2) -0.22891(12) -0.64320(7)
C13 C -0.6050(3) -0.20207(14) -0.64452(7)
C14 C -0.2422(3) -0.49610(16) -0.49107(7)
C15 C -0.4023(3) -0.15340(13) -0.71193(7)
C16 C -0.2554(4) -0.12878(14) -0.63261(8)
C17 C -0.2499(3) -0.58857(16) -0.51377(8)
C18 C -0.4986(3) -0.32027(16) -0.84035(7)
C19 C -0.2561(4) -0.32945(16) -0.51315(7)
C20 C -0.2156(3) -0.26713(14) -0.55462(7)
C21 C -0.5451(3) -0.11738(13) -0.74589(8)
C22 C -0.9371(3) -0.34566(17) -0.78682(8)
O4 O -0.3835(3) -0.32736(17) -0.86909(7)
C23 C -0.1134(3) -0.26006(18) -0.66946(9)
C24 C -0.0158(4) -0.67846(17) -0.54254(9)
C25 C -0.6832(3) -0.18635(13) -0.76020(8)
C26 C 0.0798(3) -0.63905(19) -0.62476(10)
C27 C -0.4011(3) -0.60142(16) -0.54756(9)
C28 C -0.5962(3) -0.42044(19) -0.54638(8)
C29 C -0.7565(4) -0.38222(17) -0.88910(8)
O5 O -0.0638(4) -0.74189(15) -0.52073(10)
O6 O 0.1680(3) -0.5701(2) -0.63839(10)
C30 C 0.1358(4) -0.6769(2) -0.57739(10)
C31 C -0.3095(4) -0.08267(16) -0.68026(9)
C32 C -0.0659(4) -0.4846(2) -0.46581(9)
C33 C -0.6411(5) -0.03361(16) -0.72926(11)
O7 O -0.0403(4) -0.6684(2) -0.64660(9)
C34 C -0.3785(4) -0.4902(2) -0.45130(9)
C35 C 0.1138(6) -0.5310(4) -0.68300(16)
H1 H -0.3551 -0.3318 -0.7132
H2 H -0.6245 -0.3944 -0.6471
H3 H -0.4429 -0.4482 -0.6697
H4 H -0.5129 -0.5373 -0.6096
H5 H -0.2977 -0.5354 -0.6077
H6 H -0.1592 -0.4349 -0.5532
H7 H -0.7165 -0.2146 -0.6606
H8 H -0.6026 -0.2286 -0.6152
H9 H -0.6051 -0.1352 -0.6355
H10 H -0.3057 -0.1790 -0.7311
H11 H -0.1342 -0.1126 -0.6217
H12 H -0.3222 -0.1098 -0.6006
H13 H -0.2565 -0.6281 -0.4897
H14 H -0.3800 -0.3239 -0.4947
H15 H -0.1834 -0.3188 -0.4847
H16 H -0.0736 -0.2699 -0.5629
H17 H -0.2255 -0.2017 -0.5472
H18 H -0.4592 -0.0950 -0.7771
H19 H -0.9987 -0.3959 -0.8045
H20 H -0.9454 -0.3971 -0.7551
H21 H -1.0016 -0.2886 -0.7822
H22 H -0.0779 -0.2310 -0.7010
H23 H -0.1250 -0.3272 -0.6824
H24 H -0.0139 -0.2585 -0.6429
H25 H -0.7438 -0.1559 -0.7931
H26 H -0.7804 -0.1905 -0.7289
H27 H -0.5127 -0.5932 -0.5275
H28 H -0.3916 -0.6566 -0.5623
H29 H -0.6887 -0.4207 -0.5717
H30 H -0.5972 -0.3609 -0.5290
H31 H -0.6281 -0.4569 -0.5229
H32 H -0.7079 -0.4440 -0.8964
H33 H -0.8996 -0.3810 -0.8862
H34 H -0.7230 -0.3447 -0.9166
H35 H 0.2303 -0.6405 -0.5636
H36 H 0.1803 -0.7409 -0.5802
H37 H -0.2214 -0.0441 -0.6968
H38 H -0.3925 -0.0228 -0.6727
H39 H 0.0268 -0.4882 -0.4914
H40 H -0.0485 -0.5382 -0.4490
H41 H -0.0540 -0.4185 -0.4433
H42 H -0.6978 -0.0395 -0.6960
H43 H -0.5592 0.0279 -0.7288
H44 H -0.7541 -0.0199 -0.7471
H45 H -0.3643 -0.5253 -0.4268
H46 H -0.4919 -0.5102 -0.4602
H47 H -0.3934 -0.4375 -0.4270
H48 H 0.1842 -0.4807 -0.6910
H49 H 0.1269 -0.5756 -0.7074
H50 H -0.0055 -0.5132 -0.6812
loop_
_geom_bond_atom_site_label_1
_geom_bond_atom_site_label_2
_geom_bond_site_symmetry_1
_geom_bond_site_symmetry_2
O1 C2 1_555 1_555
O2 C2 1_555 1_555
O3 C17 1_555 1_555
C1 C4 1_555 1_555
C2 C5 1_555 1_555
C3 O1 1_555 1_555
C4 C6 1_555 1_555
C5 C9 1_555 1_555
C6 C10 1_555 1_555
C7 C3 1_555 1_555
C8 C3 1_555 1_555
C9 C18 1_555 1_555
C10 C27 1_555 1_555
C11 C6 1_555 1_555
C12 C1 1_555 1_555
C13 C7 1_555 1_555
C14 C11 1_555 1_555
C15 C7 1_555 1_555
C16 C12 1_555 1_555
C17 C14 1_555 1_555
C18 O2 1_555 1_555
C19 C11 1_555 1_555
C20 C1 1_555 1_555
C21 C15 1_555 1_555
C22 C5 1_555 1_555
O4 C18 1_555 1_555
C23 C12 1_555 1_555
C24 O3 1_555 1_555
C25 C2 1_555 1_555
C26 O6 1_555 1_555
C27 C17 1_555 1_555
C28 C6 1_555 1_555
C29 C9 1_555 1_555
O5 C24 1_555 1_555
O6 C35 1_555 1_555
C30 C24 1_555 1_555
C31 C15 1_555 1_555
C32 C14 1_555 1_555
C33 C21 1_555 1_555
O7 C26 1_555 1_555
C34 C14 1_555 1_555
C35 H48 1_555 1_555
H1 C3 1_555 1_555
H2 C8 1_555 1_555
H3 C8 1_555 1_555
H4 C10 1_555 1_555
H5 C10 1_555 1_555
H6 C11 1_555 1_555
H7 C13 1_555 1_555
H8 C13 1_555 1_555
H9 C13 1_555 1_555
H10 C15 1_555 1_555
H11 C16 1_555 1_555
H12 C16 1_555 1_555
H13 C17 1_555 1_555
H14 C19 1_555 1_555
H15 C19 1_555 1_555
H16 C20 1_555 1_555
H17 C20 1_555 1_555
H18 C21 1_555 1_555
H19 C22 1_555 1_555
H20 C22 1_555 1_555
H21 C22 1_555 1_555
H22 C23 1_555 1_555
H23 C23 1_555 1_555
H24 C23 1_555 1_555
H25 C25 1_555 1_555
H26 C25 1_555 1_555
H27 C27 1_555 1_555
H28 C27 1_555 1_555
H29 C28 1_555 1_555
H30 C28 1_555 1_555
H31 C28 1_555 1_555
H32 C29 1_555 1_555
H33 C29 1_555 1_555
H34 C29 1_555 1_555
H35 C30 1_555 1_555
H36 C30 1_555 1_555
H37 C31 1_555 1_555
H38 C31 1_555 1_555
H39 C32 1_555 1_555
H40 C32 1_555 1_555
H41 C32 1_555 1_555
H42 C33 1_555 1_555
H43 C33 1_555 1_555
H44 C33 1_555 1_555
H45 C34 1_555 1_555
H46 C34 1_555 1_555
H47 C34 1_555 1_555
H49 C35 1_555 1_555
H50 C35 1_555 1_555
C4 C8 1_555 1_555
C7 C12 1_555 1_555
C16 C31 1_555 1_555
C19 C20 1_555 1_555
C21 C25 1_555 1_555
C26 C30 1_555 1_555

#END
