
#######################################################################
#
#                 Cambridge Crystallographic Data Centre
#                                CCDC 
#
#######################################################################
#
# If this CIF has been generated from an entry in the Cambridge 
# Structural Database, then it will include bibliographic, chemical, 
# crystal, experimental, refinement or atomic coordinate data resulting 
# from the CCDC's data processing and validation procedures.
#
#######################################################################

data_HATTEC
_chemical_compound_source        'Fomitopsis spraguei (Polyporaceae)'
_chemical_name_common            
'3R,12R-bis(4-Bromobenzoyloxy)-24R-methyl-23-oxo-25S-lanost-8-en-26-oic acid methyl ester ethyl acetate solvate'
_chemical_formula_moiety         'C46 H58 Br2 O7,C4 H8 O2'
_chemical_name_systematic        
'Quercinic acid bis(4-bromobenzoate) ethyl acetate solvate'
_symmetry_cell_setting           hexagonal
_symmetry_space_group_name_H-M   'P 61'
_symmetry_Int_Tables_number      169
_space_group_name_Hall           'P 61'
loop_
_symmetry_equiv_pos_site_id
_symmetry_equiv_pos_as_xyz
1 x,y,z
2 x-y,x,1/6+z
3 -y,x-y,1/3+z
4 -x,-y,1/2+z
5 -x+y,-x,2/3+z
6 y,-x+y,5/6+z
_cell_length_a                   21.6190(12)
_cell_length_b                   21.6190(12)
_cell_length_c                   17.6060(7)
_cell_angle_alpha                90
_cell_angle_beta                 90
_cell_angle_gamma                120
_cell_volume                     7126.27
_exptl_crystal_colour            colorless
_exptl_crystal_description       Needle
_chemical_melting_point          '172-180 deg.C'
_cell_formula_units_Z            6
loop_
_atom_site_label
_atom_site_type_symbol
_atom_site_fract_x
_atom_site_fract_y
_atom_site_fract_z
C47 C 0.915(8) 1.031(8) 0.020(11)
O8 O 0.981(5) 1.047(6) -0.080(10)
C49 C 0.995(7) 1.029(7) -0.005(10)
Br1 Br 0.47468(8) -0.00867(10) -0.62946(8)
Br2 Br 0.7389(2) -0.04990(16) 0.24797(17)
O1 O 0.7223(4) 0.1090(4) -0.3463(4)
O2 O 0.6366(4) 0.0161(4) -0.2822(5)
C1 C 0.6019(7) 0.0575(7) -0.5412(6)
C2 C 0.5325(6) 0.0078(6) -0.5391(7)
O3 O 0.7956(5) 0.1152(5) -0.5728(6)
C3 C 0.8428(6) 0.2479(6) -0.3494(6)
C4 C 0.8163(7) 0.3016(6) -0.0579(6)
C5 C 0.6572(6) 0.0514(5) -0.3391(7)
C6 C 0.6440(6) 0.0724(6) -0.4765(6)
O4 O 0.7270(4) 0.2202(4) 0.0705(4)
C7 C 0.7400(6) 0.1650(7) -0.2217(6)
C8 C 0.8901(6) 0.2145(6) -0.2314(6)
C9 C 0.7690(5) 0.1334(6) -0.2793(6)
C10 C 0.9201(6) 0.3165(6) -0.1368(7)
C11 C 0.6148(5) 0.0359(5) -0.4095(6)
C12 C 0.7618(6) 0.2623(6) -0.1250(7)
C13 C 0.8497(7) 0.1697(7) -0.5668(7)
C14 C 0.8905(7) 0.3554(7) -0.0892(7)
C15 C 0.8442(5) 0.1862(6) -0.3067(6)
C16 C 0.7157(7) 0.2739(6) 0.0323(8)
C17 C 0.9670(6) 0.2585(8) -0.2663(8)
C18 C 0.8842(6) 0.1571(7) -0.3486(7)
C19 C 0.8908(8) 0.1920(7) -0.4928(7)
C20 C 0.7622(9) 0.0615(8) 0.1500(8)
C21 C 0.8896(6) 0.1565(6) -0.1801(7)
C22 C 0.7934(6) 0.2280(5) -0.1750(5)
C23 C 0.6786(10) 0.1785(8) 0.1230(8)
C24 C 0.5008(6) -0.0303(6) -0.4735(7)
C25 C 0.6950(7) 0.1229(7) 0.1525(7)
C26 C 0.7474(8) 0.1138(7) 0.1230(7)
C27 C 0.5430(6) -0.0172(6) -0.4079(7)
C28 C 0.8452(9) 0.3556(9) 0.0727(8)
C29 C 0.7500(8) 0.3144(7) -0.1778(8)
C30 C 0.8657(7) 0.1313(7) -0.4323(7)
C31 C 0.6653(11) 0.0327(11) 0.2385(9)
C32 C 0.8657(6) 0.2541(5) -0.1836(6)
C33 C 0.6911(7) 0.2092(6) -0.0902(7)
O5 O 0.6290(8) 0.1842(8) 0.1434(8)
C34 C 0.7204(13) 0.0224(8) 0.2127(10)
C35 C 0.7889(9) 0.3312(7) 0.0068(7)
C36 C 0.6633(8) 0.2394(7) -0.0288(7)
C37 C 0.8800(7) 0.2239(8) -0.6329(8)
C38 C 0.6565(9) 0.0809(9) 0.2128(9)
C39 C 0.8972(9) 0.0833(9) -0.4526(12)
O6 O 0.7941(9) 0.2630(8) -0.5683(8)
C40 C 0.8230(7) 0.2236(7) -0.6803(7)
C41 C 0.9652(7) 0.2124(9) -0.3344(8)
C42 C 0.8524(11) 0.2767(10) -0.7406(9)
C43 C 0.7645(15) 0.2308(10) -0.6369(12)
C44 C 0.7499(19) 0.2809(15) -0.5168(18)
C45 C 0.9264(10) 0.2014(14) -0.6781(10)
C46 C 0.7825(13) 0.3991(8) -0.0190(10)
O7 O 0.7080(10) 0.2143(12) -0.659(2)
H1 H 0.6234 0.0827 -0.5874
H2 H 0.8149 0.2305 -0.3950
H3 H 0.8907 0.2839 -0.3622
H4 H 0.8219 0.2681 -0.3167
H5 H 0.8207 0.2647 -0.0325
H6 H 0.6932 0.1094 -0.4787
H7 H 0.6893 0.1450 -0.2167
H8 H 0.7707 0.0939 -0.2566
H9 H 0.9560 0.3490 -0.1713
H10 H 0.9407 0.2973 -0.1025
H11 H 0.8845 0.3876 -0.1219
H12 H 0.9226 0.3819 -0.0487
H13 H 0.6964 0.2950 0.0659
H14 H 0.9752 0.3045 -0.2821
H15 H 1.0016 0.2645 -0.2286
H16 H 0.8742 0.1169 -0.3171
H17 H 0.9402 0.2085 -0.5030
H18 H 0.8862 0.2301 -0.4706
H19 H 0.7563 0.0286 0.1102
H21 H 0.9185 0.1778 -0.1358
H22 H 0.9083 0.1313 -0.2081
H23 H 0.8414 0.1237 -0.1648
H24 H 0.4507 -0.0646 -0.4726
H25 H 0.7738 0.1438 0.0811
H26 H 0.5224 -0.0447 -0.3627
H27 H 0.8307 0.3747 0.1138
H28 H 0.8912 0.3914 0.0545
H29 H 0.8480 0.3150 0.0903
H30 H 0.7164 0.2875 -0.2172
H31 H 0.7947 0.3485 -0.2003
H32 H 0.7318 0.3390 -0.1481
H33 H 0.8145 0.1031 -0.4339
H34 H 0.6333 0.0006 0.2763
H35 H 0.6556 0.1900 -0.1295
H36 H 0.6954 0.1713 -0.0672
H37 H 0.6204 0.2004 -0.0082
H38 H 0.6524 0.2730 -0.0522
H39 H 0.9093 0.2709 -0.6123
H40 H 0.6205 0.0881 0.2362
H41 H 0.8852 0.0686 -0.5045
H42 H 0.8779 0.0419 -0.4205
H43 H 0.9482 0.1099 -0.4472
H44 H 0.7993 0.1776 -0.7043
H45 H 0.9866 0.2428 -0.3776
H46 H 0.9920 0.1895 -0.3214
H47 H 0.8144 0.2747 -0.7707
H48 H 0.8841 0.2694 -0.7726
H49 H 0.8782 0.3226 -0.7166
H50 H 0.7759 0.3013 -0.4707
H51 H 0.7053 0.2389 -0.5052
H52 H 0.7410 0.3151 -0.5419
H53 H 0.9483 0.2336 -0.7199
H54 H 0.8970 0.1538 -0.6970
H55 H 0.9628 0.2029 -0.6456
H56 H 0.7655 0.4151 0.0227
H57 H 0.7501 0.3866 -0.0611
H58 H 0.8290 0.4365 -0.0340
C48? C 0.821(13) 1.017(10) 0.104(14)
O9? O 0.834(7) 1.017(7) -0.082(9)
H20? H 0.8107 0.0851 0.1676
loop_
_geom_bond_atom_site_label_1
_geom_bond_atom_site_label_2
_geom_bond_site_symmetry_1
_geom_bond_site_symmetry_2
Br1 C2 1_555 1_555
Br2 C34 1_555 1_555
O1 C5 1_555 1_555
O2 C5 1_555 1_555
C1 C2 1_555 1_555
C2 C24 1_555 1_555
O3 C13 1_555 1_555
C3 C15 1_555 1_555
C4 C12 1_555 1_555
C5 C11 1_555 1_555
C6 C1 1_555 1_555
O4 C16 1_555 1_555
C7 C9 1_555 1_555
C8 C15 1_555 1_555
C9 O1 1_555 1_555
C10 C14 1_555 1_555
C11 C6 1_555 1_555
C12 C22 1_555 1_555
C13 C19 1_555 1_555
C14 C4 1_555 1_555
C15 C9 1_555 1_555
C16 C35 1_555 1_555
C17 C8 1_555 1_555
C18 C15 1_555 1_555
C19 C30 1_555 1_555
C20 C26 1_555 1_555
C21 C8 1_555 1_555
C22 C7 1_555 1_555
C23 O4 1_555 1_555
C24 C27 1_555 1_555
C25 C23 1_555 1_555
C26 C25 1_555 1_555
C27 C11 1_555 1_555
C28 C35 1_555 1_555
C29 C12 1_555 1_555
C30 C18 1_555 1_555
C31 C34 1_555 1_555
C32 C8 1_555 1_555
C33 C12 1_555 1_555
O5 C23 1_555 1_555
C34 C20 1_555 1_555
C35 C4 1_555 1_555
C36 C16 1_555 1_555
C37 C13 1_555 1_555
C38 C25 1_555 1_555
C39 C30 1_555 1_555
O6 C43 1_555 1_555
C40 C37 1_555 1_555
C41 C17 1_555 1_555
C42 C40 1_555 1_555
C43 C40 1_555 1_555
C44 O6 1_555 1_555
C45 C37 1_555 1_555
C46 C35 1_555 1_555
O7 C43 1_555 1_555
C47 C49 1_555 1_555
O8 C49 1_555 1_555
H1 C1 1_555 1_555
H2 C3 1_555 1_555
H3 C3 1_555 1_555
H4 C3 1_555 1_555
H5 C4 1_555 1_555
H6 C6 1_555 1_555
H7 C7 1_555 1_555
H8 C9 1_555 1_555
H9 C10 1_555 1_555
H10 C10 1_555 1_555
H11 C14 1_555 1_555
H12 C14 1_555 1_555
H13 C16 1_555 1_555
H14 C17 1_555 1_555
H15 C17 1_555 1_555
H16 C18 1_555 1_555
H17 C19 1_555 1_555
H18 C19 1_555 1_555
H19 C20 1_555 1_555
H21 C21 1_555 1_555
H22 C21 1_555 1_555
H23 C21 1_555 1_555
H24 C24 1_555 1_555
H25 C26 1_555 1_555
H26 C27 1_555 1_555
H27 C28 1_555 1_555
H28 C28 1_555 1_555
H29 C28 1_555 1_555
H30 C29 1_555 1_555
H31 C29 1_555 1_555
H32 C29 1_555 1_555
H33 C30 1_555 1_555
H34 C31 1_555 1_555
H35 C33 1_555 1_555
H36 C33 1_555 1_555
H37 C36 1_555 1_555
H38 C36 1_555 1_555
H39 C37 1_555 1_555
H40 C38 1_555 1_555
H41 C39 1_555 1_555
H42 C39 1_555 1_555
H43 C39 1_555 1_555
H44 C40 1_555 1_555
H45 C41 1_555 1_555
H46 C41 1_555 1_555
H47 C42 1_555 1_555
H48 C42 1_555 1_555
H49 C42 1_555 1_555
H50 C44 1_555 1_555
H51 C44 1_555 1_555
H52 C44 1_555 1_555
H53 C45 1_555 1_555
H54 C45 1_555 1_555
H55 C45 1_555 1_555
H56 C46 1_555 1_555
H57 C46 1_555 1_555
H58 C46 1_555 1_555
C10 C32 1_555 1_555
C18 C41 1_555 1_555
C22 C32 1_555 1_555
C31 C38 1_555 1_555
C33 C36 1_555 1_555

#END
