
#######################################################################
#
#                 Cambridge Crystallographic Data Centre
#                                CCDC 
#
#######################################################################
#
# If this CIF has been generated from an entry in the Cambridge 
# Structural Database, then it will include bibliographic, chemical, 
# crystal, experimental, refinement or atomic coordinate data resulting 
# from the CCDC's data processing and validation procedures.
#
#######################################################################

data_HATWUX
_chemical_compound_source        'Vaccinium bracteatum'
_chemical_formula_moiety         'C18 H16 O6'
_chemical_name_systematic        
'2,4-bis(4-hydroxyphenyl)cyclobutane-1,3-dicarboxylic acid'
_symmetry_cell_setting           orthorhombic
_symmetry_space_group_name_H-M   'P b c a'
_symmetry_Int_Tables_number      61
_space_group_name_Hall           '-P 2ac 2ab'
loop_
_symmetry_equiv_pos_site_id
_symmetry_equiv_pos_as_xyz
1 x,y,z
2 1/2-x,-y,1/2+z
3 1/2+x,1/2-y,-z
4 -x,1/2+y,1/2-z
5 -x,-y,-z
6 1/2+x,y,1/2-z
7 1/2-x,1/2+y,z
8 x,1/2-y,1/2+z
_cell_length_a                   8.537(2)
_cell_length_b                   9.673(2)
_cell_length_c                   17.439(3)
_cell_angle_alpha                90
_cell_angle_beta                 90
_cell_angle_gamma                90
_cell_volume                     1440.08
_exptl_crystal_colour            colorless
_exptl_crystal_description       block
_chemical_melting_point          '433 K'
_cell_formula_units_Z            4
_exptl_crystal_recrystallization_method methanol/water
loop_
_atom_site_label
_atom_site_type_symbol
_atom_site_fract_x
_atom_site_fract_y
_atom_site_fract_z
O1 O 0.52225(12) 0.15699(10) 0.54228(6)
H1 H 0.4706(16) 0.0918(15) 0.5751(11)
C1 C 0.44677(15) 0.27592(13) 0.54431(7)
O2 O 0.32868(11) 0.29110(10) 0.58254(5)
C2 C 0.52131(15) 0.38667(13) 0.49659(7)
H2 H 0.5953 0.3479 0.4594
O3 O 0.38303(13) 0.52703(10) 0.13302(5)
H3 H 0.315(2) 0.578(2) 0.1196(4)
C3 C 0.40456(15) 0.48797(13) 0.45785(7)
H4 H 0.2989 0.4701 0.4774
C4 C 0.39932(15) 0.49480(13) 0.37146(7)
C5 C 0.30615(16) 0.59475(15) 0.33659(8)
H5 H 0.2482 0.6547 0.3671
C6 C 0.29760(16) 0.60716(14) 0.25756(8)
H6 H 0.2353 0.6751 0.2354
C7 C 0.38287(15) 0.51724(13) 0.21181(7)
C8 C 0.47372(18) 0.41594(14) 0.24490(8)
H7 H 0.5296 0.3548 0.2142
C9 C 0.48184(17) 0.40512(14) 0.32436(8)
H8 H 0.5437 0.3365 0.3463
O1D O 0.47775(12) 0.84301(10) 0.45772(6)
H1D H 0.5294(16) 0.9082(15) 0.4249(11)
C1D C 0.55323(15) 0.72408(13) 0.45569(7)
O2D O 0.67132(11) 0.70890(10) 0.41746(5)
C2D C 0.47869(15) 0.61333(13) 0.50341(7)
H2D H 0.4047 0.6521 0.5406
O3D O 0.61697(13) 0.47297(10) 0.86698(5)
H3D H 0.685(2) 0.422(2) 0.8804(4)
C3D C 0.59544(15) 0.51203(13) 0.54215(7)
H4D H 0.7011 0.5299 0.5226
C4D C 0.60068(15) 0.50520(13) 0.62854(7)
C5D C 0.69385(16) 0.40525(15) 0.66341(8)
H5D H 0.7518 0.3453 0.6329
C6D C 0.70240(16) 0.39284(14) 0.74244(8)
H6D H 0.7647 0.3249 0.7646
C7D C 0.61713(15) 0.48276(13) 0.78819(7)
C8D C 0.52628(18) 0.58406(14) 0.75510(8)
H7D H 0.4704 0.6452 0.7858
C9D C 0.51816(17) 0.59488(14) 0.67564(8)
H8D H 0.4563 0.6635 0.6537
loop_
_geom_bond_atom_site_label_1
_geom_bond_atom_site_label_2
_geom_bond_site_symmetry_1
_geom_bond_site_symmetry_2
O1 H1 1_555 1_555
C1 O1 1_555 1_555
O2 C1 1_555 1_555
C2 C1 1_555 1_555
H2 C2 1_555 1_555
O3 H3 1_555 1_555
C3 C2 1_555 1_555
H4 C3 1_555 1_555
C4 C3 1_555 1_555
C5 C4 1_555 1_555
H5 C5 1_555 1_555
C6 C5 1_555 1_555
H6 C6 1_555 1_555
C7 O3 1_555 1_555
C8 C7 1_555 1_555
H7 C8 1_555 1_555
C9 C4 1_555 1_555
H8 C9 1_555 1_555
O1D H1D 1_555 1_555
C1D O1D 1_555 1_555
O2D C1D 1_555 1_555
C2D C3 1_555 1_555
H2D C2D 1_555 1_555
O3D H3D 1_555 1_555
C3D C2 1_555 1_555
H4D C3D 1_555 1_555
C4D C3D 1_555 1_555
C5D C4D 1_555 1_555
H5D C5D 1_555 1_555
C6D C5D 1_555 1_555
H6D C6D 1_555 1_555
C7D O3D 1_555 1_555
C8D C7D 1_555 1_555
H7D C8D 1_555 1_555
C9D C4D 1_555 1_555
H8D C9D 1_555 1_555
C6 C7 1_555 1_555
C8 C9 1_555 1_555
C1D C2D 1_555 1_555
C2D C3D 1_555 1_555
C6D C7D 1_555 1_555
C8D C9D 1_555 1_555

#END
