
#######################################################################
#
#                 Cambridge Crystallographic Data Centre
#                                CCDC 
#
#######################################################################
#
# If this CIF has been generated from an entry in the Cambridge 
# Structural Database, then it will include bibliographic, chemical, 
# crystal, experimental, refinement or atomic coordinate data resulting 
# from the CCDC's data processing and validation procedures.
#
#######################################################################

data_HAVBIQ11
_chemical_name_common            2-(2-Hydroxyphenyl)benzimidazole
_chemical_formula_moiety         'C13 H10 N2 O1'
_chemical_name_systematic        2-(1H-benzimidazol-2-yl)phenol
_symmetry_cell_setting           monoclinic
_symmetry_space_group_name_H-M   'P 21'
_symmetry_Int_Tables_number      4
_space_group_name_Hall           'P 2yb'
loop_
_symmetry_equiv_pos_site_id
_symmetry_equiv_pos_as_xyz
1 x,y,z
2 -x,1/2+y,-z
_cell_length_a                   3.7669(4)
_cell_length_b                   22.031(2)
_cell_length_c                   5.8049(6)
_cell_angle_alpha                90
_cell_angle_beta                 94.543(3)
_cell_angle_gamma                90
_cell_volume                     480.227
_exptl_crystal_colour            'pale yellow'
_cell_formula_units_Z            2
loop_
_atom_site_label
_atom_site_type_symbol
_atom_site_fract_x
_atom_site_fract_y
_atom_site_fract_z
O1 O 0.2917(5) 0.06493(8) 0.3738(3)
N1 N 0.5969(6) 0.14291(10) 0.6540(4)
N2 N 0.8298(6) 0.11580(10) 1.0047(4)
C1 C 0.3062(7) -0.08272(12) 0.6551(5)
H1 H 0.2326 -0.1232 0.6202
C2 C 0.4705(7) -0.06914(12) 0.8723(5)
H2 H 0.5062 -0.1000 0.9863
C3 C 0.5806(7) -0.01054(12) 0.9202(5)
H3 H 0.6932 -0.0013 1.0683
C4 C 0.5306(7) 0.03570(12) 0.7560(5)
C5 C 0.6511(7) 0.09759(12) 0.8038(5)
C6 C 0.7515(7) 0.19359(12) 0.7640(5)
C7 C 0.7724(7) 0.25368(12) 0.6903(5)
H4 H 0.6732 0.2659 0.5419
C8 C 0.9427(7) 0.29476(13) 0.8408(5)
H5 H 0.9631 0.3358 0.7936
C9 C 1.0864(7) 0.27763(12) 1.0617(5)
H6 H 1.1979 0.3075 1.1610
C10 C 1.0696(7) 0.21808(12) 1.1382(5)
H7 H 1.1690 0.2060 1.2867
C11 C 0.8978(7) 0.17707(12) 0.9838(5)
C12 C 0.2489(8) -0.03778(11) 0.4892(5)
H8 H 0.1371 -0.0475 0.3414
C13 C 0.3552(7) 0.02155(11) 0.5393(5)
H9 H 0.9016 0.0926 1.1283
H10 H 0.3724 0.1017 0.4369
loop_
_geom_bond_atom_site_label_1
_geom_bond_atom_site_label_2
_geom_bond_site_symmetry_1
_geom_bond_site_symmetry_2
O1 C13 1_555 1_555
N1 C5 1_555 1_555
N2 C5 1_555 1_555
C1 H1 1_555 1_555
C2 C1 1_555 1_555
H2 C2 1_555 1_555
C3 C2 1_555 1_555
H3 C3 1_555 1_555
C4 C3 1_555 1_555
C5 C4 1_555 1_555
C6 N1 1_555 1_555
C7 C6 1_555 1_555
H4 C7 1_555 1_555
C8 C7 1_555 1_555
H5 C8 1_555 1_555
C9 C8 1_555 1_555
H6 C9 1_555 1_555
C10 C9 1_555 1_555
H7 C10 1_555 1_555
C11 N2 1_555 1_555
C12 C1 1_555 1_555
H8 C12 1_555 1_555
C13 C4 1_555 1_555
H9 N2 1_555 1_555
H10 O1 1_555 1_555
C6 C11 1_555 1_555
C10 C11 1_555 1_555
C12 C13 1_555 1_555

#END
