
#######################################################################
#
#                 Cambridge Crystallographic Data Centre
#                                CCDC 
#
#######################################################################
#
# If this CIF has been generated from an entry in the Cambridge 
# Structural Database, then it will include bibliographic, chemical, 
# crystal, experimental, refinement or atomic coordinate data resulting 
# from the CCDC's data processing and validation procedures.
#
#######################################################################

data_HAVBAI03
_chemical_formula_moiety         'C2 H5 N4 1+,C6 H2 N3 O7 1-'
_chemical_name_systematic        '4-Amino-1,2,4-triazolium picrate'
_symmetry_cell_setting           orthorhombic
_symmetry_space_group_name_H-M   'P b c n'
_symmetry_Int_Tables_number      60
_space_group_name_Hall           '-P 2n 2ab'
loop_
_symmetry_equiv_pos_site_id
_symmetry_equiv_pos_as_xyz
1 x,y,z
2 1/2-x,1/2-y,1/2+z
3 1/2+x,1/2-y,-z
4 -x,y,1/2-z
5 -x,-y,-z
6 1/2+x,1/2+y,1/2-z
7 1/2-x,1/2+y,z
8 x,-y,1/2+z
_cell_length_a                   9.177(4)
_cell_length_b                   13.279(6)
_cell_length_c                   19.855(6)
_cell_angle_alpha                90
_cell_angle_beta                 90
_cell_angle_gamma                90
_cell_volume                     2419.56
_cell_formula_units_Z            8
loop_
_atom_site_label
_atom_site_type_symbol
_atom_site_fract_x
_atom_site_fract_y
_atom_site_fract_z
O1 O 0.1547(2) 0.1229(2) 0.3829(1)
O2 O 0.5900(3) 0.0914(2) 0.3823(1)
O3 O 0.4136(3) 0.1541(2) 0.3267(1)
O4 O -0.0774(3) 0.1319(3) 0.4627(1)
O5 O -0.0512(4) 0.1225(4) 0.5635(2)
O6 O 0.4063(4) 0.1398(2) 0.6751(1)
O7 O 0.6031(3) 0.1205(2) 0.6169(1)
N1 N 0.4656(3) 0.1245(2) 0.3786(1)
N2 N -0.0005(3) 0.1266(2) 0.5104(1)
N3 N 0.4698(4) 0.1292(2) 0.6216(2)
C1 C 0.4590(3) 0.1255(2) 0.4992(2)
C2 C 0.3809(3) 0.1263(2) 0.4404(2)
C3 C 0.2215(3) 0.1259(2) 0.4371(2)
C4 C 0.1580(3) 0.1275(2) 0.5031(2)
C5 C 0.2346(4) 0.1296(2) 0.5623(2)
C6 C 0.3858(4) 0.1287(2) 0.5597(2)
H1 H 0.5603 0.1228 0.4983
H2 H 0.1862 0.1317 0.6034
N4 N 0.2627(2) 0.1272(2) 0.2464(1)
N5 N 0.0970(3) 0.1057(2) 0.3188(1)
N6 N 0.1214(3) 0.0136(2) 0.2913(2)
N7 N 0.3660(3) 0.1751(2) 0.2046(1)
C7 C 0.1813(3) 0.1739(2) 0.2914(2)
C8 C 0.2230(3) 0.0289(2) 0.2464(2)
H3 H 0.1835 0.2422 0.3017
H4 H 0.2624 -0.0204 0.2185
H5? H 0.3338 0.1755 0.1624
H6? H 0.3793 0.2381 0.2186
H7? H 0.4501 0.1419 0.2066
loop_
_geom_bond_atom_site_label_1
_geom_bond_atom_site_label_2
_geom_bond_site_symmetry_1
_geom_bond_site_symmetry_2
O1 C3 1_555 1_555
O2 N1 1_555 1_555
O3 N1 1_555 1_555
O4 N2 1_555 1_555
O5 N2 1_555 1_555
O6 N3 1_555 1_555
O7 N3 1_555 1_555
N1 C2 1_555 1_555
N2 C4 1_555 1_555
N3 C6 1_555 1_555
C1 C2 1_555 1_555
C2 C3 1_555 1_555
C3 C4 1_555 1_555
C4 C5 1_555 1_555
C5 C6 1_555 1_555
C6 C1 1_555 1_555
H1 C1 1_555 1_555
H2 C5 1_555 1_555
N4 N7 1_555 1_555
N5 N6 1_555 1_555
N6 C8 1_555 1_555
C7 N4 1_555 1_555
C8 N4 1_555 1_555
H3 C7 1_555 1_555
H4 C8 1_555 1_555
N5 C7 1_555 1_555

#END
