
#######################################################################
#
#                 Cambridge Crystallographic Data Centre
#                                CCDC 
#
#######################################################################
#
# If this CIF has been generated from an entry in the Cambridge 
# Structural Database, then it will include bibliographic, chemical, 
# crystal, experimental, refinement or atomic coordinate data resulting 
# from the CCDC's data processing and validation procedures.
#
#######################################################################

data_HAVBAI01
_chemical_formula_moiety         'C6 H2 N3 O7 1-,C2 H5 N4 1+'
_chemical_name_systematic        
'4-Amino-4H-1,2,4-triazol-1-ium 2,4,6-trinitrophenolate'
_symmetry_cell_setting           orthorhombic
_symmetry_space_group_name_H-M   'P b c n'
_symmetry_Int_Tables_number      60
_space_group_name_Hall           '-P 2n 2ab'
loop_
_symmetry_equiv_pos_site_id
_symmetry_equiv_pos_as_xyz
1 x,y,z
2 1/2-x,1/2-y,1/2+z
3 -x,y,1/2-z
4 1/2+x,1/2-y,-z
5 -x,-y,-z
6 1/2+x,1/2+y,1/2-z
7 x,-y,1/2+z
8 1/2-x,1/2+y,z
_cell_length_a                   9.207(3)
_cell_length_b                   19.874(6)
_cell_length_c                   13.304(4)
_cell_angle_alpha                90
_cell_angle_beta                 90
_cell_angle_gamma                90
_cell_volume                     2434.36
_cell_formula_units_Z            8
loop_
_atom_site_label
_atom_site_type_symbol
_atom_site_fract_x
_atom_site_fract_y
_atom_site_fract_z
N1 N 0.3787(3) 0.29108(12) 0.48662(18)
N2 N 0.4024(3) 0.31846(11) 0.39443(17)
H1 H 0.4650 0.3496 0.3825
N3 N 0.2370(2) 0.24614(9) 0.37253(16)
N4 N 0.1340(3) 0.20529(11) 0.3250(2)
H2 H 0.1202 0.2087 0.2613
H3 H 0.0847 0.1767 0.3595
C1 C 0.3184(3) 0.29157(12) 0.3261(2)
H4 H 0.3161 0.3023 0.2581
C2 C 0.2761(3) 0.24707(14) 0.4706(2)
H5 H 0.2353 0.2199 0.5200
N5 N 0.4692(3) 0.87826(12) 0.62969(18)
N6 N 0.4657(3) 1.12114(11) 0.62385(15)
N7 N -0.0002(3) 0.98975(11) 0.62648(18)
O1 O 0.6023(3) 0.88316(12) 0.6201(2)
O2 O 0.4058(3) 0.82484(11) 0.6399(2)
O3 O 0.5897(3) 1.11804(11) 0.5908(2)
O4 O 0.4135(2) 1.17345(9) 0.65462(18)
O5 O 0.1543(2) 1.11728(9) 0.62280(16)
O6 O -0.0779(3) 1.03671(13) 0.6321(3)
O7 O -0.0523(4) 0.93631(13) 0.6211(4)
C3 C 0.3857(4) 0.94007(12) 0.62868(19)
C4 C 0.4590(3) 1.00057(12) 0.62566(17)
H6 H 0.5600 1.0014 0.6234
C5 C 0.3811(3) 1.05943(11) 0.62600(17)
C6 C 0.2231(3) 1.06311(12) 0.62602(17)
C7 C 0.1575(3) 0.99663(12) 0.62729(19)
C8 C 0.2351(4) 0.93736(13) 0.62900(19)
H7 H 0.1872 0.8962 0.6303
loop_
_geom_bond_atom_site_label_1
_geom_bond_atom_site_label_2
_geom_bond_site_symmetry_1
_geom_bond_site_symmetry_2
N1 N2 1_555 1_555
N2 H1 1_555 1_555
N3 N4 1_555 1_555
N4 H2 1_555 1_555
H3 N4 1_555 1_555
C1 N2 1_555 1_555
H4 C1 1_555 1_555
C2 N1 1_555 1_555
H5 C2 1_555 1_555
N5 O1 1_555 1_555
N6 O3 1_555 1_555
N7 O6 1_555 1_555
O2 N5 1_555 1_555
O4 N6 1_555 1_555
O5 C6 1_555 1_555
O7 N7 1_555 1_555
C3 N5 1_555 1_555
C4 C3 1_555 1_555
H6 C4 1_555 1_555
C5 N6 1_555 1_555
C6 C5 1_555 1_555
C7 N7 1_555 1_555
C8 C3 1_555 1_555
H7 C8 1_555 1_555
N3 C1 1_555 1_555
N3 C2 1_555 1_555
C4 C5 1_555 1_555
C6 C7 1_555 1_555
C7 C8 1_555 1_555

#END
