
#######################################################################
#
#                 Cambridge Crystallographic Data Centre
#                                CCDC 
#
#######################################################################
#
# If this CIF has been generated from an entry in the Cambridge 
# Structural Database, then it will include bibliographic, chemical, 
# crystal, experimental, refinement or atomic coordinate data resulting 
# from the CCDC's data processing and validation procedures.
#
#######################################################################

data_HAVLOF
_chemical_formula_moiety         'C24 H20 N2 O4'
_chemical_name_systematic        
'1-Benzyl-5,5-diphenyl-2,4-dioxo-3-imidazolidineacetic acid'
_chemical_properties_biological  
'agent giving protective action against pentetrazole induced seizures'
_symmetry_cell_setting           triclinic
_symmetry_space_group_name_H-M   'P -1'
_symmetry_Int_Tables_number      2
_space_group_name_Hall           '-P 1'
loop_
_symmetry_equiv_pos_site_id
_symmetry_equiv_pos_as_xyz
1 x,y,z
2 -x,-y,-z
_cell_length_a                   8.7640(3)
_cell_length_b                   11.112(1)
_cell_length_c                   11.323(2)
_cell_angle_alpha                102.10(2)
_cell_angle_beta                 95.44(5)
_cell_angle_gamma                109.12(1)
_cell_volume                     1002.65
_exptl_crystal_colour            colorless
_cell_formula_units_Z            2
loop_
_atom_site_label
_atom_site_type_symbol
_atom_site_fract_x
_atom_site_fract_y
_atom_site_fract_z
N1 N 0.3840(2) 0.6199(1) 0.1671(1)
N2 N 0.6096(2) 0.7949(2) 0.2006(1)
O1 O 0.5123(2) 0.9634(1) 0.2480(2)
O2 O 0.6291(2) 0.5886(2) 0.1517(2)
O3 O 0.8088(2) 0.9028(2) 0.4280(1)
O4 O 1.0220(2) 0.9992(2) 0.3438(1)
C1 C 0.5462(2) 0.6566(2) 0.1708(2)
C2 C 0.4913(2) 0.8480(2) 0.2182(2)
C3 C 0.3264(2) 0.7316(2) 0.1860(2)
C4 C 0.7801(2) 0.8707(2) 0.2104(2)
C5 C 0.8716(2) 0.9262(2) 0.3402(2)
C6 C 0.2752(2) 0.4813(2) 0.1301(2)
C7 C 0.2384(2) 0.7418(2) 0.0672(2)
C8 C 0.2533(2) 0.6759(2) -0.0468(2)
C9 C 0.1834(3) 0.6956(2) -0.1534(2)
C10 C 0.0988(3) 0.7803(2) -0.1466(2)
C11 C 0.0842(3) 0.8465(2) -0.0341(2)
C12 C 0.1549(2) 0.8292(2) 0.0733(2)
C13 C 0.2303(2) 0.7310(2) 0.2911(2)
C14 C 0.3107(3) 0.7897(2) 0.4117(2)
C15 C 0.2247(3) 0.7782(3) 0.5081(2)
C16 C 0.0586(3) 0.7082(3) 0.4846(2)
C17 C -0.0239(3) 0.6513(2) 0.3648(2)
C18 C 0.0611(2) 0.6627(2) 0.2686(2)
C19 C 0.3166(2) 0.3990(2) 0.2095(2)
C20 C 0.3499(3) 0.2889(2) 0.1542(2)
C21 C 0.3802(3) 0.2065(3) 0.2222(3)
C22 C 0.3774(3) 0.2333(3) 0.3441(3)
C23 C 0.3468(3) 0.3433(3) 0.4021(3)
C24 C 0.3152(3) 0.4267(3) 0.3327(2)
H1 H 1.0674(11) 1.0322(10) 0.4258(10)
H2 H 0.3138(11) 0.6168(10) -0.0513(10)
H3 H 0.1924(11) 0.6481(10) -0.2268(10)
H4 H 0.0493(11) 0.7949(10) -0.2219(10)
H5 H 0.0196(11) 0.9056(10) -0.0316(10)
H6 H 0.1486(11) 0.8785(10) 0.1511(10)
H7 H 0.4270(11) 0.8384(10) 0.4299(10)
H8 H 0.2826(11) 0.8172(10) 0.5914(10)
H9 H -0.0047(11) 0.6994(10) 0.5516(10)
H10 H -0.1408(11) 0.6005(10) 0.3441(10)
H11 H 0.0034(11) 0.6239(10) 0.1857(10)
H12 H 0.3521(11) 0.2703(11) 0.0647(11)
H13 H 0.4100(11) 0.1280(11) 0.1773(10)
H14 H 0.4004(11) 0.1726(11) 0.3884(10)
H15 H 0.3463(11) 0.3672(11) 0.4882(11)
H16 H 0.2925(11) 0.5042(11) 0.3714(11)
H17 H 0.8345(11) 0.8140(10) 0.1692(10)
H18 H 0.7922(10) 0.9445(10) 0.1719(10)
H19 H 0.2795(10) 0.4425(10) 0.0439(10)
H20 H 0.1580(10) 0.4791(10) 0.1300(10)
loop_
_geom_bond_atom_site_label_1
_geom_bond_atom_site_label_2
_geom_bond_site_symmetry_1
_geom_bond_site_symmetry_2
N1 C1 1_555 1_555
N2 C1 1_555 1_555
O1 C2 1_555 1_555
O2 C1 1_555 1_555
O3 C5 1_555 1_555
O4 C5 1_555 1_555
C2 N2 1_555 1_555
C3 N1 1_555 1_555
C4 N2 1_555 1_555
C5 C4 1_555 1_555
C6 N1 1_555 1_555
C7 C3 1_555 1_555
C8 C7 1_555 1_555
C9 C8 1_555 1_555
C10 C9 1_555 1_555
C11 C10 1_555 1_555
C12 C7 1_555 1_555
C13 C3 1_555 1_555
C14 C13 1_555 1_555
C15 C14 1_555 1_555
C16 C15 1_555 1_555
C17 C16 1_555 1_555
C18 C13 1_555 1_555
C19 C6 1_555 1_555
C20 C19 1_555 1_555
C21 C20 1_555 1_555
C22 C21 1_555 1_555
C23 C22 1_555 1_555
C24 C19 1_555 1_555
H1 O4 1_555 1_555
H2 C8 1_555 1_555
H3 C9 1_555 1_555
H4 C10 1_555 1_555
H5 C11 1_555 1_555
H6 C12 1_555 1_555
H7 C14 1_555 1_555
H8 C15 1_555 1_555
H9 C16 1_555 1_555
H10 C17 1_555 1_555
H11 C18 1_555 1_555
H12 C20 1_555 1_555
H13 C21 1_555 1_555
H14 C22 1_555 1_555
H15 C23 1_555 1_555
H16 C24 1_555 1_555
H17 C4 1_555 1_555
H18 C4 1_555 1_555
H19 C6 1_555 1_555
H20 C6 1_555 1_555
C2 C3 1_555 1_555
C11 C12 1_555 1_555
C17 C18 1_555 1_555
C23 C24 1_555 1_555

#END
