
#######################################################################
#
#                 Cambridge Crystallographic Data Centre
#                                CCDC 
#
#######################################################################
#
# If this CIF has been generated from an entry in the Cambridge 
# Structural Database, then it will include bibliographic, chemical, 
# crystal, experimental, refinement or atomic coordinate data resulting 
# from the CCDC's data processing and validation procedures.
#
#######################################################################

data_HAVLUL
_chemical_formula_moiety         'C24 H18 Cl2 N2 O4'
_chemical_name_systematic        
'3-(2,4-Dichlorobenzyl)-5,5-diphenyl-2,4-dioxo-1-imidazolidineacetic acid'
_chemical_properties_biological  'antidepressant activity'
_symmetry_cell_setting           monoclinic
_symmetry_space_group_name_H-M   'P 21/n'
_symmetry_Int_Tables_number      14
_space_group_name_Hall           '-P 2yn'
loop_
_symmetry_equiv_pos_site_id
_symmetry_equiv_pos_as_xyz
1 x,y,z
2 1/2-x,1/2+y,1/2-z
3 -x,-y,-z
4 1/2+x,1/2-y,1/2+z
_cell_length_a                   8.0392(7)
_cell_length_b                   9.7237(6)
_cell_length_c                   26.9768(12)
_cell_angle_alpha                90
_cell_angle_beta                 94.281(4)
_cell_angle_gamma                90
_cell_volume                     2102.91
_exptl_crystal_colour            colorless
_cell_formula_units_Z            4
loop_
_atom_site_label
_atom_site_type_symbol
_atom_site_fract_x
_atom_site_fract_y
_atom_site_fract_z
N1 N 0.2618(3) -0.3237(2) 0.1251(1)
N2 N 0.4972(3) -0.2135(2) 0.1133(1)
O1 O 0.6920(3) -0.3545(2) 0.1533(1)
O2 O 0.2471(3) -0.1214(2) 0.0808(1)
O3 O 0.1508(3) -0.4150(2) 0.0311(1)
O4 O -0.0944(3) -0.4735(4) 0.0577(1)
C1 C 0.3254(4) -0.2105(3) 0.1035(1)
C2 C 0.5509(4) -0.3286(3) 0.1393(1)
C3 C 0.3946(4) -0.4185(3) 0.1453(1)
C4 C 0.0905(4) -0.3620(3) 0.1145(1)
C5 C 0.0523(4) -0.4197(3) 0.0630(1)
C6 C 0.6079(5) -0.1196(3) 0.0894(1)
C7 C 0.3799(4) -0.4521(3) 0.1999(1)
C8 C 0.2707(5) -0.3833(3) 0.2281(1)
C9 C 0.2618(5) -0.4165(4) 0.2781(1)
C10 C 0.3653(5) -0.5146(4) 0.2997(1)
C11 C 0.4756(5) -0.5821(4) 0.2718(1)
C12 C 0.4828(4) -0.5522(3) 0.2222(1)
C13 C 0.3992(4) -0.5476(3) 0.1129(1)
C14 C 0.4991(4) -0.5546(3) 0.0730(1)
C15 C 0.4908(5) -0.6675(4) 0.0418(1)
C16 C 0.3832(5) -0.7736(4) 0.0494(1)
C17 C 0.2848(5) -0.7676(3) 0.0891(1)
C18 C 0.2922(4) -0.6560(3) 0.1204(1)
C19 C 0.6768(4) -0.0018(3) 0.1209(1)
C20 C 0.6446(4) 0.0170(3) 0.1700(1)
C21 C 0.7140(4) 0.1247(3) 0.1978(1)
C22 C 0.8159(4) 0.2155(3) 0.1755(1)
C23 C 0.8484(4) 0.2035(3) 0.1268(1)
C24 C 0.7806(4) 0.0937(3) 0.0996(1)
Cl1 Cl 0.9128(1) 0.3485(1) 0.2102(1)
Cl2 Cl 0.8230(1) 0.0778(1) 0.0381(1)
H1 H -0.0994(51) -0.5230(41) 0.0336(15)
H2 H 0.2038(52) -0.3075(43) 0.2169(15)
H3 H 0.1908(43) -0.3677(32) 0.2954(12)
H4 H 0.3685(50) -0.5332(39) 0.3301(14)
H5 H 0.5540(44) -0.6457(33) 0.2846(12)
H6 H 0.5616(45) -0.5975(33) 0.2028(12)
H7 H 0.5841(43) -0.4804(32) 0.0690(11)
H8 H 0.5576(50) -0.6703(39) 0.0174(14)
H9 H 0.3908(45) -0.8526(36) 0.0259(13)
H10 H 0.2110(48) -0.8413(38) 0.0942(13)
H11 H 0.2306(40) -0.6475(29) 0.1476(12)
H12 H 0.5710(45) -0.0468(34) 0.1840(12)
H13 H 0.6941(41) 0.1337(31) 0.2321(12)
H14 H 0.9028(41) 0.2634(34) 0.1111(12)
H15 H 0.0574(34) -0.4288(28) 0.1377(10)
H16 H 0.0178(39) -0.2849(33) 0.1174(11)
H17 H 0.5426(46) -0.0835(35) 0.0602(14)
H18 H 0.7044(52) -0.1726(38) 0.0765(14)
loop_
_geom_bond_atom_site_label_1
_geom_bond_atom_site_label_2
_geom_bond_site_symmetry_1
_geom_bond_site_symmetry_2
N1 C1 1_555 1_555
N2 C1 1_555 1_555
O1 C2 1_555 1_555
O2 C1 1_555 1_555
O3 C5 1_555 1_555
O4 C5 1_555 1_555
C2 N2 1_555 1_555
C3 N1 1_555 1_555
C4 N1 1_555 1_555
C5 C4 1_555 1_555
C6 N2 1_555 1_555
C7 C3 1_555 1_555
C8 C7 1_555 1_555
C9 C8 1_555 1_555
C10 C9 1_555 1_555
C11 C10 1_555 1_555
C12 C7 1_555 1_555
C13 C3 1_555 1_555
C14 C13 1_555 1_555
C15 C14 1_555 1_555
C16 C15 1_555 1_555
C17 C16 1_555 1_555
C18 C13 1_555 1_555
C19 C6 1_555 1_555
C20 C19 1_555 1_555
C21 C20 1_555 1_555
C22 C21 1_555 1_555
C23 C22 1_555 1_555
C24 C19 1_555 1_555
Cl1 C22 1_555 1_555
Cl2 C24 1_555 1_555
H1 O4 1_555 1_555
H2 C8 1_555 1_555
H3 C9 1_555 1_555
H4 C10 1_555 1_555
H5 C11 1_555 1_555
H6 C12 1_555 1_555
H7 C14 1_555 1_555
H8 C15 1_555 1_555
H9 C16 1_555 1_555
H10 C17 1_555 1_555
H11 C18 1_555 1_555
H12 C20 1_555 1_555
H13 C21 1_555 1_555
H14 C23 1_555 1_555
H15 C4 1_555 1_555
H16 C4 1_555 1_555
H17 C6 1_555 1_555
H18 C6 1_555 1_555
C2 C3 1_555 1_555
C11 C12 1_555 1_555
C17 C18 1_555 1_555
C23 C24 1_555 1_555

#END
