
#######################################################################
#
#                 Cambridge Crystallographic Data Centre
#                                CCDC 
#
#######################################################################
#
# If this CIF has been generated from an entry in the Cambridge 
# Structural Database, then it will include bibliographic, chemical, 
# crystal, experimental, refinement or atomic coordinate data resulting 
# from the CCDC's data processing and validation procedures.
#
#######################################################################

data_HAVNOH
_chemical_formula_moiety         'C19 H26 O5 S1'
_chemical_name_systematic        
11,11-Dimethoxy-2-oxo-9-phenylsulfonylbicyclo(6.3.0)undecane
_symmetry_cell_setting           monoclinic
_symmetry_space_group_name_H-M   'P 21/n'
_symmetry_Int_Tables_number      14
_space_group_name_Hall           '-P 2yn'
loop_
_symmetry_equiv_pos_site_id
_symmetry_equiv_pos_as_xyz
1 x,y,z
2 1/2-x,1/2+y,1/2-z
3 -x,-y,-z
4 1/2+x,1/2-y,1/2+z
_cell_length_a                   9.187(1)
_cell_length_b                   18.422(1)
_cell_length_c                   11.271(1)
_cell_angle_alpha                90
_cell_angle_beta                 106.61(1)
_cell_angle_gamma                90
_cell_volume                     1827.94
_cell_formula_units_Z            4
loop_
_atom_site_label
_atom_site_type_symbol
_atom_site_fract_x
_atom_site_fract_y
_atom_site_fract_z
C1 C 0.9905(2) 0.9626(1) 0.2961(2)
C2 C 1.0839(2) 0.9935(1) 0.2152(2)
C3 C 1.1667(2) 0.9434(1) 0.1520(2)
C4 C 1.3383(3) 0.9419(2) 0.2178(3)
C5 C 1.3833(3) 0.9064(2) 0.3454(3)
C6 C 1.3280(2) 0.9455(2) 0.4453(2)
C7 C 1.1969(2) 0.9091(1) 0.4787(2)
C8 C 1.0560(2) 0.8945(1) 0.3714(2)
C9 C 0.9157(2) 0.8682(1) 0.4069(2)
C10 C 0.7889(2) 0.8720(1) 0.2861(2)
C11 C 0.8243(2) 0.9419(1) 0.2246(2)
O1 O 0.8211(1) 0.9333(1) 0.1000(1)
C12 C 0.6811(3) 0.9071(1) 0.0194(2)
O2 O 0.7161(1) 0.9933(1) 0.2379(1)
C13 C 0.7288(3) 1.0644(1) 0.1896(2)
S1 S 0.9332(1) 0.7791(1) 0.4735
O3 O 0.9410(2) 0.7275(1) 0.3798(2)
O4 O 1.0534(2) 0.7796(1) 0.5874(2)
C14 C 0.7590(2) 0.7673(1) 0.5093(2)
C15 C 0.7428(3) 0.7983(1) 0.6159(2)
C16 C 0.6086(4) 0.7906(2) 0.6453(3)
C17 C 0.4915(3) 0.7501(2) 0.5680(3)
C18 C 0.5090(3) 0.7195(1) 0.4641(3)
C19 C 0.6426(3) 0.7282(1) 0.4300(2)
O5 O 1.0929(2) 1.0586(1) 0.2054(2)
loop_
_geom_bond_atom_site_label_1
_geom_bond_atom_site_label_2
_geom_bond_site_symmetry_1
_geom_bond_site_symmetry_2
C1 C2 1_555 1_555
C2 C3 1_555 1_555
C3 C4 1_555 1_555
C4 C5 1_555 1_555
C5 C6 1_555 1_555
C6 C7 1_555 1_555
C7 C8 1_555 1_555
C8 C1 1_555 1_555
C9 C8 1_555 1_555
C10 C9 1_555 1_555
C11 C1 1_555 1_555
O1 C11 1_555 1_555
C12 O1 1_555 1_555
O2 C11 1_555 1_555
C13 O2 1_555 1_555
S1 C9 1_555 1_555
O3 S1 1_555 1_555
O4 S1 1_555 1_555
C14 S1 1_555 1_555
C15 C14 1_555 1_555
C16 C15 1_555 1_555
C17 C16 1_555 1_555
C18 C17 1_555 1_555
C19 C14 1_555 1_555
O5 C2 1_555 1_555
C10 C11 1_555 1_555
C18 C19 1_555 1_555

#END
