
#######################################################################
#
#                 Cambridge Crystallographic Data Centre
#                                CCDC 
#
#######################################################################
#
# If this CIF has been generated from an entry in the Cambridge 
# Structural Database, then it will include bibliographic, chemical, 
# crystal, experimental, refinement or atomic coordinate data resulting 
# from the CCDC's data processing and validation procedures.
#
#######################################################################

data_HAVPOM
_chemical_compound_source        
'endolichenic fungus Apiospora montagnei isolated from the lichen Cladonia sp.'
_chemical_name_common            'Libertellenone L'
_chemical_formula_moiety         'C20 H26 O5'
_chemical_name_systematic        
8-hydroxy-3a,9,11b-trimethyl-9-vinyl-3a,4,5,5a,8,9,10,11,11b,11c-decahydro-3H-benzo[c]furo[3,4-f]chromene-1,7-dione
_symmetry_cell_setting           monoclinic
_symmetry_space_group_name_H-M   'P 21'
_symmetry_Int_Tables_number      4
_space_group_name_Hall           'P 2yb'
loop_
_symmetry_equiv_pos_site_id
_symmetry_equiv_pos_as_xyz
1 x,y,z
2 -x,1/2+y,-z
_cell_length_a                   7.4991(4)
_cell_length_b                   7.2339(4)
_cell_length_c                   16.0494(9)
_cell_angle_alpha                90
_cell_angle_beta                 93.632(3)
_cell_angle_gamma                90
_cell_volume                     868.895
_exptl_crystal_colour            colorless
_exptl_crystal_description       plate
_cell_formula_units_Z            2
_exptl_crystal_recrystallization_method methanol
loop_
_atom_site_label
_atom_site_type_symbol
_atom_site_fract_x
_atom_site_fract_y
_atom_site_fract_z
O1 O 0.89980(18) 0.3130(2) 0.73047(9)
O2 O 0.60739(17) 0.3480(2) 0.74521(8)
O3 O 1.01456(16) 0.99836(18) 0.89470(8)
O4 O 1.25884(17) 1.1491(2) 0.86763(8)
O5 O 1.44085(17) 0.9853(2) 0.71596(9)
H1 H 1.501(4) 1.082(5) 0.7183(17)
C1 C 0.8705(2) 0.8838(3) 0.85981(10)
H2 H 0.8063 0.9551 0.8137
C2 C 0.7409(2) 0.8540(3) 0.92760(11)
H3 H 0.7037 0.9749 0.9497
H4 H 0.8001 0.7828 0.9742
C3 C 0.5759(2) 0.7477(3) 0.89103(12)
H5 H 0.4937 0.7229 0.9356
H6 H 0.5114 0.8235 0.8475
C4 C 0.6335(2) 0.5662(3) 0.85337(11)
C5 C 0.7781(2) 0.6009(3) 0.78930(10)
H7 H 0.7188 0.6816 0.7452
C6 C 0.7807(2) 0.4096(3) 0.75126(11)
C7 C 1.1457(2) 1.0389(3) 0.84362(11)
C8 C 1.1449(2) 0.9407(3) 0.76260(10)
C9 C 1.0585(2) 0.7794(3) 0.75080(10)
C10 C 0.9469(2) 0.7073(2) 0.82135(10)
C11 C 1.0699(2) 0.6700(3) 0.67200(11)
H8 H 0.9500 0.6658 0.6424
H9 H 1.1049 0.5416 0.6867
C12 C 1.2035(2) 0.7493(3) 0.61293(11)
H10 H 1.3257 0.7094 0.6319
H11 H 1.1766 0.6991 0.5561
C13 C 1.1971(3) 0.9610(3) 0.60949(11)
C14 C 1.2556(2) 1.0296(3) 0.69766(11)
H12 H 1.2401 1.1667 0.6999
C15 C 1.3213(3) 1.0400(4) 0.54826(13)
H13 H 1.3640 1.1615 0.5597
C16 C 1.3773(4) 0.9610(4) 0.48116(16)
H14 H 1.3391 0.8394 0.4665
H15 H 1.4561 1.0253 0.4473
C17 C 1.0081(3) 1.0304(3) 0.58366(13)
H16 H 1.0094 1.1655 0.5789
H17 H 0.9261 0.9937 0.6259
H18 H 0.9681 0.9764 0.5297
C18 C 0.6867(3) 0.4247(3) 0.92237(12)
H19 H 0.7538 0.4874 0.9686
H20 H 0.7614 0.3282 0.8996
H21 H 0.5788 0.3687 0.9428
C19 C 0.4974(2) 0.4732(3) 0.79213(12)
H22 H 0.4072 0.4039 0.8220
H23 H 0.4359 0.5651 0.7548
C20 C 1.0698(2) 0.5973(3) 0.88375(11)
H24 H 1.0071 0.5730 0.9344
H25 H 1.1782 0.6691 0.8982
H26 H 1.1024 0.4798 0.8584
loop_
_geom_bond_atom_site_label_1
_geom_bond_atom_site_label_2
_geom_bond_site_symmetry_1
_geom_bond_site_symmetry_2
O1 C6 1_555 1_555
O2 C6 1_555 1_555
O3 C1 1_555 1_555
O4 C7 1_555 1_555
O5 H1 1_555 1_555
C1 H2 1_555 1_555
C2 C1 1_555 1_555
H3 C2 1_555 1_555
H4 C2 1_555 1_555
C3 C2 1_555 1_555
H5 C3 1_555 1_555
H6 C3 1_555 1_555
C4 C3 1_555 1_555
C5 C4 1_555 1_555
H7 C5 1_555 1_555
C6 C5 1_555 1_555
C7 O3 1_555 1_555
C8 C7 1_555 1_555
C9 C8 1_555 1_555
C10 C1 1_555 1_555
C11 C9 1_555 1_555
H8 C11 1_555 1_555
H9 C11 1_555 1_555
C12 C11 1_555 1_555
H10 C12 1_555 1_555
H11 C12 1_555 1_555
C13 C12 1_555 1_555
C14 O5 1_555 1_555
H12 C14 1_555 1_555
C15 C13 1_555 1_555
H13 C15 1_555 1_555
C16 C15 1_555 1_555
H14 C16 1_555 1_555
H15 C16 1_555 1_555
C17 C13 1_555 1_555
H16 C17 1_555 1_555
H17 C17 1_555 1_555
H18 C17 1_555 1_555
C18 C4 1_555 1_555
H19 C18 1_555 1_555
H20 C18 1_555 1_555
H21 C18 1_555 1_555
C19 O2 1_555 1_555
H22 C19 1_555 1_555
H23 C19 1_555 1_555
C20 C10 1_555 1_555
H24 C20 1_555 1_555
H25 C20 1_555 1_555
H26 C20 1_555 1_555
C4 C19 1_555 1_555
C5 C10 1_555 1_555
C8 C14 1_555 1_555
C9 C10 1_555 1_555
C13 C14 1_555 1_555

#END
