
#######################################################################
#
#                 Cambridge Crystallographic Data Centre
#                                CCDC 
#
#######################################################################
#
# If this CIF has been generated from an entry in the Cambridge 
# Structural Database, then it will include bibliographic, chemical, 
# crystal, experimental, refinement or atomic coordinate data resulting 
# from the CCDC's data processing and validation procedures.
#
#######################################################################

data_HAVXIO
_chemical_formula_moiety         'C15 H16 O6,H2 O1'
_chemical_name_systematic        
'3-(1,4-dihydroxycyclohexyl)-5,7-dihydroxy-4H-chromen-4-one monohydrate'
_symmetry_cell_setting           triclinic
_symmetry_space_group_name_H-M   'P -1'
_symmetry_Int_Tables_number      2
_space_group_name_Hall           '-P 1'
loop_
_symmetry_equiv_pos_site_id
_symmetry_equiv_pos_as_xyz
1 x,y,z
2 -x,-y,-z
_cell_length_a                   6.3285(3)
_cell_length_b                   8.9908(4)
_cell_length_c                   12.7300(5)
_cell_angle_alpha                79.734(2)
_cell_angle_beta                 82.204(2)
_cell_angle_gamma                77.767(2)
_cell_volume                     692.919
_exptl_crystal_colour            colorless
_exptl_crystal_description       block
_cell_formula_units_Z            2
loop_
_atom_site_label
_atom_site_type_symbol
_atom_site_fract_x
_atom_site_fract_y
_atom_site_fract_z
O1 O 0.05232(19) -0.12554(13) 0.41900(8)
H1 H -0.0420 -0.1704 0.4096
O2 O -0.09306(17) 0.12768(12) 0.07017(8)
O3 O 0.42557(19) 0.34029(13) 0.04024(8)
O4 O 0.49256(19) 0.21806(14) 0.23752(9)
H2 H 0.5157 0.2682 0.1782
O5 O 0.22303(18) 0.53087(11) -0.12934(8)
H3 H 0.3048 0.5182 -0.0824
O6 O 0.2499(2) 0.28378(15) -0.41388(9)
H4 H 0.3534 0.2495 -0.4547
C1 C 0.0316(2) 0.10209(16) 0.15367(11)
C2 C -0.0291(2) 0.00287(16) 0.24341(11)
H5 H -0.1485 -0.0432 0.2459
C3 C 0.0942(2) -0.02565(16) 0.32956(11)
C4 C 0.2692(3) 0.04830(17) 0.32761(12)
H6 H 0.3473 0.0306 0.3870
C5 C 0.3247(2) 0.14715(16) 0.23741(12)
C6 C 0.2097(2) 0.17418(15) 0.14560(11)
C7 C 0.2694(2) 0.27194(16) 0.04800(11)
C8 C 0.1376(2) 0.28700(16) -0.04029(11)
C9 C -0.0350(2) 0.21705(17) -0.02179(11)
H7 H -0.1222 0.2316 -0.0774
C10 C 0.1945(2) 0.38339(15) -0.14801(11)
C11 C 0.0121(2) 0.41625(17) -0.22136(11)
H8 H -0.0217 0.3194 -0.2308
H9 H -0.1173 0.4750 -0.1872
C12 C 0.0724(3) 0.50549(19) -0.33116(12)
H10 H -0.0438 0.5168 -0.3761
H11 H 0.0873 0.6077 -0.3226
C13 C 0.2832(3) 0.42552(18) -0.38629(12)
H12 H 0.3232 0.4926 -0.4523
C14 C 0.4657(2) 0.39260(18) -0.31419(12)
H13 H 0.4984 0.4892 -0.3037
H14 H 0.5952 0.3350 -0.3490
C15 C 0.4052(2) 0.30083(16) -0.20499(11)
H15 H 0.5227 0.2863 -0.1603
H16 H 0.3868 0.2000 -0.2149
O7 O 0.6040(2) 0.19678(18) 0.44785(11)
H17 H 0.617(4) 0.202(3) 0.384(2)
H18 H 0.723(5) 0.185(3) 0.459(2)
loop_
_geom_bond_atom_site_label_1
_geom_bond_atom_site_label_2
_geom_bond_site_symmetry_1
_geom_bond_site_symmetry_2
O1 H1 1_555 1_555
O2 C1 1_555 1_555
O3 C7 1_555 1_555
O4 H2 1_555 1_555
O5 H3 1_555 1_555
O6 H4 1_555 1_555
C1 C2 1_555 1_555
C2 H5 1_555 1_555
C3 O1 1_555 1_555
C4 C3 1_555 1_555
H6 C4 1_555 1_555
C5 O4 1_555 1_555
C6 C1 1_555 1_555
C7 C6 1_555 1_555
C8 C7 1_555 1_555
C9 O2 1_555 1_555
H7 C9 1_555 1_555
C10 O5 1_555 1_555
C11 C10 1_555 1_555
H8 C11 1_555 1_555
H9 C11 1_555 1_555
C12 C11 1_555 1_555
H10 C12 1_555 1_555
H11 C12 1_555 1_555
C13 O6 1_555 1_555
H12 C13 1_555 1_555
C14 C13 1_555 1_555
H13 C14 1_555 1_555
H14 C14 1_555 1_555
C15 C10 1_555 1_555
H15 C15 1_555 1_555
H16 C15 1_555 1_555
O7 H17 1_555 1_555
H18 O7 1_555 1_555
C2 C3 1_555 1_555
C4 C5 1_555 1_555
C5 C6 1_555 1_555
C8 C9 1_555 1_555
C8 C10 1_555 1_555
C12 C13 1_555 1_555
C14 C15 1_555 1_555

#END
