
#######################################################################
#
#                 Cambridge Crystallographic Data Centre
#                                CCDC 
#
#######################################################################
#
# If this CIF has been generated from an entry in the Cambridge 
# Structural Database, then it will include bibliographic, chemical, 
# crystal, experimental, refinement or atomic coordinate data resulting 
# from the CCDC's data processing and validation procedures.
#
#######################################################################

data_HAWDUH
_chemical_formula_moiety         'C22 H12 N8 S5'
_chemical_name_systematic        
2,7,12,17,22-pentathia-4,5,14,15,30,31,34,35-octaazahexacyclo[21.2.2.2^3,6^.2^8,11^.2^13,16^.2^18,21^]pentatriaconta-1(25),3,5,8,10,13,15,18,20,23,26,28,30,32,34-pentadecaene
_symmetry_cell_setting           monoclinic
_symmetry_space_group_name_H-M   'C 2/c'
_symmetry_Int_Tables_number      15
_space_group_name_Hall           '-C 2yn'
loop_
_symmetry_equiv_pos_site_id
_symmetry_equiv_pos_as_xyz
1 x,y,z
2 -x,y,1/2-z
3 1/2+x,1/2+y,z
4 1/2-x,1/2+y,1/2-z
5 -x,-y,-z
6 x,-y,1/2+z
7 1/2-x,1/2-y,-z
8 1/2+x,1/2-y,1/2+z
_cell_length_a                   30.702(7)
_cell_length_b                   13.590(3)
_cell_length_c                   17.604(4)
_cell_angle_alpha                90
_cell_angle_beta                 107.412(3)
_cell_angle_gamma                90
_cell_volume                     7008.53
_exptl_crystal_colour            red
_exptl_crystal_description       plate
_cell_formula_units_Z            12
loop_
_atom_site_label
_atom_site_type_symbol
_atom_site_fract_x
_atom_site_fract_y
_atom_site_fract_z
S1 S 0.45386(4) 0.70408(8) 0.56399(6)
S2 S 0.40883(4) 0.27998(8) 0.46824(6)
S3 S 0.5000 -0.01455(11) 0.7500
N1 N 0.41386(13) 0.5608(3) 0.4730(2)
N2 N 0.40468(13) 0.4682(3) 0.4518(2)
N3 N 0.45780(13) 0.4151(3) 0.5731(2)
N4 N 0.46787(13) 0.5092(3) 0.5941(2)
C1 C 0.52708(15) 0.7095(3) 0.6997(2)
H1 H 0.5453 0.7121 0.6660
C2 C 0.48040(15) 0.7055(3) 0.6690(2)
C3 C 0.45337(15) 0.7095(3) 0.7185(2)
H2 H 0.4218 0.7123 0.6970
C4 C 0.44468(14) 0.5780(3) 0.5442(2)
C5 C 0.42645(13) 0.3983(3) 0.5040(2)
C6 C 0.43464(13) 0.2013(3) 0.5498(2)
C7 C 0.45791(14) 0.1198(3) 0.5352(2)
H3 H 0.4607 0.1094 0.4846
C8 C 0.47719(14) 0.0532(3) 0.5964(2)
H4 H 0.4925 -0.0020 0.5865
C9 C 0.47350(14) 0.0693(3) 0.6718(2)
C10 C 0.44875(14) 0.1494(3) 0.6844(2)
H5 H 0.4453 0.1590 0.7346
C11 C 0.42908(14) 0.2149(3) 0.6248(2)
H6 H 0.4122 0.2679 0.6343
S1A S 0.54614(4) 0.70408(8) 0.93601(6)
S2A S 0.59117(4) 0.27998(8) 1.03176(6)
N1A N 0.58614(13) 0.5608(3) 1.0270(2)
N2A N 0.59532(13) 0.4682(3) 1.0482(2)
N3A N 0.54220(13) 0.4151(3) 0.9269(2)
N4A N 0.53213(13) 0.5092(3) 0.9059(2)
C1A C 0.47292(15) 0.7095(3) 0.8003(2)
H1A H 0.4547 0.7121 0.8340
C2A C 0.51960(15) 0.7055(3) 0.8310(2)
C3A C 0.54663(15) 0.7095(3) 0.7815(2)
H2A H 0.5782 0.7123 0.8030
C4A C 0.55532(14) 0.5780(3) 0.9558(2)
C5A C 0.57355(13) 0.3983(3) 0.9960(2)
C6A C 0.56536(13) 0.2013(3) 0.9502(2)
C7A C 0.54209(14) 0.1198(3) 0.9648(2)
H3A H 0.5393 0.1094 1.0154
C8A C 0.52281(14) 0.0532(3) 0.9036(2)
H4A H 0.5075 -0.0020 0.9135
C9A C 0.52650(14) 0.0693(3) 0.8282(2)
C10A C 0.55125(14) 0.1494(3) 0.8156(2)
H5A H 0.5547 0.1590 0.7654
C11A C 0.57092(14) 0.2149(3) 0.8752(2)
H6A H 0.5878 0.2679 0.8657
S4 S 0.59389(4) 0.89415(7) 0.09447(6)
S5 S 0.64938(5) 1.15632(8) 0.38413(7)
S6 S 0.73054(4) 0.91842(8) 0.70312(6)
S7 S 0.72718(4) 0.47441(8) 0.59399(6)
S8 S 0.61091(4) 0.47344(8) 0.25058(6)
N5 N 0.60498(12) 1.0646(2) 0.16920(19)
N6 N 0.61748(12) 1.1211(2) 0.2331(2)
N7 N 0.65462(12) 0.9849(2) 0.31059(19)
N8 N 0.64264(12) 0.9280(2) 0.24604(18)
N9 N 0.68169(12) 0.3954(2) 0.4596(2)
N10 N 0.65715(12) 0.3960(2) 0.3840(2)
N11 N 0.65029(12) 0.5705(2) 0.38759(19)
N12 N 0.67617(13) 0.5701(2) 0.46401(19)
C12 C 0.61551(13) 0.9683(3) 0.1793(2)
C13 C 0.63906(15) 1.0765(3) 0.3025(2)
C14 C 0.67216(15) 1.0812(3) 0.4686(2)
C15 C 0.70533(15) 1.1246(3) 0.5314(2)
H7 H 0.7154 1.1880 0.5259
C16 C 0.72345(14) 1.0742(3) 0.6018(2)
H8 H 0.7456 1.1036 0.6437
C17 C 0.70860(12) 0.9793(3) 0.6100(2)
C18 C 0.67466(12) 0.9363(3) 0.5474(2)
H9 H 0.6645 0.8729 0.5530
C19 C 0.65599(14) 0.9877(3) 0.4772(2)
H10 H 0.6328 0.9598 0.4361
C20 C 0.73082(13) 0.7929(3) 0.6736(2)
C21 C 0.70329(14) 0.7260(3) 0.6955(2)
H11 H 0.6850 0.7459 0.7263
C22 C 0.70284(15) 0.6287(3) 0.6715(3)
H12 H 0.6845 0.5831 0.6868
C23 C 0.72954(14) 0.5994(3) 0.6251(2)
C24 C 0.75807(15) 0.6658(3) 0.6048(2)
H13 H 0.7768 0.6454 0.5750
C25 C 0.75878(14) 0.7630(3) 0.6288(3)
H14 H 0.7779 0.8080 0.6149
C26 C 0.69186(13) 0.4832(3) 0.4959(2)
C27 C 0.64317(13) 0.4842(3) 0.3507(2)
C28 C 0.60765(14) 0.5954(3) 0.2139(2)
C29 C 0.56507(14) 0.6382(3) 0.1843(2)
H15 H 0.5393 0.6064 0.1896
C30 C 0.56089(13) 0.7283(3) 0.1466(2)
H16 H 0.5323 0.7570 0.1257
C31 C 0.59965(13) 0.7760(3) 0.1403(2)
C32 C 0.64235(13) 0.7321(3) 0.1691(2)
H17 H 0.6682 0.7637 0.1638
C33 C 0.64607(13) 0.6416(3) 0.2055(2)
H18 H 0.6745 0.6115 0.2244
loop_
_geom_bond_atom_site_label_1
_geom_bond_atom_site_label_2
_geom_bond_site_symmetry_1
_geom_bond_site_symmetry_2
S1 C2 1_555 1_555
S2 C5 1_555 1_555
S3 C9 1_555 1_555
N1 N2 1_555 1_555
N2 C5 1_555 1_555
N3 N4 1_555 1_555
N4 C4 1_555 1_555
C1 H1 1_555 1_555
C2 C1 1_555 1_555
C3 C2 1_555 1_555
H2 C3 1_555 1_555
C4 S1 1_555 1_555
C5 N3 1_555 1_555
C6 S2 1_555 1_555
C7 C6 1_555 1_555
H3 C7 1_555 1_555
C8 C7 1_555 1_555
H4 C8 1_555 1_555
C9 C8 1_555 1_555
C10 C9 1_555 1_555
H5 C10 1_555 1_555
C11 C6 1_555 1_555
H6 C11 1_555 1_555
S4 C12 1_555 1_555
S5 C13 1_555 1_555
S6 C17 1_555 1_555
S7 C23 1_555 1_555
S8 C27 1_555 1_555
N5 N6 1_555 1_555
N6 C13 1_555 1_555
N7 N8 1_555 1_555
N8 C12 1_555 1_555
N9 N10 1_555 1_555
N10 C27 1_555 1_555
N11 N12 1_555 1_555
N12 C26 1_555 1_555
C12 N5 1_555 1_555
C13 N7 1_555 1_555
C14 S5 1_555 1_555
C15 C14 1_555 1_555
H7 C15 1_555 1_555
C16 C15 1_555 1_555
H8 C16 1_555 1_555
C17 C16 1_555 1_555
C18 C17 1_555 1_555
H9 C18 1_555 1_555
C19 C14 1_555 1_555
H10 C19 1_555 1_555
C20 S6 1_555 1_555
C21 C20 1_555 1_555
H11 C21 1_555 1_555
C22 C21 1_555 1_555
H12 C22 1_555 1_555
C23 C22 1_555 1_555
C24 C23 1_555 1_555
H13 C24 1_555 1_555
C25 C20 1_555 1_555
H14 C25 1_555 1_555
C26 S7 1_555 1_555
C27 N11 1_555 1_555
C28 S8 1_555 1_555
C29 C28 1_555 1_555
H15 C29 1_555 1_555
C30 C29 1_555 1_555
H16 C30 1_555 1_555
C31 S4 1_555 1_555
C32 C31 1_555 1_555
H17 C32 1_555 1_555
C33 C28 1_555 1_555
H18 C33 1_555 1_555
S1A C2A 1_555 1_555
S2A C5A 1_555 1_555
N1A N2A 1_555 1_555
N2A C5A 1_555 1_555
N3A N4A 1_555 1_555
N4A C4A 1_555 1_555
C1A C3 1_555 1_555
H1A C1A 1_555 1_555
C2A C1A 1_555 1_555
C3A C1 1_555 1_555
H2A C3A 1_555 1_555
C4A S1A 1_555 1_555
C5A N3A 1_555 1_555
C6A S2A 1_555 1_555
C7A C6A 1_555 1_555
H3A C7A 1_555 1_555
C8A C7A 1_555 1_555
H4A C8A 1_555 1_555
C9A S3 1_555 1_555
C10A C9A 1_555 1_555
H5A C10A 1_555 1_555
C11A C6A 1_555 1_555
H6A C11A 1_555 1_555
N1 C4 1_555 1_555
C10 C11 1_555 1_555
N9 C26 1_555 1_555
C18 C19 1_555 1_555
C24 C25 1_555 1_555
C30 C31 1_555 1_555
C32 C33 1_555 1_555
N1A C4A 1_555 1_555
C2A C3A 1_555 1_555
C8A C9A 1_555 1_555
C10A C11A 1_555 1_555

#END
