
#######################################################################
#
#                 Cambridge Crystallographic Data Centre
#                                CCDC 
#
#######################################################################
#
# If this CIF has been generated from an entry in the Cambridge 
# Structural Database, then it will include bibliographic, chemical, 
# crystal, experimental, refinement or atomic coordinate data resulting 
# from the CCDC's data processing and validation procedures.
#
#######################################################################

data_HAWFOD
_chemical_formula_moiety         
'C28 H20 N8 O6 S5,0.5(C4 H10 O1),0.5(C1 H1 Cl3)'
_chemical_name_systematic        
'diethyl 22,22-dioxo-2,7,12,17,22-pentathia-4,5,14,15,30,31,34,35-octaazahexacyclo[21.2.2.2^3,6^.2^8,11^.2^13,16^.2^18,21^]pentatriaconta-1(25),3,5,8,10,13,15,18,20,23,26,28,30,32,34-pentadecaene-9,32-dicarboxylate diethyl ether chloroform solvate'
_symmetry_cell_setting           triclinic
_symmetry_space_group_name_H-M   'P -1'
_symmetry_Int_Tables_number      2
_space_group_name_Hall           '-P 1'
loop_
_symmetry_equiv_pos_site_id
_symmetry_equiv_pos_as_xyz
1 x,y,z
2 -x,-y,-z
_cell_length_a                   14.5144(2)
_cell_length_b                   20.1878(4)
_cell_length_c                   25.4050(6)
_cell_angle_alpha                105.471(2)
_cell_angle_beta                 97.238(2)
_cell_angle_gamma                95.611(2)
_cell_volume                     7049.6
_exptl_crystal_colour            red
_exptl_crystal_description       Plate
_cell_formula_units_Z            8
loop_
_atom_site_label
_atom_site_type_symbol
_atom_site_fract_x
_atom_site_fract_y
_atom_site_fract_z
Cl1 Cl 0.41093(8) 0.26021(6) 0.70671(6)
Cl2 Cl 0.30421(8) 0.36008(6) 0.76632(5)
Cl3 Cl 0.38848(10) 0.38578(6) 0.67566(5)
C1 C 0.3348(3) 0.3218(2) 0.70144(18)
H1 H 0.2777 0.2983 0.6757
Cl4 Cl 0.39701(8) 0.77248(7) 0.21400(6)
Cl5 Cl 0.28297(8) 0.86984(6) 0.26952(5)
Cl6 Cl 0.36975(9) 0.89492(6) 0.17887(5)
C2 C 0.3177(3) 0.8314(2) 0.20579(19)
H2 H 0.2621 0.8058 0.1796
S1 S 0.58273(7) -0.06287(5) 0.34883(4)
S2 S 0.38587(7) 0.12966(5) 0.22156(4)
S3 S 0.39274(8) 0.40854(5) 0.38621(5)
S4 S 0.65487(7) 0.40976(5) 0.60394(4)
S5 S 0.67106(8) 0.09498(5) 0.58990(4)
O1 O 0.6719(2) -0.06942(16) 0.24886(13)
O2 O 0.70883(18) 0.04058(15) 0.24571(12)
O3 O 0.2694(2) 0.12374(18) 0.30818(14)
O4 O 0.29085(19) 0.05692(16) 0.36437(12)
O5 O 0.7476(2) 0.44071(15) 0.60217(12)
O6 O 0.6071(2) 0.43789(15) 0.64916(12)
N1 N 0.3437(3) 0.25559(18) 0.25435(15)
N2 N 0.3464(3) 0.31668(18) 0.29055(16)
N3 N 0.4433(3) 0.28116(18) 0.35748(16)
N4 N 0.4425(3) 0.22034(18) 0.32090(16)
N5 N 0.6176(2) -0.01694(17) 0.50800(15)
N6 N 0.5959(2) -0.05211(17) 0.45455(15)
N7 N 0.5893(2) 0.05412(17) 0.43107(14)
N8 N 0.6098(2) 0.08911(16) 0.48406(14)
C3 C 0.5284(3) -0.00720(19) 0.31436(16)
C4 C 0.5659(3) 0.01257(19) 0.27230(16)
C5 C 0.5201(3) 0.05567(19) 0.24645(16)
H3 H 0.5448 0.0687 0.2181
C6 C 0.4388(2) 0.07956(19) 0.26205(15)
C7 C 0.4007(2) 0.05987(18) 0.30480(15)
C8 C 0.4465(2) 0.01694(19) 0.33034(16)
H4 H 0.4221 0.0039 0.3588
C9 C 0.6545(3) -0.0113(2) 0.25410(17)
C10 C 0.7993(3) 0.0263(3) 0.22871(19)
H5 H 0.8174 0.0565 0.2067
H6 H 0.7936 -0.0213 0.2060
C11 C 0.8726(3) 0.0377(3) 0.2780(2)
H7 H 0.9314 0.0284 0.2661
H8 H 0.8551 0.0072 0.2993
H9 H 0.8785 0.0850 0.3003
C12 C 0.3128(3) 0.0840(2) 0.32475(16)
C13 C 0.2058(3) 0.0755(3) 0.38764(19)
H10 H 0.1984 0.1231 0.3886
H11 H 0.2113 0.0720 0.4252
C14 C 0.1230(4) 0.0281(3) 0.3531(2)
H12 H 0.1156 0.0339 0.3166
H13 H 0.0680 0.0387 0.3693
H14 H 0.1318 -0.0190 0.3510
C15 C 0.3916(3) 0.2095(2) 0.27124(16)
C16 C 0.3952(3) 0.3264(2) 0.34075(17)
C17 C 0.4686(3) 0.40597(19) 0.44598(17)
C18 C 0.5632(3) 0.4003(2) 0.44567(18)
H15 H 0.5879 0.3957 0.4130
C19 C 0.6207(3) 0.4014(2) 0.49386(17)
H16 H 0.6840 0.3974 0.4938
C20 C 0.5825(3) 0.40858(19) 0.54207(17)
C21 C 0.4890(3) 0.4152(2) 0.54322(18)
H17 H 0.4646 0.4205 0.5760
C22 C 0.4317(3) 0.4139(2) 0.49473(19)
H18 H 0.3686 0.4184 0.4949
C23 C 0.6597(3) 0.3209(2) 0.59961(16)
C24 C 0.7196(3) 0.2852(2) 0.56736(16)
H19 H 0.7568 0.3076 0.5483
C25 C 0.7232(3) 0.2164(2) 0.56404(16)
H20 H 0.7637 0.1921 0.5431
C26 C 0.6661(3) 0.1833(2) 0.59206(15)
C27 C 0.6075(3) 0.2199(2) 0.62493(17)
H21 H 0.5704 0.1978 0.6442
C28 C 0.6044(3) 0.2894(2) 0.62889(16)
H22 H 0.5657 0.3144 0.6509
C29 C 0.6307(3) 0.0525(2) 0.51986(17)
C30 C 0.5899(2) -0.01477(19) 0.41854(17)
S6 S -0.15340(8) 0.69816(6) 0.60023(6)
S7 S 0.06540(7) 0.87235(5) 0.46911(4)
S8 S 0.19407(7) 1.15210(5) 0.63485(4)
S9 S -0.00464(7) 1.17087(5) 0.84367(4)
S10 S -0.08692(11) 0.85689(7) 0.84006(6)
O7 O -0.2786(2) 0.68720(19) 0.4986(2)
O8 O -0.27928(19) 0.79065(15) 0.48247(13)
O9 O 0.20253(19) 0.88195(16) 0.56832(14)
O10 O 0.19081(19) 0.79884(15) 0.61076(12)
O11 O -0.0948(2) 1.19366(15) 0.83548(12)
O12 O 0.0622(2) 1.20678(17) 0.89201(12)
N9 N 0.1596(2) 0.99760(18) 0.50509(15)
N10 N 0.1865(2) 1.05888(18) 0.54188(15)
N11 N 0.0791(2) 1.03079(17) 0.59833(15)
N12 N 0.0504(2) 0.96990(17) 0.56074(15)
N13 N -0.0812(3) 0.81330(19) 0.68220(17)
N14 N -0.0673(3) 0.8486(2) 0.73500(17)
N15 N -0.1090(3) 0.7437(2) 0.7588(2)
N16 N -0.1217(3) 0.7084(2) 0.7058(2)
C31 C -0.0913(3) 0.7491(2) 0.5652(2)
C32 C -0.1367(3) 0.7654(2) 0.51929(19)
C33 C -0.0859(3) 0.80357(19) 0.49223(18)
H23 H -0.1160 0.8140 0.4615
C34 C 0.0090(3) 0.82663(19) 0.50985(16)
C35 C 0.0551(3) 0.81075(19) 0.55609(17)
C36 C 0.0044(3) 0.7716(2) 0.58275(18)
H24 H 0.0347 0.7601 0.6129
C37 C -0.2394(3) 0.7424(2) 0.4987(2)
C38 C -0.3808(3) 0.7766(2) 0.4643(2)
H25 H -0.3986 0.7278 0.4447
H26 H -0.3984 0.8034 0.4390
C39 C -0.4322(3) 0.7951(3) 0.5128(2)
H27 H -0.4983 0.7891 0.4999
H28 H -0.4115 0.8426 0.5337
H29 H -0.4195 0.7654 0.5360
C40 C 0.1572(3) 0.8350(2) 0.57823(16)
C41 C 0.2900(3) 0.8182(3) 0.63509(17)
H30 H 0.3007 0.8062 0.6697
H31 H 0.3069 0.8680 0.6429
C42 C 0.3498(3) 0.7814(3) 0.5962(2)
H32 H 0.3412 0.7949 0.5627
H33 H 0.3322 0.7322 0.5880
H34 H 0.4145 0.7934 0.6131
C43 C 0.0947(3) 0.95443(19) 0.51743(16)
C44 C 0.1481(3) 1.07161(19) 0.58821(16)
C45 C 0.1334(3) 1.15654(19) 0.69203(16)
C46 C 0.0365(3) 1.1523(2) 0.68715(17)
H35 H 0.0005 1.1457 0.6527
C47 C -0.0065(3) 1.1578(2) 0.73335(17)
H36 H -0.0714 1.1539 0.7303
C48 C 0.0496(3) 1.1695(2) 0.78492(16)
C49 C 0.1461(3) 1.1761(2) 0.79027(17)
H37 H 0.1824 1.1851 0.8249
C50 C 0.1888(3) 1.1693(2) 0.74329(17)
H38 H 0.2538 1.1732 0.7463
C51 C -0.0245(3) 1.0821(2) 0.84159(17)
C52 C -0.1104(3) 1.0442(2) 0.8156(2)
H39 H -0.1560 1.0651 0.7993
C53 C -0.1281(3) 0.9748(3) 0.8140(2)
H40 H -0.1856 0.9489 0.7965
C54 C -0.0600(3) 0.9444(2) 0.8385(2)
C55 C 0.0270(3) 0.9822(3) 0.86302(19)
H41 H 0.0731 0.9610 0.8784
C56 C 0.0453(3) 1.0514(2) 0.86470(18)
H42 H 0.1036 1.0769 0.8811
C57 C -0.0899(3) 0.8133(2) 0.7711(2)
C58 C -0.1148(3) 0.7456(2) 0.6695(2)
S11 S 0.15212(8) 0.80095(6) 0.90563(5)
S12 S -0.08915(7) 0.62584(5) 1.02650(4)
S13 S -0.18183(7) 0.34229(5) 0.86159(4)
S14 S 0.02681(7) 0.32959(5) 0.65730(4)
S15 S 0.09747(9) 0.64470(6) 0.66349(5)
O13 O 0.2638(3) 0.8159(2) 1.01618(17)
O14 O 0.2650(2) 0.7071(2) 1.02061(18)
O15 O -0.2082(2) 0.60729(16) 0.91531(14)
O16 O -0.2006(2) 0.70592(15) 0.89078(12)
O17 O 0.1180(2) 0.30795(15) 0.66568(13)
O18 O -0.0387(2) 0.29366(15) 0.60839(12)
N17 N -0.1791(3) 0.49993(18) 0.98537(15)
N18 N -0.1987(3) 0.43762(18) 0.94851(15)
N19 N -0.0691(2) 0.46482(18) 0.90555(16)
N20 N -0.0490(2) 0.52667(18) 0.94307(16)
N21 N 0.0948(2) 0.68559(18) 0.82198(15)
N22 N 0.0831(2) 0.65101(18) 0.76902(15)
N23 N 0.1216(3) 0.75728(19) 0.74683(16)
N24 N 0.1319(3) 0.79153(19) 0.79977(15)
C59 C 0.0842(3) 0.7493(2) 0.93729(18)
C60 C 0.1241(3) 0.7338(2) 0.98492(17)
C61 C 0.0683(3) 0.6962(2) 1.01030(17)
H43 H 0.0944 0.6872 1.0427
C62 C -0.0248(3) 0.6716(2) 0.98894(16)
C63 C -0.0653(3) 0.6864(2) 0.94053(17)
C64 C -0.0101(3) 0.7253(2) 0.91574(18)
H44 H -0.0365 0.7356 0.8841
C65 C 0.2249(3) 0.7560(2) 1.00946(19)
C66 C 0.3663(3) 0.7200(3) 1.0407(3)
H45 H 0.3825 0.6903 1.0638
H46 H 0.3844 0.7679 1.0626
C67 C 0.4177(4) 0.7052(3) 0.9917(3)
H47 H 0.3961 0.6588 0.9687
H48 H 0.4838 0.7097 1.0045
H49 H 0.4060 0.7375 0.9708
C68 C -0.1654(3) 0.6612(2) 0.91501(17)
C69 C -0.2998(3) 0.6894(3) 0.86611(18)
H50 H -0.3168 0.6395 0.8522
H51 H -0.3108 0.7090 0.8353
C70 C -0.3585(3) 0.7185(3) 0.9088(2)
H52 H -0.4237 0.7066 0.8929
H53 H -0.3431 0.7681 0.9214
H54 H -0.3466 0.6996 0.9395
C71 C -0.1069(3) 0.5429(2) 0.97932(17)
C72 C -0.1451(3) 0.4244(2) 0.90872(17)
C73 C -0.1167(3) 0.3397(2) 0.80635(17)
C74 C -0.0194(3) 0.3503(2) 0.81338(17)
H55 H 0.0155 0.3603 0.8485
C75 C 0.0255(3) 0.3461(2) 0.76786(17)
H56 H 0.0905 0.3544 0.7722
C76 C -0.0282(3) 0.32900(19) 0.71524(16)
C77 C -0.1253(3) 0.3154(2) 0.70779(17)
H57 H -0.1601 0.3027 0.6724
C78 C -0.1700(3) 0.3210(2) 0.75395(17)
H58 H -0.2350 0.3124 0.7497
C79 C 0.0447(3) 0.4190(2) 0.66059(17)
C80 C -0.0271(3) 0.4490(2) 0.63951(17)
H59 H -0.0850 0.4226 0.6238
C81 C -0.0125(3) 0.5183(2) 0.64183(18)
H60 H -0.0609 0.5391 0.6281
C82 C 0.0745(3) 0.5569(2) 0.66479(18)
C83 C 0.1459(3) 0.5267(2) 0.6868(2)
H61 H 0.2038 0.5531 0.7028
C84 C 0.1313(3) 0.4577(2) 0.6850(2)
H62 H 0.1788 0.4372 0.7000
C85 C 0.1020(3) 0.6876(2) 0.73365(18)
C86 C 0.1227(3) 0.7538(2) 0.83537(18)
S16 S 0.59005(8) 0.43560(6) 0.86394(5)
S17 S 0.40579(7) 0.60747(6) 0.71349(4)
S18 S 0.36551(8) 0.88446(6) 0.86389(5)
S19 S 0.62329(8) 0.92055(6) 1.09183(5)
S20 S 0.67298(9) 0.61580(6) 1.09834(5)
O19 O 0.6957(3) 0.4244(2) 0.77002(16)
O20 O 0.7307(2) 0.53178(19) 0.75976(15)
O21 O 0.2875(2) 0.61929(17) 0.80471(14)
O22 O 0.2770(3) 0.5312(3) 0.8401(3)
O23 O 0.5702(2) 0.94903(15) 1.13412(12)
O24 O 0.7136(2) 0.95572(17) 1.09039(14)
N25 N 0.3556(2) 0.73169(19) 0.73532(15)
N26 N 0.3480(2) 0.79263(19) 0.76880(15)
N27 N 0.4497(3) 0.76965(18) 0.84089(16)
N28 N 0.4594(3) 0.70956(18) 0.80664(16)
N29 N 0.6178(2) 0.49772(18) 1.02280(16)
N30 N 0.5971(2) 0.45766(18) 0.97104(16)
N31 N 0.5920(2) 0.55820(17) 0.93884(14)
N32 N 0.6119(2) 0.59807(17) 0.99047(14)
C87 C 0.5403(3) 0.4871(2) 0.82368(17)
C88 C 0.5843(3) 0.5041(2) 0.78293(17)
C89 C 0.5413(3) 0.5432(2) 0.75142(17)
H63 H 0.5704 0.5545 0.7238
C90 C 0.4557(3) 0.5652(2) 0.76100(16)
C91 C 0.4121(3) 0.5486(2) 0.80265(17)
C92 C 0.4547(3) 0.5098(2) 0.83358(17)
H64 H 0.4258 0.4988 0.8614
C93 C 0.6768(3) 0.4811(3) 0.77029(18)
C94 C 0.8217(3) 0.5168(4) 0.7429(3)
H65 H 0.8201 0.4669 0.7292
H66 H 0.8318 0.5367 0.7130
C95 C 0.8952(4) 0.5429(4) 0.7858(3)
H67 H 0.9534 0.5364 0.7721
H68 H 0.8899 0.5190 0.8135
H69 H 0.8937 0.5915 0.8018
C96 C 0.3201(3) 0.5722(2) 0.81632(19)
C97 C 0.1734(5) 0.5369(5) 0.8478(3)
H70 H 0.1420 0.5580 0.8217
H71 H 0.1386 0.4919 0.8441
C98 C 0.1854(6) 0.5803(5) 0.9026(3)
H72 H 0.2193 0.5589 0.9270
H73 H 0.1251 0.5873 0.9133
H74 H 0.2199 0.6243 0.9048
C99 C 0.4064(3) 0.6905(2) 0.75700(17)
C100 C 0.3904(3) 0.8071(2) 0.82160(18)
C101 C 0.4415(3) 0.8925(2) 0.92683(18)
C102 C 0.5386(3) 0.8977(2) 0.93005(19)
H75 H 0.5658 0.8957 0.8985
C103 C 0.5943(3) 0.9058(2) 0.98011(19)
H76 H 0.6591 0.9086 0.9825
C104 C 0.5529(3) 0.9098(2) 1.02688(18)
C105 C 0.4570(3) 0.9060(2) 1.0244(2)
H77 H 0.4301 0.9094 1.0562
C106 C 0.4012(4) 0.8970(3) 0.97372(19)
H78 H 0.3364 0.8940 0.9715
C107 C 0.6384(3) 0.8350(2) 1.09377(17)
C108 C 0.7022(3) 0.8007(2) 1.06428(17)
H79 H 0.7374 0.8225 1.0440
C109 C 0.7129(3) 0.7340(2) 1.06540(17)
H80 H 0.7560 0.7107 1.0461
C110 C 0.6594(3) 0.7017(2) 1.09532(16)
C111 C 0.5976(3) 0.7368(2) 1.12617(17)
H81 H 0.5634 0.7152 1.1470
C112 C 0.5870(3) 0.8041(2) 1.12586(17)
H82 H 0.5464 0.8283 1.1467
C113 C 0.6318(3) 0.5667(2) 1.02993(17)
C114 C 0.5929(3) 0.4898(2) 0.93109(17)
O25 O 0.1635(5) 0.5466(3) 0.5409(2)
C115 C 0.2593(9) 0.4781(9) 0.5787(4)
H83 H 0.3194 0.4726 0.5673
H84 H 0.2411 0.4421 0.5950
H85 H 0.2630 0.5225 0.6053
C116 C 0.1833(7) 0.4734(4) 0.5261(5)
H86 H 0.2092 0.4613 0.4919
H87 H 0.1280 0.4408 0.5234
C117 C 0.1109(6) 0.5590(5) 0.4978(4)
H88 H 0.0544 0.5256 0.4857
H89 H 0.1457 0.5543 0.4671
C118 C 0.0873(7) 0.6257(4) 0.5136(3)
H90 H 0.0575 0.6370 0.4818
H91 H 0.1430 0.6582 0.5301
H92 H 0.0450 0.6282 0.5401
O26 O 0.1743(6) 0.0528(3) 0.0468(3)
C119 C 0.2677(7) -0.0166(7) 0.0843(4)
H93 H 0.3269 -0.0123 0.0716
H94 H 0.2588 -0.0592 0.0943
H95 H 0.2669 0.0218 0.1160
C120 C 0.1849(7) -0.0170(4) 0.0359(4)
H96 H 0.2026 -0.0346 -0.0003
H97 H 0.1277 -0.0447 0.0380
C121 C 0.1217(7) 0.0635(6) 0.0048(4)
H98 H 0.0681 0.0273 -0.0069
H99 H 0.1573 0.0579 -0.0256
C122 C 0.0881(9) 0.1276(5) 0.0129(3)
H100 H 0.0574 0.1312 -0.0218
H101 H 0.1395 0.1644 0.0275
H102 H 0.0442 0.1311 0.0385
loop_
_geom_bond_atom_site_label_1
_geom_bond_atom_site_label_2
_geom_bond_site_symmetry_1
_geom_bond_site_symmetry_2
Cl1 C1 1_555 1_555
Cl2 C1 1_555 1_555
Cl3 C1 1_555 1_555
C1 H1 1_555 1_555
Cl4 C2 1_555 1_555
Cl5 C2 1_555 1_555
Cl6 C2 1_555 1_555
C2 H2 1_555 1_555
S1 C3 1_555 1_555
S2 C6 1_555 1_555
S3 C16 1_555 1_555
S4 O5 1_555 1_555
S5 C26 1_555 1_555
O1 C9 1_555 1_555
O2 C9 1_555 1_555
O3 C12 1_555 1_555
O4 C12 1_555 1_555
O6 S4 1_555 1_555
N1 N2 1_555 1_555
N2 C16 1_555 1_555
N3 N4 1_555 1_555
N4 C15 1_555 1_555
N5 N6 1_555 1_555
N6 C30 1_555 1_555
N7 N8 1_555 1_555
N8 C29 1_555 1_555
C3 C4 1_555 1_555
C4 C5 1_555 1_555
C5 H3 1_555 1_555
C6 C5 1_555 1_555
C7 C6 1_555 1_555
C8 C3 1_555 1_555
H4 C8 1_555 1_555
C9 C4 1_555 1_555
C10 O2 1_555 1_555
H5 C10 1_555 1_555
H6 C10 1_555 1_555
C11 C10 1_555 1_555
H7 C11 1_555 1_555
H8 C11 1_555 1_555
H9 C11 1_555 1_555
C12 C7 1_555 1_555
C13 O4 1_555 1_555
H10 C13 1_555 1_555
H11 C13 1_555 1_555
C14 C13 1_555 1_555
H12 C14 1_555 1_555
H13 C14 1_555 1_555
H14 C14 1_555 1_555
C15 S2 1_555 1_555
C16 N3 1_555 1_555
C17 S3 1_555 1_555
C18 C17 1_555 1_555
H15 C18 1_555 1_555
C19 C18 1_555 1_555
H16 C19 1_555 1_555
C20 S4 1_555 1_555
C21 C20 1_555 1_555
H17 C21 1_555 1_555
C22 C17 1_555 1_555
H18 C22 1_555 1_555
C23 S4 1_555 1_555
C24 C23 1_555 1_555
H19 C24 1_555 1_555
C25 C24 1_555 1_555
H20 C25 1_555 1_555
C26 C25 1_555 1_555
C27 C26 1_555 1_555
H21 C27 1_555 1_555
C28 C23 1_555 1_555
H22 C28 1_555 1_555
C29 S5 1_555 1_555
C30 S1 1_555 1_555
S6 C31 1_555 1_555
S7 C34 1_555 1_555
S8 C44 1_555 1_555
S9 O11 1_555 1_555
S10 C54 1_555 1_555
O7 C37 1_555 1_555
O8 C37 1_555 1_555
O9 C40 1_555 1_555
O10 C40 1_555 1_555
O12 S9 1_555 1_555
N9 N10 1_555 1_555
N10 C44 1_555 1_555
N11 N12 1_555 1_555
N12 C43 1_555 1_555
N13 N14 1_555 1_555
N14 C57 1_555 1_555
N15 N16 1_555 1_555
N16 C58 1_555 1_555
C31 C32 1_555 1_555
C32 C33 1_555 1_555
C33 H23 1_555 1_555
C34 C33 1_555 1_555
C35 C34 1_555 1_555
C36 C31 1_555 1_555
H24 C36 1_555 1_555
C37 C32 1_555 1_555
C38 O8 1_555 1_555
H25 C38 1_555 1_555
H26 C38 1_555 1_555
C39 C38 1_555 1_555
H27 C39 1_555 1_555
H28 C39 1_555 1_555
H29 C39 1_555 1_555
C40 C35 1_555 1_555
C41 O10 1_555 1_555
H30 C41 1_555 1_555
H31 C41 1_555 1_555
C42 C41 1_555 1_555
H32 C42 1_555 1_555
H33 C42 1_555 1_555
H34 C42 1_555 1_555
C43 S7 1_555 1_555
C44 N11 1_555 1_555
C45 S8 1_555 1_555
C46 C45 1_555 1_555
H35 C46 1_555 1_555
C47 C46 1_555 1_555
H36 C47 1_555 1_555
C48 S9 1_555 1_555
C49 C48 1_555 1_555
H37 C49 1_555 1_555
C50 C45 1_555 1_555
H38 C50 1_555 1_555
C51 S9 1_555 1_555
C52 C51 1_555 1_555
H39 C52 1_555 1_555
C53 C52 1_555 1_555
H40 C53 1_555 1_555
C54 C53 1_555 1_555
C55 C54 1_555 1_555
H41 C55 1_555 1_555
C56 C51 1_555 1_555
H42 C56 1_555 1_555
C57 S10 1_555 1_555
C58 S6 1_555 1_555
S11 C59 1_555 1_555
S12 C62 1_555 1_555
S13 C72 1_555 1_555
S14 O17 1_555 1_555
S15 C82 1_555 1_555
O13 C65 1_555 1_555
O14 C65 1_555 1_555
O15 C68 1_555 1_555
O16 C68 1_555 1_555
O18 S14 1_555 1_555
N17 N18 1_555 1_555
N18 C72 1_555 1_555
N19 N20 1_555 1_555
N20 C71 1_555 1_555
N21 N22 1_555 1_555
N22 C85 1_555 1_555
N23 N24 1_555 1_555
N24 C86 1_555 1_555
C59 C60 1_555 1_555
C60 C61 1_555 1_555
C61 H43 1_555 1_555
C62 C61 1_555 1_555
C63 C62 1_555 1_555
C64 C59 1_555 1_555
H44 C64 1_555 1_555
C65 C60 1_555 1_555
C66 O14 1_555 1_555
H45 C66 1_555 1_555
H46 C66 1_555 1_555
C67 C66 1_555 1_555
H47 C67 1_555 1_555
H48 C67 1_555 1_555
H49 C67 1_555 1_555
C68 C63 1_555 1_555
C69 O16 1_555 1_555
H50 C69 1_555 1_555
H51 C69 1_555 1_555
C70 C69 1_555 1_555
H52 C70 1_555 1_555
H53 C70 1_555 1_555
H54 C70 1_555 1_555
C71 S12 1_555 1_555
C72 N19 1_555 1_555
C73 S13 1_555 1_555
C74 C73 1_555 1_555
H55 C74 1_555 1_555
C75 C74 1_555 1_555
H56 C75 1_555 1_555
C76 S14 1_555 1_555
C77 C76 1_555 1_555
H57 C77 1_555 1_555
C78 C73 1_555 1_555
H58 C78 1_555 1_555
C79 S14 1_555 1_555
C80 C79 1_555 1_555
H59 C80 1_555 1_555
C81 C80 1_555 1_555
H60 C81 1_555 1_555
C82 C81 1_555 1_555
C83 C82 1_555 1_555
H61 C83 1_555 1_555
C84 C79 1_555 1_555
H62 C84 1_555 1_555
C85 S15 1_555 1_555
C86 S11 1_555 1_555
S16 C87 1_555 1_555
S17 C90 1_555 1_555
S18 C100 1_555 1_555
S19 O23 1_555 1_555
S20 C110 1_555 1_555
O19 C93 1_555 1_555
O20 C93 1_555 1_555
O21 C96 1_555 1_555
O22 C96 1_555 1_555
O24 S19 1_555 1_555
N25 N26 1_555 1_555
N26 C100 1_555 1_555
N27 N28 1_555 1_555
N28 C99 1_555 1_555
N29 N30 1_555 1_555
N30 C114 1_555 1_555
N31 N32 1_555 1_555
N32 C113 1_555 1_555
C87 C88 1_555 1_555
C88 C89 1_555 1_555
C89 H63 1_555 1_555
C90 C89 1_555 1_555
C91 C90 1_555 1_555
C92 C87 1_555 1_555
H64 C92 1_555 1_555
C93 C88 1_555 1_555
C94 O20 1_555 1_555
H65 C94 1_555 1_555
H66 C94 1_555 1_555
C95 C94 1_555 1_555
H67 C95 1_555 1_555
H68 C95 1_555 1_555
H69 C95 1_555 1_555
C96 C91 1_555 1_555
C97 O22 1_555 1_555
H70 C97 1_555 1_555
H71 C97 1_555 1_555
C98 C97 1_555 1_555
H72 C98 1_555 1_555
H73 C98 1_555 1_555
H74 C98 1_555 1_555
C99 S17 1_555 1_555
C100 N27 1_555 1_555
C101 S18 1_555 1_555
C102 C101 1_555 1_555
H75 C102 1_555 1_555
C103 C102 1_555 1_555
H76 C103 1_555 1_555
C104 S19 1_555 1_555
C105 C104 1_555 1_555
H77 C105 1_555 1_555
C106 C101 1_555 1_555
H78 C106 1_555 1_555
C107 S19 1_555 1_555
C108 C107 1_555 1_555
H79 C108 1_555 1_555
C109 C108 1_555 1_555
H80 C109 1_555 1_555
C110 C109 1_555 1_555
C111 C110 1_555 1_555
H81 C111 1_555 1_555
C112 C107 1_555 1_555
H82 C112 1_555 1_555
C113 S20 1_555 1_555
C114 S16 1_555 1_555
O25 C116 1_555 1_555
C115 H83 1_555 1_555
H84 C115 1_555 1_555
H85 C115 1_555 1_555
C116 C115 1_555 1_555
H86 C116 1_555 1_555
H87 C116 1_555 1_555
C117 O25 1_555 1_555
H88 C117 1_555 1_555
H89 C117 1_555 1_555
C118 C117 1_555 1_555
H90 C118 1_555 1_555
H91 C118 1_555 1_555
H92 C118 1_555 1_555
O26 C120 1_555 1_555
C119 H93 1_555 1_555
H94 C119 1_555 1_555
H95 C119 1_555 1_555
C120 C119 1_555 1_555
H96 C120 1_555 1_555
H97 C120 1_555 1_555
C121 O26 1_555 1_555
H98 C121 1_555 1_555
H99 C121 1_555 1_555
C122 C121 1_555 1_555
H100 C122 1_555 1_555
H101 C122 1_555 1_555
H102 C122 1_555 1_555
N1 C15 1_555 1_555
N5 C29 1_555 1_555
N7 C30 1_555 1_555
C7 C8 1_555 1_555
C19 C20 1_555 1_555
C21 C22 1_555 1_555
C27 C28 1_555 1_555
N9 C43 1_555 1_555
N13 C58 1_555 1_555
N15 C57 1_555 1_555
C35 C36 1_555 1_555
C47 C48 1_555 1_555
C49 C50 1_555 1_555
C55 C56 1_555 1_555
N17 C71 1_555 1_555
N21 C86 1_555 1_555
N23 C85 1_555 1_555
C63 C64 1_555 1_555
C75 C76 1_555 1_555
C77 C78 1_555 1_555
C83 C84 1_555 1_555
N25 C99 1_555 1_555
N29 C113 1_555 1_555
N31 C114 1_555 1_555
C91 C92 1_555 1_555
C103 C104 1_555 1_555
C105 C106 1_555 1_555
C111 C112 1_555 1_555

#END
