
#######################################################################
#
#                 Cambridge Crystallographic Data Centre
#                                CCDC 
#
#######################################################################
#
# If this CIF has been generated from an entry in the Cambridge 
# Structural Database, then it will include bibliographic, chemical, 
# crystal, experimental, refinement or atomic coordinate data resulting 
# from the CCDC's data processing and validation procedures.
#
#######################################################################

data_HAWFET
_chemical_formula_moiety         'C29 H22 N8 O4 S4'
_chemical_name_systematic        
'diethyl 2,7,12,17-tetrathia-4,5,14,15,30,31,34,35-octaazahexacyclo[21.2.2.2^3,6^.2^8,11^.2^13,16^.2^18,21^]pentatriaconta-1(25),3,5,8,10,13,15,18,20,23,26,28,30,32,34-pentadecaene-9,32-dicarboxylate'
_symmetry_cell_setting           orthorhombic
_symmetry_space_group_name_H-M   'P b c a'
_symmetry_Int_Tables_number      61
_space_group_name_Hall           '-P 2ac 2ab'
loop_
_symmetry_equiv_pos_site_id
_symmetry_equiv_pos_as_xyz
1 x,y,z
2 1/2-x,-y,1/2+z
3 1/2+x,1/2-y,-z
4 -x,1/2+y,1/2-z
5 -x,-y,-z
6 1/2+x,y,1/2-z
7 1/2-x,1/2+y,z
8 x,1/2-y,1/2+z
_cell_length_a                   14.427(3)
_cell_length_b                   18.962(4)
_cell_length_c                   22.613(5)
_cell_angle_alpha                90
_cell_angle_beta                 90
_cell_angle_gamma                90
_cell_volume                     6186.12
_exptl_crystal_colour            red
_exptl_crystal_description       block
_cell_formula_units_Z            8
loop_
_atom_site_label
_atom_site_type_symbol
_atom_site_fract_x
_atom_site_fract_y
_atom_site_fract_z
S1 S 0.52359(4) 0.10303(3) 0.71729(3)
S2 S 0.65666(4) 0.40117(3) 0.62237(3)
S3 S 0.75785(5) 0.57134(3) 0.83960(3)
S4 S 0.48422(6) 0.11683(4) 0.98228(3)
O1 O 0.34393(11) 0.27574(8) 0.66439(7)
N1 N 0.54129(13) 0.17180(9) 0.82022(8)
O2 O 0.82580(10) 0.32566(8) 0.67305(7)
O3 O 0.82725(11) 0.22460(9) 0.62045(8)
C1 C 0.62299(15) 0.31874(10) 0.65396(9)
N2 N 0.53349(13) 0.17498(9) 0.87873(8)
O4 O 0.36509(11) 0.20335(8) 0.74185(7)
C2 C 0.68583(14) 0.26368(11) 0.66325(9)
N3 N 0.66603(15) 0.41880(9) 0.73930(9)
C3 C 0.39515(15) 0.23748(11) 0.70136(10)
C4 C 0.51189(14) 0.11294(11) 0.79380(10)
N4 N 0.47576(16) 0.05625(10) 0.82084(10)
C5 C 0.65290(14) 0.19907(10) 0.68389(9)
H1 H 0.6940 0.1618 0.6892
N5 N 0.72776(13) 0.50979(10) 0.67835(9)
C6 C 0.52896(15) 0.30835(11) 0.66482(9)
H2 H 0.4873 0.3447 0.6572
N6 N 0.46748(18) 0.05948(11) 0.87903(10)
C7 C 0.55971(15) 0.18956(10) 0.69657(9)
N7 N 0.74723(14) 0.54701(10) 0.72594(9)
C8 C 0.49630(14) 0.24433(11) 0.68689(9)
C9 C 0.72670(15) 0.51861(11) 0.77883(11)
C10 C 0.68599(15) 0.44696(11) 0.68690(10)
C11 C 0.71792(17) 0.52192(12) 0.90127(11)
C12 C 0.78715(15) 0.26843(11) 0.64935(10)
C13 C 0.49634(17) 0.11869(12) 0.90544(11)
N8 N 0.68781(16) 0.45566(10) 0.78729(9)
C14 C 0.59542(18) 0.46772(14) 0.95668(11)
H3 H 0.5334 0.4550 0.9598
C15 C 0.92429(16) 0.33591(13) 0.66094(12)
H4 H 0.9360 0.3339 0.6187
H5 H 0.9607 0.2995 0.6801
C16 C 0.6183(2) 0.21530(15) 1.00679(11)
H6 H 0.6609 0.1799 0.9983
C17 C 0.5247(2) 0.20212(15) 1.00204(11)
C18 C 0.24433(15) 0.27635(13) 0.67605(12)
H7 H 0.2312 0.3020 0.7122
H8 H 0.2213 0.2286 0.6803
C19 C 0.5872(2) 0.33503(15) 1.03735(11)
C20 C 0.6230(2) 0.40742(15) 1.05476(11)
H9 H 0.6736 0.4020 1.0826
H10 H 0.5738 0.4335 1.0743
C21 C 0.65657(19) 0.44904(13) 1.00144(11)
C22 C 0.62493(17) 0.50491(12) 0.90745(11)
H11 H 0.5825 0.5184 0.8786
C23 C 0.77990(19) 0.50327(14) 0.94545(13)
H12 H 0.8424 0.5142 0.9415
C24 C 0.6491(2) 0.28139(14) 1.02431(11)
H13 H 0.7124 0.2899 1.0273
C25 C 0.19946(19) 0.31167(15) 0.62457(13)
H14 H 0.2146 0.2866 0.5890
H15 H 0.2215 0.3593 0.6216
H16 H 0.1335 0.3119 0.6300
C26 C 0.4620(2) 0.25495(17) 1.01529(13)
H17 H 0.3987 0.2463 1.0123
C27 C 0.7486(2) 0.46831(14) 0.99555(12)
H18 H 0.7902 0.4577 1.0257
C28 C 0.4931(2) 0.32073(16) 1.03300(13)
H19 H 0.4504 0.3558 1.0421
C29 C 0.9492(2) 0.40681(15) 0.68477(16)
H20 H 0.9159 0.4425 0.6635
H21 H 1.0147 0.4144 0.6802
H22 H 0.9332 0.4091 0.7259
loop_
_geom_bond_atom_site_label_1
_geom_bond_atom_site_label_2
_geom_bond_site_symmetry_1
_geom_bond_site_symmetry_2
S1 C4 1_555 1_555
S2 C1 1_555 1_555
S3 C9 1_555 1_555
S4 C13 1_555 1_555
O1 C3 1_555 1_555
N1 N2 1_555 1_555
O2 C12 1_555 1_555
O3 C12 1_555 1_555
C1 C2 1_555 1_555
N2 C13 1_555 1_555
O4 C3 1_555 1_555
C2 C5 1_555 1_555
N3 C10 1_555 1_555
C3 C8 1_555 1_555
C4 N1 1_555 1_555
N4 C4 1_555 1_555
C5 H1 1_555 1_555
N5 N7 1_555 1_555
C6 C1 1_555 1_555
H2 C6 1_555 1_555
N6 N4 1_555 1_555
C7 S1 1_555 1_555
N7 C9 1_555 1_555
C8 C6 1_555 1_555
C9 N8 1_555 1_555
C10 S2 1_555 1_555
C11 S3 1_555 1_555
C12 C2 1_555 1_555
C13 N6 1_555 1_555
N8 N3 1_555 1_555
C14 H3 1_555 1_555
C15 O2 1_555 1_555
H4 C15 1_555 1_555
H5 C15 1_555 1_555
C16 H6 1_555 1_555
C17 S4 1_555 1_555
C18 O1 1_555 1_555
H7 C18 1_555 1_555
H8 C18 1_555 1_555
C19 C20 1_555 1_555
C20 H9 1_555 1_555
H10 C20 1_555 1_555
C21 C14 1_555 1_555
C22 C11 1_555 1_555
H11 C22 1_555 1_555
C23 C11 1_555 1_555
H12 C23 1_555 1_555
C24 C16 1_555 1_555
H13 C24 1_555 1_555
C25 C18 1_555 1_555
H14 C25 1_555 1_555
H15 C25 1_555 1_555
H16 C25 1_555 1_555
C26 C17 1_555 1_555
H17 C26 1_555 1_555
C27 C21 1_555 1_555
H18 C27 1_555 1_555
C28 C19 1_555 1_555
H19 C28 1_555 1_555
C29 C15 1_555 1_555
H20 C29 1_555 1_555
H21 C29 1_555 1_555
H22 C29 1_555 1_555
C5 C7 1_555 1_555
N5 C10 1_555 1_555
C7 C8 1_555 1_555
C14 C22 1_555 1_555
C16 C17 1_555 1_555
C19 C24 1_555 1_555
C20 C21 1_555 1_555
C23 C27 1_555 1_555
C26 C28 1_555 1_555

#END
