
#######################################################################
#
#                 Cambridge Crystallographic Data Centre
#                                CCDC 
#
#######################################################################
#
# If this CIF has been generated from an entry in the Cambridge 
# Structural Database, then it will include bibliographic, chemical, 
# crystal, experimental, refinement or atomic coordinate data resulting 
# from the CCDC's data processing and validation procedures.
#
#######################################################################

data_HAWSED
_chemical_formula_moiety         'C22 H18 Cl2 N2 O2'
_chemical_name_systematic        
1-(m-Chlorobenzaldoxime-O)-2-(m-chlorobenzaldoxime-N)-1,2-dihydrostyrene
_symmetry_cell_setting           monoclinic
_symmetry_space_group_name_H-M   'P 21/n'
_symmetry_Int_Tables_number      14
_space_group_name_Hall           '-P 2yn'
loop_
_symmetry_equiv_pos_site_id
_symmetry_equiv_pos_as_xyz
1 x,y,z
2 1/2-x,1/2+y,1/2-z
3 -x,-y,-z
4 1/2+x,1/2-y,1/2+z
_cell_length_a                   5.4093(9)
_cell_length_b                   11.4172(22)
_cell_length_c                   32.3627(70)
_cell_angle_alpha                90
_cell_angle_beta                 94.252(16)
_cell_angle_gamma                90
_cell_volume                     1993.19
_chemical_melting_point          113-115deg.C
_cell_formula_units_Z            4
loop_
_atom_site_label
_atom_site_type_symbol
_atom_site_fract_x
_atom_site_fract_y
_atom_site_fract_z
Cl1 Cl -0.5884(1) -0.1165(1) 0.1417(1)
Cl2 Cl -0.2398(2) -0.4197(1) 0.0573(1)
C1 C -0.0043(5) 0.0147(3) 0.0667(1)
N1 N 0.2454(4) 0.1566(2) 0.1935(1)
O1 O 0.3690(4) 0.1073(2) 0.0598(1)
O2 O 0.0937(3) 0.1594(2) 0.1563(1)
C2 C -0.0967(5) -0.1927(3) 0.0596(1)
C3 C -0.0509(5) -0.3029(2) 0.0449(1)
C4 C 0.1417(5) -0.3236(3) 0.0206(1)
C5 C 0.2916(6) -0.2315(3) 0.0111(1)
C6 C 0.2531(5) -0.1206(3) 0.0260(1)
C7 C 0.0572(5) -0.0990(2) 0.0502(1)
N2 N 0.1421(5) 0.1054(2) 0.0695(1)
C8 C 0.0566(6) 0.2171(2) 0.0868(1)
C9 C 0.1913(5) 0.2429(2) 0.1285(1)
C10 C 0.1537(5) 0.3677(2) 0.1413(1)
C11 C 0.3100(5) 0.4539(2) 0.1285(1)
C12 C 0.2740(6) 0.5699(3) 0.1389(1)
C13 C 0.0838(6) 0.6014(3) 0.1619(1)
C14 C -0.0730(6) 0.5175(3) 0.1751(1)
C15 C -0.0377(5) 0.4007(2) 0.1647(1)
C16 C 0.1785(6) 0.0764(3) 0.2178(1)
C17 C -0.0138(5) -0.0141(2) 0.2146(1)
C18 C -0.0025(2) -0.1020(3) 0.2450(1)
C19 C -0.1712(6) -0.1917(2) 0.2434(1)
C20 C -0.3585(5) -0.1972(2) 0.2123(1)
C21 C -0.3702(5) -0.1110(2) 0.1825(1)
C22 C -0.2029(5) -0.0205(2) 0.1833(1)
loop_
_geom_bond_atom_site_label_1
_geom_bond_atom_site_label_2
_geom_bond_site_symmetry_1
_geom_bond_site_symmetry_2
Cl1 C21 1_555 1_555
Cl2 C3 1_555 1_555
C1 C7 1_555 1_555
N1 O2 1_555 1_555
O1 N2 1_555 1_555
O2 C9 1_555 1_555
C2 C3 1_555 1_555
C3 C4 1_555 1_555
C4 C5 1_555 1_555
C5 C6 1_555 1_555
C6 C7 1_555 1_555
C7 C2 1_555 1_555
N2 C1 1_555 1_555
C8 N2 1_555 1_555
C9 C8 1_555 1_555
C10 C9 1_555 1_555
C11 C10 1_555 1_555
C12 C11 1_555 1_555
C13 C12 1_555 1_555
C14 C13 1_555 1_555
C15 C10 1_555 1_555
C16 N1 1_555 1_555
C17 C16 1_555 1_555
C18 C17 1_555 1_555
C19 C18 1_555 1_555
C20 C19 1_555 1_555
C21 C20 1_555 1_555
C22 C17 1_555 1_555
C14 C15 1_555 1_555
C21 C22 1_555 1_555

#END
