
#######################################################################
#
#                 Cambridge Crystallographic Data Centre
#                                CCDC 
#
#######################################################################
#
# If this CIF has been generated from an entry in the Cambridge 
# Structural Database, then it will include bibliographic, chemical, 
# crystal, experimental, refinement or atomic coordinate data resulting 
# from the CCDC's data processing and validation procedures.
#
#######################################################################

data_HAWSOO
_chemical_formula_moiety         'C8 H8 N2 O4'
_chemical_name_systematic        2,3-Dinitro-p-xylene
_symmetry_cell_setting           monoclinic
_symmetry_space_group_name_H-M   'P 21/n'
_symmetry_Int_Tables_number      14
_space_group_name_Hall           '-P 2yn'
loop_
_symmetry_equiv_pos_site_id
_symmetry_equiv_pos_as_xyz
1 x,y,z
2 1/2-x,1/2+y,1/2-z
3 -x,-y,-z
4 1/2+x,1/2-y,1/2+z
_cell_length_a                   7.5941(15)
_cell_length_b                   11.825(2)
_cell_length_c                   10.331(2)
_cell_angle_alpha                90
_cell_angle_beta                 98.74(3)
_cell_angle_gamma                90
_cell_volume                     916.953
_exptl_crystal_colour            colorless
_exptl_crystal_description       Block
_cell_formula_units_Z            4
loop_
_atom_site_label
_atom_site_type_symbol
_atom_site_fract_x
_atom_site_fract_y
_atom_site_fract_z
O1 O 0.1385(3) 0.01172(19) 0.62627(18)
O2 O 0.3253(2) -0.01099(15) 0.80371(18)
O3 O 0.3450(2) 0.23527(15) 0.78901(18)
O4 O 0.3984(2) 0.2201(2) 0.99902(19)
N1 N 0.1838(2) 0.02226(15) 0.74334(18)
N2 N 0.3008(2) 0.21201(15) 0.8945(2)
C1 C -0.1133(2) 0.03540(15) 0.81438(17)
C2 C 0.0577(2) 0.07798(15) 0.81901(17)
C3 C 0.1174(2) 0.17105(15) 0.89547(17)
C4 C 0.0073(2) 0.22945(15) 0.96836(17)
C5 C -0.1646(2) 0.18624(17) 0.96359(18)
H1 H -0.2433 0.2223 1.0107
C6 C -0.2211(2) 0.09163(17) 0.89100(19)
H2 H -0.3355 0.0644 0.8933
C7 C -0.1819(3) -0.06688(18) 0.7344(2)
H3 H -0.2000 -0.0476 0.6431
H4 H -0.2927 -0.0909 0.7594
H5 H -0.0964 -0.1271 0.7500
C8 C 0.0653(3) 0.33570(17) 1.0433(2)
H6 H 0.1461 0.3166 1.1209
H7 H -0.0371 0.3732 1.0672
H8 H 0.1238 0.3850 0.9894
loop_
_geom_bond_atom_site_label_1
_geom_bond_atom_site_label_2
_geom_bond_site_symmetry_1
_geom_bond_site_symmetry_2
O1 N1 1_555 1_555
O2 N1 1_555 1_555
O3 N2 1_555 1_555
O4 N2 1_555 1_555
N1 C2 1_555 1_555
N2 C3 1_555 1_555
C1 C2 1_555 1_555
C2 C3 1_555 1_555
C3 C4 1_555 1_555
C4 C5 1_555 1_555
C5 H1 1_555 1_555
C6 C1 1_555 1_555
H2 C6 1_555 1_555
C7 C1 1_555 1_555
H3 C7 1_555 1_555
H4 C7 1_555 1_555
H5 C7 1_555 1_555
C8 C4 1_555 1_555
H6 C8 1_555 1_555
H7 C8 1_555 1_555
H8 C8 1_555 1_555
C5 C6 1_555 1_555

#END
