
#######################################################################
#
#                 Cambridge Crystallographic Data Centre
#                                CCDC 
#
#######################################################################
#
# If this CIF has been generated from an entry in the Cambridge 
# Structural Database, then it will include bibliographic, chemical, 
# crystal, experimental, refinement or atomic coordinate data resulting 
# from the CCDC's data processing and validation procedures.
#
#######################################################################

data_HAXFUI
_chemical_formula_moiety         'C17 H22 N3 1+,Cl1 1-'
_chemical_name_systematic        
'trans-(1S,2S)-3-(2-Dimethylammoniomethylcyclopentyl)-1H-indole-5-carbonitrile chloride'
_symmetry_cell_setting           orthorhombic
_symmetry_space_group_name_H-M   'P 21 21 21'
_symmetry_Int_Tables_number      19
_space_group_name_Hall           'P 2ac 2ab'
loop_
_symmetry_equiv_pos_site_id
_symmetry_equiv_pos_as_xyz
1 x,y,z
2 1/2-x,-y,1/2+z
3 -x,1/2+y,1/2-z
4 1/2+x,1/2-y,-z
_cell_length_a                   9.0617(1)
_cell_length_b                   9.9837(1)
_cell_length_c                   18.1625(2)
_cell_angle_alpha                90
_cell_angle_beta                 90
_cell_angle_gamma                90
_cell_volume                     1643.15
_exptl_crystal_colour            colorless
_exptl_crystal_description       polyhedral
_cell_formula_units_Z            4
_exptl_crystal_recrystallization_method ethanol
loop_
_atom_site_label
_atom_site_type_symbol
_atom_site_fract_x
_atom_site_fract_y
_atom_site_fract_z
Cl1 Cl 0.92129(5) 0.35999(4) 0.08457(2)
N1 N 0.14339(16) -0.08283(15) 0.24486(7)
H1 H 0.1128 -0.1215 0.2843
N2 N 0.1158(3) -0.22952(18) -0.11313(10)
N3 N 0.73013(14) 0.11043(12) 0.09931(7)
H2 H 0.7534 0.1985 0.0937
C1 C 0.19259(17) -0.06217(15) 0.05141(8)
H3 H 0.2352 -0.0021 0.0185
C2 C 0.12553(19) -0.17856(16) 0.02622(9)
C3 C 0.0615(2) -0.27179(16) 0.07488(10)
H4 H 0.0176 -0.3491 0.0565
C4 C 0.0638(2) -0.24886(18) 0.14951(10)
H5 H 0.0223 -0.3102 0.1820
C5 C 0.12903(17) -0.13273(17) 0.17513(9)
C6 C 0.19476(15) -0.03717(15) 0.12672(8)
C7 C 0.24794(15) 0.07194(16) 0.17127(8)
C8 C 0.21426(18) 0.03867(17) 0.24209(9)
H6 H 0.2363 0.0911 0.2830
C9 C 0.1203(2) -0.20520(17) -0.05164(11)
C10 C 0.32208(17) 0.19693(16) 0.14487(8)
H7 H 0.2962 0.2097 0.0929
C11 C 0.49278(17) 0.19903(16) 0.15138(9)
H8 H 0.5210 0.1779 0.2022
C12 C 0.52772(19) 0.34643(18) 0.13563(10)
H9 H 0.6229 0.3710 0.1559
H10 H 0.5283 0.3637 0.0831
C13 C 0.4040(2) 0.4237(2) 0.17329(14)
H11 H 0.4383 0.4611 0.2195
H12 H 0.3703 0.4964 0.1421
C14 C 0.27952(19) 0.32467(17) 0.18686(11)
H13 H 0.1867 0.3600 0.1687
H14 H 0.2695 0.3062 0.2391
C15 C 0.56499(17) 0.10013(16) 0.09989(9)
H15 H 0.5371 0.0101 0.1144
H16 H 0.5283 0.1151 0.0504
C16 C 0.7913(2) 0.0372(2) 0.03428(12)
H17 H 0.8969 0.0447 0.0341
H18 H 0.7524 0.0754 -0.0102
H19 H 0.7639 -0.0556 0.0371
C17 C 0.8003(2) 0.0638(2) 0.16863(11)
H20 H 0.9055 0.0730 0.1648
H21 H 0.7757 -0.0285 0.1769
H22 H 0.7651 0.1169 0.2091
loop_
_geom_bond_atom_site_label_1
_geom_bond_atom_site_label_2
_geom_bond_site_symmetry_1
_geom_bond_site_symmetry_2
N1 H1 1_555 1_555
N2 C9 1_555 1_555
N3 H2 1_555 1_555
C1 H3 1_555 1_555
C2 C1 1_555 1_555
C3 C2 1_555 1_555
H4 C3 1_555 1_555
C4 C3 1_555 1_555
H5 C4 1_555 1_555
C5 N1 1_555 1_555
C6 C1 1_555 1_555
C7 C6 1_555 1_555
C8 N1 1_555 1_555
H6 C8 1_555 1_555
C9 C2 1_555 1_555
C10 C7 1_555 1_555
H7 C10 1_555 1_555
C11 C10 1_555 1_555
H8 C11 1_555 1_555
C12 C11 1_555 1_555
H9 C12 1_555 1_555
H10 C12 1_555 1_555
C13 C12 1_555 1_555
H11 C13 1_555 1_555
H12 C13 1_555 1_555
C14 C10 1_555 1_555
H13 C14 1_555 1_555
H14 C14 1_555 1_555
C15 N3 1_555 1_555
H15 C15 1_555 1_555
H16 C15 1_555 1_555
C16 N3 1_555 1_555
H17 C16 1_555 1_555
H18 C16 1_555 1_555
H19 C16 1_555 1_555
C17 N3 1_555 1_555
H20 C17 1_555 1_555
H21 C17 1_555 1_555
H22 C17 1_555 1_555
C4 C5 1_555 1_555
C5 C6 1_555 1_555
C7 C8 1_555 1_555
C11 C15 1_555 1_555
C13 C14 1_555 1_555

#END
