
#######################################################################
#
#                 Cambridge Crystallographic Data Centre
#                                CCDC 
#
#######################################################################
#
# If this CIF has been generated from an entry in the Cambridge 
# Structural Database, then it will include bibliographic, chemical, 
# crystal, experimental, refinement or atomic coordinate data resulting 
# from the CCDC's data processing and validation procedures.
#
#######################################################################

data_HAXHUJ
_chemical_formula_moiety         'C5 H12 N2 O3 S1'
_chemical_name_systematic        'Piperazinyl-monomethanesulfonic acid'
_symmetry_cell_setting           monoclinic
_symmetry_space_group_name_H-M   'C 2/c'
_symmetry_Int_Tables_number      15
_space_group_name_Hall           '-C 2yn'
loop_
_symmetry_equiv_pos_site_id
_symmetry_equiv_pos_as_xyz
1 x,y,z
2 1/2+x,1/2+y,z
3 -x,y,1/2-z
4 1/2-x,1/2+y,1/2-z
5 -x,-y,-z
6 1/2-x,1/2-y,-z
7 x,-y,1/2+z
8 1/2+x,1/2-y,1/2+z
_cell_length_a                   17.545(5)
_cell_length_b                   6.822(8)
_cell_length_c                   13.928(2)
_cell_angle_alpha                90
_cell_angle_beta                 108.36(7)
_cell_angle_gamma                90
_cell_volume                     1582.21
_cell_formula_units_Z            8
loop_
_atom_site_label
_atom_site_type_symbol
_atom_site_fract_x
_atom_site_fract_y
_atom_site_fract_z
S1 S 0.1211(1) 0.1276(3) 0.6062(1)
N1 N 0.0833(3) 0.3688(8) 0.4343(4)
O1 O 0.1893(3) 0.2571(8) 0.6587(3)
O2 O 0.1507(3) -0.0365(8) 0.5614(4)
O3 O 0.0720(3) 0.0740(9) 0.6695(4)
N2 N 0.1750(3) 0.5257(9) 0.3161(4)
C1 C 0.1085(4) 0.241(1) 0.3652(5)
C2 C 0.1174(5) 0.360(1) 0.2773(5)
C3 C 0.1493(5) 0.651(1) 0.3887(5)
C4 C 0.1427(4) 0.525(1) 0.4756(5)
C5 C 0.0527(4) 0.271(1) 0.5062(5)
loop_
_geom_bond_atom_site_label_1
_geom_bond_atom_site_label_2
_geom_bond_site_symmetry_1
_geom_bond_site_symmetry_2
S1 O1 1_555 1_555
N1 C1 1_555 1_555
O2 S1 1_555 1_555
O3 S1 1_555 1_555
N2 C2 1_555 1_555
C1 C2 1_555 1_555
C3 N2 1_555 1_555
C4 N1 1_555 1_555
C5 S1 1_555 1_555
N1 C5 1_555 1_555
C3 C4 1_555 1_555

#END
