
#######################################################################
#
#                 Cambridge Crystallographic Data Centre
#                                CCDC 
#
#######################################################################
#
# If this CIF has been generated from an entry in the Cambridge 
# Structural Database, then it will include bibliographic, chemical, 
# crystal, experimental, refinement or atomic coordinate data resulting 
# from the CCDC's data processing and validation procedures.
#
#######################################################################

data_HAXJEV
_chemical_formula_moiety         'C10 H24 N4 O6 S2,2(H2 O1)'
_chemical_name_systematic        
"1,4,7,10-Tetra-azacyclodecane-N,N''-bis(methanesulfonic acid) dihydrate"
_symmetry_cell_setting           monoclinic
_symmetry_space_group_name_H-M   'P 21/n'
_symmetry_Int_Tables_number      14
_space_group_name_Hall           '-P 2yn'
loop_
_symmetry_equiv_pos_site_id
_symmetry_equiv_pos_as_xyz
1 x,y,z
2 1/2-x,1/2+y,1/2-z
3 -x,-y,-z
4 1/2+x,1/2-y,1/2+z
_cell_length_a                   9.142(9)
_cell_length_b                   13.576(7)
_cell_length_c                   14.028(8)
_cell_angle_alpha                90
_cell_angle_beta                 94.096(8)
_cell_angle_gamma                90
_cell_volume                     1736.59
_cell_formula_units_Z            4
loop_
_atom_site_label
_atom_site_type_symbol
_atom_site_fract_x
_atom_site_fract_y
_atom_site_fract_z
S1 S 0.2124(4) 0.0473(3) 0.3828(2)
S2 S -0.3598(4) 0.0238(2) 0.1331(2)
O1 O 0.193(1) 0.1516(6) 0.4032(7)
O2 O 0.235(1) -0.0122(7) 0.4699(6)
O3 O 0.3225(9) 0.0276(7) 0.3152(6)
O4 O -0.2871(9) 0.0418(6) 0.2278(6)
O5 O -0.255(1) -0.0056(7) 0.0636(7)
O6 O -0.457(1) 0.1033(6) 0.0997(7)
N1 N 0.014(1) -0.0923(7) 0.3049(7)
N2 N -0.093(1) -0.1927(6) 0.1368(7)
N3 N -0.386(1) -0.1642(7) 0.1798(6)
N4 N -0.279(1) -0.1156(7) 0.3687(7)
C1 C 0.114(1) -0.137(1) 0.2405(9)
C2 C 0.043(1) -0.2265(9) 0.1928(9)
C3 C -0.204(1) -0.2741(9) 0.1149(9)
C4 C -0.355(1) -0.2294(9) 0.0978(9)
C5 C -0.446(1) -0.2159(9) 0.2600(9)
C6 C -0.430(1) -0.1563(9) 0.3505(8)
C7 C -0.166(1) -0.1947(9) 0.3819(9)
C8 C -0.013(1) -0.1508(9) 0.3909(9)
C9 C 0.037(1) 0.0117(9) 0.3253(9)
C10 C -0.475(1) -0.0800(8) 0.1465(9)
O7 O 0.477(1) 0.3717(7) 0.5294(6)
O8 O 0.238(1) 0.115(1) 0.1358(8)
loop_
_geom_bond_atom_site_label_1
_geom_bond_atom_site_label_2
_geom_bond_site_symmetry_1
_geom_bond_site_symmetry_2
S1 O1 1_555 1_555
S2 O4 1_555 1_555
O2 S1 1_555 1_555
O3 S1 1_555 1_555
O5 S2 1_555 1_555
O6 S2 1_555 1_555
N1 C1 1_555 1_555
N2 C2 1_555 1_555
N3 C4 1_555 1_555
N4 C6 1_555 1_555
C1 C2 1_555 1_555
C3 N2 1_555 1_555
C4 C3 1_555 1_555
C5 N3 1_555 1_555
C6 C5 1_555 1_555
C7 N4 1_555 1_555
C8 N1 1_555 1_555
C9 S1 1_555 1_555
C10 S2 1_555 1_555
N1 C9 1_555 1_555
N3 C10 1_555 1_555
C7 C8 1_555 1_555

#END
