
#######################################################################
#
#                 Cambridge Crystallographic Data Centre
#                                CCDC 
#
#######################################################################
#
# If this CIF has been generated from an entry in the Cambridge 
# Structural Database, then it will include bibliographic, chemical, 
# crystal, experimental, refinement or atomic coordinate data resulting 
# from the CCDC's data processing and validation procedures.
#
#######################################################################

data_HAXJUM
_chemical_formula_moiety         'C29 H46 N4 O8,0.25(C4 H8 O2)'
_chemical_name_systematic        
'Ethyl 3,5-bis((1-((t-butoxycarbonyl)amino)-2-methylpropyl)carbonylamino)benzoate ethyl acetate solvate'
_symmetry_cell_setting           monoclinic
_symmetry_space_group_name_H-M   'P 21'
_symmetry_Int_Tables_number      4
_space_group_name_Hall           'P 2yb'
loop_
_symmetry_equiv_pos_site_id
_symmetry_equiv_pos_as_xyz
1 x,y,z
2 -x,1/2+y,-z
_cell_length_a                   10.8360(10)
_cell_length_b                   23.831(2)
_cell_length_c                   15.1540(10)
_cell_angle_alpha                90
_cell_angle_beta                 107.764(2)
_cell_angle_gamma                90
_cell_volume                     3726.68
_exptl_crystal_colour            colorless
_exptl_crystal_description       prism
_cell_formula_units_Z            4
loop_
_atom_site_label
_atom_site_type_symbol
_atom_site_fract_x
_atom_site_fract_y
_atom_site_fract_z
O1 O 0.3122(14) 0.4516(6) 0.3977(9)
O2 O 0.4682(9) 0.3921(4) 0.3489(6)
C1 C 0.454(2) 0.4228(8) 0.2608(10)
N5 N 0.4953(4) 0.43882(18) 0.7428(3)
H47 H 0.4639 0.4736 0.7268
N6 N 0.6553(6) 0.4829(3) 0.9631(3)
H48 H 0.6747 0.4637 1.0167
N7 N 0.6397(4) 0.26945(17) 0.6310(3)
H49 H 0.6712 0.2620 0.6920
N8 N 0.8751(4) 0.1883(2) 0.5852(3)
H50 H 0.8787 0.1625 0.5427
O13 O 0.5698(8) 0.3805(2) 0.8662(4)
O14 O 0.7246(5) 0.5519(2) 0.8846(3)
O15 O 0.8610(5) 0.5115(2) 1.0130(3)
O16 O 0.6224(4) 0.23102(17) 0.4897(2)
O17 O 0.9834(4) 0.25902(19) 0.6752(3)
O18 O 1.0496(4) 0.2227(2) 0.5588(3)
C32 C 0.4577(7) 0.3923(3) 0.5053(4)
C33 C 0.4476(6) 0.4232(3) 0.5787(4)
H51 H 0.4058 0.4592 0.5685
C34 C 0.4985(5) 0.4022(2) 0.6689(4)
C35 C 0.5566(5) 0.3507(2) 0.6827(3)
H52 H 0.5905 0.3363 0.7445
C36 C 0.5673(5) 0.3191(2) 0.6088(3)
C37 C 0.5179(6) 0.3389(3) 0.5198(4)
H53 H 0.5241 0.3169 0.4682
C38 C 0.4060(11) 0.4157(3) 0.4130(6)
C39 C 0.4871(17) 0.3807(9) 0.2000(12)
C40 C 0.5340(7) 0.4269(3) 0.8331(4)
C41 C 0.5318(7) 0.4756(2) 0.8985(5)
H54 H 0.5069 0.5094 0.8631
C42 C 0.7484(8) 0.5181(3) 0.9483(4)
C43 C 0.9754(8) 0.5464(4) 1.0174(5)
C44 C 0.9462(11) 0.6045(4) 1.0408(8)
H55 H 0.9280 0.6044 1.0989
H56 H 0.8723 0.6185 0.9932
H57 H 1.0196 0.6282 1.0454
C45 C 1.0050(9) 0.5434(5) 0.9274(5)
H58 H 1.0231 0.5052 0.9154
H59 H 1.0791 0.5663 0.9308
H60 H 0.9318 0.5566 0.8784
C46 C 1.0797(11) 0.5183(5) 1.0941(6)
H61 H 1.0943 0.4811 1.0752
H62 H 1.0527 0.5163 1.1488
H63 H 1.1584 0.5396 1.1072
C47 C 0.4316(10) 0.4623(4) 0.9494(6)
H64 H 0.4608 0.4304 0.9889
C48 C 0.2941(12) 0.4489(7) 0.8782(10)
H65 H 0.3008 0.4168 0.8416
H66 H 0.2644 0.4806 0.8384
H67 H 0.2336 0.4410 0.9115
C49 C 0.4235(19) 0.5132(7) 1.0088(12)
H68 H 0.3616 0.5059 1.0412
H69 H 0.3967 0.5455 0.9698
H70 H 0.5070 0.5201 1.0528
C50 C 0.6698(5) 0.2306(2) 0.5745(3)
C51 C 0.7667(5) 0.1866(2) 0.6235(3)
H71 H 0.7988 0.1965 0.6879
C52 C 0.9688(5) 0.2267(2) 0.6107(4)
C53 C 1.1737(6) 0.2535(3) 0.5802(5)
C54 C 1.2266(8) 0.2344(5) 0.5041(8)
H72 H 1.1674 0.2447 0.4451
H73 H 1.2371 0.1944 0.5070
H74 H 1.3090 0.2519 0.5117
C55 C 1.1480(9) 0.3163(4) 0.5752(8)
H75 H 1.0917 0.3258 0.5147
H76 H 1.2285 0.3361 0.5865
H77 H 1.1077 0.3267 0.6211
C56 C 1.2606(8) 0.2389(7) 0.6734(8)
H78 H 1.2232 0.2518 0.7196
H79 H 1.3433 0.2565 0.6829
H80 H 1.2715 0.1989 0.6782
C57 C 0.7087(5) 0.1279(2) 0.6167(4)
H81 H 0.6803 0.1174 0.5524
C58 C 0.5926(8) 0.1275(3) 0.6509(5)
H82 H 0.5308 0.1547 0.6172
H83 H 0.6189 0.1366 0.7157
H84 H 0.5537 0.0909 0.6418
C59 C 0.8085(9) 0.0858(3) 0.6677(6)
H85 H 0.8814 0.0870 0.6443
H86 H 0.7713 0.0489 0.6588
H87 H 0.8364 0.0947 0.7326
N1 N 0.9023(5) 0.36256(19) 0.7484(3)
H1 H 0.9260 0.3322 0.7222
N2 N 0.9031(6) 0.2838(3) 0.9441(4)
H2 H 0.9356 0.2899 1.0055
N3 N 0.6878(4) 0.54332(19) 0.6823(3)
H3 H 0.7007 0.5438 0.7438
N4 N 0.4297(4) 0.63537(18) 0.6489(3)
H4 H 0.3985 0.6670 0.6175
O5 O 0.8511(16) 0.3978(6) 0.4123(6)
O6 O 0.7747(10) 0.4879(4) 0.3864(4)
O7 O 0.8961(8) 0.3974(2) 0.8863(4)
O8 O 0.7427(4) 0.2416(2) 0.8330(3)
O9 O 0.7400(5) 0.2456(3) 0.9807(3)
O10 O 0.5968(7) 0.5920(3) 0.5498(3)
O11 O 0.3835(4) 0.55333(17) 0.7073(3)
O12 O 0.2252(3) 0.60574(16) 0.6073(3)
C3 C 0.7939(7) 0.4449(3) 0.5306(4)
C4 C 0.8464(6) 0.4025(3) 0.5945(4)
H5 H 0.8801 0.3693 0.5745
C5 C 0.8507(5) 0.4077(2) 0.6883(4)
C6 C 0.7995(5) 0.4557(2) 0.7145(4)
H6 H 0.8030 0.4607 0.7781
C7 C 0.7426(5) 0.4971(2) 0.6490(3)
C8 C 0.7392(6) 0.4915(3) 0.5573(4)
H7 H 0.6992 0.5199 0.5129
C9 C 0.8143(12) 0.4405(5) 0.4393(7)
C10 C 0.808(2) 0.4933(8) 0.2998(8)
H8 H 0.9006 0.4930 0.3132
H9 H 0.7733 0.4621 0.2600
C11 C 0.759(3) 0.5427(12) 0.2555(11)
H10 H 0.7810 0.5458 0.1991
H11 H 0.7945 0.5739 0.2952
H12 H 0.6661 0.5427 0.2415
C12 C 0.9203(7) 0.3593(3) 0.8403(4)
C13 C 0.9745(6) 0.3039(3) 0.8849(4)
H13 H 0.9644 0.2769 0.8362
C14 C 0.7911(6) 0.2565(3) 0.9127(4)
C15 C 0.6225(7) 0.2128(4) 0.9668(5)
C16 C 0.6479(17) 0.1562(6) 0.9411(12)
H14 H 0.6598 0.1568 0.8809
H15 H 0.5758 0.1324 0.9398
H16 H 0.7249 0.1420 0.9856
C17 C 0.5121(9) 0.2406(8) 0.8942(10)
H17 H 0.4991 0.2777 0.9144
H18 H 0.4345 0.2190 0.8851
H19 H 0.5325 0.2428 0.8370
C18 C 0.6036(16) 0.2130(10) 1.0601(8)
H20 H 0.5869 0.2506 1.0760
H21 H 0.6804 0.1991 1.1052
H22 H 0.5313 0.1895 1.0593
C19 C 1.1146(8) 0.3089(4) 0.9342(8)
H23 H 1.1552 0.3239 0.8911
C20 C 1.1457(18) 0.3447(10) 1.0115(14)
H24 H 1.2380 0.3456 1.0393
H25 H 1.1056 0.3311 1.0557
H26 H 1.1147 0.3818 0.9922
C21 C 1.1757(11) 0.2477(6) 0.9650(13)
H27 H 1.1546 0.2233 0.9121
H28 H 1.1408 0.2325 1.0110
H29 H 1.2682 0.2507 0.9903
C22 C 0.6191(6) 0.5867(3) 0.6345(4)
C23 C 0.5677(5) 0.6283(2) 0.6894(4)
H30 H 0.5842 0.6142 0.7513
C24 C 0.3469(6) 0.5949(2) 0.6576(4)
C25 C 0.1167(6) 0.5704(3) 0.6189(5)
C26 C 0.0011(6) 0.5974(4) 0.5523(7)
H31 H 0.0061 0.5937 0.4905
H32 H -0.0008 0.6365 0.5673
H33 H -0.0763 0.5795 0.5565
C27 C 0.1357(8) 0.5105(4) 0.5912(9)
H34 H 0.2108 0.4947 0.6356
H35 H 0.1478 0.5104 0.5310
H36 H 0.0608 0.4886 0.5896
C28 C 0.1105(9) 0.5758(6) 0.7157(7)
H37 H 0.1852 0.5583 0.7578
H38 H 0.0335 0.5578 0.7204
H39 H 0.1089 0.6148 0.7312
C29 C 0.6350(6) 0.6853(3) 0.6945(4)
H40 H 0.6164 0.6993 0.6325
C30 C 0.7842(7) 0.6774(4) 0.7344(7)
H41 H 0.8124 0.6504 0.6977
H42 H 0.8057 0.6644 0.7972
H43 H 0.8266 0.7126 0.7329
C31 C 0.5847(8) 0.7273(4) 0.7492(7)
H44 H 0.6289 0.7624 0.7509
H45 H 0.5997 0.7137 0.8112
H46 H 0.4934 0.7326 0.7203
C60 C 0.799(3) 0.3743(7) 0.0789(9)
C61 C 0.878(2) 0.3332(9) 0.1537(10)
O19 O 0.9768(16) 0.3131(11) 0.1489(10)
O20 O 0.8243(14) 0.3203(8) 0.2225(9)
C62 C 0.924(2) 0.2906(11) 0.2973(14)
C63 C 0.820(2) 0.2628(9) 0.3435(10)
O3? O 0.3735(16) 0.3755(6) 0.3413(9)
O4? O 0.3868(12) 0.4652(4) 0.3954(7)
C2? C 0.375(3) 0.4019(15) 0.2441(18)
loop_
_geom_bond_atom_site_label_1
_geom_bond_atom_site_label_2
_geom_bond_site_symmetry_1
_geom_bond_site_symmetry_2
O1 C38 1_555 1_555
O2 C1 1_555 1_555
C1 C39 1_555 1_555
N1 H1 1_555 1_555
N2 H2 1_555 1_555
N3 H3 1_555 1_555
N4 H4 1_555 1_555
O5 C9 1_555 1_555
O6 C9 1_555 1_555
O7 C12 1_555 1_555
O8 C14 1_555 1_555
O9 C14 1_555 1_555
O10 C22 1_555 1_555
O11 C24 1_555 1_555
O12 C24 1_555 1_555
C3 C4 1_555 1_555
C4 H5 1_555 1_555
C5 N1 1_555 1_555
C6 C5 1_555 1_555
H6 C6 1_555 1_555
C7 N3 1_555 1_555
C8 C3 1_555 1_555
H7 C8 1_555 1_555
C9 C3 1_555 1_555
C10 O6 1_555 1_555
H8 C10 1_555 1_555
H9 C10 1_555 1_555
C11 C10 1_555 1_555
H10 C11 1_555 1_555
H11 C11 1_555 1_555
H12 C11 1_555 1_555
C12 N1 1_555 1_555
C13 N2 1_555 1_555
H13 C13 1_555 1_555
C14 N2 1_555 1_555
C15 O9 1_555 1_555
C16 C15 1_555 1_555
H14 C16 1_555 1_555
H15 C16 1_555 1_555
H16 C16 1_555 1_555
C17 C15 1_555 1_555
H17 C17 1_555 1_555
H18 C17 1_555 1_555
H19 C17 1_555 1_555
C18 C15 1_555 1_555
H20 C18 1_555 1_555
H21 C18 1_555 1_555
H22 C18 1_555 1_555
C19 C13 1_555 1_555
H23 C19 1_555 1_555
C20 C19 1_555 1_555
H24 C20 1_555 1_555
H25 C20 1_555 1_555
H26 C20 1_555 1_555
C21 C19 1_555 1_555
H27 C21 1_555 1_555
H28 C21 1_555 1_555
H29 C21 1_555 1_555
C22 N3 1_555 1_555
C23 N4 1_555 1_555
H30 C23 1_555 1_555
C24 N4 1_555 1_555
C25 O12 1_555 1_555
C26 C25 1_555 1_555
H31 C26 1_555 1_555
H32 C26 1_555 1_555
H33 C26 1_555 1_555
C27 C25 1_555 1_555
H34 C27 1_555 1_555
H35 C27 1_555 1_555
H36 C27 1_555 1_555
C28 C25 1_555 1_555
H37 C28 1_555 1_555
H38 C28 1_555 1_555
H39 C28 1_555 1_555
C29 C23 1_555 1_555
H40 C29 1_555 1_555
C30 C29 1_555 1_555
H41 C30 1_555 1_555
H42 C30 1_555 1_555
H43 C30 1_555 1_555
C31 C29 1_555 1_555
H44 C31 1_555 1_555
H45 C31 1_555 1_555
H46 C31 1_555 1_555
N5 H47 1_555 1_555
N6 H48 1_555 1_555
N7 H49 1_555 1_555
N8 H50 1_555 1_555
O13 C40 1_555 1_555
O14 C42 1_555 1_555
O15 C42 1_555 1_555
O16 C50 1_555 1_555
O17 C52 1_555 1_555
O18 C52 1_555 1_555
C32 C33 1_555 1_555
C33 H51 1_555 1_555
C34 N5 1_555 1_555
C35 C34 1_555 1_555
H52 C35 1_555 1_555
C36 N7 1_555 1_555
C37 C32 1_555 1_555
H53 C37 1_555 1_555
C38 O2 1_555 1_555
C40 N5 1_555 1_555
C41 N6 1_555 1_555
H54 C41 1_555 1_555
C42 N6 1_555 1_555
C43 O15 1_555 1_555
C44 C43 1_555 1_555
H55 C44 1_555 1_555
H56 C44 1_555 1_555
H57 C44 1_555 1_555
C45 C43 1_555 1_555
H58 C45 1_555 1_555
H59 C45 1_555 1_555
H60 C45 1_555 1_555
C46 C43 1_555 1_555
H61 C46 1_555 1_555
H62 C46 1_555 1_555
H63 C46 1_555 1_555
C47 C41 1_555 1_555
H64 C47 1_555 1_555
C48 C47 1_555 1_555
H65 C48 1_555 1_555
H66 C48 1_555 1_555
H67 C48 1_555 1_555
C49 C47 1_555 1_555
H68 C49 1_555 1_555
H69 C49 1_555 1_555
H70 C49 1_555 1_555
C50 N7 1_555 1_555
C51 N8 1_555 1_555
H71 C51 1_555 1_555
C52 N8 1_555 1_555
C53 O18 1_555 1_555
C54 C53 1_555 1_555
H72 C54 1_555 1_555
H73 C54 1_555 1_555
H74 C54 1_555 1_555
C55 C53 1_555 1_555
H75 C55 1_555 1_555
H76 C55 1_555 1_555
H77 C55 1_555 1_555
C56 C53 1_555 1_555
H78 C56 1_555 1_555
H79 C56 1_555 1_555
H80 C56 1_555 1_555
C57 C51 1_555 1_555
H81 C57 1_555 1_555
C58 C57 1_555 1_555
H82 C58 1_555 1_555
H83 C58 1_555 1_555
H84 C58 1_555 1_555
C59 C57 1_555 1_555
H85 C59 1_555 1_555
H86 C59 1_555 1_555
H87 C59 1_555 1_555
C60 C61 1_555 1_555
C61 O19 1_555 1_555
O20 C61 1_555 1_555
C62 O20 1_555 1_555
C63 C62 1_555 1_555
C4 C5 1_555 1_555
C6 C7 1_555 1_555
C7 C8 1_555 1_555
C12 C13 1_555 1_555
C22 C23 1_555 1_555
C32 C38 1_555 1_555
C33 C34 1_555 1_555
C35 C36 1_555 1_555
C36 C37 1_555 1_555
C40 C41 1_555 1_555
C50 C51 1_555 1_555

#END
