
#######################################################################
#
#                 Cambridge Crystallographic Data Centre
#                                CCDC 
#
#######################################################################
#
# If this CIF has been generated from an entry in the Cambridge 
# Structural Database, then it will include bibliographic, chemical, 
# crystal, experimental, refinement or atomic coordinate data resulting 
# from the CCDC's data processing and validation procedures.
#
#######################################################################

data_HAXMUO
_chemical_formula_moiety         '2(C42 H63 Br7 O28),H2 O1'
_chemical_name_systematic        
'bis(Perbromo-6-deoxy-\b-cyclodextrin) monohydrate'
_symmetry_cell_setting           monoclinic
_symmetry_space_group_name_H-M   'P 21'
_symmetry_Int_Tables_number      4
_space_group_name_Hall           'P 2yb'
loop_
_symmetry_equiv_pos_site_id
_symmetry_equiv_pos_as_xyz
1 x,y,z
2 -x,1/2+y,-z
_cell_length_a                   15.714(3)
_cell_length_b                   15.917(6)
_cell_length_c                   30.102(4)
_cell_angle_alpha                90
_cell_angle_beta                 90.55(2)
_cell_angle_gamma                90
_cell_volume                     7528.76
_cell_formula_units_Z            2
loop_
_atom_site_label
_atom_site_type_symbol
_atom_site_fract_x
_atom_site_fract_y
_atom_site_fract_z
Br1 Br 0.9175(6) 0.5327(7) 0.5018(3)
Br2 Br 0.6736(5) 0.4968(6) 0.4786(3)
Br3 Br 0.5166(7) 0.3009(6) 0.4730(3)
Br4 Br 0.6535(6) 0.0983(8) 0.5062(3)
Br5 Br 0.9680(7) -0.1295(7) 0.5791(4)
Br6 Br 1.2138(6) 0.1678(8) 0.5819(4)
Br7 Br 1.1786(10) 0.5141(13) 0.5560(6)
O1 O 0.7386(22) 0.6217 0.6178(12)
C1 C 0.9962(38) 0.6283(38) 0.6339(19)
C2 C 0.9431(41) 0.6756(46) 0.6676(21)
C3 C 0.8529(34) 0.6449(35) 0.6633(17)
C4 C 0.8207(25) 0.6617(35) 0.6163(17)
C5 C 0.8773(28) 0.6070(42) 0.5860(15)
C6 C 0.8622(37) 0.6194(32) 0.5359(14)
O2 O 0.9838(26) 0.6692(28) 0.7103(14)
O3 O 0.8051(23) 0.6988(24) 0.6918(12)
O4 O 0.9656(26) 0.6312(27) 0.5900(14)
O5 O 0.5030(22) 0.4671(23) 0.6064(11)
C7 C 0.6726(28) 0.6699(34) 0.5961(16)
C8 C 0.6008(43) 0.6754(45) 0.6272(21)
C9 C 0.5622(34) 0.5958(36) 0.6373(14)
C10 C 0.5343(32) 0.5504(33) 0.5948(14)
C11 C 0.6076(37) 0.5458(41) 0.5622(19)
C12 C 0.5801(28) 0.5166(42) 0.5182(16)
O6 O 0.6310(26) 0.7214(27) 0.6667(14)
O7 O 0.4885(25) 0.5987(28) 0.6656(13)
O8 O 0.6448(25) 0.6295(26) 0.5559(13)
O9 O 0.4873(22) 0.1950(25) 0.6205(11)
C13 C 0.4193(26) 0.4392(36) 0.5932(17)
C14 C 0.3796(40) 0.4057(39) 0.6307(20)
C15 C 0.4224(36) 0.3202(35) 0.6449(18)
C16 C 0.4316(35) 0.2629(35) 0.6060(17)
C17 C 0.4725(33) 0.3074(28) 0.5671(15)
C18 C 0.4602(40) 0.2559(36) 0.5243(13)
O10 O 0.3688(23) 0.4591(24) 0.6674(12)
O11 O 0.3844(23) 0.2795(25) 0.6813(12)
O12 O 0.4273(25) 0.3834(24) 0.5557(12)
O13 O 0.6871(26) 0.0002(27) 0.6507(12)
C19 C 0.4591(38) 0.1131(38) 0.6134(18)
C20 C 0.4547(34) 0.0643(36) 0.6533(17)
C21 C 0.5444(38) 0.0508(37) 0.6718(16)
C22 C 0.5989(40) 0.0107(45) 0.6364(20)
C23 C 0.5954(40) 0.0587(42) 0.5932(20)
C24 C 0.6420(40) 0.0162(35) 0.5538(16)
O14 O 0.4066(27) 0.1054(30) 0.6867(14)
O15 O 0.5493(24) -0.0028(25) 0.7105(12)
O16 O 0.5092(25) 0.0717(25) 0.5799(12)
O17 O 0.9588(27) 0.0447(27) 0.6787(13)
C25 C 0.7311(29) -0.0777(35) 0.6515(14)
C26 C 0.7678(32) -0.0911(34) 0.6953(15)
C27 C 0.8338(35) -0.0297(37) 0.7054(17)
C28 C 0.8930(42) -0.0178(45) 0.6693(25)
C29 C 0.8558(28) -0.0116(30) 0.6220(16)
C30 C 0.9060(40) -0.0262(30) 0.5825(21)
O18 O 0.7049(25) -0.0988(25) 0.7297(12)
O19 O 0.8729(26) -0.0452(27) 0.7503(13)
O20 O 0.7933(21) -0.0770(22) 0.6168(10)
O21 O 1.0952(25) 0.2929(28) 0.6785(13)
C31 C 1.0456(42) 0.0291(51) 0.6777(21)
C32 C 1.0918(40) 0.0642(31) 0.7169(19)
C33 C 1.0864(40) 0.1608(31) 0.7182(17)
C34 C 1.1201(41) 0.2053(40) 0.6781(20)
C35 C 1.0697(45) 0.1639(44) 0.6379(19)
C36 C 1.0960(27) 0.1924(54) 0.5914(21)
O22 O 1.0553(28) 0.0237(32) 0.7557(15)
O23 O 1.1280(28) 0.1980(31) 0.7564(14)
O24 O 1.0800(29) 0.0720(31) 0.6377(15)
O25 O 0.9978(24) 0.5387(26) 0.6494(12)
C37 C 1.1747(32) 0.3368(33) 0.6718(15)
C38 C 1.1691(40) 0.4043(37) 0.7078(18)
C39 C 1.0852(33) 0.4581(32) 0.7027(14)
C40 C 1.0781(33) 0.4956(38) 0.6555(15)
C41 C 1.0894(53) 0.4222(40) 0.6225(18)
C42 C 1.0829(31) 0.4563(34) 0.5781(17)
O26 O 1.1657(26) 0.3712(29) 0.7512(14)
O27 O 1.0822(25) 0.5287(28) 0.7334(13)
O28 O 1.1672(28) 0.3744(30) 0.6282(14)
Br9 Br 0.9109(6) 0.2904(6) 1.0302(3)
Br10 Br 0.7542(6) 0.0921(7) 1.0287(3)
Br11 Br 0.3593(7) 0.0628(9) 0.9604(4)
Br12 Br 0.4200(8) 0.3645(8) 0.9768(3)
Br13 Br 0.4533(8) 0.7577(8) 0.9232(4)
Br14 Br 0.8251(7) 0.8041(7) 0.9562(4)
Br15 Br 0.8710(5) 0.5235(5) 1.0091(2)
O29 O 0.9249(23) 0.1300(24) 0.9009(12)
C43 C 1.0837(29) 0.3422(32) 0.9129(14)
C44 C 1.1052(34) 0.2780(35) 0.8797(15)
C45 C 1.0327(31) 0.2166(27) 0.8697(15)
C46 C 0.9971(32) 0.1801(33) 0.9123(16)
C47 C 0.9753(35) 0.2484(35) 0.9437(17)
C48 C 0.9559(36) 0.2099(31) 0.9891(16)
O30 O 1.1387(24) 0.3139(26) 0.8397(12)
O31 O 1.0638(23) 0.1548(23) 0.8390(12)
O32 O 1.0458(23) 0.3038(25) 0.9511(11)
O33 O 0.6662(22) 0.0372(23) 0.8812(11)
C49 C 0.9262(33) 0.0428(39) 0.9111(16)
C50 C 0.8990(35) -0.0086(43) 0.8722(17)
C51 C 0.8075(37) 0.0074(40) 0.8574(17)
C52 C 0.7425(31) -0.0012(35) 0.8957(15)
C53 C 0.7778(34) 0.0465(39) 0.9357(15)
C54 C 0.7305(35) 0.0220(35) 0.9785(12)
O34 O 0.9596(26) 0.0028(29) 0.8370(13)
O35 O 0.7806(27) -0.0411(28) 0.8192(14)
O36 O 0.8646(23) 0.0284(25) 0.9455(11)
O37 O 0.4351(26) 0.1840(27) 0.8525(13)
C55 C 0.5958(27) -0.0187(29) 0.8871(16)
C56 C 0.5477(42) -0.0240(42) 0.8428(20)
C57 C 0.5189(41) 0.0633(41) 0.8299(20)
C58 C 0.4613(35) 0.0972(38) 0.8649(17)
C59 C 0.5069(35) 0.1002(28) 0.9106(17)
C60 C 0.4565(37) 0.1273(46) 0.9466(26)
O38 O 0.6058(25) -0.0548(26) 0.8097(13)
O39 O 0.4658(28) 0.0579(29) 0.7886(15)
O40 O 0.5379(22) 0.0163(24) 0.9190(11)
O41 O 0.4109(26) 0.4546(29) 0.8346(13)
C61 C 0.3498(49) 0.2086(41) 0.8548(20)
C62 C 0.3269(43) 0.2426(33) 0.8122(22)
C63 C 0.3675(35) 0.3287(29) 0.8021(17)
C64 C 0.3524(37) 0.3828(35) 0.8421(17)
C65 C 0.3831(41) 0.3504(41) 0.8841(20)
C66 C 0.3608(32) 0.3985(36) 0.9238(13)
O42 O 0.3404(24) 0.1856(26) 0.7744(13)
O43 O 0.3445(23) 0.3633(25) 0.7616(12)
O44 O 0.3406(26) 0.2702(28) 0.8896(14)
O45 O 0.6079(26) 0.6618(27) 0.8383(13)
C67 C 0.3697(41) 0.5380(40) 0.8333(18)
C68 C 0.3982(42) 0.5880(47) 0.7920(19)
C69 C 0.4973(35) 0.6053(39) 0.7903(16)
C70 C 0.5151(46) 0.6518(47) 0.8345(19)
C71 C 0.4820(43) 0.6054(47) 0.8767(22)
C72 C 0.5012(45) 0.6465(28) 0.9171(24)
O46 O 0.3730(32) 0.5452(36) 0.7509(18)
O47 O 0.5264(29) 0.6557(31) 0.7533(16)
O48 O 0.3947(28) 0.5867(30) 0.8712(14)
O49 O 0.8795(23) 0.6313(24) 0.8651(12)
C73 C 0.6408(34) 0.7424(36) 0.8436(17)
C74 C 0.7069(31) 0.7492(37) 0.8090(12)
C75 C 0.7862(29) 0.6971(39) 0.8154(15)
C76 C 0.8101(34) 0.7016(39) 0.8610(18)
C77 C 0.7496(33) 0.6933(39) 0.8974(19)
C78 C 0.7556(56) 0.7066(44) 0.9480(21)
O50 O 0.6728(22) 0.7461(24) 0.7641(11)
O51 O 0.8502(22) 0.7037(24) 0.7815(11)
O52 O 0.6785(25) 0.7463(25) 0.8861(13)
O53 O 1.0196(23) 0.3955(24) 0.8932(12)
C79 C 0.9612(35) 0.6485(36) 0.8853(14)
C80 C 1.0251(39) 0.6166(27) 0.8580(14)
C81 C 1.0309(30) 0.5203(28) 0.8528(17)
C82 C 1.0277(40) 0.4832(39) 0.9016(20)
C83 C 0.9560(32) 0.5200(34) 0.9266(15)
C84 C 0.9654(30) 0.4912(41) 0.9726(17)
O54 O 1.0246(24) 0.6557(25) 0.8149(12)
O55 O 1.1025(24) 0.4865(26) 0.8291(13)
O56 O 0.9637(23) 0.6073(24) 0.9280(11)
O57 O 0.0012 0.8137 0.7428
Br8? Br 1.1343(24) 0.4001(24) 0.5294(11)
loop_
_geom_bond_atom_site_label_1
_geom_bond_atom_site_label_2
_geom_bond_site_symmetry_1
_geom_bond_site_symmetry_2
Br1 C6 1_555 1_555
Br2 C12 1_555 1_555
Br3 C18 1_555 1_555
Br4 C24 1_555 1_555
Br5 C30 1_555 1_555
Br6 C36 1_555 1_555
Br7 C42 1_555 1_555
O1 C4 1_555 1_555
C1 C2 1_555 1_555
C2 C3 1_555 1_555
C3 C4 1_555 1_555
C4 C5 1_555 1_555
C5 C6 1_555 1_555
O2 C2 1_555 1_555
O3 C3 1_555 1_555
O4 C1 1_555 1_555
O5 C10 1_555 1_555
C7 O1 1_555 1_555
C8 C7 1_555 1_555
C9 C8 1_555 1_555
C10 C9 1_555 1_555
C11 C10 1_555 1_555
C12 C11 1_555 1_555
O6 C8 1_555 1_555
O7 C9 1_555 1_555
O8 C7 1_555 1_555
O9 C16 1_555 1_555
C13 O5 1_555 1_555
C14 C13 1_555 1_555
C15 C14 1_555 1_555
C16 C15 1_555 1_555
C17 C16 1_555 1_555
C18 C17 1_555 1_555
O10 C14 1_555 1_555
O11 C15 1_555 1_555
O12 C13 1_555 1_555
O13 C22 1_555 1_555
C19 O9 1_555 1_555
C20 C19 1_555 1_555
C21 C20 1_555 1_555
C22 C21 1_555 1_555
C23 C22 1_555 1_555
C24 C23 1_555 1_555
O14 C20 1_555 1_555
O15 C21 1_555 1_555
O16 C19 1_555 1_555
O17 C28 1_555 1_555
C25 O13 1_555 1_555
C26 C25 1_555 1_555
C27 C26 1_555 1_555
C28 C27 1_555 1_555
C29 C28 1_555 1_555
C30 C29 1_555 1_555
O18 C26 1_555 1_555
O19 C27 1_555 1_555
O20 C25 1_555 1_555
O21 C34 1_555 1_555
C31 O17 1_555 1_555
C32 C31 1_555 1_555
C33 C32 1_555 1_555
C34 C33 1_555 1_555
C35 C34 1_555 1_555
C36 C35 1_555 1_555
O22 C32 1_555 1_555
O23 C33 1_555 1_555
O24 C31 1_555 1_555
O25 C1 1_555 1_555
C37 O21 1_555 1_555
C38 C37 1_555 1_555
C39 C38 1_555 1_555
C40 O25 1_555 1_555
C41 C40 1_555 1_555
C42 C41 1_555 1_555
O26 C38 1_555 1_555
O27 C39 1_555 1_555
O28 C37 1_555 1_555
Br9 C48 1_555 1_555
Br10 C54 1_555 1_555
Br11 C60 1_555 1_555
Br12 C66 1_555 1_555
Br13 C72 1_555 1_555
Br14 C78 1_555 1_555
Br15 C84 1_555 1_555
O29 C46 1_555 1_555
C43 C44 1_555 1_555
C44 C45 1_555 1_555
C45 C46 1_555 1_555
C46 C47 1_555 1_555
C47 C48 1_555 1_555
O30 C44 1_555 1_555
O31 C45 1_555 1_555
O32 C43 1_555 1_555
O33 C52 1_555 1_555
C49 O29 1_555 1_555
C50 C49 1_555 1_555
C51 C50 1_555 1_555
C52 C51 1_555 1_555
C53 C52 1_555 1_555
C54 C53 1_555 1_555
O34 C50 1_555 1_555
O35 C51 1_555 1_555
O36 C49 1_555 1_555
O37 C58 1_555 1_555
C55 O33 1_555 1_555
C56 C55 1_555 1_555
C57 C56 1_555 1_555
C58 C57 1_555 1_555
C59 C58 1_555 1_555
C60 C59 1_555 1_555
O38 C56 1_555 1_555
O39 C57 1_555 1_555
O40 C55 1_555 1_555
O41 C64 1_555 1_555
C61 O37 1_555 1_555
C62 C61 1_555 1_555
C63 C62 1_555 1_555
C64 C63 1_555 1_555
C65 C64 1_555 1_555
C66 C65 1_555 1_555
O42 C62 1_555 1_555
O43 C63 1_555 1_555
O44 C61 1_555 1_555
O45 C70 1_555 1_555
C67 O41 1_555 1_555
C68 C67 1_555 1_555
C69 C68 1_555 1_555
C70 C69 1_555 1_555
C71 C70 1_555 1_555
C72 C71 1_555 1_555
O46 C68 1_555 1_555
O47 C69 1_555 1_555
O48 C67 1_555 1_555
O49 C76 1_555 1_555
C73 O45 1_555 1_555
C74 C73 1_555 1_555
C75 C74 1_555 1_555
C76 C75 1_555 1_555
C77 C76 1_555 1_555
C78 C77 1_555 1_555
O50 C74 1_555 1_555
O51 C75 1_555 1_555
O52 C73 1_555 1_555
O53 C43 1_555 1_555
C79 O49 1_555 1_555
C80 C79 1_555 1_555
C81 C80 1_555 1_555
C82 O53 1_555 1_555
C83 C82 1_555 1_555
C84 C83 1_555 1_555
O54 C80 1_555 1_555
O55 C81 1_555 1_555
O56 C79 1_555 1_555
C5 O4 1_555 1_555
C11 O8 1_555 1_555
C17 O12 1_555 1_555
C23 O16 1_555 1_555
C29 O20 1_555 1_555
C35 O24 1_555 1_555
C39 C40 1_555 1_555
C41 O28 1_555 1_555
C47 O32 1_555 1_555
C53 O36 1_555 1_555
C59 O40 1_555 1_555
C65 O44 1_555 1_555
C71 O48 1_555 1_555
C77 O52 1_555 1_555
C81 C82 1_555 1_555
C83 O56 1_555 1_555

#END
