
#######################################################################
#
#                 Cambridge Crystallographic Data Centre
#                                CCDC 
#
#######################################################################
#
# If this CIF has been generated from an entry in the Cambridge 
# Structural Database, then it will include bibliographic, chemical, 
# crystal, experimental, refinement or atomic coordinate data resulting 
# from the CCDC's data processing and validation procedures.
#
#######################################################################

data_HAYCAM
_chemical_formula_moiety         'C19 H18 O5'
_chemical_name_systematic        4',7-Diethoxy-5-hydroxyisoflavone
_symmetry_cell_setting           monoclinic
_symmetry_space_group_name_H-M   'P 21/c'
_symmetry_Int_Tables_number      14
_space_group_name_Hall           '-P 2ybc'
loop_
_symmetry_equiv_pos_site_id
_symmetry_equiv_pos_as_xyz
1 x,y,z
2 -x,1/2+y,1/2-z
3 -x,-y,-z
4 x,1/2-y,1/2+z
_cell_length_a                   37.672(12)
_cell_length_b                   11.228(4)
_cell_length_c                   7.582(3)
_cell_angle_alpha                90
_cell_angle_beta                 94.150(6)
_cell_angle_gamma                90
_cell_volume                     3198.63
_exptl_crystal_colour            colorless
_exptl_crystal_description       prism
_cell_formula_units_Z            8
_exptl_crystal_recrystallization_method 'ethyl acetate'
loop_
_atom_site_label
_atom_site_type_symbol
_atom_site_fract_x
_atom_site_fract_y
_atom_site_fract_z
O1 O 0.13058(7) 0.6865(2) 0.7173(4)
O2 O 0.15547(7) 1.0331(2) 0.8289(4)
O3 O 0.09206(8) 1.0915(2) 0.7141(5)
H1 H 0.1126 1.1001 0.7550
O4 O 0.01230(7) 0.7933(3) 0.5157(4)
O5 O 0.31873(7) 0.9122(2) 1.0599(4)
C1 C 0.16390(10) 0.7193(3) 0.7800(6)
H3 H 0.1808 0.6591 0.7964
C2 C 0.17458(10) 0.8311(3) 0.8205(5)
C3 C 0.14856(10) 0.9266(3) 0.7929(5)
C4 C 0.11336(10) 0.8912(3) 0.7202(5)
C5 C 0.08579(11) 0.9757(3) 0.6816(6)
C6 C 0.05292(11) 0.9399(4) 0.6130(6)
H4 H 0.0352 0.9960 0.5865
C7 C 0.04609(10) 0.8193(4) 0.5830(6)
C8 C 0.07204(10) 0.7343(3) 0.6196(6)
H5 H 0.0673 0.6538 0.6005
C9 C 0.10535(10) 0.7728(3) 0.6856(5)
C10 C 0.21210(10) 0.8522(3) 0.8895(5)
C11 C 0.23065(10) 0.9559(3) 0.8455(5)
H6 H 0.2190 1.0146 0.7769
C12 C 0.26582(10) 0.9707(3) 0.9032(5)
H7 H 0.2775 1.0402 0.8740
C13 C 0.28424(10) 0.8850(3) 1.0036(5)
C14 C 0.26682(10) 0.7817(3) 1.0452(5)
H8 H 0.2787 0.7225 1.1117
C15 C 0.23158(10) 0.7673(3) 0.9869(5)
H9 H 0.2203 0.6967 1.0144
C16 C 0.00183(11) 0.6715(4) 0.5050(7)
H10 H 0.0040 0.6356 0.6216
H11 H 0.0170 0.6282 0.4294
C17 C -0.03626(12) 0.6658(4) 0.4299(8)
H12 H -0.0438 0.5842 0.4214
H13 H -0.0382 0.7014 0.3145
H14 H -0.0511 0.7083 0.5061
C18 C 0.33867(11) 0.8263(3) 1.1629(6)
H15 H 0.3418 0.7552 1.0930
H16 H 0.3260 0.8043 1.2649
C19 C 0.37421(11) 0.8778(4) 1.2224(6)
H17 H 0.3878 0.8200 1.2919
H18 H 0.3709 0.9476 1.2924
H19 H 0.3867 0.8988 1.1209
O6 O 0.37539(7) 0.1833(2) 0.1895(4)
O7 O 0.34602(7) 0.5314(2) 0.1486(4)
O8 O 0.40735(7) 0.5901(2) 0.2929(4)
H2 H 0.3872 0.5990 0.2459
O9 O 0.48862(7) 0.2900(2) 0.4637(4)
O10 O 0.18839(7) 0.4197(2) -0.1580(4)
C20 C 0.34280(11) 0.2166(3) 0.1191(5)
H20 H 0.3275 0.1561 0.0781
C21 C 0.33055(10) 0.3283(3) 0.1030(5)
C22 C 0.35455(10) 0.4247(3) 0.1615(5)
C23 C 0.38921(10) 0.3889(3) 0.2378(5)
C24 C 0.41507(11) 0.4731(3) 0.3032(6)
C25 C 0.44757(11) 0.4377(4) 0.3777(6)
H21 H 0.4641 0.4940 0.4207
C26 C 0.45578(11) 0.3160(3) 0.3887(6)
C27 C 0.43126(10) 0.2303(3) 0.3251(5)
H22 H 0.4365 0.1494 0.3321
C28 C 0.39905(10) 0.2701(3) 0.2518(5)
C29 C 0.29336(10) 0.3512(3) 0.0327(5)
C30 C 0.28366(10) 0.4505(3) -0.0730(5)
H23 H 0.3010 0.5046 -0.1014
C31 C 0.24885(10) 0.4690(3) -0.1352(5)
H24 H 0.2431 0.5340 -0.2076
C32 C 0.22236(10) 0.3913(3) -0.0907(5)
C33 C 0.23138(10) 0.2915(3) 0.0088(5)
H25 H 0.2140 0.2364 0.0340
C34 C 0.26630(10) 0.2743(3) 0.0704(5)
H26 H 0.2719 0.2080 0.1405
C35 C 0.49988(11) 0.1677(4) 0.4711(7)
H27 H 0.4997 0.1350 0.3527
H28 H 0.4839 0.1210 0.5381
C36 C 0.53694(12) 0.1641(4) 0.5591(7)
H29 H 0.5451 0.0831 0.5658
H30 H 0.5368 0.1965 0.6762
H31 H 0.5526 0.2103 0.4914
C37 C 0.16021(10) 0.3396(3) -0.1282(6)
H32 H 0.1571 0.3341 -0.0025
H33 H 0.1658 0.2609 -0.1709
C38 C 0.12713(11) 0.3836(4) -0.2225(7)
H34 H 0.1080 0.3299 -0.2030
H35 H 0.1303 0.3882 -0.3468
H36 H 0.1216 0.4612 -0.1789
loop_
_geom_bond_atom_site_label_1
_geom_bond_atom_site_label_2
_geom_bond_site_symmetry_1
_geom_bond_site_symmetry_2
O1 C1 1_555 1_555
O2 C3 1_555 1_555
O3 H1 1_555 1_555
O4 C7 1_555 1_555
O5 C13 1_555 1_555
O6 C20 1_555 1_555
O7 C22 1_555 1_555
O8 H2 1_555 1_555
O9 C26 1_555 1_555
O10 C32 1_555 1_555
C1 H3 1_555 1_555
C2 C1 1_555 1_555
C3 C2 1_555 1_555
C4 C3 1_555 1_555
C5 O3 1_555 1_555
C6 C5 1_555 1_555
H4 C6 1_555 1_555
C7 C6 1_555 1_555
C8 C7 1_555 1_555
H5 C8 1_555 1_555
C9 O1 1_555 1_555
C10 C2 1_555 1_555
C11 C10 1_555 1_555
H6 C11 1_555 1_555
C12 C11 1_555 1_555
H7 C12 1_555 1_555
C13 C12 1_555 1_555
C14 C13 1_555 1_555
H8 C14 1_555 1_555
C15 C10 1_555 1_555
H9 C15 1_555 1_555
C16 O4 1_555 1_555
H10 C16 1_555 1_555
H11 C16 1_555 1_555
C17 C16 1_555 1_555
H12 C17 1_555 1_555
H13 C17 1_555 1_555
H14 C17 1_555 1_555
C18 O5 1_555 1_555
H15 C18 1_555 1_555
H16 C18 1_555 1_555
C19 C18 1_555 1_555
H17 C19 1_555 1_555
H18 C19 1_555 1_555
H19 C19 1_555 1_555
C20 H20 1_555 1_555
C21 C20 1_555 1_555
C22 C21 1_555 1_555
C23 C22 1_555 1_555
C24 O8 1_555 1_555
C25 C24 1_555 1_555
H21 C25 1_555 1_555
C26 C25 1_555 1_555
C27 C26 1_555 1_555
H22 C27 1_555 1_555
C28 O6 1_555 1_555
C29 C21 1_555 1_555
C30 C29 1_555 1_555
H23 C30 1_555 1_555
C31 C30 1_555 1_555
H24 C31 1_555 1_555
C32 C31 1_555 1_555
C33 C32 1_555 1_555
H25 C33 1_555 1_555
C34 C29 1_555 1_555
H26 C34 1_555 1_555
C35 O9 1_555 1_555
H27 C35 1_555 1_555
H28 C35 1_555 1_555
C36 C35 1_555 1_555
H29 C36 1_555 1_555
H30 C36 1_555 1_555
H31 C36 1_555 1_555
C37 O10 1_555 1_555
H32 C37 1_555 1_555
H33 C37 1_555 1_555
C38 C37 1_555 1_555
H34 C38 1_555 1_555
H35 C38 1_555 1_555
H36 C38 1_555 1_555
C4 C5 1_555 1_555
C4 C9 1_555 1_555
C8 C9 1_555 1_555
C14 C15 1_555 1_555
C23 C24 1_555 1_555
C23 C28 1_555 1_555
C27 C28 1_555 1_555
C33 C34 1_555 1_555

#END
