
#######################################################################
#
#                 Cambridge Crystallographic Data Centre
#                                CCDC 
#
#######################################################################
#
# If this CIF has been generated from an entry in the Cambridge 
# Structural Database, then it will include bibliographic, chemical, 
# crystal, experimental, refinement or atomic coordinate data resulting 
# from the CCDC's data processing and validation procedures.
#
#######################################################################

data_HAYDET
_chemical_name_common            
10-methyl-2-((4-methylphenyl)sulfonyl)-2,3,3a,4,6,6a,7,8,9,10a-decahydrocyclopenta[4,5]cycloocta[1,2-c]pyrrol-5(1H)-one
_chemical_formula_moiety         'C21 H27 N1 O3 S1'
_chemical_name_systematic        
(3S*,7S*,11S*)-2-Methyl-N-tosyl-5-azatricyclo[9.3.0.0^3,7^]tetradec-1-ene-9-one
_symmetry_cell_setting           monoclinic
_symmetry_space_group_name_H-M   'P 21/c'
_symmetry_Int_Tables_number      14
_space_group_name_Hall           '-P 2ybc'
loop_
_symmetry_equiv_pos_site_id
_symmetry_equiv_pos_as_xyz
1 x,y,z
2 -x,1/2+y,1/2-z
3 -x,-y,-z
4 x,1/2-y,1/2+z
_cell_length_a                   22.847(2)
_cell_length_b                   10.191(3)
_cell_length_c                   7.978(7)
_cell_angle_alpha                90
_cell_angle_beta                 92.681(5)
_cell_angle_gamma                90
_cell_volume                     1855.51
_exptl_crystal_colour            colorless
_exptl_crystal_description       plate
_chemical_melting_point          '154-155 deg.C'
_cell_formula_units_Z            4
loop_
_atom_site_label
_atom_site_type_symbol
_atom_site_fract_x
_atom_site_fract_y
_atom_site_fract_z
S1 S 0.32614(3) 0.49654(7) 0.32385(9)
O1 O 0.33059(10) 0.6194(2) 0.4105(3)
O2 O 0.33691(9) 0.3762(2) 0.4129(3)
O3 O 0.04656(9) 0.3545(2) 0.0831(3)
N1 N 0.25983(10) 0.4879(2) 0.2432(3)
C1 C 0.46737(16) 0.5135(4) -0.2990(4)
H1 H 0.4935 0.5897 -0.2975
H2 H 0.4389 0.5206 -0.3944
H3 H 0.4904 0.4331 -0.3096
C2 C 0.43530(13) 0.5091(4) -0.1377(4)
C3 C 0.41860(13) 0.3903(3) -0.0679(4)
H4 H 0.4292 0.3107 -0.1206
C4 C 0.38731(13) 0.3849(3) 0.0749(4)
H5 H 0.3761 0.3029 0.1200
C5 C 0.37232(12) 0.5017(3) 0.1524(4)
C6 C 0.38872(12) 0.6222(3) 0.0874(4)
H6 H 0.3785 0.7017 0.1408
C7 C 0.42028(13) 0.6239(3) -0.0565(4)
H7 H 0.4320 0.7058 -0.1009
C8 C 0.23208(12) 0.6058(3) 0.1633(3)
H8 H 0.2609 0.6560 0.1002
H9 H 0.2157 0.6639 0.2489
C9 C 0.18332(12) 0.5514(3) 0.0447(3)
H10 H 0.1465 0.6012 0.0639
C10 C 0.19491(12) 0.5577(3) -0.1425(3)
C11 C 0.15043(12) 0.5647(3) -0.2565(3)
C12 C 0.15723(12) 0.5727(3) -0.4450(3)
H11 H 0.1790 0.4956 -0.4848
H12 H 0.1787 0.6533 -0.4741
C13 C 0.09498(13) 0.5751(3) -0.5243(4)
H13 H 0.0926 0.6324 -0.6246
H14 H 0.0819 0.4857 -0.5572
C14 C 0.05796(12) 0.6299(3) -0.3857(3)
H15 H 0.0164 0.6035 -0.4035
H16 H 0.0603 0.7268 -0.3819
C15 C 0.08503(12) 0.5691(3) -0.2234(3)
H17 H 0.0781 0.6277 -0.1257
C16 C 0.05777(12) 0.4313(3) -0.1945(4)
H18 H 0.0146 0.4403 -0.1951
H19 H 0.0671 0.3736 -0.2894
C17 C 0.07860(12) 0.3664(3) -0.0336(4)
C18 C 0.14158(12) 0.3184(3) -0.0128(4)
H20 H 0.1600 0.3187 -0.1228
H21 H 0.1423 0.2275 0.0309
C19 C 0.17556(12) 0.4089(3) 0.1095(3)
H22 H 0.1529 0.4143 0.2136
C20 C 0.23738(12) 0.3672(3) 0.1622(4)
H23 H 0.2375 0.2927 0.2420
H24 H 0.2602 0.3432 0.0643
C21 C 0.25761(13) 0.5499(3) -0.1946(4)
H25 H 0.2581 0.5437 -0.3171
H26 H 0.2765 0.4722 -0.1439
H27 H 0.2788 0.6289 -0.1565
loop_
_geom_bond_atom_site_label_1
_geom_bond_atom_site_label_2
_geom_bond_site_symmetry_1
_geom_bond_site_symmetry_2
S1 O1 1_555 1_555
O2 S1 1_555 1_555
O3 C17 1_555 1_555
N1 S1 1_555 1_555
C1 H1 1_555 1_555
H2 C1 1_555 1_555
H3 C1 1_555 1_555
C2 C1 1_555 1_555
C3 C2 1_555 1_555
H4 C3 1_555 1_555
C4 C3 1_555 1_555
H5 C4 1_555 1_555
C5 S1 1_555 1_555
C6 C5 1_555 1_555
H6 C6 1_555 1_555
C7 C2 1_555 1_555
H7 C7 1_555 1_555
C8 N1 1_555 1_555
H8 C8 1_555 1_555
H9 C8 1_555 1_555
C9 C8 1_555 1_555
H10 C9 1_555 1_555
C10 C9 1_555 1_555
C11 C10 1_555 1_555
C12 C11 1_555 1_555
H11 C12 1_555 1_555
H12 C12 1_555 1_555
C13 C12 1_555 1_555
H13 C13 1_555 1_555
H14 C13 1_555 1_555
C14 C13 1_555 1_555
H15 C14 1_555 1_555
H16 C14 1_555 1_555
C15 C11 1_555 1_555
H17 C15 1_555 1_555
C16 C15 1_555 1_555
H18 C16 1_555 1_555
H19 C16 1_555 1_555
C17 C16 1_555 1_555
C18 C17 1_555 1_555
H20 C18 1_555 1_555
H21 C18 1_555 1_555
C19 C9 1_555 1_555
H22 C19 1_555 1_555
C20 N1 1_555 1_555
H23 C20 1_555 1_555
H24 C20 1_555 1_555
C21 C10 1_555 1_555
H25 C21 1_555 1_555
H26 C21 1_555 1_555
H27 C21 1_555 1_555
C4 C5 1_555 1_555
C6 C7 1_555 1_555
C14 C15 1_555 1_555
C18 C19 1_555 1_555
C19 C20 1_555 1_555

#END
