
#######################################################################
#
#                 Cambridge Crystallographic Data Centre
#                                CCDC 
#
#######################################################################
#
# If this CIF has been generated from an entry in the Cambridge 
# Structural Database, then it will include bibliographic, chemical, 
# crystal, experimental, refinement or atomic coordinate data resulting 
# from the CCDC's data processing and validation procedures.
#
#######################################################################

data_HAYPOP
_chemical_formula_moiety         'C16 H13 Cl1 F1 N3 O2 S1'
_chemical_name_systematic        
'methyl (4R)-4-(2-chloro-4-fluorophenyl)-6-methyl-2-(1,3-thiazol-2-yl)-1,4-dihydropyrimidine-5-carboxylate'
_symmetry_cell_setting           orthorhombic
_symmetry_space_group_name_H-M   'P 21 21 21'
_symmetry_Int_Tables_number      19
_space_group_name_Hall           'P 2ac 2ab'
loop_
_symmetry_equiv_pos_site_id
_symmetry_equiv_pos_as_xyz
1 x,y,z
2 1/2-x,-y,1/2+z
3 -x,1/2+y,1/2-z
4 1/2+x,1/2-y,-z
_cell_length_a                   7.3344(2)
_cell_length_b                   13.5506(4)
_cell_length_c                   15.7557(6)
_cell_angle_alpha                90
_cell_angle_beta                 90
_cell_angle_gamma                90
_cell_volume                     1565.89
_exptl_crystal_colour            'light yellow'
_cell_formula_units_Z            4
loop_
_atom_site_label
_atom_site_type_symbol
_atom_site_fract_x
_atom_site_fract_y
_atom_site_fract_z
Cl1 Cl 0.92635(7) -0.04682(4) 0.85047(4)
S1 S 0.98660(7) -0.03450(4) 0.52395(3)
F1 F 0.4314(2) -0.28026(9) 0.93641(9)
O1 O 0.3593(2) 0.16838(12) 0.81711(10)
O2 O 0.5589(2) 0.25546(11) 0.89374(10)
N1 N 0.9645(3) 0.13628(14) 0.73098(12)
N2 N 0.7494(2) 0.02745(12) 0.67024(11)
N3 N 1.2128(3) 0.06901(14) 0.61106(12)
C1 C 0.7016(3) -0.08730(16) 0.84221(14)
C2 C 0.6569(3) -0.16944(17) 0.89093(14)
H1 H 0.7454 -0.2022 0.9247
C3 C 0.4791(3) -0.20102(15) 0.88796(14)
C4 C 0.3476(3) -0.15574(15) 0.83992(15)
H2 H 0.2254 -0.1791 0.8399
C5 C 0.3981(3) -0.07488(16) 0.79144(14)
H3 H 0.3087 -0.0435 0.7572
C6 C 0.5767(3) -0.03791(15) 0.79132(13)
C7 C 0.6189(3) 0.05297(14) 0.73718(13)
H4 H 0.5027 0.0707 0.7077
C8 C 0.6717(3) 0.14255(15) 0.78993(13)
C9 C 0.5163(3) 0.18920(14) 0.83334(13)
C10 C 0.4055(3) 0.30660(16) 0.93052(15)
H5 H 0.3434 0.3451 0.8865
H6 H 0.4484 0.3510 0.9754
H7 H 0.3203 0.2585 0.9547
C11 C 0.8440(3) 0.17926(15) 0.78709(13)
C12 C 0.9231(3) 0.26482(16) 0.83428(15)
H8 H 0.8246 0.3084 0.8533
H9 H 1.0055 0.3015 0.7968
H10 H 0.9911 0.2407 0.8836
C13 C 0.9067(3) 0.06726(14) 0.67305(13)
C14 C 1.0426(3) 0.03984(15) 0.60864(12)
C15 C 1.3071(3) 0.03025(16) 0.54336(14)
H11 H 1.4331 0.0430 0.5345
C16 C 1.2080(3) -0.02737(16) 0.49014(13)
H12 H 1.2549 -0.0592 0.4411
H13 H 1.060(4) 0.1497(16) 0.7324(14)
loop_
_geom_bond_atom_site_label_1
_geom_bond_atom_site_label_2
_geom_bond_site_symmetry_1
_geom_bond_site_symmetry_2
Cl1 C1 1_555 1_555
S1 C14 1_555 1_555
F1 C3 1_555 1_555
O1 C9 1_555 1_555
O2 C9 1_555 1_555
N1 C11 1_555 1_555
N2 C7 1_555 1_555
N3 C14 1_555 1_555
C1 C2 1_555 1_555
C2 H1 1_555 1_555
C3 C2 1_555 1_555
C4 C3 1_555 1_555
H2 C4 1_555 1_555
C5 C4 1_555 1_555
H3 C5 1_555 1_555
C6 C1 1_555 1_555
C7 C6 1_555 1_555
H4 C7 1_555 1_555
C8 C7 1_555 1_555
C9 C8 1_555 1_555
C10 O2 1_555 1_555
H5 C10 1_555 1_555
H6 C10 1_555 1_555
H7 C10 1_555 1_555
C11 C8 1_555 1_555
C12 C11 1_555 1_555
H8 C12 1_555 1_555
H9 C12 1_555 1_555
H10 C12 1_555 1_555
C13 N1 1_555 1_555
C14 C13 1_555 1_555
C15 N3 1_555 1_555
H11 C15 1_555 1_555
C16 S1 1_555 1_555
H12 C16 1_555 1_555
H13 N1 1_555 1_555
N2 C13 1_555 1_555
C5 C6 1_555 1_555
C15 C16 1_555 1_555

#END
