
#######################################################################
#
#                 Cambridge Crystallographic Data Centre
#                                CCDC 
#
#######################################################################
#
# If this CIF has been generated from an entry in the Cambridge 
# Structural Database, then it will include bibliographic, chemical, 
# crystal, experimental, refinement or atomic coordinate data resulting 
# from the CCDC's data processing and validation procedures.
#
#######################################################################

data_HAYTAD
_chemical_formula_moiety         'C22 H26 F1 N1 O2'
_chemical_name_systematic        
1-Cyclopentyl-4-(4-fluorophenyl)-7,7-dimethyl-4,6,7,8-tetrahydroquinoline-2,5-dione
_symmetry_cell_setting           monoclinic
_symmetry_space_group_name_H-M   'P 21/n'
_symmetry_Int_Tables_number      14
_space_group_name_Hall           '-P 2yn'
loop_
_symmetry_equiv_pos_site_id
_symmetry_equiv_pos_as_xyz
1 x,y,z
2 1/2-x,1/2+y,1/2-z
3 -x,-y,-z
4 1/2+x,1/2-y,1/2+z
_cell_length_a                   10.3031(16)
_cell_length_b                   10.7991(17)
_cell_length_c                   17.207(3)
_cell_angle_alpha                90
_cell_angle_beta                 101.942(3)
_cell_angle_gamma                90
_cell_volume                     1873.09
_exptl_crystal_colour            colorless
_exptl_crystal_description       prism
_chemical_melting_point          '404.9-405.7 K'
_cell_formula_units_Z            4
_exptl_crystal_recrystallization_method ethanol
loop_
_atom_site_label
_atom_site_type_symbol
_atom_site_fract_x
_atom_site_fract_y
_atom_site_fract_z
F1 F 0.57396(13) 0.66871(14) -0.00416(9)
O1 O 1.17017(15) 0.67276(13) 0.25811(8)
O2 O 0.99669(14) 0.15201(12) 0.11810(8)
N1 N 1.00375(15) 0.26234(13) 0.23136(8)
C1 C 1.14219(18) 0.57711(18) 0.28953(11)
C2 C 1.1630(2) 0.56718(18) 0.37827(11)
H1 H 1.0848 0.5986 0.3948
H2 H 1.2372 0.6195 0.4020
C3 C 1.19007(18) 0.43566(17) 0.41008(10)
C4 C 1.3242(2) 0.3888(2) 0.39746(13)
H3 H 1.3931 0.4436 0.4233
H4 H 1.3236 0.3861 0.3416
H5 H 1.3401 0.3072 0.4195
C5 C 1.1906(2) 0.4313(2) 0.49880(11)
H6 H 1.2657 0.4764 0.5274
H7 H 1.1960 0.3467 0.5164
H8 H 1.1105 0.4679 0.5084
C6 C 1.07835(19) 0.35284(17) 0.36586(10)
H9 H 1.0997 0.2672 0.3800
H10 H 0.9970 0.3732 0.3830
C7 C 1.05543(16) 0.36602(16) 0.27682(10)
C8 C 1.08544(17) 0.47062(16) 0.24154(10)
C9 C 1.06991(17) 0.47663(17) 0.15201(10)
H11 H 1.1372 0.5342 0.1407
C10 C 0.93514(18) 0.52485(17) 0.10933(10)
C11 C 0.90444(19) 0.64914(18) 0.11584(11)
H12 H 0.9664 0.7011 0.1467
C12 C 0.7836(2) 0.6976(2) 0.07736(12)
H13 H 0.7647 0.7811 0.0818
C13 C 0.6935(2) 0.6207(2) 0.03308(13)
C14 C 0.7180(2) 0.4984(2) 0.02456(13)
H14 H 0.6545 0.4477 -0.0062
C15 C 0.8398(2) 0.45076(19) 0.06272(12)
H15 H 0.8577 0.3673 0.0569
C16 C 1.10433(19) 0.34855(17) 0.12555(11)
H16 H 1.0853 0.3458 0.0680
H17 H 1.1987 0.3347 0.1439
C17 C 1.03002(18) 0.24621(18) 0.15591(10)
C18 C 0.93609(19) 0.16177(17) 0.26654(11)
H18 H 0.9204 0.1930 0.3173
C19 C 0.7998(2) 0.1231(2) 0.21670(13)
H19 H 0.7876 0.1560 0.1639
H20 H 0.7295 0.1527 0.2408
C20 C 0.8099(8) -0.0188(6) 0.2107(4)
H23 H 0.8358 -0.0422 0.1617
H24 H 0.7255 -0.0574 0.2123
C21 C 0.9178(6) -0.0585(5) 0.2839(4)
H25 H 0.8833 -0.0594 0.3323
H26 H 0.9547 -0.1391 0.2761
C24 C 1.0178(2) 0.04311(19) 0.28486(14)
H31 H 1.0778 0.0486 0.3355
H32 H 1.0673 0.0266 0.2445
H21? H 0.7947 0.1412 0.1615
H22? H 0.7300 0.1667 0.2344
C22? C 0.7850(7) -0.0106(8) 0.2383(7)
H27? H 0.7206 -0.0530 0.1979
H28? H 0.7588 -0.0182 0.2891
C23? C 0.9247(7) -0.0610(6) 0.2424(9)
H29? H 0.9405 -0.0764 0.1896
H30? H 0.9382 -0.1374 0.2727
H33? H 1.0486 0.0336 0.3411
H34? H 1.0932 0.0459 0.2602
loop_
_geom_bond_atom_site_label_1
_geom_bond_atom_site_label_2
_geom_bond_site_symmetry_1
_geom_bond_site_symmetry_2
F1 C13 1_555 1_555
O1 C1 1_555 1_555
O2 C17 1_555 1_555
N1 C7 1_555 1_555
C1 C2 1_555 1_555
C2 H1 1_555 1_555
H2 C2 1_555 1_555
C3 C2 1_555 1_555
C4 C3 1_555 1_555
H3 C4 1_555 1_555
H4 C4 1_555 1_555
H5 C4 1_555 1_555
C5 C3 1_555 1_555
H6 C5 1_555 1_555
H7 C5 1_555 1_555
H8 C5 1_555 1_555
C6 C3 1_555 1_555
H9 C6 1_555 1_555
H10 C6 1_555 1_555
C7 C6 1_555 1_555
C8 C1 1_555 1_555
C9 C8 1_555 1_555
H11 C9 1_555 1_555
C10 C9 1_555 1_555
C11 C10 1_555 1_555
H12 C11 1_555 1_555
C12 C11 1_555 1_555
H13 C12 1_555 1_555
C13 C12 1_555 1_555
C14 C13 1_555 1_555
H14 C14 1_555 1_555
C15 C10 1_555 1_555
H15 C15 1_555 1_555
C16 C9 1_555 1_555
H16 C16 1_555 1_555
H17 C16 1_555 1_555
C17 N1 1_555 1_555
C18 N1 1_555 1_555
H18 C18 1_555 1_555
C19 C18 1_555 1_555
H19 C19 1_555 1_555
H20 C19 1_555 1_555
C20 C19 1_555 1_555
H23 C20 1_555 1_555
H24 C20 1_555 1_555
C21 C20 1_555 1_555
H25 C21 1_555 1_555
H26 C21 1_555 1_555
C24 C18 1_555 1_555
H31 C24 1_555 1_555
H32 C24 1_555 1_555
C7 C8 1_555 1_555
C14 C15 1_555 1_555
C16 C17 1_555 1_555
C21 C24 1_555 1_555

#END
