
#######################################################################
#
#                 Cambridge Crystallographic Data Centre
#                                CCDC 
#
#######################################################################
#
# If this CIF has been generated from an entry in the Cambridge 
# Structural Database, then it will include bibliographic, chemical, 
# crystal, experimental, refinement or atomic coordinate data resulting 
# from the CCDC's data processing and validation procedures.
#
#######################################################################

data_HAYZAJ
_chemical_formula_moiety         'C7 H7 N2 1+,C8 H4 N1 O6 1-'
_chemical_name_systematic        'Benzimidazolium hydrogen nitroterephthalate'
_symmetry_cell_setting           triclinic
_symmetry_space_group_name_H-M   'P -1'
_symmetry_Int_Tables_number      2
_space_group_name_Hall           '-P 1'
loop_
_symmetry_equiv_pos_site_id
_symmetry_equiv_pos_as_xyz
1 x,y,z
2 -x,-y,-z
_cell_length_a                   8.445(6)
_cell_length_b                   9.076(4)
_cell_length_c                   9.755(4)
_cell_angle_alpha                98.051(2)
_cell_angle_beta                 91.905(2)
_cell_angle_gamma                97.891(2)
_cell_volume                     732.26
_exptl_crystal_colour            colorless
_exptl_crystal_description       block
_cell_formula_units_Z            2
loop_
_atom_site_label
_atom_site_type_symbol
_atom_site_fract_x
_atom_site_fract_y
_atom_site_fract_z
N1 N 0.26149(19) -0.01741(16) 0.51277(15)
H1 H 0.2876 -0.1115 0.4880
N3 N 0.2483(2) 0.21803(17) 0.50719(16)
H2 H 0.2646 0.3015 0.4778
C1 C 0.3078(2) 0.0994(2) 0.44974(19)
H4 H 0.3734 0.0980 0.3750
C2 C 0.0672(2) 0.2606(2) 0.7067(2)
H5 H 0.0608 0.3615 0.7036
C3 C -0.0105(3) 0.1844(3) 0.8021(2)
H6 H -0.0698 0.2354 0.8667
C4 C -0.0033(3) 0.0321(3) 0.8051(2)
H7 H -0.0594 -0.0157 0.8708
C5 C 0.0839(2) -0.0495(2) 0.71424(19)
H8 H 0.0884 -0.1508 0.7169
C6 C 0.1651(2) 0.02747(18) 0.61788(17)
C7 C 0.1565(2) 0.17870(18) 0.61449(17)
N2 N 0.17873(18) 0.38693(15) 0.13198(14)
O1 O 0.3040(3) 0.46138(16) 0.39020(14)
O2 O 0.34926(18) 0.70257(14) 0.47214(11)
O3 O 0.45482(19) 0.85105(14) -0.20937(12)
O4 O 0.33632(18) 0.61705(14) -0.28250(11)
H3 H 0.3500 0.6518 -0.3715
O5 O 0.0462(2) 0.39581(18) 0.1715(2)
O6 O 0.2278(2) 0.27049(15) 0.0980(2)
C8 C 0.3314(2) 0.59369(18) 0.37617(15)
C9 C 0.34878(19) 0.62790(16) 0.22947(14)
C10 C 0.4375(2) 0.76037(17) 0.20298(15)
H9 H 0.4864 0.8295 0.2768
C11 C 0.4548(2) 0.79168(18) 0.06902(15)
H10 H 0.5146 0.8813 0.0536
C12 C 0.38303(19) 0.68951(17) -0.04251(14)
C13 C 0.29692(19) 0.55516(17) -0.01966(14)
H11 H 0.2509 0.4847 -0.0936
C14 C 0.28060(19) 0.52764(16) 0.11549(15)
C15 C 0.3970(2) 0.72854(18) -0.18666(15)
loop_
_geom_bond_atom_site_label_1
_geom_bond_atom_site_label_2
_geom_bond_site_symmetry_1
_geom_bond_site_symmetry_2
N1 H1 1_555 1_555
N2 O5 1_555 1_555
N3 H2 1_555 1_555
O1 C8 1_555 1_555
O2 C8 1_555 1_555
O3 C15 1_555 1_555
O4 H3 1_555 1_555
O6 N2 1_555 1_555
C1 N1 1_555 1_555
H4 C1 1_555 1_555
C2 H5 1_555 1_555
C3 C2 1_555 1_555
H6 C3 1_555 1_555
C4 C3 1_555 1_555
H7 C4 1_555 1_555
C5 C4 1_555 1_555
H8 C5 1_555 1_555
C6 N1 1_555 1_555
C7 N3 1_555 1_555
C8 C9 1_555 1_555
C9 C10 1_555 1_555
C10 H9 1_555 1_555
C11 C10 1_555 1_555
H10 C11 1_555 1_555
C12 C11 1_555 1_555
C13 C12 1_555 1_555
H11 C13 1_555 1_555
C14 N2 1_555 1_555
C15 O4 1_555 1_555
N3 C1 1_555 1_555
C2 C7 1_555 1_555
C5 C6 1_555 1_555
C6 C7 1_555 1_555
C9 C14 1_555 1_555
C12 C15 1_555 1_555
C13 C14 1_555 1_555

#END
