
#######################################################################
#
#                 Cambridge Crystallographic Data Centre
#                                CCDC 
#
#######################################################################
#
# If this CIF has been generated from an entry in the Cambridge 
# Structural Database, then it will include bibliographic, chemical, 
# crystal, experimental, refinement or atomic coordinate data resulting 
# from the CCDC's data processing and validation procedures.
#
#######################################################################

data_HAZBAM
_chemical_formula_moiety         'C16 H19 N1 O1'
_chemical_name_systematic        1-Piperidin-1-ylmethyl-2-naphthol
_symmetry_cell_setting           monoclinic
_symmetry_space_group_name_H-M   'P 21/c'
_symmetry_Int_Tables_number      14
_space_group_name_Hall           '-P 2ybc'
loop_
_symmetry_equiv_pos_site_id
_symmetry_equiv_pos_as_xyz
1 x,y,z
2 -x,1/2+y,1/2-z
3 -x,-y,-z
4 x,1/2-y,1/2+z
_cell_length_a                   6.3262(19)
_cell_length_b                   9.360(3)
_cell_length_c                   22.629(7)
_cell_angle_alpha                90
_cell_angle_beta                 96.924(5)
_cell_angle_gamma                90
_cell_volume                     1330.16
_exptl_crystal_colour            colorless
_exptl_crystal_description       block
_chemical_melting_point          '368 K'
_cell_formula_units_Z            4
_exptl_crystal_recrystallization_method '95% ethanol'
loop_
_atom_site_label
_atom_site_type_symbol
_atom_site_fract_x
_atom_site_fract_y
_atom_site_fract_z
O1 O 0.2041(3) 1.0657(2) 0.12055(8)
H1 H 0.077(6) 0.998(4) 0.1077(13)
N1 N -0.0834(3) 0.8681(2) 0.11831(8)
C1 C 0.2553(4) 1.0383(3) 0.17959(11)
C2 C 0.4422(4) 1.1033(3) 0.20659(12)
H2 H 0.5208 1.1621 0.1843
C3 C 0.5087(4) 1.0808(3) 0.26473(12)
H3 H 0.6337 1.1238 0.2819
C4 C 0.3927(4) 0.9934(3) 0.29997(11)
C5 C 0.4615(4) 0.9676(3) 0.36056(11)
H4 H 0.5899 1.0063 0.3777
C6 C 0.3447(5) 0.8876(3) 0.39418(12)
H5 H 0.3926 0.8716 0.4341
C7 C 0.1537(5) 0.8296(3) 0.36921(12)
H6 H 0.0731 0.7756 0.3928
C8 C 0.0814(4) 0.8502(3) 0.31039(11)
H7 H -0.0479 0.8104 0.2946
C9 C 0.2002(4) 0.9312(2) 0.27310(10)
C10 C 0.1338(4) 0.9526(2) 0.21145(10)
C11 C -0.0756(4) 0.8906(3) 0.18299(10)
H8 H -0.0996 0.7999 0.2018
H9 H -0.1902 0.9545 0.1904
C12 C -0.3033(4) 0.8600(3) 0.09029(11)
H10 H -0.3784 0.9464 0.0990
H11 H -0.3739 0.7797 0.1066
C13 C -0.3124(5) 0.8424(3) 0.02356(11)
H12 H -0.4596 0.8341 0.0061
H13 H -0.2519 0.9262 0.0068
C14 C -0.1905(4) 0.7111(3) 0.00854(11)
H14 H -0.2608 0.6261 0.0210
H15 H -0.1873 0.7058 -0.0342
C15 C 0.0336(4) 0.7180(3) 0.03974(11)
H16 H 0.1089 0.7963 0.0235
H17 H 0.1077 0.6301 0.0326
C16 C 0.0344(4) 0.7394(3) 0.10596(11)
H18 H -0.0297 0.6570 0.1228
H19 H 0.1802 0.7473 0.1247
loop_
_geom_bond_atom_site_label_1
_geom_bond_atom_site_label_2
_geom_bond_site_symmetry_1
_geom_bond_site_symmetry_2
O1 H1 1_555 1_555
N1 C11 1_555 1_555
C1 O1 1_555 1_555
C2 C1 1_555 1_555
H2 C2 1_555 1_555
C3 C2 1_555 1_555
H3 C3 1_555 1_555
C4 C3 1_555 1_555
C5 C4 1_555 1_555
H4 C5 1_555 1_555
C6 C5 1_555 1_555
H5 C6 1_555 1_555
C7 C6 1_555 1_555
H6 C7 1_555 1_555
C8 C7 1_555 1_555
H7 C8 1_555 1_555
C9 C4 1_555 1_555
C10 C1 1_555 1_555
C11 C10 1_555 1_555
H8 C11 1_555 1_555
H9 C11 1_555 1_555
C12 N1 1_555 1_555
H10 C12 1_555 1_555
H11 C12 1_555 1_555
C13 C12 1_555 1_555
H12 C13 1_555 1_555
H13 C13 1_555 1_555
C14 C13 1_555 1_555
H14 C14 1_555 1_555
H15 C14 1_555 1_555
C15 C14 1_555 1_555
H16 C15 1_555 1_555
H17 C15 1_555 1_555
C16 N1 1_555 1_555
H18 C16 1_555 1_555
H19 C16 1_555 1_555
C8 C9 1_555 1_555
C9 C10 1_555 1_555
C15 C16 1_555 1_555

#END
