
#######################################################################
#
#                 Cambridge Crystallographic Data Centre
#                                CCDC 
#
#######################################################################
#
# If this CIF has been generated from an entry in the Cambridge 
# Structural Database, then it will include bibliographic, chemical, 
# crystal, experimental, refinement or atomic coordinate data resulting 
# from the CCDC's data processing and validation procedures.
#
#######################################################################

data_HAZDUK
_chemical_formula_moiety         'C22 H17 Cl1 O4'
_chemical_name_systematic        
'1-(4-chlorophenyl)-2-methoxy-2-oxoethyl biphenyl-4-carboxylate'
_symmetry_cell_setting           orthorhombic
_symmetry_space_group_name_H-M   'P 21 21 21'
_symmetry_Int_Tables_number      19
_space_group_name_Hall           'P 2ac 2ab'
loop_
_symmetry_equiv_pos_site_id
_symmetry_equiv_pos_as_xyz
1 x,y,z
2 1/2-x,-y,1/2+z
3 -x,1/2+y,1/2-z
4 1/2+x,1/2-y,-z
_cell_length_a                   6.1019(7)
_cell_length_b                   8.4030(9)
_cell_length_c                   36.236(5)
_cell_angle_alpha                90
_cell_angle_beta                 90
_cell_angle_gamma                90
_cell_volume                     1857.97
_exptl_crystal_colour            colorless
_exptl_crystal_description       block
_cell_formula_units_Z            4
loop_
_atom_site_label
_atom_site_type_symbol
_atom_site_fract_x
_atom_site_fract_y
_atom_site_fract_z
Cl1 Cl -0.1797(5) 0.1058(3) 0.56765(8)
O1 O 0.6895(10) 0.5367(7) 0.61284(15)
O2 O 0.9644(10) 0.6857(8) 0.59096(17)
O3 O 0.4907(11) 0.8165(7) 0.59599(17)
O4 O 0.4571(12) 0.7420(7) 0.53697(17)
C1 C 0.5883(14) 0.5474(9) 0.5776(2)
H1 H 0.6957 0.5210 0.5584
C2 C 0.5090(16) 0.7204(10) 0.5721(3)
C3 C 0.346(2) 0.8881(11) 0.5284(3)
H2 H 0.2845 0.8814 0.5041
H3 H 0.4489 0.9747 0.5293
H4 H 0.2316 0.9060 0.5460
C4 C 0.3988(15) 0.4325(10) 0.5755(2)
C5 C 0.3077(17) 0.4020(10) 0.5415(2)
H5 H 0.3663 0.4480 0.5203
C6 C 0.1239(15) 0.2999(11) 0.5390(3)
H6 H 0.0569 0.2803 0.5164
C7 C 0.0469(14) 0.2308(10) 0.5706(3)
C8 C 0.1384(16) 0.2601(11) 0.6044(3)
H7 H 0.0828 0.2120 0.6256
C9 C 0.3135(16) 0.3619(10) 0.6065(2)
H8 H 0.3759 0.3836 0.6294
C10 C 0.8829(14) 0.6146(11) 0.6165(2)
C11 C 0.8861(14) 0.5092(11) 0.6813(2)
H9 H 0.7616 0.4490 0.6763
C12 C 0.9822(16) 0.5028(12) 0.7158(2)
H10 H 0.9175 0.4407 0.7341
C13 C 1.1732(15) 0.5867(10) 0.7241(2)
C14 C 1.2549(14) 0.6825(11) 0.6962(3)
H11 H 1.3780 0.7446 0.7009
C15 C 1.1607(14) 0.6886(11) 0.6620(2)
H12 H 1.2241 0.7511 0.6437
C16 C 0.9743(14) 0.6042(10) 0.6542(2)
C17 C 1.2741(14) 0.5821(9) 0.7614(3)
C18 C 1.1804(17) 0.4998(12) 0.7906(3)
H13 H 1.0492 0.4456 0.7870
C19 C 1.279(2) 0.4967(12) 0.8253(3)
H14 H 1.2110 0.4430 0.8446
C20 C 1.4693(19) 0.5701(11) 0.8310(3)
H15 H 1.5340 0.5682 0.8542
C21 C 1.5674(15) 0.6471(13) 0.8030(3)
H16 H 1.7009 0.6975 0.8071
C22 C 1.4742(16) 0.6527(12) 0.7684(2)
H17 H 1.5472 0.7050 0.7494
loop_
_geom_bond_atom_site_label_1
_geom_bond_atom_site_label_2
_geom_bond_site_symmetry_1
_geom_bond_site_symmetry_2
Cl1 C7 1_555 1_555
O1 C1 1_555 1_555
O2 C10 1_555 1_555
O3 C2 1_555 1_555
O4 C2 1_555 1_555
C1 H1 1_555 1_555
C2 C1 1_555 1_555
C3 O4 1_555 1_555
H2 C3 1_555 1_555
H3 C3 1_555 1_555
H4 C3 1_555 1_555
C4 C1 1_555 1_555
C5 C4 1_555 1_555
H5 C5 1_555 1_555
C6 C5 1_555 1_555
H6 C6 1_555 1_555
C7 C6 1_555 1_555
C8 C7 1_555 1_555
H7 C8 1_555 1_555
C9 C4 1_555 1_555
H8 C9 1_555 1_555
C10 O1 1_555 1_555
C11 H9 1_555 1_555
C12 C11 1_555 1_555
H10 C12 1_555 1_555
C13 C12 1_555 1_555
C14 C13 1_555 1_555
H11 C14 1_555 1_555
C15 C14 1_555 1_555
H12 C15 1_555 1_555
C16 C10 1_555 1_555
C17 C13 1_555 1_555
C18 C17 1_555 1_555
H13 C18 1_555 1_555
C19 C18 1_555 1_555
H14 C19 1_555 1_555
C20 C19 1_555 1_555
H15 C20 1_555 1_555
C21 C20 1_555 1_555
H16 C21 1_555 1_555
C22 C17 1_555 1_555
H17 C22 1_555 1_555
C8 C9 1_555 1_555
C11 C16 1_555 1_555
C15 C16 1_555 1_555
C21 C22 1_555 1_555

#END
