
#######################################################################
#
#                 Cambridge Crystallographic Data Centre
#                                CCDC 
#
#######################################################################
#
# If this CIF has been generated from an entry in the Cambridge 
# Structural Database, then it will include bibliographic, chemical, 
# crystal, experimental, refinement or atomic coordinate data resulting 
# from the CCDC's data processing and validation procedures.
#
#######################################################################

data_HAZKAV
_chemical_compound_source        'liverwort Lophozia ventricosa'
_chemical_formula_moiety         'C15 H26 O1'
_chemical_name_systematic        (-)-Maalioxide
_symmetry_cell_setting           orthorhombic
_symmetry_space_group_name_H-M   'P 21 21 21'
_symmetry_Int_Tables_number      19
_space_group_name_Hall           'P 2ac 2ab'
loop_
_symmetry_equiv_pos_site_id
_symmetry_equiv_pos_as_xyz
1 x,y,z
2 1/2-x,-y,1/2+z
3 -x,1/2+y,1/2-z
4 1/2+x,1/2-y,-z
_cell_length_a                   9.4934(6)
_cell_length_b                   11.7412(6)
_cell_length_c                   12.1048(7)
_cell_angle_alpha                90
_cell_angle_beta                 90
_cell_angle_gamma                90
_cell_volume                     1349.25
_exptl_crystal_colour            colorless
_chemical_melting_point          64-65deg.C
_cell_formula_units_Z            4
loop_
_atom_site_label
_atom_site_type_symbol
_atom_site_fract_x
_atom_site_fract_y
_atom_site_fract_z
O1 O 0.88750(9) 0.31697(7) 0.89253(7)
C1 C 0.61342(14) 0.05348(10) 0.79252(12)
H1 H 0.6887 0.0095 0.7572
H2 H 0.5250 0.0118 0.7819
C2 C 0.64429(16) 0.06173(12) 0.91714(13)
H3 H 0.6591 -0.0153 0.9461
H4 H 0.5613 0.0934 0.9542
C3 C 0.77371(16) 0.13549(12) 0.94716(12)
H5 H 0.7816 0.1423 1.0276
H6 H 0.8598 0.0995 0.9192
C4 C 0.75627(12) 0.25351(10) 0.89558(10)
C5 C 0.73126(12) 0.23499(9) 0.77307(9)
H7 H 0.8106 0.1855 0.7505
C6 C 0.76639(13) 0.34848(10) 0.72125(10)
H8 H 0.6892 0.4027 0.7375
C7 C 0.77839(19) 0.33431(13) 0.59588(11)
H9 H 0.8617 0.2887 0.5779
H10 H 0.7886 0.4091 0.5608
C8 C 0.6454(2) 0.27492(15) 0.55223(13)
H11 H 0.6549 0.2631 0.4724
H12 H 0.5639 0.3246 0.5644
C9 C 0.61858(19) 0.15954(13) 0.60848(12)
H13 H 0.6974 0.1083 0.5922
H14 H 0.5330 0.1256 0.5774
C10 C 0.60175(14) 0.16973(10) 0.73482(11)
C11 C 0.89775(13) 0.38302(10) 0.78961(9)
C12 C 0.89862(17) 0.50903(11) 0.81769(12)
H15 H 0.9804 0.5263 0.8627
H16 H 0.8137 0.5281 0.8582
H17 H 0.9023 0.5533 0.7501
C13 C 1.03712(15) 0.34896(13) 0.73739(13)
H18 H 1.0341 0.2691 0.7172
H19 H 1.1128 0.3614 0.7898
H20 H 1.0534 0.3946 0.6719
C14 C 0.45912(15) 0.22536(13) 0.76252(16)
H21 H 0.4608 0.3047 0.7404
H22 H 0.4423 0.2203 0.8414
H23 H 0.3845 0.1861 0.7232
C15 C 0.65050(17) 0.32483(13) 0.96032(12)
H24 H 0.6210 0.3893 0.9158
H25 H 0.6941 0.3521 1.0278
H26 H 0.5691 0.2785 0.9785
loop_
_geom_bond_atom_site_label_1
_geom_bond_atom_site_label_2
_geom_bond_site_symmetry_1
_geom_bond_site_symmetry_2
O1 C4 1_555 1_555
C1 H1 1_555 1_555
H2 C1 1_555 1_555
C2 C1 1_555 1_555
H3 C2 1_555 1_555
H4 C2 1_555 1_555
C3 C2 1_555 1_555
H5 C3 1_555 1_555
H6 C3 1_555 1_555
C4 C3 1_555 1_555
C5 C4 1_555 1_555
H7 C5 1_555 1_555
C6 C5 1_555 1_555
H8 C6 1_555 1_555
C7 C6 1_555 1_555
H9 C7 1_555 1_555
H10 C7 1_555 1_555
C8 C7 1_555 1_555
H11 C8 1_555 1_555
H12 C8 1_555 1_555
C9 C8 1_555 1_555
H13 C9 1_555 1_555
H14 C9 1_555 1_555
C10 C1 1_555 1_555
C11 O1 1_555 1_555
C12 C11 1_555 1_555
H15 C12 1_555 1_555
H16 C12 1_555 1_555
H17 C12 1_555 1_555
C13 C11 1_555 1_555
H18 C13 1_555 1_555
H19 C13 1_555 1_555
H20 C13 1_555 1_555
C14 C10 1_555 1_555
H21 C14 1_555 1_555
H22 C14 1_555 1_555
H23 C14 1_555 1_555
C15 C4 1_555 1_555
H24 C15 1_555 1_555
H25 C15 1_555 1_555
H26 C15 1_555 1_555
C5 C10 1_555 1_555
C6 C11 1_555 1_555
C9 C10 1_555 1_555

#END
