
#######################################################################
#
#                 Cambridge Crystallographic Data Centre
#                                CCDC 
#
#######################################################################
#
# If this CIF has been generated from an entry in the Cambridge 
# Structural Database, then it will include bibliographic, chemical, 
# crystal, experimental, refinement or atomic coordinate data resulting 
# from the CCDC's data processing and validation procedures.
#
#######################################################################

data_HAZMIG
_chemical_formula_moiety         'C25 H24 F3 N1 O2'
_chemical_name_systematic        
2-((2-(Hydroxy(diphenyl)methyl)pyrrolidin-1-yl)methyl)-6-(trifluoromethyl)phenol
_symmetry_cell_setting           monoclinic
_symmetry_space_group_name_H-M   'P 21'
_symmetry_Int_Tables_number      4
_space_group_name_Hall           'P 2yb'
loop_
_symmetry_equiv_pos_site_id
_symmetry_equiv_pos_as_xyz
1 x,y,z
2 -x,1/2+y,-z
_cell_length_a                   8.8882(2)
_cell_length_b                   9.0711(2)
_cell_length_c                   13.1385(2)
_cell_angle_alpha                90
_cell_angle_beta                 94.386(2)
_cell_angle_gamma                90
_cell_volume                     1056.2
_cell_formula_units_Z            2
loop_
_atom_site_label
_atom_site_type_symbol
_atom_site_fract_x
_atom_site_fract_y
_atom_site_fract_z
F1 F 0.17642(17) 1.27985(18) 0.80089(11)
O1 O 0.49713(15) 0.77307(17) 0.54646(10)
N1 N 0.41265(15) 0.73810(18) 0.75443(11)
O2 O 0.39974(18) 1.0509(2) 0.79327(11)
F2 F 0.37600(17) 1.33075(18) 0.89234(13)
F3 F 0.1639(2) 1.3499(2) 0.95464(14)
C1 C 0.51640(18) 0.63536(19) 0.70478(12)
H1 H 0.5887 0.5936 0.7570
C2 C 0.6957(2) 0.8442(2) 0.67528(13)
C3 C 0.60397(19) 0.71811(19) 0.62422(12)
C4 C 0.7822(2) 0.4964(2) 0.61761(15)
H2 H 0.7627 0.4729 0.6842
C5 C 0.4573(2) 0.7576(3) 0.86399(13)
H3 H 0.5602 0.7940 0.8718
H4 H 0.4551 0.6626 0.8977
C6 C 0.8165(2) 0.8139(3) 0.74680(14)
H5 H 0.8441 0.7166 0.7602
C7 C 0.35665(19) 0.8629(2) 0.91548(13)
C8 C 0.3371(2) 1.0069(2) 0.87905(13)
C9 C 0.8955(3) 0.9263(3) 0.79786(19)
H6 H 0.9757 0.9044 0.8451
C10 C 0.7409(2) 0.6463(2) 0.47036(14)
H7 H 0.6933 0.7250 0.4358
C11 C 0.8831(2) 0.4114(3) 0.56828(17)
H8 H 0.9308 0.3320 0.6018
C12 C 0.2575(2) 0.6772(3) 0.73909(16)
H9 H 0.1844 0.7558 0.7268
H10 H 0.2323 0.6218 0.7986
C13 C 0.6600(3) 0.9909(2) 0.65431(19)
H11 H 0.5831 1.0145 0.6050
C14 C 0.70917(18) 0.6164(2) 0.57007(12)
C15 C 0.2874(2) 0.8238(3) 1.00284(15)
H12 H 0.2984 0.7281 1.0279
C16 C 0.2545(2) 1.1099(2) 0.93061(14)
C17 C 0.8422(2) 0.5608(3) 0.42154(15)
H13 H 0.8623 0.5833 0.3549
C18 C 0.2587(2) 0.5775(3) 0.64709(18)
H14 H 0.2425 0.6332 0.5841
H15 H 0.1821 0.5016 0.6485
C19 C 0.4160(2) 0.5118(2) 0.65809(16)
H16 H 0.4482 0.4826 0.5921
H17 H 0.4190 0.4263 0.7026
C20 C 0.1867(2) 1.0667(3) 1.01784(16)
H18 H 0.1304 1.1342 1.0523
C21 C 0.2026(3) 0.9240(3) 1.05343(17)
H19 H 0.1562 0.8952 1.1114
C22 C 0.9131(2) 0.4441(3) 0.46944(17)
H20 H 0.9808 0.3871 0.4359
C23 C 0.2432(2) 1.2651(3) 0.89528(17)
C24 C 0.8552(3) 1.0700(4) 0.7787(3)
H21 H 0.9064 1.1457 0.8143
C25 C 0.7399(3) 1.1022(3) 0.7074(3)
H22 H 0.7144 1.2001 0.6941
H23 H 0.431(2) 0.816(3) 0.5746(17)
H24 H 0.427(4) 0.977(3) 0.758(2)
loop_
_geom_bond_atom_site_label_1
_geom_bond_atom_site_label_2
_geom_bond_site_symmetry_1
_geom_bond_site_symmetry_2
F1 C23 1_555 1_555
O1 C3 1_555 1_555
N1 C1 1_555 1_555
O2 C8 1_555 1_555
F2 C23 1_555 1_555
F3 C23 1_555 1_555
C1 H1 1_555 1_555
C2 C3 1_555 1_555
C3 C1 1_555 1_555
C4 H2 1_555 1_555
C5 N1 1_555 1_555
H3 C5 1_555 1_555
H4 C5 1_555 1_555
C6 C2 1_555 1_555
H5 C6 1_555 1_555
C7 C5 1_555 1_555
C8 C7 1_555 1_555
C9 C6 1_555 1_555
H6 C9 1_555 1_555
C10 H7 1_555 1_555
C11 C4 1_555 1_555
H8 C11 1_555 1_555
C12 N1 1_555 1_555
H9 C12 1_555 1_555
H10 C12 1_555 1_555
C13 C2 1_555 1_555
H11 C13 1_555 1_555
C14 C3 1_555 1_555
C15 C7 1_555 1_555
H12 C15 1_555 1_555
C16 C8 1_555 1_555
C17 C10 1_555 1_555
H13 C17 1_555 1_555
C18 C12 1_555 1_555
H14 C18 1_555 1_555
H15 C18 1_555 1_555
C19 C1 1_555 1_555
H16 C19 1_555 1_555
H17 C19 1_555 1_555
C20 C16 1_555 1_555
H18 C20 1_555 1_555
C21 C15 1_555 1_555
H19 C21 1_555 1_555
C22 C11 1_555 1_555
H20 C22 1_555 1_555
C23 C16 1_555 1_555
C24 C9 1_555 1_555
H21 C24 1_555 1_555
C25 C13 1_555 1_555
H22 C25 1_555 1_555
H23 O1 1_555 1_555
H24 O2 1_555 1_555
C4 C14 1_555 1_555
C10 C14 1_555 1_555
C17 C22 1_555 1_555
C18 C19 1_555 1_555
C20 C21 1_555 1_555
C24 C25 1_555 1_555

#END
