
#######################################################################
#
#                 Cambridge Crystallographic Data Centre
#                                CCDC 
#
#######################################################################
#
# If this CIF has been generated from an entry in the Cambridge 
# Structural Database, then it will include bibliographic, chemical, 
# crystal, experimental, refinement or atomic coordinate data resulting 
# from the CCDC's data processing and validation procedures.
#
#######################################################################

data_HAZMAX
_chemical_formula_moiety         'C22 H21 O2 P1'
_chemical_name_systematic        Ethoxycarbonylmethylenetriphenylphosphorane
_symmetry_cell_setting           monoclinic
_symmetry_space_group_name_H-M   'P 21/n'
_symmetry_Int_Tables_number      14
_space_group_name_Hall           '-P 2yn'
loop_
_symmetry_equiv_pos_site_id
_symmetry_equiv_pos_as_xyz
1 x,y,z
2 1/2-x,1/2+y,1/2-z
3 -x,-y,-z
4 1/2+x,1/2-y,1/2+z
_cell_length_a                   9.8513(3)
_cell_length_b                   14.5488(4)
_cell_length_c                   12.8581(4)
_cell_angle_alpha                90
_cell_angle_beta                 101.4430(10)
_cell_angle_gamma                90
_cell_volume                     1806.25
_exptl_crystal_colour            colorless
_exptl_crystal_description       block
_cell_formula_units_Z            4
_exptl_crystal_recrystallization_method 'benzene/petroleum ether'
loop_
_atom_site_label
_atom_site_type_symbol
_atom_site_fract_x
_atom_site_fract_y
_atom_site_fract_z
C1 C 0.71577(15) 0.04064(10) 0.21276(11)
C2 C 0.63467(17) 0.05457(10) 0.11210(12)
H1 H 0.5371(19) 0.0600(12) 0.1054(13)
C3 C 0.69769(19) 0.06410(11) 0.02472(13)
H2 H 0.6415(19) 0.0734(13) -0.0429(15)
C4 C 0.84033(19) 0.05960(11) 0.03787(13)
H3 H 0.8814(19) 0.0674(12) -0.0238(15)
C5 C 0.92160(18) 0.04483(11) 0.13757(13)
H4 H 1.024(2) 0.0406(12) 0.1494(14)
C6 C 0.85919(16) 0.03498(11) 0.22510(12)
H5 H 0.9145(18) 0.0252(12) 0.2950(15)
C7 C 0.73495(14) -0.04818(10) 0.41403(11)
C8 C 0.77367(16) -0.13112(10) 0.37359(13)
H6 H 0.7498(17) -0.1441(12) 0.2971(14)
C9 C 0.84275(17) -0.19742(11) 0.44160(14)
H7 H 0.8663(19) -0.2549(13) 0.4104(14)
C10 C 0.87196(16) -0.18273(12) 0.55001(14)
H8 H 0.9154(19) -0.2287(13) 0.5962(14)
C11 C 0.83349(16) -0.10089(12) 0.59061(13)
H9 H 0.8508(18) -0.0890(12) 0.6641(15)
C12 C 0.76632(15) -0.03303(11) 0.52329(12)
H10 H 0.7407(18) 0.0235(13) 0.5508(13)
C13 C 0.65334(15) 0.14449(10) 0.39249(11)
C14 C 0.75096(15) 0.20847(10) 0.37355(12)
H11 H 0.8073(17) 0.1968(12) 0.3245(13)
C15 C 0.76558(17) 0.29190(11) 0.42777(13)
H12 H 0.8312(19) 0.3342(13) 0.4130(14)
C16 C 0.68288(17) 0.31176(11) 0.50024(13)
H13 H 0.6909(18) 0.3703(13) 0.5371(14)
C17 C 0.58506(17) 0.24843(11) 0.51926(12)
H14 H 0.5279(18) 0.2617(12) 0.5705(14)
C18 C 0.57014(16) 0.16503(11) 0.46610(12)
H15 H 0.5046(18) 0.1197(12) 0.4796(13)
C19 C 0.45949(15) 0.01170(11) 0.29520(12)
H16 H 0.3984(18) 0.0554(12) 0.3151(13)
C20 C 0.41367(15) -0.07608(10) 0.25748(11)
C21 C 0.21988(17) -0.17950(11) 0.22860(13)
H17 H 0.2902(18) -0.2268(12) 0.2613(13)
H18 H 0.1992(17) -0.1875(12) 0.1531(15)
C22 C 0.09055(18) -0.18850(13) 0.27333(15)
H19 H 0.051(2) -0.2509(14) 0.2602(15)
H20 H 0.023(2) -0.1477(14) 0.2404(15)
H21 H 0.1130(19) -0.1770(14) 0.3499(16)
P1 P 0.63279(4) 0.03429(2) 0.32604(3)
O1 O 0.48432(11) -0.13788(8) 0.22940(9)
O2 O 0.27372(10) -0.08816(7) 0.25329(8)
loop_
_geom_bond_atom_site_label_1
_geom_bond_atom_site_label_2
_geom_bond_site_symmetry_1
_geom_bond_site_symmetry_2
C1 C2 1_555 1_555
C2 H1 1_555 1_555
C3 C2 1_555 1_555
H2 C3 1_555 1_555
C4 C3 1_555 1_555
H3 C4 1_555 1_555
C5 C4 1_555 1_555
H4 C5 1_555 1_555
C6 C1 1_555 1_555
H5 C6 1_555 1_555
C7 C8 1_555 1_555
C8 H6 1_555 1_555
C9 C8 1_555 1_555
H7 C9 1_555 1_555
C10 C9 1_555 1_555
H8 C10 1_555 1_555
C11 C10 1_555 1_555
H9 C11 1_555 1_555
C12 C7 1_555 1_555
H10 C12 1_555 1_555
C13 C14 1_555 1_555
C14 H11 1_555 1_555
C15 C14 1_555 1_555
H12 C15 1_555 1_555
C16 C15 1_555 1_555
H13 C16 1_555 1_555
C17 C16 1_555 1_555
H14 C17 1_555 1_555
C18 C13 1_555 1_555
H15 C18 1_555 1_555
C19 H16 1_555 1_555
C20 C19 1_555 1_555
C21 H17 1_555 1_555
H18 C21 1_555 1_555
C22 C21 1_555 1_555
H19 C22 1_555 1_555
H20 C22 1_555 1_555
H21 C22 1_555 1_555
P1 C1 1_555 1_555
O1 C20 1_555 1_555
O2 C20 1_555 1_555
C5 C6 1_555 1_555
C7 P1 1_555 1_555
C11 C12 1_555 1_555
C13 P1 1_555 1_555
C17 C18 1_555 1_555
C19 P1 1_555 1_555
C21 O2 1_555 1_555

#END
