
#######################################################################
#
#                 Cambridge Crystallographic Data Centre
#                                CCDC 
#
#######################################################################
#
# If this CIF has been generated from an entry in the Cambridge 
# Structural Database, then it will include bibliographic, chemical, 
# crystal, experimental, refinement or atomic coordinate data resulting 
# from the CCDC's data processing and validation procedures.
#
#######################################################################

data_HAZPEE
_chemical_formula_moiety         'C18 H22 O6'
_chemical_name_systematic        
4-benzyloxy-3-(2,2-dimethyl-1,3-dioxolan-4-yl)-7-oxo-2,8-dioxabicyclo(3.3.0)octane
_symmetry_cell_setting           monoclinic
_symmetry_space_group_name_H-M   'P 21'
_symmetry_Int_Tables_number      4
_space_group_name_Hall           'P 2yb'
loop_
_symmetry_equiv_pos_site_id
_symmetry_equiv_pos_as_xyz
1 x,y,z
2 -x,1/2+y,-z
_cell_length_a                   5.810(7)
_cell_length_b                   10.252(12)
_cell_length_c                   14.536(11)
_cell_angle_alpha                90
_cell_angle_beta                 98.56(8)
_cell_angle_gamma                90
_cell_volume                     856.179
_exptl_crystal_colour            colorless
_exptl_crystal_description       block
_cell_formula_units_Z            2
loop_
_atom_site_label
_atom_site_type_symbol
_atom_site_fract_x
_atom_site_fract_y
_atom_site_fract_z
O1 O 0.2586(7) 1.1796(4) 0.9892(3)
O2 O 0.0297(5) 1.0134(3) 0.9383(2)
O3 O -0.0335(5) 0.8790(3) 0.8093(2)
O4 O 0.3492(6) 0.6900(3) 0.7999(2)
O5 O 0.2742(5) 0.9001(4) 0.6107(2)
O6 O -0.0673(6) 0.9434(5) 0.5176(2)
C1 C 0.5652(6) 0.5074(3) 0.7598(3)
C2 C 0.4020(6) 0.4101(4) 0.7317(3)
H1 H 0.2509(6) 0.4330(7) 0.6996(4)
C3 C 0.4583(12) 0.2795(4) 0.7502(4)
H2 H 0.3460(15) 0.2125(5) 0.7309(6)
C4 C 0.6779(14) 0.2462(4) 0.7969(4)
H3 H 0.7166(19) 0.1564(5) 0.8097(6)
C5 C 0.8410(9) 0.3435(7) 0.8250(3)
H4 H 0.9921(11) 0.3206(10) 0.8572(4)
C6 C 0.7847(6) 0.4741(6) 0.8065(3)
H5 H 0.8970(8) 0.5411(8) 0.8259(4)
C7 C 0.5099(13) 0.6458(6) 0.7402(5)
H6 H 0.6512(13) 0.6974(6) 0.7511(5)
H7 H 0.4413(13) 0.6561(6) 0.6756(5)
C8 C 0.3603(7) 0.8267(4) 0.8170(3)
H8 H 0.5119(7) 0.8626(4) 0.8083(3)
C9 C 0.3105(8) 0.8487(5) 0.9173(3)
H9 H 0.3444(8) 0.7701(5) 0.9552(3)
C10 C 0.4263(8) 0.9674(6) 0.9659(3)
H10 H 0.4961(8) 0.9456(6) 1.0288(3)
H11 H 0.5470(8) 1.0002(6) 0.9325(3)
C11 C 0.2418(8) 1.0663(5) 0.9671(3)
C12 C 0.0509(7) 0.8817(5) 0.9049(3)
H12 H -0.0339(7) 0.8199(5) 0.9389(3)
C13 C 0.1622(7) 0.9012(4) 0.7606(3)
H13 H 0.2000(7) 0.9944(4) 0.7638(3)
C14 C 0.0897(7) 0.8648(5) 0.6609(3)
H14 H 0.0595(7) 0.7708(5) 0.6554(3)
C15 C -0.1129(8) 0.9401(6) 0.6098(3)
H15 H -0.2589(8) 0.8961(6) 0.6138(3)
H16 H -0.1191(8) 1.0275(6) 0.6349(3)
C16 C 0.1763(8) 0.9308(5) 0.5180(3)
C17 C 0.2182(12) 0.8191(7) 0.4547(4)
H17 H 0.3827(12) 0.8081(7) 0.4561(4)
H18 H 0.1466(12) 0.8380(7) 0.3923(4)
H19 H 0.1529(12) 0.7404(7) 0.4756(4)
C18 C 0.2805(11) 1.0558(7) 0.4900(5)
H20 H 0.4428(11) 1.0419(7) 0.4873(5)
H21 H 0.2636(11) 1.1225(7) 0.5349(5)
H22 H 0.2034(11) 1.0825(7) 0.4299(5)
loop_
_geom_bond_atom_site_label_1
_geom_bond_atom_site_label_2
_geom_bond_site_symmetry_1
_geom_bond_site_symmetry_2
O1 C11 1_555 1_555
O2 C11 1_555 1_555
O3 C12 1_555 1_555
O4 C7 1_555 1_555
O5 C14 1_555 1_555
O6 C15 1_555 1_555
C1 C2 1_555 1_555
C2 H1 1_555 1_555
C3 C2 1_555 1_555
H2 C3 1_555 1_555
C4 C3 1_555 1_555
H3 C4 1_555 1_555
C5 C4 1_555 1_555
H4 C5 1_555 1_555
C6 C1 1_555 1_555
H5 C6 1_555 1_555
C7 C1 1_555 1_555
H6 C7 1_555 1_555
H7 C7 1_555 1_555
C8 O4 1_555 1_555
H8 C8 1_555 1_555
C9 C8 1_555 1_555
H9 C9 1_555 1_555
C10 C9 1_555 1_555
H10 C10 1_555 1_555
H11 C10 1_555 1_555
C11 C10 1_555 1_555
C12 O2 1_555 1_555
H12 C12 1_555 1_555
C13 O3 1_555 1_555
H13 C13 1_555 1_555
C14 C13 1_555 1_555
H14 C14 1_555 1_555
C15 C14 1_555 1_555
H15 C15 1_555 1_555
H16 C15 1_555 1_555
C16 O5 1_555 1_555
C17 C16 1_555 1_555
H17 C17 1_555 1_555
H18 C17 1_555 1_555
H19 C17 1_555 1_555
C18 C16 1_555 1_555
H20 C18 1_555 1_555
H21 C18 1_555 1_555
H22 C18 1_555 1_555
O6 C16 1_555 1_555
C5 C6 1_555 1_555
C8 C13 1_555 1_555
C9 C12 1_555 1_555

#END
