
#######################################################################
#
#                 Cambridge Crystallographic Data Centre
#                                CCDC 
#
#######################################################################
#
# If this CIF has been generated from an entry in the Cambridge 
# Structural Database, then it will include bibliographic, chemical, 
# crystal, experimental, refinement or atomic coordinate data resulting 
# from the CCDC's data processing and validation procedures.
#
#######################################################################

data_HAZTAG
_chemical_formula_moiety         'C12 H8 F1 N3 O1'
_chemical_name_systematic        
1-(4-fluorophenyl)-3-oxo-1H-1,2,3-benzotriazole
_symmetry_cell_setting           monoclinic
_symmetry_space_group_name_H-M   'I 2/c'
_symmetry_Int_Tables_number      15
_space_group_name_Hall           '-I 2yc'
loop_
_symmetry_equiv_pos_site_id
_symmetry_equiv_pos_as_xyz
1 x,y,z
2 -x,y,1/2-z
3 1/2+x,1/2+y,1/2+z
4 1/2-x,1/2+y,-z
5 -x,-y,-z
6 x,-y,1/2+z
7 1/2-x,1/2-y,1/2-z
8 1/2+x,1/2-y,z
_cell_length_a                   23.798(3)
_cell_length_b                   15.8133(8)
_cell_length_c                   25.183(3)
_cell_angle_alpha                90
_cell_angle_beta                 117.613(14)
_cell_angle_gamma                90
_cell_volume                     8397.55
_cell_formula_units_Z            32
loop_
_atom_site_label
_atom_site_type_symbol
_atom_site_fract_x
_atom_site_fract_y
_atom_site_fract_z
F1 F 0.42706(19) 0.3984(3) 0.24633(18)
N1 N 0.2502(2) 0.5616(2) 0.29253(17)
O1 O 0.1509(2) 0.7262(2) 0.26391(19)
N2 N 0.1856(2) 0.6596(3) 0.28327(19)
N3 N 0.2202(2) 0.6301(3) 0.25909(19)
C1 C 0.1924(2) 0.6124(3) 0.3329(2)
C2 C 0.2272(3) 0.4991(3) 0.4222(2)
H1 H 0.2377 0.4606 0.4533
C3 C 0.2349(2) 0.5486(3) 0.3376(2)
C4 C 0.3031(2) 0.4323(3) 0.2877(2)
H2 H 0.2776 0.4020 0.2999
C5 C 0.2961(2) 0.5195(3) 0.2800(2)
C6 C 0.1841(3) 0.5640(3) 0.4156(2)
H3 H 0.1675 0.5670 0.4425
C7 C 0.2546(3) 0.4895(3) 0.3852(2)
H4 H 0.2841 0.4473 0.3910
C8 C 0.3323(2) 0.5665(3) 0.2610(2)
H5 H 0.3273 0.6247 0.2561
C9 C 0.3480(3) 0.3909(4) 0.2770(2)
H6 H 0.3540 0.3329 0.2826
C10 C 0.1660(3) 0.6219(3) 0.3714(3)
H7 H 0.1377 0.6652 0.3670
C11 C 0.3836(3) 0.4388(4) 0.2579(2)
C12 C 0.3764(3) 0.5238(4) 0.2495(2)
H8 H 0.4011 0.5533 0.2359
F2 F 0.67484(18) 0.6406(2) 0.49145(17)
N4 N 0.5034(2) 0.8106(2) 0.54090(17)
N5 N 0.4728(2) 0.8795(3) 0.50805(18)
C13 C 0.4857(2) 0.7965(3) 0.58496(19)
C14 C 0.5024(3) 0.7370(3) 0.6308(2)
H9 H 0.5322 0.6949 0.6372
C15 C 0.4728(3) 0.7438(3) 0.6655(2)
H10 H 0.4819 0.7036 0.6954
C16 C 0.5480(2) 0.7669(3) 0.5283(2)
C17 C 0.4426(2) 0.8594(3) 0.5784(2)
C18 C 0.5534(2) 0.6803(3) 0.5360(2)
H11 H 0.5279 0.6511 0.5487
C19 C 0.4296(3) 0.8076(3) 0.6590(2)
H12 H 0.4118 0.8101 0.6850
C20 C 0.5978(2) 0.6375(3) 0.5245(2)
H13 H 0.6033 0.5794 0.5302
C21 C 0.6279(3) 0.7694(3) 0.4963(2)
H14 H 0.6529 0.7984 0.4829
C22 C 0.5846(2) 0.8112(3) 0.5087(2)
H15 H 0.5801 0.8695 0.5037
C23 C 0.6331(3) 0.6831(4) 0.5046(2)
C24 C 0.4134(3) 0.8666(3) 0.6145(3)
H16 H 0.3843 0.9093 0.6089
O2 O 0.4031(2) 0.9738(2) 0.51031(18)
N6 N 0.4374(2) 0.9091(3) 0.53092(19)
F3 F 0.5026(2) 1.0485(2) 0.69056(19)
O3 O 0.7665(2) 0.7043(2) 0.6637(2)
N7 N 0.6824(2) 0.8818(2) 0.65072(17)
N8 N 0.6965(2) 0.8006(3) 0.66731(19)
N9 N 0.7414(2) 0.7786(3) 0.65336(19)
C25 C 0.7729(3) 0.9975(3) 0.5859(2)
H17 H 0.7786 1.0488 0.5710
C26 C 0.7207(2) 0.9127(3) 0.6271(2)
C27 C 0.7277(3) 0.9926(3) 0.6057(2)
H18 H 0.7034 1.0390 0.6050
C28 C 0.7578(2) 0.8458(3) 0.6279(2)
C29 C 0.6364(2) 0.9245(3) 0.6616(2)
C30 C 0.8104(3) 0.9287(3) 0.5872(2)
H19 H 0.8402 0.9354 0.5734
C31 C 0.8039(3) 0.8511(4) 0.6087(2)
H20 H 0.8289 0.8049 0.6103
C32 C 0.5967(3) 0.9837(3) 0.6201(2)
H21 H 0.6000 0.9946 0.5853
C33 C 0.6316(3) 0.9086(3) 0.7138(2)
H22 H 0.6585 0.8698 0.7418
C34 C 0.5527(3) 1.0256(3) 0.6311(3)
H23 H 0.5263 1.0658 0.6040
C35 C 0.5478(3) 1.0086(4) 0.6813(3)
C36 C 0.5866(3) 0.9512(4) 0.7235(3)
H24 H 0.5826 0.9413 0.7580
N10 N 0.4957(2) 0.5271(3) 0.40382(18)
N11 N 0.43556(19) 0.6297(2) 0.39889(17)
F4 F 0.2578(2) 0.7960(3) 0.4420(2)
O4 O 0.5211(2) 0.4538(2) 0.41464(19)
N12 N 0.4502(2) 0.5483(2) 0.41767(19)
C37 C 0.4773(2) 0.7382(3) 0.3504(2)
H25 H 0.4526 0.7845 0.3493
C38 C 0.5595(3) 0.6759(3) 0.3313(2)
H26 H 0.5887 0.6830 0.3168
C39 C 0.5099(3) 0.5929(3) 0.3759(2)
C40 C 0.4714(2) 0.6603(3) 0.3740(2)
C41 C 0.5207(3) 0.7435(3) 0.3290(2)
H27 H 0.5245 0.7943 0.3123
C42 C 0.3890(2) 0.6730(3) 0.4098(2)
C43 C 0.3501(2) 0.7315(3) 0.3693(2)
H28 H 0.3532 0.7422 0.3345
C44 C 0.5553(3) 0.5982(3) 0.3549(2)
H29 H 0.5808 0.5526 0.3567
C45 C 0.3844(3) 0.6553(3) 0.4613(2)
H30 H 0.4108 0.6151 0.4883
C46 C 0.3060(3) 0.7745(3) 0.3803(3)
H31 H 0.2800 0.8154 0.3538
C47 C 0.3397(3) 0.6980(4) 0.4724(3)
H32 H 0.3360 0.6874 0.5069
C48 C 0.3018(3) 0.7554(4) 0.4314(3)
H33? H 0.6795 0.7692 0.6838
loop_
_geom_bond_atom_site_label_1
_geom_bond_atom_site_label_2
_geom_bond_site_symmetry_1
_geom_bond_site_symmetry_2
F1 C11 1_555 1_555
N1 N3 1_555 1_555
O1 N2 1_555 1_555
N2 N3 1_555 1_555
C1 N2 1_555 1_555
C2 H1 1_555 1_555
C3 N1 1_555 1_555
C4 H2 1_555 1_555
C5 N1 1_555 1_555
C6 C2 1_555 1_555
H3 C6 1_555 1_555
C7 C2 1_555 1_555
H4 C7 1_555 1_555
C8 C5 1_555 1_555
H5 C8 1_555 1_555
C9 C4 1_555 1_555
H6 C9 1_555 1_555
C10 C1 1_555 1_555
H7 C10 1_555 1_555
C11 C9 1_555 1_555
C12 C8 1_555 1_555
H8 C12 1_555 1_555
F2 C23 1_555 1_555
N4 N5 1_555 1_555
N5 N6 1_555 1_555
C13 N4 1_555 1_555
C14 C13 1_555 1_555
H9 C14 1_555 1_555
C15 C14 1_555 1_555
H10 C15 1_555 1_555
C16 N4 1_555 1_555
C17 C13 1_555 1_555
C18 C16 1_555 1_555
H11 C18 1_555 1_555
C19 C15 1_555 1_555
H12 C19 1_555 1_555
C20 C18 1_555 1_555
H13 C20 1_555 1_555
C21 H14 1_555 1_555
C22 C16 1_555 1_555
H15 C22 1_555 1_555
C23 C20 1_555 1_555
C24 C17 1_555 1_555
H16 C24 1_555 1_555
O2 N6 1_555 1_555
N6 C17 1_555 1_555
F3 C35 1_555 1_555
O3 N9 1_555 1_555
N7 N8 1_555 1_555
N8 N9 1_555 1_555
N9 C28 1_555 1_555
C25 H17 1_555 1_555
C26 N7 1_555 1_555
C27 C25 1_555 1_555
H18 C27 1_555 1_555
C28 C26 1_555 1_555
C29 N7 1_555 1_555
C30 C25 1_555 1_555
H19 C30 1_555 1_555
C31 C28 1_555 1_555
H20 C31 1_555 1_555
C32 C29 1_555 1_555
H21 C32 1_555 1_555
C33 C29 1_555 1_555
H22 C33 1_555 1_555
C34 C32 1_555 1_555
H23 C34 1_555 1_555
C35 C34 1_555 1_555
C36 C33 1_555 1_555
H24 C36 1_555 1_555
N10 O4 1_555 1_555
N11 N12 1_555 1_555
F4 C48 1_555 1_555
N12 N10 1_555 1_555
C37 H25 1_555 1_555
C38 H26 1_555 1_555
C39 N10 1_555 1_555
C40 N11 1_555 1_555
C41 C37 1_555 1_555
H27 C41 1_555 1_555
C42 N11 1_555 1_555
C43 C42 1_555 1_555
H28 C43 1_555 1_555
C44 C38 1_555 1_555
H29 C44 1_555 1_555
C45 C42 1_555 1_555
H30 C45 1_555 1_555
C46 C43 1_555 1_555
H31 C46 1_555 1_555
C47 C45 1_555 1_555
H32 C47 1_555 1_555
C48 C46 1_555 1_555
C1 C3 1_555 1_555
C3 C7 1_555 1_555
C4 C5 1_555 1_555
C6 C10 1_555 1_555
C11 C12 1_555 1_555
C19 C24 1_555 1_555
C21 C22 1_555 1_555
C21 C23 1_555 1_555
C26 C27 1_555 1_555
C30 C31 1_555 1_555
C35 C36 1_555 1_555
C37 C40 1_555 1_555
C38 C41 1_555 1_555
C39 C40 1_555 1_555
C39 C44 1_555 1_555
C47 C48 1_555 1_555

#END
