
#######################################################################
#
#                 Cambridge Crystallographic Data Centre
#                                CCDC 
#
#######################################################################
#
# If this CIF has been generated from an entry in the Cambridge 
# Structural Database, then it will include bibliographic, chemical, 
# crystal, experimental, refinement or atomic coordinate data resulting 
# from the CCDC's data processing and validation procedures.
#
#######################################################################

data_HAZWEM
_chemical_formula_moiety         '2(C16 H36 N1 1+),Br3 1-,7(Br2),Br1 1-'
_chemical_name_systematic        
'bis(tetrabutylammonium) bromide tribromide heptakis(dibromine)'
_symmetry_cell_setting           monoclinic
_symmetry_space_group_name_H-M   'C 2/c'
_symmetry_Int_Tables_number      15
_space_group_name_Hall           '-C 2yn'
loop_
_symmetry_equiv_pos_site_id
_symmetry_equiv_pos_as_xyz
1 x,y,z
2 -x,y,1/2-z
3 1/2+x,1/2+y,z
4 1/2-x,1/2+y,1/2-z
5 -x,-y,-z
6 x,-y,1/2+z
7 1/2-x,1/2-y,-z
8 1/2+x,1/2-y,1/2+z
_cell_length_a                   36.7141(14)
_cell_length_b                   10.6857(4)
_cell_length_c                   16.2099(6)
_cell_angle_alpha                90
_cell_angle_beta                 109.220(2)
_cell_angle_gamma                90
_cell_volume                     6004.94
_exptl_crystal_colour            red
_exptl_crystal_description       plate
_cell_formula_units_Z            4
loop_
_atom_site_label
_atom_site_type_symbol
_atom_site_fract_x
_atom_site_fract_y
_atom_site_fract_z
N1 N 0.62650(18) 0.7197(6) 0.6175(4)
C1 C 0.6303(2) 0.5930(7) 0.5780(5)
H1 H 0.6580 0.5697 0.5974
H2 H 0.6216 0.6015 0.5137
C2 C 0.6077(2) 0.4861(7) 0.6017(5)
H3 H 0.6193 0.4658 0.6645
H4 H 0.5807 0.5129 0.5911
C3 C 0.6080(2) 0.3699(8) 0.5472(6)
H5 H 0.5954 0.3896 0.4846
H6 H 0.6351 0.3458 0.5557
C4 C 0.5875(3) 0.2615(8) 0.5720(6)
H7 H 0.5887 0.1884 0.5365
H8 H 0.5605 0.2839 0.5616
H9 H 0.6000 0.2416 0.6339
C5 C 0.6371(2) 0.7116(8) 0.7156(5)
H10 H 0.6353 0.7967 0.7381
H11 H 0.6176 0.6592 0.7291
C6 C 0.6763(2) 0.6598(8) 0.7651(5)
H12 H 0.6964 0.7063 0.7493
H13 H 0.6777 0.5706 0.7498
C7 C 0.6832(3) 0.6725(10) 0.8630(6)
H14 H 0.6828 0.7623 0.8778
H15 H 0.6618 0.6309 0.8770
C8 C 0.7195(3) 0.6180(10) 0.9163(6)
H16 H 0.7223 0.6270 0.9782
H17 H 0.7409 0.6612 0.9046
H18 H 0.7200 0.5290 0.9020
C9 C 0.5853(2) 0.7676(8) 0.5841(5)
H19 H 0.5692 0.7108 0.6058
H20 H 0.5848 0.8508 0.6106
C10 C 0.5667(2) 0.7801(8) 0.4868(5)
H21 H 0.5625 0.6962 0.4595
H22 H 0.5839 0.8279 0.4622
C11 C 0.5280(2) 0.8483(9) 0.4671(6)
H23 H 0.5124 0.8055 0.4983
H24 H 0.5328 0.9349 0.4897
C12 C 0.5052(3) 0.8524(10) 0.3705(7)
H25 H 0.4808 0.8964 0.3616
H26 H 0.4999 0.7669 0.3479
H27 H 0.5202 0.8966 0.3394
C13 C 0.653(2) 0.815(3) 0.595(5)
H28 H 0.6430 0.8294 0.5315
H29 H 0.6787 0.7784 0.6101
C14 C 0.6565(9) 0.943(2) 0.6408(15)
H30 H 0.6655 0.9324 0.7050
H31 H 0.6312 0.9863 0.6231
C15 C 0.6858(8) 1.022(2) 0.6133(12)
H32 H 0.6943 1.0942 0.6529
H33 H 0.7088 0.9699 0.6179
C16 C 0.6683(6) 1.066(2) 0.5223(13)
H34 H 0.6873 1.1146 0.5052
H35 H 0.6460 1.1192 0.5182
H36 H 0.6599 0.9942 0.4831
Br1 Br 0.49879(2) 0.53301(8) 0.56794(5)
Br1D Br 0.50121(2) 0.46699(8) 0.43206(5)
Br2 Br 0.57188(2) 0.46133(9) 0.80006(5)
Br3 Br 0.62713(2) 0.33672(9) 0.83587(6)
Br4 Br 0.5000 0.36972(12) 0.2500
Br5 Br 0.44432(3) 0.15885(9) 0.21187(6)
Br6 Br 0.40163(3) -0.00830(11) 0.19151(9)
Br7 Br 0.2500 0.2500 0.5000
Br8 Br 0.30358(3) 0.15390(11) 0.62435(10)
Br8F Br 0.19642(3) 0.34610(11) 0.37565(10)
Br9 Br 0.27812(3) 0.67495(9) 0.24886(8)
Br10 Br 0.25170(4) 0.53835(11) 0.32508(8)
C17? C 0.655(2) 0.798(3) 0.587(6)
C18? C 0.6506(10) 0.940(3) 0.5970(18)
C19? C 0.6825(9) 1.008(2) 0.5720(18)
C20? C 0.6733(7) 1.1418(19) 0.5551(19)
H37? H 0.6528 0.9595 0.6581
H38? H 0.6249 0.9675 0.5584
H39? H 0.7074 0.9989 0.6200
H40? H 0.6853 0.9685 0.5190
H41? H 0.6940 1.1829 0.5394
H42? H 0.6710 1.1809 0.6078
H43? H 0.6489 1.1505 0.5070
H44? H 0.6819 0.7736 0.6210
H45? H 0.6512 0.7794 0.5245
loop_
_geom_bond_atom_site_label_1
_geom_bond_atom_site_label_2
_geom_bond_site_symmetry_1
_geom_bond_site_symmetry_2
N1 C1 1_555 1_555
C1 H1 1_555 1_555
H2 C1 1_555 1_555
C2 C1 1_555 1_555
H3 C2 1_555 1_555
H4 C2 1_555 1_555
C3 C2 1_555 1_555
H5 C3 1_555 1_555
H6 C3 1_555 1_555
C4 C3 1_555 1_555
H7 C4 1_555 1_555
H8 C4 1_555 1_555
H9 C4 1_555 1_555
C5 N1 1_555 1_555
H10 C5 1_555 1_555
H11 C5 1_555 1_555
C6 C5 1_555 1_555
H12 C6 1_555 1_555
H13 C6 1_555 1_555
C7 C6 1_555 1_555
H14 C7 1_555 1_555
H15 C7 1_555 1_555
C8 C7 1_555 1_555
H16 C8 1_555 1_555
H17 C8 1_555 1_555
H18 C8 1_555 1_555
C9 N1 1_555 1_555
H19 C9 1_555 1_555
H20 C9 1_555 1_555
C10 C9 1_555 1_555
H21 C10 1_555 1_555
H22 C10 1_555 1_555
C11 C10 1_555 1_555
H23 C11 1_555 1_555
H24 C11 1_555 1_555
C12 C11 1_555 1_555
H25 C12 1_555 1_555
H26 C12 1_555 1_555
H27 C12 1_555 1_555
C13 N1 1_555 1_555
H28 C13 1_555 1_555
H29 C13 1_555 1_555
C14 C13 1_555 1_555
H30 C14 1_555 1_555
H31 C14 1_555 1_555
C15 C14 1_555 1_555
H32 C15 1_555 1_555
H33 C15 1_555 1_555
C16 C15 1_555 1_555
H34 C16 1_555 1_555
H35 C16 1_555 1_555
H36 C16 1_555 1_555
Br1 Br1D 1_555 1_555
Br2 Br3 1_555 1_555
Br5 Br6 1_555 1_555
Br7 Br8 1_555 1_555
Br9 Br10 1_555 1_555
Br8F Br7 1_555 1_555

#END
