
#######################################################################
#
#                 Cambridge Crystallographic Data Centre
#                                CCDC 
#
#######################################################################
#
# If this CIF has been generated from an entry in the Cambridge 
# Structural Database, then it will include bibliographic, chemical, 
# crystal, experimental, refinement or atomic coordinate data resulting 
# from the CCDC's data processing and validation procedures.
#
#######################################################################

data_HAZWUD
_chemical_formula_moiety         'C26 H19 O1 P1 S1'
_chemical_name_systematic        
'diphenyl(3-phenyl-1-benzofuran-2-yl)phosphane sulfide'
_symmetry_cell_setting           monoclinic
_symmetry_space_group_name_H-M   'P 21/c'
_symmetry_Int_Tables_number      14
_space_group_name_Hall           '-P 2ybc'
loop_
_symmetry_equiv_pos_site_id
_symmetry_equiv_pos_as_xyz
1 x,y,z
2 -x,1/2+y,1/2-z
3 -x,-y,-z
4 x,1/2-y,1/2+z
_cell_length_a                   11.124(2)
_cell_length_b                   9.3717(19)
_cell_length_c                   19.350(4)
_cell_angle_alpha                90
_cell_angle_beta                 92.32(3)
_cell_angle_gamma                90
_cell_volume                     2015.6
_exptl_crystal_colour            colorless
_exptl_crystal_description       Prism
_cell_formula_units_Z            4
loop_
_atom_site_label
_atom_site_type_symbol
_atom_site_fract_x
_atom_site_fract_y
_atom_site_fract_z
P1 P 0.24586(3) 0.59747(4) 0.14750(2)
S1 S 0.19759(4) 0.76674(4) 0.09500(2)
O1 O 0.47192(10) 0.59415(12) 0.11161(6)
C1 C 0.22342(13) 0.43101(16) 0.10101(8)
C2 C 0.11990(14) 0.41511(17) 0.05873(8)
H1 H 0.0651 0.4924 0.0529
C3 C 0.09663(14) 0.28708(17) 0.02515(8)
H2 H 0.0253 0.2763 -0.0030
C4 C 0.17681(15) 0.17466(18) 0.03240(8)
H3 H 0.1611 0.0874 0.0087
C5 C 0.27993(15) 0.18967(18) 0.07426(8)
H4 H 0.3348 0.1124 0.0794
C6 C 0.30341(14) 0.31695(17) 0.10869(8)
H5 H 0.3741 0.3265 0.1376
C7 C 0.16891(13) 0.57428(16) 0.22707(8)
C8 C 0.17620(14) 0.44585(17) 0.26362(8)
H6 H 0.2211 0.3684 0.2463
C9 C 0.11798(15) 0.43167(18) 0.32498(9)
H7 H 0.1232 0.3447 0.3501
C10 C 0.05173(15) 0.5451(2) 0.34979(9)
H8 H 0.0114 0.5353 0.3919
C11 C 0.04421(15) 0.67201(19) 0.31371(9)
H9 H -0.0007 0.7493 0.3312
C12 C 0.10208(14) 0.68684(17) 0.25207(9)
H10 H 0.0961 0.7738 0.2269
C13 C 0.40374(14) 0.59306(16) 0.17058(8)
C14 C 0.47347(13) 0.57844(15) 0.22950(8)
C15 C 0.59597(14) 0.56716(16) 0.20630(8)
C16 C 0.70788(14) 0.54801(17) 0.24035(9)
H11 H 0.7153 0.5414 0.2893
C17 C 0.80716(15) 0.53903(18) 0.20014(9)
H12 H 0.8845 0.5251 0.2218
C18 C 0.79612(15) 0.55006(18) 0.12820(10)
H13 H 0.8667 0.5436 0.1023
C19 C 0.68713(15) 0.56987(18) 0.09337(9)
H14 H 0.6799 0.5781 0.0444
C20 C 0.58837(14) 0.57687(16) 0.13497(8)
C21 C 0.43881(13) 0.57408(16) 0.30237(8)
C22 C 0.37808(14) 0.68723(16) 0.33179(8)
H15 H 0.3580 0.7690 0.3047
C23 C 0.34679(15) 0.68164(18) 0.40008(9)
H16 H 0.3054 0.7593 0.4198
C24 C 0.37597(15) 0.56242(18) 0.43981(8)
H17 H 0.3542 0.5583 0.4867
C25 C 0.43691(15) 0.44930(17) 0.41114(8)
H18 H 0.4565 0.3676 0.4384
C26 C 0.46911(14) 0.45538(17) 0.34295(8)
H19 H 0.5120 0.3784 0.3236
loop_
_geom_bond_atom_site_label_1
_geom_bond_atom_site_label_2
_geom_bond_site_symmetry_1
_geom_bond_site_symmetry_2
P1 S1 1_555 1_555
O1 C13 1_555 1_555
C1 P1 1_555 1_555
C2 C1 1_555 1_555
H1 C2 1_555 1_555
C3 C2 1_555 1_555
H2 C3 1_555 1_555
C4 C3 1_555 1_555
H3 C4 1_555 1_555
C5 C4 1_555 1_555
H4 C5 1_555 1_555
C6 C1 1_555 1_555
H5 C6 1_555 1_555
C7 P1 1_555 1_555
C8 C7 1_555 1_555
H6 C8 1_555 1_555
C9 C8 1_555 1_555
H7 C9 1_555 1_555
C10 C9 1_555 1_555
H8 C10 1_555 1_555
C11 C10 1_555 1_555
H9 C11 1_555 1_555
C12 C7 1_555 1_555
H10 C12 1_555 1_555
C13 P1 1_555 1_555
C14 C13 1_555 1_555
C15 C14 1_555 1_555
C16 C15 1_555 1_555
H11 C16 1_555 1_555
C17 C16 1_555 1_555
H12 C17 1_555 1_555
C18 C17 1_555 1_555
H13 C18 1_555 1_555
C19 C18 1_555 1_555
H14 C19 1_555 1_555
C20 O1 1_555 1_555
C21 C14 1_555 1_555
C22 C21 1_555 1_555
H15 C22 1_555 1_555
C23 C22 1_555 1_555
H16 C23 1_555 1_555
C24 C23 1_555 1_555
H17 C24 1_555 1_555
C25 C24 1_555 1_555
H18 C25 1_555 1_555
C26 C21 1_555 1_555
H19 C26 1_555 1_555
C5 C6 1_555 1_555
C11 C12 1_555 1_555
C15 C20 1_555 1_555
C19 C20 1_555 1_555
C25 C26 1_555 1_555

#END
