
#######################################################################
#
#                 Cambridge Crystallographic Data Centre
#                                CCDC 
#
#######################################################################
#
# If this CIF has been generated from an entry in the Cambridge 
# Structural Database, then it will include bibliographic, chemical, 
# crystal, experimental, refinement or atomic coordinate data resulting 
# from the CCDC's data processing and validation procedures.
#
#######################################################################

data_HAZXEO
_chemical_formula_moiety         'C27 H21 O2 P1 S1'
_chemical_name_systematic        
'diphenyl(6-methoxy-3-phenyl-1-benzofuran-2-yl)phosphane sulfide'
_symmetry_cell_setting           monoclinic
_symmetry_space_group_name_H-M   'P 21/n'
_symmetry_Int_Tables_number      14
_space_group_name_Hall           '-P 2yn'
loop_
_symmetry_equiv_pos_site_id
_symmetry_equiv_pos_as_xyz
1 x,y,z
2 1/2-x,1/2+y,1/2-z
3 -x,-y,-z
4 1/2+x,1/2-y,1/2+z
_cell_length_a                   16.654(5)
_cell_length_b                   16.844(4)
_cell_length_c                   16.960(5)
_cell_angle_alpha                90
_cell_angle_beta                 113.798(6)
_cell_angle_gamma                90
_cell_volume                     4353.1
_exptl_crystal_colour            colorless
_exptl_crystal_description       Prism
_cell_formula_units_Z            8
_exptl_crystal_recrystallization_method 'ethyl acetate'
loop_
_atom_site_label
_atom_site_type_symbol
_atom_site_fract_x
_atom_site_fract_y
_atom_site_fract_z
P1 P 0.23202(2) 0.825360(19) 0.21958(2)
S1 S 0.11009(2) 0.79081(2) 0.16034(2)
O1 O 0.30669(6) 0.68871(5) 0.21014(6)
O2 O 0.44881(6) 0.46407(6) 0.15278(6)
C1 C 0.27377(9) 0.81271(7) 0.33572(8)
C2 C 0.21301(11) 0.81912(9) 0.37329(10)
H1 H 0.1524 0.8266 0.3383
C3 C 0.24248(13) 0.81440(10) 0.46258(11)
H2 H 0.2017 0.8180 0.4886
C4 C 0.33090(14) 0.80450(10) 0.51352(10)
H3 H 0.3503 0.8018 0.5744
C5 C 0.39160(13) 0.79844(10) 0.47685(10)
H4 H 0.4522 0.7921 0.5123
C6 C 0.36276(11) 0.80175(9) 0.38718(9)
H5 H 0.4036 0.7965 0.3614
C7 C 0.25195(8) 0.92881(7) 0.20399(8)
C8 C 0.33585(8) 0.96186(8) 0.24636(8)
H6 H 0.3828 0.9303 0.2844
C9 C 0.35003(9) 1.04070(8) 0.23246(9)
H7 H 0.4069 1.0631 0.2607
C10 C 0.28126(10) 1.08726(8) 0.17721(9)
H8 H 0.2914 1.1413 0.1678
C11 C 0.19796(9) 1.05494(8) 0.13580(9)
H9 H 0.1512 1.0869 0.0983
C12 C 0.18277(8) 0.97578(8) 0.14910(8)
H10 H 0.1257 0.9538 0.1210
C13 C 0.30593(8) 0.76858(7) 0.18783(8)
C14 C 0.35877(8) 0.78219(7) 0.14494(7)
C15 C 0.39794(8) 0.70602(7) 0.14163(7)
C16 C 0.36222(8) 0.65121(8) 0.18042(7)
C17 C 0.37800(8) 0.57056(8) 0.18493(8)
H11 H 0.3513 0.5350 0.2106
C18 C 0.43560(8) 0.54465(8) 0.14934(8)
C19 C 0.47597(8) 0.59801(8) 0.11282(8)
H12 H 0.5166 0.5786 0.0910
C20 C 0.45734(8) 0.67859(8) 0.10819(8)
H13 H 0.4842 0.7144 0.0829
C21 C 0.50822(10) 0.43356(9) 0.11900(10)
H14 H 0.4876 0.4478 0.0580
H15 H 0.5112 0.3756 0.1249
H16 H 0.5666 0.4563 0.1509
C22 C 0.37230(8) 0.85624(7) 0.10521(7)
C23 C 0.45758(8) 0.88471(8) 0.12624(8)
H17 H 0.5065 0.8554 0.1647
C24 C 0.47107(8) 0.95539(8) 0.09131(8)
H18 H 0.5289 0.9751 0.1072
C25 C 0.39975(9) 0.99737(8) 0.03298(8)
H19 H 0.4089 1.0458 0.0092
C26 C 0.31508(8) 0.96822(8) 0.00964(8)
H20 H 0.2666 0.9965 -0.0308
C27 C 0.30109(8) 0.89790(7) 0.04515(8)
H21 H 0.2432 0.8781 0.0287
P2 P 0.226774(19) 0.692587(17) 0.755158(19)
S2 S 0.17298(2) 0.697219(19) 0.628938(19)
O3 O 0.15973(5) 0.82359(5) 0.78689(5)
O4 O 0.05194(6) 1.03922(5) 0.90844(6)
C28 C 0.24493(7) 0.59266(7) 0.79797(8)
C29 C 0.21732(8) 0.52928(7) 0.73989(8)
H22 H 0.1900 0.5393 0.6797
C30 C 0.22986(9) 0.45165(8) 0.77028(9)
H23 H 0.2111 0.4086 0.7308
C31 C 0.26975(9) 0.43700(8) 0.85814(9)
H24 H 0.2783 0.3838 0.8786
C32 C 0.29739(8) 0.49972(8) 0.91664(9)
H25 H 0.3241 0.4893 0.9768
C33 C 0.28579(8) 0.57758(7) 0.88684(8)
H26 H 0.3055 0.6204 0.9265
C34 C 0.33335(7) 0.74190(7) 0.80082(7)
C35 C 0.36865(8) 0.77249(7) 0.88466(8)
H27 H 0.3359 0.7700 0.9193
C36 C 0.45207(9) 0.80671(8) 0.91728(9)
H28 H 0.4759 0.8277 0.9741
C37 C 0.50042(9) 0.81025(8) 0.86712(9)
H29 H 0.5575 0.8330 0.8899
C38 C 0.46529(9) 0.78051(8) 0.78350(9)
H30 H 0.4982 0.7831 0.7490
C39 C 0.38180(8) 0.74688(7) 0.75037(8)
H31 H 0.3577 0.7272 0.6930
C40 C 0.16452(7) 0.74252(7) 0.80586(7)
C41 C 0.12654(7) 0.72563(7) 0.86206(7)
C42 C 0.09605(7) 0.80122(7) 0.88010(7)
C43 C 0.11892(7) 0.85842(7) 0.83379(7)
C44 C 0.10582(7) 0.93956(7) 0.83764(7)
H32 H 0.1224 0.9769 0.8050
C45 C 0.06664(8) 0.96222(7) 0.89275(8)
C46 C 0.03995(8) 0.90576(8) 0.93886(8)
H33 H 0.0116 0.9232 0.9744
C47 C 0.05431(8) 0.82585(7) 0.93312(8)
H34 H 0.0363 0.7882 0.9644
C48 C 0.08259(9) 1.09968(8) 0.86851(9)
H35 H 0.1456 1.0926 0.8842
H36 H 0.0722 1.1519 0.8881
H37 H 0.0510 1.0961 0.8058
C49 C 0.11982(8) 0.65135(7) 0.90574(8)
C50 C 0.08364(8) 0.58092(8) 0.86188(8)
H38 H 0.0622 0.5790 0.8008
C51 C 0.07902(9) 0.51377(8) 0.90750(9)
H39 H 0.0551 0.4660 0.8775
C52 C 0.10924(9) 0.51603(9) 0.99691(9)
H40 H 0.1060 0.4699 1.0277
C53 C 0.14398(10) 0.58557(9) 1.04071(9)
H41 H 0.1642 0.5873 1.1017
C54 C 0.14939(9) 0.65293(8) 0.99573(8)
H42 H 0.1733 0.7005 1.0263
loop_
_geom_bond_atom_site_label_1
_geom_bond_atom_site_label_2
_geom_bond_site_symmetry_1
_geom_bond_site_symmetry_2
P1 S1 1_555 1_555
O1 C13 1_555 1_555
O2 C18 1_555 1_555
C1 P1 1_555 1_555
C2 C1 1_555 1_555
H1 C2 1_555 1_555
C3 C2 1_555 1_555
H2 C3 1_555 1_555
C4 C3 1_555 1_555
H3 C4 1_555 1_555
C5 C4 1_555 1_555
H4 C5 1_555 1_555
C6 C1 1_555 1_555
H5 C6 1_555 1_555
C7 P1 1_555 1_555
C8 C7 1_555 1_555
H6 C8 1_555 1_555
C9 C8 1_555 1_555
H7 C9 1_555 1_555
C10 C9 1_555 1_555
H8 C10 1_555 1_555
C11 C10 1_555 1_555
H9 C11 1_555 1_555
C12 C7 1_555 1_555
H10 C12 1_555 1_555
C13 P1 1_555 1_555
C14 C13 1_555 1_555
C15 C14 1_555 1_555
C16 O1 1_555 1_555
C17 C16 1_555 1_555
H11 C17 1_555 1_555
C18 C17 1_555 1_555
C19 C18 1_555 1_555
H12 C19 1_555 1_555
C20 C15 1_555 1_555
H13 C20 1_555 1_555
C21 O2 1_555 1_555
H14 C21 1_555 1_555
H15 C21 1_555 1_555
H16 C21 1_555 1_555
C22 C14 1_555 1_555
C23 C22 1_555 1_555
H17 C23 1_555 1_555
C24 C23 1_555 1_555
H18 C24 1_555 1_555
C25 C24 1_555 1_555
H19 C25 1_555 1_555
C26 C25 1_555 1_555
H20 C26 1_555 1_555
C27 C22 1_555 1_555
H21 C27 1_555 1_555
P2 S2 1_555 1_555
O3 C40 1_555 1_555
O4 C45 1_555 1_555
C28 P2 1_555 1_555
C29 C28 1_555 1_555
H22 C29 1_555 1_555
C30 C29 1_555 1_555
H23 C30 1_555 1_555
C31 C30 1_555 1_555
H24 C31 1_555 1_555
C32 C31 1_555 1_555
H25 C32 1_555 1_555
C33 C28 1_555 1_555
H26 C33 1_555 1_555
C34 P2 1_555 1_555
C35 C34 1_555 1_555
H27 C35 1_555 1_555
C36 C35 1_555 1_555
H28 C36 1_555 1_555
C37 C36 1_555 1_555
H29 C37 1_555 1_555
C38 C37 1_555 1_555
H30 C38 1_555 1_555
C39 C34 1_555 1_555
H31 C39 1_555 1_555
C40 P2 1_555 1_555
C41 C40 1_555 1_555
C42 C41 1_555 1_555
C43 O3 1_555 1_555
C44 C43 1_555 1_555
H32 C44 1_555 1_555
C45 C44 1_555 1_555
C46 C45 1_555 1_555
H33 C46 1_555 1_555
C47 C42 1_555 1_555
H34 C47 1_555 1_555
C48 O4 1_555 1_555
H35 C48 1_555 1_555
H36 C48 1_555 1_555
H37 C48 1_555 1_555
C49 C41 1_555 1_555
C50 C49 1_555 1_555
H38 C50 1_555 1_555
C51 C50 1_555 1_555
H39 C51 1_555 1_555
C52 C51 1_555 1_555
H40 C52 1_555 1_555
C53 C52 1_555 1_555
H41 C53 1_555 1_555
C54 C49 1_555 1_555
H42 C54 1_555 1_555
C5 C6 1_555 1_555
C11 C12 1_555 1_555
C15 C16 1_555 1_555
C19 C20 1_555 1_555
C26 C27 1_555 1_555
C32 C33 1_555 1_555
C38 C39 1_555 1_555
C42 C43 1_555 1_555
C46 C47 1_555 1_555
C53 C54 1_555 1_555

#END
