
#######################################################################
#
#                 Cambridge Crystallographic Data Centre
#                                CCDC 
#
#######################################################################
#
# If this CIF has been generated from an entry in the Cambridge 
# Structural Database, then it will include bibliographic, chemical, 
# crystal, experimental, refinement or atomic coordinate data resulting 
# from the CCDC's data processing and validation procedures.
#
#######################################################################

data_HBCDEO
_chemical_formula_moiety         'C10 H14 O2'
_chemical_name_systematic        1-Hydroxy-cis-bicyclo(5.3.0)dec-9-en-8-one
_symmetry_cell_setting           monoclinic
_symmetry_space_group_name_H-M   'P 21/c'
_symmetry_Int_Tables_number      14
_space_group_name_Hall           '-P 2ybc'
loop_
_symmetry_equiv_pos_site_id
_symmetry_equiv_pos_as_xyz
1 x,y,z
2 -x,1/2+y,1/2-z
3 -x,-y,-z
4 x,1/2-y,1/2+z
_cell_length_a                   12.526(4)
_cell_length_b                   6.605(1)
_cell_length_c                   10.686(2)
_cell_angle_alpha                90
_cell_angle_beta                 95.88(2)
_cell_angle_gamma                90
_cell_volume                     879.446
_cell_formula_units_Z            4
loop_
_atom_site_label
_atom_site_type_symbol
_atom_site_fract_x
_atom_site_fract_y
_atom_site_fract_z
O1 O -0.10430 -0.41210 0.08840
O2 O -0.13290 0.23050 -0.05870
C1 C -0.17520 -0.11850 -0.02990
C2 C -0.12050 -0.23040 0.08340
C3 C -0.09480 -0.08400 0.18400
C4 C -0.13350 0.09470 0.14950
C5 C -0.19000 0.09950 0.01760
C6 C -0.30530 0.17320 0.01930
C7 C -0.36790 0.20960 -0.10930
C8 C -0.41280 0.02200 -0.17710
C9 C -0.33070 -0.13420 -0.20600
C10 C -0.27210 -0.23450 -0.09010
H1 H -0.12500 0.34400 -0.02400
H2 H -0.12600 -0.11200 -0.09300
H3 H -0.05400 -0.12100 0.26100
H4 H -0.13000 0.21800 0.20100
H5 H -0.34200 0.07000 0.07200
H6 H -0.30300 0.29900 0.06600
H7 H -0.42900 0.29600 -0.09500
H8 H -0.32300 0.28500 -0.16000
H9 H -0.46600 -0.03800 -0.12900
H10 H -0.45400 0.06400 -0.25600
H11 H -0.36800 -0.23900 -0.25900
H12 H -0.27800 -0.07500 -0.26000
H13 H -0.32000 -0.25600 -0.02300
H14 H -0.24300 -0.37500 -0.11300
loop_
_geom_bond_atom_site_label_1
_geom_bond_atom_site_label_2
_geom_bond_site_symmetry_1
_geom_bond_site_symmetry_2
O1 C2 1_555 1_555
O2 C5 1_555 1_555
C1 C2 1_555 1_555
C2 C3 1_555 1_555
C3 C4 1_555 1_555
C4 C5 1_555 1_555
C5 C1 1_555 1_555
C6 C5 1_555 1_555
C7 C6 1_555 1_555
C8 C7 1_555 1_555
C9 C8 1_555 1_555
C10 C1 1_555 1_555
H1 O2 1_555 1_555
H2 C1 1_555 1_555
H3 C3 1_555 1_555
H4 C4 1_555 1_555
H5 C6 1_555 1_555
H6 C6 1_555 1_555
H7 C7 1_555 1_555
H8 C7 1_555 1_555
H9 C8 1_555 1_555
H10 C8 1_555 1_555
H11 C9 1_555 1_555
H12 C9 1_555 1_555
H13 C10 1_555 1_555
H14 C10 1_555 1_555
C9 C10 1_555 1_555

#END
