
#######################################################################
#
#                 Cambridge Crystallographic Data Centre
#                                CCDC 
#
#######################################################################
#
# If this CIF has been generated from an entry in the Cambridge 
# Structural Database, then it will include bibliographic, chemical, 
# crystal, experimental, refinement or atomic coordinate data resulting 
# from the CCDC's data processing and validation procedures.
#
#######################################################################

data_HCDBPL
_chemical_formula_moiety         'C18 H21 Br1 O7 S1'
_chemical_name_systematic        
2-C-Hydroxymethyl-2,2'-O-cyclohexylidene-3-deoxy-5-O-(p-bromobenzenesulfonyl)-D-erythro-pentono-1,4-lactone
_symmetry_cell_setting           monoclinic
_symmetry_space_group_name_H-M   'P 21'
_symmetry_Int_Tables_number      4
_space_group_name_Hall           'P 2yb'
loop_
_symmetry_equiv_pos_site_id
_symmetry_equiv_pos_as_xyz
1 x,y,z
2 -x,1/2+y,-z
_cell_length_a                   5.757(2)
_cell_length_b                   10.586(3)
_cell_length_c                   16.021(6)
_cell_angle_alpha                90
_cell_angle_beta                 98.85(3)
_cell_angle_gamma                90
_cell_volume                     964.753
_chemical_melting_point          123deg.C
_cell_formula_units_Z            2
loop_
_atom_site_label
_atom_site_type_symbol
_atom_site_fract_x
_atom_site_fract_y
_atom_site_fract_z
Br1 Br -0.50890 -0.50240 -0.28140
C1 C 0.20750 -0.25330 0.09160
C2 C 0.41420 -0.34960 0.10950
C3 C 0.37950 -0.44430 0.18120
C4 C 0.58100 -0.40310 0.25450
C5 C 0.72500 -0.31080 0.21550
C6 C 0.50110 -0.34990 0.33560
C7 C 0.71380 -0.52460 0.37480
C8 C 0.66960 -0.65890 0.39520
C9 C 0.67170 -0.67760 0.48940
C10 C 0.91090 -0.63420 0.53780
C11 C 0.94240 -0.49110 0.51940
C12 C 0.94040 -0.47380 0.42350
C13 C -0.32810 -0.39090 -0.20420
C14 C -0.13890 -0.33090 -0.22890
C15 C -0.00720 -0.24480 -0.17510
C16 C -0.08930 -0.21520 -0.09810
C17 C -0.28260 -0.27470 -0.07770
C18 C -0.41050 -0.36430 -0.12900
O1 O -0.09280 -0.05260 0.02040
O2 O 0.26700 -0.18020 0.02250
O3 O 0.91290 -0.26930 0.24690
O4 O 0.62330 -0.27970 0.13730
O5 O 0.71420 -0.51160 0.28650
O6 O 0.51300 -0.45040 0.39000
O7 O 0.17840 -0.02040 -0.08110
S1 S 0.06150 -0.10150 -0.03240
loop_
_geom_bond_atom_site_label_1
_geom_bond_atom_site_label_2
_geom_bond_site_symmetry_1
_geom_bond_site_symmetry_2
Br1 C13 1_555 1_555
C1 C2 1_555 1_555
C2 C3 1_555 1_555
C3 C4 1_555 1_555
C4 C5 1_555 1_555
C5 O3 1_555 1_555
C6 C4 1_555 1_555
C7 C8 1_555 1_555
C8 C9 1_555 1_555
C9 C10 1_555 1_555
C10 C11 1_555 1_555
C11 C12 1_555 1_555
C12 C7 1_555 1_555
C13 C14 1_555 1_555
C14 C15 1_555 1_555
C15 C16 1_555 1_555
C16 C17 1_555 1_555
C17 C18 1_555 1_555
C18 C13 1_555 1_555
O1 S1 1_555 1_555
O2 C1 1_555 1_555
O4 C2 1_555 1_555
O5 C4 1_555 1_555
O6 C6 1_555 1_555
O7 S1 1_555 1_555
S1 C16 1_555 1_555
C5 O4 1_555 1_555
C7 O5 1_555 1_555
C7 O6 1_555 1_555
O2 S1 1_555 1_555

#END
