
#######################################################################
#
#                 Cambridge Crystallographic Data Centre
#                                CCDC 
#
#######################################################################
#
# If this CIF has been generated from an entry in the Cambridge 
# Structural Database, then it will include bibliographic, chemical, 
# crystal, experimental, refinement or atomic coordinate data resulting 
# from the CCDC's data processing and validation procedures.
#
#######################################################################

data_HEBQUD
_chemical_formula_moiety         'C13 H15 N2 1+,C2 F3 O2 1-'
_chemical_name_systematic        
'3-phenyl-1,2,3,4-tetrahydropyrrolo[1,2-a]pyrazin-2-ium trifluoroacetate'
_symmetry_cell_setting           orthorhombic
_symmetry_space_group_name_H-M   'P 21 21 21'
_symmetry_Int_Tables_number      19
_space_group_name_Hall           'P 2ac 2ab'
loop_
_symmetry_equiv_pos_site_id
_symmetry_equiv_pos_as_xyz
1 x,y,z
2 1/2-x,-y,1/2+z
3 -x,1/2+y,1/2-z
4 1/2+x,1/2-y,-z
_cell_length_a                   6.1309(10)
_cell_length_b                   15.064(2)
_cell_length_c                   16.464(3)
_cell_angle_alpha                90
_cell_angle_beta                 90
_cell_angle_gamma                90
_cell_volume                     1520.55
_exptl_crystal_colour            colorless
_exptl_crystal_description       prismatic
_cell_formula_units_Z            4
loop_
_atom_site_label
_atom_site_type_symbol
_atom_site_fract_x
_atom_site_fract_y
_atom_site_fract_z
N1 N 1.0744(6) -0.1356(3) 0.4535(2)
N2 N 0.7577(8) -0.0245(3) 0.3919(3)
C1 C 1.2488(9) -0.1893(3) 0.4671(3)
H1 H 1.3349 -0.1891 0.5136
C2 C 1.2768(10) -0.2423(4) 0.4027(3)
H2 H 1.3852 -0.2849 0.3964
C3 C 1.1136(10) -0.2219(4) 0.3470(3)
H3 H 1.0917 -0.2494 0.2970
C4 C 0.9930(9) -0.1555(3) 0.3781(3)
C5 C 0.7947(9) -0.1093(4) 0.3481(3)
H4 H 0.8102 -0.0973 0.2905
H5 H 0.6689 -0.1475 0.3554
C6 C 0.7724(8) -0.0378(3) 0.4822(3)
H6 H 0.6814 -0.0888 0.4967
C7 C 1.0071(8) -0.0607(3) 0.5017(3)
H7 H 1.1001 -0.0101 0.4901
H8 H 1.0208 -0.0748 0.5590
C8 C 0.6888(10) 0.0418(4) 0.5277(3)
C9 C 0.5376(11) 0.0315(5) 0.5881(4)
H9 H 0.4858 -0.0250 0.6003
C10 C 0.4615(13) 0.1030(6) 0.6307(4)
H10 H 0.3591 0.0947 0.6716
C11 C 0.5341(15) 0.1857(6) 0.6137(4)
H11 H 0.4805 0.2344 0.6422
C12 C 0.6850(18) 0.1970(5) 0.5551(5)
H12 H 0.7364 0.2538 0.5438
C13 C 0.7641(14) 0.1262(4) 0.5119(4)
H13 H 0.8687 0.1351 0.4718
H14 H 0.631(6) -0.004(4) 0.382(4)
H15 H 0.850(8) 0.012(3) 0.372(4)
O1 O 0.3394(7) 0.0229(3) 0.3697(3)
O2 O 0.0506(6) 0.0898(3) 0.3212(3)
F1 F 0.298(3) 0.1610(9) 0.2060(10)
F2 F 0.541(2) 0.1664(9) 0.2995(7)
F3 F 0.513(2) 0.0534(9) 0.2220(7)
C14 C 0.2432(9) 0.0720(4) 0.3233(3)
C15 C 0.3881(11) 0.1186(6) 0.2625(5)
F4? F 0.301(3) 0.1146(10) 0.1878(8)
F5? F 0.377(2) 0.2097(8) 0.2715(8)
F6? F 0.5815(16) 0.0995(11) 0.2578(8)
loop_
_geom_bond_atom_site_label_1
_geom_bond_atom_site_label_2
_geom_bond_site_symmetry_1
_geom_bond_site_symmetry_2
N1 C1 1_555 1_555
N2 C5 1_555 1_555
C1 H1 1_555 1_555
C2 C1 1_555 1_555
H2 C2 1_555 1_555
C3 C2 1_555 1_555
H3 C3 1_555 1_555
C4 N1 1_555 1_555
C5 C4 1_555 1_555
H4 C5 1_555 1_555
H5 C5 1_555 1_555
C6 N2 1_555 1_555
H6 C6 1_555 1_555
C7 N1 1_555 1_555
H7 C7 1_555 1_555
H8 C7 1_555 1_555
C8 C6 1_555 1_555
C9 C8 1_555 1_555
H9 C9 1_555 1_555
C10 C9 1_555 1_555
H10 C10 1_555 1_555
C11 C10 1_555 1_555
H11 C11 1_555 1_555
C12 C11 1_555 1_555
H12 C12 1_555 1_555
C13 C8 1_555 1_555
H13 C13 1_555 1_555
H14 N2 1_555 1_555
H15 N2 1_555 1_555
O1 C14 1_555 1_555
O2 C14 1_555 1_555
F1 C15 1_555 1_555
F2 C15 1_555 1_555
F3 C15 1_555 1_555
C14 C15 1_555 1_555
C3 C4 1_555 1_555
C6 C7 1_555 1_555
C12 C13 1_555 1_555

#END
