
#######################################################################
#
#                 Cambridge Crystallographic Data Centre
#                                CCDC 
#
#######################################################################
#
# If this CIF has been generated from an entry in the Cambridge 
# Structural Database, then it will include bibliographic, chemical, 
# crystal, experimental, refinement or atomic coordinate data resulting 
# from the CCDC's data processing and validation procedures.
#
#######################################################################

data_HEBQOV02
_chemical_formula_moiety         'C8 H20 N1 1+,C12 H4 N4 1-,C12 H4 N4'
_chemical_name_systematic        
'di-n-butylammonium bis(7,7,8,8-tetracyanoquinodimethane)'
_symmetry_cell_setting           triclinic
_symmetry_space_group_name_H-M   'P -1'
_symmetry_Int_Tables_number      2
_space_group_name_Hall           '-P 1'
loop_
_symmetry_equiv_pos_site_id
_symmetry_equiv_pos_as_xyz
1 x,y,z
2 -x,-y,-z
_cell_length_a                   13.172(3)
_cell_length_b                   15.673(3)
_cell_length_c                   7.8951(16)
_cell_angle_alpha                90.40(3)
_cell_angle_beta                 77.23(3)
_cell_angle_gamma                66.18(3)
_cell_volume                     1445.7
_exptl_crystal_colour            black
_exptl_crystal_description       column
_chemical_melting_point          '474 K'
_cell_formula_units_Z            2
_exptl_crystal_preparation       'magnetic properties'
loop_
_atom_site_label
_atom_site_type_symbol
_atom_site_fract_x
_atom_site_fract_y
_atom_site_fract_z
N1 N 0.38894(16) 0.35920(13) 0.7293(3)
N2 N 0.45949(14) 0.19148(11) 1.1569(2)
N3 N 0.75261(15) -0.12708(12) 0.0176(2)
N4 N 0.78983(16) -0.29639(12) 0.4486(2)
C1 C 0.43351(15) 0.28609(13) 0.7706(2)
C2 C 0.47084(14) 0.19274(11) 1.0092(2)
C3 C 0.48493(13) 0.19600(11) 0.8267(2)
C4 C 0.54524(12) 0.11545(11) 0.7065(2)
C5 C 0.56099(13) 0.11992(12) 0.5234(2)
H3 H 0.5338(14) 0.1780(12) 0.481(2)
C6 C 0.59231(14) 0.02461(11) 0.7663(2)
H4 H 0.5840(12) 0.0202(10) 0.891(2)
C7 C 0.61880(13) 0.04163(12) 0.4080(2)
H5 H 0.6309(13) 0.0444(11) 0.283(2)
C8 C 0.64908(14) -0.05382(12) 0.6519(2)
H6 H 0.6812(14) -0.1175(12) 0.696(2)
C9 C 0.66400(12) -0.04921(11) 0.4682(2)
C10 C 0.72075(14) -0.13023(12) 0.3504(2)
C11 C 0.73830(15) -0.12804(12) 0.1666(3)
C12 C 0.75963(16) -0.22211(13) 0.4076(2)
N5 N 0.71782(14) 0.26669(11) 0.5713(2)
N6 N 0.77205(13) 0.08907(11) 0.9879(2)
N7 N 1.07589(14) -0.20985(11) -0.1648(2)
N8 N 1.12011(14) -0.38793(10) 0.2591(2)
C13 C 0.75522(14) 0.19115(12) 0.6061(2)
C14 C 0.78507(13) 0.09229(11) 0.8395(2)
C15 C 0.80033(12) 0.09841(10) 0.6569(2)
C16 C 0.85837(12) 0.01896(10) 0.5349(2)
C17 C 0.87413(13) 0.02669(11) 0.3516(2)
H7 H 0.8435(13) 0.0895(12) 0.315(2)
C18 C 0.90399(12) -0.07307(11) 0.5904(2)
H8 H 0.8936(13) -0.0777(11) 0.715(2)
C19 C 0.93197(13) -0.05086(11) 0.2339(2)
H9 H 0.9419(12) -0.0465(10) 0.114(2)
C20 C 0.96167(13) -0.14992(11) 0.4715(2)
H10 H 0.9920(13) -0.2125(11) 0.509(2)
C21 C 0.97843(12) -0.14242(10) 0.2894(2)
C22 C 1.03973(13) -0.22152(11) 0.1661(2)
C23 C 1.05973(14) -0.21469(11) -0.0166(2)
C24 C 1.08452(14) -0.31356(12) 0.2177(2)
N9 N 0.23232(14) 0.48807(11) 1.4936(2)
H1 H 0.2415(16) 0.4319(15) 1.519(3)
H2 H 0.1901(18) 0.5087(14) 1.403(3)
C25 C 0.34547(16) 0.49147(12) 1.4275(2)
H11 H 0.3857 0.4790 1.5199
H12 H 0.3335 0.5540 1.3968
C26 C 0.41773(16) 0.42220(13) 1.2721(3)
H13 H 0.3812 0.4384 1.1757
H14 H 0.4234 0.3604 1.2990
C27 C 0.53736(18) 0.41920(16) 1.2165(3)
H15 H 0.5304 0.4818 1.1934
H16 H 0.5731 0.4026 1.3136
C28 C 0.6136(2) 0.3538(2) 1.0623(4)
H17 H 0.6868 0.3566 1.0385
H18 H 0.5810 0.3709 0.9636
H19 H 0.6229 0.2912 1.0839
C29 C 0.15922(17) 0.55263(13) 1.6545(3)
H20 H 0.1529 0.6156 1.6369
H21 H 0.1945 0.5326 1.7512
C30 C 0.03926(19) 0.55332(15) 1.6990(3)
H22 H 0.0054 0.5720 1.6005
H23 H 0.0464 0.4902 1.7168
C31 C -0.03795(19) 0.61717(16) 1.8563(3)
H24 H -0.0434 0.6800 1.8392
H25 H -0.0045 0.5976 1.9550
C32 C -0.1550(2) 0.62037(16) 1.8992(3)
H26 H -0.2000 0.6628 2.0028
H27 H -0.1508 0.5588 1.9188
H28 H -0.1899 0.6416 1.8039
loop_
_geom_bond_atom_site_label_1
_geom_bond_atom_site_label_2
_geom_bond_site_symmetry_1
_geom_bond_site_symmetry_2
N1 C1 1_555 1_555
N2 C2 1_555 1_555
N3 C11 1_555 1_555
N4 C12 1_555 1_555
N5 C13 1_555 1_555
N6 C14 1_555 1_555
N7 C23 1_555 1_555
N8 C24 1_555 1_555
N9 H1 1_555 1_555
H2 N9 1_555 1_555
C1 C3 1_555 1_555
C2 C3 1_555 1_555
C3 C4 1_555 1_555
C4 C5 1_555 1_555
C5 H3 1_555 1_555
C6 C4 1_555 1_555
H4 C6 1_555 1_555
C7 C5 1_555 1_555
H5 C7 1_555 1_555
C8 C6 1_555 1_555
H6 C8 1_555 1_555
C9 C7 1_555 1_555
C10 C9 1_555 1_555
C11 C10 1_555 1_555
C12 C10 1_555 1_555
C13 C15 1_555 1_555
C14 C15 1_555 1_555
C15 C16 1_555 1_555
C16 C17 1_555 1_555
C17 H7 1_555 1_555
C18 C16 1_555 1_555
H8 C18 1_555 1_555
C19 C17 1_555 1_555
H9 C19 1_555 1_555
C20 C18 1_555 1_555
H10 C20 1_555 1_555
C21 C19 1_555 1_555
C22 C21 1_555 1_555
C23 C22 1_555 1_555
C24 C22 1_555 1_555
C25 N9 1_555 1_555
H11 C25 1_555 1_555
H12 C25 1_555 1_555
C26 C25 1_555 1_555
H13 C26 1_555 1_555
H14 C26 1_555 1_555
C27 C26 1_555 1_555
H15 C27 1_555 1_555
H16 C27 1_555 1_555
C28 C27 1_555 1_555
H17 C28 1_555 1_555
H18 C28 1_555 1_555
H19 C28 1_555 1_555
C29 N9 1_555 1_555
H20 C29 1_555 1_555
H21 C29 1_555 1_555
C30 C29 1_555 1_555
H22 C30 1_555 1_555
H23 C30 1_555 1_555
C31 C30 1_555 1_555
H24 C31 1_555 1_555
H25 C31 1_555 1_555
C32 C31 1_555 1_555
H26 C32 1_555 1_555
H27 C32 1_555 1_555
H28 C32 1_555 1_555
C8 C9 1_555 1_555
C20 C21 1_555 1_555

#END
