
#######################################################################
#
#                 Cambridge Crystallographic Data Centre
#                                CCDC 
#
#######################################################################
#
# If this CIF has been generated from an entry in the Cambridge 
# Structural Database, then it will include bibliographic, chemical, 
# crystal, experimental, refinement or atomic coordinate data resulting 
# from the CCDC's data processing and validation procedures.
#
#######################################################################

data_HEBQOV01
_chemical_formula_moiety         'C8 H20 N1 1+,C12 H4 N4 1-,C12 H4 N4'
_chemical_name_systematic        
'di-n-butylammonium bis(7,7,8,8-tetracyanoquinodimethane)'
_symmetry_cell_setting           triclinic
_symmetry_space_group_name_H-M   'P -1'
_symmetry_Int_Tables_number      2
_space_group_name_Hall           '-P 1'
loop_
_symmetry_equiv_pos_site_id
_symmetry_equiv_pos_as_xyz
1 x,y,z
2 -x,-y,-z
_cell_length_a                   6.6543(2)
_cell_length_b                   14.1920(4)
_cell_length_c                   15.9078(5)
_cell_angle_alpha                83.3861(11)
_cell_angle_beta                 79.2127(11)
_cell_angle_gamma                90.0183(15)
_cell_volume                     1465.56
_exptl_crystal_colour            black
_exptl_crystal_description       column
_chemical_melting_point          '474 K'
_cell_formula_units_Z            2
_exptl_crystal_preparation       'magnetic properties'
loop_
_atom_site_label
_atom_site_type_symbol
_atom_site_fract_x
_atom_site_fract_y
_atom_site_fract_z
N1 N 0.4718(3) -0.37882(14) 0.36998(13)
N2 N 0.3267(3) -0.19876(13) 0.57636(13)
N3 N 0.6334(3) 0.11241(14) 0.00865(13)
N4 N 0.5375(3) 0.28745(14) 0.21801(14)
C1 C 0.4523(3) -0.30341(15) 0.38920(14)
C2 C 0.3738(3) -0.20405(14) 0.50357(16)
C3 C 0.4292(3) -0.21068(13) 0.41362(13)
C4 C 0.4574(3) -0.12899(13) 0.35280(12)
C5 C 0.5069(3) -0.13464(15) 0.26268(14)
C6 C 0.4353(3) -0.03713(14) 0.38026(14)
C7 C 0.5338(3) -0.05530(14) 0.20445(15)
C8 C 0.4642(3) 0.04218(15) 0.32224(13)
C9 C 0.5139(3) 0.03669(13) 0.23253(13)
C10 C 0.5454(3) 0.11905(14) 0.17309(13)
C11 C 0.5943(3) 0.11492(15) 0.08235(16)
C12 C 0.5396(3) 0.21149(16) 0.19905(14)
H19 H 0.522(3) -0.1968(14) 0.2436(13)
H20 H 0.403(3) -0.0328(13) 0.4392(13)
H21 H 0.560(3) -0.0589(13) 0.1451(13)
H22 H 0.444(3) 0.1031(14) 0.3413(13)
N5 N 0.0122(4) -0.27652(14) 0.28438(15)
N6 N -0.1221(3) -0.09945(14) 0.49042(13)
N7 N 0.1726(3) 0.20000(13) -0.08253(13)
N8 N 0.0517(4) 0.38190(15) 0.12032(15)
C13 C -0.0031(3) -0.20104(16) 0.30248(14)
C14 C -0.0767(3) -0.10101(15) 0.41736(16)
C15 C -0.0215(3) -0.10688(14) 0.32664(13)
C16 C 0.0097(3) -0.02755(13) 0.26599(13)
C17 C 0.0627(3) -0.03726(15) 0.17583(13)
C18 C -0.0113(3) 0.06601(14) 0.29196(15)
C19 C 0.0889(3) 0.03966(14) 0.11680(15)
C20 C 0.0160(3) 0.14259(15) 0.23255(14)
C21 C 0.0662(3) 0.13346(13) 0.14215(13)
C22 C 0.0907(3) 0.21191(14) 0.08015(13)
C23 C 0.1363(3) 0.20397(14) -0.00959(16)
C24 C 0.0695(4) 0.30615(16) 0.10317(15)
H23 H 0.086(3) -0.0991(15) 0.1571(14)
H24 H -0.041(3) 0.0722(13) 0.3481(14)
H25 H 0.122(3) 0.0331(13) 0.0611(12)
H26 H 0.005(3) 0.2024(14) 0.2497(13)
N9 N 0.6687(3) -0.51288(15) 0.25862(15)
C25 C 0.6606(4) -0.44999(18) 0.17859(17)
H1 H 0.7560 -0.4721 0.1314
H2 H 0.7040 -0.3864 0.1851
C26 C 0.4524(4) -0.44637(18) 0.15655(19)
H3 H 0.3570 -0.4242 0.2037
H4 H 0.4089 -0.5099 0.1500
C27 C 0.4450(5) -0.3823(2) 0.0751(2)
H5 H 0.4883 -0.3190 0.0826
H6 H 0.5441 -0.4040 0.0289
C28 C 0.2550(6) -0.3757(3) 0.0485(3)
H7 H 0.2121 -0.4372 0.0382
H8 H 0.2679 -0.3328 -0.0036
H9 H 0.1553 -0.3525 0.0927
C29 C 0.8683(4) -0.51037(17) 0.28611(17)
H10 H 0.9744 -0.5251 0.2390
H11 H 0.8954 -0.4465 0.2978
C30 C 0.8807(5) -0.57671(19) 0.3630(2)
H12 H 0.8416 -0.6398 0.3531
H13 H 0.7828 -0.5585 0.4113
C31 C 1.0920(5) -0.5805(2) 0.3868(3)
H14 H 1.1885 -0.5928 0.3357
H15 H 1.1246 -0.5173 0.3988
C32 C 1.1335(7) -0.6446(3) 0.4556(3)
H16 H 1.0310 -0.6395 0.5060
H17 H 1.2656 -0.6297 0.4673
H18 H 1.1321 -0.7081 0.4405
H27 H 0.631(4) -0.5713(18) 0.2513(15)
H28 H 0.559(5) -0.488(2) 0.305(2)
loop_
_geom_bond_atom_site_label_1
_geom_bond_atom_site_label_2
_geom_bond_site_symmetry_1
_geom_bond_site_symmetry_2
N1 C1 1_555 1_555
N2 C2 1_555 1_555
N3 C11 1_555 1_555
N4 C12 1_555 1_555
N5 C13 1_555 1_555
N6 C14 1_555 1_555
N7 C23 1_555 1_555
N8 C24 1_555 1_555
N9 C25 1_555 1_555
C1 C3 1_555 1_555
C2 C3 1_555 1_555
C3 C4 1_555 1_555
C4 C5 1_555 1_555
C5 C7 1_555 1_555
C6 C4 1_555 1_555
C7 C9 1_555 1_555
C8 C6 1_555 1_555
C9 C8 1_555 1_555
C10 C9 1_555 1_555
C11 C10 1_555 1_555
C12 C10 1_555 1_555
C13 C15 1_555 1_555
C14 C15 1_555 1_555
C15 C16 1_555 1_555
C16 C17 1_555 1_555
C17 C19 1_555 1_555
C18 C16 1_555 1_555
C19 C21 1_555 1_555
C20 C18 1_555 1_555
C21 C20 1_555 1_555
C22 C21 1_555 1_555
C23 C22 1_555 1_555
C24 C22 1_555 1_555
C25 H1 1_555 1_555
H2 C25 1_555 1_555
C26 C25 1_555 1_555
H3 C26 1_555 1_555
H4 C26 1_555 1_555
C27 C26 1_555 1_555
H5 C27 1_555 1_555
H6 C27 1_555 1_555
C28 C27 1_555 1_555
H7 C28 1_555 1_555
H8 C28 1_555 1_555
H9 C28 1_555 1_555
C29 N9 1_555 1_555
H10 C29 1_555 1_555
H11 C29 1_555 1_555
C30 C29 1_555 1_555
H12 C30 1_555 1_555
H13 C30 1_555 1_555
C31 C30 1_555 1_555
H14 C31 1_555 1_555
H15 C31 1_555 1_555
C32 C31 1_555 1_555
H16 C32 1_555 1_555
H17 C32 1_555 1_555
H18 C32 1_555 1_555
H19 C5 1_555 1_555
H20 C6 1_555 1_555
H21 C7 1_555 1_555
H22 C8 1_555 1_555
H23 C17 1_555 1_555
H24 C18 1_555 1_555
H25 C19 1_555 1_555
H26 C20 1_555 1_555
H27 N9 1_555 1_555
H28 N9 1_555 1_555

#END
