
#######################################################################
#
#                 Cambridge Crystallographic Data Centre
#                                CCDC 
#
#######################################################################
#
# If this CIF has been generated from an entry in the Cambridge 
# Structural Database, then it will include bibliographic, chemical, 
# crystal, experimental, refinement or atomic coordinate data resulting 
# from the CCDC's data processing and validation procedures.
#
#######################################################################

data_HEBTUD
_chemical_formula_moiety         'C60 H76 Li2 N6 P4 Si4,2.5(C7 H8)'
_chemical_name_systematic        
'bis(\m~2~-bis((Trimethylsilylamino)diphenylphosphino)aminato)-di-lithium toluene solvate'
_symmetry_cell_setting           monoclinic
_symmetry_space_group_name_H-M   'C 2/c'
_symmetry_Int_Tables_number      15
_space_group_name_Hall           '-C 2yn'
loop_
_symmetry_equiv_pos_site_id
_symmetry_equiv_pos_as_xyz
1 x,y,z
2 1/2+x,1/2+y,z
3 -x,y,1/2-z
4 1/2-x,1/2+y,1/2-z
5 -x,-y,-z
6 1/2-x,1/2-y,-z
7 x,-y,1/2+z
8 1/2+x,1/2-y,1/2+z
_cell_length_a                   51.814(10)
_cell_length_b                   12.232(2)
_cell_length_c                   23.984(5)
_cell_angle_alpha                90
_cell_angle_beta                 92.91(3)
_cell_angle_gamma                90
_cell_volume                     15181.2
_exptl_crystal_colour            Colorless
_cell_formula_units_Z            8
loop_
_atom_site_label
_atom_site_type_symbol
_atom_site_fract_x
_atom_site_fract_y
_atom_site_fract_z
Li1 Li 0.1327(2) 0.2765(7) -0.0504(4)
N1 N 0.12539(8) 0.1560(3) -0.1061(2)
Si1 Si 0.14541(3) 0.09058(14) -0.14945(7)
C1 C 0.14356(12) 0.1440(6) -0.2220(2)
H1 H 0.14674(12) 0.2230(6) -0.2215(2)
H2 H 0.12635(12) 0.1295(6) -0.2392(2)
H3 H 0.15663(12) 0.1078(6) -0.2437(2)
C2 C 0.13916(14) -0.0591(5) -0.1549(3)
H4 H 0.13992(14) -0.0914(5) -0.1174(3)
H5 H 0.15227(14) -0.0932(5) -0.1772(3)
H6 H 0.12199(14) -0.0715(5) -0.1728(3)
C3 C 0.17912(11) 0.1120(6) -0.1206(3)
H7 H 0.18072(11) 0.0845(6) -0.0822(3)
H8 H 0.18321(11) 0.1902(6) -0.1209(3)
H9 H 0.19116(11) 0.0725(6) -0.1436(3)
P1 P 0.09536(3) 0.17637(11) -0.10836(6)
C4 C 0.08305(10) 0.2148(4) -0.1775(2)
C5 C 0.08927(10) 0.3176(5) -0.1964(2)
H10 H 0.09954(10) 0.3645(5) -0.1727(2)
C6 C 0.08091(11) 0.3539(5) -0.2488(2)
H11 H 0.08522(11) 0.4253(5) -0.2608(2)
C7 C 0.06627(12) 0.2856(5) -0.2835(2)
H12 H 0.06030(12) 0.3100(5) -0.3194(2)
C8 C 0.06037(12) 0.1824(5) -0.2657(2)
H13 H 0.05025(12) 0.1355(5) -0.2897(2)
C9 C 0.06894(10) 0.1457(5) -0.2135(2)
H14 H 0.06518(10) 0.0732(5) -0.2023(2)
C10 C 0.07783(11) 0.0545(4) -0.0885(2)
C11 C 0.05142(12) 0.0401(5) -0.0994(2)
H15 H 0.04173(12) 0.0945(5) -0.1195(2)
C12 C 0.03910(13) -0.0530(5) -0.0812(3)
H16 H 0.02105(13) -0.0621(5) -0.0888(3)
C13 C 0.0529(2) -0.1314(5) -0.0523(3)
H17 H 0.0445(2) -0.1956(5) -0.0403(3)
C14 C 0.0789(2) -0.1173(5) -0.0407(3)
H18 H 0.0884(2) -0.1717(5) -0.0202(3)
C15 C 0.09142(12) -0.0253(5) -0.0584(2)
H19 H 0.10940(12) -0.0165(5) -0.0499(2)
N2 N 0.09037(8) 0.2745(3) -0.0649(2)
P2 P 0.06680(3) 0.35724(11) -0.05332(6)
C16 C 0.03608(10) 0.3015(4) -0.0799(2)
C17 C 0.02724(10) 0.3053(4) -0.1356(2)
H20 H 0.03716(10) 0.3421(4) -0.1620(2)
C18 C 0.00418(11) 0.2561(5) -0.1529(3)
H21 H -0.00187(11) 0.2608(5) -0.1909(3)
C19 C -0.01005(11) 0.2002(5) -0.1150(3)
H22 H -0.02572(11) 0.1652(5) -0.1270(3)
C20 C -0.00152(11) 0.1953(5) -0.0597(3)
H23 H -0.01127(11) 0.1569(5) -0.0335(3)
C21 C 0.02125(10) 0.2463(4) -0.0426(2)
H24 H 0.02689(10) 0.2436(4) -0.0044(2)
C22 C 0.07081(10) 0.4833(4) -0.0917(2)
C23 C 0.05019(11) 0.5432(5) -0.1141(2)
H25 H 0.03311(11) 0.5166(5) -0.1108(2)
C24 C 0.05401(13) 0.6413(5) -0.1413(2)
H26 H 0.03965(13) 0.6807(5) -0.1571(2)
C25 C 0.07847(13) 0.6814(5) -0.1452(2)
H27 H 0.08114(13) 0.7481(5) -0.1644(2)
C26 C 0.09929(12) 0.6251(5) -0.1214(2)
H28 H 0.11626(12) 0.6539(5) -0.1233(2)
C27 C 0.09543(11) 0.5267(5) -0.0949(2)
H29 H 0.10984(11) 0.4883(5) -0.0785(2)
N3 N 0.06724(7) 0.3759(3) 0.0113(2)
Si2 Si 0.05441(3) 0.46368(13) 0.05685(6)
C28 C 0.01974(11) 0.4358(5) 0.0688(2)
H30 H 0.00947(11) 0.4445(5) 0.0336(2)
H31 H 0.01362(11) 0.4874(5) 0.0964(2)
H32 H 0.01790(11) 0.3609(5) 0.0825(2)
C29 C 0.07283(11) 0.4460(5) 0.1248(2)
H33 H 0.07182(11) 0.3695(5) 0.1367(2)
H34 H 0.06542(11) 0.4932(5) 0.1529(2)
H35 H 0.09094(11) 0.4660(5) 0.1207(2)
C30 C 0.05614(12) 0.6084(4) 0.0338(2)
H36 H 0.04639(12) 0.6171(4) -0.0020(2)
H37 H 0.07422(12) 0.6287(4) 0.0295(2)
H38 H 0.04870(12) 0.6558(4) 0.0618(2)
Li2 Li 0.0956(2) 0.2712(7) 0.0297(4)
N4 N 0.10479(7) 0.1664(3) 0.0911(2)
Si3 Si 0.08415(3) 0.07679(13) 0.11976(6)
C31 C 0.05188(11) 0.0954(5) 0.0834(3)
H39 H 0.04635(11) 0.1715(5) 0.0872(3)
H40 H 0.03934(11) 0.0470(5) 0.1002(3)
H41 H 0.05295(11) 0.0774(5) 0.0438(3)
C32 C 0.09356(12) -0.0684(4) 0.1112(3)
H42 H 0.11055(12) -0.0809(4) 0.1300(3)
H43 H 0.09434(12) -0.0854(4) 0.0714(3)
H44 H 0.08075(12) -0.1158(4) 0.1278(3)
C33 C 0.08087(13) 0.1024(5) 0.1961(2)
H45 H 0.07590(13) 0.1787(5) 0.2019(2)
H46 H 0.09742(13) 0.0878(5) 0.2164(2)
H47 H 0.06758(13) 0.0540(5) 0.2101(2)
P3 P 0.13464(3) 0.18522(11) 0.09106(6)
C34 C 0.15169(10) 0.0585(4) 0.0794(2)
C35 C 0.15485(11) 0.0212(5) 0.0255(2)
H48 H 0.14979(11) 0.0665(5) -0.0053(2)
C36 C 0.16523(12) -0.0806(5) 0.0160(3)
H49 H 0.16741(12) -0.1046(5) -0.0211(3)
C37 C 0.17243(12) -0.1473(5) 0.0603(3)
H50 H 0.17935(12) -0.2178(5) 0.0538(3)
C38 C 0.16956(11) -0.1117(5) 0.1141(3)
H51 H 0.17481(11) -0.1572(5) 0.1447(3)
C39 C 0.15912(11) -0.0103(5) 0.1237(2)
H52 H 0.15695(11) 0.0130(5) 0.1610(2)
C40 C 0.14810(11) 0.2324(4) 0.1578(2)
C41 C 0.13173(12) 0.2814(5) 0.1947(2)
H53 H 0.11381(12) 0.2875(5) 0.1848(2)
C42 C 0.14120(15) 0.3210(5) 0.2456(3)
H54 H 0.12987(15) 0.3545(5) 0.2704(3)
C43 C 0.1670(2) 0.3117(5) 0.2602(3)
H55 H 0.1735(2) 0.3392(5) 0.2952(3)
C44 C 0.18367(13) 0.2631(5) 0.2247(3)
H56 H 0.20153(13) 0.2565(5) 0.2352(3)
C45 C 0.17410(12) 0.2236(4) 0.1733(2)
H57 H 0.18552(12) 0.1904(4) 0.1486(2)
N5 N 0.13999(7) 0.2701(3) 0.0416(2)
P4 P 0.15805(3) 0.37641(11) 0.03271(6)
C46 C 0.19116(10) 0.3508(5) 0.0551(2)
C47 C 0.20216(11) 0.2500(5) 0.0443(2)
H58 H 0.19160(11) 0.1931(5) 0.0287(2)
C48 C 0.22810(13) 0.2309(6) 0.0557(3)
H59 H 0.23531(13) 0.1614(6) 0.0480(3)
C49 C 0.24328(13) 0.3118(8) 0.0780(3)
H60 H 0.26108(13) 0.2982(8) 0.0867(3)
C50 C 0.23313(13) 0.4132(7) 0.0883(3)
H61 H 0.24399(13) 0.4699(7) 0.1030(3)
C51 C 0.20719(12) 0.4327(6) 0.0770(3)
H62 H 0.20023(12) 0.5028(6) 0.0844(3)
C52 C 0.14767(10) 0.4893(4) 0.0757(2)
C53 C 0.13221(10) 0.5703(5) 0.0512(2)
H63 H 0.12764(10) 0.5676(5) 0.0124(2)
C54 C 0.12343(11) 0.6552(5) 0.0833(3)
H64 H 0.11289(11) 0.7106(5) 0.0661(3)
C55 C 0.12972(12) 0.6608(5) 0.1396(3)
H65 H 0.12354(12) 0.7194(5) 0.1612(3)
C56 C 0.14506(12) 0.5808(5) 0.1644(2)
H66 H 0.14952(12) 0.5839(5) 0.2033(2)
C57 C 0.15389(11) 0.4963(5) 0.1326(2)
H67 H 0.16450(11) 0.4415(5) 0.1500(2)
N6 N 0.15552(7) 0.4045(3) -0.0314(2)
Si4 Si 0.17384(3) 0.47379(13) -0.07636(6)
C58 C 0.20821(11) 0.4297(6) -0.0748(3)
H68 H 0.21631(11) 0.4437(6) -0.0377(3)
H69 H 0.21735(11) 0.4708(6) -0.1028(3)
H70 H 0.20908(11) 0.3514(6) -0.0831(3)
C59 C 0.17392(13) 0.6243(5) -0.0628(3)
H71 H 0.15608(13) 0.6510(5) -0.0633(3)
H72 H 0.18323(13) 0.6617(5) -0.0918(3)
H73 H 0.18249(13) 0.6390(5) -0.0262(3)
C60 C 0.15988(12) 0.4445(5) -0.1481(2)
H74 H 0.14168(12) 0.4667(5) -0.1507(2)
H75 H 0.16118(12) 0.3661(5) -0.1557(2)
H76 H 0.16946(12) 0.4855(5) -0.1754(2)
C61 C 0.0000 0.8337(69) -0.2500
C62 C 0.0000 0.7340(56) -0.2500
C63 C -0.0161(13) 0.6828(54) -0.2208(32)
H80 H -0.0277(13) 0.7218(54) -0.1987(32)
C64 C -0.0164(7) 0.5755(54) -0.2221(18)
H81 H -0.0288(7) 0.5359(54) -0.2022(18)
C65 C 0.0000 0.5255(56) -0.2500
H82 H 0.0000 0.4478(56) -0.2500
C63B C 0.0161(13) 0.6828(54) -0.2792(32)
C64B C 0.0164(7) 0.5755(54) -0.2779(18)
H80B H 0.0277(13) 0.7218(54) -0.3013(32)
H81B H 0.0288(7) 0.5359(54) -0.2978(18)
C71 C 0.2233(3) -0.0164(14) 0.2136(7)
H89 H 0.2235(3) -0.0853(14) 0.2345(7)
H90 H 0.2218(3) -0.0319(14) 0.1735(7)
H91 H 0.2086(3) 0.0282(14) 0.2240(7)
C72 C 0.2444(2) 0.0356(10) 0.2252(5)
C73 C 0.2484(2) 0.1360(10) 0.1998(4)
H92 H 0.2359(3) 0.1636(14) 0.1730(5)
C74 C 0.2706(3) 0.1960(9) 0.2136(5)
H93 H 0.2732(3) 0.2646(10) 0.1963(7)
C75 C 0.2888(2) 0.1556(11) 0.2528(5)
H94 H 0.3040(2) 0.1966(14) 0.2623(7)
C76 C 0.2849(2) 0.0552(11) 0.2782(4)
H95 H 0.2973(3) 0.0276(15) 0.3050(6)
C77 C 0.2627(3) -0.0048(9) 0.2644(5)
H96 H 0.2600(3) -0.0734(10) 0.2817(7)
H77? H 0.0134 0.8604(69) -0.2740
H78? H 0.0035 0.8604(69) -0.2119
H79? H -0.0169 0.8604(69) -0.2641
C66? C 0.0000 0.9237(39) -0.2500
H83? H -0.0117 0.9504(39) -0.2221
H84? H -0.0059 0.9504(39) -0.2870
H85? H 0.0175 0.9504(39) -0.2409
C67? C 0.0000 0.8224(31) -0.2500
C68? C -0.0141(4) 0.7722(26) -0.2162(9)
H86? H -0.0241(4) 0.8115(26) -0.1907(9)
C69? C -0.0146(6) 0.6665(25) -0.2176(14)
H87? H -0.0258(6) 0.6281(25) -0.1944(14)
C70? C 0.0000 0.6118(29) -0.2500
H88? H 0.0000 0.5342(29) -0.2500
C78? C 0.2376(4) 0.1470(21) 0.5110(10)
H97? H 0.2485(4) 0.1909(21) 0.5370(10)
H98? H 0.2448(4) 0.0732(21) 0.5086(10)
H99? H 0.2201(4) 0.1430(21) 0.5244(10)
C79? C 0.2370(4) 0.1877(16) 0.4668(7)
C80? C 0.2228(3) 0.1398(15) 0.4225(9)
H100? H 0.2125(5) 0.0770(18) 0.4287(13)
C81? C 0.2236(4) 0.1839(19) 0.3692(8)
H101? H 0.2139(6) 0.1512(27) 0.3390(10)
C82? C 0.2386(4) 0.2759(19) 0.3602(8)
H102? H 0.2391(6) 0.3060(27) 0.3238(9)
C83? C 0.2528(4) 0.3237(15) 0.4045(11)
H103? H 0.2630(5) 0.3865(19) 0.3983(15)
C84? C 0.2520(4) 0.2796(16) 0.4578(9)
H104? H 0.2617(6) 0.3123(22) 0.4880(11)
C85? C 0.2374(7) 0.2251(33) 0.4095(16)
H105? H 0.2520(7) 0.2626(33) 0.4288(16)
H106? H 0.2316(7) 0.1650(33) 0.4328(16)
H107? H 0.2232(7) 0.2769(33) 0.4025(16)
C86? C 0.2441(5) 0.1892(23) 0.3659(13)
C87? C 0.2272(4) 0.1295(24) 0.3310(15)
H108? H 0.2098(5) 0.1194(34) 0.3407(18)
C88? C 0.2356(6) 0.0847(21) 0.2819(14)
H109? H 0.2240(7) 0.0438(28) 0.2581(16)
C89? C 0.2611(6) 0.0995(22) 0.2678(12)
H110? H 0.2669(8) 0.0688(30) 0.2342(13)
C90? C 0.2780(5) 0.1592(25) 0.3027(14)
H111? H 0.2954(5) 0.1694(35) 0.2930(17)
C91? C 0.2696(5) 0.2041(23) 0.3517(14)
H112? H 0.2811(6) 0.2449(30) 0.3756(17)
loop_
_geom_bond_atom_site_label_1
_geom_bond_atom_site_label_2
_geom_bond_site_symmetry_1
_geom_bond_site_symmetry_2
Li1 N1 1_555 1_555
N1 Si1 1_555 1_555
Si1 C1 1_555 1_555
C1 H1 1_555 1_555
H2 C1 1_555 1_555
H3 C1 1_555 1_555
C2 Si1 1_555 1_555
H4 C2 1_555 1_555
H5 C2 1_555 1_555
H6 C2 1_555 1_555
C3 Si1 1_555 1_555
H7 C3 1_555 1_555
H8 C3 1_555 1_555
H9 C3 1_555 1_555
P1 Li1 1_555 1_555
C4 P1 1_555 1_555
C5 C4 1_555 1_555
H10 C5 1_555 1_555
C6 C5 1_555 1_555
H11 C6 1_555 1_555
C7 C6 1_555 1_555
H12 C7 1_555 1_555
C8 C7 1_555 1_555
H13 C8 1_555 1_555
C9 C4 1_555 1_555
H14 C9 1_555 1_555
C10 P1 1_555 1_555
C11 C10 1_555 1_555
H15 C11 1_555 1_555
C12 C11 1_555 1_555
H16 C12 1_555 1_555
C13 C12 1_555 1_555
H17 C13 1_555 1_555
C14 C13 1_555 1_555
H18 C14 1_555 1_555
C15 C10 1_555 1_555
H19 C15 1_555 1_555
N2 Li1 1_555 1_555
P2 N2 1_555 1_555
C16 P2 1_555 1_555
C17 C16 1_555 1_555
H20 C17 1_555 1_555
C18 C17 1_555 1_555
H21 C18 1_555 1_555
C19 C18 1_555 1_555
H22 C19 1_555 1_555
C20 C19 1_555 1_555
H23 C20 1_555 1_555
C21 C16 1_555 1_555
H24 C21 1_555 1_555
C22 P2 1_555 1_555
C23 C22 1_555 1_555
H25 C23 1_555 1_555
C24 C23 1_555 1_555
H26 C24 1_555 1_555
C25 C24 1_555 1_555
H27 C25 1_555 1_555
C26 C25 1_555 1_555
H28 C26 1_555 1_555
C27 C22 1_555 1_555
H29 C27 1_555 1_555
N3 P2 1_555 1_555
Si2 N3 1_555 1_555
C28 Si2 1_555 1_555
H30 C28 1_555 1_555
H31 C28 1_555 1_555
H32 C28 1_555 1_555
C29 Si2 1_555 1_555
H33 C29 1_555 1_555
H34 C29 1_555 1_555
H35 C29 1_555 1_555
C30 Si2 1_555 1_555
H36 C30 1_555 1_555
H37 C30 1_555 1_555
H38 C30 1_555 1_555
Li2 Li1 1_555 1_555
N4 Li2 1_555 1_555
Si3 N4 1_555 1_555
C31 Si3 1_555 1_555
H39 C31 1_555 1_555
H40 C31 1_555 1_555
H41 C31 1_555 1_555
C32 Si3 1_555 1_555
H42 C32 1_555 1_555
H43 C32 1_555 1_555
H44 C32 1_555 1_555
C33 Si3 1_555 1_555
H45 C33 1_555 1_555
H46 C33 1_555 1_555
H47 C33 1_555 1_555
P3 Li2 1_555 1_555
C34 P3 1_555 1_555
C35 C34 1_555 1_555
H48 C35 1_555 1_555
C36 C35 1_555 1_555
H49 C36 1_555 1_555
C37 C36 1_555 1_555
H50 C37 1_555 1_555
C38 C37 1_555 1_555
H51 C38 1_555 1_555
C39 C34 1_555 1_555
H52 C39 1_555 1_555
C40 P3 1_555 1_555
C41 C40 1_555 1_555
H53 C41 1_555 1_555
C42 C41 1_555 1_555
H54 C42 1_555 1_555
C43 C42 1_555 1_555
H55 C43 1_555 1_555
C44 C43 1_555 1_555
H56 C44 1_555 1_555
C45 C40 1_555 1_555
H57 C45 1_555 1_555
N5 Li1 1_555 1_555
P4 Li1 1_555 1_555
C46 P4 1_555 1_555
C47 C46 1_555 1_555
H58 C47 1_555 1_555
C48 C47 1_555 1_555
H59 C48 1_555 1_555
C49 C48 1_555 1_555
H60 C49 1_555 1_555
C50 C49 1_555 1_555
H61 C50 1_555 1_555
C51 C46 1_555 1_555
H62 C51 1_555 1_555
C52 P4 1_555 1_555
C53 C52 1_555 1_555
H63 C53 1_555 1_555
C54 C53 1_555 1_555
H64 C54 1_555 1_555
C55 C54 1_555 1_555
H65 C55 1_555 1_555
C56 C55 1_555 1_555
H66 C56 1_555 1_555
C57 C52 1_555 1_555
H67 C57 1_555 1_555
N6 Li1 1_555 1_555
Si4 N6 1_555 1_555
C58 Si4 1_555 1_555
H68 C58 1_555 1_555
H69 C58 1_555 1_555
H70 C58 1_555 1_555
C59 Si4 1_555 1_555
H71 C59 1_555 1_555
H72 C59 1_555 1_555
H73 C59 1_555 1_555
C60 Si4 1_555 1_555
H74 C60 1_555 1_555
H75 C60 1_555 1_555
H76 C60 1_555 1_555
C61 C62 1_555 1_555
C62 C63 1_555 1_555
C63 H80 1_555 1_555
C64 C63 1_555 1_555
H81 C64 1_555 1_555
C65 C64 1_555 1_555
H82 C65 1_555 1_555
C71 H89 1_555 1_555
H90 C71 1_555 1_555
H91 C71 1_555 1_555
C72 C71 1_555 1_555
C73 C72 1_555 1_555
H92 C73 1_555 1_555
C74 C73 1_555 1_555
H93 C74 1_555 1_555
C75 C74 1_555 1_555
H94 C75 1_555 1_555
C76 C75 1_555 1_555
H95 C76 1_555 1_555
C77 C72 1_555 1_555
H96 C77 1_555 1_555
C63B C62 1_555 1_555
C64B C65 1_555 1_555
H80B C63B 1_555 1_555
H81B C64B 1_555 1_555
N1 P1 1_555 1_555
P1 N2 1_555 1_555
C8 C9 1_555 1_555
C14 C15 1_555 1_555
N2 Li2 1_555 1_555
P2 Li2 1_555 1_555
C20 C21 1_555 1_555
C26 C27 1_555 1_555
N3 Li2 1_555 1_555
Li2 N5 1_555 1_555
N4 P3 1_555 1_555
P3 N5 1_555 1_555
C38 C39 1_555 1_555
C44 C45 1_555 1_555
N5 P4 1_555 1_555
P4 N6 1_555 1_555
C50 C51 1_555 1_555
C56 C57 1_555 1_555
C76 C77 1_555 1_555
C63B C64B 1_555 1_555

#END
