
#######################################################################
#
#                 Cambridge Crystallographic Data Centre
#                                CCDC 
#
#######################################################################
#
# If this CIF has been generated from an entry in the Cambridge 
# Structural Database, then it will include bibliographic, chemical, 
# crystal, experimental, refinement or atomic coordinate data resulting 
# from the CCDC's data processing and validation procedures.
#
#######################################################################

data_HEBWOD
_chemical_formula_moiety         'C18 H24 O4 P2 S4'
_chemical_name_systematic        
"2,2'-(2,2'-bithiene-5,5'-diyl)bis(5,5-dimethyl-1,3,2-dioxaphosphinane) 2,2'-disulfide"
_symmetry_cell_setting           monoclinic
_symmetry_space_group_name_H-M   'C 2/c'
_symmetry_Int_Tables_number      15
_space_group_name_Hall           '-C 2yn'
loop_
_symmetry_equiv_pos_site_id
_symmetry_equiv_pos_as_xyz
1 x,y,z
2 -x,y,1/2-z
3 1/2+x,1/2+y,z
4 1/2-x,1/2+y,1/2-z
5 -x,-y,-z
6 x,-y,1/2+z
7 1/2-x,1/2-y,-z
8 1/2+x,1/2-y,1/2+z
_cell_length_a                   21.975(4)
_cell_length_b                   9.5013(19)
_cell_length_c                   12.996(3)
_cell_angle_alpha                90
_cell_angle_beta                 121.68(3)
_cell_angle_gamma                90
_cell_volume                     2309.13
_cell_formula_units_Z            4
loop_
_atom_site_label
_atom_site_type_symbol
_atom_site_fract_x
_atom_site_fract_y
_atom_site_fract_z
C1 C 0.09065(16) 0.3790(3) 0.1296(3)
C2 C 0.08381(17) 0.5199(4) 0.1348(3)
H1 H 0.1035 0.5847 0.1067
C3 C 0.04419(17) 0.5591(4) 0.1866(3)
H2 H 0.0349 0.6522 0.1961
C4 C 0.02066(17) 0.4470(3) 0.2216(3)
C5 C 0.1055(2) 0.0552(4) -0.0486(3)
H3 H 0.1319 0.0822 -0.0862
H4 H 0.0654 -0.0026 -0.1057
C6 C 0.15361(19) -0.0297(4) 0.0642(3)
C7 C 0.21526(18) 0.0636(4) 0.1528(3)
H5 H 0.2463 0.0113 0.2263
H6 H 0.2430 0.0915 0.1179
C8 C 0.1126(2) -0.0837(4) 0.1215(4)
H7 H 0.1443 -0.1368 0.1929
H8 H 0.0739 -0.1428 0.0649
H9 H 0.0938 -0.0053 0.1428
C9 C 0.1844(2) -0.1531(4) 0.0299(4)
H10 H 0.2072 -0.1181 -0.0109
H11 H 0.1465 -0.2162 -0.0225
H12 H 0.2189 -0.2024 0.1018
O1 O 0.07858(11) 0.1813(2) -0.0216(2)
O2 O 0.18855(11) 0.1894(2) 0.18191(19)
P1 P 0.13678(4) 0.28823(9) 0.07238(8)
S1 S 0.04776(5) 0.29220(9) 0.18943(9)
S2 S 0.18099(6) 0.40647(11) 0.01143(10)
C1A C -0.09065(16) 0.3790(3) 0.3704(3)
C2A C -0.08381(17) 0.5199(4) 0.3652(3)
H1A H -0.1035 0.5847 0.3933
C3A C -0.04419(17) 0.5591(4) 0.3134(3)
H2A H -0.0349 0.6522 0.3039
C4A C -0.02066(17) 0.4470(3) 0.2784(3)
C5A C -0.1055(2) 0.0552(4) 0.5486(3)
H3A H -0.1319 0.0822 0.5862
H4A H -0.0654 -0.0026 0.6057
C6A C -0.15361(19) -0.0297(4) 0.4358(3)
C7A C -0.21526(18) 0.0636(4) 0.3472(3)
H5A H -0.2463 0.0113 0.2737
H6A H -0.2430 0.0915 0.3821
C8A C -0.1126(2) -0.0837(4) 0.3785(4)
H7A H -0.1443 -0.1368 0.3071
H8A H -0.0739 -0.1428 0.4351
H9A H -0.0938 -0.0053 0.3572
C9A C -0.1844(2) -0.1531(4) 0.4701(4)
H10A H -0.2072 -0.1181 0.5109
H11A H -0.1465 -0.2162 0.5225
H12A H -0.2189 -0.2024 0.3982
O1A O -0.07858(11) 0.1813(2) 0.5216(2)
O2A O -0.18855(11) 0.1894(2) 0.31809(19)
P1A P -0.13678(4) 0.28823(9) 0.42762(8)
S1A S -0.04776(5) 0.29220(9) 0.31057(9)
S2A S -0.18099(6) 0.40647(11) 0.48857(10)
loop_
_geom_bond_atom_site_label_1
_geom_bond_atom_site_label_2
_geom_bond_site_symmetry_1
_geom_bond_site_symmetry_2
C1 C2 1_555 1_555
C2 H1 1_555 1_555
C3 C2 1_555 1_555
H2 C3 1_555 1_555
C4 C3 1_555 1_555
C5 H3 1_555 1_555
H4 C5 1_555 1_555
C6 C5 1_555 1_555
C7 C6 1_555 1_555
H5 C7 1_555 1_555
H6 C7 1_555 1_555
C8 C6 1_555 1_555
H7 C8 1_555 1_555
H8 C8 1_555 1_555
H9 C8 1_555 1_555
C9 C6 1_555 1_555
H10 C9 1_555 1_555
H11 C9 1_555 1_555
H12 C9 1_555 1_555
O1 C5 1_555 1_555
O2 C7 1_555 1_555
P1 C1 1_555 1_555
S1 C1 1_555 1_555
S2 P1 1_555 1_555
C1A C2A 1_555 1_555
C2A H1A 1_555 1_555
C3A C2A 1_555 1_555
H2A C3A 1_555 1_555
C4A C4 1_555 1_555
C5A H3A 1_555 1_555
H4A C5A 1_555 1_555
C6A C5A 1_555 1_555
C7A C6A 1_555 1_555
H5A C7A 1_555 1_555
H6A C7A 1_555 1_555
C8A C6A 1_555 1_555
H7A C8A 1_555 1_555
H8A C8A 1_555 1_555
H9A C8A 1_555 1_555
C9A C6A 1_555 1_555
H10A C9A 1_555 1_555
H11A C9A 1_555 1_555
H12A C9A 1_555 1_555
O1A C5A 1_555 1_555
O2A C7A 1_555 1_555
P1A C1A 1_555 1_555
S1A C1A 1_555 1_555
S2A P1A 1_555 1_555
C4 S1 1_555 1_555
O1 P1 1_555 1_555
O2 P1 1_555 1_555
C3A C4A 1_555 1_555
C4A S1A 1_555 1_555
O1A P1A 1_555 1_555
O2A P1A 1_555 1_555

#END
