
#######################################################################
#
#                 Cambridge Crystallographic Data Centre
#                                CCDC 
#
#######################################################################
#
# If this CIF has been generated from an entry in the Cambridge 
# Structural Database, then it will include bibliographic, chemical, 
# crystal, experimental, refinement or atomic coordinate data resulting 
# from the CCDC's data processing and validation procedures.
#
#######################################################################

data_HEBXAQ
_chemical_formula_moiety         'C13 H15 O2 P1 S3'
_chemical_name_systematic        
"2-(2,2'-bithiophen-5-yl)-5,5-dimethyl-1,3,2-dioxaphosphinane 2-sulfide"
_symmetry_cell_setting           monoclinic
_symmetry_space_group_name_H-M   'P 21/c'
_symmetry_Int_Tables_number      14
_space_group_name_Hall           '-P 2ybc'
loop_
_symmetry_equiv_pos_site_id
_symmetry_equiv_pos_as_xyz
1 x,y,z
2 -x,1/2+y,1/2-z
3 -x,-y,-z
4 x,1/2-y,1/2+z
_cell_length_a                   6.0032(12)
_cell_length_b                   7.2172(14)
_cell_length_c                   35.590(7)
_cell_angle_alpha                90
_cell_angle_beta                 91.39(3)
_cell_angle_gamma                90
_cell_volume                     1541.53
_cell_formula_units_Z            4
loop_
_atom_site_label
_atom_site_type_symbol
_atom_site_fract_x
_atom_site_fract_y
_atom_site_fract_z
S1 S 0.0686(3) 0.5793(4) 0.22693(5)
C1 C 0.2340(12) 0.6669(13) 0.26246(16)
C2 C 0.432(3) 0.729(3) 0.2491(4)
H1 H 0.5454 0.7793 0.2641
C3 C 0.4443(13) 0.7073(13) 0.21011(17)
H2 H 0.5667 0.7450 0.1965
C4 C 0.2636(11) 0.6275(12) 0.19408(15)
H3 H 0.2468 0.6019 0.1686
S2 S 0.29138(15) 0.79748(14) 0.33503(3)
C5 C 0.0965(6) 0.7480(5) 0.36837(10)
C6 C -0.0666(7) 0.6372(6) 0.35339(11)
H4 H -0.1868 0.5950 0.3670
C7 C -0.0354(7) 0.5932(6) 0.31550(11)
H5 H -0.1331 0.5189 0.3015
C8 C 0.1512(6) 0.6697(5) 0.30117(10)
C9 C 0.1129(6) 1.1974(5) 0.43227(11)
H6 H 0.0605 1.1693 0.4572
H7 H 0.0528 1.3170 0.4248
C10 C 0.3672(6) 1.2068(5) 0.43336(10)
C11 C 0.4550(6) 1.0162(6) 0.44423(10)
H8 H 0.6166 1.0188 0.4449
H9 H 0.4060 0.9855 0.4692
C12 C 0.4538(8) 1.2650(6) 0.39522(12)
H10 H 0.6137 1.2678 0.3963
H11 H 0.3980 1.3861 0.3889
H12 H 0.4043 1.1779 0.3764
C13 C 0.4432(8) 1.3431(7) 0.46398(12)
H13 H 0.3835 1.3060 0.4876
H14 H 0.3909 1.4651 0.4577
H15 H 0.6030 1.3436 0.4659
O1 O 0.0334(4) 1.0565(3) 0.40598(7)
O2 O 0.3783(4) 0.8739(3) 0.41796(7)
P1 P 0.11662(15) 0.85051(13) 0.41323(3)
S3 S -0.0306(2) 0.72178(16) 0.45257(3)
S4? S 0.467(3) 0.736(4) 0.2525(5)
C14? C 0.214(5) 0.645(7) 0.2667(6)
C15? C 0.097(4) 0.580(6) 0.2356(9)
H16? H -0.0421 0.5247 0.2364
C16? C 0.215(5) 0.609(6) 0.2027(6)
H17? H 0.1512 0.5800 0.1793
C17? C 0.427(5) 0.679(7) 0.2054(5)
H18? H 0.5272 0.6932 0.1861
loop_
_geom_bond_atom_site_label_1
_geom_bond_atom_site_label_2
_geom_bond_site_symmetry_1
_geom_bond_site_symmetry_2
S1 C1 1_555 1_555
C1 C2 1_555 1_555
C2 H1 1_555 1_555
C3 C2 1_555 1_555
H2 C3 1_555 1_555
C4 S1 1_555 1_555
H3 C4 1_555 1_555
S2 C5 1_555 1_555
C5 C6 1_555 1_555
C6 H4 1_555 1_555
C7 C6 1_555 1_555
H5 C7 1_555 1_555
C8 C1 1_555 1_555
C9 H6 1_555 1_555
H7 C9 1_555 1_555
C10 C9 1_555 1_555
C11 C10 1_555 1_555
H8 C11 1_555 1_555
H9 C11 1_555 1_555
C12 C10 1_555 1_555
H10 C12 1_555 1_555
H11 C12 1_555 1_555
H12 C12 1_555 1_555
C13 C10 1_555 1_555
H13 C13 1_555 1_555
H14 C13 1_555 1_555
H15 C13 1_555 1_555
O1 C9 1_555 1_555
O2 C11 1_555 1_555
P1 C5 1_555 1_555
S3 P1 1_555 1_555
C3 C4 1_555 1_555
S2 C8 1_555 1_555
C7 C8 1_555 1_555
O1 P1 1_555 1_555
O2 P1 1_555 1_555

#END
