
#######################################################################
#
#                 Cambridge Crystallographic Data Centre
#                                CCDC 
#
#######################################################################
#
# If this CIF has been generated from an entry in the Cambridge 
# Structural Database, then it will include bibliographic, chemical, 
# crystal, experimental, refinement or atomic coordinate data resulting 
# from the CCDC's data processing and validation procedures.
#
#######################################################################

data_HEBYIZ
_chemical_formula_moiety         'C14 H22 F3 N1 O2'
_chemical_name_systematic        
't-butyl [4-(trifluoromethyl)cyclooct-2-en-1-yl]carbamate'
_symmetry_cell_setting           monoclinic
_symmetry_space_group_name_H-M   'P 21/c'
_symmetry_Int_Tables_number      14
_space_group_name_Hall           '-P 2ybc'
loop_
_symmetry_equiv_pos_site_id
_symmetry_equiv_pos_as_xyz
1 x,y,z
2 -x,1/2+y,1/2-z
3 -x,-y,-z
4 x,1/2-y,1/2+z
_cell_length_a                   11.88930(18)
_cell_length_b                   5.22630(8)
_cell_length_c                   24.5180(4)
_cell_angle_alpha                90
_cell_angle_beta                 96.1370(12)
_cell_angle_gamma                90
_cell_volume                     1514.75
_exptl_crystal_colour            colorless
_exptl_crystal_description       needle
_cell_formula_units_Z            4
_exptl_crystal_recrystallization_method 'used as received'
loop_
_atom_site_label
_atom_site_type_symbol
_atom_site_fract_x
_atom_site_fract_y
_atom_site_fract_z
F1 F 1.02779(10) 0.9836(3) 0.63258(6)
F2 F 0.94420(11) 0.6249(3) 0.61490(5)
F3 F 1.05110(11) 0.6786(3) 0.69044(6)
O1 O 0.33960(11) 0.7358(2) 0.56321(6)
O2 O 0.46560(12) 0.4509(2) 0.60587(6)
N1 N 0.49412(14) 0.8801(3) 0.61085(7)
C1 C 0.59718(15) 0.8690(3) 0.64839(8)
H1 H 0.6245 0.6880 0.6506
C2 C 0.68681(15) 1.0334(3) 0.62662(7)
H2 H 0.6597 1.1486 0.5983
C3 C 0.79750(16) 1.0418(3) 0.64093(8)
H3 H 0.8364 1.1667 0.6220
C4 C 0.87222(15) 0.8864(3) 0.68233(7)
H4 H 0.9020 1.0064 0.7122
C5 C 0.81741(16) 0.6614(3) 0.70992(8)
H5 H 0.8776 0.5405 0.7242
H6 H 0.7665 0.5699 0.6818
C6 C 0.74929(17) 0.7392(4) 0.75725(8)
H7 H 0.7005 0.5932 0.7651
H8 H 0.8033 0.7672 0.7903
C7 C 0.67476(17) 0.9763(4) 0.74867(8)
H9 H 0.7223 1.1199 0.7382
H10 H 0.6475 1.0214 0.7842
C8 C 0.57235(17) 0.9550(4) 0.70576(8)
H11 H 0.5345 1.1239 0.7024
H12 H 0.5183 0.8325 0.7193
C9 C 0.97284(17) 0.7937(4) 0.65487(9)
C10 C 0.43540(15) 0.6687(3) 0.59429(8)
C11 C 0.26193(16) 0.5399(4) 0.53768(8)
C12 C 0.32113(19) 0.3850(4) 0.49686(9)
H13 H 0.3574 0.5012 0.4727
H14 H 0.2656 0.2785 0.4749
H15 H 0.3786 0.2754 0.5167
C13 C 0.16785(17) 0.7019(4) 0.50862(9)
H16 H 0.1298 0.7968 0.5358
H17 H 0.1131 0.5908 0.4874
H18 H 0.1999 0.8227 0.4839
C14 C 0.21575(18) 0.3768(4) 0.58141(9)
H19 H 0.2753 0.2621 0.5978
H20 H 0.1518 0.2752 0.5648
H21 H 0.1904 0.4877 0.6099
H22 H 0.4658(18) 1.020(4) 0.6037(9)
loop_
_geom_bond_atom_site_label_1
_geom_bond_atom_site_label_2
_geom_bond_site_symmetry_1
_geom_bond_site_symmetry_2
F1 C9 1_555 1_555
F2 C9 1_555 1_555
F3 C9 1_555 1_555
O1 C10 1_555 1_555
O2 C10 1_555 1_555
N1 C1 1_555 1_555
C1 H1 1_555 1_555
C2 C1 1_555 1_555
H2 C2 1_555 1_555
C3 C2 1_555 1_555
H3 C3 1_555 1_555
C4 C3 1_555 1_555
H4 C4 1_555 1_555
C5 C4 1_555 1_555
H5 C5 1_555 1_555
H6 C5 1_555 1_555
C6 C5 1_555 1_555
H7 C6 1_555 1_555
H8 C6 1_555 1_555
C7 C6 1_555 1_555
H9 C7 1_555 1_555
H10 C7 1_555 1_555
C8 C1 1_555 1_555
H11 C8 1_555 1_555
H12 C8 1_555 1_555
C9 C4 1_555 1_555
C10 N1 1_555 1_555
C11 O1 1_555 1_555
C12 C11 1_555 1_555
H13 C12 1_555 1_555
H14 C12 1_555 1_555
H15 C12 1_555 1_555
C13 C11 1_555 1_555
H16 C13 1_555 1_555
H17 C13 1_555 1_555
H18 C13 1_555 1_555
C14 C11 1_555 1_555
H19 C14 1_555 1_555
H20 C14 1_555 1_555
H21 C14 1_555 1_555
H22 N1 1_555 1_555
C7 C8 1_555 1_555

#END
