
#######################################################################
#
#                 Cambridge Crystallographic Data Centre
#                                CCDC 
#
#######################################################################
#
# If this CIF has been generated from an entry in the Cambridge 
# Structural Database, then it will include bibliographic, chemical, 
# crystal, experimental, refinement or atomic coordinate data resulting 
# from the CCDC's data processing and validation procedures.
#
#######################################################################

data_HECBIC
_chemical_formula_moiety         'C30 H24 N2 O2 S3'
_chemical_name_systematic        
4,5-bis(5-(4-methoxyphenyl)-2-methyl-3-thienyl)-2,1,3-benzothiadiazole
_symmetry_cell_setting           monoclinic
_symmetry_space_group_name_H-M   'P 21/n'
_symmetry_Int_Tables_number      14
_space_group_name_Hall           '-P 2yn'
loop_
_symmetry_equiv_pos_site_id
_symmetry_equiv_pos_as_xyz
1 x,y,z
2 1/2-x,1/2+y,1/2-z
3 -x,-y,-z
4 1/2+x,1/2-y,1/2+z
_cell_length_a                   7.5004(9)
_cell_length_b                   28.647(3)
_cell_length_c                   12.1653(14)
_cell_angle_alpha                90
_cell_angle_beta                 92.673(2)
_cell_angle_gamma                90
_cell_volume                     2611.04
_exptl_crystal_colour            yellow
_exptl_crystal_description       prism
_cell_formula_units_Z            4
loop_
_atom_site_label
_atom_site_type_symbol
_atom_site_fract_x
_atom_site_fract_y
_atom_site_fract_z
S1 S 1.15933(9) 0.25648(2) 0.03317(5)
S2 S 1.22049(11) -0.04475(3) 0.10479(7)
S3 S 1.01583(9) 0.14411(2) 0.39467(5)
N1 N 1.2740(3) -0.02526(9) -0.0140(2)
N2 N 1.1645(3) 0.00312(8) 0.1657(2)
O1 O 0.3037(3) 0.05021(7) 0.62215(17)
O2 O 0.4306(3) 0.34566(6) 0.25253(16)
C1 C 0.9710(3) 0.23196(9) 0.08807(19)
C2 C 0.9800(3) 0.18437(9) 0.08154(19)
H1 H 0.8889 0.1645 0.1065
C3 C 1.1376(3) 0.16701(9) 0.03406(19)
C4 C 1.2478(4) 0.20261(10) 0.0033(2)
C5 C 1.4273(4) 0.20057(11) -0.0452(2)
H2 H 1.4883 0.1718 -0.0214
H3 H 1.4983 0.2276 -0.0202
H4 H 1.4128 0.2010 -0.1256
C6 C 1.1787(3) 0.11645(9) 0.0250(2)
C7 C 1.2436(4) 0.09941(10) -0.0773(2)
H5 H 1.2640 0.1213 -0.1340
C8 C 1.2769(4) 0.05371(11) -0.0967(2)
H6 H 1.3179 0.0436 -0.1655
C9 C 1.2485(3) 0.02141(9) -0.0106(2)
C10 C 1.1846(3) 0.03757(9) 0.0917(2)
C11 C 1.1491(3) 0.08606(9) 0.1105(2)
C12 C 1.0761(3) 0.10051(8) 0.2168(2)
C13 C 0.9141(3) 0.08175(8) 0.2563(2)
H7 H 0.8485 0.0575 0.2196
C14 C 0.8626(3) 0.10184(8) 0.3511(2)
C15 C 1.1493(4) 0.13419(9) 0.2853(2)
C16 C 1.3150(4) 0.16223(10) 0.2747(2)
H8 H 1.3932 0.1465 0.2241
H9 H 1.3770 0.1653 0.3471
H10 H 1.2838 0.1933 0.2461
C17 C 0.7112(3) 0.09009(8) 0.4186(2)
C18 C 0.5600(4) 0.06707(9) 0.3731(2)
H11 H 0.5527 0.0606 0.2965
C19 C 0.4209(4) 0.05350(9) 0.4372(2)
H12 H 0.3194 0.0382 0.4044
C20 C 0.4307(3) 0.06243(8) 0.5497(2)
C21 C 0.5787(4) 0.08551(9) 0.5963(2)
H13 H 0.5857 0.0918 0.6730
C22 C 0.7158(4) 0.09931(9) 0.5315(2)
H14 H 0.8154 0.1154 0.5645
C23 C 0.1439(4) 0.02925(10) 0.5767(3)
H15 H 0.0882 0.0501 0.5212
H16 H 0.0611 0.0239 0.6354
H17 H 0.1728 -0.0006 0.5423
C24 C 0.8324(3) 0.26121(9) 0.13375(19)
C25 C 0.7027(3) 0.24172(9) 0.1991(2)
H18 H 0.7079 0.2093 0.2159
C26 C 0.5672(3) 0.26851(9) 0.2398(2)
H19 H 0.4792 0.2544 0.2825
C27 C 0.5601(3) 0.31619(9) 0.2179(2)
C28 C 0.6926(4) 0.33649(9) 0.1578(2)
H20 H 0.6919 0.3692 0.1456
C29 C 0.8247(4) 0.30948(9) 0.1158(2)
H21 H 0.9129 0.3239 0.0736
C30 C 0.2847(4) 0.32522(10) 0.3066(2)
H22 H 0.2256 0.3021 0.2580
H23 H 0.1992 0.3496 0.3245
H24 H 0.3293 0.3099 0.3745
loop_
_geom_bond_atom_site_label_1
_geom_bond_atom_site_label_2
_geom_bond_site_symmetry_1
_geom_bond_site_symmetry_2
S1 C1 1_555 1_555
S2 N1 1_555 1_555
S3 C14 1_555 1_555
N1 C9 1_555 1_555
N2 S2 1_555 1_555
O1 C20 1_555 1_555
O2 C27 1_555 1_555
C1 C2 1_555 1_555
C2 H1 1_555 1_555
C3 C2 1_555 1_555
C4 S1 1_555 1_555
C5 C4 1_555 1_555
H2 C5 1_555 1_555
H3 C5 1_555 1_555
H4 C5 1_555 1_555
C6 C3 1_555 1_555
C7 C6 1_555 1_555
H5 C7 1_555 1_555
C8 C7 1_555 1_555
H6 C8 1_555 1_555
C9 C8 1_555 1_555
C10 N2 1_555 1_555
C11 C6 1_555 1_555
C12 C11 1_555 1_555
C13 C12 1_555 1_555
H7 C13 1_555 1_555
C14 C13 1_555 1_555
C15 S3 1_555 1_555
C16 C15 1_555 1_555
H8 C16 1_555 1_555
H9 C16 1_555 1_555
H10 C16 1_555 1_555
C17 C14 1_555 1_555
C18 C17 1_555 1_555
H11 C18 1_555 1_555
C19 C18 1_555 1_555
H12 C19 1_555 1_555
C20 C19 1_555 1_555
C21 C20 1_555 1_555
H13 C21 1_555 1_555
C22 C17 1_555 1_555
H14 C22 1_555 1_555
C23 O1 1_555 1_555
H15 C23 1_555 1_555
H16 C23 1_555 1_555
H17 C23 1_555 1_555
C24 C1 1_555 1_555
C25 C24 1_555 1_555
H18 C25 1_555 1_555
C26 C25 1_555 1_555
H19 C26 1_555 1_555
C27 C26 1_555 1_555
C28 C27 1_555 1_555
H20 C28 1_555 1_555
C29 C24 1_555 1_555
H21 C29 1_555 1_555
C30 O2 1_555 1_555
H22 C30 1_555 1_555
H23 C30 1_555 1_555
H24 C30 1_555 1_555
C3 C4 1_555 1_555
C9 C10 1_555 1_555
C10 C11 1_555 1_555
C12 C15 1_555 1_555
C21 C22 1_555 1_555
C28 C29 1_555 1_555

#END
