
#######################################################################
#
#                 Cambridge Crystallographic Data Centre
#                                CCDC 
#
#######################################################################
#
# If this CIF has been generated from an entry in the Cambridge 
# Structural Database, then it will include bibliographic, chemical, 
# crystal, experimental, refinement or atomic coordinate data resulting 
# from the CCDC's data processing and validation procedures.
#
#######################################################################

data_HECBEY
_chemical_formula_moiety         'C40 H35 N1 O4 S2'
_chemical_name_systematic        
2-Butyl-5,6-bis(5-(4-methoxyphenyl)-2-methyl-3-thienyl)-1H-benzo[de]isoquinoline-1,3(2H)-dione
_symmetry_cell_setting           triclinic
_symmetry_space_group_name_H-M   'P -1'
_symmetry_Int_Tables_number      2
_space_group_name_Hall           '-P 1'
loop_
_symmetry_equiv_pos_site_id
_symmetry_equiv_pos_as_xyz
1 x,y,z
2 -x,-y,-z
_cell_length_a                   11.4898(12)
_cell_length_b                   11.9884(13)
_cell_length_c                   14.1549(15)
_cell_angle_alpha                106.272(2)
_cell_angle_beta                 111.923(2)
_cell_angle_gamma                101.837(2)
_cell_volume                     1627.9
_exptl_crystal_colour            yellow
_exptl_crystal_description       plate
_cell_formula_units_Z            2
loop_
_atom_site_label
_atom_site_type_symbol
_atom_site_fract_x
_atom_site_fract_y
_atom_site_fract_z
S1 S -0.27531(4) 0.34428(4) 0.13220(4)
S2 S 0.01589(4) 0.14713(4) -0.02679(4)
N1 N 0.50864(15) 0.80706(14) 0.63209(12)
O1 O 0.29732(14) 0.79767(13) 0.60116(11)
O2 O 0.71892(13) 0.81679(14) 0.66102(12)
O3 O -0.52384(14) 0.12164(13) -0.42249(11)
O4 O 0.10874(16) 0.24707(15) -0.44667(12)
C1 C 0.40378(17) 0.60494(16) 0.42621(14)
C2 C 0.35056(17) 0.50498(15) 0.32184(14)
C3 C 0.20948(17) 0.45389(15) 0.25245(14)
C4 C 0.12453(17) 0.50267(16) 0.28654(14)
C5 C 0.17955(17) 0.60038(16) 0.39121(14)
H1 H 0.1214 0.6319 0.4150
C6 C 0.31607(17) 0.65145(16) 0.46011(14)
C7 C 0.36993(18) 0.75602(16) 0.56797(15)
C8 C 0.59935(18) 0.76463(17) 0.60162(15)
C9 C 0.54326(18) 0.65719(16) 0.49511(15)
C10 C 0.62855(18) 0.61014(17) 0.46351(16)
H2 H 0.7223 0.6457 0.5105
C11 C 0.57710(19) 0.50946(18) 0.36173(16)
H3 H 0.6363 0.4764 0.3408
C12 C 0.44138(18) 0.45847(16) 0.29218(15)
H4 H 0.4082 0.3911 0.2233
C13 C 0.56448(19) 0.91352(16) 0.73871(15)
H5 H 0.5002 0.9578 0.7355
H6 H 0.6482 0.9717 0.7504
C14 C 0.5939(2) 0.87483(17) 0.83609(16)
H7 H 0.6620 0.8346 0.8420
H8 H 0.5114 0.8134 0.8229
C15 C 0.6446(2) 0.98526(18) 0.94460(16)
H9 H 0.7293 1.0448 0.9592
H10 H 0.5783 1.0278 0.9371
C16 C 0.6687(2) 0.9476(2) 1.04258(17)
H11 H 0.5852 0.8885 1.0286
H12 H 0.6991 1.0212 1.1098
H13 H 0.7371 0.9087 1.0524
C17 C -0.1013(2) 0.4241(2) 0.35696(16)
H14 H -0.0128 0.4223 0.4002
H15 H -0.1707 0.3538 0.3488
H16 H -0.1096 0.5017 0.3952
C18 C -0.11792(18) 0.41584(17) 0.24468(15)
C19 C -0.02254(17) 0.45281(16) 0.21314(14)
C20 C -0.07962(18) 0.42623(16) 0.09727(14)
H17 H -0.0278 0.4490 0.0624
C21 C -0.21471(18) 0.36543(16) 0.04076(14)
C22 C -0.29984(18) 0.31056(16) -0.07981(15)
C23 C -0.24143(18) 0.28823(17) -0.15117(15)
H18 H -0.1467 0.3150 -0.1209
C24 C -0.31875(19) 0.22822(16) -0.26437(15)
H19 H -0.2769 0.2156 -0.3111
C25 C -0.45745(19) 0.18610(16) -0.31030(15)
C26 C -0.51871(19) 0.20937(18) -0.24225(16)
H20 H -0.6135 0.1831 -0.2732
C27 C -0.43918(19) 0.27170(18) -0.12801(16)
H21 H -0.4811 0.2881 -0.0817
C28 C -0.6648(2) 0.0609(2) -0.47074(18)
H22 H -0.6840 0.0080 -0.4329
H23 H -0.6992 0.0099 -0.5494
H24 H -0.7081 0.1230 -0.4631
C29 C 0.01137(19) 0.18560(16) 0.17630(15)
H25 H 0.0656 0.2385 0.2553
H26 H 0.0124 0.1012 0.1638
H27 H -0.0809 0.1841 0.1526
C30 C 0.06781(18) 0.23575(16) 0.11101(15)
C31 C 0.15561(17) 0.35078(16) 0.14250(14)
C32 C 0.18218(18) 0.36689(16) 0.05533(15)
H28 H 0.2429 0.4408 0.0646
C33 C 0.11165(18) 0.26550(16) -0.04279(15)
C34 C 0.10897(18) 0.25286(16) -0.15008(15)
C35 C 0.21733(19) 0.32816(18) -0.15340(16)
H29 H 0.2942 0.3830 -0.0861
C36 C 0.2140(2) 0.32378(19) -0.25317(17)
H30 H 0.2880 0.3757 -0.2539
C37 C 0.1022(2) 0.24329(18) -0.35262(16)
C38 C -0.0049(2) 0.16716(19) -0.35137(16)
H31 H -0.0809 0.1116 -0.4190
C39 C -0.00078(19) 0.17217(18) -0.25056(16)
H32 H -0.0746 0.1193 -0.2504
C40 C 0.0013(2) 0.1600(2) -0.55096(17)
H33 H -0.0098 0.0758 -0.5536
H34 H 0.0214 0.1681 -0.6107
H35 H -0.0815 0.1765 -0.5602
loop_
_geom_bond_atom_site_label_1
_geom_bond_atom_site_label_2
_geom_bond_site_symmetry_1
_geom_bond_site_symmetry_2
S1 C18 1_555 1_555
S2 C30 1_555 1_555
N1 C7 1_555 1_555
O1 C7 1_555 1_555
O2 C8 1_555 1_555
O3 C25 1_555 1_555
O4 C37 1_555 1_555
C1 C2 1_555 1_555
C2 C3 1_555 1_555
C3 C4 1_555 1_555
C4 C5 1_555 1_555
C5 H1 1_555 1_555
C6 C1 1_555 1_555
C7 C6 1_555 1_555
C8 N1 1_555 1_555
C9 C1 1_555 1_555
C10 C9 1_555 1_555
H2 C10 1_555 1_555
C11 C10 1_555 1_555
H3 C11 1_555 1_555
C12 C2 1_555 1_555
H4 C12 1_555 1_555
C13 N1 1_555 1_555
H5 C13 1_555 1_555
H6 C13 1_555 1_555
C14 C13 1_555 1_555
H7 C14 1_555 1_555
H8 C14 1_555 1_555
C15 C14 1_555 1_555
H9 C15 1_555 1_555
H10 C15 1_555 1_555
C16 C15 1_555 1_555
H11 C16 1_555 1_555
H12 C16 1_555 1_555
H13 C16 1_555 1_555
C17 H14 1_555 1_555
H15 C17 1_555 1_555
H16 C17 1_555 1_555
C18 C17 1_555 1_555
C19 C4 1_555 1_555
C20 C19 1_555 1_555
H17 C20 1_555 1_555
C21 S1 1_555 1_555
C22 C21 1_555 1_555
C23 C22 1_555 1_555
H18 C23 1_555 1_555
C24 C23 1_555 1_555
H19 C24 1_555 1_555
C25 C24 1_555 1_555
C26 C25 1_555 1_555
H20 C26 1_555 1_555
C27 C22 1_555 1_555
H21 C27 1_555 1_555
C28 O3 1_555 1_555
H22 C28 1_555 1_555
H23 C28 1_555 1_555
H24 C28 1_555 1_555
C29 H25 1_555 1_555
H26 C29 1_555 1_555
H27 C29 1_555 1_555
C30 C29 1_555 1_555
C31 C3 1_555 1_555
C32 C31 1_555 1_555
H28 C32 1_555 1_555
C33 S2 1_555 1_555
C34 C33 1_555 1_555
C35 C34 1_555 1_555
H29 C35 1_555 1_555
C36 C35 1_555 1_555
H30 C36 1_555 1_555
C37 C36 1_555 1_555
C38 C37 1_555 1_555
H31 C38 1_555 1_555
C39 C34 1_555 1_555
H32 C39 1_555 1_555
C40 O4 1_555 1_555
H33 C40 1_555 1_555
H34 C40 1_555 1_555
H35 C40 1_555 1_555
C5 C6 1_555 1_555
C8 C9 1_555 1_555
C11 C12 1_555 1_555
C18 C19 1_555 1_555
C20 C21 1_555 1_555
C26 C27 1_555 1_555
C30 C31 1_555 1_555
C32 C33 1_555 1_555
C38 C39 1_555 1_555

#END
