
#######################################################################
#
#                 Cambridge Crystallographic Data Centre
#                                CCDC 
#
#######################################################################
#
# If this CIF has been generated from an entry in the Cambridge 
# Structural Database, then it will include bibliographic, chemical, 
# crystal, experimental, refinement or atomic coordinate data resulting 
# from the CCDC's data processing and validation procedures.
#
#######################################################################

data_HECBOI
_chemical_formula_moiety         'C30 H22 N4 O2 S4'
_chemical_name_systematic        
4,5-bis(5-(4-methoxyphenyl)-2-methyl-3-thienyl)[1,2,5]thiadiazolo[3,4-e][2,1,3]benzothiadiazole
_symmetry_cell_setting           triclinic
_symmetry_space_group_name_H-M   'P -1'
_symmetry_Int_Tables_number      2
_space_group_name_Hall           '-P 1'
loop_
_symmetry_equiv_pos_site_id
_symmetry_equiv_pos_as_xyz
1 x,y,z
2 -x,-y,-z
_cell_length_a                   12.301(4)
_cell_length_b                   12.559(4)
_cell_length_c                   19.099(6)
_cell_angle_alpha                91.007(6)
_cell_angle_beta                 103.522(6)
_cell_angle_gamma                102.920(7)
_cell_volume                     2788.55
_cell_formula_units_Z            4
loop_
_atom_site_label
_atom_site_type_symbol
_atom_site_fract_x
_atom_site_fract_y
_atom_site_fract_z
C1 C 0.8465(3) 1.0818(3) 0.39470(18)
C2 C 0.9165(3) 1.0026(3) 0.40455(19)
C3 C 0.8628(3) 0.8925(3) 0.41604(17)
C4 C 0.7426(3) 0.8572(3) 0.41669(17)
C5 C 0.6756(3) 0.9336(3) 0.40612(17)
C6 C 0.7279(3) 1.0453(3) 0.39528(17)
C7 C 0.5501(3) 0.9031(3) 0.40246(17)
C8 C 0.4651(3) 0.8993(3) 0.33751(18)
H1 H 0.4824 0.9255 0.2952
C9 C 0.3550(3) 0.8537(3) 0.34221(18)
C10 C 0.5060(3) 0.8667(3) 0.45927(18)
C11 C 0.5679(3) 0.8585(3) 0.53623(18)
H2 H 0.5228 0.8744 0.5681
H3 H 0.6411 0.9102 0.5475
H4 H 0.5793 0.7858 0.5422
C12 C 0.2492(3) 0.8235(3) 0.28430(19)
C13 C 0.2301(3) 0.8847(3) 0.2231(2)
H5 H 0.2825 0.9501 0.2213
C14 C 0.1358(3) 0.8496(3) 0.1660(2)
H6 H 0.1256 0.8912 0.1262
C15 C 0.0550(3) 0.7519(3) 0.1672(2)
C16 C 0.0701(3) 0.6927(3) 0.22764(18)
H7 H 0.0162 0.6287 0.2299
C17 C 0.1648(3) 0.7284(3) 0.28437(19)
H8 H 0.1730 0.6875 0.3246
C18 C -0.1125(3) 0.6178(3) 0.1032(2)
H9 H -0.1717 0.6084 0.0592
H10 H -0.1466 0.6149 0.1437
H11 H -0.0722 0.5605 0.1042
C19 C 0.8275(3) 0.7093(3) 0.5438(2)
H12 H 0.8089 0.6667 0.5825
H13 H 0.8397 0.7857 0.5576
H14 H 0.8963 0.6955 0.5337
C20 C 0.7303(3) 0.6778(3) 0.47756(19)
C21 C 0.6898(3) 0.7387(3) 0.42234(19)
C22 C 0.5900(3) 0.6785(3) 0.37157(19)
H15 H 0.5525 0.7086 0.3315
C23 C 0.5544(3) 0.5734(3) 0.38678(19)
C24 C 0.4505(3) 0.4903(3) 0.34746(19)
C25 C 0.3513(4) 0.5207(3) 0.3123(2)
H16 H 0.3509 0.5946 0.3124
C26 C 0.2535(4) 0.4451(3) 0.2771(2)
H17 H 0.1889 0.4687 0.2534
C27 C 0.2503(4) 0.3342(3) 0.2767(2)
C28 C 0.3490(4) 0.3015(3) 0.3108(2)
H18 H 0.3491 0.2275 0.3105
C29 C 0.4469(4) 0.3787(3) 0.3454(2)
H19 H 0.5123 0.3554 0.3679
C30 C 0.1374(5) 0.1503(4) 0.2486(3)
H20 H 0.1911 0.1275 0.2259
H21 H 0.0607 0.1111 0.2250
H22 H 0.1539 0.1352 0.2985
N1 N 0.8794(3) 1.1874(3) 0.38312(18)
N2 N 0.6717(3) 1.1256(2) 0.38438(16)
N3 N 1.0268(3) 1.0188(3) 0.40312(17)
N4 N 0.9358(3) 0.8262(3) 0.42152(16)
O1 O -0.0336(2) 0.7219(2) 0.10676(13)
O2 O 0.1470(3) 0.2651(2) 0.24308(15)
S1 S 0.76409(10) 1.23459(9) 0.37345(6)
S2 S 1.05812(9) 0.90004(10) 0.41378(6)
S3 S 0.35761(8) 0.82338(9) 0.43112(5)
S4 S 0.64301(9) 0.54710(8) 0.46615(5)
C31 C 0.1674(3) 0.4662(3) 0.0941(2)
C32 C 0.0881(3) 0.3610(3) 0.0810(2)
C33 C 0.1328(3) 0.2666(3) 0.07608(18)
C34 C 0.2542(3) 0.2720(3) 0.08297(18)
C35 C 0.3297(3) 0.3727(3) 0.09704(18)
C36 C 0.2868(3) 0.4702(3) 0.10365(19)
C37 C 0.4563(3) 0.3882(3) 0.10564(19)
C38 C 0.5387(3) 0.4231(3) 0.1718(2)
H23 H 0.5197 0.4460 0.2130
C39 C 0.6485(3) 0.4202(3) 0.1702(2)
C40 C 0.5039(3) 0.3623(3) 0.0509(2)
C41 C 0.4439(4) 0.3231(4) -0.0259(2)
H24 H 0.4925 0.3527 -0.0569
H25 H 0.3734 0.3469 -0.0390
H26 H 0.4273 0.2445 -0.0309
C42 C 0.7536(3) 0.4444(3) 0.2293(2)
C43 C 0.7660(3) 0.5178(3) 0.2880(2)
H27 H 0.7065 0.5519 0.2892
C44 C 0.8634(4) 0.5418(3) 0.3446(2)
H28 H 0.8689 0.5915 0.3827
C45 C 0.9528(3) 0.4915(3) 0.3444(2)
C46 C 0.9419(3) 0.4162(3) 0.2879(2)
H29 H 1.0002 0.3801 0.2882
C47 C 0.8452(3) 0.3945(3) 0.2313(2)
H30 H 0.8407 0.3451 0.1933
C48 C 1.0785(4) 0.5978(4) 0.4505(2)
H31 H 1.0818 0.6655 0.4275
H32 H 1.1511 0.6003 0.4835
H33 H 1.0191 0.5872 0.4763
C49 C 0.2949(3) 0.1704(3) 0.07721(19)
C50 C 0.3928(3) 0.1499(3) 0.12913(19)
H34 H 0.4300 0.1952 0.1708
C51 C 0.4257(3) 0.0586(3) 0.1117(2)
C52 C 0.2527(3) 0.0907(3) 0.0208(2)
C53 C 0.1587(4) 0.0830(4) -0.0464(2)
H35 H 0.1777 0.0481 -0.0855
H36 H 0.1504 0.1553 -0.0582
H37 H 0.0877 0.0409 -0.0386
C54 C 0.5241(3) 0.0173(3) 0.14819(19)
C55 C 0.6313(4) 0.0896(4) 0.1800(2)
H38 H 0.6378 0.1648 0.1800
C56 C 0.7255(4) 0.0509(4) 0.2106(2)
H39 H 0.7951 0.1001 0.2310
C57 C 0.7191(4) -0.0590(4) 0.2118(2)
C58 C 0.6151(4) -0.1337(4) 0.1817(2)
H40 H 0.6093 -0.2086 0.1833
C59 C 0.5208(4) -0.0936(3) 0.1495(2)
H41 H 0.4523 -0.1433 0.1277
C60 C 0.8194(5) -0.1999(5) 0.2390(3)
H42 H 0.8008 -0.2273 0.1894
H43 H 0.7627 -0.2388 0.2622
H44 H 0.8938 -0.2101 0.2630
N5 N 0.3535(3) 0.5717(3) 0.11845(19)
N6 N 0.1435(3) 0.5637(3) 0.1012(2)
N7 N -0.0255(3) 0.3405(3) 0.0743(2)
N8 N 0.0505(3) 0.1734(3) 0.06680(18)
O3 O 1.0539(3) 0.5100(2) 0.39740(16)
O4 O 0.8208(3) -0.0881(3) 0.24256(16)
S5 S 0.26636(12) 0.65209(10) 0.11958(8)
S6 S -0.07006(10) 0.20847(11) 0.06348(8)
S7 S 0.65017(9) 0.37908(9) 0.08300(6)
S8 S 0.33521(10) -0.00529(9) 0.03069(6)
loop_
_geom_bond_atom_site_label_1
_geom_bond_atom_site_label_2
_geom_bond_site_symmetry_1
_geom_bond_site_symmetry_2
C1 C2 1_555 1_555
C2 C3 1_555 1_555
C3 C4 1_555 1_555
C4 C5 1_555 1_555
C5 C6 1_555 1_555
C6 C1 1_555 1_555
C7 C5 1_555 1_555
C8 C7 1_555 1_555
H1 C8 1_555 1_555
C9 C8 1_555 1_555
C10 C7 1_555 1_555
C11 C10 1_555 1_555
H2 C11 1_555 1_555
H3 C11 1_555 1_555
H4 C11 1_555 1_555
C12 C9 1_555 1_555
C13 C12 1_555 1_555
H5 C13 1_555 1_555
C14 C13 1_555 1_555
H6 C14 1_555 1_555
C15 C14 1_555 1_555
C16 C15 1_555 1_555
H7 C16 1_555 1_555
C17 C12 1_555 1_555
H8 C17 1_555 1_555
C18 H9 1_555 1_555
H10 C18 1_555 1_555
H11 C18 1_555 1_555
C19 H12 1_555 1_555
H13 C19 1_555 1_555
H14 C19 1_555 1_555
C20 C19 1_555 1_555
C21 C4 1_555 1_555
C22 C21 1_555 1_555
H15 C22 1_555 1_555
C23 C22 1_555 1_555
C24 C23 1_555 1_555
C25 C24 1_555 1_555
H16 C25 1_555 1_555
C26 C25 1_555 1_555
H17 C26 1_555 1_555
C27 C26 1_555 1_555
C28 C27 1_555 1_555
H18 C28 1_555 1_555
C29 C24 1_555 1_555
H19 C29 1_555 1_555
C30 H20 1_555 1_555
H21 C30 1_555 1_555
H22 C30 1_555 1_555
C31 C32 1_555 1_555
C32 C33 1_555 1_555
C33 C34 1_555 1_555
C34 C35 1_555 1_555
C35 C36 1_555 1_555
C36 C31 1_555 1_555
C37 C35 1_555 1_555
C38 C37 1_555 1_555
H23 C38 1_555 1_555
C39 C38 1_555 1_555
C40 C37 1_555 1_555
C41 C40 1_555 1_555
H24 C41 1_555 1_555
H25 C41 1_555 1_555
H26 C41 1_555 1_555
C42 C39 1_555 1_555
C43 C42 1_555 1_555
H27 C43 1_555 1_555
C44 C43 1_555 1_555
H28 C44 1_555 1_555
C45 C44 1_555 1_555
C46 C45 1_555 1_555
H29 C46 1_555 1_555
C47 C42 1_555 1_555
H30 C47 1_555 1_555
C48 H31 1_555 1_555
H32 C48 1_555 1_555
H33 C48 1_555 1_555
C49 C34 1_555 1_555
C50 C49 1_555 1_555
H34 C50 1_555 1_555
C51 C50 1_555 1_555
C52 C49 1_555 1_555
C53 C52 1_555 1_555
H35 C53 1_555 1_555
H36 C53 1_555 1_555
H37 C53 1_555 1_555
C54 C51 1_555 1_555
C55 C54 1_555 1_555
H38 C55 1_555 1_555
C56 C55 1_555 1_555
H39 C56 1_555 1_555
C57 C56 1_555 1_555
C58 C57 1_555 1_555
H40 C58 1_555 1_555
C59 C54 1_555 1_555
H41 C59 1_555 1_555
C60 H42 1_555 1_555
H43 C60 1_555 1_555
H44 C60 1_555 1_555
N1 C1 1_555 1_555
N2 C6 1_555 1_555
N3 C2 1_555 1_555
N4 C3 1_555 1_555
N5 C36 1_555 1_555
N6 C31 1_555 1_555
N7 C32 1_555 1_555
N8 C33 1_555 1_555
O1 C15 1_555 1_555
O2 C27 1_555 1_555
O3 C45 1_555 1_555
O4 C57 1_555 1_555
S1 N1 1_555 1_555
S2 N3 1_555 1_555
S3 C9 1_555 1_555
S4 C20 1_555 1_555
S5 N5 1_555 1_555
S6 N7 1_555 1_555
S7 C39 1_555 1_555
S8 C51 1_555 1_555
C10 S3 1_555 1_555
C16 C17 1_555 1_555
C18 O1 1_555 1_555
C20 C21 1_555 1_555
C23 S4 1_555 1_555
C28 C29 1_555 1_555
C30 O2 1_555 1_555
C40 S7 1_555 1_555
C46 C47 1_555 1_555
C48 O3 1_555 1_555
C52 S8 1_555 1_555
C58 C59 1_555 1_555
C60 O4 1_555 1_555
N2 S1 1_555 1_555
N4 S2 1_555 1_555
N6 S5 1_555 1_555
N8 S6 1_555 1_555

#END
