
#######################################################################
#
#                 Cambridge Crystallographic Data Centre
#                                CCDC 
#
#######################################################################
#
# If this CIF has been generated from an entry in the Cambridge 
# Structural Database, then it will include bibliographic, chemical, 
# crystal, experimental, refinement or atomic coordinate data resulting 
# from the CCDC's data processing and validation procedures.
#
#######################################################################

data_HECDEY01
_chemical_name_common            'Deoxynojirimycin hydrochloride'
_chemical_formula_moiety         'C6 H14 N1 O4 1+,Cl1 1-'
_chemical_name_systematic        
'3,4,5-Trihydroxy-2-(hydroxymethyl)piperidinium chloride'
_chemical_properties_biological  'potential biological activity'
_symmetry_cell_setting           orthorhombic
_symmetry_space_group_name_H-M   'P 21 21 21'
_symmetry_Int_Tables_number      19
_space_group_name_Hall           'P 2ac 2ab'
loop_
_symmetry_equiv_pos_site_id
_symmetry_equiv_pos_as_xyz
1 x,y,z
2 1/2-x,-y,1/2+z
3 -x,1/2+y,1/2-z
4 1/2+x,1/2-y,-z
_cell_length_a                   7.3335(15)
_cell_length_b                   8.5643(17)
_cell_length_c                   14.324(3)
_cell_angle_alpha                90
_cell_angle_beta                 90
_cell_angle_gamma                90
_cell_volume                     899.637
_cell_formula_units_Z            4
loop_
_atom_site_label
_atom_site_type_symbol
_atom_site_fract_x
_atom_site_fract_y
_atom_site_fract_z
Cl1 Cl 0.13629(7) 0.88041(6) 0.91358(4)
O1 O 1.1344(2) 0.91775(17) 0.17487(10)
H1 H 1.1850 0.8415 0.1978
O2 O 0.3603(2) 1.18450(16) 0.16027(11)
H2 H 0.3003 1.1042 0.1654
O3 O 0.6791(2) 1.15775(17) 0.27311(9)
H3 H 0.5916 1.1459 0.3080
O4 O 0.41968(19) 1.13368(17) -0.03687(10)
H4 H 0.3318 1.0810 -0.0530
N1 N 0.8264(2) 0.94355(19) 0.06433(11)
C1 C 0.5334(2) 1.1487(2) 0.12087(12)
H5 H 0.5927 1.2475 0.1046
C2 C 0.8449(3) 1.0331(2) 0.15332(11)
H6 H 0.9047 1.1329 0.1399
C3 C 0.6545(3) 1.0655(2) 0.19152(12)
H7 H 0.5973 0.9663 0.2090
C4 C 0.5201(3) 1.0519(2) 0.03283(13)
H8 H 0.4592 0.9528 0.0468
C5 C 0.9632(3) 0.9411(3) 0.21900(13)
H9 H 0.9793 0.9978 0.2770
H10 H 0.9068 0.8413 0.2329
C6 C 0.7076(3) 1.0199(2) -0.00703(13)
H11 H 0.6968 0.9525 -0.0612
H12 H 0.7629 1.1172 -0.0270
H13 H 0.776(2) 0.8458(15) 0.0782(14)
H14 H 0.9403(16) 0.927(2) 0.0408(15)
loop_
_geom_bond_atom_site_label_1
_geom_bond_atom_site_label_2
_geom_bond_site_symmetry_1
_geom_bond_site_symmetry_2
O1 H1 1_555 1_555
O2 H2 1_555 1_555
O3 H3 1_555 1_555
O4 H4 1_555 1_555
N1 C2 1_555 1_555
C1 O2 1_555 1_555
H5 C1 1_555 1_555
C2 H6 1_555 1_555
C3 O3 1_555 1_555
H7 C3 1_555 1_555
C4 O4 1_555 1_555
H8 C4 1_555 1_555
C5 O1 1_555 1_555
H9 C5 1_555 1_555
H10 C5 1_555 1_555
C6 N1 1_555 1_555
H11 C6 1_555 1_555
H12 C6 1_555 1_555
H13 N1 1_555 1_555
H14 N1 1_555 1_555
C1 C3 1_555 1_555
C1 C4 1_555 1_555
C2 C3 1_555 1_555
C2 C5 1_555 1_555
C4 C6 1_555 1_555

#END
