
#######################################################################
#
#                 Cambridge Crystallographic Data Centre
#                                CCDC 
#
#######################################################################
#
# If this CIF has been generated from an entry in the Cambridge 
# Structural Database, then it will include bibliographic, chemical, 
# crystal, experimental, refinement or atomic coordinate data resulting 
# from the CCDC's data processing and validation procedures.
#
#######################################################################

data_HECHAY02
_chemical_name_common            Negletein
_chemical_formula_moiety         'C16 H12 O5'
_chemical_name_systematic        
5,6-Dihydroxy-7-methoxy-2-phenyl-4H-chromen-4-one
_symmetry_cell_setting           monoclinic
_symmetry_space_group_name_H-M   'P 21/c'
_symmetry_Int_Tables_number      14
_space_group_name_Hall           '-P 2ybc'
loop_
_symmetry_equiv_pos_site_id
_symmetry_equiv_pos_as_xyz
1 x,y,z
2 -x,1/2+y,1/2-z
3 -x,-y,-z
4 x,1/2-y,1/2+z
_cell_length_a                   9.786(2)
_cell_length_b                   16.106(3)
_cell_length_c                   8.3894(17)
_cell_angle_alpha                90
_cell_angle_beta                 91.30(3)
_cell_angle_gamma                90
_cell_volume                     1321.94
_cell_formula_units_Z            4
loop_
_atom_site_label
_atom_site_type_symbol
_atom_site_fract_x
_atom_site_fract_y
_atom_site_fract_z
O1 O 0.14436(10) 0.86899(6) 0.17856(10)
O2 O 0.10471(11) 1.00492(7) -0.32853(11)
H1 H 0.1763 1.0259 -0.2955
O3 O 0.31177(11) 1.02866(8) -0.13901(12)
O4 O -0.13595(12) 0.91734(7) -0.38848(12)
H2 H -0.0985 0.9510 -0.4464
O5 O -0.22703(12) 0.81343(8) -0.18237(13)
C1 C -0.04099(15) 0.83963(9) 0.00638(16)
H3 H -0.0744 0.8030 0.0818
C2 C -0.10995(15) 0.85217(9) -0.13737(17)
C3 C -0.06066(15) 0.90815(9) -0.25092(15)
C4 C 0.05835(14) 0.95042(8) -0.21894(15)
C5 C 0.13255(14) 0.93771(8) -0.07519(15)
C6 C 0.26102(15) 0.97866(9) -0.04152(16)
C7 C 0.32569(15) 0.95800(10) 0.10845(16)
H4 H 0.4103 0.9811 0.1347
C8 C 0.26688(14) 0.90595(9) 0.21206(15)
C9 C 0.07899(14) 0.88303(8) 0.03479(15)
C10 C -0.2861(2) 0.75787(16) -0.0715(3)
H5 H -0.3678 0.7341 -0.1177
H6 H -0.3081 0.7875 0.0237
H7 H -0.2221 0.7144 -0.0458
C11 C 0.31917(14) 0.88192(8) 0.37146(15)
C12 C 0.45135(16) 0.90257(10) 0.42129(17)
H8 H 0.5083 0.9305 0.3521
C13 C 0.49887(18) 0.88208(11) 0.57225(19)
H9 H 0.5874 0.8963 0.6043
C14 C 0.41536(19) 0.84063(11) 0.67547(18)
H10 H 0.4472 0.8273 0.7775
C15 C 0.28438(19) 0.81892(10) 0.62752(18)
H11 H 0.2285 0.7904 0.6971
C16 C 0.23594(17) 0.83936(10) 0.47652(17)
H12 H 0.1475 0.8247 0.4449
loop_
_geom_bond_atom_site_label_1
_geom_bond_atom_site_label_2
_geom_bond_site_symmetry_1
_geom_bond_site_symmetry_2
O1 C8 1_555 1_555
O2 H1 1_555 1_555
O3 C6 1_555 1_555
O4 H2 1_555 1_555
O5 C2 1_555 1_555
C1 H3 1_555 1_555
C2 C1 1_555 1_555
C3 O4 1_555 1_555
C4 O2 1_555 1_555
C5 C4 1_555 1_555
C6 C5 1_555 1_555
C7 C6 1_555 1_555
H4 C7 1_555 1_555
C8 C7 1_555 1_555
C9 O1 1_555 1_555
C10 O5 1_555 1_555
H5 C10 1_555 1_555
H6 C10 1_555 1_555
H7 C10 1_555 1_555
C11 C8 1_555 1_555
C12 C11 1_555 1_555
H8 C12 1_555 1_555
C13 C12 1_555 1_555
H9 C13 1_555 1_555
C14 C13 1_555 1_555
H10 C14 1_555 1_555
C15 C14 1_555 1_555
H11 C15 1_555 1_555
C16 C11 1_555 1_555
H12 C16 1_555 1_555
C1 C9 1_555 1_555
C2 C3 1_555 1_555
C3 C4 1_555 1_555
C5 C9 1_555 1_555
C15 C16 1_555 1_555

#END
