
#######################################################################
#
#                 Cambridge Crystallographic Data Centre
#                                CCDC 
#
#######################################################################
#
# If this CIF has been generated from an entry in the Cambridge 
# Structural Database, then it will include bibliographic, chemical, 
# crystal, experimental, refinement or atomic coordinate data resulting 
# from the CCDC's data processing and validation procedures.
#
#######################################################################

data_HECKOS
_chemical_formula_moiety         'C23 H13 F3 N2 O2'
_chemical_name_systematic        
'[4-(4-fluorophenyl)-1H-pyrazole-3,5-diyl]bis[(4-fluorophenyl)methanone]'
_symmetry_cell_setting           monoclinic
_symmetry_space_group_name_H-M   'P 21/n'
_symmetry_Int_Tables_number      14
_space_group_name_Hall           '-P 2yn'
loop_
_symmetry_equiv_pos_site_id
_symmetry_equiv_pos_as_xyz
1 x,y,z
2 1/2-x,1/2+y,1/2-z
3 -x,-y,-z
4 1/2+x,1/2-y,1/2+z
_cell_length_a                   15.3814(18)
_cell_length_b                   6.8822(8)
_cell_length_c                   17.612(2)
_cell_angle_alpha                90
_cell_angle_beta                 100.308(2)
_cell_angle_gamma                90
_cell_volume                     1834.28
_exptl_crystal_colour            colorless
_exptl_crystal_description       prismatic
_cell_formula_units_Z            4
loop_
_atom_site_label
_atom_site_type_symbol
_atom_site_fract_x
_atom_site_fract_y
_atom_site_fract_z
F1 F -0.00710(7) 0.2371(2) 0.95663(8)
F2 F 0.04012(6) 0.79444(16) 0.85163(8)
F3 F 0.72305(9) 0.8527(2) 0.65048(8)
N1 N 0.48904(8) 0.27761(19) 0.93419(7)
N2 N 0.52458(8) 0.41643(18) 0.89719(7)
O1 O 0.40019(7) 0.05648(17) 1.02540(6)
O2 O 0.42561(7) 0.87115(16) 0.84830(8)
C1 C 0.35698(9) 0.1720(2) 0.98159(8)
C2 C 0.40282(9) 0.3094(2) 0.93799(8)
C3 C 0.38080(8) 0.48672(19) 0.90158(7)
C4 C 0.45924(9) 0.5462(2) 0.87740(8)
C5 C 0.47421(9) 0.7348(2) 0.84078(8)
C6 C 0.54521(9) 0.7580(2) 0.79409(8)
C7 C 0.58504(10) 0.6034(3) 0.76331(9)
H1 H 0.5713 0.4768 0.7753
C8 C 0.64513(12) 0.6360(3) 0.71492(10)
H2 H 0.6716 0.5323 0.6940
C9 C 0.66478(12) 0.8222(3) 0.69845(10)
C10 C 0.62830(12) 0.9782(3) 0.72876(11)
H3 H 0.6438 1.1041 0.7175
C11 C 0.56805(11) 0.9450(3) 0.77637(10)
H4 H 0.5422 1.0501 0.7970
C12 C 0.29384(8) 0.58531(19) 0.88902(8)
C13 C 0.24674(10) 0.6057(2) 0.81443(9)
H5 H 0.2729 0.5702 0.7728
C14 C 0.16146(10) 0.6783(2) 0.80123(10)
H6 H 0.1298 0.6924 0.7513
C15 C 0.12523(10) 0.7285(2) 0.86386(11)
C16 C 0.16976(10) 0.7160(2) 0.93795(10)
H7 H 0.1433 0.7545 0.9790
C17 C 0.25543(9) 0.6446(2) 0.95069(9)
H8 H 0.2872 0.6363 1.0007
C18 C 0.25972(9) 0.18327(19) 0.97390(8)
C19 C 0.20561(10) 0.2015(2) 0.90217(8)
H9 H 0.2306 0.2026 0.8578
C20 C 0.11558(10) 0.2178(2) 0.89601(10)
H10 H 0.0791 0.2290 0.8481
C21 C 0.08135(10) 0.2172(3) 0.96221(11)
C22 C 0.13189(11) 0.1966(3) 1.03394(10)
H11 H 0.1061 0.1952 1.0778
C23 C 0.22203(10) 0.1780(3) 1.03962(9)
H12 H 0.2577 0.1618 1.0877
H13 H 0.5211(10) 0.175(3) 0.9528(9)
loop_
_geom_bond_atom_site_label_1
_geom_bond_atom_site_label_2
_geom_bond_site_symmetry_1
_geom_bond_site_symmetry_2
F1 C21 1_555 1_555
F2 C15 1_555 1_555
F3 C9 1_555 1_555
N1 N2 1_555 1_555
N2 C4 1_555 1_555
O1 C1 1_555 1_555
O2 C5 1_555 1_555
C1 C2 1_555 1_555
C2 N1 1_555 1_555
C3 C2 1_555 1_555
C4 C3 1_555 1_555
C5 C4 1_555 1_555
C6 C5 1_555 1_555
C7 C6 1_555 1_555
H1 C7 1_555 1_555
C8 C7 1_555 1_555
H2 C8 1_555 1_555
C9 C8 1_555 1_555
C10 C9 1_555 1_555
H3 C10 1_555 1_555
C11 C6 1_555 1_555
H4 C11 1_555 1_555
C12 C3 1_555 1_555
C13 C12 1_555 1_555
H5 C13 1_555 1_555
C14 C13 1_555 1_555
H6 C14 1_555 1_555
C15 C14 1_555 1_555
C16 C15 1_555 1_555
H7 C16 1_555 1_555
C17 C12 1_555 1_555
H8 C17 1_555 1_555
C18 C1 1_555 1_555
C19 C18 1_555 1_555
H9 C19 1_555 1_555
C20 C19 1_555 1_555
H10 C20 1_555 1_555
C21 C20 1_555 1_555
C22 C21 1_555 1_555
H11 C22 1_555 1_555
C23 C18 1_555 1_555
H12 C23 1_555 1_555
H13 N1 1_555 1_555
C10 C11 1_555 1_555
C16 C17 1_555 1_555
C22 C23 1_555 1_555

#END
