
#######################################################################
#
#                 Cambridge Crystallographic Data Centre
#                                CCDC 
#
#######################################################################
#
# If this CIF has been generated from an entry in the Cambridge 
# Structural Database, then it will include bibliographic, chemical, 
# crystal, experimental, refinement or atomic coordinate data resulting 
# from the CCDC's data processing and validation procedures.
#
#######################################################################

data_HECMIM
_chemical_formula_moiety         'C15 H19 I1 N2 O2'
_chemical_name_systematic        1-acetyl-1-(4-iodophenyl)-3-cyclohexylurea
_symmetry_cell_setting           orthorhombic
_symmetry_space_group_name_H-M   'P b c a'
_symmetry_Int_Tables_number      61
_space_group_name_Hall           '-P 2ac 2ab'
loop_
_symmetry_equiv_pos_site_id
_symmetry_equiv_pos_as_xyz
1 x,y,z
2 1/2+x,1/2-y,-z
3 -x,1/2+y,1/2-z
4 1/2-x,-y,1/2+z
5 -x,-y,-z
6 1/2-x,1/2+y,z
7 x,1/2-y,1/2+z
8 1/2+x,y,1/2-z
_cell_length_a                   15.4754(16)
_cell_length_b                   11.4284(11)
_cell_length_c                   17.829(2)
_cell_angle_alpha                90
_cell_angle_beta                 90
_cell_angle_gamma                90
_cell_volume                     3153.22
_exptl_crystal_colour            colorless
_exptl_crystal_description       block
_chemical_melting_point          '127-128 deg.C'
_cell_formula_units_Z            8
_exptl_crystal_recrystallization_method 'acetone/petroleum ether'
loop_
_atom_site_label
_atom_site_type_symbol
_atom_site_fract_x
_atom_site_fract_y
_atom_site_fract_z
I1 I 0.577482(13) -0.294883(16) 0.619587(11)
O1 O 0.65008(14) 0.20305(17) 0.46080(11)
O2 O 0.60221(15) 0.43534(18) 0.63016(12)
N1 N 0.61096(15) 0.2517(2) 0.58042(12)
N2 N 0.64482(17) 0.3958(2) 0.48930(14)
C1 C 0.60196(18) 0.1262(2) 0.59218(15)
C2 C 0.67461(18) 0.0589(2) 0.60316(16)
H1 H 0.7299 0.0947 0.6053
C3 C 0.66694(19) -0.0610(3) 0.61108(16)
H2 H 0.7170 -0.1081 0.6174
C4 C 0.58569(17) -0.1121(2) 0.60974(14)
C5 C 0.51245(18) -0.0452(2) 0.59879(16)
H3 H 0.4571 -0.0810 0.5975
C6 C 0.52080(17) 0.0752(2) 0.58965(16)
H4 H 0.4710 0.1223 0.5817
C7 C 0.63691(17) 0.2817(2) 0.50502(16)
C8 C 0.59505(18) 0.3300(3) 0.63833(16)
C9 C 0.5693(2) 0.2779(3) 0.71234(17)
H5 H 0.5618 0.3406 0.7493
H6 H 0.6146 0.2242 0.7295
H7 H 0.5149 0.2350 0.7065
C10 C 0.66673(19) 0.4341(3) 0.41323(16)
H8 H 0.6351 0.3830 0.3769
C11 C 0.6359(2) 0.5586(3) 0.40226(18)
H9 H 0.6656 0.6108 0.4383
H10 H 0.5730 0.5631 0.4121
C12 C 0.6546(2) 0.5994(4) 0.32189(19)
H11 H 0.6201 0.5523 0.2862
H12 H 0.6374 0.6823 0.3163
C13 C 0.7498(2) 0.5865(3) 0.30353(18)
H13 H 0.7835 0.6414 0.3350
H14 H 0.7594 0.6078 0.2504
C14 C 0.7820(2) 0.4626(3) 0.31678(18)
H15 H 0.8450 0.4593 0.3076
H16 H 0.7534 0.4087 0.2811
C15 C 0.7629(2) 0.4233(3) 0.39733(17)
H17 H 0.7814 0.3411 0.4041
H18 H 0.7958 0.4725 0.4330
H19 H 0.6343(19) 0.440(3) 0.5225(17)
loop_
_geom_bond_atom_site_label_1
_geom_bond_atom_site_label_2
_geom_bond_site_symmetry_1
_geom_bond_site_symmetry_2
I1 C4 1_555 1_555
O1 C7 1_555 1_555
O2 C8 1_555 1_555
N1 C1 1_555 1_555
N2 C7 1_555 1_555
C1 C2 1_555 1_555
C2 H1 1_555 1_555
C3 C2 1_555 1_555
H2 C3 1_555 1_555
C4 C3 1_555 1_555
C5 C4 1_555 1_555
H3 C5 1_555 1_555
C6 C1 1_555 1_555
H4 C6 1_555 1_555
C7 N1 1_555 1_555
C8 N1 1_555 1_555
C9 C8 1_555 1_555
H5 C9 1_555 1_555
H6 C9 1_555 1_555
H7 C9 1_555 1_555
C10 N2 1_555 1_555
H8 C10 1_555 1_555
C11 C10 1_555 1_555
H9 C11 1_555 1_555
H10 C11 1_555 1_555
C12 C11 1_555 1_555
H11 C12 1_555 1_555
H12 C12 1_555 1_555
C13 C12 1_555 1_555
H13 C13 1_555 1_555
H14 C13 1_555 1_555
C14 C13 1_555 1_555
H15 C14 1_555 1_555
H16 C14 1_555 1_555
C15 C10 1_555 1_555
H17 C15 1_555 1_555
H18 C15 1_555 1_555
H19 N2 1_555 1_555
C5 C6 1_555 1_555
C14 C15 1_555 1_555

#END
