
#######################################################################
#
#                 Cambridge Crystallographic Data Centre
#                                CCDC 
#
#######################################################################
#
# If this CIF has been generated from an entry in the Cambridge 
# Structural Database, then it will include bibliographic, chemical, 
# crystal, experimental, refinement or atomic coordinate data resulting 
# from the CCDC's data processing and validation procedures.
#
#######################################################################

data_HECWOE
_chemical_formula_moiety         'C18 H18 O6'
_chemical_name_systematic        'butane-1,4-diyl bis(3-(2-furyl)acrylate)'
_symmetry_cell_setting           monoclinic
_symmetry_space_group_name_H-M   'P 21/n'
_symmetry_Int_Tables_number      14
_space_group_name_Hall           '-P 2yn'
loop_
_symmetry_equiv_pos_site_id
_symmetry_equiv_pos_as_xyz
1 x,y,z
2 1/2-x,1/2+y,1/2-z
3 -x,-y,-z
4 1/2+x,1/2-y,1/2+z
_cell_length_a                   7.7051(12)
_cell_length_b                   10.1944(15)
_cell_length_c                   10.2350(15)
_cell_angle_alpha                90
_cell_angle_beta                 92.879(2)
_cell_angle_gamma                90
_cell_volume                     802.933
_exptl_crystal_colour            colorless
_exptl_crystal_description       chunk
_cell_formula_units_Z            2
loop_
_atom_site_label
_atom_site_type_symbol
_atom_site_fract_x
_atom_site_fract_y
_atom_site_fract_z
O1 O 0.43397(10) 0.96307(8) 0.75474(8)
O2 O 0.11243(11) 1.16381(8) 0.36502(8)
O3 O 0.40272(12) 0.78686(8) 0.62259(9)
C1 C -0.01832(16) 1.12094(12) 0.16928(12)
H1 H -0.0794 1.1322 0.0871
C2 C 0.04767(15) 1.00102(12) 0.22342(12)
H2 H 0.0382 0.9165 0.1847
C3 C 0.12691(14) 1.03127(11) 0.34143(11)
C4 C 0.21762(14) 0.95229(11) 0.43872(11)
H3 H 0.2282 0.8614 0.4204
C5 C 0.28864(14) 0.99486(12) 0.55288(11)
H4 H 0.2808 1.0849 0.5757
C6 C 0.37895(15) 0.90218(12) 0.64316(11)
C7 C 0.52339(16) 0.88140(12) 0.85312(11)
H5 H 0.6270 0.8403 0.8169
H6 H 0.4453 0.8110 0.8817
C8 C 0.57698(15) 0.96897(12) 0.96725(11)
H7 H 0.6529 1.0396 0.9362
H8 H 0.6456 0.9168 1.0330
C9 C 0.02304(16) 1.21523(12) 0.25766(12)
H9 H -0.0059 1.3053 0.2470
O1B O 0.56603(10) 1.03693(8) 1.24526(8)
O2B O 0.88757(11) 0.83619(8) 1.63498(8)
O3B O 0.59728(12) 1.21314(8) 1.37741(9)
C1B C 1.01832(16) 0.87906(12) 1.83072(12)
H1B H 1.0794 0.8678 1.9129
C2B C 0.95233(15) 0.99898(12) 1.77658(12)
H2B H 0.9618 1.0835 1.8153
C3B C 0.87309(14) 0.96873(11) 1.65857(11)
C4B C 0.78238(14) 1.04771(11) 1.56128(11)
H3B H 0.7718 1.1386 1.5796
C5B C 0.71136(14) 1.00514(12) 1.44712(11)
H4B H 0.7192 0.9151 1.4243
C6B C 0.62105(15) 1.09782(12) 1.35684(11)
C7B C 0.47661(16) 1.11860(12) 1.14688(11)
H5B H 0.3730 1.1597 1.1831
H6B H 0.5547 1.1890 1.1183
C8B C 0.42302(15) 1.03103(12) 1.03275(11)
H7B H 0.3471 0.9604 1.0638
H8B H 0.3544 1.0832 0.9670
C9B C 0.97696(16) 0.78477(12) 1.74234(12)
H9B H 1.0059 0.6947 1.7530
loop_
_geom_bond_atom_site_label_1
_geom_bond_atom_site_label_2
_geom_bond_site_symmetry_1
_geom_bond_site_symmetry_2
O1 C6 1_555 1_555
O2 C3 1_555 1_555
O3 C6 1_555 1_555
C1 H1 1_555 1_555
C2 C1 1_555 1_555
H2 C2 1_555 1_555
C3 C2 1_555 1_555
C4 C3 1_555 1_555
H3 C4 1_555 1_555
C5 C4 1_555 1_555
H4 C5 1_555 1_555
C6 C5 1_555 1_555
C7 O1 1_555 1_555
H5 C7 1_555 1_555
H6 C7 1_555 1_555
C8 C7 1_555 1_555
H7 C8 1_555 1_555
H8 C8 1_555 1_555
C9 O2 1_555 1_555
H9 C9 1_555 1_555
O1B C6B 1_555 1_555
O2B C3B 1_555 1_555
O3B C6B 1_555 1_555
C1B H1B 1_555 1_555
C2B C1B 1_555 1_555
H2B C2B 1_555 1_555
C3B C2B 1_555 1_555
C4B C3B 1_555 1_555
H3B C4B 1_555 1_555
C5B C4B 1_555 1_555
H4B C5B 1_555 1_555
C6B C5B 1_555 1_555
C7B O1B 1_555 1_555
H5B C7B 1_555 1_555
H6B C7B 1_555 1_555
C8B C8 1_555 1_555
H7B C8B 1_555 1_555
H8B C8B 1_555 1_555
C9B O2B 1_555 1_555
H9B C9B 1_555 1_555
C1 C9 1_555 1_555
C1B C9B 1_555 1_555
C7B C8B 1_555 1_555

#END
