
#######################################################################
#
#                 Cambridge Crystallographic Data Centre
#                                CCDC 
#
#######################################################################
#
# If this CIF has been generated from an entry in the Cambridge 
# Structural Database, then it will include bibliographic, chemical, 
# crystal, experimental, refinement or atomic coordinate data resulting 
# from the CCDC's data processing and validation procedures.
#
#######################################################################

data_HEDDEC
_chemical_formula_moiety         'C35 H30 O3'
_chemical_name_systematic        
1,1'-((2-methoxynaphthalene-1,6-diyl)bis(methylene))bis(2-methoxynaphthalene)
_symmetry_cell_setting           monoclinic
_symmetry_space_group_name_H-M   'P 21/c'
_symmetry_Int_Tables_number      14
_space_group_name_Hall           '-P 2ybc'
loop_
_symmetry_equiv_pos_site_id
_symmetry_equiv_pos_as_xyz
1 x,y,z
2 -x,1/2+y,1/2-z
3 -x,-y,-z
4 x,1/2-y,1/2+z
_cell_length_a                   16.1982(5)
_cell_length_b                   8.0127(3)
_cell_length_c                   19.7384(7)
_cell_angle_alpha                90
_cell_angle_beta                 96.427(3)
_cell_angle_gamma                90
_cell_volume                     2545.77
_exptl_crystal_colour            colorless
_exptl_crystal_description       block
_cell_formula_units_Z            4
loop_
_atom_site_label
_atom_site_type_symbol
_atom_site_fract_x
_atom_site_fract_y
_atom_site_fract_z
O1 O 0.43199(11) 0.9479(2) 0.30921(9)
O2 O 0.60901(10) 0.5881(2) 0.43896(10)
O3 O 0.05656(18) 0.3514(3) 0.44437(15)
C1 C 0.51592(16) 0.9771(3) 0.32169(14)
C2 C 0.55252(16) 0.9267(3) 0.38499(13)
C3 C 0.63817(16) 0.9645(3) 0.40351(14)
C4 C 0.68102(16) 0.9265(4) 0.46872(15)
H1 H 0.6532 0.8663 0.5009
C5 C 0.76156(19) 0.9753(4) 0.48575(18)
H2 H 0.7886 0.9507 0.5298
C6 C 0.80489(19) 1.0616(4) 0.4386(2)
H3 H 0.8605 1.0966 0.4513
C7 C 0.76761(19) 1.0947(4) 0.37552(19)
H4 H 0.7981 1.1493 0.3435
C8 C 0.68321(17) 1.0492(3) 0.35607(16)
C9 C 0.6432(2) 1.0897(4) 0.29117(16)
H5 H 0.6738 1.1414 0.2586
C10 C 0.56107(18) 1.0558(4) 0.27441(15)
H6 H 0.5345 1.0854 0.2307
C11 C 0.38787(19) 1.0212(4) 0.24976(15)
H7 H 0.3984 1.1416 0.2498
H8 H 0.3282 1.0012 0.2499
H9 H 0.4067 0.9710 0.2089
C12 C 0.49901(16) 0.8424(3) 0.43360(13)
H10 H 0.5307 0.8392 0.4795
H11 H 0.4492 0.9123 0.4368
C13 C 0.47066(15) 0.6665(3) 0.41441(12)
C14 C 0.52886(15) 0.5393(3) 0.41905(12)
C15 C 0.50702(16) 0.3729(3) 0.40528(13)
H12 H 0.5486 0.2888 0.4082
C16 C 0.42523(16) 0.3316(3) 0.38751(13)
H13 H 0.4105 0.2183 0.3785
C17 C 0.36260(16) 0.4549(3) 0.38251(13)
C18 C 0.27808(16) 0.4122(3) 0.36443(14)
H14 H 0.2636 0.2984 0.3565
C19 C 0.21665(17) 0.5307(4) 0.35813(15)
C20 C 0.23968(17) 0.6988(4) 0.37087(15)
H15 H 0.1978 0.7824 0.3670
C21 C 0.32020(16) 0.7445(4) 0.38851(13)
H16 H 0.3331 0.8589 0.3965
C22 C 0.38558(16) 0.6245(3) 0.39526(13)
C23 C 0.67353(16) 0.4658(4) 0.44370(15)
H17 H 0.6605 0.3766 0.4748
H18 H 0.7264 0.5181 0.4611
H19 H 0.6780 0.4186 0.3984
C24 C 0.12543(17) 0.4931(4) 0.33718(18)
H20 H 0.0923 0.5518 0.3690
H21 H 0.1099 0.5406 0.2912
C25 C 0.10118(16) 0.3113(4) 0.33563(17)
C26 C 0.06469(18) 0.2461(4) 0.38952(18)
C27 C 0.03557(19) 0.0809(4) 0.3878(2)
H22 H 0.0094 0.0380 0.4248
C28 C 0.04491(17) -0.0179(4) 0.3330(2)
H23 H 0.0242 -0.1288 0.3322
C29 C 0.08449(17) 0.0401(4) 0.27749(17)
C30 C 0.09765(19) -0.0591(4) 0.22045(19)
H24 H 0.0785 -0.1712 0.2184
C31 C 0.1372(2) 0.0021(5) 0.16842(18)
H25 H 0.1448 -0.0670 0.1305
C32 C 0.1665(2) 0.1663(5) 0.17055(17)
H26 H 0.1947 0.2082 0.1344
C33 C 0.15479(18) 0.2652(4) 0.22398(16)
H27 H 0.1748 0.3767 0.2245
C34 C 0.11352(16) 0.2082(4) 0.27941(16)
C35 C 0.0346(3) 0.2893(6) 0.5055(2)
H28 H -0.0224 0.2465 0.4985
H29 H 0.0381 0.3787 0.5395
H30 H 0.0726 0.1988 0.5215
loop_
_geom_bond_atom_site_label_1
_geom_bond_atom_site_label_2
_geom_bond_site_symmetry_1
_geom_bond_site_symmetry_2
O1 C1 1_555 1_555
O2 C14 1_555 1_555
O3 C26 1_555 1_555
C1 C2 1_555 1_555
C2 C3 1_555 1_555
C3 C4 1_555 1_555
C4 H1 1_555 1_555
C5 C4 1_555 1_555
H2 C5 1_555 1_555
C6 C5 1_555 1_555
H3 C6 1_555 1_555
C7 C6 1_555 1_555
H4 C7 1_555 1_555
C8 C3 1_555 1_555
C9 C8 1_555 1_555
H5 C9 1_555 1_555
C10 C1 1_555 1_555
H6 C10 1_555 1_555
C11 O1 1_555 1_555
H7 C11 1_555 1_555
H8 C11 1_555 1_555
H9 C11 1_555 1_555
C12 C2 1_555 1_555
H10 C12 1_555 1_555
H11 C12 1_555 1_555
C13 C12 1_555 1_555
C14 C13 1_555 1_555
C15 C14 1_555 1_555
H12 C15 1_555 1_555
C16 C15 1_555 1_555
H13 C16 1_555 1_555
C17 C16 1_555 1_555
C18 C17 1_555 1_555
H14 C18 1_555 1_555
C19 C18 1_555 1_555
C20 C19 1_555 1_555
H15 C20 1_555 1_555
C21 C20 1_555 1_555
H16 C21 1_555 1_555
C22 C13 1_555 1_555
C23 O2 1_555 1_555
H17 C23 1_555 1_555
H18 C23 1_555 1_555
H19 C23 1_555 1_555
C24 C19 1_555 1_555
H20 C24 1_555 1_555
H21 C24 1_555 1_555
C25 C24 1_555 1_555
C26 C25 1_555 1_555
C27 C26 1_555 1_555
H22 C27 1_555 1_555
C28 C27 1_555 1_555
H23 C28 1_555 1_555
C29 C28 1_555 1_555
C30 C29 1_555 1_555
H24 C30 1_555 1_555
C31 C30 1_555 1_555
H25 C31 1_555 1_555
C32 C31 1_555 1_555
H26 C32 1_555 1_555
C33 C32 1_555 1_555
H27 C33 1_555 1_555
C34 C25 1_555 1_555
C35 O3 1_555 1_555
H28 C35 1_555 1_555
H29 C35 1_555 1_555
H30 C35 1_555 1_555
C7 C8 1_555 1_555
C9 C10 1_555 1_555
C17 C22 1_555 1_555
C21 C22 1_555 1_555
C29 C34 1_555 1_555
C33 C34 1_555 1_555

#END
