
#######################################################################
#
#                 Cambridge Crystallographic Data Centre
#                                CCDC 
#
#######################################################################
#
# If this CIF has been generated from an entry in the Cambridge 
# Structural Database, then it will include bibliographic, chemical, 
# crystal, experimental, refinement or atomic coordinate data resulting 
# from the CCDC's data processing and validation procedures.
#
#######################################################################

data_HEDDOM
_chemical_formula_moiety         'C56 H72 O6'
_chemical_name_systematic        
1,1'-((2,6-dibutoxynaphthalene-1,5-diyl)bis(methylene))bis(2,6-dibutoxynaphthalene)
_symmetry_cell_setting           monoclinic
_symmetry_space_group_name_H-M   'P 21/n'
_symmetry_Int_Tables_number      14
_space_group_name_Hall           '-P 2yn'
loop_
_symmetry_equiv_pos_site_id
_symmetry_equiv_pos_as_xyz
1 x,y,z
2 1/2-x,1/2+y,1/2-z
3 -x,-y,-z
4 1/2+x,1/2-y,1/2+z
_cell_length_a                   18.2454(8)
_cell_length_b                   7.4219(3)
_cell_length_c                   18.7073(7)
_cell_angle_alpha                90
_cell_angle_beta                 114.262(2)
_cell_angle_gamma                90
_cell_volume                     2309.51
_exptl_crystal_colour            colorless
_exptl_crystal_description       block
_cell_formula_units_Z            2
loop_
_atom_site_label
_atom_site_type_symbol
_atom_site_fract_x
_atom_site_fract_y
_atom_site_fract_z
O1 O 0.44181(9) 0.7545(2) 0.30438(10)
O2 O 0.88604(9) 0.8263(2) 0.35905(9)
O3 O 0.77632(9) 0.3760(2) 0.44103(10)
C1 C 0.52219(14) 0.7646(4) 0.31954(15)
C2 C 0.55312(14) 0.8201(4) 0.26808(15)
H1 H 0.5180 0.8575 0.2168
C3 C 0.63775(13) 0.8223(3) 0.29097(14)
C4 C 0.69099(14) 0.7620(3) 0.36697(14)
C5 C 0.65522(14) 0.7073(4) 0.41781(15)
H2 H 0.6888 0.6688 0.4694
C6 C 0.57392(14) 0.7084(4) 0.39497(15)
H3 H 0.5521 0.6705 0.4307
C7 C 0.67017(14) 0.8828(4) 0.23901(15)
H4 H 0.6351 0.9242 0.1884
C8 C 0.75164(14) 0.8834(3) 0.25992(15)
H5 H 0.7726 0.9242 0.2239
C9 C 0.80354(13) 0.8238(3) 0.33433(14)
C10 C 0.77619(14) 0.7631(3) 0.38922(14)
C11 C 0.38530(14) 0.7933(4) 0.22627(15)
H6 H 0.3952 0.7142 0.1886
H7 H 0.3910 0.9201 0.2129
C12 C 0.30217(14) 0.7616(4) 0.22177(16)
H8 H 0.2916 0.8471 0.2571
H9 H 0.2987 0.6379 0.2399
C13 C 0.23885(15) 0.7857(5) 0.13884(17)
H10 H 0.2442 0.9082 0.1206
H11 H 0.2495 0.6984 0.1042
C14 C 0.15330(16) 0.7605(5) 0.13031(19)
H12 H 0.1163 0.7709 0.0749
H13 H 0.1405 0.8532 0.1607
H14 H 0.1477 0.6410 0.1498
C15 C 0.91740(14) 0.8427(4) 0.30036(15)
H15 H 0.9057 0.9637 0.2760
H16 H 0.8931 0.7510 0.2589
C16 C 1.00723(13) 0.8139(4) 0.34225(15)
H17 H 1.0172 0.6989 0.3716
H18 H 1.0305 0.9120 0.3809
C17 C 1.05034(14) 0.8089(4) 0.28808(16)
H19 H 1.0383 0.9203 0.2562
H20 H 1.0309 0.7049 0.2520
C18 C 1.14077(14) 0.7928(4) 0.33560(17)
H21 H 1.1676 0.7818 0.2999
H22 H 1.1523 0.6859 0.3692
H23 H 1.1606 0.9004 0.3683
C19 C 0.83631(13) 0.7171(3) 0.47170(14)
H24 H 0.8064 0.6905 0.5043
H25 H 0.8703 0.8241 0.4944
C20 C 0.89087(13) 0.5574(3) 0.47658(14)
C21 C 0.97622(13) 0.5771(3) 0.50066(14)
C22 C 0.98340(13) 0.2573(3) 0.47254(13)
H26 H 1.0130 0.1556 0.4684
C23 C 0.90288(14) 0.2402(3) 0.45244(14)
H27 H 0.8774 0.1271 0.4350
C24 C 0.85742(13) 0.3877(3) 0.45733(14)
C25 C 0.73944(14) 0.2023(4) 0.42136(15)
H28 H 0.7713 0.1125 0.4611
H29 H 0.7366 0.1634 0.3696
C26 C 0.65542(14) 0.2167(4) 0.41897(15)
H30 H 0.6285 0.3238 0.3876
H31 H 0.6241 0.1092 0.3920
C27 C 0.65390(15) 0.2316(4) 0.49922(16)
H32 H 0.6839 0.1290 0.5320
H33 H 0.6816 0.3439 0.5248
C28 C 0.56931(17) 0.2327(5) 0.4956(2)
H34 H 0.5395 0.3351 0.4640
H35 H 0.5718 0.2432 0.5488
H36 H 0.5420 0.1203 0.4717
O1B O 1.55819(9) 0.2455(2) 0.69562(10)
O2B O 1.11396(9) 0.1737(2) 0.64095(9)
O3B O 1.22368(9) 0.6240(2) 0.55897(10)
C1B C 1.47781(14) 0.2354(4) 0.68046(15)
C2B C 1.44688(14) 0.1799(4) 0.73192(15)
H1B H 1.4820 0.1425 0.7832
C3B C 1.36225(13) 0.1777(3) 0.70903(14)
C4B C 1.30901(14) 0.2380(3) 0.63303(14)
C5B C 1.34478(14) 0.2927(4) 0.58219(15)
H2B H 1.3112 0.3312 0.5306
C6B C 1.42608(14) 0.2916(4) 0.60503(15)
H3B H 1.4479 0.3295 0.5693
C7B C 1.32983(14) 0.1172(4) 0.76099(15)
H4B H 1.3649 0.0758 0.8116
C8B C 1.24836(14) 0.1166(3) 0.74008(15)
H5B H 1.2274 0.0758 0.7761
C9B C 1.19646(13) 0.1762(3) 0.66567(14)
C10B C 1.22381(14) 0.2369(3) 0.61078(14)
C11B C 1.61470(14) 0.2067(4) 0.77373(15)
H6B H 1.6048 0.2858 0.8114
H7B H 1.6090 0.0799 0.7871
C12B C 1.69783(14) 0.2384(4) 0.77823(16)
H8B H 1.7084 0.1529 0.7429
H9B H 1.7013 0.3621 0.7601
C13B C 1.76115(15) 0.2143(5) 0.86116(17)
H10B H 1.7558 0.0918 0.8794
H11B H 1.7505 0.3016 0.8958
C14B C 1.84670(16) 0.2395(5) 0.86969(19)
H12B H 1.8837 0.2291 0.9251
H13B H 1.8595 0.1468 0.8393
H14B H 1.8523 0.3590 0.8502
C15B C 1.08260(14) 0.1573(4) 0.69964(15)
H15B H 1.0943 0.0363 0.7240
H16B H 1.1069 0.2490 0.7411
C16B C 0.99277(13) 0.1861(4) 0.65775(15)
H17B H 0.9828 0.3011 0.6284
H18B H 0.9695 0.0880 0.6191
C17B C 0.94966(14) 0.1911(4) 0.71192(16)
H19B H 0.9617 0.0797 0.7438
H20B H 0.9691 0.2951 0.7480
C18B C 0.85923(14) 0.2072(4) 0.66440(17)
H21B H 0.8324 0.2182 0.7001
H22B H 0.8477 0.3141 0.6308
H23B H 0.8394 0.0996 0.6317
C19B C 1.16369(13) 0.2829(3) 0.52830(14)
H24B H 1.1936 0.3095 0.4957
H25B H 1.1297 0.1759 0.5056
C20B C 1.10913(13) 0.4426(3) 0.52342(14)
C21B C 1.02378(13) 0.4229(3) 0.49934(14)
C22B C 1.01660(13) 0.7427(3) 0.52746(13)
H26B H 0.9870 0.8444 0.5316
C23B C 1.09712(14) 0.7598(3) 0.54756(14)
H27B H 1.1226 0.8729 0.5650
C24B C 1.14258(13) 0.6123(3) 0.54267(14)
C25B C 1.26056(14) 0.7977(4) 0.57864(15)
H28B H 1.2287 0.8875 0.5389
H29B H 1.2634 0.8366 0.6304
C26B C 1.34458(14) 0.7833(4) 0.58103(15)
H30B H 1.3715 0.6762 0.6124
H31B H 1.3759 0.8908 0.6080
C27B C 1.34610(15) 0.7684(4) 0.50078(16)
H32B H 1.3161 0.8710 0.4680
H33B H 1.3184 0.6561 0.4752
C28B C 1.43069(17) 0.7673(5) 0.5044(2)
H34B H 1.4605 0.6649 0.5360
H35B H 1.4282 0.7568 0.4512
H36B H 1.4580 0.8797 0.5283
loop_
_geom_bond_atom_site_label_1
_geom_bond_atom_site_label_2
_geom_bond_site_symmetry_1
_geom_bond_site_symmetry_2
O1 C1 1_555 1_555
O2 C9 1_555 1_555
O3 C24 1_555 1_555
C1 C2 1_555 1_555
C2 H1 1_555 1_555
C3 C2 1_555 1_555
C4 C3 1_555 1_555
C5 C4 1_555 1_555
H2 C5 1_555 1_555
C6 C1 1_555 1_555
H3 C6 1_555 1_555
C7 C3 1_555 1_555
H4 C7 1_555 1_555
C8 C7 1_555 1_555
H5 C8 1_555 1_555
C9 C8 1_555 1_555
C10 C4 1_555 1_555
C11 O1 1_555 1_555
H6 C11 1_555 1_555
H7 C11 1_555 1_555
C12 C11 1_555 1_555
H8 C12 1_555 1_555
H9 C12 1_555 1_555
C13 C12 1_555 1_555
H10 C13 1_555 1_555
H11 C13 1_555 1_555
C14 C13 1_555 1_555
H12 C14 1_555 1_555
H13 C14 1_555 1_555
H14 C14 1_555 1_555
C15 O2 1_555 1_555
H15 C15 1_555 1_555
H16 C15 1_555 1_555
C16 C15 1_555 1_555
H17 C16 1_555 1_555
H18 C16 1_555 1_555
C17 C16 1_555 1_555
H19 C17 1_555 1_555
H20 C17 1_555 1_555
C18 C17 1_555 1_555
H21 C18 1_555 1_555
H22 C18 1_555 1_555
H23 C18 1_555 1_555
C19 C10 1_555 1_555
H24 C19 1_555 1_555
H25 C19 1_555 1_555
C20 C19 1_555 1_555
C21 C20 1_555 1_555
C22 H26 1_555 1_555
C23 C22 1_555 1_555
H27 C23 1_555 1_555
C24 C20 1_555 1_555
C25 O3 1_555 1_555
H28 C25 1_555 1_555
H29 C25 1_555 1_555
C26 C25 1_555 1_555
H30 C26 1_555 1_555
H31 C26 1_555 1_555
C27 C26 1_555 1_555
H32 C27 1_555 1_555
H33 C27 1_555 1_555
C28 C27 1_555 1_555
H34 C28 1_555 1_555
H35 C28 1_555 1_555
H36 C28 1_555 1_555
O1B C1B 1_555 1_555
O2B C9B 1_555 1_555
O3B C24B 1_555 1_555
C1B C2B 1_555 1_555
C2B H1B 1_555 1_555
C3B C2B 1_555 1_555
C4B C3B 1_555 1_555
C5B C4B 1_555 1_555
H2B C5B 1_555 1_555
C6B C1B 1_555 1_555
H3B C6B 1_555 1_555
C7B C3B 1_555 1_555
H4B C7B 1_555 1_555
C8B C7B 1_555 1_555
H5B C8B 1_555 1_555
C9B C8B 1_555 1_555
C10B C4B 1_555 1_555
C11B O1B 1_555 1_555
H6B C11B 1_555 1_555
H7B C11B 1_555 1_555
C12B C11B 1_555 1_555
H8B C12B 1_555 1_555
H9B C12B 1_555 1_555
C13B C12B 1_555 1_555
H10B C13B 1_555 1_555
H11B C13B 1_555 1_555
C14B C13B 1_555 1_555
H12B C14B 1_555 1_555
H13B C14B 1_555 1_555
H14B C14B 1_555 1_555
C15B O2B 1_555 1_555
H15B C15B 1_555 1_555
H16B C15B 1_555 1_555
C16B C15B 1_555 1_555
H17B C16B 1_555 1_555
H18B C16B 1_555 1_555
C17B C16B 1_555 1_555
H19B C17B 1_555 1_555
H20B C17B 1_555 1_555
C18B C17B 1_555 1_555
H21B C18B 1_555 1_555
H22B C18B 1_555 1_555
H23B C18B 1_555 1_555
C19B C10B 1_555 1_555
H24B C19B 1_555 1_555
H25B C19B 1_555 1_555
C20B C19B 1_555 1_555
C21B C21 1_555 1_555
C22B C21 1_555 1_555
H26B C22B 1_555 1_555
C23B C22B 1_555 1_555
H27B C23B 1_555 1_555
C24B C20B 1_555 1_555
C25B O3B 1_555 1_555
H28B C25B 1_555 1_555
H29B C25B 1_555 1_555
C26B C25B 1_555 1_555
H30B C26B 1_555 1_555
H31B C26B 1_555 1_555
C27B C26B 1_555 1_555
H32B C27B 1_555 1_555
H33B C27B 1_555 1_555
C28B C27B 1_555 1_555
H34B C28B 1_555 1_555
H35B C28B 1_555 1_555
H36B C28B 1_555 1_555
C5 C6 1_555 1_555
C9 C10 1_555 1_555
C22 C21B 1_555 1_555
C23 C24 1_555 1_555
C5B C6B 1_555 1_555
C9B C10B 1_555 1_555
C20B C21B 1_555 1_555
C23B C24B 1_555 1_555

#END
