
#######################################################################
#
#                 Cambridge Crystallographic Data Centre
#                                CCDC 
#
#######################################################################
#
# If this CIF has been generated from an entry in the Cambridge 
# Structural Database, then it will include bibliographic, chemical, 
# crystal, experimental, refinement or atomic coordinate data resulting 
# from the CCDC's data processing and validation procedures.
#
#######################################################################

data_HEDLAE
_chemical_formula_moiety         'C40 H56 Ba1 N20 O13 2+,2(N1 O3 1-),5(H2 O1)'
_chemical_name_systematic        
'Triaqua-(decamethylcucurbit(5)uril)-barium dinitrate pentahydrate'
_symmetry_cell_setting           orthorhombic
_symmetry_space_group_name_H-M   'P 21 c n'
_symmetry_Int_Tables_number      33
_space_group_name_Hall           'P -2n 2a'
loop_
_symmetry_equiv_pos_site_id
_symmetry_equiv_pos_as_xyz
1 x,y,z
2 1/2+x,1/2+y,1/2-z
3 1/2+x,-y,-z
4 x,1/2-y,1/2+z
_cell_length_a                   11.516(2)
_cell_length_b                   14.742(3)
_cell_length_c                   32.108(6)
_cell_angle_alpha                90
_cell_angle_beta                 90
_cell_angle_gamma                90
_cell_volume                     5450.94
_cell_formula_units_Z            4
loop_
_atom_site_label
_atom_site_type_symbol
_atom_site_fract_x
_atom_site_fract_y
_atom_site_fract_z
Ba1 Ba 1.17211(4) 0.37952(2) 0.354524(10)
O1 O 1.0971(4) 0.4344(3) 0.27520(14)
O2 O 1.0938(4) 0.5603(3) 0.35143(13)
O3 O 1.0930(4) 0.4432(3) 0.43259(14)
O4 O 1.0834(4) 0.2452(3) 0.40471(15)
O5 O 1.0941(4) 0.2325(3) 0.30848(13)
O6 O 0.5639(4) 0.4388(3) 0.26831(15)
O7 O 0.5745(4) 0.5643(4) 0.35149(15)
O8 O 0.5681(4) 0.4489(3) 0.43371(14)
O9 O 0.5725(4) 0.2489(3) 0.40400(14)
O10 O 0.5650(4) 0.2313(3) 0.30451(15)
O12 O 1.3280(5) 0.2528(4) 0.38577(19)
O13 O 1.3426(5) 0.5015(4) 0.37004(16)
O14 O 1.3629(5) 0.3428(4) 0.30113(15)
N1 N 0.9401(5) 0.5240(4) 0.25679(17)
N2 N 0.9403(5) 0.6279(4) 0.31639(16)
N3 N 0.9387(5) 0.6276(4) 0.38543(16)
N4 N 0.9391(5) 0.5367(4) 0.44859(17)
N5 N 0.9376(5) 0.3958(4) 0.47229(18)
N6 N 0.9335(5) 0.2366(4) 0.45153(17)
N7 N 0.9344(4) 0.1447(4) 0.39701(16)
N8 N 0.9365(5) 0.1403(4) 0.32140(16)
N9 N 0.9384(5) 0.2225(4) 0.26344(17)
N10 N 0.9392(5) 0.3794(4) 0.23870(17)
N11 N 0.7267(5) 0.5242(3) 0.25607(17)
N12 N 0.7294(5) 0.6265(4) 0.31627(15)
N13 N 0.7280(5) 0.6322(4) 0.38531(16)
N14 N 0.7277(5) 0.5385(4) 0.44851(17)
N15 N 0.7247(5) 0.3973(4) 0.47150(17)
N16 N 0.7220(5) 0.2370(4) 0.45202(16)
N17 N 0.7230(5) 0.1483(4) 0.39599(17)
N18 N 0.7244(5) 0.1420(4) 0.31996(17)
N19 N 0.7272(5) 0.2251(4) 0.26258(16)
N20 N 0.7278(5) 0.3802(4) 0.23588(17)
C1 C 1.0003(5) 0.4442(4) 0.25873(17)
C2 C 0.9857(6) 0.6058(5) 0.27492(19)
H1 H 0.9688 0.6559 0.2563
H2 H 1.0695 0.6003 0.2768
C3 C 1.0004(6) 0.6000(4) 0.35157(18)
C4 C 0.9864(5) 0.6136(4) 0.42699(19)
H3 H 1.0698 0.6059 0.4247
H4 H 0.9724 0.6676 0.4435
C5 C 0.9992(6) 0.4566(4) 0.44933(19)
C6 C 0.9809(5) 0.3039(4) 0.47990(19)
H5 H 1.0648 0.3041 0.4774
H6 H 0.9619 0.2866 0.5082
C7 C 0.9925(5) 0.2121(4) 0.41654(19)
C8 C 0.9827(6) 0.1020(4) 0.35972(18)
H7 H 1.0664 0.1091 0.3599
H8 H 0.9657 0.0376 0.3604
C9 C 0.9992(5) 0.2028(4) 0.29905(19)
C10 C 0.9853(5) 0.2879(4) 0.23392(17)
H9 H 0.9689 0.2670 0.2059
H10 H 1.0690 0.2900 0.2371
C11 C 0.8342(5) 0.4149(4) 0.21808(15)
C12 C 0.8394(6) 0.4006(4) 0.17079(18)
H11 H 0.9109 0.4249 0.1602
H12 H 0.7751 0.4311 0.1579
H13 H 0.8354 0.3369 0.1647
C13 C 0.8336(6) 0.5187(4) 0.23180(17)
C14 C 0.8330(6) 0.5871(4) 0.19632(18)
H14 H 0.9041 0.5822 0.1809
H15 H 0.8261 0.6473 0.2075
H16 H 0.7685 0.5750 0.1782
C15 C 0.8360(5) 0.6775(4) 0.32533(16)
C16 C 0.8326(7) 0.7705(4) 0.30483(18)
H17 H 0.7614 0.8005 0.3120
H18 H 0.8370 0.7636 0.2751
H19 H 0.8972 0.8060 0.3144
C17 C 0.8347(6) 0.6793(4) 0.37555(17)
C18 C 0.8382(7) 0.7737(4) 0.39370(18)
H20 H 0.9105 0.8021 0.3866
H21 H 0.8311 0.7702 0.4235
H22 H 0.7751 0.8087 0.3826
C19 C 0.8338(5) 0.5349(4) 0.47370(17)
C20 C 0.8345(7) 0.6074(4) 0.50729(19)
H23 H 0.7640 0.6038 0.5232
H24 H 0.8402 0.6662 0.4946
H25 H 0.8998 0.5981 0.5254
C21 C 0.8324(6) 0.4326(4) 0.49036(18)
C22 C 0.8310(6) 0.4242(4) 0.53711(17)
H26 H 0.7602 0.4493 0.5478
H27 H 0.8960 0.4565 0.5486
H28 H 0.8361 0.3613 0.5447
C23 C 0.8265(6) 0.1835(4) 0.45768(18)
C24 C 0.8285(7) 0.1345(4) 0.49970(19)
H29 H 0.8989 0.1001 0.5021
H30 H 0.7629 0.0945 0.5016
H31 H 0.8248 0.1784 0.5218
C25 C 0.8276(6) 0.1176(4) 0.41869(19)
C26 C 0.8237(7) 0.0167(4) 0.4284(2)
H32 H 0.7524 0.0026 0.4425
H33 H 0.8882 0.0010 0.4459
H34 H 0.8280 -0.0173 0.4030
C27 C 0.8300(6) 0.1104(4) 0.30018(17)
C28 C 0.8307(6) 0.0084(4) 0.29332(19)
H35 H 0.9021 -0.0090 0.2801
H36 H 0.7664 -0.0082 0.2759
H37 H 0.8240 -0.0219 0.3197
C29 C 0.8330(6) 0.1692(4) 0.25816(17)
C30 C 0.8367(8) 0.1163(4) 0.2179(2)
H38 H 0.7666 0.0816 0.2150
H39 H 0.9023 0.0762 0.2181
H40 H 0.8434 0.1577 0.1949
C31 C 0.6613(7) 0.4469(4) 0.25592(17)
C32 C 0.6859(6) 0.6062(4) 0.27541(18)
H41 H 0.7051 0.6566 0.2572
H42 H 0.6018 0.6031 0.2770
C33 C 0.6669(9) 0.6026(3) 0.35114(16)
C34 C 0.6828(8) 0.6192(4) 0.42746(17)
H43 H 0.5989 0.6149 0.4261
H44 H 0.7019 0.6721 0.4440
C35 C 0.6630(7) 0.4600(4) 0.44880(17)
C36 C 0.6811(7) 0.3062(4) 0.47892(19)
H45 H 0.7005 0.2894 0.5073
H46 H 0.5970 0.3079 0.4770
C37 C 0.6614(6) 0.2156(4) 0.41567(19)
C38 C 0.6759(10) 0.1061(4) 0.35879(17)
H47 H 0.5924 0.1146 0.3585
H48 H 0.6909 0.0414 0.3600
C39 C 0.6607(6) 0.2032(3) 0.29700(17)
C40 C 0.6855(6) 0.2895(4) 0.2314(2)
H49 H 0.7074 0.2674 0.2041
H50 H 0.6014 0.2909 0.2326
O11 O 0.9236(7) 0.3873(6) 0.3540(3)
O15 O 0.7177(7) -0.3349(5) -0.0038(2)
O16 O 0.6869(8) 0.3856(4) 0.35178(17)
O17 O 0.8115(7) 0.1920(4) 0.12553(18)
O18 O -0.0341(7) -0.3397(5) -0.0071(3)
O19 O 0.7381(8) -0.4262(6) 0.0745(2)
O20 O -0.0229(9) -0.4491(6) 0.0661(4)
O21 O -0.0078(7) -0.1222(4) 0.1476(2)
N21 N 0.0522(6) 0.3296(6) 0.1015(3)
O22 O -0.0081(10) 0.2764(7) 0.0817(3)
O23 O 0.0932(9) 0.3942(8) 0.0827(7)
O24 O 0.0665(9) 0.3048(11) 0.1369(3)
N22 N 0.6090(7) 0.3574(10) 0.1000(4)
O25 O 0.5889(9) 0.4265(9) 0.0790(5)
O26 O 0.6416(7) 0.2918(7) 0.0807(3)
O27 O 0.5918(10) 0.3661(16) 0.1349(4)
loop_
_geom_bond_atom_site_label_1
_geom_bond_atom_site_label_2
_geom_bond_site_symmetry_1
_geom_bond_site_symmetry_2
Ba1 O1 1_555 1_555
O1 C1 1_555 1_555
O2 Ba1 1_555 1_555
O3 Ba1 1_555 1_555
O4 Ba1 1_555 1_555
O5 Ba1 1_555 1_555
O6 C31 1_555 1_555
O7 C33 1_555 1_555
O8 C35 1_555 1_555
O9 C37 1_555 1_555
O10 C39 1_555 1_555
O12 Ba1 1_555 1_555
O13 Ba1 1_555 1_555
O14 Ba1 1_555 1_555
N1 C1 1_555 1_555
N2 C2 1_555 1_555
N3 C3 1_555 1_555
N4 C4 1_555 1_555
N5 C5 1_555 1_555
N6 C6 1_555 1_555
N7 C7 1_555 1_555
N8 C8 1_555 1_555
N9 C9 1_555 1_555
N10 C1 1_555 1_555
N11 C13 1_555 1_555
N12 C15 1_555 1_555
N13 C17 1_555 1_555
N14 C19 1_555 1_555
N15 C21 1_555 1_555
N16 C23 1_555 1_555
N17 C25 1_555 1_555
N18 C27 1_555 1_555
N19 C29 1_555 1_555
N20 C11 1_555 1_555
C2 N1 1_555 1_555
H1 C2 1_555 1_555
H2 C2 1_555 1_555
C3 O2 1_555 1_555
C4 N3 1_555 1_555
H3 C4 1_555 1_555
H4 C4 1_555 1_555
C5 O3 1_555 1_555
C6 N5 1_555 1_555
H5 C6 1_555 1_555
H6 C6 1_555 1_555
C7 O4 1_555 1_555
C8 N7 1_555 1_555
H7 C8 1_555 1_555
H8 C8 1_555 1_555
C9 O5 1_555 1_555
C10 N9 1_555 1_555
H9 C10 1_555 1_555
H10 C10 1_555 1_555
C11 N10 1_555 1_555
C12 C11 1_555 1_555
H11 C12 1_555 1_555
H12 C12 1_555 1_555
H13 C12 1_555 1_555
C13 N1 1_555 1_555
C14 C13 1_555 1_555
H14 C14 1_555 1_555
H15 C14 1_555 1_555
H16 C14 1_555 1_555
C15 N2 1_555 1_555
C16 C15 1_555 1_555
H17 C16 1_555 1_555
H18 C16 1_555 1_555
H19 C16 1_555 1_555
C17 N3 1_555 1_555
C18 C17 1_555 1_555
H20 C18 1_555 1_555
H21 C18 1_555 1_555
H22 C18 1_555 1_555
C19 N4 1_555 1_555
C20 C19 1_555 1_555
H23 C20 1_555 1_555
H24 C20 1_555 1_555
H25 C20 1_555 1_555
C21 N5 1_555 1_555
C22 C21 1_555 1_555
H26 C22 1_555 1_555
H27 C22 1_555 1_555
H28 C22 1_555 1_555
C23 N6 1_555 1_555
C24 C23 1_555 1_555
H29 C24 1_555 1_555
H30 C24 1_555 1_555
H31 C24 1_555 1_555
C25 N7 1_555 1_555
C26 C25 1_555 1_555
H32 C26 1_555 1_555
H33 C26 1_555 1_555
H34 C26 1_555 1_555
C27 N8 1_555 1_555
C28 C27 1_555 1_555
H35 C28 1_555 1_555
H36 C28 1_555 1_555
H37 C28 1_555 1_555
C29 N9 1_555 1_555
C30 C29 1_555 1_555
H38 C30 1_555 1_555
H39 C30 1_555 1_555
H40 C30 1_555 1_555
C31 N11 1_555 1_555
C32 N11 1_555 1_555
H41 C32 1_555 1_555
H42 C32 1_555 1_555
C33 N12 1_555 1_555
C34 N13 1_555 1_555
H43 C34 1_555 1_555
H44 C34 1_555 1_555
C35 N14 1_555 1_555
C36 N15 1_555 1_555
H45 C36 1_555 1_555
H46 C36 1_555 1_555
C37 N16 1_555 1_555
C38 N17 1_555 1_555
H47 C38 1_555 1_555
H48 C38 1_555 1_555
C39 N18 1_555 1_555
C40 N19 1_555 1_555
H49 C40 1_555 1_555
H50 C40 1_555 1_555
N21 O22 1_555 1_555
O23 N21 1_555 1_555
O24 N21 1_555 1_555
N22 O25 1_555 1_555
O26 N22 1_555 1_555
O27 N22 1_555 1_555
N2 C3 1_555 1_555
N4 C5 1_555 1_555
N6 C7 1_555 1_555
N8 C9 1_555 1_555
N10 C10 1_555 1_555
N12 C32 1_555 1_555
N13 C33 1_555 1_555
N14 C34 1_555 1_555
N15 C35 1_555 1_555
N16 C36 1_555 1_555
N17 C37 1_555 1_555
N18 C38 1_555 1_555
N19 C39 1_555 1_555
N20 C31 1_555 1_555
N20 C40 1_555 1_555
C11 C13 1_555 1_555
C15 C17 1_555 1_555
C19 C21 1_555 1_555
C23 C25 1_555 1_555
C27 C29 1_555 1_555

#END
