
#######################################################################
#
#                 Cambridge Crystallographic Data Centre
#                                CCDC 
#
#######################################################################
#
# If this CIF has been generated from an entry in the Cambridge 
# Structural Database, then it will include bibliographic, chemical, 
# crystal, experimental, refinement or atomic coordinate data resulting 
# from the CCDC's data processing and validation procedures.
#
#######################################################################

data_HEDMEJ
_chemical_name_common            
"Aqua-(N-(3,5-dibromosalicylidene)taurine-O,O')-(1,10-phenanthroline-N,N')-magnesium monohydrate"
_chemical_formula_moiety         'C21 H17 Br2 Mg1 N3 O5 S1,H2 O1'
_chemical_name_systematic        
"Aqua-(N-(3,5-dibromosalicylidene)-2-aminoethanesulfonato-O,O')-(1,10-phenanthroline-N,N')-magnesium monohydrate"
_symmetry_cell_setting           monoclinic
_symmetry_space_group_name_H-M   'P 21/c'
_symmetry_Int_Tables_number      14
_space_group_name_Hall           '-P 2ybc'
loop_
_symmetry_equiv_pos_site_id
_symmetry_equiv_pos_as_xyz
1 x,y,z
2 -x,1/2+y,1/2-z
3 -x,-y,-z
4 x,1/2-y,1/2+z
_cell_length_a                   18.142(3)
_cell_length_b                   8.1475(14)
_cell_length_c                   16.417(3)
_cell_angle_alpha                90
_cell_angle_beta                 90.571(4)
_cell_angle_gamma                90
_cell_volume                     2426.51
_exptl_crystal_colour            colorless
_exptl_crystal_description       block
_cell_formula_units_Z            4
loop_
_atom_site_label
_atom_site_type_symbol
_atom_site_fract_x
_atom_site_fract_y
_atom_site_fract_z
Mg1 Mg 0.22839(7) 1.03217(17) 0.12090(8)
Br1 Br 0.40602(2) 0.89569(5) -0.01474(2)
Br2 Br 0.33284(2) 0.83206(5) -0.34679(2)
S1 S 0.08462(5) 1.34954(11) 0.10244(5)
O1 O 0.12786(16) 0.8572(3) 0.1005(2)
H1 H 0.1295 0.7523 0.0932
H2 H 0.0893 0.8746 0.1299
O3 O 0.26010(12) 1.0831(3) -0.01260(13)
O4 O 0.15527(14) 1.2680(3) 0.10688(15)
O5 O 0.09028(15) 1.5224(3) 0.08621(17)
O6 O 0.03840(18) 1.3140(4) 0.17237(17)
N1 N 0.14180(14) 1.2153(3) -0.07402(16)
N2 N 0.33994(17) 1.1398(3) 0.18724(17)
N3 N 0.23342(16) 0.9728(4) 0.27029(17)
C1 C 0.22965(17) 1.0699(4) -0.15333(19)
C2 C 0.27602(17) 1.0348(4) -0.08435(18)
C3 C 0.34042(17) 0.9429(4) -0.10199(18)
C4 C 0.35616(17) 0.8857(4) -0.17758(19)
H5 H 0.3985 0.8237 -0.1858
C5 C 0.30863(18) 0.9202(4) -0.24320(18)
C6 C 0.24685(18) 1.0104(4) -0.23262(19)
H6 H 0.2159 1.0335 -0.2766
C7 C 0.16361(18) 1.1581(4) -0.1438(2)
H7 H 0.1341 1.1764 -0.1896
C8 C 0.07221(18) 1.3033(5) -0.0632(2)
H8 H 0.0385 1.2744 -0.1071
H9 H 0.0812 1.4204 -0.0661
C9 C 0.03695(18) 1.2629(5) 0.0177(2)
H10 H 0.0353 1.1446 0.0242
H11 H -0.0134 1.3029 0.0172
C10 C 0.3911(2) 1.2242(5) 0.1489(2)
H12 H 0.3861 1.2373 0.0928
C11 C 0.4518(2) 1.2944(5) 0.1872(3)
H13 H 0.4857 1.3545 0.1574
C12 C 0.4610(2) 1.2743(5) 0.2684(3)
H14 H 0.5016 1.3204 0.2948
C13 C 0.4097(2) 1.1844(4) 0.3122(2)
C14 C 0.4161(2) 1.1536(5) 0.3981(3)
H15 H 0.4565 1.1945 0.4270
C15 C 0.3647(3) 1.0667(6) 0.4375(2)
H16 H 0.3708 1.0469 0.4930
C16 C 0.3020(2) 1.0050(4) 0.3972(2)
C17 C 0.2460(3) 0.9141(5) 0.4367(2)
H17 H 0.2491 0.8964 0.4926
C18 C 0.1885(2) 0.8534(5) 0.3943(2)
H18 H 0.1526 0.7911 0.4199
C19 C 0.1840(2) 0.8861(5) 0.3105(2)
H19 H 0.1439 0.8444 0.2815
C20 C 0.29249(19) 1.0293(4) 0.3124(2)
C21 C 0.34921(19) 1.1207(4) 0.2689(2)
O2 O -0.00811(19) 1.4794(4) 0.30977(19)
H3 H -0.0179 1.5832 0.3103
H4 H 0.0068 1.4579 0.2611
loop_
_geom_bond_atom_site_label_1
_geom_bond_atom_site_label_2
_geom_bond_site_symmetry_1
_geom_bond_site_symmetry_2
Mg1 O1 1_555 1_555
Br1 C3 1_555 1_555
Br2 C5 1_555 1_555
S1 O4 1_555 1_555
O1 H1 1_555 1_555
H2 O1 1_555 1_555
O2 H3 1_555 1_555
H4 O2 1_555 1_555
O3 Mg1 1_555 1_555
O4 Mg1 1_555 1_555
O5 S1 1_555 1_555
O6 S1 1_555 1_555
N1 C7 1_555 1_555
N2 Mg1 1_555 1_555
N3 Mg1 1_555 1_555
C1 C2 1_555 1_555
C2 O3 1_555 1_555
C3 C2 1_555 1_555
C4 C3 1_555 1_555
H5 C4 1_555 1_555
C5 C4 1_555 1_555
C6 C1 1_555 1_555
H6 C6 1_555 1_555
C7 C1 1_555 1_555
H7 C7 1_555 1_555
C8 N1 1_555 1_555
H8 C8 1_555 1_555
H9 C8 1_555 1_555
C9 S1 1_555 1_555
H10 C9 1_555 1_555
H11 C9 1_555 1_555
C10 N2 1_555 1_555
H12 C10 1_555 1_555
C11 C10 1_555 1_555
H13 C11 1_555 1_555
C12 C11 1_555 1_555
H14 C12 1_555 1_555
C13 C12 1_555 1_555
C14 C13 1_555 1_555
H15 C14 1_555 1_555
C15 C14 1_555 1_555
H16 C15 1_555 1_555
C16 C15 1_555 1_555
C17 C16 1_555 1_555
H17 C17 1_555 1_555
C18 C17 1_555 1_555
H18 C18 1_555 1_555
C19 N3 1_555 1_555
H19 C19 1_555 1_555
C20 N3 1_555 1_555
C21 N2 1_555 1_555
C5 C6 1_555 1_555
C8 C9 1_555 1_555
C13 C21 1_555 1_555
C16 C20 1_555 1_555
C18 C19 1_555 1_555
C20 C21 1_555 1_555

#END
