
#######################################################################
#
#                 Cambridge Crystallographic Data Centre
#                                CCDC 
#
#######################################################################
#
# If this CIF has been generated from an entry in the Cambridge 
# Structural Database, then it will include bibliographic, chemical, 
# crystal, experimental, refinement or atomic coordinate data resulting 
# from the CCDC's data processing and validation procedures.
#
#######################################################################

data_HEDNUC
_chemical_formula_moiety         'C20 H21 F2 N1 O2 S1'
_chemical_name_systematic        
2-{3-[(3,5-difluorophenyl)sulfonyl]cyclopentyl}-1,2,3,4-tetrahydroisoquinoline
_symmetry_cell_setting           monoclinic
_symmetry_space_group_name_H-M   'C 2'
_symmetry_Int_Tables_number      5
_space_group_name_Hall           'C 2y'
loop_
_symmetry_equiv_pos_site_id
_symmetry_equiv_pos_as_xyz
1 x,y,z
2 -x,y,-z
3 1/2+x,1/2+y,z
4 1/2-x,1/2+y,-z
_cell_length_a                   63.0604(12)
_cell_length_b                   6.02030(10)
_cell_length_c                   9.4894(2)
_cell_angle_alpha                90
_cell_angle_beta                 98.1230(10)
_cell_angle_gamma                90
_cell_volume                     3566.44
_exptl_crystal_colour            colorless
_exptl_crystal_description       Block
_cell_formula_units_Z            8
loop_
_atom_site_label
_atom_site_type_symbol
_atom_site_fract_x
_atom_site_fract_y
_atom_site_fract_z
S1 S 0.83158(2) 0.69364(13) 0.72926(7)
F1 F 0.77977(3) 1.0487(4) 1.0233(2)
F2 F 0.76041(4) 0.3594(4) 0.8132(2)
O1 O 0.83627(4) 0.9205(4) 0.6974(2)
O2 O 0.82948(4) 0.5329(5) 0.6163(2)
N1 N 0.90441(4) 0.3681(4) 0.8077(3)
C1 C 0.85160(5) 0.6064(5) 0.8706(3)
H1 H 0.8511 0.7039 0.9555
C2 C 0.87398(5) 0.6245(5) 0.8209(3)
H2 H 0.8730 0.7083 0.7305
H3 H 0.8842 0.7007 0.8937
C3 C 0.88100(5) 0.3840(5) 0.8004(3)
H4 H 0.8740 0.3278 0.7061
C4 C 0.87165(5) 0.2633(5) 0.9199(3)
H5 H 0.8710 0.1011 0.9028
H6 H 0.8803 0.2924 1.0134
C5 C 0.84921(5) 0.3613(6) 0.9135(4)
H7 H 0.8441 0.3506 1.0073
H8 H 0.8389 0.2827 0.8419
C6 C 0.91121(5) 0.4909(5) 0.6880(3)
H9 H 0.9082 0.6508 0.6994
H10 H 0.9026 0.4399 0.5984
C7 C 0.93466(5) 0.4622(5) 0.6765(3)
C8 C 0.94660(5) 0.2901(6) 0.7459(3)
C9 C 0.93608(5) 0.1275(6) 0.8349(3)
H11 H 0.9406 0.1605 0.9369
H12 H 0.9409 -0.0248 0.8162
C10 C 0.91186(5) 0.1380(5) 0.8027(3)
H13 H 0.9071 0.0750 0.7071
H14 H 0.9055 0.0478 0.8732
C11 C 0.94425(5) 0.6099(6) 0.5902(3)
H15 H 0.9359 0.7246 0.5407
C12 C 0.96571(6) 0.5901(6) 0.5765(4)
H16 H 0.9721 0.6913 0.5185
C13 C 0.97775(6) 0.4218(7) 0.6480(4)
H17 H 0.9925 0.4082 0.6398
C14 C 0.96835(6) 0.2742(7) 0.7308(4)
H18 H 0.9768 0.1590 0.7789
C15 C 0.80729(5) 0.6949(6) 0.8045(3)
C16 C 0.80300(5) 0.8766(6) 0.8846(3)
H19 H 0.8127 0.9978 0.8999
C17 C 0.78408(5) 0.8754(7) 0.9415(4)
C18 C 0.76936(5) 0.7046(7) 0.9189(4)
H20 H 0.7563 0.7081 0.9581
C19 C 0.77447(5) 0.5300(7) 0.8375(4)
C20 C 0.79330(5) 0.5166(7) 0.7786(3)
H21 H 0.7965 0.3923 0.7235
S2 S 0.83634(2) 1.02034(12) 0.26506(7)
F3 F 0.77589(3) 1.0809(5) 0.5616(2)
F4 F 0.77714(4) 0.4499(4) 0.2741(3)
O3 O 0.83469(4) 1.2585(4) 0.2592(2)
O4 O 0.83906(4) 0.9039(4) 0.1364(2)
N2 N 0.91158(4) 0.9142(4) 0.2904(3)
C21 C 0.85748(5) 0.9443(5) 0.4023(3)
H22 H 0.8536 0.9857 0.4976
C22 C 0.87849(5) 1.0566(5) 0.3795(3)
H23 H 0.8883 1.0663 0.4703
H24 H 0.8758 1.2082 0.3408
C23 C 0.88800(5) 0.9089(5) 0.2729(3)
H25 H 0.8822 0.9564 0.1740
C24 C 0.87970(5) 0.6733(5) 0.2996(3)
H26 H 0.8735 0.6039 0.2084
H27 H 0.8916 0.5789 0.3449
C25 C 0.86245(5) 0.6962(6) 0.3981(3)
H28 H 0.8495 0.6113 0.3600
H29 H 0.8679 0.6405 0.4947
C26 C 0.91884(5) 0.7809(5) 0.1775(3)
H30 H 0.9112 0.8309 0.0845
H31 H 0.9149 0.6238 0.1906
C27 C 0.94251(5) 0.7946(5) 0.1738(3)
C28 C 0.95477(5) 0.9623(5) 0.2441(4)
C29 C 0.94435(5) 1.1346(6) 0.3278(3)
H32 H 0.9504 1.2828 0.3115
H33 H 0.9476 1.1008 0.4307
C30 C 0.92019(5) 1.1394(5) 0.2842(3)
H34 H 0.9135 1.2381 0.3491
H35 H 0.9168 1.1986 0.1863
C31 C 0.95204(6) 0.6398(6) 0.0935(4)
H36 H 0.9435 0.5270 0.0434
C32 C 0.97368(6) 0.6485(7) 0.0860(5)
H37 H 0.9800 0.5424 0.0308
C33 C 0.98619(7) 0.8119(8) 0.1589(5)
H38 H 1.0012 0.8164 0.1559
C34 C 0.97668(6) 0.9683(7) 0.2361(5)
H39 H 0.9852 1.0822 0.2846
C35 C 0.81303(5) 0.9168(5) 0.3259(3)
C36 C 0.80368(5) 1.0442(6) 0.4225(3)
H40 H 0.8096 1.1827 0.4561
C37 C 0.78548(5) 0.9610(6) 0.4672(4)
C38 C 0.77627(6) 0.7621(7) 0.4211(4)
H41 H 0.7637 0.7090 0.4544
C39 C 0.78611(5) 0.6434(6) 0.3245(4)
C40 C 0.80450(5) 0.7139(6) 0.2751(3)
H42 H 0.8111 0.6279 0.2093
loop_
_geom_bond_atom_site_label_1
_geom_bond_atom_site_label_2
_geom_bond_site_symmetry_1
_geom_bond_site_symmetry_2
S1 O1 1_555 1_555
F1 C17 1_555 1_555
F2 C19 1_555 1_555
O2 S1 1_555 1_555
N1 C3 1_555 1_555
C1 S1 1_555 1_555
H1 C1 1_555 1_555
C2 C1 1_555 1_555
H2 C2 1_555 1_555
H3 C2 1_555 1_555
C3 C2 1_555 1_555
H4 C3 1_555 1_555
C4 C3 1_555 1_555
H5 C4 1_555 1_555
H6 C4 1_555 1_555
C5 C1 1_555 1_555
H7 C5 1_555 1_555
H8 C5 1_555 1_555
C6 N1 1_555 1_555
H9 C6 1_555 1_555
H10 C6 1_555 1_555
C7 C6 1_555 1_555
C8 C7 1_555 1_555
C9 C8 1_555 1_555
H11 C9 1_555 1_555
H12 C9 1_555 1_555
C10 N1 1_555 1_555
H13 C10 1_555 1_555
H14 C10 1_555 1_555
C11 C7 1_555 1_555
H15 C11 1_555 1_555
C12 C11 1_555 1_555
H16 C12 1_555 1_555
C13 C12 1_555 1_555
H17 C13 1_555 1_555
C14 C8 1_555 1_555
H18 C14 1_555 1_555
C15 S1 1_555 1_555
C16 C15 1_555 1_555
H19 C16 1_555 1_555
C17 C16 1_555 1_555
C18 C17 1_555 1_555
H20 C18 1_555 1_555
C19 C18 1_555 1_555
C20 C15 1_555 1_555
H21 C20 1_555 1_555
S2 O3 1_555 1_555
F3 C37 1_555 1_555
F4 C39 1_555 1_555
O4 S2 1_555 1_555
N2 C23 1_555 1_555
C21 S2 1_555 1_555
H22 C21 1_555 1_555
C22 C21 1_555 1_555
H23 C22 1_555 1_555
H24 C22 1_555 1_555
C23 C22 1_555 1_555
H25 C23 1_555 1_555
C24 C23 1_555 1_555
H26 C24 1_555 1_555
H27 C24 1_555 1_555
C25 C21 1_555 1_555
H28 C25 1_555 1_555
H29 C25 1_555 1_555
C26 N2 1_555 1_555
H30 C26 1_555 1_555
H31 C26 1_555 1_555
C27 C26 1_555 1_555
C28 C27 1_555 1_555
C29 C28 1_555 1_555
H32 C29 1_555 1_555
H33 C29 1_555 1_555
C30 N2 1_555 1_555
H34 C30 1_555 1_555
H35 C30 1_555 1_555
C31 C27 1_555 1_555
H36 C31 1_555 1_555
C32 C31 1_555 1_555
H37 C32 1_555 1_555
C33 C32 1_555 1_555
H38 C33 1_555 1_555
C34 C28 1_555 1_555
H39 C34 1_555 1_555
C35 S2 1_555 1_555
C36 C35 1_555 1_555
H40 C36 1_555 1_555
C37 C36 1_555 1_555
C38 C37 1_555 1_555
H41 C38 1_555 1_555
C39 C38 1_555 1_555
C40 C35 1_555 1_555
H42 C40 1_555 1_555
C4 C5 1_555 1_555
C9 C10 1_555 1_555
C13 C14 1_555 1_555
C19 C20 1_555 1_555
C24 C25 1_555 1_555
C29 C30 1_555 1_555
C33 C34 1_555 1_555
C39 C40 1_555 1_555

#END
