
#######################################################################
#
#                 Cambridge Crystallographic Data Centre
#                                CCDC 
#
#######################################################################
#
# If this CIF has been generated from an entry in the Cambridge 
# Structural Database, then it will include bibliographic, chemical, 
# crystal, experimental, refinement or atomic coordinate data resulting 
# from the CCDC's data processing and validation procedures.
#
#######################################################################

data_HEDNIQ
_chemical_formula_moiety         'C12 H14 F2 O5 S2'
_chemical_name_systematic        
'3-[(3,5-difluorophenyl)sulfonyl]cyclopentyl methanesulfonate'
_symmetry_cell_setting           monoclinic
_symmetry_space_group_name_H-M   'P 21'
_symmetry_Int_Tables_number      4
_space_group_name_Hall           'P 2yb'
loop_
_symmetry_equiv_pos_site_id
_symmetry_equiv_pos_as_xyz
1 x,y,z
2 -x,1/2+y,-z
_cell_length_a                   9.6649(15)
_cell_length_b                   5.7972(9)
_cell_length_c                   25.224(4)
_cell_angle_alpha                90
_cell_angle_beta                 99.212(4)
_cell_angle_gamma                90
_cell_volume                     1395.06
_exptl_crystal_colour            colorless
_exptl_crystal_description       Block
_cell_formula_units_Z            4
loop_
_atom_site_label
_atom_site_type_symbol
_atom_site_fract_x
_atom_site_fract_y
_atom_site_fract_z
S1 S 0.21646(9) 0.65944(14) 0.70916(3)
S2 S 0.62382(9) 0.48641(16) 0.92190(3)
F1 F 0.2296(2) 0.1258(4) 0.55037(8)
F2 F 0.4974(2) 0.8039(5) 0.55908(8)
O1 O 0.5431(2) 0.5326(4) 0.86334(8)
O2 O 0.1037(2) 0.5046(5) 0.71612(9)
O3 O 0.1896(3) 0.9045(4) 0.70778(10)
O4 O 0.5983(3) 0.2554(4) 0.93776(9)
O5 O 0.7654(2) 0.5539(5) 0.92036(9)
C1 C 0.3624(3) 0.6050(6) 0.76048(12)
H1 H 0.438365 0.719138 0.757499
C2 C 0.3149(4) 0.6300(7) 0.81612(13)
H2 H 0.338637 0.784444 0.831717
H3 H 0.212760 0.604484 0.813449
C3 C 0.3975(4) 0.4424(6) 0.84931(13)
H4 H 0.355667 0.400270 0.881785
C4 C 0.3981(4) 0.2435(6) 0.81111(13)
H5 H 0.307815 0.159587 0.806584
H6 H 0.474895 0.134495 0.824151
C5 C 0.4211(4) 0.3567(6) 0.75801(13)
H7 H 0.369994 0.271624 0.726867
H8 H 0.522010 0.360205 0.755070
C6 C 0.2753(4) 0.5811(7) 0.64836(13)
C7 C 0.2286(4) 0.3753(7) 0.62369(14)
H9 H 0.166776 0.275964 0.638609
C8 C 0.2763(4) 0.3216(7) 0.57645(13)
C9 C 0.3675(4) 0.4604(8) 0.55420(14)
H10 H 0.399910 0.418254 0.521928
C10 C 0.4097(4) 0.6624(8) 0.58056(14)
C11 C 0.3648(4) 0.7284(7) 0.62754(13)
H11 H 0.394491 0.869554 0.644838
C12 C 0.5468(4) 0.6821(7) 0.96119(14)
H12 H 0.586873 0.660757 0.999084
H13 H 0.445465 0.655285 0.956303
H14 H 0.564996 0.839913 0.950187
S3 S 0.28019(9) 0.33918(15) 0.29409(3)
S4 S -0.12298(9) 0.59072(16) 0.08546(3)
F3 F -0.0098(2) 0.2522(5) 0.44307(8)
F4 F 0.2693(3) 0.9152(4) 0.44501(9)
O6 O -0.0542(2) 0.5332(4) 0.14496(9)
O7 O 0.3096(3) 0.0967(5) 0.30145(9)
O8 O 0.3931(2) 0.4893(5) 0.28473(9)
O9 O -0.2632(2) 0.5068(5) 0.08139(9)
O10 O -0.1016(3) 0.8282(5) 0.07493(10)
C13 C 0.1389(4) 0.3663(6) 0.23968(13)
H15 H 0.061754 0.257641 0.244779
C14 C 0.0807(4) 0.6140(7) 0.23148(13)
H16 H -0.013484 0.625786 0.241940
H17 H 0.144045 0.726357 0.252684
C15 C 0.0739(4) 0.6549(7) 0.17138(14)
H18 H 0.073579 0.822506 0.162016
C16 C 0.2020(4) 0.5316(7) 0.15891(14)
H19 H 0.288471 0.618213 0.172856
H20 H 0.196875 0.508819 0.119742
C17 C 0.1975(4) 0.3032(7) 0.18765(13)
H21 H 0.292417 0.235158 0.196303
H22 H 0.135142 0.192546 0.165481
C18 C 0.2165(4) 0.4426(6) 0.35199(13)
C19 C 0.1233(3) 0.3041(7) 0.37407(13)
H23 H 0.090847 0.161458 0.358209
C20 C 0.0805(4) 0.3844(8) 0.42015(14)
C21 C 0.1247(4) 0.5894(8) 0.44441(14)
H24 H 0.092076 0.640852 0.475962
C22 C 0.2192(4) 0.7175(7) 0.42073(15)
C23 C 0.2654(4) 0.6509(7) 0.37424(13)
H25 H 0.328132 0.743949 0.358131
C24 C -0.0354(4) 0.4169(8) 0.04454(15)
H26 H 0.061689 0.469872 0.046811
H27 H -0.082835 0.427301 0.007260
H28 H -0.036025 0.256404 0.056706
loop_
_geom_bond_atom_site_label_1
_geom_bond_atom_site_label_2
_geom_bond_site_symmetry_1
_geom_bond_site_symmetry_2
S1 O2 1_555 1_555
S2 O1 1_555 1_555
F1 C8 1_555 1_555
F2 C10 1_555 1_555
O1 C3 1_555 1_555
O3 S1 1_555 1_555
O4 S2 1_555 1_555
O5 S2 1_555 1_555
C1 S1 1_555 1_555
H1 C1 1_555 1_555
C2 C1 1_555 1_555
H2 C2 1_555 1_555
H3 C2 1_555 1_555
C3 C2 1_555 1_555
H4 C3 1_555 1_555
C4 C3 1_555 1_555
H5 C4 1_555 1_555
H6 C4 1_555 1_555
C5 C1 1_555 1_555
H7 C5 1_555 1_555
H8 C5 1_555 1_555
C6 S1 1_555 1_555
C7 C6 1_555 1_555
H9 C7 1_555 1_555
C8 C7 1_555 1_555
C9 C8 1_555 1_555
H10 C9 1_555 1_555
C10 C9 1_555 1_555
C11 C6 1_555 1_555
H11 C11 1_555 1_555
C12 S2 1_555 1_555
H12 C12 1_555 1_555
H13 C12 1_555 1_555
H14 C12 1_555 1_555
S3 O7 1_555 1_555
S4 O6 1_555 1_555
F3 C20 1_555 1_555
F4 C22 1_555 1_555
O6 C15 1_555 1_555
O8 S3 1_555 1_555
O9 S4 1_555 1_555
O10 S4 1_555 1_555
C13 S3 1_555 1_555
H15 C13 1_555 1_555
C14 C13 1_555 1_555
H16 C14 1_555 1_555
H17 C14 1_555 1_555
C15 C14 1_555 1_555
H18 C15 1_555 1_555
C16 C15 1_555 1_555
H19 C16 1_555 1_555
H20 C16 1_555 1_555
C17 C13 1_555 1_555
H21 C17 1_555 1_555
H22 C17 1_555 1_555
C18 S3 1_555 1_555
C19 C18 1_555 1_555
H23 C19 1_555 1_555
C20 C19 1_555 1_555
C21 C20 1_555 1_555
H24 C21 1_555 1_555
C22 C21 1_555 1_555
C23 C18 1_555 1_555
H25 C23 1_555 1_555
C24 S4 1_555 1_555
H26 C24 1_555 1_555
H27 C24 1_555 1_555
H28 C24 1_555 1_555
C4 C5 1_555 1_555
C10 C11 1_555 1_555
C16 C17 1_555 1_555
C22 C23 1_555 1_555

#END
