
#######################################################################
#
#                 Cambridge Crystallographic Data Centre
#                                CCDC 
#
#######################################################################
#
# If this CIF has been generated from an entry in the Cambridge 
# Structural Database, then it will include bibliographic, chemical, 
# crystal, experimental, refinement or atomic coordinate data resulting 
# from the CCDC's data processing and validation procedures.
#
#######################################################################

data_HEDPAK
_chemical_formula_moiety         'C15 H15 F3 N2 O2 S1'
_chemical_name_systematic        
1-(3-{[4-(trifluoromethyl)phenyl]sulfonyl}cyclopentyl)-1H-pyrazole
_symmetry_cell_setting           monoclinic
_symmetry_space_group_name_H-M   'P 21'
_symmetry_Int_Tables_number      4
_space_group_name_Hall           'P 2yb'
loop_
_symmetry_equiv_pos_site_id
_symmetry_equiv_pos_as_xyz
1 x,y,z
2 -x,1/2+y,-z
_cell_length_a                   10.9261(7)
_cell_length_b                   5.0669(3)
_cell_length_c                   14.3346(9)
_cell_angle_alpha                90
_cell_angle_beta                 107.161(2)
_cell_angle_gamma                90
_cell_volume                     758.253
_exptl_crystal_colour            colorless
_exptl_crystal_description       plank
_cell_formula_units_Z            2
loop_
_atom_site_label
_atom_site_type_symbol
_atom_site_fract_x
_atom_site_fract_y
_atom_site_fract_z
S1 S 0.26849(5) 0.17557(12) 0.60557(4)
F1 F 0.56707(16) 1.0394(4) 0.94796(12)
F2 F 0.67939(16) 0.6921(4) 0.99627(11)
F3 F 0.71959(16) 0.9444(4) 0.88876(11)
O1 O 0.34250(18) -0.0383(3) 0.58303(13)
O2 O 0.15795(16) 0.1124(4) 0.63684(13)
N1 N 0.0901(2) 0.0891(5) 0.21467(16)
N2 N 0.04020(19) 0.3115(4) 0.24137(14)
C1 C 0.0111(3) 0.0347(6) 0.1264(2)
H1 H 0.0209 -0.1088 0.0888
C2 C -0.0878(2) 0.2177(6) 0.09707(19)
H2 H -0.1541 0.2201 0.0388
C3 C -0.0662(2) 0.3926(5) 0.17248(18)
H3 H -0.1155 0.5400 0.1758
C4 C 0.1028(2) 0.4372(5) 0.33443(17)
H4 H 0.0540 0.5961 0.3395
C5 C 0.1080(2) 0.2606(5) 0.42216(17)
H5 H 0.1271 0.0791 0.4101
H6 H 0.0282 0.2667 0.4388
C6 C 0.2178(2) 0.3864(5) 0.50211(16)
H7 H 0.1889 0.5548 0.5218
C7 C 0.3204(2) 0.4389(5) 0.45099(17)
H8 H 0.3703 0.2811 0.4499
H9 H 0.3777 0.5792 0.4833
C8 C 0.2431(2) 0.5206(5) 0.34724(17)
H10 H 0.2758 0.4327 0.2994
H11 H 0.2485 0.7099 0.3390
C9 C 0.3720(2) 0.3729(5) 0.69714(17)
C10 C 0.3216(2) 0.5282(5) 0.75661(17)
H12 H 0.2340 0.5281 0.7489
C11 C 0.4035(2) 0.6833(6) 0.82767(16)
H13 H 0.3714 0.7890 0.8681
C12 C 0.5342(2) 0.6799(6) 0.83809(15)
C13 C 0.5839(2) 0.5236(5) 0.77841(18)
H14 H 0.6715 0.5229 0.7862
C14 C 0.5023(2) 0.3695(5) 0.70743(18)
H15 H 0.5344 0.2644 0.6669
C15 C 0.6246(3) 0.8382(6) 0.91743(18)
loop_
_geom_bond_atom_site_label_1
_geom_bond_atom_site_label_2
_geom_bond_site_symmetry_1
_geom_bond_site_symmetry_2
S1 O1 1_555 1_555
F1 C15 1_555 1_555
F2 C15 1_555 1_555
F3 C15 1_555 1_555
O2 S1 1_555 1_555
N1 N2 1_555 1_555
N2 C3 1_555 1_555
C1 N1 1_555 1_555
H1 C1 1_555 1_555
C2 C1 1_555 1_555
H2 C2 1_555 1_555
C3 C2 1_555 1_555
H3 C3 1_555 1_555
C4 N2 1_555 1_555
H4 C4 1_555 1_555
C5 C4 1_555 1_555
H5 C5 1_555 1_555
H6 C5 1_555 1_555
C6 S1 1_555 1_555
H7 C6 1_555 1_555
C7 C6 1_555 1_555
H8 C7 1_555 1_555
H9 C7 1_555 1_555
C8 C4 1_555 1_555
H10 C8 1_555 1_555
H11 C8 1_555 1_555
C9 S1 1_555 1_555
C10 C9 1_555 1_555
H12 C10 1_555 1_555
C11 C10 1_555 1_555
H13 C11 1_555 1_555
C12 C11 1_555 1_555
C13 C12 1_555 1_555
H14 C13 1_555 1_555
C14 C9 1_555 1_555
H15 C14 1_555 1_555
C15 C12 1_555 1_555
C5 C6 1_555 1_555
C7 C8 1_555 1_555
C13 C14 1_555 1_555

#END
