
#######################################################################
#
#                 Cambridge Crystallographic Data Centre
#                                CCDC 
#
#######################################################################
#
# If this CIF has been generated from an entry in the Cambridge 
# Structural Database, then it will include bibliographic, chemical, 
# crystal, experimental, refinement or atomic coordinate data resulting 
# from the CCDC's data processing and validation procedures.
#
#######################################################################

data_HEDPEM
_chemical_formula_moiety         'C22 H25 N1 O1'
_chemical_name_systematic        
1-(Dimethylaminomethyl)-3-(4-methoxybenzylidene)-2-phenylcyclopentene
_chemical_properties_biological  
'moderate cytotoxic activity against cancer cell line MAC13 and weak cytotoxic activity against cancer cell line MAC16'
_symmetry_cell_setting           triclinic
_symmetry_space_group_name_H-M   'P -1'
_symmetry_Int_Tables_number      2
_space_group_name_Hall           '-P 1'
loop_
_symmetry_equiv_pos_site_id
_symmetry_equiv_pos_as_xyz
1 x,y,z
2 -x,-y,-z
_cell_length_a                   8.3290(18)
_cell_length_b                   10.1207(12)
_cell_length_c                   12.0593(11)
_cell_angle_alpha                96.750(9)
_cell_angle_beta                 100.873(12)
_cell_angle_gamma                111.989(12)
_cell_volume                     905.695
_exptl_crystal_colour            colorless
_exptl_crystal_description       tabular
_chemical_melting_point          '100-102 deg.C'
_cell_formula_units_Z            2
loop_
_atom_site_label
_atom_site_type_symbol
_atom_site_fract_x
_atom_site_fract_y
_atom_site_fract_z
O1 O 0.30303(18) 0.07715(13) 0.22340(10)
N1 N 0.31929(19) -0.72385(13) 0.77392(12)
C1 C 0.2153(2) -0.55494(16) 0.68385(13)
C2 C 0.20976(19) -0.42305(15) 0.69974(12)
C3 C 0.24006(19) -0.35506(16) 0.59977(12)
C4 C 0.2757(2) -0.45858(17) 0.51657(14)
H1 H 0.3974 -0.4148 0.5090
H2 H 0.1940 -0.4833 0.4410
C5 C 0.2464(2) -0.59418(17) 0.56819(14)
H3 H 0.1434 -0.6775 0.5198
H4 H 0.3508 -0.6168 0.5766
C6 C 0.1869(2) -0.66058(17) 0.76293(15)
H5 H 0.1934 -0.6110 0.8386
H6 H 0.0681 -0.7381 0.7337
C7 C 0.2685(3) -0.8428(2) 0.8345(2)
H7 H 0.2711 -0.8057 0.9121
H8 H 0.3509 -0.8885 0.8358
H9 H 0.1499 -0.9128 0.7955
C8 C 0.4964(3) -0.6146(2) 0.8313(2)
H10 H 0.4973 -0.5737 0.9075
H11 H 0.5286 -0.5389 0.7881
H12 H 0.5810 -0.6585 0.8364
C9 C 0.1723(2) -0.35467(15) 0.80212(12)
C10 C 0.0164(2) -0.42573(16) 0.83526(13)
H13 H -0.0665 -0.5160 0.7918
C11 C -0.0171(2) -0.36412(18) 0.93190(14)
H14 H -0.1219 -0.4135 0.9532
C12 C 0.1032(2) -0.23054(18) 0.99680(13)
H15 H 0.0804 -0.1894 1.0619
C13 C 0.2576(2) -0.15811(18) 0.96479(14)
H16 H 0.3391 -0.0674 1.0084
C14 C 0.2926(2) -0.21879(17) 0.86848(14)
H17 H 0.3975 -0.1685 0.8477
C15 C 0.2308(2) -0.22774(16) 0.58741(13)
H18 H 0.2063 -0.1812 0.6491
C16 C 0.2531(2) -0.15054(15) 0.49229(13)
C17 C 0.3205(2) -0.18390(17) 0.40028(14)
H19 H 0.3562 -0.2608 0.3974
C18 C 0.3357(2) -0.10591(17) 0.31362(14)
H20 H 0.3813 -0.1309 0.2536
C19 C 0.2841(2) 0.00878(16) 0.31479(13)
C20 C 0.2194(2) 0.04602(17) 0.40499(14)
H21 H 0.1847 0.1234 0.4075
C21 C 0.2062(2) -0.03225(17) 0.49184(14)
H22 H 0.1639 -0.0046 0.5528
C22 C 0.2614(3) 0.2004(2) 0.22418(19)
H23 H 0.1379 0.1727 0.2243
H24 H 0.2825 0.2390 0.1568
H25 H 0.3356 0.2733 0.2920
loop_
_geom_bond_atom_site_label_1
_geom_bond_atom_site_label_2
_geom_bond_site_symmetry_1
_geom_bond_site_symmetry_2
O1 C19 1_555 1_555
N1 C6 1_555 1_555
C1 C2 1_555 1_555
C2 C3 1_555 1_555
C3 C4 1_555 1_555
C4 H1 1_555 1_555
H2 C4 1_555 1_555
C5 C1 1_555 1_555
H3 C5 1_555 1_555
H4 C5 1_555 1_555
C6 C1 1_555 1_555
H5 C6 1_555 1_555
H6 C6 1_555 1_555
C7 N1 1_555 1_555
H7 C7 1_555 1_555
H8 C7 1_555 1_555
H9 C7 1_555 1_555
C8 N1 1_555 1_555
H10 C8 1_555 1_555
H11 C8 1_555 1_555
H12 C8 1_555 1_555
C9 C2 1_555 1_555
C10 C9 1_555 1_555
H13 C10 1_555 1_555
C11 C10 1_555 1_555
H14 C11 1_555 1_555
C12 C11 1_555 1_555
H15 C12 1_555 1_555
C13 C12 1_555 1_555
H16 C13 1_555 1_555
C14 C9 1_555 1_555
H17 C14 1_555 1_555
C15 C3 1_555 1_555
H18 C15 1_555 1_555
C16 C15 1_555 1_555
C17 C16 1_555 1_555
H19 C17 1_555 1_555
C18 C17 1_555 1_555
H20 C18 1_555 1_555
C19 C18 1_555 1_555
C20 C19 1_555 1_555
H21 C20 1_555 1_555
C21 C16 1_555 1_555
H22 C21 1_555 1_555
C22 O1 1_555 1_555
H23 C22 1_555 1_555
H24 C22 1_555 1_555
H25 C22 1_555 1_555
C4 C5 1_555 1_555
C13 C14 1_555 1_555
C20 C21 1_555 1_555

#END
