
#######################################################################
#
#                 Cambridge Crystallographic Data Centre
#                                CCDC 
#
#######################################################################
#
# If this CIF has been generated from an entry in the Cambridge 
# Structural Database, then it will include bibliographic, chemical, 
# crystal, experimental, refinement or atomic coordinate data resulting 
# from the CCDC's data processing and validation procedures.
#
#######################################################################

data_HEDQEP
_chemical_formula_moiety         'C12 H11 F3 O2 S1'
_chemical_name_systematic        
(1R,4R)-1-((4-(trifluoromethyl)phenyl)sulfonyl)bicyclo[2.1.0]pentane
_symmetry_cell_setting           triclinic
_symmetry_space_group_name_H-M   'P 1'
_symmetry_Int_Tables_number      1
_space_group_name_Hall           'P 1'
loop_
_symmetry_equiv_pos_site_id
_symmetry_equiv_pos_as_xyz
1 x,y,z
_cell_length_a                   7.925(3)
_cell_length_b                   8.141(3)
_cell_length_c                   10.592(3)
_cell_angle_alpha                104.921(9)
_cell_angle_beta                 109.227(7)
_cell_angle_gamma                99.411(16)
_cell_volume                     599.96
_cell_formula_units_Z            2
loop_
_atom_site_label
_atom_site_type_symbol
_atom_site_fract_x
_atom_site_fract_y
_atom_site_fract_z
S1 S 0.13760(12) -0.61140(11) -0.18575(9)
O1 O 0.1578(4) -0.4673(4) -0.0649(3)
C1 C -0.0948(6) -0.6757(5) -0.3091(4)
F1 F -0.7680(3) -0.9373(4) -0.5601(3)
C2 C -0.2353(6) -0.6840(5) -0.2570(4)
H1 H -0.2069(6) -0.6530(5) -0.1581(4)
F2 F -0.7245(4) -0.7112(4) -0.6258(3)
O2 O 0.2549(4) -0.5875(4) -0.2618(3)
F3 F -0.6777(4) -0.9518(4) -0.7307(3)
C3 C -0.1328(6) -0.7187(5) -0.4526(4)
H2 H -0.0339(6) -0.7109(5) -0.4845(4)
C4 C 0.1618(6) -0.7943(5) -0.1335(4)
C5 C 0.0981(6) -0.8320(6) -0.0221(5)
H3 H 0.0543(6) -0.7405(6) 0.0302(5)
H4 H 0.0298(6) -0.9550(6) -0.0417(5)
C6 C 0.2025(7) -0.9563(6) -0.2147(5)
H5 H 0.0953(7) -1.0628(6) -0.2617(5)
H6 H 0.2590(7) -0.9348(6) -0.2816(5)
C7 C -0.4587(6) -0.7853(5) -0.5000(4)
C8 C -0.6530(7) -0.8439(6) -0.6021(5)
C9 C -0.4189(6) -0.7393(5) -0.3550(4)
H7 H -0.5175(6) -0.7457(5) -0.3227(4)
C10 C -0.3144(6) -0.7729(5) -0.5492(4)
H8 H -0.3415(6) -0.8015(5) -0.6479(4)
C11 C 0.3012(6) -0.7943(7) 0.0107(5)
H9 H 0.3966(6) -0.6871(7) 0.0862(5)
C12 C 0.3456(6) -0.9529(6) -0.0708(5)
H10 H 0.3132(6) -1.0600(6) -0.0464(5)
H11 H 0.4754(6) -0.9280(6) -0.0642(5)
S2 S -1.17635(12) -0.47156(11) -0.79643(9)
F4 F -0.3494(4) -0.1122(4) -0.2650(3)
O3 O -1.2890(4) -0.5057(4) -0.7174(3)
F5 F -0.3046(4) -0.3520(4) -0.3706(4)
F6 F -0.2687(4) -0.1305(4) -0.4402(3)
O4 O -1.1909(4) -0.6143(4) -0.9173(3)
C13 C -0.6200(6) -0.3208(5) -0.6373(5)
H12 H -0.5241(6) -0.3074(5) -0.6721(5)
C14 C -0.7111(6) -0.2997(5) -0.4391(4)
H13 H -0.6783(6) -0.2747(5) -0.3400(4)
C15 C -0.5758(6) -0.2811(5) -0.4919(5)
C16 C -1.2251(7) -0.2967(6) -0.8549(5)
C17 C -0.8974(6) -0.3556(5) -0.5313(4)
H14 H -0.9929(6) -0.3665(5) -0.4960(4)
C18 C -1.2223(6) -0.1210(5) -0.7582(5)
H15 H -1.3455(6) -0.1119(5) -0.7584(5)
H16 H -1.1274(6) -0.0828(5) -0.6604(5)
C19 C -0.3723(6) -0.2186(6) -0.3917(5)
C20 C -0.8022(6) -0.3790(5) -0.7292(5)
H17 H -0.8335(6) -0.4081(5) -0.8284(5)
C21 C -1.1636(7) -0.2285(6) -0.9573(5)
H18 H -1.0679(7) -0.2585(6) -0.9948(5)
C22 C -1.3639(8) -0.3339(8) -1.0066(6)
H19 H -1.4034(8) -0.4559(8) -1.0741(6)
H20 H -1.4604(8) -0.2694(8) -1.0194(6)
C23 C -0.9411(5) -0.3953(5) -0.6769(4)
C24 C -1.1619(7) -0.0375(6) -0.8587(5)
H21 H -1.2542(7) 0.0157(6) -0.9098(5)
H22 H -1.0372(7) 0.0478(6) -0.8108(5)
loop_
_geom_bond_atom_site_label_1
_geom_bond_atom_site_label_2
_geom_bond_site_symmetry_1
_geom_bond_site_symmetry_2
S1 O1 1_555 1_555
C1 S1 1_555 1_555
F1 C8 1_555 1_555
C2 C1 1_555 1_555
H1 C2 1_555 1_555
F2 C8 1_555 1_555
O2 S1 1_555 1_555
F3 C8 1_555 1_555
C3 C1 1_555 1_555
H2 C3 1_555 1_555
C4 S1 1_555 1_555
C5 C4 1_555 1_555
H3 C5 1_555 1_555
H4 C5 1_555 1_555
C6 C4 1_555 1_555
H5 C6 1_555 1_555
H6 C6 1_555 1_555
C7 C8 1_555 1_555
C9 C2 1_555 1_555
H7 C9 1_555 1_555
C10 C3 1_555 1_555
H8 C10 1_555 1_555
C11 C4 1_555 1_555
H9 C11 1_555 1_555
C12 C6 1_555 1_555
H10 C12 1_555 1_555
H11 C12 1_555 1_555
S2 O3 1_555 1_555
F4 C19 1_555 1_555
F5 C19 1_555 1_555
F6 C19 1_555 1_555
O4 S2 1_555 1_555
C13 H12 1_555 1_555
C14 H13 1_555 1_555
C15 C13 1_555 1_555
C16 S2 1_555 1_555
C17 C14 1_555 1_555
H14 C17 1_555 1_555
C18 C16 1_555 1_555
H15 C18 1_555 1_555
H16 C18 1_555 1_555
C19 C15 1_555 1_555
C20 C13 1_555 1_555
H17 C20 1_555 1_555
C21 C16 1_555 1_555
H18 C21 1_555 1_555
C22 C16 1_555 1_555
H19 C22 1_555 1_555
H20 C22 1_555 1_555
C23 S2 1_555 1_555
C24 C18 1_555 1_555
H21 C24 1_555 1_555
H22 C24 1_555 1_555
C5 C11 1_555 1_555
C7 C9 1_555 1_555
C7 C10 1_555 1_555
C11 C12 1_555 1_555
C14 C15 1_555 1_555
C17 C23 1_555 1_555
C20 C23 1_555 1_555
C21 C22 1_555 1_555
C21 C24 1_555 1_555

#END
