
#######################################################################
#
#                 Cambridge Crystallographic Data Centre
#                                CCDC 
#
#######################################################################
#
# If this CIF has been generated from an entry in the Cambridge 
# Structural Database, then it will include bibliographic, chemical, 
# crystal, experimental, refinement or atomic coordinate data resulting 
# from the CCDC's data processing and validation procedures.
#
#######################################################################

data_HEDVEU
_chemical_formula_moiety         'C11 H14 B1 F2 N1 O2 S1'
_chemical_name_systematic        
(3-(t-butylamino)-3-oxo-1-(thiophen-2-yl)prop-1-en-1-olato)-difluoro-boron
_symmetry_cell_setting           orthorhombic
_symmetry_space_group_name_H-M   'P 21 21 21'
_symmetry_Int_Tables_number      19
_space_group_name_Hall           'P 2ac 2ab'
loop_
_symmetry_equiv_pos_site_id
_symmetry_equiv_pos_as_xyz
1 x,y,z
2 1/2-x,-y,1/2+z
3 -x,1/2+y,1/2-z
4 1/2+x,1/2-y,-z
_cell_length_a                   6.5025(4)
_cell_length_b                   10.8111(10)
_cell_length_c                   19.0001(13)
_cell_angle_alpha                90
_cell_angle_beta                 90
_cell_angle_gamma                90
_cell_volume                     1335.69
_exptl_crystal_colour            brown
_exptl_crystal_description       parallelepiped
_cell_formula_units_Z            4
loop_
_atom_site_label
_atom_site_type_symbol
_atom_site_fract_x
_atom_site_fract_y
_atom_site_fract_z
S1 S -0.26933(19) 0.22753(14) 0.22820(6)
F1 F -0.4848(4) 0.3369(2) 0.45925(13)
F2 F -0.4936(4) 0.5272(2) 0.40978(13)
O1 O -0.3014(4) 0.3739(3) 0.35526(14)
O2 O -0.1988(4) 0.4655(3) 0.46775(15)
N1 N 0.1283(5) 0.4482(3) 0.50584(17)
B1 B -0.3734(7) 0.4247(4) 0.4226(2)
C1 C -0.1097(8) 0.1569(5) 0.1714(3)
H1 H -0.1548 0.1191 0.1290
C2 C 0.0885(7) 0.1592(5) 0.1918(3)
H2 H 0.1952 0.1230 0.1646
C3 C 0.1281(6) 0.2206(4) 0.25836(17)
H3 H 0.2573 0.2306 0.2810
C4 C -0.0719(6) 0.2640(4) 0.2834(2)
C5 C -0.1121(6) 0.3288(4) 0.3494(2)
C6 C 0.0310(6) 0.3445(4) 0.3999(2)
H4 H 0.1615 0.3057 0.3956
C7 C -0.0134(6) 0.4189(4) 0.4597(2)
C8 C 0.1091(6) 0.5249(4) 0.5703(2)
C9 C -0.0394(7) 0.4629(5) 0.6218(2)
H5 H -0.0518 0.5138 0.6643
H6 H -0.1747 0.4543 0.5996
H7 H 0.0133 0.3809 0.6345
C10 C 0.0415(8) 0.6547(4) 0.5512(3)
H8 H 0.0293 0.7045 0.5942
H9 H 0.1434 0.6923 0.5198
H10 H -0.0921 0.6514 0.5274
C11 C 0.3257(7) 0.5272(5) 0.6018(2)
H11 H 0.3252 0.5767 0.6450
H12 H 0.3692 0.4426 0.6128
H13 H 0.4215 0.5638 0.5678
H14 H 0.253(7) 0.411(4) 0.501(2)
loop_
_geom_bond_atom_site_label_1
_geom_bond_atom_site_label_2
_geom_bond_site_symmetry_1
_geom_bond_site_symmetry_2
S1 C1 1_555 1_555
F1 B1 1_555 1_555
F2 B1 1_555 1_555
O1 B1 1_555 1_555
O2 B1 1_555 1_555
N1 C7 1_555 1_555
C1 H1 1_555 1_555
C2 C1 1_555 1_555
H2 C2 1_555 1_555
C3 C2 1_555 1_555
H3 C3 1_555 1_555
C4 S1 1_555 1_555
C5 O1 1_555 1_555
C6 C5 1_555 1_555
H4 C6 1_555 1_555
C7 O2 1_555 1_555
C8 N1 1_555 1_555
C9 C8 1_555 1_555
H5 C9 1_555 1_555
H6 C9 1_555 1_555
H7 C9 1_555 1_555
C10 C8 1_555 1_555
H8 C10 1_555 1_555
H9 C10 1_555 1_555
H10 C10 1_555 1_555
C11 C8 1_555 1_555
H11 C11 1_555 1_555
H12 C11 1_555 1_555
H13 C11 1_555 1_555
H14 N1 1_555 1_555
C3 C4 1_555 1_555
C4 C5 1_555 1_555
C6 C7 1_555 1_555

#END
