
#######################################################################
#
#                 Cambridge Crystallographic Data Centre
#                                CCDC 
#
#######################################################################
#
# If this CIF has been generated from an entry in the Cambridge 
# Structural Database, then it will include bibliographic, chemical, 
# crystal, experimental, refinement or atomic coordinate data resulting 
# from the CCDC's data processing and validation procedures.
#
#######################################################################

data_HEFCOM
_chemical_formula_moiety         'C18 H18 Br1 N1 O2'
_chemical_name_systematic        
'Ethyl 2-(((4-bromophenyl)amino)(phenyl)methyl)acrylate'
_symmetry_cell_setting           monoclinic
_symmetry_space_group_name_H-M   'C 2'
_symmetry_Int_Tables_number      5
_space_group_name_Hall           'C 2y'
loop_
_symmetry_equiv_pos_site_id
_symmetry_equiv_pos_as_xyz
1 x,y,z
2 -x,y,-z
3 1/2+x,1/2+y,z
4 1/2-x,1/2+y,-z
_cell_length_a                   23.271(4)
_cell_length_b                   7.4813(12)
_cell_length_c                   10.7855(18)
_cell_angle_alpha                90
_cell_angle_beta                 114.219(3)
_cell_angle_gamma                90
_cell_volume                     1712.46
_exptl_crystal_colour            colorless
_exptl_crystal_description       prismatic
_cell_formula_units_Z            4
loop_
_atom_site_label
_atom_site_type_symbol
_atom_site_fract_x
_atom_site_fract_y
_atom_site_fract_z
Br1 Br 0.741621(17) -0.10646(11) 1.11404(5)
N1 N 0.46401(11) -0.1079(4) 0.7418(3)
O1 O 0.41163(14) 0.5159(3) 0.7260(3)
O2 O 0.41340(11) 0.3727(3) 0.5467(2)
C1 C 0.43155(14) 0.0393(4) 0.6546(3)
H1 H 0.4559 0.0756 0.6032
C2 C 0.42644(14) 0.1994(4) 0.7361(3)
C3 C 0.42988(18) 0.1893(5) 0.8604(4)
H2 H 0.4261 0.2922 0.9049
H3 H 0.4361 0.0793 0.9041
C4 C 0.41646(13) 0.3795(4) 0.6717(3)
C5 C 0.36725(15) -0.0233(4) 0.5539(3)
C6 C 0.35113(17) -0.0192(5) 0.4162(4)
H4 H 0.3798 0.0258 0.3842
C7 C 0.29394(18) -0.0800(6) 0.3253(4)
H5 H 0.2839 -0.0747 0.2326
C8 C 0.25101(17) -0.1493(6) 0.3706(4)
H6 H 0.2123 -0.1921 0.3090
C9 C 0.26615(17) -0.1545(5) 0.5080(5)
H7 H 0.2378 -0.2017 0.5398
C10 C 0.32345(14) -0.0895(5) 0.5982(3)
H8 H 0.3329 -0.0901 0.6907
C11 C 0.52719(13) -0.1056(5) 0.8249(3)
C12 C 0.55472(17) -0.2490(5) 0.9135(4)
H9 H 0.5299 -0.3458 0.9147
C13 C 0.61727(19) -0.2485(6) 0.9978(4)
H10 H 0.6345 -0.3439 1.0567
C14 C 0.65473(14) -0.1088(7) 0.9963(3)
C15 C 0.62968(16) 0.0337(6) 0.9105(4)
H11 H 0.6553 0.1285 0.9095
C16 C 0.56614(16) 0.0354(5) 0.8259(4)
H12 H 0.5492 0.1326 0.7687
C17 C 0.4010(2) 0.5395(5) 0.4710(4)
H13 H 0.4307 0.6306 0.5233
H14 H 0.3587 0.5811 0.4517
C18 C 0.4078(3) 0.5040(7) 0.3427(5)
H15 H 0.4511 0.4779 0.3625
H16 H 0.3948 0.6074 0.2851
H17 H 0.3821 0.4038 0.2972
H18 H 0.4411(15) -0.189(4) 0.743(4)
loop_
_geom_bond_atom_site_label_1
_geom_bond_atom_site_label_2
_geom_bond_site_symmetry_1
_geom_bond_site_symmetry_2
Br1 C14 1_555 1_555
N1 C1 1_555 1_555
O1 C4 1_555 1_555
O2 C4 1_555 1_555
C1 H1 1_555 1_555
C2 C1 1_555 1_555
C3 C2 1_555 1_555
H2 C3 1_555 1_555
H3 C3 1_555 1_555
C4 C2 1_555 1_555
C5 C1 1_555 1_555
C6 C5 1_555 1_555
H4 C6 1_555 1_555
C7 C6 1_555 1_555
H5 C7 1_555 1_555
C8 C7 1_555 1_555
H6 C8 1_555 1_555
C9 C8 1_555 1_555
H7 C9 1_555 1_555
C10 C5 1_555 1_555
H8 C10 1_555 1_555
C11 N1 1_555 1_555
C12 C11 1_555 1_555
H9 C12 1_555 1_555
C13 C12 1_555 1_555
H10 C13 1_555 1_555
C14 C13 1_555 1_555
C15 C14 1_555 1_555
H11 C15 1_555 1_555
C16 C11 1_555 1_555
H12 C16 1_555 1_555
C17 O2 1_555 1_555
H13 C17 1_555 1_555
H14 C17 1_555 1_555
C18 C17 1_555 1_555
H15 C18 1_555 1_555
H16 C18 1_555 1_555
H17 C18 1_555 1_555
H18 N1 1_555 1_555
C9 C10 1_555 1_555
C15 C16 1_555 1_555

#END
