
#######################################################################
#
#                 Cambridge Crystallographic Data Centre
#                                CCDC 
#
#######################################################################
#
# If this CIF has been generated from an entry in the Cambridge 
# Structural Database, then it will include bibliographic, chemical, 
# crystal, experimental, refinement or atomic coordinate data resulting 
# from the CCDC's data processing and validation procedures.
#
#######################################################################

data_HEFGIL
_chemical_formula_moiety         'C20 H20 O8'
_chemical_name_systematic        
'trimethyl 1-(oxiran-2-yl)-8-oxo-1,2,3a,8-tetrahydrocyclopenta[a]indene-3,3,8a-tricarboxylate'
_symmetry_cell_setting           monoclinic
_symmetry_space_group_name_H-M   'P 21'
_symmetry_Int_Tables_number      4
_space_group_name_Hall           'P 2yb'
loop_
_symmetry_equiv_pos_site_id
_symmetry_equiv_pos_as_xyz
1 x,y,z
2 -x,1/2+y,-z
_cell_length_a                   10.17362(8)
_cell_length_b                   9.94225(7)
_cell_length_c                   17.93723(13)
_cell_angle_alpha                90
_cell_angle_beta                 94.8839(7)
_cell_angle_gamma                90
_cell_volume                     1807.74
_exptl_crystal_colour            colorless
_exptl_crystal_description       block
_cell_formula_units_Z            4
loop_
_atom_site_label
_atom_site_type_symbol
_atom_site_fract_x
_atom_site_fract_y
_atom_site_fract_z
O1 O 0.7981(3) 0.8304(3) 0.15502(14)
O2 O 0.9428(3) 0.8137(3) 0.25642(15)
O3 O 0.8300(3) 0.5297(3) 0.15959(15)
O4 O 0.6123(3) 0.6731(3) 0.48717(16)
O5 O 0.9314(3) 0.7024(3) 0.46780(15)
O6 O 0.6140(3) 0.5143(3) 0.17396(17)
O7 O 0.8638(3) 0.9113(3) 0.43993(18)
O8 O 0.4278(4) 0.8251(4) 0.3749(2)
C1 C 0.7998(3) 0.6203(3) 0.32531(18)
H1 H 0.8965 0.6202 0.3300
C2 C 0.8425(3) 0.7798(4) 0.22118(19)
C3 C 0.7130(4) 0.2467(4) 0.3433(2)
H2 H 0.7279 0.1628 0.3227
C4 C 0.6679(3) 0.4922(4) 0.40589(19)
C5 C 0.7714(4) 0.3593(4) 0.31512(19)
H3 H 0.8261 0.3515 0.2764
C6 C 0.7472(3) 0.4840(4) 0.34558(19)
C7 C 0.7456(3) 0.6751(4) 0.24663(18)
C8 C 0.7193(4) 0.5652(4) 0.1897(2)
C9 C 0.6104(4) 0.3792(4) 0.4347(2)
H4 H 0.5588 0.3863 0.4749
C10 C 0.8519(4) 0.7920(4) 0.4322(2)
C11 C 0.7455(4) 0.7212(4) 0.3820(2)
C12 C 0.6594(4) 0.8244(4) 0.3359(2)
H5 H 0.7182 0.8967 0.3221
C13 C 0.5517(4) 0.8895(4) 0.3771(2)
H6 H 0.5816 0.9314 0.4250
C14 C 0.6649(4) 0.6312(4) 0.4330(2)
C15 C 0.6311(4) 0.2571(4) 0.4029(2)
H7 H 0.5912 0.1806 0.4204
C16 C 0.6167(4) 0.7472(4) 0.2639(2)
H8 H 0.5862 0.8079 0.2238
H9 H 0.5475 0.6830 0.2719
C17 C 0.8737(5) 0.9419(4) 0.1290(2)
H10 H 0.8431 0.9629 0.0782
H11 H 0.9653 0.9177 0.1315
H12 H 0.8627 1.0190 0.1601
C18 C 1.0372(5) 0.7558(5) 0.5191(2)
H13 H 1.0916 0.8146 0.4925
H14 H 1.0898 0.6829 0.5405
H15 H 1.0001 0.8050 0.5583
C19 C 0.4410(5) 0.9537(5) 0.3364(3)
H16 H 0.4372 0.9530 0.2822
H17 H 0.4044 1.0333 0.3581
C20 C 0.8139(5) 0.4207(5) 0.1050(3)
H18 H 0.7385 0.4385 0.0705
H19 H 0.8013 0.3373 0.1304
H20 H 0.8914 0.4147 0.0781
O9 O 0.1726(3) 0.1627(3) 0.33590(14)
O10 O 0.3000(3) 0.4846(3) 0.35439(15)
O11 O 0.0947(3) 0.2719(4) 0.03622(16)
O12 O 0.0829(3) 0.4632(3) 0.32543(18)
O13 O 0.4131(4) 0.3662(4) 0.02497(17)
O14 O 0.5868(4) 0.0885(4) 0.1913(2)
O15 O 0.0640(4) 0.1650(5) 0.2222(2)
O16 O 0.2170(5) 0.0866(4) 0.0638(2)
C21 C 0.2369(4) 0.5296(4) 0.15850(19)
C22 C 0.1937(4) 0.3873(4) 0.17426(19)
H21 H 0.0990 0.3762 0.1603
C23 C 0.1954(4) 0.6501(4) 0.1894(2)
H22 H 0.1358 0.6495 0.2260
C24 C 0.2296(3) 0.3355(4) 0.25464(19)
C25 C 0.3492(4) 0.3981(4) 0.0760(2)
C26 C 0.2757(4) 0.2978(4) 0.1242(2)
C27 C 0.3736(3) 0.2933(4) 0.2542(2)
H23 H 0.4001 0.2355 0.2964
H24 H 0.4314 0.3710 0.2553
C28 C 0.3245(4) 0.5336(4) 0.1031(2)
C29 C 0.1443(4) 0.2125(4) 0.2676(2)
C30 C 0.1949(4) 0.4361(4) 0.3153(2)
C31 C 0.3339(5) 0.7736(5) 0.1104(3)
H25 H 0.3657 0.8558 0.0949
C32 C 0.3754(4) 0.2170(4) 0.1799(2)
H26 H 0.3399 0.1265 0.1865
C33 C 0.1941(5) 0.2046(4) 0.0725(2)
C34 C 0.0995(5) 0.0444(5) 0.3549(3)
H27 H 0.1252 -0.0306 0.3257
H28 H 0.0067 0.0606 0.3444
H29 H 0.1181 0.0246 0.4071
C35 C 0.2720(5) 0.5753(5) 0.4147(2)
H30 H 0.2185 0.6485 0.3947
H31 H 0.3533 0.6098 0.4383
H32 H 0.2256 0.5274 0.4508
C36 C 0.5160(5) 0.2043(4) 0.1582(2)
H33 H 0.5663 0.2879 0.1556
C37 C 0.2450(5) 0.7701(4) 0.1645(3)
H34 H 0.2179 0.8506 0.1847
C38 C 0.3759(5) 0.6556(5) 0.0789(3)
H35 H 0.4365 0.6571 0.0429
C39 C 0.0088(6) 0.1913(7) -0.0146(2)
H36 H 0.0520 0.1728 -0.0590
H37 H -0.0716 0.2395 -0.0277
H38 H -0.0109 0.1082 0.0093
C40 C 0.5547(6) 0.0934(6) 0.1119(3)
H39 H 0.4858 0.0339 0.0907
H40 H 0.6261 0.1088 0.0804
loop_
_geom_bond_atom_site_label_1
_geom_bond_atom_site_label_2
_geom_bond_site_symmetry_1
_geom_bond_site_symmetry_2
O1 C2 1_555 1_555
O2 C2 1_555 1_555
O3 C8 1_555 1_555
O4 C14 1_555 1_555
O5 C10 1_555 1_555
O6 C8 1_555 1_555
O7 C10 1_555 1_555
O8 C13 1_555 1_555
C1 H1 1_555 1_555
C2 C7 1_555 1_555
C3 H2 1_555 1_555
C4 C6 1_555 1_555
C5 C3 1_555 1_555
H3 C5 1_555 1_555
C6 C1 1_555 1_555
C7 C1 1_555 1_555
C8 C7 1_555 1_555
C9 C4 1_555 1_555
H4 C9 1_555 1_555
C10 C11 1_555 1_555
C11 C1 1_555 1_555
C12 C11 1_555 1_555
H5 C12 1_555 1_555
C13 C12 1_555 1_555
H6 C13 1_555 1_555
C14 C4 1_555 1_555
C15 C3 1_555 1_555
H7 C15 1_555 1_555
C16 C7 1_555 1_555
H8 C16 1_555 1_555
H9 C16 1_555 1_555
C17 O1 1_555 1_555
H10 C17 1_555 1_555
H11 C17 1_555 1_555
H12 C17 1_555 1_555
C18 O5 1_555 1_555
H13 C18 1_555 1_555
H14 C18 1_555 1_555
H15 C18 1_555 1_555
C19 O8 1_555 1_555
H16 C19 1_555 1_555
H17 C19 1_555 1_555
C20 O3 1_555 1_555
H18 C20 1_555 1_555
H19 C20 1_555 1_555
H20 C20 1_555 1_555
O9 C29 1_555 1_555
O10 C30 1_555 1_555
O11 C33 1_555 1_555
O12 C30 1_555 1_555
O13 C25 1_555 1_555
O14 C36 1_555 1_555
O15 C29 1_555 1_555
O16 C33 1_555 1_555
C21 C22 1_555 1_555
C22 H21 1_555 1_555
C23 C21 1_555 1_555
H22 C23 1_555 1_555
C24 C22 1_555 1_555
C25 C26 1_555 1_555
C26 C22 1_555 1_555
C27 C24 1_555 1_555
H23 C27 1_555 1_555
H24 C27 1_555 1_555
C28 C21 1_555 1_555
C29 C24 1_555 1_555
C30 C24 1_555 1_555
C31 H25 1_555 1_555
C32 C26 1_555 1_555
H26 C32 1_555 1_555
C33 C26 1_555 1_555
C34 O9 1_555 1_555
H27 C34 1_555 1_555
H28 C34 1_555 1_555
H29 C34 1_555 1_555
C35 O10 1_555 1_555
H30 C35 1_555 1_555
H31 C35 1_555 1_555
H32 C35 1_555 1_555
C36 C32 1_555 1_555
H33 C36 1_555 1_555
C37 C23 1_555 1_555
H34 C37 1_555 1_555
C38 C28 1_555 1_555
H35 C38 1_555 1_555
C39 O11 1_555 1_555
H36 C39 1_555 1_555
H37 C39 1_555 1_555
H38 C39 1_555 1_555
C40 O14 1_555 1_555
H39 C40 1_555 1_555
H40 C40 1_555 1_555
C5 C6 1_555 1_555
C9 C15 1_555 1_555
C11 C14 1_555 1_555
C12 C16 1_555 1_555
C13 C19 1_555 1_555
C25 C28 1_555 1_555
C27 C32 1_555 1_555
C31 C37 1_555 1_555
C31 C38 1_555 1_555
C36 C40 1_555 1_555

#END
