
#######################################################################
#
#                 Cambridge Crystallographic Data Centre
#                                CCDC 
#
#######################################################################
#
# If this CIF has been generated from an entry in the Cambridge 
# Structural Database, then it will include bibliographic, chemical, 
# crystal, experimental, refinement or atomic coordinate data resulting 
# from the CCDC's data processing and validation procedures.
#
#######################################################################

data_HEFGAD
_chemical_formula_moiety         'C16 H10 Br1 F3 O1 S1'
_chemical_name_systematic        
3-(4-bromophenyl)-3-phenyl-2-((trifluoromethyl)sulfanyl)acrylaldehyde
_symmetry_cell_setting           monoclinic
_symmetry_space_group_name_H-M   'C 2/c'
_symmetry_Int_Tables_number      15
_space_group_name_Hall           '-C 2yn'
loop_
_symmetry_equiv_pos_site_id
_symmetry_equiv_pos_as_xyz
1 x,y,z
2 -x,y,1/2-z
3 1/2+x,1/2+y,z
4 1/2-x,1/2+y,1/2-z
5 -x,-y,-z
6 x,-y,1/2+z
7 1/2-x,1/2-y,-z
8 1/2+x,1/2-y,1/2+z
_cell_length_a                   28.9065(11)
_cell_length_b                   6.4346(3)
_cell_length_c                   16.8871(8)
_cell_angle_alpha                90
_cell_angle_beta                 92.407(4)
_cell_angle_gamma                90
_cell_volume                     3138.26
_exptl_crystal_colour            'dark yellow'
_exptl_crystal_description       block
_cell_formula_units_Z            8
loop_
_atom_site_label
_atom_site_type_symbol
_atom_site_fract_x
_atom_site_fract_y
_atom_site_fract_z
Br1 Br 0.491545(14) 0.14095(8) 0.39171(3)
S1 S 0.70626(3) -0.29565(13) 0.37660(5)
F1 F 0.68505(17) -0.6729(5) 0.41328(19)
F2 F 0.75473(15) -0.6285(5) 0.40663(18)
F3 F 0.72026(10) -0.5031(4) 0.50232(12)
O1 O 0.76960(7) -0.4467(4) 0.25224(13)
C1 C 0.53205(11) -0.2272(6) 0.33397(18)
H1 H 0.5034 -0.2873 0.3425
C2 C 0.56672(10) -0.3420(5) 0.30038(18)
H2 H 0.5608 -0.4780 0.2844
C3 C 0.61018(10) -0.2562(5) 0.29031(17)
C4 C 0.61828(11) -0.0516(5) 0.31442(19)
H3 H 0.6474 0.0070 0.3093
C5 C 0.58329(12) 0.0645(6) 0.3458(2)
H4 H 0.5886 0.2016 0.3610
C6 C 0.54043(11) -0.0243(6) 0.35452(19)
C7 C 0.64647(10) -0.3730(5) 0.24953(17)
C8 C 0.63181(9) -0.4675(5) 0.17258(16)
C9 C 0.60257(11) -0.3571(6) 0.12015(19)
H5 H 0.5923 -0.2252 0.1334
C10 C 0.58894(14) -0.4457(9) 0.0478(2)
H6 H 0.5698 -0.3712 0.0125
C11 C 0.60318(15) -0.6397(9) 0.0279(2)
H7 H 0.5936 -0.6966 -0.0207
C12 C 0.63163(13) -0.7520(7) 0.0793(2)
H8 H 0.6415 -0.8842 0.0654
C13 C 0.64552(11) -0.6671(5) 0.15152(19)
H9 H 0.6643 -0.7442 0.1866
C14 C 0.69086(10) -0.3874(5) 0.27957(16)
C15 C 0.72944(10) -0.4444(5) 0.22986(19)
H10 H 0.7224 -0.4813 0.1775
C16 C 0.71736(17) -0.5337(7) 0.4256(2)
loop_
_geom_bond_atom_site_label_1
_geom_bond_atom_site_label_2
_geom_bond_site_symmetry_1
_geom_bond_site_symmetry_2
Br1 C6 1_555 1_555
S1 C14 1_555 1_555
F1 C16 1_555 1_555
F2 C16 1_555 1_555
F3 C16 1_555 1_555
O1 C15 1_555 1_555
C1 H1 1_555 1_555
C2 C1 1_555 1_555
H2 C2 1_555 1_555
C3 C2 1_555 1_555
C4 C3 1_555 1_555
H3 C4 1_555 1_555
C5 C4 1_555 1_555
H4 C5 1_555 1_555
C6 C1 1_555 1_555
C7 C3 1_555 1_555
C8 C7 1_555 1_555
C9 C8 1_555 1_555
H5 C9 1_555 1_555
C10 C9 1_555 1_555
H6 C10 1_555 1_555
C11 C10 1_555 1_555
H7 C11 1_555 1_555
C12 C11 1_555 1_555
H8 C12 1_555 1_555
C13 C8 1_555 1_555
H9 C13 1_555 1_555
C14 C7 1_555 1_555
C15 C14 1_555 1_555
H10 C15 1_555 1_555
C16 S1 1_555 1_555
C5 C6 1_555 1_555
C12 C13 1_555 1_555

#END
