
#######################################################################
#
#                 Cambridge Crystallographic Data Centre
#                                CCDC 
#
#######################################################################
#
# If this CIF has been generated from an entry in the Cambridge 
# Structural Database, then it will include bibliographic, chemical, 
# crystal, experimental, refinement or atomic coordinate data resulting 
# from the CCDC's data processing and validation procedures.
#
#######################################################################

data_HEFGUX
_chemical_formula_moiety         'C24 H19 Cl1 O3'
_chemical_name_systematic        
3-[2-(4-chlorophenyl)ethenyl]-5H-spiro[bicyclo[2.2.2]octane-2,2'-indene]-1',3',5-trione
_symmetry_cell_setting           orthorhombic
_symmetry_space_group_name_H-M   'P 21 21 21'
_symmetry_Int_Tables_number      19
_space_group_name_Hall           'P 2ac 2ab'
loop_
_symmetry_equiv_pos_site_id
_symmetry_equiv_pos_as_xyz
1 x,y,z
2 1/2-x,-y,1/2+z
3 -x,1/2+y,1/2-z
4 1/2+x,1/2-y,-z
_cell_length_a                   9.734(3)
_cell_length_b                   10.214(3)
_cell_length_c                   19.810(5)
_cell_angle_alpha                90
_cell_angle_beta                 90
_cell_angle_gamma                90
_cell_volume                     1969.57
_exptl_crystal_colour            colorless
_exptl_crystal_description       prism
_cell_formula_units_Z            4
loop_
_atom_site_label
_atom_site_type_symbol
_atom_site_fract_x
_atom_site_fract_y
_atom_site_fract_z
C1 C 0.3841(4) -0.2042(3) 0.73770(16)
C2 C 0.5220(4) -0.2315(4) 0.73629(17)
H1 H 0.5605 -0.2915 0.7677
C3 C 0.6040(4) -0.1714(4) 0.68918(18)
H2 H 0.6990 -0.1924 0.6876
C4 C 0.5511(3) -0.0804(3) 0.64350(16)
C5 C 0.4105(3) -0.0530(4) 0.64820(19)
H3 H 0.3712 0.0099 0.6186
C6 C 0.3281(4) -0.1146(4) 0.69444(19)
H4 H 0.2327 -0.0952 0.6964
C7 C 0.6331(3) -0.0190(3) 0.59025(17)
H5 H 0.5898 0.0488 0.5652
C8 C 0.7614(3) -0.0478(3) 0.57318(17)
H6 H 0.8101 -0.1096 0.5999
C9 C 0.8331(3) 0.0119(3) 0.51418(16)
H7 H 0.7665 0.0729 0.4920
C10 C 0.9634(3) 0.0940(3) 0.53288(16)
C11 C 1.0097(3) 0.0932(3) 0.60657(18)
C12 C 1.0342(4) 0.2294(3) 0.62880(17)
C13 C 1.0821(5) 0.2749(5) 0.6899(2)
H8 H 1.1107 0.2162 0.7243
C14 C 1.0872(5) 0.4090(5) 0.6993(3)
H9 H 1.1207 0.4429 0.7408
C15 C 1.0450(5) 0.4936(5) 0.6501(3)
H10 H 1.0499 0.5851 0.6583
C16 C 0.9957(4) 0.4502(4) 0.5890(2)
H11 H 0.9662 0.5096 0.5551
C17 C 0.9909(4) 0.3144(3) 0.57909(17)
C18 C 0.9383(3) 0.2407(3) 0.52067(17)
C19 C 1.0868(4) 0.0463(3) 0.4882(2)
H12 H 1.1709 0.0988 0.4985
C20 C 1.0510(4) 0.0571(4) 0.4135(2)
H13 H 1.0343 0.1499 0.4017
H14 H 1.1290 0.0251 0.3860
C21 C 0.9235(5) -0.0235(4) 0.39806(19)
H15 H 0.9453 -0.0893 0.3630
H16 H 0.8505 0.0345 0.3803
C22 C 0.8720(4) -0.0928(3) 0.46160(19)
H17 H 0.7908 -0.1490 0.4508
C23 C 0.9831(5) -0.1727(3) 0.4923(2)
C24 C 1.1123(5) -0.0985(4) 0.5033(3)
H18 H 1.1853 -0.1326 0.4733
H19 H 1.1431 -0.1090 0.5506
O1 O 1.0252(3) -0.0037(3) 0.64144(14)
O2 O 0.8824(3) 0.2865(2) 0.47135(13)
O3 O 0.9456(10) -0.2881(5) 0.5010(4)
Cl1 Cl 0.27873(11) -0.28744(11) 0.79428(5)
O4? O 0.9959(12) -0.2798(7) 0.5222(5)
loop_
_geom_bond_atom_site_label_1
_geom_bond_atom_site_label_2
_geom_bond_site_symmetry_1
_geom_bond_site_symmetry_2
C1 C2 1_555 1_555
C2 H1 1_555 1_555
C3 C2 1_555 1_555
H2 C3 1_555 1_555
C4 C3 1_555 1_555
C5 C4 1_555 1_555
H3 C5 1_555 1_555
C6 C1 1_555 1_555
H4 C6 1_555 1_555
C7 C4 1_555 1_555
H5 C7 1_555 1_555
C8 C7 1_555 1_555
H6 C8 1_555 1_555
C9 C8 1_555 1_555
H7 C9 1_555 1_555
C10 C9 1_555 1_555
C11 C10 1_555 1_555
C12 C11 1_555 1_555
C13 C12 1_555 1_555
H8 C13 1_555 1_555
C14 C13 1_555 1_555
H9 C14 1_555 1_555
C15 C14 1_555 1_555
H10 C15 1_555 1_555
C16 C15 1_555 1_555
H11 C16 1_555 1_555
C17 C12 1_555 1_555
C18 C10 1_555 1_555
C19 C10 1_555 1_555
H12 C19 1_555 1_555
C20 C19 1_555 1_555
H13 C20 1_555 1_555
H14 C20 1_555 1_555
C21 C20 1_555 1_555
H15 C21 1_555 1_555
H16 C21 1_555 1_555
C22 C9 1_555 1_555
H17 C22 1_555 1_555
C23 C22 1_555 1_555
C24 C19 1_555 1_555
H18 C24 1_555 1_555
H19 C24 1_555 1_555
O1 C11 1_555 1_555
O2 C18 1_555 1_555
O3 C23 1_555 1_555
Cl1 C1 1_555 1_555
C5 C6 1_555 1_555
C16 C17 1_555 1_555
C17 C18 1_555 1_555
C21 C22 1_555 1_555
C23 C24 1_555 1_555

#END
