
#######################################################################
#
#                 Cambridge Crystallographic Data Centre
#                                CCDC 
#
#######################################################################
#
# If this CIF has been generated from an entry in the Cambridge 
# Structural Database, then it will include bibliographic, chemical, 
# crystal, experimental, refinement or atomic coordinate data resulting 
# from the CCDC's data processing and validation procedures.
#
#######################################################################

data_HEFJIO
_chemical_formula_moiety         'C21 H19 Br2 F3 N2 O2 S1'
_chemical_name_systematic        
't-butyl {2-cyano-1-(3,5-dibromophenyl)-2-phenyl-2-[(trifluoromethyl)sulfanyl]ethyl}carbamate'
_symmetry_cell_setting           orthorhombic
_symmetry_space_group_name_H-M   'P 21 21 21'
_symmetry_Int_Tables_number      19
_space_group_name_Hall           'P 2ac 2ab'
loop_
_symmetry_equiv_pos_site_id
_symmetry_equiv_pos_as_xyz
1 x,y,z
2 1/2-x,-y,1/2+z
3 1/2+x,1/2-y,-z
4 -x,1/2+y,1/2-z
_cell_length_a                   10.1164(3)
_cell_length_b                   11.6149(4)
_cell_length_c                   40.9665(13)
_cell_angle_alpha                90
_cell_angle_beta                 90
_cell_angle_gamma                90
_cell_volume                     4813.6
_exptl_crystal_colour            colorless
_exptl_crystal_description       block
_cell_formula_units_Z            8
loop_
_atom_site_label
_atom_site_type_symbol
_atom_site_fract_x
_atom_site_fract_y
_atom_site_fract_z
Br1 Br 0.70773(7) -0.07257(6) 0.23387(2)
Br2 Br 1.06062(7) 0.27858(8) 0.19613(2)
C1 C 0.8941(5) 0.2057(6) 0.19186(15)
C2 C 0.8692(6) 0.1097(5) 0.21109(14)
H1 H 0.9319 0.0814 0.2256
C3 C 0.7467(5) 0.0580(5) 0.20762(14)
C4 C 0.6527(5) 0.0984(5) 0.18610(13)
H2 H 0.5710 0.0622 0.1845
C5 C 0.6812(5) 0.1933(5) 0.16698(13)
C6 C 0.8024(6) 0.2484(5) 0.17009(14)
H3 H 0.8214 0.3133 0.1576
C7 C 0.5801(5) 0.2420(5) 0.14273(13)
H4 H 0.6302 0.2795 0.1252
C8 C 0.4850(5) 0.1393(5) 0.09500(13)
C9 C 0.5321(6) 0.2337(6) 0.04237(14)
C10 C 0.4928(5) 0.3382(5) 0.15943(14)
C11 C 0.4330(6) 0.2906(5) 0.18951(14)
C12 C 0.2844(7) 0.4965(6) 0.14590(17)
C13 C 0.5733(6) 0.4466(5) 0.16590(15)
C14 C 0.6376(8) 0.4995(6) 0.13965(17)
H5 H 0.6305 0.4692 0.1187
C15 C 0.7126(9) 0.5984(7) 0.1453(2)
H6 H 0.7550 0.6348 0.1280
C16 C 0.7239(9) 0.6421(7) 0.1762(2)
H7 H 0.7759 0.7069 0.1796
C17 C 0.6601(7) 0.5924(6) 0.20203(19)
H8 H 0.6667 0.6243 0.2228
C18 C 0.5853(6) 0.4939(5) 0.19694(16)
H9 H 0.5428 0.4591 0.2145
C19 C 0.5778(9) 0.1257(6) 0.02462(16)
H10 H 0.5665 0.1359 0.0015
H11 H 0.6694 0.1121 0.0293
H12 H 0.5262 0.0611 0.0318
C20 C 0.3884(7) 0.2608(7) 0.03486(17)
H13 H 0.3605 0.3258 0.0476
H14 H 0.3345 0.1953 0.0402
H15 H 0.3792 0.2782 0.0121
C21 C 0.6212(7) 0.3330(6) 0.03544(16)
H16 H 0.6188 0.3503 0.0125
H17 H 0.5922 0.3989 0.0476
H18 H 0.7099 0.3137 0.0417
F1 F 0.2678(4) 0.4948(3) 0.17795(10)
F2 F 0.3532(5) 0.5907(3) 0.13879(11)
F3 F 0.1661(4) 0.5073(4) 0.13174(12)
N1 N 0.5001(4) 0.1534(4) 0.12763(11)
H19 H 0.4593 0.1062 0.1403
N2 N 0.3910(5) 0.2495(5) 0.21246(13)
O1 O 0.5486(4) 0.2200(4) 0.07817(9)
O2 O 0.4197(4) 0.0611(3) 0.08328(9)
S1 S 0.35440(16) 0.36371(14) 0.13014(4)
Br3 Br -0.11074(9) 0.52896(8) 0.05099(3)
Br4 Br 0.43175(9) 0.62796(10) 0.03139(3)
C22 C 0.2195(7) 0.8380(6) 0.20613(14)
C23 C 0.3420(8) 0.7701(7) 0.21523(18)
H20 H 0.3477 0.7638 0.2386
H21 H 0.3370 0.6945 0.2058
H22 H 0.4190 0.8089 0.2071
C24 C 0.0932(8) 0.7719(8) 0.21381(18)
H23 H 0.0874 0.7589 0.2369
H24 H 0.0181 0.8159 0.2068
H25 H 0.0943 0.6993 0.2026
C25 C 0.2196(9) 0.9578(7) 0.22122(19)
H26 H 0.2264 0.9515 0.2445
H27 H 0.2934 1.0008 0.2130
H28 H 0.1389 0.9967 0.2157
C26 C 0.2930(6) 0.9136(5) 0.15285(13)
C27 C 0.1259(5) 0.8835(5) 0.10954(13)
H29 H 0.0712 0.8623 0.1284
C28 C 0.0500(6) 0.9805(5) 0.08995(14)
C29 C 0.1073(6) 0.9911(5) 0.05737(15)
C30 C -0.0143(7) 1.2196(7) 0.09033(18)
C31 C -0.1698(6) 0.9438(7) 0.1175(2)
H30 H -0.1328 0.9696 0.1369
C32 C -0.3004(8) 0.8997(6) 0.1173(3)
H31 H -0.3496 0.8968 0.1365
C33 C -0.3516(9) 0.8623(8) 0.0891(3)
H32 H -0.4367 0.8320 0.0890
C34 C -0.2821(9) 0.8672(7) 0.0602(3)
H33 H -0.3210 0.8408 0.0411
C35 C -0.1531(8) 0.9118(6) 0.0595(2)
H34 H -0.1066 0.9165 0.0399
C36 C -0.0961(6) 0.9491(5) 0.08866(18)
C37 C 0.1408(6) 0.7765(5) 0.08802(14)
C38 C 0.0318(6) 0.7061(5) 0.08259(16)
H35 H -0.0471 0.7193 0.0936
C39 C 0.0419(7) 0.6164(6) 0.06070(19)
C40 C 0.1601(8) 0.5914(6) 0.0451(2)
H36 H 0.1674 0.5292 0.0309
C41 C 0.2665(7) 0.6622(7) 0.05148(19)
C42 C 0.2581(6) 0.7533(6) 0.07228(15)
H37 H 0.3315 0.7998 0.0759
F4 F -0.1445(4) 1.2026(4) 0.09276(12)
F5 F 0.0131(6) 1.2218(5) 0.05931(12)
F6 F 0.0101(5) 1.3192(4) 0.10419(14)
N3 N 0.2503(5) 0.9259(4) 0.12181(11)
H38 H 0.3011 0.9617 0.1084
N4 N 0.1567(7) 0.9948(6) 0.03217(15)
O3 O 0.2090(4) 0.8486(4) 0.17032(9)
O4 O 0.3952(4) 0.9540(4) 0.16282(10)
S2 S 0.08291(15) 1.11480(13) 0.11304(4)
loop_
_geom_bond_atom_site_label_1
_geom_bond_atom_site_label_2
_geom_bond_site_symmetry_1
_geom_bond_site_symmetry_2
Br1 C3 1_555 1_555
Br2 C1 1_555 1_555
C1 C2 1_555 1_555
C2 H1 1_555 1_555
C3 C2 1_555 1_555
C4 C3 1_555 1_555
H2 C4 1_555 1_555
C5 C4 1_555 1_555
C6 C1 1_555 1_555
H3 C6 1_555 1_555
C7 C5 1_555 1_555
H4 C7 1_555 1_555
C8 N1 1_555 1_555
C9 C19 1_555 1_555
C10 C7 1_555 1_555
C11 C10 1_555 1_555
C12 F1 1_555 1_555
C13 C10 1_555 1_555
C14 C13 1_555 1_555
H5 C14 1_555 1_555
C15 C14 1_555 1_555
H6 C15 1_555 1_555
C16 C15 1_555 1_555
H7 C16 1_555 1_555
C17 C16 1_555 1_555
H8 C17 1_555 1_555
C18 C13 1_555 1_555
H9 C18 1_555 1_555
C19 H10 1_555 1_555
H11 C19 1_555 1_555
H12 C19 1_555 1_555
C20 C9 1_555 1_555
H13 C20 1_555 1_555
H14 C20 1_555 1_555
H15 C20 1_555 1_555
C21 C9 1_555 1_555
H16 C21 1_555 1_555
H17 C21 1_555 1_555
H18 C21 1_555 1_555
F2 C12 1_555 1_555
F3 C12 1_555 1_555
N1 C7 1_555 1_555
H19 N1 1_555 1_555
N2 C11 1_555 1_555
O1 C8 1_555 1_555
O2 C8 1_555 1_555
S1 C10 1_555 1_555
Br3 C39 1_555 1_555
Br4 C41 1_555 1_555
C22 C23 1_555 1_555
C23 H20 1_555 1_555
H21 C23 1_555 1_555
H22 C23 1_555 1_555
C24 C22 1_555 1_555
H23 C24 1_555 1_555
H24 C24 1_555 1_555
H25 C24 1_555 1_555
C25 C22 1_555 1_555
H26 C25 1_555 1_555
H27 C25 1_555 1_555
H28 C25 1_555 1_555
C26 N3 1_555 1_555
C27 H29 1_555 1_555
C28 C27 1_555 1_555
C29 C28 1_555 1_555
C30 F4 1_555 1_555
C31 H30 1_555 1_555
C32 C31 1_555 1_555
H31 C32 1_555 1_555
C33 C32 1_555 1_555
H32 C33 1_555 1_555
C34 C33 1_555 1_555
H33 C34 1_555 1_555
C35 C34 1_555 1_555
H34 C35 1_555 1_555
C36 C28 1_555 1_555
C37 C27 1_555 1_555
C38 C37 1_555 1_555
H35 C38 1_555 1_555
C39 C38 1_555 1_555
C40 C39 1_555 1_555
H36 C40 1_555 1_555
C41 C40 1_555 1_555
C42 C37 1_555 1_555
H37 C42 1_555 1_555
F5 C30 1_555 1_555
F6 C30 1_555 1_555
N3 C27 1_555 1_555
H38 N3 1_555 1_555
N4 C29 1_555 1_555
O3 C22 1_555 1_555
O4 C26 1_555 1_555
S2 C28 1_555 1_555
C5 C6 1_555 1_555
C9 O1 1_555 1_555
C12 S1 1_555 1_555
C17 C18 1_555 1_555
C26 O3 1_555 1_555
C30 S2 1_555 1_555
C31 C36 1_555 1_555
C35 C36 1_555 1_555
C41 C42 1_555 1_555

#END
