
#######################################################################
#
#                 Cambridge Crystallographic Data Centre
#                                CCDC 
#
#######################################################################
#
# If this CIF has been generated from an entry in the Cambridge 
# Structural Database, then it will include bibliographic, chemical, 
# crystal, experimental, refinement or atomic coordinate data resulting 
# from the CCDC's data processing and validation procedures.
#
#######################################################################

data_HEFJAG
_chemical_formula_moiety         'C15 H23 Cl1 O3 S1'
_chemical_name_systematic        
3-chloro-5-{[5-methyl-2-(propan-2-yl)cyclohexyl]oxy}-4-(methylsulfanyl)furan-2(5H)-one
_symmetry_cell_setting           orthorhombic
_symmetry_space_group_name_H-M   'P 21 21 21'
_symmetry_Int_Tables_number      19
_space_group_name_Hall           'P 2ac 2ab'
loop_
_symmetry_equiv_pos_site_id
_symmetry_equiv_pos_as_xyz
1 x,y,z
2 1/2-x,-y,1/2+z
3 -x,1/2+y,1/2-z
4 1/2+x,1/2-y,-z
_cell_length_a                   9.1243(15)
_cell_length_b                   10.0828(12)
_cell_length_c                   18.660(2)
_cell_angle_alpha                90
_cell_angle_beta                 90
_cell_angle_gamma                90
_cell_volume                     1716.69
_exptl_crystal_colour            colorless
_exptl_crystal_description       block
_cell_formula_units_Z            4
loop_
_atom_site_label
_atom_site_type_symbol
_atom_site_fract_x
_atom_site_fract_y
_atom_site_fract_z
Cl1 Cl 0.67298(17) 0.39660(12) 0.51929(7)
S1 S 0.31199(14) 0.43376(11) 0.48759(6)
O1 O 0.5815(3) 0.7156(2) 0.41159(13)
O2 O 0.8060(4) 0.6524(4) 0.44655(18)
O3 O 0.3774(2) 0.63724(18) 0.35143(10)
C1 C 0.6767(5) 0.6310(4) 0.4441(2)
C2 C 0.5916(5) 0.5229(4) 0.47378(18)
C3 C 0.4498(4) 0.5384(3) 0.46047(16)
C4 C 0.4342(4) 0.6644(3) 0.41797(17)
H1 H 0.3717 0.7277 0.4435
C5 C 0.1467(5) 0.5082(5) 0.4551(3)
H2 H 0.1510 0.5151 0.4038
H3 H 0.1361 0.5951 0.4755
H4 H 0.0644 0.4544 0.4685
C6 C 0.3344(4) 0.7532(3) 0.31014(16)
H5 H 0.4025 0.8260 0.3203
C7 C 0.3456(4) 0.7163(3) 0.23157(15)
H6 H 0.2779 0.6422 0.2239
C8 C 0.2886(5) 0.8322(4) 0.1863(2)
H7 H 0.3541 0.9072 0.1919
H8 H 0.2894 0.8067 0.1362
C9 C 0.1344(5) 0.8741(4) 0.2070(2)
H9 H 0.0669 0.8024 0.1965
H10 H 0.1059 0.9502 0.1784
C10 C 0.1233(5) 0.9097(4) 0.2861(2)
H11 H 0.1859 0.9869 0.2949
C11 C 0.1809(4) 0.7951(3) 0.33087(18)
H12 H 0.1804 0.8208 0.3810
H13 H 0.1155 0.7199 0.3255
C12 C 0.4982(4) 0.6672(3) 0.20922(18)
H14 H 0.5248 0.5960 0.2425
C13 C 0.6182(5) 0.7718(4) 0.2145(2)
H15 H 0.5955 0.8444 0.1831
H16 H 0.7103 0.7334 0.2008
H17 H 0.6244 0.8034 0.2629
C14 C 0.4939(5) 0.6059(4) 0.1346(2)
H18 H 0.4144 0.5437 0.1319
H19 H 0.5846 0.5608 0.1254
H20 H 0.4799 0.6744 0.0996
C15 C -0.0333(5) 0.9459(5) 0.3078(3)
H21 H -0.0965 0.8712 0.3000
H22 H -0.0665 1.0195 0.2795
H23 H -0.0352 0.9698 0.3576
loop_
_geom_bond_atom_site_label_1
_geom_bond_atom_site_label_2
_geom_bond_site_symmetry_1
_geom_bond_site_symmetry_2
Cl1 C2 1_555 1_555
S1 C3 1_555 1_555
O1 C1 1_555 1_555
O2 C1 1_555 1_555
O3 C4 1_555 1_555
C1 C2 1_555 1_555
C2 C3 1_555 1_555
C3 C4 1_555 1_555
C4 O1 1_555 1_555
H1 C4 1_555 1_555
C5 S1 1_555 1_555
H2 C5 1_555 1_555
H3 C5 1_555 1_555
H4 C5 1_555 1_555
C6 O3 1_555 1_555
H5 C6 1_555 1_555
C7 C6 1_555 1_555
H6 C7 1_555 1_555
C8 C7 1_555 1_555
H7 C8 1_555 1_555
H8 C8 1_555 1_555
C9 C8 1_555 1_555
H9 C9 1_555 1_555
H10 C9 1_555 1_555
C10 C9 1_555 1_555
H11 C10 1_555 1_555
C11 C6 1_555 1_555
H12 C11 1_555 1_555
H13 C11 1_555 1_555
C12 C7 1_555 1_555
H14 C12 1_555 1_555
C13 C12 1_555 1_555
H15 C13 1_555 1_555
H16 C13 1_555 1_555
H17 C13 1_555 1_555
C14 C12 1_555 1_555
H18 C14 1_555 1_555
H19 C14 1_555 1_555
H20 C14 1_555 1_555
C15 C10 1_555 1_555
H21 C15 1_555 1_555
H22 C15 1_555 1_555
H23 C15 1_555 1_555
C10 C11 1_555 1_555

#END
