
#######################################################################
#
#                 Cambridge Crystallographic Data Centre
#                                CCDC 
#
#######################################################################
#
# If this CIF has been generated from an entry in the Cambridge 
# Structural Database, then it will include bibliographic, chemical, 
# crystal, experimental, refinement or atomic coordinate data resulting 
# from the CCDC's data processing and validation procedures.
#
#######################################################################

data_HEFKOV
_chemical_formula_moiety         'C22 H26 N2 O4 S1'
_chemical_name_systematic        
'ethyl 2-[(dimethylsulfamoyl)amino]-6,6-diphenylhexa-2,4-dienoate'
_symmetry_cell_setting           triclinic
_symmetry_space_group_name_H-M   'P -1'
_symmetry_Int_Tables_number      2
_space_group_name_Hall           '-P 1'
loop_
_symmetry_equiv_pos_site_id
_symmetry_equiv_pos_as_xyz
1 x,y,z
2 -x,-y,-z
_cell_length_a                   8.8542(3)
_cell_length_b                   9.7127(3)
_cell_length_c                   14.4704(4)
_cell_angle_alpha                72.703(1)
_cell_angle_beta                 81.342(1)
_cell_angle_gamma                64.500(1)
_cell_volume                     1072.04
_exptl_crystal_colour            colorless
_exptl_crystal_description       plate
_cell_formula_units_Z            2
loop_
_atom_site_label
_atom_site_type_symbol
_atom_site_fract_x
_atom_site_fract_y
_atom_site_fract_z
S1 S 0.41100(4) 0.87047(4) 0.37700(3)
O1 O 0.06791(14) 0.60951(14) 0.55266(8)
O2 O 0.33638(13) 0.55931(12) 0.56855(8)
O3 O 0.56892(14) 0.83493(13) 0.32682(8)
O4 O 0.27017(15) 1.01359(13) 0.34093(9)
N1 N 0.36135(15) 0.72514(15) 0.37787(9)
N2 N 0.44218(16) 0.87100(16) 0.48461(10)
C1 C -0.1535(2) 1.05582(19) 0.13157(11)
H1 H -0.0550 1.0798 0.1023
C2 C -0.10818(19) 0.94736(18) 0.23112(11)
H2 H -0.1918 0.9165 0.2682
C3 C 0.0395(2) 0.89059(18) 0.27196(11)
H3 H 0.1281 0.9151 0.2364
C4 C 0.06463(19) 0.79258(18) 0.36954(11)
H4 H -0.0305 0.7778 0.4028
C5 C 0.20608(18) 0.71962(17) 0.41915(11)
C6 C 0.21228(18) 0.62178(17) 0.52037(11)
C7 C 0.0625(2) 0.5192(2) 0.65313(13)
H5 H 0.1680 0.4229 0.6671
H6 H -0.0310 0.4858 0.6624
C8 C 0.0397(2) 0.6149(2) 0.72158(13)
H7 H 0.0217 0.5573 0.7874
H8 H -0.0576 0.7158 0.7032
H9 H 0.1400 0.6347 0.7193
C9 C 0.2972(2) 0.9288(2) 0.54842(14)
H10 H 0.3215 0.9809 0.5892
H11 H 0.2734 0.8396 0.5895
H12 H 0.1997 1.0044 0.5092
C10 C 0.5925(2) 0.7474(2) 0.53493(12)
H13 H 0.6258 0.7878 0.5793
H14 H 0.6834 0.7156 0.4875
H15 H 0.5691 0.6559 0.5717
C11 C -0.2984(2) 1.21051(19) 0.14221(11)
C12 C -0.4506(2) 1.2129(2) 0.18546(12)
H16 H -0.4670 1.1178 0.2065
C13 C -0.5789(2) 1.3529(2) 0.19829(13)
H17 H -0.6822 1.3529 0.2279
C14 C -0.5568(2) 1.4921(2) 0.16815(16)
H18 H -0.6440 1.5877 0.1774
C15 C -0.4075(3) 1.4908(2) 0.12467(19)
H19 H -0.3918 1.5862 0.1031
C16 C -0.2792(2) 1.3508(2) 0.11197(16)
H20 H -0.1765 1.3517 0.0819
C17 C -0.1937(2) 0.9787(2) 0.06626(11)
C18 C -0.1217(2) 0.8163(2) 0.08065(13)
H21 H -0.0507 0.7513 0.1339
C19 C -0.1522(3) 0.7476(3) 0.01818(14)
H22 H -0.1031 0.6359 0.0292
C20 C -0.2538(2) 0.8411(3) -0.06009(14)
H23 H -0.2740 0.7942 -0.1033
C21 C -0.3257(2) 1.0029(3) -0.07507(13)
H24 H -0.3955 1.0678 -0.1289
C22 C -0.2968(2) 1.0712(2) -0.01215(12)
H25 H -0.3481 1.1828 -0.0227
H26 H 0.444(2) 0.641(2) 0.3925(13)
loop_
_geom_bond_atom_site_label_1
_geom_bond_atom_site_label_2
_geom_bond_site_symmetry_1
_geom_bond_site_symmetry_2
S1 O3 1_555 1_555
O1 C6 1_555 1_555
O2 C6 1_555 1_555
O4 S1 1_555 1_555
N1 S1 1_555 1_555
N2 S1 1_555 1_555
C1 H1 1_555 1_555
C2 C1 1_555 1_555
H2 C2 1_555 1_555
C3 C2 1_555 1_555
H3 C3 1_555 1_555
C4 C3 1_555 1_555
H4 C4 1_555 1_555
C5 N1 1_555 1_555
C6 C5 1_555 1_555
C7 O1 1_555 1_555
H5 C7 1_555 1_555
H6 C7 1_555 1_555
C8 C7 1_555 1_555
H7 C8 1_555 1_555
H8 C8 1_555 1_555
H9 C8 1_555 1_555
C9 N2 1_555 1_555
H10 C9 1_555 1_555
H11 C9 1_555 1_555
H12 C9 1_555 1_555
C10 N2 1_555 1_555
H13 C10 1_555 1_555
H14 C10 1_555 1_555
H15 C10 1_555 1_555
C11 C1 1_555 1_555
C12 C11 1_555 1_555
H16 C12 1_555 1_555
C13 C12 1_555 1_555
H17 C13 1_555 1_555
C14 C13 1_555 1_555
H18 C14 1_555 1_555
C15 C14 1_555 1_555
H19 C15 1_555 1_555
C16 C11 1_555 1_555
H20 C16 1_555 1_555
C17 C1 1_555 1_555
C18 C17 1_555 1_555
H21 C18 1_555 1_555
C19 C18 1_555 1_555
H22 C19 1_555 1_555
C20 C19 1_555 1_555
H23 C20 1_555 1_555
C21 C20 1_555 1_555
H24 C21 1_555 1_555
C22 C17 1_555 1_555
H25 C22 1_555 1_555
H26 N1 1_555 1_555
C4 C5 1_555 1_555
C15 C16 1_555 1_555
C21 C22 1_555 1_555

#END
