
#######################################################################
#
#                 Cambridge Crystallographic Data Centre
#                                CCDC 
#
#######################################################################
#
# If this CIF has been generated from an entry in the Cambridge 
# Structural Database, then it will include bibliographic, chemical, 
# crystal, experimental, refinement or atomic coordinate data resulting 
# from the CCDC's data processing and validation procedures.
#
#######################################################################

data_HEFNIS
_chemical_formula_moiety         'C20 H20 O7'
_chemical_name_systematic        
'trimethyl 8-oxo-1-vinyl-1,2,3a,8-tetrahydrocyclopenta[a]indene-3,3,8a-tricarboxylate'
_symmetry_cell_setting           monoclinic
_symmetry_space_group_name_H-M   'P 21/c'
_symmetry_Int_Tables_number      14
_space_group_name_Hall           '-P 2ybc'
loop_
_symmetry_equiv_pos_site_id
_symmetry_equiv_pos_as_xyz
1 x,y,z
2 -x,1/2+y,1/2-z
3 -x,-y,-z
4 x,1/2-y,1/2+z
_cell_length_a                   10.3163(10)
_cell_length_b                   9.9085(10)
_cell_length_c                   17.6929(18)
_cell_angle_alpha                90
_cell_angle_beta                 94.975(2)
_cell_angle_gamma                90
_cell_volume                     1801.74
_exptl_crystal_description       block
_cell_formula_units_Z            4
loop_
_atom_site_label
_atom_site_type_symbol
_atom_site_fract_x
_atom_site_fract_y
_atom_site_fract_z
O1 O 0.60542(13) 0.67016(14) 0.73517(8)
O2 O 0.8626(4) 0.9126(3) 0.6890(2)
O3 O 0.91891(16) 0.72463(19) 0.71650(8)
O4 O 0.94933(14) 0.80812(15) 0.51454(9)
O5 O 0.81663(13) 0.82869(14) 0.40874(7)
O6 O 0.9115(3) 0.5213(3) 0.42477(19)
O7 O 0.6944(3) 0.4925(3) 0.40200(17)
C1 C 0.66027(16) 0.62678(19) 0.68192(10)
C2 C 0.73673(17) 0.71523(18) 0.62892(10)
C3 C 0.80306(15) 0.61280(16) 0.57741(9)
H1 H 0.8999 0.6158 0.5878
C4 C 0.75044(15) 0.47668(17) 0.59862(10)
C5 C 0.77833(17) 0.35017(18) 0.56985(10)
H2 H 0.8353 0.3410 0.5307
C6 C 0.72078(19) 0.23792(19) 0.59976(12)
H3 H 0.7385 0.1511 0.5803
C7 C 0.63757(19) 0.2488(2) 0.65765(12)
H4 H 0.5990 0.1701 0.6767
C8 C 0.61126(18) 0.3735(2) 0.68723(11)
H5 H 0.5553 0.3823 0.7269
C9 C 0.66915(16) 0.48648(18) 0.65734(10)
C10 C 0.6449(2) 0.8030(3) 0.57397(13)
H6 H 0.7074 0.8729 0.5586
C11 C 0.62648(18) 0.7204(3) 0.50236(12)
H7 H 0.5986 0.7776 0.4580
H8 H 0.5614 0.6481 0.5070
C12 C 0.76113(16) 0.66185(18) 0.49564(9)
C13 C 0.7996(7) 0.5489(5) 0.4370(3)
C14 C 0.7178(4) 0.3959(5) 0.3440(2)
H9 H 0.7645 0.4397 0.3048
H10 H 0.6345 0.3608 0.3213
H11 H 0.7702 0.3213 0.3665
C15 C 0.85469(17) 0.77348(18) 0.47559(10)
C16 C 0.8944(2) 0.9406(2) 0.38577(14)
H12 H 0.8618 0.9702 0.3348
H13 H 0.9852 0.9120 0.3854
H14 H 0.8887 1.0155 0.4215
C17 C 0.5568(4) 0.8899(4) 0.6209(2)
H15 H 0.5886 0.9200 0.6700
C18 C 0.4419(2) 0.9218(3) 0.59463(13)
H16 H 0.4093 0.8921 0.5456
H17 H 0.3888 0.9753 0.6241
C19 C 0.8307(3) 0.8014(2) 0.67721(12)
C20 C 1.0366(4) 0.7602(5) 0.7689(3)
H18 H 1.0926 0.8215 0.7429
H19 H 1.0850 0.6778 0.7835
H20 H 1.0090 0.8044 0.8143
O8? O 0.6239(3) 0.5054(3) 0.42190(18)
O9? O 0.8385(5) 0.5216(4) 0.4072(2)
O10? O 0.7934(4) 0.9300(3) 0.6762(2)
H21? H 0.6832 0.8937 0.5648
H22? H 0.4887 1.0023 0.5865
H23? H 0.3532 0.9264 0.6051
C21? C 0.9931(4) 0.8290(5) 0.7637(2)
H24? H 0.9430 0.8556 0.8059
H25? H 1.0077 0.9081 0.7323
H26? H 1.0770 0.7915 0.7837
C22? C 0.4952(3) 0.8133(4) 0.59160(19)
H27? H 0.4478 0.7332 0.5998
C23? C 0.7276(6) 0.5566(5) 0.4371(3)
C24? C 0.8190(5) 0.4118(5) 0.3512(3)
H28? H 0.7438 0.4327 0.3154
H29? H 0.8034 0.3270 0.3774
H30? H 0.8968 0.4027 0.3236
loop_
_geom_bond_atom_site_label_1
_geom_bond_atom_site_label_2
_geom_bond_site_symmetry_1
_geom_bond_site_symmetry_2
O1 C1 1_555 1_555
O2 C19 1_555 1_555
O3 C19 1_555 1_555
O4 C15 1_555 1_555
O5 C15 1_555 1_555
O6 C13 1_555 1_555
O7 C13 1_555 1_555
C1 C2 1_555 1_555
C2 C3 1_555 1_555
C3 H1 1_555 1_555
C4 C3 1_555 1_555
C5 C4 1_555 1_555
H2 C5 1_555 1_555
C6 C5 1_555 1_555
H3 C6 1_555 1_555
C7 C6 1_555 1_555
H4 C7 1_555 1_555
C8 C7 1_555 1_555
H5 C8 1_555 1_555
C9 C1 1_555 1_555
C10 C2 1_555 1_555
H6 C10 1_555 1_555
C11 C10 1_555 1_555
H7 C11 1_555 1_555
H8 C11 1_555 1_555
C12 C3 1_555 1_555
C13 C12 1_555 1_555
C14 O7 1_555 1_555
H9 C14 1_555 1_555
H10 C14 1_555 1_555
H11 C14 1_555 1_555
C15 C12 1_555 1_555
C16 O5 1_555 1_555
H12 C16 1_555 1_555
H13 C16 1_555 1_555
H14 C16 1_555 1_555
C17 C10 1_555 1_555
H15 C17 1_555 1_555
C18 C17 1_555 1_555
H16 C18 1_555 1_555
H17 C18 1_555 1_555
C19 C2 1_555 1_555
C20 O3 1_555 1_555
H18 C20 1_555 1_555
H19 C20 1_555 1_555
H20 C20 1_555 1_555
C4 C9 1_555 1_555
C8 C9 1_555 1_555
C11 C12 1_555 1_555

#END
