
#######################################################################
#
#                 Cambridge Crystallographic Data Centre
#                                CCDC 
#
#######################################################################
#
# If this CIF has been generated from an entry in the Cambridge 
# Structural Database, then it will include bibliographic, chemical, 
# crystal, experimental, refinement or atomic coordinate data resulting 
# from the CCDC's data processing and validation procedures.
#
#######################################################################

data_HEFPUE
_chemical_formula_moiety         'C24 H38 O4 S2 Si4'
_chemical_name_systematic        
"Dimethyl 4,4,7,7-tetramethyl-2,9-bis(trimethylsilyl)dithieno[3,2-e:2',3'-g]-4,7-disilacyclooctatriene-5,6-dicarboxylate"
_symmetry_cell_setting           monoclinic
_symmetry_space_group_name_H-M   'P 21/c'
_symmetry_Int_Tables_number      14
_space_group_name_Hall           '-P 2ybc'
loop_
_symmetry_equiv_pos_site_id
_symmetry_equiv_pos_as_xyz
1 x,y,z
2 -x,1/2+y,1/2-z
3 -x,-y,-z
4 x,1/2-y,1/2+z
_cell_length_a                   13.452(4)
_cell_length_b                   20.239(4)
_cell_length_c                   11.850(4)
_cell_angle_alpha                90
_cell_angle_beta                 91.19(2)
_cell_angle_gamma                90
_cell_volume                     3225.53
_exptl_crystal_colour            white
_exptl_crystal_description       'hexagonal prism'
_chemical_melting_point          190-192deg.C
_cell_formula_units_Z            4
loop_
_atom_site_label
_atom_site_type_symbol
_atom_site_fract_x
_atom_site_fract_y
_atom_site_fract_z
S1 S 0.74380(8) 0.12806(4) 0.39193(8)
S2 S 0.72398(7) 0.02936(4) 0.64452(7)
Si1 Si 0.61382(7) -0.06699(4) 0.31319(8)
Si2 Si 0.88716(7) -0.07308(5) 0.37933(8)
Si3 Si 0.69197(8) 0.20483(5) 0.16717(8)
Si4 Si 0.78715(10) -0.05141(6) 0.85953(9)
O1 O 0.5931(2) -0.22096(16) 0.2558(3)
O2 O 0.7038(2) -0.20469(14) 0.1208(2)
O3 O 0.8568(3) -0.24927(15) 0.2910(3)
O4 O 0.9312(2) -0.17482(14) 0.1832(2)
C1 C 0.7202(3) 0.04524(15) 0.4106(3)
C2 C 0.6679(2) 0.01848(15) 0.3194(3)
C3 C 0.6518(3) 0.06806(16) 0.2349(3)
H1 H 0.6184 0.0590 0.1671
C4 C 0.6884(3) 0.12981(16) 0.2596(3)
C5 C 0.7579(3) 0.00932(15) 0.5093(3)
C6 C 0.8211(2) -0.04419(16) 0.5080(3)
C7 C 0.8375(3) -0.06839(16) 0.6200(3)
H2 H 0.8777 -0.1049 0.6349
C8 C 0.7909(3) -0.03476(16) 0.7041(3)
C9 C 0.5529(3) -0.08935(19) 0.4466(3)
H3 H 0.5262 -0.1332 0.4405
H4 H 0.5002 -0.0587 0.4607
H5 H 0.6009 -0.0877 0.5077
C10 C 0.5215(3) -0.0666(2) 0.1940(4)
H6 H 0.4914 -0.1095 0.1872
H7 H 0.5544 -0.0559 0.1252
H8 H 0.4711 -0.0343 0.2081
C11 C 0.9218(3) -0.0061(2) 0.2808(3)
H9 H 0.9552 -0.0246 0.2174
H10 H 0.9652 0.0246 0.3191
H11 H 0.8629 0.0166 0.2549
C12 C 1.0026(3) -0.1163(2) 0.4296(4)
H12 H 1.0386 -0.1319 0.3658
H13 H 0.9850 -0.1531 0.4763
H14 H 1.0434 -0.0861 0.4725
C13 C 0.6828(4) 0.28008(19) 0.2553(4)
H15 H 0.6846 0.3185 0.2079
H16 H 0.7376 0.2814 0.3085
H17 H 0.6214 0.2794 0.2952
C14 C 0.5874(4) 0.2001(3) 0.0650(4)
H18 H 0.5881 0.2383 0.0169
H19 H 0.5260 0.1987 0.1047
H20 H 0.5937 0.1609 0.0201
C15 C 0.8122(3) 0.2054(2) 0.0923(4)
H21 H 0.8152 0.2436 0.0446
H22 H 0.8173 0.1662 0.0472
H23 H 0.8662 0.2066 0.1466
C16 C 0.6739(4) -0.1010(3) 0.8855(5)
H24 H 0.6698 -0.1104 0.9647
H25 H 0.6771 -0.1417 0.8442
H26 H 0.6161 -0.0766 0.8611
C17 C 0.7798(6) 0.0291(3) 0.9326(4)
H27 H 0.7776 0.0220 1.0126
H28 H 0.7207 0.0520 0.9078
H29 H 0.8371 0.0552 0.9154
C18 C 0.9002(4) -0.0976(2) 0.9047(4)
H30 H 0.8981 -0.1061 0.9843
H31 H 0.9581 -0.0719 0.8886
H32 H 0.9029 -0.1388 0.8646
C19 C 0.7087(3) -0.13290(15) 0.2771(3)
C20 C 0.8072(2) -0.13518(15) 0.2991(3)
C21 C 0.6611(3) -0.19124(18) 0.2192(4)
C22 C 0.6692(4) -0.2647(2) 0.0634(5)
H33 H 0.7038 -0.2698 -0.0061
H34 H 0.5991 -0.2614 0.0479
H35 H 0.6822 -0.3022 0.1109
C23 C 0.8652(3) -0.19380(18) 0.2583(3)
C24 C 0.9907(5) -0.2260(3) 0.1337(6)
H36 H 1.0352 -0.2067 0.0807
H37 H 0.9481 -0.2572 0.0955
H38 H 1.0285 -0.2482 0.1920
loop_
_geom_bond_atom_site_label_1
_geom_bond_atom_site_label_2
_geom_bond_site_symmetry_1
_geom_bond_site_symmetry_2
S1 C1 1_555 1_555
S2 C5 1_555 1_555
Si1 C2 1_555 1_555
Si2 C6 1_555 1_555
Si3 C4 1_555 1_555
Si4 C8 1_555 1_555
O1 C21 1_555 1_555
O2 C21 1_555 1_555
O3 C23 1_555 1_555
O4 C23 1_555 1_555
C1 C2 1_555 1_555
C2 C3 1_555 1_555
C3 H1 1_555 1_555
C4 S1 1_555 1_555
C5 C1 1_555 1_555
C6 C5 1_555 1_555
C7 C6 1_555 1_555
H2 C7 1_555 1_555
C8 S2 1_555 1_555
C9 Si1 1_555 1_555
H3 C9 1_555 1_555
H4 C9 1_555 1_555
H5 C9 1_555 1_555
C10 Si1 1_555 1_555
H6 C10 1_555 1_555
H7 C10 1_555 1_555
H8 C10 1_555 1_555
C11 Si2 1_555 1_555
H9 C11 1_555 1_555
H10 C11 1_555 1_555
H11 C11 1_555 1_555
C12 Si2 1_555 1_555
H12 C12 1_555 1_555
H13 C12 1_555 1_555
H14 C12 1_555 1_555
C13 Si3 1_555 1_555
H15 C13 1_555 1_555
H16 C13 1_555 1_555
H17 C13 1_555 1_555
C14 Si3 1_555 1_555
H18 C14 1_555 1_555
H19 C14 1_555 1_555
H20 C14 1_555 1_555
C15 Si3 1_555 1_555
H21 C15 1_555 1_555
H22 C15 1_555 1_555
H23 C15 1_555 1_555
C16 Si4 1_555 1_555
H24 C16 1_555 1_555
H25 C16 1_555 1_555
H26 C16 1_555 1_555
C17 Si4 1_555 1_555
H27 C17 1_555 1_555
H28 C17 1_555 1_555
H29 C17 1_555 1_555
C18 Si4 1_555 1_555
H30 C18 1_555 1_555
H31 C18 1_555 1_555
H32 C18 1_555 1_555
C19 Si1 1_555 1_555
C20 Si2 1_555 1_555
C21 C19 1_555 1_555
C22 O2 1_555 1_555
H33 C22 1_555 1_555
H34 C22 1_555 1_555
H35 C22 1_555 1_555
C23 C20 1_555 1_555
C24 O4 1_555 1_555
H36 C24 1_555 1_555
H37 C24 1_555 1_555
H38 C24 1_555 1_555
C3 C4 1_555 1_555
C7 C8 1_555 1_555
C19 C20 1_555 1_555

#END
