
#######################################################################
#
#                 Cambridge Crystallographic Data Centre
#                                CCDC 
#
#######################################################################
#
# If this CIF has been generated from an entry in the Cambridge 
# Structural Database, then it will include bibliographic, chemical, 
# crystal, experimental, refinement or atomic coordinate data resulting 
# from the CCDC's data processing and validation procedures.
#
#######################################################################

data_HEFTUI01
_chemical_formula_moiety         'C7 H5 O4 1-,C3 H5 N2 1+'
_chemical_name_systematic        '1H-Imidazol-3-ium 2,4-dihydroxybenzoate'
_symmetry_cell_setting           monoclinic
_symmetry_space_group_name_H-M   'P 21/c'
_symmetry_Int_Tables_number      14
_space_group_name_Hall           '-P 2ybc'
loop_
_symmetry_equiv_pos_site_id
_symmetry_equiv_pos_as_xyz
1 x,y,z
2 -x,1/2+y,1/2-z
3 -x,-y,-z
4 x,1/2-y,1/2+z
_cell_length_a                   10.1856(16)
_cell_length_b                   9.8359(15)
_cell_length_c                   11.3474(18)
_cell_angle_alpha                90
_cell_angle_beta                 116.099(2)
_cell_angle_gamma                90
_cell_volume                     1020.92
_exptl_crystal_colour            colorless
_exptl_crystal_description       block
_cell_formula_units_Z            4
loop_
_atom_site_label
_atom_site_type_symbol
_atom_site_fract_x
_atom_site_fract_y
_atom_site_fract_z
O1 O 0.31712(11) 0.10614(10) -0.18786(10)
O2 O 0.40354(12) 0.12060(11) 0.02831(10)
O3 O 0.30033(13) -0.02782(13) 0.15101(10)
H1 H 0.3562 0.0257 0.1409
C1 C 0.20073(15) -0.02473(14) -0.08403(13)
C2 C 0.09294(17) -0.07511(16) -0.20232(14)
H2 H 0.0917 -0.0463 -0.2809
C3 C 0.31307(16) 0.07309(14) -0.08170(14)
O4 O -0.11054(13) -0.29802(13) -0.08524(11)
H3 H -0.1661 -0.3210 -0.1603
C4 C -0.01047(16) -0.20918(16) -0.08847(15)
C5 C 0.09428(17) -0.16180(16) 0.02996(15)
H4 H 0.0947 -0.1912 0.1080
C6 C 0.19890(16) -0.07037(15) 0.03251(14)
C7 C -0.01115(17) -0.16596(17) -0.20586(15)
H5 H -0.0814 -0.1984 -0.2858
N1 N 0.63799(15) 0.43680(14) -0.14013(13)
H6 H 0.6473 0.4723 -0.2053
N2 N 0.56651(14) 0.30791(13) -0.02843(13)
H7 H 0.5213 0.2451 -0.0082
C8 C 0.55238(17) 0.33351(16) -0.14702(15)
H8 H 0.4922 0.2867 -0.2230
C9 C 0.7093(2) 0.47816(19) -0.01283(17)
H9 H 0.7763 0.5490 0.0193
C10 C 0.6644(2) 0.39699(18) 0.05725(16)
H10 H 0.6944 0.4008 0.1473
loop_
_geom_bond_atom_site_label_1
_geom_bond_atom_site_label_2
_geom_bond_site_symmetry_1
_geom_bond_site_symmetry_2
O1 C3 1_555 1_555
O2 C3 1_555 1_555
O3 H1 1_555 1_555
C1 C2 1_555 1_555
C2 H2 1_555 1_555
C3 C1 1_555 1_555
O4 H3 1_555 1_555
C4 O4 1_555 1_555
C5 C4 1_555 1_555
H4 C5 1_555 1_555
C6 O3 1_555 1_555
C7 C2 1_555 1_555
H5 C7 1_555 1_555
N1 H6 1_555 1_555
N2 H7 1_555 1_555
C8 N1 1_555 1_555
H8 C8 1_555 1_555
C9 N1 1_555 1_555
H9 C9 1_555 1_555
C10 N2 1_555 1_555
H10 C10 1_555 1_555
C1 C6 1_555 1_555
C4 C7 1_555 1_555
C5 C6 1_555 1_555
N2 C8 1_555 1_555
C9 C10 1_555 1_555

#END
