
#######################################################################
#
#                 Cambridge Crystallographic Data Centre
#                                CCDC 
#
#######################################################################
#
# If this CIF has been generated from an entry in the Cambridge 
# Structural Database, then it will include bibliographic, chemical, 
# crystal, experimental, refinement or atomic coordinate data resulting 
# from the CCDC's data processing and validation procedures.
#
#######################################################################

data_HEFWIZ
_chemical_formula_moiety         'C15 H17 Cl1 N4 O5 S1'
_chemical_name_systematic        
6-(4-Chlorophenyl)-3-(D-gluco-pentitol-1-yl)-7H-1,2,4-triazolo(3,4-b)(1,3,4)thiadiazine
_symmetry_cell_setting           monoclinic
_symmetry_space_group_name_H-M   'P 21'
_symmetry_Int_Tables_number      4
_space_group_name_Hall           'P 2yb'
loop_
_symmetry_equiv_pos_site_id
_symmetry_equiv_pos_as_xyz
1 x,y,z
2 -x,1/2+y,-z
_cell_length_a                   8.5235(8)
_cell_length_b                   8.0933(7)
_cell_length_c                   12.3116(11)
_cell_angle_alpha                90
_cell_angle_beta                 94.681(2)
_cell_angle_gamma                90
_cell_volume                     846.461
_exptl_crystal_colour            colorless
_exptl_crystal_description       block
_chemical_melting_point          '448-450 K'
_cell_formula_units_Z            2
_exptl_crystal_recrystallization_method '95% ethanol'
loop_
_atom_site_label
_atom_site_type_symbol
_atom_site_fract_x
_atom_site_fract_y
_atom_site_fract_z
Cl1 Cl 0.00046(9) 1.15925(12) 1.23850(6)
S1 S 0.30991(8) 0.36140(9) 0.90177(5)
O1 O 0.6687(2) 0.8787(3) 0.73492(14)
H1 H 0.7222 0.9434 0.7024
O2 O 0.4786(2) 1.0996(2) 0.60731(14)
H2 H 0.4602 1.1866 0.6380
O3 O 0.2706(2) 0.8836(3) 0.49034(13)
H3 H 0.3389 0.9430 0.4679
O4 O 0.1170(2) 1.0770(3) 0.72535(15)
H4 H 0.0283 1.1102 0.7350
O5 O -0.1534(2) 1.0807(3) 0.60586(16)
H5 H -0.1971 1.1458 0.5622
N1 N 0.3667(2) 0.7427(3) 0.87035(16)
N2 N 0.4240(2) 0.6270(3) 0.80034(15)
N3 N 0.4946(3) 0.5289(3) 0.64663(17)
N4 N 0.4370(3) 0.3986(3) 0.70578(18)
C1 C 0.1807(3) 0.9437(4) 0.9868(2)
H6 H 0.1827 0.9626 0.9124
C2 C 0.1046(3) 1.0541(4) 1.0501(2)
H7 H 0.0560 1.1476 1.0190
C3 C 0.1018(3) 1.0234(4) 1.1603(2)
C4 C 0.1743(3) 0.8886(4) 1.2086(2)
H8 H 0.1724 0.8714 1.2832
C5 C 0.2506(3) 0.7778(4) 1.1454(2)
H9 H 0.2996 0.6853 1.1776
C6 C 0.2544(3) 0.8042(3) 1.0335(2)
C7 C 0.3344(3) 0.6869(3) 0.96432(18)
C8 C 0.3749(4) 0.5141(4) 1.0035(2)
H10 H 0.3252 0.4926 1.0702
H11 H 0.4879 0.5052 1.0196
C9 C 0.3948(3) 0.4609(3) 0.7966(2)
C10 C 0.4836(3) 0.6634(4) 0.70192(18)
C11 C 0.5358(3) 0.8298(3) 0.6655(2)
H12 H 0.5700 0.8175 0.5919
C12 C 0.4112(3) 0.9666(3) 0.6618(2)
H13 H 0.3941 1.0004 0.7364
C13 C 0.2546(3) 0.9192(3) 0.60248(19)
H14 H 0.2179 0.8184 0.6365
C14 C 0.1294(3) 1.0518(4) 0.6120(2)
H15 H 0.1634 1.1545 0.5789
C15 C -0.0291(3) 0.9991(4) 0.5567(2)
H16 H -0.0338 1.0265 0.4798
H17 H -0.0412 0.8804 0.5632
loop_
_geom_bond_atom_site_label_1
_geom_bond_atom_site_label_2
_geom_bond_site_symmetry_1
_geom_bond_site_symmetry_2
Cl1 C3 1_555 1_555
S1 C8 1_555 1_555
O1 H1 1_555 1_555
O2 H2 1_555 1_555
O3 H3 1_555 1_555
O4 H4 1_555 1_555
O5 H5 1_555 1_555
N1 N2 1_555 1_555
N2 C9 1_555 1_555
N3 N4 1_555 1_555
N4 C9 1_555 1_555
C1 H6 1_555 1_555
C2 C1 1_555 1_555
H7 C2 1_555 1_555
C3 C2 1_555 1_555
C4 C3 1_555 1_555
H8 C4 1_555 1_555
C5 C4 1_555 1_555
H9 C5 1_555 1_555
C6 C1 1_555 1_555
C7 N1 1_555 1_555
C8 C7 1_555 1_555
H10 C8 1_555 1_555
H11 C8 1_555 1_555
C9 S1 1_555 1_555
C10 N2 1_555 1_555
C11 O1 1_555 1_555
H12 C11 1_555 1_555
C12 O2 1_555 1_555
H13 C12 1_555 1_555
C13 O3 1_555 1_555
H14 C13 1_555 1_555
C14 O4 1_555 1_555
H15 C14 1_555 1_555
C15 O5 1_555 1_555
H16 C15 1_555 1_555
H17 C15 1_555 1_555
N3 C10 1_555 1_555
C5 C6 1_555 1_555
C6 C7 1_555 1_555
C10 C11 1_555 1_555
C11 C12 1_555 1_555
C12 C13 1_555 1_555
C13 C14 1_555 1_555
C14 C15 1_555 1_555

#END
