
#######################################################################
#
#                 Cambridge Crystallographic Data Centre
#                                CCDC 
#
#######################################################################
#
# If this CIF has been generated from an entry in the Cambridge 
# Structural Database, then it will include bibliographic, chemical, 
# crystal, experimental, refinement or atomic coordinate data resulting 
# from the CCDC's data processing and validation procedures.
#
#######################################################################

data_HEFXAT
_chemical_formula_moiety         'C12 H10 N2 O3'
_chemical_name_systematic        3-(Benzyloxy)-2-nitropyridine
_symmetry_cell_setting           monoclinic
_symmetry_space_group_name_H-M   'P 21/n'
_symmetry_Int_Tables_number      14
_space_group_name_Hall           '-P 2yn'
loop_
_symmetry_equiv_pos_site_id
_symmetry_equiv_pos_as_xyz
1 x,y,z
2 1/2-x,1/2+y,1/2-z
3 -x,-y,-z
4 1/2+x,1/2-y,1/2+z
_cell_length_a                   7.112(3)
_cell_length_b                   13.030(6)
_cell_length_c                   12.407(5)
_cell_angle_alpha                90
_cell_angle_beta                 92.004(7)
_cell_angle_gamma                90
_cell_volume                     1149.05
_cell_formula_units_Z            4
loop_
_atom_site_label
_atom_site_type_symbol
_atom_site_fract_x
_atom_site_fract_y
_atom_site_fract_z
O1 O 0.2617(2) 0.42292(12) 1.05571(12)
N1 N 0.2814(3) 0.25561(16) 1.28559(18)
N2 N 0.2585(5) 0.21963(18) 1.0988(2)
O2 O 0.3872(7) 0.2132(4) 1.0385(4)
O3 O 0.1135(7) 0.1697(3) 1.0924(4)
C1 C 0.2261(4) 0.4432(2) 0.8387(2)
H1 H 0.2323 0.3792 0.8717
C2 C 0.2071(5) 0.4492(2) 0.7275(2)
H2 H 0.2013 0.3894 0.6867
C3 C 0.1967(4) 0.5429(3) 0.6769(2)
H3 H 0.1829 0.5468 0.6022
C4 C 0.2068(4) 0.6304(2) 0.7380(2)
H4 H 0.2005 0.6942 0.7045
C5 C 0.2264(4) 0.62465(19) 0.8488(2)
H5 H 0.2332 0.6848 0.8892
C6 C 0.2361(3) 0.53055(17) 0.90110(19)
C7 C 0.2547(3) 0.52814(16) 1.02284(19)
H6 H 0.3686 0.5634 1.0472
H7 H 0.1480 0.5622 1.0539
C8 C 0.2764(3) 0.39962(17) 1.16230(18)
C9 C 0.2915(4) 0.46711(19) 1.2476(2)
H8 H 0.2928 0.5376 1.2360
C10 C 0.3047(4) 0.4271(2) 1.3509(2)
H9 H 0.3180 0.4709 1.4098
C11 C 0.2983(5) 0.3231(2) 1.3665(2)
H10 H 0.3061 0.2983 1.4368
C12 C 0.2735(4) 0.29603(18) 1.18844(19)
O4? O 0.4030(15) 0.1752(10) 1.0772(11)
O5? O 0.1145(14) 0.2039(11) 1.0521(11)
loop_
_geom_bond_atom_site_label_1
_geom_bond_atom_site_label_2
_geom_bond_site_symmetry_1
_geom_bond_site_symmetry_2
O1 C7 1_555 1_555
N1 C11 1_555 1_555
N2 O2 1_555 1_555
O3 N2 1_555 1_555
C1 H1 1_555 1_555
C2 C1 1_555 1_555
H2 C2 1_555 1_555
C3 C2 1_555 1_555
H3 C3 1_555 1_555
C4 C3 1_555 1_555
H4 C4 1_555 1_555
C5 C4 1_555 1_555
H5 C5 1_555 1_555
C6 C1 1_555 1_555
C7 C6 1_555 1_555
H6 C7 1_555 1_555
H7 C7 1_555 1_555
C8 O1 1_555 1_555
C9 C8 1_555 1_555
H8 C9 1_555 1_555
C10 C9 1_555 1_555
H9 C10 1_555 1_555
C11 C10 1_555 1_555
H10 C11 1_555 1_555
C12 N1 1_555 1_555
N2 C12 1_555 1_555
C5 C6 1_555 1_555
C8 C12 1_555 1_555

#END
