
#######################################################################
#
#                 Cambridge Crystallographic Data Centre
#                                CCDC 
#
#######################################################################
#
# If this CIF has been generated from an entry in the Cambridge 
# Structural Database, then it will include bibliographic, chemical, 
# crystal, experimental, refinement or atomic coordinate data resulting 
# from the CCDC's data processing and validation procedures.
#
#######################################################################

data_HEFZUP
_chemical_formula_moiety         'C23 H18 Cl2 O3'
_chemical_name_systematic        
2,4-bis(4-chlorophenyl)-7-methoxy-4-methyl-4H-chromen-8-ol
_symmetry_cell_setting           triclinic
_symmetry_space_group_name_H-M   'P 1'
_symmetry_Int_Tables_number      1
_space_group_name_Hall           'P 1'
loop_
_symmetry_equiv_pos_site_id
_symmetry_equiv_pos_as_xyz
1 x,y,z
_cell_length_a                   6.801(10)
_cell_length_b                   8.232(12)
_cell_length_c                   28.08(4)
_cell_angle_alpha                95.03(2)
_cell_angle_beta                 90.61(2)
_cell_angle_gamma                91.551(19)
_cell_volume                     1565.32
_exptl_crystal_colour            colorless
_exptl_crystal_description       block
_cell_formula_units_Z            2
loop_
_atom_site_label
_atom_site_type_symbol
_atom_site_fract_x
_atom_site_fract_y
_atom_site_fract_z
C1 C -0.1439(9) 0.4798(7) 0.8001(2)
C2 C -0.1741(9) 0.3353(9) 0.8214(2)
H1 H -0.2566 0.3326 0.8476
C3 C -0.0812(10) 0.1947(7) 0.8037(3)
H2 H -0.1015 0.0980 0.8180
C4 C 0.0420(10) 0.1986(7) 0.7646(2)
C5 C 0.0722(10) 0.3432(9) 0.7433(2)
H3 H 0.1547 0.3458 0.7171
C6 C -0.0207(11) 0.4838(7) 0.7610(3)
H4 H -0.0004 0.5805 0.7467
C7 C 0.1463(12) 0.0334(9) 0.7435(3)
C8 C 0.256(2) -0.0519(15) 0.7837(5)
H5 H 0.1680 -0.0669 0.8095
H6 H 0.3672 0.0152 0.7954
H7 H 0.3010 -0.1560 0.7707
C9 C -0.0242(13) -0.0771(11) 0.7257(3)
H8 H -0.1099 -0.1171 0.7478
C10 C -0.2295(8) -0.2221(8) 0.6582(2)
C11 C -0.2518(9) -0.2535(10) 0.6089(2)
H9 H -0.1572 -0.2152 0.5887
C12 C -0.4155(11) -0.3423(11) 0.5899(2)
H10 H -0.4304 -0.3633 0.5570
C13 C -0.5569(9) -0.3996(10) 0.6202(3)
C14 C -0.5346(10) -0.3682(10) 0.6694(3)
H11 H -0.6292 -0.4066 0.6897
C15 C -0.3709(11) -0.2795(10) 0.6884(2)
H12 H -0.3560 -0.2585 0.7214
C16 C -0.0561(13) -0.1195(11) 0.6788(3)
C17 C 0.2890(7) 0.0693(8) 0.70326(18)
C18 C 0.2354(7) 0.0192(8) 0.65624(19)
C19 C 0.3567(8) 0.0575(10) 0.61907(17)
C20 C 0.5317(8) 0.1459(9) 0.6289(2)
C21 C 0.5853(7) 0.1959(8) 0.6759(2)
H13 H 0.7023 0.2551 0.6825
C22 C 0.4639(8) 0.1577(8) 0.71311(19)
H14 H 0.4998 0.1912 0.7446
C23 C 0.821(2) 0.252(2) 0.5961(6)
H15 H 0.9018 0.1843 0.6139
H16 H 0.8089 0.3564 0.6136
H17 H 0.8795 0.2655 0.5657
Cl1 Cl -0.2621(6) 0.6594(5) 0.82376(15)
Cl2 Cl -0.7656(6) -0.5086(6) 0.5970(2)
O1 O 0.0647(12) -0.0656(10) 0.6435(3)
O2 O 0.2964(14) 0.0057(17) 0.5723(3)
H18 H 0.1759 0.0034 0.5705
O3 O 0.6314(15) 0.1766(13) 0.5888(4)
C24 C -0.0343(9) -0.2572(10) 0.0898(3)
C25 C -0.0114(9) -0.2583(10) 0.0406(3)
H19 H -0.1051 -0.3112 0.0200
C26 C 0.1514(10) -0.1804(10) 0.0224(2)
H20 H 0.1666 -0.1811 -0.0105
C27 C 0.2913(8) -0.1014(8) 0.0533(2)
C28 C 0.2685(10) -0.1003(9) 0.1024(2)
H21 H 0.3622 -0.0474 0.1231
C29 C 0.1057(11) -0.1782(10) 0.1207(2)
H22 H 0.0905 -0.1775 0.1536
C30 C 0.4656(14) -0.0135(11) 0.0331(3)
C31 C 0.4923(12) -0.0014(11) -0.0149(3)
H23 H 0.4047 -0.0563 -0.0367
C32 C 0.6628(13) 0.1004(11) -0.0334(3)
C33 C 0.7662(18) -0.0030(16) -0.0740(4)
H24 H 0.8853 0.0525 -0.0822
H25 H 0.6805 -0.0186 -0.1015
H26 H 0.7970 -0.1072 -0.0633
C34 C 0.5496(9) 0.2552(6) -0.0537(2)
C35 C 0.4261(10) 0.2277(6) -0.0935(2)
H27 H 0.4068 0.1226 -0.1081
C36 C 0.3315(10) 0.3573(8) -0.1115(2)
H28 H 0.2489 0.3388 -0.1381
C37 C 0.3604(10) 0.5144(7) -0.0896(3)
C38 C 0.4839(10) 0.5420(6) -0.0498(3)
H29 H 0.5032 0.6471 -0.0352
C39 C 0.5785(9) 0.4124(7) -0.0318(2)
H30 H 0.6611 0.4308 -0.0052
C40 C 1.356(2) 0.412(3) 0.1165(8)
H31 H 1.4553 0.3310 0.1129
H32 H 1.3868 0.4862 0.1440
H33 H 1.3517 0.4706 0.0885
C41 C 0.7563(7) 0.1349(7) 0.0535(2)
C42 C 0.8056(7) 0.1618(8) 0.00682(18)
C43 C 0.9814(9) 0.2428(10) -0.0022(2)
H34 H 1.0144 0.2607 -0.0334
C44 C 1.1079(8) 0.2970(10) 0.0354(3)
H35 H 1.2256 0.3512 0.0294
C45 C 1.0586(9) 0.2702(9) 0.0821(2)
C46 C 0.8828(9) 0.1891(8) 0.09108(17)
Cl3 Cl -0.2367(6) -0.3502(6) 0.1131(2)
Cl4 Cl 0.2417(6) 0.6752(5) -0.11265(15)
O4 O 0.5863(10) 0.0512(9) 0.0679(3)
O5 O 0.8230(12) 0.1668(15) 0.1381(4)
H36 H 0.9191 0.1757 0.1562
O6 O 1.1679(11) 0.3331(13) 0.1227(3)
loop_
_geom_bond_atom_site_label_1
_geom_bond_atom_site_label_2
_geom_bond_site_symmetry_1
_geom_bond_site_symmetry_2
C1 C2 1_555 1_555
C2 H1 1_555 1_555
C3 C2 1_555 1_555
H2 C3 1_555 1_555
C4 C3 1_555 1_555
C5 C4 1_555 1_555
H3 C5 1_555 1_555
C6 C1 1_555 1_555
H4 C6 1_555 1_555
C7 C4 1_555 1_555
C8 C7 1_555 1_555
H5 C8 1_555 1_555
H6 C8 1_555 1_555
H7 C8 1_555 1_555
C9 C7 1_555 1_555
H8 C9 1_555 1_555
C10 C11 1_555 1_555
C11 H9 1_555 1_555
C12 C11 1_555 1_555
H10 C12 1_555 1_555
C13 C12 1_555 1_555
C14 C13 1_555 1_555
H11 C14 1_555 1_555
C15 C10 1_555 1_555
H12 C15 1_555 1_555
C16 C9 1_555 1_555
C17 C7 1_555 1_555
C18 C17 1_555 1_555
C19 C18 1_555 1_555
C20 C19 1_555 1_555
C21 C20 1_555 1_555
H13 C21 1_555 1_555
C22 C17 1_555 1_555
H14 C22 1_555 1_555
C23 H15 1_555 1_555
H16 C23 1_555 1_555
H17 C23 1_555 1_555
Cl1 C1 1_555 1_555
Cl2 C13 1_555 1_555
O1 C16 1_555 1_555
O2 C19 1_555 1_555
H18 O2 1_555 1_555
O3 C20 1_555 1_555
C24 C25 1_555 1_555
C25 H19 1_555 1_555
C26 C25 1_555 1_555
H20 C26 1_555 1_555
C27 C26 1_555 1_555
C28 C27 1_555 1_555
H21 C28 1_555 1_555
C29 C24 1_555 1_555
H22 C29 1_555 1_555
C30 C27 1_555 1_555
C31 C30 1_555 1_555
H23 C31 1_555 1_555
C32 C31 1_555 1_555
C33 C32 1_555 1_555
H24 C33 1_555 1_555
H25 C33 1_555 1_555
H26 C33 1_555 1_555
C34 C32 1_555 1_555
C35 C34 1_555 1_555
H27 C35 1_555 1_555
C36 C35 1_555 1_555
H28 C36 1_555 1_555
C37 C36 1_555 1_555
C38 C37 1_555 1_555
H29 C38 1_555 1_555
C39 C34 1_555 1_555
H30 C39 1_555 1_555
C40 H31 1_555 1_555
H32 C40 1_555 1_555
H33 C40 1_555 1_555
C41 C42 1_555 1_555
C42 C32 1_555 1_555
C43 C42 1_555 1_555
H34 C43 1_555 1_555
C44 C43 1_555 1_555
H35 C44 1_555 1_555
C45 C44 1_555 1_555
C46 C41 1_555 1_555
Cl3 C24 1_555 1_555
Cl4 C37 1_555 1_555
O4 C30 1_555 1_555
O5 C46 1_555 1_555
H36 O5 1_555 1_555
O6 C40 1_555 1_555
C5 C6 1_555 1_555
C10 C16 1_555 1_555
C14 C15 1_555 1_555
C18 O1 1_555 1_555
C21 C22 1_555 1_555
C23 O3 1_555 1_555
C28 C29 1_555 1_555
C38 C39 1_555 1_555
C41 O4 1_555 1_555
C45 C46 1_555 1_555
C45 O6 1_555 1_555

#END
