
#######################################################################
#
#                 Cambridge Crystallographic Data Centre
#                                CCDC 
#
#######################################################################
#
# If this CIF has been generated from an entry in the Cambridge 
# Structural Database, then it will include bibliographic, chemical, 
# crystal, experimental, refinement or atomic coordinate data resulting 
# from the CCDC's data processing and validation procedures.
#
#######################################################################

data_HEGBAY
_chemical_formula_moiety         'C23 H28 O6'
_chemical_name_systematic        
6,6'-Dimethoxy-3,3,3',3'-tetramethyl-2,2',3,3'-tetrahydro-1,1'-spirobi[indene]-4,4',5,5'-tetrol
_symmetry_cell_setting           monoclinic
_symmetry_space_group_name_H-M   'P 21/c'
_symmetry_Int_Tables_number      14
_space_group_name_Hall           '-P 2ybc'
loop_
_symmetry_equiv_pos_site_id
_symmetry_equiv_pos_as_xyz
1 x,y,z
2 -x,1/2+y,1/2-z
3 -x,-y,-z
4 x,1/2-y,1/2+z
_cell_length_a                   8.9227(18)
_cell_length_b                   14.534(3)
_cell_length_c                   15.883(3)
_cell_angle_alpha                90
_cell_angle_beta                 92.475(3)
_cell_angle_gamma                90
_cell_volume                     2057.83
_cell_formula_units_Z            4
loop_
_atom_site_label
_atom_site_type_symbol
_atom_site_fract_x
_atom_site_fract_y
_atom_site_fract_z
C1 C 0.6770(5) -0.0159(3) 0.8936(2)
H1 H 0.7786 -0.0364 0.8889
H2 H 0.6152 -0.0671 0.9082
H3 H 0.6735 0.0303 0.9366
C2 C 0.6893(4) 0.1006(2) 0.78705(19)
C3 C 0.8235(4) 0.1383(2) 0.81481(19)
H4 H 0.8814 0.1102 0.8575
C4 C 0.8710(3) 0.2188(2) 0.77824(18)
C5 C 0.7868(3) 0.2618(2) 0.71409(18)
C6 C 0.6498(4) 0.2241(2) 0.68732(18)
C7 C 0.6026(3) 0.1438(2) 0.7235(2)
C8 C 0.8558(3) 0.3513(2) 0.68643(19)
C9 C 0.8750(4) 0.3561(3) 0.5911(2)
H5 H 0.9313 0.3038 0.5735
H6 H 0.9277 0.4115 0.5777
H7 H 0.7782 0.3562 0.5623
C10 C 0.7611(4) 0.4334(2) 0.7138(2)
H8 H 0.6640 0.4309 0.6853
H9 H 0.8102 0.4897 0.6995
H10 H 0.7498 0.4309 0.7736
C11 C 1.0111(4) 0.3491(2) 0.73417(19)
H11 H 1.0315 0.4084 0.7602
H12 H 1.0888 0.3368 0.6948
C12 C 1.0123(3) 0.2726(2) 0.80317(18)
C13 C 1.1575(4) 0.2151(2) 0.8066(2)
H13 H 1.2045 0.2176 0.7527
H14 H 1.1348 0.1514 0.8190
C14 C 1.2650(3) 0.2554(2) 0.87691(19)
C15 C 1.3721(4) 0.3270(3) 0.8414(2)
H15 H 1.3149 0.3743 0.8126
H16 H 1.4364 0.2976 0.8026
H17 H 1.4319 0.3538 0.8867
C16 C 1.3557(4) 0.1790(3) 0.9204(2)
H18 H 1.4216 0.2050 0.9635
H19 H 1.4139 0.1477 0.8798
H20 H 1.2888 0.1362 0.9454
C17 C 1.1533(3) 0.3016(2) 0.93227(19)
C18 C 1.0127(3) 0.3099(2) 0.89275(18)
C19 C 0.8932(3) 0.3508(2) 0.93146(19)
H21 H 0.7990 0.3541 0.9043
C20 C 0.9177(4) 0.3866(2) 1.0114(2)
C21 C 1.0584(4) 0.3797(2) 1.05160(18)
C22 C 1.1752(3) 0.3374(2) 1.0135(2)
C23 C 0.6678(4) 0.4404(3) 1.0223(2)
H22 H 0.6729 0.4725 0.9698
H23 H 0.6075 0.4749 1.0598
H24 H 0.6236 0.3809 1.0126
O1 O 0.6238(3) 0.02132(16) 0.81582(14)
O2 O 0.4656(2) 0.10587(16) 0.69748(14)
H25 H 0.4509 0.0589 0.7246
O3 O 0.5645(3) 0.26889(15) 0.62598(14)
H26 H 0.4909 0.2375 0.6126
O4 O 0.8143(2) 0.42977(16) 1.05909(13)
O5 O 1.0875(3) 0.41465(17) 1.13136(14)
H27 H 1.0095 0.4344 1.1501
O6 O 1.3142(2) 0.33214(17) 1.05468(13)
H28 H 1.3137 0.3625 1.0982
loop_
_geom_bond_atom_site_label_1
_geom_bond_atom_site_label_2
_geom_bond_site_symmetry_1
_geom_bond_site_symmetry_2
C1 H1 1_555 1_555
H2 C1 1_555 1_555
H3 C1 1_555 1_555
C2 C3 1_555 1_555
C3 H4 1_555 1_555
C4 C3 1_555 1_555
C5 C4 1_555 1_555
C6 C5 1_555 1_555
C7 C2 1_555 1_555
C8 C5 1_555 1_555
C9 C8 1_555 1_555
H5 C9 1_555 1_555
H6 C9 1_555 1_555
H7 C9 1_555 1_555
C10 C8 1_555 1_555
H8 C10 1_555 1_555
H9 C10 1_555 1_555
H10 C10 1_555 1_555
C11 C8 1_555 1_555
H11 C11 1_555 1_555
H12 C11 1_555 1_555
C12 C4 1_555 1_555
C13 C12 1_555 1_555
H13 C13 1_555 1_555
H14 C13 1_555 1_555
C14 C13 1_555 1_555
C15 C14 1_555 1_555
H15 C15 1_555 1_555
H16 C15 1_555 1_555
H17 C15 1_555 1_555
C16 C14 1_555 1_555
H18 C16 1_555 1_555
H19 C16 1_555 1_555
H20 C16 1_555 1_555
C17 C14 1_555 1_555
C18 C12 1_555 1_555
C19 C18 1_555 1_555
H21 C19 1_555 1_555
C20 C19 1_555 1_555
C21 C20 1_555 1_555
C22 C17 1_555 1_555
C23 H22 1_555 1_555
H23 C23 1_555 1_555
H24 C23 1_555 1_555
O1 C1 1_555 1_555
O2 C7 1_555 1_555
H25 O2 1_555 1_555
O3 C6 1_555 1_555
H26 O3 1_555 1_555
O4 C20 1_555 1_555
O5 C21 1_555 1_555
H27 O5 1_555 1_555
O6 C22 1_555 1_555
H28 O6 1_555 1_555
C2 O1 1_555 1_555
C6 C7 1_555 1_555
C11 C12 1_555 1_555
C17 C18 1_555 1_555
C21 C22 1_555 1_555
C23 O4 1_555 1_555

#END
