
#######################################################################
#
#                 Cambridge Crystallographic Data Centre
#                                CCDC 
#
#######################################################################
#
# If this CIF has been generated from an entry in the Cambridge 
# Structural Database, then it will include bibliographic, chemical, 
# crystal, experimental, refinement or atomic coordinate data resulting 
# from the CCDC's data processing and validation procedures.
#
#######################################################################

data_HEGCIH
_chemical_formula_moiety         'C14 H7 Br1 F2'
_chemical_name_systematic        2-Bromo-1,5-difluoro-3-(phenylethynyl)benzene
_symmetry_cell_setting           triclinic
_symmetry_space_group_name_H-M   'P -1'
_symmetry_Int_Tables_number      2
_space_group_name_Hall           '-P 1'
loop_
_symmetry_equiv_pos_site_id
_symmetry_equiv_pos_as_xyz
1 x,y,z
2 -x,-y,-z
_cell_length_a                   6.8718(4)
_cell_length_b                   7.3507(5)
_cell_length_c                   12.0591(8)
_cell_angle_alpha                80.181(5)
_cell_angle_beta                 79.038(5)
_cell_angle_gamma                74.648(5)
_cell_volume                     572.016
_exptl_crystal_colour            colorless
_exptl_crystal_description       prism
_cell_formula_units_Z            2
loop_
_atom_site_label
_atom_site_type_symbol
_atom_site_fract_x
_atom_site_fract_y
_atom_site_fract_z
C1 C 0.2231(3) 0.1427(3) 0.69058(16)
C2 C 0.1545(3) 0.0718(3) 0.80062(17)
C3 C 0.2845(3) -0.0226(3) 0.87682(16)
H1 H 0.2350 -0.0716 0.9519
C4 C 0.4893(3) -0.0424(3) 0.83876(17)
C5 C 0.5673(3) 0.0283(3) 0.73149(17)
H2 H 0.7105 0.0123 0.7093
C6 C 0.4321(3) 0.1245(3) 0.65558(16)
C7 C 0.5085(3) 0.2032(3) 0.54347(16)
C8 C 0.5701(3) 0.2707(3) 0.45125(17)
C9 C 0.6385(3) 0.3534(3) 0.33814(16)
C10 C 0.4971(3) 0.4516(3) 0.26688(18)
H3 H 0.3554 0.4632 0.2928
C11 C 0.5621(4) 0.5323(3) 0.15838(19)
H4 H 0.4652 0.5988 0.1099
C12 C 0.7688(4) 0.5158(3) 0.12058(18)
H5 H 0.8132 0.5721 0.0463
C13 C 0.9101(4) 0.4183(3) 0.19000(19)
H6 H 1.0516 0.4065 0.1633
C14 C 0.8462(3) 0.3369(3) 0.29909(18)
H7 H 0.9439 0.2701 0.3470
F1 F 0.62090(19) -0.13710(19) 0.91159(11)
F2 F -0.04810(18) 0.0941(2) 0.83544(11)
Br1 Br 0.03321(3) 0.25886(4) 0.591291(19)
loop_
_geom_bond_atom_site_label_1
_geom_bond_atom_site_label_2
_geom_bond_site_symmetry_1
_geom_bond_site_symmetry_2
C1 C2 1_555 1_555
C2 C3 1_555 1_555
C3 H1 1_555 1_555
C4 C3 1_555 1_555
C5 C4 1_555 1_555
H2 C5 1_555 1_555
C6 C1 1_555 1_555
C7 C6 1_555 1_555
C8 C7 1_555 1_555
C9 C8 1_555 1_555
C10 C9 1_555 1_555
H3 C10 1_555 1_555
C11 C10 1_555 1_555
H4 C11 1_555 1_555
C12 C11 1_555 1_555
H5 C12 1_555 1_555
C13 C12 1_555 1_555
H6 C13 1_555 1_555
C14 C9 1_555 1_555
H7 C14 1_555 1_555
F1 C4 1_555 1_555
F2 C2 1_555 1_555
Br1 C1 1_555 1_555
C5 C6 1_555 1_555
C13 C14 1_555 1_555

#END
