
#######################################################################
#
#                 Cambridge Crystallographic Data Centre
#                                CCDC 
#
#######################################################################
#
# If this CIF has been generated from an entry in the Cambridge 
# Structural Database, then it will include bibliographic, chemical, 
# crystal, experimental, refinement or atomic coordinate data resulting 
# from the CCDC's data processing and validation procedures.
#
#######################################################################

data_HEGDIH
_chemical_formula_moiety         'C23 H26 N2 O4,H2 O1'
_chemical_name_systematic        
'7-(2-(4-(4-Methoxyphenyl)piperazin-1-yl)ethoxy)-4-methyl-2H-chromen-2-one monohydrate'
_chemical_properties_biological  'alpha!1$-adrenoceptor antagonistic activity'
_symmetry_cell_setting           monoclinic
_symmetry_space_group_name_H-M   'P 21/n'
_symmetry_Int_Tables_number      14
_space_group_name_Hall           '-P 2yn'
loop_
_symmetry_equiv_pos_site_id
_symmetry_equiv_pos_as_xyz
1 x,y,z
2 1/2-x,1/2+y,1/2-z
3 -x,-y,-z
4 1/2+x,1/2-y,1/2+z
_cell_length_a                   10.776(7)
_cell_length_b                   7.483(5)
_cell_length_c                   26.381(18)
_cell_angle_alpha                90
_cell_angle_beta                 99.406(10)
_cell_angle_gamma                90
_cell_volume                     2098.68
_exptl_crystal_colour            colorless
_exptl_crystal_description       prism
_chemical_melting_point          511K
_cell_formula_units_Z            4
_exptl_crystal_recrystallization_method 'ethanol/ethyl acetate(1:1)'
loop_
_atom_site_label
_atom_site_type_symbol
_atom_site_fract_x
_atom_site_fract_y
_atom_site_fract_z
N1 N 0.53174(16) 0.7986(2) 0.12525(6)
N2 N 0.31370(15) 0.8865(2) 0.17170(6)
O1 O 1.17834(14) 0.76897(18) -0.00482(5)
O2 O 1.36372(17) 0.7424(2) -0.02888(6)
O3 O 0.80421(14) 0.8368(2) 0.05953(6)
O4 O -0.15187(14) 0.9134(2) 0.23986(6)
C1 C 1.2518(2) 0.7162(3) -0.04013(8)
C2 C 1.1882(2) 0.6361(3) -0.08669(8)
H3 H 1.2357 0.6023 -0.1116
C3 C 1.0639(2) 0.6078(3) -0.09596(7)
C4 C 0.9889(2) 0.6635(2) -0.05837(7)
C5 C 0.8588(2) 0.6460(3) -0.06280(8)
H4 H 0.8145 0.5948 -0.0925
C6 C 0.7934(2) 0.7013(3) -0.02513(8)
H5 H 0.7066 0.6872 -0.0293
C7 C 0.8583(2) 0.7787(3) 0.01941(8)
C8 C 0.9869(2) 0.7992(3) 0.02532(7)
H6 H 1.0307 0.8503 0.0551
C9 C 1.0498(2) 0.7438(2) -0.01305(7)
C10 C 1.0030(3) 0.5162(3) -0.14454(8)
H7 H 0.9370 0.5904 -0.1621
H8 H 0.9685 0.4038 -0.1361
H9 H 1.0648 0.4959 -0.1663
C11 C 0.6738(2) 0.8042(3) 0.05988(8)
H10 H 0.6524 0.6810 0.0509
H11 H 0.6219 0.8823 0.0359
C12 C 0.6566(2) 0.8438(3) 0.11425(8)
H12 H 0.7190 0.7775 0.1375
H13 H 0.6718 0.9700 0.1210
C13 C 0.5342(2) 0.8006(3) 0.18101(8)
H14 H 0.5620 0.9172 0.1944
H15 H 0.5945 0.7128 0.1969
C14 C 0.4084(2) 0.7606(3) 0.19534(8)
H16 H 0.3832 0.6403 0.1844
H17 H 0.4145 0.7662 0.2324
C15 C 0.3096(2) 0.8845(3) 0.11589(7)
H18 H 0.2487 0.9719 0.1001
H19 H 0.2823 0.7677 0.1026
C16 C 0.4362(2) 0.9263(3) 0.10182(8)
H20 H 0.4304 0.9226 0.0648
H21 H 0.4612 1.0461 0.1133
C17 C 0.19665(19) 0.8838(2) 0.18936(7)
C18 C 0.1749(2) 0.7849(3) 0.23161(7)
H22 H 0.2387 0.7119 0.2483
C19 C 0.0613(2) 0.7915(3) 0.24977(7)
H23 H 0.0506 0.7250 0.2785
C20 C -0.0357(2) 0.8961(3) 0.22545(7)
C21 C -0.0158(2) 0.9946(3) 0.18305(8)
H24 H -0.0804 1.0653 0.1660
C22 C 0.0970(2) 0.9897(3) 0.16589(7)
H25 H 0.1078 1.0590 0.1377
C23 C -0.1775(2) 0.8104(4) 0.28198(9)
H26 H -0.2593 0.8406 0.2893
H27 H -0.1153 0.8350 0.3116
H28 H -0.1753 0.6857 0.2736
O5 O 0.47771(17) 0.4188(2) 0.09991(7)
H1 H 0.4900 0.5342 0.1045
H2 H 0.5127 0.4031 0.0728
loop_
_geom_bond_atom_site_label_1
_geom_bond_atom_site_label_2
_geom_bond_site_symmetry_1
_geom_bond_site_symmetry_2
N1 C12 1_555 1_555
N2 C14 1_555 1_555
O1 C1 1_555 1_555
O2 C1 1_555 1_555
O3 C7 1_555 1_555
O4 C20 1_555 1_555
O5 H1 1_555 1_555
H2 O5 1_555 1_555
C1 C2 1_555 1_555
C2 H3 1_555 1_555
C3 C2 1_555 1_555
C4 C3 1_555 1_555
C5 C4 1_555 1_555
H4 C5 1_555 1_555
C6 C5 1_555 1_555
H5 C6 1_555 1_555
C7 C6 1_555 1_555
C8 C7 1_555 1_555
H6 C8 1_555 1_555
C9 O1 1_555 1_555
C10 C3 1_555 1_555
H7 C10 1_555 1_555
H8 C10 1_555 1_555
H9 C10 1_555 1_555
C11 O3 1_555 1_555
H10 C11 1_555 1_555
H11 C11 1_555 1_555
C12 C11 1_555 1_555
H12 C12 1_555 1_555
H13 C12 1_555 1_555
C13 N1 1_555 1_555
H14 C13 1_555 1_555
H15 C13 1_555 1_555
C14 C13 1_555 1_555
H16 C14 1_555 1_555
H17 C14 1_555 1_555
C15 N2 1_555 1_555
H18 C15 1_555 1_555
H19 C15 1_555 1_555
C16 N1 1_555 1_555
H20 C16 1_555 1_555
H21 C16 1_555 1_555
C17 N2 1_555 1_555
C18 C17 1_555 1_555
H22 C18 1_555 1_555
C19 C18 1_555 1_555
H23 C19 1_555 1_555
C20 C19 1_555 1_555
C21 C20 1_555 1_555
H24 C21 1_555 1_555
C22 C17 1_555 1_555
H25 C22 1_555 1_555
C23 O4 1_555 1_555
H26 C23 1_555 1_555
H27 C23 1_555 1_555
H28 C23 1_555 1_555
C4 C9 1_555 1_555
C8 C9 1_555 1_555
C15 C16 1_555 1_555
C21 C22 1_555 1_555

#END
