
#######################################################################
#
#                 Cambridge Crystallographic Data Centre
#                                CCDC 
#
#######################################################################
#
# If this CIF has been generated from an entry in the Cambridge 
# Structural Database, then it will include bibliographic, chemical, 
# crystal, experimental, refinement or atomic coordinate data resulting 
# from the CCDC's data processing and validation procedures.
#
#######################################################################

data_HEGHOS
_chemical_formula_moiety         
'C24 H28 O20 S4 4-,2(C12 H14 N2 2+),12.4(H2 O1)'
_chemical_name_systematic        
"bis(1,1'-Dimethyl-4,4'-bipyridinium) 2,5,8,11,17,20,23,26-octaoxatricyclo[25.3.1.1^12,16^]dotriaconta-1(31),12(32),13,15,27,29-hexaene-13,15,28,30-tetrasulfonate hydrate"
_symmetry_cell_setting           monoclinic
_symmetry_space_group_name_H-M   'P 21/n'
_symmetry_Int_Tables_number      14
_space_group_name_Hall           '-P 2yn'
loop_
_symmetry_equiv_pos_site_id
_symmetry_equiv_pos_as_xyz
1 x,y,z
2 1/2-x,1/2+y,1/2-z
3 -x,-y,-z
4 1/2+x,1/2-y,1/2+z
_cell_length_a                   14.825(2)
_cell_length_b                   19.659(3)
_cell_length_c                   21.761(4)
_cell_angle_alpha                90
_cell_angle_beta                 95.970(4)
_cell_angle_gamma                90
_cell_volume                     6307.73
_exptl_crystal_colour            colorless
_exptl_crystal_description       prism
_cell_formula_units_Z            4
loop_
_atom_site_label
_atom_site_type_symbol
_atom_site_fract_x
_atom_site_fract_y
_atom_site_fract_z
S1 S 0.62754(8) -0.12033(6) 0.20834(7)
S2 S 0.68978(10) -0.01642(8) 0.43943(7)
S3 S 1.30363(11) 0.29011(9) 0.30224(13)
S4 S 1.25779(14) 0.17383(8) 0.07428(11)
O1 O 0.6842(2) 0.01629(16) 0.16951(15)
O2 O 0.8311(2) 0.01277(16) 0.09520(14)
O3 O 1.0214(2) -0.00592(16) 0.09367(15)
O4 O 1.1913(2) 0.05402(16) 0.14207(17)
O5 O 1.2405(3) 0.1575(2) 0.3447(2)
O6 O 1.0941(3) 0.1662(2) 0.41908(17)
O7 O 0.9086(3) 0.17978(18) 0.41977(16)
O8 O 0.7418(2) 0.10968(17) 0.37494(15)
O9 O 0.5626(2) -0.10133(18) 0.15770(17)
O10 O 0.7139(3) -0.1419(2) 0.1877(3)
O11 O 0.5932(3) -0.1699(2) 0.2485(2)
O12 O 0.7866(3) -0.0174(3) 0.4588(2)
O13 O 0.6402(4) 0.0365(2) 0.4683(2)
O14 O 0.6492(4) -0.0835(2) 0.4451(2)
O15 O 1.1653(5) 0.1807(3) 0.0475(3)
O16 O 1.2996(3) 0.1145(2) 0.0514(2)
O17 O 1.3133(6) 0.2338(3) 0.0693(4)
O18 O 1.3447(6) 0.3365(4) 0.2608(5)
O19 O 1.3677(4) 0.2714(3) 0.3555(5)
O20 O 1.2195(3) 0.3152(2) 0.3181(3)
C1 C 0.7065(3) 0.0688(2) 0.2700(2)
H1 H 0.7210 0.1115 0.2531
C2 C 0.6816(3) 0.0142(2) 0.2309(2)
C3 C 0.6527(3) -0.0467(2) 0.2555(2)
C4 C 0.6517(3) -0.0528(3) 0.3184(2)
H2 H 0.6301 -0.0938 0.3347
C5 C 0.6815(3) -0.0002(3) 0.3590(2)
C6 C 0.7102(3) 0.0605(2) 0.3341(2)
C7 C 0.7197(3) 0.0753(2) 0.1410(2)
H3 H 0.7705 0.0950 0.1684
H4 H 0.6719 0.1103 0.1334
C8 C 0.7520(3) 0.0535(2) 0.0814(2)
H5 H 0.7043 0.0270 0.0568
H6 H 0.7665 0.0939 0.0570
C9 C 0.8726(3) -0.0056(3) 0.0410(2)
H7 H 0.8897 0.0359 0.0192
H8 H 0.8292 -0.0319 0.0125
C10 C 0.9548(3) -0.0474(3) 0.0593(2)
H9 H 0.9388 -0.0864 0.0848
H10 H 0.9795 -0.0654 0.0220
C11 C 1.0989(3) -0.0439(2) 0.1178(2)
H11 H 1.1384 -0.0528 0.0848
H12 H 1.0797 -0.0881 0.1339
C12 C 1.1501(3) -0.0035(2) 0.1692(2)
H13 H 1.1082 0.0122 0.1988
H14 H 1.1974 -0.0323 0.1917
C13 C 1.2221(3) 0.1006(3) 0.2444(3)
H15 H 1.2055 0.0589 0.2621
C14 C 1.2218(3) 0.1054(2) 0.1802(3)
C15 C 1.2548(4) 0.1637(3) 0.1546(4)
C16 C 1.2835(4) 0.2177(3) 0.1931(4)
H16 H 1.3078 0.2570 0.1756
C17 C 1.2778(4) 0.2160(3) 0.2564(5)
C18 C 1.2465(3) 0.1565(3) 0.2835(3)
C19 C 1.2010(5) 0.1005(3) 0.3733(3)
H17 H 1.2460 0.0634 0.3808
H18 H 1.1482 0.0830 0.3463
C20 C 1.1722(6) 0.1254(4) 0.4327(3)
H19 H 1.1582 0.0864 0.4589
H20 H 1.2214 0.1524 0.4553
C21 C 1.0549(5) 0.1859(3) 0.4738(3)
H21 H 1.0982 0.2143 0.5004
H22 H 1.0402 0.1451 0.4975
C22 C 0.9708(5) 0.2253(3) 0.4545(3)
H23 H 0.9439 0.2426 0.4912
H24 H 0.9849 0.2646 0.4286
C23 C 0.8238(4) 0.2116(3) 0.4020(2)
H25 H 0.8337 0.2589 0.3885
H26 H 0.7874 0.2131 0.4376
C24 C 0.7742(4) 0.1724(2) 0.3503(2)
H27 H 0.7224 0.1994 0.3310
H28 H 0.8152 0.1623 0.3183
N1 N 0.8932(3) -0.0620(2) 0.32946(19)
N2 N 1.0440(3) 0.2330(2) 0.19001(19)
C25 C 0.9323(4) -0.0114(3) 0.3641(2)
H29 H 0.9405 -0.0162 0.4078
C26 C 0.9604(4) 0.0468(3) 0.3380(2)
H30 H 0.9870 0.0822 0.3635
C27 C 0.9502(3) 0.0544(2) 0.2740(2)
C28 C 0.9116(3) 0.0008(2) 0.2393(2)
H31 H 0.9050 0.0037 0.1955
C29 C 0.8826(3) -0.0566(2) 0.2675(2)
H32 H 0.8551 -0.0926 0.2432
C30 C 0.8642(4) -0.1249(3) 0.3593(3)
H33 H 0.8210 -0.1496 0.3303
H34 H 0.8352 -0.1130 0.3963
H35 H 0.9173 -0.1536 0.3709
C31 C 1.0432(3) 0.2300(2) 0.2524(2)
H36 H 1.0648 0.2675 0.2772
C32 C 1.0118(3) 0.1735(2) 0.2797(2)
H37 H 1.0110 0.1723 0.3232
C33 C 0.9807(3) 0.1175(2) 0.2444(2)
C34 C 0.9817(3) 0.1220(2) 0.1801(2)
H38 H 0.9606 0.0850 0.1544
C35 C 1.0129(3) 0.1797(2) 0.1546(2)
H39 H 1.0129 0.1825 0.1110
C36 C 1.0757(4) 0.2954(3) 0.1612(3)
H40 H 1.1079 0.2832 0.1257
H41 H 1.1167 0.3204 0.1915
H42 H 1.0234 0.3241 0.1474
N3 N 0.9055(3) 0.5053(3) 0.6473(2)
N4 N 1.0022(5) 0.3538(5) 0.9362(3)
C37 C 0.9458(4) 0.4447(3) 0.6518(3)
H43 H 0.9594 0.4216 0.6156
C38 C 0.9674(3) 0.4157(3) 0.7085(2)
H44 H 0.9958 0.3723 0.7113
C39 C 0.9484(3) 0.4487(2) 0.7618(2)
C40 C 0.9083(4) 0.5116(3) 0.7552(3)
H45 H 0.8943 0.5358 0.7908
C41 C 0.8879(4) 0.5402(3) 0.6975(3)
H46 H 0.8617 0.5842 0.6935
C42 C 0.8794(5) 0.5355(4) 0.5854(3)
H47 H 0.8184 0.5201 0.5699
H48 H 0.9227 0.5210 0.5569
H49 H 0.8800 0.5852 0.5887
C43 C 1.0342(6) 0.3262(4) 0.8873(3)
H50 H 1.0685 0.2853 0.8917
C44 C 1.0179(4) 0.3564(3) 0.8308(3)
H51 H 1.0411 0.3362 0.7961
C45 C 0.9681(3) 0.4159(3) 0.8233(2)
C46 C 0.9385(4) 0.4433(4) 0.8759(3)
H52 H 0.9064 0.4852 0.8739
C47 C 0.9556(6) 0.4097(7) 0.9317(3)
H53 H 0.9328 0.4279 0.9674
C48 C 1.0220(11) 0.3221(9) 0.9961(4)
H54 H 1.0008 0.3515 1.0280
H55 H 1.0875 0.3152 1.0046
H56 H 0.9910 0.2781 0.9963
O21 O 0.1181(3) 0.2752(2) 0.71912(17)
O22 O 0.5760(3) 0.9176(3) 0.0325(2)
O23 O 0.7949(3) 0.2312(2) 0.1921(2)
O24 O 0.9507(3) 0.8161(2) 0.2034(2)
O25 O 0.5802(4) 0.1445(3) 0.0230(2)
O26 O 0.5099(3) 0.2161(3) 0.1128(2)
O28 O 0.8980(11) 0.7923(8) 0.0502(7)
O29 O 0.8060(11) 0.8724(9) 0.1236(8)
O30 O 0.8386(6) 0.2754(3) 0.0779(3)
O31 O 0.4076(5) 0.4272(3) 0.0038(3)
O32 O 0.1742(5) 0.4266(4) 0.1023(4)
O33 O 0.4259(7) 0.3566(5) 0.1183(5)
O34 O 0.2797(8) 0.8104(5) 0.0364(5)
O35 O 0.1010(10) 0.8154(6) 0.0087(6)
O27? O 0.8335(4) 0.8155(3) 0.0953(3)
O36? O 0.1839(12) 0.3612(8) 0.0525(8)
O37? O 0.3514(10) 0.4420(5) 0.1919(5)
loop_
_geom_bond_atom_site_label_1
_geom_bond_atom_site_label_2
_geom_bond_site_symmetry_1
_geom_bond_site_symmetry_2
S1 O9 1_555 1_555
S2 O12 1_555 1_555
S3 O18 1_555 1_555
S4 O15 1_555 1_555
O1 C2 1_555 1_555
O2 C8 1_555 1_555
O3 C10 1_555 1_555
O4 C12 1_555 1_555
O5 C18 1_555 1_555
O6 C20 1_555 1_555
O7 C22 1_555 1_555
O8 C6 1_555 1_555
O10 S1 1_555 1_555
O11 S1 1_555 1_555
O13 S2 1_555 1_555
O14 S2 1_555 1_555
O16 S4 1_555 1_555
O17 S4 1_555 1_555
O19 S3 1_555 1_555
O20 S3 1_555 1_555
N1 C25 1_555 1_555
N2 C31 1_555 1_555
N3 C37 1_555 1_555
N4 C43 1_555 1_555
C1 H1 1_555 1_555
C2 C1 1_555 1_555
C3 S1 1_555 1_555
C4 C3 1_555 1_555
H2 C4 1_555 1_555
C5 S2 1_555 1_555
C6 C1 1_555 1_555
C7 O1 1_555 1_555
H3 C7 1_555 1_555
H4 C7 1_555 1_555
C8 C7 1_555 1_555
H5 C8 1_555 1_555
H6 C8 1_555 1_555
C9 O2 1_555 1_555
H7 C9 1_555 1_555
H8 C9 1_555 1_555
C10 C9 1_555 1_555
H9 C10 1_555 1_555
H10 C10 1_555 1_555
C11 O3 1_555 1_555
H11 C11 1_555 1_555
H12 C11 1_555 1_555
C12 C11 1_555 1_555
H13 C12 1_555 1_555
H14 C12 1_555 1_555
C13 H15 1_555 1_555
C14 O4 1_555 1_555
C15 S4 1_555 1_555
C16 C15 1_555 1_555
H16 C16 1_555 1_555
C17 S3 1_555 1_555
C18 C13 1_555 1_555
C19 O5 1_555 1_555
H17 C19 1_555 1_555
H18 C19 1_555 1_555
C20 C19 1_555 1_555
H19 C20 1_555 1_555
H20 C20 1_555 1_555
C21 O6 1_555 1_555
H21 C21 1_555 1_555
H22 C21 1_555 1_555
C22 C21 1_555 1_555
H23 C22 1_555 1_555
H24 C22 1_555 1_555
C23 O7 1_555 1_555
H25 C23 1_555 1_555
H26 C23 1_555 1_555
C24 O8 1_555 1_555
H27 C24 1_555 1_555
H28 C24 1_555 1_555
C25 H29 1_555 1_555
C26 C25 1_555 1_555
H30 C26 1_555 1_555
C27 C26 1_555 1_555
C28 C27 1_555 1_555
H31 C28 1_555 1_555
C29 N1 1_555 1_555
H32 C29 1_555 1_555
C30 N1 1_555 1_555
H33 C30 1_555 1_555
H34 C30 1_555 1_555
H35 C30 1_555 1_555
C31 H36 1_555 1_555
C32 C31 1_555 1_555
H37 C32 1_555 1_555
C33 C27 1_555 1_555
C34 C33 1_555 1_555
H38 C34 1_555 1_555
C35 N2 1_555 1_555
H39 C35 1_555 1_555
C36 N2 1_555 1_555
H40 C36 1_555 1_555
H41 C36 1_555 1_555
H42 C36 1_555 1_555
C37 H43 1_555 1_555
C38 C37 1_555 1_555
H44 C38 1_555 1_555
C39 C38 1_555 1_555
C40 C39 1_555 1_555
H45 C40 1_555 1_555
C41 N3 1_555 1_555
H46 C41 1_555 1_555
C42 N3 1_555 1_555
H47 C42 1_555 1_555
H48 C42 1_555 1_555
H49 C42 1_555 1_555
C43 H50 1_555 1_555
C44 C43 1_555 1_555
H51 C44 1_555 1_555
C45 C39 1_555 1_555
C46 C45 1_555 1_555
H52 C46 1_555 1_555
C47 N4 1_555 1_555
H53 C47 1_555 1_555
C48 N4 1_555 1_555
H54 C48 1_555 1_555
H55 C48 1_555 1_555
H56 C48 1_555 1_555
C2 C3 1_555 1_555
C4 C5 1_555 1_555
C5 C6 1_555 1_555
C13 C14 1_555 1_555
C14 C15 1_555 1_555
C16 C17 1_555 1_555
C17 C18 1_555 1_555
C23 C24 1_555 1_555
C28 C29 1_555 1_555
C32 C33 1_555 1_555
C34 C35 1_555 1_555
C40 C41 1_555 1_555
C44 C45 1_555 1_555
C46 C47 1_555 1_555

#END
