
#######################################################################
#
#                 Cambridge Crystallographic Data Centre
#                                CCDC 
#
#######################################################################
#
# If this CIF has been generated from an entry in the Cambridge 
# Structural Database, then it will include bibliographic, chemical, 
# crystal, experimental, refinement or atomic coordinate data resulting 
# from the CCDC's data processing and validation procedures.
#
#######################################################################

data_HEGHUY
_chemical_formula_moiety         'C24 H28 O20 S4 4-,2(C12 H14 N2 2+),H2 O1'
_chemical_name_systematic        
"bis(1,1'-Ethane-1,2-diyldipyridinium) 2,5,8,11,17,20,23,26-octaoxatricyclo[25.3.1.1^12,16^]dotriaconta-1(31),12(32),13,15,27,29-hexaene-13,15,28,30-tetrasulfonate monohydrate"
_symmetry_cell_setting           triclinic
_symmetry_space_group_name_H-M   'P -1'
_symmetry_Int_Tables_number      2
_space_group_name_Hall           '-P 1'
loop_
_symmetry_equiv_pos_site_id
_symmetry_equiv_pos_as_xyz
1 x,y,z
2 -x,-y,-z
_cell_length_a                   8.063(2)
_cell_length_b                   12.420(3)
_cell_length_c                   12.585(4)
_cell_angle_alpha                89.910(8)
_cell_angle_beta                 86.228(10)
_cell_angle_gamma                82.075(10)
_cell_volume                     1245.52
_exptl_crystal_colour            colorless
_exptl_crystal_description       prism
_cell_formula_units_Z            1
loop_
_atom_site_label
_atom_site_type_symbol
_atom_site_fract_x
_atom_site_fract_y
_atom_site_fract_z
S1 S 0.615586(14) 0.669791(9) -0.419528(9)
S2 S 0.284739(15) 0.720838(10) -0.026666(10)
O1 O 0.63388(4) 0.76447(3) -0.48486(3)
O2 O 0.75492(4) 0.58245(3) -0.43712(3)
O3 O 0.45355(4) 0.63205(3) -0.42715(3)
O4 O 0.18215(4) 0.66382(3) -0.09127(3)
O5 O 0.34349(4) 0.65898(3) 0.06489(3)
O6 O 0.20698(5) 0.83055(3) 0.00299(3)
O7 O 0.58185(4) 0.82178(3) 0.02979(3)
O8 O 0.60979(5) 0.91208(3) 0.24527(3)
O9 O 0.76800(5) 1.08013(3) 0.31918(3)
O10 O 1.11770(4) 1.23006(3) 0.31497(3)
C1 C 0.60034(6) 0.78251(4) -0.07219(4)
C2 C 0.74250(6) 0.79022(4) -0.13909(4)
H1 H 0.8352 0.8184 -0.1121
C3 C 0.75035(6) 0.75712(4) -0.24516(4)
C4 C 0.61637(6) 0.71122(4) -0.28435(4)
C5 C 0.47818(6) 0.70069(4) -0.21496(4)
H2 H 0.3878 0.6690 -0.2407
C6 C 0.46751(6) 0.73498(4) -0.10917(4)
C7 C 0.69523(7) 0.89536(4) 0.05870(4)
H3 H 0.7243 0.9393 -0.0038
H4 H 0.8000 0.8535 0.0819
C8 C 0.61362(7) 0.96863(4) 0.14709(4)
H5 H 0.6764 1.0311 0.1537
H6 H 0.4976 0.9972 0.1302
C9 C 0.53774(7) 0.98187(4) 0.33185(4)
H7 H 0.4740 0.9394 0.3825
H8 H 0.4572 1.0407 0.3036
C10 C 0.66275(7) 1.03172(5) 0.39063(5)
H9 H 0.6039 1.0869 0.4417
H10 H 0.7298 0.9751 0.4313
C11 C 0.88201(7) 1.14074(5) 0.36825(5)
H11 H 0.9431 1.0970 0.4229
H12 H 0.8221 1.2085 0.4016
C12 C 0.99845(6) 1.16497(4) 0.27732(5)
H13 H 1.0582 1.0963 0.2458
H14 H 0.9341 1.2048 0.2216
S1A S 1.384414(14) 1.330209(9) 0.419528(9)
S2A S 1.715261(15) 1.279162(10) 0.026666(10)
O1A O 1.36612(4) 1.23553(3) 0.48486(3)
O2A O 1.24508(4) 1.41755(3) 0.43712(3)
O3A O 1.54645(4) 1.36795(3) 0.42715(3)
O4A O 1.81785(4) 1.33618(3) 0.09127(3)
O5A O 1.65651(4) 1.34102(3) -0.06489(3)
O6A O 1.79302(5) 1.16945(3) -0.00299(3)
O7A O 1.41815(4) 1.17822(3) -0.02979(3)
O8A O 1.39021(5) 1.08792(3) -0.24527(3)
O9A O 1.23200(5) 0.91987(3) -0.31918(3)
O10A O 0.88230(4) 0.76994(3) -0.31497(3)
C1A C 1.39966(6) 1.21749(4) 0.07219(4)
C2A C 1.25750(6) 1.20978(4) 0.13909(4)
H1A H 1.1648 1.1816 0.1121
C3A C 1.24965(6) 1.24288(4) 0.24516(4)
C4A C 1.38363(6) 1.28878(4) 0.28435(4)
C5A C 1.52182(6) 1.29931(4) 0.21496(4)
H2A H 1.6122 1.3310 0.2407
C6A C 1.53249(6) 1.26502(4) 0.10917(4)
C7A C 1.30477(7) 1.10464(4) -0.05870(4)
H3A H 1.2757 1.0607 0.0038
H4A H 1.2000 1.1465 -0.0819
C8A C 1.38638(7) 1.03137(4) -0.14709(4)
H5A H 1.3236 0.9689 -0.1537
H6A H 1.5024 1.0028 -0.1302
C9A C 1.46226(7) 1.01813(4) -0.33185(4)
H7A H 1.5260 1.0606 -0.3825
H8A H 1.5428 0.9593 -0.3036
C10A C 1.33725(7) 0.96828(5) -0.39063(5)
H9A H 1.3961 0.9131 -0.4417
H10A H 1.2702 1.0249 -0.4313
C11A C 1.11799(7) 0.85926(5) -0.36825(5)
H11A H 1.0569 0.9030 -0.4229
H12A H 1.1779 0.7915 -0.4016
C12A C 1.00155(6) 0.83503(4) -0.27732(5)
H13A H 0.9418 0.9037 -0.2458
H14A H 1.0659 0.7952 -0.2216
N1 N 0.30437(5) 0.44321(3) 0.77216(3)
N2 N 0.71386(5) 0.27747(3) 0.68520(3)
C13 C 0.19104(6) 0.49241(4) 0.70727(4)
H15 H 0.2276 0.5182 0.6398
C14 C 0.02285(6) 0.50533(4) 0.73839(5)
H16 H -0.0572 0.5419 0.6939
C15 C -0.02815(7) 0.46404(4) 0.83602(5)
H17 H -0.1441 0.4707 0.8581
C16 C 0.09069(7) 0.41300(4) 0.90134(5)
H18 H 0.0570 0.3839 0.9679
C17 C 0.25780(7) 0.40527(4) 0.86815(4)
H19 H 0.3407 0.3730 0.9131
C18 C 0.48532(6) 0.42515(4) 0.73656(4)
H20 H 0.5536 0.4443 0.7945
H21 H 0.5070 0.4711 0.6742
C19 C 0.53120(6) 0.30538(4) 0.70697(4)
H22 H 0.4929 0.2602 0.7661
H23 H 0.4733 0.2893 0.6431
C20 C 0.79942(7) 0.20072(4) 0.74461(4)
H24 H 0.7421 0.1668 0.8009
C21 C 0.96928(7) 0.17160(4) 0.72379(5)
H25 H 1.0293 0.1166 0.7644
C22 C 1.05158(7) 0.22336(4) 0.64307(5)
H26 H 1.1692 0.2048 0.6288
C23 C 0.96257(6) 0.30240(4) 0.58281(4)
H27 H 1.0183 0.3380 0.5270
C24 C 0.79210(6) 0.32837(4) 0.60528(4)
H28 H 0.7294 0.3821 0.5646
O11 O 0.01371(10) 1.00595(6) 0.08636(6)
H29 H 0.0795 0.9514 0.0569
H30 H -0.0392 1.0461 0.0394
loop_
_geom_bond_atom_site_label_1
_geom_bond_atom_site_label_2
_geom_bond_site_symmetry_1
_geom_bond_site_symmetry_2
S1 O1 1_555 1_555
S2 O4 1_555 1_555
O2 S1 1_555 1_555
O3 S1 1_555 1_555
O5 S2 1_555 1_555
O6 S2 1_555 1_555
O7 C1 1_555 1_555
O8 C8 1_555 1_555
O9 C10 1_555 1_555
O10 C12 1_555 1_555
N1 C13 1_555 1_555
N2 C19 1_555 1_555
C1 C2 1_555 1_555
C2 H1 1_555 1_555
C3 C2 1_555 1_555
C4 S1 1_555 1_555
C5 C4 1_555 1_555
H2 C5 1_555 1_555
C6 S2 1_555 1_555
C7 O7 1_555 1_555
H3 C7 1_555 1_555
H4 C7 1_555 1_555
C8 C7 1_555 1_555
H5 C8 1_555 1_555
H6 C8 1_555 1_555
C9 O8 1_555 1_555
H7 C9 1_555 1_555
H8 C9 1_555 1_555
C10 C9 1_555 1_555
H9 C10 1_555 1_555
H10 C10 1_555 1_555
C11 O9 1_555 1_555
H11 C11 1_555 1_555
H12 C11 1_555 1_555
C12 C11 1_555 1_555
H13 C12 1_555 1_555
H14 C12 1_555 1_555
C13 H15 1_555 1_555
C14 C13 1_555 1_555
H16 C14 1_555 1_555
C15 C14 1_555 1_555
H17 C15 1_555 1_555
C16 C15 1_555 1_555
H18 C16 1_555 1_555
C17 N1 1_555 1_555
H19 C17 1_555 1_555
C18 N1 1_555 1_555
H20 C18 1_555 1_555
H21 C18 1_555 1_555
C19 C18 1_555 1_555
H22 C19 1_555 1_555
H23 C19 1_555 1_555
C20 N2 1_555 1_555
H24 C20 1_555 1_555
C21 C20 1_555 1_555
H25 C21 1_555 1_555
C22 C21 1_555 1_555
H26 C22 1_555 1_555
C23 C22 1_555 1_555
H27 C23 1_555 1_555
C24 N2 1_555 1_555
H28 C24 1_555 1_555
O11 H29 1_555 1_555
H30 O11 1_555 1_555
S1A O1A 1_555 1_555
S2A O4A 1_555 1_555
O2A S1A 1_555 1_555
O3A S1A 1_555 1_555
O5A S2A 1_555 1_555
O6A S2A 1_555 1_555
O7A C1A 1_555 1_555
O8A C8A 1_555 1_555
O9A C10A 1_555 1_555
O10A C3 1_555 1_555
C1A C2A 1_555 1_555
C2A H1A 1_555 1_555
C3A O10 1_555 1_555
C4A S1A 1_555 1_555
C5A C4A 1_555 1_555
H2A C5A 1_555 1_555
C6A S2A 1_555 1_555
C7A O7A 1_555 1_555
H3A C7A 1_555 1_555
H4A C7A 1_555 1_555
C8A C7A 1_555 1_555
H5A C8A 1_555 1_555
H6A C8A 1_555 1_555
C9A O8A 1_555 1_555
H7A C9A 1_555 1_555
H8A C9A 1_555 1_555
C10A C9A 1_555 1_555
H9A C10A 1_555 1_555
H10A C10A 1_555 1_555
C11A O9A 1_555 1_555
H11A C11A 1_555 1_555
H12A C11A 1_555 1_555
C12A O10A 1_555 1_555
H13A C12A 1_555 1_555
H14A C12A 1_555 1_555
C1 C6 1_555 1_555
C3 C4 1_555 1_555
C5 C6 1_555 1_555
C16 C17 1_555 1_555
C23 C24 1_555 1_555
C1A C6A 1_555 1_555
C2A C3A 1_555 1_555
C3A C4A 1_555 1_555
C5A C6A 1_555 1_555
C11A C12A 1_555 1_555

#END
