
#######################################################################
#
#                 Cambridge Crystallographic Data Centre
#                                CCDC 
#
#######################################################################
#
# If this CIF has been generated from an entry in the Cambridge 
# Structural Database, then it will include bibliographic, chemical, 
# crystal, experimental, refinement or atomic coordinate data resulting 
# from the CCDC's data processing and validation procedures.
#
#######################################################################

data_HEGJEK
_chemical_name_common            '2-dodecyl trehaloside methanol solvate'
_chemical_formula_moiety         'C24 H46 O11,C1 H4 O1'
_chemical_name_systematic        
'2-((3-(Dodecyloxy)-4,5-dihydroxy-6-(hydroxymethyl)tetrahydro-2H-pyran-2-yl)oxy)-6-(hydroxymethyl)tetrahydro-2H-pyran-3,4,5-triol methanol solvate'
_symmetry_cell_setting           orthorhombic
_symmetry_space_group_name_H-M   'P 21 21 21'
_symmetry_Int_Tables_number      19
_space_group_name_Hall           'P 2ac 2ab'
loop_
_symmetry_equiv_pos_site_id
_symmetry_equiv_pos_as_xyz
1 x,y,z
2 1/2-x,-y,1/2+z
3 -x,1/2+y,1/2-z
4 1/2+x,1/2-y,-z
_cell_length_a                   7.3130(2)
_cell_length_b                   8.8103(3)
_cell_length_c                   42.6642(12)
_cell_angle_alpha                90
_cell_angle_beta                 90
_cell_angle_gamma                90
_cell_volume                     2748.84
_exptl_crystal_colour            colorless
_exptl_crystal_description       rod
_cell_formula_units_Z            4
loop_
_atom_site_label
_atom_site_type_symbol
_atom_site_fract_x
_atom_site_fract_y
_atom_site_fract_z
O1 O 0.8276(2) 0.07481(16) 0.12924(3)
O2 O 0.6382(2) 0.21076(16) 0.08190(3)
O3 O 0.3635(2) 0.11335(16) 0.09991(3)
O4 O 0.4278(2) -0.28408(17) 0.07623(4)
H1 H 0.4668 -0.2667 0.0581
O5 O 0.7276(2) -0.24208(16) 0.11582(4)
H2 H 0.6955 -0.3228 0.1069
O6 O 0.1027(3) 0.0808(2) 0.04695(5)
H3 H 0.1593 0.0685 0.0300
O7 O 0.74834(18) 0.44872(15) 0.09665(3)
O8 O 0.5136(3) 0.3401(2) 0.02460(4)
H4 H 0.4104 0.3793 0.0277
O9 O 0.8679(4) 0.4197(3) 0.00274(4)
H5 H 0.9371 0.3587 -0.0066
O10 O 1.1572(3) 0.3860(3) 0.04975(5)
H6 H 1.1596 0.2907 0.0494
O11 O 1.0855(2) 0.63858(18) 0.10825(4)
H7 H 0.9874 0.6865 0.1108
C1 C 2.5429(3) 0.0676(3) 0.32783(6)
H8 H 2.5985 0.1280 0.3111
H9 H 2.6328 -0.0051 0.3359
H10 H 2.5034 0.1349 0.3448
C2 C 2.3779(3) -0.0181(3) 0.31492(5)
H11 H 2.3158 -0.0711 0.3324
H12 H 2.4211 -0.0961 0.2999
C3 C 2.2402(3) 0.0847(2) 0.29843(5)
H13 H 2.3033 0.1413 0.2816
H14 H 2.1923 0.1596 0.3136
C4 C 2.0799(3) -0.0039(2) 0.28428(5)
H15 H 2.1292 -0.0850 0.2706
H16 H 2.0112 -0.0534 0.3015
C5 C 1.9484(3) 0.0923(2) 0.26530(5)
H17 H 2.0167 0.1426 0.2482
H18 H 1.8973 0.1726 0.2790
C6 C 1.7908(3) 0.0004(2) 0.25115(5)
H19 H 1.8422 -0.0793 0.2374
H20 H 1.7235 -0.0507 0.2683
C7 C 1.6568(3) 0.0963(2) 0.23226(5)
H21 H 1.7231 0.1447 0.2147
H22 H 1.6082 0.1780 0.2458
C8 C 1.4967(3) 0.0041(2) 0.21910(5)
H23 H 1.5459 -0.0785 0.2058
H24 H 1.4300 -0.0433 0.2368
C9 C 1.3626(3) 0.0973(2) 0.19982(5)
H25 H 1.4292 0.1454 0.1822
H26 H 1.3122 0.1793 0.2131
C10 C 1.2047(3) 0.0037(2) 0.18662(5)
H27 H 1.2556 -0.0826 0.1746
H28 H 1.1333 -0.0387 0.2043
C11 C 1.0764(3) 0.0932(2) 0.16545(5)
H29 H 1.0250 0.1800 0.1773
H30 H 1.1460 0.1340 0.1474
C12 C 0.9221(3) -0.0056(2) 0.15355(5)
H31 H 0.9716 -0.1021 0.1452
H32 H 0.8368 -0.0295 0.1709
C13 C 0.6491(3) 0.0217(2) 0.12256(4)
H33 H 0.5892 -0.0063 0.1428
C14 C 0.5430(3) 0.1551(2) 0.10825(5)
H34 H 0.5359 0.2380 0.1242
C15 C 0.3566(3) -0.0120(2) 0.07819(5)
H35 H 0.4306 0.0134 0.0592
C16 C 0.4401(3) -0.1502(2) 0.09446(5)
H36 H 0.3758 -0.1670 0.1149
C17 C 0.6414(3) -0.1159(2) 0.10090(5)
H37 H 0.7054 -0.0924 0.0808
C18 C 0.1586(3) -0.0318(3) 0.06885(5)
H38 H 0.1417 -0.1336 0.0595
H39 H 0.0806 -0.0254 0.0878
C19 C 0.6151(5) 0.3719(5) 0.07872(9)
H40 H 0.4895 0.4026 0.0855
C20 C 0.6451(4) 0.4120(3) 0.04411(6)
H41 H 0.6321 0.5244 0.0417
C21 C 0.8368(6) 0.3672(3) 0.03403(6)
H42 H 0.8477 0.2541 0.0345
C22 C 0.9778(5) 0.4357(3) 0.05624(9)
H43 H 0.9752 0.5483 0.0532
C23 C 0.9348(3) 0.4038(2) 0.09082(5)
H44 H 0.9440 0.2919 0.0943
C24 C 1.0556(3) 0.4814(3) 0.11441(5)
H45 H 0.9997 0.4708 0.1354
H46 H 1.1753 0.4289 0.1149
O12 O 0.7586(13) -0.0287(8) 0.02496(19)
H47 H 0.7543 0.0445 0.0124
C25 C 0.7631(7) -0.1666(4) 0.00803(10)
H48 H 0.7625 -0.1449 -0.0145
H49 H 0.6556 -0.2276 0.0134
H50 H 0.8743 -0.2228 0.0134
C26? C 0.649(3) 0.355(3) 0.0718(5)
C27? C 0.727(3) 0.3746(14) 0.0390(3)
C28? C 0.930(2) 0.3710(14) 0.0365(3)
C29? C 0.012(3) 0.4776(19) 0.0590(5)
H51? H 0.2569 0.5508 0.0569
H52? H 0.0995 -0.1018 0.0839
H53? H 0.0964 0.0677 0.0706
H54? H 0.5211 0.3940 0.0710
H55? H 0.8900 -0.0144 -0.0127
H56? H 0.5495 -0.2584 0.0148
H57? H 0.7423 -0.2101 -0.0128
H58? H 0.6464 -0.1588 0.0192
H59? H 0.8466 -0.2321 0.0199
H60? H 0.7855 -0.1663 -0.0146
H61? H 0.8192 -0.2569 0.0174
H62? H 0.8167 -0.0753 0.0174
H63? H 0.6836 0.4745 0.0307
H64? H 0.9751 0.2659 0.0407
H65? H 0.9692 0.5842 0.0558
H66? H 0.9500 0.2911 0.0912
H67? H 0.2340 -0.1103 0.0309
H68? H 0.6541 0.2816 0.0001
H69? H 0.9582 0.3498 -0.0080
O13? O 0.2098(13) 0.4638(14) 0.0571(3)
O14? O 0.8402(13) -0.0221(8) 0.0049(2)
O15? O 0.5856(11) -0.1682(9) 0.0133(2)
O16? O 0.1324(19) -0.0875(14) 0.0388(2)
O17? O 0.6501(15) 0.2540(13) 0.0189(2)
O18? O 0.9841(15) 0.4187(12) 0.00482(19)
loop_
_geom_bond_atom_site_label_1
_geom_bond_atom_site_label_2
_geom_bond_site_symmetry_1
_geom_bond_site_symmetry_2
O1 C12 1_555 1_555
O2 C14 1_555 1_555
O3 C14 1_555 1_555
O4 H1 1_555 1_555
O5 H2 1_555 1_555
O6 H3 1_555 1_555
O7 C19 1_555 1_555
O8 H4 1_555 1_555
O9 H5 1_555 1_555
O10 H6 1_555 1_555
O11 H7 1_555 1_555
C1 H8 1_555 1_555
H9 C1 1_555 1_555
H10 C1 1_555 1_555
C2 C1 1_555 1_555
H11 C2 1_555 1_555
H12 C2 1_555 1_555
C3 C2 1_555 1_555
H13 C3 1_555 1_555
H14 C3 1_555 1_555
C4 C3 1_555 1_555
H15 C4 1_555 1_555
H16 C4 1_555 1_555
C5 C4 1_555 1_555
H17 C5 1_555 1_555
H18 C5 1_555 1_555
C6 C5 1_555 1_555
H19 C6 1_555 1_555
H20 C6 1_555 1_555
C7 C6 1_555 1_555
H21 C7 1_555 1_555
H22 C7 1_555 1_555
C8 C7 1_555 1_555
H23 C8 1_555 1_555
H24 C8 1_555 1_555
C9 C8 1_555 1_555
H25 C9 1_555 1_555
H26 C9 1_555 1_555
C10 C9 1_555 1_555
H27 C10 1_555 1_555
H28 C10 1_555 1_555
C11 C10 1_555 1_555
H29 C11 1_555 1_555
H30 C11 1_555 1_555
C12 C11 1_555 1_555
H31 C12 1_555 1_555
H32 C12 1_555 1_555
C13 O1 1_555 1_555
H33 C13 1_555 1_555
C14 C13 1_555 1_555
H34 C14 1_555 1_555
C15 O3 1_555 1_555
H35 C15 1_555 1_555
C16 O4 1_555 1_555
H36 C16 1_555 1_555
C17 O5 1_555 1_555
H37 C17 1_555 1_555
C18 O6 1_555 1_555
H38 C18 1_555 1_555
H39 C18 1_555 1_555
C19 O2 1_555 1_555
H40 C19 1_555 1_555
C20 O8 1_555 1_555
H41 C20 1_555 1_555
C21 O9 1_555 1_555
H42 C21 1_555 1_555
C22 O10 1_555 1_555
H43 C22 1_555 1_555
C23 O7 1_555 1_555
H44 C23 1_555 1_555
C24 O11 1_555 1_555
H45 C24 1_555 1_555
H46 C24 1_555 1_555
O12 H47 1_555 1_555
C25 O12 1_555 1_555
H48 C25 1_555 1_555
H49 C25 1_555 1_555
H50 C25 1_555 1_555
C13 C17 1_555 1_555
C15 C16 1_555 1_555
C15 C18 1_555 1_555
C16 C17 1_555 1_555
C19 C20 1_555 1_555
C20 C21 1_555 1_555
C21 C22 1_555 1_555
C22 C23 1_555 1_555
C23 C24 1_555 1_555

#END
