
#######################################################################
#
#                 Cambridge Crystallographic Data Centre
#                                CCDC 
#
#######################################################################
#
# If this CIF has been generated from an entry in the Cambridge 
# Structural Database, then it will include bibliographic, chemical, 
# crystal, experimental, refinement or atomic coordinate data resulting 
# from the CCDC's data processing and validation procedures.
#
#######################################################################

data_HEGKEM
_chemical_formula_moiety         'C21 H21 N1 O7 S1'
_chemical_name_systematic        
'dimethyl {2-[(4-methylphenyl)sulfonyl]-4-oxo-1,2,3,4-tetrahydroisoquinolin-1-yl}propanedioate'
_symmetry_cell_setting           monoclinic
_symmetry_space_group_name_H-M   'P 21/n'
_symmetry_Int_Tables_number      14
_space_group_name_Hall           '-P 2yn'
loop_
_symmetry_equiv_pos_site_id
_symmetry_equiv_pos_as_xyz
1 x,y,z
2 1/2-x,1/2+y,1/2-z
3 -x,-y,-z
4 1/2+x,1/2-y,1/2+z
_cell_length_a                   9.18906(12)
_cell_length_b                   11.13074(16)
_cell_length_c                   20.4649(3)
_cell_angle_alpha                90
_cell_angle_beta                 97.6868(12)
_cell_angle_gamma                90
_cell_volume                     2074.36
_exptl_crystal_colour            colorless
_exptl_crystal_description       block
_cell_formula_units_Z            4
loop_
_atom_site_label
_atom_site_type_symbol
_atom_site_fract_x
_atom_site_fract_y
_atom_site_fract_z
S1 S 0.22892(6) 0.42299(5) 0.26035(3)
O1 O 0.6437(2) 0.64081(19) 0.34342(12)
O2 O 0.13638(19) 0.52630(17) 0.24836(9)
O3 O 0.16604(18) 0.30578(16) 0.26255(8)
O4 O 0.1631(2) 0.3209(2) 0.44579(11)
O5 O 0.2636(3) 0.4920(2) 0.48970(11)
O6 O 0.5252(3) 0.25162(17) 0.53328(10)
O7 O 0.4325(3) 0.1390(2) 0.44908(11)
N1 N 0.3258(2) 0.44451(17) 0.33330(9)
C1 C 0.4064(3) 0.5590(2) 0.34378(12)
H1 H 0.3937 0.5899 0.3870
H2 H 0.3631 0.6166 0.3113
C2 C 0.5702(3) 0.5501(2) 0.33921(12)
C3 C 0.6327(3) 0.4298(2) 0.33037(12)
C4 C 0.5535(2) 0.3265(2) 0.34272(11)
C5 C 0.4039(2) 0.3399(2) 0.36507(11)
H3 H 0.3463 0.2675 0.3522
C6 C 0.6103(3) 0.2139(2) 0.33169(13)
H4 H 0.5591 0.1451 0.3406
C7 C 0.7434(3) 0.2043(3) 0.30735(16)
H5 H 0.7802 0.1288 0.2992
C8 C 0.8220(3) 0.3056(4) 0.29506(17)
H6 H 0.9112 0.2980 0.2787
C9 C 0.7683(3) 0.4179(3) 0.30707(15)
H7 H 0.8224 0.4860 0.2997
C10 C 0.3508(3) 0.4208(2) 0.20093(11)
C11 C 0.3767(3) 0.5256(2) 0.16790(12)
H8 H 0.3277 0.5963 0.1755
C12 C 0.4776(3) 0.5227(3) 0.12314(13)
H9 H 0.4940 0.5920 0.0998
C13 C 0.5544(3) 0.4187(3) 0.11243(14)
C14 C 0.5248(3) 0.3148(3) 0.14559(12)
H10 H 0.5745 0.2444 0.1383
C15 C 0.4223(3) 0.3142(2) 0.18949(11)
H11 H 0.4016 0.2437 0.2109
C16 C 0.6717(5) 0.4188(4) 0.0667(2)
H12 H 0.7363 0.4859 0.0770
H13 H 0.6259 0.4251 0.0218
H14 H 0.7270 0.3455 0.0723
C17 C 0.4158(3) 0.3544(2) 0.44063(11)
H15 H 0.4924 0.4137 0.4548
C18 C 0.2721(3) 0.3977(2) 0.46174(11)
C19 C 0.0197(4) 0.3516(4) 0.4620(2)
H16 H -0.0120 0.4259 0.4410
H17 H 0.0244 0.3601 0.5089
H18 H -0.0487 0.2891 0.4469
C20 C 0.4600(3) 0.2352(2) 0.47353(12)
C21 C 0.5747(5) 0.1454(3) 0.57151(18)
H19 H 0.5098 0.0795 0.5585
H20 H 0.5743 0.1616 0.6176
H21 H 0.6724 0.1251 0.5637
loop_
_geom_bond_atom_site_label_1
_geom_bond_atom_site_label_2
_geom_bond_site_symmetry_1
_geom_bond_site_symmetry_2
S1 O2 1_555 1_555
O1 C2 1_555 1_555
O3 S1 1_555 1_555
O4 C18 1_555 1_555
O5 C18 1_555 1_555
O6 C20 1_555 1_555
O7 C20 1_555 1_555
N1 S1 1_555 1_555
C1 N1 1_555 1_555
H1 C1 1_555 1_555
H2 C1 1_555 1_555
C2 C1 1_555 1_555
C3 C2 1_555 1_555
C4 C3 1_555 1_555
C5 N1 1_555 1_555
H3 C5 1_555 1_555
C6 C4 1_555 1_555
H4 C6 1_555 1_555
C7 C6 1_555 1_555
H5 C7 1_555 1_555
C8 C7 1_555 1_555
H6 C8 1_555 1_555
C9 C3 1_555 1_555
H7 C9 1_555 1_555
C10 S1 1_555 1_555
C11 C10 1_555 1_555
H8 C11 1_555 1_555
C12 C11 1_555 1_555
H9 C12 1_555 1_555
C13 C12 1_555 1_555
C14 C13 1_555 1_555
H10 C14 1_555 1_555
C15 C10 1_555 1_555
H11 C15 1_555 1_555
C16 C13 1_555 1_555
H12 C16 1_555 1_555
H13 C16 1_555 1_555
H14 C16 1_555 1_555
C17 C5 1_555 1_555
H15 C17 1_555 1_555
C18 C17 1_555 1_555
C19 O4 1_555 1_555
H16 C19 1_555 1_555
H17 C19 1_555 1_555
H18 C19 1_555 1_555
C20 C17 1_555 1_555
C21 O6 1_555 1_555
H19 C21 1_555 1_555
H20 C21 1_555 1_555
H21 C21 1_555 1_555
C4 C5 1_555 1_555
C8 C9 1_555 1_555
C14 C15 1_555 1_555

#END
