
#######################################################################
#
#                 Cambridge Crystallographic Data Centre
#                                CCDC 
#
#######################################################################
#
# If this CIF has been generated from an entry in the Cambridge 
# Structural Database, then it will include bibliographic, chemical, 
# crystal, experimental, refinement or atomic coordinate data resulting 
# from the CCDC's data processing and validation procedures.
#
#######################################################################

data_HEGNOZ
_chemical_formula_moiety         'C28 H30 N2 O3,C3 H6 O1'
_chemical_name_systematic        
't-butyl (2-{2-[(2-hydroxyphenyl)(phenyl)methyl]-1H-indol-3-yl}ethyl)carbamate acetone solvate'
_symmetry_cell_setting           triclinic
_symmetry_space_group_name_H-M   'P -1'
_symmetry_Int_Tables_number      2
_space_group_name_Hall           '-P 1'
loop_
_symmetry_equiv_pos_site_id
_symmetry_equiv_pos_as_xyz
1 x,y,z
2 -x,-y,-z
_cell_length_a                   8.4885(5)
_cell_length_b                   10.6796(6)
_cell_length_c                   16.8127(9)
_cell_angle_alpha                74.369(4)
_cell_angle_beta                 82.265(4)
_cell_angle_gamma                75.011(5)
_cell_volume                     1414.37
_exptl_crystal_colour            colorless
_exptl_crystal_description       prism
_cell_formula_units_Z            2
loop_
_atom_site_label
_atom_site_type_symbol
_atom_site_fract_x
_atom_site_fract_y
_atom_site_fract_z
O1 O 0.6225(5) 0.5552(4) 0.1467(2)
H1 H 0.564059 0.630893 0.141389
O2 O 0.2185(4) 0.0974(4) 0.34828(19)
O3 O 0.3719(4) 0.1736(4) 0.41608(18)
N1 N 1.0009(4) 0.0723(3) 0.2441(2)
H2 H 1.076934 0.100358 0.258039
N2 N 0.4639(4) 0.1352(4) 0.2949(2)
H3 H 0.543251 0.168188 0.299914
C1 C 0.9974(5) -0.0590(4) 0.2563(3)
C2 C 1.1079(6) -0.1747(4) 0.2933(3)
H4 H 1.201764 -0.171714 0.314836
C3 C 1.0704(7) -0.2949(5) 0.2961(4)
H5 H 1.140106 -0.374536 0.321102
C4 C 0.9324(7) -0.2996(5) 0.2628(4)
H6 H 0.913403 -0.382234 0.264429
C5 C 0.8238(6) -0.1861(5) 0.2276(3)
H7 H 0.730362 -0.190696 0.206332
C6 C 0.8552(5) -0.0627(4) 0.2241(2)
C7 C 0.7693(5) 0.0732(4) 0.1926(2)
C8 C 0.8628(5) 0.1525(4) 0.2060(2)
C9 C 0.8355(5) 0.3038(4) 0.1823(2)
H8 H 0.769305 0.336075 0.134186
C10 C 0.7370(5) 0.3689(4) 0.2496(2)
C11 C 0.7495(6) 0.3081(5) 0.3337(3)
H9 H 0.818001 0.223613 0.350063
C12 C 0.6615(7) 0.3714(6) 0.3935(3)
H10 H 0.670290 0.329443 0.449442
C13 C 0.5614(7) 0.4964(6) 0.3694(4)
H11 H 0.503171 0.538740 0.409652
C14 C 0.5454(6) 0.5604(5) 0.2875(3)
H12 H 0.476956 0.645025 0.271874
C15 C 0.6345(5) 0.4953(4) 0.2277(3)
C16 C 0.9947(5) 0.3454(4) 0.1539(3)
C17 C 1.0809(6) 0.3811(4) 0.2044(3)
H13 H 1.039828 0.380877 0.258576
C18 C 1.2284(6) 0.4177(5) 0.1763(5)
H14 H 1.285572 0.441077 0.211382
C19 C 1.2880(8) 0.4188(6) 0.0966(5)
H15 H 1.385831 0.444113 0.077178
C20 C 1.2051(8) 0.3830(6) 0.0450(4)
H16 H 1.249017 0.383135 -0.008784
C21 C 1.0569(6) 0.3466(5) 0.0707(3)
H17 H 1.000615 0.323845 0.034958
C22 C 0.6032(5) 0.1195(5) 0.1589(3)
H18 H 0.604869 0.080169 0.112958
H19 H 0.579601 0.215815 0.137575
C23 C 0.4665(5) 0.0831(5) 0.2229(3)
H20 H 0.362166 0.119784 0.198253
H21 H 0.482617 -0.013346 0.240146
C24 C 0.3398(5) 0.1327(5) 0.3533(3)
C25 C 0.2518(6) 0.1829(6) 0.4890(3)
C26 C 0.3454(8) 0.2247(8) 0.5446(4)
H22 H 0.446639 0.159641 0.556018
H23 H 0.281105 0.230469 0.595529
H24 H 0.367584 0.310269 0.517214
C27 C 0.1018(9) 0.2881(8) 0.4616(4)
H25 H 0.131325 0.371273 0.435302
H26 H 0.026951 0.298613 0.508778
H27 H 0.050763 0.261807 0.423069
C28 C 0.2211(8) 0.0467(7) 0.5304(3)
H28 H 0.171860 0.016947 0.492838
H29 H 0.148984 0.051734 0.579125
H30 H 0.322868 -0.015234 0.545465
O4 O 0.4482(5) 0.8238(4) 0.1060(3)
C29 C 0.3172(7) 0.8702(5) 0.0770(3)
C30 C 0.2495(8) 1.0158(5) 0.0541(4)
H31 H 0.155723 1.038765 0.090734
H32 H 0.217872 1.042493 -0.001816
H33 H 0.330911 1.061003 0.058535
C31 C 0.2134(10) 0.7871(7) 0.0651(4)
H34 H 0.277187 0.697533 0.068677
H35 H 0.169929 0.823178 0.011686
H36 H 0.125133 0.786134 0.107337
loop_
_geom_bond_atom_site_label_1
_geom_bond_atom_site_label_2
_geom_bond_site_symmetry_1
_geom_bond_site_symmetry_2
O1 H1 1_555 1_555
O2 C24 1_555 1_555
O3 C24 1_555 1_555
N1 H2 1_555 1_555
N2 H3 1_555 1_555
C1 N1 1_555 1_555
C2 C1 1_555 1_555
H4 C2 1_555 1_555
C3 C2 1_555 1_555
H5 C3 1_555 1_555
C4 C3 1_555 1_555
H6 C4 1_555 1_555
C5 C4 1_555 1_555
H7 C5 1_555 1_555
C6 C1 1_555 1_555
C7 C6 1_555 1_555
C8 N1 1_555 1_555
C9 C8 1_555 1_555
H8 C9 1_555 1_555
C10 C9 1_555 1_555
C11 C10 1_555 1_555
H9 C11 1_555 1_555
C12 C11 1_555 1_555
H10 C12 1_555 1_555
C13 C12 1_555 1_555
H11 C13 1_555 1_555
C14 C13 1_555 1_555
H12 C14 1_555 1_555
C15 O1 1_555 1_555
C16 C9 1_555 1_555
C17 C16 1_555 1_555
H13 C17 1_555 1_555
C18 C17 1_555 1_555
H14 C18 1_555 1_555
C19 C18 1_555 1_555
H15 C19 1_555 1_555
C20 C19 1_555 1_555
H16 C20 1_555 1_555
C21 C16 1_555 1_555
H17 C21 1_555 1_555
C22 C7 1_555 1_555
H18 C22 1_555 1_555
H19 C22 1_555 1_555
C23 N2 1_555 1_555
H20 C23 1_555 1_555
H21 C23 1_555 1_555
C24 N2 1_555 1_555
C25 O3 1_555 1_555
C26 C25 1_555 1_555
H22 C26 1_555 1_555
H23 C26 1_555 1_555
H24 C26 1_555 1_555
C27 C25 1_555 1_555
H25 C27 1_555 1_555
H26 C27 1_555 1_555
H27 C27 1_555 1_555
C28 C25 1_555 1_555
H28 C28 1_555 1_555
H29 C28 1_555 1_555
H30 C28 1_555 1_555
O4 C29 1_555 1_555
C29 C30 1_555 1_555
C30 H31 1_555 1_555
H32 C30 1_555 1_555
H33 C30 1_555 1_555
C31 C29 1_555 1_555
H34 C31 1_555 1_555
H35 C31 1_555 1_555
H36 C31 1_555 1_555
C5 C6 1_555 1_555
C7 C8 1_555 1_555
C10 C15 1_555 1_555
C14 C15 1_555 1_555
C20 C21 1_555 1_555
C22 C23 1_555 1_555

#END
