
#######################################################################
#
#                 Cambridge Crystallographic Data Centre
#                                CCDC 
#
#######################################################################
#
# If this CIF has been generated from an entry in the Cambridge 
# Structural Database, then it will include bibliographic, chemical, 
# crystal, experimental, refinement or atomic coordinate data resulting 
# from the CCDC's data processing and validation procedures.
#
#######################################################################

data_HEGNUF
_chemical_formula_moiety         'C34 H18 F2 O2,0.5(C1 H2 Cl2)'
_chemical_name_systematic        
"3,9-difluoro-13H-spiro[pentacene-6,9'-xanthen]-13-one dichloromethane solvate"
_symmetry_cell_setting           monoclinic
_symmetry_space_group_name_H-M   'P 21/n'
_symmetry_Int_Tables_number      14
_space_group_name_Hall           '-P 2yn'
loop_
_symmetry_equiv_pos_site_id
_symmetry_equiv_pos_as_xyz
1 x,y,z
2 1/2-x,1/2+y,1/2-z
3 -x,-y,-z
4 1/2+x,1/2-y,1/2+z
_cell_length_a                   11.558(3)
_cell_length_b                   16.573(5)
_cell_length_c                   13.868(4)
_cell_angle_alpha                90
_cell_angle_beta                 109.866(5)
_cell_angle_gamma                90
_cell_volume                     2498.34
_exptl_crystal_colour            colorless
_exptl_crystal_description       block
_cell_formula_units_Z            4
loop_
_atom_site_label
_atom_site_type_symbol
_atom_site_fract_x
_atom_site_fract_y
_atom_site_fract_z
F1 F -0.16956(16) 0.20713(10) 0.18377(15)
F2 F 0.87317(17) 0.20883(11) -0.17931(15)
O1 O 0.36781(19) 0.00978(9) 0.04138(13)
O2 O 0.35962(18) 0.44148(9) 0.01418(16)
C1 C 0.3014(2) 0.04324(13) -0.05090(17)
C2 C 0.2395(2) -0.01128(14) -0.1256(2)
H1 H 0.2453 -0.0662 -0.1111
C3 C 0.1706(2) 0.01477(17) -0.2196(2)
H2 H 0.1272 -0.0219 -0.2697
C4 C 0.1649(3) 0.09641(18) -0.2410(2)
H3 H 0.1187 0.1150 -0.3060
C5 C 0.2274(2) 0.14979(15) -0.16616(18)
H4 H 0.2234 0.2046 -0.1815
C6 C 0.29617(19) 0.12484(12) -0.06872(15)
C7 C 0.4375(2) 0.05888(13) 0.11834(16)
C8 C 0.5072(3) 0.01931(14) 0.20673(19)
H5 H 0.5043 -0.0366 0.2104
C9 C 0.5798(2) 0.06234(16) 0.28812(19)
H6 H 0.6277 0.0361 0.3475
C10 C 0.5818(2) 0.14460(16) 0.28206(18)
H7 H 0.6305 0.1744 0.3379
C11 C 0.5128(2) 0.18321(14) 0.19461(17)
H8 H 0.5156 0.2392 0.1917
C12 C 0.43889(19) 0.14096(12) 0.11028(15)
C13 C 0.36174(19) 0.18635(11) 0.01399(15)
C14 C 0.2659(2) 0.23650(12) 0.04137(15)
C15 C 0.1792(2) 0.19759(13) 0.07061(17)
H9 H 0.1802 0.1415 0.0731
C16 C 0.0879(2) 0.23956(14) 0.09728(16)
C17 C -0.0004(2) 0.19964(15) 0.1293(2)
H10 H -0.0003 0.1437 0.1348
C18 C -0.0853(2) 0.24468(18) 0.1519(2)
C19 C -0.0910(3) 0.32794(18) 0.1450(2)
H11 H -0.1519 0.3563 0.1603
C20 C -0.0065(3) 0.36728(16) 0.11550(19)
H12 H -0.0094 0.4233 0.1108
C21 C 0.0867(2) 0.32472(14) 0.09158(16)
C22 C 0.1776(2) 0.36378(13) 0.06462(17)
H13 H 0.1784 0.4199 0.0631
C23 C 0.2667(2) 0.32172(12) 0.04006(15)
C24 C 0.3588(2) 0.36770(12) 0.01142(16)
C25 C 0.4485(2) 0.32266(12) -0.02114(15)
C26 C 0.5328(2) 0.36532(13) -0.05100(16)
H14 H 0.5316 0.4214 -0.0490
C27 C 0.6199(2) 0.32694(14) -0.08413(17)
C28 C 0.7067(3) 0.36990(17) -0.11559(19)
H15 H 0.7064 0.4260 -0.1146
C29 C 0.7901(3) 0.33066(19) -0.1471(2)
H16 H 0.8469 0.3591 -0.1679
C30 C 0.7888(3) 0.24677(19) -0.1477(2)
C31 C 0.7091(2) 0.20127(16) -0.11895(19)
H17 H 0.7120 0.1452 -0.1209
C32 C 0.6211(2) 0.24118(14) -0.08587(16)
C33 C 0.5343(2) 0.19845(13) -0.05453(16)
H18 H 0.5349 0.1424 -0.0556
C34 C 0.4492(2) 0.23736(12) -0.02263(15)
Cl1 Cl 0.1512(2) -0.01024(11) 0.17649(15)
Cl2 Cl -0.0268(2) 0.01395(13) -0.02712(16)
C35 C 0.0373(7) -0.0550(4) 0.0757(6)
H19 H -0.0266 -0.0739 0.0997
H20 H 0.0709 -0.1006 0.0517
Cl1B Cl -0.1512(2) 0.01024(11) -0.17649(15)
Cl2B Cl 0.0268(2) -0.01395(13) 0.02712(16)
C35B C -0.0373(7) 0.0550(4) -0.0757(6)
H19B H 0.0266 0.0739 -0.0997
H20B H -0.0709 0.1006 -0.0517
loop_
_geom_bond_atom_site_label_1
_geom_bond_atom_site_label_2
_geom_bond_site_symmetry_1
_geom_bond_site_symmetry_2
F1 C18 1_555 1_555
F2 C30 1_555 1_555
O1 C1 1_555 1_555
O2 C24 1_555 1_555
C1 C2 1_555 1_555
C2 H1 1_555 1_555
C3 C2 1_555 1_555
H2 C3 1_555 1_555
C4 C3 1_555 1_555
H3 C4 1_555 1_555
C5 C4 1_555 1_555
H4 C5 1_555 1_555
C6 C1 1_555 1_555
C7 O1 1_555 1_555
C8 C7 1_555 1_555
H5 C8 1_555 1_555
C9 C8 1_555 1_555
H6 C9 1_555 1_555
C10 C9 1_555 1_555
H7 C10 1_555 1_555
C11 C10 1_555 1_555
H8 C11 1_555 1_555
C12 C7 1_555 1_555
C13 C6 1_555 1_555
C14 C13 1_555 1_555
C15 C14 1_555 1_555
H9 C15 1_555 1_555
C16 C15 1_555 1_555
C17 C16 1_555 1_555
H10 C17 1_555 1_555
C18 C17 1_555 1_555
C19 C18 1_555 1_555
H11 C19 1_555 1_555
C20 C19 1_555 1_555
H12 C20 1_555 1_555
C21 C16 1_555 1_555
C22 C21 1_555 1_555
H13 C22 1_555 1_555
C23 C14 1_555 1_555
C24 C23 1_555 1_555
C25 C24 1_555 1_555
C26 C25 1_555 1_555
H14 C26 1_555 1_555
C27 C26 1_555 1_555
C28 C27 1_555 1_555
H15 C28 1_555 1_555
C29 C28 1_555 1_555
H16 C29 1_555 1_555
C30 C29 1_555 1_555
C31 C30 1_555 1_555
H17 C31 1_555 1_555
C32 C27 1_555 1_555
C33 C32 1_555 1_555
H18 C33 1_555 1_555
C34 C13 1_555 1_555
Cl1 C35 1_555 1_555
Cl2 C35 1_555 1_555
C35 H19 1_555 1_555
H20 C35 1_555 1_555
Cl1B C35B 1_555 1_555
Cl2B C35B 1_555 1_555
C35B H19B 1_555 1_555
H20B C35B 1_555 1_555
C5 C6 1_555 1_555
C11 C12 1_555 1_555
C12 C13 1_555 1_555
C20 C21 1_555 1_555
C22 C23 1_555 1_555
C25 C34 1_555 1_555
C31 C32 1_555 1_555
C33 C34 1_555 1_555

#END
