
#######################################################################
#
#                 Cambridge Crystallographic Data Centre
#                                CCDC 
#
#######################################################################
#
# If this CIF has been generated from an entry in the Cambridge 
# Structural Database, then it will include bibliographic, chemical, 
# crystal, experimental, refinement or atomic coordinate data resulting 
# from the CCDC's data processing and validation procedures.
#
#######################################################################

data_HEGQAL
_chemical_formula_moiety         '2(C1 H6 N3 1+),C12 H8 N2 O6 S2 2-,C6 H4 Br2'
_chemical_name_systematic        
"bis(Guanidinium) azobenzene-4,4'-disulfonate 1,4-dibromobenzene clathrate"
_symmetry_cell_setting           triclinic
_symmetry_space_group_name_H-M   'P -1'
_symmetry_Int_Tables_number      2
_space_group_name_Hall           '-P 1'
loop_
_symmetry_equiv_pos_site_id
_symmetry_equiv_pos_as_xyz
1 x,y,z
2 -x,-y,-z
_cell_length_a                   6.1845(1)
_cell_length_b                   7.2317(2)
_cell_length_c                   15.5039(2)
_cell_angle_alpha                94.232(1)
_cell_angle_beta                 99.868(1)
_cell_angle_gamma                90.512(1)
_cell_volume                     681.118
_exptl_crystal_colour            salmon
_exptl_crystal_description       plate
_cell_formula_units_Z            1
_exptl_crystal_recrystallization_method methanol
loop_
_atom_site_label
_atom_site_type_symbol
_atom_site_fract_x
_atom_site_fract_y
_atom_site_fract_z
S1 S 0.7029(2) 0.2451(2) 0.12689(8)
O1 O 0.6066(6) 0.0581(5) 0.1113(2)
O2 O 0.9384(6) 0.2500(5) 0.1270(2)
O3 O 0.5866(6) 0.3740(5) 0.0685(2)
C1 C 0.6655(9) 0.3264(7) 0.2338(3)
C2 C 0.8286(10) 0.4310(8) 0.2887(4)
H1 H 0.9629(10) 0.4575(8) 0.2697(4)
C3 C 0.7948(10) 0.4971(8) 0.3717(4)
H2 H 0.9054(10) 0.5702(8) 0.4097(4)
C4 C 0.6002(10) 0.4558(8) 0.3986(4)
C5 C 0.4339(10) 0.3518(8) 0.3434(4)
H3 H 0.2989(10) 0.3271(8) 0.3621(4)
C6 C 0.4680(9) 0.2855(8) 0.2613(4)
H4 H 0.3575(9) 0.2121(8) 0.2235(4)
N1 N 0.5843(9) 0.5271(7) 0.4869(3)
N1A N 0.4157(9) 0.4729(7) 0.5131(3)
C4A C 0.3998(10) 0.5442(8) 0.6014(4)
C3A C 0.2052(10) 0.5029(8) 0.6283(4)
C2A C 0.1714(10) 0.5690(8) 0.7113(4)
C1A C 0.3345(9) 0.6736(7) 0.7662(3)
S1A S 0.2971(2) 0.7549(2) 0.87311(8)
O1A O 0.3934(6) 0.9419(5) 0.8887(2)
O2A O 0.0616(6) 0.7500(5) 0.8730(2)
O3A O 0.4134(6) 0.6260(5) 0.9315(2)
C6A C 0.5320(9) 0.7145(8) 0.7387(4)
C5A C 0.5661(10) 0.6482(8) 0.6566(4)
H3A H 0.7011(10) 0.6729(8) 0.6379(4)
H4A H 0.6425(9) 0.7879(8) 0.7765(4)
H1A H 0.0371(10) 0.5425(8) 0.7303(4)
H2A H 0.0946(10) 0.4298(8) 0.5903(4)
C7 C 1.0672(9) -0.2616(7) 0.0910(3)
N2 N 0.8558(8) -0.2725(6) 0.0933(3)
H5 H 0.7787(8) -0.1709(6) 0.0941(3)
H6 H 0.7916(8) -0.3813(6) 0.0940(3)
N3 N 1.1640(7) -0.0994(6) 0.0900(3)
H7 H 1.0873(7) 0.0024(6) 0.0908(3)
H8 H 1.3054(7) -0.0927(6) 0.0885(3)
N4 N 1.1806(8) -0.4179(6) 0.0922(3)
H9 H 1.3228(8) -0.4135(6) 0.0922(3)
H10 H 1.1130(8) -0.5252(6) 0.0929(3)
Br1 Br 1.21592(15) -0.14041(11) 0.32915(5)
C8 C 1.0904(12) -0.0584(9) 0.4281(4)
C9 C 0.8784(13) 0.0042(10) 0.4175(5)
H11 H 0.7952(13) 0.0077(10) 0.3602(5)
C10 C 1.2134(12) -0.0618(9) 0.5106(5)
H12 H 1.3602(12) -0.1033(9) 0.5180(5)
C10A C 0.7866(12) 0.0618(9) 0.4894(5)
C8A C 0.9096(12) 0.0584(9) 0.5719(4)
Br1A Br 0.78408(15) 0.14041(11) 0.67085(5)
C9A C 1.1216(13) -0.0042(10) 0.5825(5)
H11A H 1.2048(13) -0.0077(10) 0.6398(5)
H12A H 0.6398(12) 0.1033(9) 0.4820(5)
loop_
_geom_bond_atom_site_label_1
_geom_bond_atom_site_label_2
_geom_bond_site_symmetry_1
_geom_bond_site_symmetry_2
S1 O1 1_555 1_555
O2 S1 1_555 1_555
O3 S1 1_555 1_555
C1 S1 1_555 1_555
C2 C1 1_555 1_555
H1 C2 1_555 1_555
C3 C2 1_555 1_555
H2 C3 1_555 1_555
C4 C3 1_555 1_555
C5 C4 1_555 1_555
H3 C5 1_555 1_555
C6 C1 1_555 1_555
H4 C6 1_555 1_555
N1 C4 1_555 1_555
C7 N2 1_555 1_555
N2 H5 1_555 1_555
H6 N2 1_555 1_555
N3 C7 1_555 1_555
H7 N3 1_555 1_555
H8 N3 1_555 1_555
N4 C7 1_555 1_555
H9 N4 1_555 1_555
H10 N4 1_555 1_555
Br1 C8 1_555 1_555
C8 C9 1_555 1_555
C9 H11 1_555 1_555
C10 C8 1_555 1_555
H12 C10 1_555 1_555
N1A N1 1_555 1_555
C4A N1A 1_555 1_555
C3A C4A 1_555 1_555
C2A C3A 1_555 1_555
C1A C2A 1_555 1_555
S1A C1A 1_555 1_555
O1A S1A 1_555 1_555
O2A S1A 1_555 1_555
O3A S1A 1_555 1_555
C6A C1A 1_555 1_555
C5A C4A 1_555 1_555
H3A C5A 1_555 1_555
H4A C6A 1_555 1_555
H1A C2A 1_555 1_555
H2A C3A 1_555 1_555
C10A C9 1_555 1_555
C8A C10A 1_555 1_555
Br1A C8A 1_555 1_555
C9A C10 1_555 1_555
H11A C9A 1_555 1_555
H12A C10A 1_555 1_555
C5 C6 1_555 1_555
C6A C5A 1_555 1_555
C8A C9A 1_555 1_555

#END
