
#######################################################################
#
#                 Cambridge Crystallographic Data Centre
#                                CCDC 
#
#######################################################################
#
# If this CIF has been generated from an entry in the Cambridge 
# Structural Database, then it will include bibliographic, chemical, 
# crystal, experimental, refinement or atomic coordinate data resulting 
# from the CCDC's data processing and validation procedures.
#
#######################################################################

data_HEGVEW
_chemical_formula_moiety         'C19 H20 O1'
_chemical_name_systematic        
15-t-Butoxytetracyclo[10.2.1.0^2,11^.0^4,9^]pentadeca-2,4,6,8,10,13-hexaene
_symmetry_cell_setting           monoclinic
_symmetry_space_group_name_H-M   'P 21/n'
_symmetry_Int_Tables_number      14
_space_group_name_Hall           '-P 2yn'
loop_
_symmetry_equiv_pos_site_id
_symmetry_equiv_pos_as_xyz
1 x,y,z
2 1/2-x,1/2+y,1/2-z
3 -x,-y,-z
4 1/2+x,1/2-y,1/2+z
_cell_length_a                   13.5240(10)
_cell_length_b                   8.3453(6)
_cell_length_c                   13.9604(9)
_cell_angle_alpha                90
_cell_angle_beta                 100.0190(10)
_cell_angle_gamma                90
_cell_volume                     1551.57
_exptl_crystal_colour            colorless
_exptl_crystal_description       parallelepiped
_cell_formula_units_Z            4
loop_
_atom_site_label
_atom_site_type_symbol
_atom_site_fract_x
_atom_site_fract_y
_atom_site_fract_z
O1 O 0.06694(8) 0.15129(12) 0.83758(7)
C1 C 0.04442(11) 0.22949(17) 0.74729(10)
H1 H 0.0929 0.2028 0.7052
C2 C 0.03529(11) 0.41389(17) 0.76024(11)
H2 H 0.0954 0.4700 0.7931
C3 C -0.05625(10) 0.41685(15) 0.81033(10)
C4 C -0.08127(10) 0.50738(16) 0.88264(10)
H3 H -0.0397 0.5907 0.9092
C5 C -0.17167(10) 0.47447(17) 0.91791(10)
C6 C -0.19994(13) 0.5610(2) 0.99595(11)
H4 H -0.1599 0.6455 1.0234
C7 C -0.28393(15) 0.5236(3) 1.03165(13)
H5 H -0.3003 0.5818 1.0835
C8 C -0.34613(14) 0.3985(3) 0.99145(15)
H6 H -0.4037 0.3737 1.0164
C9 C -0.32214(12) 0.3123(2) 0.91510(13)
H7 H -0.3640 0.2292 0.8886
C10 C -0.23490(10) 0.34727(17) 0.87588(10)
C11 C -0.20669(11) 0.25603(18) 0.79883(11)
H8 H -0.2476 0.1732 0.7704
C12 C -0.12013(11) 0.29050(16) 0.76726(10)
C13 C -0.06660(12) 0.21412(18) 0.69208(11)
H9 H -0.0891 0.1069 0.6693
C14 C -0.06068(14) 0.3393(2) 0.61472(12)
H10 H -0.0934 0.3349 0.5504
C15 C -0.00122(13) 0.4554(2) 0.65412(12)
H11 H 0.0155 0.5469 0.6224
C16 C 0.11908(12) -0.00110(19) 0.84159(12)
C17 C 0.11815(18) -0.0604(3) 0.94323(15)
H12 H 0.1533 0.0143 0.9893
H13 H 0.1505 -0.1630 0.9519
H14 H 0.0500 -0.0703 0.9534
C18 C 0.22630(14) 0.0264(3) 0.82621(16)
H15 H 0.2592 0.0993 0.8747
H16 H 0.2256 0.0711 0.7627
H17 H 0.2617 -0.0737 0.8315
C19 C 0.06494(16) -0.1175(2) 0.76641(16)
H18 H 0.0669 -0.0775 0.7023
H19 H -0.0036 -0.1283 0.7750
H20 H 0.0974 -0.2201 0.7745
loop_
_geom_bond_atom_site_label_1
_geom_bond_atom_site_label_2
_geom_bond_site_symmetry_1
_geom_bond_site_symmetry_2
O1 C1 1_555 1_555
C1 H1 1_555 1_555
C2 C1 1_555 1_555
H2 C2 1_555 1_555
C3 C2 1_555 1_555
C4 C3 1_555 1_555
H3 C4 1_555 1_555
C5 C4 1_555 1_555
C6 C5 1_555 1_555
H4 C6 1_555 1_555
C7 C6 1_555 1_555
H5 C7 1_555 1_555
C8 C7 1_555 1_555
H6 C8 1_555 1_555
C9 C8 1_555 1_555
H7 C9 1_555 1_555
C10 C5 1_555 1_555
C11 C10 1_555 1_555
H8 C11 1_555 1_555
C12 C3 1_555 1_555
C13 C1 1_555 1_555
H9 C13 1_555 1_555
C14 C13 1_555 1_555
H10 C14 1_555 1_555
C15 C2 1_555 1_555
H11 C15 1_555 1_555
C16 O1 1_555 1_555
C17 C16 1_555 1_555
H12 C17 1_555 1_555
H13 C17 1_555 1_555
H14 C17 1_555 1_555
C18 C16 1_555 1_555
H15 C18 1_555 1_555
H16 C18 1_555 1_555
H17 C18 1_555 1_555
C19 C16 1_555 1_555
H18 C19 1_555 1_555
H19 C19 1_555 1_555
H20 C19 1_555 1_555
C9 C10 1_555 1_555
C11 C12 1_555 1_555
C12 C13 1_555 1_555
C14 C15 1_555 1_555

#END
