
#######################################################################
#
#                 Cambridge Crystallographic Data Centre
#                                CCDC 
#
#######################################################################
#
# If this CIF has been generated from an entry in the Cambridge 
# Structural Database, then it will include bibliographic, chemical, 
# crystal, experimental, refinement or atomic coordinate data resulting 
# from the CCDC's data processing and validation procedures.
#
#######################################################################

data_HEGWEY
_chemical_formula_moiety         'C37 H32 N2 O3'
_chemical_name_systematic        
2-benzyl-4-((1-methyl-2-oxo-3-phenyl-2,3-dihydro-1H-indol-3-yl)methyl)-7-phenyl-3a,4,7,7a-tetrahydro-1H-isoindole-1,3(2H)-dione
_symmetry_cell_setting           triclinic
_symmetry_space_group_name_H-M   'P -1'
_symmetry_Int_Tables_number      2
_space_group_name_Hall           '-P 1'
loop_
_symmetry_equiv_pos_site_id
_symmetry_equiv_pos_as_xyz
1 x,y,z
2 -x,-y,-z
_cell_length_a                   7.3961(5)
_cell_length_b                   14.159(2)
_cell_length_c                   14.7965(10)
_cell_angle_alpha                113.245(5)
_cell_angle_beta                 93.815(2)
_cell_angle_gamma                94.009(4)
_cell_volume                     1412.74
_exptl_crystal_colour            colorless
_exptl_crystal_description       block
_cell_formula_units_Z            2
loop_
_atom_site_label
_atom_site_type_symbol
_atom_site_fract_x
_atom_site_fract_y
_atom_site_fract_z
O1 O 0.00044(13) 0.09252(8) 0.87073(7)
O2 O 0.85758(13) 0.33551(8) 0.70942(8)
O3 O 0.52245(13) 0.30788(8) 0.98446(8)
N1 N 0.28086(14) 0.18252(9) 0.93201(8)
N2 N 0.64848(16) 0.35802(9) 0.60062(9)
C1 C 0.11680(17) 0.22271(10) 0.81314(10)
H1 H -0.0002 0.2530 0.8150
C2 C 0.37821(17) 0.27013(10) 0.93484(10)
C3 C 0.49859(18) 0.41504(10) 0.60568(11)
C4 C 0.11645(17) 0.15764(10) 0.87274(10)
C5 C 0.72834(18) 0.37662(10) 0.69261(10)
C6 C 0.39926(18) 0.32780(11) 0.79335(10)
H2 H 0.3206 0.3433 0.7452
C7 C 0.48283(18) 0.47803(10) 0.70351(10)
C8 C 0.54554(19) 0.41917(11) 0.84254(10)
H3 H 0.6432 0.3984 0.8766
H4 H 0.4922 0.4757 0.8926
C9 C 0.62945(18) 0.45970(10) 0.76938(10)
C10 C 0.27431(17) 0.30890(10) 0.86607(10)
H5 H 0.2240 0.3739 0.9057
C11 C 0.15006(18) 0.15564(11) 0.70272(10)
H6 H 0.1202 0.1975 0.6648
C12 C 0.57157(19) 0.02602(12) 0.86711(11)
H7 H 0.6468 0.0889 0.8913
C13 C 0.46934(19) 0.22551(11) 0.73767(10)
H8 H 0.5946 0.2207 0.7322
C14 C 0.77331(18) 0.55204(11) 0.82324(10)
C15 C 0.35012(19) 0.14286(11) 0.69671(10)
H9 H 0.3892 0.0771 0.6643
C16 C 0.34289(19) 0.11674(11) 0.98050(10)
H10 H 0.2431 0.0976 1.0124
H11 H 0.4435 0.1545 1.0315
C17 C 0.7776(2) 0.64047(11) 0.80431(12)
H12 H 0.6853 0.6466 0.7607
C18 C 0.40564(18) 0.02078(11) 0.90493(10)
C19 C 0.3411(2) 0.53879(12) 0.72649(12)
H13 H 0.3285 0.5817 0.7925
C20 C 0.6267(2) -0.05992(13) 0.79465(12)
H14 H 0.7394 -0.0556 0.7699
C21 C -0.0395(2) -0.12683(12) 0.60919(12)
H15 H -0.0053 -0.1887 0.6113
C22 C 0.2968(2) -0.07263(11) 0.86849(11)
H16 H 0.1846 -0.0774 0.8935
C23 C 0.9122(2) 0.54543(12) 0.88827(11)
H17 H 0.9123 0.4859 0.9018
C24 C 0.2165(2) 0.53540(13) 0.64980(14)
H18 H 0.1186 0.5761 0.6644
C25 C 0.02541(18) 0.05604(11) 0.65518(10)
C26 C 0.0735(2) -0.03634(12) 0.65705(11)
H19 H 0.1846 -0.0371 0.6914
C27 C 1.0527(2) 0.71249(12) 0.91330(12)
H20 H 1.1469 0.7665 0.9434
C28 C 0.3780(2) 0.41174(12) 0.52896(12)
H21 H 0.3915 0.3696 0.4629
C29 C 1.0494(2) 0.62508(13) 0.93298(12)
H22 H 1.1414 0.6197 0.9772
C30 C 0.9167(2) 0.72004(12) 0.84915(13)
H23 H 0.9181 0.7796 0.8356
C31 C -0.1417(2) 0.05514(12) 0.60583(11)
H24 H -0.1783 0.1171 0.6051
C32 C 0.3521(2) -0.15884(12) 0.79570(12)
H25 H 0.2778 -0.2220 0.7715
C33 C -0.2027(2) -0.12690(13) 0.55814(12)
H26 H -0.2781 -0.1890 0.5238
C34 C 0.2354(2) 0.47338(14) 0.55356(14)
H27 H 0.1503 0.4725 0.5030
C35 C -0.2542(2) -0.03549(14) 0.55794(12)
H28 H -0.3668 -0.0349 0.5249
C36 C 0.7086(2) 0.28512(14) 0.51078(12)
H29 H 0.6190 0.2251 0.4816
H30 H 0.8246 0.2638 0.5260
H31 H 0.7227 0.3175 0.4645
C37 C 0.5169(2) -0.15215(13) 0.75846(12)
H32 H 0.5539 -0.2106 0.7084
loop_
_geom_bond_atom_site_label_1
_geom_bond_atom_site_label_2
_geom_bond_site_symmetry_1
_geom_bond_site_symmetry_2
O1 C4 1_555 1_555
O2 C5 1_555 1_555
O3 C2 1_555 1_555
N1 C2 1_555 1_555
N2 C3 1_555 1_555
C1 H1 1_555 1_555
C2 C10 1_555 1_555
C3 C7 1_555 1_555
C4 N1 1_555 1_555
C5 N2 1_555 1_555
C6 H2 1_555 1_555
C7 C9 1_555 1_555
C8 C6 1_555 1_555
H3 C8 1_555 1_555
H4 C8 1_555 1_555
C9 C5 1_555 1_555
C10 C1 1_555 1_555
H5 C10 1_555 1_555
C11 C1 1_555 1_555
H6 C11 1_555 1_555
C12 H7 1_555 1_555
C13 C6 1_555 1_555
H8 C13 1_555 1_555
C14 C9 1_555 1_555
C15 C11 1_555 1_555
H9 C15 1_555 1_555
C16 N1 1_555 1_555
H10 C16 1_555 1_555
H11 C16 1_555 1_555
C17 C14 1_555 1_555
H12 C17 1_555 1_555
C18 C12 1_555 1_555
C19 C7 1_555 1_555
H13 C19 1_555 1_555
C20 C12 1_555 1_555
H14 C20 1_555 1_555
C21 H15 1_555 1_555
C22 C18 1_555 1_555
H16 C22 1_555 1_555
C23 C14 1_555 1_555
H17 C23 1_555 1_555
C24 C19 1_555 1_555
H18 C24 1_555 1_555
C25 C11 1_555 1_555
C26 C21 1_555 1_555
H19 C26 1_555 1_555
C27 H20 1_555 1_555
C28 C3 1_555 1_555
H21 C28 1_555 1_555
C29 C23 1_555 1_555
H22 C29 1_555 1_555
C30 C17 1_555 1_555
H23 C30 1_555 1_555
C31 C25 1_555 1_555
H24 C31 1_555 1_555
C32 C22 1_555 1_555
H25 C32 1_555 1_555
C33 C21 1_555 1_555
H26 C33 1_555 1_555
C34 C24 1_555 1_555
H27 C34 1_555 1_555
C35 C31 1_555 1_555
H28 C35 1_555 1_555
C36 N2 1_555 1_555
H29 C36 1_555 1_555
H30 C36 1_555 1_555
H31 C36 1_555 1_555
C37 C20 1_555 1_555
H32 C37 1_555 1_555
C1 C4 1_555 1_555
C6 C10 1_555 1_555
C8 C9 1_555 1_555
C13 C15 1_555 1_555
C16 C18 1_555 1_555
C25 C26 1_555 1_555
C27 C29 1_555 1_555
C27 C30 1_555 1_555
C28 C34 1_555 1_555
C32 C37 1_555 1_555
C33 C35 1_555 1_555

#END
