
#######################################################################
#
#                 Cambridge Crystallographic Data Centre
#                                CCDC 
#
#######################################################################
#
# If this CIF has been generated from an entry in the Cambridge 
# Structural Database, then it will include bibliographic, chemical, 
# crystal, experimental, refinement or atomic coordinate data resulting 
# from the CCDC's data processing and validation procedures.
#
#######################################################################

data_HEGWAU
_chemical_formula_moiety         'C26 H23 N1 O1'
_chemical_name_systematic        
1-methyl-3-phenyl-3-(5-phenylpenta-2,4-dien-1-yl)-1,3-dihydro-2H-indol-2-one
_symmetry_cell_setting           monoclinic
_symmetry_space_group_name_H-M   'P 21/c'
_symmetry_Int_Tables_number      14
_space_group_name_Hall           '-P 2ybc'
loop_
_symmetry_equiv_pos_site_id
_symmetry_equiv_pos_as_xyz
1 x,y,z
2 -x,1/2+y,1/2-z
3 -x,-y,-z
4 x,1/2-y,1/2+z
_cell_length_a                   9.934(2)
_cell_length_b                   22.154(4)
_cell_length_c                   8.9741(18)
_cell_angle_alpha                90
_cell_angle_beta                 94.349(5)
_cell_angle_gamma                90
_cell_volume                     1969.31
_exptl_crystal_colour            colorless
_exptl_crystal_description       block
_cell_formula_units_Z            4
loop_
_atom_site_label
_atom_site_type_symbol
_atom_site_fract_x
_atom_site_fract_y
_atom_site_fract_z
O1 O 0.82451(19) 0.47660(7) 0.3353(2)
N1 N 0.9193(2) 0.38254(9) 0.3613(2)
C1 C 0.8933(2) 0.32436(10) 0.3016(3)
C2 C 0.7572(2) 0.41782(10) 0.0279(3)
C3 C 0.8288(2) 0.42337(11) 0.3015(3)
C4 C 0.7848(3) 0.32661(11) 0.1961(3)
C5 C 0.7341(2) 0.39074(10) 0.1811(3)
C6 C 0.3216(2) 0.36655(11) 0.8354(3)
C7 C 0.5859(2) 0.39660(12) 0.2196(3)
H1 H 0.5617 0.4395 0.2186
H2 H 0.5282 0.3766 0.1411
C8 C 0.4423(3) 0.36806(12) 0.6004(3)
H3 H 0.4823 0.3308 0.6271
C9 C 0.5560(3) 0.37063(12) 0.3667(3)
H4 H 0.5972 0.3336 0.3939
C10 C 0.3585(3) 0.39177(12) 0.6937(3)
H5 H 0.3186 0.4289 0.6652
C11 C 0.8097(3) 0.46502(12) -0.2517(3)
H6 H 0.8270 0.4813 -0.3451
C12 C 0.4769(3) 0.39481(12) 0.4620(3)
H7 H 0.4397 0.4329 0.4375
C13 C 1.0298(3) 0.39685(12) 0.4696(3)
H8 H 1.0203 0.3740 0.5604
H9 H 1.0285 0.4397 0.4921
H10 H 1.1146 0.3865 0.4291
C14 C 0.3424(3) 0.30619(12) 0.8730(3)
H11 H 0.3838 0.2804 0.8070
C15 C 0.9587(3) 0.27132(12) 0.3422(3)
H12 H 1.0334 0.2707 0.4131
C16 C 0.7374(3) 0.27455(12) 0.1290(3)
H13 H 0.6641 0.2755 0.0564
C17 C 0.2660(3) 0.40379(13) 0.9397(3)
H14 H 0.2522 0.4449 0.9175
C18 C 0.8871(3) 0.42551(13) -0.0130(3)
H15 H 0.9600 0.4146 0.0545
C19 C 0.3028(3) 0.28369(13) 1.0067(3)
H16 H 0.3142 0.2425 1.0291
C20 C 0.6534(3) 0.43412(13) -0.0754(3)
H17 H 0.5635 0.4296 -0.0515
C21 C 0.8004(3) 0.21958(12) 0.1706(3)
H18 H 0.7676 0.1832 0.1277
C22 C 0.9089(3) 0.21899(13) 0.2735(3)
H19 H 0.9512 0.1820 0.2984
C23 C 0.2469(3) 0.32139(15) 1.1067(4)
H20 H 0.2195 0.3059 1.1971
C24 C 0.9129(3) 0.44903(13) -0.1517(3)
H21 H 1.0026 0.4539 -0.1764
C25 C 0.2312(3) 0.38165(14) 1.0745(4)
H22 H 0.1965 0.4078 1.1446
C26 C 0.6804(3) 0.45709(14) -0.2141(3)
H23 H 0.6082 0.4673 -0.2833
loop_
_geom_bond_atom_site_label_1
_geom_bond_atom_site_label_2
_geom_bond_site_symmetry_1
_geom_bond_site_symmetry_2
O1 C3 1_555 1_555
N1 C1 1_555 1_555
C1 C4 1_555 1_555
C2 C5 1_555 1_555
C3 N1 1_555 1_555
C4 C5 1_555 1_555
C5 C3 1_555 1_555
C6 C10 1_555 1_555
C7 C5 1_555 1_555
H1 C7 1_555 1_555
H2 C7 1_555 1_555
C8 H3 1_555 1_555
C9 C7 1_555 1_555
H4 C9 1_555 1_555
C10 C8 1_555 1_555
H5 C10 1_555 1_555
C11 H6 1_555 1_555
C12 C8 1_555 1_555
H7 C12 1_555 1_555
C13 N1 1_555 1_555
H8 C13 1_555 1_555
H9 C13 1_555 1_555
H10 C13 1_555 1_555
C14 C6 1_555 1_555
H11 C14 1_555 1_555
C15 C1 1_555 1_555
H12 C15 1_555 1_555
C16 C4 1_555 1_555
H13 C16 1_555 1_555
C17 C6 1_555 1_555
H14 C17 1_555 1_555
C18 C2 1_555 1_555
H15 C18 1_555 1_555
C19 C14 1_555 1_555
H16 C19 1_555 1_555
C20 C2 1_555 1_555
H17 C20 1_555 1_555
C21 C16 1_555 1_555
H18 C21 1_555 1_555
C22 C15 1_555 1_555
H19 C22 1_555 1_555
C23 C19 1_555 1_555
H20 C23 1_555 1_555
C24 C11 1_555 1_555
H21 C24 1_555 1_555
C25 C17 1_555 1_555
H22 C25 1_555 1_555
C26 C11 1_555 1_555
H23 C26 1_555 1_555
C9 C12 1_555 1_555
C18 C24 1_555 1_555
C20 C26 1_555 1_555
C21 C22 1_555 1_555
C23 C25 1_555 1_555

#END
