
#######################################################################
#
#                 Cambridge Crystallographic Data Centre
#                                CCDC 
#
#######################################################################
#
# If this CIF has been generated from an entry in the Cambridge 
# Structural Database, then it will include bibliographic, chemical, 
# crystal, experimental, refinement or atomic coordinate data resulting 
# from the CCDC's data processing and validation procedures.
#
#######################################################################

data_HEGXID
_chemical_formula_moiety         'C40 H35 Br1 N4 O3'
_chemical_name_systematic        
'ethyl 6-benzyl-9-(4-bromophenyl)-3-(4-methoxyphenyl)-1,7-diphenyl-1,2,7,8-tetraazaspiro[4.4]nona-2,8-diene-6-carboxylate'
_symmetry_cell_setting           triclinic
_symmetry_space_group_name_H-M   'P -1'
_symmetry_Int_Tables_number      2
_space_group_name_Hall           '-P 1'
loop_
_symmetry_equiv_pos_site_id
_symmetry_equiv_pos_as_xyz
1 x,y,z
2 -x,-y,-z
_cell_length_a                   10.6766(9)
_cell_length_b                   10.7779(8)
_cell_length_c                   15.8861(9)
_cell_angle_alpha                79.719(5)
_cell_angle_beta                 73.665(6)
_cell_angle_gamma                77.959(7)
_cell_volume                     1701.61
_exptl_crystal_colour            colorless
_exptl_crystal_description       Plate
_cell_formula_units_Z            2
loop_
_atom_site_label
_atom_site_type_symbol
_atom_site_fract_x
_atom_site_fract_y
_atom_site_fract_z
Br1 Br 0.84033(3) 1.22271(3) 0.71829(2)
O1 O 1.08835(17) 0.30420(17) 0.97301(11)
O2 O 0.25638(17) 0.57283(17) 0.77544(11)
O3 O 0.44730(17) 0.43206(15) 0.76603(11)
N1 N 0.5540(2) 0.61613(19) 0.87665(12)
N2 N 0.47116(19) 0.68239(18) 0.82290(12)
N3 N 0.45156(19) 0.84970(18) 0.63301(12)
N4 N 0.39122(19) 0.74618(18) 0.63742(12)
C1 C 0.1972(2) 0.8925(2) 0.60976(15)
H1 H 0.231510 0.959577 0.619642
C2 C 0.2171(2) 0.6693(2) 0.59751(16)
H2 H 0.264959 0.586628 0.598428
C3 C 0.0933(3) 0.6945(3) 0.57940(16)
H3 H 0.058437 0.627887 0.569371
C4 C 0.0749(3) 0.9162(3) 0.59060(16)
H4 H 0.028071 0.999279 0.587415
C5 C 0.7576(2) 1.0927(2) 0.70040(16)
C6 C 0.7098(3) 1.1054(2) 0.62666(17)
H5 H 0.722518 1.175177 0.583218
C7 C 0.6425(2) 1.0134(2) 0.61777(16)
H6 H 0.610617 1.021608 0.567927
C8 C 0.6220(2) 0.9080(2) 0.68303(14)
C9 C 0.6774(2) 0.8946(2) 0.75499(16)
H7 H 0.669115 0.822933 0.797222
C10 C 0.7446(3) 0.9867(2) 0.76423(16)
H8 H 0.780320 0.977413 0.812494
C11 C 0.5412(2) 0.8165(2) 0.67657(14)
C12 C 0.5441(2) 0.6815(2) 0.72531(14)
C13 C 0.2695(2) 0.7683(2) 0.61433(14)
C14 C 0.4630(2) 0.6268(2) 0.67480(14)
C15 C 0.5495(2) 0.5498(2) 0.59773(14)
H9 H 0.605298 0.477596 0.622214
H10 H 0.490946 0.515854 0.574207
C16 C 0.6374(2) 0.6236(2) 0.52156(15)
C17 C 0.5843(3) 0.7069(2) 0.45756(16)
H11 H 0.493717 0.718752 0.462882
C18 C 0.6637(3) 0.7724(3) 0.38607(17)
H12 H 0.626382 0.828315 0.344469
C19 C 0.0213(3) 0.8172(3) 0.57609(17)
H13 H -0.061578 0.833163 0.564351
C20 C 0.7997(3) 0.7539(3) 0.37708(17)
H14 H 0.853525 0.797503 0.329476
C21 C 0.8540(3) 0.6707(3) 0.43895(17)
H15 H 0.944919 0.657718 0.432713
C22 C 0.7742(2) 0.6062(2) 0.51051(16)
H16 H 0.812299 0.550345 0.551804
C23 C 0.3734(2) 0.5431(2) 0.74441(15)
C24 C 0.3786(3) 0.3444(3) 0.83751(19)
H17 H 0.326179 0.390791 0.886303
H18 H 0.319455 0.307630 0.816303
C25 C 0.4743(4) 0.2455(4) 0.8667(3)
H19 H 0.524364 0.198762 0.818472
H20 H 0.430135 0.188608 0.914068
H21 H 0.532855 0.282625 0.887156
C26 C 0.3824(2) 0.7909(2) 0.85787(15)
C27 C 0.2738(3) 0.8486(2) 0.82391(17)
H22 H 0.259118 0.817093 0.777310
C28 C 0.1878(3) 0.9528(3) 0.8595(2)
H23 H 0.118284 0.993087 0.834587
C29 C 0.2040(4) 0.9972(3) 0.9313(2)
H24 H 0.145188 1.066114 0.955434
C30 C 0.3086(4) 0.9380(3) 0.9669(2)
H25 H 0.318826 0.966633 1.016025
C31 C 0.3990(3) 0.8364(3) 0.93058(18)
H26 H 0.470206 0.798929 0.954500
C32 C 0.6667(2) 0.5683(2) 0.82881(15)
C33 C 0.6793(2) 0.6014(2) 0.73059(14)
H27 H 0.696244 0.524715 0.702325
H28 H 0.750041 0.650383 0.702798
C34 C 0.7727(2) 0.4919(2) 0.86680(15)
C35 C 0.7502(3) 0.4525(2) 0.95797(16)
H29 H 0.664882 0.468849 0.994009
C36 C 0.8525(3) 0.3896(2) 0.99562(16)
H30 H 0.835753 0.365429 1.056405
C37 C 0.9804(2) 0.3628(2) 0.94212(16)
C38 C 1.0038(2) 0.3974(2) 0.85063(16)
H31 H 1.088320 0.377060 0.814276
C39 C 0.9012(2) 0.4617(2) 0.81427(16)
H32 H 0.918121 0.485400 0.753437
C40 C 1.0717(3) 0.2765(3) 1.06624(17)
H33 H 1.156418 0.245133 1.078695
H34 H 1.015786 0.212691 1.089620
H35 H 1.031501 0.352914 1.093225
loop_
_geom_bond_atom_site_label_1
_geom_bond_atom_site_label_2
_geom_bond_site_symmetry_1
_geom_bond_site_symmetry_2
Br1 C5 1_555 1_555
O1 C37 1_555 1_555
O2 C23 1_555 1_555
O3 C23 1_555 1_555
N1 N2 1_555 1_555
N2 C12 1_555 1_555
N3 N4 1_555 1_555
N4 C13 1_555 1_555
C1 H1 1_555 1_555
C2 H2 1_555 1_555
C3 C2 1_555 1_555
H3 C3 1_555 1_555
C4 C1 1_555 1_555
H4 C4 1_555 1_555
C5 C6 1_555 1_555
C6 H5 1_555 1_555
C7 C6 1_555 1_555
H6 C7 1_555 1_555
C8 C7 1_555 1_555
C9 C8 1_555 1_555
H7 C9 1_555 1_555
C10 C5 1_555 1_555
H8 C10 1_555 1_555
C11 N3 1_555 1_555
C12 C11 1_555 1_555
C13 C1 1_555 1_555
C14 N4 1_555 1_555
C15 C14 1_555 1_555
H9 C15 1_555 1_555
H10 C15 1_555 1_555
C16 C15 1_555 1_555
C17 C16 1_555 1_555
H11 C17 1_555 1_555
C18 C17 1_555 1_555
H12 C18 1_555 1_555
C19 C3 1_555 1_555
H13 C19 1_555 1_555
C20 C18 1_555 1_555
H14 C20 1_555 1_555
C21 C20 1_555 1_555
H15 C21 1_555 1_555
C22 C16 1_555 1_555
H16 C22 1_555 1_555
C23 C14 1_555 1_555
C24 O3 1_555 1_555
H17 C24 1_555 1_555
H18 C24 1_555 1_555
C25 C24 1_555 1_555
H19 C25 1_555 1_555
H20 C25 1_555 1_555
H21 C25 1_555 1_555
C26 N2 1_555 1_555
C27 C26 1_555 1_555
H22 C27 1_555 1_555
C28 C27 1_555 1_555
H23 C28 1_555 1_555
C29 C28 1_555 1_555
H24 C29 1_555 1_555
C30 C29 1_555 1_555
H25 C30 1_555 1_555
C31 C26 1_555 1_555
H26 C31 1_555 1_555
C32 N1 1_555 1_555
C33 C12 1_555 1_555
H27 C33 1_555 1_555
H28 C33 1_555 1_555
C34 C32 1_555 1_555
C35 C34 1_555 1_555
H29 C35 1_555 1_555
C36 C35 1_555 1_555
H30 C36 1_555 1_555
C37 C36 1_555 1_555
C38 C37 1_555 1_555
H31 C38 1_555 1_555
C39 C34 1_555 1_555
H32 C39 1_555 1_555
C40 O1 1_555 1_555
H33 C40 1_555 1_555
H34 C40 1_555 1_555
H35 C40 1_555 1_555
C2 C13 1_555 1_555
C4 C19 1_555 1_555
C8 C11 1_555 1_555
C9 C10 1_555 1_555
C12 C14 1_555 1_555
C21 C22 1_555 1_555
C30 C31 1_555 1_555
C32 C33 1_555 1_555
C38 C39 1_555 1_555

#END
