
#######################################################################
#
#                 Cambridge Crystallographic Data Centre
#                                CCDC 
#
#######################################################################
#
# If this CIF has been generated from an entry in the Cambridge 
# Structural Database, then it will include bibliographic, chemical, 
# crystal, experimental, refinement or atomic coordinate data resulting 
# from the CCDC's data processing and validation procedures.
#
#######################################################################

data_HEHNIT
_chemical_formula_moiety         'C9 H7 Cl1 F1 N3'
_chemical_name_systematic        
1-(4-chlorophenyl)-4-(fluoromethyl)-1,2,3-triazole
_symmetry_cell_setting           triclinic
_symmetry_space_group_name_H-M   'P -1'
_symmetry_Int_Tables_number      2
_space_group_name_Hall           '-P 1'
loop_
_symmetry_equiv_pos_site_id
_symmetry_equiv_pos_as_xyz
1 x,y,z
2 -x,-y,-z
_cell_length_a                   3.9599(2)
_cell_length_b                   9.4041(6)
_cell_length_c                   24.6918(16)
_cell_angle_alpha                95.651(3)
_cell_angle_beta                 91.322(3)
_cell_angle_gamma                95.913(3)
_cell_volume                     909.656
_exptl_crystal_colour            colorless
_exptl_crystal_description       rod
_cell_formula_units_Z            4
loop_
_atom_site_label
_atom_site_type_symbol
_atom_site_fract_x
_atom_site_fract_y
_atom_site_fract_z
Cl1 Cl 0.6228(4) 0.22746(18) 0.02501(6)
F1 F 1.1842(8) 0.2691(3) -0.37128(12)
N1 N 1.0970(11) 0.3270(4) -0.19510(17)
N2 N 1.1574(11) 0.4458(4) -0.26452(18)
C1 C 1.4392(13) 0.2817(6) -0.3294(2)
H1 H 1.6205 0.3581 -0.3360
H2 H 1.5418 0.1901 -0.3293
C2 C 0.9885(13) 0.3025(5) -0.1418(2)
N3 N 1.0390(12) 0.4513(5) -0.21536(18)
C3 C 0.7701(14) 0.2551(7) -0.0396(2)
C4 C 0.9680(15) 0.1659(6) -0.1251(2)
H3 H 1.0271 0.0880 -0.1493
C5 C 0.8969(14) 0.4162(6) -0.1069(2)
H4 H 0.9112 0.5100 -0.1184
C6 C 0.8619(15) 0.1418(6) -0.0734(2)
H5 H 0.8528 0.0485 -0.0616
C7 C 1.2470(13) 0.2405(5) -0.2320(2)
H6 H 1.3104 0.1472 -0.2282
C8 C 1.2873(12) 0.3173(5) -0.2761(2)
C9 C 0.7853(14) 0.3936(6) -0.0555(2)
H7 H 0.7204 0.4707 -0.0316
Cl2 Cl 0.4028(4) 0.72807(18) 0.47544(6)
F2 F -0.2181(8) 0.8073(4) 0.86766(13)
N4 N -0.1708(11) 0.8253(4) 0.69360(17)
N5 N -0.2904(13) 0.9532(5) 0.70974(18)
N6 N -0.4053(12) 0.9435(5) 0.75898(18)
C10 C -0.0270(13) 0.8032(5) 0.6411(2)
C11 C 0.0494(14) 0.6661(6) 0.6222(2)
H8 H 0.0125 0.5893 0.6444
C12 C 0.0296(14) 0.9163(6) 0.6095(2)
H9 H -0.0246 1.0094 0.6226
C13 C -0.4689(14) 0.7659(6) 0.8276(2)
H10 H -0.6781 0.8096 0.8380
H11 H -0.5218 0.6601 0.8244
C14 C 0.2361(13) 0.7562(6) 0.5397(2)
C15 C 0.1660(14) 0.8931(6) 0.5586(2)
H12 H 0.2109 0.9705 0.5369
C16 C 0.1793(14) 0.6423(6) 0.5711(2)
H13 H 0.2290 0.5490 0.5575
C17 C -0.3588(13) 0.8113(6) 0.7742(2)
C18 C -0.2147(13) 0.7359(5) 0.7327(2)
H14 H -0.1570 0.6401 0.7315
loop_
_geom_bond_atom_site_label_1
_geom_bond_atom_site_label_2
_geom_bond_site_symmetry_1
_geom_bond_site_symmetry_2
Cl1 C3 1_555 1_555
F1 C1 1_555 1_555
N1 C2 1_555 1_555
N2 N3 1_555 1_555
C1 H1 1_555 1_555
H2 C1 1_555 1_555
C2 C4 1_555 1_555
N3 N1 1_555 1_555
C3 C6 1_555 1_555
C4 H3 1_555 1_555
C5 C2 1_555 1_555
H4 C5 1_555 1_555
C6 C4 1_555 1_555
H5 C6 1_555 1_555
C7 N1 1_555 1_555
H6 C7 1_555 1_555
C8 N2 1_555 1_555
C9 C3 1_555 1_555
H7 C9 1_555 1_555
Cl2 C14 1_555 1_555
F2 C13 1_555 1_555
N4 N5 1_555 1_555
N5 N6 1_555 1_555
N6 C17 1_555 1_555
C10 N4 1_555 1_555
C11 C10 1_555 1_555
H8 C11 1_555 1_555
C12 C10 1_555 1_555
H9 C12 1_555 1_555
C13 H10 1_555 1_555
H11 C13 1_555 1_555
C14 C15 1_555 1_555
C15 C12 1_555 1_555
H12 C15 1_555 1_555
C16 C11 1_555 1_555
H13 C16 1_555 1_555
C17 C13 1_555 1_555
C18 N4 1_555 1_555
H14 C18 1_555 1_555
C1 C8 1_555 1_555
C5 C9 1_555 1_555
C7 C8 1_555 1_555
C14 C16 1_555 1_555
C17 C18 1_555 1_555

#END
