
#######################################################################
#
#                 Cambridge Crystallographic Data Centre
#                                CCDC 
#
#######################################################################
#
# If this CIF has been generated from an entry in the Cambridge 
# Structural Database, then it will include bibliographic, chemical, 
# crystal, experimental, refinement or atomic coordinate data resulting 
# from the CCDC's data processing and validation procedures.
#
#######################################################################

data_HEHNOA01
_chemical_formula_moiety         'C14 H12 N4 O1'
_chemical_name_systematic        
2-{[(2-methyl-2H-benzotriazol-4-yl)imino]methyl}phenol
_symmetry_cell_setting           monoclinic
_symmetry_space_group_name_H-M   'P 21/c'
_symmetry_Int_Tables_number      14
_space_group_name_Hall           '-P 2ybc'
loop_
_symmetry_equiv_pos_site_id
_symmetry_equiv_pos_as_xyz
1 x,y,z
2 -x,1/2+y,1/2-z
3 -x,-y,-z
4 x,1/2-y,1/2+z
_cell_length_a                   32.382(6)
_cell_length_b                   5.3690(18)
_cell_length_c                   32.218(6)
_cell_angle_alpha                90
_cell_angle_beta                 117.40(2)
_cell_angle_gamma                90
_cell_volume                     4973
_exptl_crystal_colour            yellow
_exptl_crystal_description       block
_cell_formula_units_Z            16
loop_
_atom_site_label
_atom_site_type_symbol
_atom_site_fract_x
_atom_site_fract_y
_atom_site_fract_z
O1 O 0.07963(9) -0.3608(4) 0.50176(8)
H1 H 0.0512(12) -0.288(7) 0.4874(12)
N1 N 0.01351(9) -0.0624(5) 0.44858(8)
N2 N -0.11761(9) 0.4093(5) 0.34191(9)
N3 N -0.07674(10) 0.4842(5) 0.34556(8)
N4 N -0.03879(9) 0.3620(5) 0.37554(8)
C1 C 0.10923(12) -0.2003(6) 0.49666(11)
C2 C 0.15670(13) -0.2491(7) 0.52010(11)
H2 H 0.167411 -0.390085 0.538851
C3 C 0.18784(13) -0.0917(8) 0.51586(12)
H3 H 0.219460 -0.127422 0.531769
C4 C 0.17305(13) 0.1189(7) 0.48836(12)
H4 H 0.194322 0.224134 0.485332
C5 C 0.12614(12) 0.1703(6) 0.46547(11)
H5 H 0.116033 0.313010 0.447161
C6 C 0.09317(11) 0.0142(6) 0.46890(10)
C7 C 0.04422(11) 0.0770(6) 0.44510(10)
H6 H 0.034735 0.220591 0.426958
C8 C -0.03436(11) -0.0067(6) 0.42622(10)
C9 C -0.06322(12) -0.1577(6) 0.43579(10)
H7 H -0.050039 -0.288389 0.456727
C10 C -0.11183(12) -0.1241(7) 0.41544(11)
H8 H -0.129493 -0.231064 0.423625
C11 C -0.13340(12) 0.0614(7) 0.38411(11)
H9 H -0.165439 0.083799 0.370717
C12 C -0.10509(11) 0.2183(6) 0.37280(11)
C13 C -0.05655(11) 0.1881(6) 0.39346(10)
C14 C -0.07393(11) 0.6916(6) 0.31755(10)
H10 H -0.044247 0.771943 0.333944
H11 H -0.098208 0.809235 0.312209
H12 H -0.077503 0.629972 0.288113
O2 O 0.09608(8) -0.3539(4) 0.25090(8)
H13 H 0.1193(11) -0.234(6) 0.2605(11)
N5 N 0.15167(8) 0.0119(4) 0.29795(8)
N6 N 0.24953(9) 0.7127(5) 0.37275(9)
N7 N 0.22626(9) 0.6241(5) 0.39441(9)
N8 N 0.19879(9) 0.4258(5) 0.37568(9)
C15 C 0.08239(11) -0.3578(6) 0.28489(11)
C16 C 0.04940(11) -0.5324(6) 0.28156(13)
H14 H 0.037026 -0.641316 0.256291
C17 C 0.03499(12) -0.5449(7) 0.31539(14)
H15 H 0.013008 -0.663201 0.312967
C18 C 0.05268(12) -0.3844(7) 0.35294(13)
H16 H 0.042941 -0.394141 0.375907
C19 C 0.08505(12) -0.2090(7) 0.35596(11)
H17 H 0.096793 -0.099372 0.381136
C20 C 0.10062(10) -0.1916(6) 0.32233(10)
C21 C 0.13486(10) -0.0027(6) 0.32713(11)
H18 H 0.144775 0.109737 0.351816
C22 C 0.18455(10) 0.1967(6) 0.30181(10)
C23 C 0.19783(10) 0.2058(6) 0.26708(10)
H19 H 0.185531 0.088919 0.243139
C24 C 0.22943(11) 0.3852(7) 0.26603(11)
H20 H 0.237144 0.381156 0.241570
C25 C 0.24881(11) 0.5625(6) 0.29949(11)
H21 H 0.269418 0.680362 0.298559
C26 C 0.23602(10) 0.5581(6) 0.33553(11)
C27 C 0.20466(10) 0.3805(6) 0.33721(10)
C28 C 0.22843(12) 0.7436(7) 0.43594(10)
H22 H 0.260000 0.743781 0.460253
H23 H 0.209244 0.653709 0.446315
H24 H 0.217482 0.911952 0.428642
O3 O 0.28898(9) -0.8160(5) 0.52160(8)
H25 H 0.2838(12) -0.746(6) 0.5440(11)
N9 N 0.29457(8) -0.5218(5) 0.58789(8)
N10 N 0.30685(9) -0.0552(5) 0.71939(8)
N11 N 0.33567(8) 0.0168(5) 0.70277(9)
N12 N 0.33357(8) -0.1022(5) 0.66564(8)
C29 C 0.31845(11) -0.6560(6) 0.51567(11)
C30 C 0.32983(11) -0.7024(6) 0.47969(11)
H26 H 0.317344 -0.839623 0.460267
C31 C 0.35959(12) -0.5446(7) 0.47303(11)
H27 H 0.367224 -0.576161 0.449002
C32 C 0.37837(12) -0.3397(7) 0.50141(12)
H28 H 0.398577 -0.234206 0.496651
C33 C 0.36696(11) -0.2934(6) 0.53660(11)
H29 H 0.379707 -0.155519 0.555746
C34 C 0.33654(10) -0.4487(6) 0.54450(10)
C35 C 0.32391(10) -0.3876(6) 0.58091(10)
H30 H 0.337176 -0.248962 0.599671
C36 C 0.28096(10) -0.4645(6) 0.62267(10)
C37 C 0.24627(10) -0.6087(6) 0.62397(10)
H31 H 0.233414 -0.736537 0.602284
C38 C 0.22953(11) -0.5697(7) 0.65692(11)
H32 H 0.205573 -0.669755 0.655732
C39 C 0.24724(11) -0.3916(6) 0.69009(11)
H33 H 0.236280 -0.368251 0.711896
C40 C 0.28306(10) -0.2428(6) 0.69018(10)
C41 C 0.29940(10) -0.2726(6) 0.65680(10)
C42 C 0.36823(10) 0.2209(6) 0.72451(10)
H34 H 0.357819 0.320853 0.742596
H35 H 0.369838 0.321791 0.700693
H36 H 0.398488 0.154636 0.744573
O4 O 0.57375(9) -0.8378(4) 0.71483(8)
H37 H 0.5815(11) -0.733(6) 0.6996(11)
N13 N 0.56603(9) -0.4725(4) 0.65728(8)
N14 N 0.55669(9) 0.2255(5) 0.56110(8)
N15 N 0.51602(9) 0.1423(5) 0.55643(8)
N16 N 0.51641(8) -0.0546(5) 0.58196(8)
C43 C 0.52641(12) -0.8392(6) 0.69416(11)
C44 C 0.50428(13) -1.0147(6) 0.70879(12)
H38 H 0.521813 -1.126718 0.732383
C45 C 0.45646(14) -1.0228(6) 0.68839(13)
H39 H 0.441811 -1.140652 0.698256
C46 C 0.43017(12) -0.8575(7) 0.65348(12)
H40 H 0.397865 -0.864378 0.639451
C47 C 0.45206(11) -0.6833(7) 0.63969(11)
H41 H 0.434144 -0.570139 0.616497
C48 C 0.50026(11) -0.6694(6) 0.65917(10)
C49 C 0.52174(11) -0.4831(6) 0.64257(10)
H42 H 0.502822 -0.367411 0.620534
C50 C 0.58651(10) -0.2921(6) 0.64049(9)
C51 C 0.63399(11) -0.2929(6) 0.65836(10)
H43 H 0.650978 -0.412673 0.680537
C52 C 0.65838(11) -0.1191(6) 0.64455(11)
H44 H 0.690619 -0.129606 0.657924
C53 C 0.63627(11) 0.0617(6) 0.61251(11)
H45 H 0.652412 0.175375 0.603654
C54 C 0.58742(11) 0.0672(6) 0.59342(10)
C55 C 0.56248(10) -0.1053(5) 0.60633(9)
C56 C 0.47229(11) 0.2657(6) 0.52577(10)
H46 H 0.447174 0.185695 0.528571
H47 H 0.467106 0.254927 0.493993
H48 H 0.473844 0.437544 0.534597
loop_
_geom_bond_atom_site_label_1
_geom_bond_atom_site_label_2
_geom_bond_site_symmetry_1
_geom_bond_site_symmetry_2
O1 H1 1_555 1_555
N1 C7 1_555 1_555
N2 N3 1_555 1_555
N3 N4 1_555 1_555
N4 C13 1_555 1_555
C1 O1 1_555 1_555
C2 C1 1_555 1_555
H2 C2 1_555 1_555
C3 C2 1_555 1_555
H3 C3 1_555 1_555
C4 C3 1_555 1_555
H4 C4 1_555 1_555
C5 C4 1_555 1_555
H5 C5 1_555 1_555
C6 C1 1_555 1_555
C7 C6 1_555 1_555
H6 C7 1_555 1_555
C8 N1 1_555 1_555
C9 C8 1_555 1_555
H7 C9 1_555 1_555
C10 C9 1_555 1_555
H8 C10 1_555 1_555
C11 C10 1_555 1_555
H9 C11 1_555 1_555
C12 N2 1_555 1_555
C13 C8 1_555 1_555
C14 N3 1_555 1_555
H10 C14 1_555 1_555
H11 C14 1_555 1_555
H12 C14 1_555 1_555
O2 H13 1_555 1_555
N5 C21 1_555 1_555
N6 N7 1_555 1_555
N7 N8 1_555 1_555
N8 C27 1_555 1_555
C15 O2 1_555 1_555
C16 C15 1_555 1_555
H14 C16 1_555 1_555
C17 C16 1_555 1_555
H15 C17 1_555 1_555
C18 C17 1_555 1_555
H16 C18 1_555 1_555
C19 C18 1_555 1_555
H17 C19 1_555 1_555
C20 C15 1_555 1_555
C21 C20 1_555 1_555
H18 C21 1_555 1_555
C22 N5 1_555 1_555
C23 C22 1_555 1_555
H19 C23 1_555 1_555
C24 C23 1_555 1_555
H20 C24 1_555 1_555
C25 C24 1_555 1_555
H21 C25 1_555 1_555
C26 N6 1_555 1_555
C27 C22 1_555 1_555
C28 N7 1_555 1_555
H22 C28 1_555 1_555
H23 C28 1_555 1_555
H24 C28 1_555 1_555
O3 H25 1_555 1_555
N9 C35 1_555 1_555
N10 N11 1_555 1_555
N11 N12 1_555 1_555
N12 C41 1_555 1_555
C29 O3 1_555 1_555
C30 C29 1_555 1_555
H26 C30 1_555 1_555
C31 C30 1_555 1_555
H27 C31 1_555 1_555
C32 C31 1_555 1_555
H28 C32 1_555 1_555
C33 C32 1_555 1_555
H29 C33 1_555 1_555
C34 C29 1_555 1_555
C35 C34 1_555 1_555
H30 C35 1_555 1_555
C36 N9 1_555 1_555
C37 C36 1_555 1_555
H31 C37 1_555 1_555
C38 C37 1_555 1_555
H32 C38 1_555 1_555
C39 C38 1_555 1_555
H33 C39 1_555 1_555
C40 N10 1_555 1_555
C41 C36 1_555 1_555
C42 N11 1_555 1_555
H34 C42 1_555 1_555
H35 C42 1_555 1_555
H36 C42 1_555 1_555
O4 H37 1_555 1_555
N13 C49 1_555 1_555
N14 N15 1_555 1_555
N15 N16 1_555 1_555
N16 C55 1_555 1_555
C43 O4 1_555 1_555
C44 C43 1_555 1_555
H38 C44 1_555 1_555
C45 C44 1_555 1_555
H39 C45 1_555 1_555
C46 C45 1_555 1_555
H40 C46 1_555 1_555
C47 C46 1_555 1_555
H41 C47 1_555 1_555
C48 C43 1_555 1_555
C49 C48 1_555 1_555
H42 C49 1_555 1_555
C50 N13 1_555 1_555
C51 C50 1_555 1_555
H43 C51 1_555 1_555
C52 C51 1_555 1_555
H44 C52 1_555 1_555
C53 C52 1_555 1_555
H45 C53 1_555 1_555
C54 N14 1_555 1_555
C55 C50 1_555 1_555
C56 N15 1_555 1_555
H46 C56 1_555 1_555
H47 C56 1_555 1_555
H48 C56 1_555 1_555
C5 C6 1_555 1_555
C11 C12 1_555 1_555
C12 C13 1_555 1_555
C19 C20 1_555 1_555
C25 C26 1_555 1_555
C26 C27 1_555 1_555
C33 C34 1_555 1_555
C39 C40 1_555 1_555
C40 C41 1_555 1_555
C47 C48 1_555 1_555
C53 C54 1_555 1_555
C54 C55 1_555 1_555

#END
