
#######################################################################
#
#                 Cambridge Crystallographic Data Centre
#                                CCDC 
#
#######################################################################
#
# If this CIF has been generated from an entry in the Cambridge 
# Structural Database, then it will include bibliographic, chemical, 
# crystal, experimental, refinement or atomic coordinate data resulting 
# from the CCDC's data processing and validation procedures.
#
#######################################################################

data_HEHPAN01
_chemical_compound_source        'birch bark'
_chemical_formula_moiety         'C30 H48 O3,C2 H6 O1 S1'
_chemical_name_systematic        
'3\b-Hydroxylup-20(29)-en-28-oic acid dimethylsulfoxide solvate'
_symmetry_cell_setting           orthorhombic
_symmetry_space_group_name_H-M   'P 21 21 21'
_symmetry_Int_Tables_number      19
_space_group_name_Hall           'P 2ac 2ab'
loop_
_symmetry_equiv_pos_site_id
_symmetry_equiv_pos_as_xyz
1 x,y,z
2 1/2-x,-y,1/2+z
3 1/2+x,1/2-y,-z
4 -x,1/2+y,1/2-z
_cell_length_a                   6.967(2)
_cell_length_b                   14.139(3)
_cell_length_c                   31.856(6)
_cell_angle_alpha                90
_cell_angle_beta                 90
_cell_angle_gamma                90
_cell_volume                     3138.02
_exptl_crystal_colour            colorless
_exptl_crystal_description       Prism
_cell_formula_units_Z            4
loop_
_atom_site_label
_atom_site_type_symbol
_atom_site_fract_x
_atom_site_fract_y
_atom_site_fract_z
O1 O 0.9277(5) -0.09397(18) 0.95100(10)
H1 H 0.851(10) -0.133(5) 0.934(2)
O2 O 0.5995(5) 0.6371(3) 0.84167(13)
O3 O 0.8564(6) 0.7160(3) 0.86222(17)
H2 H 0.768(13) 0.717(7) 0.883(3)
C1 C 0.7287(5) 0.0928(2) 0.87778(10)
H3 H 0.6005 0.1013 0.8665
H4 H 0.8150 0.0832 0.8543
C2 C 0.7308(6) 0.0051(2) 0.90502(12)
H5 H 0.6982 -0.0496 0.8881
H6 H 0.6345 0.0112 0.9269
C3 C 0.9265(5) -0.0100(2) 0.92505(10)
H7 H 1.0196 -0.0196 0.9024
C4 C 0.9939(4) 0.0739(2) 0.95107(8)
C5 C 0.9845(4) 0.16357(19) 0.92264(7)
H8 H 1.0724 0.1497 0.8994
C6 C 1.0638(5) 0.2533(2) 0.94223(9)
H9 H 1.1835 0.2390 0.9564
H10 H 0.9739 0.2767 0.9630
C7 C 1.0988(5) 0.3298(2) 0.90951(9)
H11 H 1.1975 0.3081 0.8903
H12 H 1.1468 0.3859 0.9235
C8 C 0.9190(4) 0.35673(19) 0.88393(8)
C9 C 0.8231(4) 0.2634(2) 0.86756(8)
H13 H 0.9172 0.2364 0.8481
C10 C 0.7879(4) 0.18347(19) 0.90087(8)
C11 C 0.6467(5) 0.2848(2) 0.84028(10)
H14 H 0.5979 0.2261 0.8287
H15 H 0.5470 0.3119 0.8578
C12 C 0.6907(5) 0.3532(3) 0.80421(9)
H16 H 0.7745 0.3223 0.7841
H17 H 0.5722 0.3693 0.7899
C13 C 0.7855(4) 0.4425(2) 0.81985(9)
H18 H 0.6967 0.4706 0.8402
C14 C 0.9751(4) 0.4199(2) 0.84459(8)
C15 C 1.0760(5) 0.5126(2) 0.85860(11)
H19 H 1.0043 0.5394 0.8818
H20 H 1.2029 0.4968 0.8690
C16 C 1.0971(6) 0.5891(3) 0.82435(14)
H21 H 1.1492 0.6464 0.8366
H22 H 1.1851 0.5673 0.8028
C17 C 0.9010(6) 0.6096(3) 0.80488(13)
C18 C 0.8198(5) 0.5178(3) 0.78626(11)
H23 H 0.9197 0.4926 0.7677
C19 C 0.6524(7) 0.5488(3) 0.75736(13)
H24 H 0.5351 0.5525 0.7743
C20 C 0.7102(10) 0.6511(4) 0.7440(2)
H25 H 0.7257 0.6545 0.7138
H26 H 0.6115 0.6958 0.7523
C21 C 0.8999(9) 0.6747(4) 0.76590(17)
H27 H 0.9041 0.7408 0.7741
H28 H 1.0083 0.6613 0.7478
C22 C 1.2058(5) 0.0549(2) 0.96220(12)
H29 H 1.2155 -0.0036 0.9774
H30 H 1.2538 0.1056 0.9793
H31 H 1.2801 0.0507 0.9369
C23 C 0.8857(6) 0.0830(3) 0.99273(9)
H32 H 0.9284 0.0347 1.0117
H33 H 0.7505 0.0760 0.9878
H34 H 0.9103 0.1441 1.0047
C24 C 0.6278(5) 0.2093(3) 0.93185(11)
H35 H 0.5748 0.1525 0.9437
H36 H 0.5288 0.2435 0.9174
H37 H 0.6794 0.2479 0.9539
C25 C 0.7843(6) 0.4127(2) 0.91317(9)
H38 H 0.7898 0.3863 0.9409
H39 H 0.6552 0.4089 0.9028
H40 H 0.8240 0.4777 0.9140
C26 C 1.1189(5) 0.3687(3) 0.81533(10)
H41 H 1.1296 0.4028 0.7894
H42 H 1.0740 0.3057 0.8098
H43 H 1.2423 0.3658 0.8287
C27 C 0.7684(7) 0.6534(3) 0.83731(16)
C28 C 0.616(3) 0.4830(17) 0.7210(6)
C29 C 0.437(3) 0.4555(19) 0.7115(7)
H44 H 0.4167 0.4132 0.6896
H45 H 0.3338 0.4786 0.7268
C30 C 0.768(5) 0.441(4) 0.6945(9)
H46 H 0.7170 0.3885 0.6793
H47 H 0.8723 0.4205 0.7119
H48 H 0.8141 0.4881 0.6751
S1 S 0.4466(4) 0.77204(17) 0.94146(9)
O4 O 0.6584(7) 0.7697(3) 0.92884(15)
C34 C 0.367(3) 0.6537(8) 0.9422(5)
H54 H 0.4268 0.6207 0.9650
H55 H 0.4000 0.6236 0.9162
H56 H 0.2299 0.6524 0.9458
C35 C 0.307(2) 0.7993(10) 0.9009(4)
H57 H 0.3228 0.8650 0.8941
H58 H 0.1757 0.7871 0.9080
H59 H 0.3429 0.7614 0.8771
C31? C 0.614(3) 0.4868(14) 0.7196(4)
C32? C 0.435(3) 0.456(2) 0.7124(4)
H49? H 0.4024 0.4313 0.6863
H50? H 0.3425 0.4602 0.7334
C33? C 0.781(4) 0.487(4) 0.6906(9)
H51? H 0.7405 0.4655 0.6634
H52? H 0.8785 0.4454 0.7012
H53? H 0.8315 0.5498 0.6884
loop_
_geom_bond_atom_site_label_1
_geom_bond_atom_site_label_2
_geom_bond_site_symmetry_1
_geom_bond_site_symmetry_2
O1 H1 1_555 1_555
O2 C27 1_555 1_555
O3 H2 1_555 1_555
C1 H3 1_555 1_555
H4 C1 1_555 1_555
C2 C1 1_555 1_555
H5 C2 1_555 1_555
H6 C2 1_555 1_555
C3 O1 1_555 1_555
H7 C3 1_555 1_555
C4 C3 1_555 1_555
C5 C4 1_555 1_555
H8 C5 1_555 1_555
C6 C5 1_555 1_555
H9 C6 1_555 1_555
H10 C6 1_555 1_555
C7 C6 1_555 1_555
H11 C7 1_555 1_555
H12 C7 1_555 1_555
C8 C7 1_555 1_555
C9 C8 1_555 1_555
H13 C9 1_555 1_555
C10 C1 1_555 1_555
C11 C9 1_555 1_555
H14 C11 1_555 1_555
H15 C11 1_555 1_555
C12 C11 1_555 1_555
H16 C12 1_555 1_555
H17 C12 1_555 1_555
C13 C12 1_555 1_555
H18 C13 1_555 1_555
C14 C8 1_555 1_555
C15 C14 1_555 1_555
H19 C15 1_555 1_555
H20 C15 1_555 1_555
C16 C15 1_555 1_555
H21 C16 1_555 1_555
H22 C16 1_555 1_555
C17 C16 1_555 1_555
C18 C13 1_555 1_555
H23 C18 1_555 1_555
C19 C18 1_555 1_555
H24 C19 1_555 1_555
C20 C19 1_555 1_555
H25 C20 1_555 1_555
H26 C20 1_555 1_555
C21 C17 1_555 1_555
H27 C21 1_555 1_555
H28 C21 1_555 1_555
C22 C4 1_555 1_555
H29 C22 1_555 1_555
H30 C22 1_555 1_555
H31 C22 1_555 1_555
C23 C4 1_555 1_555
H32 C23 1_555 1_555
H33 C23 1_555 1_555
H34 C23 1_555 1_555
C24 C10 1_555 1_555
H35 C24 1_555 1_555
H36 C24 1_555 1_555
H37 C24 1_555 1_555
C25 C8 1_555 1_555
H38 C25 1_555 1_555
H39 C25 1_555 1_555
H40 C25 1_555 1_555
C26 C14 1_555 1_555
H41 C26 1_555 1_555
H42 C26 1_555 1_555
H43 C26 1_555 1_555
C27 O3 1_555 1_555
C28 C19 1_555 1_555
C29 C28 1_555 1_555
H44 C29 1_555 1_555
H45 C29 1_555 1_555
C30 C28 1_555 1_555
H46 C30 1_555 1_555
H47 C30 1_555 1_555
H48 C30 1_555 1_555
S1 O4 1_555 1_555
C34 S1 1_555 1_555
H54 C34 1_555 1_555
H55 C34 1_555 1_555
H56 C34 1_555 1_555
C35 S1 1_555 1_555
H57 C35 1_555 1_555
H58 C35 1_555 1_555
H59 C35 1_555 1_555
C2 C3 1_555 1_555
C5 C10 1_555 1_555
C9 C10 1_555 1_555
C13 C14 1_555 1_555
C17 C18 1_555 1_555
C17 C27 1_555 1_555
C20 C21 1_555 1_555

#END
