
#######################################################################
#
#                 Cambridge Crystallographic Data Centre
#                                CCDC 
#
#######################################################################
#
# If this CIF has been generated from an entry in the Cambridge 
# Structural Database, then it will include bibliographic, chemical, 
# crystal, experimental, refinement or atomic coordinate data resulting 
# from the CCDC's data processing and validation procedures.
#
#######################################################################

data_HEHZEC
_chemical_name_common            KGH-185
_chemical_formula_moiety         'C16 H14 N2 O1 S1'
_chemical_name_systematic        
5,7-dimethyl-7H-5-indolo[2,3-c][1,2]benzothiazin-5-one
_symmetry_cell_setting           orthorhombic
_symmetry_space_group_name_H-M   'P b c a'
_symmetry_Int_Tables_number      61
_space_group_name_Hall           '-P 2ac 2ab'
loop_
_symmetry_equiv_pos_site_id
_symmetry_equiv_pos_as_xyz
1 x,y,z
2 1/2-x,-y,1/2+z
3 -x,1/2+y,1/2-z
4 1/2+x,1/2-y,-z
5 -x,-y,-z
6 1/2+x,y,1/2-z
7 x,1/2-y,1/2+z
8 1/2-x,1/2+y,z
_cell_length_a                   9.2121(3)
_cell_length_b                   16.2879(5)
_cell_length_c                   17.9437(6)
_cell_angle_alpha                90
_cell_angle_beta                 90
_cell_angle_gamma                90
_cell_volume                     2692.38
_exptl_crystal_colour            colorless
_exptl_crystal_description       block
_cell_formula_units_Z            8
loop_
_atom_site_label
_atom_site_type_symbol
_atom_site_fract_x
_atom_site_fract_y
_atom_site_fract_z
C1 C 0.8283(4) -0.0421(2) 0.5332(2)
C2 C 0.9225(5) -0.0687(3) 0.5878(2)
H1 H 0.9572 -0.0335 0.6245
C3 C 0.9630(5) -0.1509(3) 0.5854(3)
H2 H 1.0263 -0.1711 0.6214
C4 C 0.9116(5) -0.2036(3) 0.5308(3)
H3 H 0.941 -0.2582 0.5305
C5 C 0.8161(4) -0.1751(3) 0.4763(2)
H4 H 0.7811 -0.2108 0.4401
C6 C 0.7732(4) -0.0932(2) 0.4761(2)
C7 C 0.6817(4) -0.0403(2) 0.4300(2)
C8 C 0.6892(4) 0.0378(2) 0.4615(2)
C9 C 0.8069(5) 0.1062(3) 0.5705(2)
H5 H 0.7785 0.1559 0.5458
H6 H 0.9093 0.1076 0.5804
H7 H 0.755 0.1013 0.6167
C10 C 0.5895(4) -0.0566(2) 0.3673(2)
C11 C 0.5582(4) -0.1365(3) 0.3405(2)
H8 H 0.6001 -0.1818 0.3636
C12 C 0.4669(5) -0.1481(3) 0.2809(3)
H9 H 0.4467 -0.2012 0.2648
C13 C 0.4037(5) -0.0815(4) 0.2443(3)
H10 H 0.3441 -0.0901 0.2032
C14 C 0.4301(5) -0.0031(3) 0.2692(3)
H11 H 0.3872 0.0416 0.2456
C15 C 0.5220(5) 0.0091(3) 0.3303(2)
C16 C 0.4160(5) 0.1714(3) 0.3546(3)
H12 H 0.4415 0.2268 0.3672
H13 H 0.347 0.1508 0.3901
H14 H 0.3739 0.1702 0.3056
N1 N 0.7739(4) 0.0367(2) 0.52358(19)
N2 N 0.6190(4) 0.1078(2) 0.4384(2)
O1 O 0.6717(4) 0.1426(2) 0.30250(19)
S1 S 0.57286(11) 0.10949(6) 0.35602(6)
loop_
_geom_bond_atom_site_label_1
_geom_bond_atom_site_label_2
_geom_bond_site_symmetry_1
_geom_bond_site_symmetry_2
C1 C2 1_555 1_555
C2 H1 1_555 1_555
C3 C2 1_555 1_555
H2 C3 1_555 1_555
C4 C3 1_555 1_555
H3 C4 1_555 1_555
C5 C4 1_555 1_555
H4 C5 1_555 1_555
C6 C1 1_555 1_555
C7 C6 1_555 1_555
C8 C7 1_555 1_555
C9 H5 1_555 1_555
H6 C9 1_555 1_555
H7 C9 1_555 1_555
C10 C7 1_555 1_555
C11 C10 1_555 1_555
H8 C11 1_555 1_555
C12 C11 1_555 1_555
H9 C12 1_555 1_555
C13 C12 1_555 1_555
H10 C13 1_555 1_555
C14 C13 1_555 1_555
H11 C14 1_555 1_555
C15 C10 1_555 1_555
C16 H12 1_555 1_555
H13 C16 1_555 1_555
H14 C16 1_555 1_555
N1 C1 1_555 1_555
N2 C8 1_555 1_555
O1 S1 1_555 1_555
S1 C15 1_555 1_555
C5 C6 1_555 1_555
C8 N1 1_555 1_555
C9 N1 1_555 1_555
C14 C15 1_555 1_555
C16 S1 1_555 1_555
N2 S1 1_555 1_555

#END
