
#######################################################################
#
#                 Cambridge Crystallographic Data Centre
#                                CCDC 
#
#######################################################################
#
# If this CIF has been generated from an entry in the Cambridge 
# Structural Database, then it will include bibliographic, chemical, 
# crystal, experimental, refinement or atomic coordinate data resulting 
# from the CCDC's data processing and validation procedures.
#
#######################################################################

data_HEHZUS
_chemical_formula_moiety         'C14 H16 N2 O1'
_chemical_name_systematic        
N-[2-(cyanomethyl)-1,2,3,4-tetrahydronaphthalen-1-yl]acetamide
_symmetry_cell_setting           orthorhombic
_symmetry_space_group_name_H-M   'P c c n'
_symmetry_Int_Tables_number      56
_space_group_name_Hall           '-P 2ab 2ac'
loop_
_symmetry_equiv_pos_site_id
_symmetry_equiv_pos_as_xyz
1 x,y,z
2 1/2-x,1/2-y,z
3 -x,1/2+y,1/2-z
4 1/2+x,-y,1/2-z
5 -x,-y,-z
6 1/2+x,1/2+y,-z
7 x,1/2-y,1/2+z
8 1/2-x,y,1/2+z
_cell_length_a                   14.952(3)
_cell_length_b                   18.354(4)
_cell_length_c                   9.4968(19)
_cell_angle_alpha                90
_cell_angle_beta                 90
_cell_angle_gamma                90
_cell_volume                     2606.2
_cell_formula_units_Z            8
loop_
_atom_site_label
_atom_site_type_symbol
_atom_site_fract_x
_atom_site_fract_y
_atom_site_fract_z
C1 C 0.4617(2) 0.45475(15) 0.2076(3)
O1 O 0.4157(2) 0.26868(14) -0.2080(2)
N1 N 0.43194(16) 0.29513(12) 0.0209(2)
H1 H 0.4267 0.2798 0.1061
C2 C 0.4113(3) 0.50324(18) 0.2888(4)
H2 H 0.4382 0.5260 0.3654
N2 N 0.6299(3) 0.1834(2) 0.0369(4)
C3 C 0.3236(3) 0.5183(2) 0.2593(4)
H3 H 0.2915 0.5501 0.3162
C4 C 0.3316(2) 0.43843(17) 0.0617(4)
H4 H 0.3045 0.4168 -0.0158
C5 C 0.2832(2) 0.4859(2) 0.1440(4)
H5 H 0.2239 0.4961 0.1225
C6 C 0.42011(18) 0.42215(14) 0.0921(3)
C7 C 0.6221(2) 0.31445(19) -0.0687(4)
H6 H 0.5953 0.3118 -0.1615
H7 H 0.6832 0.3313 -0.0805
C8 C 0.5579(2) 0.43849(19) 0.2442(4)
H8 H 0.5631 0.4334 0.3455
H9 H 0.5948 0.4794 0.2158
C9 C 0.5931(2) 0.36971(18) 0.1743(3)
H10 H 0.6573 0.3666 0.1869
H11 H 0.5661 0.3272 0.2176
C10 C 0.57078(19) 0.37138(16) 0.0183(3)
H12 H 0.5899 0.4192 -0.0165
C11 C 0.46924(17) 0.36790(14) -0.0025(3)
H13 H 0.4567 0.3814 -0.1004
C12 C 0.4058(2) 0.25167(18) -0.0835(3)
C13 C 0.6245(2) 0.2405(2) -0.0088(4)
C14 C 0.3645(3) 0.1811(2) -0.0406(5)
H14 H 0.3265 0.1637 -0.1148
H15 H 0.3296 0.1882 0.0432
H16 H 0.4107 0.1460 -0.0225
loop_
_geom_bond_atom_site_label_1
_geom_bond_atom_site_label_2
_geom_bond_site_symmetry_1
_geom_bond_site_symmetry_2
C1 C2 1_555 1_555
O1 C12 1_555 1_555
N1 H1 1_555 1_555
C2 H2 1_555 1_555
N2 C13 1_555 1_555
C3 C2 1_555 1_555
H3 C3 1_555 1_555
C4 H4 1_555 1_555
C5 C3 1_555 1_555
H5 C5 1_555 1_555
C6 C1 1_555 1_555
C7 H6 1_555 1_555
H7 C7 1_555 1_555
C8 C1 1_555 1_555
H8 C8 1_555 1_555
H9 C8 1_555 1_555
C9 C8 1_555 1_555
H10 C9 1_555 1_555
H11 C9 1_555 1_555
C10 C7 1_555 1_555
H12 C10 1_555 1_555
C11 N1 1_555 1_555
H13 C11 1_555 1_555
C12 N1 1_555 1_555
C13 C7 1_555 1_555
C14 C12 1_555 1_555
H14 C14 1_555 1_555
H15 C14 1_555 1_555
H16 C14 1_555 1_555
C4 C5 1_555 1_555
C4 C6 1_555 1_555
C6 C11 1_555 1_555
C9 C10 1_555 1_555
C10 C11 1_555 1_555

#END
