
#######################################################################
#
#                 Cambridge Crystallographic Data Centre
#                                CCDC 
#
#######################################################################
#
# If this CIF has been generated from an entry in the Cambridge 
# Structural Database, then it will include bibliographic, chemical, 
# crystal, experimental, refinement or atomic coordinate data resulting 
# from the CCDC's data processing and validation procedures.
#
#######################################################################

data_HEJBIJ
_chemical_formula_moiety         'C21 H32 N1 O2 1+,2(C1 H4 O1),Cl1 1-'
_chemical_name_systematic        
'7,9-Dihydroxy-4,4,6a,11b-tetramethyl-2,3,4,4a,5,6,6a,11,11a,11b-decahydro-1H-benzo[a]fluoren-3-aminium chloride methanol solvate'
_symmetry_cell_setting           monoclinic
_symmetry_space_group_name_H-M   'C 2/c'
_symmetry_Int_Tables_number      15
_space_group_name_Hall           '-C 2yn'
loop_
_symmetry_equiv_pos_site_id
_symmetry_equiv_pos_as_xyz
1 x,y,z
2 -x,y,1/2-z
3 1/2+x,1/2+y,z
4 1/2-x,1/2+y,1/2-z
5 -x,-y,-z
6 x,-y,1/2+z
7 1/2-x,1/2-y,-z
8 1/2+x,1/2-y,1/2+z
_cell_length_a                   29.741(3)
_cell_length_b                   7.3000(7)
_cell_length_c                   21.452(2)
_cell_angle_alpha                90
_cell_angle_beta                 102.638(2)
_cell_angle_gamma                90
_cell_volume                     4544.59
_exptl_crystal_colour            colorless
_exptl_crystal_description       prism
_cell_formula_units_Z            8
loop_
_atom_site_label
_atom_site_type_symbol
_atom_site_fract_x
_atom_site_fract_y
_atom_site_fract_z
C1 C 0.30162(7) -0.0643(3) 0.45588(9)
H1 H 0.2980 0.0034 0.4945
H2 H 0.2863 -0.1846 0.4560
C2 C 0.35280(7) -0.0947(3) 0.45899(10)
H3 H 0.3565 -0.1746 0.4232
H4 H 0.3668 -0.1579 0.4994
C3 C 0.37781(7) 0.0861(3) 0.45530(10)
H5 H 0.3758 0.1593 0.4940
C4 C 0.35773(7) 0.2055(3) 0.39587(10)
C5 C 0.30525(7) 0.2262(3) 0.39548(9)
H6 H 0.3046 0.2854 0.4373
C6 C 0.27991(7) 0.3624(3) 0.34488(9)
H7 H 0.2775 0.3090 0.3019
H8 H 0.2982 0.4764 0.3473
C7 C 0.23115(7) 0.4100(3) 0.35372(10)
H9 H 0.2334 0.4742 0.3949
H10 H 0.2158 0.4930 0.3190
C8 C 0.20246(7) 0.2355(3) 0.35266(9)
C9 C 0.22974(6) 0.1032(3) 0.40405(9)
H11 H 0.2361 0.1774 0.4442
C10 C 0.27776(6) 0.0438(3) 0.39596(9)
C11 C 0.19359(7) -0.0391(3) 0.41437(10)
H12 H 0.1897 -0.1380 0.3820
H13 H 0.2018 -0.0936 0.4576
C12 C 0.36818(7) 0.1250(3) 0.33429(10)
H14 H 0.3485 0.1841 0.2971
H15 H 0.3621 -0.0070 0.3328
H16 H 0.4006 0.1467 0.3337
C13 C 0.38078(7) 0.3959(3) 0.40598(11)
H17 H 0.4143 0.3813 0.4174
H18 H 0.3705 0.4600 0.4405
H19 H 0.3721 0.4674 0.3665
C14 C 0.27521(7) -0.0795(3) 0.33686(9)
H20 H 0.2477 -0.1573 0.3310
H21 H 0.3028 -0.1567 0.3431
H22 H 0.2735 -0.0028 0.2989
C15 C 0.15748(7) 0.2435(3) 0.37524(9)
C16 C 0.15078(7) 0.0795(3) 0.40608(9)
C17 C 0.10973(7) 0.0399(3) 0.42400(9)
H23 H 0.1056 -0.0722 0.4445
C18 C 0.07475(7) 0.1715(3) 0.41071(10)
C19 C 0.08038(7) 0.3364(3) 0.38015(10)
H24 H 0.0562 0.4241 0.3721
C20 C 0.12176(7) 0.3715(3) 0.36153(9)
C21 C 0.18877(7) 0.1593(3) 0.28338(9)
H25 H 0.1779 0.0329 0.2844
H26 H 0.2156 0.1620 0.2639
H27 H 0.1642 0.2351 0.2582
N1 N 0.42774(6) 0.0420(3) 0.45975(10)
O1 O 0.03390(5) 0.1476(2) 0.43007(8)
O2 O 0.12875(6) 0.5275(2) 0.33003(8)
H36 H 0.1043(12) 0.595(5) 0.3239(15)
H37 H 0.0308(13) 0.035(6) 0.4349(18)
H38 H 0.4334(11) -0.024(5) 0.4294(15)
H39 H 0.4461(10) 0.148(4) 0.4632(13)
H40 H 0.4387(12) -0.019(5) 0.4982(17)
C22 C 0.45593(10) -0.1578(5) 0.30794(13)
H28 H 0.4702 -0.0365 0.3093
H29 H 0.4262 -0.1568 0.2772
H30 H 0.4762 -0.2492 0.2949
O3 O 0.44880(6) -0.2032(3) 0.36994(9)
H35 H 0.4725(13) -0.246(5) 0.3882(17)
C23 C 0.05928(10) 0.8976(4) 0.27023(13)
H31 H 0.0404 0.9954 0.2827
H32 H 0.0502 0.8786 0.2239
H33 H 0.0919 0.9325 0.2819
O4 O 0.05242(7) 0.7322(3) 0.30238(9)
H34 H 0.0402(12) 0.745(5) 0.3321(17)
Cl1 Cl 0.017211(17) 0.73563(7) 0.43215(3)
loop_
_geom_bond_atom_site_label_1
_geom_bond_atom_site_label_2
_geom_bond_site_symmetry_1
_geom_bond_site_symmetry_2
C1 H1 1_555 1_555
H2 C1 1_555 1_555
C2 C1 1_555 1_555
H3 C2 1_555 1_555
H4 C2 1_555 1_555
C3 C2 1_555 1_555
H5 C3 1_555 1_555
C4 C3 1_555 1_555
C5 C4 1_555 1_555
H6 C5 1_555 1_555
C6 C5 1_555 1_555
H7 C6 1_555 1_555
H8 C6 1_555 1_555
C7 C6 1_555 1_555
H9 C7 1_555 1_555
H10 C7 1_555 1_555
C8 C7 1_555 1_555
C9 C8 1_555 1_555
H11 C9 1_555 1_555
C10 C1 1_555 1_555
C11 C9 1_555 1_555
H12 C11 1_555 1_555
H13 C11 1_555 1_555
C12 C4 1_555 1_555
H14 C12 1_555 1_555
H15 C12 1_555 1_555
H16 C12 1_555 1_555
C13 C4 1_555 1_555
H17 C13 1_555 1_555
H18 C13 1_555 1_555
H19 C13 1_555 1_555
C14 C10 1_555 1_555
H20 C14 1_555 1_555
H21 C14 1_555 1_555
H22 C14 1_555 1_555
C15 C8 1_555 1_555
C16 C11 1_555 1_555
C17 C16 1_555 1_555
H23 C17 1_555 1_555
C18 C17 1_555 1_555
C19 C18 1_555 1_555
H24 C19 1_555 1_555
C20 C15 1_555 1_555
C21 C8 1_555 1_555
H25 C21 1_555 1_555
H26 C21 1_555 1_555
H27 C21 1_555 1_555
C22 H28 1_555 1_555
H29 C22 1_555 1_555
H30 C22 1_555 1_555
C23 H31 1_555 1_555
H32 C23 1_555 1_555
H33 C23 1_555 1_555
N1 C3 1_555 1_555
O1 C18 1_555 1_555
O2 C20 1_555 1_555
O3 C22 1_555 1_555
O4 C23 1_555 1_555
H34 O4 1_555 1_555
H35 O3 1_555 1_555
H36 O2 1_555 1_555
H37 O1 1_555 1_555
H38 N1 1_555 1_555
H39 N1 1_555 1_555
H40 N1 1_555 1_555
C5 C10 1_555 1_555
C9 C10 1_555 1_555
C15 C16 1_555 1_555
C19 C20 1_555 1_555

#END
