
#######################################################################
#
#                 Cambridge Crystallographic Data Centre
#                                CCDC 
#
#######################################################################
#
# If this CIF has been generated from an entry in the Cambridge 
# Structural Database, then it will include bibliographic, chemical, 
# crystal, experimental, refinement or atomic coordinate data resulting 
# from the CCDC's data processing and validation procedures.
#
#######################################################################

data_HEJBOP
_chemical_formula_moiety         'C33 H41 F3 O5'
_chemical_name_systematic        
'7,9-Dimethoxy-4,4,6a,11b-tetramethyl-2,3,4,4a,5,6,6a,11,11a,11b-decahydro-1H-benzo[a]fluoren-3-yl 3,3,3-trifluoro-2-methoxy-2-phenylpropanoate'
_symmetry_cell_setting           monoclinic
_symmetry_space_group_name_H-M   'C 2'
_symmetry_Int_Tables_number      5
_space_group_name_Hall           'C 2y'
loop_
_symmetry_equiv_pos_site_id
_symmetry_equiv_pos_as_xyz
1 x,y,z
2 -x,y,-z
3 1/2+x,1/2+y,z
4 1/2-x,1/2+y,-z
_cell_length_a                   13.3572(6)
_cell_length_b                   6.8023(3)
_cell_length_c                   31.3214(14)
_cell_angle_alpha                90
_cell_angle_beta                 95.788(2)
_cell_angle_gamma                90
_cell_volume                     2831.34
_exptl_crystal_colour            colorless
_exptl_crystal_description       plate
_cell_formula_units_Z            4
loop_
_atom_site_label
_atom_site_type_symbol
_atom_site_fract_x
_atom_site_fract_y
_atom_site_fract_z
C1 C 0.54705(12) 0.0091(3) 0.21752(5)
H1 H 0.4913 -0.0758 0.2051
H2 H 0.5428 0.1355 0.2018
C2 C 0.53468(12) 0.0476(3) 0.26514(5)
H3 H 0.4698 0.1149 0.2676
H4 H 0.5339 -0.0791 0.2807
C3 C 0.62026(12) 0.1739(3) 0.28523(5)
H5 H 0.6161 0.3064 0.2713
C4 C 0.72655(12) 0.0892(3) 0.28248(5)
C5 C 0.73349(12) 0.0431(3) 0.23398(5)
H6 H 0.7240 0.1732 0.2193
C6 C 0.83885(12) -0.0253(3) 0.22441(5)
H7 H 0.8514 -0.1586 0.2364
H8 H 0.8899 0.0642 0.2389
C7 C 0.85123(12) -0.0296(3) 0.17590(5)
H9 H 0.8458 0.1057 0.1642
H10 H 0.9187 -0.0812 0.1714
C8 C 0.77009(11) -0.1597(3) 0.15214(5)
C9 C 0.66655(12) -0.0824(3) 0.16358(5)
H11 H 0.6686 0.0614 0.1571
C10 C 0.64788(12) -0.0903(3) 0.21156(5)
C11 C 0.58924(11) -0.1650(3) 0.12808(5)
H12 H 0.5696 -0.3016 0.1343
H13 H 0.5283 -0.0817 0.1238
C12 C 0.74719(13) -0.0873(3) 0.31233(5)
H14 H 0.7572 -0.0418 0.3421
H15 H 0.8079 -0.1556 0.3051
H16 H 0.6898 -0.1776 0.3089
C13 C 0.80327(14) 0.2521(3) 0.29670(5)
H17 H 0.7869 0.3087 0.3239
H18 H 0.8004 0.3552 0.2748
H19 H 0.8711 0.1959 0.3004
C14 C 0.64416(13) -0.3019(3) 0.22826(5)
H20 H 0.6028 -0.3066 0.2524
H21 H 0.7125 -0.3464 0.2379
H22 H 0.6148 -0.3879 0.2052
C15 C 0.75272(11) -0.1450(3) 0.10348(5)
C16 C 0.65059(11) -0.1557(3) 0.08960(5)
C17 C 0.61601(12) -0.1590(3) 0.04644(5)
H23 H 0.5460 -0.1642 0.0374
C18 C 0.68653(12) -0.1545(3) 0.01644(5)
C19 C 0.78948(12) -0.1479(3) 0.02958(5)
H24 H 0.8368 -0.1446 0.0089
C20 C 0.82233(11) -0.1462(3) 0.07323(5)
C21 C 0.79402(13) -0.3786(3) 0.16153(5)
H25 H 0.7352 -0.4589 0.1518
H26 H 0.8107 -0.3970 0.1925
H27 H 0.8513 -0.4188 0.1463
O1 O 0.64721(8) -0.1565(2) -0.02570(3)
C22 C 0.71566(12) -0.1554(3) -0.05787(5)
H28 H 0.7540 -0.0323 -0.0561
H29 H 0.6780 -0.1663 -0.0863
H30 H 0.7620 -0.2668 -0.0533
O2 O 0.92152(8) -0.1459(2) 0.08937(3)
C23 C 0.99537(12) -0.1577(4) 0.05960(6)
H31 H 0.9835 -0.2758 0.0419
H32 H 1.0626 -0.1646 0.0753
H33 H 0.9908 -0.0410 0.0412
O3 O 0.60622(9) 0.19650(19) 0.33110(3)
C24 C 0.57176(12) 0.3663(3) 0.34362(5)
O4 O 0.55170(14) 0.5048(3) 0.32088(4)
C25 C 0.55121(11) 0.3639(3) 0.39185(5)
C26 C 0.61908(12) 0.2283(3) 0.42097(5)
C27 C 0.72103(12) 0.2061(3) 0.41641(5)
H34 H 0.7497 0.2719 0.3938
C28 C 0.78108(12) 0.0882(3) 0.44472(5)
H35 H 0.8506 0.0738 0.4413
C29 C 0.74034(13) -0.0085(3) 0.47787(5)
H36 H 0.7814 -0.0905 0.4969
C30 C 0.63951(13) 0.0152(3) 0.48295(5)
H37 H 0.6111 -0.0510 0.5056
C31 C 0.57956(12) 0.1353(3) 0.45515(5)
H38 H 0.5109 0.1543 0.4595
C32 C 0.56318(12) 0.5737(3) 0.40928(5)
F1 F 0.55138(8) 0.58016(16) 0.45113(3)
F2 F 0.49631(8) 0.69953(17) 0.39006(3)
F3 F 0.65547(7) 0.64402(18) 0.40456(4)
O5 O 0.44723(8) 0.3263(2) 0.39351(3)
C33 C 0.41128(12) 0.1391(3) 0.37800(6)
H39 H 0.4175 0.1299 0.3471
H40 H 0.3405 0.1241 0.3831
H41 H 0.4512 0.0348 0.3931
loop_
_geom_bond_atom_site_label_1
_geom_bond_atom_site_label_2
_geom_bond_site_symmetry_1
_geom_bond_site_symmetry_2
C1 H1 1_555 1_555
H2 C1 1_555 1_555
C2 C1 1_555 1_555
H3 C2 1_555 1_555
H4 C2 1_555 1_555
C3 C2 1_555 1_555
H5 C3 1_555 1_555
C4 C3 1_555 1_555
C5 C4 1_555 1_555
H6 C5 1_555 1_555
C6 C5 1_555 1_555
H7 C6 1_555 1_555
H8 C6 1_555 1_555
C7 C6 1_555 1_555
H9 C7 1_555 1_555
H10 C7 1_555 1_555
C8 C7 1_555 1_555
C9 C8 1_555 1_555
H11 C9 1_555 1_555
C10 C1 1_555 1_555
C11 C9 1_555 1_555
H12 C11 1_555 1_555
H13 C11 1_555 1_555
C12 C4 1_555 1_555
H14 C12 1_555 1_555
H15 C12 1_555 1_555
H16 C12 1_555 1_555
C13 C4 1_555 1_555
H17 C13 1_555 1_555
H18 C13 1_555 1_555
H19 C13 1_555 1_555
C14 C10 1_555 1_555
H20 C14 1_555 1_555
H21 C14 1_555 1_555
H22 C14 1_555 1_555
C15 C8 1_555 1_555
C16 C11 1_555 1_555
C17 C16 1_555 1_555
H23 C17 1_555 1_555
C18 C17 1_555 1_555
C19 C18 1_555 1_555
H24 C19 1_555 1_555
C20 C15 1_555 1_555
C21 C8 1_555 1_555
H25 C21 1_555 1_555
H26 C21 1_555 1_555
H27 C21 1_555 1_555
O1 C18 1_555 1_555
C22 O1 1_555 1_555
H28 C22 1_555 1_555
H29 C22 1_555 1_555
H30 C22 1_555 1_555
O2 C20 1_555 1_555
C23 O2 1_555 1_555
H31 C23 1_555 1_555
H32 C23 1_555 1_555
H33 C23 1_555 1_555
O3 C3 1_555 1_555
C24 O3 1_555 1_555
O4 C24 1_555 1_555
C25 C24 1_555 1_555
C26 C25 1_555 1_555
C27 C26 1_555 1_555
H34 C27 1_555 1_555
C28 C27 1_555 1_555
H35 C28 1_555 1_555
C29 C28 1_555 1_555
H36 C29 1_555 1_555
C30 C29 1_555 1_555
H37 C30 1_555 1_555
C31 C26 1_555 1_555
H38 C31 1_555 1_555
C32 C25 1_555 1_555
F1 C32 1_555 1_555
F2 C32 1_555 1_555
F3 C32 1_555 1_555
O5 C25 1_555 1_555
C33 O5 1_555 1_555
H39 C33 1_555 1_555
H40 C33 1_555 1_555
H41 C33 1_555 1_555
C5 C10 1_555 1_555
C9 C10 1_555 1_555
C15 C16 1_555 1_555
C19 C20 1_555 1_555
C30 C31 1_555 1_555

#END
