
#######################################################################
#
#                 Cambridge Crystallographic Data Centre
#                                CCDC 
#
#######################################################################
#
# If this CIF has been generated from an entry in the Cambridge 
# Structural Database, then it will include bibliographic, chemical, 
# crystal, experimental, refinement or atomic coordinate data resulting 
# from the CCDC's data processing and validation procedures.
#
#######################################################################

data_HEJGAE
_chemical_formula_moiety         'C4 Cl3 N5 S3'
_chemical_name_systematic        
5-Chlorothio-6-dichlorothionitroso-1,2,5-thiadiazolo(3,4-b)pyrazine
_symmetry_cell_setting           monoclinic
_symmetry_space_group_name_H-M   'P 21/m'
_symmetry_Int_Tables_number      11
_space_group_name_Hall           '-P 2yb'
loop_
_symmetry_equiv_pos_site_id
_symmetry_equiv_pos_as_xyz
1 x,y,z
2 x,1/2-y,z
3 -x,-y,-z
4 -x,1/2+y,-z
_cell_length_a                   8.6990(11)
_cell_length_b                   6.8203(17)
_cell_length_c                   9.4167(10)
_cell_angle_alpha                90
_cell_angle_beta                 111.261(9)
_cell_angle_gamma                90
_cell_volume                     520.665
_exptl_crystal_colour            'canary yellow'
_exptl_crystal_description       needles
_chemical_melting_point          'above 135 deg.C'
_cell_formula_units_Z            2
_exptl_crystal_recrystallization_method acetonitrile
loop_
_atom_site_label
_atom_site_type_symbol
_atom_site_fract_x
_atom_site_fract_y
_atom_site_fract_z
S1 S 0.27263(13) 0.25000 0.17917(12)
S2 S -0.07971(13) 0.25000 0.39039(11)
S3 S -0.39664(14) 0.25000 -0.37343(12)
Cl1 Cl 0.39447(14) 0.25000 0.03651(14)
Cl2 Cl -0.25012(11) 0.47766(13) 0.33538(9)
N1 N 0.0117(4) 0.25000 0.2805(4)
N2 N -0.2135(4) 0.25000 0.0461(3)
N3 N -0.4106(4) 0.25000 -0.2067(4)
N4 N -0.1986(5) 0.25000 -0.3295(4)
N5 N 0.0308(4) 0.25000 -0.0959(4)
C1 C 0.0677(5) 0.25000 0.0508(4)
C2 C -0.0560(5) 0.25000 0.1207(5)
C3 C -0.2548(5) 0.25000 -0.1087(4)
C4 C -0.1346(5) 0.25000 -0.1777(4)
Cl2A Cl -0.25012(11) 0.02234(13) 0.33538(9)
loop_
_geom_bond_atom_site_label_1
_geom_bond_atom_site_label_2
_geom_bond_site_symmetry_1
_geom_bond_site_symmetry_2
S1 Cl1 1_555 1_555
S2 Cl2 1_555 1_555
S3 N3 1_555 1_555
N1 S2 1_555 1_555
N2 C2 1_555 1_555
N3 C3 1_555 1_555
N4 S3 1_555 1_555
N5 C1 1_555 1_555
C1 S1 1_555 1_555
C2 N1 1_555 1_555
C3 N2 1_555 1_555
C4 N4 1_555 1_555
Cl2A S2 1_555 1_555
N5 C4 1_555 1_555
C1 C2 1_555 1_555
C3 C4 1_555 1_555

#END
