
#######################################################################
#
#                 Cambridge Crystallographic Data Centre
#                                CCDC 
#
#######################################################################
#
# If this CIF has been generated from an entry in the Cambridge 
# Structural Database, then it will include bibliographic, chemical, 
# crystal, experimental, refinement or atomic coordinate data resulting 
# from the CCDC's data processing and validation procedures.
#
#######################################################################

data_HEJJIS
_chemical_formula_moiety         'C15 H16 O3 S2'
_chemical_name_systematic        
2-(1,4-dioxan-2-yl)-2-(1,3-dithiolan-2-ylidene)-1-phenylethanone
_symmetry_cell_setting           orthorhombic
_symmetry_space_group_name_H-M   'P 21 21 21'
_symmetry_Int_Tables_number      19
_space_group_name_Hall           'P 2ac 2ab'
loop_
_symmetry_equiv_pos_site_id
_symmetry_equiv_pos_as_xyz
1 x,y,z
2 1/2-x,-y,1/2+z
3 1/2+x,1/2-y,-z
4 -x,1/2+y,1/2-z
_cell_length_a                   9.3252(6)
_cell_length_b                   10.4246(6)
_cell_length_c                   15.1095(8)
_cell_angle_alpha                90
_cell_angle_beta                 90
_cell_angle_gamma                90
_cell_volume                     1468.82
_exptl_crystal_colour            colorless
_exptl_crystal_description       prismatic
_cell_formula_units_Z            4
loop_
_atom_site_label
_atom_site_type_symbol
_atom_site_fract_x
_atom_site_fract_y
_atom_site_fract_z
S1 S -0.09183(14) 0.58135(13) 0.49285(7)
S2 S -0.18371(12) 0.67518(9) 0.31942(7)
O1 O 0.1160(4) 0.4094(4) 0.4682(2)
O2 O 0.0734(3) 0.6304(2) 0.20408(16)
O3 O -0.0391(3) 0.4294(2) 0.09949(16)
C1 C 0.3562(5) 0.2935(4) 0.3854(3)
H1 H 0.3055 0.2378 0.4220
C2 C 0.4924(5) 0.2616(4) 0.3597(3)
H2 H 0.5332 0.1851 0.3789
C3 C 0.5683(5) 0.3421(5) 0.3059(3)
H3 H 0.6603 0.3200 0.2877
C4 C 0.5078(5) 0.4565(5) 0.2788(3)
H4 H 0.5600 0.5118 0.2429
C5 C 0.3707(4) 0.4894(4) 0.3045(3)
H5 H 0.3310 0.5667 0.2858
C6 C 0.2918(4) 0.4074(4) 0.3581(2)
C7 C 0.1459(4) 0.4391(4) 0.3921(3)
C8 C 0.0424(4) 0.5098(3) 0.3376(2)
C9 C -0.0636(4) 0.5782(4) 0.3783(2)
C10 C -0.2999(6) 0.7150(5) 0.4110(3)
H6 H -0.3463 0.7970 0.4007
H7 H -0.3735 0.6500 0.4180
C11 C -0.2078(7) 0.7215(5) 0.4923(4)
H8 H -0.2674 0.7223 0.5449
H9 H -0.1506 0.7992 0.4916
C12 C 0.0556(4) 0.5030(3) 0.2381(2)
H10 H 0.1439 0.4558 0.2248
C13 C 0.0943(6) 0.6254(4) 0.1101(2)
H11 H 0.1847 0.5832 0.0974
H12 H 0.0994 0.7120 0.0869
C14 C -0.0245(6) 0.5548(4) 0.0651(3)
H13 H -0.1136 0.6012 0.0732
H14 H -0.0050 0.5501 0.0021
C15 C -0.0651(4) 0.4344(3) 0.1920(2)
H15 H -0.0737 0.3480 0.2153
H16 H -0.1546 0.4790 0.2032
loop_
_geom_bond_atom_site_label_1
_geom_bond_atom_site_label_2
_geom_bond_site_symmetry_1
_geom_bond_site_symmetry_2
S1 C9 1_555 1_555
S2 C9 1_555 1_555
O1 C7 1_555 1_555
O2 C12 1_555 1_555
O3 C14 1_555 1_555
C1 H1 1_555 1_555
C2 C1 1_555 1_555
H2 C2 1_555 1_555
C3 C2 1_555 1_555
H3 C3 1_555 1_555
C4 C3 1_555 1_555
H4 C4 1_555 1_555
C5 C4 1_555 1_555
H5 C5 1_555 1_555
C6 C1 1_555 1_555
C7 C6 1_555 1_555
C8 C7 1_555 1_555
C9 C8 1_555 1_555
C10 S2 1_555 1_555
H6 C10 1_555 1_555
H7 C10 1_555 1_555
C11 S1 1_555 1_555
H8 C11 1_555 1_555
H9 C11 1_555 1_555
C12 C8 1_555 1_555
H10 C12 1_555 1_555
C13 O2 1_555 1_555
H11 C13 1_555 1_555
H12 C13 1_555 1_555
C14 C13 1_555 1_555
H13 C14 1_555 1_555
H14 C14 1_555 1_555
C15 O3 1_555 1_555
H15 C15 1_555 1_555
H16 C15 1_555 1_555
C5 C6 1_555 1_555
C10 C11 1_555 1_555
C12 C15 1_555 1_555

#END
