
#######################################################################
#
#                 Cambridge Crystallographic Data Centre
#                                CCDC 
#
#######################################################################
#
# If this CIF has been generated from an entry in the Cambridge 
# Structural Database, then it will include bibliographic, chemical, 
# crystal, experimental, refinement or atomic coordinate data resulting 
# from the CCDC's data processing and validation procedures.
#
#######################################################################

data_HEJKAL
_chemical_formula_moiety         'C58 H46 O5,C4 H8 O2'
_chemical_name_systematic        
"ethyl 4',4''-dibenzoyl-2,3'''-diphenyl-4'H,4''H-trispiro[cyclopropane-1,1'-naphthalene-3',1''-naphthalene-3'',1'''-isochromene]-2-carboxylate  ethyl acetate solvate"
_symmetry_cell_setting           triclinic
_symmetry_space_group_name_H-M   'P -1'
_symmetry_Int_Tables_number      2
_space_group_name_Hall           '-P 1'
loop_
_symmetry_equiv_pos_site_id
_symmetry_equiv_pos_as_xyz
1 x,y,z
2 -x,-y,-z
_cell_length_a                   12.698(3)
_cell_length_b                   12.832(3)
_cell_length_c                   16.086(4)
_cell_angle_alpha                77.544(3)
_cell_angle_beta                 67.323(3)
_cell_angle_gamma                72.580(3)
_cell_volume                     2292.5
_exptl_crystal_colour            colorless
_exptl_crystal_description       chunk
_cell_formula_units_Z            2
loop_
_atom_site_label
_atom_site_type_symbol
_atom_site_fract_x
_atom_site_fract_y
_atom_site_fract_z
O1 O 0.51701(12) 0.41268(11) 0.75191(9)
O2 O 0.86484(13) 0.39230(12) 0.52827(11)
O3 O 0.97744(14) -0.15598(12) 0.70776(10)
O4 O 1.07372(14) -0.02144(13) 0.64240(11)
O5 O 0.65493(13) -0.02988(12) 0.76829(10)
C1 C 0.66390(19) 0.51443(17) 0.72870(14)
C2 C 0.7762(2) 0.51585(18) 0.72230(16)
H1 H 0.8389 0.4524 0.7079
C3 C 0.7966(2) 0.60965(18) 0.73685(17)
H2 H 0.8738 0.6106 0.7308
C4 C 0.7053(2) 0.70183(18) 0.76015(17)
H3 H 0.7196 0.766 0.7699
C5 C 0.5935(2) 0.69972(18) 0.76902(16)
H4 H 0.5305 0.7623 0.7865
C6 C 0.5709(2) 0.60714(17) 0.75280(15)
C7 C 0.4553(2) 0.60443(18) 0.75780(14)
H5 H 0.3956 0.6707 0.7618
C8 C 0.43123(19) 0.51020(17) 0.75694(14)
C9 C 0.31836(19) 0.49584(17) 0.76105(14)
C10 C 0.2127(2) 0.5704(2) 0.79994(16)
H6 H 0.2126 0.6294 0.8268
C11 C 0.1079(2) 0.5585(2) 0.79950(18)
H7 H 0.0365 0.61 0.8257
C12 C 0.1065(2) 0.4727(2) 0.76125(17)
H8 H 0.0344 0.4649 0.7612
C13 C 0.2112(2) 0.39753(19) 0.72275(16)
H9 H 0.2107 0.3383 0.6963
C14 C 0.31624(19) 0.40907(18) 0.72302(15)
H10 H 0.3874 0.3573 0.697
C15 C 0.63885(18) 0.41898(16) 0.70284(14)
C16 C 0.65656(18) 0.43326(16) 0.60070(14)
H11 H 0.5913 0.4945 0.5896
C17 C 0.65442(17) 0.33074(17) 0.56940(14)
C18 C 0.63282(18) 0.34403(18) 0.48860(15)
H12 H 0.6138 0.416 0.4592
C19 C 0.6384(2) 0.25482(19) 0.45019(15)
H13 H 0.6218 0.2657 0.3957
C20 C 0.6684(2) 0.14956(19) 0.49209(15)
H14 H 0.6743 0.0875 0.4659
C21 C 0.68958(19) 0.13571(18) 0.57248(14)
H15 H 0.7101 0.0632 0.6006
C22 C 0.68195(18) 0.22448(17) 0.61392(14)
C23 C 0.70035(18) 0.20406(16) 0.70557(14)
C24 C 0.71433(18) 0.30969(16) 0.72814(14)
H16 H 0.6978 0.302 0.7943
H17 H 0.7977 0.3129 0.6975
C25 C 0.77368(19) 0.46412(17) 0.54244(14)
C26 C 0.77605(19) 0.58111(18) 0.50472(14)
C27 C 0.6761(2) 0.66704(18) 0.51737(16)
H18 H 0.6006 0.6526 0.5495
C28 C 0.6861(2) 0.77415(19) 0.48317(17)
H19 H 0.6175 0.8327 0.4918
C29 C 0.7959(2) 0.7955(2) 0.43652(17)
H20 H 0.8028 0.8689 0.4143
C30 C 0.8957(2) 0.7099(2) 0.42220(18)
H21 H 0.971 0.7246 0.3894
C31 C 0.8863(2) 0.6031(2) 0.45543(16)
H22 H 0.9549 0.5445 0.4447
C32 C 0.59540(18) 0.16288(16) 0.78261(14)
H23 H 0.5213 0.2211 0.7869
C33 C 0.61396(19) 0.14165(16) 0.87301(14)
C34 C 0.5154(2) 0.16023(18) 0.95149(15)
H24 H 0.4393 0.1855 0.9467
C35 C 0.5262(2) 0.14258(18) 1.03601(15)
H25 H 0.4583 0.1532 1.089
C36 C 0.6371(2) 0.10926(18) 1.04227(15)
H26 H 0.6458 0.0994 1.0997
C37 C 0.7358(2) 0.09011(17) 0.96513(15)
H27 H 0.8114 0.0669 0.9708
C38 C 0.72708(19) 0.10405(16) 0.87905(14)
C39 C 0.83429(18) 0.08605(16) 0.79437(14)
C40 C 0.58032(19) 0.05588(17) 0.76591(14)
C41 C 0.81406(18) 0.11588(17) 0.70322(14)
H28 H 0.8115 0.0486 0.6841
H29 H 0.8817 0.1426 0.6571
C42 C 0.4724(2) 0.05262(17) 0.75027(14)
C43 C 0.3619(2) 0.11857(18) 0.79069(16)
H30 H 0.354 0.1759 0.823
C44 C 0.2626(2) 0.1007(2) 0.78392(18)
H31 H 0.1868 0.1444 0.813
C45 C 0.2749(2) 0.0190(2) 0.73464(18)
H32 H 0.2074 0.0067 0.73
C46 C 0.3849(2) -0.04464(19) 0.69220(17)
H33 H 0.393 -0.0996 0.6575
C47 C 0.4830(2) -0.02837(18) 0.70020(15)
H34 H 0.5584 -0.0728 0.6713
C48 C 0.94835(19) 0.09783(17) 0.79684(15)
H35 H 1.0011 0.131 0.7409
H36 H 0.9469 0.1168 0.8538
C49 C 0.93820(19) -0.01605(17) 0.79688(15)
C50 C 0.9312(2) -0.10030(18) 0.87838(15)
C51 C 0.8475(2) -0.16085(18) 0.90911(16)
H37 H 0.7898 -0.145 0.8812
C52 C 0.8462(3) -0.2446(2) 0.98023(19)
H38 H 0.7866 -0.2843 1.0015
C53 C 0.9294(3) -0.2702(3) 1.0195(2)
H39 H 0.9293 -0.3286 1.0672
C54 C 1.0151(3) -0.2102(3) 0.9895(2)
H40 H 1.0736 -0.2276 1.0168
C55 C 1.0148(3) -0.1244(2) 0.91911(17)
H41 H 1.0723 -0.0827 0.8993
C56 C 1.00453(19) -0.06320(17) 0.70766(15)
C57 C 1.0294(2) -0.20443(19) 0.62210(16)
H42 H 1.0361 -0.2847 0.6346
H43 H 1.1094 -0.1922 0.5896
C58 C 0.9558(2) -0.1545(2) 0.56435(18)
H44 H 0.9887 -0.1912 0.5092
H45 H 0.9546 -0.0761 0.5478
H46 H 0.8755 -0.1631 0.5978
loop_
_geom_bond_atom_site_label_1
_geom_bond_atom_site_label_2
_geom_bond_site_symmetry_1
_geom_bond_site_symmetry_2
O1 C8 1_555 1_555
O2 C25 1_555 1_555
O3 C56 1_555 1_555
O4 C56 1_555 1_555
O5 C40 1_555 1_555
C1 C2 1_555 1_555
C2 H1 1_555 1_555
C3 C2 1_555 1_555
H2 C3 1_555 1_555
C4 C3 1_555 1_555
H3 C4 1_555 1_555
C5 C4 1_555 1_555
H4 C5 1_555 1_555
C6 C1 1_555 1_555
C7 C6 1_555 1_555
H5 C7 1_555 1_555
C8 C7 1_555 1_555
C9 C8 1_555 1_555
C10 C9 1_555 1_555
H6 C10 1_555 1_555
C11 C10 1_555 1_555
H7 C11 1_555 1_555
C12 C11 1_555 1_555
H8 C12 1_555 1_555
C13 C12 1_555 1_555
H9 C13 1_555 1_555
C14 C9 1_555 1_555
H10 C14 1_555 1_555
C15 O1 1_555 1_555
C16 C15 1_555 1_555
H11 C16 1_555 1_555
C17 C16 1_555 1_555
C18 C17 1_555 1_555
H12 C18 1_555 1_555
C19 C18 1_555 1_555
H13 C19 1_555 1_555
C20 C19 1_555 1_555
H14 C20 1_555 1_555
C21 C20 1_555 1_555
H15 C21 1_555 1_555
C22 C17 1_555 1_555
C23 C22 1_555 1_555
C24 C15 1_555 1_555
H16 C24 1_555 1_555
H17 C24 1_555 1_555
C25 C16 1_555 1_555
C26 C25 1_555 1_555
C27 C26 1_555 1_555
H18 C27 1_555 1_555
C28 C27 1_555 1_555
H19 C28 1_555 1_555
C29 C28 1_555 1_555
H20 C29 1_555 1_555
C30 C29 1_555 1_555
H21 C30 1_555 1_555
C31 C26 1_555 1_555
H22 C31 1_555 1_555
C32 C23 1_555 1_555
H23 C32 1_555 1_555
C33 C32 1_555 1_555
C34 C33 1_555 1_555
H24 C34 1_555 1_555
C35 C34 1_555 1_555
H25 C35 1_555 1_555
C36 C35 1_555 1_555
H26 C36 1_555 1_555
C37 C36 1_555 1_555
H27 C37 1_555 1_555
C38 C33 1_555 1_555
C39 C38 1_555 1_555
C40 C32 1_555 1_555
C41 C23 1_555 1_555
H28 C41 1_555 1_555
H29 C41 1_555 1_555
C42 C40 1_555 1_555
C43 C42 1_555 1_555
H30 C43 1_555 1_555
C44 C43 1_555 1_555
H31 C44 1_555 1_555
C45 C44 1_555 1_555
H32 C45 1_555 1_555
C46 C45 1_555 1_555
H33 C46 1_555 1_555
C47 C42 1_555 1_555
H34 C47 1_555 1_555
C48 C39 1_555 1_555
H35 C48 1_555 1_555
H36 C48 1_555 1_555
C49 C39 1_555 1_555
C50 C49 1_555 1_555
C51 C50 1_555 1_555
H37 C51 1_555 1_555
C52 C51 1_555 1_555
H38 C52 1_555 1_555
C53 C52 1_555 1_555
H39 C53 1_555 1_555
C54 C53 1_555 1_555
H40 C54 1_555 1_555
C55 C50 1_555 1_555
H41 C55 1_555 1_555
C56 C49 1_555 1_555
C57 O3 1_555 1_555
H42 C57 1_555 1_555
H43 C57 1_555 1_555
C58 C57 1_555 1_555
H44 C58 1_555 1_555
H45 C58 1_555 1_555
H46 C58 1_555 1_555
C1 C15 1_555 1_555
C5 C6 1_555 1_555
C13 C14 1_555 1_555
C21 C22 1_555 1_555
C23 C24 1_555 1_555
C30 C31 1_555 1_555
C37 C38 1_555 1_555
C39 C41 1_555 1_555
C46 C47 1_555 1_555
C48 C49 1_555 1_555
C54 C55 1_555 1_555

#END
