
#######################################################################
#
#                 Cambridge Crystallographic Data Centre
#                                CCDC 
#
#######################################################################
#
# If this CIF has been generated from an entry in the Cambridge 
# Structural Database, then it will include bibliographic, chemical, 
# crystal, experimental, refinement or atomic coordinate data resulting 
# from the CCDC's data processing and validation procedures.
#
#######################################################################

data_HEJLAM
_chemical_formula_moiety         'C21 H24 Br1 F1 N2 O2 S1'
_chemical_name_systematic        
N-[1-(4-bromophenyl)-3-(2,3-dihydro-1H-indol-1-yl)-2-fluoro-3-oxopropyl]-2-methylpropane-2-sulfinamide
_symmetry_cell_setting           monoclinic
_symmetry_space_group_name_H-M   'C 2'
_symmetry_Int_Tables_number      5
_space_group_name_Hall           'C 2y'
loop_
_symmetry_equiv_pos_site_id
_symmetry_equiv_pos_as_xyz
1 x,y,z
2 -x,y,-z
3 1/2+x,1/2+y,z
4 1/2-x,1/2+y,-z
_cell_length_a                   22.030(13)
_cell_length_b                   9.056(5)
_cell_length_c                   10.830(6)
_cell_angle_alpha                90
_cell_angle_beta                 92.882(18)
_cell_angle_gamma                90
_cell_volume                     2157.89
_exptl_crystal_colour            colorless
_exptl_crystal_description       prismatic
_cell_formula_units_Z            4
loop_
_atom_site_label
_atom_site_type_symbol
_atom_site_fract_x
_atom_site_fract_y
_atom_site_fract_z
Br1 Br -0.01640(6) 0.5117(2) 0.69780(13)
S1 S 0.31362(11) 0.6348(3) 0.9372(2)
F1 F 0.3169(3) 0.9288(8) 0.6786(6)
N1 N 0.1822(4) 0.9364(9) 0.4994(7)
N2 N 0.2723(4) 0.7693(9) 0.8759(7)
O1 O 0.2664(4) 0.7963(9) 0.4750(7)
O2 O 0.2793(3) 0.5427(8) 1.0265(7)
C1 C 0.2351(5) 0.8751(13) 0.5417(10)
C2 C 0.2560(5) 0.8948(13) 0.6760(10)
H1 H 0.2332 0.9748 0.7132
C3 C 0.2472(4) 0.7465(10) 0.7487(8)
H2 H 0.2721 0.6711 0.7107
C4 C 0.1817(4) 0.6969(10) 0.7336(8)
C5 C 0.1398(5) 0.7297(10) 0.8205(10)
H3 H 0.1518 0.7871 0.8886
C6 C 0.0808(5) 0.6793(12) 0.8084(9)
H4 H 0.0532 0.7033 0.8675
C7 C 0.0629(5) 0.5932(12) 0.7083(10)
C8 C 0.1040(5) 0.5622(13) 0.6203(9)
H5 H 0.0919 0.5070 0.5510
C9 C 0.1626(5) 0.6124(11) 0.6343(9)
H6 H 0.1901 0.5884 0.5750
C10 C 0.1420(4) 1.0313(15) 0.5723(9)
H7 H 0.1650 1.1113 0.6117
H8 H 0.1231 0.9740 0.6355
C11 C 0.0949(6) 1.0905(19) 0.4801(13)
H9 H 0.1039 1.1919 0.4586
H10 H 0.0548 1.0863 0.5128
C12 C 0.0987(5) 0.9907(18) 0.3687(11)
C13 C 0.1516(5) 0.9068(13) 0.3819(9)
C14 C 0.1678(7) 0.8085(16) 0.2912(11)
H11 H 0.2031 0.7522 0.2999
C15 C 0.1285(8) 0.7979(17) 0.1856(12)
H12 H 0.1388 0.7368 0.1209
C16 C 0.0762(8) 0.8748(18) 0.1764(13)
H13 H 0.0497 0.8595 0.1081
C17 C 0.0611(7) 0.9738(18) 0.2636(12)
H14 H 0.0259 1.0298 0.2528
C18 C 0.3650(4) 0.7489(11) 1.0413(9)
C19 C 0.3284(5) 0.8236(13) 1.1380(11)
H15 H 0.3555 0.8698 1.1985
H16 H 0.3041 0.7514 1.1775
H17 H 0.3024 0.8970 1.0991
C20 C 0.4101(5) 0.6375(16) 1.1025(10)
H18 H 0.4406 0.6897 1.1516
H19 H 0.4292 0.5819 1.0396
H20 H 0.3887 0.5715 1.1543
C21 C 0.3979(6) 0.8567(16) 0.9596(12)
H21 H 0.3692 0.9262 0.9236
H22 H 0.4166 0.8033 0.8951
H23 H 0.4285 0.9086 1.0087
H24 H 0.251(4) 0.842(11) 0.912(8)
loop_
_geom_bond_atom_site_label_1
_geom_bond_atom_site_label_2
_geom_bond_site_symmetry_1
_geom_bond_site_symmetry_2
Br1 C7 1_555 1_555
S1 N2 1_555 1_555
F1 C2 1_555 1_555
N1 C1 1_555 1_555
N2 C3 1_555 1_555
O1 C1 1_555 1_555
O2 S1 1_555 1_555
C1 C2 1_555 1_555
C2 H1 1_555 1_555
C3 C2 1_555 1_555
H2 C3 1_555 1_555
C4 C3 1_555 1_555
C5 C4 1_555 1_555
H3 C5 1_555 1_555
C6 C5 1_555 1_555
H4 C6 1_555 1_555
C7 C6 1_555 1_555
C8 C7 1_555 1_555
H5 C8 1_555 1_555
C9 C4 1_555 1_555
H6 C9 1_555 1_555
C10 N1 1_555 1_555
H7 C10 1_555 1_555
H8 C10 1_555 1_555
C11 C10 1_555 1_555
H9 C11 1_555 1_555
H10 C11 1_555 1_555
C12 C11 1_555 1_555
C13 N1 1_555 1_555
C14 C13 1_555 1_555
H11 C14 1_555 1_555
C15 C14 1_555 1_555
H12 C15 1_555 1_555
C16 C15 1_555 1_555
H13 C16 1_555 1_555
C17 C12 1_555 1_555
H14 C17 1_555 1_555
C18 S1 1_555 1_555
C19 C18 1_555 1_555
H15 C19 1_555 1_555
H16 C19 1_555 1_555
H17 C19 1_555 1_555
C20 C18 1_555 1_555
H18 C20 1_555 1_555
H19 C20 1_555 1_555
H20 C20 1_555 1_555
C21 C18 1_555 1_555
H21 C21 1_555 1_555
H22 C21 1_555 1_555
H23 C21 1_555 1_555
H24 N2 1_555 1_555
C8 C9 1_555 1_555
C12 C13 1_555 1_555
C16 C17 1_555 1_555

#END
