
#######################################################################
#
#                 Cambridge Crystallographic Data Centre
#                                CCDC 
#
#######################################################################
#
# If this CIF has been generated from an entry in the Cambridge 
# Structural Database, then it will include bibliographic, chemical, 
# crystal, experimental, refinement or atomic coordinate data resulting 
# from the CCDC's data processing and validation procedures.
#
#######################################################################

data_HEJLUF
_chemical_formula_moiety         'C19 H20 Br1 N1 O5'
_chemical_name_systematic        
't-Butyl 4-(4-bromophenyl)-3-methylene-2,6-dioxo-7-oxa-1-azaspiro[4.4]nonane-1-carboxylate'
_symmetry_cell_setting           monoclinic
_symmetry_space_group_name_H-M   'P 21'
_symmetry_Int_Tables_number      4
_space_group_name_Hall           'P 2yb'
loop_
_symmetry_equiv_pos_site_id
_symmetry_equiv_pos_as_xyz
1 x,y,z
2 -x,1/2+y,-z
_cell_length_a                   11.886(3)
_cell_length_b                   6.4413(17)
_cell_length_c                   12.608(3)
_cell_angle_alpha                90
_cell_angle_beta                 99.064(3)
_cell_angle_gamma                90
_cell_volume                     953.231
_exptl_crystal_colour            colorless
_exptl_crystal_description       block
_cell_formula_units_Z            2
loop_
_atom_site_label
_atom_site_type_symbol
_atom_site_fract_x
_atom_site_fract_y
_atom_site_fract_z
Br1 Br 0.07820(6) 0.37020(11) 0.06075(4)
C1 C 0.1249(4) 0.5820(7) 0.1615(3)
C2 C 0.2393(4) 0.6300(7) 0.1884(3)
H1 H 0.2927 0.5672 0.1522
C3 C 0.2738(3) 0.7711(6) 0.2690(3)
H2 H 0.3508 0.8028 0.2871
C4 C 0.1954(3) 0.8663(7) 0.3234(2)
C5 C 0.0809(3) 0.8232(8) 0.2910(3)
H3 H 0.0266 0.8931 0.3231
C6 C 0.0459(4) 0.6793(9) 0.2122(3)
H4 H -0.0311 0.6481 0.1935
C7 C 0.2297(3) 1.0054(6) 0.4188(3)
H5 H 0.1659 1.1001 0.4224
C8 C 0.2549(3) 0.8895(6) 0.5302(2)
C9 C 0.2862(3) 0.6605(6) 0.5275(3)
H6 H 0.3160 0.6267 0.4622
H7 H 0.3424 0.6234 0.5890
C10 C 0.1744(4) 0.5515(7) 0.5309(4)
H8 H 0.1388 0.5130 0.4590
H9 H 0.1865 0.4267 0.5743
C11 C 0.1462(3) 0.8885(7) 0.5800(3)
C12 C 0.3953(3) 1.1573(6) 0.5284(3)
C13 C 0.3335(3) 1.1367(6) 0.4183(3)
C14 C 0.3671(4) 1.2314(7) 0.3369(4)
H10 H 0.4318 1.3147 0.3478
H11 H 0.3263 1.2155 0.2681
C15 C 0.3729(3) 1.0086(6) 0.7041(3)
C16 C 0.3300(4) 0.7946(9) 0.8551(3)
C17 C 0.4518(5) 0.7378(14) 0.8953(5)
H12 H 0.4713 0.6150 0.8590
H13 H 0.4612 0.7122 0.9712
H14 H 0.5006 0.8498 0.8813
C18 C 0.2890(5) 0.9705(11) 0.9150(4)
H15 H 0.3407 1.0852 0.9161
H16 H 0.2851 0.9279 0.9873
H17 H 0.2146 1.0121 0.8803
C19 C 0.2498(7) 0.6128(13) 0.8529(5)
H18 H 0.1750 0.6537 0.8192
H19 H 0.2470 0.5680 0.9251
H20 H 0.2764 0.5009 0.8132
N1 N 0.3427(2) 1.0225(4) 0.5929(2)
O1 O 0.1022(2) 1.0351(5) 0.6138(2)
O2 O 0.1031(2) 0.6958(5) 0.5777(2)
O3 O 0.4757(2) 1.2681(5) 0.5596(2)
O4 O 0.4385(3) 1.1228(6) 0.7565(2)
O5 O 0.3182(2) 0.8500(5) 0.73918(17)
loop_
_geom_bond_atom_site_label_1
_geom_bond_atom_site_label_2
_geom_bond_site_symmetry_1
_geom_bond_site_symmetry_2
Br1 C1 1_555 1_555
C1 C2 1_555 1_555
C2 H1 1_555 1_555
C3 C2 1_555 1_555
H2 C3 1_555 1_555
C4 C3 1_555 1_555
C5 C4 1_555 1_555
H3 C5 1_555 1_555
C6 C1 1_555 1_555
H4 C6 1_555 1_555
C7 C4 1_555 1_555
H5 C7 1_555 1_555
C8 C7 1_555 1_555
C9 C8 1_555 1_555
H6 C9 1_555 1_555
H7 C9 1_555 1_555
C10 C9 1_555 1_555
H8 C10 1_555 1_555
H9 C10 1_555 1_555
C11 C8 1_555 1_555
C12 C13 1_555 1_555
C13 C7 1_555 1_555
C14 C13 1_555 1_555
H10 C14 1_555 1_555
H11 C14 1_555 1_555
C15 N1 1_555 1_555
C16 C17 1_555 1_555
C17 H12 1_555 1_555
H13 C17 1_555 1_555
H14 C17 1_555 1_555
C18 C16 1_555 1_555
H15 C18 1_555 1_555
H16 C18 1_555 1_555
H17 C18 1_555 1_555
C19 C16 1_555 1_555
H18 C19 1_555 1_555
H19 C19 1_555 1_555
H20 C19 1_555 1_555
N1 C8 1_555 1_555
O1 C11 1_555 1_555
O2 C10 1_555 1_555
O3 C12 1_555 1_555
O4 C15 1_555 1_555
O5 C15 1_555 1_555
C5 C6 1_555 1_555
C11 O2 1_555 1_555
C12 N1 1_555 1_555
C16 O5 1_555 1_555

#END
