
#######################################################################
#
#                 Cambridge Crystallographic Data Centre
#                                CCDC 
#
#######################################################################
#
# If this CIF has been generated from an entry in the Cambridge 
# Structural Database, then it will include bibliographic, chemical, 
# crystal, experimental, refinement or atomic coordinate data resulting 
# from the CCDC's data processing and validation procedures.
#
#######################################################################

data_HEJMIV
_chemical_formula_moiety         'C32 H24 Br2 O3'
_chemical_name_systematic        
(4-bromophenyl)[3-(4-bromophenyl)-4'-hydroxy-4'-methyl-3',4'-dihydro-1'H-spiro[2-benzopyran-1,2'-naphthalen]-1'-yl]methanone
_symmetry_cell_setting           monoclinic
_symmetry_space_group_name_H-M   'P 21/c'
_symmetry_Int_Tables_number      14
_space_group_name_Hall           '-P 2ybc'
loop_
_symmetry_equiv_pos_site_id
_symmetry_equiv_pos_as_xyz
1 x,y,z
2 -x,1/2+y,1/2-z
3 -x,-y,-z
4 x,1/2-y,1/2+z
_cell_length_a                   13.3073(12)
_cell_length_b                   21.5540(19)
_cell_length_c                   20.2908(18)
_cell_angle_alpha                90
_cell_angle_beta                 108.791(2)
_cell_angle_gamma                90
_cell_volume                     5509.72
_exptl_crystal_colour            white
_exptl_crystal_description       block
_cell_formula_units_Z            8
loop_
_atom_site_label
_atom_site_type_symbol
_atom_site_fract_x
_atom_site_fract_y
_atom_site_fract_z
Br1 Br 0.83344(11) 0.83001(7) 0.33834(8)
Br2 Br -0.03901(10) 0.56562(8) 0.40721(7)
O1 O 0.4842(5) 0.5949(3) 0.2227(3)
O2 O 0.3382(5) 0.4362(3) 0.2918(3)
O3 O 0.5868(5) 0.4047(3) 0.2319(3)
H1 H 0.5688 0.3962 0.1903
C1 C 0.4107(9) 0.5436(5) 0.2216(5)
C2 C 0.2978(9) 0.5617(6) 0.1758(5)
C3 C 0.2278(11) 0.5172(6) 0.1408(6)
H2 H 0.2495 0.4761 0.1408
C4 C 0.1244(11) 0.5342(7) 0.1055(6)
H3 H 0.0745 0.5042 0.0837
C5 C 0.0949(10) 0.5962(8) 0.1027(6)
H4 H 0.0259 0.6077 0.0773
C6 C 0.1655(11) 0.6402(6) 0.1367(6)
H5 H 0.1438 0.6812 0.1359
C7 C 0.2676(11) 0.6248(6) 0.1718(5)
C8 C 0.3431(11) 0.6689(6) 0.2043(5)
H6 H 0.3216 0.7089 0.2104
C9 C 0.4479(11) 0.6547(5) 0.2273(5)
C10 C 0.5383(10) 0.6964(6) 0.2587(5)
C11 C 0.6418(11) 0.6751(5) 0.3009(5)
H7 H 0.6517 0.6330 0.3109
C12 C 0.7278(9) 0.7154(6) 0.3274(5)
H8 H 0.7926 0.7014 0.3572
C13 C 0.7131(10) 0.7760(6) 0.3078(5)
C14 C 0.6173(11) 0.8003(5) 0.2717(5)
H9 H 0.6100 0.8429 0.2647
C15 C 0.5291(9) 0.7615(6) 0.2447(5)
H10 H 0.4645 0.7781 0.2177
C16 C 0.4210(8) 0.5345(4) 0.2988(5)
H11 H 0.4122 0.5752 0.3177
C17 C 0.3313(10) 0.4927(6) 0.3050(5)
C18 C 0.2410(10) 0.5108(6) 0.3263(5)
C19 C 0.1634(11) 0.4734(6) 0.3255(6)
H12 H 0.1657 0.4333 0.3092
C20 C 0.0758(10) 0.4894(7) 0.3477(6)
H13 H 0.0222 0.4607 0.3446
C21 C 0.0713(9) 0.5473(7) 0.3737(6)
C22 C 0.1497(10) 0.5840(5) 0.3748(5)
H14 H 0.1495 0.6237 0.3927
C23 C 0.2345(9) 0.5682(6) 0.3511(5)
H15 H 0.2865 0.5974 0.3525
C24 C 0.4584(8) 0.4903(4) 0.1958(5)
H16 H 0.4579 0.4997 0.1489
H17 H 0.4134 0.4543 0.1929
C25 C 0.5740(9) 0.4728(5) 0.2404(6)
C26 C 0.5991(10) 0.4844(5) 0.3166(5)
C27 C 0.5295(9) 0.5087(5) 0.3434(5)
C28 C 0.5588(9) 0.5177(5) 0.4174(6)
H18 H 0.5120 0.5380 0.4356
C29 C 0.6529(11) 0.4973(6) 0.4613(6)
H19 H 0.6695 0.5007 0.5093
C30 C 0.7226(10) 0.4714(6) 0.4320(7)
H20 H 0.7890 0.4584 0.4605
C31 C 0.6967(9) 0.4646(5) 0.3628(7)
H21 H 0.7453 0.4460 0.3448
C32 C 0.6522(7) 0.5048(5) 0.2112(5)
H22 H 0.7231 0.4919 0.2369
H23 H 0.6464 0.5489 0.2152
H24 H 0.6366 0.4937 0.1631
Br3 Br 0.88571(10) 0.86767(9) 0.70661(8)
Br4 Br -0.14415(11) 0.72076(10) 0.58664(8)
O4 O 0.2558(5) 0.7300(3) 0.4449(3)
O5 O 0.4727(5) 0.8712(4) 0.4074(4)
O6 O 0.2358(4) 0.8197(3) 0.2523(3)
H25 H 0.2866 0.8434 0.2606
C33 C 0.3519(9) 0.7542(5) 0.4326(5)
C34 C 0.4457(9) 0.7123(5) 0.4677(5)
C35 C 0.5315(10) 0.7043(5) 0.4410(5)
H26 H 0.5310 0.7238 0.4000
C36 C 0.6159(9) 0.6668(6) 0.4772(6)
H27 H 0.6705 0.6604 0.4587
C37 C 0.6223(11) 0.6389(6) 0.5385(7)
H28 H 0.6815 0.6156 0.5626
C38 C 0.5386(11) 0.6463(6) 0.5638(6)
H29 H 0.5409 0.6269 0.6052
C39 C 0.4500(11) 0.6824(5) 0.5283(6)
C40 C 0.3606(12) 0.6886(5) 0.5551(6)
H30 H 0.3691 0.6781 0.6010
C41 C 0.2642(11) 0.7098(5) 0.5125(6)
C42 C 0.1650(11) 0.7145(6) 0.5285(6)
C43 C 0.0780(12) 0.7476(5) 0.4884(6)
H31 H 0.0823 0.7689 0.4495
C44 C -0.0174(11) 0.7500(6) 0.5049(7)
H32 H -0.0765 0.7717 0.4774
C45 C -0.0185(10) 0.7184(7) 0.5642(8)
C46 C 0.0670(12) 0.6864(5) 0.6046(6)
H33 H 0.0639 0.6666 0.6447
C47 C 0.1559(9) 0.6832(5) 0.5872(6)
H34 H 0.2129 0.6598 0.6145
C48 C 0.3693(8) 0.8209(4) 0.4662(5)
H35 H 0.3743 0.8171 0.5153
C49 C 0.4728(10) 0.8488(5) 0.4626(6)
C50 C 0.5643(11) 0.8528(6) 0.5220(7)
C51 C 0.5794(10) 0.8218(5) 0.5820(7)
H36 H 0.5245 0.7975 0.5871
C52 C 0.6741(13) 0.8249(6) 0.6363(7)
H37 H 0.6812 0.8031 0.6770
C53 C 0.7581(10) 0.8597(8) 0.6312(7)
C54 C 0.7424(12) 0.8899(7) 0.5699(10)
H38 H 0.7961 0.9143 0.5634
C55 C 0.6462(14) 0.8841(7) 0.5170(7)
H39 H 0.6392 0.9039 0.4750
C56 C 0.3239(7) 0.7613(5) 0.3553(4)
H40 H 0.3165 0.7200 0.3353
H41 H 0.3838 0.7807 0.3462
C57 C 0.2255(9) 0.7977(6) 0.3163(5)
C58 C 0.2113(9) 0.8500(6) 0.3612(6)
C59 C 0.2716(9) 0.8582(6) 0.4293(6)
C60 C 0.2481(9) 0.9086(6) 0.4673(5)
H42 H 0.2886 0.9143 0.5138
C61 C 0.1659(10) 0.9494(6) 0.4363(7)
H43 H 0.1514 0.9821 0.4618
C62 C 0.1069(10) 0.9416(7) 0.3685(8)
H44 H 0.0527 0.9693 0.3472
C63 C 0.1274(10) 0.8920(7) 0.3310(6)
H45 H 0.0850 0.8862 0.2850
C64 C 0.1226(7) 0.7596(5) 0.2900(5)
H46 H 0.0644 0.7867 0.2676
H47 H 0.1097 0.7393 0.3286
H48 H 0.1296 0.7290 0.2573
loop_
_geom_bond_atom_site_label_1
_geom_bond_atom_site_label_2
_geom_bond_site_symmetry_1
_geom_bond_site_symmetry_2
Br1 C13 1_555 1_555
Br2 C21 1_555 1_555
O1 C1 1_555 1_555
O2 C17 1_555 1_555
O3 H1 1_555 1_555
C1 C2 1_555 1_555
C2 C3 1_555 1_555
C3 H2 1_555 1_555
C4 C3 1_555 1_555
H3 C4 1_555 1_555
C5 C4 1_555 1_555
H4 C5 1_555 1_555
C6 C5 1_555 1_555
H5 C6 1_555 1_555
C7 C2 1_555 1_555
C8 C7 1_555 1_555
H6 C8 1_555 1_555
C9 O1 1_555 1_555
C10 C9 1_555 1_555
C11 C10 1_555 1_555
H7 C11 1_555 1_555
C12 C11 1_555 1_555
H8 C12 1_555 1_555
C13 C12 1_555 1_555
C14 C13 1_555 1_555
H9 C14 1_555 1_555
C15 C10 1_555 1_555
H10 C15 1_555 1_555
C16 C1 1_555 1_555
H11 C16 1_555 1_555
C17 C16 1_555 1_555
C18 C17 1_555 1_555
C19 C18 1_555 1_555
H12 C19 1_555 1_555
C20 C19 1_555 1_555
H13 C20 1_555 1_555
C21 C20 1_555 1_555
C22 C21 1_555 1_555
H14 C22 1_555 1_555
C23 C18 1_555 1_555
H15 C23 1_555 1_555
C24 C1 1_555 1_555
H16 C24 1_555 1_555
H17 C24 1_555 1_555
C25 O3 1_555 1_555
C26 C25 1_555 1_555
C27 C16 1_555 1_555
C28 C27 1_555 1_555
H18 C28 1_555 1_555
C29 C28 1_555 1_555
H19 C29 1_555 1_555
C30 C29 1_555 1_555
H20 C30 1_555 1_555
C31 C26 1_555 1_555
H21 C31 1_555 1_555
C32 C25 1_555 1_555
H22 C32 1_555 1_555
H23 C32 1_555 1_555
H24 C32 1_555 1_555
Br3 C53 1_555 1_555
Br4 C45 1_555 1_555
O4 C33 1_555 1_555
O5 C49 1_555 1_555
O6 H25 1_555 1_555
C33 C34 1_555 1_555
C34 C35 1_555 1_555
C35 H26 1_555 1_555
C36 C35 1_555 1_555
H27 C36 1_555 1_555
C37 C36 1_555 1_555
H28 C37 1_555 1_555
C38 C37 1_555 1_555
H29 C38 1_555 1_555
C39 C34 1_555 1_555
C40 C39 1_555 1_555
H30 C40 1_555 1_555
C41 O4 1_555 1_555
C42 C41 1_555 1_555
C43 C42 1_555 1_555
H31 C43 1_555 1_555
C44 C43 1_555 1_555
H32 C44 1_555 1_555
C45 C44 1_555 1_555
C46 C45 1_555 1_555
H33 C46 1_555 1_555
C47 C42 1_555 1_555
H34 C47 1_555 1_555
C48 C33 1_555 1_555
H35 C48 1_555 1_555
C49 C48 1_555 1_555
C50 C49 1_555 1_555
C51 C50 1_555 1_555
H36 C51 1_555 1_555
C52 C51 1_555 1_555
H37 C52 1_555 1_555
C53 C52 1_555 1_555
C54 C53 1_555 1_555
H38 C54 1_555 1_555
C55 C50 1_555 1_555
H39 C55 1_555 1_555
C56 C33 1_555 1_555
H40 C56 1_555 1_555
H41 C56 1_555 1_555
C57 O6 1_555 1_555
C58 C57 1_555 1_555
C59 C48 1_555 1_555
C60 C59 1_555 1_555
H42 C60 1_555 1_555
C61 C60 1_555 1_555
H43 C61 1_555 1_555
C62 C61 1_555 1_555
H44 C62 1_555 1_555
C63 C58 1_555 1_555
H45 C63 1_555 1_555
C64 C57 1_555 1_555
H46 C64 1_555 1_555
H47 C64 1_555 1_555
H48 C64 1_555 1_555
C6 C7 1_555 1_555
C8 C9 1_555 1_555
C14 C15 1_555 1_555
C22 C23 1_555 1_555
C24 C25 1_555 1_555
C26 C27 1_555 1_555
C30 C31 1_555 1_555
C38 C39 1_555 1_555
C40 C41 1_555 1_555
C46 C47 1_555 1_555
C54 C55 1_555 1_555
C56 C57 1_555 1_555
C58 C59 1_555 1_555
C62 C63 1_555 1_555

#END
