
#######################################################################
#
#                 Cambridge Crystallographic Data Centre
#                                CCDC 
#
#######################################################################
#
# If this CIF has been generated from an entry in the Cambridge 
# Structural Database, then it will include bibliographic, chemical, 
# crystal, experimental, refinement or atomic coordinate data resulting 
# from the CCDC's data processing and validation procedures.
#
#######################################################################

data_HEJNUH
_chemical_formula_moiety         'C18 H28 N2 O3'
_chemical_name_systematic        
N,N-Diethyl-N^2^-(4-methoxybenzoyl)leucinamide
_symmetry_cell_setting           orthorhombic
_symmetry_space_group_name_H-M   'P b c a'
_symmetry_Int_Tables_number      61
_space_group_name_Hall           '-P 2ac 2ab'
loop_
_symmetry_equiv_pos_site_id
_symmetry_equiv_pos_as_xyz
1 x,y,z
2 1/2-x,-y,1/2+z
3 -x,1/2+y,1/2-z
4 1/2+x,1/2-y,-z
5 -x,-y,-z
6 1/2+x,y,1/2-z
7 x,1/2-y,1/2+z
8 1/2-x,1/2+y,z
_cell_length_a                   10.1124(2)
_cell_length_b                   16.0981(4)
_cell_length_c                   21.7719(6)
_cell_angle_alpha                90
_cell_angle_beta                 90
_cell_angle_gamma                90
_cell_volume                     3544.26
_exptl_crystal_colour            colorless
_exptl_crystal_description       parallelepiped
_chemical_melting_point          '376 K'
_cell_formula_units_Z            8
_exptl_crystal_recrystallization_method hexane/dichloromethane
loop_
_atom_site_label
_atom_site_type_symbol
_atom_site_fract_x
_atom_site_fract_y
_atom_site_fract_z
O1 O 0.51431(8) 0.21213(5) 0.25435(4)
O2 O 0.32438(9) 0.00798(5) 0.02193(4)
O3 O 0.33018(9) 0.15260(5) 0.38250(5)
N1 N 0.29699(10) 0.22940(6) 0.26968(5)
H1 H 0.2146(16) 0.2180(8) 0.2618(7)
N2 N 0.45421(10) 0.25913(6) 0.41822(5)
C1 C 0.39908(11) 0.19735(7) 0.23802(6)
C2 C 0.37172(11) 0.14578(7) 0.18233(6)
C3 C 0.47956(12) 0.11540(7) 0.14871(6)
H2 H 0.5669 0.1264 0.1626
C4 C 0.46094(12) 0.06990(7) 0.09583(6)
H3 H 0.5351 0.0501 0.0734
C5 C 0.33337(12) 0.05298(7) 0.07534(6)
C6 C 0.22507(12) 0.08057(7) 0.10900(6)
H4 H 0.1379 0.0676 0.0958
C7 C 0.24473(12) 0.12693(7) 0.16173(6)
H5 H 0.1704 0.1462 0.1843
C8 C 0.19566(14) -0.00724(9) -0.00208(7)
H6 H 0.2029 -0.0396 -0.0401
H7 H 0.1520 0.0458 -0.0108
H8 H 0.1436 -0.0384 0.0281
C9 C 0.32311(11) 0.27903(7) 0.32424(6)
H9 H 0.3927 0.3211 0.3144
C10 C 0.37155(12) 0.22432(7) 0.37713(6)
C11 C 0.49346(13) 0.21055(8) 0.47200(6)
H10 H 0.5832 0.2277 0.4851
H11 H 0.4970 0.1510 0.4608
C12 C 0.39868(16) 0.22212(9) 0.52456(7)
H12 H 0.4282 0.1890 0.5598
H13 H 0.3102 0.2039 0.5121
H14 H 0.3958 0.2809 0.5361
C13 C 0.51273(13) 0.34227(8) 0.41208(6)
H15 H 0.5353 0.3637 0.4534
H16 H 0.4466 0.3803 0.3938
C14 C 0.63551(14) 0.34206(8) 0.37263(7)
H17 H 0.6708 0.3986 0.3698
H18 H 0.6133 0.3219 0.3314
H19 H 0.7021 0.3055 0.3911
C15 C 0.19761(12) 0.32429(7) 0.34554(6)
H20 H 0.1248 0.2833 0.3481
H21 H 0.2131 0.3460 0.3875
C16 C 0.15261(14) 0.39594(8) 0.30494(7)
H22 H 0.1448 0.3748 0.2619
C17 C 0.25007(18) 0.46794(9) 0.30494(8)
H23 H 0.3369 0.4482 0.2913
H24 H 0.2574 0.4906 0.3466
H25 H 0.2187 0.5114 0.2770
C18 C 0.01643(16) 0.42576(10) 0.32541(9)
H26 H -0.0123 0.4716 0.2990
H27 H 0.0210 0.4449 0.3681
H28 H -0.0469 0.3799 0.3223
loop_
_geom_bond_atom_site_label_1
_geom_bond_atom_site_label_2
_geom_bond_site_symmetry_1
_geom_bond_site_symmetry_2
O1 C1 1_555 1_555
O2 C5 1_555 1_555
O3 C10 1_555 1_555
N1 H1 1_555 1_555
N2 C10 1_555 1_555
C1 N1 1_555 1_555
C2 C1 1_555 1_555
C3 C2 1_555 1_555
H2 C3 1_555 1_555
C4 C3 1_555 1_555
H3 C4 1_555 1_555
C5 C4 1_555 1_555
C6 C5 1_555 1_555
H4 C6 1_555 1_555
C7 C2 1_555 1_555
H5 C7 1_555 1_555
C8 O2 1_555 1_555
H6 C8 1_555 1_555
H7 C8 1_555 1_555
H8 C8 1_555 1_555
C9 N1 1_555 1_555
H9 C9 1_555 1_555
C10 C9 1_555 1_555
C11 N2 1_555 1_555
H10 C11 1_555 1_555
H11 C11 1_555 1_555
C12 C11 1_555 1_555
H12 C12 1_555 1_555
H13 C12 1_555 1_555
H14 C12 1_555 1_555
C13 N2 1_555 1_555
H15 C13 1_555 1_555
H16 C13 1_555 1_555
C14 C13 1_555 1_555
H17 C14 1_555 1_555
H18 C14 1_555 1_555
H19 C14 1_555 1_555
C15 C9 1_555 1_555
H20 C15 1_555 1_555
H21 C15 1_555 1_555
C16 C15 1_555 1_555
H22 C16 1_555 1_555
C17 C16 1_555 1_555
H23 C17 1_555 1_555
H24 C17 1_555 1_555
H25 C17 1_555 1_555
C18 C16 1_555 1_555
H26 C18 1_555 1_555
H27 C18 1_555 1_555
H28 C18 1_555 1_555
C6 C7 1_555 1_555

#END
