
#######################################################################
#
#                 Cambridge Crystallographic Data Centre
#                                CCDC 
#
#######################################################################
#
# If this CIF has been generated from an entry in the Cambridge 
# Structural Database, then it will include bibliographic, chemical, 
# crystal, experimental, refinement or atomic coordinate data resulting 
# from the CCDC's data processing and validation procedures.
#
#######################################################################

data_HEJPIX
_chemical_formula_moiety         'C17 H25 N3 O4'
_chemical_name_systematic        N,N-Diethyl-N^2^-(2-nitrobenzoyl)leucinamide
_symmetry_cell_setting           monoclinic
_symmetry_space_group_name_H-M   'P 21/n'
_symmetry_Int_Tables_number      14
_space_group_name_Hall           '-P 2yn'
loop_
_symmetry_equiv_pos_site_id
_symmetry_equiv_pos_as_xyz
1 x,y,z
2 1/2-x,1/2+y,1/2-z
3 -x,-y,-z
4 1/2+x,1/2-y,1/2+z
_cell_length_a                   10.3883(3)
_cell_length_b                   14.8162(4)
_cell_length_c                   11.6216(3)
_cell_angle_alpha                90
_cell_angle_beta                 92.258(3)
_cell_angle_gamma                90
_cell_volume                     1787.35
_exptl_crystal_colour            colorless
_exptl_crystal_description       parallelepiped
_chemical_melting_point          '402 K'
_cell_formula_units_Z            4
_exptl_crystal_recrystallization_method hexane/dichloromethane
loop_
_atom_site_label
_atom_site_type_symbol
_atom_site_fract_x
_atom_site_fract_y
_atom_site_fract_z
O1 O 1.19893(8) -0.30790(6) 1.04688(8)
O2 O 1.04211(9) -0.28849(6) 0.92189(7)
O3 O 0.74743(9) -0.19149(6) 0.91947(8)
O4 O 0.83577(8) 0.06473(6) 0.95138(8)
N1 N 1.08893(10) -0.28344(6) 1.01989(9)
N2 N 0.92833(11) -0.10628(7) 0.92560(9)
H1 H 0.9981(14) -0.0900(8) 0.9667(11)
C1 C 1.00681(11) -0.25018(8) 1.11103(10)
C2 C 1.04549(12) -0.26966(8) 1.22364(11)
H2 H 1.1263 -0.2977 1.2405
C3 C 0.96497(13) -0.24775(8) 1.31087(11)
H3 H 0.9908 -0.2598 1.3887
C4 C 0.84710(13) -0.20846(9) 1.28551(12)
H4 H 0.7900 -0.1960 1.3454
C5 C 0.81186(12) -0.18710(8) 1.17251(11)
H5 H 0.7312 -0.1587 1.1561
C6 C 0.89191(12) -0.20631(7) 1.08251(10)
C7 C 0.85048(12) -0.16924(8) 0.96619(11)
C8 C 0.89456(12) -0.05348(8) 0.82389(11)
H6 H 0.8452 -0.0917 0.7666
C9 C 0.81230(13) 0.02695(8) 0.85852(12)
N3 N 0.7354(5) 0.0622(5) 0.7728(5)
C10 C 0.6571(8) 0.1400(7) 0.8084(7)
H7 H 0.6215 0.1713 0.7388
H8 H 0.7130 0.1832 0.8519
C11 C 0.5472(7) 0.1116(5) 0.8826(6)
H9 H 0.4979 0.1649 0.9041
H10 H 0.5821 0.0816 0.9522
H11 H 0.4906 0.0697 0.8392
C12 C 0.6542(3) 0.0069(2) 0.6947(3)
H12 H 0.5610 0.0187 0.7014
H13 H 0.6724 -0.0585 0.7018
C13 C 0.7084(4) 0.0483(3) 0.5893(3)
H14 H 0.6680 0.0205 0.5204
H15 H 0.8017 0.0380 0.5899
H16 H 0.6911 0.1133 0.5887
C14 C 1.01866(12) -0.01961(8) 0.77158(12)
H17 H 0.9953 0.0247 0.7105
H18 H 1.0702 0.0127 0.8321
C15 C 1.10292(13) -0.09206(9) 0.72038(12)
H19 H 1.1114 -0.1427 0.7770
C16 C 1.04348(14) -0.12976(10) 0.60855(13)
H20 H 0.9580 -0.1544 0.6227
H21 H 1.0987 -0.1777 0.5799
H22 H 1.0355 -0.0814 0.5512
C17 C 1.23703(14) -0.05448(10) 0.70192(16)
H23 H 1.2736 -0.0310 0.7750
H24 H 1.2313 -0.0057 0.6451
H25 H 1.2924 -0.1026 0.6739
C18? C 0.6251(7) 0.1274(6) 0.8395(7)
C19? C 0.5260(8) 0.0952(6) 0.9244(6)
C20? C 0.7212(3) 0.0365(2) 0.6515(3)
C21? C 0.5876(3) 0.00609(17) 0.6164(3)
H26? H 0.5803 0.1561 0.7723
H27? H 0.6824 0.1729 0.8771
H28? H 0.4755 0.1469 0.9498
H29? H 0.5706 0.0673 0.9912
H30? H 0.4685 0.0509 0.8866
H31? H 0.7445 0.0935 0.6131
H32? H 0.7864 -0.0103 0.6362
H33? H 0.5829 -0.0064 0.5335
H34? H 0.5258 0.0537 0.6340
H35? H 0.5667 -0.0489 0.6588
N4? N 0.7013(5) 0.0518(5) 0.8014(5)
loop_
_geom_bond_atom_site_label_1
_geom_bond_atom_site_label_2
_geom_bond_site_symmetry_1
_geom_bond_site_symmetry_2
O1 N1 1_555 1_555
O2 N1 1_555 1_555
O3 C7 1_555 1_555
O4 C9 1_555 1_555
N1 C1 1_555 1_555
N2 H1 1_555 1_555
C1 C2 1_555 1_555
C2 H2 1_555 1_555
C3 C2 1_555 1_555
H3 C3 1_555 1_555
C4 C3 1_555 1_555
H4 C4 1_555 1_555
C5 C4 1_555 1_555
H5 C5 1_555 1_555
C6 C1 1_555 1_555
C7 N2 1_555 1_555
C8 N2 1_555 1_555
H6 C8 1_555 1_555
C9 C8 1_555 1_555
N3 C9 1_555 1_555
C10 N3 1_555 1_555
H7 C10 1_555 1_555
H8 C10 1_555 1_555
C11 C10 1_555 1_555
H9 C11 1_555 1_555
H10 C11 1_555 1_555
H11 C11 1_555 1_555
C12 N3 1_555 1_555
H12 C12 1_555 1_555
H13 C12 1_555 1_555
C13 C12 1_555 1_555
H14 C13 1_555 1_555
H15 C13 1_555 1_555
H16 C13 1_555 1_555
C14 C8 1_555 1_555
H17 C14 1_555 1_555
H18 C14 1_555 1_555
C15 C14 1_555 1_555
H19 C15 1_555 1_555
C16 C15 1_555 1_555
H20 C16 1_555 1_555
H21 C16 1_555 1_555
H22 C16 1_555 1_555
C17 C15 1_555 1_555
H23 C17 1_555 1_555
H24 C17 1_555 1_555
H25 C17 1_555 1_555
C5 C6 1_555 1_555
C6 C7 1_555 1_555

#END
