
#######################################################################
#
#                 Cambridge Crystallographic Data Centre
#                                CCDC 
#
#######################################################################
#
# If this CIF has been generated from an entry in the Cambridge 
# Structural Database, then it will include bibliographic, chemical, 
# crystal, experimental, refinement or atomic coordinate data resulting 
# from the CCDC's data processing and validation procedures.
#
#######################################################################

data_HEJWAU
_chemical_formula_moiety         'C26 H27 O6 P1'
_chemical_name_systematic        
'Methyl 4,6-O-benzylidene-3-deoxy-3-C-diphenylphosphinyl-\a-D-altropyranoside'
_symmetry_cell_setting           orthorhombic
_symmetry_space_group_name_H-M   'P 21 21 21'
_symmetry_Int_Tables_number      19
_space_group_name_Hall           'P 2ac 2ab'
loop_
_symmetry_equiv_pos_site_id
_symmetry_equiv_pos_as_xyz
1 x,y,z
2 1/2+x,1/2-y,-z
3 -x,1/2+y,1/2-z
4 1/2-x,-y,1/2+z
_cell_length_a                   6.146(3)
_cell_length_b                   17.179(6)
_cell_length_c                   22.130(7)
_cell_angle_alpha                90
_cell_angle_beta                 90
_cell_angle_gamma                90
_cell_volume                     2336.53
_exptl_crystal_colour            colorless
_chemical_melting_point          267-269deg.C(dec.)
_cell_formula_units_Z            4
loop_
_atom_site_label
_atom_site_type_symbol
_atom_site_fract_x
_atom_site_fract_y
_atom_site_fract_z
P1 P 0.7990(3) 0.0703(1) 0.3954(1)
O1 O 0.6714(7) -0.1344(2) 0.3086(2)
O2 O 0.8127(8) -0.0209(3) 0.2650(2)
O3 O 0.2780(7) -0.0461(3) 0.3200(2)
O4 O 0.9258(10) -0.1882(3) 0.4513(2)
O5 O 0.7274(7) -0.0725(3) 0.4660(2)
O6 O 1.0251(7) 0.0392(2) 0.3934(2)
C1 C 0.5714(10) 0.0015(3) 0.3834(3)
C2 C 0.6219(11) -0.0791(4) 0.4086(3)
C3 C 0.7745(12) -0.1234(4) 0.3664(3)
C4 C 0.6231(11) -0.0620(4) 0.2800(3)
C5 C 0.4827(10) -0.0102(4) 0.3187(3)
C6 C 0.9264(13) -0.0512(4) 0.2133(3)
C7 C 0.8220(13) -0.2023(4) 0.3946(3)
C8 C 0.7873(14) -0.1458(4) 0.4910(3)
C9 C 0.9163(15) -0.1268(4) 0.5464(4)
C10 C 1.1153(14) -0.0918(5) 0.5425(4)
C11 C 1.2320(15) -0.0715(4) 0.5930(4)
C12 C 1.1434(17) -0.0858(5) 0.6486(5)
C13 C 0.9458(20) -0.1192(5) 0.6541(4)
C14 C 0.8292(14) -0.1397(4) 0.6030(4)
C15 C 0.7671(11) 0.1489(3) 0.3408(3)
C16 C 0.9498(13) 0.1639(4) 0.3050(3)
C17 C 0.9416(14) 0.2234(4) 0.2630(4)
C18 C 0.7542(14) 0.2667(4) 0.2551(3)
C19 C 0.5748(15) 0.2508(4) 0.2896(3)
C20 C 0.5803(13) 0.1918(4) 0.3324(3)
C21 C 0.7418(12) 0.1133(4) 0.4689(3)
C22 C 0.5443(13) 0.1466(4) 0.4835(3)
C23 C 0.5145(16) 0.1810(4) 0.5394(4)
C24 C 0.6782(15) 0.1788(4) 0.5812(4)
C25 C 0.8723(15) 0.1434(5) 0.5673(4)
C26 C 0.9081(13) 0.1108(4) 0.5113(3)
loop_
_geom_bond_atom_site_label_1
_geom_bond_atom_site_label_2
_geom_bond_site_symmetry_1
_geom_bond_site_symmetry_2
P1 O6 1_555 1_555
O1 C3 1_555 1_555
O2 C4 1_555 1_555
O3 C5 1_555 1_555
O4 C7 1_555 1_555
O5 C2 1_555 1_555
C1 P1 1_555 1_555
C2 C1 1_555 1_555
C3 C2 1_555 1_555
C4 O1 1_555 1_555
C5 C1 1_555 1_555
C6 O2 1_555 1_555
C7 C3 1_555 1_555
C8 O4 1_555 1_555
C9 C8 1_555 1_555
C10 C9 1_555 1_555
C11 C10 1_555 1_555
C12 C11 1_555 1_555
C13 C12 1_555 1_555
C14 C9 1_555 1_555
C15 P1 1_555 1_555
C16 C15 1_555 1_555
C17 C16 1_555 1_555
C18 C17 1_555 1_555
C19 C18 1_555 1_555
C20 C15 1_555 1_555
C21 P1 1_555 1_555
C22 C21 1_555 1_555
C23 C22 1_555 1_555
C24 C23 1_555 1_555
C25 C24 1_555 1_555
C26 C21 1_555 1_555
O5 C8 1_555 1_555
C4 C5 1_555 1_555
C13 C14 1_555 1_555
C19 C20 1_555 1_555
C25 C26 1_555 1_555

#END
