
#######################################################################
#
#                 Cambridge Crystallographic Data Centre
#                                CCDC 
#
#######################################################################
#
# If this CIF has been generated from an entry in the Cambridge 
# Structural Database, then it will include bibliographic, chemical, 
# crystal, experimental, refinement or atomic coordinate data resulting 
# from the CCDC's data processing and validation procedures.
#
#######################################################################

data_HEJXUP
_chemical_formula_moiety         'C39 H28 N4'
_chemical_name_systematic        
2,3:6,7-bis(3',6'-Diphenyl-4',5'-pyridazino)tetracyclo(6.3.0.0^4,11^.9^5,9^)undecane
_symmetry_cell_setting           monoclinic
_symmetry_space_group_name_H-M   'P 21/c'
_symmetry_Int_Tables_number      14
_space_group_name_Hall           '-P 2ybc'
loop_
_symmetry_equiv_pos_site_id
_symmetry_equiv_pos_as_xyz
1 x,y,z
2 -x,1/2+y,1/2-z
3 -x,-y,-z
4 x,1/2-y,1/2+z
_cell_length_a                   11.362(8)
_cell_length_b                   19.282(14)
_cell_length_c                   12.821(7)
_cell_angle_alpha                90
_cell_angle_beta                 101.79(5)
_cell_angle_gamma                90
_cell_volume                     2749.59
_exptl_crystal_colour            white
_chemical_melting_point          325-330deg.C(dec.)
_cell_formula_units_Z            4
loop_
_atom_site_label
_atom_site_type_symbol
_atom_site_fract_x
_atom_site_fract_y
_atom_site_fract_z
C1 C 0.1182(4) 0.6276(2) 0.5652(3)
C2 C 0.0913(4) 0.5890(2) 0.4586(4)
C3 C 0.1917(4) 0.5312(3) 0.4782(4)
C4 C 0.2578(4) 0.5474(2) 0.5926(4)
C5 C 0.3300(4) 0.6110(2) 0.5684(3)
C6 C 0.2296(4) 0.6692(2) 0.5497(3)
C7 C 0.1639(4) 0.5749(2) 0.6487(4)
C8 C 0.2917(4) 0.5394(2) 0.4161(4)
C9 C 0.3715(4) 0.5883(2) 0.4684(4)
C10 C 0.4752(4) 0.6026(2) 0.4303(4)
N1 N 0.4988(3) 0.5668(2) 0.3479(3)
N2 N 0.4242(3) 0.5183(2) 0.3000(3)
C11 C 0.3201(4) 0.5045(2) 0.3307(4)
C12 C 0.1120(4) 0.6453(2) 0.3821(4)
C13 C 0.1921(4) 0.6918(3) 0.4363(4)
C14 C 0.2238(4) 0.7489(3) 0.3797(4)
N3 N 0.1851(4) 0.7536(2) 0.2742(3)
N4 N 0.1078(4) 0.7076(2) 0.2224(3)
C15 C 0.0662(4) 0.6563(2) 0.2748(4)
C16 C 0.2498(4) 0.4478(3) 0.2737(4)
C17 C 0.1251(4) 0.4466(3) 0.2557(4)
C18 C 0.0619(5) 0.3922(3) 0.2027(4)
C19 C 0.1204(5) 0.3386(3) 0.1667(4)
C20 C 0.2433(5) 0.3392(3) 0.1844(4)
C21 C 0.3065(5) 0.3926(3) 0.2377(4)
C22 C 0.5681(4) 0.6524(2) 0.4791(4)
C23 C 0.6852(5) 0.6443(3) 0.4637(4)
C24 C 0.7730(5) 0.6898(3) 0.5081(5)
C25 C 0.7484(5) 0.7451(3) 0.5667(5)
C26 C 0.6350(5) 0.7545(3) 0.5812(4)
C27 C 0.5463(5) 0.7089(3) 0.5386(4)
C28 C -0.0319(4) 0.6166(3) 0.2110(4)
C29 C -0.0265(5) 0.5896(3) 0.1140(4)
C30 C -0.1217(6) 0.5533(3) 0.0553(4)
C31 C -0.2259(6) 0.5449(3) 0.0921(5)
C32 C -0.2338(5) 0.5732(3) 0.1880(5)
C33 C -0.1370(4) 0.6083(3) 0.2476(4)
C34 C 0.2945(4) 0.8071(2) 0.4324(4)
C35 C 0.2745(5) 0.8337(3) 0.5266(4)
C36 C 0.3411(6) 0.8876(3) 0.5780(4)
C37 C 0.4340(5) 0.9142(3) 0.5344(5)
C38 C 0.4541(5) 0.8889(3) 0.4402(5)
C39 C 0.3853(5) 0.8360(3) 0.3898(4)
H1 H 0.0625(26) 0.6556(14) 0.5836(22)
H2 H 0.0161(26) 0.5687(14) 0.4346(22)
H3 H 0.1587(32) 0.4814(19) 0.4705(28)
H4 H 0.3049(27) 0.5096(16) 0.6169(23)
H5 H 0.3932(26) 0.6252(15) 0.6279(22)
H6 H 0.2598(28) 0.7045(16) 0.6104(25)
H7 H 0.2035(35) 0.5953(20) 0.7249(31)
H8 H 0.1035(30) 0.5336(18) 0.6554(26)
H9 H 0.0832(30) 0.4863(17) 0.2751(25)
H10 H -0.0154(33) 0.3975(19) 0.1890(29)
H11 H 0.0776(39) 0.2892(22) 0.1367(34)
H12 H 0.2828(40) 0.3017(23) 0.1526(35)
H13 H 0.3935(29) 0.3948(16) 0.2635(24)
H14 H 0.6912(37) 0.6027(21) 0.4183(33)
H15 H 0.8544(35) 0.6849(19) 0.5057(30)
H16 H 0.8122(30) 0.7751(16) 0.5953(26)
H17 H 0.6144(35) 0.7920(20) 0.6277(31)
H18 H 0.4721(18) 0.7166(16) 0.5482(24)
H19 H 0.0440(31) 0.5956(18) 0.0946(27)
H20 H -0.1199(29) 0.5338(16) -0.0112(25)
H21 H -0.2998(45) 0.5175(25) 0.0493(38)
H22 H -0.3062(34) 0.5644(19) 0.2198(30)
H23 H -0.1409(35) 0.6355(20) 0.3068(31)
H24 H 0.2167(29) 0.8144(16) 0.5533(24)
H25 H 0.3272(46) 0.9050(26) 0.6484(40)
H26 H 0.4860(34) 0.9540(19) 0.5724(29)
H27 H 0.5175(40) 0.9044(23) 0.4138(37)
H28 H 0.3975(27) 0.8183(15) 0.3259(23)
loop_
_geom_bond_atom_site_label_1
_geom_bond_atom_site_label_2
_geom_bond_site_symmetry_1
_geom_bond_site_symmetry_2
C1 C2 1_555 1_555
C2 C3 1_555 1_555
C3 C4 1_555 1_555
C4 C5 1_555 1_555
C5 C6 1_555 1_555
C6 C1 1_555 1_555
C7 C1 1_555 1_555
C8 C3 1_555 1_555
C9 C5 1_555 1_555
C10 C9 1_555 1_555
N1 C10 1_555 1_555
N2 N1 1_555 1_555
C11 C8 1_555 1_555
C12 C2 1_555 1_555
C13 C6 1_555 1_555
C14 C13 1_555 1_555
N3 C14 1_555 1_555
N4 N3 1_555 1_555
C15 C12 1_555 1_555
C16 C11 1_555 1_555
C17 C16 1_555 1_555
C18 C17 1_555 1_555
C19 C18 1_555 1_555
C20 C19 1_555 1_555
C21 C16 1_555 1_555
C22 C10 1_555 1_555
C23 C22 1_555 1_555
C24 C23 1_555 1_555
C25 C24 1_555 1_555
C26 C25 1_555 1_555
C27 C22 1_555 1_555
C28 C15 1_555 1_555
C29 C28 1_555 1_555
C30 C29 1_555 1_555
C31 C30 1_555 1_555
C32 C31 1_555 1_555
C33 C28 1_555 1_555
C34 C14 1_555 1_555
C35 C34 1_555 1_555
C36 C35 1_555 1_555
C37 C36 1_555 1_555
C38 C37 1_555 1_555
C39 C34 1_555 1_555
H1 C1 1_555 1_555
H2 C2 1_555 1_555
H3 C3 1_555 1_555
H4 C4 1_555 1_555
H5 C5 1_555 1_555
H6 C6 1_555 1_555
H7 C7 1_555 1_555
H8 C7 1_555 1_555
H9 C17 1_555 1_555
H10 C18 1_555 1_555
H11 C19 1_555 1_555
H12 C20 1_555 1_555
H13 C21 1_555 1_555
H14 C23 1_555 1_555
H15 C24 1_555 1_555
H16 C25 1_555 1_555
H17 C26 1_555 1_555
H18 C27 1_555 1_555
H19 C29 1_555 1_555
H20 C30 1_555 1_555
H21 C31 1_555 1_555
H22 C32 1_555 1_555
H23 C33 1_555 1_555
H24 C35 1_555 1_555
H25 C36 1_555 1_555
H26 C37 1_555 1_555
H27 C38 1_555 1_555
H28 C39 1_555 1_555
C4 C7 1_555 1_555
C8 C9 1_555 1_555
N2 C11 1_555 1_555
C12 C13 1_555 1_555
N4 C15 1_555 1_555
C20 C21 1_555 1_555
C26 C27 1_555 1_555
C32 C33 1_555 1_555
C38 C39 1_555 1_555

#END
