
#######################################################################
#
#                 Cambridge Crystallographic Data Centre
#                                CCDC 
#
#######################################################################
#
# If this CIF has been generated from an entry in the Cambridge 
# Structural Database, then it will include bibliographic, chemical, 
# crystal, experimental, refinement or atomic coordinate data resulting 
# from the CCDC's data processing and validation procedures.
#
#######################################################################

data_HEJYIE
_chemical_formula_moiety         'C39 H30 N4'
_chemical_name_systematic        
3,4:10,11-bis(3',6'-Diphenyl-4',5'-pyridazino)tricyclo(6.3.0.0^2,6^)undecane
_symmetry_cell_setting           monoclinic
_symmetry_space_group_name_H-M   'P 21/n'
_symmetry_Int_Tables_number      14
_space_group_name_Hall           '-P 2yn'
loop_
_symmetry_equiv_pos_site_id
_symmetry_equiv_pos_as_xyz
1 x,y,z
2 1/2-x,1/2+y,1/2-z
3 -x,-y,-z
4 1/2+x,1/2-y,1/2+z
_cell_length_a                   16.133(4)
_cell_length_b                   7.976(2)
_cell_length_c                   22.081(2)
_cell_angle_alpha                90
_cell_angle_beta                 96.24(1)
_cell_angle_gamma                90
_cell_volume                     2824.48
_exptl_crystal_colour            colorless
_chemical_melting_point          248-249deg.C(dec.)
_cell_formula_units_Z            4
loop_
_atom_site_label
_atom_site_type_symbol
_atom_site_fract_x
_atom_site_fract_y
_atom_site_fract_z
N1 N 0.4811(2) -0.2391(5) 0.5461(2)
N2 N 0.5356(2) -0.1577(5) 0.5861(2)
N3 N 0.2855(2) -0.2675(4) 0.6900(2)
N4 N 0.2067(2) -0.2692(5) 0.6622(2)
C1 C 0.4059(3) -0.1683(5) 0.5269(2)
C2 C 0.3849(3) -0.0113(5) 0.5493(2)
C3 C 0.3147(3) 0.1084(6) 0.5287(2)
C4 C 0.3443(3) 0.2739(6) 0.5590(2)
C5 C 0.2792(3) 0.3890(6) 0.5816(2)
C6 C 0.2582(3) 0.3129(5) 0.6423(2)
C7 C 0.1803(3) 0.2004(6) 0.6349(2)
C8 C 0.2117(2) 0.0279(5) 0.6507(2)
C9 C 0.1692(3) -0.1256(5) 0.6443(2)
C10 C 0.3289(2) -0.1243(5) 0.6953(2)
C11 C 0.2955(2) 0.0281(5) 0.6727(2)
C12 C 0.3340(3) 0.1996(5) 0.6664(2)
C13 C 0.3980(3) 0.2181(5) 0.6172(2)
C14 C 0.4365(2) 0.0578(5) 0.5968(2)
C15 C 0.5146(3) -0.0150(5) 0.6128(2)
C16 C 0.3519(3) -0.2712(5) 0.4830(2)
C17 C 0.3869(3) -0.3874(6) 0.4466(2)
C18 C 0.3368(4) -0.4913(7) 0.4065(2)
C19 C 0.2523(4) -0.4769(7) 0.4034(2)
C20 C 0.2150(4) -0.3623(7) 0.4399(2)
C21 C 0.2657(3) -0.2600(6) 0.4791(2)
C22 C 0.0831(3) -0.1430(6) 0.6138(2)
C23 C 0.0195(3) -0.0370(7) 0.6266(3)
C24 C -0.0605(3) -0.0529(9) 0.5971(3)
C25 C -0.0773(4) -0.176(1) 0.5547(3)
C26 C -0.0153(4) -0.280(1) 0.5414(3)
C27 C 0.0643(3) -0.2679(7) 0.5708(3)
C28 C 0.4136(2) -0.1453(5) 0.7288(2)
C29 C 0.4387(3) -0.0431(6) 0.7781(2)
C30 C 0.5167(3) -0.0693(7) 0.8113(2)
C31 C 0.5689(3) -0.1947(7) 0.7942(2)
C32 C 0.5429(3) -0.2962(7) 0.7449(2)
C33 C 0.4651(3) -0.2743(6) 0.7134(2)
C34 C 0.5823(3) 0.0557(5) 0.6569(2)
C35 C 0.6653(3) 0.0102(6) 0.6514(2)
C36 C 0.7293(3) 0.0728(7) 0.6909(3)
C37 C 0.7132(3) 0.1840(7) 0.7366(3)
C38 C 0.6324(3) 0.2295(7) 0.7429(2)
C39 C 0.5676(3) 0.1674(6) 0.7026(2)
H1 H 0.304(2) 0.122(5) 0.484(2)
H2 H 0.262(2) 0.076(4) 0.544(1)
H3 H 0.381(2) 0.328(5) 0.529(2)
H4 H 0.227(2) 0.406(5) 0.549(2)
H5 H 0.304(3) 0.512(6) 0.595(2)
H6 H 0.248(2) 0.402(5) 0.668(2)
H7 H 0.138(2) 0.233(5) 0.662(2)
H8 H 0.149(3) 0.216(7) 0.584(3)
H9 H 0.362(2) 0.236(4) 0.706(1)
H10 H 0.438(2) 0.313(5) 0.630(2)
H11 H 0.404(2) 0.048(5) 0.788(2)
H12 H 0.449(2) -0.392(5) 0.448(2)
H13 H 0.369(3) -0.564(6) 0.382(2)
H14 H 0.218(3) -0.544(5) 0.385(2)
H15 H 0.148(2) -0.352(5) 0.443(2)
H16 H 0.236(3) -0.179(6) 0.500(2)
H17 H 0.035(3) 0.051(6) 0.655(2)
H18 H -0.107(3) 0.023(5) 0.610(2)
H19 H -0.134(4) -0.19(1) 0.539(3)
H20 H -0.025(3) -0.362(7) 0.502(2)
H21 H 0.113(2) -0.345(5) 0.567(2)
H22 H 0.532(3) 0.001(6) 0.845(2)
H23 H 0.624(2) -0.198(5) 0.820(2)
H24 H 0.586(3) -0.389(6) 0.734(2)
H25 H 0.446(2) -0.347(5) 0.680(2)
H26 H 0.671(3) -0.087(6) 0.619(2)
H27 H 0.788(3) 0.042(6) 0.676(2)
H28 H 0.764(3) 0.237(6) 0.767(2)
H29 H 0.620(3) 0.305(6) 0.782(2)
H30 H 0.508(2) 0.216(5) 0.705(2)
loop_
_geom_bond_atom_site_label_1
_geom_bond_atom_site_label_2
_geom_bond_site_symmetry_1
_geom_bond_site_symmetry_2
N1 N2 1_555 1_555
N2 C15 1_555 1_555
N3 N4 1_555 1_555
N4 C9 1_555 1_555
C1 N1 1_555 1_555
C2 C1 1_555 1_555
C3 C2 1_555 1_555
C4 C3 1_555 1_555
C5 C4 1_555 1_555
C6 C5 1_555 1_555
C7 C6 1_555 1_555
C8 C7 1_555 1_555
C9 C8 1_555 1_555
C10 N3 1_555 1_555
C11 C8 1_555 1_555
C12 C6 1_555 1_555
C13 C4 1_555 1_555
C14 C2 1_555 1_555
C15 C14 1_555 1_555
C16 C1 1_555 1_555
C17 C16 1_555 1_555
C18 C17 1_555 1_555
C19 C18 1_555 1_555
C20 C19 1_555 1_555
C21 C16 1_555 1_555
C22 C9 1_555 1_555
C23 C22 1_555 1_555
C24 C23 1_555 1_555
C25 C24 1_555 1_555
C26 C25 1_555 1_555
C27 C22 1_555 1_555
C28 C10 1_555 1_555
C29 C28 1_555 1_555
C30 C29 1_555 1_555
C31 C30 1_555 1_555
C32 C31 1_555 1_555
C33 C28 1_555 1_555
C34 C15 1_555 1_555
C35 C34 1_555 1_555
C36 C35 1_555 1_555
C37 C36 1_555 1_555
C38 C37 1_555 1_555
C39 C34 1_555 1_555
H1 C3 1_555 1_555
H2 C3 1_555 1_555
H3 C4 1_555 1_555
H4 C5 1_555 1_555
H5 C5 1_555 1_555
H6 C6 1_555 1_555
H7 C7 1_555 1_555
H8 C7 1_555 1_555
H9 C12 1_555 1_555
H10 C13 1_555 1_555
H11 C29 1_555 1_555
H12 C17 1_555 1_555
H13 C18 1_555 1_555
H14 C19 1_555 1_555
H15 C20 1_555 1_555
H16 C21 1_555 1_555
H17 C23 1_555 1_555
H18 C24 1_555 1_555
H19 C25 1_555 1_555
H20 C26 1_555 1_555
H21 C27 1_555 1_555
H22 C30 1_555 1_555
H23 C31 1_555 1_555
H24 C32 1_555 1_555
H25 C33 1_555 1_555
H26 C35 1_555 1_555
H27 C36 1_555 1_555
H28 C37 1_555 1_555
H29 C38 1_555 1_555
H30 C39 1_555 1_555
C10 C11 1_555 1_555
C11 C12 1_555 1_555
C12 C13 1_555 1_555
C13 C14 1_555 1_555
C20 C21 1_555 1_555
C26 C27 1_555 1_555
C32 C33 1_555 1_555
C38 C39 1_555 1_555

#END
