
#######################################################################
#
#                 Cambridge Crystallographic Data Centre
#                                CCDC 
#
#######################################################################
#
# If this CIF has been generated from an entry in the Cambridge 
# Structural Database, then it will include bibliographic, chemical, 
# crystal, experimental, refinement or atomic coordinate data resulting 
# from the CCDC's data processing and validation procedures.
#
#######################################################################

data_HEJYON
_chemical_formula_moiety         'C23 H24 N2 O2'
_chemical_name_systematic        
3-methyl-1,4-diphenyl-4,4a,5,6,7,8-hexahydro[1]benzopyrano[2,3-c]pyrazol-8a(1H)-ol
_symmetry_cell_setting           orthorhombic
_symmetry_space_group_name_H-M   'P 2 21 21'
_symmetry_Int_Tables_number      18
_space_group_name_Hall           'P 2bc 2'
loop_
_symmetry_equiv_pos_site_id
_symmetry_equiv_pos_as_xyz
1 x,y,z
2 -x,1/2-y,1/2+z
3 x,-y,-z
4 -x,1/2+y,1/2-z
_cell_length_a                   5.7189(11)
_cell_length_b                   12.5306(17)
_cell_length_c                   26.957(3)
_cell_angle_alpha                90
_cell_angle_beta                 90
_cell_angle_gamma                90
_cell_volume                     1931.77
_exptl_crystal_colour            white
_exptl_crystal_description       block
_cell_formula_units_Z            4
loop_
_atom_site_label
_atom_site_type_symbol
_atom_site_fract_x
_atom_site_fract_y
_atom_site_fract_z
O1 O 0.2680(19) 1.0050(6) 0.3083(4)
N1 N 0.450(2) 0.7719(8) 0.2465(5)
O2 O 0.612(2) 1.0992(7) 0.3251(4)
H1 H 0.5812 1.1425 0.3033
N2 N 0.308(2) 0.8615(8) 0.2540(4)
C1 C 0.588(3) 0.7701(10) 0.2878(4)
C2 C 0.405(3) 1.0614(11) 0.3462(5)
C3 C 0.371(3) 0.9102(9) 0.2944(5)
C4 C 0.665(3) 0.8047(11) 0.4067(5)
C5 C 0.540(3) 0.8548(9) 0.3175(5)
C6 C 0.159(3) 0.8960(11) 0.2132(6)
C7 C 0.502(4) 0.7287(12) 0.4134(6)
H2 H 0.3713 0.7280 0.3929
C8 C 0.569(3) 1.0414(11) 0.4326(5)
H3 H 0.6054 0.9904 0.4585
H4 H 0.7117 1.0782 0.4236
C9 C -0.059(3) 0.9435(13) 0.2279(5)
H5 H -0.1036 0.9477 0.2610
C10 C 0.332(4) 1.2035(11) 0.4116(5)
H6 H 0.2130 1.2520 0.4237
H7 H 0.4709 1.2450 0.4040
C11 C 0.065(4) 0.9220(14) 0.1277(6)
H8 H 0.1073 0.9164 0.0945
C12 C 0.213(3) 0.8816(12) 0.1662(5)
H9 H 0.3484 0.8448 0.1580
C13 C 0.635(3) 0.8934(11) 0.3674(5)
H10 H 0.7884 0.9257 0.3615
C14 C 0.390(4) 1.1224(11) 0.4521(6)
H11 H 0.2489 1.0855 0.4622
H12 H 0.4538 1.1589 0.4808
C15 C 0.471(3) 0.9812(10) 0.3864(5)
H13 H 0.3259 0.9461 0.3968
C16 C 0.247(3) 1.1494(10) 0.3654(6)
H14 H 0.2290 1.2028 0.3396
H15 H 0.0936 1.1194 0.3719
C17 C -0.142(4) 0.9694(14) 0.1415(8)
H16 H -0.2440 0.9925 0.1169
C18 C 0.875(5) 0.7265(16) 0.4739(7)
H17 H 1.0026 0.7288 0.4953
C19 C -0.203(3) 0.9838(13) 0.1891(8)
H18 H -0.3401 1.0202 0.1967
C20 C 0.861(4) 0.8042(15) 0.4370(7)
H19 H 0.9799 0.8542 0.4329
C21 C 0.718(5) 0.6491(14) 0.4805(7)
H20 H 0.7391 0.5964 0.5044
C22 C 0.524(4) 0.6505(12) 0.4503(6)
H21 H 0.4073 0.5997 0.4545
C23 C 0.777(3) 0.6821(11) 0.2916(6)
H22 H 0.8984 0.6960 0.2679
H23 H 0.7075 0.6139 0.2848
H24 H 0.8418 0.6819 0.3244
loop_
_geom_bond_atom_site_label_1
_geom_bond_atom_site_label_2
_geom_bond_site_symmetry_1
_geom_bond_site_symmetry_2
O1 C2 1_555 1_555
N1 N2 1_555 1_555
O2 H1 1_555 1_555
N2 C3 1_555 1_555
C1 N1 1_555 1_555
C2 O2 1_555 1_555
C3 O1 1_555 1_555
C4 C7 1_555 1_555
C5 C1 1_555 1_555
C6 N2 1_555 1_555
C7 H2 1_555 1_555
C8 H3 1_555 1_555
H4 C8 1_555 1_555
C9 C6 1_555 1_555
H5 C9 1_555 1_555
C10 H6 1_555 1_555
H7 C10 1_555 1_555
C11 H8 1_555 1_555
C12 C6 1_555 1_555
H9 C12 1_555 1_555
C13 C4 1_555 1_555
H10 C13 1_555 1_555
C14 C8 1_555 1_555
H11 C14 1_555 1_555
H12 C14 1_555 1_555
C15 C2 1_555 1_555
H13 C15 1_555 1_555
C16 C2 1_555 1_555
H14 C16 1_555 1_555
H15 C16 1_555 1_555
C17 C11 1_555 1_555
H16 C17 1_555 1_555
C18 H17 1_555 1_555
C19 C9 1_555 1_555
H18 C19 1_555 1_555
C20 C4 1_555 1_555
H19 C20 1_555 1_555
C21 C18 1_555 1_555
H20 C21 1_555 1_555
C22 C7 1_555 1_555
H21 C22 1_555 1_555
C23 C1 1_555 1_555
H22 C23 1_555 1_555
H23 C23 1_555 1_555
H24 C23 1_555 1_555
C3 C5 1_555 1_555
C5 C13 1_555 1_555
C8 C15 1_555 1_555
C10 C14 1_555 1_555
C10 C16 1_555 1_555
C11 C12 1_555 1_555
C13 C15 1_555 1_555
C17 C19 1_555 1_555
C18 C20 1_555 1_555
C21 C22 1_555 1_555

#END
