
#######################################################################
#
#                 Cambridge Crystallographic Data Centre
#                                CCDC 
#
#######################################################################
#
# If this CIF has been generated from an entry in the Cambridge 
# Structural Database, then it will include bibliographic, chemical, 
# crystal, experimental, refinement or atomic coordinate data resulting 
# from the CCDC's data processing and validation procedures.
#
#######################################################################

data_HEJZON
_chemical_name_common            'Calophyline A methanol solvate'
_chemical_formula_moiety         'C21 H22 N2 O4,2(C1 H4 O1)'
_chemical_name_systematic        
'14-Ethylidene-12-methyl-19-oxo-18-oxa-2-aza-12-azoniahexacyclo[10.6.2.0^1,9^.0^3,8^.0^9,16^.0^15,20^]icosa-3,5,7-triene-16-carboxylate methanol solvate'
_symmetry_cell_setting           orthorhombic
_symmetry_space_group_name_H-M   'P 21 21 21'
_symmetry_Int_Tables_number      19
_space_group_name_Hall           'P 2ac 2ab'
loop_
_symmetry_equiv_pos_site_id
_symmetry_equiv_pos_as_xyz
1 x,y,z
2 1/2-x,-y,1/2+z
3 1/2+x,1/2-y,-z
4 -x,1/2+y,1/2-z
_cell_length_a                   10.1186(3)
_cell_length_b                   12.1557(3)
_cell_length_c                   16.7470(4)
_cell_angle_alpha                90
_cell_angle_beta                 90
_cell_angle_gamma                90
_cell_volume                     2059.86
_exptl_crystal_colour            colorless
_exptl_crystal_description       block
_cell_formula_units_Z            4
loop_
_atom_site_label
_atom_site_type_symbol
_atom_site_fract_x
_atom_site_fract_y
_atom_site_fract_z
O1 O -1.21436(15) -0.37585(13) -0.22780(9)
O2 O -1.37086(16) -0.20809(13) -0.13574(10)
O3 O -0.81862(16) -0.41387(14) -0.26069(10)
O4 O -0.78304(16) -0.37956(13) -0.13154(9)
N1 N -1.2957(2) -0.43751(14) -0.10119(11)
H3 H -1.3795 -0.4309 -0.0880
N2 N -1.10852(19) -0.12094(14) -0.06984(10)
C1 C -1.2169(2) -0.35916(17) -0.14155(13)
C2 C -1.2584(2) -0.24036(18) -0.14236(12)
C3 C -1.1127(2) -0.21418(17) -0.00995(12)
H4 H -1.2061 -0.2355 -0.0014
H5 H -1.0778 -0.1870 0.0416
C4 C -1.0353(2) -0.31586(17) -0.03384(13)
H6 H -1.0425 -0.3696 0.0103
H7 H -0.9410 -0.2946 -0.0378
C5 C -1.0729(2) -0.37620(18) -0.11237(12)
C6 C -1.0796(2) -0.50008(18) -0.09556(13)
C7 C -0.9823(3) -0.57731(19) -0.08215(13)
H8 H -0.8917 -0.5580 -0.0873
C8 C -1.0185(3) -0.6837(2) -0.06103(15)
H9 H -0.9523 -0.7380 -0.0526
C9 C -1.1514(3) -0.7111(2) -0.05219(15)
H10 H -1.1746 -0.7840 -0.0372
C10 C -1.2505(3) -0.6343(2) -0.06473(13)
H11 H -1.3410 -0.6533 -0.0587
C11 C -1.2127(3) -0.52846(18) -0.08640(13)
C12 C -1.1413(2) -0.16198(17) -0.15431(13)
H12 H -1.1709 -0.0981 -0.1874
C13 C -1.0079(2) -0.20655(17) -0.18860(13)
H13 H -1.0030 -0.1835 -0.2458
C14 C -0.9962(2) -0.33615(18) -0.18629(12)
C15 C -1.0789(2) -0.38465(19) -0.25362(13)
H14 H -1.0650 -0.3430 -0.3037
H15 H -1.0549 -0.4626 -0.2629
C16 C -0.7011(3) -0.1626(2) -0.22848(15)
H16 H -0.7600 -0.2008 -0.2658
H17 H -0.6330 -0.2137 -0.2096
H18 H -0.6590 -0.1004 -0.2557
C17 C -0.7790(2) -0.12147(18) -0.15921(13)
H19 H -0.7323 -0.0767 -0.1222
C18 C -0.9050(2) -0.13941(17) -0.14267(13)
C19 C -0.9715(2) -0.07534(19) -0.07704(13)
H20 H -0.9229 -0.0843 -0.0261
H21 H -0.9746 0.0039 -0.0906
C20 C -0.8524(2) -0.37969(17) -0.19328(13)
C21 C -1.2033(3) -0.03212(18) -0.04422(14)
H22 H -1.1732 0.0000 0.0063
H23 H -1.2916 -0.0639 -0.0370
H24 H -1.2069 0.0252 -0.0853
O5 O -0.56407(18) -0.50661(14) -0.13635(11)
H1 H -0.6263 -0.4618 -0.1430
C22 C -0.6039(3) -0.6120(2) -0.16258(18)
H25 H -0.6206 -0.6100 -0.2202
H26 H -0.6848 -0.6337 -0.1346
H27 H -0.5338 -0.6653 -0.1511
O6 O -0.89126(17) -0.64339(15) 0.13749(11)
H2 H -0.8363 -0.6294 0.1737
C23 C -1.0068(3) -0.5807(2) 0.14977(18)
H28 H -1.0709 -0.5971 0.1076
H29 H -0.9846 -0.5022 0.1485
H30 H -1.0450 -0.5991 0.2018
loop_
_geom_bond_atom_site_label_1
_geom_bond_atom_site_label_2
_geom_bond_site_symmetry_1
_geom_bond_site_symmetry_2
O1 C1 1_555 1_555
O2 C2 1_555 1_555
O3 C20 1_555 1_555
O4 C20 1_555 1_555
O5 H1 1_555 1_555
O6 H2 1_555 1_555
N1 H3 1_555 1_555
N2 C3 1_555 1_555
C1 N1 1_555 1_555
C2 C1 1_555 1_555
C3 H4 1_555 1_555
H5 C3 1_555 1_555
C4 C3 1_555 1_555
H6 C4 1_555 1_555
H7 C4 1_555 1_555
C5 C1 1_555 1_555
C6 C5 1_555 1_555
C7 C6 1_555 1_555
H8 C7 1_555 1_555
C8 C7 1_555 1_555
H9 C8 1_555 1_555
C9 C8 1_555 1_555
H10 C9 1_555 1_555
C10 C9 1_555 1_555
H11 C10 1_555 1_555
C11 N1 1_555 1_555
C12 N2 1_555 1_555
H12 C12 1_555 1_555
C13 C12 1_555 1_555
H13 C13 1_555 1_555
C14 C5 1_555 1_555
C15 O1 1_555 1_555
H14 C15 1_555 1_555
H15 C15 1_555 1_555
C16 H16 1_555 1_555
H17 C16 1_555 1_555
H18 C16 1_555 1_555
C17 C16 1_555 1_555
H19 C17 1_555 1_555
C18 C13 1_555 1_555
C19 N2 1_555 1_555
H20 C19 1_555 1_555
H21 C19 1_555 1_555
C20 C14 1_555 1_555
C21 N2 1_555 1_555
H22 C21 1_555 1_555
H23 C21 1_555 1_555
H24 C21 1_555 1_555
C22 O5 1_555 1_555
H25 C22 1_555 1_555
H26 C22 1_555 1_555
H27 C22 1_555 1_555
C23 O6 1_555 1_555
H28 C23 1_555 1_555
H29 C23 1_555 1_555
H30 C23 1_555 1_555
C2 C12 1_555 1_555
C4 C5 1_555 1_555
C6 C11 1_555 1_555
C10 C11 1_555 1_555
C13 C14 1_555 1_555
C14 C15 1_555 1_555
C17 C18 1_555 1_555
C18 C19 1_555 1_555

#END
