
#######################################################################
#
#                 Cambridge Crystallographic Data Centre
#                                CCDC 
#
#######################################################################
#
# If this CIF has been generated from an entry in the Cambridge 
# Structural Database, then it will include bibliographic, chemical, 
# crystal, experimental, refinement or atomic coordinate data resulting 
# from the CCDC's data processing and validation procedures.
#
#######################################################################

data_HEKMUI
_chemical_compound_source        
'isolated from a deep-sea sediment strain Nocardiopsis sp'
_chemical_name_common            'nocapyrone O'
_chemical_formula_moiety         'C11 H12 O3'
_chemical_name_systematic        
(E)-3-methyl-6-(4-oxopent-2-en-2-yl)-2H-pyran-2-one
_chemical_properties_biological  
'cytotoxic activities against H1299, HeLa, HL7702, MCF-7, PC3 and U251 cell lines has been evaluated'
_symmetry_cell_setting           monoclinic
_symmetry_space_group_name_H-M   'P 21/c'
_symmetry_Int_Tables_number      14
_space_group_name_Hall           '-P 2ybc'
loop_
_symmetry_equiv_pos_site_id
_symmetry_equiv_pos_as_xyz
1 x,y,z
2 -x,1/2+y,1/2-z
3 -x,-y,-z
4 x,1/2-y,1/2+z
_cell_length_a                   7.2769(9)
_cell_length_b                   11.6180(11)
_cell_length_c                   12.3786(14)
_cell_angle_alpha                90
_cell_angle_beta                 106.092(9)
_cell_angle_gamma                90
_cell_volume                     1005.52
_exptl_crystal_colour            colorless
_cell_formula_units_Z            4
loop_
_atom_site_label
_atom_site_type_symbol
_atom_site_fract_x
_atom_site_fract_y
_atom_site_fract_z
O1 O 0.6701(7) 0.4274(4) 0.4184(4)
O2 O 0.5305(9) 0.3504(5) 0.2530(5)
O3 O 0.9904(12) 0.7595(6) 0.6516(6)
C1 C 0.7447(10) 0.4216(6) 0.5325(6)
C2 C 0.8308(10) 0.5282(7) 0.5840(6)
C3 C 0.5869(11) 0.3358(7) 0.3532(7)
C4 C 0.8171(11) 0.6238(7) 0.5212(7)
H1 H 0.7489 0.6164 0.4459
C5 C 0.5765(11) 0.2284(7) 0.4100(7)
C6 C 0.6480(12) 0.2238(7) 0.5222(7)
H2 H 0.6411 0.1553 0.5597
C7 C 0.7345(11) 0.3224(7) 0.5851(7)
H3 H 0.7837 0.3174 0.6628
C8 C 0.8957(12) 0.7381(8) 0.5562(7)
C9 C 0.8575(14) 0.8305(8) 0.4704(8)
H4 H 0.9279 0.8154 0.4168
H5 H 0.8966 0.9032 0.5063
H6 H 0.7232 0.8327 0.4325
C10 C 0.9328(15) 0.5240(9) 0.7069(7)
H7 H 1.0517 0.4837 0.7179
H8 H 0.8547 0.4846 0.7462
H9 H 0.9574 0.6009 0.7355
C11 C 0.4893(16) 0.1275(8) 0.3390(9)
H10 H 0.3541 0.1394 0.3095
H11 H 0.5119 0.0589 0.3840
H12 H 0.5460 0.1194 0.2780
loop_
_geom_bond_atom_site_label_1
_geom_bond_atom_site_label_2
_geom_bond_site_symmetry_1
_geom_bond_site_symmetry_2
O1 C1 1_555 1_555
O2 C3 1_555 1_555
O3 C8 1_555 1_555
C1 C2 1_555 1_555
C2 C4 1_555 1_555
C3 O1 1_555 1_555
C4 H1 1_555 1_555
C5 C3 1_555 1_555
C6 C5 1_555 1_555
H2 C6 1_555 1_555
C7 C1 1_555 1_555
H3 C7 1_555 1_555
C8 C4 1_555 1_555
C9 C8 1_555 1_555
H4 C9 1_555 1_555
H5 C9 1_555 1_555
H6 C9 1_555 1_555
C10 C2 1_555 1_555
H7 C10 1_555 1_555
H8 C10 1_555 1_555
H9 C10 1_555 1_555
C11 C5 1_555 1_555
H10 C11 1_555 1_555
H11 C11 1_555 1_555
H12 C11 1_555 1_555
C6 C7 1_555 1_555

#END
