
#######################################################################
#
#                 Cambridge Crystallographic Data Centre
#                                CCDC 
#
#######################################################################
#
# If this CIF has been generated from an entry in the Cambridge 
# Structural Database, then it will include bibliographic, chemical, 
# crystal, experimental, refinement or atomic coordinate data resulting 
# from the CCDC's data processing and validation procedures.
#
#######################################################################

data_HEKMEP02
_chemical_formula_moiety         'C24 H36 N2 Na2 O14 S2,H2 O1'
_chemical_name_systematic        
'bis(\m-6-(1-hydroxyethyl)-7-(oxo)-3-(tetrahydrofuran-2-yl)-4-thia-1-azabicyclo[3.2.0]hept-2-ene-2-carboxylato)-tetra-aqua-di-sodium monohydrate'
_symmetry_cell_setting           orthorhombic
_symmetry_space_group_name_H-M   'P 2 21 21'
_symmetry_Int_Tables_number      18
_space_group_name_Hall           'P 2bc 2'
loop_
_symmetry_equiv_pos_site_id
_symmetry_equiv_pos_as_xyz
1 x,y,z
2 -x,1/2-y,1/2+z
3 x,-y,-z
4 -x,1/2+y,1/2-z
_cell_length_a                   5.4998(3)
_cell_length_b                   9.2057(4)
_cell_length_c                   32.4371(12)
_cell_angle_alpha                90
_cell_angle_beta                 90
_cell_angle_gamma                90
_cell_volume                     1642.27
_cell_formula_units_Z            2
loop_
_atom_site_label
_atom_site_type_symbol
_atom_site_fract_x
_atom_site_fract_y
_atom_site_fract_z
S1 S -0.83411(15) -0.95546(7) -0.320241(19)
O1 O -1.4286(4) -1.1478(2) -0.41224(6)
H1 H -1.5141 -1.1955 -0.4279
O2 O -0.9057(3) -1.02388(19) -0.45345(5)
O3 O -1.0285(4) -0.67813(18) -0.44575(5)
O4 O -0.8274(5) -0.53699(19) -0.40129(6)
O5 O -0.4653(4) -0.7505(2) -0.29964(6)
N1 N -1.0357(4) -0.9109(2) -0.39195(6)
C1 C -0.7941(5) -0.7878(3) -0.34636(7)
C2 C -0.9107(5) -0.7787(2) -0.38248(7)
C3 C -1.0734(5) -1.0074(3) -0.35660(7)
H2 H -1.2379 -1.0034 -0.3450
C4 C -1.0292(5) -1.1387(3) -0.38575(7)
H3 H -0.8837 -1.1937 -0.3780
C5 C -0.9734(4) -1.0233(3) -0.41796(7)
C6 C -1.2403(5) -1.2377(3) -0.39610(8)
H4 H -1.1888 -1.3061 -0.4175
C7 C -1.3292(7) -1.3228(3) -0.35920(10)
H5 H -1.3783 -1.2567 -0.3379
H6 H -1.2006 -1.3837 -0.3491
H7 H -1.4652 -1.3819 -0.3671
C8 C -0.9226(5) -0.6537(3) -0.41188(7)
C9 C -0.6383(6) -0.6774(3) -0.32559(8)
H8 H -0.5516 -0.6204 -0.3465
C10 C -0.7797(8) -0.5752(4) -0.29726(10)
H9 H -0.7318 -0.4750 -0.3018
H10 H -0.9533 -0.5841 -0.3019
C11 C -0.7131(16) -0.6241(10) -0.2545(3)
H11 H -0.7123 -0.5434 -0.2353
H12 H -0.8232 -0.6985 -0.2446
C12 C -0.4624(9) -0.6832(5) -0.26106(11)
H13 H -0.3435 -0.6054 -0.2606
H14 H -0.4218 -0.7528 -0.2397
Na1 Na -0.8139(2) -0.81080(11) -0.49381(3)
O6 O -0.6599(4) -0.64389(19) -0.53956(5)
H15 H -0.5516 -0.5876 -0.5276
H16 H -0.7759 -0.5879 -0.5494
O7 O -0.4508(5) -0.8485(3) -0.46081(9)
H17 H -0.4618 -0.9227 -0.4443
H18 H -0.4118 -0.7724 -0.4463
S1B S -0.83411(15) -1.04454(7) -0.679759(19)
O1B O -1.4286(4) -0.8522(2) -0.58776(6)
H1B H -1.5141 -0.8045 -0.5721
O2B O -0.9057(3) -0.97612(19) -0.54655(5)
O3B O -1.0285(4) -1.32187(18) -0.55425(5)
O4B O -0.8274(5) -1.46301(19) -0.59871(6)
O5B O -0.4653(4) -1.2495(2) -0.70036(6)
N1B N -1.0357(4) -1.0891(2) -0.60805(6)
C1B C -0.7941(5) -1.2122(3) -0.65364(7)
C2B C -0.9107(5) -1.2213(2) -0.61752(7)
C3B C -1.0734(5) -0.9926(3) -0.64340(7)
H2B H -1.2379 -0.9966 -0.6550
C4B C -1.0292(5) -0.8613(3) -0.61425(7)
H3B H -0.8837 -0.8063 -0.6220
C5B C -0.9734(4) -0.9767(3) -0.58204(7)
C6B C -1.2403(5) -0.7623(3) -0.60390(8)
H4B H -1.1888 -0.6939 -0.5825
C7B C -1.3292(7) -0.6772(3) -0.64080(10)
H5B H -1.3783 -0.7433 -0.6621
H6B H -1.2006 -0.6163 -0.6509
H7B H -1.4652 -0.6181 -0.6329
C8B C -0.9226(5) -1.3463(3) -0.58812(7)
C9B C -0.6383(6) -1.3226(3) -0.67441(8)
H8B H -0.5516 -1.3796 -0.6535
C10B C -0.7797(8) -1.4248(4) -0.70274(10)
H9B H -0.7318 -1.5250 -0.6982
H10B H -0.9533 -1.4159 -0.6981
C11B C -0.7131(16) -1.3759(10) -0.7455(3)
H11B H -0.7123 -1.4566 -0.7647
H12B H -0.8232 -1.3015 -0.7554
C12B C -0.4624(9) -1.3168(5) -0.73894(11)
H13B H -0.3435 -1.3946 -0.7394
H14B H -0.4218 -1.2472 -0.7603
Na1B Na -0.8139(2) -1.18920(11) -0.50619(3)
O6B O -0.6599(4) -1.35611(19) -0.46044(5)
H15B H -0.5516 -1.4124 -0.4724
H16B H -0.7759 -1.4121 -0.4506
O7B O -0.4508(5) -1.1515(3) -0.53919(9)
H17B H -0.4618 -1.0773 -0.5557
H18B H -0.4118 -1.2276 -0.5537
O8 O -1.2699(6) -0.5000 -0.5000
H19 H -1.170(7) -0.551(4) -0.4810(11)
H19B H -1.170(7) -0.449(4) -0.5190(11)
H20? H -0.5220 -0.7507 -0.2404
H21? H -0.2963 -0.6580 -0.2540
C13? C -0.600(3) -0.5626(14) -0.2605(4)
H22? H -0.4992 -0.4768 -0.2635
H23? H -0.6886 -0.5556 -0.2347
loop_
_geom_bond_atom_site_label_1
_geom_bond_atom_site_label_2
_geom_bond_site_symmetry_1
_geom_bond_site_symmetry_2
S1 C1 1_555 1_555
O1 H1 1_555 1_555
O2 C5 1_555 1_555
O3 C8 1_555 1_555
O4 C8 1_555 1_555
O5 C9 1_555 1_555
N1 C2 1_555 1_555
C1 C2 1_555 1_555
C2 C8 1_555 1_555
C3 S1 1_555 1_555
H2 C3 1_555 1_555
C4 C3 1_555 1_555
H3 C4 1_555 1_555
C5 N1 1_555 1_555
C6 O1 1_555 1_555
H4 C6 1_555 1_555
C7 C6 1_555 1_555
H5 C7 1_555 1_555
H6 C7 1_555 1_555
H7 C7 1_555 1_555
C9 C1 1_555 1_555
H8 C9 1_555 1_555
C10 C9 1_555 1_555
H9 C10 1_555 1_555
H10 C10 1_555 1_555
C11 C10 1_555 1_555
H11 C11 1_555 1_555
H12 C11 1_555 1_555
C12 O5 1_555 1_555
H13 C12 1_555 1_555
H14 C12 1_555 1_555
Na1 O2 1_555 1_555
O6 Na1 1_555 1_555
H15 O6 1_555 1_555
H16 O6 1_555 1_555
O7 Na1 1_555 1_555
H17 O7 1_555 1_555
H18 O7 1_555 1_555
O8 H19 1_555 1_555
S1B C1B 1_555 1_555
O1B H1B 1_555 1_555
O2B Na1 1_555 1_555
O3B C8B 1_555 1_555
O4B C8B 1_555 1_555
O5B C9B 1_555 1_555
N1B C2B 1_555 1_555
C1B C2B 1_555 1_555
C2B C8B 1_555 1_555
C3B S1B 1_555 1_555
H2B C3B 1_555 1_555
C4B C3B 1_555 1_555
H3B C4B 1_555 1_555
C5B O2B 1_555 1_555
C6B O1B 1_555 1_555
H4B C6B 1_555 1_555
C7B C6B 1_555 1_555
H5B C7B 1_555 1_555
H6B C7B 1_555 1_555
H7B C7B 1_555 1_555
C9B C1B 1_555 1_555
H8B C9B 1_555 1_555
C10B C9B 1_555 1_555
H9B C10B 1_555 1_555
H10B C10B 1_555 1_555
C11B C10B 1_555 1_555
H11B C11B 1_555 1_555
H12B C11B 1_555 1_555
C12B O5B 1_555 1_555
H13B C12B 1_555 1_555
H14B C12B 1_555 1_555
Na1B O2 1_555 1_555
O6B Na1B 1_555 1_555
H15B O6B 1_555 1_555
H16B O6B 1_555 1_555
O7B Na1B 1_555 1_555
H17B O7B 1_555 1_555
H18B O7B 1_555 1_555
H19B O8 1_555 1_555
O3 Na1 1_555 1_555
N1 C3 1_555 1_555
C4 C5 1_555 1_555
C4 C6 1_555 1_555
C11 C12 1_555 1_555
O2B Na1B 1_555 1_555
O3B Na1B 1_555 1_555
N1B C3B 1_555 1_555
N1B C5B 1_555 1_555
C4B C5B 1_555 1_555
C4B C6B 1_555 1_555
C11B C12B 1_555 1_555

#END
