
#######################################################################
#
#                 Cambridge Crystallographic Data Centre
#                                CCDC 
#
#######################################################################
#
# If this CIF has been generated from an entry in the Cambridge 
# Structural Database, then it will include bibliographic, chemical, 
# crystal, experimental, refinement or atomic coordinate data resulting 
# from the CCDC's data processing and validation procedures.
#
#######################################################################

data_HEKMOC
_chemical_compound_source        
'isolated from the mangrove endophytic fungus Phomopsis longicolla HL-2232'
_chemical_name_common            'altersolanol B'
_chemical_formula_moiety         'C16 H16 O6'
_chemical_name_systematic        
2,3,5-trihydroxy-7-methoxy-2-methyl-1,2,3,4-tetrahydroanthracene-9,10-dione
_chemical_properties_biological  
'inhibitory activities tested against two Vibrio bacteria'
_symmetry_cell_setting           monoclinic
_symmetry_space_group_name_H-M   'P 21'
_symmetry_Int_Tables_number      4
_space_group_name_Hall           'P 2yb'
loop_
_symmetry_equiv_pos_site_id
_symmetry_equiv_pos_as_xyz
1 x,y,z
2 -x,1/2+y,-z
_cell_length_a                   9.4339(2)
_cell_length_b                   6.42878(13)
_cell_length_c                   10.9033(2)
_cell_angle_alpha                90
_cell_angle_beta                 97.679(2)
_cell_angle_gamma                90
_cell_volume                     655.338
_cell_formula_units_Z            2
loop_
_atom_site_label
_atom_site_type_symbol
_atom_site_fract_x
_atom_site_fract_y
_atom_site_fract_z
O1 O 0.98026(8) 0.13120(15) 0.79493(7)
H1 H 1.0236 0.0661 0.7444
O2 O 0.42914(8) 0.40525(15) 0.10614(7)
O3 O 0.28431(8) 0.41682(17) 0.49953(7)
H2 H 0.3171 0.4158 0.5750
O4 O 0.89473(8) 0.43302(16) 0.40273(7)
O5 O 0.47924(8) 0.41515(15) 0.69094(7)
O6 O 0.93196(9) 0.39133(15) 0.99178(7)
H3 H 0.9685 0.4875 1.0377
C1 C 0.47106(12) 0.4112(2) 0.22973(10)
C2 C 0.57361(12) 0.4172(2) 0.62188(10)
C3 C 1.01433(13) 0.3493(2) 0.79059(11)
C4 C 0.79842(11) 0.4249(2) 0.46758(10)
C5 C 0.98725(11) 0.4274(2) 0.65686(10)
H4 H 1.0229 0.5719 0.6538
H5 H 1.0420 0.3403 0.6049
C6 C 0.53761(11) 0.4171(2) 0.48748(10)
C7 C 0.64538(11) 0.4181(2) 0.41045(10)
C8 C 0.72671(11) 0.4191(2) 0.67655(10)
C9 C 0.61434(12) 0.4133(2) 0.28304(10)
H6 H 0.6890 0.4114 0.2325
C10 C 0.39346(12) 0.4161(2) 0.43112(11)
C11 C 0.83144(12) 0.4224(2) 0.60405(10)
C12 C 0.75642(11) 0.4167(2) 0.81493(10)
H7 H 0.7294 0.2789 0.8450
H8 H 0.6951 0.5221 0.8481
C13 C 0.91214(12) 0.4604(2) 0.86635(11)
H9 H 0.9299 0.6136 0.8642
C14 C 0.36109(11) 0.4141(2) 0.30329(11)
H10 H 0.2642 0.4148 0.2659
C15 C 0.54020(12) 0.4039(2) 0.02779(10)
H11 H 0.6001 0.2801 0.0456
H12 H 0.5992 0.5290 0.0434
H13 H 0.4971 0.4016 -0.0591
C16 C 1.16982(12) 0.3868(2) 0.84463(11)
H14 H 1.2330 0.3168 0.7932
H15 H 1.1868 0.3311 0.9290
H16 H 1.1896 0.5365 0.8464
loop_
_geom_bond_atom_site_label_1
_geom_bond_atom_site_label_2
_geom_bond_site_symmetry_1
_geom_bond_site_symmetry_2
O1 H1 1_555 1_555
O2 C1 1_555 1_555
O3 H2 1_555 1_555
O4 C4 1_555 1_555
O5 C2 1_555 1_555
O6 H3 1_555 1_555
C1 C9 1_555 1_555
C2 C6 1_555 1_555
C3 O1 1_555 1_555
C4 C7 1_555 1_555
C5 C3 1_555 1_555
H4 C5 1_555 1_555
H5 C5 1_555 1_555
C6 C7 1_555 1_555
C7 C9 1_555 1_555
C8 C2 1_555 1_555
C9 H6 1_555 1_555
C10 O3 1_555 1_555
C11 C4 1_555 1_555
C12 C8 1_555 1_555
H7 C12 1_555 1_555
H8 C12 1_555 1_555
C13 O6 1_555 1_555
H9 C13 1_555 1_555
C14 C1 1_555 1_555
H10 C14 1_555 1_555
C15 O2 1_555 1_555
H11 C15 1_555 1_555
H12 C15 1_555 1_555
H13 C15 1_555 1_555
C16 C3 1_555 1_555
H14 C16 1_555 1_555
H15 C16 1_555 1_555
H16 C16 1_555 1_555
C3 C13 1_555 1_555
C5 C11 1_555 1_555
C6 C10 1_555 1_555
C8 C11 1_555 1_555
C10 C14 1_555 1_555
C12 C13 1_555 1_555

#END
