
#######################################################################
#
#                 Cambridge Crystallographic Data Centre
#                                CCDC 
#
#######################################################################
#
# If this CIF has been generated from an entry in the Cambridge 
# Structural Database, then it will include bibliographic, chemical, 
# crystal, experimental, refinement or atomic coordinate data resulting 
# from the CCDC's data processing and validation procedures.
#
#######################################################################

data_HEKTUM01
_chemical_formula_moiety         'C14 H10 O4'
_chemical_name_systematic        'diphenyl oxalate'
_symmetry_cell_setting           monoclinic
_symmetry_space_group_name_H-M   'P 21/n'
_symmetry_Int_Tables_number      14
_space_group_name_Hall           '-P 2yn'
loop_
_symmetry_equiv_pos_site_id
_symmetry_equiv_pos_as_xyz
1 x,y,z
2 1/2-x,1/2+y,1/2-z
3 -x,-y,-z
4 1/2+x,1/2-y,1/2+z
_cell_length_a                   10.672(2)
_cell_length_b                   7.9578(16)
_cell_length_c                   14.092(3)
_cell_angle_alpha                90
_cell_angle_beta                 103.72(3)
_cell_angle_gamma                90
_cell_volume                     1162.62
_cell_formula_units_Z            4
loop_
_atom_site_label
_atom_site_type_symbol
_atom_site_fract_x
_atom_site_fract_y
_atom_site_fract_z
O1 O 0.71732(18) 0.0434(2) 0.67410(13)
O2 O 0.77361(17) 0.0437(2) 0.50722(13)
O3 O 0.5464(2) 0.2131(3) 0.62049(14)
C1 C 0.6625(3) 0.1190(3) 0.50583(19)
C2 C 0.9195(3) 0.1176(3) 0.40956(19)
H1 H 0.9607 0.1901 0.4589
C3 C 0.8135(3) 0.0272(3) 0.41865(18)
O4 O 0.5898(2) 0.1752(3) 0.43573(13)
C4 C 0.6340(3) 0.1313(3) 0.60679(18)
C5 C 0.9645(3) 0.0986(4) 0.3249(2)
H2 H 1.0357 0.1598 0.3173
C6 C 0.6983(3) 0.0376(3) 0.77052(19)
C7 C 0.7949(3) 0.1043(4) 0.8428(2)
H3 H 0.8649 0.1583 0.8276
C8 C 0.5924(3) -0.0417(4) 0.7884(2)
H4 H 0.5280 -0.0847 0.7379
C9 C 0.9037(3) -0.0104(4) 0.2528(2)
H5 H 0.9329 -0.0216 0.1960
C10 C 0.6807(3) 0.0096(4) 0.9600(2)
H6 H 0.6742 -0.0005 1.0244
C11 C 0.7997(3) -0.1024(4) 0.2648(2)
H7 H 0.7604 -0.1783 0.2167
C12 C 0.5849(3) -0.0554(4) 0.8856(2)
H8 H 0.5145 -0.1090 0.9004
C13 C 0.7859(3) 0.0893(4) 0.9399(2)
H9 H 0.8503 0.1327 0.9903
C14 C 0.7525(3) -0.0833(4) 0.3483(2)
H10 H 0.6812 -0.1443 0.3561
loop_
_geom_bond_atom_site_label_1
_geom_bond_atom_site_label_2
_geom_bond_site_symmetry_1
_geom_bond_site_symmetry_2
O1 C4 1_555 1_555
O2 C1 1_555 1_555
O3 C4 1_555 1_555
C1 O4 1_555 1_555
C2 H1 1_555 1_555
C3 O2 1_555 1_555
C4 C1 1_555 1_555
C5 C2 1_555 1_555
H2 C5 1_555 1_555
C6 O1 1_555 1_555
C7 C6 1_555 1_555
H3 C7 1_555 1_555
C8 C6 1_555 1_555
H4 C8 1_555 1_555
C9 C5 1_555 1_555
H5 C9 1_555 1_555
C10 H6 1_555 1_555
C11 C9 1_555 1_555
H7 C11 1_555 1_555
C12 C8 1_555 1_555
H8 C12 1_555 1_555
C13 C7 1_555 1_555
H9 C13 1_555 1_555
C14 C3 1_555 1_555
H10 C14 1_555 1_555
C2 C3 1_555 1_555
C10 C12 1_555 1_555
C10 C13 1_555 1_555
C11 C14 1_555 1_555

#END
