
#######################################################################
#
#                 Cambridge Crystallographic Data Centre
#                                CCDC 
#
#######################################################################
#
# If this CIF has been generated from an entry in the Cambridge 
# Structural Database, then it will include bibliographic, chemical, 
# crystal, experimental, refinement or atomic coordinate data resulting 
# from the CCDC's data processing and validation procedures.
#
#######################################################################

data_HELHUD01
_chemical_formula_moiety         'C7 H7 O3 S1 1-,C1 H7 N4 1+'
_chemical_name_systematic        
'amino(hydrazinyl)methaniminium 4-methylbenzene-1-sulfonate'
_symmetry_cell_setting           triclinic
_symmetry_space_group_name_H-M   'P -1'
_symmetry_Int_Tables_number      2
_space_group_name_Hall           '-P 1'
loop_
_symmetry_equiv_pos_site_id
_symmetry_equiv_pos_as_xyz
1 x,y,z
2 -x,-y,-z
_cell_length_a                   5.9203(5)
_cell_length_b                   7.5439(7)
_cell_length_c                   25.646(2)
_cell_angle_alpha                93.670(7)
_cell_angle_beta                 93.091(7)
_cell_angle_gamma                92.581(7)
_cell_volume                     1140.04
_exptl_crystal_colour            'pale brown'
_exptl_crystal_description       block
_cell_formula_units_Z            4
loop_
_atom_site_label
_atom_site_type_symbol
_atom_site_fract_x
_atom_site_fract_y
_atom_site_fract_z
S1 S 0.3120(2) 0.03380(14) 0.39472(4)
C1 C 0.4138(7) 0.0192(5) 0.33155(16)
O1 O 0.5098(6) 0.0495(4) 0.43093(12)
O2 O 0.1791(6) 0.1885(4) 0.39841(12)
O3 O 0.1803(6) -0.1298(4) 0.39949(13)
C2 C 0.2873(8) 0.0750(6) 0.29032(19)
H1 H 0.1500 0.1267 0.2957
C3 C 0.6160(8) -0.0558(6) 0.32394(19)
H2 H 0.7042 -0.0920 0.3521
C4 C 0.3634(10) 0.0544(7) 0.2408(2)
H3 H 0.2777 0.0948 0.2129
C5 C 0.6869(9) -0.0768(7) 0.2734(2)
H4 H 0.8240 -0.1286 0.2679
C6 C 0.6473(12) -0.0470(9) 0.1782(2)
H5 H 0.6100 -0.1660 0.1638
H6 H 0.8087 -0.0255 0.1799
H7 H 0.5777 0.0360 0.1562
C7 C 0.5630(9) -0.0245(7) 0.2315(2)
S2 S 0.1869(2) 0.47031(14) 0.10564(5)
C8 C 0.2254(8) 0.5558(6) 0.21030(18)
H8 H 0.3689 0.6034 0.2046
C9 C 0.1526(9) 0.5578(7) 0.26006(19)
H9 H 0.2468 0.6088 0.2877
C10 C -0.1251(8) 0.4164(6) 0.17774(19)
H10 H -0.2218 0.3699 0.1499
C11 C 0.0873(7) 0.4838(5) 0.16875(18)
C12 C -0.0571(8) 0.4859(6) 0.27003(18)
O4 O 0.3178(6) 0.6341(4) 0.09967(14)
O5 O -0.0117(6) 0.4502(4) 0.06971(14)
C13 C -0.1941(9) 0.4179(7) 0.2279(2)
H11 H -0.3382 0.3715 0.2335
O6 O 0.3225(6) 0.3161(4) 0.10163(16)
C14 C -0.1365(10) 0.4866(8) 0.3251(2)
H12 H -0.0909 0.3808 0.3408
H13 H -0.2986 0.4902 0.3240
H14 H -0.0705 0.5892 0.3454
N1 N 0.6844(6) 0.7139(5) 0.45622(14)
H15 H 0.6137 0.8075 0.4493
C15 C 0.5948(8) 0.5545(6) 0.44163(15)
N2 N 0.8968(7) 0.7285(5) 0.48326(15)
N3 N 0.7019(7) 0.4133(5) 0.45213(14)
H16 H 0.8324 0.4236 0.4687
H17 H 0.6423 0.3096 0.4425
N4 N 0.3962(7) 0.5409(5) 0.41445(15)
H18 H 0.3375 0.4379 0.4036
H19 H 0.3266 0.6351 0.4077
H20 H 0.985(9) 0.793(7) 0.465(2)
H21 H 0.884(9) 0.781(7) 0.515(2)
N5 N 0.6044(7) 0.7727(5) 0.01738(17)
H22 H 0.6191 0.7146 -0.0121
H23 H 0.5080 0.7162 0.0349
C16 C 0.9062(8) 0.9501(6) 0.05941(18)
N6 N 0.8144(7) 0.7896(5) 0.04495(18)
H24 H 0.8843 0.6963 0.0526
N7 N 0.7992(7) 1.0903(5) 0.04704(16)
H25 H 0.8585 1.1948 0.0558
H26 H 0.6694 1.0781 0.0301
N8 N 1.1024(7) 0.9644(5) 0.08492(18)
H27 H 1.1644 1.0679 0.0940
H28 H 1.1703 0.8705 0.0927
loop_
_geom_bond_atom_site_label_1
_geom_bond_atom_site_label_2
_geom_bond_site_symmetry_1
_geom_bond_site_symmetry_2
S1 C1 1_555 1_555
C1 C2 1_555 1_555
O1 S1 1_555 1_555
O2 S1 1_555 1_555
O3 S1 1_555 1_555
C2 H1 1_555 1_555
C3 C1 1_555 1_555
H2 C3 1_555 1_555
C4 C2 1_555 1_555
H3 C4 1_555 1_555
C5 C3 1_555 1_555
H4 C5 1_555 1_555
C6 H5 1_555 1_555
H6 C6 1_555 1_555
H7 C6 1_555 1_555
C7 C4 1_555 1_555
S2 C11 1_555 1_555
C8 H8 1_555 1_555
C9 C8 1_555 1_555
H9 C9 1_555 1_555
C10 H10 1_555 1_555
C11 C8 1_555 1_555
C12 C9 1_555 1_555
O4 S2 1_555 1_555
O5 S2 1_555 1_555
C13 C10 1_555 1_555
H11 C13 1_555 1_555
O6 S2 1_555 1_555
C14 C12 1_555 1_555
H12 C14 1_555 1_555
H13 C14 1_555 1_555
H14 C14 1_555 1_555
N1 H15 1_555 1_555
C15 N1 1_555 1_555
N2 N1 1_555 1_555
N3 C15 1_555 1_555
H16 N3 1_555 1_555
H17 N3 1_555 1_555
N4 C15 1_555 1_555
H18 N4 1_555 1_555
H19 N4 1_555 1_555
H20 N2 1_555 1_555
H21 N2 1_555 1_555
N5 H22 1_555 1_555
H23 N5 1_555 1_555
C16 N6 1_555 1_555
N6 N5 1_555 1_555
H24 N6 1_555 1_555
N7 C16 1_555 1_555
H25 N7 1_555 1_555
H26 N7 1_555 1_555
N8 C16 1_555 1_555
H27 N8 1_555 1_555
H28 N8 1_555 1_555
C5 C7 1_555 1_555
C6 C7 1_555 1_555
C10 C11 1_555 1_555
C12 C13 1_555 1_555

#END
