
#######################################################################
#
#                 Cambridge Crystallographic Data Centre
#                                CCDC 
#
#######################################################################
#
# If this CIF has been generated from an entry in the Cambridge 
# Structural Database, then it will include bibliographic, chemical, 
# crystal, experimental, refinement or atomic coordinate data resulting 
# from the CCDC's data processing and validation procedures.
#
#######################################################################

data_HELLUI
_chemical_formula_moiety         'C3 N8 O6'
_chemical_name_systematic        
5-diazonio-3-(trinitromethyl)-1,2,4-triazol-1-ide
_symmetry_cell_setting           orthorhombic
_symmetry_space_group_name_H-M   'P 21 21 2'
_symmetry_Int_Tables_number      18
_space_group_name_Hall           'P 2 2ab'
loop_
_symmetry_equiv_pos_site_id
_symmetry_equiv_pos_as_xyz
1 x,y,z
2 -x,-y,z
3 1/2-x,1/2+y,-z
4 1/2+x,1/2-y,-z
_cell_length_a                   7.7188(10)
_cell_length_b                   16.867(2)
_cell_length_c                   6.4384(8)
_cell_angle_alpha                90
_cell_angle_beta                 90
_cell_angle_gamma                90
_cell_volume                     838.235
_exptl_crystal_colour            colorless
_exptl_crystal_description       block
_cell_formula_units_Z            4
loop_
_atom_site_label
_atom_site_type_symbol
_atom_site_fract_x
_atom_site_fract_y
_atom_site_fract_z
O1 O 0.1863(2) 0.53972(9) 0.8606(2)
O2 O 0.1924(2) 0.50210(9) 0.5365(3)
O3 O 0.5074(2) 0.58935(9) 0.3794(2)
O4 O 0.2691(3) 0.63941(11) 0.2560(2)
O5 O 0.0047(2) 0.66337(10) 0.6525(3)
O6 O 0.1890(2) 0.75442(9) 0.5566(2)
N1 N 0.5552(2) 0.60074(11) 0.8292(3)
N2 N 0.4477(2) 0.72585(10) 0.8513(3)
N3 N 0.5855(2) 0.72371(11) 0.9783(3)
N4 N 0.7816(2) 0.62117(10) 1.0697(3)
N5 N 0.8906(2) 0.59811(12) 1.1602(3)
N6 N 0.2190(2) 0.54839(10) 0.6772(3)
N7 N 0.3646(2) 0.61895(10) 0.3947(3)
N8 N 0.1483(2) 0.68791(10) 0.6092(3)
C1 C 0.6415(3) 0.64946(12) 0.9559(3)
C2 C 0.4352(3) 0.65244(12) 0.7685(3)
C3 C 0.2979(2) 0.62882(11) 0.6187(3)
loop_
_geom_bond_atom_site_label_1
_geom_bond_atom_site_label_2
_geom_bond_site_symmetry_1
_geom_bond_site_symmetry_2
O1 N6 1_555 1_555
O2 N6 1_555 1_555
O3 N7 1_555 1_555
O4 N7 1_555 1_555
O5 N8 1_555 1_555
O6 N8 1_555 1_555
N1 C1 1_555 1_555
N2 N3 1_555 1_555
N3 C1 1_555 1_555
N4 N5 1_555 1_555
N6 C3 1_555 1_555
N7 C3 1_555 1_555
N8 C3 1_555 1_555
C1 N4 1_555 1_555
C2 N1 1_555 1_555
C3 C2 1_555 1_555
N2 C2 1_555 1_555

#END
