
#######################################################################
#
#                 Cambridge Crystallographic Data Centre
#                                CCDC 
#
#######################################################################
#
# If this CIF has been generated from an entry in the Cambridge 
# Structural Database, then it will include bibliographic, chemical, 
# crystal, experimental, refinement or atomic coordinate data resulting 
# from the CCDC's data processing and validation procedures.
#
#######################################################################

data_HELWEA
_chemical_formula_moiety         'C75 H14 O2,2(C1 H1 Cl3)'
_chemical_name_systematic        
'(3,4-Dimethoxyphenyl)phenylmethanoC60fullerene chloroform clathrate'
_symmetry_cell_setting           monoclinic
_symmetry_space_group_name_H-M   'P 21/n'
_symmetry_Int_Tables_number      14
_space_group_name_Hall           '-P 2yn'
loop_
_symmetry_equiv_pos_site_id
_symmetry_equiv_pos_as_xyz
1 x,y,z
2 1/2-x,1/2+y,1/2-z
3 -x,-y,-z
4 1/2+x,1/2-y,1/2+z
_cell_length_a                   10.796(1)
_cell_length_b                   18.369(1)
_cell_length_c                   24.007(1)
_cell_angle_alpha                90
_cell_angle_beta                 101.69(1)
_cell_angle_gamma                90
_cell_volume                     4662.12
_exptl_crystal_colour            black
_chemical_melting_point          'above 250deg.C'
_cell_formula_units_Z            4
loop_
_atom_site_label
_atom_site_type_symbol
_atom_site_fract_x
_atom_site_fract_y
_atom_site_fract_z
C1 C 0.5159(4) 0.2490(2) 0.2159(2)
C2 C 0.4222(5) 0.2642(3) 0.1628(2)
C3 C 0.4295(5) 0.2361(3) 0.1109(2)
C4 C 0.5232(5) 0.1817(4) 0.1049(2)
C5 C 0.6097(5) 0.1568(3) 0.1517(2)
C6 C 0.6220(4) 0.1895(3) 0.2092(2)
C7 C 0.6294(5) 0.1257(3) 0.2484(2)
C8 C 0.5638(6) 0.1219(3) 0.2916(2)
C9 C 0.4672(5) 0.1761(3) 0.2970(2)
C10 C 0.4418(5) 0.2324(3) 0.2598(2)
C11 C 0.3123(5) 0.2527(3) 0.2367(3)
C12 C 0.3000(5) 0.2714(3) 0.1780(3)
C13 C 0.1887(5) 0.2554(3) 0.1383(4)
C14 C 0.1958(7) 0.2276(4) 0.0844(3)
C15 C 0.3137(6) 0.2174(4) 0.0703(3)
C16 C 0.3351(7) 0.1530(5) 0.0405(2)
C17 C 0.4657(7) 0.1301(5) 0.0609(2)
C18 C 0.4962(7) 0.0565(5) 0.0670(3)
C19 C 0.5821(6) 0.0306(4) 0.1160(3)
C20 C 0.6349(5) 0.0811(4) 0.1578(3)
C21 C 0.6463(5) 0.0608(3) 0.2174(3)
C22 C 0.6054(6) -0.0065(3) 0.2331(4)
C23 C 0.5372(7) -0.0110(4) 0.2788(3)
C24 C 0.5155(7) 0.0525(4) 0.3071(3)
C25 C 0.3951(8) 0.0641(4) 0.3220(2)
C26 C 0.3640(7) 0.1393(4) 0.3152(2)
C27 C 0.2391(7) 0.1606(4) 0.2953(3)
C28 C 0.2150(6) 0.2183(4) 0.2557(3)
C29 C 0.0989(5) 0.2012(4) 0.2135(4)
C30 C 0.0866(6) 0.2195(4) 0.1580(4)
C31 C 0.0315(6) 0.1684(4) 0.1147(4)
C32 C 0.0970(6) 0.1732(4) 0.0698(3)
C33 C 0.1209(7) 0.1122(5) 0.0401(3)
C34 C 0.2426(8) 0.0989(5) 0.0255(2)
C35 C 0.2737(8) 0.0240(5) 0.0306(3)
C36 C 0.3971(8) 0.0021(5) 0.0514(3)
C37 C 0.4224(7) -0.0566(5) 0.0915(4)
C38 C 0.5389(6) -0.0399(4) 0.1336(4)
C39 C 0.5495(7) -0.0576(4) 0.1898(4)
C40 C 0.4486(7) -0.0937(3) 0.2088(4)
C41 C 0.4378(8) -0.0645(4) 0.2639(4)
C42 C 0.3225(8) -0.0537(4) 0.2779(3)
C43 C 0.3010(8) 0.0113(4) 0.3075(2)
C44 C 0.1722(7) 0.0332(4) 0.2867(3)
C45 C 0.1419(7) 0.1062(4) 0.2801(3)
C46 C 0.0553(6) 0.1319(4) 0.2305(3)
C47 C -0.0014(6) 0.0829(3) 0.1881(3)
C48 C -0.0112(5) 0.1013(4) 0.1300(3)
C49 C 0.0108(5) 0.0362(4) 0.0993(3)
C50 C 0.0759(7) 0.0414(4) 0.0554(3)
C51 C 0.1703(7) -0.0122(5) 0.0500(3)
C52 C 0.1939(7) -0.0688(4) 0.0885(3)
C53 C 0.3244(7) -0.0923(4) 0.1103(4)
C54 C 0.3360(7) -0.1107(3) 0.1700(3)
C55 C 0.2147(7) -0.0986(3) 0.1856(3)
C56 C 0.2075(7) -0.0715(4) 0.2371(3)
C57 C 0.1138(7) -0.0183(4) 0.2430(3)
C58 C 0.0298(6) 0.0062(4) 0.1948(3)
C59 C 0.0376(6) -0.0226(3) 0.1397(3)
C60 C 0.1280(6) -0.0731(3) 0.1341(3)
C61 C 0.6554(4) 0.2674(3) 0.2258(2)
C62 C 0.7008(5) 0.3143(3) 0.1832(2)
C63 C 0.6564(5) 0.3845(3) 0.1721(2)
C64 C 0.7024(5) 0.4296(3) 0.1353(2)
C65 C 0.8002(5) 0.4042(3) 0.1097(2)
C66 C 0.8445(5) 0.3355(3) 0.1202(2)
C67 C 0.7967(5) 0.2906(3) 0.1572(2)
C68 C 0.7219(5) 0.2787(3) 0.2871(2)
C69 C 0.6742(5) 0.3247(3) 0.3233(2)
C70 C 0.7347(6) 0.3334(4) 0.3781(3)
C71 C 0.8478(7) 0.2989(4) 0.3981(3)
C72 C 0.8992(6) 0.2541(4) 0.3635(3)
C73 C 0.8377(5) 0.2449(3) 0.3069(2)
O1 O 0.6658(4) 0.4994(2) 0.1219(2)
C74 C 0.5807(6) 0.5316(3) 0.1505(3)
O2 O 0.8419(4) 0.4530(2) 0.0750(2)
C75 C 0.9633(6) 0.4387(4) 0.0608(3)
H1 H 0.5935(5) 0.4018(3) 0.1900(2)
H2 H 0.9076(5) 0.3183(3) 0.1024(2)
H3 H 0.8294(5) 0.2440(3) 0.1646(2)
H4 H 0.5995(5) 0.3500(3) 0.3097(2)
H5 H 0.6994(6) 0.3628(4) 0.4023(3)
H6 H 0.8897(7) 0.3061(4) 0.4355(3)
H7 H 0.9747(6) 0.2298(4) 0.3775(3)
H8 H 0.8740(5) 0.2163(3) 0.2825(2)
H9 H 0.5662(30) 0.5811(7) 0.1381(13)
H10 H 0.6146(18) 0.5306(20) 0.1907(3)
H11 H 0.5022(14) 0.5053(14) 0.1425(14)
H12 H 0.9928(19) 0.4819(8) 0.0450(17)
H13 H 0.9551(10) 0.4000(16) 0.0334(14)
H14 H 1.0229(12) 0.4248(23) 0.0945(4)
C76 C 0.6890(6) 0.5802(4) 0.0065(3)
Cl1 Cl 0.8046(2) 0.6396(1) 0.0421(1)
Cl2 Cl 0.5405(2) 0.6194(2) -0.0021(1)
Cl3 Cl 0.7219(2) 0.5601(1) -0.0605(1)
H15 H 0.6907(6) 0.5352(4) 0.0285(3)
C77 C 0.7596(7) 0.2664(4) -0.0558(3)
Cl4 Cl 0.7099(3) 0.2239(2) -0.0010(1)
Cl5 Cl 0.9183(2) 0.2512(1) -0.0549(1)
Cl6 Cl 0.7266(2) 0.3598(1) -0.0575(1)
H16 H 0.7116(7) 0.2454(4) -0.0912(3)
loop_
_geom_bond_atom_site_label_1
_geom_bond_atom_site_label_2
_geom_bond_site_symmetry_1
_geom_bond_site_symmetry_2
C1 C2 1_555 1_555
C2 C3 1_555 1_555
C3 C4 1_555 1_555
C4 C5 1_555 1_555
C5 C6 1_555 1_555
C6 C1 1_555 1_555
C7 C6 1_555 1_555
C8 C7 1_555 1_555
C9 C8 1_555 1_555
C10 C1 1_555 1_555
C11 C10 1_555 1_555
C12 C2 1_555 1_555
C13 C12 1_555 1_555
C14 C13 1_555 1_555
C15 C3 1_555 1_555
C16 C15 1_555 1_555
C17 C4 1_555 1_555
C18 C17 1_555 1_555
C19 C18 1_555 1_555
C20 C5 1_555 1_555
C21 C7 1_555 1_555
C22 C21 1_555 1_555
C23 C22 1_555 1_555
C24 C8 1_555 1_555
C25 C24 1_555 1_555
C26 C9 1_555 1_555
C27 C26 1_555 1_555
C28 C11 1_555 1_555
C29 C28 1_555 1_555
C30 C13 1_555 1_555
C31 C30 1_555 1_555
C32 C14 1_555 1_555
C33 C32 1_555 1_555
C34 C16 1_555 1_555
C35 C34 1_555 1_555
C36 C18 1_555 1_555
C37 C36 1_555 1_555
C38 C19 1_555 1_555
C39 C22 1_555 1_555
C40 C39 1_555 1_555
C41 C23 1_555 1_555
C42 C41 1_555 1_555
C43 C25 1_555 1_555
C44 C43 1_555 1_555
C45 C27 1_555 1_555
C46 C29 1_555 1_555
C47 C46 1_555 1_555
C48 C31 1_555 1_555
C49 C48 1_555 1_555
C50 C33 1_555 1_555
C51 C35 1_555 1_555
C52 C51 1_555 1_555
C53 C37 1_555 1_555
C54 C40 1_555 1_555
C55 C54 1_555 1_555
C56 C42 1_555 1_555
C57 C44 1_555 1_555
C58 C47 1_555 1_555
C59 C49 1_555 1_555
C60 C52 1_555 1_555
C61 C1 1_555 1_555
C62 C61 1_555 1_555
C63 C62 1_555 1_555
C64 C63 1_555 1_555
C65 C64 1_555 1_555
C66 C65 1_555 1_555
C67 C62 1_555 1_555
C68 C61 1_555 1_555
C69 C68 1_555 1_555
C70 C69 1_555 1_555
C71 C70 1_555 1_555
C72 C71 1_555 1_555
C73 C68 1_555 1_555
O1 C64 1_555 1_555
C74 O1 1_555 1_555
O2 C65 1_555 1_555
C75 O2 1_555 1_555
H1 C63 1_555 1_555
H2 C66 1_555 1_555
H3 C67 1_555 1_555
H4 C69 1_555 1_555
H5 C70 1_555 1_555
H6 C71 1_555 1_555
H7 C72 1_555 1_555
H8 C73 1_555 1_555
H9 C74 1_555 1_555
H10 C74 1_555 1_555
H11 C74 1_555 1_555
H12 C75 1_555 1_555
H13 C75 1_555 1_555
H14 C75 1_555 1_555
C76 Cl1 1_555 1_555
Cl2 C76 1_555 1_555
Cl3 C76 1_555 1_555
H15 C76 1_555 1_555
C77 Cl4 1_555 1_555
Cl5 C77 1_555 1_555
Cl6 C77 1_555 1_555
H16 C77 1_555 1_555
C6 C61 1_555 1_555
C9 C10 1_555 1_555
C11 C12 1_555 1_555
C14 C15 1_555 1_555
C16 C17 1_555 1_555
C19 C20 1_555 1_555
C20 C21 1_555 1_555
C23 C24 1_555 1_555
C25 C26 1_555 1_555
C27 C28 1_555 1_555
C29 C30 1_555 1_555
C31 C32 1_555 1_555
C33 C34 1_555 1_555
C35 C36 1_555 1_555
C37 C38 1_555 1_555
C38 C39 1_555 1_555
C40 C41 1_555 1_555
C42 C43 1_555 1_555
C44 C45 1_555 1_555
C45 C46 1_555 1_555
C47 C48 1_555 1_555
C49 C50 1_555 1_555
C50 C51 1_555 1_555
C52 C53 1_555 1_555
C53 C54 1_555 1_555
C55 C56 1_555 1_555
C55 C60 1_555 1_555
C56 C57 1_555 1_555
C57 C58 1_555 1_555
C58 C59 1_555 1_555
C59 C60 1_555 1_555
C66 C67 1_555 1_555
C72 C73 1_555 1_555

#END
