
#######################################################################
#
#                 Cambridge Crystallographic Data Centre
#                                CCDC 
#
#######################################################################
#
# If this CIF has been generated from an entry in the Cambridge 
# Structural Database, then it will include bibliographic, chemical, 
# crystal, experimental, refinement or atomic coordinate data resulting 
# from the CCDC's data processing and validation procedures.
#
#######################################################################

data_HELYIG
_chemical_compound_source        'Bark of Taxus Chinensis'
_chemical_formula_moiety         'C32 H44 O14'
_chemical_name_systematic        'Taxuchin A'
_symmetry_cell_setting           orthorhombic
_symmetry_space_group_name_H-M   'P 21 21 21'
_symmetry_Int_Tables_number      19
_space_group_name_Hall           'P 2ac 2ab'
loop_
_symmetry_equiv_pos_site_id
_symmetry_equiv_pos_as_xyz
1 x,y,z
2 1/2+x,1/2-y,-z
3 -x,1/2+y,1/2-z
4 1/2-x,-y,1/2+z
_cell_length_a                   17.551(2)
_cell_length_b                   17.893(2)
_cell_length_c                   10.805(1)
_cell_angle_alpha                90
_cell_angle_beta                 90
_cell_angle_gamma                90
_cell_volume                     3393.2
_exptl_crystal_colour            colorless
_chemical_melting_point          248-250deg.C
_cell_formula_units_Z            4
loop_
_atom_site_label
_atom_site_type_symbol
_atom_site_fract_x
_atom_site_fract_y
_atom_site_fract_z
C1 C 0.0767(2) 0.1736(2) 0.2911(3)
C2 C 0.1552(2) 0.1601(2) 0.3548(3)
C3 C 0.2151(2) 0.2181(2) 0.3093(3)
C4 C 0.2922(2) 0.1954(2) 0.2572(3)
C5 C 0.3351(2) 0.2616(2) 0.2044(3)
C6 C 0.3431(2) 0.3242(2) 0.2958(4)
C7 C 0.2678(2) 0.3478(2) 0.3525(3)
C8 C 0.2224(2) 0.2824(2) 0.4097(3)
C9 C 0.1398(2) 0.3050(2) 0.4449(3)
C10 C 0.0858(2) 0.3211(2) 0.3373(3)
C11 C 0.0696(2) 0.2560(2) 0.2530(3)
C12 C 0.0488(2) 0.2647(2) 0.1342(3)
C13 C 0.0372(2) 0.1898(2) 0.0743(3)
C14 C 0.0746(2) 0.1352(2) 0.1620(3)
C15 C 0.0081(2) 0.1470(2) 0.3746(3)
C16 C 0.0181(3) 0.0688(2) 0.4259(4)
C17 C -0.0669(2) 0.1528(2) 0.3075(4)
C18 C 0.0345(2) 0.3346(2) 0.0634(4)
C19 C 0.2625(2) 0.2528(2) 0.5268(3)
C20 C 0.3131(3) 0.1225(2) 0.2037(4)
O1 O 0.0054(2) 0.1938(1) 0.4846(2)
O2 O 0.1783(1) 0.0835(1) 0.3302(2)
C21 C 0.2069(2) 0.0424(2) 0.4240(4)
O3 O 0.2129(2) 0.0637(2) 0.5292(3)
C22 C 0.2269(4) -0.0345(2) 0.3810(5)
O4 O 0.3398(2) 0.1447(2) 0.3251(3)
O5 O 0.2910(1) 0.2903(1) 0.0999(2)
C23 C 0.3057(2) 0.2640(2) -0.0140(4)
O6 O 0.3534(2) 0.2173(2) -0.0349(3)
C24 C 0.2543(3) 0.2978(3) -0.1080(4)
O7 O 0.2881(2) 0.3994(1) 0.4510(2)
C25 C 0.2688(3) 0.4707(2) 0.4393(4)
O8 O 0.2355(2) 0.4969(2) 0.3524(3)
C26 C 0.2955(3) 0.5153(3) 0.5495(5)
O9 O 0.1415(2) 0.3742(1) 0.5168(2)
C27 C 0.1074(3) 0.3738(2) 0.6305(4)
O10 O 0.0846(3) 0.3188(2) 0.6786(3)
C28 C 0.1040(3) 0.4505(3) 0.6826(5)
O11 O 0.0130(1) 0.3435(1) 0.3927(2)
C29 C -0.0110(2) 0.4143(2) 0.3756(4)
O12 O 0.0238(2) 0.4600(1) 0.3192(3)
C30 C -0.0847(3) 0.4267(3) 0.4382(6)
O13 O 0.0758(2) 0.1902(2) -0.0458(2)
C31 C 0.0502(3) 0.1411(2) -0.1284(4)
O14 O -0.0004(3) 0.0999(2) -0.1076(4)
C32 C 0.0953(4) 0.1432(3) -0.2466(4)
H1 H 0.151(2) 0.161(2) 0.443(4)
H2 H 0.195(2) 0.237(2) 0.231(3)
H3 H 0.388(2) 0.245(2) 0.178(4)
H4 H 0.365(2) 0.369(2) 0.268(3)
H5 H 0.378(2) 0.302(2) 0.359(4)
H6 H 0.232(2) 0.371(2) 0.293(4)
H7 H 0.119(2) 0.269(2) 0.499(3)
H8 H 0.104(2) 0.365(2) 0.288(3)
H9 H -0.024(2) 0.180(2) 0.057(3)
H10 H 0.052(2) 0.084(2) 0.166(4)
H11 H 0.124(2) 0.128(2) 0.140(3)
H12 H -0.029(2) 0.048(2) 0.483(4)
H13 H 0.029(2) 0.035(2) 0.368(4)
H14 H 0.065(2) 0.064(2) 0.486(4)
H15 H -0.107(2) 0.127(2) 0.366(4)
H16 H -0.078(2) 0.211(2) 0.266(4)
H17 H -0.076(2) 0.119(2) 0.238(4)
H18 H 0.041(2) 0.382(2) 0.111(4)
H19 H 0.070(3) 0.336(3) -0.014(6)
H20 H -0.020(3) 0.349(3) 0.049(6)
H21 H 0.258(2) 0.292(2) 0.585(4)
H22 H 0.235(2) 0.204(2) 0.560(4)
H23 H 0.312(2) 0.235(2) 0.514(4)
H24 H 0.362(2) 0.121(2) 0.137(4)
H25 H 0.281(3) 0.077(3) 0.204(5)
H26 H 0.012(4) 0.244(3) 0.453(7)
H27 H 0.249 -0.065 0.455
H28 H 0.178 -0.061 0.347
H29 H 0.268 -0.031 0.311
H30 H 0.267 0.276 -0.196
H31 H 0.198 0.285 -0.086
H32 H 0.262 0.356 -0.109
H33 H 0.280 0.572 0.538
H34 H 0.270 0.494 0.630
H35 H 0.355 0.512 0.557
H36 H 0.078 0.449 0.770
H37 H 0.160 0.472 0.692
H38 H 0.073 0.485 0.623
H39 H -0.102 0.482 0.424
H40 H -0.126 0.390 0.402
H41 H -0.079 0.417 0.534
H42 H 0.073 0.104 -0.309
H43 H 0.092 0.197 -0.286
H44 H 0.153 0.131 -0.228
loop_
_geom_bond_atom_site_label_1
_geom_bond_atom_site_label_2
_geom_bond_site_symmetry_1
_geom_bond_site_symmetry_2
C1 C2 1_555 1_555
C2 C3 1_555 1_555
C3 C4 1_555 1_555
C4 C5 1_555 1_555
C5 C6 1_555 1_555
C6 C7 1_555 1_555
C7 C8 1_555 1_555
C8 C3 1_555 1_555
C9 C8 1_555 1_555
C10 C9 1_555 1_555
C11 C1 1_555 1_555
C12 C11 1_555 1_555
C13 C12 1_555 1_555
C14 C1 1_555 1_555
C15 C1 1_555 1_555
C16 C15 1_555 1_555
C17 C15 1_555 1_555
C18 C12 1_555 1_555
C19 C8 1_555 1_555
C20 C4 1_555 1_555
O1 C15 1_555 1_555
O2 C2 1_555 1_555
C21 O2 1_555 1_555
O3 C21 1_555 1_555
C22 C21 1_555 1_555
O4 C4 1_555 1_555
O5 C5 1_555 1_555
C23 O5 1_555 1_555
O6 C23 1_555 1_555
C24 C23 1_555 1_555
O7 C7 1_555 1_555
C25 O7 1_555 1_555
O8 C25 1_555 1_555
C26 C25 1_555 1_555
O9 C9 1_555 1_555
C27 O9 1_555 1_555
O10 C27 1_555 1_555
C28 C27 1_555 1_555
O11 C10 1_555 1_555
C29 O11 1_555 1_555
O12 C29 1_555 1_555
C30 C29 1_555 1_555
O13 C13 1_555 1_555
C31 O13 1_555 1_555
O14 C31 1_555 1_555
C32 C31 1_555 1_555
H1 C2 1_555 1_555
H2 C3 1_555 1_555
H3 C5 1_555 1_555
H4 C6 1_555 1_555
H5 C6 1_555 1_555
H6 C7 1_555 1_555
H7 C9 1_555 1_555
H8 C10 1_555 1_555
H9 C13 1_555 1_555
H10 C14 1_555 1_555
H11 C14 1_555 1_555
H12 C16 1_555 1_555
H13 C16 1_555 1_555
H14 C16 1_555 1_555
H15 C17 1_555 1_555
H16 C17 1_555 1_555
H17 C17 1_555 1_555
H18 C18 1_555 1_555
H19 C18 1_555 1_555
H20 C18 1_555 1_555
H21 C19 1_555 1_555
H22 C19 1_555 1_555
H23 C19 1_555 1_555
H24 C20 1_555 1_555
H25 C20 1_555 1_555
H26 O1 1_555 1_555
H27 C22 1_555 1_555
H28 C22 1_555 1_555
H29 C22 1_555 1_555
H30 C24 1_555 1_555
H31 C24 1_555 1_555
H32 C24 1_555 1_555
H33 C26 1_555 1_555
H34 C26 1_555 1_555
H35 C26 1_555 1_555
H36 C28 1_555 1_555
H37 C28 1_555 1_555
H38 C28 1_555 1_555
H39 C30 1_555 1_555
H40 C30 1_555 1_555
H41 C30 1_555 1_555
H42 C32 1_555 1_555
H43 C32 1_555 1_555
H44 C32 1_555 1_555
C10 C11 1_555 1_555
C13 C14 1_555 1_555
C20 O4 1_555 1_555

#END
