
#######################################################################
#
#                 Cambridge Crystallographic Data Centre
#                                CCDC 
#
#######################################################################
#
# If this CIF has been generated from an entry in the Cambridge 
# Structural Database, then it will include bibliographic, chemical, 
# crystal, experimental, refinement or atomic coordinate data resulting 
# from the CCDC's data processing and validation procedures.
#
#######################################################################

data_HEMCOU
_chemical_formula_moiety         'C15 H9 Br1 N2 O2'
_chemical_name_systematic        4-(4-bromophenyl)-8-nitroquinoline
_symmetry_cell_setting           triclinic
_symmetry_space_group_name_H-M   'P -1'
_symmetry_Int_Tables_number      2
_space_group_name_Hall           '-P 1'
loop_
_symmetry_equiv_pos_site_id
_symmetry_equiv_pos_as_xyz
1 x,y,z
2 -x,-y,-z
_cell_length_a                   7.5786(2)
_cell_length_b                   7.6027(2)
_cell_length_c                   11.5003(3)
_cell_angle_alpha                95.922(2)
_cell_angle_beta                 97.598(2)
_cell_angle_gamma                104.249(2)
_cell_volume                     630.214
_exptl_crystal_colour            colorless
_exptl_crystal_description       plates
_cell_formula_units_Z            2
loop_
_atom_site_label
_atom_site_type_symbol
_atom_site_fract_x
_atom_site_fract_y
_atom_site_fract_z
N1 N 0.3846(4) 0.7607(4) 0.4883(3)
C1 C 0.4754(5) 0.8028(5) 0.5975(3)
H1 H 0.5589 0.9210 0.6193
C2 C 0.4568(5) 0.6838(5) 0.6844(3)
H2 H 0.5233 0.7248 0.7625
C3 C 0.3426(5) 0.5087(5) 0.6564(3)
C4 C 0.2434(4) 0.4555(4) 0.5373(3)
C5 C 0.1249(5) 0.2780(5) 0.4953(3)
H3 H 0.1014 0.1910 0.5488
C6 C 0.0438(5) 0.2302(5) 0.3786(3)
H4 H -0.0302 0.1089 0.3514
C7 C 0.0686(5) 0.3580(5) 0.2994(3)
H5 H 0.0144 0.3236 0.2183
C8 C 0.1725(5) 0.5342(5) 0.3401(3)
C9 C 0.2690(4) 0.5890(5) 0.4585(3)
C10 C 0.3237(5) 0.3833(5) 0.7479(3)
C11 C 0.2831(5) 0.4410(5) 0.8580(3)
H6 H 0.2709 0.5620 0.8748
C12 C 0.2603(5) 0.3250(5) 0.9434(3)
H7 H 0.2303 0.3650 1.0175
C13 C 0.2819(5) 0.1500(5) 0.9193(3)
Br1 Br 0.24576(5) -0.01602(5) 1.03205(3)
C14 C 0.3298(5) 0.0910(5) 0.8127(3)
H8 H 0.3492 -0.0275 0.7984
C15 C 0.3490(5) 0.2073(5) 0.7272(3)
H9 H 0.3798 0.1668 0.6534
N2 N 0.1796(4) 0.6681(4) 0.2569(3)
O1 O 0.2027(4) 0.6209(4) 0.1561(2)
O2 O 0.1558(4) 0.8177(4) 0.2906(2)
loop_
_geom_bond_atom_site_label_1
_geom_bond_atom_site_label_2
_geom_bond_site_symmetry_1
_geom_bond_site_symmetry_2
N1 C1 1_555 1_555
C1 H1 1_555 1_555
C2 C1 1_555 1_555
H2 C2 1_555 1_555
C3 C2 1_555 1_555
C4 C3 1_555 1_555
C5 C4 1_555 1_555
H3 C5 1_555 1_555
C6 C5 1_555 1_555
H4 C6 1_555 1_555
C7 C6 1_555 1_555
H5 C7 1_555 1_555
C8 C7 1_555 1_555
C9 N1 1_555 1_555
C10 C3 1_555 1_555
C11 C10 1_555 1_555
H6 C11 1_555 1_555
C12 C11 1_555 1_555
H7 C12 1_555 1_555
C13 C12 1_555 1_555
Br1 C13 1_555 1_555
C14 C13 1_555 1_555
H8 C14 1_555 1_555
C15 C10 1_555 1_555
H9 C15 1_555 1_555
N2 C8 1_555 1_555
O1 N2 1_555 1_555
O2 N2 1_555 1_555
C4 C9 1_555 1_555
C8 C9 1_555 1_555
C14 C15 1_555 1_555

#END
