
#######################################################################
#
#                 Cambridge Crystallographic Data Centre
#                                CCDC 
#
#######################################################################
#
# If this CIF has been generated from an entry in the Cambridge 
# Structural Database, then it will include bibliographic, chemical, 
# crystal, experimental, refinement or atomic coordinate data resulting 
# from the CCDC's data processing and validation procedures.
#
#######################################################################

data_HEMFOX
_chemical_formula_moiety         'C17 H26 Cl1 N1 O4 S1'
_chemical_name_systematic        
'11-{[(4-chlorophenyl)sulfonyl]amino}undecanoic acid'
_symmetry_cell_setting           monoclinic
_symmetry_space_group_name_H-M   'P 21/c'
_symmetry_Int_Tables_number      14
_space_group_name_Hall           '-P 2ybc'
loop_
_symmetry_equiv_pos_site_id
_symmetry_equiv_pos_as_xyz
1 x,y,z
2 -x,1/2+y,1/2-z
3 -x,-y,-z
4 x,1/2-y,1/2+z
_cell_length_a                   36.0793(13)
_cell_length_b                   4.9652(2)
_cell_length_c                   10.2743(4)
_cell_angle_alpha                90
_cell_angle_beta                 91.257(2)
_cell_angle_gamma                90
_cell_volume                     1840.1
_exptl_crystal_colour            colorless
_exptl_crystal_description       plates
_cell_formula_units_Z            4
loop_
_atom_site_label
_atom_site_type_symbol
_atom_site_fract_x
_atom_site_fract_y
_atom_site_fract_z
O1 O 0.03811(9) 0.6103(7) 0.9204(3)
O2 O 0.00303(10) 0.2461(8) 0.8815(3)
H1 H -0.0090(14) 0.279(13) 0.949(4)
C1 C 0.03074(12) 0.4061(10) 0.8562(4)
C2 C 0.05296(13) 0.3170(10) 0.7425(5)
H2 H 0.0359 0.2935 0.6667
H3 H 0.0638 0.1384 0.7630
C3 C 0.08423(13) 0.5046(10) 0.7027(5)
H4 H 0.0741 0.6857 0.6829
H5 H 0.1026 0.5221 0.7754
C4 C 0.10310(13) 0.3918(11) 0.5831(5)
H6 H 0.0845 0.3798 0.5110
H7 H 0.1116 0.2065 0.6029
C5 C 0.13611(13) 0.5547(10) 0.5361(5)
H8 H 0.1552 0.5648 0.6067
H9 H 0.1279 0.7405 0.5156
C6 C 0.15312(13) 0.4293(11) 0.4155(5)
H10 H 0.1592 0.2388 0.4351
H11 H 0.1342 0.4300 0.3443
C7 C 0.18792(13) 0.5664(10) 0.3665(5)
H12 H 0.1820 0.7556 0.3437
H13 H 0.2070 0.5685 0.4371
C8 C 0.20346(13) 0.4262(11) 0.2484(5)
H14 H 0.1847 0.4320 0.1767
H15 H 0.2080 0.2346 0.2702
C9 C 0.23947(13) 0.5508(10) 0.2010(5)
H16 H 0.2351 0.7434 0.1811
H17 H 0.2585 0.5407 0.2718
C10 C 0.25439(13) 0.4126(10) 0.0801(4)
H18 H 0.2572 0.2174 0.0974
H19 H 0.2364 0.4348 0.0068
C11 C 0.29143(12) 0.5289(10) 0.0424(4)
H20 H 0.2896 0.7276 0.0379
H21 H 0.3104 0.4823 0.1097
N1 N 0.30295(10) 0.4218(9) -0.0862(4)
H22 H 0.2806(7) 0.450(11) -0.109(5)
S1 S 0.33522(3) 0.5769(2) -0.16245(11)
O3 O 0.33665(9) 0.4571(7) -0.2896(3)
O4 O 0.32879(9) 0.8607(7) -0.1500(3)
C12 C 0.37794(13) 0.5088(10) -0.0812(4)
C13 C 0.38842(13) 0.6595(11) 0.0263(5)
H23 H 0.3731 0.8022 0.0550
C14 C 0.42185(14) 0.6010(11) 0.0932(5)
H24 H 0.4298 0.7050 0.1662
C15 C 0.44278(13) 0.3892(11) 0.0499(5)
C16 C 0.43283(14) 0.2408(11) -0.0590(5)
H25 H 0.4484 0.1002 -0.0883
C17 C 0.39986(13) 0.2986(11) -0.1254(5)
H26 H 0.3924 0.1966 -0.1996
Cl1 Cl 0.48330(4) 0.3057(3) 0.13545(14)
loop_
_geom_bond_atom_site_label_1
_geom_bond_atom_site_label_2
_geom_bond_site_symmetry_1
_geom_bond_site_symmetry_2
O1 C1 1_555 1_555
O2 H1 1_555 1_555
C1 O2 1_555 1_555
C2 C1 1_555 1_555
H2 C2 1_555 1_555
H3 C2 1_555 1_555
C3 C2 1_555 1_555
H4 C3 1_555 1_555
H5 C3 1_555 1_555
C4 C3 1_555 1_555
H6 C4 1_555 1_555
H7 C4 1_555 1_555
C5 C4 1_555 1_555
H8 C5 1_555 1_555
H9 C5 1_555 1_555
C6 C5 1_555 1_555
H10 C6 1_555 1_555
H11 C6 1_555 1_555
C7 C6 1_555 1_555
H12 C7 1_555 1_555
H13 C7 1_555 1_555
C8 C7 1_555 1_555
H14 C8 1_555 1_555
H15 C8 1_555 1_555
C9 C8 1_555 1_555
H16 C9 1_555 1_555
H17 C9 1_555 1_555
C10 C9 1_555 1_555
H18 C10 1_555 1_555
H19 C10 1_555 1_555
C11 C10 1_555 1_555
H20 C11 1_555 1_555
H21 C11 1_555 1_555
N1 C11 1_555 1_555
H22 N1 1_555 1_555
S1 N1 1_555 1_555
O3 S1 1_555 1_555
O4 S1 1_555 1_555
C12 S1 1_555 1_555
C13 C12 1_555 1_555
H23 C13 1_555 1_555
C14 C13 1_555 1_555
H24 C14 1_555 1_555
C15 C14 1_555 1_555
C16 C15 1_555 1_555
H25 C16 1_555 1_555
C17 C12 1_555 1_555
H26 C17 1_555 1_555
Cl1 C15 1_555 1_555
C16 C17 1_555 1_555

#END
