
#######################################################################
#
#                 Cambridge Crystallographic Data Centre
#                                CCDC 
#
#######################################################################
#
# If this CIF has been generated from an entry in the Cambridge 
# Structural Database, then it will include bibliographic, chemical, 
# crystal, experimental, refinement or atomic coordinate data resulting 
# from the CCDC's data processing and validation procedures.
#
#######################################################################

data_HEMGEO
_chemical_formula_moiety         'C34 H33 F4 Mg1 N3'
_chemical_name_systematic        
(2,3,4,5-tetrafluoro-6-(pyridin-2-yl)phenyl)-(N^2^,N^4^-bis(2,4,6-trimethylphenyl)pentane-2,4-diiminato)-magnesium
_symmetry_cell_setting           orthorhombic
_symmetry_space_group_name_H-M   'P c a 21'
_symmetry_Int_Tables_number      29
_space_group_name_Hall           'P 2c -2ac'
loop_
_symmetry_equiv_pos_site_id
_symmetry_equiv_pos_as_xyz
1 x,y,z
2 -x,-y,1/2+z
3 1/2+x,-y,z
4 1/2-x,y,1/2+z
_cell_length_a                   24.8934(3)
_cell_length_b                   13.45834(18)
_cell_length_c                   18.5282(3)
_cell_angle_alpha                90
_cell_angle_beta                 90
_cell_angle_gamma                90
_cell_volume                     6207.39
_exptl_crystal_colour            colorless
_exptl_crystal_description       blocks
_cell_formula_units_Z            8
loop_
_atom_site_label
_atom_site_type_symbol
_atom_site_fract_x
_atom_site_fract_y
_atom_site_fract_z
Mg1 Mg 0.49643(4) 0.02936(7) 0.36278(6)
N1 N 0.52468(9) -0.01706(18) 0.26531(15)
C1 C 0.49852(12) -0.0811(2) 0.22324(19)
C2 C 0.44636(12) -0.1159(2) 0.2384(2)
H1 H 0.4340 -0.1680 0.2081
C3 C 0.41010(12) -0.0852(2) 0.29163(18)
N2 N 0.41995(10) -0.01449(18) 0.34050(14)
C4 C 0.52480(14) -0.1190(3) 0.1550(2)
H2 H 0.5597 -0.1485 0.1668
H3 H 0.5300 -0.0637 0.1213
H4 H 0.5017 -0.1693 0.1327
C5 C 0.35616(13) -0.1370(3) 0.2924(2)
H5 H 0.3274 -0.0873 0.2908
H6 H 0.3528 -0.1765 0.3366
H7 H 0.3533 -0.1807 0.2502
C6 C 0.57602(11) 0.0189(2) 0.24186(17)
C7 C 0.57914(12) 0.1015(2) 0.19745(18)
C8 C 0.62980(14) 0.1369(3) 0.1772(2)
H8 H 0.6321 0.1940 0.1472
C9 C 0.67665(13) 0.0910(3) 0.1995(2)
C10 C 0.67239(12) 0.0089(3) 0.2435(2)
H9 H 0.7043 -0.0235 0.2587
C11 C 0.62291(12) -0.0287(2) 0.26665(19)
C12 C 0.52978(15) 0.1542(3) 0.1693(2)
H10 H 0.4991 0.1395 0.2007
H11 H 0.5220 0.1312 0.1202
H12 H 0.5362 0.2260 0.1687
C13 C 0.73071(17) 0.1306(5) 0.1772(3)
H13 H 0.7553 0.0750 0.1683
H14 H 0.7452 0.1726 0.2157
H15 H 0.7269 0.1699 0.1330
C14 C 0.62000(16) -0.1175(3) 0.3155(3)
H16 H 0.5940 -0.1652 0.2961
H17 H 0.6086 -0.0964 0.3637
H18 H 0.6555 -0.1488 0.3185
C15 C 0.37614(12) 0.0213(2) 0.3834(2)
C16 C 0.36966(14) -0.0109(3) 0.4544(2)
C17 C 0.32721(17) 0.0262(3) 0.4949(3)
H19 H 0.3238 0.0064 0.5439
C18 C 0.28985(17) 0.0908(3) 0.4664(3)
C19 C 0.29763(15) 0.1240(3) 0.3963(3)
H20 H 0.2729 0.1703 0.3765
C20 C 0.34058(13) 0.0915(2) 0.3537(2)
C21 C 0.40661(18) -0.0882(4) 0.4857(3)
H21 H 0.4432 -0.0618 0.4880
H22 H 0.4061 -0.1477 0.4552
H23 H 0.3945 -0.1056 0.5345
C22 C 0.2410(2) 0.1217(5) 0.5091(5)
H24 H 0.2107 0.0784 0.4967
H25 H 0.2318 0.1907 0.4974
H26 H 0.2487 0.1161 0.5608
C23 C 0.34747(17) 0.1289(3) 0.2784(3)
H27 H 0.3345 0.0788 0.2442
H28 H 0.3856 0.1421 0.2693
H29 H 0.3269 0.1904 0.2722
N3 N 0.51280(11) 0.18322(19) 0.38202(17)
C24 C 0.49317(16) 0.2588(3) 0.3429(3)
H30 H 0.4688 0.2444 0.3048
C25 C 0.5068(2) 0.3564(3) 0.3555(3)
H31 H 0.4930 0.4083 0.3262
C26 C 0.5409(2) 0.3764(3) 0.4115(3)
H32 H 0.5503 0.4432 0.4221
C27 C 0.56150(18) 0.3009(3) 0.4523(3)
H33 H 0.5856 0.3152 0.4907
C28 C 0.54700(13) 0.2023(2) 0.4373(2)
C29 C 0.56521(12) 0.1141(3) 0.47850(19)
C30 C 0.60207(14) 0.1182(3) 0.5355(2)
F1 F 0.62573(11) 0.2043(2) 0.55703(18)
C31 C 0.61701(14) 0.0357(4) 0.5730(2)
F2 F 0.65308(10) 0.0430(3) 0.62752(16)
C32 C 0.59579(14) -0.0549(3) 0.5568(2)
F3 F 0.60998(11) -0.1355(2) 0.59535(15)
C33 C 0.55968(13) -0.0602(3) 0.49970(19)
F4 F 0.54024(9) -0.15230(15) 0.48503(14)
C34 C 0.54389(12) 0.0199(2) 0.45980(18)
Mg2 Mg 0.75439(4) 0.50127(8) 0.44847(6)
N4 N 0.72787(10) 0.5585(2) 0.54368(15)
C35 C 0.75562(13) 0.6265(2) 0.58005(18)
C36 C 0.80776(14) 0.6566(3) 0.5618(2)
H34 H 0.8206 0.7143 0.5858
C37 C 0.84361(13) 0.6127(3) 0.51263(19)
N5 N 0.83190(10) 0.5366(2) 0.46900(16)
C38 C 0.73011(16) 0.6761(3) 0.6453(2)
H35 H 0.7266 0.6275 0.6844
H36 H 0.6945 0.7012 0.6322
H37 H 0.7528 0.7314 0.6613
C39 C 0.89938(16) 0.6579(4) 0.5109(3)
H38 H 0.9084 0.6768 0.4613
H39 H 0.9256 0.6092 0.5285
H40 H 0.9003 0.7170 0.5418
C40 C 0.67588(9) 0.5254(3) 0.5736(2)
C41 C 0.67448(11) 0.4475(3) 0.6228(2)
C42 C 0.62552(15) 0.4069(3) 0.6436(2)
H41 H 0.6246 0.3536 0.6772
C43 C 0.57795(11) 0.4443(4) 0.6152(2)
C44 C 0.57935(10) 0.5223(5) 0.5660(2)
H42 H 0.5468 0.5479 0.5466
C45 C 0.62831(14) 0.5629(3) 0.54524(19)
C46 C 0.7252(3) 0.4070(5) 0.6553(3)
H43 H 0.7513 0.3937 0.6170
H44 H 0.7172 0.3451 0.6811
H45 H 0.7401 0.4557 0.6891
C47 C 0.5241(2) 0.3990(6) 0.6355(4)
H46 H 0.5300 0.3384 0.6637
H47 H 0.5040 0.3826 0.5915
H48 H 0.5034 0.4467 0.6642
C48 C 0.6286(3) 0.6488(5) 0.4919(3)
H49 H 0.5916 0.6684 0.4811
H50 H 0.6466 0.6280 0.4473
H51 H 0.6479 0.7052 0.5130
C49 C 0.87492(12) 0.4838(2) 0.43512(19)
C50 C 0.88503(13) 0.4950(2) 0.3613(2)
C51 C 0.92665(13) 0.4399(3) 0.3307(2)
H52 H 0.9335 0.4468 0.2805
C52 C 0.95847(13) 0.3754(2) 0.3706(2)
C53 C 0.94655(14) 0.3642(3) 0.4431(2)
H53 H 0.9676 0.3200 0.4713
C54 C 0.90487(13) 0.4155(3) 0.4760(2)
C55 C 0.85397(16) 0.5683(3) 0.3169(2)
H54 H 0.8564 0.6342 0.3391
H55 H 0.8162 0.5477 0.3145
H56 H 0.8690 0.5708 0.2680
C56 C 1.00569(16) 0.3212(3) 0.3373(3)
H57 H 1.0387 0.3394 0.3629
H58 H 1.0089 0.3398 0.2864
H59 H 1.0000 0.2493 0.3412
C57 C 0.8926(2) 0.3986(4) 0.5544(3)
H60 H 0.8550 0.3781 0.5597
H61 H 0.8986 0.4603 0.5813
H62 H 0.9161 0.3464 0.5733
N6 N 0.73558(12) 0.3477(2) 0.43330(19)
C58 C 0.7554(2) 0.2719(3) 0.4718(3)
H63 H 0.7797 0.2867 0.5098
C59 C 0.7427(3) 0.1735(3) 0.4594(4)
H64 H 0.7572 0.1219 0.4884
C60 C 0.7082(2) 0.1531(3) 0.4032(3)
H65 H 0.6989 0.0863 0.3922
C61 C 0.68722(18) 0.2295(3) 0.3634(3)
H66 H 0.6629 0.2156 0.3253
C62 C 0.70137(13) 0.3280(3) 0.3785(2)
C63 C 0.68241(12) 0.4163(3) 0.3382(2)
C64 C 0.64113(16) 0.4110(4) 0.2873(3)
F5 F 0.61528(11) 0.3249(3) 0.2710(2)
C65 C 0.62388(19) 0.4947(5) 0.2519(3)
F6 F 0.58210(14) 0.4884(4) 0.2060(2)
C66 C 0.6469(2) 0.5847(4) 0.2642(2)
F7 F 0.63025(15) 0.6662(3) 0.22900(16)
C67 C 0.68848(16) 0.5892(3) 0.3148(2)
F8 F 0.71059(12) 0.68026(19) 0.32599(16)
C68 C 0.70607(13) 0.5090(3) 0.35295(19)
C69? C 0.6772(3) 0.5338(9) 0.5601(8)
C70? C 0.6680(4) 0.4551(10) 0.6071(8)
C71? C 0.6158(5) 0.4307(10) 0.6268(7)
H67? H 0.6095 0.3769 0.6590
C72? C 0.5728(3) 0.4849(13) 0.5996(7)
C73? C 0.5820(4) 0.5635(12) 0.5526(6)
H68? H 0.5526 0.6006 0.5340
C74? C 0.6342(4) 0.5880(9) 0.5329(6)
C75? C 0.7145(8) 0.3954(17) 0.6374(14)
H69? H 0.7417 0.3857 0.5998
H70? H 0.7014 0.3306 0.6539
H71? H 0.7305 0.4314 0.6781
C76? C 0.5160(6) 0.458(2) 0.6208(11)
H72? H 0.4923 0.4653 0.5788
H73? H 0.5038 0.5026 0.6594
H74? H 0.5150 0.3893 0.6379
C77? C 0.6440(8) 0.6741(12) 0.4817(10)
H75? H 0.6303 0.6572 0.4337
H76? H 0.6827 0.6875 0.4787
H77? H 0.6254 0.7334 0.4997
loop_
_geom_bond_atom_site_label_1
_geom_bond_atom_site_label_2
_geom_bond_site_symmetry_1
_geom_bond_site_symmetry_2
Mg1 N1 1_555 1_555
N1 C1 1_555 1_555
C1 C2 1_555 1_555
C2 H1 1_555 1_555
C3 C2 1_555 1_555
N2 Mg1 1_555 1_555
C4 C1 1_555 1_555
H2 C4 1_555 1_555
H3 C4 1_555 1_555
H4 C4 1_555 1_555
C5 C3 1_555 1_555
H5 C5 1_555 1_555
H6 C5 1_555 1_555
H7 C5 1_555 1_555
C6 N1 1_555 1_555
C7 C6 1_555 1_555
C8 C7 1_555 1_555
H8 C8 1_555 1_555
C9 C8 1_555 1_555
C10 C9 1_555 1_555
H9 C10 1_555 1_555
C11 C6 1_555 1_555
C12 C7 1_555 1_555
H10 C12 1_555 1_555
H11 C12 1_555 1_555
H12 C12 1_555 1_555
C13 C9 1_555 1_555
H13 C13 1_555 1_555
H14 C13 1_555 1_555
H15 C13 1_555 1_555
C14 C11 1_555 1_555
H16 C14 1_555 1_555
H17 C14 1_555 1_555
H18 C14 1_555 1_555
C15 N2 1_555 1_555
C16 C15 1_555 1_555
C17 C16 1_555 1_555
H19 C17 1_555 1_555
C18 C17 1_555 1_555
C19 C18 1_555 1_555
H20 C19 1_555 1_555
C20 C15 1_555 1_555
C21 C16 1_555 1_555
H21 C21 1_555 1_555
H22 C21 1_555 1_555
H23 C21 1_555 1_555
C22 C18 1_555 1_555
H24 C22 1_555 1_555
H25 C22 1_555 1_555
H26 C22 1_555 1_555
C23 C20 1_555 1_555
H27 C23 1_555 1_555
H28 C23 1_555 1_555
H29 C23 1_555 1_555
N3 Mg1 1_555 1_555
C24 N3 1_555 1_555
H30 C24 1_555 1_555
C25 C24 1_555 1_555
H31 C25 1_555 1_555
C26 C25 1_555 1_555
H32 C26 1_555 1_555
C27 C26 1_555 1_555
H33 C27 1_555 1_555
C28 N3 1_555 1_555
C29 C28 1_555 1_555
C30 C29 1_555 1_555
F1 C30 1_555 1_555
C31 C30 1_555 1_555
F2 C31 1_555 1_555
C32 C31 1_555 1_555
F3 C32 1_555 1_555
C33 C32 1_555 1_555
F4 C33 1_555 1_555
C34 Mg1 1_555 1_555
Mg2 N4 1_555 1_555
N4 C35 1_555 1_555
C35 C36 1_555 1_555
C36 H34 1_555 1_555
C37 C36 1_555 1_555
N5 Mg2 1_555 1_555
C38 C35 1_555 1_555
H35 C38 1_555 1_555
H36 C38 1_555 1_555
H37 C38 1_555 1_555
C39 C37 1_555 1_555
H38 C39 1_555 1_555
H39 C39 1_555 1_555
H40 C39 1_555 1_555
C40 N4 1_555 1_555
C41 C40 1_555 1_555
C42 C41 1_555 1_555
H41 C42 1_555 1_555
C43 C42 1_555 1_555
C44 C43 1_555 1_555
H42 C44 1_555 1_555
C45 C40 1_555 1_555
C46 C41 1_555 1_555
H43 C46 1_555 1_555
H44 C46 1_555 1_555
H45 C46 1_555 1_555
C47 C43 1_555 1_555
H46 C47 1_555 1_555
H47 C47 1_555 1_555
H48 C47 1_555 1_555
C48 C45 1_555 1_555
H49 C48 1_555 1_555
H50 C48 1_555 1_555
H51 C48 1_555 1_555
C49 N5 1_555 1_555
C50 C49 1_555 1_555
C51 C50 1_555 1_555
H52 C51 1_555 1_555
C52 C51 1_555 1_555
C53 C52 1_555 1_555
H53 C53 1_555 1_555
C54 C49 1_555 1_555
C55 C50 1_555 1_555
H54 C55 1_555 1_555
H55 C55 1_555 1_555
H56 C55 1_555 1_555
C56 C52 1_555 1_555
H57 C56 1_555 1_555
H58 C56 1_555 1_555
H59 C56 1_555 1_555
C57 C54 1_555 1_555
H60 C57 1_555 1_555
H61 C57 1_555 1_555
H62 C57 1_555 1_555
N6 Mg2 1_555 1_555
C58 N6 1_555 1_555
H63 C58 1_555 1_555
C59 C58 1_555 1_555
H64 C59 1_555 1_555
C60 C59 1_555 1_555
H65 C60 1_555 1_555
C61 C60 1_555 1_555
H66 C61 1_555 1_555
C62 N6 1_555 1_555
C63 C62 1_555 1_555
C64 C63 1_555 1_555
F5 C64 1_555 1_555
C65 C64 1_555 1_555
F6 C65 1_555 1_555
C66 C65 1_555 1_555
F7 C66 1_555 1_555
C67 C66 1_555 1_555
F8 C67 1_555 1_555
C68 Mg2 1_555 1_555
C3 N2 1_555 1_555
C10 C11 1_555 1_555
C19 C20 1_555 1_555
C27 C28 1_555 1_555
C29 C34 1_555 1_555
C33 C34 1_555 1_555
C37 N5 1_555 1_555
C44 C45 1_555 1_555
C53 C54 1_555 1_555
C61 C62 1_555 1_555
C63 C68 1_555 1_555
C67 C68 1_555 1_555

#END
