
#######################################################################
#
#                 Cambridge Crystallographic Data Centre
#                                CCDC 
#
#######################################################################
#
# If this CIF has been generated from an entry in the Cambridge 
# Structural Database, then it will include bibliographic, chemical, 
# crystal, experimental, refinement or atomic coordinate data resulting 
# from the CCDC's data processing and validation procedures.
#
#######################################################################

data_HEMHUC
_chemical_formula_moiety         '2(C30 H28 N1 O4 P1),1.5(C6 H6)'
_chemical_name_systematic        
'(Calix(4)arene)(dimethylamino)phosphine benzene solvate'
_symmetry_cell_setting           triclinic
_symmetry_space_group_name_H-M   'P -1'
_symmetry_Int_Tables_number      2
_space_group_name_Hall           '-P 1'
loop_
_symmetry_equiv_pos_site_id
_symmetry_equiv_pos_as_xyz
1 x,y,z
2 -x,-y,-z
_cell_length_a                   11.677(3)
_cell_length_b                   14.055(4)
_cell_length_c                   18.824(7)
_cell_angle_alpha                90.47(3)
_cell_angle_beta                 101.85(3)
_cell_angle_gamma                112.19(2)
_cell_volume                     2787.06
_exptl_crystal_colour            colorless
_chemical_melting_point          367-374deg.C
_cell_formula_units_Z            2
loop_
_atom_site_label
_atom_site_type_symbol
_atom_site_fract_x
_atom_site_fract_y
_atom_site_fract_z
P1 P 0.4264(3) 0.1715(2) 0.2485(2)
O1 O 0.5755(6) 0.1767(5) 0.2904(3)
O2 O 0.3741(6) 0.1360(5) 0.3276(3)
O3 O 0.2743(6) 0.1446(4) 0.2033(3)
O4 O 0.4713(6) 0.1864(5) 0.1680(3)
N1 N 0.3902(8) 0.0287(6) 0.2331(4)
C1 C 0.4501(10) -0.0029(7) 0.1798(6)
C2 C 0.2565(10) -0.0476(7) 0.2225(6)
C3 C 0.6731(11) 0.2670(9) 0.3235(7)
C4 C 0.7604(12) 0.3233(9) 0.2844(7)
C5 C 0.8637(12) 0.4108(9) 0.3191(9)
C6 C 0.8829(12) 0.4393(10) 0.3917(9)
C7 C 0.7948(14) 0.3845(9) 0.4305(7)
C8 C 0.6889(11) 0.2952(8) 0.3971(7)
C9 C 0.5971(12) 0.2346(8) 0.4411(6)
C10 C 0.3741(14) 0.2099(8) 0.3765(7)
C11 C 0.4803(14) 0.2606(9) 0.4327(7)
C12 C 0.4731(14) 0.3323(9) 0.4812(6)
C13 C 0.3662(18) 0.3537(11) 0.4756(8)
C14 C 0.2609(16) 0.2995(10) 0.4221(9)
C15 C 0.2625(14) 0.2274(9) 0.3711(7)
C16 C 0.1479(11) 0.1707(8) 0.3110(7)
C17 C 0.2178(10) 0.2171(8) 0.1939(7)
C18 C 0.1500(12) 0.2273(9) 0.2423(8)
C19 C 0.0862(10) 0.2934(11) 0.2276(9)
C20 C 0.0950(14) 0.3479(10) 0.1673(11)
C21 C 0.1618(15) 0.3354(10) 0.1194(8)
C22 C 0.2270(11) 0.2693(8) 0.1308(7)
C23 C 0.3000(13) 0.2567(8) 0.0785(6)
C24 C 0.5216(13) 0.2830(8) 0.1440(6)
C25 C 0.4398(13) 0.3204(9) 0.0995(6)
C26 C 0.4894(15) 0.4147(11) 0.0741(7)
C27 C 0.6150(17) 0.4721(10) 0.0916(7)
C28 C 0.7010(12) 0.4348(10) 0.1332(7)
C29 C 0.6502(13) 0.3374(9) 0.1593(6)
C30 C 0.7383(10) 0.2937(8) 0.2036(7)
H1 H 0.4504 0.2789 0.2568
H2 H 0.4317 0.0141 0.2793
H3 H 0.4270 -0.0762 0.1764
H4 H 0.4218 0.0173 0.1330
H5 H 0.5407 0.0314 0.1952
H6 H 0.2503 -0.1172 0.2154
H7 H 0.2261 -0.0399 0.2650
H8 H 0.2061 -0.0323 0.1807
H9 H 0.9218 0.4511 0.2911
H10 H 0.9572 0.4984 0.4142
H11 H 0.8070 0.4074 0.4807
H12 H 0.6398 0.2459 0.4916
H13 H 0.5703 0.1628 0.4256
H14 H 0.5459 0.3669 0.5201
H15 H 0.3667 0.4065 0.5085
H16 H 0.1846 0.3114 0.4198
H17 H 0.0714 0.1608 0.3270
H18 H 0.1479 0.1041 0.2993
H19 H 0.0372 0.3008 0.2609
H20 H 0.0518 0.3944 0.1597
H21 H 0.1639 0.3734 0.0772
H22 H 0.2653 0.2736 0.0318
H23 H 0.2877 0.1852 0.0736
H24 H 0.4322 0.4409 0.0450
H25 H 0.6466 0.5396 0.0749
H26 H 0.7910 0.4734 0.1427
H27 H 0.7015 0.2197 0.1954
H28 H 0.8174 0.3184 0.1885
P2 P 0.4271(3) 0.6744(2) 0.2308(2)
O5 O 0.5899(7) 0.7382(5) 0.2578(4)
O6 O 0.4186(6) 0.6816(5) 0.3203(3)
O7 O 0.2692(7) 0.5927(5) 0.2072(4)
O8 O 0.4422(8) 0.6494(5) 0.1445(4)
N2 N 0.4502(9) 0.5477(6) 0.2463(5)
C31 C 0.5813(13) 0.5513(8) 0.2556(7)
C32 C 0.3963(10) 0.4865(7) 0.3035(6)
C33 C 0.6506(11) 0.8440(10) 0.2586(9)
C34 C 0.6947(14) 0.8821(12) 0.1985(10)
C35 C 0.7694(13) 0.9883(14) 0.2000(10)
C36 C 0.7872(13) 1.0508(13) 0.2599(12)
C37 C 0.7432(12) 1.0139(10) 0.3198(8)
C38 C 0.6735(11) 0.9069(9) 0.3194(8)
C39 C 0.6714(19) 0.8150(13) 0.1306(12)
C40 C 0.3901(12) 0.7581(8) 0.3482(5)
C41 C 0.4930(11) 0.8497(8) 0.3814(5)
C42 C 0.4657(12) 0.9290(8) 0.4110(5)
C43 C 0.3421(15) 0.9157(9) 0.4088(5)
C44 C 0.2417(11) 0.8230(10) 0.3792(6)
C45 C 0.2667(11) 0.7444(8) 0.3479(5)
C46 C 0.6276(12) 0.8652(8) 0.3854(6)
C47 C 0.1728(13) 0.6272(8) 0.1837(8)
C48 C 0.1126(12) 0.6475(8) 0.2341(8)
C49 C 0.0109(14) 0.6757(8) 0.2113(9)
C50 C -0.0304(14) 0.6828(10) 0.1368(12)
C51 C 0.0265(19) 0.6605(11) 0.0885(10)
C52 C 0.1281(16) 0.6303(8) 0.1084(8)
C53 C 0.1599(10) 0.6457(8) 0.3159(6)
C54 C 0.4305(21) 0.7153(11) 0.0912(8)
C55 C 0.3131(20) 0.6997(11) 0.0484(8)
C56 C 0.3061(18) 0.7696(13) -0.0045(7)
C57 C 0.4145(25) 0.8497(14) -0.0130(10)
C58 C 0.5293(23) 0.8613(13) 0.0287(11)
C59 C 0.5436(20) 0.7971(12) 0.0829(9)
C60 C 0.1965(16) 0.6104(10) 0.0556(7)
H29 H 0.3840 0.7532 0.2147
H30 H 0.3736 0.4935 0.2000
H31 H 0.5830 0.4841 0.2621
H32 H 0.6130 0.5763 0.2133
H33 H 0.6337 0.5978 0.2978
H34 H 0.4132 0.4247 0.3063
H35 H 0.4325 0.5273 0.3497
H36 H 0.3063 0.4685 0.2915
H37 H 0.8076 1.0154 0.1601
H38 H 0.8302 1.1240 0.2593
H39 H 0.7591 1.0599 0.3620
H40 H 0.6711 0.7491 0.1440
H41 H 0.7371 0.8453 0.1046
H42 H 0.5323 0.9933 0.4328
H43 H 0.3230 0.9695 0.4289
H44 H 0.1554 0.8130 0.3783
H45 H 0.6800 0.9121 0.4275
H46 H 0.6356 0.8001 0.3916
H47 H -0.0311 0.6914 0.2459
H48 H -0.0995 0.7044 0.1210
H49 H -0.0051 0.6654 0.0380
H50 H 0.0924 0.6310 0.3411
H51 H 0.1906 0.5911 0.3215
H52 H 0.2261 0.7614 -0.0357
H53 H 0.4094 0.8979 -0.0481
H54 H 0.6028 0.9174 0.0210
H55 H 0.1385 0.5907 0.0088
H56 H 0.2190 0.5530 0.0694
C61 C 0.8967(23) 0.7932(25) 0.3694(15)
C62 C 0.8926(17) 0.7143(22) 0.3994(16)
C63 C 0.9568(29) 0.7169(19) 0.4619(20)
C64 C 1.0287(19) 0.8026(28) 0.5012(9)
C65 C 1.0343(21) 0.8876(17) 0.4734(20)
C66 C 0.9805(36) 0.9032(25) 0.3937(26)
H57 H 0.8361 0.7808 0.3215
H58 H 0.8379 0.6479 0.3727
H59 H 0.9493 0.6505 0.4789
H60 H 1.0695 0.7971 0.5495
H61 H 1.0868 0.9491 0.5059
H62 H 0.9948 0.9632 0.3710
C67 C 1.0375(14) 0.9294(12) 0.0335(13)
C68 C 1.0010(14) 0.9876(17) 0.0717(8)
C69 C 1.0378(11) 0.9390(12) -0.0404(13)
H63 H 1.0653 0.8792 0.0573
H64 H 1.0025 0.9768 0.1222
H65 H 1.0630 0.8974 -0.0696
C69A C 0.9622(11) 1.0610(12) 0.0404(13)
C68A C 0.9990(14) 1.0124(17) -0.0717(8)
C67A C 0.9625(14) 1.0706(12) -0.0335(13)
H65A H 0.9370 1.1026 0.0696
H64A H 0.9975 1.0232 -0.1222
H63A H 0.9347 1.1208 -0.0573
loop_
_geom_bond_atom_site_label_1
_geom_bond_atom_site_label_2
_geom_bond_site_symmetry_1
_geom_bond_site_symmetry_2
P1 O1 1_555 1_555
O1 C3 1_555 1_555
O2 P1 1_555 1_555
O3 P1 1_555 1_555
O4 P1 1_555 1_555
N1 P1 1_555 1_555
C1 N1 1_555 1_555
C2 N1 1_555 1_555
C3 C4 1_555 1_555
C4 C5 1_555 1_555
C5 C6 1_555 1_555
C6 C7 1_555 1_555
C7 C8 1_555 1_555
C8 C3 1_555 1_555
C9 C8 1_555 1_555
C10 O2 1_555 1_555
C11 C9 1_555 1_555
C12 C11 1_555 1_555
C13 C12 1_555 1_555
C14 C13 1_555 1_555
C15 C10 1_555 1_555
C16 C15 1_555 1_555
C17 O3 1_555 1_555
C18 C16 1_555 1_555
C19 C18 1_555 1_555
C20 C19 1_555 1_555
C21 C20 1_555 1_555
C22 C17 1_555 1_555
C23 C22 1_555 1_555
C24 O4 1_555 1_555
C25 C23 1_555 1_555
C26 C25 1_555 1_555
C27 C26 1_555 1_555
C28 C27 1_555 1_555
C29 C24 1_555 1_555
C30 C4 1_555 1_555
H1 P1 1_555 1_555
H2 N1 1_555 1_555
H3 C1 1_555 1_555
H4 C1 1_555 1_555
H5 C1 1_555 1_555
H6 C2 1_555 1_555
H7 C2 1_555 1_555
H8 C2 1_555 1_555
H9 C5 1_555 1_555
H10 C6 1_555 1_555
H11 C7 1_555 1_555
H12 C9 1_555 1_555
H13 C9 1_555 1_555
H14 C12 1_555 1_555
H15 C13 1_555 1_555
H16 C14 1_555 1_555
H17 C16 1_555 1_555
H18 C16 1_555 1_555
H19 C19 1_555 1_555
H20 C20 1_555 1_555
H21 C21 1_555 1_555
H22 C23 1_555 1_555
H23 C23 1_555 1_555
H24 C26 1_555 1_555
H25 C27 1_555 1_555
H26 C28 1_555 1_555
H27 C30 1_555 1_555
H28 C30 1_555 1_555
P2 O5 1_555 1_555
O5 C33 1_555 1_555
O6 P2 1_555 1_555
O7 P2 1_555 1_555
O8 P2 1_555 1_555
N2 P2 1_555 1_555
C31 N2 1_555 1_555
C32 N2 1_555 1_555
C33 C34 1_555 1_555
C34 C35 1_555 1_555
C35 C36 1_555 1_555
C36 C37 1_555 1_555
C37 C38 1_555 1_555
C38 C33 1_555 1_555
C39 C34 1_555 1_555
C40 O6 1_555 1_555
C41 C40 1_555 1_555
C42 C41 1_555 1_555
C43 C42 1_555 1_555
C44 C43 1_555 1_555
C45 C40 1_555 1_555
C46 C38 1_555 1_555
C47 O7 1_555 1_555
C48 C47 1_555 1_555
C49 C48 1_555 1_555
C50 C49 1_555 1_555
C51 C50 1_555 1_555
C52 C47 1_555 1_555
C53 C45 1_555 1_555
C54 O8 1_555 1_555
C55 C54 1_555 1_555
C56 C55 1_555 1_555
C57 C56 1_555 1_555
C58 C57 1_555 1_555
C59 C39 1_555 1_555
C60 C52 1_555 1_555
H29 P2 1_555 1_555
H30 N2 1_555 1_555
H31 C31 1_555 1_555
H32 C31 1_555 1_555
H33 C31 1_555 1_555
H34 C32 1_555 1_555
H35 C32 1_555 1_555
H36 C32 1_555 1_555
H37 C35 1_555 1_555
H38 C36 1_555 1_555
H39 C37 1_555 1_555
H40 C39 1_555 1_555
H41 C39 1_555 1_555
H42 C42 1_555 1_555
H43 C43 1_555 1_555
H44 C44 1_555 1_555
H45 C46 1_555 1_555
H46 C46 1_555 1_555
H47 C49 1_555 1_555
H48 C50 1_555 1_555
H49 C51 1_555 1_555
H50 C53 1_555 1_555
H51 C53 1_555 1_555
H52 C56 1_555 1_555
H53 C57 1_555 1_555
H54 C58 1_555 1_555
H55 C60 1_555 1_555
H56 C60 1_555 1_555
C61 C62 1_555 1_555
C62 C63 1_555 1_555
C63 C64 1_555 1_555
C64 C65 1_555 1_555
C65 C66 1_555 1_555
C66 C61 1_555 1_555
H57 C61 1_555 1_555
H58 C62 1_555 1_555
H59 C63 1_555 1_555
H60 C64 1_555 1_555
H61 C65 1_555 1_555
H62 C66 1_555 1_555
C67 C68 1_555 1_555
C68 H64 1_555 1_555
C69 C67 1_555 1_555
H63 C67 1_555 1_555
H65 C69 1_555 1_555
C69A C68 1_555 1_555
C68A C69 1_555 1_555
C67A C69A 1_555 1_555
H65A C69A 1_555 1_555
H64A C68A 1_555 1_555
H63A C67A 1_555 1_555
C10 C11 1_555 1_555
C14 C15 1_555 1_555
C17 C18 1_555 1_555
C21 C22 1_555 1_555
C24 C25 1_555 1_555
C28 C29 1_555 1_555
C29 C30 1_555 1_555
C41 C46 1_555 1_555
C44 C45 1_555 1_555
C48 C53 1_555 1_555
C51 C52 1_555 1_555
C54 C59 1_555 1_555
C55 C60 1_555 1_555
C58 C59 1_555 1_555
C68A C67A 1_555 1_555

#END
