
#######################################################################
#
#                 Cambridge Crystallographic Data Centre
#                                CCDC 
#
#######################################################################
#
# If this CIF has been generated from an entry in the Cambridge 
# Structural Database, then it will include bibliographic, chemical, 
# crystal, experimental, refinement or atomic coordinate data resulting 
# from the CCDC's data processing and validation procedures.
#
#######################################################################

data_HEMRUM
_chemical_formula_moiety         'C44 H53 Br1 O3,0.5(C6 H14)'
_chemical_name_systematic        
'1,26:21,28-Diepoxy-24-bromo-5,11,17,23-tetra-t-butyl-27-hydroxy-pentacyclo(19.3.1.1^3,7^.1^9,13^.1^15,19^)octacosa-3,5,7(26),9,11,13(27),15,17,19(28),22-decaen-25-one hexane solvate'
_symmetry_cell_setting           monoclinic
_symmetry_space_group_name_H-M   'P 21/c'
_symmetry_Int_Tables_number      14
_space_group_name_Hall           '-P 2ybc'
loop_
_symmetry_equiv_pos_site_id
_symmetry_equiv_pos_as_xyz
1 x,y,z
2 -x,1/2+y,1/2-z
3 -x,-y,-z
4 x,1/2-y,1/2+z
_cell_length_a                   18.049(2)
_cell_length_b                   18.366(4)
_cell_length_c                   12.935(2)
_cell_angle_alpha                90
_cell_angle_beta                 95.59(1)
_cell_angle_gamma                90
_cell_volume                     4267.41
_chemical_melting_point          234-236deg.C
_cell_formula_units_Z            4
loop_
_atom_site_label
_atom_site_type_symbol
_atom_site_fract_x
_atom_site_fract_y
_atom_site_fract_z
Br1 Br 0.02493(2) 0.37824(3) 0.49516(4)
O1 O 0.2479(1) 0.4146(1) 0.5887(2)
O2 O 0.1420(2) 0.5512(1) 0.5253(2)
O3 O 0.2520(1) 0.5065(1) 0.3776(2)
C1 C 0.4001(2) 0.5157(2) 0.5082(2)
C2 C 0.4114(2) 0.5817(2) 0.4592(2)
C3 C 0.4476(2) 0.6368(2) 0.5155(3)
C4 C 0.4737(2) 0.6283(2) 0.6201(3)
C5 C 0.4613(2) 0.5616(2) 0.6661(3)
C6 C 0.4247(2) 0.5057(2) 0.6118(2)
C7 C 0.4086(2) 0.4345(2) 0.6640(3)
C8 C 0.2709(2) 0.4374(2) 0.6888(2)
C9 C 0.3436(2) 0.4432(2) 0.7297(2)
C10 C 0.3552(2) 0.4642(2) 0.8335(2)
C11 C 0.2970(2) 0.4812(2) 0.8938(3)
C12 C 0.2255(2) 0.4754(2) 0.8483(2)
C13 C 0.2117(2) 0.4538(2) 0.7450(2)
C14 C 0.1406(2) 0.4431(2) 0.6775(2)
C15 C 0.1590(2) 0.4919(2) 0.4967(2)
C16 C 0.1679(2) 0.4272(2) 0.5707(2)
C17 C 0.1339(2) 0.3598(2) 0.5155(3)
C18 C 0.1621(2) 0.3449(2) 0.4126(2)
C19 C 0.1798(2) 0.4003(2) 0.3545(2)
C20 C 0.1764(2) 0.4791(2) 0.3839(2)
C21 C 0.1255(2) 0.5276(2) 0.3109(3)
C22 C 0.2464(2) 0.5739(2) 0.3307(2)
C23 C 0.1750(2) 0.5918(2) 0.2923(2)
C24 C 0.1610(2) 0.6568(2) 0.2414(3)
C25 C 0.2196(2) 0.7051(2) 0.2290(3)
C26 C 0.2909(2) 0.6827(2) 0.2666(3)
C27 C 0.3073(2) 0.6167(2) 0.3167(2)
C28 C 0.3863(2) 0.5920(2) 0.3450(3)
C29 C 0.5190(3) 0.6878(3) 0.6829(4)
C30 C 0.5041(6) 0.7618(4) 0.6332(6)
C31 C 0.5990(3) 0.6635(6) 0.6962(8)
C32 C 0.4948(4) 0.6955(3) 0.7916(5)
C33 C 0.3144(3) 0.5077(3) 1.0067(3)
C34 C 0.3893(5) 0.5005(9) 1.0467(6)
C35 C 0.2656(6) 0.4734(7) 1.0756(4)
C36 C 0.294(1) 0.5860(5) 1.0109(6)
C37 C 0.1728(3) 0.2654(2) 0.3834(3)
C38 C 0.1012(4) 0.2218(3) 0.3898(5)
C39 C 0.2338(4) 0.2330(3) 0.4579(4)
C40 C 0.1952(3) 0.2586(2) 0.2712(4)
C41 C 0.2047(2) 0.7779(2) 0.1726(3)
C42 C 0.1478(5) 0.8212(3) 0.2276(6)
C43 C 0.1678(6) 0.7649(3) 0.0679(6)
C44 C 0.2699(4) 0.8253(4) 0.176(1)
H1 H 0.3752 0.4772 0.4701
H2 H 0.4550 0.6820 0.4824
H3 H 0.4786 0.5543 0.7371
H4 H 0.4049 0.4673 0.8650
H5 H 0.1850 0.4861 0.8874
H6 H 0.1432 0.3186 0.5592
H7 H 0.1962 0.3892 0.2887
H8 H 0.1116 0.6690 0.2148
H9 H 0.3311 0.7146 0.2574
H10 H 0.3965 0.3985 0.6124
H11 H 0.4515 0.4198 0.7074
H12 H 0.1132 0.4031 0.7008
H13 H 0.1107 0.4857 0.6754
H14 H 0.1101 0.5031 0.2477
H15 H 0.0829 0.5426 0.3431
H16 H 0.4182 0.6272 0.3188
H17 H 0.3923 0.5466 0.3115
H18 H 0.5322 0.7978 0.6725
H19 H 0.5183 0.7611 0.5643
H20 H 0.4526 0.7728 0.6315
H21 H 0.6024 0.6178 0.7308
H22 H 0.6171 0.6589 0.6300
H23 H 0.6279 0.6985 0.7363
H24 H 0.5268 0.7288 0.8303
H25 H 0.4451 0.7130 0.7873
H26 H 0.4974 0.6494 0.8251
H27 H 0.4020 0.4503 1.0517
H28 H 0.4202 0.5242 1.0018
H29 H 0.3962 0.5221 1.1137
H30 H 0.2756 0.4928 1.1436
H31 H 0.2152 0.4825 1.0509
H32 H 0.2743 0.4223 1.0774
H33 H 0.3025 0.6028 1.0806
H34 H 0.3244 0.6132 0.9685
H35 H 0.2434 0.5921 0.9864
H36 H 0.0870 0.2241 0.4585
H37 H 0.0627 0.2417 0.3428
H38 H 0.1094 0.1725 0.3719
H39 H 0.2202 0.2364 0.5268
H40 H 0.2407 0.1833 0.4407
H41 H 0.2789 0.2589 0.4528
H42 H 0.2015 0.2087 0.2549
H43 H 0.1573 0.2790 0.2239
H44 H 0.2406 0.2839 0.2659
H45 H 0.1679 0.8320 0.2965
H46 H 0.1364 0.8652 0.1909
H47 H 0.1037 0.7932 0.2294
H48 H 0.1550 0.8102 0.0356
H49 H 0.2005 0.7391 0.0278
H50 H 0.1239 0.7370 0.0727
H51 H 0.2875 0.8350 0.2462
H52 H 0.3079 0.8020 0.1422
H53 H 0.2566 0.8698 0.1415
C45 C 0.0152(9) 0.133(1) 0.619(1)
C46 C -0.0289(8) 0.087(1) 0.566(2)
C47 C -0.010(1) 0.018(1) 0.529(2)
C47B C 0.010(1) -0.018(1) 0.471(2)
C46B C 0.0289(8) -0.087(1) 0.434(2)
C45B C -0.0152(9) -0.133(1) 0.381(1)
loop_
_geom_bond_atom_site_label_1
_geom_bond_atom_site_label_2
_geom_bond_site_symmetry_1
_geom_bond_site_symmetry_2
Br1 C17 1_555 1_555
O1 C8 1_555 1_555
O2 C15 1_555 1_555
O3 C20 1_555 1_555
C1 C2 1_555 1_555
C2 C3 1_555 1_555
C3 C4 1_555 1_555
C4 C5 1_555 1_555
C5 C6 1_555 1_555
C6 C1 1_555 1_555
C7 C6 1_555 1_555
C8 C9 1_555 1_555
C9 C7 1_555 1_555
C10 C9 1_555 1_555
C11 C10 1_555 1_555
C12 C11 1_555 1_555
C13 C8 1_555 1_555
C14 C13 1_555 1_555
C15 C16 1_555 1_555
C16 O1 1_555 1_555
C17 C16 1_555 1_555
C18 C17 1_555 1_555
C19 C18 1_555 1_555
C20 C15 1_555 1_555
C21 C20 1_555 1_555
C22 O3 1_555 1_555
C23 C21 1_555 1_555
C24 C23 1_555 1_555
C25 C24 1_555 1_555
C26 C25 1_555 1_555
C27 C22 1_555 1_555
C28 C2 1_555 1_555
C29 C4 1_555 1_555
C30 C29 1_555 1_555
C31 C29 1_555 1_555
C32 C29 1_555 1_555
C33 C11 1_555 1_555
C34 C33 1_555 1_555
C35 C33 1_555 1_555
C36 C33 1_555 1_555
C37 C18 1_555 1_555
C38 C37 1_555 1_555
C39 C37 1_555 1_555
C40 C37 1_555 1_555
C41 C25 1_555 1_555
C42 C41 1_555 1_555
C43 C41 1_555 1_555
C44 C41 1_555 1_555
C45 C46 1_555 1_555
C46 C47 1_555 1_555
C47 C47B 1_555 1_555
H1 C1 1_555 1_555
H2 C3 1_555 1_555
H3 C5 1_555 1_555
H4 C10 1_555 1_555
H5 C12 1_555 1_555
H6 C17 1_555 1_555
H7 C19 1_555 1_555
H8 C24 1_555 1_555
H9 C26 1_555 1_555
H10 C7 1_555 1_555
H11 C7 1_555 1_555
H12 C14 1_555 1_555
H13 C14 1_555 1_555
H14 C21 1_555 1_555
H15 C21 1_555 1_555
H16 C28 1_555 1_555
H17 C28 1_555 1_555
H18 C30 1_555 1_555
H19 C30 1_555 1_555
H20 C30 1_555 1_555
H21 C31 1_555 1_555
H22 C31 1_555 1_555
H23 C31 1_555 1_555
H24 C32 1_555 1_555
H25 C32 1_555 1_555
H26 C32 1_555 1_555
H27 C34 1_555 1_555
H28 C34 1_555 1_555
H29 C34 1_555 1_555
H30 C35 1_555 1_555
H31 C35 1_555 1_555
H32 C35 1_555 1_555
H33 C36 1_555 1_555
H34 C36 1_555 1_555
H35 C36 1_555 1_555
H36 C38 1_555 1_555
H37 C38 1_555 1_555
H38 C38 1_555 1_555
H39 C39 1_555 1_555
H40 C39 1_555 1_555
H41 C39 1_555 1_555
H42 C40 1_555 1_555
H43 C40 1_555 1_555
H44 C40 1_555 1_555
H45 C42 1_555 1_555
H46 C42 1_555 1_555
H47 C42 1_555 1_555
H48 C43 1_555 1_555
H49 C43 1_555 1_555
H50 C43 1_555 1_555
H51 C44 1_555 1_555
H52 C44 1_555 1_555
H53 C44 1_555 1_555
C47B C46B 1_555 1_555
C46B C45B 1_555 1_555
C12 C13 1_555 1_555
C14 C16 1_555 1_555
C19 C20 1_555 1_555
C22 C23 1_555 1_555
C26 C27 1_555 1_555
C27 C28 1_555 1_555

#END
