
#######################################################################
#
#                 Cambridge Crystallographic Data Centre
#                                CCDC 
#
#######################################################################
#
# If this CIF has been generated from an entry in the Cambridge 
# Structural Database, then it will include bibliographic, chemical, 
# crystal, experimental, refinement or atomic coordinate data resulting 
# from the CCDC's data processing and validation procedures.
#
#######################################################################

data_HENCOV
_chemical_formula_moiety         'C28 H28 N2 O2'
_chemical_name_systematic        
N^4^,N^4'^-dibenzyl-3,3'-dimethoxy[1,1'-biphenyl]-4,4'-diamine
_symmetry_cell_setting           triclinic
_symmetry_space_group_name_H-M   'P -1'
_symmetry_Int_Tables_number      2
_space_group_name_Hall           '-P 1'
loop_
_symmetry_equiv_pos_site_id
_symmetry_equiv_pos_as_xyz
1 x,y,z
2 -x,-y,-z
_cell_length_a                   4.7089(2)
_cell_length_b                   9.6760(4)
_cell_length_c                   12.1952(5)
_cell_angle_alpha                93.387(3)
_cell_angle_beta                 92.165(2)
_cell_angle_gamma                103.180(2)
_cell_volume                     539.321
_exptl_crystal_colour            yellow
_exptl_crystal_description       plate
_cell_formula_units_Z            1
loop_
_atom_site_label
_atom_site_type_symbol
_atom_site_fract_x
_atom_site_fract_y
_atom_site_fract_z
O1 O 0.2453(3) 0.22554(13) 0.81729(9)
N1 N 0.6872(3) 0.38961(16) 0.72486(12)
H1 H 0.6890 0.3862 0.7968
C1 C -0.0076(4) 0.15213(19) 0.86818(14)
H2 H -0.1827 0.1701 0.8312
H3 H 0.0024 0.1860 0.9459
H4 H -0.0163 0.0498 0.8625
C2 C 0.2594(3) 0.19646(17) 0.70622(13)
C3 C 0.0682(3) 0.08840(16) 0.64431(13)
H5 H -0.0911 0.0316 0.6786
C4 C 0.1022(3) 0.06000(16) 0.53238(13)
C5 C 0.3347(4) 0.14802(18) 0.48559(14)
H6 H 0.3646 0.1318 0.4098
C6 C 0.5243(4) 0.25895(18) 0.54660(14)
H7 H 0.6790 0.3178 0.5114
C7 C 0.4931(3) 0.28575(17) 0.65775(14)
C8 C 0.8843(16) 0.5024(3) 0.6758(5)
H8 H 0.7710 0.5531 0.6291
H9 H 1.0144 0.4613 0.6282
C9 C 1.0656(4) 0.60586(18) 0.76161(15)
C10 C 1.1686(4) 0.56526(18) 0.86005(15)
H10 H 1.1067 0.4695 0.8787
C11 C 1.3596(4) 0.66246(19) 0.93095(14)
H11 H 1.4302 0.6334 0.9978
C12 C 1.4480(4) 0.80198(18) 0.90472(15)
H12 H 1.5781 0.8693 0.9538
C13 C 1.3474(4) 0.84355(18) 0.80734(15)
H13 H 1.4098 0.9394 0.7889
C14 C 1.1558(4) 0.74595(18) 0.73633(14)
H14 H 1.0855 0.7754 0.6696
O1A O -0.2453(3) -0.22554(13) 0.18271(9)
N1A N -0.6872(3) -0.38961(16) 0.27514(12)
H1A H -0.6890 -0.3862 0.2032
C1A C 0.0076(4) -0.15213(19) 0.13182(14)
H2A H 0.1827 -0.1701 0.1688
H3A H -0.0024 -0.1860 0.0541
H4A H 0.0163 -0.0498 0.1375
C2A C -0.2594(3) -0.19646(17) 0.29378(13)
C3A C -0.0682(3) -0.08840(16) 0.35569(13)
H5A H 0.0911 -0.0316 0.3214
C4A C -0.1022(3) -0.06000(16) 0.46762(13)
C5A C -0.3347(4) -0.14802(18) 0.51441(14)
H6A H -0.3646 -0.1318 0.5902
C6A C -0.5243(4) -0.25895(18) 0.45340(14)
H7A H -0.6790 -0.3178 0.4886
C7A C -0.4931(3) -0.28575(17) 0.34225(14)
C8A C -0.8843(16) -0.5024(3) 0.3242(5)
H8A H -0.7710 -0.5531 0.3709
H9A H -1.0144 -0.4613 0.3718
C9A C -1.0656(4) -0.60586(18) 0.23839(15)
C10A C -1.1686(4) -0.56526(18) 0.13995(15)
H10A H -1.1067 -0.4695 0.1213
C11A C -1.3596(4) -0.66246(19) 0.06905(14)
H11A H -1.4302 -0.6334 0.0022
C12A C -1.4480(4) -0.80198(18) 0.09528(15)
H12A H -1.5781 -0.8693 0.0462
C13A C -1.3474(4) -0.84355(18) 0.19266(15)
H13A H -1.4098 -0.9394 0.2111
C14A C -1.1558(4) -0.74595(18) 0.26367(14)
H14A H -1.0855 -0.7754 0.3304
C15? C 0.791(3) 0.4999(12) 0.7085(11)
H15? H 0.6326 0.5513 0.7158
H16? H 0.8268 0.4949 0.6291
loop_
_geom_bond_atom_site_label_1
_geom_bond_atom_site_label_2
_geom_bond_site_symmetry_1
_geom_bond_site_symmetry_2
O1 C1 1_555 1_555
N1 H1 1_555 1_555
C1 H2 1_555 1_555
H3 C1 1_555 1_555
H4 C1 1_555 1_555
C2 O1 1_555 1_555
C3 C2 1_555 1_555
H5 C3 1_555 1_555
C4 C3 1_555 1_555
C5 C4 1_555 1_555
H6 C5 1_555 1_555
C6 C5 1_555 1_555
H7 C6 1_555 1_555
C7 N1 1_555 1_555
C8 N1 1_555 1_555
H8 C8 1_555 1_555
H9 C8 1_555 1_555
C9 C8 1_555 1_555
C10 C9 1_555 1_555
H10 C10 1_555 1_555
C11 C10 1_555 1_555
H11 C11 1_555 1_555
C12 C11 1_555 1_555
H12 C12 1_555 1_555
C13 C12 1_555 1_555
H13 C13 1_555 1_555
C14 C9 1_555 1_555
H14 C14 1_555 1_555
O1A C1A 1_555 1_555
N1A H1A 1_555 1_555
C1A H2A 1_555 1_555
H3A C1A 1_555 1_555
H4A C1A 1_555 1_555
C2A O1A 1_555 1_555
C3A C2A 1_555 1_555
H5A C3A 1_555 1_555
C4A C4 1_555 1_555
C5A C4A 1_555 1_555
H6A C5A 1_555 1_555
C6A C5A 1_555 1_555
H7A C6A 1_555 1_555
C7A N1A 1_555 1_555
C8A N1A 1_555 1_555
H8A C8A 1_555 1_555
H9A C8A 1_555 1_555
C9A C8A 1_555 1_555
C10A C9A 1_555 1_555
H10A C10A 1_555 1_555
C11A C10A 1_555 1_555
H11A C11A 1_555 1_555
C12A C11A 1_555 1_555
H12A C12A 1_555 1_555
C13A C12A 1_555 1_555
H13A C13A 1_555 1_555
C14A C9A 1_555 1_555
H14A C14A 1_555 1_555
C2 C7 1_555 1_555
C6 C7 1_555 1_555
C13 C14 1_555 1_555
C2A C7A 1_555 1_555
C3A C4A 1_555 1_555
C6A C7A 1_555 1_555
C13A C14A 1_555 1_555

#END
