
#######################################################################
#
#                 Cambridge Crystallographic Data Centre
#                                CCDC 
#
#######################################################################
#
# If this CIF has been generated from an entry in the Cambridge 
# Structural Database, then it will include bibliographic, chemical, 
# crystal, experimental, refinement or atomic coordinate data resulting 
# from the CCDC's data processing and validation procedures.
#
#######################################################################

data_HENNIA
_chemical_formula_moiety         'C21 H15 Br1 O5'
_chemical_name_systematic        
'methyl 4-bromo-2a-methoxy-2-oxo-2a,11b-dihydrobenzo[2,3]fluoreno[9,1-bc]furan-11c(2H)-carboxylate'
_symmetry_cell_setting           triclinic
_symmetry_space_group_name_H-M   'P -1'
_symmetry_Int_Tables_number      2
_space_group_name_Hall           '-P 1'
loop_
_symmetry_equiv_pos_site_id
_symmetry_equiv_pos_as_xyz
1 x,y,z
2 -x,-y,-z
_cell_length_a                   8.0941(2)
_cell_length_b                   9.6765(2)
_cell_length_c                   11.9451(3)
_cell_angle_alpha                70.653(2)
_cell_angle_beta                 81.146(2)
_cell_angle_gamma                88.316(2)
_cell_volume                     871.986
_exptl_crystal_colour            colorless
_exptl_crystal_description       block
_cell_formula_units_Z            2
loop_
_atom_site_label
_atom_site_type_symbol
_atom_site_fract_x
_atom_site_fract_y
_atom_site_fract_z
Br1 Br 0.76215(3) 0.97114(2) 0.02377(2)
O1 O 0.50957(17) 0.19524(15) 0.38346(12)
O2 O 0.52593(18) 0.43929(15) 0.12666(12)
O3 O 0.73589(18) 0.34244(16) 0.33585(13)
O4 O 0.13519(18) 0.54378(15) 0.19758(13)
O5 O 0.1447(2) 0.32549(16) 0.16858(13)
C1 C 0.5028(2) 0.5932(2) 0.24512(17)
C2 C 0.1680(2) 0.2808(2) 0.51226(17)
C3 C 0.5927(2) 0.3245(2) 0.32716(16)
C4 C 0.6054(2) 0.6925(2) 0.15204(18)
H1 H 0.661214 0.664978 0.088903
C5 C 0.3008(3) 0.5331(2) 0.43360(17)
H2 H 0.262950 0.552757 0.504240
C6 C 0.2187(2) 0.1567(2) 0.48162(17)
C7 C 0.3079(2) 0.3689(2) 0.30777(16)
C8 C 0.1677(3) 0.0171(2) 0.55759(19)
H3 H 0.202127 -0.065093 0.537164
C9 C 0.4817(2) 0.4364(2) 0.24736(16)
C10 C 0.1852(2) 0.4064(2) 0.21799(17)
C11 C 0.4152(2) 0.6372(2) 0.33855(17)
C12 C 0.3337(2) 0.2027(2) 0.36355(17)
H4 H 0.311683 0.147893 0.311361
C13 C 0.2499(2) 0.4106(2) 0.42043(16)
C14 C 0.6246(3) 0.8346(2) 0.15359(19)
C15 C 0.4415(3) 0.7785(2) 0.33957(19)
H5 H 0.387276 0.806334 0.402969
C16 C 0.5680(3) 0.3048(2) 0.10442(18)
H6 H 0.607266 0.325061 0.020406
H7 H 0.470658 0.241348 0.128081
H8 H 0.654083 0.257808 0.149866
C17 C 0.0639(3) 0.2668(2) 0.61992(18)
H9 H 0.030077 0.348807 0.640902
C18 C 0.0639(3) 0.0033(2) 0.66495(19)
H10 H 0.028746 -0.089394 0.717313
C19 C 0.5467(3) 0.8778(2) 0.2481(2)
H11 H 0.564804 0.971509 0.249760
C20 C 0.0120(3) 0.1267(3) 0.69500(19)
H12 H -0.058832 0.115076 0.766775
C21 C 0.0218(3) 0.5942(3) 0.1102(2)
H13 H 0.077490 0.594711 0.033097
H14 H -0.012463 0.691624 0.105368
H15 H -0.074647 0.529835 0.134371
loop_
_geom_bond_atom_site_label_1
_geom_bond_atom_site_label_2
_geom_bond_site_symmetry_1
_geom_bond_site_symmetry_2
Br1 C14 1_555 1_555
O1 C3 1_555 1_555
O2 C9 1_555 1_555
O3 C3 1_555 1_555
O4 C10 1_555 1_555
O5 C10 1_555 1_555
C1 C4 1_555 1_555
C2 C6 1_555 1_555
C3 C9 1_555 1_555
C4 H1 1_555 1_555
C5 H2 1_555 1_555
C6 C8 1_555 1_555
C7 C9 1_555 1_555
C8 H3 1_555 1_555
C9 C1 1_555 1_555
C10 C7 1_555 1_555
C11 C1 1_555 1_555
C12 O1 1_555 1_555
H4 C12 1_555 1_555
C13 C2 1_555 1_555
C14 C4 1_555 1_555
C15 C11 1_555 1_555
H5 C15 1_555 1_555
C16 O2 1_555 1_555
H6 C16 1_555 1_555
H7 C16 1_555 1_555
H8 C16 1_555 1_555
C17 C2 1_555 1_555
H9 C17 1_555 1_555
C18 C8 1_555 1_555
H10 C18 1_555 1_555
C19 C14 1_555 1_555
H11 C19 1_555 1_555
C20 C17 1_555 1_555
H12 C20 1_555 1_555
C21 O4 1_555 1_555
H13 C21 1_555 1_555
H14 C21 1_555 1_555
H15 C21 1_555 1_555
C5 C11 1_555 1_555
C5 C13 1_555 1_555
C6 C12 1_555 1_555
C7 C12 1_555 1_555
C7 C13 1_555 1_555
C15 C19 1_555 1_555
C18 C20 1_555 1_555

#END
