
#######################################################################
#
#                 Cambridge Crystallographic Data Centre
#                                CCDC 
#
#######################################################################
#
# If this CIF has been generated from an entry in the Cambridge 
# Structural Database, then it will include bibliographic, chemical, 
# crystal, experimental, refinement or atomic coordinate data resulting 
# from the CCDC's data processing and validation procedures.
#
#######################################################################

data_HEPJOB
_chemical_formula_moiety         'C26 H27 N1 O4'
_chemical_name_systematic        
'(1R,2S)-N-t-Butoxycarbonyl-2-amino-1-acenaphthenyl (S)-2-phenylpropionate'
_symmetry_cell_setting           monoclinic
_symmetry_space_group_name_H-M   'P 21'
_symmetry_Int_Tables_number      4
_space_group_name_Hall           'P 2yb'
loop_
_symmetry_equiv_pos_site_id
_symmetry_equiv_pos_as_xyz
1 x,y,z
2 -x,1/2+y,-z
_cell_length_a                   16.337(8)
_cell_length_b                   5.282(3)
_cell_length_c                   13.008(7)
_cell_angle_alpha                90
_cell_angle_beta                 100.82(4)
_cell_angle_gamma                90
_cell_volume                     1102.53
_exptl_crystal_colour            white
_chemical_melting_point          163.5-163.8deg.C
_cell_formula_units_Z            2
loop_
_atom_site_label
_atom_site_type_symbol
_atom_site_fract_x
_atom_site_fract_y
_atom_site_fract_z
O1 O -0.2152(1) -0.0635(9) -0.2471(2)
O2 O -0.2722(2) 0.1061(7) -0.5753(2)
O3 O -0.3210(2) 0.4077(7) -0.4787(2)
O4 O -0.1501(2) 0.2795(9) -0.2856(5)
N1 N -0.3231(2) -0.0074(8) -0.4366(2)
C1 C 0.0464(2) 0.1220(9) -0.1952(3)
C2 C -0.4106(2) -0.1781(8) -0.3158(2)
C3 C -0.4364(2) -0.376(1) -0.1528(3)
C4 C -0.3289(2) -0.0498(9) -0.1565(2)
C5 C -0.4708(2) -0.326(1) -0.3732(3)
C6 C -0.5132(2) -0.502(1) -0.3219(3)
C7 C -0.3932(2) -0.2062(9) -0.2059(2)
C8 C -0.0063(2) -0.0848(8) -0.1976(3)
C9 C -0.1507(2) 0.0585(9) -0.2700(4)
C10 C -0.3570(2) 0.0350(9) -0.3436(3)
C11 C 0.0106(3) -0.2596(9) -0.1177(4)
C12 C -0.1777(3) 0.462(1) -0.5854(4)
C13 C -0.2905(2) 0.0779(9) -0.2402(3)
C14 C -0.0820(2) -0.119(1) -0.2858(4)
C15 C -0.2426(2) 0.2872(9) -0.6469(3)
C16 C -0.3529(3) -0.209(1) 0.0060(3)
C17 C -0.3089(2) -0.049(1) -0.0501(3)
C18 C -0.4972(2) -0.532(1) -0.2154(3)
C19 C 0.1150(2) 0.149(1) -0.1155(3)
C20 C -0.0614(3) -0.078(2) -0.3946(4)
C21 C -0.4139(2) -0.372(1) -0.0420(3)
C22 C 0.0794(3) -0.231(1) -0.0379(3)
C23 C -0.3150(3) 0.434(1) -0.7080(4)
C24 C -0.2015(5) 0.114(1) -0.7154(5)
C25 C 0.1310(3) -0.027(1) -0.0368(3)
C26 C -0.3060(2) 0.1896(9) -0.4955(2)
H1 H 0.042(3) 0.25(1) -0.243(3)
H2 H 0.152(3) 0.31(1) -0.108(4)
H3 H 0.173(3) 0.00(1) 0.018(4)
H4 H 0.092(3) -0.36(1) 0.020(4)
H5 H -0.025(3) -0.39(1) -0.124(4)
H6 H -0.114(4) -0.10(2) -0.460(4)
H7 H -0.016(4) -0.19(2) -0.400(5)
H8 H -0.099(3) -0.29(1) -0.281(4)
H9 H -0.277(3) 0.25(1) -0.222(3)
H10 H -0.262(3) 0.06(1) -0.016(4)
H11 H -0.338(3) -0.22(1) 0.087(4)
H12 H -0.445(3) -0.46(1) -0.001(4)
H13 H -0.527(3) -0.65(1) -0.176(4)
H14 H -0.554(3) -0.60(1) -0.361(4)
H15 H -0.480(3) -0.32(1) -0.447(3)
H16 H -0.390(3) 0.17(1) -0.346(4)
H17 H -0.310(3) -0.17(1) -0.452(4)
H18 H -0.345(4) 0.28(2) -0.744(5)
H19 H -0.341(4) 0.53(2) -0.655(5)
H20 H -0.292(4) 0.52(2) -0.764(5)
H21 H -0.255(4) 0.06(2) -0.755(5)
H22 H -0.186(4) 0.22(2) -0.766(5)
H23 H -0.144(4) 0.00(2) -0.664(5)
H24 H -0.212(4) 0.60(1) -0.551(4)
H25 H -0.154(4) 0.59(1) -0.641(4)
H26 H -0.147(4) 0.37(1) -0.590(5)
H27 H -0.042(4) 0.07(2) -0.394(6)
loop_
_geom_bond_atom_site_label_1
_geom_bond_atom_site_label_2
_geom_bond_site_symmetry_1
_geom_bond_site_symmetry_2
O1 C9 1_555 1_555
O2 C15 1_555 1_555
O3 C26 1_555 1_555
O4 C9 1_555 1_555
N1 C10 1_555 1_555
C1 C8 1_555 1_555
C2 C5 1_555 1_555
C3 C7 1_555 1_555
C4 C7 1_555 1_555
C5 C6 1_555 1_555
C6 C18 1_555 1_555
C7 C2 1_555 1_555
C8 C11 1_555 1_555
C9 C14 1_555 1_555
C10 C2 1_555 1_555
C11 C22 1_555 1_555
C12 C15 1_555 1_555
C13 O1 1_555 1_555
C14 C8 1_555 1_555
C15 C23 1_555 1_555
C16 C17 1_555 1_555
C17 C4 1_555 1_555
C18 C3 1_555 1_555
C19 C1 1_555 1_555
C20 C14 1_555 1_555
C21 C3 1_555 1_555
C22 C25 1_555 1_555
C23 H18 1_555 1_555
C24 C15 1_555 1_555
C25 C19 1_555 1_555
C26 O2 1_555 1_555
H1 C1 1_555 1_555
H2 C19 1_555 1_555
H3 C25 1_555 1_555
H4 C22 1_555 1_555
H5 C11 1_555 1_555
H6 C20 1_555 1_555
H7 C20 1_555 1_555
H8 C14 1_555 1_555
H9 C13 1_555 1_555
H10 C17 1_555 1_555
H11 C16 1_555 1_555
H12 C21 1_555 1_555
H13 C18 1_555 1_555
H14 C6 1_555 1_555
H15 C5 1_555 1_555
H16 C10 1_555 1_555
H17 N1 1_555 1_555
H19 C23 1_555 1_555
H20 C23 1_555 1_555
H21 C24 1_555 1_555
H22 C24 1_555 1_555
H23 C24 1_555 1_555
H24 C12 1_555 1_555
H25 C12 1_555 1_555
H26 C12 1_555 1_555
H27 C20 1_555 1_555
N1 C26 1_555 1_555
C4 C13 1_555 1_555
C10 C13 1_555 1_555
C16 C21 1_555 1_555

#END
