
#######################################################################
#
#                 Cambridge Crystallographic Data Centre
#                                CCDC 
#
#######################################################################
#
# If this CIF has been generated from an entry in the Cambridge 
# Structural Database, then it will include bibliographic, chemical, 
# crystal, experimental, refinement or atomic coordinate data resulting 
# from the CCDC's data processing and validation procedures.
#
#######################################################################

data_HEPKAR
_chemical_name_common            
'pentadeuteroimidazolium deuterium terephthalate'
_chemical_formula_moiety         'C8 H4 D1 O4 1-,C3 D5 N2 1+'
_chemical_name_systematic        
'pentadeuteroimidazolium 4-(deuterocarboxy)benzoate'
_symmetry_cell_setting           monoclinic
_symmetry_space_group_name_H-M   'P 21/n'
_symmetry_Int_Tables_number      14
_space_group_name_Hall           '-P 2yn'
loop_
_symmetry_equiv_pos_site_id
_symmetry_equiv_pos_as_xyz
1 x,y,z
2 1/2-x,1/2+y,1/2-z
3 -x,-y,-z
4 1/2+x,1/2-y,1/2+z
_cell_length_a                   9.754(5)
_cell_length_b                   15.837(7)
_cell_length_c                   13.839(7)
_cell_angle_alpha                90
_cell_angle_beta                 90.472(7)
_cell_angle_gamma                90
_cell_volume                     2137.69
_exptl_crystal_colour            colorless
_exptl_crystal_description       block
_cell_formula_units_Z            8
loop_
_atom_site_label
_atom_site_type_symbol
_atom_site_fract_x
_atom_site_fract_y
_atom_site_fract_z
C1 C 0.33543(13) 0.60605(9) 0.60828(11)
C2 C 0.18573(13) 0.58434(9) 0.62012(10)
C3 C 0.14426(13) 0.50051(9) 0.61540(11)
H1 H 0.2094 0.4580 0.6096
C4 C 0.00630(14) 0.47988(9) 0.61923(11)
H2 H -0.0207 0.4236 0.6163
C5 C -0.09138(13) 0.54284(9) 0.62744(10)
C6 C -0.23939(13) 0.51869(9) 0.62554(10)
C7 C -0.05080(14) 0.62673(9) 0.63484(11)
H3 H -0.1160 0.6691 0.6419
C8 C 0.08764(14) 0.64704(9) 0.63167(11)
H4 H 0.1149 0.7031 0.6373
O1 O 0.42111(11) 0.55059(8) 0.62866(11)
O2 O 0.36423(10) 0.67921(7) 0.57690(9)
O3 O -0.32323(11) 0.58327(7) 0.61972(10)
O4 O -0.27705(11) 0.44583(7) 0.62795(11)
D1 D -0.415(2) 0.5649(13) 0.6216(15)
C9 C 0.54937(15) 0.64660(10) 0.36591(13)
D2 D 0.4787 0.6076 0.3589
C10 C 0.68586(19) 0.74273(12) 0.42602(14)
D3 D 0.7253 0.7815 0.4684
C11 C 0.72866(18) 0.72386(12) 0.33713(14)
D4 D 0.8034 0.7475 0.3057
N1 N 0.57250(13) 0.69382(9) 0.44255(10)
D5 D 0.5245 0.6940 0.4944
N2 N 0.64278(13) 0.66370(8) 0.30098(10)
D6 D 0.6487 0.6407 0.2449
C12 C -0.27252(13) 0.50653(9) 0.12457(10)
C13 C -0.12212(13) 0.52823(8) 0.12581(9)
C14 C -0.07855(13) 0.61190(9) 0.12760(10)
H5 H -0.1428 0.6553 0.1277
C15 C 0.06045(13) 0.63086(9) 0.12929(10)
H6 H 0.0889 0.6869 0.1303
C16 C 0.15707(13) 0.56657(8) 0.12940(10)
C17 C 0.30619(14) 0.58901(9) 0.13214(11)
C18 C 0.11401(13) 0.48286(9) 0.12725(10)
H7 H 0.1783 0.4395 0.1272
C19 C -0.02502(13) 0.46405(9) 0.12522(10)
H8 H -0.0534 0.4080 0.1234
O5 O -0.35657(9) 0.56633(7) 0.13986(8)
O6 O -0.30579(11) 0.43226(7) 0.10823(10)
O7 O 0.38774(11) 0.52349(7) 0.13395(10)
O8 O 0.34688(11) 0.66139(7) 0.13298(10)
D7 D 0.488(3) 0.5412(16) 0.1337(18)
C20 C 0.40873(18) 0.30920(11) 0.03602(13)
D8 D 0.4325 0.3229 -0.0270
C21 C 0.30828(19) 0.25163(12) 0.15867(14)
D9 D 0.2502 0.2186 0.1958
C22 C 0.4053(2) 0.30470(12) 0.19159(14)
D10 D 0.4266 0.3154 0.2561
N3 N 0.31136(14) 0.25552(9) 0.06107(11)
D11 D 0.2590 0.2279 0.0220
N4 N 0.46607(13) 0.33979(8) 0.11410(11)
D12 D 0.5315 0.3762 0.1158
loop_
_geom_bond_atom_site_label_1
_geom_bond_atom_site_label_2
_geom_bond_site_symmetry_1
_geom_bond_site_symmetry_2
C1 C2 1_555 1_555
C2 C3 1_555 1_555
C3 H1 1_555 1_555
C4 C3 1_555 1_555
H2 C4 1_555 1_555
C5 C4 1_555 1_555
C6 C5 1_555 1_555
C7 C5 1_555 1_555
H3 C7 1_555 1_555
C8 C2 1_555 1_555
H4 C8 1_555 1_555
O1 C1 1_555 1_555
O2 C1 1_555 1_555
O3 C6 1_555 1_555
O4 C6 1_555 1_555
D1 O3 1_555 1_555
C9 D2 1_555 1_555
C10 D3 1_555 1_555
C11 C10 1_555 1_555
D4 C11 1_555 1_555
N1 C9 1_555 1_555
D5 N1 1_555 1_555
N2 C9 1_555 1_555
D6 N2 1_555 1_555
C12 C13 1_555 1_555
C13 C14 1_555 1_555
C14 H5 1_555 1_555
C15 C14 1_555 1_555
H6 C15 1_555 1_555
C16 C15 1_555 1_555
C17 C16 1_555 1_555
C18 C16 1_555 1_555
H7 C18 1_555 1_555
C19 C13 1_555 1_555
H8 C19 1_555 1_555
O5 C12 1_555 1_555
O6 C12 1_555 1_555
O7 C17 1_555 1_555
O8 C17 1_555 1_555
D7 O7 1_555 1_555
C20 D8 1_555 1_555
C21 D9 1_555 1_555
C22 C21 1_555 1_555
D10 C22 1_555 1_555
N3 C20 1_555 1_555
D11 N3 1_555 1_555
N4 C20 1_555 1_555
D12 N4 1_555 1_555
C7 C8 1_555 1_555
C10 N1 1_555 1_555
C11 N2 1_555 1_555
C18 C19 1_555 1_555
C21 N3 1_555 1_555
C22 N4 1_555 1_555

#END
