
#######################################################################
#
#                 Cambridge Crystallographic Data Centre
#                                CCDC 
#
#######################################################################
#
# If this CIF has been generated from an entry in the Cambridge 
# Structural Database, then it will include bibliographic, chemical, 
# crystal, experimental, refinement or atomic coordinate data resulting 
# from the CCDC's data processing and validation procedures.
#
#######################################################################

data_HEPKAR04
_chemical_name_common            
'pentadeuteroimidazolium deuterium terephthalate'
_chemical_formula_moiety         'C8 H4 D1 O4 1-,C3 D5 N2 1+'
_chemical_name_systematic        
'pentadeuteroimidazolium 4-(deuterocarboxy)benzoate'
_symmetry_cell_setting           orthorhombic
_symmetry_space_group_name_H-M   'P n m a'
_symmetry_Int_Tables_number      62
_space_group_name_Hall           '-P 2ac 2n'
loop_
_symmetry_equiv_pos_site_id
_symmetry_equiv_pos_as_xyz
1 x,y,z
2 1/2-x,-y,1/2+z
3 -x,1/2+y,-z
4 1/2+x,1/2-y,1/2-z
5 -x,-y,-z
6 1/2+x,y,1/2-z
7 x,1/2-y,z
8 1/2-x,1/2+y,1/2+z
_cell_length_a                   9.684(9)
_cell_length_b                   7.089(6)
_cell_length_c                   15.847(15)
_cell_angle_alpha                90
_cell_angle_beta                 90
_cell_angle_gamma                90
_cell_volume                     1087.89
_exptl_crystal_colour            colorless
_exptl_crystal_description       block
_cell_formula_units_Z            4
loop_
_atom_site_label
_atom_site_type_symbol
_atom_site_fract_x
_atom_site_fract_y
_atom_site_fract_z
C1 C 0.2144(2) 0.2500 0.00927(16)
C2 C 0.3656(2) 0.2500 0.03220(14)
C3 C 0.4650(2) 0.2500 -0.03100(15)
H1 H 0.4379 0.2500 -0.0873
C4 C 0.6041(2) 0.2500 -0.01076(15)
H2 H 0.6699 0.2500 -0.0535
C5 C 0.6456(2) 0.2500 0.07297(14)
C6 C 0.7957(2) 0.2500 0.09603(16)
C7 C 0.5460(2) 0.2500 0.13622(15)
H3 H 0.5729 0.2500 0.1926
C8 C 0.4069(2) 0.2500 0.11561(15)
H4 H 0.3409 0.2500 0.1582
O1 O 0.13028(18) 0.2500 0.07030(12)
O2 O 0.1811(2) 0.2500 -0.06635(12)
O3 O 0.87887(18) 0.2500 0.03360(13)
O4 O 0.8330(2) 0.2500 0.16864(13)
D1 D 0.987(6) 0.2500 0.050(3)
C9? C 0.1312(9) 0.8943(14) 0.1836(6)
D2? D 0.1159 1.0100 0.1586
C10? C 0.1895(12) 0.643(3) 0.2528(9)
D3? D 0.2363 0.5709 0.2920
C11? C 0.0950(9) 0.5974(16) 0.1980(6)
D4? D 0.0591 0.4780 0.1904
N1? N 0.0571(3) 0.7500 0.15662(15)
D5? D -0.0074 0.7500 0.1135
N2? N 0.2120(10) 0.836(2) 0.2444(6)
D6? D 0.2797 0.8770 0.2811
loop_
_geom_bond_atom_site_label_1
_geom_bond_atom_site_label_2
_geom_bond_site_symmetry_1
_geom_bond_site_symmetry_2
C1 C2 1_555 1_555
C2 C3 1_555 1_555
C3 H1 1_555 1_555
C4 C3 1_555 1_555
H2 C4 1_555 1_555
C5 C4 1_555 1_555
C6 C5 1_555 1_555
C7 C5 1_555 1_555
H3 C7 1_555 1_555
C8 C2 1_555 1_555
H4 C8 1_555 1_555
O1 C1 1_555 1_555
O2 C1 1_555 1_555
O3 C6 1_555 1_555
O4 C6 1_555 1_555
D1 O3 1_555 1_555
C7 C8 1_555 1_555

#END
