
#######################################################################
#
#                 Cambridge Crystallographic Data Centre
#                                CCDC 
#
#######################################################################
#
# If this CIF has been generated from an entry in the Cambridge 
# Structural Database, then it will include bibliographic, chemical, 
# crystal, experimental, refinement or atomic coordinate data resulting 
# from the CCDC's data processing and validation procedures.
#
#######################################################################

data_HEPKAR01
_chemical_name_common            
'pentadeuteroimidazolium deuterium terephthalate'
_chemical_formula_moiety         'C8 H4 D1 O4 1-,C3 D5 N2 1+'
_chemical_name_systematic        
'pentadeuteroimidazolium 4-(deuterocarboxy)benzoate'
_symmetry_cell_setting           monoclinic
_symmetry_space_group_name_H-M   'P 21/n'
_symmetry_Int_Tables_number      14
_space_group_name_Hall           '-P 2yn'
loop_
_symmetry_equiv_pos_site_id
_symmetry_equiv_pos_as_xyz
1 x,y,z
2 1/2-x,1/2+y,1/2-z
3 -x,-y,-z
4 1/2+x,1/2-y,1/2+z
_cell_length_a                   9.761(4)
_cell_length_b                   15.859(7)
_cell_length_c                   13.883(6)
_cell_angle_alpha                90
_cell_angle_beta                 90.506(6)
_cell_angle_gamma                90
_cell_volume                     2149
_exptl_crystal_colour            colorless
_exptl_crystal_description       block
_cell_formula_units_Z            8
loop_
_atom_site_label
_atom_site_type_symbol
_atom_site_fract_x
_atom_site_fract_y
_atom_site_fract_z
C1 C 0.33542(14) 0.60629(10) 0.60799(12)
C2 C 0.18570(14) 0.58439(9) 0.61995(10)
C3 C 0.14416(14) 0.50082(10) 0.61537(11)
H1 H 0.2093 0.4584 0.6097
C4 C 0.00623(14) 0.48009(10) 0.61926(11)
H2 H -0.0207 0.4239 0.6165
C5 C -0.09149(13) 0.54315(9) 0.62731(10)
C6 C -0.23952(14) 0.51893(10) 0.62560(11)
C7 C -0.05111(14) 0.62679(10) 0.63444(11)
H3 H -0.1163 0.6691 0.6413
C8 C 0.08747(14) 0.64701(10) 0.63121(11)
H4 H 0.1147 0.7030 0.6366
O1 O 0.42094(11) 0.55083(8) 0.62854(12)
O2 O 0.36412(11) 0.67930(7) 0.57666(9)
O3 O -0.32348(11) 0.58334(8) 0.61979(11)
O4 O -0.27715(11) 0.44605(8) 0.62804(11)
D1 D -0.415(3) 0.5644(15) 0.6234(17)
C9 C 0.54916(16) 0.64645(10) 0.36611(14)
D2 D 0.4787 0.6074 0.3593
C10 C 0.6852(2) 0.74284(13) 0.42559(14)
D3 D 0.7244 0.7817 0.4677
C11 C 0.7278(2) 0.72407(13) 0.33697(14)
D4 D 0.8021 0.7478 0.3055
N1 N 0.57242(14) 0.69366(9) 0.44226(11)
D5 D 0.5247 0.6937 0.4941
N2 N 0.64221(14) 0.66373(9) 0.30113(11)
D6 D 0.6481 0.6407 0.2452
C12 C -0.27243(14) 0.50680(10) 0.12481(10)
C13 C -0.12217(13) 0.52845(9) 0.12592(10)
C14 C -0.07867(14) 0.61200(9) 0.12756(11)
H5 H -0.1429 0.6553 0.1276
C15 C 0.06022(14) 0.63093(9) 0.12915(11)
H6 H 0.0886 0.6869 0.1300
C16 C 0.15692(13) 0.56680(9) 0.12941(10)
C17 C 0.30615(14) 0.58932(9) 0.13200(11)
C18 C 0.11383(14) 0.48314(9) 0.12715(11)
H7 H 0.1781 0.4399 0.1268
C19 C -0.02498(14) 0.46434(9) 0.12539(11)
H8 H -0.0533 0.4084 0.1238
O5 O -0.35675(10) 0.56654(7) 0.13988(9)
O6 O -0.30601(11) 0.43253(7) 0.10882(11)
O7 O 0.38750(11) 0.52380(7) 0.13370(11)
O8 O 0.34659(11) 0.66157(7) 0.13279(11)
D7 D 0.485(3) 0.5416(17) 0.1346(18)
C20 C 0.40841(19) 0.30948(12) 0.03657(14)
D8 D 0.4320 0.3234 -0.0262
C21 C 0.3089(2) 0.25146(12) 0.15898(15)
D9 D 0.2513 0.2182 0.1961
C22 C 0.4057(2) 0.30462(13) 0.19154(15)
D10 D 0.4274 0.3151 0.2558
N3 N 0.31143(15) 0.25572(9) 0.06151(11)
D11 D 0.2590 0.2282 0.0226
N4 N 0.46575(14) 0.33995(8) 0.11460(11)
D12 D 0.5309 0.3764 0.1164
loop_
_geom_bond_atom_site_label_1
_geom_bond_atom_site_label_2
_geom_bond_site_symmetry_1
_geom_bond_site_symmetry_2
C1 C2 1_555 1_555
C2 C3 1_555 1_555
C3 H1 1_555 1_555
C4 C3 1_555 1_555
H2 C4 1_555 1_555
C5 C4 1_555 1_555
C6 C5 1_555 1_555
C7 C5 1_555 1_555
H3 C7 1_555 1_555
C8 C2 1_555 1_555
H4 C8 1_555 1_555
O1 C1 1_555 1_555
O2 C1 1_555 1_555
O3 C6 1_555 1_555
O4 C6 1_555 1_555
D1 O3 1_555 1_555
C9 D2 1_555 1_555
C10 D3 1_555 1_555
C11 C10 1_555 1_555
D4 C11 1_555 1_555
N1 C9 1_555 1_555
D5 N1 1_555 1_555
N2 C9 1_555 1_555
D6 N2 1_555 1_555
C12 C13 1_555 1_555
C13 C14 1_555 1_555
C14 H5 1_555 1_555
C15 C14 1_555 1_555
H6 C15 1_555 1_555
C16 C15 1_555 1_555
C17 C16 1_555 1_555
C18 C16 1_555 1_555
H7 C18 1_555 1_555
C19 C13 1_555 1_555
H8 C19 1_555 1_555
O5 C12 1_555 1_555
O6 C12 1_555 1_555
O7 C17 1_555 1_555
O8 C17 1_555 1_555
D7 O7 1_555 1_555
C20 D8 1_555 1_555
C21 D9 1_555 1_555
C22 C21 1_555 1_555
D10 C22 1_555 1_555
N3 C20 1_555 1_555
D11 N3 1_555 1_555
N4 C20 1_555 1_555
D12 N4 1_555 1_555
C7 C8 1_555 1_555
C10 N1 1_555 1_555
C11 N2 1_555 1_555
C18 C19 1_555 1_555
C21 N3 1_555 1_555
C22 N4 1_555 1_555

#END
