
#######################################################################
#
#                 Cambridge Crystallographic Data Centre
#                                CCDC 
#
#######################################################################
#
# If this CIF has been generated from an entry in the Cambridge 
# Structural Database, then it will include bibliographic, chemical, 
# crystal, experimental, refinement or atomic coordinate data resulting 
# from the CCDC's data processing and validation procedures.
#
#######################################################################

data_HEPMEX
_chemical_formula_moiety         'C15 H15 N1 O5 S1'
_chemical_name_systematic        
2-(4-nitrophenyl)-1-(phenylsulfonyl)propan-2-ol
_symmetry_cell_setting           monoclinic
_symmetry_space_group_name_H-M   'C 2/c'
_symmetry_Int_Tables_number      15
_space_group_name_Hall           '-C 2yn'
loop_
_symmetry_equiv_pos_site_id
_symmetry_equiv_pos_as_xyz
1 x,y,z
2 -x,y,1/2-z
3 1/2+x,1/2+y,z
4 1/2-x,1/2+y,1/2-z
5 -x,-y,-z
6 x,-y,1/2+z
7 1/2-x,1/2-y,-z
8 1/2+x,1/2-y,1/2+z
_cell_length_a                   35.682(6)
_cell_length_b                   5.6994(9)
_cell_length_c                   14.278(2)
_cell_angle_alpha                90
_cell_angle_beta                 106.514(6)
_cell_angle_gamma                90
_cell_volume                     2783.88
_exptl_crystal_colour            colorless
_cell_formula_units_Z            8
loop_
_atom_site_label
_atom_site_type_symbol
_atom_site_fract_x
_atom_site_fract_y
_atom_site_fract_z
C1 C 0.38590(5) 0.6458(3) 0.53647(11)
C2 C 0.35783(5) 0.4915(3) 0.48341(12)
H1 H 0.3654 0.3439 0.4637
C3 C 0.31885(5) 0.5533(3) 0.45927(13)
H2 H 0.2994 0.4473 0.4238
C4 C 0.30816(5) 0.7708(3) 0.48699(13)
H3 H 0.2814 0.8151 0.4691
C5 C 0.33634(5) 0.9235(3) 0.54061(13)
H4 H 0.3287 1.0716 0.5597
C6 C 0.37554(5) 0.8624(3) 0.56663(12)
H5 H 0.3949 0.9660 0.6042
C7 C 0.45664(5) 0.7398(3) 0.48815(11)
H6 H 0.4504 0.9057 0.4979
H7 H 0.4854 0.7232 0.5132
C8 C 0.44531(5) 0.6954(3) 0.37685(12)
C9 C 0.46752(5) 0.8735(3) 0.33267(12)
H8 H 0.4957 0.8531 0.3620
H9 H 0.4600 1.0328 0.3457
H10 H 0.4611 0.8488 0.2620
O1 O 0.45788(4) 0.46362(19) 0.36418(8)
H11 H 0.4603 0.4494 0.3076
C10 C 0.40159(5) 0.7245(3) 0.32807(11)
C11 C 0.38279(5) 0.9332(3) 0.34049(12)
H12 H 0.3974 1.0550 0.3797
C12 C 0.34352(5) 0.9640(3) 0.29675(12)
H13 H 0.3307 1.1039 0.3069
C13 C 0.32296(5) 0.7866(3) 0.23750(12)
C14 C 0.34054(5) 0.5806(3) 0.22197(12)
H14 H 0.3260 0.4620 0.1805
C15 C 0.38005(5) 0.5507(3) 0.26835(11)
H15 H 0.3926 0.4091 0.2591
N1 N 0.28156(4) 0.8236(3) 0.18738(11)
O2 O 0.26595(5) 1.0001(3) 0.20728(12)
O3 O 0.26464(4) 0.6795(3) 0.12630(10)
O4 O 0.43729(3) 0.3202(2) 0.54124(8)
O5 O 0.45467(4) 0.6415(2) 0.66264(8)
S1 S 0.43564(2) 0.56515(7) 0.56400(3)
loop_
_geom_bond_atom_site_label_1
_geom_bond_atom_site_label_2
_geom_bond_site_symmetry_1
_geom_bond_site_symmetry_2
C1 C2 1_555 1_555
C2 H1 1_555 1_555
C3 C2 1_555 1_555
H2 C3 1_555 1_555
C4 C3 1_555 1_555
H3 C4 1_555 1_555
C5 C4 1_555 1_555
H4 C5 1_555 1_555
C6 C1 1_555 1_555
H5 C6 1_555 1_555
C7 H6 1_555 1_555
H7 C7 1_555 1_555
C8 C7 1_555 1_555
C9 C8 1_555 1_555
H8 C9 1_555 1_555
H9 C9 1_555 1_555
H10 C9 1_555 1_555
O1 C8 1_555 1_555
H11 O1 1_555 1_555
C10 C8 1_555 1_555
C11 C10 1_555 1_555
H12 C11 1_555 1_555
C12 C11 1_555 1_555
H13 C12 1_555 1_555
C13 C12 1_555 1_555
C14 C13 1_555 1_555
H14 C14 1_555 1_555
C15 C10 1_555 1_555
H15 C15 1_555 1_555
N1 C13 1_555 1_555
O2 N1 1_555 1_555
O3 N1 1_555 1_555
O4 S1 1_555 1_555
O5 S1 1_555 1_555
S1 C1 1_555 1_555
C5 C6 1_555 1_555
C7 S1 1_555 1_555
C14 C15 1_555 1_555

#END
