
#######################################################################
#
#                 Cambridge Crystallographic Data Centre
#                                CCDC 
#
#######################################################################
#
# If this CIF has been generated from an entry in the Cambridge 
# Structural Database, then it will include bibliographic, chemical, 
# crystal, experimental, refinement or atomic coordinate data resulting 
# from the CCDC's data processing and validation procedures.
#
#######################################################################

data_HEPPUQ
_chemical_formula_moiety         'C7 H4 N2 O2 Se1'
_chemical_name_systematic        '4-nitrophenyl selenocyanate'
_symmetry_cell_setting           monoclinic
_symmetry_space_group_name_H-M   'P 21'
_symmetry_Int_Tables_number      4
_space_group_name_Hall           'P 2yb'
loop_
_symmetry_equiv_pos_site_id
_symmetry_equiv_pos_as_xyz
1 x,y,z
2 -x,1/2+y,-z
_cell_length_a                   3.9951(3)
_cell_length_b                   6.9821(6)
_cell_length_c                   14.3544(13)
_cell_angle_alpha                90
_cell_angle_beta                 91.940(2)
_cell_angle_gamma                90
_cell_volume                     400.175
_exptl_crystal_colour            brown
_exptl_crystal_description       needle
_cell_formula_units_Z            2
loop_
_atom_site_label
_atom_site_type_symbol
_atom_site_fract_x
_atom_site_fract_y
_atom_site_fract_z
Se1 Se -0.49602(7) -0.13257(11) -0.837622(18)
C1 C -0.6409(7) 0.0906(5) -0.7724(2)
C2 C -0.9083(8) 0.3963(6) -0.7644(2)
H1 H -1.0227 0.4981 -0.7926
C3 C -0.6636(9) 0.2516(6) -0.6252(2)
H2 H -0.6128 0.2569 -0.5615
C4 C -0.8110(9) 0.2409(5) -0.8168(2)
H3 H -0.8584 0.2369 -0.8806
C5 C -0.5698(9) 0.0956(6) -0.6771(3)
H4 H -0.4587 -0.0065 -0.6482
C6 C -0.8329(8) 0.3986(5) -0.6689(2)
N1 N -0.9373(8) 0.5629(5) -0.6147(2)
O1 O -0.8395(10) 0.5709(6) -0.5331(2)
O2 O -1.1156(13) 0.6833(6) -0.6516(3)
C7 C -0.6249(10) -0.0518(6) -0.9553(3)
N2 N -0.7009(13) -0.0024(7) -1.0280(3)
loop_
_geom_bond_atom_site_label_1
_geom_bond_atom_site_label_2
_geom_bond_site_symmetry_1
_geom_bond_site_symmetry_2
Se1 C1 1_555 1_555
C1 C4 1_555 1_555
C2 H1 1_555 1_555
C3 H2 1_555 1_555
C4 C2 1_555 1_555
H3 C4 1_555 1_555
C5 C1 1_555 1_555
H4 C5 1_555 1_555
C6 C2 1_555 1_555
N1 C6 1_555 1_555
O1 N1 1_555 1_555
O2 N1 1_555 1_555
C7 Se1 1_555 1_555
N2 C7 1_555 1_555
C3 C5 1_555 1_555
C3 C6 1_555 1_555

#END
