
#######################################################################
#
#                 Cambridge Crystallographic Data Centre
#                                CCDC 
#
#######################################################################
#
# If this CIF has been generated from an entry in the Cambridge 
# Structural Database, then it will include bibliographic, chemical, 
# crystal, experimental, refinement or atomic coordinate data resulting 
# from the CCDC's data processing and validation procedures.
#
#######################################################################

data_HEPPIE01
_chemical_formula_moiety         'C7 H4 N2 O2 Se1'
_chemical_name_systematic        '2-nitrophenyl selenocyanate'
_symmetry_cell_setting           monoclinic
_symmetry_space_group_name_H-M   'P 21'
_symmetry_Int_Tables_number      4
_space_group_name_Hall           'P 2yb'
loop_
_symmetry_equiv_pos_site_id
_symmetry_equiv_pos_as_xyz
1 x,y,z
2 -x,1/2+y,-z
_cell_length_a                   3.9678(4)
_cell_length_b                   6.9334(7)
_cell_length_c                   14.5948(14)
_cell_angle_alpha                90
_cell_angle_beta                 94.469(2)
_cell_angle_gamma                90
_cell_volume                     400.287
_exptl_crystal_colour            yellow
_exptl_crystal_description       block
_cell_formula_units_Z            2
loop_
_atom_site_label
_atom_site_type_symbol
_atom_site_fract_x
_atom_site_fract_y
_atom_site_fract_z
Se1 Se -0.45157(6) -0.33530(5) -0.846266(14)
C1 C -0.0024(7) 0.1875(5) -0.7562(2)
H1 H 0.0906 0.2944 -0.7833
C2 C -0.2733(6) -0.1237(4) -0.77339(18)
C3 C -0.1484(8) 0.0205(5) -0.6220(2)
H2 H -0.1548 0.0124 -0.5586
C4 C -0.2773(7) -0.1261(4) -0.67786(19)
C5 C -0.0085(7) 0.1810(9) -0.66172(18)
H3 H 0.0792 0.2821 -0.6254
C6 C -0.1316(7) 0.0384(4) -0.81148(19)
H4 H -0.1236 0.0467 -0.8749
C7 C -0.3282(8) -0.2402(5) -0.9575(2)
N1 N -0.2583(9) -0.1893(5) -1.0282(2)
O1 O -0.4184(9) -0.2950(6) -0.54995(16)
N2 N -0.4307(8) -0.2886(4) -0.63376(19)
O2 O -0.5700(7) -0.4133(4) -0.6829(2)
loop_
_geom_bond_atom_site_label_1
_geom_bond_atom_site_label_2
_geom_bond_site_symmetry_1
_geom_bond_site_symmetry_2
Se1 C2 1_555 1_555
C1 H1 1_555 1_555
C2 C4 1_555 1_555
C3 H2 1_555 1_555
C4 C3 1_555 1_555
C5 C1 1_555 1_555
H3 C5 1_555 1_555
C6 C1 1_555 1_555
H4 C6 1_555 1_555
C7 Se1 1_555 1_555
N1 C7 1_555 1_555
O1 N2 1_555 1_555
N2 C4 1_555 1_555
O2 N2 1_555 1_555
C2 C6 1_555 1_555
C3 C5 1_555 1_555

#END
