
#######################################################################
#
#                 Cambridge Crystallographic Data Centre
#                                CCDC 
#
#######################################################################
#
# If this CIF has been generated from an entry in the Cambridge 
# Structural Database, then it will include bibliographic, chemical, 
# crystal, experimental, refinement or atomic coordinate data resulting 
# from the CCDC's data processing and validation procedures.
#
#######################################################################

data_HEPSAZ07
_chemical_name_common            
'1,3-dideuteroimidazolium deuterium terephthalate'
_chemical_formula_moiety         'C8 H4 D1 O4 1-,C3 H3 D2 N2 1+'
_chemical_name_systematic        
'1,3-dideuteroimidazolium 4-(deuterocarboxy)benzoate'
_symmetry_cell_setting           orthorhombic
_symmetry_space_group_name_H-M   'P n m a'
_symmetry_Int_Tables_number      62
_space_group_name_Hall           '-P 2ac 2n'
loop_
_symmetry_equiv_pos_site_id
_symmetry_equiv_pos_as_xyz
1 x,y,z
2 1/2-x,-y,1/2+z
3 -x,1/2+y,-z
4 1/2+x,1/2-y,1/2-z
5 -x,-y,-z
6 1/2+x,y,1/2-z
7 x,1/2-y,z
8 1/2-x,1/2+y,1/2+z
_cell_length_a                   9.695(6)
_cell_length_b                   7.123(4)
_cell_length_c                   15.862(9)
_cell_angle_alpha                90
_cell_angle_beta                 90
_cell_angle_gamma                90
_cell_volume                     1095.39
_exptl_crystal_colour            colorless
_exptl_crystal_description       block
_cell_formula_units_Z            4
loop_
_atom_site_label
_atom_site_type_symbol
_atom_site_fract_x
_atom_site_fract_y
_atom_site_fract_z
C1 C 0.2159(3) 0.2500 0.00976(19)
C2 C 0.3666(3) 0.2500 0.03245(17)
C3 C 0.4661(3) 0.2500 -0.03030(17)
H1 H 0.4393 0.2500 -0.0866
C4 C 0.6047(3) 0.2500 -0.01011(18)
H2 H 0.6704 0.2500 -0.0528
C5 C 0.6465(3) 0.2500 0.07342(17)
C6 C 0.7961(3) 0.2500 0.09643(19)
C7 C 0.5464(3) 0.2500 0.13650(19)
H3 H 0.5731 0.2500 0.1928
C8 C 0.4080(3) 0.2500 0.11592(18)
H4 H 0.3421 0.2500 0.1585
O1 O 0.1315(2) 0.2500 0.07079(14)
O2 O 0.1816(2) 0.2500 -0.06581(14)
O3 O 0.8796(2) 0.2500 0.03429(14)
O4 O 0.8333(2) 0.2500 0.16906(16)
D1 D 0.998(6) 0.2500 0.052(3)
C9? C 0.1313(11) 0.8945(16) 0.1834(7)
H5? H 0.1160 1.0103 0.1584
C10? C 0.1893(14) 0.641(3) 0.2531(10)
H6? H 0.2361 0.5686 0.2923
C11? C 0.0949(11) 0.5982(18) 0.1978(7)
H7? H 0.0590 0.4788 0.1902
N1? N 0.0573(3) 0.7500 0.15623(18)
D2? D -0.0073 0.7500 0.1131
N2? N 0.2112(12) 0.833(2) 0.2442(7)
D3? D 0.2789 0.8740 0.2809
loop_
_geom_bond_atom_site_label_1
_geom_bond_atom_site_label_2
_geom_bond_site_symmetry_1
_geom_bond_site_symmetry_2
C1 C2 1_555 1_555
C2 C3 1_555 1_555
C3 H1 1_555 1_555
C4 C3 1_555 1_555
H2 C4 1_555 1_555
C5 C4 1_555 1_555
C6 C5 1_555 1_555
C7 C5 1_555 1_555
H3 C7 1_555 1_555
C8 C2 1_555 1_555
H4 C8 1_555 1_555
O1 C1 1_555 1_555
O2 C1 1_555 1_555
O3 C6 1_555 1_555
O4 C6 1_555 1_555
D1 O3 1_555 1_555
C7 C8 1_555 1_555

#END
