
#######################################################################
#
#                 Cambridge Crystallographic Data Centre
#                                CCDC 
#
#######################################################################
#
# If this CIF has been generated from an entry in the Cambridge 
# Structural Database, then it will include bibliographic, chemical, 
# crystal, experimental, refinement or atomic coordinate data resulting 
# from the CCDC's data processing and validation procedures.
#
#######################################################################

data_HEPSAZ
_chemical_name_common            'imidazolium hydrogen terephthalate'
_chemical_formula_moiety         'C8 H5 O4 1-,C3 H5 N2 1+'
_chemical_name_systematic        'imidazolium 4-carboxybenzoate'
_symmetry_cell_setting           monoclinic
_symmetry_space_group_name_H-M   'P 21/c'
_symmetry_Int_Tables_number      14
_space_group_name_Hall           '-P 2ybc'
loop_
_symmetry_equiv_pos_site_id
_symmetry_equiv_pos_as_xyz
1 x,y,z
2 -x,1/2+y,1/2-z
3 -x,-y,-z
4 x,1/2-y,1/2+z
_cell_length_a                   6.980(5)
_cell_length_b                   15.977(10)
_cell_length_c                   9.641(6)
_cell_angle_alpha                90
_cell_angle_beta                 95.398(12)
_cell_angle_gamma                90
_cell_volume                     1070.39
_exptl_crystal_colour            colorless
_exptl_crystal_description       block
_cell_formula_units_Z            4
loop_
_atom_site_label
_atom_site_type_symbol
_atom_site_fract_x
_atom_site_fract_y
_atom_site_fract_z
C1 C 0.24998(19) 0.00707(8) 0.22005(13)
C2 C 0.25280(17) 0.02965(8) 0.37186(12)
C3 C 0.2597(2) 0.11307(8) 0.41422(13)
H1 H 0.2664 0.1554 0.3486
C4 C 0.2568(2) 0.13312(8) 0.55362(13)
H2 H 0.2606 0.1889 0.5813
C5 C 0.24835(18) 0.07018(8) 0.65255(13)
C6 C 0.2395(2) 0.09256(9) 0.80308(13)
C7 C 0.2460(2) -0.01327(9) 0.61083(13)
H3 H 0.2436 -0.0556 0.6768
C8 C 0.24720(19) -0.03317(8) 0.47087(13)
H4 H 0.2442 -0.0890 0.4432
O1 O 0.25639(17) 0.06794(6) 0.13576(10)
O2 O 0.24109(19) -0.06783(6) 0.18583(11)
O3 O 0.27495(19) 0.03163(7) 0.88849(10)
O4 O 0.20037(17) 0.16468(6) 0.83818(10)
H5 H 0.268(3) 0.0476(15) 0.999(3)
C9 C 0.9261(3) 0.19499(10) 0.09902(19)
H6 H 1.0484 0.1848 0.0721
C10 C 0.6211(3) 0.18831(12) 0.1143(2)
H7 H 0.4930 0.1718 0.0997
C11 C 0.6925(3) 0.24689(12) 0.2037(2)
H8 H 0.6234 0.2794 0.2616
N1 N 0.7688(2) 0.15743(8) 0.04915(13)
H9 H 0.7605 0.1195 -0.0144
N2 N 0.8840(2) 0.24975(8) 0.19378(14)
H10 H 0.9647 0.2818 0.2412
loop_
_geom_bond_atom_site_label_1
_geom_bond_atom_site_label_2
_geom_bond_site_symmetry_1
_geom_bond_site_symmetry_2
C1 C2 1_555 1_555
C2 C3 1_555 1_555
C3 H1 1_555 1_555
C4 C3 1_555 1_555
H2 C4 1_555 1_555
C5 C4 1_555 1_555
C6 C5 1_555 1_555
C7 C5 1_555 1_555
H3 C7 1_555 1_555
C8 C2 1_555 1_555
H4 C8 1_555 1_555
O1 C1 1_555 1_555
O2 C1 1_555 1_555
O3 C6 1_555 1_555
O4 C6 1_555 1_555
H5 O3 1_555 1_555
C9 H6 1_555 1_555
C10 H7 1_555 1_555
C11 C10 1_555 1_555
H8 C11 1_555 1_555
N1 C9 1_555 1_555
H9 N1 1_555 1_555
N2 C9 1_555 1_555
H10 N2 1_555 1_555
C7 C8 1_555 1_555
C10 N1 1_555 1_555
C11 N2 1_555 1_555

#END
