
#######################################################################
#
#                 Cambridge Crystallographic Data Centre
#                                CCDC 
#
#######################################################################
#
# If this CIF has been generated from an entry in the Cambridge 
# Structural Database, then it will include bibliographic, chemical, 
# crystal, experimental, refinement or atomic coordinate data resulting 
# from the CCDC's data processing and validation procedures.
#
#######################################################################

data_HEPSAZ04
_chemical_name_common            
'2,4,5-trideuteroimidazolium hydrogen terephthalate'
_chemical_formula_moiety         'C8 H5 O4 1-,C3 H2 D3 N2 1+'
_chemical_name_systematic        '2,4,5-trideuteroimidazolium 4-carboxybenzoate'
_symmetry_cell_setting           orthorhombic
_symmetry_space_group_name_H-M   'P n m a'
_symmetry_Int_Tables_number      62
_space_group_name_Hall           '-P 2ac 2n'
loop_
_symmetry_equiv_pos_site_id
_symmetry_equiv_pos_as_xyz
1 x,y,z
2 1/2-x,-y,1/2+z
3 -x,1/2+y,-z
4 1/2+x,1/2-y,1/2-z
5 -x,-y,-z
6 1/2+x,y,1/2-z
7 x,1/2-y,z
8 1/2-x,1/2+y,1/2+z
_cell_length_a                   9.672(7)
_cell_length_b                   7.100(5)
_cell_length_c                   15.865(12)
_cell_angle_alpha                90
_cell_angle_beta                 90
_cell_angle_gamma                90
_cell_volume                     1089.47
_exptl_crystal_colour            colorless
_exptl_crystal_description       block
_cell_formula_units_Z            4
loop_
_atom_site_label
_atom_site_type_symbol
_atom_site_fract_x
_atom_site_fract_y
_atom_site_fract_z
C1 C 0.2144(3) 0.2500 0.0093(2)
C2 C 0.3654(3) 0.2500 0.03216(18)
C3 C 0.4653(3) 0.2500 -0.03064(18)
H1 H 0.4386 0.2500 -0.0869
C4 C 0.6040(3) 0.2500 -0.01024(19)
H2 H 0.6699 0.2500 -0.0529
C5 C 0.6456(3) 0.2500 0.07309(17)
C6 C 0.7955(3) 0.2500 0.0962(2)
C7 C 0.5456(3) 0.2500 0.13621(19)
H3 H 0.5723 0.2500 0.1925
C8 C 0.4068(3) 0.2500 0.11563(19)
H4 H 0.3407 0.2500 0.1582
O1 O 0.1299(2) 0.2500 0.07020(14)
O2 O 0.1804(2) 0.2500 -0.06622(15)
O3 O 0.8791(2) 0.2500 0.03439(15)
O4 O 0.8329(3) 0.2500 0.16878(17)
H5 H 0.990(6) 0.2500 0.051(3)
C9? C 0.1318(11) 0.8940(16) 0.1840(7)
D1? D 0.1164 1.0098 0.1591
C10? C 0.1888(14) 0.642(3) 0.2527(10)
D2? D 0.2356 0.5695 0.2918
C11? C 0.0942(11) 0.5967(18) 0.1978(7)
D3? D 0.0583 0.4773 0.1902
N1? N 0.0575(3) 0.7500 0.15660(19)
H6? H -0.0071 0.7500 0.1134
N2? N 0.2124(12) 0.834(2) 0.2445(7)
H7? H 0.2801 0.8749 0.2813
loop_
_geom_bond_atom_site_label_1
_geom_bond_atom_site_label_2
_geom_bond_site_symmetry_1
_geom_bond_site_symmetry_2
C1 C2 1_555 1_555
C2 C3 1_555 1_555
C3 H1 1_555 1_555
C4 C3 1_555 1_555
H2 C4 1_555 1_555
C5 C4 1_555 1_555
C6 C5 1_555 1_555
C7 C5 1_555 1_555
H3 C7 1_555 1_555
C8 C2 1_555 1_555
H4 C8 1_555 1_555
O1 C1 1_555 1_555
O2 C1 1_555 1_555
O3 C6 1_555 1_555
O4 C6 1_555 1_555
H5 O3 1_555 1_555
C7 C8 1_555 1_555

#END
