
#######################################################################
#
#                 Cambridge Crystallographic Data Centre
#                                CCDC 
#
#######################################################################
#
# If this CIF has been generated from an entry in the Cambridge 
# Structural Database, then it will include bibliographic, chemical, 
# crystal, experimental, refinement or atomic coordinate data resulting 
# from the CCDC's data processing and validation procedures.
#
#######################################################################

data_HEPSAZ10
_chemical_name_common            
'pentadeuteroimidazolium deuterium terephthalate'
_chemical_formula_moiety         'C8 H4 D1 O4 1-,C3 D5 N2 1+'
_chemical_name_systematic        
'pentadeuteroimidazolium 4-(deuterocarboxy)benzoate'
_symmetry_cell_setting           orthorhombic
_symmetry_space_group_name_H-M   'P n m a'
_symmetry_Int_Tables_number      62
_space_group_name_Hall           '-P 2ac 2n'
loop_
_symmetry_equiv_pos_site_id
_symmetry_equiv_pos_as_xyz
1 x,y,z
2 1/2-x,-y,1/2+z
3 -x,1/2+y,-z
4 1/2+x,1/2-y,1/2-z
5 -x,-y,-z
6 1/2+x,y,1/2-z
7 x,1/2-y,z
8 1/2-x,1/2+y,1/2+z
_cell_length_a                   9.696(9)
_cell_length_b                   7.116(7)
_cell_length_c                   15.873(14)
_cell_angle_alpha                90
_cell_angle_beta                 90
_cell_angle_gamma                90
_cell_volume                     1095.19
_exptl_crystal_colour            colorless
_exptl_crystal_description       block
_cell_formula_units_Z            4
loop_
_atom_site_label
_atom_site_type_symbol
_atom_site_fract_x
_atom_site_fract_y
_atom_site_fract_z
C1 C 0.2157(3) 0.2500 0.00972(19)
C2 C 0.3666(3) 0.2500 0.03260(17)
C3 C 0.4661(3) 0.2500 -0.03038(18)
H1 H 0.4392 0.2500 -0.0866
C4 C 0.6046(3) 0.2500 -0.01022(18)
H2 H 0.6702 0.2500 -0.0529
C5 C 0.6464(3) 0.2500 0.07329(17)
C6 C 0.7962(3) 0.2500 0.09664(19)
C7 C 0.5467(3) 0.2500 0.13657(19)
H3 H 0.5735 0.2500 0.1928
C8 C 0.4079(3) 0.2500 0.11606(18)
H4 H 0.3421 0.2500 0.1586
O1 O 0.1314(2) 0.2500 0.07075(14)
O2 O 0.1817(2) 0.2500 -0.06574(15)
O3 O 0.8795(2) 0.2500 0.03440(14)
O4 O 0.8336(3) 0.2500 0.16924(16)
D1 D 0.996(6) 0.2500 0.052(3)
C9? C 0.1323(10) 0.8941(16) 0.1840(7)
D2? D 0.1169 1.0098 0.1590
C10? C 0.1882(13) 0.641(3) 0.2525(9)
D3? D 0.2350 0.5689 0.2917
C11? C 0.0935(10) 0.5980(17) 0.1974(6)
D4? D 0.0577 0.4785 0.1898
N1? N 0.0571(3) 0.7500 0.15642(18)
D5? D -0.0074 0.7500 0.1133
N2? N 0.2121(11) 0.833(2) 0.2445(7)
D6? D 0.2798 0.8743 0.2812
loop_
_geom_bond_atom_site_label_1
_geom_bond_atom_site_label_2
_geom_bond_site_symmetry_1
_geom_bond_site_symmetry_2
C1 C2 1_555 1_555
C2 C3 1_555 1_555
C3 H1 1_555 1_555
C4 C3 1_555 1_555
H2 C4 1_555 1_555
C5 C4 1_555 1_555
C6 C5 1_555 1_555
C7 C5 1_555 1_555
H3 C7 1_555 1_555
C8 C2 1_555 1_555
H4 C8 1_555 1_555
O1 C1 1_555 1_555
O2 C1 1_555 1_555
O3 C6 1_555 1_555
O4 C6 1_555 1_555
D1 O3 1_555 1_555
C7 C8 1_555 1_555

#END
