
#######################################################################
#
#                 Cambridge Crystallographic Data Centre
#                                CCDC 
#
#######################################################################
#
# If this CIF has been generated from an entry in the Cambridge 
# Structural Database, then it will include bibliographic, chemical, 
# crystal, experimental, refinement or atomic coordinate data resulting 
# from the CCDC's data processing and validation procedures.
#
#######################################################################

data_HEPSAZ08
_chemical_name_common            
'pentadeuteroimidazolium deuterium terephthalate'
_chemical_formula_moiety         'C8 H4 D1 O4 1-,C3 D5 N2 1+'
_chemical_name_systematic        
'pentadeuteroimidazolium 4-(deuterocarboxy)benzoate'
_symmetry_cell_setting           monoclinic
_symmetry_space_group_name_H-M   'P 21/n'
_symmetry_Int_Tables_number      14
_space_group_name_Hall           '-P 2yn'
loop_
_symmetry_equiv_pos_site_id
_symmetry_equiv_pos_as_xyz
1 x,y,z
2 1/2-x,1/2+y,1/2-z
3 -x,-y,-z
4 1/2+x,1/2-y,1/2+z
_cell_length_a                   9.759(4)
_cell_length_b                   15.864(7)
_cell_length_c                   13.840(6)
_cell_angle_alpha                90
_cell_angle_beta                 90.339(8)
_cell_angle_gamma                90
_cell_volume                     2142.63
_exptl_crystal_colour            colorless
_exptl_crystal_description       block
_cell_formula_units_Z            8
loop_
_atom_site_label
_atom_site_type_symbol
_atom_site_fract_x
_atom_site_fract_y
_atom_site_fract_z
C1 C 0.33571(13) 0.60581(9) 0.60840(11)
C2 C 0.18602(13) 0.58423(9) 0.62031(10)
C3 C 0.14457(13) 0.50032(9) 0.61532(11)
H1 H 0.2097 0.4579 0.6093
C4 C 0.00660(14) 0.47970(9) 0.61925(11)
H2 H -0.0204 0.4235 0.6163
C5 C -0.09129(13) 0.54279(9) 0.62751(10)
C6 C -0.23934(14) 0.51855(9) 0.62558(11)
C7 C -0.05101(14) 0.62663(9) 0.63510(11)
H3 H -0.1163 0.6689 0.6422
C8 C 0.08778(14) 0.64693(9) 0.63200(11)
H4 H 0.1150 0.7029 0.6378
O1 O 0.42130(11) 0.55045(8) 0.62865(11)
O2 O 0.36446(10) 0.67928(7) 0.57716(8)
O3 O -0.32320(11) 0.58328(7) 0.61960(10)
O4 O -0.27694(11) 0.44567(7) 0.62781(10)
D1 D -0.415(3) 0.5647(16) 0.6214(17)
C9 C 0.54933(15) 0.64670(10) 0.36601(13)
D2 D 0.4785 0.6079 0.3590
C10 C 0.68616(18) 0.74277(12) 0.42636(13)
D3 D 0.7254 0.7815 0.4687
C11 C 0.72954(18) 0.72362(11) 0.33750(14)
D4 D 0.8047 0.7469 0.3063
N1 N 0.57244(13) 0.69400(9) 0.44279(10)
D5 D 0.5242 0.6942 0.4946
N2 N 0.64337(13) 0.66364(8) 0.30106(10)
D6 D 0.6495 0.6407 0.2450
C12 C -0.27232(13) 0.50632(9) 0.12433(10)
C13 C -0.12186(13) 0.52808(8) 0.12583(10)
C14 C -0.07832(13) 0.61167(9) 0.12756(10)
H5 H -0.1426 0.6550 0.1275
C15 C 0.06068(13) 0.63069(9) 0.12937(10)
H6 H 0.0891 0.6866 0.1305
C16 C 0.15738(13) 0.56634(8) 0.12956(10)
C17 C 0.30633(14) 0.58887(9) 0.13240(11)
C18 C 0.11413(13) 0.48264(9) 0.12728(11)
H7 H 0.1784 0.4393 0.1273
C19 C -0.02473(13) 0.46382(9) 0.12505(10)
H8 H -0.0531 0.4079 0.1230
O5 O -0.35642(9) 0.56612(7) 0.13987(8)
O6 O -0.30563(11) 0.43209(7) 0.10775(10)
O7 O 0.38769(10) 0.52311(7) 0.13411(10)
O8 O 0.34709(11) 0.66126(7) 0.13320(10)
D7 D 0.484(3) 0.5409(16) 0.1365(17)
C20 C 0.40882(18) 0.30902(11) 0.03554(13)
D8 D 0.4329 0.3227 -0.0275
C21 C 0.30781(19) 0.25160(12) 0.15872(14)
D9 D 0.2496 0.2186 0.1959
C22 C 0.4048(2) 0.30467(12) 0.19153(14)
D10 D 0.4260 0.3153 0.2560
N3 N 0.31129(13) 0.25553(9) 0.06060(10)
D11 D 0.2591 0.2280 0.0216
N4 N 0.46600(13) 0.33969(8) 0.11407(10)
D12 D 0.5314 0.3760 0.1159
loop_
_geom_bond_atom_site_label_1
_geom_bond_atom_site_label_2
_geom_bond_site_symmetry_1
_geom_bond_site_symmetry_2
C1 C2 1_555 1_555
C2 C3 1_555 1_555
C3 H1 1_555 1_555
C4 C3 1_555 1_555
H2 C4 1_555 1_555
C5 C4 1_555 1_555
C6 C5 1_555 1_555
C7 C5 1_555 1_555
H3 C7 1_555 1_555
C8 C2 1_555 1_555
H4 C8 1_555 1_555
O1 C1 1_555 1_555
O2 C1 1_555 1_555
O3 C6 1_555 1_555
O4 C6 1_555 1_555
D1 O3 1_555 1_555
C9 D2 1_555 1_555
C10 D3 1_555 1_555
C11 C10 1_555 1_555
D4 C11 1_555 1_555
N1 C9 1_555 1_555
D5 N1 1_555 1_555
N2 C9 1_555 1_555
D6 N2 1_555 1_555
C12 C13 1_555 1_555
C13 C14 1_555 1_555
C14 H5 1_555 1_555
C15 C14 1_555 1_555
H6 C15 1_555 1_555
C16 C15 1_555 1_555
C17 C16 1_555 1_555
C18 C16 1_555 1_555
H7 C18 1_555 1_555
C19 C13 1_555 1_555
H8 C19 1_555 1_555
O5 C12 1_555 1_555
O6 C12 1_555 1_555
O7 C17 1_555 1_555
O8 C17 1_555 1_555
D7 O7 1_555 1_555
C20 D8 1_555 1_555
C21 D9 1_555 1_555
C22 C21 1_555 1_555
D10 C22 1_555 1_555
N3 C20 1_555 1_555
D11 N3 1_555 1_555
N4 C20 1_555 1_555
D12 N4 1_555 1_555
C7 C8 1_555 1_555
C10 N1 1_555 1_555
C11 N2 1_555 1_555
C18 C19 1_555 1_555
C21 N3 1_555 1_555
C22 N4 1_555 1_555

#END
