
#######################################################################
#
#                 Cambridge Crystallographic Data Centre
#                                CCDC 
#
#######################################################################
#
# If this CIF has been generated from an entry in the Cambridge 
# Structural Database, then it will include bibliographic, chemical, 
# crystal, experimental, refinement or atomic coordinate data resulting 
# from the CCDC's data processing and validation procedures.
#
#######################################################################

data_HEPSAZ12
_chemical_name_common            'imidazolium hydrogen terephthalate'
_chemical_formula_moiety         'C8 H5 O4 1-,C3 H5 N2 1+'
_chemical_name_systematic        'imidazolium 4-carboxybenzoate'
_symmetry_cell_setting           monoclinic
_symmetry_space_group_name_H-M   'P 21/c'
_symmetry_Int_Tables_number      14
_space_group_name_Hall           '-P 2ybc'
loop_
_symmetry_equiv_pos_site_id
_symmetry_equiv_pos_as_xyz
1 x,y,z
2 -x,1/2+y,1/2-z
3 -x,-y,-z
4 x,1/2-y,1/2+z
_cell_length_a                   7.053(5)
_cell_length_b                   15.941(11)
_cell_length_c                   9.664(7)
_cell_angle_alpha                90
_cell_angle_beta                 94.962(12)
_cell_angle_gamma                90
_cell_volume                     1082.47
_exptl_crystal_colour            colorless
_exptl_crystal_description       block
_cell_formula_units_Z            4
loop_
_atom_site_label
_atom_site_type_symbol
_atom_site_fract_x
_atom_site_fract_y
_atom_site_fract_z
C1 C 0.2505(2) 0.00805(11) 0.21944(16)
C2 C 0.2522(2) 0.03078(10) 0.37116(15)
C3 C 0.2566(3) 0.11399(11) 0.41310(16)
H1 H 0.2614 0.1565 0.3475
C4 C 0.2538(3) 0.13412(11) 0.55257(17)
H2 H 0.2569 0.1901 0.5800
C5 C 0.2466(2) 0.07138(10) 0.65131(16)
C6 C 0.2378(3) 0.09388(11) 0.80185(16)
C7 C 0.2462(3) -0.01193(11) 0.60971(16)
H3 H 0.2448 -0.0544 0.6755
C8 C 0.2480(2) -0.03191(11) 0.47025(16)
H4 H 0.2462 -0.0879 0.4429
O1 O 0.2546(2) 0.06886(8) 0.13525(12)
O2 O 0.2440(2) -0.06679(8) 0.18570(14)
O3 O 0.2701(2) 0.03310(9) 0.88694(13)
O4 O 0.1986(2) 0.16587(9) 0.83687(13)
H5 H 0.258(4) 0.0498(17) 1.000(3)
C9 C 0.9185(4) 0.19332(15) 0.1010(3)
H6 H 1.0401 0.1818 0.0756
C10 C 0.6182(4) 0.18874(16) 0.1138(3)
H7 H 0.4914 0.1726 0.0991
C11 C 0.6877(4) 0.24752(16) 0.2013(3)
H8 H 0.6186 0.2813 0.2573
N1 N 0.7638(3) 0.15688(10) 0.05043(18)
H9 H 0.7558 0.1188 -0.0129
N2 N 0.8772(3) 0.24886(11) 0.19352(19)
H10 H 0.9571 0.2806 0.2410
loop_
_geom_bond_atom_site_label_1
_geom_bond_atom_site_label_2
_geom_bond_site_symmetry_1
_geom_bond_site_symmetry_2
C1 C2 1_555 1_555
C2 C3 1_555 1_555
C3 H1 1_555 1_555
C4 C3 1_555 1_555
H2 C4 1_555 1_555
C5 C4 1_555 1_555
C6 C5 1_555 1_555
C7 C5 1_555 1_555
H3 C7 1_555 1_555
C8 C2 1_555 1_555
H4 C8 1_555 1_555
O1 C1 1_555 1_555
O2 C1 1_555 1_555
O3 C6 1_555 1_555
O4 C6 1_555 1_555
H5 O3 1_555 1_555
C9 H6 1_555 1_555
C10 H7 1_555 1_555
C11 C10 1_555 1_555
H8 C11 1_555 1_555
N1 C9 1_555 1_555
H9 N1 1_555 1_555
N2 C9 1_555 1_555
H10 N2 1_555 1_555
C7 C8 1_555 1_555
C10 N1 1_555 1_555
C11 N2 1_555 1_555

#END
