
#######################################################################
#
#                 Cambridge Crystallographic Data Centre
#                                CCDC 
#
#######################################################################
#
# If this CIF has been generated from an entry in the Cambridge 
# Structural Database, then it will include bibliographic, chemical, 
# crystal, experimental, refinement or atomic coordinate data resulting 
# from the CCDC's data processing and validation procedures.
#
#######################################################################

data_HEPXUV
_chemical_formula_moiety         'C28 H39 N3 O2'
_chemical_name_systematic        
(-)-4-(\aS)-\a-((2R,5S)-4-(4-Allyl-2,5-dimethylpiperazinyl)-3-methoxybenzyl)-N,N-diethylbenzamide
_chemical_properties_biological  
'plus enantiomer has highly selective activity as an opioid receptor'
_symmetry_cell_setting           monoclinic
_symmetry_space_group_name_H-M   'C 2'
_symmetry_Int_Tables_number      5
_space_group_name_Hall           'C 2y'
loop_
_symmetry_equiv_pos_site_id
_symmetry_equiv_pos_as_xyz
1 x,y,z
2 1/2+x,1/2+y,z
3 -x,y,-z
4 1/2-x,1/2+y,-z
_cell_length_a                   27.596(3)
_cell_length_b                   6.421(1)
_cell_length_c                   18.936(2)
_cell_angle_alpha                90
_cell_angle_beta                 126.50(1)
_cell_angle_gamma                90
_cell_volume                     2697.22
_exptl_crystal_colour            colorless
_cell_formula_units_Z            4
loop_
_atom_site_label
_atom_site_type_symbol
_atom_site_fract_x
_atom_site_fract_y
_atom_site_fract_z
N1 N 0.6890(1) 0.8633(6) 0.6433(2)
C1 C 0.6243(2) 0.8694(8) 0.6044(2)
C2 C 0.5894(2) 0.9085(10) 0.5056(3)
N2 N 0.6085(1) 1.0924(8) 0.4849(2)
C3 C 0.6722(2) 1.0771(8) 0.5213(2)
C4 C 0.7065(2) 1.0506(8) 0.6199(2)
C5 C 0.7285(1) 0.8192(7) 0.7389(2)
C6 C 0.7904(1) 0.7489(6) 0.7672(2)
C7 C 0.7967(2) 0.6398(7) 0.7096(2)
C8 C 0.8516(2) 0.5608(7) 0.7365(2)
C9 C 0.9027(2) 0.5893(6) 0.8226(2)
C10 C 0.8973(2) 0.6953(6) 0.8805(2)
C11 C 0.8419(1) 0.7729(6) 0.8531(2)
C12 C 0.7299(2) 0.9898(6) 0.7957(2)
C13 C 0.6957(2) 0.9677(7) 0.8269(2)
C14 C 0.6934(2) 1.1235(8) 0.8759(2)
C15 C 0.7265(2) 1.3024(8) 0.8962(3)
C16 C 0.7616(2) 1.3243(7) 0.8665(3)
C17 C 0.7633(2) 1.1736(7) 0.8172(2)
C18 C 0.5667(7) 1.0719(35) 0.3857(3)
C19 C 0.5031(9) 1.1400(37) 0.3352(13)
C20 C 0.4864(10) 1.2571(46) 0.3765(15)
C24 C 0.6027(2) 0.6681(10) 0.6182(3)
C25 C 0.6961(2) 1.2661(10) 0.5031(3)
C26 C 0.9651(2) 0.5224(7) 0.8537(2)
O1 O 1.0054(1) 0.6552(5) 0.8884(2)
N3 N 0.9744(1) 0.3260(5) 0.8408(2)
C27 C 1.0349(2) 0.2666(8) 0.8710(3)
C28 C 1.0745(2) 0.2021(10) 0.9652(3)
C29 C 0.9321(2) 0.1554(7) 0.8147(3)
C30 C 0.9060(2) 0.0716(9) 0.7244(3)
O2 O 0.6568(1) 1.0799(6) 0.9008(2)
C31 C 0.6462(2) 1.2481(11) 0.9393(3)
H1 H 0.6157(2) 0.9828(8) 0.6284(2)
H2 H 0.5978(2) 0.7910(10) 0.4831(3)
H3 H 0.5467(2) 0.9131(10) 0.4765(3)
H4 H 0.6784(2) 0.9557(8) 0.4980(2)
H5 H 0.6982(2) 1.1712(8) 0.6409(2)
H6 H 0.7491(2) 1.0465(8) 0.6477(2)
H7 H 0.7105(1) 0.7008(7) 0.7461(2)
H8 H 0.7617(2) 0.6176(7) 0.6504(2)
H9 H 0.8556(2) 0.4868(7) 0.6962(2)
H10 H 0.9321(2) 0.7191(6) 0.9397(2)
H11 H 0.8387(1) 0.8449(6) 0.8946(2)
H12 H 0.6732(2) 0.8416(7) 0.8142(2)
H13 H 0.7244(2) 1.4100(8) 0.9295(3)
H14 H 0.7845(2) 1.4492(7) 0.8787(3)
H15 H 0.7892(2) 1.1879(7) 0.7993(2)
H16 H 0.5850(7) 1.1479(35) 0.3628(3)
H17 H 0.5664(7) 0.9262(35) 0.3719(3)
H18 H 0.4754(9) 1.1031(37) 0.2765(13)
H19 H 0.5146(10) 1.2930(46) 0.4352(15)
H20 H 0.4467(10) 1.3021(46) 0.3463(15)
H26 H 0.6221(2) 0.6446(10) 0.6797(3)
H27 H 0.6127(2) 0.5572(10) 0.5951(3)
H28 H 0.5598(2) 0.6722(10) 0.5877(3)
H29 H 0.6758(2) 1.2829(10) 0.4411(3)
H30 H 0.7387(2) 1.2540(10) 0.5321(3)
H31 H 0.6882(2) 1.3849(10) 0.5256(3)
H32 H 1.0330(2) 0.1558(8) 0.8355(3)
H33 H 1.0528(2) 0.3854(8) 0.8640(3)
H34 H 1.1142(2) 0.1686(10) 0.9831(3)
H35 H 1.0570(2) 0.0818(10) 0.9722(3)
H36 H 1.0769(2) 0.3136(10) 1.0010(3)
H37 H 0.9522(2) 0.0459(7) 0.8574(3)
H38 H 0.8993(2) 0.2044(7) 0.8149(3)
H39 H 0.8784(2) -0.0401(9) 0.7097(3)
H40 H 0.9389(2) 0.0211(9) 0.7247(3)
H41 H 0.8855(2) 0.1809(9) 0.6818(3)
H42 H 0.6202(2) 1.1979(11) 0.9535(3)
H43 H 0.6273(2) 1.3633(11) 0.8994(3)
H44 H 0.6837(2) 1.2929(11) 0.9920(3)
C21? C 0.5695(5) 1.1672(23) 0.3905(4)
C22? C 0.5132(4) 1.2509(25) 0.3726(6)
C23? C 0.4572(4) 1.1971(25) 0.3039(6)
H21? H 0.5903(5) 1.2747(23) 0.3820(4)
H22? H 0.5605(5) 1.0526(23) 0.3510(4)
H23? H 0.5169(4) 1.3484(25) 0.4118(6)
H24? H 0.4517(4) 1.1001(25) 0.2632(6)
H25? H 0.4240(4) 1.2568(25) 0.2971(6)
loop_
_geom_bond_atom_site_label_1
_geom_bond_atom_site_label_2
_geom_bond_site_symmetry_1
_geom_bond_site_symmetry_2
N1 C1 1_555 1_555
C1 C2 1_555 1_555
C2 N2 1_555 1_555
N2 C3 1_555 1_555
C3 C4 1_555 1_555
C4 N1 1_555 1_555
C5 N1 1_555 1_555
C6 C5 1_555 1_555
C7 C6 1_555 1_555
C8 C7 1_555 1_555
C9 C8 1_555 1_555
C10 C9 1_555 1_555
C11 C6 1_555 1_555
C12 C5 1_555 1_555
C13 C12 1_555 1_555
C14 C13 1_555 1_555
C15 C14 1_555 1_555
C16 C15 1_555 1_555
C17 C12 1_555 1_555
C18 N2 1_555 1_555
C19 C18 1_555 1_555
C20 C19 1_555 1_555
C24 C1 1_555 1_555
C25 C3 1_555 1_555
C26 C9 1_555 1_555
O1 C26 1_555 1_555
N3 C26 1_555 1_555
C27 N3 1_555 1_555
C28 C27 1_555 1_555
C29 N3 1_555 1_555
C30 C29 1_555 1_555
O2 C14 1_555 1_555
C31 O2 1_555 1_555
H1 C1 1_555 1_555
H2 C2 1_555 1_555
H3 C2 1_555 1_555
H4 C3 1_555 1_555
H5 C4 1_555 1_555
H6 C4 1_555 1_555
H7 C5 1_555 1_555
H8 C7 1_555 1_555
H9 C8 1_555 1_555
H10 C10 1_555 1_555
H11 C11 1_555 1_555
H12 C13 1_555 1_555
H13 C15 1_555 1_555
H14 C16 1_555 1_555
H15 C17 1_555 1_555
H16 C18 1_555 1_555
H17 C18 1_555 1_555
H18 C19 1_555 1_555
H19 C20 1_555 1_555
H20 C20 1_555 1_555
H26 C24 1_555 1_555
H27 C24 1_555 1_555
H28 C24 1_555 1_555
H29 C25 1_555 1_555
H30 C25 1_555 1_555
H31 C25 1_555 1_555
H32 C27 1_555 1_555
H33 C27 1_555 1_555
H34 C28 1_555 1_555
H35 C28 1_555 1_555
H36 C28 1_555 1_555
H37 C29 1_555 1_555
H38 C29 1_555 1_555
H39 C30 1_555 1_555
H40 C30 1_555 1_555
H41 C30 1_555 1_555
H42 C31 1_555 1_555
H43 C31 1_555 1_555
H44 C31 1_555 1_555
C10 C11 1_555 1_555
C16 C17 1_555 1_555

#END
