
#######################################################################
#
#                 Cambridge Crystallographic Data Centre
#                                CCDC 
#
#######################################################################
#
# If this CIF has been generated from an entry in the Cambridge 
# Structural Database, then it will include bibliographic, chemical, 
# crystal, experimental, refinement or atomic coordinate data resulting 
# from the CCDC's data processing and validation procedures.
#
#######################################################################

data_HEPXIM01
_chemical_formula_moiety         'C17 H14 N2 O2'
_chemical_name_systematic        N-(5-hydroxyquinolin-8-yl)-3-methylbenzamide
_symmetry_cell_setting           monoclinic
_symmetry_space_group_name_H-M   'P 21/n'
_symmetry_Int_Tables_number      14
_space_group_name_Hall           '-P 2yn'
loop_
_symmetry_equiv_pos_site_id
_symmetry_equiv_pos_as_xyz
1 x,y,z
2 1/2-x,1/2+y,1/2-z
3 -x,-y,-z
4 1/2+x,1/2-y,1/2+z
_cell_length_a                   7.8705(12)
_cell_length_b                   12.827(2)
_cell_length_c                   13.814(2)
_cell_angle_alpha                90
_cell_angle_beta                 95.091(3)
_cell_angle_gamma                90
_cell_volume                     1389.09
_exptl_crystal_colour            colorless
_exptl_crystal_description       block
_cell_formula_units_Z            4
loop_
_atom_site_label
_atom_site_type_symbol
_atom_site_fract_x
_atom_site_fract_y
_atom_site_fract_z
O1 O 0.26276(17) 0.36034(11) 0.37792(11)
O2 O 0.54937(17) 0.77379(11) 0.16736(11)
H1 H 0.4541 0.7966 0.1504
N1 N 0.53147(19) 0.42040(12) 0.40115(11)
H2 H 0.6289 0.4095 0.4329
N2 N 0.81653(19) 0.52803(12) 0.39402(11)
C1 C 0.4095(2) 0.35053(13) 0.41594(13)
C2 C 0.5222(2) 0.50920(13) 0.34087(12)
C3 C 0.6781(2) 0.56444(13) 0.33778(12)
C4 C 0.9614(3) 0.57803(18) 0.38934(16)
H3 H 1.0568 0.5537 0.4272
C5 C 0.9808(3) 0.66535(18) 0.33112(16)
H4 H 1.0867 0.6974 0.3304
C6 C 0.8439(2) 0.70305(15) 0.27573(14)
H5 H 0.8549 0.7613 0.2367
C7 C 0.6849(2) 0.65341(13) 0.27774(12)
C8 C 0.5350(2) 0.68726(14) 0.22285(14)
C9 C 0.3873(2) 0.63279(16) 0.22750(15)
H6 H 0.2889 0.6552 0.1912
C10 C 0.3805(2) 0.54335(16) 0.28604(15)
H7 H 0.2783 0.5072 0.2873
C11 C 0.4602(2) 0.26035(13) 0.48030(13)
C12 C 0.3320(3) 0.20099(15) 0.51436(15)
H8 H 0.2192 0.2195 0.4969
C13 C 0.3646(4) 0.11545(17) 0.57306(17)
C14 C 0.5301(4) 0.08968(19) 0.59824(19)
H9 H 0.5548 0.0328 0.6388
C15 C 0.6618(4) 0.1460(2) 0.5649(2)
H10 H 0.7742 0.1265 0.5824
C16 C 0.6272(3) 0.23218(17) 0.50513(18)
H11 H 0.7158 0.2703 0.4822
C17 C 0.2225(5) 0.0513(2) 0.6071(3)
H12 H 0.1968 0.0750 0.6700
H13 H 0.2564 -0.0206 0.6109
H14 H 0.1231 0.0583 0.5620
loop_
_geom_bond_atom_site_label_1
_geom_bond_atom_site_label_2
_geom_bond_site_symmetry_1
_geom_bond_site_symmetry_2
O1 C1 1_555 1_555
O2 H1 1_555 1_555
N1 H2 1_555 1_555
N2 C3 1_555 1_555
C1 N1 1_555 1_555
C2 N1 1_555 1_555
C3 C2 1_555 1_555
C4 N2 1_555 1_555
H3 C4 1_555 1_555
C5 C4 1_555 1_555
H4 C5 1_555 1_555
C6 C5 1_555 1_555
H5 C6 1_555 1_555
C7 C3 1_555 1_555
C8 O2 1_555 1_555
C9 C8 1_555 1_555
H6 C9 1_555 1_555
C10 C2 1_555 1_555
H7 C10 1_555 1_555
C11 C1 1_555 1_555
C12 C11 1_555 1_555
H8 C12 1_555 1_555
C13 C12 1_555 1_555
C14 C13 1_555 1_555
H9 C14 1_555 1_555
C15 C14 1_555 1_555
H10 C15 1_555 1_555
C16 C11 1_555 1_555
H11 C16 1_555 1_555
C17 C13 1_555 1_555
H12 C17 1_555 1_555
H13 C17 1_555 1_555
H14 C17 1_555 1_555
C6 C7 1_555 1_555
C7 C8 1_555 1_555
C9 C10 1_555 1_555
C15 C16 1_555 1_555

#END
