
#######################################################################
#
#                 Cambridge Crystallographic Data Centre
#                                CCDC 
#
#######################################################################
#
# If this CIF has been generated from an entry in the Cambridge 
# Structural Database, then it will include bibliographic, chemical, 
# crystal, experimental, refinement or atomic coordinate data resulting 
# from the CCDC's data processing and validation procedures.
#
#######################################################################

data_HEPZUA
_chemical_formula_moiety         'C20 H24 Cl4 N2 O2,C2 H6 O1'
_chemical_name_systematic        
"2,2'-[{[2-(diethylamino)ethyl]azanediyl}bis(methylene)]bis(4,6-dichlorophenol) ethanol solvate"
_symmetry_cell_setting           monoclinic
_symmetry_space_group_name_H-M   'P 21/c'
_symmetry_Int_Tables_number      14
_space_group_name_Hall           '-P 2ybc'
loop_
_symmetry_equiv_pos_site_id
_symmetry_equiv_pos_as_xyz
1 x,y,z
2 -x,1/2+y,1/2-z
3 -x,-y,-z
4 x,1/2-y,1/2+z
_cell_length_a                   11.0707(4)
_cell_length_b                   20.9340(8)
_cell_length_c                   11.8202(4)
_cell_angle_alpha                90
_cell_angle_beta                 110.491(2)
_cell_angle_gamma                90
_cell_volume                     2566.05
_exptl_crystal_description       prism
_cell_formula_units_Z            4
loop_
_atom_site_label
_atom_site_type_symbol
_atom_site_fract_x
_atom_site_fract_y
_atom_site_fract_z
Cl1 Cl 0.12747(9) 0.72392(6) 0.74302(10)
Cl2 Cl 0.94228(10) 0.74639(9) 0.94201(11)
Cl3 Cl 0.47694(13) 0.53695(7) 0.87482(11)
Cl4 Cl 0.8969(2) 0.94257(9) 0.6395(3)
O1 O 0.5406(2) 0.57621(11) 0.6625(2)
H1 H 0.5664 0.5946 0.6140
O2 O 0.6953(2) 0.70591(12) 0.7670(2)
H2 H 0.7448 0.6937 0.8327
N1 N 0.5475(2) 0.69937(12) 0.5259(2)
N2 N 0.7017(2) 0.58611(12) 0.5376(3)
C1 C 0.4043(3) 0.59796(18) 0.7746(3)
C2 C 0.2476(3) 0.67930(17) 0.7155(3)
C3 C 0.4481(3) 0.60905(15) 0.6777(3)
C4 C 0.3079(3) 0.6319(2) 0.7940(3)
H3 H 0.2836 0.6227 0.8600
C5 C 0.4177(3) 0.67050(16) 0.4890(3)
H4 H 0.4170 0.6308 0.4466
H5 H 0.3555 0.6991 0.4342
C6 C 0.5425(3) 0.76767(16) 0.5521(3)
H6 H 0.4815 0.7743 0.5932
H7 H 0.5122 0.7913 0.4768
C7 C 0.6094(3) 0.69010(17) 0.4362(3)
H8 H 0.6885 0.7148 0.4599
H9 H 0.5529 0.7063 0.3589
C8 C 0.6408(3) 0.62083(17) 0.4213(3)
H10 H 0.5619 0.5989 0.3745
H11 H 0.6986 0.6192 0.3757
C9 C 0.2826(3) 0.69199(16) 0.6169(3)
H12 H 0.2400 0.7240 0.5631
C10 C 0.3801(3) 0.65783(14) 0.5967(3)
C11 C 0.8584(4) 0.7851(2) 0.8089(4)
C12 C 0.9060(5) 0.8410(3) 0.7791(6)
H13 H 0.9847 0.8573 0.8293
C13 C 0.7213(5) 0.8483(2) 0.5996(5)
H14 H 0.6763 0.8696 0.5283
C14 C 0.7129(4) 0.51604(17) 0.5145(4)
H15 H 0.6290 0.5005 0.4633
H16 H 0.7362 0.4934 0.5908
C15 C 0.8102(5) 0.4999(2) 0.4555(6)
H17 H 0.7865 0.5208 0.3785
H18 H 0.8117 0.4545 0.4445
H19 H 0.8941 0.5142 0.5062
C16 C 0.8838(4) 0.5859(2) 0.7371(4)
H20 H 0.9098 0.5428 0.7298
H21 H 0.8199 0.5858 0.7749
H22 H 0.9573 0.6102 0.7853
C17 C 0.8370(6) 0.8719(3) 0.6759(8)
C18 C 0.6724(4) 0.79280(17) 0.6295(4)
C19 C 0.8277(3) 0.61556(17) 0.6129(4)
H23 H 0.8150 0.6609 0.6215
H24 H 0.8888 0.6108 0.5714
C20 C 0.7414(3) 0.75993(19) 0.7352(4)
O3 O 0.6418(3) 0.45397(17) 0.7358(3)
C21 C 0.7096(8) 0.4345(4) 0.8552(6)
H25 H 0.7813 0.4638 0.8887
H26 H 0.6528 0.4403 0.9009
C22 C 0.7554(9) 0.3771(4) 0.8756(6)
H27 H 0.8039 0.3682 0.8241
H28 H 0.6856 0.3472 0.8592
H29 H 0.8107 0.3734 0.9585
H30 H 0.612(5) 0.494(3) 0.733(5)
loop_
_geom_bond_atom_site_label_1
_geom_bond_atom_site_label_2
_geom_bond_site_symmetry_1
_geom_bond_site_symmetry_2
Cl1 C2 1_555 1_555
Cl2 C11 1_555 1_555
Cl3 C1 1_555 1_555
Cl4 C17 1_555 1_555
O1 H1 1_555 1_555
O2 H2 1_555 1_555
N1 C5 1_555 1_555
N2 C8 1_555 1_555
C1 C3 1_555 1_555
C2 C4 1_555 1_555
C3 O1 1_555 1_555
C4 C1 1_555 1_555
H3 C4 1_555 1_555
C5 H4 1_555 1_555
H5 C5 1_555 1_555
C6 N1 1_555 1_555
H6 C6 1_555 1_555
H7 C6 1_555 1_555
C7 N1 1_555 1_555
H8 C7 1_555 1_555
H9 C7 1_555 1_555
C8 C7 1_555 1_555
H10 C8 1_555 1_555
H11 C8 1_555 1_555
C9 C2 1_555 1_555
H12 C9 1_555 1_555
C10 C3 1_555 1_555
C11 C12 1_555 1_555
C12 H13 1_555 1_555
C13 H14 1_555 1_555
C14 N2 1_555 1_555
H15 C14 1_555 1_555
H16 C14 1_555 1_555
C15 C14 1_555 1_555
H17 C15 1_555 1_555
H18 C15 1_555 1_555
H19 C15 1_555 1_555
C16 H20 1_555 1_555
H21 C16 1_555 1_555
H22 C16 1_555 1_555
C17 C12 1_555 1_555
C18 C6 1_555 1_555
C19 N2 1_555 1_555
H23 C19 1_555 1_555
H24 C19 1_555 1_555
C20 O2 1_555 1_555
O3 C21 1_555 1_555
C21 H25 1_555 1_555
H26 C21 1_555 1_555
C22 C21 1_555 1_555
H27 C22 1_555 1_555
H28 C22 1_555 1_555
H29 C22 1_555 1_555
H30 O3 1_555 1_555
C5 C10 1_555 1_555
C9 C10 1_555 1_555
C11 C20 1_555 1_555
C13 C17 1_555 1_555
C13 C18 1_555 1_555
C16 C19 1_555 1_555
C18 C20 1_555 1_555

#END
