
#######################################################################
#
#                 Cambridge Crystallographic Data Centre
#                                CCDC 
#
#######################################################################
#
# If this CIF has been generated from an entry in the Cambridge 
# Structural Database, then it will include bibliographic, chemical, 
# crystal, experimental, refinement or atomic coordinate data resulting 
# from the CCDC's data processing and validation procedures.
#
#######################################################################

data_HEPZAG02
_chemical_name_common            'tetraethylammonium camphorsulfonate'
_chemical_formula_moiety         'C10 H15 O4 S1 1-,C8 H20 N1 1+'
_chemical_name_systematic        
'tetraethylammonium (7,7-dimethyl-2-oxobicyclo[2.2.1]heptan-1-yl)methanesulfonate'
_symmetry_cell_setting           monoclinic
_symmetry_space_group_name_H-M   'P 21'
_symmetry_Int_Tables_number      4
_space_group_name_Hall           'P 2yb'
loop_
_symmetry_equiv_pos_site_id
_symmetry_equiv_pos_as_xyz
1 x,y,z
2 -x,1/2+y,-z
_cell_length_a                   9.5107(12)
_cell_length_b                   9.5076(12)
_cell_length_c                   11.6475(15)
_cell_angle_alpha                90
_cell_angle_beta                 90.025(3)
_cell_angle_gamma                90
_cell_volume                     1053.21
_exptl_crystal_colour            colorless
_exptl_crystal_description       platelet
_cell_formula_units_Z            2
loop_
_atom_site_label
_atom_site_type_symbol
_atom_site_fract_x
_atom_site_fract_y
_atom_site_fract_z
S1 S 0.75007(13) 1.0250(3) 1.13542(11)
O1 O 0.8590(14) 1.1464(12) 1.1384(10)
C1 C 0.687(4) 0.983(4) 1.257(2)
H1 H 0.6908 0.8809 1.2624
H2 H 0.5877 1.0076 1.2559
O2 O 0.6408(15) 1.1415(12) 1.1396(10)
O3 O 0.763(4) 0.927(3) 1.070(4)
C2 C 0.905(3) 1.052(5) 1.412(3)
C3 C 0.7496(13) 1.043(2) 1.3767(7)
C4 C 0.741(2) 1.042(2) 1.5658(13)
H3 H 0.7162 1.0062 1.6422
C5 C 0.696(4) 1.195(4) 1.410(3)
H4 H 0.7642 1.2654 1.3869
H5 H 0.6072 1.2147 1.3729
C6 C 0.680(6) 1.192(3) 1.539(2)
H6 H 0.5824 1.2000 1.5618
H7 H 0.7348 1.2652 1.5756
C7 C 0.678(3) 0.957(3) 1.467(2)
C8 C 0.899(3) 1.065(5) 1.547(2)
H8 H 0.9547 0.9935 1.5851
H9 H 0.9284 1.1575 1.5733
C9 C 0.753(4) 0.815(3) 1.484(4)
H10 H 0.7101 0.7654 1.5466
H11 H 0.8504 0.8309 1.5003
H12 H 0.7443 0.7601 1.4150
C10 C 0.525(4) 1.017(6) 1.464(4)
H13 H 0.4695 0.9712 1.5216
H14 H 0.4849 1.0009 1.3898
H15 H 0.5280 1.1163 1.4793
O4 O 1.019(3) 1.081(4) 1.372(3)
N1 N 0.7499(3) 0.5213(7) 0.9994(3)
C19 C 0.6808(15) 0.6413(19) 0.9291(15)
H31 H 0.6016 0.5956 0.8921
H32 H 0.6398 0.7014 0.9875
C20 C 0.6357(19) 0.4641(19) 1.0675(15)
H33 H 0.5726 0.4250 1.0104
H34 H 0.6781 0.3835 1.1050
C21 C 0.814(2) 0.4102(18) 0.9310(19)
H35 H 0.8953 0.4518 0.8943
H36 H 0.8494 0.3414 0.9851
C22 C 0.861(2) 0.593(3) 1.078(2)
H37 H 0.8178 0.6767 1.1107
H38 H 0.9379 0.6242 1.0300
C23 C 0.924(4) 0.505(3) 1.179(2)
H39 H 0.9966 0.5578 1.2162
H40 H 0.9625 0.4188 1.1494
H41 H 0.8511 0.4833 1.2335
C24 C 0.551(4) 0.513(4) 1.145(3)
H42 H 0.4851 0.4419 1.1667
H43 H 0.5013 0.5929 1.1143
H44 H 0.6042 0.5422 1.2110
C25 C 0.726(4) 0.733(5) 0.849(3)
H45 H 0.6491 0.7899 0.8229
H46 H 0.7654 0.6826 0.7851
H47 H 0.7973 0.7930 0.8817
C26 C 0.752(6) 0.343(5) 0.856(3)
H48 H 0.8154 0.2771 0.8218
H49 H 0.7179 0.4070 0.7984
H50 H 0.6740 0.2941 0.8896
O5? O 0.8697(14) 0.929(2) 1.134(2)
O6? O 0.6275(13) 0.922(2) 1.1370(19)
C11? C 0.798(4) 1.077(3) 1.2517(16)
H16? H 0.7910 1.1783 1.2462
H17? H 0.8985 1.0568 1.2525
H18? H 0.7537 1.0042 1.6434
O7? O 0.742(3) 1.097(3) 1.0375(11)
C12? C 0.806(4) 0.950(3) 1.469(2)
C13? C 0.579(3) 1.024(5) 1.403(2)
H19? H 0.5217 1.0881 1.3577
H20? H 0.5472 0.9281 1.3903
C14? C 0.811(5) 1.182(3) 1.5455(19)
H21? H 0.7677 1.2557 1.5908
H22? H 0.9107 1.1776 1.5645
C15? C 0.791(5) 1.207(3) 1.422(2)
C16? C 0.958(4) 1.004(5) 1.455(5)
H23? H 1.0165 0.9615 1.5129
H24? H 0.9595 1.1040 1.4638
H25? H 0.9920 0.9786 1.3805
C17? C 0.580(3) 1.063(6) 1.530(2)
H26? H 0.5192 1.0018 1.5740
H27? H 0.5511 1.1599 1.5412
O8? O 0.762(6) 1.316(4) 1.376(4)
C18? C 0.744(3) 0.815(5) 1.409(4)
H28? H 0.7768 0.7319 1.4475
H29? H 0.7742 0.8123 1.3300
H30? H 0.6430 0.8173 1.4113
C27? C 0.8691(16) 0.4596(16) 1.0701(13)
H51? H 0.8329 0.3764 1.1081
H52? H 0.9408 0.4280 1.0168
C28? C 0.8166(19) 0.6429(19) 0.9248(16)
H53? H 0.8453 0.7117 0.9816
H54? H 0.9033 0.6017 0.8967
C29? C 0.688(2) 0.4105(17) 0.9305(17)
H55? H 0.5909 0.4376 0.9188
H56? H 0.6861 0.3280 0.9794
C30? C 0.779(4) 0.710(3) 0.850(3)
H57? H 0.8532 0.7727 0.8268
H58? H 0.6987 0.7640 0.8729
H59? H 0.7542 0.6504 0.7865
C31? C 0.739(4) 0.361(4) 0.817(2)
H60? H 0.6808 0.2853 0.7903
H61? H 0.8345 0.3280 0.8242
H62? H 0.7361 0.4369 0.7628
C32? C 0.588(4) 0.534(5) 1.171(3)
H63? H 0.5223 0.5950 1.2092
H64? H 0.6653 0.5142 1.2211
H65? H 0.5414 0.4475 1.1510
C33? C 0.6336(19) 0.5949(19) 1.0781(17)
H66? H 0.6707 0.6858 1.1007
H67? H 0.5525 0.6129 1.0297
C34? C 0.928(4) 0.532(5) 1.144(2)
H68? H 0.9973 0.4755 1.1829
H69? H 0.8601 0.5649 1.1982
H70? H 0.9736 0.6103 1.1079
loop_
_geom_bond_atom_site_label_1
_geom_bond_atom_site_label_2
_geom_bond_site_symmetry_1
_geom_bond_site_symmetry_2
S1 O1 1_555 1_555
C1 S1 1_555 1_555
H1 C1 1_555 1_555
H2 C1 1_555 1_555
O2 S1 1_555 1_555
O3 S1 1_555 1_555
C2 C3 1_555 1_555
C3 C1 1_555 1_555
C4 H3 1_555 1_555
C5 C3 1_555 1_555
H4 C5 1_555 1_555
H5 C5 1_555 1_555
C6 C4 1_555 1_555
H6 C6 1_555 1_555
H7 C6 1_555 1_555
C7 C3 1_555 1_555
C8 C2 1_555 1_555
H8 C8 1_555 1_555
H9 C8 1_555 1_555
C9 C7 1_555 1_555
H10 C9 1_555 1_555
H11 C9 1_555 1_555
H12 C9 1_555 1_555
C10 C7 1_555 1_555
H13 C10 1_555 1_555
H14 C10 1_555 1_555
H15 C10 1_555 1_555
O4 C2 1_555 1_555
N1 C19 1_555 1_555
C19 H31 1_555 1_555
H32 C19 1_555 1_555
C20 N1 1_555 1_555
H33 C20 1_555 1_555
H34 C20 1_555 1_555
C21 N1 1_555 1_555
H35 C21 1_555 1_555
H36 C21 1_555 1_555
C22 N1 1_555 1_555
H37 C22 1_555 1_555
H38 C22 1_555 1_555
C23 C22 1_555 1_555
H39 C23 1_555 1_555
H40 C23 1_555 1_555
H41 C23 1_555 1_555
C24 C20 1_555 1_555
H42 C24 1_555 1_555
H43 C24 1_555 1_555
H44 C24 1_555 1_555
C25 C19 1_555 1_555
H45 C25 1_555 1_555
H46 C25 1_555 1_555
H47 C25 1_555 1_555
C26 C21 1_555 1_555
H48 C26 1_555 1_555
H49 C26 1_555 1_555
H50 C26 1_555 1_555
C4 C7 1_555 1_555
C4 C8 1_555 1_555
C5 C6 1_555 1_555

#END
