
#######################################################################
#
#                 Cambridge Crystallographic Data Centre
#                                CCDC 
#
#######################################################################
#
# If this CIF has been generated from an entry in the Cambridge 
# Structural Database, then it will include bibliographic, chemical, 
# crystal, experimental, refinement or atomic coordinate data resulting 
# from the CCDC's data processing and validation procedures.
#
#######################################################################

data_HEPZAG
_chemical_name_common            'tetraethylammonium camphorsulfonate'
_chemical_formula_moiety         'C10 H15 O4 S1 1-,C8 H20 N1 1+'
_chemical_name_systematic        
'tetraethylammonium (7,7-dimethyl-2-oxobicyclo[2.2.1]heptan-1-yl)methanesulfonate'
_symmetry_cell_setting           orthorhombic
_symmetry_space_group_name_H-M   'P 21 21 2'
_symmetry_Int_Tables_number      18
_space_group_name_Hall           'P 2 2ab'
loop_
_symmetry_equiv_pos_site_id
_symmetry_equiv_pos_as_xyz
1 x,y,z
2 -x,-y,z
3 1/2+x,1/2-y,-z
4 1/2-x,1/2+y,-z
_cell_length_a                   13.0612(5)
_cell_length_b                   13.1299(5)
_cell_length_c                   11.4816(5)
_cell_angle_alpha                90
_cell_angle_beta                 90
_cell_angle_gamma                90
_cell_volume                     1969.01
_exptl_crystal_colour            colorless
_exptl_crystal_description       platelet
_cell_formula_units_Z            4
loop_
_atom_site_label
_atom_site_type_symbol
_atom_site_fract_x
_atom_site_fract_y
_atom_site_fract_z
S1 S 0.25397(16) 0.25999(12) 0.86207(13)
O1 O 0.2528(4) 0.3694(3) 0.8450(4)
O2 O 0.3649(7) 0.2239(8) 0.8674(11)
O3 O 0.1966(9) 0.2219(10) 0.9581(10)
C1 C 0.2031(13) 0.2037(14) 0.7405(14)
H1 H 0.2041 0.1308 0.7544
H2 H 0.1316 0.2236 0.7375
O4 O 0.0996(9) 0.3637(10) 0.6094(11)
C2 C 0.2463(9) 0.2202(8) 0.6193(7)
C3 C 0.3439(15) 0.2899(18) 0.6061(16)
H3 H 0.4017 0.2634 0.6497
H4 H 0.3303 0.3595 0.6301
C4 C 0.2539(12) 0.2133(10) 0.4231(8)
H5 H 0.2565 0.1795 0.3471
C5 C 0.2359(18) 0.1542(14) 0.5194(15)
C6 C 0.1351(18) 0.1028(17) 0.506(2)
H6 H 0.0835 0.1528 0.4888
H7 H 0.1180 0.0677 0.5762
H8 H 0.1389 0.0548 0.4425
C7 C 0.3219(17) 0.0723(17) 0.542(2)
H9 H 0.3301 0.0308 0.4737
H10 H 0.3026 0.0301 0.6066
H11 H 0.3853 0.1060 0.5590
C8 C 0.189(3) 0.312(2) 0.433(2)
H12 H 0.2279 0.3715 0.4085
H13 H 0.1266 0.3077 0.3886
C9 C 0.1680(15) 0.3151(16) 0.5626(18)
C10 C 0.3617(14) 0.2814(15) 0.4679(16)
H14 H 0.4243 0.2448 0.4501
H15 H 0.3642 0.3482 0.4318
N1 N 0.5000 0.0000 1.0244(9)
C11 C 0.4056(6) -0.0179(7) 0.9525(9)
H16 H 0.3501 -0.0357 1.0049
H17 H 0.3873 0.0458 0.9152
C12 C 0.4718(15) 0.1025(17) 1.0840(19)
H18 H 0.5295 0.1238 1.1312
H19 H 0.4624 0.1534 1.0237
C13 C 0.4119(9) -0.0969(9) 0.8620(10)
H20 H 0.4656 -0.0802 0.8083
H21 H 0.3479 -0.1006 0.8211
H22 H 0.4262 -0.1615 0.8976
C14 C 0.3813(13) 0.1021(15) 1.1569(17)
H23 H 0.3221 0.0887 1.1098
H24 H 0.3741 0.1673 1.1939
H25 H 0.3878 0.0501 1.2152
C11A C 0.5944(6) 0.0179(7) 0.9525(9)
H16A H 0.6499 0.0357 1.0049
H17A H 0.6127 -0.0458 0.9152
C12A C 0.5282(15) -0.1025(17) 1.0840(19)
H18A H 0.4705 -0.1238 1.1312
H19A H 0.5376 -0.1534 1.0237
C13A C 0.5881(9) 0.0969(9) 0.8620(10)
H20A H 0.5344 0.0802 0.8083
H21A H 0.6521 0.1006 0.8211
H22A H 0.5738 0.1615 0.8976
C14A C 0.6187(13) -0.1021(15) 1.1569(17)
H23A H 0.6779 -0.0887 1.1098
H24A H 0.6259 -0.1673 1.1939
H25A H 0.6122 -0.0501 1.2152
N2 N 0.0000 0.0000 1.0072(8)
C15 C 0.0932(7) -0.0209(8) 0.9331(8)
H26 H 0.1122 0.0414 0.8934
H27 H 0.1495 -0.0395 0.9840
C16 C 0.0800(8) -0.1036(9) 0.8438(9)
H28 H 0.0688 -0.1675 0.8824
H29 H 0.1405 -0.1080 0.7966
H30 H 0.0222 -0.0881 0.7953
C17 C -0.0729(16) -0.0781(18) 1.1882(19)
H31 H -0.0469 -0.0242 1.2363
H32 H -0.0756 -0.1401 1.2325
H33 H -0.1404 -0.0609 1.1617
C18 C -0.0075(17) -0.0916(17) 1.0909(17)
H34 H -0.0312 -0.1502 1.0471
H35 H 0.0607 -0.1073 1.1192
C15A C -0.0932(7) 0.0209(8) 0.9331(8)
H26A H -0.1122 -0.0414 0.8934
H27A H -0.1495 0.0395 0.9840
C16A C -0.0800(8) 0.1036(9) 0.8438(9)
H28A H -0.0688 0.1675 0.8824
H29A H -0.1405 0.1080 0.7966
H30A H -0.0222 0.0881 0.7953
C17A C 0.0729(16) 0.0781(18) 1.1882(19)
H31A H 0.0469 0.0242 1.2363
H32A H 0.0756 0.1401 1.2325
H33A H 0.1404 0.0609 1.1617
C18A C 0.0075(17) 0.0916(17) 1.0909(17)
H34A H 0.0312 0.1502 1.0471
H35A H -0.0607 0.1073 1.1192
O5? O 0.3109(10) 0.2282(11) 0.9606(11)
O6? O 0.1450(8) 0.2204(9) 0.8620(11)
O7? O 0.1784(11) 0.0343(11) 0.6677(11)
C19? C 0.163(3) 0.279(3) 0.460(3)
H36? H 0.1672 0.3468 0.4262
H37? H 0.0986 0.2482 0.4379
C20? C 0.2023(14) 0.1008(16) 0.5978(16)
H38? H 0.2781 0.2184 0.3425
C21? C 0.1739(17) 0.2838(19) 0.5928(19)
H39? H 0.1918 0.3521 0.6176
H40? H 0.1103 0.2643 0.6302
C22? C 0.4045(15) 0.1171(15) 0.5076(17)
H41? H 0.3708 0.0537 0.4909
H42? H 0.4385 0.1124 0.5815
H43? H 0.4538 0.1314 0.4479
C23? C 0.1883(19) 0.092(2) 0.470(2)
H44? H 0.1165 0.0911 0.4489
H45? H 0.2220 0.0319 0.4394
C24? C 0.3103(14) 0.2025(17) 0.7374(15)
H46? H 0.3787 0.2298 0.7272
H47? H 0.3166 0.1299 0.7511
C25? C 0.3264(16) 0.2013(13) 0.5117(17)
C26? C 0.391(2) 0.3081(18) 0.502(2)
H48? H 0.4226 0.3127 0.4270
H49? H 0.4431 0.3094 0.5615
H50? H 0.3455 0.3647 0.5132
C27? C -0.0359(16) -0.0953(17) 1.071(2)
H51? H -0.0456 -0.1480 1.0129
H52? H 0.0201 -0.1173 1.1205
C28? C -0.1299(16) -0.0932(18) 1.145(2)
H53? H -0.1337 -0.0293 1.1851
H54? H -0.1273 -0.1478 1.2001
H55? H -0.1892 -0.1011 1.0960
C29? C 0.4243(13) 0.0640(14) 1.2141(15)
H56? H 0.3653 0.0273 1.1871
H57? H 0.4030 0.1272 1.2483
H58? H 0.4598 0.0239 1.2712
C30? C 0.4949(15) 0.0852(15) 1.1125(16)
H59? H 0.4721 0.1467 1.0736
H60? H 0.5633 0.0978 1.1422
loop_
_geom_bond_atom_site_label_1
_geom_bond_atom_site_label_2
_geom_bond_site_symmetry_1
_geom_bond_site_symmetry_2
S1 O1 1_555 1_555
O2 S1 1_555 1_555
O3 S1 1_555 1_555
C1 S1 1_555 1_555
H1 C1 1_555 1_555
H2 C1 1_555 1_555
O4 C9 1_555 1_555
C2 C1 1_555 1_555
C3 C2 1_555 1_555
H3 C3 1_555 1_555
H4 C3 1_555 1_555
C4 H5 1_555 1_555
C5 C2 1_555 1_555
C6 C5 1_555 1_555
H6 C6 1_555 1_555
H7 C6 1_555 1_555
H8 C6 1_555 1_555
C7 C5 1_555 1_555
H9 C7 1_555 1_555
H10 C7 1_555 1_555
H11 C7 1_555 1_555
C8 C4 1_555 1_555
H12 C8 1_555 1_555
H13 C8 1_555 1_555
C9 C2 1_555 1_555
C10 C3 1_555 1_555
H14 C10 1_555 1_555
H15 C10 1_555 1_555
N1 C11 1_555 1_555
C11 H16 1_555 1_555
H17 C11 1_555 1_555
C12 N1 1_555 1_555
H18 C12 1_555 1_555
H19 C12 1_555 1_555
C13 C11 1_555 1_555
H20 C13 1_555 1_555
H21 C13 1_555 1_555
H22 C13 1_555 1_555
C14 C12 1_555 1_555
H23 C14 1_555 1_555
H24 C14 1_555 1_555
H25 C14 1_555 1_555
N2 C15 1_555 1_555
C15 H26 1_555 1_555
H27 C15 1_555 1_555
C16 C15 1_555 1_555
H28 C16 1_555 1_555
H29 C16 1_555 1_555
H30 C16 1_555 1_555
C17 H31 1_555 1_555
H32 C17 1_555 1_555
H33 C17 1_555 1_555
C18 N2 1_555 1_555
H34 C18 1_555 1_555
H35 C18 1_555 1_555
C11A N1 1_555 1_555
H16A C11A 1_555 1_555
H17A C11A 1_555 1_555
C12A N1 1_555 1_555
H18A C12A 1_555 1_555
H19A C12A 1_555 1_555
C13A C11A 1_555 1_555
H20A C13A 1_555 1_555
H21A C13A 1_555 1_555
H22A C13A 1_555 1_555
C14A C12A 1_555 1_555
H23A C14A 1_555 1_555
H24A C14A 1_555 1_555
H25A C14A 1_555 1_555
C15A N2 1_555 1_555
H26A C15A 1_555 1_555
H27A C15A 1_555 1_555
C16A C15A 1_555 1_555
H28A C16A 1_555 1_555
H29A C16A 1_555 1_555
H30A C16A 1_555 1_555
C17A H31A 1_555 1_555
H32A C17A 1_555 1_555
H33A C17A 1_555 1_555
C18A N2 1_555 1_555
H34A C18A 1_555 1_555
H35A C18A 1_555 1_555
C4 C5 1_555 1_555
C4 C10 1_555 1_555
C8 C9 1_555 1_555
C17 C18 1_555 1_555
C17A C18A 1_555 1_555

#END
