
#######################################################################
#
#                 Cambridge Crystallographic Data Centre
#                                CCDC 
#
#######################################################################
#
# If this CIF has been generated from an entry in the Cambridge 
# Structural Database, then it will include bibliographic, chemical, 
# crystal, experimental, refinement or atomic coordinate data resulting 
# from the CCDC's data processing and validation procedures.
#
#######################################################################

data_HEQFUF
_chemical_formula_moiety         'C102 H108 N6,C1 H2 Cl2'
_chemical_name_systematic        
'1,2,7,8,13,14-hexakis(2-(4-(di-isopropylamine)phenyl)ethynyl)-cyclooctadeca-1,7,13-trien-3,5,9,11,15,17-hexayne dichloromethane solvate'
_symmetry_cell_setting           triclinic
_symmetry_space_group_name_H-M   'P -1'
_symmetry_Int_Tables_number      2
_space_group_name_Hall           '-P 1'
loop_
_symmetry_equiv_pos_site_id
_symmetry_equiv_pos_as_xyz
1 x,y,z
2 -x,-y,-z
_cell_length_a                   17.1740(4)
_cell_length_b                   18.5800(5)
_cell_length_c                   18.7780(5)
_cell_angle_alpha                109.728(2)
_cell_angle_beta                 101.812(2)
_cell_angle_gamma                113.563(2)
_cell_volume                     4752.56
_exptl_crystal_colour            black
_chemical_melting_point          218deg.C(dec.)
_cell_formula_units_Z            2
_exptl_crystal_recrystallization_method dichloromethane/hexane
loop_
_atom_site_label
_atom_site_type_symbol
_atom_site_fract_x
_atom_site_fract_y
_atom_site_fract_z
C1 C 1.1878(2) 0.9138(2) 0.2268(2)
C2 C 1.1235(2) 0.8662(2) 0.1462(2)
C3 C 1.0366(2) 0.7919(2) 0.12319(19)
C4 C 0.9617(2) 0.7283(2) 0.10259(19)
C5 C 0.8783(2) 0.6575(2) 0.0795(2)
C6 C 0.8027(2) 0.5948(2) 0.06050(19)
C7 C 0.7158(2) 0.5257(2) 0.04430(18)
C8 C 0.7017(2) 0.5053(2) 0.10694(18)
C9 C 0.7741(2) 0.5509(2) 0.1857(2)
C10 C 0.8320(2) 0.5852(2) 0.2541(2)
C11 C 0.8967(2) 0.6217(2) 0.3304(2)
C12 C 0.9542(3) 0.6541(3) 0.3991(2)
C13 C 1.0247(2) 0.6983(2) 0.4777(2)
C14 C 1.1073(2) 0.7714(2) 0.49629(19)
C15 C 1.1194(2) 0.8026(2) 0.4373(2)
C16 C 1.1338(3) 0.8315(2) 0.3900(2)
C17 C 1.1513(3) 0.8625(2) 0.3358(2)
C18 C 1.1678(2) 0.8873(2) 0.2859(2)
C19 C 1.2747(3) 0.9899(2) 0.2513(2)
C20 C 1.3452(2) 1.0562(2) 0.2712(2)
C21 C 1.4268(2) 1.1387(2) 0.2953(2)
C22 C 1.4894(2) 1.1430(2) 0.2576(2)
H1 H 1.4802 1.0905 0.2168
C23 C 1.5649(2) 1.2239(2) 0.2798(2)
H2 H 1.6069 1.2250 0.2543
C24 C 1.5811(2) 1.3043(2) 0.3388(2)
C25 C 1.5188(2) 1.2984(2) 0.3773(2)
H3 H 1.5282 1.3505 0.4189
C26 C 1.4437(2) 1.2175(2) 0.3553(2)
H4 H 1.4027 1.2160 0.3820
N1 N 1.65270(19) 1.38499(18) 0.35553(18)
C27 C 1.6509(3) 1.4672(2) 0.3989(2)
H5 H 1.5862 1.4484 0.3926
C28 C 1.7085(4) 1.5160(3) 0.4899(3)
H6 H 1.6936 1.4747 0.5124
H7 H 1.6954 1.5619 0.5167
H8 H 1.7735 1.5429 0.4993
C29 C 1.6760(3) 1.5264(3) 0.3586(3)
H9 H 1.7417 1.5537 0.3707
H10 H 1.6609 1.5722 0.3796
H11 H 1.6415 1.4911 0.2995
C30 C 1.7413(2) 1.3970(2) 0.3502(2)
H12 H 1.7865 1.4613 0.3849
C31 C 1.7408(3) 1.3759(3) 0.2638(3)
H13 H 1.7058 1.3121 0.2290
H14 H 1.8037 1.3992 0.2671
H15 H 1.7124 1.4032 0.2407
C32 C 1.7783(3) 1.3512(3) 0.3878(3)
H16 H 1.7749 1.3644 0.4413
H17 H 1.8421 1.3722 0.3941
H18 H 1.7416 1.2875 0.3522
C33 C 1.1419(2) 0.8915(2) 0.0857(2)
C34 C 1.1566(2) 0.9168(2) 0.0356(2)
C35 C 1.1716(2) 0.9511(2) -0.0205(2)
C36 C 1.1086(3) 0.9061(3) -0.1017(2)
H19 H 1.0592 0.8482 -0.1219
C37 C 1.1168(3) 0.9440(3) -0.1529(2)
H20 H 1.0726 0.9114 -0.2073
C38 C 1.1892(2) 1.0300(2) -0.1268(2)
C39 C 1.2563(2) 1.0725(2) -0.0466(2)
H21 H 1.3088 1.1282 -0.0277
C40 C 1.2470(2) 1.0344(2) 0.0047(2)
H22 H 1.2927 1.0653 0.0583
N2 N 1.1939(2) 1.0707(2) -0.1760(2)
C41 C 1.1189(3) 1.0363(3) -0.2533(2)
H23 H 1.1400 1.0829 -0.2709
C42 C 1.1027(4) 0.9536(4) -0.3234(3)
H24 H 1.1617 0.9592 -0.3220
H25 H 1.0687 0.9470 -0.3755
H26 H 1.0673 0.9018 -0.3174
C43 C 1.0307(4) 1.0279(5) -0.2434(5)
H27 H 1.0014 0.9776 -0.2335
H28 H 0.9890 1.0191 -0.2932
H29 H 1.0453 1.0818 -0.1972
C44 C 1.2744(4) 1.1593(4) -0.1495(3)
H30 H 1.3188 1.1773 -0.0952
C45 C 1.3230(4) 1.1524(4) -0.2095(6)
H31 H 1.2879 1.1495 -0.2590
H32 H 1.3272 1.0991 -0.2237
H33 H 1.3846 1.2041 -0.1837
C46 C 1.2497(6) 1.2303(4) -0.1389(4)
H34 H 1.2164 1.2212 -0.1925
H35 H 1.3057 1.2882 -0.1097
H36 H 1.2110 1.2273 -0.1076
C47 C 0.6440(2) 0.4789(2) -0.0350(2)
C48 C 0.5817(2) 0.4357(2) -0.1022(2)
C49 C 0.5055(2) 0.3820(2) -0.1814(2)
C50 C 0.4233(3) 0.3816(2) -0.1915(2)
H37 H 0.4192 0.4199 -0.1465
C51 C 0.3470(3) 0.3271(2) -0.2650(2)
H38 H 0.2926 0.3293 -0.2688
C52 C 0.3492(2) 0.2686(2) -0.3341(2)
C53 C 0.4338(3) 0.2713(3) -0.3236(2)
H39 H 0.4392 0.2344 -0.3686
C54 C 0.5094(3) 0.3263(3) -0.2493(2)
H40 H 0.5646 0.3257 -0.2449
N3 N 0.2726(2) 0.2125(2) -0.40808(18)
C55 C 0.2613(3) 0.1302(3) -0.4706(2)
H41 H 0.1950 0.0948 -0.5077
C56 C 0.3128(5) 0.1476(5) -0.5258(3)
H42 H 0.3013 0.1868 -0.5438
H43 H 0.2911 0.0918 -0.5733
H44 H 0.3785 0.1751 -0.4952
C57 C 0.2766(5) 0.0720(4) -0.4362(4)
H45 H 0.3404 0.1032 -0.3980
H46 H 0.2632 0.0175 -0.4809
H47 H 0.2361 0.0578 -0.4078
C58 C 0.1911(3) 0.2239(3) -0.4222(3)
H48 H 0.2119 0.2845 -0.3804
C59 C 0.1572(4) 0.2194(4) -0.5062(3)
H49 H 0.2082 0.2616 -0.5120
H50 H 0.1086 0.2337 -0.5108
H51 H 0.1334 0.1599 -0.5492
C60 C 0.1150(4) 0.1612(4) -0.4092(4)
H52 H 0.0940 0.1006 -0.4478
H53 H 0.0640 0.1722 -0.4180
H54 H 0.1375 0.1701 -0.3534
C61 C 0.6149(2) 0.4413(2) 0.09875(19)
C62 C 0.5454(2) 0.3982(2) 0.1052(2)
C63 C 0.4623(2) 0.3526(2) 0.1152(2)
C64 C 0.3825(2) 0.3514(2) 0.0781(2)
H55 H 0.3825 0.3771 0.0427
C65 C 0.3039(2) 0.3140(3) 0.0915(2)
H56 H 0.2516 0.3148 0.0652
C66 C 0.2996(2) 0.2743(2) 0.1437(2)
C67 C 0.3800(2) 0.2733(2) 0.1791(2)
H57 H 0.3797 0.2455 0.2127
C68 C 0.4581(2) 0.3118(2) 0.1655(2)
H58 H 0.5105 0.3108 0.1910
N4 N 0.2224(2) 0.2405(2) 0.1608(2)
C69 C 0.1287(2) 0.2108(3) 0.1043(3)
H59 H 0.0857 0.1753 0.1232
C70 C 0.1095(3) 0.2854(3) 0.1120(3)
H60 H 0.1280 0.3241 0.1697
H61 H 0.0441 0.2606 0.0828
H62 H 0.1443 0.3192 0.0886
C71 C 0.1022(3) 0.1467(3) 0.0159(3)
H63 H 0.1380 0.1783 -0.0084
H64 H 0.0369 0.1208 -0.0151
H65 H 0.1147 0.0999 0.0149
C72 C 0.2261(3) 0.2199(3) 0.2300(3)
H66 H 0.2922 0.2499 0.2658
C73 C 0.1806(4) 0.2581(4) 0.2828(3)
H67 H 0.2043 0.3199 0.2960
H68 H 0.1948 0.2536 0.3334
H69 H 0.1142 0.2247 0.2524
C74 C 0.1867(4) 0.1233(4) 0.2036(4)
H70 H 0.1230 0.0909 0.1648
H71 H 0.1891 0.1132 0.2512
H72 H 0.2223 0.1028 0.1775
C75 C 1.0100(2) 0.6681(3) 0.5366(2)
C76 C 1.0005(3) 0.6435(3) 0.5874(2)
C77 C 0.9904(3) 0.6126(3) 0.6471(2)
C78 C 0.9289(4) 0.5245(4) 0.6230(3)
H73 H 0.8935 0.4852 0.5666
C79 C 0.9178(4) 0.4928(3) 0.6783(3)
H74 H 0.8755 0.4324 0.6588
C80 C 0.9675(3) 0.5478(3) 0.7632(2)
C81 C 1.0318(3) 0.6358(3) 0.7870(2)
H75 H 1.0682 0.6750 0.8432
C82 C 1.0436(3) 0.6669(3) 0.7306(2)
H76 H 1.0887 0.7262 0.7493
N5 N 0.9531(2) 0.5164(2) 0.81909(19)
C83 C 0.8688(4) 0.4321(3) 0.7937(3)
H77 H 0.8242 0.4191 0.7418
C84 C 0.8857(7) 0.3539(4) 0.7738(5)
H78 H 0.9153 0.3518 0.7349
H79 H 0.8271 0.2989 0.7499
H80 H 0.9253 0.3615 0.8239
C85 C 0.8237(4) 0.4402(5) 0.8554(4)
H81 H 0.8640 0.4504 0.9067
H82 H 0.7652 0.3857 0.8337
H83 H 0.8131 0.4895 0.8653
C86 C 1.0276(3) 0.5512(3) 0.8987(2)
H84 H 1.0063 0.5037 0.9151
C87 C 1.1175(4) 0.5637(4) 0.8936(4)
H85 H 1.1066 0.5103 0.8494
H86 H 1.1585 0.5754 0.9452
H87 H 1.1456 0.6135 0.8828
C88 C 1.0375(4) 0.6307(4) 0.9666(3)
H88 H 1.0717 0.6834 0.9615
H89 H 1.0705 0.6382 1.0195
H90 H 0.9768 0.6215 0.9625
C89 C 1.1828(3) 0.8207(2) 0.5726(2)
C90 C 1.2510(3) 0.8692(3) 0.6358(2)
C91 C 1.3330(2) 0.9312(2) 0.7084(2)
C92 C 1.4114(3) 0.9899(3) 0.7050(2)
H91 H 1.4106 0.9859 0.6535
C93 C 1.4905(3) 1.0538(3) 0.7742(2)
H92 H 1.5423 1.0922 0.7690
C94 C 1.4953(2) 1.0627(2) 0.8523(2)
C95 C 1.4161(3) 1.0037(2) 0.8557(2)
H93 H 1.4164 1.0076 0.9070
C96 C 1.3370(3) 0.9392(2) 0.7852(2)
H94 H 1.2850 0.9003 0.7898
N6 N 1.5747(2) 1.12613(19) 0.92199(18)
C97 C 1.6413(3) 1.2101(3) 0.9263(3)
H95 H 1.6793 1.2507 0.9857
C98 C 1.5962(4) 1.2560(3) 0.8973(4)
H96 H 1.5638 1.2232 0.8379
H97 H 1.6432 1.3159 0.9130
H98 H 1.5526 1.2582 0.9224
C99 C 1.7094(3) 1.2023(4) 0.8883(4)
H99 H 1.7370 1.1734 0.9094
H100 H 1.7574 1.2611 0.9022
H101 H 1.6773 1.1674 0.8289
C100 C 1.5834(3) 1.1245(3) 1.0008(2)
H102 H 1.5447 1.0617 0.9874
C101 C 1.6813(3) 1.1549(4) 1.0536(3)
H103 H 1.7042 1.1216 1.0214
H104 H 1.6813 1.1447 1.1009
H105 H 1.7208 1.2177 1.0720
C102 C 1.5447(4) 1.1754(4) 1.0479(3)
H106 H 1.5852 1.2385 1.0684
H107 H 1.5404 1.1633 1.0938
H108 H 1.4837 1.1569 1.0116
C103 C 0.4313(5) 0.5081(4) 0.3151(4)
H109 H 0.4238 0.4502 0.2826
H110 H 0.4737 0.5511 0.3024
Cl1 Cl 0.32606(16) 0.50115(16) 0.28511(17)
Cl2 Cl 0.4829(3) 0.5426(3) 0.41806(16)
loop_
_geom_bond_atom_site_label_1
_geom_bond_atom_site_label_2
_geom_bond_site_symmetry_1
_geom_bond_site_symmetry_2
C1 C2 1_555 1_555
C2 C3 1_555 1_555
C3 C4 1_555 1_555
C4 C5 1_555 1_555
C5 C6 1_555 1_555
C6 C7 1_555 1_555
C7 C8 1_555 1_555
C8 C9 1_555 1_555
C9 C10 1_555 1_555
C10 C11 1_555 1_555
C11 C12 1_555 1_555
C12 C13 1_555 1_555
C13 C14 1_555 1_555
C14 C15 1_555 1_555
C15 C16 1_555 1_555
C16 C17 1_555 1_555
C17 C18 1_555 1_555
C18 C1 1_555 1_555
C19 C1 1_555 1_555
C20 C19 1_555 1_555
C21 C20 1_555 1_555
C22 C21 1_555 1_555
H1 C22 1_555 1_555
C23 C22 1_555 1_555
H2 C23 1_555 1_555
C24 C23 1_555 1_555
C25 C24 1_555 1_555
H3 C25 1_555 1_555
C26 C21 1_555 1_555
H4 C26 1_555 1_555
N1 C24 1_555 1_555
C27 N1 1_555 1_555
H5 C27 1_555 1_555
C28 C27 1_555 1_555
H6 C28 1_555 1_555
H7 C28 1_555 1_555
H8 C28 1_555 1_555
C29 C27 1_555 1_555
H9 C29 1_555 1_555
H10 C29 1_555 1_555
H11 C29 1_555 1_555
C30 N1 1_555 1_555
H12 C30 1_555 1_555
C31 C30 1_555 1_555
H13 C31 1_555 1_555
H14 C31 1_555 1_555
H15 C31 1_555 1_555
C32 C30 1_555 1_555
H16 C32 1_555 1_555
H17 C32 1_555 1_555
H18 C32 1_555 1_555
C33 C2 1_555 1_555
C34 C33 1_555 1_555
C35 C34 1_555 1_555
C36 C35 1_555 1_555
H19 C36 1_555 1_555
C37 C36 1_555 1_555
H20 C37 1_555 1_555
C38 C37 1_555 1_555
C39 C38 1_555 1_555
H21 C39 1_555 1_555
C40 C35 1_555 1_555
H22 C40 1_555 1_555
N2 C38 1_555 1_555
C41 N2 1_555 1_555
H23 C41 1_555 1_555
C42 C41 1_555 1_555
H24 C42 1_555 1_555
H25 C42 1_555 1_555
H26 C42 1_555 1_555
C43 C41 1_555 1_555
H27 C43 1_555 1_555
H28 C43 1_555 1_555
H29 C43 1_555 1_555
C44 N2 1_555 1_555
H30 C44 1_555 1_555
C45 C44 1_555 1_555
H31 C45 1_555 1_555
H32 C45 1_555 1_555
H33 C45 1_555 1_555
C46 C44 1_555 1_555
H34 C46 1_555 1_555
H35 C46 1_555 1_555
H36 C46 1_555 1_555
C47 C7 1_555 1_555
C48 C47 1_555 1_555
C49 C48 1_555 1_555
C50 C49 1_555 1_555
H37 C50 1_555 1_555
C51 C50 1_555 1_555
H38 C51 1_555 1_555
C52 C51 1_555 1_555
C53 C52 1_555 1_555
H39 C53 1_555 1_555
C54 C49 1_555 1_555
H40 C54 1_555 1_555
N3 C52 1_555 1_555
C55 N3 1_555 1_555
H41 C55 1_555 1_555
C56 C55 1_555 1_555
H42 C56 1_555 1_555
H43 C56 1_555 1_555
H44 C56 1_555 1_555
C57 C55 1_555 1_555
H45 C57 1_555 1_555
H46 C57 1_555 1_555
H47 C57 1_555 1_555
C58 N3 1_555 1_555
H48 C58 1_555 1_555
C59 C58 1_555 1_555
H49 C59 1_555 1_555
H50 C59 1_555 1_555
H51 C59 1_555 1_555
C60 C58 1_555 1_555
H52 C60 1_555 1_555
H53 C60 1_555 1_555
H54 C60 1_555 1_555
C61 C8 1_555 1_555
C62 C61 1_555 1_555
C63 C62 1_555 1_555
C64 C63 1_555 1_555
H55 C64 1_555 1_555
C65 C64 1_555 1_555
H56 C65 1_555 1_555
C66 C65 1_555 1_555
C67 C66 1_555 1_555
H57 C67 1_555 1_555
C68 C63 1_555 1_555
H58 C68 1_555 1_555
N4 C66 1_555 1_555
C69 N4 1_555 1_555
H59 C69 1_555 1_555
C70 C69 1_555 1_555
H60 C70 1_555 1_555
H61 C70 1_555 1_555
H62 C70 1_555 1_555
C71 C69 1_555 1_555
H63 C71 1_555 1_555
H64 C71 1_555 1_555
H65 C71 1_555 1_555
C72 N4 1_555 1_555
H66 C72 1_555 1_555
C73 C72 1_555 1_555
H67 C73 1_555 1_555
H68 C73 1_555 1_555
H69 C73 1_555 1_555
C74 C72 1_555 1_555
H70 C74 1_555 1_555
H71 C74 1_555 1_555
H72 C74 1_555 1_555
C75 C13 1_555 1_555
C76 C75 1_555 1_555
C77 C76 1_555 1_555
C78 C77 1_555 1_555
H73 C78 1_555 1_555
C79 C78 1_555 1_555
H74 C79 1_555 1_555
C80 C79 1_555 1_555
C81 C80 1_555 1_555
H75 C81 1_555 1_555
C82 C77 1_555 1_555
H76 C82 1_555 1_555
N5 C80 1_555 1_555
C83 N5 1_555 1_555
H77 C83 1_555 1_555
C84 C83 1_555 1_555
H78 C84 1_555 1_555
H79 C84 1_555 1_555
H80 C84 1_555 1_555
C85 C83 1_555 1_555
H81 C85 1_555 1_555
H82 C85 1_555 1_555
H83 C85 1_555 1_555
C86 N5 1_555 1_555
H84 C86 1_555 1_555
C87 C86 1_555 1_555
H85 C87 1_555 1_555
H86 C87 1_555 1_555
H87 C87 1_555 1_555
C88 C86 1_555 1_555
H88 C88 1_555 1_555
H89 C88 1_555 1_555
H90 C88 1_555 1_555
C89 C14 1_555 1_555
C90 C89 1_555 1_555
C91 C90 1_555 1_555
C92 C91 1_555 1_555
H91 C92 1_555 1_555
C93 C92 1_555 1_555
H92 C93 1_555 1_555
C94 C93 1_555 1_555
C95 C94 1_555 1_555
H93 C95 1_555 1_555
C96 C91 1_555 1_555
H94 C96 1_555 1_555
N6 C94 1_555 1_555
C97 N6 1_555 1_555
H95 C97 1_555 1_555
C98 C97 1_555 1_555
H96 C98 1_555 1_555
H97 C98 1_555 1_555
H98 C98 1_555 1_555
C99 C97 1_555 1_555
H99 C99 1_555 1_555
H100 C99 1_555 1_555
H101 C99 1_555 1_555
C100 N6 1_555 1_555
H102 C100 1_555 1_555
C101 C100 1_555 1_555
H103 C101 1_555 1_555
H104 C101 1_555 1_555
H105 C101 1_555 1_555
C102 C100 1_555 1_555
H106 C102 1_555 1_555
H107 C102 1_555 1_555
H108 C102 1_555 1_555
C103 H109 1_555 1_555
H110 C103 1_555 1_555
Cl1 C103 1_555 1_555
Cl2 C103 1_555 1_555
C25 C26 1_555 1_555
C39 C40 1_555 1_555
C53 C54 1_555 1_555
C67 C68 1_555 1_555
C81 C82 1_555 1_555
C95 C96 1_555 1_555

#END
