
#######################################################################
#
#                 Cambridge Crystallographic Data Centre
#                                CCDC 
#
#######################################################################
#
# If this CIF has been generated from an entry in the Cambridge 
# Structural Database, then it will include bibliographic, chemical, 
# crystal, experimental, refinement or atomic coordinate data resulting 
# from the CCDC's data processing and validation procedures.
#
#######################################################################

data_HEQGEP
_chemical_formula_moiety         'C46 H46 Br2 N4'
_chemical_name_systematic        
5,15-bis(2-Bromomethylphenyl)-2,7,11,17-tetraethyl-3,6,12,16-tetramethylporphyrin
_symmetry_cell_setting           triclinic
_symmetry_space_group_name_H-M   'P -1'
_symmetry_Int_Tables_number      2
_space_group_name_Hall           '-P 1'
loop_
_symmetry_equiv_pos_site_id
_symmetry_equiv_pos_as_xyz
1 x,y,z
2 -x,-y,-z
_cell_length_a                   7.8755(2)
_cell_length_b                   12.8111(2)
_cell_length_c                   19.8677(2)
_cell_angle_alpha                102.8840(10)
_cell_angle_beta                 94.3130(10)
_cell_angle_gamma                95.4840(10)
_cell_volume                     1935.47
_cell_formula_units_Z            2
loop_
_atom_site_label
_atom_site_type_symbol
_atom_site_fract_x
_atom_site_fract_y
_atom_site_fract_z
Br1 Br 0.1323(1) -0.0433(1) 0.4179(1)
Br2 Br -0.5602(1) -0.9523(1) 0.0994(1)
N1 N -0.0551(5) -0.3684(3) 0.2265(2)
N2 N -0.0188(5) -0.4980(3) 0.3161(2)
N3 N -0.3855(5) -0.6209(3) 0.2615(2)
N4 N -0.4191(5) -0.4957(3) 0.1688(2)
C1 C 0.1005(6) -0.3145(4) 0.2587(2)
C2 C 0.1960(6) -0.3496(4) 0.3099(2)
C3 C 0.1424(6) -0.4420(4) 0.3346(2)
C4 C 0.2400(6) -0.4920(4) 0.3817(3)
C5 C 0.1351(7) -0.5764(4) 0.3912(3)
C6 C -0.0289(7) -0.5786(4) 0.3505(2)
C7 C -0.1703(7) -0.6524(4) 0.3498(3)
C8 C -0.3311(7) -0.6712(4) 0.3117(3)
C9 C -0.4646(6) -0.7520(4) 0.3187(2)
C10 C -0.5992(6) -0.7515(4) 0.2699(2)
C11 C -0.5481(6) -0.6692(4) 0.2334(2)
C12 C -0.6357(6) -0.6407(4) 0.1777(2)
C13 C -0.5748(6) -0.5548(4) 0.1481(2)
C14 C -0.6637(6) -0.5138(4) 0.0932(2)
C15 C -0.5561(6) -0.4312(4) 0.0826(2)
C16 C -0.4021(6) -0.4194(4) 0.1306(2)
C17 C -0.2680(6) -0.3397(4) 0.1366(2)
C18 C -0.1145(6) -0.3128(4) 0.1802(2)
C19 C 0.0049(6) -0.2205(4) 0.1828(2)
C20 C 0.1397(6) -0.2207(4) 0.2305(2)
C21 C 0.4241(7) -0.4642(5) 0.4125(3)
C22 C 0.1720(7) -0.6554(5) 0.4345(3)
C23 C 0.1257(8) -0.6182(5) 0.5077(3)
C24 C -0.4512(7) -0.8245(5) 0.3674(3)
C25 C -0.3495(8) -0.9180(5) 0.3409(4)
C26 C -0.7656(6) -0.8240(4) 0.2607(3)
C27 C -0.8398(7) -0.5483(5) 0.0557(3)
C28 C -0.5847(7) -0.3602(4) 0.0330(3)
C29 C -0.6640(9) -0.2607(5) 0.0651(3)
C30 C -0.0223(7) -0.1363(4) 0.1426(3)
C31 C 0.2953(7) -0.1392(4) 0.2477(3)
C32 C 0.3596(6) -0.2840(4) 0.3444(2)
C33 C 0.5140(7) -0.3008(4) 0.3153(3)
C34 C 0.6675(7) -0.2429(5) 0.3486(3)
C35 C 0.6700(6) -0.1703(4) 0.4099(3)
C36 C 0.5186(6) -0.1515(4) 0.4392(3)
C37 C 0.3629(6) -0.2063(4) 0.4063(2)
C38 C 0.2008(7) -0.1778(5) 0.4382(3)
C39 C -0.7989(6) -0.7084(4) 0.1437(2)
C40 C -0.9569(7) -0.6824(5) 0.1660(3)
C41 C -1.1075(7) -0.7453(5) 0.1336(3)
C42 C -1.1014(8) -0.8306(5) 0.0792(3)
C43 C -0.9478(7) -0.8563(4) 0.0564(3)
C44 C -0.7929(6) -0.7967(4) 0.0892(2)
C45 C -0.6299(7) -0.8304(4) 0.0630(3)
C46 C -0.1349(8) -0.0545(5) 0.1793(4)
H1 H -0.1551 -0.6983 0.3808
H2 H -0.2823 -0.2943 0.1053
H3 H 0.4982 -0.4601 0.3755
H4 H 0.4568 -0.5199 0.4360
H5 H 0.4369 -0.3944 0.4460
H6 H 0.2954 -0.6649 0.4358
H7 H 0.1060 -0.7262 0.4128
H8 H 0.1515 -0.6715 0.5344
H9 H 0.0031 -0.6100 0.5067
H10 H 0.1924 -0.5487 0.5297
H11 H -0.5679 -0.8534 0.3745
H12 H -0.3951 -0.7822 0.4129
H13 H -0.3444 -0.9634 0.3745
H14 H -0.2330 -0.8898 0.3347
H15 H -0.4057 -0.9610 0.2963
H16 H -0.8600 -0.7800 0.2704
H17 H -0.7600 -0.8718 0.2928
H18 H -0.7851 -0.8673 0.2129
H19 H -0.8508 -0.6254 0.0336
H20 H -0.8578 -0.5072 0.0201
H21 H -0.9257 -0.5347 0.0888
H22 H -0.6607 -0.4018 -0.0081
H23 H -0.4736 -0.3384 0.0170
H24 H -0.6795 -0.2170 0.0309
H25 H -0.5884 -0.2185 0.1054
H26 H -0.7755 -0.2818 0.0800
H27 H -0.0779 -0.1713 0.0955
H28 H 0.0899 -0.0983 0.1376
H29 H 0.3070 -0.1051 0.2974
H30 H 0.2835 -0.0842 0.2209
H31 H 0.3973 -0.1750 0.2360
H32 H 0.5140 -0.3520 0.2725
H33 H 0.7713 -0.2543 0.3281
H34 H 0.7757 -0.1323 0.4327
H35 H 0.5211 -0.1007 0.4823
H36 H 0.2192 -0.1693 0.4891
H37 H 0.1076 -0.2372 0.4197
H38 H -0.9616 -0.6219 0.2032
H39 H -1.2147 -0.7287 0.1495
H40 H -1.2047 -0.8726 0.0569
H41 H -0.9456 -0.9152 0.0179
H42 H -0.5386 -0.7689 0.0772
H43 H -0.6448 -0.8514 0.0117
H44 H -0.1514 -0.0006 0.1521
H45 H -0.0789 -0.0188 0.2255
H46 H -0.2465 -0.0920 0.1838
loop_
_geom_bond_atom_site_label_1
_geom_bond_atom_site_label_2
_geom_bond_site_symmetry_1
_geom_bond_site_symmetry_2
Br1 C38 1_555 1_555
Br2 C45 1_555 1_555
N1 C1 1_555 1_555
N2 C3 1_555 1_555
N3 C8 1_555 1_555
N4 C13 1_555 1_555
C1 C2 1_555 1_555
C2 C3 1_555 1_555
C3 C4 1_555 1_555
C4 C5 1_555 1_555
C5 C6 1_555 1_555
C6 N2 1_555 1_555
C7 C6 1_555 1_555
C8 C7 1_555 1_555
C9 C8 1_555 1_555
C10 C9 1_555 1_555
C11 N3 1_555 1_555
C12 C11 1_555 1_555
C13 C12 1_555 1_555
C14 C13 1_555 1_555
C15 C14 1_555 1_555
C16 N4 1_555 1_555
C17 C16 1_555 1_555
C18 N1 1_555 1_555
C19 C18 1_555 1_555
C20 C1 1_555 1_555
C21 C4 1_555 1_555
C22 C5 1_555 1_555
C23 C22 1_555 1_555
C24 C9 1_555 1_555
C25 C24 1_555 1_555
C26 C10 1_555 1_555
C27 C14 1_555 1_555
C28 C15 1_555 1_555
C29 C28 1_555 1_555
C30 C19 1_555 1_555
C31 C20 1_555 1_555
C32 C2 1_555 1_555
C33 C32 1_555 1_555
C34 C33 1_555 1_555
C35 C34 1_555 1_555
C36 C35 1_555 1_555
C37 C32 1_555 1_555
C38 C37 1_555 1_555
C39 C12 1_555 1_555
C40 C39 1_555 1_555
C41 C40 1_555 1_555
C42 C41 1_555 1_555
C43 C42 1_555 1_555
C44 C39 1_555 1_555
C45 C44 1_555 1_555
C46 C30 1_555 1_555
H1 C7 1_555 1_555
H2 C17 1_555 1_555
H3 C21 1_555 1_555
H4 C21 1_555 1_555
H5 C21 1_555 1_555
H6 C22 1_555 1_555
H7 C22 1_555 1_555
H8 C23 1_555 1_555
H9 C23 1_555 1_555
H10 C23 1_555 1_555
H11 C24 1_555 1_555
H12 C24 1_555 1_555
H13 C25 1_555 1_555
H14 C25 1_555 1_555
H15 C25 1_555 1_555
H16 C26 1_555 1_555
H17 C26 1_555 1_555
H18 C26 1_555 1_555
H19 C27 1_555 1_555
H20 C27 1_555 1_555
H21 C27 1_555 1_555
H22 C28 1_555 1_555
H23 C28 1_555 1_555
H24 C29 1_555 1_555
H25 C29 1_555 1_555
H26 C29 1_555 1_555
H27 C30 1_555 1_555
H28 C30 1_555 1_555
H29 C31 1_555 1_555
H30 C31 1_555 1_555
H31 C31 1_555 1_555
H32 C33 1_555 1_555
H33 C34 1_555 1_555
H34 C35 1_555 1_555
H35 C36 1_555 1_555
H36 C38 1_555 1_555
H37 C38 1_555 1_555
H38 C40 1_555 1_555
H39 C41 1_555 1_555
H40 C42 1_555 1_555
H41 C43 1_555 1_555
H42 C45 1_555 1_555
H43 C45 1_555 1_555
H44 C46 1_555 1_555
H45 C46 1_555 1_555
H46 C46 1_555 1_555
C10 C11 1_555 1_555
C15 C16 1_555 1_555
C17 C18 1_555 1_555
C19 C20 1_555 1_555
C36 C37 1_555 1_555
C43 C44 1_555 1_555

#END
