
#######################################################################
#
#                 Cambridge Crystallographic Data Centre
#                                CCDC 
#
#######################################################################
#
# If this CIF has been generated from an entry in the Cambridge 
# Structural Database, then it will include bibliographic, chemical, 
# crystal, experimental, refinement or atomic coordinate data resulting 
# from the CCDC's data processing and validation procedures.
#
#######################################################################

data_HEQGEP01
_chemical_formula_moiety         'C46 H46 Br2 N4'
_chemical_name_systematic        
5,15-bis(2-Bromomethylphenyl)-2,7,11,17-tetraethyl-3,6,12,16-tetramethylporphyrin
_symmetry_cell_setting           triclinic
_symmetry_space_group_name_H-M   'P -1'
_symmetry_Int_Tables_number      2
_space_group_name_Hall           '-P 1'
loop_
_symmetry_equiv_pos_site_id
_symmetry_equiv_pos_as_xyz
1 x,y,z
2 -x,-y,-z
_cell_length_a                   7.8755(2)
_cell_length_b                   12.8111(2)
_cell_length_c                   19.8677(2)
_cell_angle_alpha                102.8840(10)
_cell_angle_beta                 94.3130(10)
_cell_angle_gamma                95.4840(10)
_cell_volume                     1935.47
_exptl_crystal_colour            'dark purple'
_exptl_crystal_description       block
_cell_formula_units_Z            2
loop_
_atom_site_label
_atom_site_type_symbol
_atom_site_fract_x
_atom_site_fract_y
_atom_site_fract_z
Br1 Br 0.13232(10) -0.04323(7) 0.41780(5)
Br2 Br -0.56003(11) -0.95227(6) 0.09939(4)
N1 N -0.0556(6) -0.3685(4) 0.2267(2)
N2 N -0.0186(6) -0.4982(4) 0.3159(2)
N3 N -0.3860(7) -0.6209(4) 0.2616(3)
N4 N -0.4189(6) -0.4958(4) 0.1688(2)
C1 C 0.1003(8) -0.3143(5) 0.2587(3)
C2 C 0.1965(8) -0.3497(5) 0.3101(3)
C3 C 0.1419(8) -0.4418(5) 0.3343(3)
C4 C 0.2399(8) -0.4923(5) 0.3818(3)
C5 C 0.1359(9) -0.5763(5) 0.3908(3)
C6 C -0.0278(8) -0.5789(5) 0.3500(3)
C7 C -0.1700(9) -0.6526(5) 0.3494(3)
H1 H -0.1548(9) -0.6987(5) 0.3803(3)
C8 C -0.3308(8) -0.6710(5) 0.3116(3)
C9 C -0.4646(8) -0.7520(5) 0.3184(3)
C10 C -0.5992(8) -0.7517(5) 0.2700(3)
C11 C -0.5481(8) -0.6693(5) 0.2333(3)
C12 C -0.6363(8) -0.6409(5) 0.1774(3)
C13 C -0.5749(8) -0.5553(5) 0.1479(3)
C14 C -0.6630(8) -0.5137(5) 0.0927(3)
C15 C -0.5565(8) -0.4314(5) 0.0824(3)
C16 C -0.4021(8) -0.4197(5) 0.1303(3)
C17 C -0.2690(8) -0.3396(5) 0.1370(3)
H2 H -0.2843(8) -0.2934(5) 0.1062(3)
C18 C -0.1149(8) -0.3127(5) 0.1802(3)
C19 C 0.0051(8) -0.2206(5) 0.1826(3)
C20 C 0.1392(8) -0.2205(5) 0.2308(3)
C21 C 0.4237(9) -0.4631(6) 0.4130(4)
H3 H 0.4730(9) -0.3988(6) 0.3991(4)
H4 H 0.4896(9) -0.5232(6) 0.3964(4)
H5 H 0.4278(9) -0.4482(6) 0.4637(4)
C22 C 0.1722(9) -0.6549(5) 0.4349(4)
H6 H 0.2956(9) -0.6645(5) 0.4364(4)
H7 H 0.1062(9) -0.7257(5) 0.4134(4)
C23 C 0.1257(10) -0.6172(7) 0.5080(4)
H8 H 0.1512(10) -0.6704(7) 0.5348(4)
H9 H 0.0031(10) -0.6089(7) 0.5069(4)
H10 H 0.1925(10) -0.5477(7) 0.5298(4)
C24 C -0.4511(9) -0.8246(6) 0.3668(3)
H11 H -0.5680(9) -0.8531(6) 0.3740(3)
H12 H -0.3951(9) -0.7822(6) 0.4122(3)
C25 C -0.3510(10) -0.9183(6) 0.3414(5)
H13 H -0.3468(10) -0.9628(6) 0.3755(5)
H14 H -0.2341(10) -0.8908(6) 0.3352(5)
H15 H -0.4072(10) -0.9618(6) 0.2970(5)
C26 C -0.7663(9) -0.8236(5) 0.2603(3)
H16 H -0.8416(9) -0.8087(5) 0.2229(3)
H17 H -0.8216(9) -0.8097(5) 0.3035(3)
H18 H -0.7443(9) -0.8992(5) 0.2484(3)
C27 C -0.8397(9) -0.5483(6) 0.0557(4)
H19 H -0.8930(9) -0.6096(6) 0.0716(4)
H20 H -0.8320(9) -0.5695(6) 0.0056(4)
H21 H -0.9094(9) -0.4883(6) 0.0659(4)
C28 C -0.5850(9) -0.3599(5) 0.0332(3)
H22 H -0.6604(9) -0.4015(5) -0.0081(3)
H23 H -0.4737(9) -0.3378(5) 0.0174(3)
C29 C -0.6648(12) -0.2606(6) 0.0649(4)
H24 H -0.6803(12) -0.2171(6) 0.0306(4)
H25 H -0.5896(12) -0.2181(6) 0.1052(4)
H26 H -0.7764(12) -0.2818(6) 0.0797(4)
C30 C -0.0237(9) -0.1363(5) 0.1426(4)
H27 H -0.0801(9) -0.1716(5) 0.0957(4)
H28 H 0.0883(9) -0.0987(5) 0.1371(4)
C31 C 0.2965(9) -0.1395(5) 0.2478(3)
H29 H 0.3730(9) -0.1571(5) 0.2839(3)
H30 H 0.2629(9) -0.0673(5) 0.2645(3)
H31 H 0.3561(9) -0.1415(5) 0.2060(3)
C32 C 0.3605(8) -0.2838(5) 0.3444(3)
C33 C 0.5141(9) -0.3008(5) 0.3154(4)
H32 H 0.5141(9) -0.3526(5) 0.2729(4)
C34 C 0.6675(9) -0.2425(6) 0.3483(4)
H33 H 0.7711(9) -0.2529(6) 0.3274(4)
C35 C 0.6698(8) -0.1708(6) 0.4101(4)
H34 H 0.7756(8) -0.1335(6) 0.4334(4)
C36 C 0.5188(8) -0.1519(5) 0.4391(3)
H35 H 0.5214(8) -0.1009(5) 0.4821(3)
C37 C 0.3628(8) -0.2064(5) 0.4064(3)
C38 C 0.1998(9) -0.1776(6) 0.4377(3)
H36 H 0.2169(9) -0.1695(6) 0.4885(3)
H37 H 0.1066(9) -0.2368(6) 0.4187(3)
C39 C -0.7992(8) -0.7080(5) 0.1441(3)
C40 C -0.9566(9) -0.6832(6) 0.1661(4)
H38 H -0.9618(9) -0.6232(6) 0.2036(4)
C41 C -1.1075(9) -0.7458(6) 0.1333(4)
H39 H -1.2147(9) -0.7290(6) 0.1493(4)
C42 C -1.1022(10) -0.8305(6) 0.0791(4)
H40 H -1.2057(10) -0.8721(6) 0.0567(4)
C43 C -0.9474(9) -0.8565(5) 0.0562(3)
H41 H -0.9451(9) -0.9155(5) 0.0177(3)
C44 C -0.7935(8) -0.7970(5) 0.0889(3)
C45 C -0.6301(8) -0.8304(5) 0.0632(3)
H42 H -0.5390(8) -0.7688(5) 0.0776(3)
H43 H -0.6443(8) -0.8513(5) 0.0118(3)
C46 C -0.1343(10) -0.0545(6) 0.1787(5)
H44 H -0.1503(10) -0.0009(6) 0.1512(5)
H45 H -0.0778(10) -0.0184(6) 0.2248(5)
H46 H -0.2461(10) -0.0913(6) 0.1835(5)
loop_
_geom_bond_atom_site_label_1
_geom_bond_atom_site_label_2
_geom_bond_site_symmetry_1
_geom_bond_site_symmetry_2
Br1 C38 1_555 1_555
Br2 C45 1_555 1_555
N1 C1 1_555 1_555
N2 C3 1_555 1_555
N3 C8 1_555 1_555
N4 C13 1_555 1_555
C1 C2 1_555 1_555
C2 C3 1_555 1_555
C3 C4 1_555 1_555
C4 C5 1_555 1_555
C5 C6 1_555 1_555
C6 N2 1_555 1_555
C7 C6 1_555 1_555
H1 C7 1_555 1_555
C8 C7 1_555 1_555
C9 C8 1_555 1_555
C10 C9 1_555 1_555
C11 N3 1_555 1_555
C12 C11 1_555 1_555
C13 C12 1_555 1_555
C14 C13 1_555 1_555
C15 C14 1_555 1_555
C16 N4 1_555 1_555
C17 C16 1_555 1_555
H2 C17 1_555 1_555
C18 N1 1_555 1_555
C19 C18 1_555 1_555
C20 C1 1_555 1_555
C21 C4 1_555 1_555
H3 C21 1_555 1_555
H4 C21 1_555 1_555
H5 C21 1_555 1_555
C22 C5 1_555 1_555
H6 C22 1_555 1_555
H7 C22 1_555 1_555
C23 C22 1_555 1_555
H8 C23 1_555 1_555
H9 C23 1_555 1_555
H10 C23 1_555 1_555
C24 C9 1_555 1_555
H11 C24 1_555 1_555
H12 C24 1_555 1_555
C25 C24 1_555 1_555
H13 C25 1_555 1_555
H14 C25 1_555 1_555
H15 C25 1_555 1_555
C26 C10 1_555 1_555
H16 C26 1_555 1_555
H17 C26 1_555 1_555
H18 C26 1_555 1_555
C27 C14 1_555 1_555
H19 C27 1_555 1_555
H20 C27 1_555 1_555
H21 C27 1_555 1_555
C28 C15 1_555 1_555
H22 C28 1_555 1_555
H23 C28 1_555 1_555
C29 C28 1_555 1_555
H24 C29 1_555 1_555
H25 C29 1_555 1_555
H26 C29 1_555 1_555
C30 C19 1_555 1_555
H27 C30 1_555 1_555
H28 C30 1_555 1_555
C31 C20 1_555 1_555
H29 C31 1_555 1_555
H30 C31 1_555 1_555
H31 C31 1_555 1_555
C32 C2 1_555 1_555
C33 C32 1_555 1_555
H32 C33 1_555 1_555
C34 C33 1_555 1_555
H33 C34 1_555 1_555
C35 C34 1_555 1_555
H34 C35 1_555 1_555
C36 C35 1_555 1_555
H35 C36 1_555 1_555
C37 C32 1_555 1_555
C38 C37 1_555 1_555
H36 C38 1_555 1_555
H37 C38 1_555 1_555
C39 C12 1_555 1_555
C40 C39 1_555 1_555
H38 C40 1_555 1_555
C41 C40 1_555 1_555
H39 C41 1_555 1_555
C42 C41 1_555 1_555
H40 C42 1_555 1_555
C43 C42 1_555 1_555
H41 C43 1_555 1_555
C44 C39 1_555 1_555
C45 C44 1_555 1_555
H42 C45 1_555 1_555
H43 C45 1_555 1_555
C46 C30 1_555 1_555
H44 C46 1_555 1_555
H45 C46 1_555 1_555
H46 C46 1_555 1_555
C10 C11 1_555 1_555
C15 C16 1_555 1_555
C17 C18 1_555 1_555
C19 C20 1_555 1_555
C36 C37 1_555 1_555
C43 C44 1_555 1_555

#END
