
#######################################################################
#
#                 Cambridge Crystallographic Data Centre
#                                CCDC 
#
#######################################################################
#
# If this CIF has been generated from an entry in the Cambridge 
# Structural Database, then it will include bibliographic, chemical, 
# crystal, experimental, refinement or atomic coordinate data resulting 
# from the CCDC's data processing and validation procedures.
#
#######################################################################

data_HEQSOO
_chemical_formula_moiety         'C13 H15 B1 Cl1 N1 O5'
_chemical_name_systematic        
(1-chloro-2-hydroxy-2-phenylethyl)[2,2'-(methylazanediyl)bis(acetato)]boron
_symmetry_cell_setting           monoclinic
_symmetry_space_group_name_H-M   'P 21/c'
_symmetry_Int_Tables_number      14
_space_group_name_Hall           '-P 2ybc'
loop_
_symmetry_equiv_pos_site_id
_symmetry_equiv_pos_as_xyz
1 x,y,z
2 -x,1/2+y,1/2-z
3 -x,-y,-z
4 x,1/2-y,1/2+z
_cell_length_a                   13.9835(4)
_cell_length_b                   8.6411(2)
_cell_length_c                   11.4467(3)
_cell_angle_alpha                90
_cell_angle_beta                 90.305(3)
_cell_angle_gamma                90
_cell_volume                     1383.12
_exptl_crystal_colour            colorless
_exptl_crystal_description       needle
_cell_formula_units_Z            4
loop_
_atom_site_label
_atom_site_type_symbol
_atom_site_fract_x
_atom_site_fract_y
_atom_site_fract_z
Cl1 Cl 0.83193(3) 0.17835(5) 0.54632(3)
O1 O 0.58381(9) 0.17813(12) 0.73617(10)
O2 O 0.61064(8) 0.10815(13) 0.53080(9)
O3 O 0.60924(9) -0.06425(14) 0.38402(10)
O4 O 0.68567(9) 0.44952(14) 0.52906(10)
H1 H 0.62569(9) 0.450(3) 0.5328(5)
O5 O 0.48720(9) 0.07578(14) 0.87118(10)
C1 C 0.74493(12) 0.23866(19) 0.65444(14)
H2 H 0.77503(12) 0.22354(19) 0.73305(14)
C2 C 0.54432(12) 0.06033(19) 0.79367(14)
N1 N 0.67164(10) -0.05382(15) 0.68418(12)
C3 C 0.81406(12) 0.50677(19) 0.66431(15)
C4 C 0.62860(12) -0.02886(19) 0.48348(14)
C5 C 0.95160(14) 0.6542(2) 0.60279(19)
H3 H 0.98805(14) 0.6993(2) 0.54184(19)
C6 C 0.72467(12) 0.41284(19) 0.64080(14)
H4 H 0.67625(12) 0.44220(19) 0.70084(14)
C7 C 0.57994(13) -0.09197(19) 0.74581(14)
H5 H 0.59156(13) -0.16678(19) 0.80983(14)
H6 H 0.53279(13) -0.13692(19) 0.69062(14)
C8 C 0.84597(13) 0.52161(19) 0.77938(15)
H7 H 0.80979(13) 0.47657(19) 0.84061(15)
C9 C 0.67855(13) -0.1356(2) 0.56968(14)
H8 H 0.74621(13) -0.1515(2) 0.54765(14)
H9 H 0.64620(13) -0.2374(2) 0.57296(14)
C10 C 0.86804(14) 0.5743(2) 0.57588(16)
H10 H 0.84765(14) 0.5656(2) 0.49685(16)
C11 C 0.75470(13) -0.0842(2) 0.76321(15)
H11 H 0.7469(5) -0.0254(12) 0.8358(5)
H12 H 0.7578(6) -0.1950(3) 0.7812(10)
H13 H 0.81387(16) -0.0522(15) 0.7246(5)
C12 C 0.92946(14) 0.6008(2) 0.80618(17)
H14 H 0.95052(14) 0.6086(2) 0.88500(17)
B1 B 0.65308(13) 0.1281(2) 0.64826(16)
C13 C 0.98222(15) 0.6687(2) 0.7175(2)
H15 H 1.03892(15) 0.7246(2) 0.7353(2)
loop_
_geom_bond_atom_site_label_1
_geom_bond_atom_site_label_2
_geom_bond_site_symmetry_1
_geom_bond_site_symmetry_2
Cl1 C1 1_555 1_555
O1 C2 1_555 1_555
O2 C4 1_555 1_555
O3 C4 1_555 1_555
O4 H1 1_555 1_555
O5 C2 1_555 1_555
C1 H2 1_555 1_555
C2 C7 1_555 1_555
N1 C7 1_555 1_555
C3 C6 1_555 1_555
C4 C9 1_555 1_555
C5 H3 1_555 1_555
C6 O4 1_555 1_555
H4 C6 1_555 1_555
C7 H5 1_555 1_555
H6 C7 1_555 1_555
C8 C3 1_555 1_555
H7 C8 1_555 1_555
C9 N1 1_555 1_555
H8 C9 1_555 1_555
H9 C9 1_555 1_555
C10 C3 1_555 1_555
H10 C10 1_555 1_555
C11 N1 1_555 1_555
H11 C11 1_555 1_555
H12 C11 1_555 1_555
H13 C11 1_555 1_555
C12 C8 1_555 1_555
H14 C12 1_555 1_555
B1 O1 1_555 1_555
C13 C5 1_555 1_555
H15 C13 1_555 1_555
O2 B1 1_555 1_555
C1 C6 1_555 1_555
C1 B1 1_555 1_555
N1 B1 1_555 1_555
C5 C10 1_555 1_555
C12 C13 1_555 1_555

#END
