
#######################################################################
#
#                 Cambridge Crystallographic Data Centre
#                                CCDC 
#
#######################################################################
#
# If this CIF has been generated from an entry in the Cambridge 
# Structural Database, then it will include bibliographic, chemical, 
# crystal, experimental, refinement or atomic coordinate data resulting 
# from the CCDC's data processing and validation procedures.
#
#######################################################################

data_HEQYUZ
_chemical_formula_moiety         'C13 H11 N5 O3'
_chemical_name_systematic        
N-Methyl-N'-(3-nitrobenzylidene)pyrazine-2-carbohydrazide
_symmetry_cell_setting           monoclinic
_symmetry_space_group_name_H-M   'P 21/n'
_symmetry_Int_Tables_number      14
_space_group_name_Hall           '-P 2yn'
loop_
_symmetry_equiv_pos_site_id
_symmetry_equiv_pos_as_xyz
1 x,y,z
2 1/2-x,1/2+y,1/2-z
3 -x,-y,-z
4 1/2+x,1/2-y,1/2+z
_cell_length_a                   11.769(3)
_cell_length_b                   7.4724(15)
_cell_length_c                   14.725(3)
_cell_angle_alpha                90
_cell_angle_beta                 103.684(7)
_cell_angle_gamma                90
_cell_volume                     1258.2
_exptl_crystal_colour            colorless
_exptl_crystal_description       plate
_cell_formula_units_Z            4
loop_
_atom_site_label
_atom_site_type_symbol
_atom_site_fract_x
_atom_site_fract_y
_atom_site_fract_z
O1 O 0.6850(3) 0.3436(6) 0.0955(3)
O2 O 0.7577(3) 0.6864(6) 0.6008(3)
O3 O 0.6608(3) 0.8280(6) 0.6848(3)
N1 N 0.5696(3) 0.5266(6) 0.2717(3)
N2 N 0.5695(3) 0.4457(6) 0.1871(3)
N3 N 0.6680(4) 0.7546(6) 0.6115(3)
N4 N 0.8769(4) 0.4822(6) 0.2320(3)
N5 N 0.8828(4) 0.3375(6) 0.4105(3)
C1 C 0.4732(4) 0.5852(7) 0.2863(4)
H1 H 0.4030 0.5764 0.2388
C2 C 0.6761(5) 0.3980(8) 0.1725(4)
C3 C 0.4717(4) 0.6659(7) 0.3769(4)
C4 C 0.5721(5) 0.6764(7) 0.4491(4)
H2 H 0.6453 0.6353 0.4405
C5 C 0.5627(4) 0.7479(7) 0.5332(3)
C6 C 0.4585(5) 0.8127(7) 0.5485(4)
H3 H 0.4553 0.8626 0.6072
C7 C 0.3604(5) 0.8032(7) 0.4773(4)
H4 H 0.2880 0.8470 0.4863
C8 C 0.3657(4) 0.7298(7) 0.3914(4)
H5 H 0.2969 0.7230 0.3424
C9 C 0.7822(4) 0.4124(8) 0.2529(4)
C10 C 0.7850(5) 0.3409(7) 0.3404(4)
H6 H 0.7150 0.2921 0.3515
C11 C 0.9774(4) 0.4105(8) 0.3885(4)
H7 H 1.0491 0.4130 0.4346
C12 C 0.9742(5) 0.4819(7) 0.3015(4)
H8 H 1.0435 0.5329 0.2903
C13 C 0.4608(4) 0.4224(8) 0.1134(4)
H9 H 0.4783 0.3569 0.0606
H10 H 0.4284 0.5401 0.0920
H11 H 0.4038 0.3549 0.1385
loop_
_geom_bond_atom_site_label_1
_geom_bond_atom_site_label_2
_geom_bond_site_symmetry_1
_geom_bond_site_symmetry_2
O1 C2 1_555 1_555
O2 N3 1_555 1_555
O3 N3 1_555 1_555
N1 N2 1_555 1_555
N2 C2 1_555 1_555
N3 C5 1_555 1_555
N4 C9 1_555 1_555
N5 C10 1_555 1_555
C1 N1 1_555 1_555
H1 C1 1_555 1_555
C2 C9 1_555 1_555
C3 C1 1_555 1_555
C4 C3 1_555 1_555
H2 C4 1_555 1_555
C5 C4 1_555 1_555
C6 C5 1_555 1_555
H3 C6 1_555 1_555
C7 C6 1_555 1_555
H4 C7 1_555 1_555
C8 C3 1_555 1_555
H5 C8 1_555 1_555
C9 C10 1_555 1_555
C10 H6 1_555 1_555
C11 N5 1_555 1_555
H7 C11 1_555 1_555
C12 N4 1_555 1_555
H8 C12 1_555 1_555
C13 N2 1_555 1_555
H9 C13 1_555 1_555
H10 C13 1_555 1_555
H11 C13 1_555 1_555
C7 C8 1_555 1_555
C11 C12 1_555 1_555

#END
