
#######################################################################
#
#                 Cambridge Crystallographic Data Centre
#                                CCDC 
#
#######################################################################
#
# If this CIF has been generated from an entry in the Cambridge 
# Structural Database, then it will include bibliographic, chemical, 
# crystal, experimental, refinement or atomic coordinate data resulting 
# from the CCDC's data processing and validation procedures.
#
#######################################################################

data_HERCIT
_chemical_formula_moiety         'C60 H34 N6,2(C3 H6 O1)'
_chemical_name_systematic        
'diphenylpyrrole-strapped tetrabenzopentaaza[9]helicene acetone solvate'
_symmetry_cell_setting           monoclinic
_symmetry_space_group_name_H-M   'P 21/n'
_symmetry_Int_Tables_number      14
_space_group_name_Hall           '-P 2yn'
loop_
_symmetry_equiv_pos_site_id
_symmetry_equiv_pos_as_xyz
1 x,y,z
2 1/2-x,1/2+y,1/2-z
3 -x,-y,-z
4 1/2+x,1/2-y,1/2+z
_cell_length_a                   16.180(4)
_cell_length_b                   17.070(4)
_cell_length_c                   18.799(4)
_cell_angle_alpha                90
_cell_angle_beta                 108.923(6)
_cell_angle_gamma                90
_cell_volume                     4911.54
_exptl_crystal_colour            yellow
_exptl_crystal_description       prism
_cell_formula_units_Z            4
_exptl_crystal_recrystallization_method 'Vapour deposition'
loop_
_atom_site_label
_atom_site_type_symbol
_atom_site_fract_x
_atom_site_fract_y
_atom_site_fract_z
C1 C 0.64736(13) 0.21607(13) 0.21977(12)
C2 C 0.59040(13) 0.26394(12) 0.16797(12)
H1 H 0.5637 0.2530 0.1160
C3 C 0.57852(13) 0.33245(12) 0.20589(12)
C4 C 0.63201(13) 0.32517(12) 0.28078(13)
C5 C 0.63473(13) 0.37791(12) 0.33991(13)
C6 C 0.68584(14) 0.36609(13) 0.41542(13)
H2 H 0.7214 0.3206 0.4289
C7 C 0.68500(14) 0.41913(14) 0.46963(14)
H3 H 0.7193 0.4100 0.5205
C8 C 0.63356(15) 0.48706(15) 0.45043(14)
H4 H 0.6334 0.5240 0.4882
C9 C 0.58332(15) 0.50015(14) 0.37684(14)
H5 H 0.5493 0.5465 0.3642
C10 C 0.58166(13) 0.44619(13) 0.32039(13)
C11 C 0.52969(13) 0.45500(12) 0.24288(13)
C12 C 0.52364(13) 0.40089(12) 0.18589(12)
C13 C 0.46151(13) 0.43158(12) 0.11798(13)
C14 C 0.44000(13) 0.50674(12) 0.13723(13)
C15 C 0.39557(13) 0.56592(12) 0.08447(14)
C16 C 0.37348(15) 0.64053(13) 0.10564(15)
H6 H 0.3853 0.6527 0.1573
C17 C 0.33505(16) 0.69523(14) 0.05172(15)
H7 H 0.3191 0.7448 0.0662
C18 C 0.31921(16) 0.67869(14) -0.02411(15)
H8 H 0.2933 0.7173 -0.0610
C19 C 0.34087(15) 0.60682(13) -0.04596(15)
H9 H 0.3307 0.5964 -0.0977
C20 C 0.37817(13) 0.54850(12) 0.00802(14)
C21 C 0.39652(13) 0.47072(12) -0.01110(13)
C22 C 0.42594(13) 0.40841(12) 0.03996(13)
C23 C 0.41628(13) 0.33821(12) -0.00591(12)
C24 C 0.39493(13) 0.36444(12) -0.08031(13)
C25 C 0.39358(13) 0.31852(13) -0.14388(13)
C26 C 0.37956(14) 0.34888(13) -0.21619(13)
H10 H 0.3671 0.4031 -0.2253
C27 C 0.38353(15) 0.30180(14) -0.27371(14)
H11 H 0.3735 0.3234 -0.3224
C28 C 0.40235(15) 0.22165(14) -0.26136(14)
H12 H 0.4061 0.1893 -0.3013
C29 C 0.41528(14) 0.19033(13) -0.19154(13)
H13 H 0.4277 0.1360 -0.1835
C30 C 0.41044(13) 0.23721(13) -0.13176(12)
C31 C 0.41646(13) 0.20816(12) -0.05938(13)
C32 C 0.41562(12) 0.25307(12) 0.00330(12)
C33 C 0.40545(12) 0.19734(12) 0.05821(12)
C34 C 0.40667(13) 0.12236(12) 0.02748(12)
C35 C 0.39970(13) 0.04948(12) 0.06279(12)
C36 C 0.40632(13) -0.02418(12) 0.03111(13)
H14 H 0.4163 -0.0269 -0.0159
C37 C 0.39852(14) -0.09198(13) 0.06753(13)
H15 H 0.4028 -0.1412 0.0454
C38 C 0.38443(14) -0.08911(13) 0.13665(14)
H16 H 0.3792 -0.1364 0.1615
C39 C 0.37800(14) -0.01816(13) 0.16932(13)
H17 H 0.3686 -0.0168 0.2166
C40 C 0.38523(13) 0.05244(12) 0.13299(13)
C41 C 0.38074(13) 0.12851(12) 0.16328(12)
C42 C 0.39112(13) 0.19967(12) 0.12926(12)
C43 C 0.38803(13) 0.25974(13) 0.18116(12)
H18 H 0.3916 0.3145 0.1737
C44 C 0.37904(13) 0.22433(12) 0.24394(13)
C45 C 0.38977(14) 0.25616(13) 0.31908(13)
C46 C 0.33082(15) 0.31130(14) 0.32885(14)
H19 H 0.2847 0.3289 0.2861
C47 C 0.33738(16) 0.34113(15) 0.39863(15)
H20 H 0.2968 0.3791 0.4039
C48 C 0.40401(17) 0.31495(16) 0.46092(15)
H21 H 0.4084 0.3338 0.5096
C49 C 0.46387(16) 0.26156(15) 0.45240(14)
H22 H 0.5095 0.2447 0.4957
C50 C 0.45994(15) 0.23138(14) 0.38249(13)
C51 C 0.52990(16) 0.17747(14) 0.37972(14)
C52 C 0.5889(2) 0.1376(2) 0.43726(17)
H23 H 0.5910 0.1380 0.4884
C53 C 0.6457(2) 0.0961(2) 0.40821(17)
H24 H 0.6929 0.0638 0.4362
C54 C 0.62143(15) 0.11016(13) 0.33316(14)
C55 C 0.65800(14) 0.08279(13) 0.27538(13)
C56 C 0.68420(15) 0.00457(13) 0.27654(14)
H25 H 0.6813 -0.0288 0.3161
C57 C 0.71413(14) -0.02486(13) 0.22118(14)
H26 H 0.7342 -0.0774 0.2241
C58 C 0.71500(14) 0.02184(13) 0.16133(14)
H27 H 0.7321 0.0006 0.1215
C59 C 0.69070(13) 0.09995(13) 0.15985(13)
H28 H 0.6913 0.1320 0.1187
C60 C 0.66551(13) 0.13201(12) 0.21748(12)
N1 N 0.67595(11) 0.25558(10) 0.28693(10)
H29 H 0.7164 0.2387 0.3278
N2 N 0.47772(11) 0.51836(10) 0.21267(11)
H30 H 0.4700 0.5596 0.2378
N3 N 0.38084(11) 0.44371(10) -0.08229(11)
H31 H 0.3642 0.4726 -0.1233
N4 N 0.41367(11) 0.13005(10) -0.04261(10)
H32 H 0.4160 0.0910 -0.0725
N5 N 0.37161(11) 0.14493(10) 0.23133(10)
H33 H 0.3624 0.1100 0.2624
N6 N 0.55055(11) 0.15917(10) 0.31718(11)
H34 H 0.5219 0.1767 0.2718
C61 C 0.14577(18) 0.05408(16) 0.15412(17)
H35 H 0.1341 0.0189 0.1910
H36 H 0.2083 0.0534 0.1606
H37 H 0.1126 0.0365 0.1032
C62 C 0.11866(15) 0.13553(15) 0.16574(14)
C63 C 0.15226(16) 0.20077(16) 0.13072(17)
H38 H 0.1256 0.2501 0.1387
H39 H 0.1376 0.1911 0.0766
H40 H 0.2159 0.2042 0.1537
O1 O 0.06945(12) 0.14805(11) 0.20129(12)
C64 C 0.26453(17) -0.06451(15) 0.38111(16)
H41 H 0.2157 -0.0710 0.3343
H42 H 0.2422 -0.0630 0.4237
H43 H 0.3051 -0.1086 0.3873
C65 C 0.31074(19) 0.00957(18) 0.37817(17)
C66 C 0.3479(2) 0.0567(2) 0.44938(19)
H44 H 0.3777 0.1031 0.4389
H45 H 0.3897 0.0246 0.4876
H46 H 0.3005 0.0731 0.4678
O2 O 0.31570(16) 0.03361(13) 0.31944(13)
loop_
_geom_bond_atom_site_label_1
_geom_bond_atom_site_label_2
_geom_bond_site_symmetry_1
_geom_bond_site_symmetry_2
C1 C2 1_555 1_555
C2 H1 1_555 1_555
C3 C2 1_555 1_555
C4 C3 1_555 1_555
C5 C4 1_555 1_555
C6 C5 1_555 1_555
H2 C6 1_555 1_555
C7 C6 1_555 1_555
H3 C7 1_555 1_555
C8 C7 1_555 1_555
H4 C8 1_555 1_555
C9 C8 1_555 1_555
H5 C9 1_555 1_555
C10 C5 1_555 1_555
C11 C10 1_555 1_555
C12 C3 1_555 1_555
C13 C12 1_555 1_555
C14 C13 1_555 1_555
C15 C14 1_555 1_555
C16 C15 1_555 1_555
H6 C16 1_555 1_555
C17 C16 1_555 1_555
H7 C17 1_555 1_555
C18 C17 1_555 1_555
H8 C18 1_555 1_555
C19 C18 1_555 1_555
H9 C19 1_555 1_555
C20 C15 1_555 1_555
C21 C20 1_555 1_555
C22 C13 1_555 1_555
C23 C22 1_555 1_555
C24 C23 1_555 1_555
C25 C24 1_555 1_555
C26 C25 1_555 1_555
H10 C26 1_555 1_555
C27 C26 1_555 1_555
H11 C27 1_555 1_555
C28 C27 1_555 1_555
H12 C28 1_555 1_555
C29 C28 1_555 1_555
H13 C29 1_555 1_555
C30 C25 1_555 1_555
C31 C30 1_555 1_555
C32 C23 1_555 1_555
C33 C32 1_555 1_555
C34 C33 1_555 1_555
C35 C34 1_555 1_555
C36 C35 1_555 1_555
H14 C36 1_555 1_555
C37 C36 1_555 1_555
H15 C37 1_555 1_555
C38 C37 1_555 1_555
H16 C38 1_555 1_555
C39 C38 1_555 1_555
H17 C39 1_555 1_555
C40 C35 1_555 1_555
C41 C40 1_555 1_555
C42 C33 1_555 1_555
C43 C42 1_555 1_555
H18 C43 1_555 1_555
C44 C43 1_555 1_555
C45 C44 1_555 1_555
C46 C45 1_555 1_555
H19 C46 1_555 1_555
C47 C46 1_555 1_555
H20 C47 1_555 1_555
C48 C47 1_555 1_555
H21 C48 1_555 1_555
C49 C48 1_555 1_555
H22 C49 1_555 1_555
C50 C45 1_555 1_555
C51 C50 1_555 1_555
C52 C51 1_555 1_555
H23 C52 1_555 1_555
C53 C52 1_555 1_555
H24 C53 1_555 1_555
C54 C53 1_555 1_555
C55 C54 1_555 1_555
C56 C55 1_555 1_555
H25 C56 1_555 1_555
C57 C56 1_555 1_555
H26 C57 1_555 1_555
C58 C57 1_555 1_555
H27 C58 1_555 1_555
C59 C58 1_555 1_555
H28 C59 1_555 1_555
C60 C1 1_555 1_555
N1 C1 1_555 1_555
H29 N1 1_555 1_555
N2 C11 1_555 1_555
H30 N2 1_555 1_555
N3 C21 1_555 1_555
H31 N3 1_555 1_555
N4 C31 1_555 1_555
H32 N4 1_555 1_555
N5 C41 1_555 1_555
H33 N5 1_555 1_555
N6 C51 1_555 1_555
H34 N6 1_555 1_555
C61 H35 1_555 1_555
H36 C61 1_555 1_555
H37 C61 1_555 1_555
C62 C61 1_555 1_555
C63 C62 1_555 1_555
H38 C63 1_555 1_555
H39 C63 1_555 1_555
H40 C63 1_555 1_555
O1 C62 1_555 1_555
C64 H41 1_555 1_555
H42 C64 1_555 1_555
H43 C64 1_555 1_555
C65 C64 1_555 1_555
C66 C65 1_555 1_555
H44 C66 1_555 1_555
H45 C66 1_555 1_555
H46 C66 1_555 1_555
O2 C65 1_555 1_555
C4 N1 1_555 1_555
C9 C10 1_555 1_555
C11 C12 1_555 1_555
C14 N2 1_555 1_555
C19 C20 1_555 1_555
C21 C22 1_555 1_555
C24 N3 1_555 1_555
C29 C30 1_555 1_555
C31 C32 1_555 1_555
C34 N4 1_555 1_555
C39 C40 1_555 1_555
C41 C42 1_555 1_555
C44 N5 1_555 1_555
C49 C50 1_555 1_555
C54 N6 1_555 1_555
C55 C60 1_555 1_555
C59 C60 1_555 1_555

#END
