
#######################################################################
#
#                 Cambridge Crystallographic Data Centre
#                                CCDC 
#
#######################################################################
#
# If this CIF has been generated from an entry in the Cambridge 
# Structural Database, then it will include bibliographic, chemical, 
# crystal, experimental, refinement or atomic coordinate data resulting 
# from the CCDC's data processing and validation procedures.
#
#######################################################################

data_HERCOZ
_chemical_formula_moiety         'C84 H74 O6 S6,C6 H14'
_chemical_name_systematic        
'1,2-phenylene-strapped pentabenzopentathia[9]/[5]helicene n-hexane solvate'
_symmetry_cell_setting           triclinic
_symmetry_space_group_name_H-M   'P -1'
_symmetry_Int_Tables_number      2
_space_group_name_Hall           '-P 1'
loop_
_symmetry_equiv_pos_site_id
_symmetry_equiv_pos_as_xyz
1 x,y,z
2 -x,-y,-z
_cell_length_a                   13.3658(19)
_cell_length_b                   16.823(4)
_cell_length_c                   16.848(2)
_cell_angle_alpha                80.218(16)
_cell_angle_beta                 86.995(11)
_cell_angle_gamma                79.530(15)
_cell_volume                     3670.18
_exptl_crystal_colour            yellow
_exptl_crystal_description       prism
_cell_formula_units_Z            2
_exptl_crystal_recrystallization_method 'Vapour deposition'
loop_
_atom_site_label
_atom_site_type_symbol
_atom_site_fract_x
_atom_site_fract_y
_atom_site_fract_z
C1 C 0.2828(3) -0.1353(2) 0.8035(2)
C2 C 0.1835(3) -0.1246(2) 0.8301(2)
H1 H 0.1571 -0.0875 0.8658
C3 C 0.1224(2) -0.1743(2) 0.7996(2)
C4 C 0.1795(3) -0.2222(2) 0.7476(2)
C5 C 0.1431(3) -0.2831(2) 0.7129(2)
C6 C 0.1981(3) -0.3241(2) 0.6538(2)
H2 H 0.2607 -0.3091 0.6331
C7 C 0.1627(3) -0.3851(2) 0.6257(2)
C8 C 0.0703(3) -0.4091(2) 0.6578(2)
C9 C 0.0152(3) -0.3701(2) 0.7153(2)
H3 H -0.0465 -0.3865 0.7364
C10 C 0.0499(3) -0.3054(2) 0.7433(2)
C11 C -0.0055(3) -0.2601(2) 0.8007(2)
C12 C 0.0206(2) -0.1902(2) 0.8219(2)
C13 C -0.0583(2) -0.1529(2) 0.87382(19)
C14 C -0.1264(3) -0.2050(2) 0.9032(2)
C15 C -0.1990(3) -0.1909(2) 0.9672(2)
C16 C -0.2644(3) -0.2460(2) 0.9989(2)
H4 H -0.2635 -0.2940 0.9760
C17 C -0.3299(3) -0.2309(2) 1.0629(2)
H5 H -0.3739 -0.2684 1.0835
C18 C -0.3318(3) -0.1607(2) 1.0975(2)
H6 H -0.3766 -0.1510 1.1419
C19 C -0.2691(3) -0.1057(2) 1.0677(2)
H7 H -0.2706 -0.0583 1.0917
C20 C -0.2024(3) -0.1191(2) 1.0013(2)
C21 C -0.1432(2) -0.0603(2) 0.9621(2)
C22 C -0.0808(2) -0.0715(2) 0.8947(2)
C23 C -0.0536(2) 0.0043(2) 0.8541(2)
C24 C -0.0765(2) 0.0661(2) 0.9014(2)
C25 C -0.0415(2) 0.1420(2) 0.8837(2)
C26 C -0.0643(3) 0.2044(2) 0.9325(2)
H8 H -0.1101 0.1981 0.9773
C27 C -0.0211(3) 0.2734(2) 0.9160(2)
C28 C 0.0494(3) 0.2825(2) 0.8497(2)
C29 C 0.0701(2) 0.2243(2) 0.8004(2)
H9 H 0.1159 0.2315 0.7557
C30 C 0.0242(2) 0.1536(2) 0.8152(2)
C31 C 0.0373(2) 0.0937(2) 0.7630(2)
C32 C -0.0095(2) 0.0248(2) 0.7754(2)
C33 C 0.0009(2) -0.0157(2) 0.7049(2)
C34 C -0.0643(2) -0.0651(2) 0.6774(2)
C35 C -0.1586(2) -0.0765(2) 0.7150(2)
H10 H -0.1794 -0.0535 0.7623
C36 C -0.2209(3) -0.1200(2) 0.6850(2)
H11 H -0.2837 -0.1273 0.7118
C37 C -0.1924(3) -0.1539(2) 0.6145(2)
H12 H -0.2348 -0.1854 0.5948
C38 C -0.1034(3) -0.1413(2) 0.5746(2)
H13 H -0.0852 -0.1637 0.5266
C39 C -0.0384(2) -0.0959(2) 0.6033(2)
C40 C 0.0538(2) -0.0803(2) 0.5625(2)
C41 C 0.1162(2) -0.0324(2) 0.5881(2)
C42 C 0.0783(2) 0.0087(2) 0.6541(2)
C43 C 0.2130(2) -0.0389(2) 0.5459(2)
C44 C 0.2150(2) -0.0800(2) 0.4810(2)
C45 C 0.3058(3) -0.1004(2) 0.4338(2)
C46 C 0.3042(3) -0.1266(2) 0.3588(2)
H14 H 0.2409 -0.1285 0.3366
C47 C 0.3935(3) -0.1496(2) 0.3175(2)
C48 C 0.4885(3) -0.1506(2) 0.3522(2)
C49 C 0.4912(3) -0.1233(2) 0.4239(2)
H15 H 0.5550 -0.1225 0.4458
C50 C 0.4006(3) -0.0963(2) 0.4659(2)
C51 C 0.3988(2) -0.0689(2) 0.5418(2)
C52 C 0.3086(3) -0.0347(2) 0.5783(2)
C53 C 0.3241(3) -0.0241(2) 0.6580(2)
H16 H 0.2716 0.0017 0.6901
C54 C 0.4187(3) -0.0532(2) 0.6849(2)
C55 C 0.4415(2) -0.0677(2) 0.7711(2)
C56 C 0.5268(3) -0.0449(2) 0.7997(2)
H17 H 0.5746 -0.0230 0.7624
C57 C 0.5428(3) -0.0539(2) 0.8815(2)
H18 H 0.6014 -0.0386 0.9001
C58 C 0.4733(3) -0.0850(2) 0.9361(2)
H19 H 0.4831 -0.0896 0.9923
C59 C 0.3890(3) -0.1095(2) 0.9091(2)
H20 H 0.3426 -0.1320 0.9474
C60 C 0.3709(2) -0.1019(2) 0.8270(2)
S1 S -0.11181(6) -0.28901(5) 0.85381(5)
S2 S -0.14905(6) 0.03661(5) 0.98657(5)
S3 S 0.11269(6) 0.09788(5) 0.67546(5)
S4 S 0.10442(6) -0.11977(5) 0.47653(5)
S5 S 0.49928(6) -0.08891(5) 0.60860(5)
S6 S 0.30392(6) -0.20599(5) 0.73683(5)
O1 O -0.03787(18) 0.33722(15) 0.95755(15)
O2 O 0.08996(18) 0.35207(15) 0.84111(15)
C61 C -0.1241(3) 0.3429(2) 1.0128(2)
H21 H -0.1150 0.2957 1.0574
H22 H -0.1874 0.3432 0.9846
C62 C -0.1296(3) 0.4224(2) 1.0451(2)
H23 H -0.0675 0.4186 1.0761
H24 H -0.1885 0.4282 1.0831
C63 C -0.1396(3) 0.4993(3) 0.9819(3)
H25 H -0.1322 0.5463 1.0080
H26 H -0.0836 0.4924 0.9414
C64 C -0.2393(5) 0.5183(4) 0.9398(5)
H27 H -0.2399 0.4792 0.9029
H28 H -0.2484 0.5740 0.9093
H29 H -0.2949 0.5139 0.9798
C65 C 0.1743(3) 0.3587(2) 0.7857(2)
H30 H 0.1505 0.3697 0.7295
H31 H 0.2243 0.3069 0.7931
C66 C 0.2226(3) 0.4282(3) 0.8022(2)
H32 H 0.2421 0.4180 0.8594
H33 H 0.1724 0.4798 0.7930
C67 C 0.3168(4) 0.4382(3) 0.7486(3)
H34 H 0.3606 0.3838 0.7499
H35 H 0.2950 0.4583 0.6924
C68 C 0.3785(5) 0.4960(4) 0.7726(4)
H36 H 0.3359 0.5501 0.7714
H37 H 0.4364 0.5003 0.7350
H38 H 0.4035 0.4752 0.8272
O3 O 0.40121(19) -0.17399(18) 0.24412(15)
O4 O 0.57080(18) -0.17796(17) 0.30631(15)
C69 C 0.3101(3) -0.1730(3) 0.2036(2)
H39 H 0.2716 -0.1164 0.1911
H40 H 0.2663 -0.2075 0.2374
C70 C 0.3430(3) -0.2068(3) 0.1267(3)
H41 H 0.2818 -0.2045 0.0952
H42 H 0.3865 -0.1712 0.0942
C71 C 0.4002(5) -0.2933(4) 0.1397(4)
H43 H 0.4293 -0.3067 0.0873
H44 H 0.4577 -0.2969 0.1757
C72 C 0.3426(7) -0.3505(6) 0.1723(6)
H45 H 0.3254 -0.3450 0.2286
H46 H 0.3812 -0.4055 0.1697
H47 H 0.2800 -0.3420 0.1419
C73 C 0.6697(3) -0.1915(2) 0.3416(2)
H48 H 0.6751 -0.1446 0.3685
H49 H 0.7226 -0.1941 0.2983
C74 C 0.6892(3) -0.2697(2) 0.4020(2)
H50 H 0.6865 -0.3170 0.3748
H51 H 0.6352 -0.2681 0.4446
C75 C 0.7930(3) -0.2811(3) 0.4405(2)
H52 H 0.8462 -0.2796 0.3974
H53 H 0.7942 -0.2348 0.4695
C76 C 0.8185(4) -0.3608(3) 0.4990(3)
H54 H 0.7686 -0.3613 0.5437
H55 H 0.8867 -0.3654 0.5199
H56 H 0.8166 -0.4070 0.4710
O5 O 0.2099(2) -0.42779(17) 0.56786(17)
O6 O 0.0438(2) -0.47258(17) 0.62759(17)
C77 C 0.3040(3) -0.4068(3) 0.5346(3)
H57 H 0.3562 -0.4198 0.5767
H58 H 0.2950 -0.3474 0.5133
C78 C 0.3368(4) -0.4550(4) 0.4686(4)
H59 H 0.2820 -0.4441 0.4288
H60 H 0.3477 -0.5141 0.4911
C79 C 0.4339(6) -0.4341(5) 0.4263(5)
H61 H 0.4889 -0.4482 0.4661
H62 H 0.4529 -0.4692 0.3845
C80 C 0.4298(8) -0.3507(6) 0.3892(6)
H63 H 0.3693 -0.3330 0.3559
H64 H 0.4909 -0.3457 0.3554
H65 H 0.4262 -0.3161 0.4310
C81 C -0.0398(3) -0.5077(2) 0.6661(3)
H66 H -0.1038 -0.4673 0.6590
H67 H -0.0280 -0.5251 0.7245
C82 C -0.0460(3) -0.5808(3) 0.6264(3)
H68 H -0.0678 -0.5612 0.5701
H69 H 0.0225 -0.6149 0.6248
C83 C -0.1191(3) -0.6330(3) 0.6695(3)
H70 H -0.1887 -0.6003 0.6680
H71 H -0.1000 -0.6504 0.7266
C84 C -0.1179(4) -0.7085(3) 0.6301(3)
H72 H -0.1365 -0.6913 0.5735
H73 H -0.1669 -0.7409 0.6583
H74 H -0.0496 -0.7419 0.6333
C85 C 0.4241(10) -0.3838(10) 0.9412(7)
H75 H 0.3973 -0.4097 0.9010
H76 H 0.3682 -0.3479 0.9644
H77 H 0.4564 -0.4261 0.9840
C86 C 0.5050(7) -0.3317(6) 0.8998(5)
H78 H 0.4758 -0.2725 0.8915
H79 H 0.5659 -0.3412 0.9335
C87 C 0.5328(4) -0.3611(4) 0.8188(3)
H80 H 0.4707 -0.3574 0.7879
H81 H 0.5684 -0.4187 0.8275
C88 C 0.6047(6) -0.3033(5) 0.7715(5)
H82 H 0.5662 -0.2473 0.7545
H83 H 0.6615 -0.3000 0.8056
C89 C 0.6450(8) -0.3431(8) 0.6979(7)
H84 H 0.6726 -0.4018 0.7155
H85 H 0.7008 -0.3164 0.6710
C90 C 0.5529(8) -0.3338(6) 0.6341(5)
H86 H 0.5023 -0.3667 0.6582
H87 H 0.5811 -0.3529 0.5845
H88 H 0.5204 -0.2761 0.6217
loop_
_geom_bond_atom_site_label_1
_geom_bond_atom_site_label_2
_geom_bond_site_symmetry_1
_geom_bond_site_symmetry_2
C1 C2 1_555 1_555
C2 H1 1_555 1_555
C3 C2 1_555 1_555
C4 C3 1_555 1_555
C5 C4 1_555 1_555
C6 C5 1_555 1_555
H2 C6 1_555 1_555
C7 C6 1_555 1_555
C8 C7 1_555 1_555
C9 C8 1_555 1_555
H3 C9 1_555 1_555
C10 C5 1_555 1_555
C11 C10 1_555 1_555
C12 C3 1_555 1_555
C13 C12 1_555 1_555
C14 C13 1_555 1_555
C15 C14 1_555 1_555
C16 C15 1_555 1_555
H4 C16 1_555 1_555
C17 C16 1_555 1_555
H5 C17 1_555 1_555
C18 C17 1_555 1_555
H6 C18 1_555 1_555
C19 C18 1_555 1_555
H7 C19 1_555 1_555
C20 C15 1_555 1_555
C21 C20 1_555 1_555
C22 C13 1_555 1_555
C23 C22 1_555 1_555
C24 C23 1_555 1_555
C25 C24 1_555 1_555
C26 C25 1_555 1_555
H8 C26 1_555 1_555
C27 C26 1_555 1_555
C28 C27 1_555 1_555
C29 C28 1_555 1_555
H9 C29 1_555 1_555
C30 C25 1_555 1_555
C31 C30 1_555 1_555
C32 C23 1_555 1_555
C33 C32 1_555 1_555
C34 C33 1_555 1_555
C35 C34 1_555 1_555
H10 C35 1_555 1_555
C36 C35 1_555 1_555
H11 C36 1_555 1_555
C37 C36 1_555 1_555
H12 C37 1_555 1_555
C38 C37 1_555 1_555
H13 C38 1_555 1_555
C39 C34 1_555 1_555
C40 C39 1_555 1_555
C41 C40 1_555 1_555
C42 C33 1_555 1_555
C43 C41 1_555 1_555
C44 C43 1_555 1_555
C45 C44 1_555 1_555
C46 C45 1_555 1_555
H14 C46 1_555 1_555
C47 C46 1_555 1_555
C48 C47 1_555 1_555
C49 C48 1_555 1_555
H15 C49 1_555 1_555
C50 C45 1_555 1_555
C51 C50 1_555 1_555
C52 C43 1_555 1_555
C53 C52 1_555 1_555
H16 C53 1_555 1_555
C54 C53 1_555 1_555
C55 C54 1_555 1_555
C56 C55 1_555 1_555
H17 C56 1_555 1_555
C57 C56 1_555 1_555
H18 C57 1_555 1_555
C58 C57 1_555 1_555
H19 C58 1_555 1_555
C59 C58 1_555 1_555
H20 C59 1_555 1_555
C60 C1 1_555 1_555
S1 C11 1_555 1_555
S2 C21 1_555 1_555
S3 C31 1_555 1_555
S4 C40 1_555 1_555
S5 C51 1_555 1_555
S6 C1 1_555 1_555
O1 C27 1_555 1_555
O2 C28 1_555 1_555
C61 O1 1_555 1_555
H21 C61 1_555 1_555
H22 C61 1_555 1_555
C62 C61 1_555 1_555
H23 C62 1_555 1_555
H24 C62 1_555 1_555
C63 C62 1_555 1_555
H25 C63 1_555 1_555
H26 C63 1_555 1_555
C64 C63 1_555 1_555
H27 C64 1_555 1_555
H28 C64 1_555 1_555
H29 C64 1_555 1_555
C65 O2 1_555 1_555
H30 C65 1_555 1_555
H31 C65 1_555 1_555
C66 C65 1_555 1_555
H32 C66 1_555 1_555
H33 C66 1_555 1_555
C67 C66 1_555 1_555
H34 C67 1_555 1_555
H35 C67 1_555 1_555
C68 C67 1_555 1_555
H36 C68 1_555 1_555
H37 C68 1_555 1_555
H38 C68 1_555 1_555
O3 C47 1_555 1_555
O4 C48 1_555 1_555
C69 O3 1_555 1_555
H39 C69 1_555 1_555
H40 C69 1_555 1_555
C70 C69 1_555 1_555
H41 C70 1_555 1_555
H42 C70 1_555 1_555
C71 C70 1_555 1_555
H43 C71 1_555 1_555
H44 C71 1_555 1_555
C72 C71 1_555 1_555
H45 C72 1_555 1_555
H46 C72 1_555 1_555
H47 C72 1_555 1_555
C73 O4 1_555 1_555
H48 C73 1_555 1_555
H49 C73 1_555 1_555
C74 C73 1_555 1_555
H50 C74 1_555 1_555
H51 C74 1_555 1_555
C75 C74 1_555 1_555
H52 C75 1_555 1_555
H53 C75 1_555 1_555
C76 C75 1_555 1_555
H54 C76 1_555 1_555
H55 C76 1_555 1_555
H56 C76 1_555 1_555
O5 C7 1_555 1_555
O6 C8 1_555 1_555
C77 O5 1_555 1_555
H57 C77 1_555 1_555
H58 C77 1_555 1_555
C78 C77 1_555 1_555
H59 C78 1_555 1_555
H60 C78 1_555 1_555
C79 C78 1_555 1_555
H61 C79 1_555 1_555
H62 C79 1_555 1_555
C80 C79 1_555 1_555
H63 C80 1_555 1_555
H64 C80 1_555 1_555
H65 C80 1_555 1_555
C81 O6 1_555 1_555
H66 C81 1_555 1_555
H67 C81 1_555 1_555
C82 C81 1_555 1_555
H68 C82 1_555 1_555
H69 C82 1_555 1_555
C83 C82 1_555 1_555
H70 C83 1_555 1_555
H71 C83 1_555 1_555
C84 C83 1_555 1_555
H72 C84 1_555 1_555
H73 C84 1_555 1_555
H74 C84 1_555 1_555
C85 H75 1_555 1_555
H76 C85 1_555 1_555
H77 C85 1_555 1_555
C86 C85 1_555 1_555
H78 C86 1_555 1_555
H79 C86 1_555 1_555
C87 C86 1_555 1_555
H80 C87 1_555 1_555
H81 C87 1_555 1_555
C88 C87 1_555 1_555
H82 C88 1_555 1_555
H83 C88 1_555 1_555
C89 C88 1_555 1_555
H84 C89 1_555 1_555
H85 C89 1_555 1_555
C90 C89 1_555 1_555
H86 C90 1_555 1_555
H87 C90 1_555 1_555
H88 C90 1_555 1_555
C4 S6 1_555 1_555
C9 C10 1_555 1_555
C11 C12 1_555 1_555
C14 S1 1_555 1_555
C19 C20 1_555 1_555
C21 C22 1_555 1_555
C24 S2 1_555 1_555
C29 C30 1_555 1_555
C31 C32 1_555 1_555
C38 C39 1_555 1_555
C41 C42 1_555 1_555
C42 S3 1_555 1_555
C44 S4 1_555 1_555
C49 C50 1_555 1_555
C51 C52 1_555 1_555
C54 S5 1_555 1_555
C55 C60 1_555 1_555
C59 C60 1_555 1_555

#END
