
#######################################################################
#
#                 Cambridge Crystallographic Data Centre
#                                CCDC 
#
#######################################################################
#
# If this CIF has been generated from an entry in the Cambridge 
# Structural Database, then it will include bibliographic, chemical, 
# crystal, experimental, refinement or atomic coordinate data resulting 
# from the CCDC's data processing and validation procedures.
#
#######################################################################

data_HERKOH
_chemical_formula_moiety         'C22 H17 N3'
_chemical_name_systematic        
3-benzyl-2-phenyl-3,4-dihydroimidazo[4,5-b]indole
_symmetry_cell_setting           monoclinic
_symmetry_space_group_name_H-M   'P 21/c'
_symmetry_Int_Tables_number      14
_space_group_name_Hall           '-P 2ybc'
loop_
_symmetry_equiv_pos_site_id
_symmetry_equiv_pos_as_xyz
1 x,y,z
2 -x,1/2+y,1/2-z
3 -x,-y,-z
4 x,1/2-y,1/2+z
_cell_length_a                   9.7462(8)
_cell_length_b                   18.1661(15)
_cell_length_c                   11.4587(8)
_cell_angle_alpha                90
_cell_angle_beta                 100.436(2)
_cell_angle_gamma                90
_cell_volume                     1995.21
_exptl_crystal_colour            brown
_exptl_crystal_description       parallelepiped
_cell_formula_units_Z            4
loop_
_atom_site_label
_atom_site_type_symbol
_atom_site_fract_x
_atom_site_fract_y
_atom_site_fract_z
N1 N 0.28002(17) 0.18912(9) 0.27660(13)
N2 N 0.35603(17) 0.17565(9) 0.10301(14)
N3 N 0.21459(19) 0.28565(9) 0.00966(14)
H1 H 0.242(3) 0.2945(13) -0.058(2)
C1 C 0.3579(2) 0.14919(11) 0.21775(16)
C2 C 0.2720(2) 0.23596(11) 0.09388(16)
C3 C 0.2257(2) 0.24435(11) 0.19877(15)
C4 C 0.1319(2) 0.30585(11) 0.18373(16)
C5 C 0.1282(2) 0.32935(10) 0.06516(16)
C6 C 0.0453(2) 0.38795(12) 0.0175(2)
H2 H 0.0431 0.4029 -0.0604
C7 C -0.0339(3) 0.42360(13) 0.0886(2)
H3 H -0.0907 0.4627 0.0579
C8 C -0.0300(3) 0.40180(14) 0.2051(2)
H4 H -0.0830 0.4273 0.2517
C9 C 0.0509(2) 0.34311(13) 0.2535(2)
H5 H 0.0514 0.3286 0.3314
C10 C 0.4335(2) 0.08220(12) 0.26429(18)
C11 C 0.3662(3) 0.03114(13) 0.3242(2)
H6 H 0.2750 0.0398 0.3340
C12 C 0.4331(3) -0.03240(16) 0.3696(3)
H7 H 0.3867 -0.0661 0.4097
C13 C 0.5672(4) -0.04600(17) 0.3560(3)
H8 H 0.6118 -0.0890 0.3864
C14 C 0.6356(3) 0.00336(19) 0.2977(3)
H9 H 0.7271 -0.0060 0.2890
C15 C 0.5699(3) 0.06743(16) 0.2513(3)
H10 H 0.6173 0.1007 0.2113
C16 C 0.4129(2) 0.14288(12) 0.00589(19)
H11 H 0.3403 0.1417 -0.0643
H12 H 0.4393 0.0924 0.0265
C17 C 0.5371(2) 0.18265(13) -0.02358(18)
C18 C 0.5881(4) 0.1618(3) -0.1207(4)
H13 H 0.5452 0.1232 -0.1667
C19 C 0.7003(5) 0.1955(5) -0.1536(5)
H14 H 0.7323 0.1796 -0.2210
C20 C 0.7669(5) 0.2533(3) -0.0875(5)
H15 H 0.8437 0.2765 -0.1089
C21 C 0.7170(6) 0.2743(3) 0.0077(7)
H16 H 0.7590 0.3135 0.0526
C22 C 0.6043(5) 0.2395(2) 0.0421(5)
H17 H 0.5738 0.2548 0.1105
C23? C 0.625(4) 0.138(3) -0.054(3)
H18? H 0.6065 0.0877 -0.0612
C24? C 0.758(5) 0.170(3) -0.080(4)
H19? H 0.8445 0.1471 -0.0696
C25? C 0.725(5) 0.237(2) -0.119(6)
H20? H 0.7398 0.2522 -0.1931
C26? C 0.670(3) 0.282(2) -0.050(2)
H21? H 0.7039 0.3283 -0.0248
C27? C 0.5597(18) 0.2499(13) -0.0241(19)
H22? H 0.4911 0.2805 -0.0039
loop_
_geom_bond_atom_site_label_1
_geom_bond_atom_site_label_2
_geom_bond_site_symmetry_1
_geom_bond_site_symmetry_2
N1 C1 1_555 1_555
N2 C1 1_555 1_555
N3 H1 1_555 1_555
C1 C10 1_555 1_555
C2 N2 1_555 1_555
C3 N1 1_555 1_555
C4 C3 1_555 1_555
C5 N3 1_555 1_555
C6 C5 1_555 1_555
H2 C6 1_555 1_555
C7 C6 1_555 1_555
H3 C7 1_555 1_555
C8 C7 1_555 1_555
H4 C8 1_555 1_555
C9 C4 1_555 1_555
H5 C9 1_555 1_555
C10 C11 1_555 1_555
C11 H6 1_555 1_555
C12 C11 1_555 1_555
H7 C12 1_555 1_555
C13 C12 1_555 1_555
H8 C13 1_555 1_555
C14 C13 1_555 1_555
H9 C14 1_555 1_555
C15 C10 1_555 1_555
H10 C15 1_555 1_555
C16 N2 1_555 1_555
H11 C16 1_555 1_555
H12 C16 1_555 1_555
C17 C16 1_555 1_555
C18 C17 1_555 1_555
H13 C18 1_555 1_555
C19 C18 1_555 1_555
H14 C19 1_555 1_555
C20 C19 1_555 1_555
H15 C20 1_555 1_555
C21 C20 1_555 1_555
H16 C21 1_555 1_555
C22 C17 1_555 1_555
H17 C22 1_555 1_555
N3 C2 1_555 1_555
C2 C3 1_555 1_555
C4 C5 1_555 1_555
C8 C9 1_555 1_555
C14 C15 1_555 1_555
C21 C22 1_555 1_555

#END
