
#######################################################################
#
#                 Cambridge Crystallographic Data Centre
#                                CCDC 
#
#######################################################################
#
# If this CIF has been generated from an entry in the Cambridge 
# Structural Database, then it will include bibliographic, chemical, 
# crystal, experimental, refinement or atomic coordinate data resulting 
# from the CCDC's data processing and validation procedures.
#
#######################################################################

data_HERKUN
_chemical_formula_moiety         'C22 H15 N3'
_chemical_name_systematic        2,3-diphenyl-5H-pyrazino[2,3-b]indole
_symmetry_cell_setting           orthorhombic
_symmetry_space_group_name_H-M   'P 21 21 21'
_symmetry_Int_Tables_number      19
_space_group_name_Hall           'P 2ac 2ab'
loop_
_symmetry_equiv_pos_site_id
_symmetry_equiv_pos_as_xyz
1 x,y,z
2 1/2-x,-y,1/2+z
3 -x,1/2+y,1/2-z
4 1/2+x,1/2-y,-z
_cell_length_a                   12.8222(6)
_cell_length_b                   14.0883(7)
_cell_length_c                   17.9136(9)
_cell_angle_alpha                90
_cell_angle_beta                 90
_cell_angle_gamma                90
_cell_volume                     3235.97
_exptl_crystal_colour            brown
_exptl_crystal_description       parallelepiped
_cell_formula_units_Z            8
loop_
_atom_site_label
_atom_site_type_symbol
_atom_site_fract_x
_atom_site_fract_y
_atom_site_fract_z
N1 N -0.07064(12) 0.73654(11) 0.88045(9)
H1 H -0.1285(19) 0.7664(17) 0.8644(13)
N2 N -0.10960(11) 0.57657(10) 0.84339(8)
N3 N 0.08791(11) 0.53412(10) 0.90804(8)
C1 C 0.01247(13) 0.77955(13) 0.91747(10)
C2 C 0.02359(15) 0.87446(13) 0.93788(11)
H2 H -0.0289 0.9199 0.9268
C3 C 0.11386(16) 0.89987(13) 0.97482(11)
H3 H 0.1234 0.9641 0.9894
C4 C 0.19200(15) 0.83325(14) 0.99143(10)
H4 H 0.2535 0.8533 1.0165
C5 C 0.18052(14) 0.73890(13) 0.97180(10)
H5 H 0.2331 0.6938 0.9837
C6 C 0.08991(13) 0.71119(12) 0.93412(9)
C7 C 0.05008(13) 0.62193(12) 0.90634(9)
C8 C -0.04869(13) 0.64173(12) 0.87411(9)
C9 C -0.07123(13) 0.48694(12) 0.84537(9)
C10 C 0.02706(13) 0.46614(12) 0.87737(9)
C11 C -0.14212(13) 0.41467(12) 0.81228(10)
C12 C -0.17995(15) 0.42870(14) 0.74009(11)
H6 H -0.1578 0.4824 0.7122
C13 C -0.24993(16) 0.36462(16) 0.70864(11)
H7 H -0.2747 0.3740 0.6592
C14 C -0.28338(15) 0.28696(14) 0.74990(12)
H8 H -0.3316 0.2433 0.7288
C15 C -0.24656(15) 0.27295(13) 0.82190(12)
H9 H -0.2702 0.2201 0.8502
C16 C -0.17537(14) 0.33593(13) 0.85268(11)
H10 H -0.1492 0.3253 0.9016
C17 C 0.06989(13) 0.36780(12) 0.88002(10)
C18 C 0.07510(14) 0.31064(12) 0.81670(10)
H11 H 0.0488 0.3335 0.7705
C19 C 0.11853(14) 0.22032(13) 0.82076(11)
H12 H 0.1235 0.1823 0.7771
C20 C 0.15459(15) 0.18583(14) 0.88838(12)
H13 H 0.1834 0.1238 0.8911
C21 C 0.14878(16) 0.24156(14) 0.95216(12)
H14 H 0.1728 0.2175 0.9986
C22 C 0.10765(14) 0.33280(13) 0.94780(11)
H15 H 0.1052 0.3715 0.9912
N4 N 0.66368(12) 0.62383(11) 0.82416(9)
H16 H 0.728(2) 0.5992(18) 0.8200(14)
N5 N 0.71040(12) 0.78847(11) 0.83923(8)
N6 N 0.49362(11) 0.81240(10) 0.86994(8)
C23 C 0.57208(14) 0.57208(13) 0.83479(10)
C24 C 0.55711(16) 0.47440(13) 0.82993(11)
H17 H 0.6131 0.4327 0.8185
C25 C 0.45724(17) 0.44040(14) 0.84246(12)
H18 H 0.4448 0.3741 0.8388
C26 C 0.37387(15) 0.50073(14) 0.86035(11)
H19 H 0.3064 0.4749 0.8686
C27 C 0.38950(14) 0.59792(13) 0.86609(10)
H20 H 0.3335 0.6391 0.8786
C28 C 0.48971(14) 0.63412(13) 0.85307(9)
C29 C 0.53482(13) 0.72786(13) 0.85496(10)
C30 C 0.64231(13) 0.71741(13) 0.83774(9)
C31 C 0.66880(13) 0.87409(13) 0.85652(9)
C32 C 0.56044(13) 0.88633(12) 0.86914(10)
C33 C 0.74599(13) 0.95203(12) 0.86636(10)
C34 C 0.81246(15) 0.97759(14) 0.80786(11)
H21 H 0.8075 0.9459 0.7612
C35 C 0.88569(15) 1.04909(14) 0.81766(12)
H22 H 0.9298 1.0669 0.7775
C36 C 0.89449(15) 1.09454(13) 0.88613(12)
H23 H 0.9452 1.1429 0.8930
C37 C 0.82911(15) 1.06912(13) 0.94445(11)
H24 H 0.8352 1.1002 0.9913
C38 C 0.75463(14) 0.99848(13) 0.93475(11)
H25 H 0.7096 0.9819 0.9748
C39 C 0.51207(13) 0.98067(12) 0.88275(10)
C40 C 0.54048(14) 1.06134(13) 0.84235(11)
H26 H 0.5938 1.0571 0.8057
C41 C 0.49142(15) 1.14770(14) 0.85525(12)
H27 H 0.5112 1.2021 0.8273
C42 C 0.41356(16) 1.15466(14) 0.90880(13)
H28 H 0.3809 1.2140 0.9182
C43 C 0.38359(15) 1.07472(14) 0.94855(11)
H29 H 0.3296 1.0791 0.9847
C44 C 0.43243(14) 0.98831(13) 0.93566(10)
H30 H 0.4115 0.9338 0.9631
loop_
_geom_bond_atom_site_label_1
_geom_bond_atom_site_label_2
_geom_bond_site_symmetry_1
_geom_bond_site_symmetry_2
N1 H1 1_555 1_555
N2 C8 1_555 1_555
N3 C7 1_555 1_555
C1 N1 1_555 1_555
C2 C1 1_555 1_555
H2 C2 1_555 1_555
C3 C2 1_555 1_555
H3 C3 1_555 1_555
C4 C3 1_555 1_555
H4 C4 1_555 1_555
C5 C4 1_555 1_555
H5 C5 1_555 1_555
C6 C1 1_555 1_555
C7 C6 1_555 1_555
C8 N1 1_555 1_555
C9 N2 1_555 1_555
C10 N3 1_555 1_555
C11 C9 1_555 1_555
C12 C11 1_555 1_555
H6 C12 1_555 1_555
C13 C12 1_555 1_555
H7 C13 1_555 1_555
C14 C13 1_555 1_555
H8 C14 1_555 1_555
C15 C14 1_555 1_555
H9 C15 1_555 1_555
C16 C11 1_555 1_555
H10 C16 1_555 1_555
C17 C10 1_555 1_555
C18 C17 1_555 1_555
H11 C18 1_555 1_555
C19 C18 1_555 1_555
H12 C19 1_555 1_555
C20 C19 1_555 1_555
H13 C20 1_555 1_555
C21 C20 1_555 1_555
H14 C21 1_555 1_555
C22 C17 1_555 1_555
H15 C22 1_555 1_555
N4 H16 1_555 1_555
N5 C30 1_555 1_555
N6 C29 1_555 1_555
C23 N4 1_555 1_555
C24 C23 1_555 1_555
H17 C24 1_555 1_555
C25 C24 1_555 1_555
H18 C25 1_555 1_555
C26 C25 1_555 1_555
H19 C26 1_555 1_555
C27 C26 1_555 1_555
H20 C27 1_555 1_555
C28 C23 1_555 1_555
C29 C28 1_555 1_555
C30 N4 1_555 1_555
C31 N5 1_555 1_555
C32 N6 1_555 1_555
C33 C31 1_555 1_555
C34 C33 1_555 1_555
H21 C34 1_555 1_555
C35 C34 1_555 1_555
H22 C35 1_555 1_555
C36 C35 1_555 1_555
H23 C36 1_555 1_555
C37 C36 1_555 1_555
H24 C37 1_555 1_555
C38 C33 1_555 1_555
H25 C38 1_555 1_555
C39 C32 1_555 1_555
C40 C39 1_555 1_555
H26 C40 1_555 1_555
C41 C40 1_555 1_555
H27 C41 1_555 1_555
C42 C41 1_555 1_555
H28 C42 1_555 1_555
C43 C42 1_555 1_555
H29 C43 1_555 1_555
C44 C39 1_555 1_555
H30 C44 1_555 1_555
C5 C6 1_555 1_555
C7 C8 1_555 1_555
C9 C10 1_555 1_555
C15 C16 1_555 1_555
C21 C22 1_555 1_555
C27 C28 1_555 1_555
C29 C30 1_555 1_555
C31 C32 1_555 1_555
C37 C38 1_555 1_555
C43 C44 1_555 1_555

#END
