
#######################################################################
#
#                 Cambridge Crystallographic Data Centre
#                                CCDC 
#
#######################################################################
#
# If this CIF has been generated from an entry in the Cambridge 
# Structural Database, then it will include bibliographic, chemical, 
# crystal, experimental, refinement or atomic coordinate data resulting 
# from the CCDC's data processing and validation procedures.
#
#######################################################################

data_HERKAT
_chemical_formula_moiety         'C16 H9 F2 N1 O2'
_chemical_name_systematic        
(4-fluorophenyl)[5-(4-fluorophenyl)-1,3-oxazol-2-yl]methanone
_symmetry_cell_setting           triclinic
_symmetry_space_group_name_H-M   'P -1'
_symmetry_Int_Tables_number      2
_space_group_name_Hall           '-P 1'
loop_
_symmetry_equiv_pos_site_id
_symmetry_equiv_pos_as_xyz
1 x,y,z
2 -x,-y,-z
_cell_length_a                   7.6348(5)
_cell_length_b                   11.4024(8)
_cell_length_c                   14.8161(9)
_cell_angle_alpha                91.676(2)
_cell_angle_beta                 99.011(2)
_cell_angle_gamma                90.806(2)
_cell_volume                     1273.13
_exptl_crystal_colour            colorless
_exptl_crystal_description       block
_cell_formula_units_Z            4
loop_
_atom_site_label
_atom_site_type_symbol
_atom_site_fract_x
_atom_site_fract_y
_atom_site_fract_z
C1 C 0.3922(3) 0.8933(3) 0.10954(16)
C2 C 0.3306(3) 0.7917(2) 0.14104(17)
H1 H 0.2579 0.7396 0.1021
C3 C 0.3797(3) 0.7688(2) 0.23238(16)
H2 H 0.3401 0.6999 0.2553
C4 C 0.4876(3) 0.84734(19) 0.29084(14)
C5 C 0.5449(3) 0.9496(2) 0.25608(15)
H3 H 0.6160 1.0031 0.2944
C6 C 0.4968(3) 0.9727(2) 0.16426(16)
H4 H 0.5355 1.0413 0.1405
C7 C 0.5359(3) 0.8127(2) 0.38717(15)
C8 C 0.6469(3) 0.89063(19) 0.45673(14)
C9 C 0.7998(3) 1.0206(2) 0.53974(15)
H5 H 0.8612 1.0903 0.5584
C10 C 0.7826(3) 0.9292(2) 0.59411(15)
C11 C 0.8367(3) 0.9053(2) 0.69026(14)
C12 C 0.9410(3) 0.9868(2) 0.74752(15)
H6 H 0.9809 1.0548 0.7234
C13 C 0.9855(3) 0.9675(2) 0.83968(17)
H7 H 1.0544 1.0219 0.8783
C14 C 0.9258(3) 0.8664(2) 0.87280(16)
C15 C 0.8254(3) 0.7830(2) 0.81882(16)
H8 H 0.7883 0.7146 0.8435
C16 C 0.7806(3) 0.8033(2) 0.72668(15)
H9 H 0.7121 0.7480 0.6887
F1 F 0.3453(2) 0.91694(18) 0.01985(10)
F2 F 0.9666(2) 0.84681(16) 0.96409(9)
N1 N 0.7126(3) 0.99479(17) 0.45235(12)
O1 O 0.4862(2) 0.71925(14) 0.41276(11)
O2 O 0.6839(2) 0.84410(13) 0.54091(9)
C17 C -0.2170(3) 0.5392(3) 0.04601(15)
C18 C -0.2644(3) 0.6475(3) 0.07404(16)
H10 H -0.3394 0.6937 0.0349
C19 C -0.1987(3) 0.6869(2) 0.16159(16)
H11 H -0.2303 0.7604 0.1820
C20 C -0.0852(3) 0.6178(2) 0.22002(14)
C21 C -0.0378(3) 0.5089(2) 0.18842(15)
H12 H 0.0387 0.4624 0.2265
C22 C -0.1040(3) 0.4693(2) 0.10065(15)
H13 H -0.0724 0.3965 0.0790
C23 C -0.0298(3) 0.6655(2) 0.31456(14)
C24 C 0.0863(3) 0.59897(19) 0.38382(13)
C25 C 0.2497(3) 0.4823(2) 0.46593(14)
H14 H 0.3157 0.4168 0.4844
C26 C 0.2277(3) 0.57641(19) 0.52029(14)
C27 C 0.2862(3) 0.61180(19) 0.61556(14)
C28 C 0.4026(3) 0.5419(2) 0.67157(14)
H15 H 0.4451 0.4737 0.6475
C29 C 0.4549(3) 0.5731(2) 0.76221(15)
H16 H 0.5323 0.5266 0.7999
C30 C 0.3909(3) 0.6741(2) 0.79574(15)
C31 C 0.2769(3) 0.7452(2) 0.74331(15)
H17 H 0.2351 0.8131 0.7683
C32 C 0.2252(3) 0.7137(2) 0.65210(15)
H18 H 0.1488 0.7613 0.6149
F3 F 0.4409(2) 0.70466(14) 0.88579(9)
F4 F -0.2852(2) 0.49838(16) -0.03924(9)
N2 N 0.1599(2) 0.49766(16) 0.37905(12)
O3 O -0.0791(2) 0.76142(15) 0.33862(11)
O4 O 0.12178(18) 0.65260(13) 0.46792(9)
loop_
_geom_bond_atom_site_label_1
_geom_bond_atom_site_label_2
_geom_bond_site_symmetry_1
_geom_bond_site_symmetry_2
C1 C2 1_555 1_555
C2 H1 1_555 1_555
C3 C2 1_555 1_555
H2 C3 1_555 1_555
C4 C3 1_555 1_555
C5 C4 1_555 1_555
H3 C5 1_555 1_555
C6 C1 1_555 1_555
H4 C6 1_555 1_555
C7 C4 1_555 1_555
C8 C7 1_555 1_555
C9 H5 1_555 1_555
C10 C9 1_555 1_555
C11 C10 1_555 1_555
C12 C11 1_555 1_555
H6 C12 1_555 1_555
C13 C12 1_555 1_555
H7 C13 1_555 1_555
C14 C13 1_555 1_555
C15 C14 1_555 1_555
H8 C15 1_555 1_555
C16 C11 1_555 1_555
H9 C16 1_555 1_555
F1 C1 1_555 1_555
F2 C14 1_555 1_555
N1 C8 1_555 1_555
O1 C7 1_555 1_555
O2 C8 1_555 1_555
C17 C18 1_555 1_555
C18 H10 1_555 1_555
C19 C18 1_555 1_555
H11 C19 1_555 1_555
C20 C19 1_555 1_555
C21 C20 1_555 1_555
H12 C21 1_555 1_555
C22 C17 1_555 1_555
H13 C22 1_555 1_555
C23 C20 1_555 1_555
C24 C23 1_555 1_555
C25 H14 1_555 1_555
C26 C25 1_555 1_555
C27 C26 1_555 1_555
C28 C27 1_555 1_555
H15 C28 1_555 1_555
C29 C28 1_555 1_555
H16 C29 1_555 1_555
C30 C29 1_555 1_555
C31 C30 1_555 1_555
H17 C31 1_555 1_555
C32 C27 1_555 1_555
H18 C32 1_555 1_555
F3 C30 1_555 1_555
F4 C17 1_555 1_555
N2 C24 1_555 1_555
O3 C23 1_555 1_555
O4 C24 1_555 1_555
C5 C6 1_555 1_555
C9 N1 1_555 1_555
C10 O2 1_555 1_555
C15 C16 1_555 1_555
C21 C22 1_555 1_555
C25 N2 1_555 1_555
C26 O4 1_555 1_555
C31 C32 1_555 1_555

#END
