
#######################################################################
#
#                 Cambridge Crystallographic Data Centre
#                                CCDC 
#
#######################################################################
#
# If this CIF has been generated from an entry in the Cambridge 
# Structural Database, then it will include bibliographic, chemical, 
# crystal, experimental, refinement or atomic coordinate data resulting 
# from the CCDC's data processing and validation procedures.
#
#######################################################################

data_HERKEX
_chemical_formula_moiety         'C16 H9 F2 N1 O1 S1'
_chemical_name_systematic        
(2-fluorophenyl)[5-(2-fluorophenyl)-1,3-thiazol-2-yl]methanone
_symmetry_cell_setting           monoclinic
_symmetry_space_group_name_H-M   'P 21/c'
_symmetry_Int_Tables_number      14
_space_group_name_Hall           '-P 2ybc'
loop_
_symmetry_equiv_pos_site_id
_symmetry_equiv_pos_as_xyz
1 x,y,z
2 -x,1/2+y,1/2-z
3 -x,-y,-z
4 x,1/2-y,1/2+z
_cell_length_a                   13.0898(9)
_cell_length_b                   13.4082(10)
_cell_length_c                   7.5812(5)
_cell_angle_alpha                90
_cell_angle_beta                 91.231(2)
_cell_angle_gamma                90
_cell_volume                     1330.27
_exptl_crystal_colour            colorless
_exptl_crystal_description       Block
_cell_formula_units_Z            4
loop_
_atom_site_label
_atom_site_type_symbol
_atom_site_fract_x
_atom_site_fract_y
_atom_site_fract_z
C1 C 0.96473(17) 0.54091(19) 0.2411(3)
C2 C 1.06935(19) 0.5356(3) 0.2550(3)
H1 H 1.1013 0.4813 0.3089
C3 C 1.1257(2) 0.6124(3) 0.1873(4)
H2 H 1.1966 0.6111 0.1979
C4 C 1.0781(2) 0.6910(3) 0.1044(4)
H3 H 1.1171 0.7422 0.0576
C5 C 0.97322(19) 0.6951(2) 0.0894(3)
H4 H 0.9417 0.7486 0.0322
C6 C 0.91452(16) 0.61920(17) 0.1600(3)
C7 C 0.80101(16) 0.62488(17) 0.1420(3)
C8 C 0.73946(15) 0.62375(16) 0.3017(3)
C9 C 0.69860(16) 0.62113(17) 0.5789(3)
H5 H 0.7108 0.6189 0.7001
C10 C 0.60142(16) 0.62520(15) 0.5084(3)
C11 C 0.50549(15) 0.62612(15) 0.6066(3)
C12 C 0.40949(17) 0.62622(16) 0.5258(3)
C13 C 0.31983(17) 0.62766(17) 0.6162(3)
H6 H 0.2572 0.6276 0.5558
C14 C 0.32418(19) 0.62918(18) 0.7960(3)
H7 H 0.2642 0.6311 0.8594
C15 C 0.41780(19) 0.62792(18) 0.8841(3)
H8 H 0.4205 0.6281 1.0068
C16 C 0.50704(17) 0.62647(16) 0.7911(3)
H9 H 0.5694 0.6257 0.8522
F1 F 0.90898(11) 0.46410(12) 0.3024(2)
F2 F 0.40266(10) 0.62329(11) 0.34655(17)
N1 N 0.77608(13) 0.62047(14) 0.4628(2)
O1 O 0.75933(13) 0.63486(15) -0.0021(2)
S1 S 0.60885(4) 0.62923(4) 0.28264(7)
loop_
_geom_bond_atom_site_label_1
_geom_bond_atom_site_label_2
_geom_bond_site_symmetry_1
_geom_bond_site_symmetry_2
C1 C2 1_555 1_555
C2 H1 1_555 1_555
C3 C2 1_555 1_555
H2 C3 1_555 1_555
C4 C3 1_555 1_555
H3 C4 1_555 1_555
C5 C4 1_555 1_555
H4 C5 1_555 1_555
C6 C1 1_555 1_555
C7 C6 1_555 1_555
C8 C7 1_555 1_555
C9 H5 1_555 1_555
C10 C9 1_555 1_555
C11 C10 1_555 1_555
C12 C11 1_555 1_555
C13 C12 1_555 1_555
H6 C13 1_555 1_555
C14 C13 1_555 1_555
H7 C14 1_555 1_555
C15 C14 1_555 1_555
H8 C15 1_555 1_555
C16 C11 1_555 1_555
H9 C16 1_555 1_555
F1 C1 1_555 1_555
F2 C12 1_555 1_555
N1 C8 1_555 1_555
O1 C7 1_555 1_555
S1 C8 1_555 1_555
C5 C6 1_555 1_555
C9 N1 1_555 1_555
C10 S1 1_555 1_555
C15 C16 1_555 1_555

#END
