
#######################################################################
#
#                 Cambridge Crystallographic Data Centre
#                                CCDC 
#
#######################################################################
#
# If this CIF has been generated from an entry in the Cambridge 
# Structural Database, then it will include bibliographic, chemical, 
# crystal, experimental, refinement or atomic coordinate data resulting 
# from the CCDC's data processing and validation procedures.
#
#######################################################################

data_HERNAT
_chemical_formula_moiety         'C75 H18 Si2,0.5(C1 S2)'
_chemical_name_systematic        
'61,61-bis(Trimethylsilylbutadiynyl)-1,2-dihydro-1,2-methanoC60fullerene carbon disulfide solvate'
_symmetry_cell_setting           monoclinic
_symmetry_space_group_name_H-M   'P 21/c'
_symmetry_Int_Tables_number      14
_space_group_name_Hall           '-P 2ybc'
loop_
_symmetry_equiv_pos_site_id
_symmetry_equiv_pos_as_xyz
1 x,y,z
2 -x,1/2+y,1/2-z
3 -x,-y,-z
4 x,1/2-y,1/2+z
_cell_length_a                   10.230(3)
_cell_length_b                   22.720(12)
_cell_length_c                   19.316(11)
_cell_angle_alpha                90
_cell_angle_beta                 103.37(4)
_cell_angle_gamma                90
_cell_volume                     4367.85
_exptl_crystal_colour            brown
_cell_formula_units_Z            4
loop_
_atom_site_label
_atom_site_type_symbol
_atom_site_fract_x
_atom_site_fract_y
_atom_site_fract_z
C1 C -0.2811(6) 0.2585(2) 0.6090(3)
C2 C -0.2110(6) 0.2764(2) 0.5476(3)
C3 C -0.2368(6) 0.2379(2) 0.4842(3)
C4 C -0.3068(6) 0.1857(2) 0.4808(3)
C5 C -0.3708(6) 0.1681(2) 0.5384(3)
C6 C -0.3635(6) 0.2038(2) 0.5963(3)
C7 C -0.4816(6) 0.2136(2) 0.6232(3)
C8 C -0.4835(6) 0.2748(3) 0.6450(3)
C9 C -0.3662(6) 0.3036(3) 0.6330(3)
C10 C -0.3760(6) 0.3608(2) 0.6072(3)
C11 C -0.3095(6) 0.3779(2) 0.5505(3)
C12 C -0.2385(5) 0.3379(2) 0.5199(3)
C13 C -0.2571(6) 0.3360(3) 0.4435(3)
C14 C -0.2557(5) 0.2751(3) 0.4212(3)
C15 C -0.3363(6) 0.2569(3) 0.3573(3)
C16 C -0.4072(6) 0.2018(2) 0.3533(3)
C17 C -0.3930(6) 0.1672(3) 0.4138(3)
C18 C -0.5104(6) 0.1386(2) 0.4296(3)
C19 C -0.4966(6) 0.1394(2) 0.5054(3)
C20 C -0.6104(6) 0.1470(2) 0.5327(3)
C21 C -0.6032(6) 0.1854(3) 0.5932(3)
C22 C -0.7277(6) 0.2174(3) 0.5836(3)
C23 C -0.7301(6) 0.2749(3) 0.6045(3)
C24 C -0.6057(6) 0.3043(3) 0.6355(3)
C25 C -0.6147(6) 0.3652(3) 0.6117(3)
C26 C -0.5015(6) 0.3918(3) 0.5971(3)
C27 C -0.5152(6) 0.4282(2) 0.5346(3)
C28 C -0.3966(6) 0.4197(2) 0.5057(3)
C29 C -0.4107(6) 0.4195(2) 0.4318(3)
C30 C -0.3395(6) 0.3765(2) 0.4006(3)
C31 C -0.4242(6) 0.3581(3) 0.3332(3)
C32 C -0.4231(6) 0.2994(3) 0.3125(3)
C33 C -0.5479(7) 0.2705(3) 0.2812(3)
C34 C -0.5387(7) 0.2093(3) 0.3066(3)
C35 C -0.6508(6) 0.1823(3) 0.3201(3)
C36 C -0.6342(6) 0.1461(2) 0.3839(3)
C37 C -0.7530(6) 0.1541(3) 0.4116(3)
C38 C -0.7405(6) 0.1548(3) 0.4851(3)
C39 C -0.8143(6) 0.1979(3) 0.5166(3)
C40 C -0.8968(6) 0.2378(3) 0.4736(3)
C41 C -0.8989(6) 0.2993(3) 0.4965(3)
C42 C -0.8169(6) 0.3171(3) 0.5594(3)
C43 C -0.7450(6) 0.3730(3) 0.5645(3)
C44 C -0.7573(6) 0.4074(3) 0.5042(4)
C45 C -0.6396(6) 0.4360(3) 0.4893(3)
C46 C -0.6549(6) 0.4356(2) 0.4123(3)
C47 C -0.5424(6) 0.4270(3) 0.3846(3)
C48 C -0.5507(6) 0.3892(3) 0.3238(3)
C49 C -0.6712(6) 0.3617(3) 0.2937(3)
C50 C -0.6674(6) 0.2996(3) 0.2718(3)
C51 C -0.7854(6) 0.2716(3) 0.2870(3)
C52 C -0.7758(6) 0.2135(3) 0.3102(3)
C53 C -0.8411(6) 0.1963(3) 0.3670(3)
C54 C -0.9115(6) 0.2376(3) 0.3976(3)
C55 C -0.9207(6) 0.2977(3) 0.3722(4)
C56 C -0.9137(6) 0.3357(3) 0.4328(3)
C57 C -0.8434(6) 0.3891(3) 0.4363(3)
C58 C -0.7802(6) 0.4067(3) 0.3811(3)
C59 C -0.7880(6) 0.3702(3) 0.3222(3)
C60 C -0.8593(6) 0.3144(3) 0.3177(3)
Si1 Si 0.2320(2) 0.5093(1) 0.7790(1)
Si2 Si 0.1936(2) -0.0163(1) 0.6340(1)
C61 C -0.1282(5) 0.2604(2) 0.6218(3)
C62 C -0.0608(6) 0.3094(3) 0.6639(3)
C63 C -0.0045(6) 0.3525(3) 0.6946(3)
C64 C 0.0626(6) 0.4002(3) 0.7262(3)
C65 C 0.1244(6) 0.4445(3) 0.7511(3)
C66 C 0.1450(7) 0.5751(3) 0.7337(4)
C67 C 0.2680(7) 0.5166(3) 0.8775(3)
C68 C 0.3869(7) 0.4938(3) 0.7473(4)
C69 C -0.0577(6) 0.2052(3) 0.6289(3)
C70 C -0.0047(6) 0.1577(3) 0.6315(3)
C71 C 0.0576(6) 0.1034(3) 0.6332(3)
C72 C 0.1105(6) 0.0564(3) 0.6348(3)
C73 C 0.3317(7) -0.0028(3) 0.5884(4)
C74 C 0.2548(7) -0.0401(3) 0.7278(4)
C75 C 0.0696(7) -0.0692(3) 0.5838(4)
H1 H 0.1286 0.5698 0.6831
H2 H 0.0612 0.5806 0.7471
H3 H 0.2010 0.6090 0.7474
H4 H 0.1859 0.5251 0.8915
H5 H 0.3052 0.4805 0.8992
H6 H 0.3309 0.5480 0.8925
H7 H 0.3641 0.4904 0.6964
H8 H 0.4509 0.5250 0.7612
H9 H 0.4253 0.4574 0.7679
H10 H 0.2947 0.0099 0.5405
H11 H 0.3901 0.0272 0.6135
H12 H 0.3818 -0.0384 0.5877
H13 H 0.1799 -0.0466 0.7490
H14 H 0.3042 -0.0761 0.7284
H15 H 0.3125 -0.0105 0.7542
H16 H 0.0382 -0.0559 0.5356
H17 H 0.1113 -0.1071 0.5839
H18 H -0.0050 -0.0722 0.6060
S1 S -0.0310(2) 0.0323(1) 0.0645(1)
C76 C 0.0000 0.0000 0.0000
S1B S 0.0310(2) -0.0323(1) -0.0645(1)
loop_
_geom_bond_atom_site_label_1
_geom_bond_atom_site_label_2
_geom_bond_site_symmetry_1
_geom_bond_site_symmetry_2
C1 C2 1_555 1_555
C2 C3 1_555 1_555
C3 C4 1_555 1_555
C4 C5 1_555 1_555
C5 C6 1_555 1_555
C6 C1 1_555 1_555
C7 C6 1_555 1_555
C8 C7 1_555 1_555
C9 C1 1_555 1_555
C10 C9 1_555 1_555
C11 C10 1_555 1_555
C12 C2 1_555 1_555
C13 C12 1_555 1_555
C14 C3 1_555 1_555
C15 C14 1_555 1_555
C16 C15 1_555 1_555
C17 C4 1_555 1_555
C18 C17 1_555 1_555
C19 C5 1_555 1_555
C20 C19 1_555 1_555
C21 C7 1_555 1_555
C22 C21 1_555 1_555
C23 C22 1_555 1_555
C24 C8 1_555 1_555
C25 C24 1_555 1_555
C26 C10 1_555 1_555
C27 C26 1_555 1_555
C28 C11 1_555 1_555
C29 C28 1_555 1_555
C30 C13 1_555 1_555
C31 C30 1_555 1_555
C32 C15 1_555 1_555
C33 C32 1_555 1_555
C34 C16 1_555 1_555
C35 C34 1_555 1_555
C36 C18 1_555 1_555
C37 C36 1_555 1_555
C38 C20 1_555 1_555
C39 C22 1_555 1_555
C40 C39 1_555 1_555
C41 C40 1_555 1_555
C42 C23 1_555 1_555
C43 C25 1_555 1_555
C44 C43 1_555 1_555
C45 C27 1_555 1_555
C46 C45 1_555 1_555
C47 C29 1_555 1_555
C48 C31 1_555 1_555
C49 C48 1_555 1_555
C50 C33 1_555 1_555
C51 C50 1_555 1_555
C52 C35 1_555 1_555
C53 C37 1_555 1_555
C54 C40 1_555 1_555
C55 C54 1_555 1_555
C56 C41 1_555 1_555
C57 C44 1_555 1_555
C58 C46 1_555 1_555
C59 C49 1_555 1_555
C60 C51 1_555 1_555
Si1 C65 1_555 1_555
Si2 C72 1_555 1_555
C61 C1 1_555 1_555
C62 C61 1_555 1_555
C63 C62 1_555 1_555
C64 C63 1_555 1_555
C65 C64 1_555 1_555
C66 Si1 1_555 1_555
C67 Si1 1_555 1_555
C68 Si1 1_555 1_555
C69 C61 1_555 1_555
C70 C69 1_555 1_555
C71 C70 1_555 1_555
C72 C71 1_555 1_555
C73 Si2 1_555 1_555
C74 Si2 1_555 1_555
C75 Si2 1_555 1_555
S1 C76 1_555 1_555
C76 S1B 1_555 1_555
H1 C66 1_555 1_555
H2 C66 1_555 1_555
H3 C66 1_555 1_555
H4 C67 1_555 1_555
H5 C67 1_555 1_555
H6 C67 1_555 1_555
H7 C68 1_555 1_555
H8 C68 1_555 1_555
H9 C68 1_555 1_555
H10 C73 1_555 1_555
H11 C73 1_555 1_555
H12 C73 1_555 1_555
H13 C74 1_555 1_555
H14 C74 1_555 1_555
H15 C74 1_555 1_555
H16 C75 1_555 1_555
H17 C75 1_555 1_555
H18 C75 1_555 1_555
C2 C61 1_555 1_555
C8 C9 1_555 1_555
C11 C12 1_555 1_555
C13 C14 1_555 1_555
C16 C17 1_555 1_555
C18 C19 1_555 1_555
C20 C21 1_555 1_555
C23 C24 1_555 1_555
C25 C26 1_555 1_555
C27 C28 1_555 1_555
C29 C30 1_555 1_555
C31 C32 1_555 1_555
C33 C34 1_555 1_555
C35 C36 1_555 1_555
C37 C38 1_555 1_555
C38 C39 1_555 1_555
C41 C42 1_555 1_555
C42 C43 1_555 1_555
C44 C45 1_555 1_555
C46 C47 1_555 1_555
C47 C48 1_555 1_555
C49 C50 1_555 1_555
C51 C52 1_555 1_555
C52 C53 1_555 1_555
C53 C54 1_555 1_555
C55 C56 1_555 1_555
C55 C60 1_555 1_555
C56 C57 1_555 1_555
C57 C58 1_555 1_555
C58 C59 1_555 1_555
C59 C60 1_555 1_555

#END
