
#######################################################################
#
#                 Cambridge Crystallographic Data Centre
#                                CCDC 
#
#######################################################################
#
# If this CIF has been generated from an entry in the Cambridge 
# Structural Database, then it will include bibliographic, chemical, 
# crystal, experimental, refinement or atomic coordinate data resulting 
# from the CCDC's data processing and validation procedures.
#
#######################################################################

data_HERSAB
_chemical_formula_moiety         'C21 H15 Cl1 O1'
_chemical_name_systematic        
1-chloro-3-methyl[1,1'-binaphthalen]-2(1H)-one
_symmetry_cell_setting           orthorhombic
_symmetry_space_group_name_H-M   'P 21 21 21'
_symmetry_Int_Tables_number      19
_space_group_name_Hall           'P 2ac 2ab'
loop_
_symmetry_equiv_pos_site_id
_symmetry_equiv_pos_as_xyz
1 x,y,z
2 1/2-x,-y,1/2+z
3 1/2+x,1/2-y,-z
4 -x,1/2+y,1/2-z
_cell_length_a                   9.0145(4)
_cell_length_b                   10.6677(4)
_cell_length_c                   16.3477(7)
_cell_angle_alpha                90
_cell_angle_beta                 90
_cell_angle_gamma                90
_cell_volume                     1572.06
_exptl_crystal_colour            colorless
_exptl_crystal_description       block
_cell_formula_units_Z            4
loop_
_atom_site_label
_atom_site_type_symbol
_atom_site_fract_x
_atom_site_fract_y
_atom_site_fract_z
Cl1 Cl -0.08668(7) -0.65666(6) -0.76394(3)
C1 C 0.1489(2) -0.8211(2) -0.60296(13)
H1 H 0.2111 -0.8871 -0.5887
C2 C 0.0024(3) -0.8389(2) -0.59496(13)
O1 O -0.23045(18) -0.74015(17) -0.59752(13)
C3 C -0.0369(2) -0.61819(19) -0.65798(12)
C4 C 0.1308(2) -0.60625(18) -0.65838(11)
C5 C -0.0968(2) -0.46407(18) -0.54533(12)
C6 C -0.1983(3) -0.4260(2) -0.68028(14)
H2 H -0.2081 -0.4480 -0.7351
C7 C -0.1141(2) -0.49935(18) -0.62964(12)
C8 C 0.1972(3) -0.4970(2) -0.68701(14)
H3 H 0.1388 -0.4310 -0.7056
C9 C 0.2179(2) -0.7061(2) -0.63234(12)
C10 C -0.0054(2) -0.5284(2) -0.48883(13)
H4 H 0.0494 -0.5971 -0.5066
C11 C -0.1753(2) -0.3566(2) -0.51620(14)
C12 C -0.2613(3) -0.2853(2) -0.57079(17)
H5 H -0.3123 -0.2153 -0.5519
C13 C 0.3505(3) -0.4864(2) -0.68783(16)
H6 H 0.3948 -0.4131 -0.7065
C14 C -0.2704(3) -0.3179(2) -0.65100(16)
H7 H -0.3247 -0.2683 -0.6869
C15 C -0.0656(3) -0.9595(2) -0.56533(17)
H8 H -0.1129 -1.0015 -0.6103
H9 H -0.1379 -0.9415 -0.5238
H10 H 0.0104 -1.0124 -0.5430
C16 C -0.0783(3) -0.3901(2) -0.37978(15)
H11 H -0.0738 -0.3677 -0.3249
C17 C -0.0993(2) -0.73570(19) -0.61369(13)
C18 C 0.0045(3) -0.4919(2) -0.40873(14)
H12 H 0.0668 -0.5351 -0.3732
C19 C 0.4376(3) -0.5849(2) -0.66087(15)
H13 H 0.5405 -0.5778 -0.6614
C20 C -0.1653(3) -0.3244(2) -0.43233(15)
H14 H -0.2195 -0.2565 -0.4128
C21 C 0.3717(3) -0.6929(2) -0.63337(14)
H15 H 0.4308 -0.7586 -0.6151
loop_
_geom_bond_atom_site_label_1
_geom_bond_atom_site_label_2
_geom_bond_site_symmetry_1
_geom_bond_site_symmetry_2
Cl1 C3 1_555 1_555
C1 H1 1_555 1_555
C2 C1 1_555 1_555
O1 C17 1_555 1_555
C3 C4 1_555 1_555
C4 C8 1_555 1_555
C5 C7 1_555 1_555
C6 H2 1_555 1_555
C7 C3 1_555 1_555
C8 H3 1_555 1_555
C9 C1 1_555 1_555
C10 C5 1_555 1_555
H4 C10 1_555 1_555
C11 C5 1_555 1_555
C12 C11 1_555 1_555
H5 C12 1_555 1_555
C13 C8 1_555 1_555
H6 C13 1_555 1_555
C14 C6 1_555 1_555
H7 C14 1_555 1_555
C15 C2 1_555 1_555
H8 C15 1_555 1_555
H9 C15 1_555 1_555
H10 C15 1_555 1_555
C16 H11 1_555 1_555
C17 C2 1_555 1_555
C18 C10 1_555 1_555
H12 C18 1_555 1_555
C19 C13 1_555 1_555
H13 C19 1_555 1_555
C20 C11 1_555 1_555
H14 C20 1_555 1_555
C21 C9 1_555 1_555
H15 C21 1_555 1_555
C3 C17 1_555 1_555
C4 C9 1_555 1_555
C6 C7 1_555 1_555
C12 C14 1_555 1_555
C16 C18 1_555 1_555
C16 C20 1_555 1_555
C19 C21 1_555 1_555

#END
