
#######################################################################
#
#                 Cambridge Crystallographic Data Centre
#                                CCDC 
#
#######################################################################
#
# If this CIF has been generated from an entry in the Cambridge 
# Structural Database, then it will include bibliographic, chemical, 
# crystal, experimental, refinement or atomic coordinate data resulting 
# from the CCDC's data processing and validation procedures.
#
#######################################################################

data_HERZOU
_chemical_formula_moiety         'C5 H6 N1 1+,H4 B5 O10 1-,0.5(C5 H5 N1)'
_chemical_name_systematic        
'Pyridinium tetrahydroxyhexaoxopentaborate pyridine solvate'
_symmetry_cell_setting           monoclinic
_symmetry_space_group_name_H-M   'C 2/c'
_symmetry_Int_Tables_number      15
_space_group_name_Hall           '-C 2yn'
loop_
_symmetry_equiv_pos_site_id
_symmetry_equiv_pos_as_xyz
1 x,y,z
2 1/2+x,1/2+y,z
3 -x,y,1/2-z
4 1/2-x,1/2+y,1/2-z
5 -x,-y,-z
6 1/2-x,1/2-y,-z
7 x,-y,1/2+z
8 1/2+x,1/2-y,1/2+z
_cell_length_a                   15.485(10)
_cell_length_b                   11.554(7)
_cell_length_c                   17.811(11)
_cell_angle_alpha                90
_cell_angle_beta                 110.478(9)
_cell_angle_gamma                90
_cell_volume                     2985.26
_exptl_crystal_colour            colorless
_exptl_crystal_description       block
_cell_formula_units_Z            8
_chemical_properties_physical    air-sensitive
_exptl_crystal_recrystallization_method 'absolute alcohol'
loop_
_atom_site_label
_atom_site_type_symbol
_atom_site_fract_x
_atom_site_fract_y
_atom_site_fract_z
B1 B 0.7814(3) 0.3862(4) 0.6981(3)
B2 B 0.7596(3) 0.4875(4) 0.8137(3)
B3 B 0.7483(3) 0.2834(4) 0.8079(3)
B4 B 0.9059(3) 0.3932(5) 0.6399(3)
B5 B 0.7495(3) 0.3967(4) 0.5527(3)
O1 O 0.76950(19) 0.4905(2) 0.74095(15)
O2 O 0.7522(2) 0.3848(2) 0.84937(15)
O3 O 0.76067(19) 0.2822(2) 0.73597(15)
O4 O 0.87915(17) 0.3822(2) 0.70363(14)
O5 O 0.84223(19) 0.4003(3) 0.56332(16)
O6 O 0.72016(17) 0.3916(2) 0.61515(14)
O7 O 0.7558(2) 0.5860(2) 0.85386(16)
H1 H 0.7603 0.6423 0.8274
O8 O 0.7298(2) 0.1859(3) 0.84099(17)
H2 H 0.7278 0.1308 0.8114
O9 O 0.9955(2) 0.3973(3) 0.64539(17)
H3 H 1.0288 0.3929 0.6926
O10 O 0.68594(19) 0.4007(3) 0.47719(15)
H4 H 0.7124 0.4034 0.4446
N1 N 0.4667(4) 0.7812(6) 0.4824(3)
H5 H 0.4157 0.8062 0.4856
C1 C 0.5025(5) 0.6827(6) 0.5185(4)
H6 H 0.4734 0.6426 0.5482
C2 C 0.5780(5) 0.6421(5) 0.5123(4)
H7 H 0.6024 0.5731 0.5379
C3 C 0.6218(4) 0.6985(6) 0.4692(4)
H8 H 0.6747 0.6675 0.4639
C4 C 0.5878(5) 0.7997(6) 0.4345(4)
H9 H 0.6182 0.8404 0.4061
C5 C 0.5090(5) 0.8428(6) 0.4407(4)
H10 H 0.4848 0.9129 0.4169
N2 N 0.5000 0.3781(9) 0.7500
C6 C 0.5337(5) 0.4406(7) 0.7000(5)
H11 H 0.5596 0.4006 0.6678
C7 C 0.5305(5) 0.5512(8) 0.6961(6)
H12 H 0.5480 0.5924 0.6589
C8 C 0.5000 0.6043(12) 0.7500
H13 H 0.5000 0.6848 0.7500
C6B C 0.4663(5) 0.4406(7) 0.8000(5)
H11B H 0.4404 0.4006 0.8322
C7B C 0.4695(5) 0.5512(8) 0.8039(6)
H12B H 0.4520 0.5924 0.8411
loop_
_geom_bond_atom_site_label_1
_geom_bond_atom_site_label_2
_geom_bond_site_symmetry_1
_geom_bond_site_symmetry_2
B1 O1 1_555 1_555
B2 O1 1_555 1_555
B3 O2 1_555 1_555
B4 O4 1_555 1_555
B5 O5 1_555 1_555
O2 B2 1_555 1_555
O3 B1 1_555 1_555
O4 B1 1_555 1_555
O5 B4 1_555 1_555
O6 B1 1_555 1_555
O7 B2 1_555 1_555
H1 O7 1_555 1_555
O8 B3 1_555 1_555
H2 O8 1_555 1_555
O9 B4 1_555 1_555
H3 O9 1_555 1_555
O10 B5 1_555 1_555
H4 O10 1_555 1_555
N1 H5 1_555 1_555
C1 N1 1_555 1_555
H6 C1 1_555 1_555
C2 C1 1_555 1_555
H7 C2 1_555 1_555
C3 C2 1_555 1_555
H8 C3 1_555 1_555
C4 C3 1_555 1_555
H9 C4 1_555 1_555
C5 N1 1_555 1_555
H10 C5 1_555 1_555
N2 C6 1_555 1_555
C6 H11 1_555 1_555
C7 C6 1_555 1_555
H12 C7 1_555 1_555
C8 C7 1_555 1_555
H13 C8 1_555 1_555
C6B N2 1_555 1_555
H11B C6B 1_555 1_555
C7B C8 1_555 1_555
H12B C7B 1_555 1_555
B3 O3 1_555 1_555
B5 O6 1_555 1_555
C4 C5 1_555 1_555
C6B C7B 1_555 1_555

#END
