
#######################################################################
#
#                 Cambridge Crystallographic Data Centre
#                                CCDC 
#
#######################################################################
#
# If this CIF has been generated from an entry in the Cambridge 
# Structural Database, then it will include bibliographic, chemical, 
# crystal, experimental, refinement or atomic coordinate data resulting 
# from the CCDC's data processing and validation procedures.
#
#######################################################################

data_HESFOD
_chemical_formula_moiety         'C20 H28 N4 O4'
_chemical_name_systematic        
5,8-dimethyl-2,11-dioxo-1,12-dioxa-6,7-diazacycloicosa-6,16-diene-5,8-dicarbonitrile
_symmetry_cell_setting           monoclinic
_symmetry_space_group_name_H-M   'P 21/n'
_symmetry_Int_Tables_number      14
_space_group_name_Hall           '-P 2yn'
loop_
_symmetry_equiv_pos_site_id
_symmetry_equiv_pos_as_xyz
1 x,y,z
2 1/2-x,1/2+y,1/2-z
3 -x,-y,-z
4 1/2+x,1/2-y,1/2+z
_cell_length_a                   11.9553(8)
_cell_length_b                   9.1522(6)
_cell_length_c                   19.8161(11)
_cell_angle_alpha                90
_cell_angle_beta                 103.795(6)
_cell_angle_gamma                90
_cell_volume                     2105.68
_exptl_crystal_colour            colorless
_exptl_crystal_description       'fibrous plate'
_cell_formula_units_Z            4
_exptl_crystal_recrystallization_method acetone/pentane
loop_
_atom_site_label
_atom_site_type_symbol
_atom_site_fract_x
_atom_site_fract_y
_atom_site_fract_z
O1 O 0.3325(4) 0.4578(4) 0.1388(2)
O2 O 0.3109(2) 0.6150(3) 0.21996(16)
O3 O 0.6827(2) 0.6697(3) 0.40804(11)
O4 O 0.83105(18) 0.8281(2) 0.42750(9)
N1 N 0.74909(17) 0.8032(2) 0.16772(10)
N2 N 0.69602(18) 0.6976(2) 0.13728(10)
N3 N 0.5254(2) 1.0103(3) 0.09337(11)
N4 N 0.9147(2) 0.4861(3) 0.21082(13)
C1 C 0.5887(2) 0.7373(2) 0.08465(11)
C2 C 0.4921(2) 0.6371(3) 0.09579(12)
H1 H 0.4250 0.6470 0.0556
H2 H 0.5188 0.5345 0.0972
C3 C 0.4540(3) 0.6696(3) 0.16162(14)
H3 H 0.5201 0.6558 0.2021
H4 H 0.4295 0.7730 0.1611
C4 C 0.3568(3) 0.5731(4) 0.16953(16)
C5 C 0.2181(3) 0.5253(5) 0.2363(3)
H5 H 0.2408 0.4210 0.2398
H6 H 0.1468 0.5353 0.1990
C6 C 0.1974(4) 0.5767(5) 0.3038(3)
H7 H 0.1849 0.6837 0.3009
H8 H 0.1255 0.5311 0.3101
C7 C 0.2901(5) 0.5449(6) 0.3654(3)
H9 H 0.2569 0.5421 0.4067
H10 H 0.3215 0.4466 0.3600
C8 C 0.3826(5) 0.6479(7) 0.3779(3)
H11 H 0.4221 0.6538 0.3417
C9 C 0.4236(7) 0.7375(9) 0.4315(4)
H12 H 0.3926 0.7216 0.4708
C10 C 0.4993(7) 0.8438(7) 0.4389(3)
H13 H 0.4640 0.9328 0.4533
H14 H 0.5147 0.8640 0.3929
C11 C 0.6154(5) 0.8177(7) 0.4911(3)
H15 H 0.6670 0.9013 0.4889
H16 H 0.6024 0.8150 0.5386
C12 C 0.6731(4) 0.6826(6) 0.47897(18)
H17 H 0.7511 0.6800 0.5103
H18 H 0.6294 0.5980 0.4904
C13 C 0.7657(2) 0.7465(3) 0.38925(12)
C14 C 0.7661(2) 0.7135(2) 0.31540(11)
H19 H 0.6888 0.7343 0.2855
H20 H 0.7821 0.6083 0.3110
C15 C 0.8554(2) 0.8026(2) 0.29005(12)
H21 H 0.9319 0.7861 0.3217
H22 H 0.8367 0.9077 0.2920
C16 C 0.8613(2) 0.7635(2) 0.21549(12)
C17 C 0.5558(2) 0.8921(3) 0.08945(12)
C18 C 0.6162(3) 0.7069(3) 0.01390(13)
H23 H 0.6796 0.7702 0.0084
H24 H 0.5479 0.7268 -0.0234
H25 H 0.6387 0.6044 0.0117
C19 C 0.8883(2) 0.6053(3) 0.21153(13)
C20 C 0.9523(2) 0.8539(3) 0.19136(14)
H26 H 0.9542 0.8250 0.1440
H27 H 1.0280 0.8365 0.2226
H28 H 0.9331 0.9578 0.1920
H29? H 0.3592 0.5296 0.3469
H30? H 0.2705 0.4475 0.3811
C21? C 0.339(2) 0.640(3) 0.4394(14)
H31? H 0.3275 0.5833 0.4775
C22? C 0.383(2) 0.755(2) 0.4610(13)
H32? H 0.3505 0.8039 0.4941
H33? H 0.5052 0.8095 0.3925
H34? H 0.4837 0.9501 0.4356
loop_
_geom_bond_atom_site_label_1
_geom_bond_atom_site_label_2
_geom_bond_site_symmetry_1
_geom_bond_site_symmetry_2
O1 C4 1_555 1_555
O2 C4 1_555 1_555
O3 C12 1_555 1_555
O4 C13 1_555 1_555
N1 N2 1_555 1_555
N2 C1 1_555 1_555
N3 C17 1_555 1_555
N4 C19 1_555 1_555
C1 C2 1_555 1_555
C2 H1 1_555 1_555
H2 C2 1_555 1_555
C3 C2 1_555 1_555
H3 C3 1_555 1_555
H4 C3 1_555 1_555
C4 C3 1_555 1_555
C5 O2 1_555 1_555
H5 C5 1_555 1_555
H6 C5 1_555 1_555
C6 C5 1_555 1_555
H7 C6 1_555 1_555
H8 C6 1_555 1_555
C7 C6 1_555 1_555
H9 C7 1_555 1_555
H10 C7 1_555 1_555
C8 C7 1_555 1_555
H11 C8 1_555 1_555
C9 C8 1_555 1_555
H12 C9 1_555 1_555
C10 C9 1_555 1_555
H13 C10 1_555 1_555
H14 C10 1_555 1_555
C11 C10 1_555 1_555
H15 C11 1_555 1_555
H16 C11 1_555 1_555
C12 C11 1_555 1_555
H17 C12 1_555 1_555
H18 C12 1_555 1_555
C13 O3 1_555 1_555
C14 C13 1_555 1_555
H19 C14 1_555 1_555
H20 C14 1_555 1_555
C15 C14 1_555 1_555
H21 C15 1_555 1_555
H22 C15 1_555 1_555
C16 N1 1_555 1_555
C17 C1 1_555 1_555
C18 C1 1_555 1_555
H23 C18 1_555 1_555
H24 C18 1_555 1_555
H25 C18 1_555 1_555
C19 C16 1_555 1_555
C20 C16 1_555 1_555
H26 C20 1_555 1_555
H27 C20 1_555 1_555
H28 C20 1_555 1_555
C15 C16 1_555 1_555

#END
