
#######################################################################
#
#                 Cambridge Crystallographic Data Centre
#                                CCDC 
#
#######################################################################
#
# If this CIF has been generated from an entry in the Cambridge 
# Structural Database, then it will include bibliographic, chemical, 
# crystal, experimental, refinement or atomic coordinate data resulting 
# from the CCDC's data processing and validation procedures.
#
#######################################################################

data_HESKAU
_chemical_formula_moiety         'C23 H25 N1 O6'
_chemical_name_systematic        
'methyl 1-{6-[(benzyloxy)methyl]-3,4-dihydroxyoxan-2-yl}-1H-indole-3-carboxylate'
_symmetry_cell_setting           orthorhombic
_symmetry_space_group_name_H-M   'P 21 21 21'
_symmetry_Int_Tables_number      19
_space_group_name_Hall           'P 2ac 2ab'
loop_
_symmetry_equiv_pos_site_id
_symmetry_equiv_pos_as_xyz
1 x,y,z
2 1/2+x,1/2-y,-z
3 -x,1/2+y,1/2-z
4 1/2-x,-y,1/2+z
_cell_length_a                   7.526(2)
_cell_length_b                   11.907(2)
_cell_length_c                   22.896(2)
_cell_angle_alpha                90
_cell_angle_beta                 90
_cell_angle_gamma                90
_cell_volume                     2051.76
_exptl_crystal_colour            colorless
_exptl_crystal_description       needle
_cell_formula_units_Z            4
loop_
_atom_site_label
_atom_site_type_symbol
_atom_site_fract_x
_atom_site_fract_y
_atom_site_fract_z
O1 O 0.55043(10) 0.41700(6) 0.25667(3)
O2 O 0.40483(12) 0.45631(6) 0.14226(4)
O3 O 0.47600(12) 0.14140(6) 0.22019(4)
H1 H 0.4556(16) 0.0757(5) 0.2285(6)
O4 O 0.65836(12) 0.52374(8) 0.48837(4)
O5 O 0.43206(13) 0.17060(7) 0.34160(4)
H2 H 0.4801(9) 0.1104(6) 0.3490(7)
O6 O 0.44966(14) 0.65837(8) 0.49575(4)
N1 N 0.39483(11) 0.41110(7) 0.34247(4)
C1 C 0.50585(13) 0.44121(8) 0.38726(4)
H3 H 0.61937(13) 0.41250(8) 0.39316(4)
C2 C 0.23807(13) 0.47274(8) 0.34746(4)
C3 C 0.44575(13) 0.34411(7) 0.29285(4)
H4 H 0.33877(13) 0.32160(7) 0.27144(4)
C4 C 0.42542(14) 0.51966(8) 0.42206(4)
C5 C 0.25158(14) 0.54069(8) 0.39793(4)
C6 C 0.50727(15) 0.57518(9) 0.47190(5)
C7 C 0.55053(14) 0.23925(8) 0.30976(4)
H5 H 0.65092(14) 0.26045(8) 0.33469(4)
C8 C 0.72728(14) 0.26369(9) 0.21832(5)
H6 H 0.83296(14) 0.28528(9) 0.23981(5)
H7 H 0.76483(14) 0.22743(9) 0.18244(5)
C9 C 0.61953(14) 0.18132(8) 0.25461(5)
H8 H 0.69527(14) 0.11791(8) 0.26577(5)
C10 C 0.08773(14) 0.47373(10) 0.31188(5)
H9 H 0.08117(14) 0.43009(10) 0.27826(5)
C11 C 0.47482(16) 0.34954(8) 0.15840(5)
H10 H 0.38147(16) 0.30282(8) 0.17462(5)
H11 H 0.52344(16) 0.31193(8) 0.12439(5)
C12 C 0.61983(15) 0.36823(8) 0.20360(4)
H12 H 0.70292(15) 0.42293(8) 0.18695(4)
C13 C 0.18558(16) 0.55996(10) 0.09073(5)
C14 C 0.10778(15) 0.60882(10) 0.41422(5)
H13 H 0.11349(15) 0.65320(10) 0.44759(5)
C15 C -0.04234(16) 0.60847(11) 0.37960(6)
H14 H -0.13905(16) 0.65266(11) 0.39014(6)
C16 C -0.05198(16) 0.54284(11) 0.32886(6)
H15 H -0.15411(16) 0.54559(11) 0.30604(6)
C17 C 0.26029(19) 0.62722(11) 0.04824(6)
H16 H 0.35226(19) 0.59917(11) 0.02536(6)
C18 C 0.2585(2) 0.44502(10) 0.10276(6)
H17 H 0.2979(2) 0.41041(10) 0.06666(6)
H18 H 0.1672(2) 0.39790(10) 0.11992(6)
C19 C 0.7544(2) 0.57644(14) 0.53524(6)
H19 H 0.8049(15) 0.6457(6) 0.52171(17)
H20 H 0.6748(4) 0.5914(10) 0.5671(2)
H21 H 0.8476(11) 0.5274(5) 0.5482(4)
C20 C 0.2006(2) 0.73580(12) 0.03910(6)
H22 H 0.2541(2) 0.78059(12) 0.01086(6)
C21 C 0.04533(19) 0.60194(12) 0.12340(7)
H23 H -0.00717(19) 0.55734(12) 0.15193(7)
C22 C 0.0617(2) 0.77754(11) 0.07190(7)
H24 H 0.0215(2) 0.85048(11) 0.06587(7)
C23 C -0.01748(19) 0.71044(14) 0.11378(8)
H25 H -0.11256(19) 0.73773(14) 0.13550(8)
loop_
_geom_bond_atom_site_label_1
_geom_bond_atom_site_label_2
_geom_bond_site_symmetry_1
_geom_bond_site_symmetry_2
O1 C3 1_555 1_555
O2 C11 1_555 1_555
O3 H1 1_555 1_555
O4 C6 1_555 1_555
O5 H2 1_555 1_555
O6 C6 1_555 1_555
N1 C1 1_555 1_555
C1 H3 1_555 1_555
C2 N1 1_555 1_555
C3 N1 1_555 1_555
H4 C3 1_555 1_555
C4 C1 1_555 1_555
C5 C2 1_555 1_555
C6 C4 1_555 1_555
C7 O5 1_555 1_555
H5 C7 1_555 1_555
C8 H6 1_555 1_555
H7 C8 1_555 1_555
C9 O3 1_555 1_555
H8 C9 1_555 1_555
C10 C2 1_555 1_555
H9 C10 1_555 1_555
C11 H10 1_555 1_555
H11 C11 1_555 1_555
C12 O1 1_555 1_555
H12 C12 1_555 1_555
C13 C17 1_555 1_555
C14 C5 1_555 1_555
H13 C14 1_555 1_555
C15 C14 1_555 1_555
H14 C15 1_555 1_555
C16 C10 1_555 1_555
H15 C16 1_555 1_555
C17 H16 1_555 1_555
C18 O2 1_555 1_555
H17 C18 1_555 1_555
H18 C18 1_555 1_555
C19 O4 1_555 1_555
H19 C19 1_555 1_555
H20 C19 1_555 1_555
H21 C19 1_555 1_555
C20 C17 1_555 1_555
H22 C20 1_555 1_555
C21 C13 1_555 1_555
H23 C21 1_555 1_555
C22 C20 1_555 1_555
H24 C22 1_555 1_555
C23 C21 1_555 1_555
H25 C23 1_555 1_555
C3 C7 1_555 1_555
C4 C5 1_555 1_555
C7 C9 1_555 1_555
C8 C9 1_555 1_555
C8 C12 1_555 1_555
C11 C12 1_555 1_555
C13 C18 1_555 1_555
C15 C16 1_555 1_555
C22 C23 1_555 1_555

#END
