
#######################################################################
#
#                 Cambridge Crystallographic Data Centre
#                                CCDC 
#
#######################################################################
#
# If this CIF has been generated from an entry in the Cambridge 
# Structural Database, then it will include bibliographic, chemical, 
# crystal, experimental, refinement or atomic coordinate data resulting 
# from the CCDC's data processing and validation procedures.
#
#######################################################################

data_HESMAU
_chemical_formula_moiety         'C22 H23 Cl2 N5 O3'
_chemical_name_systematic        
'Ethyl 1-benzyl-5-(2-(2,4-dichlorophenyl)-3-isopropylisoureido)-1H-1,2,3-triazole-4-carboxylate'
_symmetry_cell_setting           monoclinic
_symmetry_space_group_name_H-M   'P 21/c'
_symmetry_Int_Tables_number      14
_space_group_name_Hall           '-P 2ybc'
loop_
_symmetry_equiv_pos_site_id
_symmetry_equiv_pos_as_xyz
1 x,y,z
2 -x,1/2+y,1/2-z
3 -x,-y,-z
4 x,1/2-y,1/2+z
_cell_length_a                   9.1692(8)
_cell_length_b                   10.1164(9)
_cell_length_c                   25.360(2)
_cell_angle_alpha                90
_cell_angle_beta                 91.639(2)
_cell_angle_gamma                90
_cell_volume                     2351.41
_exptl_crystal_colour            colorless
_exptl_crystal_description       block
_chemical_melting_point          '442 K'
_cell_formula_units_Z            4
_exptl_crystal_recrystallization_method hexane/dichloromethane
loop_
_atom_site_label
_atom_site_type_symbol
_atom_site_fract_x
_atom_site_fract_y
_atom_site_fract_z
C1 C 0.5226(4) 0.4110(4) 0.19477(12)
C2 C 0.4942(4) 0.4461(5) 0.24625(14)
H1 H 0.4182 0.5036 0.2536
C3 C 0.5792(5) 0.3949(5) 0.28567(15)
C4 C 0.6905(5) 0.3102(5) 0.27669(15)
H2 H 0.7466 0.2761 0.3046
C5 C 0.7194(5) 0.2749(4) 0.22447(15)
H3 H 0.7952 0.2170 0.2174
C6 C 0.6356(4) 0.3263(3) 0.18415(12)
C7 C 0.7364(3) 0.3688(3) 0.10123(12)
C8 C 0.6091(4) 0.2450(4) 0.02921(14)
H4 H 0.5275 0.2383 0.0532
C9 C 0.6808(7) 0.1117(5) 0.0261(3)
H5 H 0.7581 0.1152 0.0014
H6 H 0.6100 0.0471 0.0146
H7 H 0.7201 0.0876 0.0602
C10 C 0.5504(5) 0.2915(5) -0.02346(16)
H8 H 0.5093 0.3782 -0.0199
H9 H 0.4762 0.2315 -0.0362
H10 H 0.6280 0.2945 -0.0480
C11 C 0.9048(3) 0.5380(3) 0.09657(9)
C12 C 1.0310(3) 0.5239(3) 0.06778(11)
C13 C 1.1161(4) 0.4103(3) 0.05203(11)
C14 C 1.1448(6) 0.1802(4) 0.05943(19)
H11 H 1.1398 0.1660 0.0216
H12 H 1.2466 0.1903 0.0702
C15 C 1.0866(8) 0.0730(4) 0.0846(2)
H13 H 1.0715 0.0948 0.1209
H14 H 1.1527 -0.0004 0.0828
H15 H 0.9950 0.0497 0.0678
C16 C 0.7712(4) 0.7427(3) 0.12449(12)
H16 H 0.6827 0.6902 0.1238
H17 H 0.7511 0.8237 0.1052
C17 C 0.8120(3) 0.7766(3) 0.18105(12)
C18 C 0.8885(5) 0.8877(4) 0.19436(16)
H18 H 0.9159 0.9456 0.1679
C19 C 0.9264(5) 0.9164(5) 0.2466(2)
H19 H 0.9808 0.9916 0.2548
C20 C 0.8832(5) 0.8332(6) 0.28574(16)
H20 H 0.9063 0.8521 0.3209
C21 C 0.8080(6) 0.7253(5) 0.27298(16)
H21 H 0.7784 0.6684 0.2994
C22 C 0.7730(5) 0.6963(4) 0.22111(14)
H22 H 0.7210 0.6194 0.2133
Cl1 Cl 0.41980(12) 0.47759(15) 0.14379(4)
Cl2 Cl 0.54512(17) 0.44246(19) 0.35027(4)
N1 N 0.7129(3) 0.3429(3) 0.05081(9)
H23 H 0.7733 0.3834 0.0243
N2 N 0.8169(3) 0.4551(2) 0.12456(9)
N3 N 0.8853(3) 0.6698(2) 0.09831(8)
N4 N 0.9900(4) 0.7343(3) 0.07156(11)
N5 N 1.0775(3) 0.6460(3) 0.05353(11)
O1 O 0.6565(3) 0.2862(2) 0.13251(8)
O2 O 1.0656(3) 0.2991(2) 0.07224(9)
O3 O 1.2201(3) 0.4157(3) 0.02441(9)
loop_
_geom_bond_atom_site_label_1
_geom_bond_atom_site_label_2
_geom_bond_site_symmetry_1
_geom_bond_site_symmetry_2
C1 C2 1_555 1_555
C2 H1 1_555 1_555
C3 C2 1_555 1_555
C4 C3 1_555 1_555
H2 C4 1_555 1_555
C5 C4 1_555 1_555
H3 C5 1_555 1_555
C6 C1 1_555 1_555
C7 N1 1_555 1_555
C8 H4 1_555 1_555
C9 C8 1_555 1_555
H5 C9 1_555 1_555
H6 C9 1_555 1_555
H7 C9 1_555 1_555
C10 C8 1_555 1_555
H8 C10 1_555 1_555
H9 C10 1_555 1_555
H10 C10 1_555 1_555
C11 C12 1_555 1_555
C12 C13 1_555 1_555
C13 O2 1_555 1_555
C14 H11 1_555 1_555
H12 C14 1_555 1_555
C15 C14 1_555 1_555
H13 C15 1_555 1_555
H14 C15 1_555 1_555
H15 C15 1_555 1_555
C16 H16 1_555 1_555
H17 C16 1_555 1_555
C17 C16 1_555 1_555
C18 C17 1_555 1_555
H18 C18 1_555 1_555
C19 C18 1_555 1_555
H19 C19 1_555 1_555
C20 C19 1_555 1_555
H20 C20 1_555 1_555
C21 C20 1_555 1_555
H21 C21 1_555 1_555
C22 C17 1_555 1_555
H22 C22 1_555 1_555
Cl1 C1 1_555 1_555
Cl2 C3 1_555 1_555
N1 C8 1_555 1_555
H23 N1 1_555 1_555
N2 C7 1_555 1_555
N3 C11 1_555 1_555
N4 N3 1_555 1_555
N5 C12 1_555 1_555
O1 C6 1_555 1_555
O2 C14 1_555 1_555
O3 C13 1_555 1_555
C5 C6 1_555 1_555
C7 O1 1_555 1_555
C11 N2 1_555 1_555
C16 N3 1_555 1_555
C21 C22 1_555 1_555
N4 N5 1_555 1_555

#END
