
#######################################################################
#
#                 Cambridge Crystallographic Data Centre
#                                CCDC 
#
#######################################################################
#
# If this CIF has been generated from an entry in the Cambridge 
# Structural Database, then it will include bibliographic, chemical, 
# crystal, experimental, refinement or atomic coordinate data resulting 
# from the CCDC's data processing and validation procedures.
#
#######################################################################

data_HESNUR
_chemical_formula_moiety         'C39 H29 N3'
_chemical_name_systematic        2,3-bis(4-(diphenylamino)phenyl)acrylonitrile
_symmetry_cell_setting           monoclinic
_symmetry_space_group_name_H-M   'P 21/c'
_symmetry_Int_Tables_number      14
_space_group_name_Hall           '-P 2ybc'
loop_
_symmetry_equiv_pos_site_id
_symmetry_equiv_pos_as_xyz
1 x,y,z
2 -x,1/2+y,1/2-z
3 -x,-y,-z
4 x,1/2-y,1/2+z
_cell_length_a                   18.731(8)
_cell_length_b                   8.041(3)
_cell_length_c                   20.496(8)
_cell_angle_alpha                90
_cell_angle_beta                 105.895(5)
_cell_angle_gamma                90
_cell_volume                     2968.99
_cell_formula_units_Z            4
_exptl_crystal_recrystallization_method 'Solvent diffusion'
_exptl_crystal_preparation       Luminescent
loop_
_atom_site_label
_atom_site_type_symbol
_atom_site_fract_x
_atom_site_fract_y
_atom_site_fract_z
C1 C 0.26311(9) 0.3490(2) 0.48432(9)
N1 N 0.73177(7) -0.39013(19) 0.76532(8)
C2 C 0.80397(9) -0.3224(2) 0.77786(9)
C3 C 0.39918(9) 0.1935(2) 0.54743(9)
C4 C 0.32879(9) 0.4395(2) 0.50352(9)
H1 H 0.3279 0.5536 0.4959
N2 N 0.19464(7) 0.42422(19) 0.45288(8)
C5 C 0.66892(9) -0.2975(2) 0.72811(10)
C6 C 0.12671(9) 0.3433(2) 0.45323(9)
C7 C 0.26694(9) 0.1781(2) 0.49633(9)
H2 H 0.2240 0.1143 0.4832
C8 C 0.18782(8) 0.5859(2) 0.42310(9)
C9 C 0.13534(9) 0.6944(2) 0.43473(9)
H3 H 0.1064 0.6624 0.4629
C10 C 0.33383(9) 0.1023(2) 0.52743(9)
H4 H 0.3351 -0.0117 0.5351
C11 C 0.39526(9) 0.3616(2) 0.53381(9)
H5 H 0.4386 0.4244 0.5454
C12 C 0.47088(9) 0.1111(2) 0.58119(10)
C13 C 0.47744(10) -0.0251(2) 0.61893(10)
H6 H 0.4330 -0.0685 0.6234
C14 C 0.67042(10) -0.2134(2) 0.66994(10)
H7 H 0.7130 -0.2165 0.6549
C15 C 0.72003(9) -0.5458(2) 0.79351(9)
C16 C 0.16827(11) 0.8989(2) 0.36393(10)
H8 H 0.1616 1.0037 0.3439
C17 C 0.22098(11) 0.7925(3) 0.35250(10)
H9 H 0.2504 0.8261 0.3250
C18 C 0.54456(9) -0.1181(2) 0.65480(10)
C19 C 0.23071(10) 0.6364(2) 0.38147(10)
H10 H 0.2662 0.5650 0.3730
C20 C 0.66793(10) -0.6555(3) 0.75637(10)
H11 H 0.6409 -0.6278 0.7125
C21 C 0.86377(10) -0.4226(3) 0.77706(10)
H12 H 0.8566 -0.5355 0.7677
C22 C 0.12560(10) 0.8493(2) 0.40504(10)
H13 H 0.0898 0.9208 0.4129
C23 C 0.07499(10) 0.3112(2) 0.39260(10)
H14 H 0.0853 0.3366 0.3519
C24 C 0.60929(10) -0.1244(2) 0.63367(10)
H15 H 0.6113 -0.0680 0.5946
C25 C 0.81585(12) -0.1549(3) 0.79095(10)
H16 H 0.7762 -0.0858 0.7915
C26 C 0.93420(11) -0.3553(3) 0.79022(11)
H17 H 0.9743 -0.4237 0.7903
C27 C 0.76023(11) -0.5907(3) 0.85838(10)
H18 H 0.7958 -0.5188 0.8841
C28 C 0.54400(10) -0.2043(3) 0.71297(11)
H19 H 0.5012 -0.2041 0.7277
C29 C 0.53595(11) 0.1943(3) 0.57302(12)
C30 C 0.11118(11) 0.3033(3) 0.51320(11)
H20 H 0.1459 0.3249 0.5544
C31 C 0.60521(10) -0.2904(3) 0.74948(11)
H21 H 0.6038 -0.3446 0.7892
C32 C 0.00752(11) 0.2410(2) 0.39250(13)
H22 H -0.0279 0.2212 0.3516
C33 C -0.00719(12) 0.2008(3) 0.45206(16)
H23 H -0.0524 0.1523 0.4517
C34 C 0.88624(14) -0.0897(3) 0.80323(12)
H24 H 0.8937 0.0235 0.8117
C35 C 0.94539(13) -0.1895(4) 0.80306(12)
H25 H 0.9928 -0.1446 0.8116
C36 C 0.04414(13) 0.2314(3) 0.51200(14)
H26 H 0.0339 0.2035 0.5525
C37 C 0.65561(12) -0.8058(3) 0.78370(13)
H27 H 0.6200 -0.8782 0.7583
C38 C 0.69514(15) -0.8493(3) 0.84772(14)
H28 H 0.6866 -0.9509 0.8660
N3 N 0.58401(11) 0.2676(3) 0.56466(16)
C39 C 0.74741(15) -0.7423(3) 0.88486(12)
H29 H 0.7746 -0.7719 0.9284
loop_
_geom_bond_atom_site_label_1
_geom_bond_atom_site_label_2
_geom_bond_site_symmetry_1
_geom_bond_site_symmetry_2
C1 C4 1_555 1_555
N1 C2 1_555 1_555
C2 C21 1_555 1_555
C3 C10 1_555 1_555
C4 H1 1_555 1_555
N2 C1 1_555 1_555
C5 N1 1_555 1_555
C6 N2 1_555 1_555
C7 C1 1_555 1_555
H2 C7 1_555 1_555
C8 N2 1_555 1_555
C9 C8 1_555 1_555
H3 C9 1_555 1_555
C10 C7 1_555 1_555
H4 C10 1_555 1_555
C11 C3 1_555 1_555
H5 C11 1_555 1_555
C12 C3 1_555 1_555
C13 C12 1_555 1_555
H6 C13 1_555 1_555
C14 C5 1_555 1_555
H7 C14 1_555 1_555
C15 N1 1_555 1_555
C16 H8 1_555 1_555
C17 C16 1_555 1_555
H9 C17 1_555 1_555
C18 C13 1_555 1_555
C19 C8 1_555 1_555
H10 C19 1_555 1_555
C20 C15 1_555 1_555
H11 C20 1_555 1_555
C21 H12 1_555 1_555
C22 C9 1_555 1_555
H13 C22 1_555 1_555
C23 C6 1_555 1_555
H14 C23 1_555 1_555
C24 C14 1_555 1_555
H15 C24 1_555 1_555
C25 C2 1_555 1_555
H16 C25 1_555 1_555
C26 C21 1_555 1_555
H17 C26 1_555 1_555
C27 C15 1_555 1_555
H18 C27 1_555 1_555
C28 C18 1_555 1_555
H19 C28 1_555 1_555
C29 C12 1_555 1_555
C30 C6 1_555 1_555
H20 C30 1_555 1_555
C31 C5 1_555 1_555
H21 C31 1_555 1_555
C32 C23 1_555 1_555
H22 C32 1_555 1_555
C33 C32 1_555 1_555
H23 C33 1_555 1_555
C34 C25 1_555 1_555
H24 C34 1_555 1_555
C35 C26 1_555 1_555
H25 C35 1_555 1_555
C36 C30 1_555 1_555
H26 C36 1_555 1_555
C37 C20 1_555 1_555
H27 C37 1_555 1_555
C38 C37 1_555 1_555
H28 C38 1_555 1_555
N3 C29 1_555 1_555
C39 C27 1_555 1_555
H29 C39 1_555 1_555
C4 C11 1_555 1_555
C16 C22 1_555 1_555
C17 C19 1_555 1_555
C18 C24 1_555 1_555
C28 C31 1_555 1_555
C33 C36 1_555 1_555
C34 C35 1_555 1_555
C38 C39 1_555 1_555

#END
