
#######################################################################
#
#                 Cambridge Crystallographic Data Centre
#                                CCDC 
#
#######################################################################
#
# If this CIF has been generated from an entry in the Cambridge 
# Structural Database, then it will include bibliographic, chemical, 
# crystal, experimental, refinement or atomic coordinate data resulting 
# from the CCDC's data processing and validation procedures.
#
#######################################################################

data_HESPED
_chemical_formula_moiety         'C10 H8 N2 S2,2(C3 Cl3 N3)'
_chemical_name_systematic        
'2-(pyridin-2-yldisulfanyl)pyridine bis(2,4,6-trichloro-1,3,5-triazine)'
_symmetry_cell_setting           monoclinic
_symmetry_space_group_name_H-M   'C 2/c'
_symmetry_Int_Tables_number      15
_space_group_name_Hall           '-C 2yn'
loop_
_symmetry_equiv_pos_site_id
_symmetry_equiv_pos_as_xyz
1 x,y,z
2 -x,y,1/2-z
3 1/2+x,1/2+y,z
4 1/2-x,1/2+y,1/2-z
5 -x,-y,-z
6 x,-y,1/2+z
7 1/2-x,1/2-y,-z
8 1/2+x,1/2-y,1/2+z
_cell_length_a                   20.900(4)
_cell_length_b                   4.9614(10)
_cell_length_c                   24.079(5)
_cell_angle_alpha                90
_cell_angle_beta                 102.14(3)
_cell_angle_gamma                90
_cell_volume                     2440.99
_exptl_crystal_colour            'light yellow'
_exptl_crystal_description       Block
_cell_formula_units_Z            4
loop_
_atom_site_label
_atom_site_type_symbol
_atom_site_fract_x
_atom_site_fract_y
_atom_site_fract_z
Cl1 Cl 0.03299(7) 1.1018(3) 0.42051(6)
Cl2 Cl 0.10675(9) 0.3994(4) 0.58617(7)
Cl3 Cl 0.24186(7) 0.5007(4) 0.42553(6)
N1 N 0.0778(2) 0.7441(9) 0.50149(16)
N2 N 0.1331(2) 0.7667(9) 0.42697(15)
N3 N 0.1676(2) 0.4718(9) 0.50201(17)
C1 C 0.1171(3) 0.5459(11) 0.5283(2)
C2 C 0.0819(2) 0.8664(11) 0.4500(2)
C3 C 0.1778(2) 0.5849(11) 0.4524(2)
S1 S 0.03767(9) 0.5624(4) 0.28433(8)
N4 N 0.1366(2) 0.8859(11) 0.31427(18)
C4 C 0.1828(4) 1.0609(16) 0.3069(3)
H1 H 0.2155(4) 1.1077(16) 0.3380(3)
C5 C 0.1839(4) 1.1717(18) 0.2560(4)
H2 H 0.2158(4) 1.2978(18) 0.2528(4)
C6 C 0.0910(4) 0.9195(16) 0.2147(3)
H3 H 0.0591(4) 0.8674(16) 0.1836(3)
C7 C 0.1380(5) 1.0991(17) 0.2090(3)
H4 H 0.1390(5) 1.1722(17) 0.1736(3)
C8 C 0.0920(3) 0.8149(12) 0.2686(2)
S1A S -0.03767(9) 0.5624(4) 0.21567(8)
N4A N -0.1366(2) 0.8859(11) 0.18573(18)
C4A C -0.1828(4) 1.0609(16) 0.1931(3)
H1A H -0.2155(4) 1.1077(16) 0.1620(3)
C5A C -0.1839(4) 1.1717(18) 0.2440(4)
H2A H -0.2158(4) 1.2978(18) 0.2472(4)
C6A C -0.0910(4) 0.9195(16) 0.2853(3)
H3A H -0.0591(4) 0.8674(16) 0.3164(3)
C7A C -0.1380(5) 1.0991(17) 0.2910(3)
H4A H -0.1390(5) 1.1722(17) 0.3264(3)
C8A C -0.0920(3) 0.8149(12) 0.2314(2)
loop_
_geom_bond_atom_site_label_1
_geom_bond_atom_site_label_2
_geom_bond_site_symmetry_1
_geom_bond_site_symmetry_2
Cl1 C2 1_555 1_555
Cl2 C1 1_555 1_555
Cl3 C3 1_555 1_555
N1 C1 1_555 1_555
N2 C2 1_555 1_555
N3 C1 1_555 1_555
C2 N1 1_555 1_555
C3 N2 1_555 1_555
S1 C8 1_555 1_555
N4 C4 1_555 1_555
C4 H1 1_555 1_555
C5 C4 1_555 1_555
H2 C5 1_555 1_555
C6 H3 1_555 1_555
C7 C5 1_555 1_555
H4 C7 1_555 1_555
C8 N4 1_555 1_555
S1A S1 1_555 1_555
N4A C4A 1_555 1_555
C4A H1A 1_555 1_555
C5A C4A 1_555 1_555
H2A C5A 1_555 1_555
C6A H3A 1_555 1_555
C7A C5A 1_555 1_555
H4A C7A 1_555 1_555
C8A S1A 1_555 1_555
N3 C3 1_555 1_555
C6 C7 1_555 1_555
C6 C8 1_555 1_555
N4A C8A 1_555 1_555
C6A C7A 1_555 1_555
C6A C8A 1_555 1_555

#END
