
#######################################################################
#
#                 Cambridge Crystallographic Data Centre
#                                CCDC 
#
#######################################################################
#
# If this CIF has been generated from an entry in the Cambridge 
# Structural Database, then it will include bibliographic, chemical, 
# crystal, experimental, refinement or atomic coordinate data resulting 
# from the CCDC's data processing and validation procedures.
#
#######################################################################

data_HESQEC
_chemical_compound_source        
'fermentation broth of an endophytic fungus Trichoderma sp. from cabbage'
_chemical_name_common            IFB-Lactam-1
_chemical_formula_moiety         'C16 H27 N1 O3'
_chemical_name_systematic        
2,15-Dihydroxy-7-methyl-6-azabicyclo(11.3.0)hexadec-3-en-5-one
_chemical_properties_biological  
'activity against plant pathogen, Gloeosporium kaki Hori'
_symmetry_cell_setting           orthorhombic
_symmetry_space_group_name_H-M   'P 21 21 21'
_symmetry_Int_Tables_number      19
_space_group_name_Hall           'P 2ac 2ab'
loop_
_symmetry_equiv_pos_site_id
_symmetry_equiv_pos_as_xyz
1 x,y,z
2 1/2-x,-y,1/2+z
3 -x,1/2+y,1/2-z
4 1/2+x,1/2-y,-z
_cell_length_a                   7.4001(9)
_cell_length_b                   12.9986(13)
_cell_length_c                   18.860(2)
_cell_angle_alpha                90
_cell_angle_beta                 90
_cell_angle_gamma                90
_cell_volume                     1814.16
_exptl_crystal_colour            colorless
_exptl_crystal_description       prism
_cell_formula_units_Z            4
_exptl_crystal_recrystallization_method methanol
loop_
_atom_site_label
_atom_site_type_symbol
_atom_site_fract_x
_atom_site_fract_y
_atom_site_fract_z
C1 C -0.2937(8) 0.5788(5) 0.2053(3)
C2 C -0.3015(8) 0.5144(5) 0.1367(3)
H1 H -0.3544 0.4495 0.1361
C3 C -0.2289(7) 0.5556(4) 0.0777(3)
H2 H -0.1943 0.6244 0.0769
C4 C -0.2032(7) 0.4865(5) 0.0103(3)
H3 H -0.2520 0.5237 -0.0307
C5 C 0.0022(7) 0.4691(4) -0.0022(2)
H4 H 0.0494 0.4323 0.0392
C6 C 0.0404(8) 0.3974(5) -0.0716(3)
H5 H 0.0306 0.3246 -0.0612
H6 H -0.0374 0.4150 -0.1112
C7 C 0.2395(9) 0.4317(5) -0.0838(3)
H7 H 0.2732 0.4182 -0.1332
C8 C 0.2529(10) 0.5525(5) -0.0687(3)
H8 H 0.2248 0.5909 -0.1114
H9 H 0.3744 0.5703 -0.0538
C9 C 0.1110(7) 0.5801(4) -0.0072(3)
H10 H 0.0282 0.6337 -0.0240
C10 C 0.2096(8) 0.6181(5) 0.0608(3)
H11 H 0.1871 0.5657 0.0964
H12 H 0.3375 0.6142 0.0500
C11 C 0.1844(8) 0.7169(5) 0.0973(3)
H13 H 0.0567 0.7215 0.1086
H14 H 0.2081 0.7699 0.0624
C12 C 0.2863(8) 0.7492(6) 0.1647(3)
H15 H 0.3111 0.8224 0.1628
H16 H 0.4011 0.7133 0.1667
C13 C 0.1775(9) 0.7252(6) 0.2322(3)
H17 H 0.2586 0.7228 0.2725
H18 H 0.1213 0.6581 0.2274
C14 C 0.0199(9) 0.8127(6) 0.2464(4)
H19 H 0.0537 0.8575 0.2854
H20 H 0.0005 0.8542 0.2044
C15 C -0.1557(8) 0.7491(7) 0.2654(3)
H21 H -0.1314 0.7036 0.3057
C16 C -0.3078(11) 0.8329(8) 0.2869(4)
H22 H -0.3258 0.8798 0.2482
H23 H -0.2686 0.8703 0.3280
H24 H -0.4194 0.7983 0.2973
N1 N -0.2081(6) 0.6848(3) 0.2001(2)
H25 H -0.1880 0.7100 0.1587
O1 O -0.3540(8) 0.5386(5) 0.2597(2)
O2 O -0.2908(6) 0.3723(3) 0.0111(2)
H26 H -0.3897 0.3736 -0.0084
O3 O 0.3517(6) 0.3623(4) -0.0346(3)
H27 H 0.3112 0.3036 -0.0356
loop_
_geom_bond_atom_site_label_1
_geom_bond_atom_site_label_2
_geom_bond_site_symmetry_1
_geom_bond_site_symmetry_2
C1 C2 1_555 1_555
C2 H1 1_555 1_555
C3 C2 1_555 1_555
H2 C3 1_555 1_555
C4 C3 1_555 1_555
H3 C4 1_555 1_555
C5 C4 1_555 1_555
H4 C5 1_555 1_555
C6 C5 1_555 1_555
H5 C6 1_555 1_555
H6 C6 1_555 1_555
C7 C6 1_555 1_555
H7 C7 1_555 1_555
C8 C7 1_555 1_555
H8 C8 1_555 1_555
H9 C8 1_555 1_555
C9 C5 1_555 1_555
H10 C9 1_555 1_555
C10 C9 1_555 1_555
H11 C10 1_555 1_555
H12 C10 1_555 1_555
C11 C10 1_555 1_555
H13 C11 1_555 1_555
H14 C11 1_555 1_555
C12 C11 1_555 1_555
H15 C12 1_555 1_555
H16 C12 1_555 1_555
C13 C12 1_555 1_555
H17 C13 1_555 1_555
H18 C13 1_555 1_555
C14 C13 1_555 1_555
H19 C14 1_555 1_555
H20 C14 1_555 1_555
C15 C14 1_555 1_555
H21 C15 1_555 1_555
C16 C15 1_555 1_555
H22 C16 1_555 1_555
H23 C16 1_555 1_555
H24 C16 1_555 1_555
N1 C1 1_555 1_555
H25 N1 1_555 1_555
O1 C1 1_555 1_555
O2 C4 1_555 1_555
H26 O2 1_555 1_555
O3 C7 1_555 1_555
H27 O3 1_555 1_555
C8 C9 1_555 1_555
C15 N1 1_555 1_555

#END
