
#######################################################################
#
#                 Cambridge Crystallographic Data Centre
#                                CCDC 
#
#######################################################################
#
# If this CIF has been generated from an entry in the Cambridge 
# Structural Database, then it will include bibliographic, chemical, 
# crystal, experimental, refinement or atomic coordinate data resulting 
# from the CCDC's data processing and validation procedures.
#
#######################################################################

data_HESQOM
_chemical_formula_moiety         'C22 H20 N4 O5'
_chemical_name_systematic        
(E)-N'-(3-Ethoxy-4-(4-nitrobenzyloxy)benzylidene)isonicotinohydrazide
_symmetry_cell_setting           monoclinic
_symmetry_space_group_name_H-M   'P 21/c'
_symmetry_Int_Tables_number      14
_space_group_name_Hall           '-P 2ybc'
loop_
_symmetry_equiv_pos_site_id
_symmetry_equiv_pos_as_xyz
1 x,y,z
2 -x,1/2+y,1/2-z
3 -x,-y,-z
4 x,1/2-y,1/2+z
_cell_length_a                   12.454(3)
_cell_length_b                   11.163(2)
_cell_length_c                   14.923(3)
_cell_angle_alpha                90
_cell_angle_beta                 103.82(3)
_cell_angle_gamma                90
_cell_volume                     2014.6
_exptl_crystal_colour            yellow
_exptl_crystal_description       block
_cell_formula_units_Z            4
_exptl_crystal_recrystallization_method acetonitrile
loop_
_atom_site_label
_atom_site_type_symbol
_atom_site_fract_x
_atom_site_fract_y
_atom_site_fract_z
O1 O 0.3516(2) 1.31682(19) 0.51760(14)
O2 O 0.4033(2) 1.1568(2) 0.45983(13)
O3 O 0.36587(14) 0.84937(15) 0.83433(10)
O4 O 0.04552(17) 0.23123(16) 0.98289(10)
N1 N 0.38428(19) 1.2135(2) 0.52461(15)
N2 N 0.13489(15) 0.44929(16) 1.02760(12)
N3 N 0.09089(15) 0.38107(15) 1.08787(12)
H1 H 0.0910 0.4073 1.1421
N4 N -0.07039(17) 0.04034(17) 1.24635(13)
C1 C 0.3657(2) 1.1462(2) 0.76442(16)
H2 H 0.3379 1.1815 0.8107
C2 C 0.3590(2) 1.2072(2) 0.68225(17)
H3 H 0.3271 1.2830 0.6732
C3 C 0.40025(19) 1.1537(2) 0.61445(14)
C4 C 0.4510(2) 1.0439(2) 0.62733(16)
H4 H 0.4806 1.0100 0.5816
C5 C 0.45729(19) 0.9848(2) 0.70954(15)
H5 H 0.4919 0.9105 0.7191
C6 C 0.41308(18) 1.03369(19) 0.77842(14)
C7 C 0.4110(2) 0.9642(2) 0.86410(14)
H6 H 0.4851 0.9560 0.9029
H7 H 0.3654 1.0047 0.8991
C8 C 0.32823(18) 0.77871(19) 0.89525(14)
C9 C 0.2673(2) 0.6772(2) 0.85580(15)
C10 C 0.22227(18) 0.6017(2) 0.90926(15)
H8 H 0.1822 0.5352 0.8825
C11 C 0.23581(17) 0.62348(18) 1.00348(14)
C12 C 0.29787(19) 0.7212(2) 1.04240(15)
H9 H 0.3089 0.7357 1.1053
C13 C 0.34409(19) 0.7983(2) 0.98859(14)
H10 H 0.3860 0.8634 1.0159
O5 O 0.2768(3) 0.6409(3) 0.7714(3)
C14 C 0.2245(5) 0.5327(5) 0.7342(3)
H11 H 0.1476 0.5325 0.7374
H12 H 0.2612 0.4643 0.7684
C15 C 0.2329(7) 0.5269(7) 0.6347(3)
H13 H 0.1993 0.4543 0.6069
H14 H 0.3093 0.5283 0.6326
H15 H 0.1954 0.5945 0.6015
C18 C 0.18583(17) 0.5445(2) 1.06077(15)
H21 H 0.1914 0.5641 1.1223
C19 C 0.04781(19) 0.2723(2) 1.05941(14)
C20 C 0.00456(18) 0.19895(17) 1.12807(13)
C21 C -0.05697(19) 0.0979(2) 1.09540(14)
H22 H -0.0742 0.0805 1.0326
C22 C -0.09259(19) 0.0232(2) 1.15555(15)
H23 H -0.1347 -0.0432 1.1314
C23 C -0.0106(2) 0.1383(2) 1.27792(16)
H24 H 0.0061 0.1529 1.3411
C24 C 0.0276(2) 0.2186(2) 1.22249(14)
H25 H 0.0685 0.2852 1.2482
O6? O 0.2371(4) 0.6926(4) 0.7546(2)
C16? C 0.1698(4) 0.6012(5) 0.7002(3)
H16? H 0.1333 0.6337 0.6404
H17? H 0.1132 0.5755 0.7308
C17? C 0.2376(6) 0.4989(7) 0.6879(7)
H18? H 0.1919 0.4395 0.6506
H19? H 0.2718 0.4652 0.7470
H20? H 0.2937 0.5245 0.6578
loop_
_geom_bond_atom_site_label_1
_geom_bond_atom_site_label_2
_geom_bond_site_symmetry_1
_geom_bond_site_symmetry_2
O1 N1 1_555 1_555
O2 N1 1_555 1_555
O3 C7 1_555 1_555
O4 C19 1_555 1_555
N1 C3 1_555 1_555
N2 N3 1_555 1_555
N3 H1 1_555 1_555
N4 C22 1_555 1_555
C1 H2 1_555 1_555
C2 C1 1_555 1_555
H3 C2 1_555 1_555
C3 C2 1_555 1_555
C4 C3 1_555 1_555
H4 C4 1_555 1_555
C5 C4 1_555 1_555
H5 C5 1_555 1_555
C6 C1 1_555 1_555
C7 C6 1_555 1_555
H6 C7 1_555 1_555
H7 C7 1_555 1_555
C8 O3 1_555 1_555
C9 C8 1_555 1_555
C10 C9 1_555 1_555
H8 C10 1_555 1_555
C11 C10 1_555 1_555
C12 C11 1_555 1_555
H9 C12 1_555 1_555
C13 C8 1_555 1_555
H10 C13 1_555 1_555
O5 C9 1_555 1_555
C14 O5 1_555 1_555
H11 C14 1_555 1_555
H12 C14 1_555 1_555
C15 C14 1_555 1_555
H13 C15 1_555 1_555
H14 C15 1_555 1_555
H15 C15 1_555 1_555
C18 N2 1_555 1_555
H21 C18 1_555 1_555
C19 N3 1_555 1_555
C20 C19 1_555 1_555
C21 C20 1_555 1_555
H22 C21 1_555 1_555
C22 C21 1_555 1_555
H23 C22 1_555 1_555
C23 N4 1_555 1_555
H24 C23 1_555 1_555
C24 C20 1_555 1_555
H25 C24 1_555 1_555
C5 C6 1_555 1_555
C11 C18 1_555 1_555
C12 C13 1_555 1_555
C23 C24 1_555 1_555

#END
