
#######################################################################
#
#                 Cambridge Crystallographic Data Centre
#                                CCDC 
#
#######################################################################
#
# If this CIF has been generated from an entry in the Cambridge 
# Structural Database, then it will include bibliographic, chemical, 
# crystal, experimental, refinement or atomic coordinate data resulting 
# from the CCDC's data processing and validation procedures.
#
#######################################################################

data_HESTUX
_chemical_name_common            
(3S,4S,5R)-3-hydroxy-4-phenyl-5-(o-tolyl)hexanenitrile
_chemical_formula_moiety         'C19 H21 N1 O1'
_chemical_name_systematic        
3-hydroxy-5-(2-methylphenyl)-4-phenylhexanenitrile
_symmetry_cell_setting           monoclinic
_symmetry_space_group_name_H-M   'P 21/c'
_symmetry_Int_Tables_number      14
_space_group_name_Hall           '-P 2ybc'
loop_
_symmetry_equiv_pos_site_id
_symmetry_equiv_pos_as_xyz
1 x,y,z
2 -x,1/2+y,1/2-z
3 -x,-y,-z
4 x,1/2-y,1/2+z
_cell_length_a                   15.4266(2)
_cell_length_b                   8.46440(10)
_cell_length_c                   12.4244(2)
_cell_angle_alpha                90
_cell_angle_beta                 95.2030(10)
_cell_angle_gamma                90
_cell_volume                     1615.66
_exptl_crystal_colour            colorless
_exptl_crystal_description       plate
_cell_formula_units_Z            4
loop_
_atom_site_label
_atom_site_type_symbol
_atom_site_fract_x
_atom_site_fract_y
_atom_site_fract_z
O1 O 0.03953(6) 0.66834(12) 0.12086(8)
H1 H 0.0174 0.6911 0.1764
N1 N 0.03659(10) 0.25090(17) 0.18171(11)
C1 C 0.12561(7) 0.61370(13) 0.14736(9)
H2 H 0.1357 0.5994 0.2258
C2 C 0.19199(7) 0.73229(13) 0.10979(9)
H3 H 0.1812 0.7386 0.0310
C3 C 0.07828(9) 0.33730(15) 0.13886(11)
C4 C 0.17556(8) 0.90202(14) 0.15384(10)
H4 H 0.1142 0.9263 0.1332
C5 C 0.13289(8) 0.45336(14) 0.09103(11)
H5 H 0.1147 0.4641 0.0146
H6 H 0.1930 0.4181 0.0985
C6 C 0.18849(14) 0.91311(19) 0.27709(12)
H7 H 0.2470 0.8828 0.3015
H8 H 0.1483 0.8437 0.3080
H9 H 0.1784 1.0197 0.2991
C7 C 0.28517(8) 0.67847(15) 0.13311(11)
C8 C 0.34372(10) 0.7000(2) 0.05531(14)
H10 H 0.3243 0.7450 -0.0108
C9 C 0.31698(10) 0.6095(2) 0.23026(14)
H11 H 0.2796 0.5930 0.2839
C10 C 0.42960(12) 0.6560(3) 0.0740(2)
H12 H 0.4675 0.6722 0.0210
C11 C 0.40350(14) 0.5648(3) 0.2485(2)
H13 H 0.4237 0.5186 0.3140
C12 C 0.45941(12) 0.5884(3) 0.1704(2)
H14 H 0.5175 0.5587 0.1829
C13 C 0.22837(8) 1.02174(14) 0.09651(10)
C14 C 0.19802(8) 1.07649(15) -0.00659(10)
C15 C 0.11010(10) 1.03253(19) -0.05911(11)
H15 H 0.1004 1.0849 -0.1277
H16 H 0.0662 1.0642 -0.0135
H17 H 0.1073 0.9203 -0.0698
C16 C 0.24944(12) 1.18005(18) -0.06027(14)
H18 H 0.2299 1.2148 -0.1292
C17 C 0.30831(11) 1.0765(2) 0.14215(16)
H19 H 0.3290 1.0420 0.2108
C18 C 0.32872(13) 1.2323(2) -0.0135(2)
H20 H 0.3621 1.3017 -0.0505
C19 C 0.35792(12) 1.1811(3) 0.0880(2)
H21 H 0.4111 1.2166 0.1204
loop_
_geom_bond_atom_site_label_1
_geom_bond_atom_site_label_2
_geom_bond_site_symmetry_1
_geom_bond_site_symmetry_2
O1 H1 1_555 1_555
N1 C3 1_555 1_555
C1 O1 1_555 1_555
H2 C1 1_555 1_555
C2 C1 1_555 1_555
H3 C2 1_555 1_555
C3 C5 1_555 1_555
C4 C2 1_555 1_555
H4 C4 1_555 1_555
C5 C1 1_555 1_555
H5 C5 1_555 1_555
H6 C5 1_555 1_555
C6 C4 1_555 1_555
H7 C6 1_555 1_555
H8 C6 1_555 1_555
H9 C6 1_555 1_555
C7 C2 1_555 1_555
C8 C7 1_555 1_555
H10 C8 1_555 1_555
C9 C7 1_555 1_555
H11 C9 1_555 1_555
C10 C8 1_555 1_555
H12 C10 1_555 1_555
C11 C9 1_555 1_555
H13 C11 1_555 1_555
C12 C10 1_555 1_555
H14 C12 1_555 1_555
C13 C4 1_555 1_555
C14 C13 1_555 1_555
C15 C14 1_555 1_555
H15 C15 1_555 1_555
H16 C15 1_555 1_555
H17 C15 1_555 1_555
C16 C14 1_555 1_555
H18 C16 1_555 1_555
C17 C13 1_555 1_555
H19 C17 1_555 1_555
C18 C16 1_555 1_555
H20 C18 1_555 1_555
C19 C17 1_555 1_555
H21 C19 1_555 1_555
C11 C12 1_555 1_555
C18 C19 1_555 1_555

#END
