
#######################################################################
#
#                 Cambridge Crystallographic Data Centre
#                                CCDC 
#
#######################################################################
#
# If this CIF has been generated from an entry in the Cambridge 
# Structural Database, then it will include bibliographic, chemical, 
# crystal, experimental, refinement or atomic coordinate data resulting 
# from the CCDC's data processing and validation procedures.
#
#######################################################################

data_HESXUB
_chemical_formula_moiety         'C33 H36 B2 N2 O2'
_chemical_name_systematic        
2-[3,3-bis(4-methylphenyl)-2-(4,4,5,5-tetramethyl-1,3,2-dioxaborolan-2-yl)prop-2-en-1-yl]-2,3-dihydro-1H-naphtho[1,8-de][1,3,2]diazaborinine
_symmetry_cell_setting           triclinic
_symmetry_space_group_name_H-M   'P -1'
_symmetry_Int_Tables_number      2
_space_group_name_Hall           '-P 1'
loop_
_symmetry_equiv_pos_site_id
_symmetry_equiv_pos_as_xyz
1 x,y,z
2 -x,-y,-z
_cell_length_a                   9.8967(11)
_cell_length_b                   12.4580(14)
_cell_length_c                   12.4762(13)
_cell_angle_alpha                90.192(9)
_cell_angle_beta                 104.413(9)
_cell_angle_gamma                108.885(10)
_cell_volume                     1403.7
_exptl_crystal_colour            colorless
_exptl_crystal_description       plate
_cell_formula_units_Z            2
_exptl_crystal_recrystallization_method hexane
loop_
_atom_site_label
_atom_site_type_symbol
_atom_site_fract_x
_atom_site_fract_y
_atom_site_fract_z
O1 O 0.5419(3) 0.5378(2) 0.67409(15)
O2 O 0.6973(3) 0.5656(2) 0.84806(13)
N1 N 0.22066(18) 0.43179(15) 0.90917(12)
H1 H 0.2547 0.4422 0.9820
N2 N 0.22880(18) 0.49571(15) 0.72840(12)
H2 H 0.2674 0.5475 0.6867
C1 C 0.5141(2) 0.67684(17) 0.81525(14)
C2 C 0.51335(19) 0.77559(16) 0.77198(14)
C3 C 0.4306(2) 0.62398(17) 0.89971(14)
H3 H 0.3979 0.6813 0.9311
H4 H 0.4980 0.6016 0.9613
C4 C 0.6015(3) 0.4436(2) 0.68429(18)
C5 C 0.7410(3) 0.4901(2) 0.78461(17)
C6 C 0.4829(3) 0.3411(2) 0.7109(3)
H5 H 0.4634 0.3599 0.7807
H6 H 0.5178 0.2756 0.7186
H7 H 0.3916 0.3222 0.6507
C7 C 0.6336(3) 0.4199(2) 0.57626(16)
H8 H 0.5420 0.3992 0.5161
H9 H 0.6733 0.3569 0.5824
H10 H 0.7064 0.4881 0.5601
C8 C 0.7759(3) 0.4000(2) 0.85766(18)
H11 H 0.8569 0.4370 0.9235
H12 H 0.8054 0.3488 0.8157
H13 H 0.6878 0.3561 0.8808
C9 C 0.8771(3) 0.5638(2) 0.7490(2)
H14 H 0.8515 0.6216 0.7031
H15 H 0.9095 0.5155 0.7060
H16 H 0.9573 0.6013 0.8152
C10 C 0.1013(2) 0.33414(18) 0.86282(15)
C11 C 0.0338(2) 0.25477(18) 0.92728(16)
H17 H 0.0687 0.2665 1.0060
C12 C -0.0858(2) 0.15722(19) 0.87706(17)
H18 H -0.1308 0.1034 0.9224
C13 C -0.1396(2) 0.13789(19) 0.76292(17)
H19 H -0.2202 0.0709 0.7305
C14 C -0.0748(2) 0.21775(18) 0.69414(16)
C15 C -0.1276(2) 0.20235(19) 0.57672(17)
H20 H -0.2078 0.1360 0.5420
C16 C -0.0641(2) 0.2822(2) 0.51298(16)
H21 H -0.1010 0.2706 0.4344
C17 C 0.0551(2) 0.3813(2) 0.56172(16)
H22 H 0.0973 0.4361 0.5160
C18 C 0.1109(2) 0.39923(18) 0.67603(15)
C19 C 0.0461(2) 0.31694(17) 0.74455(15)
C20 C 0.4335(2) 0.84859(18) 0.80339(14)
C21 C 0.5102(2) 0.96429(18) 0.83517(16)
H23 H 0.6115 0.9947 0.8352
C22 C 0.4421(3) 1.0357(2) 0.86656(17)
H24 H 0.4975 1.1138 0.8888
C23 C 0.2932(3) 0.9941(2) 0.86580(16)
C24 C 0.2160(3) 0.8799(2) 0.83262(17)
H25 H 0.1140 0.8503 0.8305
C25 C 0.2841(2) 0.80747(19) 0.80241(16)
H26 H 0.2286 0.7292 0.7809
C26 C 0.2199(4) 1.0732(3) 0.8984(2)
H27 H 0.2192 1.1307 0.8450
H28 H 0.2749 1.1109 0.9729
H29 H 0.1179 1.0294 0.8985
C27 C 0.5953(2) 0.81898(16) 0.68687(15)
C28 C 0.7376(2) 0.81750(18) 0.69649(16)
H30 H 0.7891 0.7945 0.7623
C29 C 0.8059(2) 0.84928(19) 0.61101(17)
H31 H 0.9026 0.8463 0.6188
C30 C 0.7348(2) 0.88542(18) 0.51410(16)
C31 C 0.5945(2) 0.89096(18) 0.50616(15)
H32 H 0.5447 0.9171 0.4417
C32 C 0.5263(2) 0.85874(18) 0.59140(15)
H33 H 0.4309 0.8639 0.5845
C33 C 0.8072(3) 0.9190(2) 0.42081(17)
H34 H 0.7309 0.9115 0.3512
H35 H 0.8639 0.8691 0.4136
H36 H 0.8738 0.9982 0.4369
B1 B 0.5890(2) 0.59571(19) 0.77671(16)
B2 B 0.2903(2) 0.51516(19) 0.84566(17)
O3? O 0.608(2) 0.5774(17) 0.6780(11)
O4? O 0.624(2) 0.5173(14) 0.8525(9)
C34? C 0.6967(17) 0.5019(15) 0.6898(12)
C35? C 0.649(2) 0.4298(14) 0.7851(13)
H37? H 0.4238 0.3051 0.7617
H38? H 0.4970 0.2823 0.6669
H39? H 0.4313 0.3844 0.6612
H40? H 0.5292 0.3755 0.5677
H41? H 0.6904 0.3681 0.5785
H42? H 0.6428 0.4660 0.5133
H43? H 0.8644 0.4683 0.8779
H44? H 0.7959 0.3418 0.8171
H45? H 0.7498 0.3705 0.9252
H46? H 0.9193 0.6239 0.7044
H47? H 0.9267 0.5068 0.7535
H48? H 0.8915 0.5971 0.8240
loop_
_geom_bond_atom_site_label_1
_geom_bond_atom_site_label_2
_geom_bond_site_symmetry_1
_geom_bond_site_symmetry_2
O1 C4 1_555 1_555
O2 C5 1_555 1_555
N1 H1 1_555 1_555
N2 H2 1_555 1_555
C1 C2 1_555 1_555
C2 C20 1_555 1_555
C3 C1 1_555 1_555
H3 C3 1_555 1_555
H4 C3 1_555 1_555
C4 C5 1_555 1_555
C5 C8 1_555 1_555
C6 C4 1_555 1_555
H5 C6 1_555 1_555
H6 C6 1_555 1_555
H7 C6 1_555 1_555
C7 C4 1_555 1_555
H8 C7 1_555 1_555
H9 C7 1_555 1_555
H10 C7 1_555 1_555
C8 H11 1_555 1_555
H12 C8 1_555 1_555
H13 C8 1_555 1_555
C9 C5 1_555 1_555
H14 C9 1_555 1_555
H15 C9 1_555 1_555
H16 C9 1_555 1_555
C10 N1 1_555 1_555
C11 C10 1_555 1_555
H17 C11 1_555 1_555
C12 C11 1_555 1_555
H18 C12 1_555 1_555
C13 C12 1_555 1_555
H19 C13 1_555 1_555
C14 C13 1_555 1_555
C15 C14 1_555 1_555
H20 C15 1_555 1_555
C16 C15 1_555 1_555
H21 C16 1_555 1_555
C17 C16 1_555 1_555
H22 C17 1_555 1_555
C18 N2 1_555 1_555
C19 C10 1_555 1_555
C20 C21 1_555 1_555
C21 H23 1_555 1_555
C22 C21 1_555 1_555
H24 C22 1_555 1_555
C23 C22 1_555 1_555
C24 C23 1_555 1_555
H25 C24 1_555 1_555
C25 C20 1_555 1_555
H26 C25 1_555 1_555
C26 C23 1_555 1_555
H27 C26 1_555 1_555
H28 C26 1_555 1_555
H29 C26 1_555 1_555
C27 C2 1_555 1_555
C28 C27 1_555 1_555
H30 C28 1_555 1_555
C29 C28 1_555 1_555
H31 C29 1_555 1_555
C30 C29 1_555 1_555
C31 C30 1_555 1_555
H32 C31 1_555 1_555
C32 C27 1_555 1_555
H33 C32 1_555 1_555
C33 C30 1_555 1_555
H34 C33 1_555 1_555
H35 C33 1_555 1_555
H36 C33 1_555 1_555
B1 O1 1_555 1_555
B2 N1 1_555 1_555
O2 B1 1_555 1_555
N2 B2 1_555 1_555
C1 B1 1_555 1_555
C3 B2 1_555 1_555
C14 C19 1_555 1_555
C17 C18 1_555 1_555
C18 C19 1_555 1_555
C24 C25 1_555 1_555
C31 C32 1_555 1_555

#END
