
#######################################################################
#
#                 Cambridge Crystallographic Data Centre
#                                CCDC 
#
#######################################################################
#
# If this CIF has been generated from an entry in the Cambridge 
# Structural Database, then it will include bibliographic, chemical, 
# crystal, experimental, refinement or atomic coordinate data resulting 
# from the CCDC's data processing and validation procedures.
#
#######################################################################

data_HETFEU
_chemical_formula_moiety         'C27 H24'
_chemical_name_systematic        
4b-methyl-9,10-diphenyl-4b,5,6,7-tetrahydrobenzo[a]azulene
_symmetry_cell_setting           triclinic
_symmetry_space_group_name_H-M   'P -1'
_symmetry_Int_Tables_number      2
_space_group_name_Hall           '-P 1'
loop_
_symmetry_equiv_pos_site_id
_symmetry_equiv_pos_as_xyz
1 x,y,z
2 -x,-y,-z
_cell_length_a                   9.7501(8)
_cell_length_b                   10.4858(8)
_cell_length_c                   11.3735(9)
_cell_angle_alpha                109.080(7)
_cell_angle_beta                 103.390(7)
_cell_angle_gamma                105.568(7)
_cell_volume                     991.353
_exptl_crystal_colour            colorless
_exptl_crystal_description       block
_cell_formula_units_Z            2
loop_
_atom_site_label
_atom_site_type_symbol
_atom_site_fract_x
_atom_site_fract_y
_atom_site_fract_z
C1 C 0.77559(16) 0.47607(17) 0.20057(15)
C2 C 0.79439(17) 0.33511(16) 0.15066(16)
C3 C 0.87640(18) 0.60960(17) 0.20220(15)
C4 C 0.67075(18) 0.50598(19) 0.25309(16)
C5 C 0.99712(19) 0.63395(19) 0.15732(17)
H1 H 1.0266 0.5581 0.1180
C6 C 0.67365(19) 0.20928(18) 0.05895(17)
H2 H 0.5790 0.2133 0.0259
C7 C 0.8322(2) 0.72357(19) 0.26104(18)
C8 C 0.60651(19) 0.31889(19) 0.34968(16)
C9 C 0.93470(19) 0.32494(19) 0.19675(19)
H3 H 1.0180 0.4083 0.2575
C10 C 0.55605(19) 0.4058(2) 0.28049(18)
C11 C 0.6952(2) 0.6670(2) 0.29653(19)
C12 C 0.7548(2) 0.3679(2) 0.43532(18)
H4 H 0.8238 0.4579 0.4516
C13 C 1.0731(2) 0.7730(2) 0.1719(2)
H5 H 1.1538 0.7906 0.1414
C14 C 0.6922(2) 0.0774(2) 0.0158(2)
H6 H 0.6101 -0.0063 -0.0462
C15 C 0.5079(2) 0.1838(2) 0.3290(2)
H7 H 0.4078 0.1477 0.2721
C16 C 0.9518(2) 0.1932(2) 0.1537(2)
H8 H 1.0462 0.1884 0.1857
C17 C 0.9101(3) 0.8623(2) 0.2758(2)
H9 H 0.8817 0.9389 0.3153
C18 C 0.8308(3) 0.0693(2) 0.0640(2)
H10 H 0.8424 -0.0197 0.0359
C19 C 1.0309(3) 0.8855(2) 0.2309(2)
H11 H 1.0842 0.9786 0.2408
C20 C 0.8018(3) 0.2854(3) 0.4969(2)
H12 H 0.9017 0.3202 0.5539
C21 C 0.5554(3) 0.1024(2) 0.3910(2)
H13 H 0.4872 0.0125 0.3759
C22 C 0.4113(2) 0.3960(3) 0.2472(3)
H14 H 0.3481 0.3399 0.2764
C23 C 0.7021(3) 0.1528(3) 0.4744(2)
H15 H 0.7340 0.0973 0.5157
C24 C 0.7300(3) 0.7402(3) 0.4466(2)
H16 H 0.6453 0.6949 0.4678
H17 H 0.7476 0.8417 0.4728
H18 H 0.8190 0.7298 0.4933
C25 C 0.5609(3) 0.6922(3) 0.2151(3)
H19 H 0.5871 0.7963 0.2445
H20 H 0.5524 0.6532 0.1226
C26 C 0.3406(3) 0.4658(4) 0.1677(3)
H21 H 0.3463 0.4269 0.0797
H22 H 0.2338 0.4367 0.1573
C27 C 0.4077(3) 0.6281(4) 0.2223(4)
H23 H 0.4155 0.6672 0.3146
H24 H 0.3379 0.6602 0.1747
loop_
_geom_bond_atom_site_label_1
_geom_bond_atom_site_label_2
_geom_bond_site_symmetry_1
_geom_bond_site_symmetry_2
C1 C2 1_555 1_555
C2 C6 1_555 1_555
C3 C1 1_555 1_555
C4 C1 1_555 1_555
C5 C3 1_555 1_555
H1 C5 1_555 1_555
C6 H2 1_555 1_555
C7 C3 1_555 1_555
C8 C10 1_555 1_555
C9 C2 1_555 1_555
H3 C9 1_555 1_555
C10 C4 1_555 1_555
C11 C4 1_555 1_555
C12 C8 1_555 1_555
H4 C12 1_555 1_555
C13 C5 1_555 1_555
H5 C13 1_555 1_555
C14 C6 1_555 1_555
H6 C14 1_555 1_555
C15 C8 1_555 1_555
H7 C15 1_555 1_555
C16 C9 1_555 1_555
H8 C16 1_555 1_555
C17 C7 1_555 1_555
H9 C17 1_555 1_555
C18 C14 1_555 1_555
H10 C18 1_555 1_555
C19 C13 1_555 1_555
H11 C19 1_555 1_555
C20 C12 1_555 1_555
H12 C20 1_555 1_555
C21 C15 1_555 1_555
H13 C21 1_555 1_555
C22 C10 1_555 1_555
H14 C22 1_555 1_555
C23 C20 1_555 1_555
H15 C23 1_555 1_555
C24 C11 1_555 1_555
H16 C24 1_555 1_555
H17 C24 1_555 1_555
H18 C24 1_555 1_555
C25 C11 1_555 1_555
H19 C25 1_555 1_555
H20 C25 1_555 1_555
C26 C22 1_555 1_555
H21 C26 1_555 1_555
H22 C26 1_555 1_555
C27 C25 1_555 1_555
H23 C27 1_555 1_555
H24 C27 1_555 1_555
C7 C11 1_555 1_555
C16 C18 1_555 1_555
C17 C19 1_555 1_555
C21 C23 1_555 1_555
C26 C27 1_555 1_555

#END
