
#######################################################################
#
#                 Cambridge Crystallographic Data Centre
#                                CCDC 
#
#######################################################################
#
# If this CIF has been generated from an entry in the Cambridge 
# Structural Database, then it will include bibliographic, chemical, 
# crystal, experimental, refinement or atomic coordinate data resulting 
# from the CCDC's data processing and validation procedures.
#
#######################################################################

data_HETJIA
_chemical_formula_moiety         'C43 H40 N2 O4 S2'
_chemical_name_systematic        
10,14-Dithia-4,8,16,20-tetraoxa-1,2(2,6)dipyridina-3,9,15,21(1,4)-tetrabenzenacyclouncosaphane
_symmetry_cell_setting           monoclinic
_symmetry_space_group_name_H-M   'C 2/c'
_symmetry_Int_Tables_number      15
_space_group_name_Hall           '-C 2yn'
loop_
_symmetry_equiv_pos_site_id
_symmetry_equiv_pos_as_xyz
1 x,y,z
2 1/2+x,1/2+y,z
3 -x,y,1/2-z
4 1/2-x,1/2+y,1/2-z
5 -x,-y,-z
6 1/2-x,1/2-y,-z
7 x,-y,1/2+z
8 1/2+x,1/2-y,1/2+z
_cell_length_a                   30.3816(6)
_cell_length_b                   11.2772(3)
_cell_length_c                   10.8839(3)
_cell_angle_alpha                90
_cell_angle_beta                 106.019(5)
_cell_angle_gamma                90
_cell_volume                     3584.24
_exptl_crystal_colour            colorless
_exptl_crystal_description       prism
_cell_formula_units_Z            4
_exptl_crystal_recrystallization_method 'dichloromethane/diethyl ether'
loop_
_atom_site_label
_atom_site_type_symbol
_atom_site_fract_x
_atom_site_fract_y
_atom_site_fract_z
C1 C 0.00053(5) 0.6569(1) 0.3191(1)
C2 C -0.04001(5) 0.6692(2) 0.3555(2)
C3 C -0.03719(5) 0.6651(2) 0.4834(2)
C4 C 0.00489(6) 0.6511(2) 0.5708(2)
C5 C 0.04419(5) 0.6409(1) 0.5282(2)
N1 N 0.04156(4) 0.6434(1) 0.4029(1)
C6 C 0.09041(5) 0.6291(1) 0.6182(2)
C7 C 0.09749(5) 0.5826(2) 0.7415(2)
C8 C 0.14064(6) 0.5721(2) 0.8235(2)
C9 C 0.17839(5) 0.6087(2) 0.7848(2)
C10 C 0.17235(5) 0.6535(2) 0.6629(2)
C11 C 0.12892(5) 0.6640(2) 0.5806(2)
O1 O 0.22279(4) 0.6086(1) 0.8645(1)
C12 C 0.23984(6) 0.5044(2) 0.9389(2)
C13 C 0.26468(6) 0.4249(2) 0.8697(2)
C14 C 0.23436(5) 0.3615(2) 0.7539(2)
O2 O 0.20750(4) 0.2782(1) 0.8016(1)
C15 C 0.17637(5) 0.2103(2) 0.7156(1)
C16 C 0.16947(5) 0.2139(1) 0.5838(1)
C17 C 0.13746(5) 0.1385(2) 0.5063(1)
C18 C 0.11163(5) 0.0605(1) 0.5571(1)
C19 C 0.11883(5) 0.0593(2) 0.6893(2)
C20 C 0.15088(5) 0.1326(2) 0.7674(1)
S1 S 0.07203(1) -0.04225(4) 0.46307(4)
C21 C 0.03234(5) 0.0536(1) 0.3513(2)
C22 C 0.0000 -0.0220(2) 0.2500
H1 H -0.0686 0.6800 0.2934
H2 H -0.0641 0.6720 0.5114
H3 H 0.0073 0.6482 0.6596
H4 H 0.0719 0.5579 0.7690
H5 H 0.1447 0.5397 0.9065
H6 H 0.1982 0.6770 0.6357
H7 H 0.1251 0.6954 0.4973
H8 H 0.2148 0.4623 0.9544
H9 H 0.2603 0.5278 1.0180
H10 H 0.2806 0.3665 0.9283
H11 H 0.2861 0.4718 0.8420
H12 H 0.2526 0.3213 0.7089
H13 H 0.2150 0.4168 0.6984
H14 H 0.1865 0.2675 0.5473
H15 H 0.1331 0.1401 0.4165
H16 H 0.1014 0.0072 0.7260
H17 H 0.1556 0.1300 0.8573
H18 H 0.0489 0.1056 0.3118
H19 H 0.0152 0.0987 0.3957
H20 H -0.0176 -0.0706 0.2900
C1B C -0.00053(5) 0.6569(1) 0.1809(1)
C2B C 0.04001(5) 0.6692(2) 0.1445(2)
C3B C 0.03719(5) 0.6651(2) 0.0166(2)
C4B C -0.00489(6) 0.6511(2) -0.0708(2)
C5B C -0.04419(5) 0.6409(1) -0.0282(2)
N1B N -0.04156(4) 0.6434(1) 0.0971(1)
C6B C -0.09041(5) 0.6291(1) -0.1182(2)
C7B C -0.09749(5) 0.5826(2) -0.2415(2)
C8B C -0.14064(6) 0.5721(2) -0.3235(2)
C9B C -0.17839(5) 0.6087(2) -0.2848(2)
C10B C -0.17235(5) 0.6535(2) -0.1629(2)
C11B C -0.12892(5) 0.6640(2) -0.0806(2)
O1B O -0.22279(4) 0.6086(1) -0.3645(1)
C12B C -0.23984(6) 0.5044(2) -0.4389(2)
C13B C -0.26468(6) 0.4249(2) -0.3697(2)
C14B C -0.23436(5) 0.3615(2) -0.2539(2)
O2B O -0.20750(4) 0.2782(1) -0.3016(1)
C15B C -0.17637(5) 0.2103(2) -0.2156(1)
C16B C -0.16947(5) 0.2139(1) -0.0838(1)
C17B C -0.13746(5) 0.1385(2) -0.0063(1)
C18B C -0.11163(5) 0.0605(1) -0.0571(1)
C19B C -0.11883(5) 0.0593(2) -0.1893(2)
C20B C -0.15088(5) 0.1326(2) -0.2674(1)
S1B S -0.07203(1) -0.04225(4) 0.03693(4)
C21B C -0.03234(5) 0.0536(1) 0.1487(2)
H1B H 0.0686 0.6800 0.2066
H2B H 0.0641 0.6720 -0.0114
H3B H -0.0073 0.6482 -0.1596
H4B H -0.0719 0.5579 -0.2690
H5B H -0.1447 0.5397 -0.4065
H6B H -0.1982 0.6770 -0.1357
H7B H -0.1251 0.6954 0.0027
H8B H -0.2148 0.4623 -0.4544
H9B H -0.2603 0.5278 -0.5180
H10B H -0.2806 0.3665 -0.4283
H11B H -0.2861 0.4718 -0.3420
H12B H -0.2526 0.3213 -0.2089
H13B H -0.2150 0.4168 -0.1984
H14B H -0.1865 0.2675 -0.0473
H15B H -0.1331 0.1401 0.0835
H16B H -0.1014 0.0072 -0.2260
H17B H -0.1556 0.1300 -0.3573
H18B H -0.0489 0.1056 0.1882
H19B H -0.0152 0.0987 0.1043
H20B H 0.0176 -0.0706 0.2100
loop_
_geom_bond_atom_site_label_1
_geom_bond_atom_site_label_2
_geom_bond_site_symmetry_1
_geom_bond_site_symmetry_2
C1 C2 1_555 1_555
C2 C3 1_555 1_555
C3 C4 1_555 1_555
C4 C5 1_555 1_555
C5 N1 1_555 1_555
N1 C1 1_555 1_555
C6 C5 1_555 1_555
C7 C6 1_555 1_555
C8 C7 1_555 1_555
C9 C8 1_555 1_555
C10 C9 1_555 1_555
C11 C6 1_555 1_555
O1 C9 1_555 1_555
C12 O1 1_555 1_555
C13 C12 1_555 1_555
C14 C13 1_555 1_555
O2 C14 1_555 1_555
C15 O2 1_555 1_555
C16 C15 1_555 1_555
C17 C16 1_555 1_555
C18 C17 1_555 1_555
C19 C18 1_555 1_555
C20 C15 1_555 1_555
S1 C18 1_555 1_555
C21 S1 1_555 1_555
C22 C21 1_555 1_555
H1 C2 1_555 1_555
H2 C3 1_555 1_555
H3 C4 1_555 1_555
H4 C7 1_555 1_555
H5 C8 1_555 1_555
H6 C10 1_555 1_555
H7 C11 1_555 1_555
H8 C12 1_555 1_555
H9 C12 1_555 1_555
H10 C13 1_555 1_555
H11 C13 1_555 1_555
H12 C14 1_555 1_555
H13 C14 1_555 1_555
H14 C16 1_555 1_555
H15 C17 1_555 1_555
H16 C19 1_555 1_555
H17 C20 1_555 1_555
H18 C21 1_555 1_555
H19 C21 1_555 1_555
H20 C22 1_555 1_555
C1B C1 1_555 1_555
C2B C1B 1_555 1_555
C3B C2B 1_555 1_555
C4B C3B 1_555 1_555
C5B C4B 1_555 1_555
N1B C1B 1_555 1_555
C6B C5B 1_555 1_555
C7B C6B 1_555 1_555
C8B C7B 1_555 1_555
C9B C8B 1_555 1_555
C10B C9B 1_555 1_555
C11B C6B 1_555 1_555
O1B C9B 1_555 1_555
C12B O1B 1_555 1_555
C13B C12B 1_555 1_555
C14B C13B 1_555 1_555
O2B C14B 1_555 1_555
C15B O2B 1_555 1_555
C16B C15B 1_555 1_555
C17B C16B 1_555 1_555
C18B C17B 1_555 1_555
C19B C18B 1_555 1_555
C20B C15B 1_555 1_555
S1B C18B 1_555 1_555
C21B C22 1_555 1_555
H1B C2B 1_555 1_555
H2B C3B 1_555 1_555
H3B C4B 1_555 1_555
H4B C7B 1_555 1_555
H5B C8B 1_555 1_555
H6B C10B 1_555 1_555
H7B C11B 1_555 1_555
H8B C12B 1_555 1_555
H9B C12B 1_555 1_555
H10B C13B 1_555 1_555
H11B C13B 1_555 1_555
H12B C14B 1_555 1_555
H13B C14B 1_555 1_555
H14B C16B 1_555 1_555
H15B C17B 1_555 1_555
H16B C19B 1_555 1_555
H17B C20B 1_555 1_555
H18B C21B 1_555 1_555
H19B C21B 1_555 1_555
H20B C22 1_555 1_555
C10 C11 1_555 1_555
C19 C20 1_555 1_555
C5B N1B 1_555 1_555
C10B C11B 1_555 1_555
C19B C20B 1_555 1_555
S1B C21B 1_555 1_555

#END
