
#######################################################################
#
#                 Cambridge Crystallographic Data Centre
#                                CCDC 
#
#######################################################################
#
# If this CIF has been generated from an entry in the Cambridge 
# Structural Database, then it will include bibliographic, chemical, 
# crystal, experimental, refinement or atomic coordinate data resulting 
# from the CCDC's data processing and validation procedures.
#
#######################################################################

data_HETWOV
_chemical_name_common            
10-t-butylbenzo[7,8]corannuleno[1',2':1,2]indolizino[6,5,4,3-def]phenanthridine
_chemical_formula_moiety         'C44 H27 N1'
_chemical_name_systematic        
6-t-butylbenzo[7,8]dibenzo[1',10':6',7']fluorantheno[2',3':1,2]indolizino[6,5,4,3-def]phenanthridine
_symmetry_cell_setting           monoclinic
_symmetry_space_group_name_H-M   'C 2/c'
_symmetry_Int_Tables_number      15
_space_group_name_Hall           '-C 2yn'
loop_
_symmetry_equiv_pos_site_id
_symmetry_equiv_pos_as_xyz
1 x,y,z
2 -x,y,1/2-z
3 1/2+x,1/2+y,z
4 1/2-x,1/2+y,1/2-z
5 -x,-y,-z
6 x,-y,1/2+z
7 1/2-x,1/2-y,-z
8 1/2+x,1/2-y,1/2+z
_cell_length_a                   48.26(2)
_cell_length_b                   14.871(7)
_cell_length_c                   7.623(4)
_cell_angle_alpha                90
_cell_angle_beta                 98.844(8)
_cell_angle_gamma                90
_cell_volume                     5405.79
_exptl_crystal_colour            yellow
_exptl_crystal_description       Block
_cell_formula_units_Z            8
_exptl_crystal_recrystallization_method 'carbon disulfide/hexane'
loop_
_atom_site_label
_atom_site_type_symbol
_atom_site_fract_x
_atom_site_fract_y
_atom_site_fract_z
N1 N 0.63533(6) 0.53361(19) 0.7028(3)
C1 C 0.56741(7) 0.7802(2) 0.4734(4)
H1 H 0.557637 0.835418 0.449394
C2 C 0.55380(8) 0.2464(3) 0.4523(4)
C3 C 0.52289(8) 0.3682(3) 0.4610(5)
H2 H 0.504454 0.392372 0.445266
C4 C 0.59208(8) 0.1631(2) 0.5748(4)
C5 C 0.62530(7) 0.3865(2) 0.6679(4)
C6 C 0.67711(7) 0.6070(2) 0.8487(4)
C7 C 0.54551(7) 0.4265(3) 0.4964(5)
H3 H 0.541980 0.488726 0.510058
C8 C 0.57704(7) 0.3056(2) 0.4860(4)
C9 C 0.55646(8) 0.7010(3) 0.3953(5)
H4 H 0.539596 0.702743 0.312604
C10 C 0.65062(7) 0.7733(2) 0.7821(4)
H5 H 0.641347 0.829572 0.762865
C11 C 0.69027(7) 0.5187(2) 0.8822(4)
C12 C 0.57425(8) 0.3960(2) 0.5133(4)
C13 C 0.64954(7) 0.6131(2) 0.7595(4)
C14 C 0.54520(8) 0.0936(3) 0.5584(5)
C15 C 0.56305(8) 0.1583(2) 0.5070(4)
C16 C 0.59470(7) 0.6159(2) 0.5584(4)
C17 C 0.69515(8) 0.8583(3) 0.9066(5)
C18 C 0.60101(8) 0.2532(2) 0.5630(5)
C19 C 0.63572(7) 0.6947(2) 0.7264(4)
C20 C 0.52630(8) 0.2734(3) 0.4473(5)
C21 C 0.60714(7) 0.6969(2) 0.6263(4)
C22 C 0.60083(7) 0.4397(2) 0.5883(4)
C23 C 0.63849(8) 0.2232(2) 0.7943(5)
H6 H 0.654957 0.241755 0.870435
C24 C 0.62377(8) 0.2880(2) 0.6744(5)
C25 C 0.71152(8) 0.8557(3) 1.0973(5)
H7 H 0.698290 0.850517 1.182307
H8 H 0.722449 0.911131 1.120669
H9 H 0.724198 0.803852 1.109963
C26 C 0.56969(8) 0.6198(2) 0.4359(5)
H10 H 0.561905 0.566245 0.380951
C27 C 0.59258(8) 0.7779(2) 0.5859(5)
H11 H 0.600292 0.832312 0.637440
C28 C 0.60819(7) 0.5311(2) 0.6113(4)
C29 C 0.67579(7) 0.4400(2) 0.8155(4)
C30 C 0.69122(7) 0.6878(2) 0.8969(4)
H12 H 0.710157 0.685347 0.953652
C31 C 0.67838(8) 0.7721(2) 0.8643(5)
C32 C 0.69057(7) 0.3590(2) 0.8242(4)
H13 H 0.681650 0.307300 0.768092
C33 C 0.51586(8) 0.1177(3) 0.5264(5)
H14 H 0.502307 0.073479 0.542984
C34 C 0.71737(8) 0.3516(3) 0.9107(5)
H15 H 0.726798 0.295391 0.915269
C35 C 0.73086(8) 0.4267(3) 0.9921(5)
H16 H 0.749048 0.421314 1.059491
C36 C 0.64632(7) 0.4478(2) 0.7344(4)
C37 C 0.62967(8) 0.1350(2) 0.8035(5)
H17 H 0.640644 0.094816 0.882587
C38 C 0.55920(8) 0.0215(3) 0.6636(5)
H18 H 0.548767 -0.029984 0.687829
C39 C 0.71592(8) 0.8664(3) 0.7734(5)
H19 H 0.728866 0.815262 0.787901
H20 H 0.726568 0.922512 0.795222
H21 H 0.705580 0.866767 0.652282
C40 C 0.71764(8) 0.5092(3) 0.9744(5)
H22 H 0.727277 0.560769 1.025717
C41 C 0.67656(8) 0.9417(3) 0.8927(5)
H23 H 0.667635 0.949805 0.769260
H24 H 0.688011 0.994625 0.931153
H25 H 0.662076 0.934386 0.968686
C42 C 0.50690(8) 0.2023(3) 0.4730(5)
H26 H 0.487349 0.214538 0.452300
C43 C 0.58740(8) 0.0259(3) 0.7297(5)
H27 H 0.595841 -0.022936 0.798524
C44 C 0.60463(8) 0.1021(3) 0.6980(5)
loop_
_geom_bond_atom_site_label_1
_geom_bond_atom_site_label_2
_geom_bond_site_symmetry_1
_geom_bond_site_symmetry_2
N1 C13 1_555 1_555
C1 H1 1_555 1_555
C2 C8 1_555 1_555
C3 H2 1_555 1_555
C4 C15 1_555 1_555
C5 C22 1_555 1_555
C6 C11 1_555 1_555
C7 C3 1_555 1_555
H3 C7 1_555 1_555
C8 C12 1_555 1_555
C9 C1 1_555 1_555
H4 C9 1_555 1_555
C10 H5 1_555 1_555
C11 C29 1_555 1_555
C12 C7 1_555 1_555
C13 C6 1_555 1_555
C14 C15 1_555 1_555
C15 C2 1_555 1_555
C16 C21 1_555 1_555
C17 C25 1_555 1_555
C18 C4 1_555 1_555
C19 C10 1_555 1_555
C20 C2 1_555 1_555
C21 C19 1_555 1_555
C22 C12 1_555 1_555
C23 H6 1_555 1_555
C24 C5 1_555 1_555
C25 H7 1_555 1_555
H8 C25 1_555 1_555
H9 C25 1_555 1_555
C26 C9 1_555 1_555
H10 C26 1_555 1_555
C27 C1 1_555 1_555
H11 C27 1_555 1_555
C28 N1 1_555 1_555
C29 C32 1_555 1_555
C30 C6 1_555 1_555
H12 C30 1_555 1_555
C31 C10 1_555 1_555
C32 H13 1_555 1_555
C33 C14 1_555 1_555
H14 C33 1_555 1_555
C34 C32 1_555 1_555
H15 C34 1_555 1_555
C35 C34 1_555 1_555
H16 C35 1_555 1_555
C36 N1 1_555 1_555
C37 C23 1_555 1_555
H17 C37 1_555 1_555
C38 C14 1_555 1_555
H18 C38 1_555 1_555
C39 C17 1_555 1_555
H19 C39 1_555 1_555
H20 C39 1_555 1_555
H21 C39 1_555 1_555
C40 C11 1_555 1_555
H22 C40 1_555 1_555
C41 C17 1_555 1_555
H23 C41 1_555 1_555
H24 C41 1_555 1_555
H25 C41 1_555 1_555
C42 C20 1_555 1_555
H26 C42 1_555 1_555
C43 C38 1_555 1_555
H27 C43 1_555 1_555
C44 C4 1_555 1_555
C3 C20 1_555 1_555
C5 C36 1_555 1_555
C8 C18 1_555 1_555
C13 C19 1_555 1_555
C16 C26 1_555 1_555
C16 C28 1_555 1_555
C17 C31 1_555 1_555
C18 C24 1_555 1_555
C21 C27 1_555 1_555
C22 C28 1_555 1_555
C23 C24 1_555 1_555
C29 C36 1_555 1_555
C30 C31 1_555 1_555
C33 C42 1_555 1_555
C35 C40 1_555 1_555
C37 C44 1_555 1_555
C43 C44 1_555 1_555

#END
