
#######################################################################
#
#                 Cambridge Crystallographic Data Centre
#                                CCDC 
#
#######################################################################
#
# If this CIF has been generated from an entry in the Cambridge 
# Structural Database, then it will include bibliographic, chemical, 
# crystal, experimental, refinement or atomic coordinate data resulting 
# from the CCDC's data processing and validation procedures.
#
#######################################################################

data_HEVCOD
_chemical_formula_moiety         'C18 H17 N1 O1'
_chemical_name_systematic        
2-{[4-(dimethylamino)phenyl]methylidene}-2,3-dihydro-1H-inden-1-one
_symmetry_cell_setting           orthorhombic
_symmetry_space_group_name_H-M   'P c a 21'
_symmetry_Int_Tables_number      29
_space_group_name_Hall           'P 2c -2ac'
loop_
_symmetry_equiv_pos_site_id
_symmetry_equiv_pos_as_xyz
1 x,y,z
2 -x,-y,1/2+z
3 1/2+x,-y,z
4 1/2-x,y,1/2+z
_cell_length_a                   30.0214(16)
_cell_length_b                   5.9799(3)
_cell_length_c                   7.6835(5)
_cell_angle_alpha                90
_cell_angle_beta                 90
_cell_angle_gamma                90
_cell_volume                     1379.38
_exptl_crystal_colour            yellow
_exptl_crystal_description       blocky
_cell_formula_units_Z            4
loop_
_atom_site_label
_atom_site_type_symbol
_atom_site_fract_x
_atom_site_fract_y
_atom_site_fract_z
N1 N 0.41231(6) 0.0908(3) 0.1419(3)
C1 C 0.53334(7) 0.1601(4) 0.0849(3)
C2 C 0.46314(8) 0.3782(4) 0.2400(3)
C3 C 0.54195(7) 0.3632(3) 0.1702(3)
C4 C 0.45478(7) 0.1783(3) 0.1518(3)
C5 C 0.62554(7) 0.4143(3) 0.1259(3)
C6 C 0.49156(7) 0.0704(4) 0.0766(3)
C7 C 0.70383(7) 0.4417(3) 0.0862(3)
C8 C 0.69076(7) 0.2394(4) 0.0163(3)
C9 C 0.64086(7) 0.2079(4) 0.0305(3)
O1 O 0.66487(5) 0.7378(3) 0.2354(3)
C10 C 0.66488(7) 0.5591(4) 0.1598(3)
C11 C 0.58508(7) 0.4736(4) 0.1822(3)
C12 C 0.74846(8) 0.5058(4) 0.0915(4)
C13 C 0.50544(8) 0.4674(4) 0.2484(3)
C14 C 0.77972(9) 0.3578(5) 0.0239(3)
C15 C 0.37458(9) 0.2318(6) 0.1849(5)
C16 C 0.76674(8) 0.1555(5) -0.0460(3)
C17 C 0.72222(8) 0.0930(4) -0.0499(3)
C18 C 0.40296(8) -0.0922(4) 0.0256(4)
H1 H 0.4069 -0.0437 -0.0925
H2 H 0.3728 -0.1413 0.0423
H3 H 0.4230 -0.2136 0.0496
H4 H 0.4875(7) -0.069(4) 0.018(3)
H5 H 0.5577(7) 0.081(3) 0.026(3)
H6 H 0.7116(7) -0.052(4) -0.098(3)
H7 H 0.6337(6) 0.073(3) 0.094(3)
H8 H 0.5111(7) 0.601(4) 0.311(3)
H9 H 0.5852(6) 0.616(3) 0.247(3)
H10 H 0.4400(7) 0.461(4) 0.299(3)
H11 H 0.3739(12) 0.272(6) 0.305(6)
H12 H 0.7569(8) 0.654(4) 0.148(3)
H13 H 0.7869(9) 0.040(5) -0.091(4)
H14 H 0.8111(9) 0.397(4) 0.023(4)
H15 H 0.6263(8) 0.208(4) -0.091(3)
H16 H 0.3741(10) 0.382(6) 0.121(5)
H17 H 0.3473(11) 0.138(5) 0.174(4)
loop_
_geom_bond_atom_site_label_1
_geom_bond_atom_site_label_2
_geom_bond_site_symmetry_1
_geom_bond_site_symmetry_2
N1 C4 1_555 1_555
C1 C3 1_555 1_555
C2 C4 1_555 1_555
C3 C11 1_555 1_555
C4 C6 1_555 1_555
C5 C9 1_555 1_555
C6 C1 1_555 1_555
C7 C8 1_555 1_555
C8 C9 1_555 1_555
C9 H7 1_555 1_555
O1 C10 1_555 1_555
C10 C5 1_555 1_555
C11 C5 1_555 1_555
C12 C7 1_555 1_555
C13 C2 1_555 1_555
C14 C12 1_555 1_555
C15 N1 1_555 1_555
C16 C14 1_555 1_555
C17 C8 1_555 1_555
C18 N1 1_555 1_555
H1 C18 1_555 1_555
H2 C18 1_555 1_555
H3 C18 1_555 1_555
H4 C6 1_555 1_555
H5 C1 1_555 1_555
H6 C17 1_555 1_555
H8 C13 1_555 1_555
H9 C11 1_555 1_555
H10 C2 1_555 1_555
H11 C15 1_555 1_555
H12 C12 1_555 1_555
H13 C16 1_555 1_555
H14 C14 1_555 1_555
H15 C9 1_555 1_555
H16 C15 1_555 1_555
H17 C15 1_555 1_555
C3 C13 1_555 1_555
C7 C10 1_555 1_555
C16 C17 1_555 1_555

#END
