
#######################################################################
#
#                 Cambridge Crystallographic Data Centre
#                                CCDC 
#
#######################################################################
#
# If this CIF has been generated from an entry in the Cambridge 
# Structural Database, then it will include bibliographic, chemical, 
# crystal, experimental, refinement or atomic coordinate data resulting 
# from the CCDC's data processing and validation procedures.
#
#######################################################################

data_HEVJEX
_chemical_formula_moiety         'C12 H15 I1 O6'
_chemical_name_systematic        1-O-(2-Iodophenyl)-\b-D-galactopyranose
_symmetry_cell_setting           monoclinic
_symmetry_space_group_name_H-M   'P 21'
_symmetry_Int_Tables_number      4
_space_group_name_Hall           'P 2yb'
loop_
_symmetry_equiv_pos_site_id
_symmetry_equiv_pos_as_xyz
1 x,y,z
2 -x,1/2+y,-z
_cell_length_a                   10.049(2)
_cell_length_b                   4.679(1)
_cell_length_c                   14.429(1)
_cell_angle_alpha                90
_cell_angle_beta                 107.28(3)
_cell_angle_gamma                90
_cell_volume                     647.819
_exptl_crystal_colour            Colorless
_cell_formula_units_Z            2
loop_
_atom_site_label
_atom_site_type_symbol
_atom_site_fract_x
_atom_site_fract_y
_atom_site_fract_z
I1 I 0.16805(2) 0.0000 0.19788(1)
C1 C 0.5467(3) 0.5452(7) 0.2869(2)
O1 O 0.4375(3) 0.3591(6) 0.2409(2)
C2 C 0.5555(3) 0.5371(7) 0.3955(2)
O2 O 0.4345(3) 0.6629(6) 0.4096(2)
C3 C 0.6853(4) 0.6942(7) 0.4526(2)
O3 O 0.7024(3) 0.6866(6) 0.5557(2)
C4 C 0.8151(3) 0.5786(7) 0.4328(3)
O4 O 0.8417(3) 0.2905(7) 0.4636(2)
C5 C 0.7925(4) 0.5874(7) 0.3233(3)
O5 O 0.6700(3) 0.4306(6) 0.2721(2)
C6 C 0.9088(4) 0.4487(9) 0.2932(3)
O6 O 1.0383(3) 0.5872(7) 0.3399(2)
C7 C 0.3722(4) 0.3928(8) 0.1425(2)
C8 C 0.2477(4) 0.2437(8) 0.1056(2)
C9 C 0.1746(5) 0.2636(9) 0.0074(3)
C10 C 0.2253(5) 0.4346(10) -0.0528(3)
C11 C 0.3459(5) 0.5857(10) -0.0164(3)
C12 C 0.4227(4) 0.5655(18) 0.0821(3)
H1 H 0.5306(17) 0.7345(18) 0.2589(16)
H2 H 0.5636(17) 0.3160(18) 0.4124(16)
H3 H 0.3837(17) 0.5062(18) 0.4133(16)
H4 H 0.6696(17) 0.8917(18) 0.4287(16)
H5 H 0.6622(17) 0.4969(18) 0.5705(16)
H6 H 0.8949(17) 0.6308(18) 0.4678(16)
H7 H 0.8931(17) 0.2597(18) 0.5219(17)
H8 H 0.7776(17) 0.7759(18) 0.2966(16)
H9 H 0.9334(17) 0.2399(18) 0.3210(17)
H10 H 0.8791(17) 0.4731(18) 0.2264(16)
H11 H 1.1001(17) 0.5434(18) 0.3333(17)
H12 H 0.0827(17) 0.1503(18) -0.0130(17)
H13 H 0.1563(17) 0.4711(18) -0.1212(16)
H14 H 0.5089(17) 0.6703(18) 0.1131(16)
H15 H 0.3828(17) 0.7090(18) -0.0554(16)
loop_
_geom_bond_atom_site_label_1
_geom_bond_atom_site_label_2
_geom_bond_site_symmetry_1
_geom_bond_site_symmetry_2
I1 C8 1_555 1_555
C1 O1 1_555 1_555
O1 C7 1_555 1_555
C2 C1 1_555 1_555
O2 C2 1_555 1_555
C3 C2 1_555 1_555
O3 C3 1_555 1_555
C4 C3 1_555 1_555
O4 C4 1_555 1_555
C5 C4 1_555 1_555
O5 C1 1_555 1_555
C6 C5 1_555 1_555
O6 C6 1_555 1_555
C7 C8 1_555 1_555
C8 C9 1_555 1_555
C9 C10 1_555 1_555
C10 C11 1_555 1_555
C11 C12 1_555 1_555
C12 C7 1_555 1_555
H1 C1 1_555 1_555
H2 C2 1_555 1_555
H3 O2 1_555 1_555
H4 C3 1_555 1_555
H5 O3 1_555 1_555
H6 C4 1_555 1_555
H7 O4 1_555 1_555
H8 C5 1_555 1_555
H9 C6 1_555 1_555
H10 C6 1_555 1_555
H11 O6 1_555 1_555
H12 C9 1_555 1_555
H13 C10 1_555 1_555
H14 C12 1_555 1_555
H15 C11 1_555 1_555
C5 O5 1_555 1_555

#END
