
#######################################################################
#
#                 Cambridge Crystallographic Data Centre
#                                CCDC 
#
#######################################################################
#
# If this CIF has been generated from an entry in the Cambridge 
# Structural Database, then it will include bibliographic, chemical, 
# crystal, experimental, refinement or atomic coordinate data resulting 
# from the CCDC's data processing and validation procedures.
#
#######################################################################

data_HEVMUT
_chemical_formula_moiety         'C14 H20 O1 S2'
_chemical_name_systematic        
4a',6'-dimethyl-4',4a',7',8'-tetrahydro-3'H-spiro[1,3-dithiolane-2,2'-naphthalen]-5'(6'H)-one
_symmetry_cell_setting           orthorhombic
_symmetry_space_group_name_H-M   'P 21 21 21'
_symmetry_Int_Tables_number      19
_space_group_name_Hall           'P 2ac 2ab'
loop_
_symmetry_equiv_pos_site_id
_symmetry_equiv_pos_as_xyz
1 x,y,z
2 1/2-x,-y,1/2+z
3 -x,1/2+y,1/2-z
4 1/2+x,1/2-y,-z
_cell_length_a                   6.4490(10)
_cell_length_b                   9.785(2)
_cell_length_c                   44.810(9)
_cell_angle_alpha                90
_cell_angle_beta                 90
_cell_angle_gamma                90
_cell_volume                     2827.67
_exptl_crystal_colour            colorless
_exptl_crystal_description       Block
_cell_formula_units_Z            8
loop_
_atom_site_label
_atom_site_type_symbol
_atom_site_fract_x
_atom_site_fract_y
_atom_site_fract_z
S1 S 0.86859(13) 0.65144(10) 0.21178(2)
C1 C 0.8539(7) 0.7528(4) 0.24497(8)
H1 H 0.986414 0.801648 0.248218
H2 H 0.741696 0.821336 0.243105
C2 C 0.8118(8) 0.6616(4) 0.26990(8)
H3 H 0.760317 0.715450 0.287066
H4 H 0.942002 0.615878 0.276038
S2 S 0.62173(17) 0.53399(10) 0.25995(2)
C3 C 0.6330(5) 0.5541(3) 0.21918(6)
C4 C 0.4400(5) 0.6255(3) 0.20781(7)
H5 H 0.315285 0.578545 0.215605
H6 H 0.438006 0.720964 0.215148
C5 C 0.4351(5) 0.6251(3) 0.17406(7)
H7 H 0.559053 0.673471 0.166425
H8 H 0.310982 0.675566 0.167168
C6 C 0.4304(5) 0.4800(3) 0.16108(6)
C7 C 0.2032(5) 0.4283(4) 0.16024(8)
H9 H 0.200581 0.333349 0.153326
H10 H 0.122150 0.485394 0.146564
H11 H 0.143240 0.433626 0.180306
C8 C 0.5039(5) 0.4841(3) 0.12852(7)
O1 O 0.5027(5) 0.5904(3) 0.11497(6)
C9 C 0.5648(5) 0.3516(4) 0.11369(7)
H12 H 0.433151 0.301991 0.109048
C10 C 0.6745(7) 0.3761(5) 0.08394(8)
H13 H 0.590211 0.437118 0.071540
H14 H 0.693539 0.288723 0.073609
H15 H 0.810043 0.418173 0.087583
C11 C 0.6898(5) 0.2594(4) 0.13401(7)
H16 H 0.832249 0.296363 0.135752
H17 H 0.699619 0.167672 0.124818
C12 C 0.5976(6) 0.2454(3) 0.16505(7)
H18 H 0.463589 0.196379 0.163819
H19 H 0.692270 0.191268 0.177789
C13 C 0.5642(5) 0.3836(3) 0.17875(6)
C14 C 0.6556(5) 0.4183(3) 0.20424(7)
H20 H 0.741410 0.352070 0.213627
S3 S 0.24430(12) 0.41137(8) -0.01874(2)
C15 C 0.2093(6) 0.4107(3) 0.02082(7)
H21 H 0.071366 0.373155 0.026001
H22 H 0.316919 0.353712 0.030484
C16 C 0.2268(7) 0.5564(4) 0.03114(8)
H23 H 0.230636 0.560321 0.053211
H24 H 0.106147 0.610036 0.024101
S4 S 0.46232(14) 0.62457(8) 0.01583(2)
C17 C 0.4598(5) 0.5348(3) -0.02021(6)
C18 C 0.6683(4) 0.4662(3) -0.02461(6)
H25 H 0.679908 0.386666 -0.011059
H26 H 0.780639 0.531249 -0.019601
C19 C 0.6922(4) 0.4192(3) -0.05672(6)
H27 H 0.577070 0.356523 -0.061851
H28 H 0.823958 0.368300 -0.058874
C20 C 0.6914(4) 0.5401(3) -0.07817(6)
C21 C 0.9054(4) 0.6123(3) -0.07727(7)
H29 H 0.901461 0.694085 -0.089891
H30 H 1.012428 0.549775 -0.084657
H31 H 0.937674 0.638754 -0.056690
C22 C 0.6622(4) 0.4909(3) -0.11024(6)
O2 O 0.6748(4) 0.3707(2) -0.11659(5)
C23 C 0.6195(5) 0.5980(3) -0.13378(6)
H32 H 0.741989 0.660671 -0.134401
C24 C 0.5950(6) 0.5364(4) -0.16468(7)
H33 H 0.719525 0.483901 -0.169727
H34 H 0.575667 0.609708 -0.179325
H35 H 0.473925 0.475901 -0.164926
C25 C 0.4325(5) 0.6825(3) -0.12407(6)
H36 H 0.407313 0.755877 -0.138855
H37 H 0.308027 0.623362 -0.123485
C26 C 0.4666(5) 0.7459(3) -0.09346(6)
H38 H 0.580814 0.813263 -0.094642
H39 H 0.339414 0.794965 -0.087267
C27 C 0.5191(4) 0.6392(3) -0.07048(6)
C28 C 0.4152(4) 0.6328(3) -0.04491(6)
H40 H 0.304166 0.695263 -0.042141
loop_
_geom_bond_atom_site_label_1
_geom_bond_atom_site_label_2
_geom_bond_site_symmetry_1
_geom_bond_site_symmetry_2
S1 C1 1_555 1_555
C1 H1 1_555 1_555
H2 C1 1_555 1_555
C2 C1 1_555 1_555
H3 C2 1_555 1_555
H4 C2 1_555 1_555
S2 C2 1_555 1_555
C3 S1 1_555 1_555
C4 C3 1_555 1_555
H5 C4 1_555 1_555
H6 C4 1_555 1_555
C5 C4 1_555 1_555
H7 C5 1_555 1_555
H8 C5 1_555 1_555
C6 C5 1_555 1_555
C7 C6 1_555 1_555
H9 C7 1_555 1_555
H10 C7 1_555 1_555
H11 C7 1_555 1_555
C8 C6 1_555 1_555
O1 C8 1_555 1_555
C9 C8 1_555 1_555
H12 C9 1_555 1_555
C10 C9 1_555 1_555
H13 C10 1_555 1_555
H14 C10 1_555 1_555
H15 C10 1_555 1_555
C11 C9 1_555 1_555
H16 C11 1_555 1_555
H17 C11 1_555 1_555
C12 C11 1_555 1_555
H18 C12 1_555 1_555
H19 C12 1_555 1_555
C13 C6 1_555 1_555
C14 C3 1_555 1_555
H20 C14 1_555 1_555
S3 C15 1_555 1_555
C15 H21 1_555 1_555
H22 C15 1_555 1_555
C16 C15 1_555 1_555
H23 C16 1_555 1_555
H24 C16 1_555 1_555
S4 C16 1_555 1_555
C17 S3 1_555 1_555
C18 C17 1_555 1_555
H25 C18 1_555 1_555
H26 C18 1_555 1_555
C19 C18 1_555 1_555
H27 C19 1_555 1_555
H28 C19 1_555 1_555
C20 C19 1_555 1_555
C21 C20 1_555 1_555
H29 C21 1_555 1_555
H30 C21 1_555 1_555
H31 C21 1_555 1_555
C22 C20 1_555 1_555
O2 C22 1_555 1_555
C23 C22 1_555 1_555
H32 C23 1_555 1_555
C24 C23 1_555 1_555
H33 C24 1_555 1_555
H34 C24 1_555 1_555
H35 C24 1_555 1_555
C25 C23 1_555 1_555
H36 C25 1_555 1_555
H37 C25 1_555 1_555
C26 C25 1_555 1_555
H38 C26 1_555 1_555
H39 C26 1_555 1_555
C27 C20 1_555 1_555
C28 C17 1_555 1_555
H40 C28 1_555 1_555
S2 C3 1_555 1_555
C12 C13 1_555 1_555
C13 C14 1_555 1_555
S4 C17 1_555 1_555
C26 C27 1_555 1_555
C27 C28 1_555 1_555

#END
