
#######################################################################
#
#                 Cambridge Crystallographic Data Centre
#                                CCDC 
#
#######################################################################
#
# If this CIF has been generated from an entry in the Cambridge 
# Structural Database, then it will include bibliographic, chemical, 
# crystal, experimental, refinement or atomic coordinate data resulting 
# from the CCDC's data processing and validation procedures.
#
#######################################################################

data_HEVNIF
_chemical_formula_moiety         'C12 H18 Br2'
_chemical_name_systematic        
4,8-Dibromo-1,3,5,7-tetramethyl-cis-transoid-cis-tricyclo(5.1.0.0^3,5^)octane
_symmetry_cell_setting           monoclinic
_symmetry_space_group_name_H-M   'P 21/c'
_symmetry_Int_Tables_number      14
_space_group_name_Hall           '-P 2ybc'
loop_
_symmetry_equiv_pos_site_id
_symmetry_equiv_pos_as_xyz
1 x,y,z
2 -x,1/2+y,1/2-z
3 -x,-y,-z
4 x,1/2-y,1/2+z
_cell_length_a                   6.430(2)
_cell_length_b                   13.437(4)
_cell_length_c                   7.804(2)
_cell_angle_alpha                90
_cell_angle_beta                 113.55(2)
_cell_angle_gamma                90
_cell_volume                     618.107
_exptl_crystal_colour            colorless
_cell_formula_units_Z            2
loop_
_atom_site_label
_atom_site_type_symbol
_atom_site_fract_x
_atom_site_fract_y
_atom_site_fract_z
Br1 Br 0.13627(7) 0.59033(3) 0.18891(5)
C1 C 0.3094(7) 0.6329(3) 0.4412(5)
C2 C 0.5584(6) 0.6094(2) 0.5370(5)
C3 C 0.6687(7) 0.5480(3) 0.4342(6)
C4 C 0.3883(6) 0.5607(3) 0.6024(5)
C5 C 0.7090(10) 0.6927(4) 0.6490(8)
C6 C 0.3723(9) 0.5970(4) 0.7806(6)
H1 H 0.258(6) 0.692(3) 0.457(5)
H2 H 0.637(6) 0.578(2) 0.311(5)
H3 H 0.819(7) 0.552(3) 0.493(5)
H4 H 0.820(8) 0.672(3) 0.755(7)
H5 H 0.635(7) 0.735(4) 0.684(5)
H6 H 0.796(8) 0.723(4) 0.582(7)
H7 H 0.219(9) 0.568(4) 0.779(8)
H8 H 0.496(11) 0.575(4) 0.889(9)
H9 H 0.372(8) 0.670(4) 0.786(6)
C4B C 0.6117(6) 0.4393(3) 0.3976(5)
C3B C 0.3313(7) 0.4520(3) 0.5658(6)
C1B C 0.6906(7) 0.3671(3) 0.5588(5)
C2B C 0.4416(6) 0.3906(2) 0.4630(5)
C6B C 0.6277(9) 0.4030(4) 0.2194(6)
H2B H 0.363(6) 0.422(2) 0.689(5)
H3B H 0.181(7) 0.448(3) 0.507(5)
Br1B Br 0.86373(7) 0.40967(3) 0.81109(5)
H1B H 0.742(6) 0.308(3) 0.543(5)
C5B C 0.2910(10) 0.3073(4) 0.3510(8)
H7B H 0.781(9) 0.432(4) 0.221(8)
H8B H 0.504(11) 0.425(4) 0.111(9)
H9B H 0.628(8) 0.330(4) 0.214(6)
H4B H 0.180(8) 0.328(3) 0.245(7)
H5B H 0.365(7) 0.265(4) 0.316(5)
H6B H 0.204(8) 0.277(4) 0.418(7)
loop_
_geom_bond_atom_site_label_1
_geom_bond_atom_site_label_2
_geom_bond_site_symmetry_1
_geom_bond_site_symmetry_2
Br1 C1 1_555 1_555
C1 C2 1_555 1_555
C2 C3 1_555 1_555
C3 H2 1_555 1_555
C4 C1 1_555 1_555
C5 C2 1_555 1_555
C6 C4 1_555 1_555
H1 C1 1_555 1_555
H3 C3 1_555 1_555
H4 C5 1_555 1_555
H5 C5 1_555 1_555
H6 C5 1_555 1_555
H7 C6 1_555 1_555
H8 C6 1_555 1_555
H9 C6 1_555 1_555
C4B C3 1_555 1_555
C3B C4 1_555 1_555
C1B C4B 1_555 1_555
C2B C4B 1_555 1_555
C6B C4B 1_555 1_555
H2B C3B 1_555 1_555
H3B C3B 1_555 1_555
Br1B C1B 1_555 1_555
H1B C1B 1_555 1_555
C5B C2B 1_555 1_555
H7B C6B 1_555 1_555
H8B C6B 1_555 1_555
H9B C6B 1_555 1_555
H4B C5B 1_555 1_555
H5B C5B 1_555 1_555
H6B C5B 1_555 1_555
C2 C4 1_555 1_555
C3B C2B 1_555 1_555
C1B C2B 1_555 1_555

#END
