
#######################################################################
#
#                 Cambridge Crystallographic Data Centre
#                                CCDC 
#
#######################################################################
#
# If this CIF has been generated from an entry in the Cambridge 
# Structural Database, then it will include bibliographic, chemical, 
# crystal, experimental, refinement or atomic coordinate data resulting 
# from the CCDC's data processing and validation procedures.
#
#######################################################################

data_HEVPUT
_chemical_formula_moiety         'C16 H15 Br1 N4 O1'
_chemical_name_systematic        
6-Bromo-1,4-dihydro-1,4-bis(o-tolyl)-1,2,4,5-tetrazin-3(2H)-one
_symmetry_cell_setting           triclinic
_symmetry_space_group_name_H-M   'P -1'
_symmetry_Int_Tables_number      2
_space_group_name_Hall           '-P 1'
loop_
_symmetry_equiv_pos_site_id
_symmetry_equiv_pos_as_xyz
1 x,y,z
2 -x,-y,-z
_cell_length_a                   8.217(3)
_cell_length_b                   8.477(5)
_cell_length_c                   12.045(3)
_cell_angle_alpha                99.16(3)
_cell_angle_beta                 104.23(2)
_cell_angle_gamma                95.41(5)
_cell_volume                     795.045
_exptl_crystal_colour            Colorless
_chemical_melting_point          449-450K
_cell_formula_units_Z            2
loop_
_atom_site_label
_atom_site_type_symbol
_atom_site_fract_x
_atom_site_fract_y
_atom_site_fract_z
Br1 Br 0.18917(7) 0.01393(6) 0.23722(5)
O1 O 0.0972(4) 0.6424(3) 0.1371(2)
N1 N 0.2051(4) 0.4940(4) 0.2739(3)
N2 N 0.1828(4) 0.3345(4) 0.2966(3)
N3 N 0.2353(4) 0.2581(4) 0.1131(3)
N4 N 0.1579(5) 0.3917(4) 0.0789(3)
C1 C 0.1492(5) 0.5182(5) 0.1613(3)
C2 C 0.2081(5) 0.2314(4) 0.2174(4)
C3 C 0.1970(6) 0.6175(5) 0.3677(4)
C4 C 0.0450(7) 0.6365(6) 0.3923(4)
C5 C 0.0403(9) 0.7596(8) 0.4822(6)
C6 C 0.185(1) 0.8575(7) 0.5455(5)
C7 C 0.3319(9) 0.8372(6) 0.5217(5)
C8 C 0.3433(7) 0.7158(5) 0.4330(4)
C9 C 0.5082(9) 0.692(1) 0.4036(6)
C10 C 0.4027(5) 0.2534(5) 0.0973(4)
C11 C 0.5395(7) 0.2664(6) 0.1923(4)
C12 C 0.6992(7) 0.2540(7) 0.1766(5)
C13 C 0.7199(7) 0.2280(8) 0.0663(6)
C14 C 0.5828(8) 0.2156(7) -0.0287(5)
C15 C 0.4225(6) 0.2271(5) -0.0145(4)
C16 C 0.2761(8) 0.2116(8) -0.1204(5)
H1 H 0.077(6) 0.361(5) 0.007(3)
H2 H -0.059(6) 0.568(5) 0.340(4)
H3 H -0.055(6) 0.767(5) 0.504(4)
H4 H 0.169(5) 0.946(5) 0.610(3)
H5 H 0.437(6) 0.886(5) 0.559(4)
H6 H 0.498(6) 0.632(5) 0.327(3)
H7 H 0.566(7) 0.673(8) 0.467(4)
H8 H 0.573(8) 0.775(5) 0.446(6)
H9 H 0.524(6) 0.292(5) 0.265(3)
H10 H 0.783(6) 0.262(5) 0.243(4)
H11 H 0.823(6) 0.207(5) 0.053(4)
H12 H 0.602(6) 0.200(5) -0.099(4)
H13 H 0.174(6) 0.141(5) -0.112(4)
H14 H 0.296(6) 0.156(5) -0.179(3)
H15 H 0.233(6) 0.307(5) -0.134(4)
loop_
_geom_bond_atom_site_label_1
_geom_bond_atom_site_label_2
_geom_bond_site_symmetry_1
_geom_bond_site_symmetry_2
Br1 C2 1_555 1_555
O1 C1 1_555 1_555
N1 N2 1_555 1_555
N2 C2 1_555 1_555
N3 N4 1_555 1_555
N4 C1 1_555 1_555
C1 N1 1_555 1_555
C2 N3 1_555 1_555
C3 N1 1_555 1_555
C4 C3 1_555 1_555
C5 C4 1_555 1_555
C6 C5 1_555 1_555
C7 C6 1_555 1_555
C8 C3 1_555 1_555
C9 C8 1_555 1_555
C10 N3 1_555 1_555
C11 C10 1_555 1_555
C12 C11 1_555 1_555
C13 C12 1_555 1_555
C14 C13 1_555 1_555
C15 C10 1_555 1_555
C16 C15 1_555 1_555
H1 N4 1_555 1_555
H2 C4 1_555 1_555
H3 C5 1_555 1_555
H4 C6 1_555 1_555
H5 C7 1_555 1_555
H6 C9 1_555 1_555
H7 C9 1_555 1_555
H8 C9 1_555 1_555
H9 C11 1_555 1_555
H10 C12 1_555 1_555
H11 C13 1_555 1_555
H12 C14 1_555 1_555
H13 C16 1_555 1_555
H14 C16 1_555 1_555
H15 C16 1_555 1_555
C7 C8 1_555 1_555
C14 C15 1_555 1_555

#END
