
#######################################################################
#
#                 Cambridge Crystallographic Data Centre
#                                CCDC 
#
#######################################################################
#
# If this CIF has been generated from an entry in the Cambridge 
# Structural Database, then it will include bibliographic, chemical, 
# crystal, experimental, refinement or atomic coordinate data resulting 
# from the CCDC's data processing and validation procedures.
#
#######################################################################

data_HEVPOQ
_chemical_formula_moiety         'C29 H38 N2 O3 S1'
_chemical_name_systematic        
1-ethenyl-5-methoxy-2-{[2,4,6-tris(propan-2-yl)phenyl]sulfonyl}-2,3,4,9-tetrahydro-1H-\b-carboline
_symmetry_cell_setting           monoclinic
_symmetry_space_group_name_H-M   'P 21'
_symmetry_Int_Tables_number      4
_space_group_name_Hall           'P 2yb'
loop_
_symmetry_equiv_pos_site_id
_symmetry_equiv_pos_as_xyz
1 x,y,z
2 -x,1/2+y,-z
_cell_length_a                   11.6335(4)
_cell_length_b                   9.1577(3)
_cell_length_c                   12.9848(4)
_cell_angle_alpha                90
_cell_angle_beta                 94.8280(10)
_cell_angle_gamma                90
_cell_volume                     1378.44
_exptl_crystal_colour            colorless
_exptl_crystal_description       block
_cell_formula_units_Z            2
loop_
_atom_site_label
_atom_site_type_symbol
_atom_site_fract_x
_atom_site_fract_y
_atom_site_fract_z
S1 S 0.45092(5) 0.57977(7) 0.72070(4)
O1 O -0.00526(18) 0.1437(3) 0.86066(18)
O2 O 0.50188(17) 0.6815(2) 0.79489(14)
O3 O 0.52956(17) 0.5009(3) 0.66373(15)
N1 N 0.33413(19) 0.2879(3) 1.03465(15)
H1 H 0.3907 0.3039 1.0803
N2 N 0.36973(18) 0.4710(2) 0.78439(14)
C1 C 0.2371(2) 0.2068(3) 1.04928(19)
C2 C 0.2105(3) 0.1254(4) 1.1357(2)
H2 H 0.2588 0.1243 1.1965
C3 C 0.1095(3) 0.0478(4) 1.1255(3)
H3 H 0.0900 -0.0092 1.1807
C4 C 0.0351(3) 0.0508(4) 1.0363(3)
H4 H -0.0329 -0.0030 1.0330
C5 C 0.0612(2) 0.1327(3) 0.9529(2)
C6 C 0.1648(2) 0.2126(3) 0.95781(19)
C7 C 0.2227(2) 0.2970(3) 0.88526(18)
C8 C 0.1927(2) 0.3294(3) 0.77343(19)
H5 H 0.1417 0.4133 0.7663
H6 H 0.1533 0.2465 0.7401
C9 C 0.3022(2) 0.3606(3) 0.72333(18)
H7 H 0.3469 0.2717 0.7196
H8 H 0.2838 0.3962 0.6535
C10 C 0.4193(2) 0.4215(3) 0.88838(19)
H9 H 0.4363 0.5085 0.9309
C11 C 0.3250(2) 0.3393(3) 0.93385(17)
C12 C 0.2731(2) 0.7723(3) 0.68051(19)
C13 C 0.2004(3) 0.8563(3) 0.6149(2)
H10 H 0.1526 0.9238 0.6436
C14 C 0.1954(3) 0.8446(3) 0.5084(2)
C15 C 0.2646(3) 0.7416(3) 0.4680(2)
H11 H 0.2610 0.7319 0.3965
C16 C 0.3398(2) 0.6509(3) 0.52744(18)
C17 C 0.3460(2) 0.6718(3) 0.63567(17)
C18 C 0.2675(3) 0.7971(3) 0.7964(2)
H12 H 0.3120 0.7196 0.8333
C19 C 0.1434(4) 0.7872(6) 0.8253(3)
H13 H 0.1113 0.6946 0.8035
H14 H 0.0987 0.8643 0.7917
H15 H 0.1422 0.7965 0.8988
C20 C 0.3234(5) 0.9439(4) 0.8277(3)
H16 H 0.4014 0.9454 0.8087
H17 H 0.3233 0.9566 0.9011
H18 H 0.2805 1.0216 0.7929
C21 C 0.1176(4) 0.9443(4) 0.4378(3)
H19 H 0.1107 0.8992 0.3691
C22 C 0.1755(4) 1.0891(5) 0.4272(4)
H20 H 0.1265 1.1517 0.3835
H21 H 0.2474 1.0752 0.3972
H22 H 0.1898 1.1331 0.4942
C23 C -0.0026(4) 0.9601(6) 0.4706(4)
H23 H -0.0463 1.0237 0.4234
H24 H 0.0007 1.0007 0.5390
H25 H -0.0390 0.8660 0.4704
C24 C 0.4058(2) 0.5382(3) 0.47007(19)
H26 H 0.4341 0.4640 0.5203
C25 C 0.5104(3) 0.6067(5) 0.4263(3)
H27 H 0.5565 0.6556 0.4805
H28 H 0.4853 0.6758 0.3735
H29 H 0.5555 0.5318 0.3971
C26 C 0.3296(4) 0.4606(5) 0.3851(3)
H30 H 0.2639 0.4190 0.4142
H31 H 0.3731 0.3846 0.3555
H32 H 0.3042 0.5297 0.3324
C27 C -0.1115(4) 0.0666(8) 0.8525(4)
H33 H -0.1496 0.0808 0.7847
H34 H -0.1597 0.1026 0.9033
H35 H -0.0971 -0.0356 0.8638
C28 C 0.5284(3) 0.3366(5) 0.8855(3)
H36 H 0.5898 0.3914 0.8651
C29 C 0.5514(5) 0.2172(8) 0.9035(4)
H37 H 0.4955 0.1537 0.9245
H38 H 0.6259 0.1837 0.8970
loop_
_geom_bond_atom_site_label_1
_geom_bond_atom_site_label_2
_geom_bond_site_symmetry_1
_geom_bond_site_symmetry_2
S1 O2 1_555 1_555
O1 C5 1_555 1_555
O3 S1 1_555 1_555
N1 H1 1_555 1_555
N2 S1 1_555 1_555
C1 N1 1_555 1_555
C2 C1 1_555 1_555
H2 C2 1_555 1_555
C3 C2 1_555 1_555
H3 C3 1_555 1_555
C4 C3 1_555 1_555
H4 C4 1_555 1_555
C5 C4 1_555 1_555
C6 C1 1_555 1_555
C7 C6 1_555 1_555
C8 C7 1_555 1_555
H5 C8 1_555 1_555
H6 C8 1_555 1_555
C9 N2 1_555 1_555
H7 C9 1_555 1_555
H8 C9 1_555 1_555
C10 N2 1_555 1_555
H9 C10 1_555 1_555
C11 N1 1_555 1_555
C12 C13 1_555 1_555
C13 H10 1_555 1_555
C14 C13 1_555 1_555
C15 C14 1_555 1_555
H11 C15 1_555 1_555
C16 C15 1_555 1_555
C17 S1 1_555 1_555
C18 C12 1_555 1_555
H12 C18 1_555 1_555
C19 C18 1_555 1_555
H13 C19 1_555 1_555
H14 C19 1_555 1_555
H15 C19 1_555 1_555
C20 C18 1_555 1_555
H16 C20 1_555 1_555
H17 C20 1_555 1_555
H18 C20 1_555 1_555
C21 C14 1_555 1_555
H19 C21 1_555 1_555
C22 C21 1_555 1_555
H20 C22 1_555 1_555
H21 C22 1_555 1_555
H22 C22 1_555 1_555
C23 C21 1_555 1_555
H23 C23 1_555 1_555
H24 C23 1_555 1_555
H25 C23 1_555 1_555
C24 C16 1_555 1_555
H26 C24 1_555 1_555
C25 C24 1_555 1_555
H27 C25 1_555 1_555
H28 C25 1_555 1_555
H29 C25 1_555 1_555
C26 C24 1_555 1_555
H30 C26 1_555 1_555
H31 C26 1_555 1_555
H32 C26 1_555 1_555
C27 O1 1_555 1_555
H33 C27 1_555 1_555
H34 C27 1_555 1_555
H35 C27 1_555 1_555
C28 C10 1_555 1_555
H36 C28 1_555 1_555
C29 C28 1_555 1_555
H37 C29 1_555 1_555
H38 C29 1_555 1_555
C5 C6 1_555 1_555
C7 C11 1_555 1_555
C8 C9 1_555 1_555
C10 C11 1_555 1_555
C12 C17 1_555 1_555
C16 C17 1_555 1_555

#END
