
#######################################################################
#
#                 Cambridge Crystallographic Data Centre
#                                CCDC 
#
#######################################################################
#
# If this CIF has been generated from an entry in the Cambridge 
# Structural Database, then it will include bibliographic, chemical, 
# crystal, experimental, refinement or atomic coordinate data resulting 
# from the CCDC's data processing and validation procedures.
#
#######################################################################

data_HEVQUW
_chemical_formula_moiety         'C72 H84 N12,4.5(C8 H10)'
_chemical_name_systematic        
'3,5,9,11,15,17,21,23,26,28,31,33-dodecaaza-1,7,13,19(1,3,5)-tetrabenzena-4,10,16,22,27,32(1,3,5)-hexacyclohexano-bicyclo[17.11.5]tetratriacontaphane-2,5,8,11,14,17,20,23,25,28,30,33-dodecaene meta-xylene clathrate'
_symmetry_cell_setting           orthorhombic
_symmetry_space_group_name_H-M   'P 21 21 21'
_symmetry_Int_Tables_number      19
_space_group_name_Hall           'P 2ac 2ab'
loop_
_symmetry_equiv_pos_site_id
_symmetry_equiv_pos_as_xyz
1 x,y,z
2 1/2-x,-y,1/2+z
3 -x,1/2+y,1/2-z
4 1/2+x,1/2-y,-z
_cell_length_a                   20.515(3)
_cell_length_b                   28.040(4)
_cell_length_c                   35.607(5)
_cell_angle_alpha                90
_cell_angle_beta                 90
_cell_angle_gamma                90
_cell_volume                     20482.6
_exptl_crystal_colour            colorless
_exptl_crystal_description       block
_cell_formula_units_Z            8
loop_
_atom_site_label
_atom_site_type_symbol
_atom_site_fract_x
_atom_site_fract_y
_atom_site_fract_z
N1 N 0.6354(3) 0.6554(3) 0.5348(2)
N2 N 0.7563(4) 0.6516(3) 0.5761(2)
N3 N 0.5740(4) 0.7924(3) 0.3929(2)
N4 N 0.6506(4) 0.8778(3) 0.3813(2)
N5 N 0.6604(4) 0.5744(3) 0.3699(2)
N6 N 0.7728(4) 0.5511(3) 0.3242(2)
N7 N 1.0333(4) 0.6255(3) 0.4929(2)
N8 N 1.0357(4) 0.5784(3) 0.4199(2)
N9 N 0.9295(4) 0.8345(3) 0.5330(3)
N10 N 0.9226(4) 0.8980(3) 0.4684(2)
N11 N 0.9143(4) 0.8195(3) 0.2971(3)
N12 N 0.9675(4) 0.7221(3) 0.2850(2)
C1 C 0.6473(4) 0.6597(3) 0.4675(2)
C2 C 0.6270(4) 0.7067(3) 0.4630(3)
H1 H 0.6208 0.7262 0.4845
C3 C 0.6158(4) 0.7255(3) 0.4276(3)
C4 C 0.6243(4) 0.6958(3) 0.3966(3)
H2 H 0.6153 0.7079 0.3723
C5 C 0.6456(4) 0.6494(3) 0.4002(3)
C6 C 0.6570(4) 0.6319(3) 0.4364(2)
H3 H 0.6719 0.6000 0.4394
C7 C 0.6559(4) 0.6376(3) 0.5042(3)
H4 H 0.6782 0.6079 0.5054
C8 C 0.5917(4) 0.7748(3) 0.4239(3)
H5 H 0.5894 0.7941 0.4458
C9 C 0.6491(4) 0.6186(4) 0.3670(3)
H6 H 0.6428 0.6321 0.3428
C10 C 0.8444(5) 0.6969(4) 0.5507(3)
C11 C 0.8797(5) 0.6578(3) 0.5366(3)
H7 H 0.8625 0.6267 0.5397
C12 C 0.9386(5) 0.6633(3) 0.5186(3)
C13 C 0.9627(4) 0.7089(3) 0.5132(3)
H8 H 1.0029 0.7129 0.5004
C14 C 0.9293(4) 0.7492(4) 0.5260(3)
C15 C 0.8708(5) 0.7419(4) 0.5452(3)
H9 H 0.8481 0.7688 0.5548
C16 C 0.7814(4) 0.6911(4) 0.5693(3)
H10 H 0.7583 0.7190 0.5766
C17 C 0.9760(5) 0.6219(3) 0.5066(3)
H11 H 0.9571 0.5911 0.5091
C18 C 0.9565(5) 0.7973(4) 0.5216(3)
H12 H 0.9972 0.8004 0.5092
C19 C 0.8480(5) 0.8830(4) 0.4176(3)
C20 C 0.8950(5) 0.8654(4) 0.3922(3)
H13 H 0.9391 0.8624 0.4001
C21 C 0.8780(5) 0.8525(4) 0.3563(3)
C22 C 0.8140(5) 0.8543(4) 0.3453(3)
H14 H 0.8023 0.8441 0.3208
C23 C 0.7662(5) 0.8708(4) 0.3695(3)
C24 C 0.7837(5) 0.8856(4) 0.4060(3)
H15 H 0.7513 0.8974 0.4227
C25 C 0.8659(5) 0.8978(4) 0.4561(3)
H16 H 0.8319 0.9078 0.4724
C26 C 0.9272(5) 0.8344(4) 0.3292(4)
H17 H 0.9715 0.8343 0.3369
C27 C 0.6960(5) 0.8700(4) 0.3590(3)
H18 H 0.6851 0.8632 0.3336
C28 C 0.9304(5) 0.6505(4) 0.3131(3)
C29 C 0.9815(5) 0.6464(4) 0.3389(3)
H19 H 1.0166 0.6684 0.3382
C30 C 0.9813(5) 0.6102(4) 0.3657(3)
C31 C 0.9299(5) 0.5783(4) 0.3673(3)
H20 H 0.9300 0.5539 0.3858
C32 C 0.8784(5) 0.5814(4) 0.3423(3)
C33 C 0.8800(5) 0.6179(4) 0.3151(3)
H21 H 0.8452 0.6202 0.2976
C34 C 1.0355(5) 0.6081(4) 0.3937(3)
H22 H 1.0707 0.6299 0.3916
C35 C 0.8222(6) 0.5496(4) 0.3451(3)
H23 H 0.8231 0.5259 0.3642
C36 C 0.9268(5) 0.6895(4) 0.2861(3)
H24 H 0.8918 0.6899 0.2686
C37 C 0.6441(4) 0.6271(3) 0.5691(2)
H25 H 0.6613 0.5949 0.5622
C38 C 0.6920(4) 0.6517(3) 0.5941(2)
H26 H 0.6776 0.6854 0.5983
C39 C 0.6974(5) 0.6260(4) 0.6321(3)
H27 H 0.7167 0.5940 0.6282
H28 H 0.7267 0.6443 0.6488
C40 C 0.6310(5) 0.6209(4) 0.6506(3)
H29 H 0.6356 0.6027 0.6743
H30 H 0.6136 0.6528 0.6568
C41 C 0.5840(5) 0.5956(4) 0.6250(3)
H31 H 0.5405 0.5941 0.6370
H32 H 0.5991 0.5625 0.6206
C42 C 0.5788(5) 0.6217(4) 0.5877(3)
H33 H 0.5492 0.6038 0.5708
H34 H 0.5597 0.6536 0.5920
C43 C 0.5466(4) 0.8401(3) 0.3936(3)
H35 H 0.5486 0.8528 0.4198
C44 C 0.5842(4) 0.8734(4) 0.3676(3)
H36 H 0.5852 0.8593 0.3418
C45 C 0.5525(5) 0.9223(3) 0.3656(3)
H37 H 0.5556 0.9379 0.3905
H38 H 0.5763 0.9423 0.3473
C46 C 0.4818(5) 0.9189(4) 0.3542(3)
H39 H 0.4788 0.9064 0.3282
H40 H 0.4621 0.9512 0.3545
C47 C 0.4437(5) 0.8863(4) 0.3806(3)
H41 H 0.3981 0.8833 0.3719
H42 H 0.4433 0.9001 0.4062
C48 C 0.4762(5) 0.8372(4) 0.3813(3)
H43 H 0.4521 0.8161 0.3987
H44 H 0.4740 0.8229 0.3559
C49 C 0.6566(5) 0.5457(3) 0.3358(2)
H45 H 0.6502 0.5669 0.3135
C50 C 0.7197(5) 0.5176(3) 0.3316(3)
H46 H 0.7287 0.4994 0.3551
C51 C 0.7154(5) 0.4828(4) 0.2977(3)
H47 H 0.7122 0.5015 0.2741
H48 H 0.7556 0.4634 0.2965
C52 C 0.6570(6) 0.4502(4) 0.3008(3)
H49 H 0.6634 0.4283 0.3223
H50 H 0.6537 0.4307 0.2777
C53 C 0.5933(6) 0.4780(4) 0.3063(3)
H51 H 0.5836 0.4967 0.2833
H52 H 0.5570 0.4554 0.3104
C54 C 0.5986(5) 0.5118(4) 0.3399(3)
H53 H 0.6037 0.4928 0.3632
H54 H 0.5579 0.5306 0.3421
C55 C 1.0693(4) 0.5810(3) 0.4857(3)
H55 H 1.0404 0.5530 0.4910
C56 C 1.0916(4) 0.5791(3) 0.4450(3)
H56 H 1.1188 0.6079 0.4394
C57 C 1.1327(5) 0.5340(4) 0.4387(3)
H57 H 1.1053 0.5055 0.4431
H58 H 1.1479 0.5332 0.4124
C58 C 1.1909(5) 0.5328(4) 0.4647(3)
H59 H 1.2201 0.5599 0.4591
H60 H 1.2157 0.5029 0.4606
C59 C 1.1689(5) 0.5354(4) 0.5056(3)
H61 H 1.1431 0.5068 0.5119
H62 H 1.2076 0.5362 0.5222
C60 C 1.1281(5) 0.5798(3) 0.5120(3)
H63 H 1.1552 0.6085 0.5077
H64 H 1.1128 0.5804 0.5384
C61 C 0.9675(4) 0.8783(3) 0.5302(3)
H65 H 1.0105 0.8710 0.5183
C62 C 0.9318(4) 0.9157(3) 0.5065(3)
H66 H 0.8882 0.9222 0.5180
C63 C 0.9713(5) 0.9617(3) 0.5064(3)
H67 H 1.0145 0.9556 0.4949
H68 H 0.9486 0.9859 0.4909
C64 C 0.9802(5) 0.9805(3) 0.5460(3)
H69 H 1.0059 1.0104 0.5452
H70 H 0.9370 0.9879 0.5570
C65 C 1.0149(5) 0.9441(3) 0.5703(3)
H71 H 1.0169 0.9557 0.5966
H72 H 1.0601 0.9397 0.5612
C66 C 0.9786(5) 0.8966(4) 0.5689(3)
H73 H 1.0038 0.8725 0.5832
H74 H 0.9359 0.9004 0.5816
C67 C 0.9673(6) 0.8083(4) 0.2716(3)
H75 H 1.0098 0.8100 0.2854
C68 C 0.9586(5) 0.7593(4) 0.2555(3)
H76 H 0.9139 0.7564 0.2446
C69 C 1.0100(6) 0.7496(5) 0.2243(3)
H77 H 1.0539 0.7485 0.2358
H78 H 1.0012 0.7181 0.2129
C70 C 1.0093(6) 0.7874(5) 0.1937(3)
H79 H 0.9672 0.7863 0.1802
H80 H 1.0445 0.7807 0.1754
C71 C 1.0193(7) 0.8378(5) 0.2108(3)
H81 H 1.0628 0.8399 0.2227
H82 H 1.0169 0.8621 0.1907
C72 C 0.9656(6) 0.8474(4) 0.2404(3)
H83 H 0.9223 0.8473 0.2281
H84 H 0.9725 0.8791 0.2519
N13 N 0.6900(4) 0.6688(3) -0.0327(2)
N14 N 0.5685(4) 0.6622(3) -0.0744(2)
N15 N 0.7703(4) 0.8019(3) 0.1113(2)
N16 N 0.6856(4) 0.8823(3) 0.1240(2)
N17 N 0.6858(4) 0.5838(3) 0.1319(2)
N18 N 0.5759(3) 0.5527(3) 0.17665(19)
N19 N 0.4085(4) 0.9008(3) 0.0427(2)
N20 N 0.3960(4) 0.8451(3) -0.0271(2)
N21 N 0.4302(4) 0.8155(3) 0.2122(2)
N22 N 0.3775(4) 0.7180(3) 0.2223(2)
N23 N 0.3074(3) 0.5852(3) 0.0820(2)
N24 N 0.2956(4) 0.6353(3) 0.0105(2)
C73 C 0.6886(4) 0.6713(3) 0.0356(3)
C74 C 0.7107(4) 0.7189(3) 0.0406(3)
H85 H 0.7144 0.7394 0.0194
C75 C 0.7270(4) 0.7359(3) 0.0757(3)
C76 C 0.7217(4) 0.7053(4) 0.1060(3)
H86 H 0.7334 0.7167 0.1302
C77 C 0.7006(4) 0.6597(3) 0.1026(3)
C78 C 0.6836(4) 0.6429(3) 0.0669(3)
H87 H 0.6683 0.6111 0.0642
C79 C 0.6773(4) 0.6501(3) -0.0013(3)
H88 H 0.6585 0.6191 -0.0017
C80 C 0.7505(4) 0.7855(3) 0.0803(3)
H89 H 0.7508 0.8058 0.0590
C81 C 0.6997(4) 0.6271(4) 0.1351(3)
H90 H 0.7099 0.6394 0.1592
C82 C 0.5727(4) 0.8678(3) 0.1362(3)
C83 C 0.5519(4) 0.8812(3) 0.1006(3)
H91 H 0.5831 0.8925 0.0830
C84 C 0.4867(5) 0.8785(3) 0.0898(3)
C85 C 0.4416(5) 0.8613(3) 0.1167(3)
H92 H 0.3968 0.8594 0.1102
C86 C 0.4611(4) 0.8473(3) 0.1520(3)
C87 C 0.5276(5) 0.8507(3) 0.1614(3)
H93 H 0.5416 0.8409 0.1857
C88 C 0.6414(5) 0.8691(4) 0.1465(3)
H94 H 0.6536 0.8595 0.1711
C89 C 0.4671(5) 0.8955(3) 0.0533(3)
H95 H 0.5005 0.9033 0.0358
C90 C 0.4139(5) 0.8300(3) 0.1801(3)
H96 H 0.3690 0.8299 0.1736
C91 C 0.4178(4) 0.6486(3) 0.1912(3)
C92 C 0.3669(5) 0.6450(3) 0.1661(3)
H97 H 0.3307 0.6658 0.1687
C93 C 0.3668(5) 0.6116(4) 0.1369(3)
C94 C 0.4201(4) 0.5811(3) 0.1334(3)
H98 H 0.4213 0.5586 0.1134
C95 C 0.4716(4) 0.5833(3) 0.1587(3)
C96 C 0.4691(5) 0.6173(3) 0.1875(3)
H99 H 0.5039 0.6187 0.2051
C97 C 0.4212(5) 0.6859(4) 0.2202(3)
H100 H 0.4563 0.6860 0.2376
C98 C 0.3109(4) 0.6108(4) 0.1111(3)
H101 H 0.2750 0.6309 0.1167
C99 C 0.5293(5) 0.5525(3) 0.1537(3)
H102 H 0.5313 0.5319 0.1325
C100 C 0.3970(5) 0.7591(4) -0.0241(3)
C101 C 0.4537(5) 0.7534(4) -0.0437(3)
H103 H 0.4766 0.7807 -0.0525
C102 C 0.4786(5) 0.7080(4) -0.0511(3)
C103 C 0.4444(5) 0.6682(4) -0.0375(3)
H104 H 0.4610 0.6370 -0.0418
C104 C 0.3869(4) 0.6740(3) -0.0180(3)
C105 C 0.3638(4) 0.7193(4) -0.0111(3)
H105 H 0.3246 0.7233 0.0028
C106 C 0.3697(5) 0.8068(4) -0.0165(3)
H106 H 0.3301 0.8087 -0.0028
C107 C 0.5426(5) 0.7021(4) -0.0698(3)
H107 H 0.5647 0.7297 -0.0787
C108 C 0.3508(5) 0.6320(4) -0.0060(3)
H108 H 0.3687 0.6013 -0.0106
C109 C 0.6812(5) 0.6388(4) -0.0652(3)
H109 H 0.6649 0.6068 -0.0570
C110 C 0.6324(5) 0.6610(4) -0.0924(2)
H110 H 0.6463 0.6942 -0.0988
C111 C 0.6269(6) 0.6310(4) -0.1284(3)
H111 H 0.6075 0.5996 -0.1223
H112 H 0.5978 0.6473 -0.1465
C112 C 0.6936(7) 0.6237(5) -0.1462(3)
H113 H 0.7106 0.6548 -0.1551
H114 H 0.6892 0.6025 -0.1683
C113 C 0.7423(7) 0.6018(5) -0.1186(4)
H115 H 0.7280 0.5693 -0.1115
H116 H 0.7857 0.5993 -0.1306
C114 C 0.7467(5) 0.6331(4) -0.0837(3)
H117 H 0.7776 0.6186 -0.0656
H118 H 0.7638 0.6649 -0.0907
C115 C 0.7945(5) 0.8509(3) 0.1115(3)
H119 H 0.7922 0.8646 0.0856
C116 C 0.7540(4) 0.8808(3) 0.1382(3)
H120 H 0.7549 0.8664 0.1638
C117 C 0.7797(5) 0.9310(4) 0.1397(3)
H121 H 0.7533 0.9499 0.1577
H122 H 0.7757 0.9460 0.1147
C118 C 0.8523(5) 0.9315(4) 0.1522(3)
H123 H 0.8691 0.9646 0.1518
H124 H 0.8559 0.9194 0.1783
C119 C 0.8930(5) 0.9005(4) 0.1261(3)
H125 H 0.9386 0.8995 0.1352
H126 H 0.8929 0.9144 0.1006
C120 C 0.8652(4) 0.8496(4) 0.1248(3)
H127 H 0.8914 0.8299 0.1074
H128 H 0.8675 0.8351 0.1501
C121 C 0.6926(4) 0.5534(3) 0.1649(2)
H129 H 0.6980 0.5736 0.1879
C122 C 0.6315(4) 0.5225(3) 0.1690(2)
H130 H 0.6240 0.5043 0.1452
C123 C 0.6414(5) 0.4875(3) 0.2017(2)
H131 H 0.6446 0.5057 0.2254
H132 H 0.6029 0.4663 0.2035
C124 C 0.7024(5) 0.4573(3) 0.1969(3)
H133 H 0.7083 0.4369 0.2193
H134 H 0.6971 0.4362 0.1748
C125 C 0.7625(4) 0.4881(3) 0.1916(3)
H135 H 0.7712 0.5062 0.2149
H136 H 0.8006 0.4675 0.1865
C126 C 0.7530(4) 0.5221(3) 0.1596(3)
H137 H 0.7486 0.5039 0.1359
H138 H 0.7920 0.5428 0.1573
C127 C 0.3980(4) 0.9223(3) 0.0055(3)
H139 H 0.4412 0.9300 -0.0060
C128 C 0.3605(4) 0.8891(3) -0.0204(3)
H140 H 0.3178 0.8811 -0.0084
C129 C 0.3473(5) 0.9136(3) -0.0573(3)
H141 H 0.3227 0.8916 -0.0738
H142 H 0.3894 0.9208 -0.0697
C130 C 0.3091(5) 0.9594(3) -0.0526(3)
H143 H 0.2653 0.9522 -0.0424
H144 H 0.3036 0.9750 -0.0774
C131 C 0.3452(5) 0.9926(3) -0.0260(3)
H145 H 0.3870 1.0025 -0.0376
H146 H 0.3188 1.0216 -0.0217
C132 C 0.3587(5) 0.9688(3) 0.0109(3)
H147 H 0.3169 0.9613 0.0235
H148 H 0.3834 0.9908 0.0273
C133 C 0.3784(5) 0.8037(4) 0.2391(3)
H149 H 0.3352 0.8071 0.2264
C134 C 0.3817(5) 0.8378(4) 0.2713(3)
H150 H 0.3756 0.8706 0.2617
H151 H 0.4254 0.8359 0.2829
C135 C 0.3307(6) 0.8277(4) 0.3008(3)
H152 H 0.3360 0.8503 0.3219
H153 H 0.2868 0.8325 0.2899
C136 C 0.3367(5) 0.7773(4) 0.3151(3)
H154 H 0.3004 0.7706 0.3327
H155 H 0.3781 0.7739 0.3291
C137 C 0.3351(5) 0.7417(4) 0.2833(3)
H156 H 0.2911 0.7418 0.2719
H157 H 0.3431 0.7094 0.2936
C138 C 0.3857(5) 0.7525(3) 0.2530(3)
H158 H 0.4302 0.7485 0.2640
C139 C 0.2459(4) 0.5881(4) 0.0606(3)
H159 H 0.2221 0.6176 0.0683
C140 C 0.2603(4) 0.5911(3) 0.0190(3)
H160 H 0.2877 0.5632 0.0115
C141 C 0.1980(4) 0.5909(3) -0.0039(3)
H161 H 0.2090 0.5899 -0.0309
H162 H 0.1736 0.6207 0.0010
C142 C 0.1545(5) 0.5478(4) 0.0059(3)
H163 H 0.1129 0.5502 -0.0080
H164 H 0.1766 0.5181 -0.0020
C143 C 0.1406(5) 0.5457(4) 0.0481(3)
H165 H 0.1142 0.5738 0.0556
H166 H 0.1152 0.5166 0.0540
C144 C 0.2041(5) 0.5453(4) 0.0703(3)
H167 H 0.1943 0.5455 0.0975
H168 H 0.2285 0.5157 0.0646
C145 C 0.7870(8) 0.7262(7) 0.3767(4)
C146 C 0.7637(7) 0.7589(5) 0.4046(5)
H169 H 0.7350 0.7840 0.3977
C147 C 0.7842(6) 0.7536(6) 0.4433(4)
C148 C 0.8239(7) 0.7155(6) 0.4520(4)
H170 H 0.8351 0.7106 0.4776
C149 C 0.8476(8) 0.6851(7) 0.4264(5)
H171 H 0.8768 0.6605 0.4338
C150 C 0.8296(8) 0.6896(6) 0.3899(6)
H172 H 0.8462 0.6673 0.3723
C151 C 0.7644(9) 0.7343(7) 0.3367(4)
H173 H 0.7969 0.7533 0.3232
H174 H 0.7226 0.7513 0.3369
H175 H 0.7589 0.7034 0.3241
C152 C 0.7580(7) 0.7888(5) 0.4729(4)
H176 H 0.7286 0.8117 0.4608
H177 H 0.7945 0.8060 0.4844
H178 H 0.7342 0.7712 0.4923
C153 C 0.5515(5) 0.7550(4) 0.0569(3)
C154 C 0.5726(6) 0.7586(4) 0.0933(3)
H179 H 0.6017 0.7836 0.0998
C155 C 0.5526(6) 0.7266(4) 0.1210(3)
C156 C 0.5105(6) 0.6889(5) 0.1100(4)
H180 H 0.4967 0.6659 0.1279
C157 C 0.4896(6) 0.6857(5) 0.0737(4)
H181 H 0.4602 0.6611 0.0667
C158 C 0.5104(6) 0.7172(5) 0.0473(4)
H182 H 0.4968 0.7135 0.0220
C159 C 0.5741(6) 0.7899(4) 0.0271(3)
H183 H 0.6097 0.8094 0.0372
H184 H 0.5377 0.8105 0.0198
H185 H 0.5897 0.7722 0.0051
C160 C 0.5768(6) 0.7297(5) 0.1608(3)
H186 H 0.5417 0.7413 0.1771
H187 H 0.6138 0.7518 0.1620
H188 H 0.5908 0.6981 0.1693
C161 C 0.6573(6) 0.4697(4) -0.0090(4)
C162 C 0.6062(7) 0.5005(5) -0.0194(4)
H189 H 0.5942 0.5033 -0.0451
C163 C 0.5736(6) 0.5264(4) 0.0072(6)
C164 C 0.5925(8) 0.5223(5) 0.0440(5)
H190 H 0.5716 0.5406 0.0629
C165 C 0.6413(8) 0.4917(6) 0.0531(4)
H191 H 0.6538 0.4885 0.0787
C166 C 0.6722(6) 0.4661(4) 0.0269(4)
H192 H 0.7057 0.4447 0.0343
C167 C 0.6914(7) 0.4392(6) -0.0384(4)
H193 H 0.7184 0.4151 -0.0259
H194 H 0.7191 0.4595 -0.0542
H195 H 0.6587 0.4234 -0.0541
C168 C 0.5204(8) 0.5581(6) -0.0046(7)
H196 H 0.4800 0.5397 -0.0069
H197 H 0.5313 0.5725 -0.0288
H198 H 0.5145 0.5833 0.0142
C169 C 0.1956(8) 0.7245(5) 0.1606(4)
C170 C 0.2539(8) 0.7381(5) 0.1431(4)
H199 H 0.2884 0.7509 0.1577
C171 C 0.2620(11) 0.7327(5) 0.1025(5)
C172 C 0.2116(16) 0.7135(6) 0.0831(7)
H200 H 0.2157 0.7092 0.0568
C173 C 0.1533(11) 0.6996(6) 0.1012(7)
H201 H 0.1184 0.6864 0.0871
C174 C 0.1472(7) 0.7055(5) 0.1396(5)
H202 H 0.1080 0.6959 0.1516
C175 C 0.1895(7) 0.7300(6) 0.2018(4)
H203 H 0.1794 0.7633 0.2078
H204 H 0.2306 0.7209 0.2139
H205 H 0.1543 0.7095 0.2111
C176 C 0.3317(10) 0.7464(6) 0.0866(5)
H206 H 0.3645 0.7426 0.1064
H207 H 0.3313 0.7797 0.0781
H208 H 0.3425 0.7256 0.0654
C177 C 0.0729(10) 0.7343(6) 0.4067(5)
C178 C 0.0847(8) 0.7405(5) 0.3670(4)
H209 H 0.0525 0.7546 0.3513
C179 C 0.1437(7) 0.7257(5) 0.3521(4)
C180 C 0.1911(7) 0.7051(5) 0.3736(5)
H210 H 0.2309 0.6946 0.3627
C181 C 0.1787(9) 0.6996(6) 0.4141(5)
H211 H 0.2101 0.6861 0.4306
C182 C 0.1218(14) 0.7143(6) 0.4260(5)
H212 H 0.1141 0.7102 0.4522
C183 C -0.0012(8) 0.7509(6) 0.4195(5)
H213 H -0.0265 0.7594 0.3971
H214 H 0.0017 0.7786 0.4362
H215 H -0.0227 0.7246 0.4326
C184 C 0.1522(6) 0.7324(5) 0.3091(3)
H216 H 0.1858 0.7104 0.2999
H217 H 0.1654 0.7653 0.3038
H218 H 0.1108 0.7256 0.2964
C185 C 0.7975(13) 0.7057(12) 0.2068(7)
C186 C 0.8443(11) 0.7052(8) 0.1788(6)
H219 H 0.8488 0.7344 0.1654
C187 C 0.8852(13) 0.6693(9) 0.1673(7)
C188 C 0.8757(17) 0.6284(10) 0.1872(9)
H220 H 0.9018 0.6019 0.1801
C189 C 0.833(3) 0.6210(12) 0.2165(10)
H221 H 0.8300 0.5918 0.2300
C190 C 0.7912(14) 0.6621(14) 0.2249(8)
H222 H 0.7586 0.6589 0.2436
C191 C 0.7578(13) 0.7579(14) 0.2195(9)
H223 H 0.7898 0.7813 0.2283
H224 H 0.7265 0.7511 0.2396
H225 H 0.7346 0.7708 0.1977
C192 C 0.9300(13) 0.6763(11) 0.1354(6)
H226 H 0.9048 0.6836 0.1128
H227 H 0.9553 0.6471 0.1314
H228 H 0.9596 0.7028 0.1410
C193 C 0.6605(9) 1.0308(7) 0.1545(5)
C194 C 0.6798(10) 1.0465(7) 0.1897(5)
H229 H 0.6581 1.0325 0.2105
C195 C 0.7262(12) 1.0796(9) 0.1979(5)
C196 C 0.7579(12) 1.1005(9) 0.1676(6)
H230 H 0.7897 1.1245 0.1722
C197 C 0.7446(11) 1.0875(8) 0.1320(6)
H231 H 0.7692 1.1015 0.1122
C198 C 0.6959(9) 1.0544(7) 0.1228(5)
H232 H 0.6858 1.0472 0.0974
C199 C 0.6104(10) 0.9976(8) 0.1469(6)
H233 H 0.6282 0.9707 0.1327
H234 H 0.5761 1.0131 0.1321
H235 H 0.5919 0.9861 0.1706
C200 C 0.7420(14) 1.0952(10) 0.2378(6)
H236 H 0.7670 1.0701 0.2504
H237 H 0.7014 1.1010 0.2515
H238 H 0.7678 1.1246 0.2371
C201 C 0.9652(15) 0.5076(10) 0.2393(7)
C202 C 0.9992(16) 0.5491(10) 0.2513(7)
C203 C 1.0355(17) 0.5785(11) 0.2282(8)
C204 C 1.048(2) 0.5653(14) 0.1907(9)
C205 C 1.024(2) 0.5234(15) 0.1778(10)
C206 C 0.976(2) 0.4978(13) 0.1983(8)
C207 C 0.9292(19) 0.4787(13) 0.2639(9)
C208 C 1.078(2) 0.6173(15) 0.2454(12)
C216 C 0.5542(10) 0.9712(8) 0.2616(7)
C218 C 0.6179(13) 0.8366(9) 0.2555(10)
C219 C 0.6861(14) 0.8393(11) 0.2498(13)
C220 C 0.7198(12) 0.8816(11) 0.2498(10)
C221 C 0.6862(16) 0.9250(10) 0.2508(12)
C222 C 0.6211(15) 0.9260(10) 0.2527(13)
C223 C 0.5843(13) 0.8836(10) 0.2567(9)
C224 C 0.5887(17) 0.7934(10) 0.2676(11)
C225 C 0.5652(10) 0.6443(8) 0.2771(6)
C226 C 0.5371(10) 0.6763(8) 0.3042(6)
C227 C 0.4824(8) 0.6671(5) 0.3264(4)
C228 C 0.4531(11) 0.6225(7) 0.3247(6)
C229 C 0.4749(15) 0.5901(9) 0.3000(9)
C230 C 0.5297(12) 0.5975(8) 0.2771(7)
C231 C 0.6194(12) 0.6504(10) 0.2540(8)
C232 C 0.4614(18) 0.7028(11) 0.3561(9)
C209? C 1.058(3) 0.504(2) 0.1380(15)
C210? C 0.6196(10) 0.9555(8) 0.2650(7)
C211? C 0.6611(11) 0.9810(9) 0.2905(8)
C212? C 0.7266(11) 0.9712(9) 0.2954(7)
C213? C 0.7546(11) 0.9373(9) 0.2717(7)
C214? C 0.7187(10) 0.9066(10) 0.2514(7)
C215? C 0.6488(11) 0.9094(9) 0.2511(9)
C217? C 0.7711(14) 1.0004(11) 0.3220(9)
C233? C 0.7938(16) 0.882(2) 0.254(4)
C234? C 0.5666(11) 0.7107(8) 0.2906(6)
C235? C 0.5171(10) 0.7065(6) 0.3175(6)
C236? C 0.4824(8) 0.6671(5) 0.3264(4)
C237? C 0.4912(15) 0.6254(8) 0.3062(9)
C238? C 0.5396(12) 0.6246(8) 0.2820(6)
C239? C 0.577(2) 0.6653(10) 0.2689(11)
C240? C 0.590(2) 0.7568(10) 0.2825(11)
C241? C 0.427(2) 0.6691(17) 0.3552(14)
loop_
_geom_bond_atom_site_label_1
_geom_bond_atom_site_label_2
_geom_bond_site_symmetry_1
_geom_bond_site_symmetry_2
N1 C7 1_555 1_555
N2 C16 1_555 1_555
N3 C8 1_555 1_555
N4 C27 1_555 1_555
N5 C9 1_555 1_555
N6 C35 1_555 1_555
N7 C17 1_555 1_555
N8 C34 1_555 1_555
N9 C18 1_555 1_555
N10 C25 1_555 1_555
N11 C26 1_555 1_555
N12 C36 1_555 1_555
N13 C79 1_555 1_555
N14 C107 1_555 1_555
N15 C80 1_555 1_555
N16 C88 1_555 1_555
N17 C81 1_555 1_555
N18 C99 1_555 1_555
N19 C89 1_555 1_555
N20 C106 1_555 1_555
N21 C90 1_555 1_555
N22 C97 1_555 1_555
N23 C98 1_555 1_555
N24 C108 1_555 1_555
C1 C2 1_555 1_555
C2 H1 1_555 1_555
C3 C2 1_555 1_555
C4 C3 1_555 1_555
H2 C4 1_555 1_555
C5 C4 1_555 1_555
C6 C1 1_555 1_555
H3 C6 1_555 1_555
C7 C1 1_555 1_555
H4 C7 1_555 1_555
C8 C3 1_555 1_555
H5 C8 1_555 1_555
C9 C5 1_555 1_555
H6 C9 1_555 1_555
C10 C11 1_555 1_555
C11 H7 1_555 1_555
C12 C11 1_555 1_555
C13 C12 1_555 1_555
H8 C13 1_555 1_555
C14 C13 1_555 1_555
C15 C10 1_555 1_555
H9 C15 1_555 1_555
C16 C10 1_555 1_555
H10 C16 1_555 1_555
C17 C12 1_555 1_555
H11 C17 1_555 1_555
C18 C14 1_555 1_555
H12 C18 1_555 1_555
C19 C20 1_555 1_555
C20 H13 1_555 1_555
C21 C20 1_555 1_555
C22 C21 1_555 1_555
H14 C22 1_555 1_555
C23 C22 1_555 1_555
C24 C19 1_555 1_555
H15 C24 1_555 1_555
C25 C19 1_555 1_555
H16 C25 1_555 1_555
C26 C21 1_555 1_555
H17 C26 1_555 1_555
C27 C23 1_555 1_555
H18 C27 1_555 1_555
C28 C29 1_555 1_555
C29 H19 1_555 1_555
C30 C29 1_555 1_555
C31 C30 1_555 1_555
H20 C31 1_555 1_555
C32 C31 1_555 1_555
C33 C28 1_555 1_555
H21 C33 1_555 1_555
C34 C30 1_555 1_555
H22 C34 1_555 1_555
C35 C32 1_555 1_555
H23 C35 1_555 1_555
C36 C28 1_555 1_555
H24 C36 1_555 1_555
C37 N1 1_555 1_555
H25 C37 1_555 1_555
C38 N2 1_555 1_555
H26 C38 1_555 1_555
C39 C38 1_555 1_555
H27 C39 1_555 1_555
H28 C39 1_555 1_555
C40 C39 1_555 1_555
H29 C40 1_555 1_555
H30 C40 1_555 1_555
C41 C40 1_555 1_555
H31 C41 1_555 1_555
H32 C41 1_555 1_555
C42 C37 1_555 1_555
H33 C42 1_555 1_555
H34 C42 1_555 1_555
C43 N3 1_555 1_555
H35 C43 1_555 1_555
C44 N4 1_555 1_555
H36 C44 1_555 1_555
C45 C44 1_555 1_555
H37 C45 1_555 1_555
H38 C45 1_555 1_555
C46 C45 1_555 1_555
H39 C46 1_555 1_555
H40 C46 1_555 1_555
C47 C46 1_555 1_555
H41 C47 1_555 1_555
H42 C47 1_555 1_555
C48 C43 1_555 1_555
H43 C48 1_555 1_555
H44 C48 1_555 1_555
C49 N5 1_555 1_555
H45 C49 1_555 1_555
C50 N6 1_555 1_555
H46 C50 1_555 1_555
C51 C50 1_555 1_555
H47 C51 1_555 1_555
H48 C51 1_555 1_555
C52 C51 1_555 1_555
H49 C52 1_555 1_555
H50 C52 1_555 1_555
C53 C52 1_555 1_555
H51 C53 1_555 1_555
H52 C53 1_555 1_555
C54 C49 1_555 1_555
H53 C54 1_555 1_555
H54 C54 1_555 1_555
C55 N7 1_555 1_555
H55 C55 1_555 1_555
C56 N8 1_555 1_555
H56 C56 1_555 1_555
C57 C56 1_555 1_555
H57 C57 1_555 1_555
H58 C57 1_555 1_555
C58 C57 1_555 1_555
H59 C58 1_555 1_555
H60 C58 1_555 1_555
C59 C58 1_555 1_555
H61 C59 1_555 1_555
H62 C59 1_555 1_555
C60 C55 1_555 1_555
H63 C60 1_555 1_555
H64 C60 1_555 1_555
C61 N9 1_555 1_555
H65 C61 1_555 1_555
C62 N10 1_555 1_555
H66 C62 1_555 1_555
C63 C62 1_555 1_555
H67 C63 1_555 1_555
H68 C63 1_555 1_555
C64 C63 1_555 1_555
H69 C64 1_555 1_555
H70 C64 1_555 1_555
C65 C64 1_555 1_555
H71 C65 1_555 1_555
H72 C65 1_555 1_555
C66 C61 1_555 1_555
H73 C66 1_555 1_555
H74 C66 1_555 1_555
C67 N11 1_555 1_555
H75 C67 1_555 1_555
C68 N12 1_555 1_555
H76 C68 1_555 1_555
C69 C68 1_555 1_555
H77 C69 1_555 1_555
H78 C69 1_555 1_555
C70 C69 1_555 1_555
H79 C70 1_555 1_555
H80 C70 1_555 1_555
C71 C70 1_555 1_555
H81 C71 1_555 1_555
H82 C71 1_555 1_555
C72 C67 1_555 1_555
H83 C72 1_555 1_555
H84 C72 1_555 1_555
C73 C74 1_555 1_555
C74 H85 1_555 1_555
C75 C74 1_555 1_555
C76 C75 1_555 1_555
H86 C76 1_555 1_555
C77 C76 1_555 1_555
C78 C73 1_555 1_555
H87 C78 1_555 1_555
C79 C73 1_555 1_555
H88 C79 1_555 1_555
C80 C75 1_555 1_555
H89 C80 1_555 1_555
C81 C77 1_555 1_555
H90 C81 1_555 1_555
C82 C83 1_555 1_555
C83 H91 1_555 1_555
C84 C83 1_555 1_555
C85 C84 1_555 1_555
H92 C85 1_555 1_555
C86 C85 1_555 1_555
C87 C82 1_555 1_555
H93 C87 1_555 1_555
C88 C82 1_555 1_555
H94 C88 1_555 1_555
C89 C84 1_555 1_555
H95 C89 1_555 1_555
C90 C86 1_555 1_555
H96 C90 1_555 1_555
C91 C92 1_555 1_555
C92 H97 1_555 1_555
C93 C92 1_555 1_555
C94 C93 1_555 1_555
H98 C94 1_555 1_555
C95 C94 1_555 1_555
C96 C91 1_555 1_555
H99 C96 1_555 1_555
C97 C91 1_555 1_555
H100 C97 1_555 1_555
C98 C93 1_555 1_555
H101 C98 1_555 1_555
C99 C95 1_555 1_555
H102 C99 1_555 1_555
C100 C101 1_555 1_555
C101 H103 1_555 1_555
C102 C101 1_555 1_555
C103 C102 1_555 1_555
H104 C103 1_555 1_555
C104 C103 1_555 1_555
C105 C100 1_555 1_555
H105 C105 1_555 1_555
C106 C100 1_555 1_555
H106 C106 1_555 1_555
C107 C102 1_555 1_555
H107 C107 1_555 1_555
C108 C104 1_555 1_555
H108 C108 1_555 1_555
C109 N13 1_555 1_555
H109 C109 1_555 1_555
C110 N14 1_555 1_555
H110 C110 1_555 1_555
C111 C110 1_555 1_555
H111 C111 1_555 1_555
H112 C111 1_555 1_555
C112 C111 1_555 1_555
H113 C112 1_555 1_555
H114 C112 1_555 1_555
C113 C112 1_555 1_555
H115 C113 1_555 1_555
H116 C113 1_555 1_555
C114 C109 1_555 1_555
H117 C114 1_555 1_555
H118 C114 1_555 1_555
C115 N15 1_555 1_555
H119 C115 1_555 1_555
C116 N16 1_555 1_555
H120 C116 1_555 1_555
C117 C116 1_555 1_555
H121 C117 1_555 1_555
H122 C117 1_555 1_555
C118 C117 1_555 1_555
H123 C118 1_555 1_555
H124 C118 1_555 1_555
C119 C118 1_555 1_555
H125 C119 1_555 1_555
H126 C119 1_555 1_555
C120 C115 1_555 1_555
H127 C120 1_555 1_555
H128 C120 1_555 1_555
C121 N17 1_555 1_555
H129 C121 1_555 1_555
C122 N18 1_555 1_555
H130 C122 1_555 1_555
C123 C122 1_555 1_555
H131 C123 1_555 1_555
H132 C123 1_555 1_555
C124 C123 1_555 1_555
H133 C124 1_555 1_555
H134 C124 1_555 1_555
C125 C124 1_555 1_555
H135 C125 1_555 1_555
H136 C125 1_555 1_555
C126 C121 1_555 1_555
H137 C126 1_555 1_555
H138 C126 1_555 1_555
C127 N19 1_555 1_555
H139 C127 1_555 1_555
C128 N20 1_555 1_555
H140 C128 1_555 1_555
C129 C128 1_555 1_555
H141 C129 1_555 1_555
H142 C129 1_555 1_555
C130 C129 1_555 1_555
H143 C130 1_555 1_555
H144 C130 1_555 1_555
C131 C130 1_555 1_555
H145 C131 1_555 1_555
H146 C131 1_555 1_555
C132 C127 1_555 1_555
H147 C132 1_555 1_555
H148 C132 1_555 1_555
C133 N21 1_555 1_555
H149 C133 1_555 1_555
C134 C133 1_555 1_555
H150 C134 1_555 1_555
H151 C134 1_555 1_555
C135 C134 1_555 1_555
H152 C135 1_555 1_555
H153 C135 1_555 1_555
C136 C135 1_555 1_555
H154 C136 1_555 1_555
H155 C136 1_555 1_555
C137 C136 1_555 1_555
H156 C137 1_555 1_555
H157 C137 1_555 1_555
C138 N22 1_555 1_555
H158 C138 1_555 1_555
C139 N23 1_555 1_555
H159 C139 1_555 1_555
C140 N24 1_555 1_555
H160 C140 1_555 1_555
C141 C140 1_555 1_555
H161 C141 1_555 1_555
H162 C141 1_555 1_555
C142 C141 1_555 1_555
H163 C142 1_555 1_555
H164 C142 1_555 1_555
C143 C142 1_555 1_555
H165 C143 1_555 1_555
H166 C143 1_555 1_555
C144 C139 1_555 1_555
H167 C144 1_555 1_555
H168 C144 1_555 1_555
C145 C146 1_555 1_555
C146 H169 1_555 1_555
C147 C146 1_555 1_555
C148 C147 1_555 1_555
H170 C148 1_555 1_555
C149 C148 1_555 1_555
H171 C149 1_555 1_555
C150 C145 1_555 1_555
H172 C150 1_555 1_555
C151 C145 1_555 1_555
H173 C151 1_555 1_555
H174 C151 1_555 1_555
H175 C151 1_555 1_555
C152 C147 1_555 1_555
H176 C152 1_555 1_555
H177 C152 1_555 1_555
H178 C152 1_555 1_555
C153 C154 1_555 1_555
C154 H179 1_555 1_555
C155 C154 1_555 1_555
C156 C155 1_555 1_555
H180 C156 1_555 1_555
C157 C156 1_555 1_555
H181 C157 1_555 1_555
C158 C153 1_555 1_555
H182 C158 1_555 1_555
C159 C153 1_555 1_555
H183 C159 1_555 1_555
H184 C159 1_555 1_555
H185 C159 1_555 1_555
C160 C155 1_555 1_555
H186 C160 1_555 1_555
H187 C160 1_555 1_555
H188 C160 1_555 1_555
C161 C162 1_555 1_555
C162 H189 1_555 1_555
C163 C162 1_555 1_555
C164 C163 1_555 1_555
H190 C164 1_555 1_555
C165 C164 1_555 1_555
H191 C165 1_555 1_555
C166 C161 1_555 1_555
H192 C166 1_555 1_555
C167 C161 1_555 1_555
H193 C167 1_555 1_555
H194 C167 1_555 1_555
H195 C167 1_555 1_555
C168 C163 1_555 1_555
H196 C168 1_555 1_555
H197 C168 1_555 1_555
H198 C168 1_555 1_555
C169 C170 1_555 1_555
C170 H199 1_555 1_555
C171 C170 1_555 1_555
C172 C171 1_555 1_555
H200 C172 1_555 1_555
C173 C172 1_555 1_555
H201 C173 1_555 1_555
C174 C169 1_555 1_555
H202 C174 1_555 1_555
C175 C169 1_555 1_555
H203 C175 1_555 1_555
H204 C175 1_555 1_555
H205 C175 1_555 1_555
C176 C171 1_555 1_555
H206 C176 1_555 1_555
H207 C176 1_555 1_555
H208 C176 1_555 1_555
C177 C178 1_555 1_555
C178 H209 1_555 1_555
C179 C178 1_555 1_555
C180 C179 1_555 1_555
H210 C180 1_555 1_555
C181 C180 1_555 1_555
H211 C181 1_555 1_555
C182 C177 1_555 1_555
H212 C182 1_555 1_555
C183 C177 1_555 1_555
H213 C183 1_555 1_555
H214 C183 1_555 1_555
H215 C183 1_555 1_555
C184 C179 1_555 1_555
H216 C184 1_555 1_555
H217 C184 1_555 1_555
H218 C184 1_555 1_555
C185 C186 1_555 1_555
C186 H219 1_555 1_555
C187 C186 1_555 1_555
C188 C187 1_555 1_555
H220 C188 1_555 1_555
C189 C188 1_555 1_555
H221 C189 1_555 1_555
C190 C185 1_555 1_555
H222 C190 1_555 1_555
C191 C185 1_555 1_555
H223 C191 1_555 1_555
H224 C191 1_555 1_555
H225 C191 1_555 1_555
C192 C187 1_555 1_555
H226 C192 1_555 1_555
H227 C192 1_555 1_555
H228 C192 1_555 1_555
C193 C194 1_555 1_555
C194 H229 1_555 1_555
C195 C194 1_555 1_555
C196 C195 1_555 1_555
H230 C196 1_555 1_555
C197 C196 1_555 1_555
H231 C197 1_555 1_555
C198 C193 1_555 1_555
H232 C198 1_555 1_555
C199 C193 1_555 1_555
H233 C199 1_555 1_555
H234 C199 1_555 1_555
H235 C199 1_555 1_555
C200 C195 1_555 1_555
H236 C200 1_555 1_555
H237 C200 1_555 1_555
H238 C200 1_555 1_555
C201 C202 1_555 1_555
C202 C203 1_555 1_555
C203 C204 1_555 1_555
C204 C205 1_555 1_555
C205 C206 1_555 1_555
C206 C201 1_555 1_555
C207 C201 1_555 1_555
C208 C203 1_555 1_555
C216 C222 1_555 1_555
C218 C219 1_555 1_555
C219 C220 1_555 1_555
C220 C221 1_555 1_555
C221 C222 1_555 1_555
C222 C223 1_555 1_555
C223 C218 1_555 1_555
C224 C218 1_555 1_555
C225 C226 1_555 1_555
C226 C227 1_555 1_555
C227 C228 1_555 1_555
C228 C229 1_555 1_555
C229 C230 1_555 1_555
C230 C225 1_555 1_555
C231 C225 1_555 1_555
C232 C227 1_555 1_555
C5 C6 1_555 1_555
C14 C15 1_555 1_555
C23 C24 1_555 1_555
C32 C33 1_555 1_555
C37 C38 1_555 1_555
C41 C42 1_555 1_555
C43 C44 1_555 1_555
C47 C48 1_555 1_555
C49 C50 1_555 1_555
C53 C54 1_555 1_555
C55 C56 1_555 1_555
C59 C60 1_555 1_555
C61 C62 1_555 1_555
C65 C66 1_555 1_555
C67 C68 1_555 1_555
C71 C72 1_555 1_555
C77 C78 1_555 1_555
C86 C87 1_555 1_555
C95 C96 1_555 1_555
C104 C105 1_555 1_555
C109 C110 1_555 1_555
C113 C114 1_555 1_555
C115 C116 1_555 1_555
C119 C120 1_555 1_555
C121 C122 1_555 1_555
C125 C126 1_555 1_555
C127 C128 1_555 1_555
C131 C132 1_555 1_555
C133 C138 1_555 1_555
C137 C138 1_555 1_555
C139 C140 1_555 1_555
C143 C144 1_555 1_555
C149 C150 1_555 1_555
C157 C158 1_555 1_555
C165 C166 1_555 1_555
C173 C174 1_555 1_555
C181 C182 1_555 1_555
C189 C190 1_555 1_555
C197 C198 1_555 1_555

#END
