
#######################################################################
#
#                 Cambridge Crystallographic Data Centre
#                                CCDC 
#
#######################################################################
#
# If this CIF has been generated from an entry in the Cambridge 
# Structural Database, then it will include bibliographic, chemical, 
# crystal, experimental, refinement or atomic coordinate data resulting 
# from the CCDC's data processing and validation procedures.
#
#######################################################################

data_HEVQOQ
_chemical_formula_moiety         'C72 H84 N12,4.75(C9 H12)'
_chemical_name_systematic        
'3,5,9,11,15,17,21,23,26,28,31,33-dodecaaza-1,7,13,19(1,3,5)-tetrabenzena-4,10,16,22,27,32(1,3,5)-hexacyclohexano-bicyclo[17.11.5]tetratriacontaphane-2,5,8,11,14,17,20,23,25,28,30,33-dodecaene mesitylene clathrate'
_symmetry_cell_setting           orthorhombic
_symmetry_space_group_name_H-M   'C 2 2 21'
_symmetry_Int_Tables_number      20
_space_group_name_Hall           'C 2n 2'
loop_
_symmetry_equiv_pos_site_id
_symmetry_equiv_pos_as_xyz
1 x,y,z
2 -x,-y,1/2+z
3 -x,y,1/2-z
4 x,-y,-z
5 1/2+x,1/2+y,z
6 1/2-x,1/2-y,1/2+z
7 1/2-x,1/2+y,1/2-z
8 1/2+x,1/2-y,-z
_cell_length_a                   28.3772(19)
_cell_length_b                   35.137(2)
_cell_length_c                   21.3407(13)
_cell_angle_alpha                90
_cell_angle_beta                 90
_cell_angle_gamma                90
_cell_volume                     21278.6
_exptl_crystal_colour            colorless
_exptl_crystal_description       block
_cell_formula_units_Z            8
loop_
_atom_site_label
_atom_site_type_symbol
_atom_site_fract_x
_atom_site_fract_y
_atom_site_fract_z
N1 N 0.15716(11) 0.78581(9) 0.47493(13)
N2 N 0.16505(10) 0.83078(8) 0.58856(12)
N3 N 0.27430(11) 0.63438(10) 0.41101(16)
N4 N 0.35963(13) 0.62421(14) 0.4888(2)
N5 N 0.05712(11) 0.62394(9) 0.50389(15)
N6 N 0.03851(10) 0.58622(9) 0.62256(14)
N7 N 0.39418(15) 0.7096(2) 0.7557(2)
N8 N 0.33980(13) 0.7793(2) 0.76805(16)
N9 N 0.29956(17) 0.5439(2) 0.7469(3)
N10 N 0.20635(12) 0.53925(11) 0.80796(16)
N11 N 0.07616(12) 0.68736(9) 0.86613(14)
N12 N 0.12802(10) 0.75917(9) 0.86297(13)
C1 C 0.14981(14) 0.71752(11) 0.48312(15)
C2 C 0.19548(13) 0.71021(11) 0.46067(15)
H1 H 0.2164 0.7308 0.4530
C3 C 0.21048(14) 0.67320(11) 0.44955(17)
C4 C 0.17858(14) 0.64295(11) 0.45960(18)
H2 H 0.1881 0.6175 0.4517
C5 C 0.13337(13) 0.65036(11) 0.48093(16)
C6 C 0.11898(14) 0.68710(12) 0.49307(15)
H3 H 0.0880 0.6917 0.5082
C7 C 0.13317(13) 0.75717(11) 0.49129(14)
H4 H 0.1031 0.7613 0.5097
C8 C 0.25864(15) 0.66687(12) 0.42569(18)
H5 H 0.2789 0.6882 0.4211
C9 C 0.09953(13) 0.61828(10) 0.49014(17)
H6 H 0.1104 0.5929 0.4855
C10 C 0.37221(18) 0.6628(3) 0.6805(3)
C11 C 0.3542(2) 0.6374(3) 0.7261(3)
H7 H 0.3563 0.6443 0.7691
C12 C 0.3351(2) 0.6052(3) 0.7118(3)
C13 C 0.3318(2) 0.5915(3) 0.6464(3)
H8 H 0.3187 0.5675 0.6357
C14 C 0.34971(19) 0.6172(2) 0.6012(3)
C15 C 0.37046(18) 0.6515(2) 0.6184(3)
H9 H 0.3837 0.6674 0.5870
C16 C 0.39283(17) 0.7002(3) 0.6998(2)
H10 H 0.4050 0.7169 0.6688
C17 C 0.3169(2) 0.5773(3) 0.7609(3)
H11 H 0.3182 0.5846 0.8038
C18 C 0.3451(2) 0.6038(2) 0.5334(3)
H12 H 0.3311 0.5798 0.5247
C19 C 0.10507(14) 0.63028(12) 0.8173(2)
C20 C 0.07308(15) 0.63292(12) 0.76649(18)
H13 H 0.0508 0.6531 0.7654
C21 C 0.07392(14) 0.60675(11) 0.71878(19)
C22 C 0.10684(15) 0.57730(12) 0.7204(2)
H14 H 0.1073 0.5590 0.6877
C23 C 0.13905(15) 0.57447(12) 0.7695(2)
C24 C 0.13663(14) 0.60097(14) 0.8183(2)
H15 H 0.1575 0.5985 0.8529
C25 C 0.10350(15) 0.65931(13) 0.86689(19)
H16 H 0.1244 0.6567 0.9014
C26 C 0.04078(13) 0.61023(10) 0.66551(18)
H17 H 0.0204 0.6316 0.6640
C27 C 0.17366(15) 0.54346(15) 0.7663(2)
H18 H 0.1720 0.5259 0.7325
C28 C 0.20705(12) 0.80886(13) 0.68008(16)
C29 C 0.16582(13) 0.79932(12) 0.71383(15)
H19 H 0.1356 0.8052 0.6972
C30 C 0.16980(13) 0.78116(11) 0.77165(15)
C31 C 0.21335(13) 0.77301(13) 0.79590(16)
H20 H 0.2157 0.7611 0.8357
C32 C 0.25512(14) 0.78209(15) 0.76237(16)
C33 C 0.25140(13) 0.80040(14) 0.70553(16)
H21 H 0.2791 0.8074 0.6834
C34 C 0.20358(13) 0.82544(12) 0.61689(15)
H22 H 0.2319 0.8325 0.5962
C35 C 0.12652(12) 0.77309(11) 0.80862(14)
H23 H 0.0967 0.7786 0.7906
C36 C 0.29994(14) 0.77345(18) 0.79217(17)
H24 H 0.2991 0.7626 0.8329
C37 C 0.13689(12) 0.82328(10) 0.48117(15)
H25 H 0.1041 0.8212 0.4981
C38 C 0.16716(11) 0.84658(10) 0.52620(14)
H26 H 0.2006 0.8461 0.5114
C39 C 0.14971(16) 0.88819(11) 0.52743(18)
H27 H 0.1178 0.8890 0.5462
H28 H 0.1709 0.9034 0.5544
C40 C 0.14791(18) 0.90612(13) 0.4621(2)
H29 H 0.1351 0.9323 0.4651
H30 H 0.1802 0.9078 0.4447
C41 C 0.11762(17) 0.88283(15) 0.41954(19)
H31 H 0.1177 0.8942 0.3771
H32 H 0.0848 0.8830 0.4352
C42 C 0.13559(15) 0.84175(13) 0.41603(16)
H33 H 0.1676 0.8415 0.3977
H34 H 0.1147 0.8267 0.3882
C43 C 0.32253(14) 0.63369(12) 0.3853(2)
H35 H 0.3360 0.6600 0.3859
C44 C 0.35321(16) 0.60730(14) 0.4257(2)
H36 H 0.3372 0.5821 0.4300
C45 C 0.40183(18) 0.60152(17) 0.3957(3)
H37 H 0.4193 0.6259 0.3963
H38 H 0.4199 0.5828 0.4207
C46 C 0.39783(19) 0.58771(17) 0.3297(3)
H39 H 0.3828 0.5623 0.3294
H40 H 0.4297 0.5851 0.3114
C47 C 0.36874(16) 0.61505(14) 0.2896(2)
H41 H 0.3658 0.6049 0.2465
H42 H 0.3846 0.6401 0.2874
C48 C 0.31982(16) 0.61958(14) 0.3189(2)
H43 H 0.3011 0.6377 0.2936
H44 H 0.3034 0.5947 0.3182
C49 C 0.02539(13) 0.59153(11) 0.51056(17)
H45 H 0.0443 0.5676 0.5068
C50 C 0.00274(12) 0.59225(10) 0.57377(18)
H46 H -0.0129 0.6174 0.5804
C51 C -0.03409(13) 0.55993(12) 0.5809(2)
H47 H -0.0181 0.5349 0.5790
H48 H -0.0499 0.5621 0.6221
C52 C -0.07063(14) 0.56248(13) 0.5289(2)
H49 H -0.0934 0.5413 0.5331
H50 H -0.0882 0.5867 0.5327
C53 C -0.04723(14) 0.56053(14) 0.4658(2)
H51 H -0.0714 0.5627 0.4325
H52 H -0.0314 0.5356 0.4610
C54 C -0.01142(15) 0.59197(12) 0.45826(19)
H53 H -0.0278 0.6168 0.4584
H54 H 0.0046 0.5891 0.4173
C55 C 0.41582(17) 0.7452(3) 0.7710(2)
H55 H 0.4266 0.7581 0.7318
C56 C 0.38135(15) 0.7711(3) 0.8056(2)
H56 H 0.3706 0.7572 0.8440
C57 C 0.40449(18) 0.8067(3) 0.8265(2)
H57 H 0.3818 0.8221 0.8510
H58 H 0.4141 0.8218 0.7894
C58 C 0.44832(18) 0.7981(5) 0.8672(3)
H59 H 0.4638 0.8224 0.8790
H60 H 0.4383 0.7852 0.9062
C59 C 0.48269(16) 0.7736(4) 0.8334(2)
H61 H 0.5096 0.7677 0.8613
H62 H 0.4949 0.7873 0.7963
C60 C 0.45849(18) 0.7363(4) 0.8126(3)
H63 H 0.4812 0.7204 0.7890
H64 H 0.4482 0.7219 0.8499
C61 C 0.28892(17) 0.5201(2) 0.8019(3)
H65 H 0.2950 0.5344 0.8417
C62 C 0.23697(16) 0.50708(16) 0.7980(2)
H66 H 0.2304 0.4950 0.7564
C63 C 0.22817(18) 0.47847(16) 0.8515(2)
H67 H 0.2333 0.4913 0.8923
H68 H 0.1950 0.4698 0.8501
C64 C 0.2610(2) 0.4437(2) 0.8466(3)
H69 H 0.2546 0.4260 0.8817
H70 H 0.2549 0.4300 0.8069
C65 C 0.3118(2) 0.4562(2) 0.8488(3)
H71 H 0.3327 0.4338 0.8435
H72 H 0.3187 0.4677 0.8901
C66 C 0.3216(2) 0.4853(3) 0.7965(4)
H73 H 0.3548 0.4938 0.7991
H74 H 0.3169 0.4730 0.7552
C67 C 0.07738(14) 0.71379(12) 0.91880(16)
H75 H 0.1046 0.7072 0.9465
C68 C 0.08299(12) 0.75482(11) 0.89577(16)
H76 H 0.0565 0.7612 0.8667
C69 C 0.08256(16) 0.78227(14) 0.95144(19)
H77 H 0.0858 0.8087 0.9361
H78 H 0.1097 0.7767 0.9792
C70 C 0.03663(18) 0.77831(16) 0.9886(2)
H79 H 0.0097 0.7861 0.9620
H80 H 0.0376 0.7954 1.0255
C71 C 0.02953(18) 0.73699(19) 1.01062(19)
H81 H 0.0543 0.7304 1.0414
H82 H -0.0014 0.7347 1.0318
C72 C 0.03148(17) 0.70919(15) 0.9560(2)
H83 H 0.0043 0.7137 0.9280
H84 H 0.0293 0.6828 0.9721
C73 C 0.30412(15) 0.82753(13) 0.4923(2)
C74 C 0.33254(17) 0.82220(15) 0.5429(2)
H85 H 0.3409 0.7970 0.5545
C75 C 0.34976(17) 0.85245(15) 0.5783(2)
C76 C 0.33663(16) 0.88832(14) 0.5614(2)
H86 H 0.3473 0.9091 0.5862
C77 C 0.30806(15) 0.89616(13) 0.5090(2)
C78 C 0.29211(16) 0.86552(14) 0.4749(2)
H87 H 0.2728 0.8697 0.4392
C79 C 0.2851(2) 0.79613(17) 0.4536(3)
H88 H 0.2524 0.7910 0.4658
H89 H 0.3042 0.7732 0.4601
H90 H 0.2862 0.8034 0.4093
C80 C 0.3812(2) 0.84535(19) 0.6326(3)
H91 H 0.4138 0.8427 0.6180
H92 H 0.3715 0.8219 0.6539
H93 H 0.3792 0.8668 0.6619
C81 C 0.29575(18) 0.93672(14) 0.4894(2)
H94 H 0.3164 0.9547 0.5113
H95 H 0.2629 0.9421 0.5003
H96 H 0.3000 0.9394 0.4441
C82 C 0.0000 0.7743(3) 0.7500
C83 C 0.0199(2) 0.7978(2) 0.6999(4)
H97 H 0.0341 0.7850 0.6656
C84 C 0.0199(2) 0.8363(2) 0.6987(3)
C85 C 0.0000 0.8550(3) 0.7500
H98 H 0.0000 0.8821 0.7500
C86 C 0.0000 0.7350(3) 0.7500
C87 C 0.0407(3) 0.8579(4) 0.6484(4)
H102 H 0.0313 0.8468 0.6081
H103 H 0.0751 0.8571 0.6522
H104 H 0.0299 0.8843 0.6507
C83B C -0.0199(2) 0.7978(2) 0.8001(4)
H97B H -0.0341 0.7850 0.8344
C84B C -0.0199(2) 0.8363(2) 0.8013(3)
C87B C -0.0407(3) 0.8579(4) 0.8516(4)
H102B H -0.0313 0.8468 0.8919
H103B H -0.0751 0.8571 0.8478
H104B H -0.0299 0.8843 0.8493
C89 C 0.2591(3) 0.6900(2) 0.6934(3)
C94 C 0.2823(2) 0.7243(2) 0.5943(3)
C95 C 0.2366(4) 0.6628(4) 0.7995(4)
C97 C 0.2030(8) 0.5963(3) 0.6068(6)
C98 C 0.2584(4) 0.6882(4) 0.6264(6)
C99 C 0.2416(3) 0.6604(3) 0.6038(3)
C100 C 0.2201(5) 0.6261(4) 0.6346(7)
C101 C 0.2170(5) 0.6303(4) 0.7012(7)
C102 C 0.2381(5) 0.6589(5) 0.7287(6)
C107 C 0.1197(3) 0.4753(3) 0.6148(5)
C108 C 0.1612(4) 0.4904(4) 0.5930(6)
C109 C 0.2046(4) 0.4735(4) 0.6082(6)
C110 C 0.2071(4) 0.4436(3) 0.6464(5)
C111 C 0.1662(3) 0.4276(2) 0.6714(5)
C112 C 0.1222(4) 0.4429(3) 0.6552(5)
C113 C 0.0715(4) 0.4885(4) 0.6026(7)
C114 C 0.2467(6) 0.4926(6) 0.5834(11)
C115 C 0.1700(7) 0.3891(4) 0.7046(9)
C140 C 0.0000 0.4085(5) 0.7500
C141 C 0.0377(4) 0.4296(3) 0.7791(5)
C142 C 0.0369(5) 0.4686(3) 0.7784(8)
C143 C 0.0000 0.4871(6) 0.7500
C144 C 0.0000 0.3678(6) 0.7500
C145 C 0.0711(5) 0.4882(4) 0.8153(7)
C141B C -0.0377(4) 0.4296(3) 0.7209(5)
C142B C -0.0369(5) 0.4686(3) 0.7216(8)
C145B C -0.0711(5) 0.4882(4) 0.6847(7)
H99? H -0.0173 0.7257 0.7133
H100? H -0.0152 0.7257 0.7883
H101? H 0.0325 0.7257 0.7484
C88? C 0.2451(6) 0.7067(5) 0.6301(8)
C90? C 0.2280(5) 0.6728(4) 0.7307(6)
C91? C 0.1788(7) 0.6802(5) 0.7217(9)
C92? C 0.1635(9) 0.6992(7) 0.6613(12)
C93? C 0.1976(3) 0.7169(2) 0.6337(4)
C96? C 0.1114(3) 0.7095(2) 0.6601(4)
C103? C 0.2375(13) 0.6990(6) 0.6092(18)
C104? C 0.1581(9) 0.6923(8) 0.6465(13)
C105? C 0.1644(4) 0.6557(3) 0.6373(6)
C106? C 0.2098(5) 0.6388(4) 0.6200(7)
C116? C 0.0880(5) 0.4662(4) 0.7538(6)
C117? C 0.0808(4) 0.4813(3) 0.6937(5)
C118? C 0.1084(4) 0.4704(3) 0.6411(5)
C119? C 0.1420(5) 0.4442(3) 0.6523(5)
C120? C 0.1497(4) 0.4263(3) 0.7093(5)
C121? C 0.1238(5) 0.4381(4) 0.7607(7)
C122? C 0.0561(10) 0.4683(9) 0.8074(11)
C123? C 0.1018(6) 0.4910(4) 0.5819(6)
C124? C 0.1874(6) 0.3952(5) 0.7141(11)
C125? C 0.4816(4) 0.6040(3) 0.5900(5)
C126? C 0.4886(6) 0.6226(4) 0.6477(6)
C127? C 0.4762(7) 0.6065(4) 0.7066(7)
C128? C 0.4517(7) 0.5738(4) 0.7035(8)
C129? C 0.4454(8) 0.5537(5) 0.6465(8)
C130? C 0.4593(6) 0.5684(4) 0.5895(7)
C131? C 0.4908(6) 0.6203(4) 0.5319(6)
C132? C 0.4799(6) 0.6303(5) 0.7635(7)
C133? C 0.4163(8) 0.5168(5) 0.6519(10)
C134? C 0.3610(7) 0.5000 0.5000
C135? C 0.3333(4) 0.4969(4) 0.5543(6)
C136? C 0.2852(4) 0.4965(4) 0.5569(6)
C137? C 0.2600(6) 0.5000 0.5000
C138? C 0.4113(9) 0.5000 0.5000
C139? C 0.2604(7) 0.4920(6) 0.6136(9)
C146? C 0.1858(6) 0.5547(5) 0.5942(11)
C147? C 0.1400(6) 0.5418(5) 0.5857(13)
C148? C 0.1296(6) 0.5022(5) 0.5886(14)
C149? C 0.1664(6) 0.4779(6) 0.5907(14)
C150? C 0.2132(5) 0.4904(4) 0.6016(10)
C151? C 0.2237(7) 0.5285(5) 0.5907(15)
C152? C 0.1998(13) 0.5944(6) 0.597(2)
C153? C 0.0795(7) 0.4925(5) 0.5863(11)
C154? C 0.2567(8) 0.4658(7) 0.5911(16)
C155? C 0.0419(5) 0.3990(5) 0.7216(10)
C156? C 0.0876(5) 0.3898(5) 0.7049(10)
C157? C 0.1257(6) 0.4134(5) 0.7194(11)
C158? C 0.1163(6) 0.4450(6) 0.7544(12)
C159? C 0.0715(6) 0.4524(5) 0.7786(11)
C160? C 0.0313(6) 0.4316(5) 0.7588(11)
C161? C 0.0036(8) 0.3715(7) 0.7152(16)
C162? C 0.1739(7) 0.3984(9) 0.7151(18)
C163? C 0.0563(9) 0.4919(6) 0.8043(14)
loop_
_geom_bond_atom_site_label_1
_geom_bond_atom_site_label_2
_geom_bond_site_symmetry_1
_geom_bond_site_symmetry_2
N1 C7 1_555 1_555
N2 C34 1_555 1_555
N3 C8 1_555 1_555
N4 C18 1_555 1_555
N5 C9 1_555 1_555
N6 C26 1_555 1_555
N7 C16 1_555 1_555
N8 C36 1_555 1_555
N9 C17 1_555 1_555
N10 C27 1_555 1_555
N11 C25 1_555 1_555
N12 C35 1_555 1_555
C1 C2 1_555 1_555
C2 H1 1_555 1_555
C3 C2 1_555 1_555
C4 C3 1_555 1_555
H2 C4 1_555 1_555
C5 C4 1_555 1_555
C6 C1 1_555 1_555
H3 C6 1_555 1_555
C7 C1 1_555 1_555
H4 C7 1_555 1_555
C8 C3 1_555 1_555
H5 C8 1_555 1_555
C9 C5 1_555 1_555
H6 C9 1_555 1_555
C10 C11 1_555 1_555
C11 H7 1_555 1_555
C12 C11 1_555 1_555
C13 C12 1_555 1_555
H8 C13 1_555 1_555
C14 C13 1_555 1_555
C15 C10 1_555 1_555
H9 C15 1_555 1_555
C16 C10 1_555 1_555
H10 C16 1_555 1_555
C17 C12 1_555 1_555
H11 C17 1_555 1_555
C18 C14 1_555 1_555
H12 C18 1_555 1_555
C19 C20 1_555 1_555
C20 H13 1_555 1_555
C21 C20 1_555 1_555
C22 C21 1_555 1_555
H14 C22 1_555 1_555
C23 C22 1_555 1_555
C24 C19 1_555 1_555
H15 C24 1_555 1_555
C25 C19 1_555 1_555
H16 C25 1_555 1_555
C26 C21 1_555 1_555
H17 C26 1_555 1_555
C27 C23 1_555 1_555
H18 C27 1_555 1_555
C28 C29 1_555 1_555
C29 H19 1_555 1_555
C30 C29 1_555 1_555
C31 C30 1_555 1_555
H20 C31 1_555 1_555
C32 C31 1_555 1_555
C33 C28 1_555 1_555
H21 C33 1_555 1_555
C34 C28 1_555 1_555
H22 C34 1_555 1_555
C35 C30 1_555 1_555
H23 C35 1_555 1_555
C36 C32 1_555 1_555
H24 C36 1_555 1_555
C37 N1 1_555 1_555
H25 C37 1_555 1_555
C38 N2 1_555 1_555
H26 C38 1_555 1_555
C39 C38 1_555 1_555
H27 C39 1_555 1_555
H28 C39 1_555 1_555
C40 C39 1_555 1_555
H29 C40 1_555 1_555
H30 C40 1_555 1_555
C41 C40 1_555 1_555
H31 C41 1_555 1_555
H32 C41 1_555 1_555
C42 C37 1_555 1_555
H33 C42 1_555 1_555
H34 C42 1_555 1_555
C43 N3 1_555 1_555
H35 C43 1_555 1_555
C44 N4 1_555 1_555
H36 C44 1_555 1_555
C45 C44 1_555 1_555
H37 C45 1_555 1_555
H38 C45 1_555 1_555
C46 C45 1_555 1_555
H39 C46 1_555 1_555
H40 C46 1_555 1_555
C47 C46 1_555 1_555
H41 C47 1_555 1_555
H42 C47 1_555 1_555
C48 C43 1_555 1_555
H43 C48 1_555 1_555
H44 C48 1_555 1_555
C49 N5 1_555 1_555
H45 C49 1_555 1_555
C50 N6 1_555 1_555
H46 C50 1_555 1_555
C51 C50 1_555 1_555
H47 C51 1_555 1_555
H48 C51 1_555 1_555
C52 C51 1_555 1_555
H49 C52 1_555 1_555
H50 C52 1_555 1_555
C53 C52 1_555 1_555
H51 C53 1_555 1_555
H52 C53 1_555 1_555
C54 C49 1_555 1_555
H53 C54 1_555 1_555
H54 C54 1_555 1_555
C55 N7 1_555 1_555
H55 C55 1_555 1_555
C56 N8 1_555 1_555
H56 C56 1_555 1_555
C57 C56 1_555 1_555
H57 C57 1_555 1_555
H58 C57 1_555 1_555
C58 C57 1_555 1_555
H59 C58 1_555 1_555
H60 C58 1_555 1_555
C59 C58 1_555 1_555
H61 C59 1_555 1_555
H62 C59 1_555 1_555
C60 C55 1_555 1_555
H63 C60 1_555 1_555
H64 C60 1_555 1_555
C61 N9 1_555 1_555
H65 C61 1_555 1_555
C62 N10 1_555 1_555
H66 C62 1_555 1_555
C63 C62 1_555 1_555
H67 C63 1_555 1_555
H68 C63 1_555 1_555
C64 C63 1_555 1_555
H69 C64 1_555 1_555
H70 C64 1_555 1_555
C65 C64 1_555 1_555
H71 C65 1_555 1_555
H72 C65 1_555 1_555
C66 C61 1_555 1_555
H73 C66 1_555 1_555
H74 C66 1_555 1_555
C67 N11 1_555 1_555
H75 C67 1_555 1_555
C68 N12 1_555 1_555
H76 C68 1_555 1_555
C69 C68 1_555 1_555
H77 C69 1_555 1_555
H78 C69 1_555 1_555
C70 C69 1_555 1_555
H79 C70 1_555 1_555
H80 C70 1_555 1_555
C71 C70 1_555 1_555
H81 C71 1_555 1_555
H82 C71 1_555 1_555
C72 C67 1_555 1_555
H83 C72 1_555 1_555
H84 C72 1_555 1_555
C73 C74 1_555 1_555
C74 H85 1_555 1_555
C75 C74 1_555 1_555
C76 C75 1_555 1_555
H86 C76 1_555 1_555
C77 C76 1_555 1_555
C78 C73 1_555 1_555
H87 C78 1_555 1_555
C79 C73 1_555 1_555
H88 C79 1_555 1_555
H89 C79 1_555 1_555
H90 C79 1_555 1_555
C80 C75 1_555 1_555
H91 C80 1_555 1_555
H92 C80 1_555 1_555
H93 C80 1_555 1_555
C81 C77 1_555 1_555
H94 C81 1_555 1_555
H95 C81 1_555 1_555
H96 C81 1_555 1_555
C82 C83 1_555 1_555
C83 H97 1_555 1_555
C84 C83 1_555 1_555
C85 C84 1_555 1_555
H98 C85 1_555 1_555
C86 C82 1_555 1_555
C87 C84 1_555 1_555
H102 C87 1_555 1_555
H103 C87 1_555 1_555
H104 C87 1_555 1_555
C89 C98 1_555 1_555
C94 C98 1_555 1_555
C95 C102 1_555 1_555
C97 C100 1_555 1_555
C98 C99 1_555 1_555
C99 C100 1_555 1_555
C100 C101 1_555 1_555
C101 C102 1_555 1_555
C102 C89 1_555 1_555
C107 C108 1_555 1_555
C108 C109 1_555 1_555
C109 C110 1_555 1_555
C110 C111 1_555 1_555
C111 C112 1_555 1_555
C112 C107 1_555 1_555
C113 C107 1_555 1_555
C114 C109 1_555 1_555
C115 C111 1_555 1_555
C140 C141 1_555 1_555
C141 C142 1_555 1_555
C142 C143 1_555 1_555
C143 C142B 1_555 1_555
C144 C140 1_555 1_555
C145 C142 1_555 1_555
C83B C82 1_555 1_555
H97B C83B 1_555 1_555
C84B C85 1_555 1_555
C87B C84B 1_555 1_555
H102B C87B 1_555 1_555
H103B C87B 1_555 1_555
H104B C87B 1_555 1_555
C141B C140 1_555 1_555
C142B C141B 1_555 1_555
C145B C142B 1_555 1_555
C5 C6 1_555 1_555
C14 C15 1_555 1_555
C23 C24 1_555 1_555
C32 C33 1_555 1_555
C37 C38 1_555 1_555
C41 C42 1_555 1_555
C43 C44 1_555 1_555
C47 C48 1_555 1_555
C49 C50 1_555 1_555
C53 C54 1_555 1_555
C55 C56 1_555 1_555
C59 C60 1_555 1_555
C61 C62 1_555 1_555
C65 C66 1_555 1_555
C67 C68 1_555 1_555
C71 C72 1_555 1_555
C77 C78 1_555 1_555
C83B C84B 1_555 1_555

#END
