
#######################################################################
#
#                 Cambridge Crystallographic Data Centre
#                                CCDC 
#
#######################################################################
#
# If this CIF has been generated from an entry in the Cambridge 
# Structural Database, then it will include bibliographic, chemical, 
# crystal, experimental, refinement or atomic coordinate data resulting 
# from the CCDC's data processing and validation procedures.
#
#######################################################################

data_HEVRAD
_chemical_formula_moiety         'C72 H84 N12,2(C8 H10)'
_chemical_name_systematic        
'3,5,9,11,15,17,21,23,26,28,31,33-dodecaaza-1,7,13,19(1,3,5)-tetrabenzena-4,10,16,22,27,32(1,3,5)-hexacyclohexano-bicyclo[17.11.5]tetratriacontaphane-2,5,8,11,14,17,20,23,25,28,30,33-dodecaene bis(p-xylene) clathrate'
_symmetry_cell_setting           monoclinic
_symmetry_space_group_name_H-M   'I 2'
_symmetry_Int_Tables_number      5
_space_group_name_Hall           'I 2y'
loop_
_symmetry_equiv_pos_site_id
_symmetry_equiv_pos_as_xyz
1 x,y,z
2 -x,y,-z
3 1/2+x,1/2+y,1/2+z
4 1/2-x,1/2+y,1/2-z
_cell_length_a                   17.5354(10)
_cell_length_b                   18.0598(11)
_cell_length_c                   24.493(2)
_cell_angle_alpha                90
_cell_angle_beta                 90.5540(10)
_cell_angle_gamma                90
_cell_volume                     7756.22
_exptl_crystal_colour            colorless
_exptl_crystal_description       'trigonal plate'
_cell_formula_units_Z            4
loop_
_atom_site_label
_atom_site_type_symbol
_atom_site_fract_x
_atom_site_fract_y
_atom_site_fract_z
N1 N 0.75788(12) 0.21625(14) 1.09071(9)
N2 N 0.77604(12) 0.37701(14) 1.10107(8)
N3 N 0.58383(13) 0.02251(15) 0.90953(10)
N4 N 0.46614(13) 0.11082(13) 0.85506(10)
N5 N 0.95520(13) 0.04510(14) 0.90652(9)
N6 N 1.00592(12) 0.10886(13) 0.80393(9)
N7 N 0.93566(11) 0.55363(13) 0.90268(9)
N8 N 1.00717(12) 0.45859(13) 0.81969(9)
N9 N 0.56962(12) 0.55078(13) 0.92652(9)
N10 N 0.48046(12) 0.47315(13) 0.84091(9)
N11 N 0.62067(14) 0.27444(13) 0.65093(9)
N12 N 0.78573(13) 0.30084(13) 0.63990(9)
C1 C 0.78774(16) 0.13763(17) 1.01454(11)
C2 C 0.71131(16) 0.12032(18) 1.00277(11)
H1 H 0.6722 0.1397 1.0252
C3 C 0.69195(16) 0.07537(18) 0.95886(11)
C4 C 0.74972(16) 0.04670(17) 0.92604(11)
H2 H 0.7368 0.0157 0.8960
C5 C 0.82586(16) 0.06310(17) 0.93697(11)
C6 C 0.84436(16) 0.10788(16) 0.98143(11)
H3 H 0.8964 0.1184 0.9894
C7 C 0.80771(15) 0.18351(17) 1.06198(11)
H4 H 0.8600 0.1890 1.0717
C8 C 0.61061(16) 0.05810(18) 0.94966(11)
H5 H 0.5755 0.0752 0.9761
C9 C 0.88474(16) 0.03027(16) 0.90212(11)
H6 H 0.8691 -0.0040 0.8748
C10 C 0.74617(16) 0.45690(17) 1.02490(10)
C11 C 0.82202(15) 0.46912(16) 1.00855(11)
H7 H 0.8629 0.4485 1.0292
C12 C 0.83716(14) 0.51070(15) 0.96293(10)
C13 C 0.77717(14) 0.54340(15) 0.93283(10)
H8 H 0.7880 0.5731 0.9018
C14 C 0.70217(14) 0.53224(15) 0.94850(10)
C15 C 0.68762(15) 0.48894(17) 0.99460(11)
H9 H 0.6363 0.4813 1.0054
C16 C 0.72713(15) 0.40783(17) 1.07064(10)
H10 H 0.6748 0.3988 1.0777
C17 C 0.91691(14) 0.51739(15) 0.94406(10)
H11 H 0.9558 0.4929 0.9644
C18 C 0.63902(14) 0.56226(16) 0.91498(11)
H12 H 0.6507 0.5911 0.8837
C19 C 0.50424(16) 0.21408(17) 0.79797(11)
C20 C 0.48089(14) 0.27161(16) 0.83189(10)
H13 H 0.4563 0.2607 0.8654
C21 C 0.49327(14) 0.34443(16) 0.81709(10)
C22 C 0.52853(15) 0.36043(16) 0.76760(10)
H14 H 0.5362 0.4106 0.7573
C23 C 0.55249(16) 0.30406(17) 0.73337(10)
C24 C 0.53932(17) 0.23177(17) 0.74873(11)
H15 H 0.5546 0.1929 0.7251
C25 C 0.49523(16) 0.13558(16) 0.81175(11)
H16 H 0.5127 0.1004 0.7859
C26 C 0.46916(14) 0.40540(15) 0.85292(10)
H17 H 0.4443 0.3938 0.8861
C27 C 0.59311(16) 0.32233(16) 0.68266(11)
H18 H 0.5989 0.3731 0.6734
C28 C 0.97173(15) 0.23471(15) 0.77842(11)
C29 C 0.91847(15) 0.21813(15) 0.73739(10)
H19 H 0.9086 0.1680 0.7280
C30 C 0.87995(14) 0.27450(15) 0.71037(10)
C31 C 0.89440(14) 0.34843(15) 0.72391(10)
H20 H 0.8676 0.3869 0.7055
C32 C 0.94774(14) 0.36586(15) 0.76419(11)
C33 C 0.98621(14) 0.30825(16) 0.79065(11)
H21 H 1.0234 0.3198 0.8178
C34 C 1.01313(15) 0.17772(16) 0.80974(11)
H22 H 1.0484 0.1944 0.8367
C35 C 0.82373(15) 0.25423(15) 0.66774(10)
H23 H 0.8155 0.2031 0.6607
C36 C 0.96424(14) 0.44245(15) 0.77941(11)
H24 H 0.9422 0.4814 0.7585
C37 C 0.78407(14) 0.25337(16) 1.13988(10)
H25 H 0.8408 0.2589 1.1383
C38 C 0.74848(14) 0.32991(16) 1.14492(10)
H26 H 0.6917 0.3256 1.1421
C39 C 0.77028(18) 0.36521(18) 1.19965(11)
H27 H 0.7433 0.4131 1.2033
H28 H 0.8258 0.3754 1.2003
C40 C 0.75037(18) 0.31550(19) 1.24829(12)
H29 H 0.7681 0.3391 1.2826
H30 H 0.6944 0.3095 1.2502
C41 C 0.78710(18) 0.24138(18) 1.24244(12)
H31 H 0.7719 0.2093 1.2732
H32 H 0.8432 0.2471 1.2439
C42 C 0.76408(17) 0.20502(18) 1.18901(11)
H33 H 0.7085 0.1956 1.1890
H34 H 0.7904 0.1567 1.1858
C43 C 0.50259(16) 0.00562(17) 0.91202(11)
H35 H 0.4804 0.0315 0.9443
C44 C 0.46048(16) 0.03064(16) 0.86092(11)
H36 H 0.4843 0.0066 0.8285
C45 C 0.37659(17) 0.00851(18) 0.86303(12)
H37 H 0.3515 0.0358 0.8930
H38 H 0.3511 0.0227 0.8283
C46 C 0.36706(19) -0.07399(19) 0.87209(14)
H39 H 0.3872 -0.1013 0.8403
H40 H 0.3122 -0.0859 0.8754
C47 C 0.4091(2) -0.0986(2) 0.92355(15)
H41 H 0.4040 -0.1528 0.9280
H42 H 0.3864 -0.0743 0.9558
C48 C 0.49349(19) -0.07781(19) 0.91967(14)
H43 H 0.5206 -0.0935 0.9534
H44 H 0.5166 -0.1041 0.8885
C49 C 1.00634(15) 0.00674(15) 0.86901(11)
H45 H 0.9751 -0.0230 0.8426
C50 C 1.05402(15) 0.06155(16) 0.83769(11)
H46 H 1.0828 0.0932 0.8643
C51 C 1.11077(16) 0.02140(17) 0.80165(11)
H47 H 1.1421 0.0583 0.7820
H48 H 1.0827 -0.0084 0.7741
C52 C 1.16284(17) -0.02914(18) 0.83482(13)
H49 H 1.1980 -0.0556 0.8101
H50 H 1.1938 0.0007 0.8606
C53 C 1.11548(18) -0.08477(18) 0.86620(13)
H51 H 1.1495 -0.1158 0.8892
H52 H 1.0884 -0.1177 0.8402
C54 C 1.05783(18) -0.04586(18) 0.90208(12)
H53 H 1.0852 -0.0173 0.9307
H54 H 1.0258 -0.0834 0.9204
C55 C 1.01681(13) 0.55646(15) 0.88904(10)
H55 H 1.0455 0.5204 0.9124
C56 C 1.02663(14) 0.53578(15) 0.82904(10)
H56 H 0.9931 0.5680 0.8058
C57 C 1.10978(15) 0.54643(18) 0.81253(12)
H57 H 1.1422 0.5111 0.8332
H58 H 1.1149 0.5351 0.7732
C58 C 1.13760(16) 0.62367(19) 0.82310(12)
H59 H 1.1077 0.6590 0.8006
H60 H 1.1918 0.6277 0.8125
C59 C 1.12973(16) 0.64360(19) 0.88284(13)
H61 H 1.1462 0.6954 0.8888
H62 H 1.1628 0.6110 0.9053
C60 C 1.04614(16) 0.63450(17) 0.90017(12)
H63 H 1.0418 0.6454 0.9396
H64 H 1.0141 0.6706 0.8800
C61 C 0.51129(15) 0.58575(15) 0.89228(11)
H65 H 0.5349 0.6049 0.8581
C62 C 0.44988(14) 0.52937(15) 0.87796(10)
H66 H 0.4319 0.5049 0.9121
C63 C 0.38204(15) 0.56640(18) 0.84900(11)
H67 H 0.3986 0.5858 0.8132
H68 H 0.3417 0.5291 0.8423
C64 C 0.34975(17) 0.62948(19) 0.88278(13)
H69 H 0.3073 0.6534 0.8625
H70 H 0.3293 0.6097 0.9174
C65 C 0.41036(19) 0.68548(19) 0.89500(15)
H71 H 0.3890 0.7253 0.9180
H72 H 0.4279 0.7080 0.8605
C66 C 0.47758(18) 0.64975(18) 0.92450(14)
H73 H 0.4607 0.6314 0.9605
H74 H 0.5176 0.6875 0.9309
C67 C 0.65638(15) 0.30096(16) 0.60109(10)
H75 H 0.6583 0.3563 0.6018
C68 C 0.73674(16) 0.27091(16) 0.59631(10)
H76 H 0.7356 0.2157 0.5989
C69 C 0.77227(17) 0.2938(2) 0.54156(11)
H77 H 0.7782 0.3484 0.5406
H78 H 0.8236 0.2715 0.5386
C70 C 0.72308(17) 0.2691(2) 0.49312(11)
H79 H 0.7214 0.2144 0.4917
H80 H 0.7459 0.2871 0.4588
C71 C 0.64204(16) 0.2996(2) 0.49829(11)
H81 H 0.6432 0.3544 0.4963
H82 H 0.6101 0.2812 0.4676
C72 C 0.60758(16) 0.27567(17) 0.55206(11)
H83 H 0.6029 0.2210 0.5526
H84 H 0.5557 0.2969 0.5552
C73 C 0.7304(2) 0.4856(3) 0.78317(18)
C74 C 0.6807(3) 0.5171(3) 0.7446(2)
H85 H 0.6345 0.4921 0.7360
C75 C 0.6956(2) 0.5811(2) 0.71939(17)
H86 H 0.6614 0.5990 0.6922
C76 C 0.7579(2) 0.6202(3) 0.73194(17)
C77 C 0.8052(2) 0.5916(3) 0.7722(2)
H87 H 0.8484 0.6198 0.7833
C78 C 0.7929(2) 0.5256(3) 0.79645(15)
H88 H 0.8283 0.5073 0.8228
C79 C 0.7149(4) 0.4137(4) 0.8110(3)
H89 H 0.7561 0.4031 0.8372
H90 H 0.7122 0.3740 0.7838
H91 H 0.6664 0.4168 0.8303
C80 C 0.7750(3) 0.6945(4) 0.7038(3)
H92 H 0.8220 0.7156 0.7192
H93 H 0.7326 0.7288 0.7098
H94 H 0.7812 0.6864 0.6645
C81 C 0.9436(2) 0.3122(2) 0.95933(15)
C82 C 0.92441(19) 0.3121(2) 1.01301(16)
H95 H 0.8722 0.3106 1.0230
C83 C 1.0201(2) 0.3141(3) 0.94724(16)
H96 H 1.0349 0.3168 0.9101
C84 C 0.8826(2) 0.3119(4) 0.91498(19)
H97 H 0.8322 0.3092 0.9317
H98 H 0.8900 0.2689 0.8912
H99 H 0.8864 0.3574 0.8933
C81A C 1.0564(2) 0.3122(2) 1.04067(15)
C82A C 1.07559(19) 0.3121(2) 0.98699(16)
H95A H 1.1278 0.3106 0.9770
C83A C 0.9799(2) 0.3141(3) 1.05276(16)
H96A H 0.9651 0.3168 1.0899
C84A C 1.1174(2) 0.3119(4) 1.08502(19)
H97A H 1.1678 0.3092 1.0683
H98A H 1.1100 0.2689 1.1088
H99A H 1.1136 0.3574 1.1067
C85? C 0.5593(4) 0.3209(6) 0.9650(3)
C86? C 0.5175(4) 0.3738(4) 0.9924(3)
H100? H 0.5317 0.4242 0.9880
C87? C 0.4593(5) 0.3593(5) 1.0243(3)
H101? H 0.4333 0.3982 1.0424
C88? C 0.4364(5) 0.2852(7) 1.0310(3)
C89? C 0.4753(5) 0.2334(5) 1.0001(5)
H102? H 0.4570 0.1838 1.0006
C90? C 0.5367(5) 0.2477(6) 0.9696(4)
H103? H 0.5636 0.2091 0.9518
C91? C 0.6283(5) 0.3382(5) 0.9273(3)
H104? H 0.6211 0.3868 0.9103
H105? H 0.6318 0.3002 0.8989
H106? H 0.6754 0.3385 0.9492
C92? C 0.3696(6) 0.2674(6) 1.0662(4)
H107? H 0.3712 0.2984 1.0990
H108? H 0.3716 0.2151 1.0768
H109? H 0.3222 0.2770 1.0459
loop_
_geom_bond_atom_site_label_1
_geom_bond_atom_site_label_2
_geom_bond_site_symmetry_1
_geom_bond_site_symmetry_2
N1 C7 1_555 1_555
N2 C16 1_555 1_555
N3 C8 1_555 1_555
N4 C25 1_555 1_555
N5 C9 1_555 1_555
N6 C34 1_555 1_555
N7 C17 1_555 1_555
N8 C36 1_555 1_555
N9 C18 1_555 1_555
N10 C26 1_555 1_555
N11 C27 1_555 1_555
N12 C35 1_555 1_555
C1 C2 1_555 1_555
C2 H1 1_555 1_555
C3 C2 1_555 1_555
C4 C3 1_555 1_555
H2 C4 1_555 1_555
C5 C4 1_555 1_555
C6 C1 1_555 1_555
H3 C6 1_555 1_555
C7 C1 1_555 1_555
H4 C7 1_555 1_555
C8 C3 1_555 1_555
H5 C8 1_555 1_555
C9 C5 1_555 1_555
H6 C9 1_555 1_555
C10 C11 1_555 1_555
C11 H7 1_555 1_555
C12 C11 1_555 1_555
C13 C12 1_555 1_555
H8 C13 1_555 1_555
C14 C13 1_555 1_555
C15 C10 1_555 1_555
H9 C15 1_555 1_555
C16 C10 1_555 1_555
H10 C16 1_555 1_555
C17 C12 1_555 1_555
H11 C17 1_555 1_555
C18 C14 1_555 1_555
H12 C18 1_555 1_555
C19 C20 1_555 1_555
C20 H13 1_555 1_555
C21 C20 1_555 1_555
C22 C21 1_555 1_555
H14 C22 1_555 1_555
C23 C22 1_555 1_555
C24 C19 1_555 1_555
H15 C24 1_555 1_555
C25 C19 1_555 1_555
H16 C25 1_555 1_555
C26 C21 1_555 1_555
H17 C26 1_555 1_555
C27 C23 1_555 1_555
H18 C27 1_555 1_555
C28 C29 1_555 1_555
C29 H19 1_555 1_555
C30 C29 1_555 1_555
C31 C30 1_555 1_555
H20 C31 1_555 1_555
C32 C31 1_555 1_555
C33 C28 1_555 1_555
H21 C33 1_555 1_555
C34 C28 1_555 1_555
H22 C34 1_555 1_555
C35 C30 1_555 1_555
H23 C35 1_555 1_555
C36 C32 1_555 1_555
H24 C36 1_555 1_555
C37 N1 1_555 1_555
H25 C37 1_555 1_555
C38 N2 1_555 1_555
H26 C38 1_555 1_555
C39 C38 1_555 1_555
H27 C39 1_555 1_555
H28 C39 1_555 1_555
C40 C39 1_555 1_555
H29 C40 1_555 1_555
H30 C40 1_555 1_555
C41 C40 1_555 1_555
H31 C41 1_555 1_555
H32 C41 1_555 1_555
C42 C37 1_555 1_555
H33 C42 1_555 1_555
H34 C42 1_555 1_555
C43 N3 1_555 1_555
H35 C43 1_555 1_555
C44 N4 1_555 1_555
H36 C44 1_555 1_555
C45 C44 1_555 1_555
H37 C45 1_555 1_555
H38 C45 1_555 1_555
C46 C45 1_555 1_555
H39 C46 1_555 1_555
H40 C46 1_555 1_555
C47 C46 1_555 1_555
H41 C47 1_555 1_555
H42 C47 1_555 1_555
C48 C43 1_555 1_555
H43 C48 1_555 1_555
H44 C48 1_555 1_555
C49 N5 1_555 1_555
H45 C49 1_555 1_555
C50 N6 1_555 1_555
H46 C50 1_555 1_555
C51 C50 1_555 1_555
H47 C51 1_555 1_555
H48 C51 1_555 1_555
C52 C51 1_555 1_555
H49 C52 1_555 1_555
H50 C52 1_555 1_555
C53 C52 1_555 1_555
H51 C53 1_555 1_555
H52 C53 1_555 1_555
C54 C49 1_555 1_555
H53 C54 1_555 1_555
H54 C54 1_555 1_555
C55 N7 1_555 1_555
H55 C55 1_555 1_555
C56 N8 1_555 1_555
H56 C56 1_555 1_555
C57 C56 1_555 1_555
H57 C57 1_555 1_555
H58 C57 1_555 1_555
C58 C57 1_555 1_555
H59 C58 1_555 1_555
H60 C58 1_555 1_555
C59 C58 1_555 1_555
H61 C59 1_555 1_555
H62 C59 1_555 1_555
C60 C55 1_555 1_555
H63 C60 1_555 1_555
H64 C60 1_555 1_555
C61 N9 1_555 1_555
H65 C61 1_555 1_555
C62 N10 1_555 1_555
H66 C62 1_555 1_555
C63 C62 1_555 1_555
H67 C63 1_555 1_555
H68 C63 1_555 1_555
C64 C63 1_555 1_555
H69 C64 1_555 1_555
H70 C64 1_555 1_555
C65 C64 1_555 1_555
H71 C65 1_555 1_555
H72 C65 1_555 1_555
C66 C61 1_555 1_555
H73 C66 1_555 1_555
H74 C66 1_555 1_555
C67 N11 1_555 1_555
H75 C67 1_555 1_555
C68 N12 1_555 1_555
H76 C68 1_555 1_555
C69 C68 1_555 1_555
H77 C69 1_555 1_555
H78 C69 1_555 1_555
C70 C69 1_555 1_555
H79 C70 1_555 1_555
H80 C70 1_555 1_555
C71 C70 1_555 1_555
H81 C71 1_555 1_555
H82 C71 1_555 1_555
C72 C67 1_555 1_555
H83 C72 1_555 1_555
H84 C72 1_555 1_555
C73 C74 1_555 1_555
C74 H85 1_555 1_555
C75 C74 1_555 1_555
H86 C75 1_555 1_555
C76 C75 1_555 1_555
C77 C76 1_555 1_555
H87 C77 1_555 1_555
C78 C73 1_555 1_555
H88 C78 1_555 1_555
C79 C73 1_555 1_555
H89 C79 1_555 1_555
H90 C79 1_555 1_555
H91 C79 1_555 1_555
C80 C76 1_555 1_555
H92 C80 1_555 1_555
H93 C80 1_555 1_555
H94 C80 1_555 1_555
C81 C82 1_555 1_555
C82 H95 1_555 1_555
C83 C81 1_555 1_555
H96 C83 1_555 1_555
C84 C81 1_555 1_555
H97 C84 1_555 1_555
H98 C84 1_555 1_555
H99 C84 1_555 1_555
C81A C82A 1_555 1_555
C82A C83 1_555 1_555
H95A C82A 1_555 1_555
C83A C82 1_555 1_555
H96A C83A 1_555 1_555
C84A C81A 1_555 1_555
H97A C84A 1_555 1_555
H98A C84A 1_555 1_555
H99A C84A 1_555 1_555
C5 C6 1_555 1_555
C14 C15 1_555 1_555
C23 C24 1_555 1_555
C32 C33 1_555 1_555
C37 C38 1_555 1_555
C41 C42 1_555 1_555
C43 C44 1_555 1_555
C47 C48 1_555 1_555
C49 C50 1_555 1_555
C53 C54 1_555 1_555
C55 C56 1_555 1_555
C59 C60 1_555 1_555
C61 C62 1_555 1_555
C65 C66 1_555 1_555
C67 C68 1_555 1_555
C71 C72 1_555 1_555
C77 C78 1_555 1_555
C81A C83A 1_555 1_555

#END
