
#######################################################################
#
#                 Cambridge Crystallographic Data Centre
#                                CCDC 
#
#######################################################################
#
# If this CIF has been generated from an entry in the Cambridge 
# Structural Database, then it will include bibliographic, chemical, 
# crystal, experimental, refinement or atomic coordinate data resulting 
# from the CCDC's data processing and validation procedures.
#
#######################################################################

data_HEVRAB
_chemical_formula_moiety         'C16 H14 Br2 N4 O2'
_chemical_name_systematic        
3,6-Dibromo-1,4-dihydro-1,4-bis(p-methoxyphenyl)-1,2,4,5-tetrazine
_symmetry_cell_setting           orthorhombic
_symmetry_space_group_name_H-M   'P b c n'
_symmetry_Int_Tables_number      60
_space_group_name_Hall           '-P 2n 2ab'
loop_
_symmetry_equiv_pos_site_id
_symmetry_equiv_pos_as_xyz
1 x,y,z
2 1/2-x,1/2+y,z
3 x,-y,1/2+z
4 1/2-x,1/2-y,1/2+z
5 -x,-y,-z
6 1/2+x,1/2-y,-z
7 -x,y,1/2-z
8 1/2+x,1/2+y,1/2-z
_cell_length_a                   18.975(3)
_cell_length_b                   10.327(2)
_cell_length_c                   8.569(3)
_cell_angle_alpha                90
_cell_angle_beta                 90
_cell_angle_gamma                90
_cell_volume                     1679.14
_exptl_crystal_colour            Colorless
_chemical_melting_point          495-496K
_cell_formula_units_Z            4
loop_
_atom_site_label
_atom_site_type_symbol
_atom_site_fract_x
_atom_site_fract_y
_atom_site_fract_z
Br1 Br 0.43730(4) 0.20775(8) 0.07844(8)
N1 N 0.4331(3) 0.1087(5) -0.2289(6)
N2 N 0.5418(3) 0.1553(6) -0.1225(6)
C1 C 0.4763(4) 0.1506(7) -0.1111(7)
C2 C 0.3576(4) 0.1137(7) -0.2185(8)
C3 C 0.3184(4) 0.2056(8) -0.2935(8)
C4 C 0.2466(4) 0.2061(9) -0.2715(9)
C5 C 0.2125(4) 0.1172(8) -0.1817(8)
C6 C 0.2522(5) 0.0235(9) -0.1085(9)
C7 C 0.3250(4) 0.0222(9) -0.1280(9)
C8 C 0.1031(6) 0.031(1) -0.092(2)
O1 O 0.1409(3) 0.1279(5) -0.1723(6)
H1 H 0.340(3) 0.278(5) -0.366(6)
H2 H 0.221(3) 0.258(6) -0.313(7)
H3 H 0.234(4) -0.034(7) -0.050(8)
H4 H 0.346(3) -0.041(6) -0.082(8)
H5 H 0.051(3) 0.051(6) -0.114(7)
H6 H 0.122(4) 0.027(7) -0.005(7)
H7 H 0.107(4) -0.051(6) -0.127(9)
N2F N 0.4582(3) 0.1553(6) -0.3775(6)
N1F N 0.5669(3) 0.1087(5) -0.2711(6)
C1F C 0.5237(4) 0.1506(7) -0.3889(7)
C2F C 0.6424(4) 0.1137(7) -0.2815(8)
Br1F Br 0.56270(4) 0.20775(8) -0.57844(8)
C3F C 0.6816(4) 0.2056(8) -0.2065(8)
C7F C 0.6750(4) 0.0222(9) -0.3720(9)
C4F C 0.7534(4) 0.2061(9) -0.2285(9)
H1F H 0.660(3) 0.278(5) -0.134(6)
C6F C 0.7478(5) 0.0235(9) -0.3915(9)
H4F H 0.654(3) -0.041(6) -0.418(8)
C5F C 0.7875(4) 0.1172(8) -0.3183(8)
H2F H 0.779(3) 0.258(6) -0.187(7)
H3F H 0.766(4) -0.034(7) -0.450(8)
O1F O 0.8591(3) 0.1279(5) -0.3277(6)
C8F C 0.8969(6) 0.031(1) -0.408(2)
H5F H 0.949(3) 0.051(6) -0.386(7)
H6F H 0.878(4) 0.027(7) -0.495(7)
H7F H 0.893(4) -0.051(6) -0.373(9)
loop_
_geom_bond_atom_site_label_1
_geom_bond_atom_site_label_2
_geom_bond_site_symmetry_1
_geom_bond_site_symmetry_2
Br1 C1 1_555 1_555
N1 C1 1_555 1_555
N2 C1 1_555 1_555
C2 N1 1_555 1_555
C3 C2 1_555 1_555
C4 C3 1_555 1_555
C5 C4 1_555 1_555
C6 C5 1_555 1_555
C7 C2 1_555 1_555
C8 O1 1_555 1_555
O1 C5 1_555 1_555
H1 C3 1_555 1_555
H2 C4 1_555 1_555
H3 C6 1_555 1_555
H4 C7 1_555 1_555
H5 C8 1_555 1_555
H6 C8 1_555 1_555
H7 C8 1_555 1_555
N2F N1 1_555 1_555
N1F N2 1_555 1_555
C1F N2F 1_555 1_555
C2F N1F 1_555 1_555
Br1F C1F 1_555 1_555
C3F C2F 1_555 1_555
C7F C2F 1_555 1_555
C4F C3F 1_555 1_555
H1F C3F 1_555 1_555
C6F C7F 1_555 1_555
H4F C7F 1_555 1_555
C5F C4F 1_555 1_555
H2F C4F 1_555 1_555
H3F C6F 1_555 1_555
O1F C5F 1_555 1_555
C8F O1F 1_555 1_555
H5F C8F 1_555 1_555
H6F C8F 1_555 1_555
H7F C8F 1_555 1_555
C6 C7 1_555 1_555
N1F C1F 1_555 1_555
C6F C5F 1_555 1_555

#END
