
#######################################################################
#
#                 Cambridge Crystallographic Data Centre
#                                CCDC 
#
#######################################################################
#
# If this CIF has been generated from an entry in the Cambridge 
# Structural Database, then it will include bibliographic, chemical, 
# crystal, experimental, refinement or atomic coordinate data resulting 
# from the CCDC's data processing and validation procedures.
#
#######################################################################

data_HEVTAF
_chemical_name_common            
'19-(2-furyl)geldanamycin tetrahydrofuran solvate'
_chemical_formula_moiety         'C33 H42 N2 O10,C4 H8 O1'
_chemical_name_systematic        
'21-(2-Furyl)-13-hydroxy-8,14,19-trimethoxy-4,10,12,16-tetramethyl-3,20,22-trioxo-2-azabicyclo[16.3.1]docosa-1(21),4,6,10,18-pentaen-9-yl carbamate tetrahydrofuran solvate'
_symmetry_cell_setting           monoclinic
_symmetry_space_group_name_H-M   'P 21'
_symmetry_Int_Tables_number      4
_space_group_name_Hall           'P 2yb'
loop_
_symmetry_equiv_pos_site_id
_symmetry_equiv_pos_as_xyz
1 x,y,z
2 -x,1/2+y,-z
_cell_length_a                   10.5002(7)
_cell_length_b                   10.3073(10)
_cell_length_c                   16.5868(17)
_cell_angle_alpha                90
_cell_angle_beta                 93.853(8)
_cell_angle_gamma                90
_cell_volume                     1791.11
_exptl_crystal_colour            red
_exptl_crystal_description       plate
_cell_formula_units_Z            2
loop_
_atom_site_label
_atom_site_type_symbol
_atom_site_fract_x
_atom_site_fract_y
_atom_site_fract_z
N1 N 0.5637(5) 0.3041(5) 0.6630(3)
H1 H 0.6166 0.2385 0.6590
C1 C 0.5586(6) 0.3922(6) 0.5999(4)
O1 O 0.6486(4) 0.4022(4) 0.5565(3)
C2 C 0.4354(5) 0.4630(6) 0.5793(4)
C3 C 0.4466(6) 0.5981(6) 0.5498(4)
H2 H 0.4272 0.6003 0.4911
H3 H 0.5337 0.6296 0.5624
H4 H 0.3862 0.6537 0.5762
C4 C 0.3263(6) 0.3939(7) 0.5806(4)
H5 H 0.3324 0.3075 0.6003
C5 C 0.2015(5) 0.4414(6) 0.5544(4)
H6 H 0.1963 0.5289 0.5364
C6 C 0.0915(6) 0.3747(6) 0.5527(4)
H7 H 0.0163 0.4208 0.5351
C7 C 0.0747(5) 0.2360(6) 0.5755(4)
H8 H 0.1551 0.2033 0.6043
O2 O 0.0452(4) 0.1592(4) 0.5052(3)
C8 C 0.1579(6) 0.1293(7) 0.4641(4)
H9 H 0.2165 0.0778 0.4998
H10 H 0.1999 0.2100 0.4495
H11 H 0.1341 0.0796 0.4150
C9 C -0.0350(5) 0.2234(6) 0.6305(4)
H12 H -0.1149 0.2579 0.6021
O3 O -0.0502(4) 0.0863(4) 0.6464(3)
C10 C -0.1690(6) 0.0413(6) 0.6483(4)
O4 O -0.2648(4) 0.1068(4) 0.6327(3)
N2 N -0.1718(5) -0.0848(5) 0.6673(3)
H13 H -0.2454 -0.1252 0.6691
H14 H -0.1000 -0.1274 0.6781
C11 C -0.0087(6) 0.2947(6) 0.7087(4)
C12 C 0.1030(6) 0.2437(6) 0.7619(4)
H15 H 0.0955 0.1494 0.7673
H16 H 0.1030 0.2840 0.8154
H17 H 0.1829 0.2647 0.7374
C13 C -0.0788(5) 0.3983(6) 0.7261(4)
H18 H -0.1457 0.4198 0.6869
C14 C -0.0661(5) 0.4857(6) 0.7991(4)
H19 H 0.0103 0.4581 0.8342
C15 C -0.1847(6) 0.4727(7) 0.8470(4)
H20 H -0.1730 0.5232 0.8970
H21 H -0.1979 0.3812 0.8603
H22 H -0.2594 0.5053 0.8146
C16 C -0.0478(6) 0.6262(6) 0.7732(4)
H23 H -0.1244 0.6506 0.7374
O5 O -0.0500(4) 0.7043(4) 0.8448(3)
H24 H -0.0479 0.7831 0.8321
C17 C 0.0690(6) 0.6506(6) 0.7256(4)
H25 H 0.0536 0.6059 0.6723
O6 O 0.0663(4) 0.7896(4) 0.7098(3)
C18 C 0.1476(6) 0.8311(7) 0.6493(4)
H26 H 0.2364 0.8308 0.6716
H27 H 0.1237 0.9190 0.6317
H28 H 0.1386 0.7719 0.6030
C19 C 0.2001(5) 0.6045(6) 0.7623(4)
H29 H 0.2656 0.6401 0.7281
H30 H 0.2025 0.5090 0.7565
C20 C 0.2435(6) 0.6361(6) 0.8508(4)
H31 H 0.1838 0.5929 0.8869
C21 C 0.2463(6) 0.7822(6) 0.8696(4)
H32 H 0.3046 0.8257 0.8346
H33 H 0.2758 0.7956 0.9263
H34 H 0.1603 0.8183 0.8598
C22 C 0.3811(6) 0.5834(6) 0.8717(4)
H35 H 0.4425 0.6444 0.8494
H36 H 0.3971 0.5836 0.9312
C23 C 0.4087(5) 0.4501(6) 0.8414(4)
C24 C 0.3770(6) 0.3411(6) 0.8809(4)
O7 O 0.3110(5) 0.3517(5) 0.9474(3)
C25 C 0.3221(12) 0.2704(10) 1.0140(5)
H37 H 0.2675 0.3024 1.0554
H38 H 0.4111 0.2689 1.0360
H39 H 0.2955 0.1825 0.9979
C26 C 0.4064(7) 0.2088(7) 0.8494(4)
O8 O 0.3782(7) 0.1106(5) 0.8870(4)
C27 C 0.4622(6) 0.1976(6) 0.7708(4)
C28 C 0.4775(5) 0.0682(6) 0.7372(4)
O9 O 0.4563(4) 0.0540(4) 0.6560(3)
C29 C 0.5080(6) -0.0502(6) 0.7713(4)
H40 H 0.5252 -0.0680 0.8272
C30 C 0.5089(6) -0.1405(7) 0.7072(4)
H41 H 0.5282 -0.2304 0.7115
C31 C 0.4770(6) -0.0745(6) 0.6386(4)
H42 H 0.4700 -0.1112 0.5860
C32 C 0.4962(6) 0.3063(6) 0.7314(4)
C33 C 0.4753(5) 0.4365(6) 0.7680(4)
O10 O 0.5225(4) 0.5343(4) 0.7368(3)
O11 O -0.0487(5) 0.9817(5) 0.8590(3)
C34 C 0.0202(7) 1.0284(7) 0.9305(5)
H43 H 0.1083 1.0525 0.9186
H44 H 0.0246 0.9605 0.9728
C35 C -0.0498(7) 1.1443(7) 0.9584(4)
H45 H -0.0222 1.2245 0.9318
H46 H -0.0380 1.1549 1.0178
C36 C -0.1868(7) 1.1097(7) 0.9319(4)
H47 H -0.2233 1.0480 0.9698
H48 H -0.2414 1.1879 0.9267
C37 C -0.1705(6) 1.0482(7) 0.8514(4)
H49 H -0.2405 0.9860 0.8377
H50 H -0.1706 1.1151 0.8086
loop_
_geom_bond_atom_site_label_1
_geom_bond_atom_site_label_2
_geom_bond_site_symmetry_1
_geom_bond_site_symmetry_2
N1 H1 1_555 1_555
C1 N1 1_555 1_555
O1 C1 1_555 1_555
C2 C1 1_555 1_555
C3 C2 1_555 1_555
H2 C3 1_555 1_555
H3 C3 1_555 1_555
H4 C3 1_555 1_555
C4 C2 1_555 1_555
H5 C4 1_555 1_555
C5 C4 1_555 1_555
H6 C5 1_555 1_555
C6 C5 1_555 1_555
H7 C6 1_555 1_555
C7 C6 1_555 1_555
H8 C7 1_555 1_555
O2 C7 1_555 1_555
C8 O2 1_555 1_555
H9 C8 1_555 1_555
H10 C8 1_555 1_555
H11 C8 1_555 1_555
C9 C7 1_555 1_555
H12 C9 1_555 1_555
O3 C9 1_555 1_555
C10 O3 1_555 1_555
O4 C10 1_555 1_555
N2 C10 1_555 1_555
H13 N2 1_555 1_555
H14 N2 1_555 1_555
C11 C9 1_555 1_555
C12 C11 1_555 1_555
H15 C12 1_555 1_555
H16 C12 1_555 1_555
H17 C12 1_555 1_555
C13 C11 1_555 1_555
H18 C13 1_555 1_555
C14 C13 1_555 1_555
H19 C14 1_555 1_555
C15 C14 1_555 1_555
H20 C15 1_555 1_555
H21 C15 1_555 1_555
H22 C15 1_555 1_555
C16 C14 1_555 1_555
H23 C16 1_555 1_555
O5 C16 1_555 1_555
H24 O5 1_555 1_555
C17 C16 1_555 1_555
H25 C17 1_555 1_555
O6 C17 1_555 1_555
C18 O6 1_555 1_555
H26 C18 1_555 1_555
H27 C18 1_555 1_555
H28 C18 1_555 1_555
C19 C17 1_555 1_555
H29 C19 1_555 1_555
H30 C19 1_555 1_555
C20 C19 1_555 1_555
H31 C20 1_555 1_555
C21 C20 1_555 1_555
H32 C21 1_555 1_555
H33 C21 1_555 1_555
H34 C21 1_555 1_555
C22 C20 1_555 1_555
H35 C22 1_555 1_555
H36 C22 1_555 1_555
C23 C22 1_555 1_555
C24 C23 1_555 1_555
O7 C24 1_555 1_555
C25 O7 1_555 1_555
H37 C25 1_555 1_555
H38 C25 1_555 1_555
H39 C25 1_555 1_555
C26 C24 1_555 1_555
O8 C26 1_555 1_555
C27 C26 1_555 1_555
C28 C27 1_555 1_555
O9 C28 1_555 1_555
C29 C28 1_555 1_555
H40 C29 1_555 1_555
C30 C29 1_555 1_555
H41 C30 1_555 1_555
C31 O9 1_555 1_555
H42 C31 1_555 1_555
C32 N1 1_555 1_555
C33 C23 1_555 1_555
O10 C33 1_555 1_555
O11 C34 1_555 1_555
C34 H43 1_555 1_555
H44 C34 1_555 1_555
C35 C34 1_555 1_555
H45 C35 1_555 1_555
H46 C35 1_555 1_555
C36 C35 1_555 1_555
H47 C36 1_555 1_555
H48 C36 1_555 1_555
C37 O11 1_555 1_555
H49 C37 1_555 1_555
H50 C37 1_555 1_555
C27 C32 1_555 1_555
C30 C31 1_555 1_555
C32 C33 1_555 1_555
C36 C37 1_555 1_555

#END
