
#######################################################################
#
#                 Cambridge Crystallographic Data Centre
#                                CCDC 
#
#######################################################################
#
# If this CIF has been generated from an entry in the Cambridge 
# Structural Database, then it will include bibliographic, chemical, 
# crystal, experimental, refinement or atomic coordinate data resulting 
# from the CCDC's data processing and validation procedures.
#
#######################################################################

data_HEVTEI
_chemical_formula_moiety         'C36 H24 N2'
_chemical_name_systematic        
cis-2,5-Diphenyl-1,4-bis(\b-cyanostyryl)benzene
_symmetry_cell_setting           monoclinic
_symmetry_space_group_name_H-M   'P 21/n'
_symmetry_Int_Tables_number      14
_space_group_name_Hall           '-P 2yn'
loop_
_symmetry_equiv_pos_site_id
_symmetry_equiv_pos_as_xyz
1 x,y,z
2 1/2-x,1/2+y,1/2-z
3 -x,-y,-z
4 1/2+x,1/2-y,1/2+z
_cell_length_a                   6.6450(13)
_cell_length_b                   27.561(6)
_cell_length_c                   7.6528(15)
_cell_angle_alpha                90
_cell_angle_beta                 110.83(3)
_cell_angle_gamma                90
_cell_volume                     1309.95
_exptl_crystal_colour            colorless
_exptl_crystal_description       platelet
_chemical_melting_point          307deg.C
_cell_formula_units_Z            2
_exptl_crystal_recrystallization_method dichloromethane/methanol
_exptl_crystal_preparation       fluorescent
loop_
_atom_site_label
_atom_site_type_symbol
_atom_site_fract_x
_atom_site_fract_y
_atom_site_fract_z
N1 N 1.3822(4) 0.11807(9) -0.1317(5)
C1 C 1.0517(4) 0.02522(9) -0.1325(3)
C2 C 0.9601(4) 0.05032(8) -0.0209(3)
C3 C 0.9063(3) 0.02392(8) 0.1142(3)
C4 C 0.9098(4) 0.10212(8) -0.0483(3)
C5 C 1.0227(4) 0.13718(8) -0.0921(3)
C6 C 0.9574(4) 0.18880(8) -0.1216(3)
C7 C 0.7730(5) 0.20559(10) -0.0974(4)
C8 C 0.7181(6) 0.25388(11) -0.1207(5)
C9 C 0.8435(6) 0.28630(12) -0.1679(4)
C10 C 1.0244(6) 0.27038(11) -0.1945(5)
C11 C 1.0820(5) 0.22240(10) -0.1708(4)
C12 C 0.8053(4) 0.04752(8) 0.2371(3)
C13 C 0.6232(4) 0.02745(11) 0.2562(4)
C14 C 0.5238(6) 0.04988(15) 0.3667(4)
C15 C 0.6078(6) 0.09212(14) 0.4597(5)
C16 C 0.7887(7) 0.11192(12) 0.4438(4)
C17 C 0.8881(5) 0.08986(10) 0.3336(4)
C18 C 1.2232(5) 0.12551(9) -0.1115(4)
H1 H 1.079(4) 0.0433(8) -0.233(3)
H2 H 0.771(4) 0.1111(8) -0.034(3)
H3 H 0.678(5) 0.1820(11) -0.069(4)
H4 H 0.584(5) 0.2641(11) -0.105(4)
H5 H 0.816(5) 0.3208(12) -0.180(4)
H6 H 1.120(5) 0.2929(10) -0.233(4)
H7 H 1.211(5) 0.2103(10) -0.190(4)
H8 H 0.576(4) -0.0026(10) 0.197(3)
H9 H 0.397(4) 0.0348(9) 0.374(3)
H10 H 0.531(5) 0.1082(10) 0.538(4)
H11 H 0.854(5) 0.1419(11) 0.505(4)
H12 H 1.023(4) 0.1045(8) 0.326(3)
N1B N 0.6178(4) -0.11807(9) 0.1317(5)
C1B C 0.9483(4) -0.02522(9) 0.1325(3)
C2B C 1.0399(4) -0.05032(8) 0.0209(3)
C3B C 1.0937(3) -0.02392(8) -0.1142(3)
C4B C 1.0902(4) -0.10212(8) 0.0483(3)
C5B C 0.9773(4) -0.13718(8) 0.0921(3)
C6B C 1.0426(4) -0.18880(8) 0.1216(3)
C7B C 1.2270(5) -0.20559(10) 0.0974(4)
C8B C 1.2819(6) -0.25388(11) 0.1207(5)
C9B C 1.1565(6) -0.28630(12) 0.1679(4)
C10B C 0.9756(6) -0.27038(11) 0.1945(5)
C11B C 0.9180(5) -0.22240(10) 0.1708(4)
C12B C 1.1947(4) -0.04752(8) -0.2371(3)
C13B C 1.3768(4) -0.02745(11) -0.2562(4)
C14B C 1.4762(6) -0.04988(15) -0.3667(4)
C15B C 1.3922(6) -0.09212(14) -0.4597(5)
C16B C 1.2113(7) -0.11192(12) -0.4438(4)
C17B C 1.1119(5) -0.08986(10) -0.3336(4)
C18B C 0.7768(5) -0.12551(9) 0.1115(4)
H1B H 0.921(4) -0.0433(8) 0.233(3)
H2B H 1.229(4) -0.1111(8) 0.034(3)
H3B H 1.322(5) -0.1820(11) 0.069(4)
H4B H 1.416(5) -0.2641(11) 0.105(4)
H5B H 1.184(5) -0.3208(12) 0.180(4)
H6B H 0.880(5) -0.2929(10) 0.233(4)
H7B H 0.789(5) -0.2103(10) 0.190(4)
H8B H 1.424(4) 0.0026(10) -0.197(3)
H9B H 1.603(4) -0.0348(9) -0.374(3)
H10B H 1.469(5) -0.1082(10) -0.538(4)
H11B H 1.146(5) -0.1419(11) -0.505(4)
H12B H 0.977(4) -0.1045(8) -0.326(3)
loop_
_geom_bond_atom_site_label_1
_geom_bond_atom_site_label_2
_geom_bond_site_symmetry_1
_geom_bond_site_symmetry_2
N1 C18 1_555 1_555
C1 C2 1_555 1_555
C2 C3 1_555 1_555
C3 C12 1_555 1_555
C4 C2 1_555 1_555
C5 C4 1_555 1_555
C6 C5 1_555 1_555
C7 C6 1_555 1_555
C8 C7 1_555 1_555
C9 C8 1_555 1_555
C10 C9 1_555 1_555
C11 C6 1_555 1_555
C12 C13 1_555 1_555
C13 C14 1_555 1_555
C14 C15 1_555 1_555
C15 C16 1_555 1_555
C16 C17 1_555 1_555
C17 C12 1_555 1_555
C18 C5 1_555 1_555
H1 C1 1_555 1_555
H2 C4 1_555 1_555
H3 C7 1_555 1_555
H4 C8 1_555 1_555
H5 C9 1_555 1_555
H6 C10 1_555 1_555
H7 C11 1_555 1_555
H8 C13 1_555 1_555
H9 C14 1_555 1_555
H10 C15 1_555 1_555
H11 C16 1_555 1_555
H12 C17 1_555 1_555
N1B C18B 1_555 1_555
C1B C3 1_555 1_555
C2B C1B 1_555 1_555
C3B C1 1_555 1_555
C4B C2B 1_555 1_555
C5B C4B 1_555 1_555
C6B C5B 1_555 1_555
C7B C6B 1_555 1_555
C8B C7B 1_555 1_555
C9B C8B 1_555 1_555
C10B C9B 1_555 1_555
C11B C6B 1_555 1_555
C12B C3B 1_555 1_555
C13B C12B 1_555 1_555
C14B C13B 1_555 1_555
C15B C14B 1_555 1_555
C16B C15B 1_555 1_555
C17B C12B 1_555 1_555
C18B C5B 1_555 1_555
H1B C1B 1_555 1_555
H2B C4B 1_555 1_555
H3B C7B 1_555 1_555
H4B C8B 1_555 1_555
H5B C9B 1_555 1_555
H6B C10B 1_555 1_555
H7B C11B 1_555 1_555
H8B C13B 1_555 1_555
H9B C14B 1_555 1_555
H10B C15B 1_555 1_555
H11B C16B 1_555 1_555
H12B C17B 1_555 1_555
C10 C11 1_555 1_555
C2B C3B 1_555 1_555
C10B C11B 1_555 1_555
C16B C17B 1_555 1_555

#END
