
#######################################################################
#
#                 Cambridge Crystallographic Data Centre
#                                CCDC 
#
#######################################################################
#
# If this CIF has been generated from an entry in the Cambridge 
# Structural Database, then it will include bibliographic, chemical, 
# crystal, experimental, refinement or atomic coordinate data resulting 
# from the CCDC's data processing and validation procedures.
#
#######################################################################

data_HEVVAF01
_chemical_formula_moiety         'C23 H17 N1'
_chemical_name_systematic        2,4,6-Triphenylpyridine
_symmetry_cell_setting           orthorhombic
_symmetry_space_group_name_H-M   'P n a 21'
_symmetry_Int_Tables_number      33
_space_group_name_Hall           'P 2c -2n'
loop_
_symmetry_equiv_pos_site_id
_symmetry_equiv_pos_as_xyz
1 x,y,z
2 -x,-y,1/2+z
3 1/2+x,1/2-y,z
4 1/2-x,1/2+y,1/2+z
_cell_length_a                   7.468(3)
_cell_length_b                   19.561(8)
_cell_length_c                   11.277(4)
_cell_angle_alpha                90
_cell_angle_beta                 90
_cell_angle_gamma                90
_cell_volume                     1647.36
_cell_formula_units_Z            4
loop_
_atom_site_label
_atom_site_type_symbol
_atom_site_fract_x
_atom_site_fract_y
_atom_site_fract_z
C1 C 0.8086(6) 0.1692(2) 0.5323(4)
C2 C 0.7753(6) 0.2321(2) 0.3417(4)
H1 H 0.7939 0.2729 0.3822
N1 N 0.7499(5) 0.1111(2) 0.3444(4)
C3 C 0.7773(6) 0.1716(2) 0.4033(4)
C4 C 0.7474(7) 0.2201(2) 0.6056(5)
H2 H 0.6829 0.2563 0.5734
C5 C 0.6909(6) 0.0472(2) 0.1611(4)
C6 C 0.6881(7) 0.4193(3) 0.1457(6)
H3 H 0.6502 0.4592 0.1827
C7 C 0.8783(8) 0.1666(3) 0.7728(5)
H4 H 0.9016 0.1658 0.8538
C8 C 0.9433(8) 0.1155(3) 0.7024(5)
H5 H 1.0107 0.0803 0.7351
C9 C 0.7434(6) 0.2983(2) 0.1560(4)
C10 C 0.5661(7) -0.0663(3) 0.1573(6)
H6 H 0.5061 -0.1016 0.1956
C11 C 0.9079(7) 0.1167(2) 0.5816(5)
H7 H 0.9513 0.0818 0.5334
C12 C 0.7417(7) 0.4207(3) 0.0309(6)
H8 H 0.7409 0.4617 -0.0108
C13 C 0.7988(8) 0.3018(3) 0.0387(5)
H9 H 0.8386 0.2623 0.0011
C14 C 0.7211(6) 0.1727(2) 0.1651(4)
H10 H 0.7028 0.1726 0.0835
C15 C 0.6155(8) -0.0730(3) 0.0406(7)
H11 H 0.5906 -0.1131 -0.0005
C16 C 0.7375(6) 0.0393(3) 0.0449(4)
H12 H 0.7948 0.0748 0.0053
C17 C 0.7216(6) 0.1124(2) 0.2238(4)
C18 C 0.6897(7) 0.3584(3) 0.2075(5)
H13 H 0.6534 0.3581 0.2863
C19 C 0.7009(8) -0.0206(3) -0.0145(5)
H14 H 0.7351 -0.0252 -0.0933
C20 C 0.7964(8) 0.3625(3) -0.0234(6)
H15 H 0.8322 0.3635 -0.1024
C21 C 0.7463(6) 0.2335(3) 0.2213(5)
C22 C 0.7796(8) 0.2187(3) 0.7258(5)
H16 H 0.7345 0.2530 0.7745
C23 C 0.6061(7) -0.0070(2) 0.2169(5)
H17 H 0.5755 -0.0032 0.2966
loop_
_geom_bond_atom_site_label_1
_geom_bond_atom_site_label_2
_geom_bond_site_symmetry_1
_geom_bond_site_symmetry_2
C1 C3 1_555 1_555
C2 H1 1_555 1_555
N1 C3 1_555 1_555
C3 C2 1_555 1_555
C4 C1 1_555 1_555
H2 C4 1_555 1_555
C5 C16 1_555 1_555
C6 H3 1_555 1_555
C7 H4 1_555 1_555
C8 C7 1_555 1_555
H5 C8 1_555 1_555
C9 C13 1_555 1_555
C10 H6 1_555 1_555
C11 C1 1_555 1_555
H7 C11 1_555 1_555
C12 C6 1_555 1_555
H8 C12 1_555 1_555
C13 H9 1_555 1_555
C14 H10 1_555 1_555
C15 C10 1_555 1_555
H11 C15 1_555 1_555
C16 H12 1_555 1_555
C17 N1 1_555 1_555
C18 C6 1_555 1_555
H13 C18 1_555 1_555
C19 C15 1_555 1_555
H14 C19 1_555 1_555
C20 C12 1_555 1_555
H15 C20 1_555 1_555
C21 C2 1_555 1_555
C22 C4 1_555 1_555
H16 C22 1_555 1_555
C23 C5 1_555 1_555
H17 C23 1_555 1_555
C5 C17 1_555 1_555
C7 C22 1_555 1_555
C8 C11 1_555 1_555
C9 C18 1_555 1_555
C9 C21 1_555 1_555
C10 C23 1_555 1_555
C13 C20 1_555 1_555
C14 C17 1_555 1_555
C14 C21 1_555 1_555
C16 C19 1_555 1_555

#END
