
#######################################################################
#
#                 Cambridge Crystallographic Data Centre
#                                CCDC 
#
#######################################################################
#
# If this CIF has been generated from an entry in the Cambridge 
# Structural Database, then it will include bibliographic, chemical, 
# crystal, experimental, refinement or atomic coordinate data resulting 
# from the CCDC's data processing and validation procedures.
#
#######################################################################

data_HEVWOU
_chemical_formula_moiety         'C10 H11 Br1 O4 S1'
_chemical_name_systematic        '3-Bromo-2-oxopropyl p-toluenesulfonate'
_symmetry_cell_setting           monoclinic
_symmetry_space_group_name_H-M   'P 21/c'
_symmetry_Int_Tables_number      14
_space_group_name_Hall           '-P 2ybc'
loop_
_symmetry_equiv_pos_site_id
_symmetry_equiv_pos_as_xyz
1 x,y,z
2 -x,1/2+y,1/2-z
3 -x,-y,-z
4 x,1/2-y,1/2+z
_cell_length_a                   11.002(2)
_cell_length_b                   5.160(2)
_cell_length_c                   22.490(3)
_cell_angle_alpha                90
_cell_angle_beta                 110.48(3)
_cell_angle_gamma                90
_cell_volume                     1196.07
_exptl_crystal_colour            Colorless
_chemical_melting_point          67.0deg.C
_cell_formula_units_Z            4
loop_
_atom_site_label
_atom_site_type_symbol
_atom_site_fract_x
_atom_site_fract_y
_atom_site_fract_z
Br1 Br 0.16417(5) 0.19840(11) 0.01966(2)
S1 S 0.21392(9) 0.9838(2) 0.23277(5)
O1 O 0.1776(2) 0.8066(5) 0.17120(11)
O2 O 0.2994(3) 1.1711(5) 0.22244(13)
O3 O 0.0971(3) 1.0660(6) 0.24121(13)
O4 O -0.0184(3) 0.2805(6) 0.09153(15)
C1 C 0.2986(3) 0.7725(7) 0.2942(2)
C2 C 0.4257(4) 0.7088(8) 0.3032(2)
H1 H 0.4675(4) 0.7827(8) 0.2779(2)
C3 C 0.4901(4) 0.5343(9) 0.3502(2)
H2 H 0.5754(4) 0.4893(9) 0.3561(2)
C4 C 0.4289(4) 0.4246(9) 0.3889(2)
C5 C 0.3028(4) 0.4939(10) 0.3798(2)
H3 H 0.2618(4) 0.4235(10) 0.4058(2)
C6 C 0.2356(4) 0.6669(9) 0.3323(2)
H4 H 0.1502(4) 0.7111(9) 0.3262(2)
C7 C 0.4994(5) 0.2299(10) 0.4393(2)
H5 H 0.5883(10) 0.2818(36) 0.4590(11)
H6 H 0.4958(28) 0.0624(16) 0.4202(4)
H7 H 0.4588(21) 0.2217(49) 0.4708(9)
C8 C 0.0665(4) 0.6369(8) 0.1575(2)
H8 H -0.0126(4) 0.7385(8) 0.1427(2)
H9 H 0.0695(4) 0.5470(8) 0.1959(2)
C9 C 0.0660(4) 0.4416(8) 0.1073(2)
C10 C 0.1735(4) 0.4637(8) 0.0809(2)
H10 H 0.2563(4) 0.4518(8) 0.1154(2)
H11 H 0.1690(4) 0.6322(8) 0.0611(2)
loop_
_geom_bond_atom_site_label_1
_geom_bond_atom_site_label_2
_geom_bond_site_symmetry_1
_geom_bond_site_symmetry_2
Br1 C10 1_555 1_555
S1 O1 1_555 1_555
O1 C8 1_555 1_555
O2 S1 1_555 1_555
O3 S1 1_555 1_555
O4 C9 1_555 1_555
C1 S1 1_555 1_555
C2 C1 1_555 1_555
H1 C2 1_555 1_555
C3 C2 1_555 1_555
H2 C3 1_555 1_555
C4 C3 1_555 1_555
C5 C4 1_555 1_555
H3 C5 1_555 1_555
C6 C1 1_555 1_555
H4 C6 1_555 1_555
C7 C4 1_555 1_555
H5 C7 1_555 1_555
H6 C7 1_555 1_555
H7 C7 1_555 1_555
C8 H8 1_555 1_555
H9 C8 1_555 1_555
C9 C8 1_555 1_555
C10 C9 1_555 1_555
H10 C10 1_555 1_555
H11 C10 1_555 1_555
C5 C6 1_555 1_555

#END
