
#######################################################################
#
#                 Cambridge Crystallographic Data Centre
#                                CCDC 
#
#######################################################################
#
# If this CIF has been generated from an entry in the Cambridge 
# Structural Database, then it will include bibliographic, chemical, 
# crystal, experimental, refinement or atomic coordinate data resulting 
# from the CCDC's data processing and validation procedures.
#
#######################################################################

data_HEVXUB
_chemical_name_common            
3,3-Dimethyl-9-(5,5-dimethyl-3-hydroxy-2-cyclohexen-1-on-2-yl)-1-oxo-2,3,4,9-tetrahydroxanthene
_chemical_formula_moiety         'C23 H26 O4'
_chemical_name_systematic        
3,3-Dimethyl-9-(5,5-dimethyl-3-hydroxy-2-cyclohexen-1-on-2-yl)-1-oxo-2,3,4,9-tetrahydro-1H-xanthene
_symmetry_cell_setting           monoclinic
_symmetry_space_group_name_H-M   'P 21/c'
_symmetry_Int_Tables_number      14
_space_group_name_Hall           '-P 2ybc'
loop_
_symmetry_equiv_pos_site_id
_symmetry_equiv_pos_as_xyz
1 x,y,z
2 -x,1/2+y,1/2-z
3 -x,-y,-z
4 x,1/2-y,1/2+z
_cell_length_a                   7.056(7)
_cell_length_b                   20.263(3)
_cell_length_c                   13.665(2)
_cell_angle_alpha                90
_cell_angle_beta                 93.32(1)
_cell_angle_gamma                90
_cell_volume                     1950.48
_chemical_melting_point          203-205deg.C
_cell_formula_units_Z            4
loop_
_atom_site_label
_atom_site_type_symbol
_atom_site_fract_x
_atom_site_fract_y
_atom_site_fract_z
O1 O 0.2038(4) 0.3006(2) 0.2239(3)
O2 O 0.6787(5) 0.1410(2) 0.1859(3)
O3 O 0.9553(4) 0.2332(2) 0.3657(2)
O4 O 0.3159(4) 0.2079(2) 0.4201(2)
C1 C 0.3273(7) 0.3444(2) 0.2761(4)
C2 C 0.5108(6) 0.3254(2) 0.3066(4)
C3 C 0.6203(7) 0.3727(3) 0.3570(4)
C4 C 0.5559(8) 0.4358(3) 0.3705(4)
C5 C 0.3732(8) 0.4531(3) 0.3376(4)
C6 C 0.2593(7) 0.4069(3) 0.2878(4)
C7 C 0.2729(6) 0.2414(2) 0.1948(3)
C8 C 0.4523(6) 0.2210(2) 0.2160(3)
C9 C 0.5869(6) 0.2577(2) 0.2874(3)
C10 C 0.5149(7) 0.1615(2) 0.1702(4)
C11 C 0.3807(6) 0.1278(3) 0.0964(4)
C12 C 0.1747(6) 0.1314(2) 0.1234(4)
C13 C 0.1259(6) 0.2043(3) 0.1329(4)
C14 C 0.6327(6) 0.2172(2) 0.3808(3)
C15 C 0.4845(6) 0.1920(2) 0.4348(4)
C16 C 0.5336(7) 0.1442(3) 0.5194(3)
C17 C 0.7193(6) 0.1079(3) 0.5116(4)
C18 C 0.8716(6) 0.1576(3) 0.4935(4)
C19 C 0.8155(6) 0.2043(2) 0.4097(3)
C20 C 0.0474(7) 0.1013(3) 0.0410(4)
C21 C 0.1449(7) 0.0945(3) 0.2179(4)
C22 C 0.7040(8) 0.0573(3) 0.4284(4)
C23 C 0.7704(8) 0.0710(3) 0.6085(4)
loop_
_geom_bond_atom_site_label_1
_geom_bond_atom_site_label_2
_geom_bond_site_symmetry_1
_geom_bond_site_symmetry_2
O1 C1 1_555 1_555
O2 C10 1_555 1_555
O3 C19 1_555 1_555
O4 C15 1_555 1_555
C1 C2 1_555 1_555
C2 C3 1_555 1_555
C3 C4 1_555 1_555
C4 C5 1_555 1_555
C5 C6 1_555 1_555
C6 C1 1_555 1_555
C7 O1 1_555 1_555
C8 C7 1_555 1_555
C9 C2 1_555 1_555
C10 C8 1_555 1_555
C11 C10 1_555 1_555
C12 C11 1_555 1_555
C13 C7 1_555 1_555
C14 C9 1_555 1_555
C15 C14 1_555 1_555
C16 C15 1_555 1_555
C17 C16 1_555 1_555
C18 C17 1_555 1_555
C19 C14 1_555 1_555
C20 C12 1_555 1_555
C21 C12 1_555 1_555
C22 C17 1_555 1_555
C23 C17 1_555 1_555
C8 C9 1_555 1_555
C12 C13 1_555 1_555
C18 C19 1_555 1_555

#END
