
#######################################################################
#
#                 Cambridge Crystallographic Data Centre
#                                CCDC 
#
#######################################################################
#
# If this CIF has been generated from an entry in the Cambridge 
# Structural Database, then it will include bibliographic, chemical, 
# crystal, experimental, refinement or atomic coordinate data resulting 
# from the CCDC's data processing and validation procedures.
#
#######################################################################

data_HEVYIT
_chemical_formula_moiety         'C15 H15 N1 O2'
_chemical_name_systematic        
3-methoxy-2-methyl-1-methylidene-1,2,3,9-tetrahydro-4H-carbazol-4-one
_symmetry_cell_setting           triclinic
_symmetry_space_group_name_H-M   'P -1'
_symmetry_Int_Tables_number      2
_space_group_name_Hall           '-P 1'
loop_
_symmetry_equiv_pos_site_id
_symmetry_equiv_pos_as_xyz
1 x,y,z
2 -x,-y,-z
_cell_length_a                   8.6782(3)
_cell_length_b                   11.0283(3)
_cell_length_c                   13.4145(4)
_cell_angle_alpha                74.0888(17)
_cell_angle_beta                 83.2622(19)
_cell_angle_gamma                81.7309(19)
_cell_volume                     1217.72
_exptl_crystal_colour            colorless
_exptl_crystal_description       block
_cell_formula_units_Z            4
loop_
_atom_site_label
_atom_site_type_symbol
_atom_site_fract_x
_atom_site_fract_y
_atom_site_fract_z
O1 O 0.7733(2) 0.15960(16) 0.31246(13)
O2 O 0.7859(2) 0.34902(15) 0.40236(13)
N1 N 0.7380(2) -0.14445(18) 0.62353(15)
H1 H 0.7356 -0.1829 0.6904
C1 C 0.7625(3) -0.0213(2) 0.58031(18)
C2 C 0.7596(3) 0.0055(2) 0.47352(18)
C3 C 0.7308(3) -0.1087(2) 0.44974(19)
C4 C 0.7218(3) -0.1431(2) 0.3577(2)
H2 H 0.7343 -0.0838 0.2918
C5 C 0.6941(3) -0.2657(2) 0.3656(2)
H3 H 0.6860 -0.2903 0.3041
C6 C 0.6778(3) -0.3543(2) 0.4617(2)
H4 H 0.6576 -0.4375 0.4641
C7 C 0.6904(3) -0.3238(2) 0.5534(2)
H5 H 0.6811 -0.3845 0.6189
C8 C 0.7173(3) -0.2000(2) 0.54531(19)
C9 C 0.7813(3) 0.1297(2) 0.40703(19)
C10 C 0.8297(4) 0.2221(2) 0.4617(2)
H6 H 0.9463 0.2094 0.4593
C11 C 0.7708(4) 0.2047(3) 0.5728(2)
H7 H 0.6554 0.2298 0.5728
C12 C 0.7916(3) 0.0682(2) 0.63670(19)
C13 C 0.8244(3) 0.0317(2) 0.7347(2)
H8 H 0.8298 -0.0556 0.7712
H9 H 0.8426 0.0926 0.7689
C14 C 0.8331(3) 0.2972(2) 0.6201(2)
H10 H 0.9468 0.2779 0.6214
H11 H 0.7853 0.2888 0.6912
H12 H 0.8073 0.3842 0.5780
C15 C 0.9148(3) 0.4078(3) 0.3474(2)
H13 H 0.9863 0.4142 0.3966
H14 H 0.8788 0.4930 0.3059
H15 H 0.9693 0.3573 0.3013
O3 O 0.2514(2) 0.33406(17) 1.18466(13)
O4 O 0.4101(2) 0.15079(16) 1.09971(15)
N2 N 0.2271(2) 0.63363(18) 0.87066(15)
H16 H 0.2393 0.6720 0.8039
C16 C 0.2909(3) 0.5137(2) 0.91654(18)
C17 C 0.2462(3) 0.4862(2) 1.02285(18)
C18 C 0.1502(3) 0.5958(2) 1.04263(18)
C19 C 0.0774(3) 0.6280(3) 1.1321(2)
H17 H 0.0855 0.5699 1.1987
C20 C -0.0065(3) 0.7466(3) 1.1208(2)
H18 H -0.0573 0.7694 1.1809
C21 C -0.0189(3) 0.8331(2) 1.0248(2)
H19 H -0.0794 0.9131 1.0203
C22 C 0.0555(3) 0.8055(2) 0.9346(2)
H20 H 0.0491 0.8653 0.8686
C23 C 0.1395(3) 0.6863(2) 0.94590(19)
C24 C 0.2968(3) 0.3654(2) 1.09117(19)
C25 C 0.4190(4) 0.2794(2) 1.0425(2)
H21 H 0.5240 0.3009 1.0509
C26 C 0.4108(3) 0.2920(2) 0.9275(2)
H22 H 0.3124 0.2579 0.9220
C27 C 0.3938(3) 0.4296(2) 0.8649(2)
C28 C 0.4619(3) 0.4709(3) 0.7694(2)
H23 H 0.4437 0.5579 0.7329
H24 H 0.5286 0.4133 0.7378
C29 C 0.5431(3) 0.2077(2) 0.8872(2)
H25 H 0.5258 0.2064 0.8166
H26 H 0.5467 0.1213 0.9329
H27 H 0.6424 0.2409 0.8861
C30 C 0.5318(3) 0.1011(3) 1.1659(2)
H28 H 0.5294 0.1526 1.2152
H29 H 0.6325 0.1028 1.1242
H30 H 0.5180 0.0134 1.2042
loop_
_geom_bond_atom_site_label_1
_geom_bond_atom_site_label_2
_geom_bond_site_symmetry_1
_geom_bond_site_symmetry_2
O1 C9 1_555 1_555
O2 C10 1_555 1_555
N1 H1 1_555 1_555
C1 N1 1_555 1_555
C2 C1 1_555 1_555
C3 C2 1_555 1_555
C4 C3 1_555 1_555
H2 C4 1_555 1_555
C5 C4 1_555 1_555
H3 C5 1_555 1_555
C6 C5 1_555 1_555
H4 C6 1_555 1_555
C7 C6 1_555 1_555
H5 C7 1_555 1_555
C8 N1 1_555 1_555
C9 C2 1_555 1_555
C10 C9 1_555 1_555
H6 C10 1_555 1_555
C11 C10 1_555 1_555
H7 C11 1_555 1_555
C12 C1 1_555 1_555
C13 C12 1_555 1_555
H8 C13 1_555 1_555
H9 C13 1_555 1_555
C14 C11 1_555 1_555
H10 C14 1_555 1_555
H11 C14 1_555 1_555
H12 C14 1_555 1_555
C15 O2 1_555 1_555
H13 C15 1_555 1_555
H14 C15 1_555 1_555
H15 C15 1_555 1_555
O3 C24 1_555 1_555
O4 C25 1_555 1_555
N2 H16 1_555 1_555
C16 N2 1_555 1_555
C17 C16 1_555 1_555
C18 C17 1_555 1_555
C19 C18 1_555 1_555
H17 C19 1_555 1_555
C20 C19 1_555 1_555
H18 C20 1_555 1_555
C21 C20 1_555 1_555
H19 C21 1_555 1_555
C22 C21 1_555 1_555
H20 C22 1_555 1_555
C23 N2 1_555 1_555
C24 C17 1_555 1_555
C25 C24 1_555 1_555
H21 C25 1_555 1_555
C26 C25 1_555 1_555
H22 C26 1_555 1_555
C27 C16 1_555 1_555
C28 C27 1_555 1_555
H23 C28 1_555 1_555
H24 C28 1_555 1_555
C29 C26 1_555 1_555
H25 C29 1_555 1_555
H26 C29 1_555 1_555
H27 C29 1_555 1_555
C30 O4 1_555 1_555
H28 C30 1_555 1_555
H29 C30 1_555 1_555
H30 C30 1_555 1_555
C3 C8 1_555 1_555
C7 C8 1_555 1_555
C11 C12 1_555 1_555
C18 C23 1_555 1_555
C22 C23 1_555 1_555
C26 C27 1_555 1_555

#END
