
#######################################################################
#
#                 Cambridge Crystallographic Data Centre
#                                CCDC 
#
#######################################################################
#
# If this CIF has been generated from an entry in the Cambridge 
# Structural Database, then it will include bibliographic, chemical, 
# crystal, experimental, refinement or atomic coordinate data resulting 
# from the CCDC's data processing and validation procedures.
#
#######################################################################

data_HEWJUR
_chemical_formula_moiety         'C25 H23 Br1 N2'
_chemical_name_systematic        
3-(1-(4-bromophenyl)-5-phenylpyrrolidin-2-yl)-2-methyl-1H-indole
_symmetry_cell_setting           orthorhombic
_symmetry_space_group_name_H-M   'P n a 21'
_symmetry_Int_Tables_number      33
_space_group_name_Hall           'P 2c -2n'
loop_
_symmetry_equiv_pos_site_id
_symmetry_equiv_pos_as_xyz
1 x,y,z
2 -x,-y,1/2+z
3 1/2+x,1/2-y,z
4 1/2-x,1/2+y,1/2+z
_cell_length_a                   8.3401(18)
_cell_length_b                   22.365(5)
_cell_length_c                   10.597(2)
_cell_angle_alpha                90
_cell_angle_beta                 90
_cell_angle_gamma                90
_cell_volume                     1976.62
_exptl_crystal_colour            colorless
_exptl_crystal_description       Prism
_cell_formula_units_Z            4
loop_
_atom_site_label
_atom_site_type_symbol
_atom_site_fract_x
_atom_site_fract_y
_atom_site_fract_z
Br1 Br 0.361715(18) 0.734997(8) -0.31454(3)
N1 N 0.71283(18) 0.92101(6) 0.00016(14)
N2 N 1.20817(19) 0.85101(7) 0.01981(15)
C1 C 0.5128(2) 1.06976(9) -0.05835(19)
H1 H 0.5924 1.0884 -0.1090
C2 C 0.3693(3) 1.09925(10) -0.0355(2)
H2 H 0.3521 1.1383 -0.0680
C3 C 0.2511(2) 1.07127(9) 0.0353(2)
H3 H 0.1522 1.0911 0.0506
C4 C 0.2770(2) 1.01465(9) 0.08365(19)
H4 H 0.1955 0.9954 0.1313
C5 C 0.4226(2) 0.98584(9) 0.06245(18)
H5 H 0.4404 0.9471 0.0966
C6 C 0.5415(2) 1.01316(8) -0.00791(18)
C7 C 0.7056(2) 0.98478(8) -0.0286(2)
H6 H 0.7407 0.9916 -0.1177
C8 C 0.8317(2) 1.01068(9) 0.0627(2)
H7 H 0.9405 1.0092 0.0253
H8 H 0.8061 1.0525 0.0856
C9 C 0.8189(2) 0.96971(7) 0.1762(3)
H9 H 0.7231 0.9793 0.2275
H10 H 0.9156 0.9725 0.2301
C10 C 0.8045(2) 0.90755(8) 0.11557(18)
H11 H 0.7393 0.8810 0.1716
C11 C 0.9678(2) 0.87946(8) 0.09381(18)
C12 C 1.05654(18) 0.85139(7) 0.1947(2)
C13 C 1.0259(2) 0.84028(9) 0.32185(19)
H12 H 0.9272 0.8525 0.3586
C14 C 1.1403(2) 0.81140(9) 0.39410(19)
H13 H 1.1200 0.8040 0.4809
C15 C 1.2862(2) 0.79286(9) 0.34053(19)
H14 H 1.3622 0.7724 0.3916
C16 C 1.3216(2) 0.80368(8) 0.21538(17)
H15 H 1.4204 0.7912 0.1794
C17 C 1.2070(2) 0.83361(8) 0.14386(16)
C18 C 1.0634(2) 0.87898(8) -0.01123(18)
C19 C 1.0432(3) 0.90228(9) -0.14182(19)
H16 H 1.1065 0.9389 -0.1519
H17 H 0.9298 0.9111 -0.1571
H18 H 1.0802 0.8722 -0.2024
C20 C 0.6303(2) 0.87873(9) -0.0681(2)
C21 C 0.5434(2) 0.89481(9) -0.17756(18)
H19 H 0.5403 0.9355 -0.2030
C22 C 0.4631(2) 0.85256(9) -0.24816(17)
H20 H 0.4069 0.8641 -0.3222
C23 C 0.4644(2) 0.79345(8) -0.21103(17)
C24 C 0.5439(2) 0.77624(8) -0.10274(17)
H21 H 0.5411 0.7357 -0.0763
C25 C 0.6279(2) 0.81816(8) -0.03263(17)
H22 H 0.6847 0.8058 0.0405
H23 H 1.2854(19) 0.8450(9) -0.0358(16)
loop_
_geom_bond_atom_site_label_1
_geom_bond_atom_site_label_2
_geom_bond_site_symmetry_1
_geom_bond_site_symmetry_2
Br1 C23 1_555 1_555
N1 C7 1_555 1_555
N2 C17 1_555 1_555
C1 H1 1_555 1_555
C2 C1 1_555 1_555
H2 C2 1_555 1_555
C3 C2 1_555 1_555
H3 C3 1_555 1_555
C4 C3 1_555 1_555
H4 C4 1_555 1_555
C5 C4 1_555 1_555
H5 C5 1_555 1_555
C6 C1 1_555 1_555
C7 C6 1_555 1_555
H6 C7 1_555 1_555
C8 C7 1_555 1_555
H7 C8 1_555 1_555
H8 C8 1_555 1_555
C9 C8 1_555 1_555
H9 C9 1_555 1_555
H10 C9 1_555 1_555
C10 N1 1_555 1_555
H11 C10 1_555 1_555
C11 C10 1_555 1_555
C12 C11 1_555 1_555
C13 C12 1_555 1_555
H12 C13 1_555 1_555
C14 C13 1_555 1_555
H13 C14 1_555 1_555
C15 C14 1_555 1_555
H14 C15 1_555 1_555
C16 C15 1_555 1_555
H15 C16 1_555 1_555
C17 C12 1_555 1_555
C18 N2 1_555 1_555
C19 C18 1_555 1_555
H16 C19 1_555 1_555
H17 C19 1_555 1_555
H18 C19 1_555 1_555
C20 N1 1_555 1_555
C21 C20 1_555 1_555
H19 C21 1_555 1_555
C22 C21 1_555 1_555
H20 C22 1_555 1_555
C23 C22 1_555 1_555
C24 C23 1_555 1_555
H21 C24 1_555 1_555
C25 C20 1_555 1_555
H22 C25 1_555 1_555
H23 N2 1_555 1_555
C5 C6 1_555 1_555
C9 C10 1_555 1_555
C11 C18 1_555 1_555
C16 C17 1_555 1_555
C24 C25 1_555 1_555

#END
